# Generated by pormake.
# Topology csq, (4,8)-cn, num edge types: 1
# Building blocks:
#     Node 0, Type 0, BuildingBlock: IZENUY_clean_linker_0, # of connection points: 4
#     Node 1, Type 0, BuildingBlock: IZENUY_clean_linker_0, # of connection points: 4
#     Node 2, Type 0, BuildingBlock: IZENUY_clean_linker_0, # of connection points: 4
#     Node 3, Type 0, BuildingBlock: IZENUY_clean_linker_0, # of connection points: 4
#     Node 4, Type 0, BuildingBlock: IZENUY_clean_linker_0, # of connection points: 4
#     Node 5, Type 0, BuildingBlock: IZENUY_clean_linker_0, # of connection points: 4
#     Node 6, Type 1, BuildingBlock: TAGTUT_clean_sbu_1, # of connection points: 8
#     Node 7, Type 1, BuildingBlock: TAGTUT_clean_sbu_1, # of connection points: 8
#     Node 8, Type 1, BuildingBlock: TAGTUT_clean_sbu_1, # of connection points: 8
#     Edge 9, Type (0, 1), BuildingBlock: EZIPEK_clean_linker_0, # of connection points: 2
#     Edge 10, Type (0, 1), BuildingBlock: EZIPEK_clean_linker_0, # of connection points: 2
#     Edge 11, Type (0, 1), BuildingBlock: EZIPEK_clean_linker_0, # of connection points: 2
#     Edge 12, Type (0, 1), BuildingBlock: EZIPEK_clean_linker_0, # of connection points: 2
#     Edge 13, Type (0, 1), BuildingBlock: EZIPEK_clean_linker_0, # of connection points: 2
#     Edge 14, Type (0, 1), BuildingBlock: EZIPEK_clean_linker_0, # of connection points: 2
#     Edge 15, Type (0, 1), BuildingBlock: EZIPEK_clean_linker_0, # of connection points: 2
#     Edge 16, Type (0, 1), BuildingBlock: EZIPEK_clean_linker_0, # of connection points: 2
#     Edge 17, Type (0, 1), BuildingBlock: EZIPEK_clean_linker_0, # of connection points: 2
#     Edge 18, Type (0, 1), BuildingBlock: EZIPEK_clean_linker_0, # of connection points: 2
#     Edge 19, Type (0, 1), BuildingBlock: EZIPEK_clean_linker_0, # of connection points: 2
#     Edge 20, Type (0, 1), BuildingBlock: EZIPEK_clean_linker_0, # of connection points: 2
#     Edge 21, Type (0, 1), BuildingBlock: EZIPEK_clean_linker_0, # of connection points: 2
#     Edge 22, Type (0, 1), BuildingBlock: EZIPEK_clean_linker_0, # of connection points: 2
#     Edge 23, Type (0, 1), BuildingBlock: EZIPEK_clean_linker_0, # of connection points: 2
#     Edge 24, Type (0, 1), BuildingBlock: EZIPEK_clean_linker_0, # of connection points: 2
#     Edge 25, Type (0, 1), BuildingBlock: EZIPEK_clean_linker_0, # of connection points: 2
#     Edge 26, Type (0, 1), BuildingBlock: EZIPEK_clean_linker_0, # of connection points: 2
#     Edge 27, Type (0, 1), BuildingBlock: EZIPEK_clean_linker_0, # of connection points: 2
#     Edge 28, Type (0, 1), BuildingBlock: EZIPEK_clean_linker_0, # of connection points: 2
#     Edge 29, Type (0, 1), BuildingBlock: EZIPEK_clean_linker_0, # of connection points: 2
#     Edge 30, Type (0, 1), BuildingBlock: EZIPEK_clean_linker_0, # of connection points: 2
#     Edge 31, Type (0, 1), BuildingBlock: EZIPEK_clean_linker_0, # of connection points: 2
#     Edge 32, Type (0, 1), BuildingBlock: EZIPEK_clean_linker_0, # of connection points: 2
# Relax obj value: 0.065
# Max RMSD: 0.143
# Mean RMSD: 0.136
data_MOF--net-csq--node1-TAGTUT_clean_sbu_1--node2-IZENUY_clean_linker_0--edge1-EZIPEK_clean_linker_0
_symmetry_space_group_name_H-M    P1
_symmetry_Int_Tables_number       1
_symmetry_cell_setting            triclinic
loop_
_symmetry_equiv_pos_as_xyz
'x, y, z'
_cell_length_a     44.339033
_cell_length_b     44.264772
_cell_length_c     14.527265
_cell_angle_alpha  94.518412
_cell_angle_beta   94.326527
_cell_angle_gamma 119.62671
loop_
_atom_site_label
_atom_site_type_symbol
_atom_site_fract_x
_atom_site_fract_y
_atom_site_fract_z
_atom_type_partial_charge
H0 H 0.21757 0.49375 0.05792 0.0
H1 H 0.21855 0.49672 0.35588 0.0
H2 H 0.13014 0.48697 0.18267 0.0
H3 H 0.30648 0.49742 0.30782 0.0
H4 H 0.309 0.50027 0.01194 0.0
H5 H 0.39053 0.4965 0.18247 0.0
N6 N 0.25569 0.4982 0.21783 0.0
N7 N 0.27163 0.49916 0.14952 0.0
C8 C 0.2055 0.49382 0.12003 0.0
C9 C 0.17232 0.49043 0.11096 0.0
C10 C 0.22251 0.49621 0.20822 0.0
C11 C 0.20579 0.49533 0.28781 0.0
C12 C 0.17249 0.49245 0.27938 0.0
C13 C 0.15602 0.48991 0.19038 0.0
C14 C 0.31929 0.49863 0.24645 0.0
C15 C 0.35031 0.49753 0.25469 0.0
C16 C 0.3043 0.50004 0.15924 0.0
C17 C 0.32099 0.50035 0.07982 0.0
C18 C 0.35243 0.49935 0.08776 0.0
C19 C 0.36692 0.49825 0.17583 0.0
H20 H 0.73199 0.19459 0.98127 0.0
H21 H 0.73545 0.19675 0.27941 0.0
H22 H 0.65182 0.10892 0.0972 0.0
H23 H 0.82395 0.28729 0.24516 0.0
H24 H 0.81657 0.27883 0.94471 0.0
H25 H 0.90208 0.36872 0.11303 0.0
N26 N 0.76907 0.23262 0.14782 0.0
N27 N 0.78357 0.24732 0.08124 0.0
C28 C 0.72091 0.18271 0.04181 0.0
C29 C 0.68992 0.15006 0.02882 0.0
C30 C 0.73741 0.1998 0.13254 0.0
C31 C 0.72265 0.18389 0.20969 0.0
C32 C 0.69185 0.15114 0.19722 0.0
C33 C 0.67557 0.13434 0.10683 0.0
C34 C 0.83354 0.29815 0.18225 0.0
C35 C 0.86502 0.33035 0.18857 0.0
C36 C 0.81528 0.27992 0.09328 0.0
C37 C 0.82945 0.29346 0.01291 0.0
C38 C 0.86091 0.32522 0.02099 0.0
C39 C 0.8775 0.34408 0.10794 0.0
H40 H 0.53179 0.71348 0.88196 0.0
H41 H 0.50842 0.7028 0.16507 0.0
H42 H 0.52071 0.62454 0.00593 0.0
H43 H 0.5177 0.7943 0.1198 0.0
H44 H 0.52464 0.79893 0.82523 0.0
H45 H 0.52049 0.88006 -0.00301 0.0
N46 N 0.51577 0.74221 0.02847 0.0
N47 N 0.51885 0.75895 0.96085 0.0
C48 C 0.52543 0.69858 0.94033 0.0
C49 C 0.52687 0.66767 0.93587 0.0
C50 C 0.517 0.71063 0.02162 0.0
C51 C 0.51208 0.69227 0.09972 0.0
C52 C 0.51369 0.66118 0.09381 0.0
C53 C 0.51895 0.64825 0.01007 0.0
C54 C 0.51754 0.80628 0.05769 0.0
C55 C 0.51888 0.83852 0.06632 0.0
C56 C 0.51849 0.79102 0.96991 0.0
C57 C 0.52169 0.80924 0.89194 0.0
C58 C 0.52229 0.84154 0.9022 0.0
C59 C 0.5191 0.85475 -0.01159 0.0
H60 H 0.72594 0.51125 0.89983 0.0
H61 H 0.72451 0.51028 0.19651 0.0
H62 H 0.64155 0.51143 0.0254 0.0
H63 H 0.81658 0.51858 0.15189 0.0
H64 H 0.81493 0.51342 0.85341 0.0
H65 H 0.90394 0.52491 0.02762 0.0
N66 N 0.76187 0.51157 0.05918 0.0
N67 N 0.77789 0.51253 -0.00893 0.0
C68 C 0.71333 0.51038 0.96141 0.0
C69 C 0.68195 0.51084 0.95305 0.0
C70 C 0.72886 0.50996 0.04904 0.0
C71 C 0.71224 0.50968 0.12849 0.0
C72 C 0.6804 0.50987 0.12043 0.0
C73 C 0.66552 0.51035 0.03216 0.0
C74 C 0.82859 0.51825 0.08986 0.0
C75 C 0.86184 0.52176 0.09921 0.0
C76 C 0.81133 0.51512 0.0013 0.0
C77 C 0.82793 0.51553 0.92178 0.0
C78 C 0.86134 0.51872 0.93063 0.0
C79 C 0.87804 0.52193 0.01982 0.0
H80 H 0.20949 0.72155 0.96491 0.0
H81 H 0.22 0.72739 0.26495 0.0
H82 H 0.13401 0.63788 0.09708 0.0
H83 H 0.30095 0.81386 0.23043 0.0
H84 H 0.29784 0.81385 0.93275 0.0
H85 H 0.38145 0.90039 0.11823 0.0
N86 N 0.25104 0.76052 0.12871 0.0
N87 N 0.26456 0.77641 0.06268 0.0
C88 C 0.20084 0.70988 0.02755 0.0
C89 C 0.16974 0.67729 0.02131 0.0
C90 C 0.21985 0.72749 0.11632 0.0
C91 C 0.20675 0.71306 0.1967 0.0
C92 C 0.17551 0.68115 0.18887 0.0
C93 C 0.15842 0.66266 0.10187 0.0
C94 C 0.31211 0.82617 0.17048 0.0
C95 C 0.34323 0.85873 0.18475 0.0
C96 C 0.29579 0.8096 0.07918 0.0
C97 C 0.31052 0.82623 0.00286 0.0
C98 C 0.34137 0.85895 0.01685 0.0
C99 C 0.35763 0.875 0.10761 0.0
H100 H 0.53191 0.22188 0.10707 0.0
H101 H 0.50077 0.20216 0.38112 0.0
H102 H 0.52168 0.13105 0.21792 0.0
H103 H 0.48451 0.28101 0.31958 0.0
H104 H 0.52716 0.30724 0.06043 0.0
H105 H 0.47768 0.36 0.18352 0.0
N106 N 0.51018 0.24489 0.25148 0.0
N107 N 0.51412 0.2626 0.1857 0.0
C108 C 0.52731 0.20691 0.16518 0.0
C109 C 0.52754 0.17536 0.15418 0.0
C110 C 0.51704 0.21665 0.24653 0.0
C111 C 0.50961 0.19556 0.31921 0.0
C112 C 0.51216 0.16498 0.30917 0.0
C113 C 0.52148 0.15556 0.22726 0.0
C114 C 0.48888 0.29539 0.26029 0.0
C115 C 0.48059 0.32203 0.26011 0.0
C116 C 0.50518 0.28937 0.18709 0.0
C117 C 0.51301 0.31048 0.11435 0.0
C118 C 0.50265 0.33589 0.11232 0.0
C119 C 0.48507 0.33997 0.18343 0.0
C120 C 0.97035 0.41563 0.83752 0.0
C121 C 0.07868 0.47321 0.7975 0.0
C122 C 0.05777 0.57954 0.74409 0.0
Mg123 Mg 0.01062 0.43385 0.66802 0.0
O124 O 0.99997 0.46966 0.69055 0.0
Mg125 Mg 0.0198 0.50065 0.8124 0.0
Mg126 Mg 0.01663 0.50475 0.60496 0.0
O127 O 0.03333 0.53979 0.51939 0.0
Mg128 Mg 0.02382 0.5764 0.54137 0.0
Mg129 Mg 0.01364 0.50884 0.39739 0.0
C130 C 0.97539 0.43004 0.46622 0.0
C131 C 0.07382 0.49486 0.49052 0.0
O132 O 0.98375 0.44837 0.86892 0.0
O133 O 0.978 0.40459 0.76397 0.0
O134 O 0.06527 0.49029 0.83337 0.0
O135 O 0.06423 0.45183 0.72242 0.0
O136 O 0.98636 0.41607 0.5243 0.0
O137 O 0.98252 0.46209 0.48188 0.0
C138 C 0.9594 0.51435 0.7198 0.0
O139 O 0.96969 0.51359 0.63949 0.0
O140 O 0.97458 0.5105 0.79222 0.0
O141 O 0.05025 0.56077 0.34082 0.0
O142 O 0.05752 0.60506 0.44648 0.0
O143 O 0.96852 0.51993 0.3758 0.0
C144 C 0.06469 0.59356 0.37276 0.0
O145 O 0.97067 0.55951 0.48532 0.0
O146 O 0.04727 0.59382 0.68586 0.0
C147 C 0.95576 0.53778 0.41099 0.0
O148 O 0.05066 0.54752 0.7277 0.0
O149 O 0.06362 0.49594 0.57079 0.0
O150 O 0.05857 0.49848 0.41787 0.0
C151 C 0.50053 0.06798 0.87625 0.0
C152 C 0.42702 0.95329 0.78024 0.0
C153 C 0.54671 0.95701 0.70648 0.0
Mg154 Mg 0.46094 0.02003 0.69167 0.0
O155 O 0.5047 0.02318 0.70854 0.0
Mg156 Mg 0.51608 0.00295 0.81404 0.0
Mg157 Mg 0.51778 0.00377 0.60599 0.0
O158 O 0.53148 0.98455 0.50315 0.0
Mg159 Mg 0.57712 0.99216 0.52764 0.0
Mg160 Mg 0.52175 0.00735 0.40083 0.0
C161 C 0.48801 0.05 0.50609 0.0
C162 C 0.44703 0.95169 0.46121 0.0
O163 O 0.51236 0.04783 0.8993 0.0
O164 O 0.47709 0.05888 0.80673 0.0
O165 O 0.458 0.96289 0.81717 0.0
O166 O 0.42108 0.96959 0.71939 0.0
O167 O 0.46467 0.04154 0.56131 0.0
O168 O 0.51153 0.04095 0.51322 0.0
C169 C 0.58972 0.05599 0.74791 0.0
O170 O 0.57577 0.04697 0.66248 0.0
O171 O 0.57233 0.04192 0.81323 0.0
O172 O 0.53207 0.96851 0.31158 0.0
O173 O 0.56899 0.95893 0.40492 0.0
O174 O 0.57915 0.04948 0.40516 0.0
C175 C 0.54934 0.95276 0.32862 0.0
O176 O 0.61576 0.04505 0.50971 0.0
O177 O 0.57082 0.96685 0.65316 0.0
C178 C 0.60988 0.06064 0.44648 0.0
O179 O 0.5234 0.96641 0.7009 0.0
O180 O 0.45997 0.96108 0.54757 0.0
O181 O 0.46528 0.96563 0.39668 0.0
C182 C 0.53417 0.57217 0.32282 0.0
C183 C 0.59434 0.52057 0.38832 0.0
C184 C 0.46999 0.421 0.49946 0.0
Mg185 Mg 0.57211 0.5659 0.50249 0.0
O186 O 0.52623 0.52899 0.4977 0.0
Mg187 Mg 0.50651 0.49169 0.38897 0.0
Mg188 Mg 0.51461 0.50127 0.60199 0.0
O189 O 0.50308 0.47371 0.70723 0.0
Mg190 Mg 0.45678 0.43785 0.70658 0.0
Mg191 Mg 0.5238 0.51178 0.81475 0.0
C192 C 0.55753 0.58178 0.70599 0.0
C193 C 0.58798 0.51636 0.71166 0.0
O194 O 0.51561 0.5384 0.30389 0.0
O195 O 0.55739 0.5877 0.39433 0.0
O196 O 0.56164 0.49995 0.35989 0.0
O197 O 0.60481 0.54618 0.45317 0.0
O198 O 0.57758 0.59134 0.64195 0.0
O199 O 0.53177 0.55041 0.7036 0.0
C200 C 0.44187 0.48722 0.49135 0.0
O201 O 0.45895 0.49307 0.57204 0.0
O202 O 0.45446 0.48514 0.41651 0.0
O203 O 0.51659 0.46568 0.89685 0.0
O204 O 0.47052 0.4164 0.81882 0.0
O205 O 0.4695 0.50411 0.8478 0.0
C206 C 0.49635 0.43209 0.88429 0.0
O207 O 0.42513 0.459 0.75488 0.0
O208 O 0.45095 0.4124 0.56604 0.0
C209 C 0.43664 0.48459 0.82028 0.0
O210 O 0.49667 0.4519 0.50017 0.0
O211 O 0.57053 0.50962 0.63109 0.0
O212 O 0.57557 0.51886 0.78623 0.0
C213 C 0.12333 0.45832 0.37236 0.0
C214 C 0.15336 0.49064 0.3617 0.0
C215 C 0.13788 0.52103 0.48191 0.0
C216 C 0.10465 0.49058 0.4768 0.0
N217 N 0.069 0.42839 0.44143 0.0
N218 N 0.19135 0.55252 0.412 0.0
C219 C 0.09865 0.45845 0.43019 0.0
C220 C 0.16176 0.52182 0.42009 0.0
N221 N 0.11826 0.42791 0.3249 0.0
N222 N 0.14614 0.54906 0.54597 0.0
H223 H 0.20943 0.55393 0.36814 0.0
H224 H 0.19755 0.57686 0.4459 0.0
H225 H 0.12877 0.54793 0.59189 0.0
H226 H 0.17068 0.57162 0.55945 0.0
H227 H 0.09679 0.40324 0.32648 0.0
H228 H 0.13659 0.42731 0.28487 0.0
H229 H 0.06146 0.40353 0.40865 0.0
H230 H 0.05219 0.42859 0.48782 0.0
C231 C 0.68384 0.10637 0.30212 0.0
C232 C 0.67724 0.13318 0.27861 0.0
C233 C 0.63766 0.12015 0.3974 0.0
C234 C 0.63903 0.08923 0.40754 0.0
N235 N 0.6617 0.0511 0.36294 0.0
N236 N 0.6477 0.166 0.30174 0.0
C237 C 0.66227 0.08218 0.35993 0.0
C238 C 0.6545 0.14061 0.32673 0.0
N239 N 0.71056 0.10382 0.26824 0.0
N240 N 0.61992 0.12958 0.45524 0.0
H241 H 0.6602 0.18196 0.25174 0.0
H242 H 0.62825 0.16988 0.32631 0.0
H243 H 0.60772 0.11503 0.508 0.0
H244 H 0.62004 0.1532 0.45681 0.0
H245 H 0.71899 0.08711 0.29056 0.0
H246 H 0.72649 0.12082 0.22438 0.0
H247 H 0.67444 0.04268 0.31931 0.0
H248 H 0.64661 0.0323 0.4039 0.0
C249 C 0.48816 0.61447 0.19825 0.0
C250 C 0.51754 0.64462 0.1754 0.0
C251 C 0.55636 0.6247 0.23844 0.0
C252 C 0.52737 0.59515 0.26561 0.0
N253 N 0.46662 0.56685 0.29219 0.0
N254 N 0.57988 0.68338 0.19697 0.0
C255 C 0.49342 0.59136 0.25163 0.0
C256 C 0.55175 0.6515 0.20477 0.0
N257 N 0.4553 0.60757 0.16681 0.0
N258 N 0.58789 0.62616 0.23943 0.0
H259 H 0.57705 0.70341 0.17179 0.0
H260 H 0.60543 0.69104 0.22406 0.0
H261 H 0.59159 0.60583 0.25774 0.0
H262 H 0.60905 0.64545 0.21208 0.0
H263 H 0.43269 0.58408 0.17193 0.0
H264 H 0.45098 0.62508 0.13184 0.0
H265 H 0.44228 0.56504 0.29063 0.0
H266 H 0.46944 0.55025 0.33454 0.0
C267 C 0.90827 0.56164 0.22959 0.0
C268 C 0.88101 0.52741 0.19298 0.0
C269 C 0.89532 0.5043 0.32687 0.0
C270 C 0.92649 0.53697 0.35275 0.0
N271 N 0.96405 0.59697 0.32606 0.0
N272 N 0.84796 0.46558 0.205 0.0
C273 C 0.93303 0.56602 0.30488 0.0
C274 C 0.8739 0.49858 0.242 0.0
N275 N 0.91053 0.58992 0.19187 0.0
N276 N 0.88655 0.47883 0.38373 0.0
H277 H 0.83146 0.46055 0.14364 0.0
H278 H 0.8441 0.443 0.2319 0.0
H279 H 0.90198 0.48282 0.44647 0.0
H280 H 0.86266 0.45546 0.37366 0.0
H281 H 0.92768 0.61577 0.2214 0.0
H282 H 0.89295 0.58751 0.13589 0.0
H283 H 0.97219 0.61719 0.28496 0.0
H284 H 0.98291 0.60191 0.38139 0.0
C285 C 0.36059 0.90753 0.31418 0.0
C286 C 0.36106 0.87681 0.28013 0.0
C287 C 0.40521 0.88861 0.41124 0.0
C288 C 0.41067 0.92283 0.43018 0.0
N289 N 0.38977 0.963 0.41771 0.0
N290 N 0.38116 0.83575 0.30016 0.0
C291 C 0.38654 0.93137 0.38829 0.0
C292 C 0.38195 0.86612 0.33129 0.0
N293 N 0.33569 0.91384 0.27425 0.0
N294 N 0.42305 0.87835 0.46923 0.0
H295 H 0.36453 0.81874 0.24177 0.0
H296 H 0.39784 0.82789 0.32964 0.0
H297 H 0.43915 0.89477 0.529 0.0
H298 H 0.41931 0.85312 0.4639 0.0
H299 H 0.33263 0.93488 0.29743 0.0
H300 H 0.3163 0.89638 0.22065 0.0
H301 H 0.37549 0.97308 0.38588 0.0
H302 H 0.40753 0.97941 0.4755 0.0
C303 C 0.44138 0.33802 0.33458 0.0
C304 C 0.47276 0.33677 0.34343 0.0
C305 C 0.49735 0.38464 0.47159 0.0
C306 C 0.46998 0.39145 0.44608 0.0
N307 N 0.41502 0.3744 0.35513 0.0
N308 N 0.53215 0.36061 0.41887 0.0
C309 C 0.44129 0.36769 0.3791 0.0
C310 C 0.50092 0.35996 0.41301 0.0
N311 N 0.41246 0.31147 0.28007 0.0
N312 N 0.51946 0.40104 0.5529 0.0
H313 H 0.53625 0.34259 0.37967 0.0
H314 H 0.55479 0.38057 0.45944 0.0
H315 H 0.51776 0.41924 0.59913 0.0
H316 H 0.53704 0.39366 0.57912 0.0
H317 H 0.38796 0.30944 0.27486 0.0
H318 H 0.41266 0.28977 0.24686 0.0
H319 H 0.39485 0.35967 0.30078 0.0
H320 H 0.41498 0.39652 0.38542 0.0
C321 C 0.50402 0.86343 0.76721 0.0
C322 C 0.53111 0.86583 0.83078 0.0
C323 C 0.56721 0.92852 0.81836 0.0
C324 C 0.5404 0.9261 0.7533 0.0
N325 N 0.48858 0.88853 0.64306 0.0
N326 N 0.59155 0.89763 0.89811 0.0
C327 C 0.51025 0.89275 0.72097 0.0
C328 C 0.56392 0.89744 0.84903 0.0
N329 N 0.47196 0.83359 0.75344 0.0
N330 N 0.59504 0.96069 0.85389 0.0
H331 H 0.5895 0.87501 0.92118 0.0
H332 H 0.61694 0.919 0.90801 0.0
H333 H 0.59746 0.98397 0.83509 0.0
H334 H 0.61389 0.96452 0.90799 0.0
H335 H 0.44992 0.8318 0.71664 0.0
H336 H 0.46716 0.81114 0.78303 0.0
H337 H 0.46826 0.86413 0.61161 0.0
H338 H 0.49321 0.9088 0.60399 0.0
C339 C 0.6429 0.48371 0.80022 0.0
C340 C 0.66696 0.51421 0.86228 0.0
C341 C 0.65021 0.5499 0.77529 0.0
C342 C 0.62238 0.51868 0.72452 0.0
N343 N 0.60104 0.45943 0.65865 0.0
N344 N 0.70119 0.57722 0.89392 0.0
C345 C 0.62214 0.48678 0.72617 0.0
C346 C 0.67351 0.5478 0.84381 0.0
N347 N 0.63843 0.4518 0.8158 0.0
N348 N 0.65223 0.58098 0.76163 0.0
H349 H 0.71839 0.57605 0.94471 0.0
H350 H 0.7085 0.60264 0.88191 0.0
H351 H 0.63559 0.5822 0.70902 0.0
H352 H 0.66964 0.60497 0.80128 0.0
H353 H 0.61867 0.42809 0.77932 0.0
H354 H 0.65393 0.449 0.86827 0.0
H355 H 0.60083 0.43574 0.65165 0.0
H356 H 0.58627 0.46218 0.60402 0.0
C357 C 0.15018 0.6363 0.87228 0.0
C358 C 0.14498 0.65888 0.93496 0.0
C359 C 0.08207 0.62616 0.88092 0.0
C360 C 0.08727 0.60439 0.81528 0.0
N361 N 0.12789 0.59589 0.72962 0.0
N362 N 0.10828 0.68151 0.98204 0.0
C363 C 0.12182 0.61143 0.80537 0.0
C364 C 0.11159 0.65598 0.93265 0.0
N365 N 0.18182 0.63785 0.87852 0.0
N366 N 0.04891 0.61746 0.89647 0.0
H367 H 0.12977 0.70373 0.02021 0.0
H368 H 0.08515 0.68235 0.9778 0.0
H369 H 0.02691 0.59467 0.86262 0.0
H370 H 0.04345 0.63064 0.94928 0.0
H371 H 0.18597 0.61939 0.84156 0.0
H372 H 0.2035 0.65669 0.92446 0.0
H373 H 0.15294 0.60285 0.71454 0.0
H374 H 0.10817 0.57862 0.67677 0.0
C375 C 0.55466 0.14937 0.05634 0.0
C376 C 0.52868 0.15896 0.06344 0.0
C377 C 0.49778 0.12306 0.91598 0.0
C378 C 0.51562 0.10413 0.92767 0.0
N379 N 0.57085 0.10906 0.98376 0.0
N380 N 0.47325 0.15267 -0.00077 0.0
C381 C 0.54739 0.12036 -0.00986 0.0
C382 C 0.49989 0.14578 -0.00766 0.0
N383 N 0.58574 0.16794 0.1137 0.0
N384 N 0.48116 0.12168 0.83139 0.0
H385 H 0.47236 0.16828 0.05509 0.0
H386 H 0.45038 0.14016 0.9518 0.0
H387 H 0.48473 0.11099 0.76949 0.0
H388 H 0.46939 0.13677 0.82113 0.0
H389 H 0.60676 0.16374 0.1106 0.0
H390 H 0.59126 0.1896 0.16104 0.0
H391 H 0.59214 0.11644 0.03389 0.0
H392 H 0.56993 0.09344 0.9249 0.0
C393 C 0.36479 0.46159 0.97766 0.0
C394 C 0.36862 0.4949 0.0044 0.0
C395 C 0.41152 0.51991 0.89356 0.0
C396 C 0.41134 0.48769 0.87767 0.0
N397 N 0.39213 0.42966 0.92017 0.0
N398 N 0.39598 0.55639 -0.00997 0.0
C399 C 0.3888 0.45883 0.92289 0.0
C400 C 0.39188 0.52424 0.96223 0.0
N401 N 0.33812 0.43243 0.00523 0.0
N402 N 0.43002 0.5461 0.84193 0.0
H403 H 0.38106 0.56002 0.03718 0.0
H404 H 0.41525 0.57964 0.97046 0.0
H405 H 0.44435 0.54354 0.79115 0.0
H406 H 0.42905 0.56915 0.84383 0.0
H407 H 0.33172 0.40698 0.98015 0.0
H408 H 0.32012 0.43353 0.04568 0.0
H409 H 0.37921 0.40972 0.96061 0.0
H410 H 0.41049 0.42677 0.88563 0.0
C411 C 0.90888 0.33323 0.93416 0.0
C412 C 0.8803 0.33869 0.94234 0.0
C413 C 0.90826 0.39086 0.86491 0.0
C414 C 0.93968 0.38945 0.87525 0.0
N415 N 0.97073 0.3599 0.92065 0.0
N416 N 0.85124 0.3713 0.91469 0.0
C417 C 0.94012 0.36044 0.90869 0.0
C418 C 0.87924 0.36676 0.90562 0.0
N419 N 0.90624 0.30248 0.95457 0.0
N420 N 0.90575 0.41436 0.8138 0.0
H421 H 0.82886 0.35274 0.93993 0.0
H422 H 0.85083 0.39387 0.9012 0.0
H423 H 0.92615 0.43217 0.78095 0.0
H424 H 0.88234 0.41396 0.79676 0.0
H425 H 0.92512 0.29558 0.9439 0.0
H426 H 0.88337 0.28244 0.97408 0.0
H427 H 0.97345 0.3411 0.95317 0.0
H428 H 0.99433 0.37997 0.90466 0.0
C429 C 0.87208 0.4878 0.79366 0.0
C430 C 0.88013 0.51955 0.84833 0.0
C431 C 0.93464 0.55105 0.77878 0.0
C432 C 0.92862 0.51864 0.73387 0.0
N433 N 0.88726 0.4594 0.66982 0.0
N434 N 0.91359 0.58255 0.87519 0.0
C435 C 0.89562 0.4881 0.73143 0.0
C436 C 0.9096 0.55169 0.83423 0.0
N437 N 0.84322 0.45709 0.80572 0.0
N438 N 0.96498 0.58086 0.77016 0.0
H439 H 0.89531 0.5834 0.91496 0.0
H440 H 0.93346 0.60723 0.86554 0.0
H441 H 0.98209 0.58062 0.72489 0.0
H442 H 0.97335 0.60537 0.80691 0.0
H443 H 0.83769 0.43251 0.77536 0.0
H444 H 0.82528 0.45601 0.84969 0.0
H445 H 0.86266 0.43686 0.65784 0.0
H446 H 0.90449 0.45988 0.62432 0.0
C447 C 0.35186 0.90652 0.92053 0.0
C448 C 0.35636 0.87785 0.93726 0.0
C449 C 0.39695 0.89243 0.82093 0.0
C450 C 0.39772 0.92476 0.81854 0.0
N451 N 0.37774 0.96423 0.87272 0.0
N452 N 0.38331 0.84302 0.90541 0.0
C453 C 0.3751 0.93202 0.86837 0.0
C454 C 0.37851 0.87025 0.88684 0.0
N455 N 0.32558 0.90953 0.9557 0.0
N456 N 0.41394 0.88315 0.76006 0.0
H457 H 0.36964 0.82582 0.95184 0.0
H458 H 0.40225 0.83868 0.8791 0.0
H459 H 0.42729 0.89891 0.71049 0.0
H460 H 0.41201 0.85864 0.7526 0.0
H461 H 0.31877 0.92796 0.93829 0.0
H462 H 0.30835 0.89135 -0.00492 0.0
H463 H 0.36509 0.97228 0.91772 0.0
H464 H 0.39458 0.98418 0.83712 0.0
C465 C 0.49762 0.35125 0.94926 0.0
C466 C 0.51209 0.36174 0.04419 0.0
C467 C 0.51932 0.4199 0.03472 0.0
C468 C 0.50526 0.40972 0.93907 0.0
N469 N 0.49753 0.37126 0.79956 0.0
N470 N 0.54951 0.40983 0.16389 0.0
C471 C 0.49962 0.37712 0.89417 0.0
C472 C 0.52798 0.39769 0.08126 0.0
N473 N 0.48036 0.31673 0.91224 0.0
N474 N 0.52177 0.44885 0.0837 0.0
H475 H 0.55599 0.39377 0.19934 0.0
H476 H 0.56332 0.43627 0.19121 0.0
H477 H 0.51263 0.4642 0.05561 0.0
H478 H 0.52907 0.45519 0.15557 0.0
H479 H 0.46625 0.30787 0.84563 0.0
H480 H 0.47804 0.29681 0.94999 0.0
H481 H 0.49579 0.34876 0.76518 0.0
H482 H 0.50236 0.39072 0.7572 0.0
C483 C 0.1596 0.51381 0.96967 0.0
C484 C 0.15326 0.48484 0.01716 0.0
C485 C 0.10267 0.44552 0.90175 0.0
C486 C 0.10835 0.47469 0.8555 0.0
N487 N 0.14674 0.53385 0.82879 0.0
N488 N 0.12585 0.42226 0.01499 0.0
C489 C 0.13856 0.50796 0.88397 0.0
C490 C 0.12721 0.45036 0.97827 0.0
N491 N 0.18445 0.54699 0.00879 0.0
N492 N 0.07254 0.41387 0.87787 0.0
H493 H 0.14313 0.42494 0.07211 0.0
H494 H 0.10978 0.39643 0.98381 0.0
H495 H 0.05398 0.40856 0.82136 0.0
H496 H 0.06478 0.39332 0.9177 0.0
H497 H 0.18761 0.56953 0.98303 0.0
H498 H 0.2007 0.55211 0.07073 0.0
H499 H 0.17002 0.55783 0.84085 0.0
H500 H 0.13156 0.5298 0.76552 0.0
C501 C 0.67525 0.10266 0.89707 0.0
C502 C 0.67226 0.13166 0.93356 0.0
C503 C 0.62837 0.11897 0.8008 0.0
C504 C 0.62546 0.08596 0.77831 0.0
N505 N 0.64913 0.04807 0.79057 0.0
N506 N 0.64733 0.16899 0.91865 0.0
C507 C 0.65056 0.07879 0.82077 0.0
C508 C 0.64985 0.14086 0.88361 0.0
N509 N 0.70128 0.09789 0.9366 0.0
N510 N 0.60946 0.12848 0.74405 0.0
H511 H 0.66285 0.18574 0.97869 0.0
H512 H 0.62853 0.17462 0.89148 0.0
H513 H 0.59424 0.11247 0.68276 0.0
H514 H 0.61161 0.15307 0.75224 0.0
H515 H 0.70638 0.07852 0.91065 0.0
H516 H 0.71956 0.11511 -0.00751 0.0
H517 H 0.66394 0.03872 0.82339 0.0
H518 H 0.63213 0.03156 0.73177 0.0
C519 C 0.57259 0.65672 0.88339 0.0
C520 C 0.54075 0.65641 0.8601 0.0
C521 C 0.52728 0.61584 0.72032 0.0
C522 C 0.55426 0.60976 0.75604 0.0
N523 N 0.60406 0.62505 0.86798 0.0
N524 N 0.48736 0.63596 0.75691 0.0
C525 C 0.57785 0.63084 0.83583 0.0
C526 C 0.51832 0.6367 0.77746 0.0
N527 N 0.59695 0.68116 0.95295 0.0
N528 N 0.51064 0.60214 0.63147 0.0
H529 H 0.4804 0.65177 0.79614 0.0
H530 H 0.46788 0.61831 0.70396 0.0
H531 H 0.51612 0.58628 0.5871 0.0
H532 H 0.49398 0.60949 0.59885 0.0
H533 H 0.62169 0.68437 0.96989 0.0
H534 H 0.59329 0.70038 -0.01191 0.0
H535 H 0.62003 0.63723 0.93128 0.0
H536 H 0.6085 0.60632 0.8334 0.0
C537 C 0.47135 0.10623 0.34975 0.0
C538 C 0.50207 0.13935 0.37692 0.0
C539 C 0.52174 0.11437 0.49552 0.0
C540 C 0.49421 0.0802 0.45703 0.0
N541 N 0.44443 0.04306 0.34225 0.0
N542 N 0.55808 0.17488 0.47088 0.0
C543 C 0.46922 0.07599 0.38308 0.0
C544 C 0.5276 0.1435 0.44915 0.0
N545 N 0.44464 0.10389 0.29046 0.0
N546 N 0.54134 0.11928 0.57846 0.0
H547 H 0.56247 0.19719 0.44121 0.0
H548 H 0.57956 0.1782 0.51443 0.0
H549 H 0.53745 0.09885 0.61621 0.0
H550 H 0.55922 0.14398 0.61418 0.0
H551 H 0.42038 0.0811 0.27327 0.0
H552 H 0.44581 0.12589 0.26554 0.0
H553 H 0.42723 0.03809 0.28268 0.0
H554 H 0.44337 0.02058 0.36307 0.0
C555 C 0.35793 0.45831 0.357 0.0
C556 C 0.36417 0.49233 0.34442 0.0
C557 C 0.4082 0.51769 0.48232 0.0
C558 C 0.40779 0.48561 0.47946 0.0
N559 N 0.37528 0.42336 0.44508 0.0
N560 N 0.39055 0.55374 0.40209 0.0
C561 C 0.37975 0.45504 0.42752 0.0
C562 C 0.38719 0.52176 0.41108 0.0
N563 N 0.33259 0.42978 0.29822 0.0
N564 N 0.4293 0.54407 0.55214 0.0
H565 H 0.37497 0.55717 0.35135 0.0
H566 H 0.40939 0.57702 0.44237 0.0
H567 H 0.44412 0.5405 0.60488 0.0
H568 H 0.42961 0.56774 0.56284 0.0
H569 H 0.32819 0.40444 0.29848 0.0
H570 H 0.31568 0.43161 0.24792 0.0
H571 H 0.35506 0.39924 0.41215 0.0
H572 H 0.39136 0.42172 0.49852 0.0
C573 C 0.92164 0.35126 0.28447 0.0
C574 C 0.88875 0.34951 0.27596 0.0
C575 C 0.91182 0.39947 0.39831 0.0
C576 C 0.9462 0.40497 0.39429 0.0
N577 N 0.98432 0.38893 0.32234 0.0
N578 N 0.85285 0.37373 0.31824 0.0
C579 C 0.95121 0.38147 0.33449 0.0
C580 C 0.88383 0.37403 0.33142 0.0
N581 N 0.92454 0.3243 0.24216 0.0
N582 N 0.90537 0.41695 0.46868 0.0
H583 H 0.83133 0.35447 0.27259 0.0
H584 H 0.84924 0.3936 0.34881 0.0
H585 H 0.92464 0.43467 0.52171 0.0
H586 H 0.88023 0.41123 0.47965 0.0
H587 H 0.94724 0.32275 0.25154 0.0
H588 H 0.903 0.30183 0.20506 0.0
H589 H 0.98971 0.37427 0.27365 0.0
H590 H 1.0064 0.41213 0.35385 0.0
C591 C 0.56193 0.88684 0.18237 0.0
C592 C 0.52668 0.85995 0.15635 0.0
C593 C 0.50706 0.89165 0.25636 0.0
C594 C 0.54136 0.92139 0.26666 0.0
N595 N 0.6014 0.94848 0.2365 0.0
N596 N 0.46532 0.83569 0.16614 0.0
C597 C 0.56899 0.91922 0.22993 0.0
C598 C 0.49911 0.86179 0.19386 0.0
N599 N 0.58833 0.88157 0.15832 0.0
N600 N 0.48257 0.89141 0.30863 0.0
H601 H 0.45912 0.81263 0.12404 0.0
H602 H 0.44369 0.83762 0.18132 0.0
H603 H 0.48738 0.91242 0.35724 0.0
H604 H 0.45847 0.86908 0.31023 0.0
H605 H 0.61471 0.89912 0.18122 0.0
H606 H 0.58353 0.85791 0.12258 0.0
H607 H 0.62168 0.9493 0.20295 0.0
H608 H 0.6072 0.97295 0.2691 0.0
C609 C 0.66645 0.54636 0.23033 0.0
C610 C 0.66391 0.51363 0.20385 0.0
C611 C 0.62232 0.48768 0.31727 0.0
C612 C 0.62064 0.51893 0.33193 0.0
N613 N 0.63795 0.57672 0.29001 0.0
N614 N 0.63932 0.45253 0.22036 0.0
C615 C 0.64224 0.54812 0.28622 0.0
C616 C 0.64208 0.48414 0.24769 0.0
N617 N 0.69219 0.57595 0.2018 0.0
N618 N 0.60527 0.4616 0.37051 0.0
H619 H 0.65389 0.44939 0.17127 0.0
H620 H 0.62157 0.42915 0.24271 0.0
H621 H 0.59082 0.46363 0.42167 0.0
H622 H 0.60754 0.43928 0.3693 0.0
H623 H 0.6978 0.60115 0.22673 0.0
H624 H 0.71033 0.57558 0.16062 0.0
H625 H 0.64982 0.59662 0.24874 0.0
H626 H 0.62002 0.57926 0.32726 0.0
C627 C 0.12915 0.67543 0.27952 0.0
C628 C 0.15624 0.66791 0.26781 0.0
C629 C 0.12616 0.61538 0.3427 0.0
C630 C 0.09593 0.61896 0.33541 0.0
N631 N 0.06776 0.6517 0.29482 0.0
N632 N 0.18203 0.63194 0.28879 0.0
C633 C 0.09731 0.64914 0.30471 0.0
C634 C 0.15548 0.63852 0.30133 0.0
N635 N 0.13367 0.70725 0.26276 0.0
N636 N 0.12731 0.59076 0.39169 0.0
H637 H 0.20468 0.64976 0.26305 0.0
H638 H 0.1809 0.60845 0.29983 0.0
H639 H 0.10682 0.57384 0.42585 0.0
H640 H 0.14992 0.58942 0.40595 0.0
H641 H 0.116 0.71551 0.27658 0.0
H642 H 0.15694 0.72673 0.24347 0.0
H643 H 0.06631 0.67147 0.26399 0.0
H644 H 0.04368 0.63235 0.3104 0.0
loop_
_geom_bond_atom_site_label_1
_geom_bond_atom_site_label_2
_geom_bond_distance
_geom_bond_site_symmetry_2
_ccdc_geom_bond_type
H0 C8 0.940 . S
H1 C11 0.940 . S
H2 C13 0.940 . S
H3 C14 0.940 . S
H4 C17 0.940 . S
H5 C19 0.940 . S
N6 N7 1.190 . S
N6 C10 1.477 . S
N7 N6 1.190 . S
N7 C16 1.477 . S
C8 H0 0.940 . S
C8 C9 1.390 . S
C8 C10 1.322 . S
C9 C8 1.390 . S
C9 C13 1.370 . S
C10 N6 1.477 . S
C10 C8 1.322 . S
C10 C11 1.447 . S
C11 H1 0.940 . S
C11 C10 1.447 . S
C11 C12 1.373 . S
C12 C11 1.373 . S
C12 C13 1.417 . S
C13 H2 0.940 . S
C13 C9 1.370 . S
C13 C12 1.417 . S
C14 H3 0.940 . S
C14 C15 1.390 . S
C14 C16 1.322 . S
C15 C14 1.390 . S
C15 C19 1.370 . S
C16 N7 1.477 . S
C16 C14 1.322 . S
C16 C17 1.447 . S
C17 H4 0.940 . S
C17 C16 1.447 . S
C17 C18 1.373 . S
C18 C17 1.373 . S
C18 C19 1.417 . S
C19 H5 0.940 . S
C19 C15 1.370 . S
C19 C18 1.417 . S
H20 C28 0.940 . S
H21 C31 0.940 . S
H22 C33 0.940 . S
H23 C34 0.940 . S
H24 C37 0.940 1_556 S
H25 C39 0.940 . S
N26 N27 1.190 . S
N26 C30 1.477 . S
N27 N26 1.190 . S
N27 C36 1.477 . S
C28 H20 0.940 . S
C28 C29 1.390 . S
C28 C30 1.322 . S
C29 C28 1.390 . S
C29 C33 1.370 . S
C30 N26 1.477 . S
C30 C28 1.322 . S
C30 C31 1.447 . S
C31 H21 0.940 . S
C31 C30 1.447 . S
C31 C32 1.373 . S
C32 C31 1.373 . S
C32 C33 1.417 . S
C33 H22 0.940 . S
C33 C29 1.370 . S
C33 C32 1.417 . S
C34 H23 0.940 . S
C34 C35 1.390 . S
C34 C36 1.322 . S
C35 C34 1.390 . S
C35 C39 1.370 . S
C36 N27 1.477 . S
C36 C34 1.322 . S
C36 C37 1.447 . S
C37 H24 0.940 1_554 S
C37 C36 1.447 . S
C37 C38 1.373 . S
C38 C37 1.373 . S
C38 C39 1.417 . S
C39 H25 0.940 . S
C39 C35 1.370 . S
C39 C38 1.417 . S
H40 C48 0.940 . S
H41 C51 0.940 . S
H42 C53 0.940 . S
H43 C54 0.940 . S
H44 C57 0.940 . S
H45 C59 0.940 . S
N46 N47 1.190 1_554 S
N46 C50 1.477 . S
N47 N46 1.190 1_556 S
N47 C56 1.477 . S
C48 H40 0.940 . S
C48 C49 1.390 . S
C48 C50 1.322 1_556 S
C49 C48 1.390 . S
C49 C53 1.370 . S
C50 N46 1.477 . S
C50 C48 1.322 1_554 S
C50 C51 1.447 . S
C51 H41 0.940 . S
C51 C50 1.447 . S
C51 C52 1.373 . S
C52 C51 1.373 . S
C52 C53 1.417 1_554 S
C53 H42 0.940 . S
C53 C49 1.370 . S
C53 C52 1.417 1_556 S
C54 H43 0.940 . S
C54 C55 1.390 . S
C54 C56 1.322 1_554 S
C55 C54 1.390 . S
C55 C59 1.370 . S
C56 N47 1.477 . S
C56 C54 1.322 1_556 S
C56 C57 1.447 . S
C57 H44 0.940 . S
C57 C56 1.447 . S
C57 C58 1.373 . S
C58 C57 1.373 . S
C58 C59 1.417 1_556 S
C59 H45 0.940 . S
C59 C55 1.370 . S
C59 C58 1.417 1_554 S
H60 C68 0.940 . S
H61 C71 0.940 . S
H62 C73 0.940 . S
H63 C74 0.940 . S
H64 C77 0.940 . S
H65 C79 0.940 . S
N66 N67 1.190 . S
N66 C70 1.477 . S
N67 N66 1.190 . S
N67 C76 1.477 . S
C68 H60 0.940 . S
C68 C69 1.390 . S
C68 C70 1.322 1_556 S
C69 C68 1.390 . S
C69 C73 1.370 1_556 S
C70 N66 1.477 . S
C70 C68 1.322 1_554 S
C70 C71 1.447 . S
C71 H61 0.940 . S
C71 C70 1.447 . S
C71 C72 1.373 . S
C72 C71 1.373 . S
C72 C73 1.417 . S
C73 H62 0.940 . S
C73 C69 1.370 1_554 S
C73 C72 1.417 . S
C74 H63 0.940 . S
C74 C75 1.390 . S
C74 C76 1.322 . S
C75 C74 1.390 . S
C75 C79 1.370 . S
C76 N67 1.477 . S
C76 C74 1.322 . S
C76 C77 1.447 1_554 S
C77 H64 0.940 . S
C77 C76 1.447 1_556 S
C77 C78 1.373 . S
C78 C77 1.373 . S
C78 C79 1.417 1_556 S
C79 H65 0.940 . S
C79 C75 1.370 . S
C79 C78 1.417 1_554 S
H80 C88 0.940 1_556 S
H81 C91 0.940 . S
H82 C93 0.940 . S
H83 C94 0.940 . S
H84 C97 0.940 . S
H85 C99 0.940 . S
N86 N87 1.190 . S
N86 C90 1.477 . S
N87 N86 1.190 . S
N87 C96 1.477 . S
C88 H80 0.940 1_554 S
C88 C89 1.390 . S
C88 C90 1.322 . S
C89 C88 1.390 . S
C89 C93 1.375 . S
C90 N86 1.477 . S
C90 C88 1.322 . S
C90 C91 1.447 . S
C91 H81 0.940 . S
C91 C90 1.447 . S
C91 C92 1.373 . S
C92 C91 1.373 . S
C92 C93 1.417 . S
C93 H82 0.940 . S
C93 C89 1.375 . S
C93 C92 1.417 . S
C94 H83 0.940 . S
C94 C95 1.390 . S
C94 C96 1.322 . S
C95 C94 1.390 . S
C95 C99 1.370 . S
C96 N87 1.477 . S
C96 C94 1.322 . S
C96 C97 1.447 1_554 S
C97 H84 0.940 . S
C97 C96 1.447 1_556 S
C97 C98 1.373 1_556 S
C98 C97 1.373 1_554 S
C98 C99 1.417 . S
C99 H85 0.940 . S
C99 C95 1.370 . S
C99 C98 1.417 . S
H100 C108 0.940 . S
H101 C111 0.940 . S
H102 C113 0.940 . S
H103 C114 0.940 . S
H104 C117 0.940 . S
H105 C119 0.940 . S
N106 N107 1.190 . S
N106 C110 1.477 . S
N107 N106 1.190 . S
N107 C116 1.477 . S
C108 H100 0.940 . S
C108 C109 1.390 . S
C108 C110 1.322 . S
C109 C108 1.390 . S
C109 C113 1.370 . S
C110 N106 1.477 . S
C110 C108 1.322 . S
C110 C111 1.447 . S
C111 H101 0.940 . S
C111 C110 1.447 . S
C111 C112 1.373 . S
C112 C111 1.373 . S
C112 C113 1.417 . S
C113 H102 0.940 . S
C113 C109 1.370 . S
C113 C112 1.417 . S
C114 H103 0.940 . S
C114 C115 1.390 . S
C114 C116 1.322 . S
C115 C114 1.390 . S
C115 C119 1.370 . S
C116 N107 1.477 . S
C116 C114 1.322 . S
C116 C117 1.447 . S
C117 H104 0.940 . S
C117 C116 1.447 . S
C117 C118 1.373 . S
C118 C117 1.373 . S
C118 C119 1.417 . S
C119 H105 0.940 . S
C119 C115 1.370 . S
C119 C118 1.417 . S
C120 O132 1.241 . S
C120 O133 1.280 . S
C121 O134 1.277 . S
C121 O135 1.245 . S
C122 O146 1.247 . S
C122 O148 1.289 . S
Mg123 O124 1.924 . S
Mg123 O133 1.984 . S
Mg123 O135 1.988 1_655 S
Mg123 O136 2.061 . S
O124 Mg123 1.924 . S
O124 Mg125 1.987 1_655 S
O124 Mg126 1.917 1_655 S
Mg125 O124 1.987 1_455 S
Mg125 O132 2.042 1_455 S
Mg125 O134 2.041 . S
Mg125 O140 2.038 1_455 S
Mg125 O148 2.238 . S
Mg126 O124 1.917 1_455 S
Mg126 O127 1.917 . S
Mg126 O137 2.106 1_455 S
Mg126 O139 2.079 1_455 S
Mg126 O148 2.106 . S
Mg126 O149 2.079 . S
O127 Mg126 1.917 . S
O127 Mg128 1.926 . S
O127 Mg129 1.986 . S
Mg128 O127 1.926 . S
Mg128 O142 1.984 . S
Mg128 O145 1.988 1_455 S
Mg128 O146 2.061 . S
Mg129 O127 1.986 . S
Mg129 O137 2.238 1_455 S
Mg129 O141 2.042 . S
Mg129 O143 2.041 1_455 S
Mg129 O150 2.038 . S
C130 O136 1.247 . S
C130 O137 1.289 . S
C131 O149 1.245 . S
C131 O150 1.274 . S
O132 C120 1.241 . S
O132 Mg125 2.042 1_655 S
O133 C120 1.280 . S
O133 Mg123 1.984 . S
O134 C121 1.277 . S
O134 Mg125 2.041 . S
O135 C121 1.245 . S
O135 Mg123 1.988 1_455 S
O136 Mg123 2.061 . S
O136 C130 1.247 . S
O137 Mg126 2.106 1_655 S
O137 Mg129 2.238 1_655 S
O137 C130 1.289 . S
C138 O139 1.245 . S
C138 O140 1.274 . S
O139 Mg126 2.079 1_655 S
O139 C138 1.245 . S
O140 Mg125 2.038 1_655 S
O140 C138 1.274 . S
O141 Mg129 2.042 . S
O141 C144 1.241 . S
O142 Mg128 1.984 . S
O142 C144 1.280 . S
O143 Mg129 2.041 1_655 S
O143 C147 1.277 . S
C144 O141 1.241 . S
C144 O142 1.280 . S
O145 Mg128 1.988 1_655 S
O145 C147 1.245 . S
O146 C122 1.247 . S
O146 Mg128 2.061 . S
C147 O143 1.277 . S
C147 O145 1.245 . S
O148 C122 1.289 . S
O148 Mg125 2.238 . S
O148 Mg126 2.106 . S
O149 Mg126 2.079 . S
O149 C131 1.245 . S
O150 Mg129 2.038 . S
O150 C131 1.274 . S
C151 O163 1.241 . S
C151 O164 1.280 . S
C152 O165 1.277 . S
C152 O166 1.245 . S
C153 O177 1.247 . S
C153 O179 1.289 . S
Mg154 O155 1.926 . S
Mg154 O164 1.984 . S
Mg154 O166 1.988 1_545 S
Mg154 O167 2.061 . S
O155 Mg154 1.926 . S
O155 Mg156 1.986 . S
O155 Mg157 1.917 . S
Mg156 O155 1.986 . S
Mg156 O163 2.042 . S
Mg156 O165 2.041 1_545 S
Mg156 O171 2.038 . S
Mg156 O179 2.238 1_545 S
Mg157 O155 1.917 . S
Mg157 O158 1.917 1_545 S
Mg157 O168 2.106 . S
Mg157 O170 2.079 . S
Mg157 O179 2.106 1_545 S
Mg157 O180 2.079 1_545 S
O158 Mg157 1.917 1_565 S
O158 Mg159 1.926 . S
O158 Mg160 1.990 . S
Mg159 O158 1.926 . S
Mg159 O173 1.984 . S
Mg159 O176 1.988 1_565 S
Mg159 O177 2.061 . S
Mg160 O158 1.990 . S
Mg160 O168 2.232 1_565 S
Mg160 O172 2.049 . S
Mg160 O174 2.038 1_565 S
Mg160 O181 2.041 . S
C161 O167 1.247 . S
C161 O168 1.289 . S
C162 O180 1.245 . S
C162 O181 1.274 . S
O163 C151 1.241 . S
O163 Mg156 2.042 . S
O164 C151 1.280 . S
O164 Mg154 1.984 . S
O165 C152 1.277 . S
O165 Mg156 2.041 1_565 S
O166 C152 1.245 . S
O166 Mg154 1.988 1_565 S
O167 Mg154 2.061 . S
O167 C161 1.247 . S
O168 Mg157 2.106 . S
O168 Mg160 2.232 1_545 S
O168 C161 1.289 . S
C169 O170 1.245 . S
C169 O171 1.274 . S
O170 Mg157 2.079 . S
O170 C169 1.245 . S
O171 Mg156 2.038 . S
O171 C169 1.274 . S
O172 Mg160 2.049 . S
O172 C175 1.241 . S
O173 Mg159 1.984 . S
O173 C175 1.280 . S
O174 Mg160 2.038 1_545 S
O174 C178 1.277 . S
C175 O172 1.241 . S
C175 O173 1.280 . S
O176 Mg159 1.988 1_545 S
O176 C178 1.245 . S
O177 C153 1.247 . S
O177 Mg159 2.061 . S
C178 O174 1.277 . S
C178 O176 1.245 . S
O179 C153 1.289 . S
O179 Mg156 2.238 1_565 S
O179 Mg157 2.106 1_565 S
O180 Mg157 2.079 1_565 S
O180 C162 1.245 . S
O181 Mg160 2.041 . S
O181 C162 1.274 . S
C182 O194 1.241 . S
C182 O195 1.280 . S
C183 O196 1.277 . S
C183 O197 1.245 . S
C184 O208 1.247 . S
C184 O210 1.289 . S
Mg185 O186 1.926 . S
Mg185 O195 1.984 . S
Mg185 O197 1.988 . S
Mg185 O198 2.061 . S
O186 Mg185 1.926 . S
O186 Mg187 1.986 . S
O186 Mg188 1.917 . S
Mg187 O186 1.986 . S
Mg187 O194 2.042 . S
Mg187 O196 2.041 . S
Mg187 O202 2.038 . S
Mg187 O210 2.238 . S
Mg188 O186 1.917 . S
Mg188 O189 1.917 . S
Mg188 O199 2.106 . S
Mg188 O201 2.079 . S
Mg188 O210 2.106 . S
Mg188 O211 2.079 . S
O189 Mg188 1.917 . S
O189 Mg190 1.926 . S
O189 Mg191 1.986 . S
Mg190 O189 1.926 . S
Mg190 O204 1.984 . S
Mg190 O207 1.988 . S
Mg190 O208 2.061 . S
Mg191 O189 1.986 . S
Mg191 O199 2.238 . S
Mg191 O203 2.042 . S
Mg191 O205 2.041 . S
Mg191 O212 2.038 . S
C192 O198 1.247 . S
C192 O199 1.289 . S
C193 O211 1.245 . S
C193 O212 1.274 . S
O194 C182 1.241 . S
O194 Mg187 2.042 . S
O195 C182 1.280 . S
O195 Mg185 1.984 . S
O196 C183 1.277 . S
O196 Mg187 2.041 . S
O197 C183 1.245 . S
O197 Mg185 1.988 . S
O198 Mg185 2.061 . S
O198 C192 1.247 . S
O199 Mg188 2.106 . S
O199 Mg191 2.238 . S
O199 C192 1.289 . S
C200 O201 1.245 . S
C200 O202 1.274 . S
O201 Mg188 2.079 . S
O201 C200 1.245 . S
O202 Mg187 2.038 . S
O202 C200 1.274 . S
O203 Mg191 2.042 . S
O203 C206 1.241 . S
O204 Mg190 1.984 . S
O204 C206 1.280 . S
O205 Mg191 2.041 . S
O205 C209 1.277 . S
C206 O203 1.241 . S
C206 O204 1.280 . S
O207 Mg190 1.988 . S
O207 C209 1.245 . S
O208 C184 1.247 . S
O208 Mg190 2.061 . S
C209 O205 1.277 . S
C209 O207 1.245 . S
O210 C184 1.289 . S
O210 Mg187 2.238 . S
O210 Mg188 2.106 . S
O211 Mg188 2.079 . S
O211 C193 1.245 . S
O212 Mg191 2.038 . S
O212 C193 1.274 . S
C213 C214 1.363 . S
C213 C219 1.379 . S
C213 N221 1.356 . S
C214 C213 1.363 . S
C214 C220 1.363 . S
C215 C216 1.363 . S
C215 C220 1.379 . S
C215 N222 1.356 . S
C216 C215 1.363 . S
C216 C219 1.363 . S
N217 C219 1.356 . S
N217 H229 0.984 . S
N217 H230 0.985 . S
N218 C220 1.356 . S
N218 H223 0.984 . S
N218 H224 0.985 . S
C219 C213 1.379 . S
C219 C216 1.363 . S
C219 N217 1.356 . S
C220 C214 1.363 . S
C220 C215 1.379 . S
C220 N218 1.356 . S
N221 C213 1.356 . S
N221 H227 0.984 . S
N221 H228 0.984 . S
N222 C215 1.356 . S
N222 H225 0.984 . S
N222 H226 0.985 . S
H223 N218 0.984 . S
H224 N218 0.985 . S
H225 N222 0.984 . S
H226 N222 0.985 . S
H227 N221 0.984 . S
H228 N221 0.984 . S
H229 N217 0.984 . S
H230 N217 0.985 . S
C231 C232 1.363 . S
C231 C237 1.379 . S
C231 N239 1.356 . S
C232 C231 1.363 . S
C232 C238 1.363 . S
C233 C234 1.363 . S
C233 C238 1.379 . S
C233 N240 1.356 . S
C234 C233 1.363 . S
C234 C237 1.363 . S
N235 C237 1.356 . S
N235 H247 0.984 . S
N235 H248 0.985 . S
N236 C238 1.356 . S
N236 H241 0.984 . S
N236 H242 0.985 . S
C237 C231 1.379 . S
C237 C234 1.363 . S
C237 N235 1.356 . S
C238 C232 1.363 . S
C238 C233 1.379 . S
C238 N236 1.356 . S
N239 C231 1.356 . S
N239 H245 0.984 . S
N239 H246 0.984 . S
N240 C233 1.356 . S
N240 H243 0.984 . S
N240 H244 0.985 . S
H241 N236 0.984 . S
H242 N236 0.985 . S
H243 N240 0.984 . S
H244 N240 0.985 . S
H245 N239 0.984 . S
H246 N239 0.984 . S
H247 N235 0.984 . S
H248 N235 0.985 . S
C249 C250 1.363 . S
C249 C255 1.379 . S
C249 N257 1.356 . S
C250 C249 1.363 . S
C250 C256 1.363 . S
C251 C252 1.363 . S
C251 C256 1.379 . S
C251 N258 1.356 . S
C252 C251 1.363 . S
C252 C255 1.363 . S
N253 C255 1.356 . S
N253 H265 0.984 . S
N253 H266 0.985 . S
N254 C256 1.356 . S
N254 H259 0.984 . S
N254 H260 0.985 . S
C255 C249 1.379 . S
C255 C252 1.363 . S
C255 N253 1.356 . S
C256 C250 1.363 . S
C256 C251 1.379 . S
C256 N254 1.356 . S
N257 C249 1.356 . S
N257 H263 0.984 . S
N257 H264 0.984 . S
N258 C251 1.356 . S
N258 H261 0.984 . S
N258 H262 0.985 . S
H259 N254 0.984 . S
H260 N254 0.985 . S
H261 N258 0.984 . S
H262 N258 0.985 . S
H263 N257 0.984 . S
H264 N257 0.984 . S
H265 N253 0.984 . S
H266 N253 0.985 . S
C267 C268 1.363 . S
C267 C273 1.379 . S
C267 N275 1.356 . S
C268 C267 1.363 . S
C268 C274 1.363 . S
C269 C270 1.363 . S
C269 C274 1.379 . S
C269 N276 1.356 . S
C270 C269 1.363 . S
C270 C273 1.363 . S
N271 C273 1.356 . S
N271 H283 0.984 . S
N271 H284 0.985 . S
N272 C274 1.356 . S
N272 H277 0.984 . S
N272 H278 0.985 . S
C273 C267 1.379 . S
C273 C270 1.363 . S
C273 N271 1.356 . S
C274 C268 1.363 . S
C274 C269 1.379 . S
C274 N272 1.356 . S
N275 C267 1.356 . S
N275 H281 0.984 . S
N275 H282 0.984 . S
N276 C269 1.356 . S
N276 H279 0.984 . S
N276 H280 0.985 . S
H277 N272 0.984 . S
H278 N272 0.985 . S
H279 N276 0.984 . S
H280 N276 0.985 . S
H281 N275 0.984 . S
H282 N275 0.984 . S
H283 N271 0.984 . S
H284 N271 0.985 . S
C285 C286 1.363 . S
C285 C291 1.379 . S
C285 N293 1.356 . S
C286 C285 1.363 . S
C286 C292 1.363 . S
C287 C288 1.363 . S
C287 C292 1.379 . S
C287 N294 1.356 . S
C288 C287 1.363 . S
C288 C291 1.363 . S
N289 C291 1.356 . S
N289 H301 0.984 . S
N289 H302 0.985 . S
N290 C292 1.356 . S
N290 H295 0.984 . S
N290 H296 0.985 . S
C291 C285 1.379 . S
C291 C288 1.363 . S
C291 N289 1.356 . S
C292 C286 1.363 . S
C292 C287 1.379 . S
C292 N290 1.356 . S
N293 C285 1.356 . S
N293 H299 0.984 . S
N293 H300 0.984 . S
N294 C287 1.356 . S
N294 H297 0.984 . S
N294 H298 0.985 . S
H295 N290 0.984 . S
H296 N290 0.985 . S
H297 N294 0.984 . S
H298 N294 0.985 . S
H299 N293 0.984 . S
H300 N293 0.984 . S
H301 N289 0.984 . S
H302 N289 0.985 . S
C303 C304 1.363 . S
C303 C309 1.379 . S
C303 N311 1.356 . S
C304 C303 1.363 . S
C304 C310 1.363 . S
C305 C306 1.363 . S
C305 C310 1.379 . S
C305 N312 1.356 . S
C306 C305 1.363 . S
C306 C309 1.363 . S
N307 C309 1.356 . S
N307 H319 0.984 . S
N307 H320 0.985 . S
N308 C310 1.356 . S
N308 H313 0.984 . S
N308 H314 0.985 . S
C309 C303 1.379 . S
C309 C306 1.363 . S
C309 N307 1.356 . S
C310 C304 1.363 . S
C310 C305 1.379 . S
C310 N308 1.356 . S
N311 C303 1.356 . S
N311 H317 0.984 . S
N311 H318 0.984 . S
N312 C305 1.356 . S
N312 H315 0.984 . S
N312 H316 0.985 . S
H313 N308 0.984 . S
H314 N308 0.985 . S
H315 N312 0.984 . S
H316 N312 0.985 . S
H317 N311 0.984 . S
H318 N311 0.984 . S
H319 N307 0.984 . S
H320 N307 0.985 . S
C321 C322 1.363 . S
C321 C327 1.379 . S
C321 N329 1.356 . S
C322 C321 1.363 . S
C322 C328 1.363 . S
C323 C324 1.363 . S
C323 C328 1.379 . S
C323 N330 1.356 . S
C324 C323 1.363 . S
C324 C327 1.363 . S
N325 C327 1.356 . S
N325 H337 0.984 . S
N325 H338 0.985 . S
N326 C328 1.356 . S
N326 H331 0.984 . S
N326 H332 0.985 1_556 S
C327 C321 1.379 . S
C327 C324 1.363 . S
C327 N325 1.356 . S
C328 C322 1.363 . S
C328 C323 1.379 . S
C328 N326 1.356 . S
N329 C321 1.356 . S
N329 H335 0.984 . S
N329 H336 0.984 . S
N330 C323 1.356 . S
N330 H333 0.984 . S
N330 H334 0.985 . S
H331 N326 0.984 . S
H332 N326 0.985 1_554 S
H333 N330 0.984 . S
H334 N330 0.985 . S
H335 N329 0.984 . S
H336 N329 0.984 . S
H337 N325 0.984 . S
H338 N325 0.985 . S
C339 C340 1.363 . S
C339 C345 1.379 . S
C339 N347 1.356 . S
C340 C339 1.363 . S
C340 C346 1.363 . S
C341 C342 1.363 . S
C341 C346 1.379 . S
C341 N348 1.356 . S
C342 C341 1.363 . S
C342 C345 1.363 . S
N343 C345 1.356 . S
N343 H355 0.984 . S
N343 H356 0.985 . S
N344 C346 1.356 . S
N344 H349 0.984 . S
N344 H350 0.985 . S
C345 C339 1.379 . S
C345 C342 1.363 . S
C345 N343 1.356 . S
C346 C340 1.363 . S
C346 C341 1.379 . S
C346 N344 1.356 . S
N347 C339 1.356 . S
N347 H353 0.984 . S
N347 H354 0.984 . S
N348 C341 1.356 . S
N348 H351 0.984 . S
N348 H352 0.985 . S
H349 N344 0.984 . S
H350 N344 0.985 . S
H351 N348 0.984 . S
H352 N348 0.985 . S
H353 N347 0.984 . S
H354 N347 0.984 . S
H355 N343 0.984 . S
H356 N343 0.985 . S
C357 C358 1.363 . S
C357 C363 1.379 . S
C357 N365 1.356 . S
C358 C357 1.363 . S
C358 C364 1.363 . S
C359 C360 1.363 . S
C359 C364 1.379 . S
C359 N366 1.356 . S
C360 C359 1.363 . S
C360 C363 1.363 . S
N361 C363 1.356 . S
N361 H373 0.984 . S
N361 H374 0.985 . S
N362 C364 1.356 1_554 S
N362 H367 0.984 . S
N362 H368 0.985 . S
C363 C357 1.379 . S
C363 C360 1.363 . S
C363 N361 1.356 . S
C364 C358 1.363 . S
C364 C359 1.379 . S
C364 N362 1.356 1_556 S
N365 C357 1.356 . S
N365 H371 0.984 . S
N365 H372 0.984 . S
N366 C359 1.356 . S
N366 H369 0.984 . S
N366 H370 0.985 . S
H367 N362 0.984 . S
H368 N362 0.985 . S
H369 N366 0.984 . S
H370 N366 0.985 . S
H371 N365 0.984 . S
H372 N365 0.984 . S
H373 N361 0.984 . S
H374 N361 0.985 . S
C375 C376 1.363 . S
C375 C381 1.379 . S
C375 N383 1.356 . S
C376 C375 1.363 . S
C376 C382 1.363 1_554 S
C377 C378 1.363 . S
C377 C382 1.379 . S
C377 N384 1.356 . S
C378 C377 1.363 . S
C378 C381 1.363 1_556 S
N379 C381 1.356 . S
N379 H391 0.984 . S
N379 H392 0.985 . S
N380 C382 1.356 . S
N380 H385 0.984 1_556 S
N380 H386 0.985 . S
C381 C375 1.379 . S
C381 C378 1.363 1_554 S
C381 N379 1.356 . S
C382 C376 1.363 1_556 S
C382 C377 1.379 . S
C382 N380 1.356 . S
N383 C375 1.356 . S
N383 H389 0.984 . S
N383 H390 0.984 . S
N384 C377 1.356 . S
N384 H387 0.984 . S
N384 H388 0.985 . S
H385 N380 0.984 1_554 S
H386 N380 0.985 . S
H387 N384 0.984 . S
H388 N384 0.985 . S
H389 N383 0.984 . S
H390 N383 0.984 . S
H391 N379 0.984 . S
H392 N379 0.985 . S
C393 C394 1.363 . S
C393 C399 1.379 . S
C393 N401 1.356 . S
C394 C393 1.363 . S
C394 C400 1.364 1_556 S
C395 C396 1.363 . S
C395 C400 1.370 1_556 S
C395 N402 1.356 . S
C396 C395 1.363 . S
C396 C399 1.363 . S
N397 C399 1.356 . S
N397 H409 0.984 . S
N397 H410 0.985 . S
N398 C400 1.365 . S
N398 H403 0.984 . S
N398 H404 0.985 . S
C399 C393 1.379 . S
C399 C396 1.363 . S
C399 N397 1.356 . S
C400 C394 1.364 1_554 S
C400 C395 1.370 1_554 S
C400 N398 1.365 . S
N401 C393 1.356 . S
N401 H407 0.984 . S
N401 H408 0.984 . S
N402 C395 1.356 . S
N402 H405 0.984 . S
N402 H406 0.985 . S
H403 N398 0.984 . S
H404 N398 0.985 . S
H405 N402 0.984 . S
H406 N402 0.985 . S
H407 N401 0.984 . S
H408 N401 0.984 . S
H409 N397 0.984 . S
H410 N397 0.985 . S
C411 C412 1.363 . S
C411 C417 1.379 . S
C411 N419 1.356 . S
C412 C411 1.363 . S
C412 C418 1.363 1_556 S
C413 C414 1.363 . S
C413 C418 1.379 1_556 S
C413 N420 1.356 . S
C414 C413 1.363 . S
C414 C417 1.363 . S
N415 C417 1.356 . S
N415 H427 0.984 . S
N415 H428 0.985 . S
N416 C418 1.356 . S
N416 H421 0.984 . S
N416 H422 0.985 . S
C417 C411 1.379 . S
C417 C414 1.363 . S
C417 N415 1.356 . S
C418 C412 1.363 1_554 S
C418 C413 1.379 1_554 S
C418 N416 1.356 . S
N419 C411 1.356 . S
N419 H425 0.984 . S
N419 H426 0.984 . S
N420 C413 1.356 . S
N420 H423 0.984 . S
N420 H424 0.985 1_556 S
H421 N416 0.984 . S
H422 N416 0.985 . S
H423 N420 0.984 . S
H424 N420 0.985 1_554 S
H425 N419 0.984 . S
H426 N419 0.984 . S
H427 N415 0.984 . S
H428 N415 0.985 . S
C429 C430 1.363 . S
C429 C435 1.379 . S
C429 N437 1.356 1_556 S
C430 C429 1.363 . S
C430 C436 1.363 . S
C431 C432 1.363 . S
C431 C436 1.379 . S
C431 N438 1.356 . S
C432 C431 1.363 . S
C432 C435 1.363 . S
N433 C435 1.356 . S
N433 H445 0.984 . S
N433 H446 0.985 . S
N434 C436 1.356 . S
N434 H439 0.984 . S
N434 H440 0.985 . S
C435 C429 1.379 . S
C435 C432 1.363 . S
C435 N433 1.356 . S
C436 C430 1.363 . S
C436 C431 1.379 . S
C436 N434 1.356 . S
N437 C429 1.356 1_554 S
N437 H443 0.984 . S
N437 H444 0.984 . S
N438 C431 1.356 . S
N438 H441 0.984 . S
N438 H442 0.985 . S
H439 N434 0.984 . S
H440 N434 0.985 . S
H441 N438 0.984 . S
H442 N438 0.985 . S
H443 N437 0.984 . S
H444 N437 0.984 . S
H445 N433 0.984 . S
H446 N433 0.985 . S
C447 C448 1.363 . S
C447 C453 1.379 . S
C447 N455 1.356 1_556 S
C448 C447 1.363 . S
C448 C454 1.363 . S
C449 C450 1.363 . S
C449 C454 1.379 . S
C449 N456 1.356 . S
C450 C449 1.363 . S
C450 C453 1.363 . S
N451 C453 1.356 . S
N451 H463 0.984 1_556 S
N451 H464 0.985 . S
N452 C454 1.356 . S
N452 H457 0.984 . S
N452 H458 0.985 . S
C453 C447 1.379 . S
C453 C450 1.363 . S
C453 N451 1.356 . S
C454 C448 1.363 . S
C454 C449 1.379 . S
C454 N452 1.356 . S
N455 C447 1.356 1_554 S
N455 H461 0.984 . S
N455 H462 0.984 . S
N456 C449 1.356 . S
N456 H459 0.984 . S
N456 H460 0.985 . S
H457 N452 0.984 . S
H458 N452 0.985 . S
H459 N456 0.984 . S
H460 N456 0.985 . S
H461 N455 0.984 . S
H462 N455 0.984 . S
H463 N451 0.984 1_554 S
H464 N451 0.985 . S
C465 C466 1.363 1_556 S
C465 C471 1.379 . S
C465 N473 1.356 . S
C466 C465 1.363 1_554 S
C466 C472 1.363 . S
C467 C468 1.363 1_554 S
C467 C472 1.379 . S
C467 N474 1.356 . S
C468 C467 1.363 1_556 S
C468 C471 1.363 . S
N469 C471 1.356 . S
N469 H481 0.984 . S
N469 H482 0.985 . S
N470 C472 1.356 . S
N470 H475 0.984 . S
N470 H476 0.985 . S
C471 C465 1.379 . S
C471 C468 1.363 . S
C471 N469 1.356 . S
C472 C466 1.363 . S
C472 C467 1.379 . S
C472 N470 1.356 . S
N473 C465 1.356 . S
N473 H479 0.984 . S
N473 H480 0.984 1_556 S
N474 C467 1.356 . S
N474 H477 0.984 1_554 S
N474 H478 0.985 . S
H475 N470 0.984 . S
H476 N470 0.985 . S
H477 N474 0.984 1_556 S
H478 N474 0.985 . S
H479 N473 0.984 . S
H480 N473 0.984 1_554 S
H481 N469 0.984 . S
H482 N469 0.985 . S
C483 C484 1.363 1_556 S
C483 C489 1.379 . S
C483 N491 1.356 1_556 S
C484 C483 1.363 1_554 S
C484 C490 1.363 1_554 S
C485 C486 1.363 . S
C485 C490 1.379 . S
C485 N492 1.356 . S
C486 C485 1.363 . S
C486 C489 1.363 . S
N487 C489 1.356 . S
N487 H499 0.984 . S
N487 H500 0.985 . S
N488 C490 1.356 . S
N488 H493 0.984 1_556 S
N488 H494 0.985 . S
C489 C483 1.379 . S
C489 C486 1.363 . S
C489 N487 1.356 . S
C490 C484 1.363 1_556 S
C490 C485 1.379 . S
C490 N488 1.356 . S
N491 C483 1.356 1_554 S
N491 H497 0.984 . S
N491 H498 0.984 . S
N492 C485 1.356 . S
N492 H495 0.984 . S
N492 H496 0.985 . S
H493 N488 0.984 1_554 S
H494 N488 0.985 . S
H495 N492 0.984 . S
H496 N492 0.985 . S
H497 N491 0.984 . S
H498 N491 0.984 . S
H499 N487 0.984 . S
H500 N487 0.985 . S
C501 C502 1.363 . S
C501 C507 1.379 . S
C501 N509 1.356 1_556 S
C502 C501 1.363 . S
C502 C508 1.363 . S
C503 C504 1.363 . S
C503 C508 1.379 . S
C503 N510 1.356 . S
C504 C503 1.363 . S
C504 C507 1.363 . S
N505 C507 1.356 . S
N505 H517 0.984 . S
N505 H518 0.985 . S
N506 C508 1.356 . S
N506 H511 0.984 . S
N506 H512 0.985 . S
C507 C501 1.379 . S
C507 C504 1.363 . S
C507 N505 1.356 . S
C508 C502 1.363 . S
C508 C503 1.379 . S
C508 N506 1.356 . S
N509 C501 1.356 1_554 S
N509 H515 0.984 . S
N509 H516 0.984 . S
N510 C503 1.356 . S
N510 H513 0.984 . S
N510 H514 0.985 . S
H511 N506 0.984 . S
H512 N506 0.985 . S
H513 N510 0.984 . S
H514 N510 0.985 . S
H515 N509 0.984 . S
H516 N509 0.984 . S
H517 N505 0.984 . S
H518 N505 0.985 . S
C519 C520 1.363 . S
C519 C525 1.379 . S
C519 N527 1.356 . S
C520 C519 1.363 . S
C520 C526 1.363 . S
C521 C522 1.363 . S
C521 C526 1.379 . S
C521 N528 1.356 . S
C522 C521 1.363 . S
C522 C525 1.363 . S
N523 C525 1.356 . S
N523 H535 0.984 . S
N523 H536 0.985 . S
N524 C526 1.356 . S
N524 H529 0.984 . S
N524 H530 0.985 . S
C525 C519 1.379 . S
C525 C522 1.363 . S
C525 N523 1.356 . S
C526 C520 1.363 . S
C526 C521 1.379 . S
C526 N524 1.356 . S
N527 C519 1.356 . S
N527 H533 0.984 1_556 S
N527 H534 0.984 . S
N528 C521 1.356 . S
N528 H531 0.984 . S
N528 H532 0.985 . S
H529 N524 0.984 . S
H530 N524 0.985 . S
H531 N528 0.984 . S
H532 N528 0.985 . S
H533 N527 0.984 1_554 S
H534 N527 0.984 . S
H535 N523 0.984 . S
H536 N523 0.985 . S
C537 C538 1.363 . S
C537 C543 1.379 . S
C537 N545 1.356 . S
C538 C537 1.363 . S
C538 C544 1.363 . S
C539 C540 1.363 . S
C539 C544 1.379 . S
C539 N546 1.356 . S
C540 C539 1.363 . S
C540 C543 1.363 . S
N541 C543 1.356 . S
N541 H553 0.984 . S
N541 H554 0.985 . S
N542 C544 1.356 . S
N542 H547 0.984 . S
N542 H548 0.985 . S
C543 C537 1.379 . S
C543 C540 1.363 . S
C543 N541 1.356 . S
C544 C538 1.363 . S
C544 C539 1.379 . S
C544 N542 1.356 . S
N545 C537 1.356 . S
N545 H551 0.984 . S
N545 H552 0.984 . S
N546 C539 1.356 . S
N546 H549 0.984 . S
N546 H550 0.985 . S
H547 N542 0.984 . S
H548 N542 0.985 . S
H549 N546 0.984 . S
H550 N546 0.985 . S
H551 N545 0.984 . S
H552 N545 0.984 . S
H553 N541 0.984 . S
H554 N541 0.985 . S
C555 C556 1.363 . S
C555 C561 1.379 . S
C555 N563 1.356 . S
C556 C555 1.363 . S
C556 C562 1.363 . S
C557 C558 1.363 . S
C557 C562 1.379 . S
C557 N564 1.356 . S
C558 C557 1.363 . S
C558 C561 1.363 . S
N559 C561 1.356 . S
N559 H571 0.984 . S
N559 H572 0.985 . S
N560 C562 1.356 . S
N560 H565 0.984 . S
N560 H566 0.985 . S
C561 C555 1.379 . S
C561 C558 1.363 . S
C561 N559 1.356 . S
C562 C556 1.363 . S
C562 C557 1.379 . S
C562 N560 1.356 . S
N563 C555 1.356 . S
N563 H569 0.984 . S
N563 H570 0.984 . S
N564 C557 1.356 . S
N564 H567 0.984 . S
N564 H568 0.985 . S
H565 N560 0.984 . S
H566 N560 0.985 . S
H567 N564 0.984 . S
H568 N564 0.985 . S
H569 N563 0.984 . S
H570 N563 0.984 . S
H571 N559 0.984 . S
H572 N559 0.985 . S
C573 C574 1.363 . S
C573 C579 1.379 . S
C573 N581 1.356 . S
C574 C573 1.363 . S
C574 C580 1.363 . S
C575 C576 1.363 . S
C575 C580 1.379 . S
C575 N582 1.356 . S
C576 C575 1.363 . S
C576 C579 1.363 . S
N577 C579 1.356 . S
N577 H589 0.984 . S
N577 H590 0.985 . S
N578 C580 1.356 . S
N578 H583 0.984 . S
N578 H584 0.985 . S
C579 C573 1.379 . S
C579 C576 1.363 . S
C579 N577 1.356 . S
C580 C574 1.363 . S
C580 C575 1.379 . S
C580 N578 1.356 . S
N581 C573 1.356 . S
N581 H587 0.984 . S
N581 H588 0.984 . S
N582 C575 1.356 . S
N582 H585 0.984 . S
N582 H586 0.985 . S
H583 N578 0.984 . S
H584 N578 0.985 . S
H585 N582 0.984 . S
H586 N582 0.985 . S
H587 N581 0.984 . S
H588 N581 0.984 . S
H589 N577 0.984 . S
H590 N577 0.985 . S
C591 C592 1.363 . S
C591 C597 1.379 . S
C591 N599 1.356 . S
C592 C591 1.363 . S
C592 C598 1.363 . S
C593 C594 1.363 . S
C593 C598 1.379 . S
C593 N600 1.356 . S
C594 C593 1.363 . S
C594 C597 1.363 . S
N595 C597 1.356 . S
N595 H607 0.984 . S
N595 H608 0.985 . S
N596 C598 1.356 . S
N596 H601 0.984 . S
N596 H602 0.985 . S
C597 C591 1.379 . S
C597 C594 1.363 . S
C597 N595 1.356 . S
C598 C592 1.363 . S
C598 C593 1.379 . S
C598 N596 1.356 . S
N599 C591 1.356 . S
N599 H605 0.984 . S
N599 H606 0.984 . S
N600 C593 1.356 . S
N600 H603 0.984 . S
N600 H604 0.985 . S
H601 N596 0.984 . S
H602 N596 0.985 . S
H603 N600 0.984 . S
H604 N600 0.985 . S
H605 N599 0.984 . S
H606 N599 0.984 . S
H607 N595 0.984 . S
H608 N595 0.985 . S
C609 C610 1.363 . S
C609 C615 1.379 . S
C609 N617 1.356 . S
C610 C609 1.363 . S
C610 C616 1.363 . S
C611 C612 1.363 . S
C611 C616 1.379 . S
C611 N618 1.356 . S
C612 C611 1.363 . S
C612 C615 1.363 . S
N613 C615 1.356 . S
N613 H625 0.984 . S
N613 H626 0.985 . S
N614 C616 1.356 . S
N614 H619 0.984 . S
N614 H620 0.985 . S
C615 C609 1.379 . S
C615 C612 1.363 . S
C615 N613 1.356 . S
C616 C610 1.363 . S
C616 C611 1.379 . S
C616 N614 1.356 . S
N617 C609 1.356 . S
N617 H623 0.984 . S
N617 H624 0.984 . S
N618 C611 1.356 . S
N618 H621 0.984 . S
N618 H622 0.985 . S
H619 N614 0.984 . S
H620 N614 0.985 . S
H621 N618 0.984 . S
H622 N618 0.985 . S
H623 N617 0.984 . S
H624 N617 0.984 . S
H625 N613 0.984 . S
H626 N613 0.985 . S
C627 C628 1.363 . S
C627 C633 1.379 . S
C627 N635 1.356 . S
C628 C627 1.363 . S
C628 C634 1.363 . S
C629 C630 1.363 . S
C629 C634 1.379 . S
C629 N636 1.356 . S
C630 C629 1.363 . S
C630 C633 1.363 . S
N631 C633 1.356 . S
N631 H643 0.984 . S
N631 H644 0.985 . S
N632 C634 1.356 . S
N632 H637 0.984 . S
N632 H638 0.985 . S
C633 C627 1.379 . S
C633 C630 1.363 . S
C633 N631 1.356 . S
C634 C628 1.363 . S
C634 C629 1.379 . S
C634 N632 1.356 . S
N635 C627 1.356 . S
N635 H641 0.984 . S
N635 H642 0.984 . S
N636 C629 1.356 . S
N636 H639 0.984 . S
N636 H640 0.985 . S
H637 N632 0.984 . S
H638 N632 0.985 . S
H639 N636 0.984 . S
H640 N636 0.985 . S
H641 N635 0.984 . S
H642 N635 0.984 . S
H643 N631 0.984 . S
H644 N631 0.985 . S
C214 C12 1.884 . S
C216 C131 1.860 . S
C232 C32 1.643 . S
C234 C178 1.644 . S
C252 C182 1.738 . S
C250 C52 1.801 . S
C270 C147 1.576 . S
C268 C75 1.575 . S
C286 C95 1.812 . S
C288 C162 1.804 . S
C306 C184 1.336 . S
C304 C115 1.269 . S
C324 C153 1.604 . S
C322 C58 1.616 . S
C340 C69 1.520 . S
C342 C193 1.591 . S
C360 C122 1.506 . S
C358 C89 1.495 1_556 S
C376 C109 1.501 . S
C378 C151 1.507 . S
C394 C18 1.874 1_556 S
C396 C209 1.816 . S
C414 C120 1.567 . S
C412 C38 1.575 1_556 S
C432 C138 1.817 . S
C430 C78 1.840 . S
C450 C152 1.625 . S
C448 C98 1.622 1_556 S
C468 C206 1.716 . S
C466 C118 1.770 . S
C486 C121 1.558 . S
C484 C9 1.573 . S
C504 C169 1.755 . S
C502 C29 1.812 1_556 S
C520 C49 1.264 . S
C522 C192 1.307 . S
C540 C161 1.578 . S
C538 C112 1.580 . S
C558 C200 1.545 . S
C556 C15 1.517 . S
C576 C130 1.470 . S
C574 C35 1.496 . S
C594 C175 1.485 . S
C592 C55 1.498 . S
C610 C72 1.851 . S
C612 C183 1.797 . S
C628 C92 1.542 . S
C630 C144 1.542 . S
