# Generated by pormake.
# Topology tsx, (6,3)-cn, num edge types: 1
# Building blocks:
#     Node 0, Type 0, BuildingBlock: MIDCAF_clean_sbu_0, # of connection points: 6
#     Node 1, Type 0, BuildingBlock: MIDCAF_clean_sbu_0, # of connection points: 6
#     Node 2, Type 1, BuildingBlock: KAKCAD_clean_linker_0, # of connection points: 3
#     Node 3, Type 1, BuildingBlock: KAKCAD_clean_linker_0, # of connection points: 3
#     Node 4, Type 1, BuildingBlock: KAKCAD_clean_linker_0, # of connection points: 3
#     Node 5, Type 1, BuildingBlock: KAKCAD_clean_linker_0, # of connection points: 3
#     Edge 6, Type (0, 1), BuildingBlock: FUNLAD_clean_linker_1, # of connection points: 2
#     Edge 7, Type (0, 1), BuildingBlock: FUNLAD_clean_linker_1, # of connection points: 2
#     Edge 8, Type (0, 1), BuildingBlock: FUNLAD_clean_linker_1, # of connection points: 2
#     Edge 9, Type (0, 1), BuildingBlock: FUNLAD_clean_linker_1, # of connection points: 2
#     Edge 10, Type (0, 1), BuildingBlock: FUNLAD_clean_linker_1, # of connection points: 2
#     Edge 11, Type (0, 1), BuildingBlock: FUNLAD_clean_linker_1, # of connection points: 2
#     Edge 12, Type (0, 1), BuildingBlock: FUNLAD_clean_linker_1, # of connection points: 2
#     Edge 13, Type (0, 1), BuildingBlock: FUNLAD_clean_linker_1, # of connection points: 2
#     Edge 14, Type (0, 1), BuildingBlock: FUNLAD_clean_linker_1, # of connection points: 2
#     Edge 15, Type (0, 1), BuildingBlock: FUNLAD_clean_linker_1, # of connection points: 2
#     Edge 16, Type (0, 1), BuildingBlock: FUNLAD_clean_linker_1, # of connection points: 2
#     Edge 17, Type (0, 1), BuildingBlock: FUNLAD_clean_linker_1, # of connection points: 2
# Relax obj value: 0.118
# Max RMSD: 0.182
# Mean RMSD: 0.113
data_MOF--net-tsx--node1-MIDCAF_clean_sbu_0--node2-KAKCAD_clean_linker_0--edge1-FUNLAD_clean_linker_1
_symmetry_space_group_name_H-M    P1
_symmetry_Int_Tables_number       1
_symmetry_cell_setting            triclinic
loop_
_symmetry_equiv_pos_as_xyz
'x, y, z'
_cell_length_a     24.715872
_cell_length_b     25.647178
_cell_length_c     48.577373
_cell_angle_alpha  90.871925
_cell_angle_beta   94.137617
_cell_angle_gamma 89.928163
loop_
_atom_site_label
_atom_site_type_symbol
_atom_site_fract_x
_atom_site_fract_y
_atom_site_fract_z
_atom_type_partial_charge
Zn0 Zn 0.95248 0.00732 0.9741 0.0
Zn1 Zn 0.12493 0.02779 0.04751 0.0
Zn2 Zn 0.03989 0.01931 0.01023 0.0
C3 C 0.09703 0.12867 0.02898 0.0
C4 C 0.15814 0.96471 0.00423 0.0
O5 O 0.97722 0.97188 0.02864 0.0
O6 O 0.90912 0.96198 0.99683 0.0
C7 C 0.96645 0.11457 0.98515 0.0
O8 O 0.05833 0.10356 0.01544 0.0
O9 O 0.13176 0.10447 0.04432 0.0
O10 O 0.17519 0.98298 0.02751 0.0
O11 O 0.10973 0.97534 0.99409 0.0
O12 O 0.93556 0.08258 0.97179 0.0
O13 O 0.00833 0.09853 6e-05 0.0
O14 O 0.06755 0.98067 0.97338 0.0
O15 O 0.99389 0.97617 0.94463 0.0
C16 C 0.04418 0.96881 0.94959 0.0
O17 O 0.01711 0.98582 0.04915 0.0
O18 O 0.08776 -0.00098 0.07902 0.0
C19 C 0.93044 0.95268 0.02066 0.0
C20 C 0.03983 0.98274 0.07375 0.0
Zn21 Zn 0.6411 0.51534 0.54706 0.0
Zn22 Zn 0.45314 0.5176 0.48408 0.0
Zn23 Zn 0.54718 0.51706 0.5153 0.0
C24 C 0.53241 0.47437 0.45219 0.0
C25 C 0.47813 0.62115 0.49876 0.0
O26 O 0.53221 0.47994 0.55488 0.0
O27 O 0.60869 0.49098 0.5809 0.0
C28 C 0.6544 0.45314 0.50021 0.0
O29 O 0.56143 0.48006 0.47513 0.0
O30 O 0.48336 0.48866 0.45032 0.0
O31 O 0.4409 0.59363 0.48678 0.0
O32 O 0.52141 0.59943 0.50967 0.0
O33 O 0.67794 0.46423 0.52352 0.0
O34 O 0.60699 0.4717 0.4933 0.0
O35 O 0.57422 0.59849 0.52179 0.0
O36 O 0.65604 0.59083 0.54304 0.0
C37 C 0.61904 0.61907 0.5318 0.0
O38 O 0.48669 0.47255 0.53654 0.0
O39 O 0.41321 0.47117 0.50764 0.0
C40 C 0.55994 0.4758 0.57823 0.0
C41 C 0.43761 0.4576 0.53014 0.0
C42 C 0.96596 0.96156 0.29317 0.0
C43 C 0.01111 0.95345 0.27754 0.0
C44 C 0.97323 0.97114 0.32165 0.0
C45 C 0.02563 0.97298 0.33504 0.0
C46 C 0.07041 0.96325 0.3195 0.0
C47 C 0.06318 0.9536 0.29115 0.0
C48 C 0.03424 0.98788 0.36474 0.0
C49 C 0.07423 0.96299 0.38183 0.0
C50 C 0.08569 0.97957 0.4093 0.0
C51 C 0.0565 0.02148 0.4198 0.0
C52 C 0.01533 0.04618 0.40321 0.0
C53 C 0.00453 0.02897 0.37572 0.0
C54 C 0.98323 0.08967 0.41448 0.0
C55 C 0.9669 0.08815 0.4416 0.0
C56 C 0.96752 0.13251 0.39798 0.0
C57 C 0.935 0.17201 0.40805 0.0
C58 C 0.91778 0.16971 0.43494 0.0
C59 C 0.12843 0.95277 0.42677 0.0
C60 C 0.1292 0.89813 0.42768 0.0
C61 C 0.16973 0.98114 0.44171 0.0
C62 C 0.21219 0.95512 0.45646 0.0
C63 C 0.21366 0.90025 0.45662 0.0
C64 C 0.1711 0.87224 0.44259 0.0
C65 C 0.93492 0.128 0.45177 0.0
H66 H 0.92515 0.96236 0.28356 0.0
H67 H 0.93783 0.97791 0.33312 0.0
H68 H 0.11138 0.9651 0.32901 0.0
H69 H 0.09877 0.94783 0.27966 0.0
H70 H 0.09709 0.93092 0.37364 0.0
H71 H 0.97328 0.04799 0.3627 0.0
H72 H 0.0658 0.03461 0.44091 0.0
H73 H 0.97776 0.05558 0.45482 0.0
H74 H 0.98058 0.13575 0.37727 0.0
H75 H 0.92406 0.20458 0.39486 0.0
H76 H 0.09747 0.87536 0.41665 0.0
H77 H 0.16996 0.02336 0.44137 0.0
H78 H 0.92246 0.12558 0.47265 0.0
H79 H 0.17092 0.82999 0.44256 0.0
H80 H 0.24359 0.97805 0.46756 0.0
C81 C 0.05241 0.03592 0.74099 0.0
C82 C 0.06767 0.98556 0.74932 0.0
C83 C 0.04316 0.04723 0.71309 0.0
C84 C 0.04811 0.00811 0.69293 0.0
C85 C 0.06246 0.95736 0.70118 0.0
C86 C 0.07243 0.94614 0.72919 0.0
C87 C 0.03915 0.02084 0.66338 0.0
C88 C 0.06443 0.06454 0.6531 0.0
C89 C 0.05667 0.0772 0.62514 0.0
C90 C 0.02231 0.04627 0.60735 0.0
C91 C 0.99605 0.00268 0.61747 0.0
C92 C 0.00518 0.98994 0.64549 0.0
C93 C 0.95841 0.97058 0.59916 0.0
C94 C 0.91768 0.994 0.5818 0.0
C95 C 0.96129 0.91599 0.60008 0.0
C96 C 0.92311 0.88541 0.58475 0.0
C97 C 0.8808 0.90858 0.5684 0.0
C98 C 0.08696 0.12143 0.61472 0.0
C99 C 0.08622 0.17033 0.6281 0.0
C100 C 0.12057 0.11375 0.59295 0.0
C101 C 0.15473 0.15367 0.58549 0.0
C102 C 0.15539 0.20205 0.59957 0.0
C103 C 0.11971 0.21053 0.62033 0.0
C104 C 0.87907 0.9633 0.56656 0.0
H105 H 0.04792 0.0668 0.75614 0.0
H106 H 0.03158 0.08653 0.70726 0.0
H107 H 0.06657 0.92657 0.68596 0.0
H108 H 0.0828 0.90659 0.73496 0.0
H109 H 0.09168 0.08789 0.66675 0.0
H110 H 0.98458 0.95683 0.65358 0.0
H111 H 0.01627 0.05596 0.5857 0.0
H112 H 0.91464 0.03606 0.5807 0.0
H113 H 0.99275 0.8969 0.61295 0.0
H114 H 0.92582 0.84337 0.58633 0.0
H115 H 0.06033 0.17712 0.64487 0.0
H116 H 0.12186 0.07629 0.58239 0.0
H117 H 0.84796 0.98262 0.55364 0.0
H118 H 0.119 0.24776 0.63116 0.0
H119 H 0.18063 0.14657 0.56877 0.0
C120 C 0.53239 0.43984 0.80171 0.0
C121 C 0.52345 0.48197 0.78368 0.0
C122 C 0.53905 0.44856 0.83029 0.0
C123 C 0.53676 0.49941 0.84139 0.0
C124 C 0.52772 0.5413 0.82333 0.0
C125 C 0.52141 0.53265 0.79485 0.0
C126 C 0.54407 0.50919 0.87166 0.0
C127 C 0.58567 0.48446 0.88777 0.0
C128 C 0.59377 0.49493 0.91633 0.0
C129 C 0.5592 0.53066 0.92871 0.0
C130 C 0.51752 0.55589 0.91276 0.0
C131 C 0.51021 0.54466 0.88436 0.0
C132 C 0.48111 0.59423 0.92526 0.0
C133 C 0.45498 0.58237 0.94913 0.0
C134 C 0.46929 0.6417 0.91206 0.0
C135 C 0.43103 0.67593 0.92197 0.0
C136 C 0.40371 0.66357 0.94545 0.0
C137 C 0.6393 0.46931 0.93277 0.0
C138 C 0.65159 0.41663 0.92786 0.0
C139 C 0.67251 0.4977 0.95239 0.0
C140 C 0.71763 0.47416 0.96626 0.0
C141 C 0.73032 0.42167 0.96107 0.0
C142 C 0.69658 0.39318 0.94165 0.0
C143 C 0.41628 0.61655 0.95897 0.0
H144 H 0.53563 0.40031 0.79393 0.0
H145 H 0.54582 0.4155 0.84372 0.0
H146 H 0.52654 0.58101 0.83119 0.0
H147 H 0.51522 0.56587 0.78146 0.0
H148 H 0.613 0.45833 0.87784 0.0
H149 H 0.47734 0.56312 0.87212 0.0
H150 H 0.56488 0.5391 0.95066 0.0
H151 H 0.46293 0.54581 0.95955 0.0
H152 H 0.48895 0.65191 0.89366 0.0
H153 H 0.42159 0.71097 0.91046 0.0
H154 H 0.62669 0.39349 0.91303 0.0
H155 H 0.66464 0.53856 0.95641 0.0
H156 H 0.39554 0.6059 0.97697 0.0
H157 H 0.70538 0.35317 0.93626 0.0
H158 H 0.74308 0.49726 0.98087 0.0
C159 C 0.53849 0.54422 0.23751 0.0
C160 C 0.54671 0.49312 0.24685 0.0
C161 C 0.53162 0.55432 0.20935 0.0
C162 C 0.53213 0.51337 0.18986 0.0
C163 C 0.53972 0.46204 0.19913 0.0
C164 C 0.54709 0.45194 0.22738 0.0
C165 C 0.52484 0.52456 0.15998 0.0
C166 C 0.55318 0.56582 0.14908 0.0
C167 C 0.54642 0.57739 0.12092 0.0
C168 C 0.5102 0.54753 0.10347 0.0
C169 C 0.48115 0.5062 0.11416 0.0
C170 C 0.48911 0.49478 0.14239 0.0
C171 C 0.44165 0.47505 0.09631 0.0
C172 C 0.40123 0.49942 0.07915 0.0
C173 C 0.44205 0.42044 0.09779 0.0
C174 C 0.40185 0.39087 0.08325 0.0
C175 C 0.35981 0.41508 0.06718 0.0
C176 C 0.57879 0.61999 0.11011 0.0
C177 C 0.58044 0.6692 0.12325 0.0
C178 C 0.61154 0.61062 0.08813 0.0
C179 C 0.64692 0.6492 0.08013 0.0
C180 C 0.64971 0.69797 0.09388 0.0
C181 C 0.61513 0.708 0.11499 0.0
C182 C 0.36049 0.46974 0.06475 0.0
H183 H 0.53745 0.57657 0.25208 0.0
H184 H 0.52513 0.59418 0.20283 0.0
H185 H 0.54037 0.42976 0.18451 0.0
H186 H 0.55191 0.4119 0.2338 0.0
H187 H 0.58176 0.58827 0.16246 0.0
H188 H 0.46614 0.46363 0.15088 0.0
H189 H 0.50474 0.55637 0.0817 0.0
H190 H 0.40006 0.5415 0.07763 0.0
H191 H 0.47311 0.4006 0.11058 0.0
H192 H 0.40276 0.34885 0.08529 0.0
H193 H 0.55528 0.67741 0.14016 0.0
H194 H 0.61102 0.57294 0.07772 0.0
H195 H 0.32961 0.48977 0.05201 0.0
H196 H 0.61597 0.7455 0.12559 0.0
H197 H 0.67181 0.64081 0.06316 0.0
H198 H 0.07917 0.20523 0.00929 0.0
C199 C 0.10399 0.1854 0.02526 0.0
H200 H 0.16809 0.19172 0.05629 0.0
H201 H 0.28697 0.36913 0.99644 0.0
H202 H 0.29837 0.30582 0.95941 0.0
H203 H 0.2463 0.2236 0.95679 0.0
H204 H 0.18211 0.20443 0.99085 0.0
C205 C 0.14384 0.2113 0.04 0.0
C206 C 0.15939 0.26607 0.03504 0.0
C207 C 0.19601 0.27677 0.01473 0.0
C208 C 0.22693 0.32356 0.01657 0.0
C209 C 0.26356 0.33345 0.99621 0.0
C210 C 0.27021 0.29765 0.97485 0.0
C211 C 0.24083 0.25138 0.97336 0.0
C212 C 0.20422 0.24077 0.99307 0.0
H213 H 0.32387 0.33981 0.05316 0.0
C214 C 0.31584 0.38152 0.0541 0.0
H215 H 0.25417 0.43869 0.04861 0.0
H216 H 0.08301 0.26254 0.07256 0.0
H217 H 0.06752 0.3282 0.10792 0.0
H218 H 0.12236 0.4087 0.11186 0.0
H219 H 0.19274 0.42425 0.08056 0.0
C220 C 0.26531 0.39803 0.04636 0.0
C221 C 0.2219 0.35877 0.03901 0.0
C222 C 0.17991 0.3514 0.05697 0.0
C223 C 0.14862 0.30483 0.05493 0.0
C224 C 0.10817 0.29715 0.07362 0.0
C225 C 0.09881 0.33452 0.09384 0.0
C226 C 0.12967 0.37988 0.09604 0.0
C227 C 0.16999 0.38833 0.07796 0.0
H228 H 0.2383 0.93506 0.99554 0.0
C229 C 0.19517 0.92999 0.98998 0.0
H230 H 0.13612 0.87968 0.97023 0.0
H231 H 0.31928 0.76877 0.9017 0.0
H232 H 0.26357 0.80886 0.86474 0.0
H233 H 0.18676 0.86542 0.87487 0.0
H234 H 0.16431 0.88111 0.92217 0.0
C235 C 0.17894 0.88705 0.97543 0.0
C236 C 0.21969 0.84624 0.96885 0.0
C237 C 0.23106 0.8356 0.94114 0.0
C238 C 0.27558 0.80297 0.93531 0.0
C239 C 0.28638 0.79365 0.90739 0.0
C240 C 0.25461 0.81625 0.88593 0.0
C241 C 0.21124 0.84805 0.89165 0.0
C242 C 0.1992 0.85738 0.91887 0.0
H243 H 0.32782 0.67863 0.96594 0.0
C244 C 0.3594 0.69708 0.95502 0.0
H245 H 0.38785 0.76836 0.94015 0.0
H246 H 0.20054 0.84702 0.02373 0.0
H247 H 0.25651 0.80755 0.06084 0.0
H248 H 0.33831 0.75727 0.05112 0.0
H249 H 0.36381 0.7451 0.00424 0.0
C250 C 0.35651 0.74875 0.95062 0.0
C251 C 0.30826 0.78028 0.95717 0.0
C252 C 0.29539 0.78886 0.98486 0.0
C253 C 0.25008 0.8205 0.99061 0.0
C254 C 0.23615 0.82573 0.01831 0.0
C255 C 0.26764 0.80286 0.03979 0.0
C256 C 0.31353 0.77436 0.03431 0.0
C257 C 0.32749 0.76737 0.00723 0.0
H258 H 0.92839 0.89563 0.05425 0.0
C259 C 0.90371 0.91589 0.03837 0.0
H260 H 0.82683 0.92402 0.01731 0.0
H261 H 0.73313 0.70237 0.02624 0.0
H262 H 0.74683 0.70717 0.97748 0.0
H263 H 0.7981 0.77993 0.95932 0.0
H264 H 0.83545 0.8485 0.98974 0.0
C265 C 0.85094 0.90395 0.0335 0.0
C266 C 0.82596 0.85761 0.04561 0.0
C267 C 0.80551 0.81703 0.02756 0.0
C268 C 0.77707 0.77446 0.03808 0.0
C269 C 0.75573 0.7353 0.01945 0.0
C270 C 0.76324 0.73755 0.99136 0.0
C271 C 0.79201 0.77854 0.98114 0.0
C272 C 0.813 0.81785 -0.00111 0.0
H273 H 0.67451 0.77991 0.08867 0.0
C274 C 0.68712 0.73956 0.08616 0.0
H275 H 0.75017 0.68963 0.07477 0.0
H276 H 0.85917 0.92894 0.08613 0.0
H277 H 0.85228 0.91994 0.13533 0.0
H278 H 0.80919 0.84249 0.15382 0.0
H279 H 0.77165 0.774 0.12305 0.0
C280 C 0.7361 0.72951 0.07695 0.0
C281 C 0.76981 0.77206 0.06668 0.0
C282 C 0.79319 0.81083 0.085 0.0
C283 C 0.8203 0.85433 0.07441 0.0
C284 C 0.84027 0.894 0.09304 0.0
C285 C 0.83616 0.88954 0.12136 0.0
C286 C 0.81173 0.84601 0.13177 0.0
C287 C 0.79019 0.8071 0.11389 0.0
H288 H 0.92522 0.18092 0.96549 0.0
C289 C 0.95139 0.16999 0.98346 0.0
H290 H 0.9807 0.19278 0.0237 0.0
H291 H 0.85996 0.38049 0.94307 0.0
H292 H 0.94153 0.37819 0.91825 0.0
H293 H 0.01789 0.32046 0.93291 0.0
H294 H 0.01236 0.26377 0.97245 0.0
C295 C 0.95877 0.20426 0.00458 0.0
C296 C 0.92606 0.2533 0.00353 0.0
C297 C 0.931 0.28855 0.98169 0.0
C298 C 0.88765 0.32308 0.9739 0.0
C299 C 0.89204 0.35454 0.95047 0.0
C300 C 0.93869 0.35349 0.93596 0.0
C301 C 0.98165 0.3209 0.94417 0.0
C302 C 0.97796 0.28852 0.96671 0.0
H303 H 0.81204 0.42504 0.98348 0.0
C304 C 0.78053 0.3987 0.9749 0.0
H305 H 0.75663 0.31974 0.97056 0.0
H306 H 0.91041 0.20065 0.0509 0.0
H307 H 0.83302 0.20876 0.07874 0.0
H308 H 0.75885 0.27033 0.0661 0.0
H309 H 0.76156 0.32405 0.02537 0.0
C310 C 0.78891 0.34697 0.9768 0.0
C311 C 0.84035 0.32356 0.98885 0.0
C312 C 0.83923 0.29387 0.01317 0.0
C313 C 0.88223 0.25873 0.02059 0.0
C314 C 0.87888 0.22795 0.04433 0.0
C315 C 0.83476 0.23235 0.06054 0.0
C316 C 0.79297 0.267 0.05341 0.0
C317 C 0.79489 0.29741 0.02998 0.0
H318 H 0.5971 0.69987 0.51934 0.0
C319 C 0.62861 0.67557 0.52919 0.0
H320 H 0.70911 0.67212 0.54682 0.0
H321 H 0.81435 0.86087 0.49638 0.0
H322 H 0.83164 0.79739 0.4602 0.0
H323 H 0.78412 0.71263 0.45744 0.0
H324 H 0.71871 0.691 0.49066 0.0
C325 C 0.6767 0.69657 0.53787 0.0
C326 C 0.69076 0.75198 0.53393 0.0
C327 C 0.72796 0.7642 0.51418 0.0
C328 C 0.75579 0.81261 0.51596 0.0
C329 C 0.79308 0.82397 0.49613 0.0
C330 C 0.80304 0.78809 0.47525 0.0
C331 C 0.77626 0.74037 0.47369 0.0
C332 C 0.7391 0.72832 0.49291 0.0
H333 H 0.8486 0.83244 0.5536 0.0
C334 C 0.83897 0.87385 0.55448 0.0
H335 H 0.7755 0.92899 0.54794 0.0
H336 H 0.61314 0.74473 0.57104 0.0
H337 H 0.59106 0.81075 0.60486 0.0
H338 H 0.63968 0.89485 0.60811 0.0
H339 H 0.71064 0.91346 0.57762 0.0
C340 C 0.78836 0.88879 0.54588 0.0
C341 C 0.74705 0.84803 0.53785 0.0
C342 C 0.70424 0.83894 0.55509 0.0
C343 C 0.67612 0.79052 0.5532 0.0
C344 C 0.63554 0.78097 0.57159 0.0
C345 C 0.6225 0.81852 0.59106 0.0
C346 C 0.64988 0.86588 0.5929 0.0
C347 C 0.69057 0.87606 0.57529 0.0
H348 H 0.65864 0.40534 0.46205 0.0
C349 C 0.68038 0.41669 0.48141 0.0
H350 H 0.75065 0.40495 0.50811 0.0
H351 H 0.78444 0.17753 0.45893 0.0
H352 H 0.72746 0.15483 0.49555 0.0
H353 H 0.68188 0.22319 0.52169 0.0
H354 H 0.69238 0.31462 0.51102 0.0
C355 C 0.72894 0.3953 0.48845 0.0
C356 C 0.75274 0.35432 0.47118 0.0
C357 C 0.74713 0.30126 0.4781 0.0
C358 C 0.77475 0.26203 0.46364 0.0
C359 C 0.76632 0.2091 0.47007 0.0
C360 C 0.73326 0.19549 0.49086 0.0
C361 C 0.70751 0.23396 0.50554 0.0
C362 C 0.71405 0.28629 0.49926 0.0
H363 H 0.88581 0.21728 0.46842 0.0
C364 C 0.88263 0.21045 0.4462 0.0
H365 H 0.83969 0.22967 0.40841 0.0
H366 H 0.76731 0.45196 0.45113 0.0
H367 H 0.82237 0.47471 0.41366 0.0
H368 H 0.87251 0.40702 0.38935 0.0
H369 H 0.86776 0.31621 0.40222 0.0
C370 C 0.84475 0.23648 0.43056 0.0
C371 C 0.80965 0.27628 0.44304 0.0
C372 C 0.81258 0.32908 0.435 0.0
C373 C 0.78395 0.36819 0.4491 0.0
C374 C 0.78823 0.42076 0.44106 0.0
C375 C 0.8197 0.43434 0.41961 0.0
C376 C 0.84791 0.39622 0.40592 0.0
C377 C 0.84476 0.34419 0.4135 0.0
H378 H 0.43606 0.39911 0.56308 0.0
C379 C 0.41117 0.42067 0.54782 0.0
H380 H 0.33352 0.43035 0.52759 0.0
H381 H 0.24766 0.20471 0.53539 0.0
H382 H 0.26725 0.20761 0.4873 0.0
H383 H 0.31818 0.28118 0.46971 0.0
H384 H 0.34947 0.3524 0.5001 0.0
C385 C 0.35813 0.40972 0.54338 0.0
C386 C 0.3335 0.36321 0.55522 0.0
C387 C 0.31632 0.32144 0.53722 0.0
C388 C 0.28785 0.27865 0.54742 0.0
C389 C 0.27005 0.23798 0.52885 0.0
C390 C 0.28096 0.23913 0.50114 0.0
C391 C 0.30955 0.28057 0.49124 0.0
C392 C 0.32709 0.32133 0.50893 0.0
H393 H 0.17832 0.28446 0.59428 0.0
C394 C 0.1924 0.2444 0.59269 0.0
H395 H 0.25819 0.19536 0.58424 0.0
H396 H 0.36247 0.43627 0.59545 0.0
H397 H 0.34863 0.43017 0.64422 0.0
H398 H 0.30296 0.35378 0.6623 0.0
H399 H 0.27042 0.28311 0.63161 0.0
C400 C 0.2429 0.23501 0.58536 0.0
C401 C 0.2769 0.27766 0.57562 0.0
C402 C 0.29691 0.31788 0.59398 0.0
C403 C 0.32471 0.36117 0.58369 0.0
C404 C 0.34235 0.40185 0.60224 0.0
C405 C 0.33449 0.39895 0.63029 0.0
C406 C 0.30865 0.35598 0.64046 0.0
C407 C 0.28992 0.31583 0.62262 0.0
H408 H 0.49986 0.70179 0.51316 0.0
C409 C 0.47053 0.67826 0.50079 0.0
H410 H 0.39728 0.67742 0.47553 0.0
H411 H 0.29687 0.87502 0.52832 0.0
H412 H 0.29076 0.82273 0.56948 0.0
H413 H 0.34111 0.73984 0.57477 0.0
H414 H 0.39824 0.70896 0.53914 0.0
C415 C 0.42643 0.70071 0.48821 0.0
C416 C 0.41362 0.75699 0.49051 0.0
C417 C 0.38155 0.77475 0.51173 0.0
C418 C 0.35188 0.822 0.5085 0.0
C419 C 0.31934 0.83878 0.52971 0.0
C420 C 0.31575 0.80931 0.55339 0.0
C421 C 0.34414 0.76264 0.55637 0.0
C422 C 0.37662 0.74527 0.53579 0.0
H423 H 0.25136 0.82909 0.47407 0.0
C424 C 0.25888 0.87017 0.47049 0.0
H425 H 0.32029 0.92786 0.47079 0.0
H426 H 0.48185 0.73957 0.44978 0.0
H427 H 0.49264 0.79461 0.4101 0.0
H428 H 0.44042 0.87627 0.4041 0.0
H429 H 0.37726 0.90349 0.43762 0.0
C430 C 0.30975 0.88825 0.47579 0.0
C431 C 0.35383 0.85063 0.48389 0.0
C432 C 0.39199 0.83672 0.46464 0.0
C433 C 0.42186 0.78957 0.46797 0.0
C434 C 0.45799 0.77494 0.44793 0.0
C435 C 0.46462 0.8062 0.4252 0.0
C436 C 0.43523 0.85221 0.42183 0.0
C437 C 0.39906 0.86737 0.44119 0.0
H438 H 0.96442 0.95989 0.09252 0.0
C439 C 0.00794 0.96506 0.0964 0.0
H440 H 0.07411 0.96815 0.12626 0.0
H441 H 0.95859 0.0458 0.22699 0.0
H442 H 0.98529 0.12954 0.20938 0.0
H443 H 0.01785 0.13601 0.16269 0.0
H444 H 0.02367 0.05895 0.13332 0.0
C445 C 0.03088 0.96121 0.12216 0.0
C446 C 0.99847 0.95895 0.14661 0.0
C447 C 0.9947 0.00444 0.16325 0.0
C448 C 0.97645 0.00071 0.19014 0.0
C449 C 0.97324 0.04659 0.20652 0.0
C450 C 0.98811 0.09481 0.19661 0.0
C451 C 0.00642 0.09846 0.17033 0.0
C452 C 0.00979 0.05393 0.15374 0.0
H453 H 0.04465 0.9538 0.2368 0.0
C454 C 0.00698 0.94975 0.24691 0.0
H455 H 0.92168 0.93905 0.23902 0.0
H456 H 0.98994 0.86684 0.11756 0.0
H457 H 0.95559 0.78483 0.13387 0.0
H458 H 0.92409 0.77849 0.18079 0.0
H459 H 0.92669 0.8543 0.21176 0.0
C460 C 0.96065 0.9452 0.23069 0.0
C461 C 0.96298 0.9514 0.20043 0.0
C462 C 0.95992 0.90728 0.18254 0.0
C463 C 0.97796 0.91099 0.15548 0.0
C464 C 0.9766 0.86599 0.13827 0.0
C465 C 0.95701 0.81881 0.14739 0.0
C466 C 0.93924 0.81524 0.17383 0.0
C467 C 0.94096 0.85882 0.19139 0.0
H468 H 0.12093 0.95523 0.93027 0.0
C469 C 0.07715 0.95266 0.92694 0.0
H470 H 0.00992 0.93933 0.89853 0.0
H471 H 0.17134 0.01625 0.80731 0.0
H472 H 0.19099 0.09409 0.8356 0.0
H473 H 0.15942 0.10149 0.88254 0.0
H474 H 0.10991 0.0314 0.90171 0.0
C475 C 0.0538 0.94259 0.90162 0.0
C476 C 0.08432 0.93596 0.87658 0.0
C477 C 0.11227 0.97863 0.86581 0.0
C478 C 0.12782 0.97585 0.83825 0.0
C479 C 0.15707 0.01772 0.82786 0.0
C480 C 0.16874 0.0623 0.84388 0.0
C481 C 0.15113 0.06636 0.87033 0.0
C482 C 0.12292 0.02535 0.8812 0.0
H483 H 0.05492 0.00179 0.79289 0.0
C484 C 0.07559 0.97561 0.77924 0.0
H485 H 0.1299 0.91156 0.77791 0.0
H486 H 0.04493 0.84325 0.89341 0.0
H487 H 0.02954 0.76465 0.86521 0.0
H488 H 0.05167 0.76239 0.81646 0.0
H489 H 0.08989 0.83843 0.79568 0.0
C490 C 0.10799 0.9383 0.79059 0.0
C491 C 0.11194 0.93257 0.8211 0.0
C492 C 0.09053 0.88768 0.83284 0.0
C493 C 0.0769 0.88933 0.86074 0.0
C494 C 0.0549 0.84422 0.87209 0.0
C495 C 0.04617 0.79891 0.85619 0.0
C496 C 0.05869 0.79762 0.82874 0.0
C497 C 0.08043 0.84149 0.81704 0.0
H498 H 0.49388 0.43864 0.59967 0.0
C499 C 0.53419 0.45552 0.60244 0.0
H500 H 0.59955 0.47671 0.63065 0.0
H501 H 0.41853 0.47954 0.72191 0.0
H502 H 0.36532 0.53972 0.69267 0.0
H503 H 0.39046 0.55772 0.6455 0.0
H504 H 0.46773 0.51525 0.6271 0.0
C505 C 0.55883 0.46058 0.62794 0.0
C506 C 0.53498 0.44291 0.65346 0.0
C507 C 0.48996 0.46921 0.66385 0.0
C508 C 0.47677 0.46068 0.69146 0.0
C509 C 0.43109 0.48619 0.70136 0.0
C510 C 0.40017 0.52052 0.68478 0.0
C511 C 0.41425 0.53054 0.6582 0.0
C512 C 0.45872 0.50556 0.64781 0.0
H513 H 0.52826 0.50978 0.74123 0.0
C514 C 0.5197 0.47556 0.75316 0.0
H515 H 0.49751 0.39565 0.75023 0.0
H516 H 0.61565 0.3783 0.63792 0.0
H517 H 0.66627 0.316 0.6669 0.0
H518 H 0.64575 0.30428 0.71538 0.0
H519 H 0.57431 0.35441 0.73514 0.0
C520 C 0.50681 0.43081 0.73939 0.0
C521 C 0.50996 0.42803 0.70887 0.0
C522 C 0.55106 0.39768 0.69761 0.0
C523 C 0.56342 0.40502 0.66981 0.0
C524 C 0.6053 0.37483 0.65909 0.0
C525 C 0.63446 0.33882 0.67545 0.0
C526 C 0.62286 0.33218 0.70274 0.0
C527 C 0.58179 0.36126 0.71383 0.0
H528 H 0.60042 0.446 0.42854 0.0
C529 C 0.55751 0.45547 0.42722 0.0
H530 H 0.48623 0.464 0.40102 0.0
H531 H 0.65074 0.51077 0.30596 0.0
H532 H 0.68791 0.58175 0.33524 0.0
H533 H 0.66262 0.59199 0.38324 0.0
H534 H 0.60145 0.53117 0.40241 0.0
C535 C 0.52942 0.45545 0.40248 0.0
C536 C 0.55421 0.4448 0.37602 0.0
C537 C 0.58951 0.48175 0.36522 0.0
C538 C 0.60211 0.47746 0.33719 0.0
C539 C 0.63848 0.51367 0.32688 0.0
C540 C 0.66027 0.55429 0.34348 0.0
C541 C 0.64616 0.55994 0.37052 0.0
C542 C 0.61105 0.52441 0.38134 0.0
H543 H 0.53579 0.51486 0.2901 0.0
C544 C 0.55194 0.48461 0.27703 0.0
H545 H 0.59358 0.41214 0.2772 0.0
H546 H 0.49473 0.36231 0.39191 0.0
H547 H 0.45998 0.29031 0.36264 0.0
H548 H 0.4787 0.2853 0.31345 0.0
H549 H 0.53252 0.35196 0.29324 0.0
C550 C 0.57632 0.44314 0.28923 0.0
C551 C 0.57717 0.43824 0.31976 0.0
C552 C 0.54667 0.39842 0.33124 0.0
C553 C 0.5353 0.40167 0.35947 0.0
C554 C 0.50382 0.36197 0.37043 0.0
C555 C 0.48386 0.32042 0.35391 0.0
C556 C 0.49444 0.31758 0.32621 0.0
C557 C 0.52531 0.35612 0.31486 0.0
loop_
_geom_bond_atom_site_label_1
_geom_bond_atom_site_label_2
_geom_bond_distance
_geom_bond_site_symmetry_2
_ccdc_geom_bond_type
Zn0 O6 1.902 1_546 S
Zn0 O12 1.898 . S
Zn0 O15 1.905 1_545 S
Zn1 O9 1.905 . S
Zn1 O10 1.898 1_545 S
Zn1 O18 1.920 1_545 S
Zn2 O5 2.080 1_445 S
Zn2 O8 2.114 . S
Zn2 O11 2.120 1_545 S
Zn2 O13 2.120 1_455 S
Zn2 O14 2.114 1_554 S
Zn2 O17 2.080 . S
C3 O8 1.166 . S
C3 O9 1.182 . S
C4 O10 1.167 . S
C4 O11 1.299 . S
O5 Zn2 2.080 1_665 S
O5 C19 1.305 . S
O6 Zn0 1.902 1_564 S
O6 C19 1.248 . S
C7 O12 1.164 . S
C7 O13 1.301 1_556 S
O8 Zn2 2.114 . S
O8 C3 1.166 . S
O9 Zn1 1.905 . S
O9 C3 1.182 . S
O10 Zn1 1.898 1_565 S
O10 C4 1.167 . S
O11 Zn2 2.120 1_565 S
O11 C4 1.299 . S
O12 Zn0 1.898 . S
O12 C7 1.164 . S
O13 Zn2 2.120 1_655 S
O13 C7 1.301 1_554 S
O14 Zn2 2.114 1_556 S
O14 C16 1.166 1_545 S
O15 Zn0 1.905 1_565 S
O15 C16 1.182 1_655 S
C16 O14 1.166 1_565 S
C16 O15 1.182 1_455 S
O17 Zn2 2.080 . S
O17 C20 1.305 1_545 S
O18 Zn1 1.920 1_565 S
O18 C20 1.234 . S
C19 O5 1.305 . S
C19 O6 1.248 . S
C20 O17 1.305 1_565 S
C20 O18 1.234 . S
Zn21 O27 1.920 . S
Zn21 O33 1.898 . S
Zn21 O36 1.905 . S
Zn22 O30 1.905 . S
Zn22 O31 1.898 . S
Zn22 O39 1.920 . S
Zn23 O26 2.080 . S
Zn23 O29 2.114 . S
Zn23 O32 2.120 . S
Zn23 O34 2.120 . S
Zn23 O35 2.114 . S
Zn23 O38 2.080 . S
C24 O29 1.166 . S
C24 O30 1.182 . S
C25 O31 1.167 . S
C25 O32 1.299 . S
O26 Zn23 2.080 . S
O26 C40 1.305 . S
O27 Zn21 1.920 . S
O27 C40 1.234 . S
C28 O33 1.167 . S
C28 O34 1.299 . S
O29 Zn23 2.114 . S
O29 C24 1.166 . S
O30 Zn22 1.905 . S
O30 C24 1.182 . S
O31 Zn22 1.898 . S
O31 C25 1.167 . S
O32 Zn23 2.120 . S
O32 C25 1.299 . S
O33 Zn21 1.898 . S
O33 C28 1.167 . S
O34 Zn23 2.120 . S
O34 C28 1.299 . S
O35 Zn23 2.114 . S
O35 C37 1.166 . S
O36 Zn21 1.905 . S
O36 C37 1.182 . S
C37 O35 1.166 . S
C37 O36 1.182 . S
O38 Zn23 2.080 . S
O38 C41 1.305 . S
O39 Zn22 1.920 . S
O39 C41 1.234 . S
C40 O26 1.305 . S
C40 O27 1.234 . S
C41 O38 1.305 . S
C41 O39 1.234 . S
C42 C43 1.386 1_565 S
C42 C44 1.397 . S
C42 H66 0.931 . S
C43 C42 1.386 1_545 S
C43 C47 1.397 . S
C44 C42 1.397 . S
C44 C45 1.384 1_565 S
C44 H67 0.930 . S
C45 C44 1.384 1_545 S
C45 C46 1.377 . S
C45 C48 1.481 . S
C46 C45 1.377 . S
C46 C47 1.389 . S
C46 H68 0.929 . S
C47 C43 1.397 . S
C47 C46 1.389 . S
C47 H69 0.931 . S
C48 C45 1.481 . S
C48 C49 1.387 1_545 S
C48 C53 1.390 . S
C49 C48 1.387 1_565 S
C49 C50 1.401 . S
C49 H70 0.930 . S
C50 C49 1.401 . S
C50 C51 1.376 1_565 S
C50 C59 1.511 . S
C51 C50 1.376 1_545 S
C51 C52 1.392 . S
C51 H72 0.931 . S
C52 C51 1.392 . S
C52 C53 1.361 . S
C52 C54 1.500 . S
C53 C48 1.390 . S
C53 C52 1.361 . S
C53 H71 0.931 . S
C54 C52 1.500 . S
C54 C55 1.371 1_455 S
C54 C56 1.365 1_455 S
C55 C54 1.371 1_655 S
C55 C65 1.386 . S
C55 H73 0.931 . S
C56 C54 1.365 1_655 S
C56 C57 1.409 . S
C56 H74 0.929 1_655 S
C57 C56 1.409 . S
C57 C58 1.380 . S
C57 H75 0.930 . S
C58 C57 1.380 . S
C58 C65 1.357 . S
C59 C50 1.511 . S
C59 C60 1.341 . S
C59 C61 1.371 . S
C60 C59 1.341 . S
C60 C64 1.394 . S
C60 H76 0.930 . S
C61 C59 1.371 . S
C61 C62 1.392 . S
C61 H77 0.931 . S
C62 C61 1.392 . S
C62 C63 1.331 . S
C62 H80 0.932 . S
C63 C62 1.331 . S
C63 C64 1.336 . S
C64 C60 1.394 . S
C64 C63 1.336 . S
C64 H79 0.929 . S
C65 C55 1.386 . S
C65 C58 1.357 . S
C65 H78 0.928 . S
H66 C42 0.931 . S
H67 C44 0.930 . S
H68 C46 0.929 . S
H69 C47 0.931 . S
H70 C49 0.930 . S
H71 C53 0.931 . S
H72 C51 0.931 . S
H73 C55 0.931 . S
H74 C56 0.929 1_455 S
H75 C57 0.930 . S
H76 C60 0.930 . S
H77 C61 0.931 . S
H78 C65 0.928 . S
H79 C64 0.929 . S
H80 C62 0.932 . S
C81 C82 1.386 . S
C81 C83 1.397 . S
C81 H105 0.931 . S
C82 C81 1.386 . S
C82 C86 1.397 1_545 S
C83 C81 1.397 . S
C83 C84 1.384 . S
C83 H106 0.930 . S
C84 C83 1.384 . S
C84 C85 1.377 1_545 S
C84 C87 1.481 . S
C85 C84 1.377 1_565 S
C85 C86 1.389 . S
C85 H107 0.929 . S
C86 C82 1.397 1_565 S
C86 C85 1.389 . S
C86 H108 0.931 . S
C87 C84 1.481 . S
C87 C88 1.387 . S
C87 C92 1.390 1_445 S
C88 C87 1.387 . S
C88 C89 1.401 . S
C88 H109 0.930 . S
C89 C88 1.401 . S
C89 C90 1.376 1_455 S
C89 C98 1.511 . S
C90 C89 1.376 1_655 S
C90 C91 1.392 1_545 S
C90 H111 0.931 . S
C91 C90 1.392 1_565 S
C91 C92 1.361 . S
C91 C93 1.500 . S
C92 C87 1.390 1_665 S
C92 C91 1.361 . S
C92 H110 0.931 . S
C93 C91 1.500 . S
C93 C94 1.371 . S
C93 C95 1.365 . S
C94 C93 1.371 . S
C94 C104 1.386 . S
C94 H112 0.931 . S
C95 C93 1.365 . S
C95 C96 1.409 . S
C95 H113 0.929 . S
C96 C95 1.409 . S
C96 C97 1.380 . S
C96 H114 0.930 . S
C97 C96 1.380 . S
C97 C104 1.357 . S
C98 C89 1.511 . S
C98 C99 1.341 . S
C98 C100 1.371 . S
C99 C98 1.341 . S
C99 C103 1.394 . S
C99 H115 0.930 . S
C100 C98 1.371 . S
C100 C101 1.392 . S
C100 H116 0.931 . S
C101 C100 1.392 . S
C101 C102 1.331 . S
C101 H119 0.932 . S
C102 C101 1.331 . S
C102 C103 1.336 . S
C103 C99 1.394 . S
C103 C102 1.336 . S
C103 H118 0.929 . S
C104 C94 1.386 . S
C104 C97 1.357 . S
C104 H117 0.928 . S
H105 C81 0.931 . S
H106 C83 0.930 . S
H107 C85 0.929 . S
H108 C86 0.931 . S
H109 C88 0.930 . S
H110 C92 0.931 . S
H111 C90 0.931 . S
H112 C94 0.931 . S
H113 C95 0.929 . S
H114 C96 0.930 . S
H115 C99 0.930 . S
H116 C100 0.931 . S
H117 C104 0.928 . S
H118 C103 0.929 . S
H119 C101 0.932 . S
C120 C121 1.386 . S
C120 C122 1.397 . S
C120 H144 0.931 . S
C121 C120 1.386 . S
C121 C125 1.397 . S
C122 C120 1.397 . S
C122 C123 1.384 . S
C122 H145 0.930 . S
C123 C122 1.384 . S
C123 C124 1.377 . S
C123 C126 1.481 . S
C124 C123 1.377 . S
C124 C125 1.389 . S
C124 H146 0.929 . S
C125 C121 1.397 . S
C125 C124 1.389 . S
C125 H147 0.931 . S
C126 C123 1.481 . S
C126 C127 1.387 . S
C126 C131 1.390 . S
C127 C126 1.387 . S
C127 C128 1.401 . S
C127 H148 0.930 . S
C128 C127 1.401 . S
C128 C129 1.376 . S
C128 C137 1.511 . S
C129 C128 1.376 . S
C129 C130 1.392 . S
C129 H150 0.931 . S
C130 C129 1.392 . S
C130 C131 1.361 . S
C130 C132 1.500 . S
C131 C126 1.390 . S
C131 C130 1.361 . S
C131 H149 0.931 . S
C132 C130 1.500 . S
C132 C133 1.371 . S
C132 C134 1.365 . S
C133 C132 1.371 . S
C133 C143 1.386 . S
C133 H151 0.931 . S
C134 C132 1.365 . S
C134 C135 1.409 . S
C134 H152 0.929 . S
C135 C134 1.409 . S
C135 C136 1.380 . S
C135 H153 0.930 . S
C136 C135 1.380 . S
C136 C143 1.357 . S
C137 C128 1.511 . S
C137 C138 1.341 . S
C137 C139 1.371 . S
C138 C137 1.341 . S
C138 C142 1.394 . S
C138 H154 0.930 . S
C139 C137 1.371 . S
C139 C140 1.392 . S
C139 H155 0.931 . S
C140 C139 1.392 . S
C140 C141 1.331 . S
C140 H158 0.932 . S
C141 C140 1.331 . S
C141 C142 1.336 . S
C142 C138 1.394 . S
C142 C141 1.336 . S
C142 H157 0.929 . S
C143 C133 1.386 . S
C143 C136 1.357 . S
C143 H156 0.928 . S
H144 C120 0.931 . S
H145 C122 0.930 . S
H146 C124 0.929 . S
H147 C125 0.931 . S
H148 C127 0.930 . S
H149 C131 0.931 . S
H150 C129 0.931 . S
H151 C133 0.931 . S
H152 C134 0.929 . S
H153 C135 0.930 . S
H154 C138 0.930 . S
H155 C139 0.931 . S
H156 C143 0.928 . S
H157 C142 0.929 . S
H158 C140 0.932 . S
C159 C160 1.386 . S
C159 C161 1.397 . S
C159 H183 0.931 . S
C160 C159 1.386 . S
C160 C164 1.397 . S
C161 C159 1.397 . S
C161 C162 1.384 . S
C161 H184 0.930 . S
C162 C161 1.384 . S
C162 C163 1.377 . S
C162 C165 1.481 . S
C163 C162 1.377 . S
C163 C164 1.389 . S
C163 H185 0.929 . S
C164 C160 1.397 . S
C164 C163 1.389 . S
C164 H186 0.931 . S
C165 C162 1.481 . S
C165 C166 1.387 . S
C165 C170 1.390 . S
C166 C165 1.387 . S
C166 C167 1.401 . S
C166 H187 0.930 . S
C167 C166 1.401 . S
C167 C168 1.376 . S
C167 C176 1.511 . S
C168 C167 1.376 . S
C168 C169 1.392 . S
C168 H189 0.931 . S
C169 C168 1.392 . S
C169 C170 1.361 . S
C169 C171 1.500 . S
C170 C165 1.390 . S
C170 C169 1.361 . S
C170 H188 0.931 . S
C171 C169 1.500 . S
C171 C172 1.371 . S
C171 C173 1.365 . S
C172 C171 1.371 . S
C172 C182 1.386 . S
C172 H190 0.931 . S
C173 C171 1.365 . S
C173 C174 1.409 . S
C173 H191 0.929 . S
C174 C173 1.409 . S
C174 C175 1.380 . S
C174 H192 0.930 . S
C175 C174 1.380 . S
C175 C182 1.357 . S
C176 C167 1.511 . S
C176 C177 1.341 . S
C176 C178 1.371 . S
C177 C176 1.341 . S
C177 C181 1.394 . S
C177 H193 0.930 . S
C178 C176 1.371 . S
C178 C179 1.392 . S
C178 H194 0.931 . S
C179 C178 1.392 . S
C179 C180 1.331 . S
C179 H197 0.932 . S
C180 C179 1.331 . S
C180 C181 1.336 . S
C181 C177 1.394 . S
C181 C180 1.336 . S
C181 H196 0.929 . S
C182 C172 1.386 . S
C182 C175 1.357 . S
C182 H195 0.928 . S
H183 C159 0.931 . S
H184 C161 0.930 . S
H185 C163 0.929 . S
H186 C164 0.931 . S
H187 C166 0.930 . S
H188 C170 0.931 . S
H189 C168 0.931 . S
H190 C172 0.931 . S
H191 C173 0.929 . S
H192 C174 0.930 . S
H193 C177 0.930 . S
H194 C178 0.931 . S
H195 C182 0.928 . S
H196 C181 0.929 . S
H197 C179 0.932 . S
H198 C199 0.951 . S
C199 H198 0.951 . S
C199 C205 1.265 . S
H200 C205 0.950 . S
H201 C209 0.949 . S
H202 C210 0.950 . S
H203 C211 0.951 . S
H204 C212 0.951 . S
C205 C199 1.265 . S
C205 H200 0.950 . S
C205 C206 1.478 . S
C206 C205 1.478 . S
C206 C207 1.397 . S
C206 C223 1.394 . S
C207 C206 1.397 . S
C207 C208 1.438 . S
C207 C212 1.429 1_554 S
C208 C207 1.438 . S
C208 C209 1.428 . S
C208 C221 1.394 . S
C209 H201 0.949 . S
C209 C208 1.428 . S
C209 C210 1.345 1_554 S
C210 H202 0.950 . S
C210 C209 1.345 1_556 S
C210 C211 1.424 . S
C211 H203 0.951 . S
C211 C210 1.424 . S
C211 C212 1.347 . S
C212 H204 0.951 . S
C212 C207 1.429 1_556 S
C212 C211 1.347 . S
H213 C214 0.951 . S
C214 H213 0.951 . S
C214 C220 1.265 . S
H215 C220 0.950 . S
H216 C224 0.949 . S
H217 C225 0.950 . S
H218 C226 0.951 . S
H219 C227 0.951 . S
C220 C214 1.265 . S
C220 H215 0.950 . S
C220 C221 1.478 . S
C221 C208 1.394 . S
C221 C220 1.478 . S
C221 C222 1.397 . S
C222 C221 1.397 . S
C222 C223 1.438 . S
C222 C227 1.429 . S
C223 C206 1.394 . S
C223 C222 1.438 . S
C223 C224 1.428 . S
C224 H216 0.949 . S
C224 C223 1.428 . S
C224 C225 1.345 . S
C225 H217 0.950 . S
C225 C224 1.345 . S
C225 C226 1.424 . S
C226 H218 0.951 . S
C226 C225 1.424 . S
C226 C227 1.347 . S
C227 H219 0.951 . S
C227 C222 1.429 . S
C227 C226 1.347 . S
H228 C229 0.957 . S
C229 H228 0.957 . S
C229 C235 1.258 1_554 S
H230 C235 0.950 . S
H231 C239 0.949 . S
H232 C240 0.950 . S
H233 C241 0.951 . S
H234 C242 0.951 . S
C235 C229 1.258 1_556 S
C235 H230 0.950 . S
C235 C236 1.478 . S
C236 C235 1.478 . S
C236 C237 1.397 . S
C236 C253 1.394 1_556 S
C237 C236 1.397 . S
C237 C238 1.438 . S
C237 C242 1.429 . S
C238 C237 1.438 . S
C238 C239 1.428 . S
C238 C251 1.394 . S
C239 H231 0.949 . S
C239 C238 1.428 . S
C239 C240 1.345 . S
C240 H232 0.950 . S
C240 C239 1.345 . S
C240 C241 1.424 . S
C241 H233 0.951 . S
C241 C240 1.424 . S
C241 C242 1.347 . S
C242 H234 0.951 . S
C242 C237 1.429 . S
C242 C241 1.347 . S
H243 C244 0.951 . S
C244 H243 0.951 . S
C244 C250 1.265 . S
H245 C250 0.950 . S
H246 C254 0.949 . S
H247 C255 0.950 . S
H248 C256 0.951 . S
H249 C257 0.951 . S
C250 C244 1.265 . S
C250 H245 0.950 . S
C250 C251 1.478 . S
C251 C238 1.394 . S
C251 C250 1.478 . S
C251 C252 1.397 1_556 S
C252 C251 1.397 1_554 S
C252 C253 1.438 . S
C252 C257 1.429 . S
C253 C236 1.394 1_554 S
C253 C252 1.438 . S
C253 C254 1.428 . S
C254 H246 0.949 . S
C254 C253 1.428 . S
C254 C255 1.345 . S
C255 H247 0.950 . S
C255 C254 1.345 . S
C255 C256 1.424 . S
C256 H248 0.951 . S
C256 C255 1.424 . S
C256 C257 1.347 . S
C257 H249 0.951 . S
C257 C252 1.429 . S
C257 C256 1.347 . S
H258 C259 0.951 . S
C259 H258 0.951 . S
C259 C265 1.265 . S
H260 C265 0.950 . S
H261 C269 0.949 . S
H262 C270 0.950 . S
H263 C271 0.951 . S
H264 C272 0.951 . S
C265 C259 1.265 . S
C265 H260 0.950 . S
C265 C266 1.478 . S
C266 C265 1.478 . S
C266 C267 1.397 . S
C266 C283 1.394 . S
C267 C266 1.397 . S
C267 C268 1.438 . S
C267 C272 1.429 1_554 S
C268 C267 1.438 . S
C268 C269 1.428 . S
C268 C281 1.394 . S
C269 H261 0.949 . S
C269 C268 1.428 . S
C269 C270 1.345 1_554 S
C270 H262 0.950 . S
C270 C269 1.345 1_556 S
C270 C271 1.424 . S
C271 H263 0.951 . S
C271 C270 1.424 . S
C271 C272 1.347 . S
C272 H264 0.951 . S
C272 C267 1.429 1_556 S
C272 C271 1.347 . S
H273 C274 0.951 . S
C274 H273 0.951 . S
C274 C280 1.265 . S
H275 C280 0.950 . S
H276 C284 0.949 . S
H277 C285 0.950 . S
H278 C286 0.951 . S
H279 C287 0.951 . S
C280 C274 1.265 . S
C280 H275 0.950 . S
C280 C281 1.478 . S
C281 C268 1.394 . S
C281 C280 1.478 . S
C281 C282 1.397 . S
C282 C281 1.397 . S
C282 C283 1.438 . S
C282 C287 1.429 . S
C283 C266 1.394 . S
C283 C282 1.438 . S
C283 C284 1.428 . S
C284 H276 0.949 . S
C284 C283 1.428 . S
C284 C285 1.345 . S
C285 H277 0.950 . S
C285 C284 1.345 . S
C285 C286 1.424 . S
C286 H278 0.951 . S
C286 C285 1.424 . S
C286 C287 1.347 . S
C287 H279 0.951 . S
C287 C282 1.429 . S
C287 C286 1.347 . S
H288 C289 0.951 1_556 S
C289 H288 0.951 1_554 S
C289 C295 1.265 . S
H290 C295 0.950 . S
H291 C299 0.949 . S
H292 C300 0.950 . S
H293 C301 0.951 . S
H294 C302 0.951 . S
C295 C289 1.265 . S
C295 H290 0.950 . S
C295 C296 1.478 1_554 S
C296 C295 1.478 1_556 S
C296 C297 1.397 . S
C296 C313 1.394 1_556 S
C297 C296 1.397 . S
C297 C298 1.438 . S
C297 C302 1.429 . S
C298 C297 1.438 . S
C298 C299 1.428 . S
C298 C311 1.394 . S
C299 H291 0.949 . S
C299 C298 1.428 . S
C299 C300 1.345 . S
C300 H292 0.950 . S
C300 C299 1.345 . S
C300 C301 1.424 . S
C301 H293 0.951 . S
C301 C300 1.424 . S
C301 C302 1.347 . S
C302 H294 0.951 . S
C302 C297 1.429 . S
C302 C301 1.347 . S
H303 C304 0.951 . S
C304 H303 0.951 . S
C304 C310 1.265 . S
H305 C310 0.950 . S
H306 C314 0.949 . S
H307 C315 0.950 . S
H308 C316 0.951 . S
H309 C317 0.951 . S
C310 C304 1.265 . S
C310 H305 0.950 . S
C310 C311 1.478 . S
C311 C298 1.394 . S
C311 C310 1.478 . S
C311 C312 1.397 1_556 S
C312 C311 1.397 1_554 S
C312 C313 1.438 . S
C312 C317 1.429 . S
C313 C296 1.394 1_554 S
C313 C312 1.438 . S
C313 C314 1.428 . S
C314 H306 0.949 . S
C314 C313 1.428 . S
C314 C315 1.345 . S
C315 H307 0.950 . S
C315 C314 1.345 . S
C315 C316 1.424 . S
C316 H308 0.951 . S
C316 C315 1.424 . S
C316 C317 1.347 . S
C317 H309 0.951 . S
C317 C312 1.429 . S
C317 C316 1.347 . S
H318 C319 0.951 . S
C319 H318 0.951 . S
C319 C325 1.265 . S
H320 C325 0.950 . S
H321 C329 0.949 . S
H322 C330 0.950 . S
H323 C331 0.951 . S
H324 C332 0.951 . S
C325 C319 1.265 . S
C325 H320 0.950 . S
C325 C326 1.478 . S
C326 C325 1.478 . S
C326 C327 1.397 . S
C326 C343 1.394 . S
C327 C326 1.397 . S
C327 C328 1.438 . S
C327 C332 1.429 . S
C328 C327 1.438 . S
C328 C329 1.428 . S
C328 C341 1.394 . S
C329 H321 0.949 . S
C329 C328 1.428 . S
C329 C330 1.345 . S
C330 H322 0.950 . S
C330 C329 1.345 . S
C330 C331 1.424 . S
C331 H323 0.951 . S
C331 C330 1.424 . S
C331 C332 1.347 . S
C332 H324 0.951 . S
C332 C327 1.429 . S
C332 C331 1.347 . S
H333 C334 0.951 . S
C334 H333 0.951 . S
C334 C340 1.265 . S
H335 C340 0.950 . S
H336 C344 0.949 . S
H337 C345 0.950 . S
H338 C346 0.951 . S
H339 C347 0.951 . S
C340 C334 1.265 . S
C340 H335 0.950 . S
C340 C341 1.478 . S
C341 C328 1.394 . S
C341 C340 1.478 . S
C341 C342 1.397 . S
C342 C341 1.397 . S
C342 C343 1.438 . S
C342 C347 1.429 . S
C343 C326 1.394 . S
C343 C342 1.438 . S
C343 C344 1.428 . S
C344 H336 0.949 . S
C344 C343 1.428 . S
C344 C345 1.345 . S
C345 H337 0.950 . S
C345 C344 1.345 . S
C345 C346 1.424 . S
C346 H338 0.951 . S
C346 C345 1.424 . S
C346 C347 1.347 . S
C347 H339 0.951 . S
C347 C342 1.429 . S
C347 C346 1.347 . S
H348 C349 0.951 . S
C349 H348 0.951 . S
C349 C355 1.265 . S
H350 C355 0.950 . S
H351 C359 0.949 . S
H352 C360 0.950 . S
H353 C361 0.951 . S
H354 C362 0.951 . S
C355 C349 1.265 . S
C355 H350 0.950 . S
C355 C356 1.478 . S
C356 C355 1.478 . S
C356 C357 1.397 . S
C356 C373 1.394 . S
C357 C356 1.397 . S
C357 C358 1.438 . S
C357 C362 1.429 . S
C358 C357 1.438 . S
C358 C359 1.428 . S
C358 C371 1.394 . S
C359 H351 0.949 . S
C359 C358 1.428 . S
C359 C360 1.345 . S
C360 H352 0.950 . S
C360 C359 1.345 . S
C360 C361 1.424 . S
C361 H353 0.951 . S
C361 C360 1.424 . S
C361 C362 1.347 . S
C362 H354 0.951 . S
C362 C357 1.429 . S
C362 C361 1.347 . S
H363 C364 0.951 . S
C364 H363 0.951 . S
C364 C370 1.265 . S
H365 C370 0.950 . S
H366 C374 0.949 . S
H367 C375 0.950 . S
H368 C376 0.951 . S
H369 C377 0.951 . S
C370 C364 1.265 . S
C370 H365 0.950 . S
C370 C371 1.478 . S
C371 C358 1.394 . S
C371 C370 1.478 . S
C371 C372 1.397 . S
C372 C371 1.397 . S
C372 C373 1.438 . S
C372 C377 1.429 . S
C373 C356 1.394 . S
C373 C372 1.438 . S
C373 C374 1.428 . S
C374 H366 0.949 . S
C374 C373 1.428 . S
C374 C375 1.345 . S
C375 H367 0.950 . S
C375 C374 1.345 . S
C375 C376 1.424 . S
C376 H368 0.951 . S
C376 C375 1.424 . S
C376 C377 1.347 . S
C377 H369 0.951 . S
C377 C372 1.429 . S
C377 C376 1.347 . S
H378 C379 0.951 . S
C379 H378 0.951 . S
C379 C385 1.265 . S
H380 C385 0.950 . S
H381 C389 0.949 . S
H382 C390 0.950 . S
H383 C391 0.951 . S
H384 C392 0.951 . S
C385 C379 1.265 . S
C385 H380 0.950 . S
C385 C386 1.478 . S
C386 C385 1.478 . S
C386 C387 1.397 . S
C386 C403 1.394 . S
C387 C386 1.397 . S
C387 C388 1.438 . S
C387 C392 1.429 . S
C388 C387 1.438 . S
C388 C389 1.428 . S
C388 C401 1.394 . S
C389 H381 0.949 . S
C389 C388 1.428 . S
C389 C390 1.345 . S
C390 H382 0.950 . S
C390 C389 1.345 . S
C390 C391 1.424 . S
C391 H383 0.951 . S
C391 C390 1.424 . S
C391 C392 1.347 . S
C392 H384 0.951 . S
C392 C387 1.429 . S
C392 C391 1.347 . S
H393 C394 0.951 . S
C394 H393 0.951 . S
C394 C400 1.265 . S
H395 C400 0.950 . S
H396 C404 0.949 . S
H397 C405 0.950 . S
H398 C406 0.951 . S
H399 C407 0.951 . S
C400 C394 1.265 . S
C400 H395 0.950 . S
C400 C401 1.478 . S
C401 C388 1.394 . S
C401 C400 1.478 . S
C401 C402 1.397 . S
C402 C401 1.397 . S
C402 C403 1.438 . S
C402 C407 1.429 . S
C403 C386 1.394 . S
C403 C402 1.438 . S
C403 C404 1.428 . S
C404 H396 0.949 . S
C404 C403 1.428 . S
C404 C405 1.345 . S
C405 H397 0.950 . S
C405 C404 1.345 . S
C405 C406 1.424 . S
C406 H398 0.951 . S
C406 C405 1.424 . S
C406 C407 1.347 . S
C407 H399 0.951 . S
C407 C402 1.429 . S
C407 C406 1.347 . S
H408 C409 0.951 . S
C409 H408 0.951 . S
C409 C415 1.265 . S
H410 C415 0.950 . S
H411 C419 0.949 . S
H412 C420 0.950 . S
H413 C421 0.951 . S
H414 C422 0.951 . S
C415 C409 1.265 . S
C415 H410 0.950 . S
C415 C416 1.478 . S
C416 C415 1.478 . S
C416 C417 1.397 . S
C416 C433 1.394 . S
C417 C416 1.397 . S
C417 C418 1.438 . S
C417 C422 1.429 . S
C418 C417 1.438 . S
C418 C419 1.428 . S
C418 C431 1.394 . S
C419 H411 0.949 . S
C419 C418 1.428 . S
C419 C420 1.345 . S
C420 H412 0.950 . S
C420 C419 1.345 . S
C420 C421 1.424 . S
C421 H413 0.951 . S
C421 C420 1.424 . S
C421 C422 1.347 . S
C422 H414 0.951 . S
C422 C417 1.429 . S
C422 C421 1.347 . S
H423 C424 0.951 . S
C424 H423 0.951 . S
C424 C430 1.265 . S
H425 C430 0.950 . S
H426 C434 0.949 . S
H427 C435 0.950 . S
H428 C436 0.951 . S
H429 C437 0.951 . S
C430 C424 1.265 . S
C430 H425 0.950 . S
C430 C431 1.478 . S
C431 C418 1.394 . S
C431 C430 1.478 . S
C431 C432 1.397 . S
C432 C431 1.397 . S
C432 C433 1.438 . S
C432 C437 1.429 . S
C433 C416 1.394 . S
C433 C432 1.438 . S
C433 C434 1.428 . S
C434 H426 0.949 . S
C434 C433 1.428 . S
C434 C435 1.345 . S
C435 H427 0.950 . S
C435 C434 1.345 . S
C435 C436 1.424 . S
C436 H428 0.951 . S
C436 C435 1.424 . S
C436 C437 1.347 . S
C437 H429 0.951 . S
C437 C432 1.429 . S
C437 C436 1.347 . S
H438 C439 0.951 1_655 S
C439 H438 0.951 1_455 S
C439 C445 1.265 . S
H440 C445 0.950 . S
H441 C449 0.949 . S
H442 C450 0.950 . S
H443 C451 0.951 . S
H444 C452 0.951 . S
C445 C439 1.265 . S
C445 H440 0.950 . S
C445 C446 1.478 1_565 S
C446 C445 1.478 1_545 S
C446 C447 1.397 . S
C446 C463 1.394 1_545 S
C447 C446 1.397 . S
C447 C448 1.438 . S
C447 C452 1.429 . S
C448 C447 1.438 . S
C448 C449 1.428 . S
C448 C461 1.394 . S
C449 H441 0.949 . S
C449 C448 1.428 . S
C449 C450 1.345 . S
C450 H442 0.950 . S
C450 C449 1.345 . S
C450 C451 1.424 . S
C451 H443 0.951 . S
C451 C450 1.424 . S
C451 C452 1.347 . S
C452 H444 0.951 . S
C452 C447 1.429 . S
C452 C451 1.347 . S
H453 C454 0.951 . S
C454 H453 0.951 . S
C454 C460 1.265 . S
H455 C460 0.964 . S
H456 C464 0.949 . S
H457 C465 0.950 . S
H458 C466 0.951 . S
H459 C467 0.951 . S
C460 C454 1.265 . S
C460 H455 0.964 . S
C460 C461 1.478 . S
C461 C448 1.394 . S
C461 C460 1.478 . S
C461 C462 1.397 1_545 S
C462 C461 1.397 1_565 S
C462 C463 1.438 . S
C462 C467 1.429 . S
C463 C446 1.394 1_565 S
C463 C462 1.438 . S
C463 C464 1.428 . S
C464 H456 0.949 . S
C464 C463 1.428 . S
C464 C465 1.345 1_455 S
C465 H457 0.950 . S
C465 C464 1.345 1_655 S
C465 C466 1.424 . S
C466 H458 0.951 . S
C466 C465 1.424 . S
C466 C467 1.347 1_655 S
C467 H459 0.951 . S
C467 C462 1.429 . S
C467 C466 1.347 1_455 S
H468 C469 0.951 . S
C469 H468 0.951 . S
C469 C475 1.265 1_455 S
H470 C475 0.950 1_545 S
H471 C479 0.949 1_455 S
H472 C480 0.950 . S
H473 C481 0.951 . S
H474 C482 0.951 . S
C475 C469 1.265 1_655 S
C475 H470 0.950 1_565 S
C475 C476 1.478 1_665 S
C476 C475 1.478 1_445 S
C476 C477 1.394 1_455 S
C476 C493 1.394 1_545 S
C477 C476 1.394 1_655 S
C477 C478 1.434 1_655 S
C477 C482 1.436 . S
C478 C477 1.434 1_455 S
C478 C479 1.428 1_455 S
C478 C491 1.394 . S
C479 H471 0.949 1_655 S
C479 C478 1.428 1_655 S
C479 C480 1.345 . S
C480 H472 0.950 . S
C480 C479 1.345 . S
C480 C481 1.424 . S
C481 H473 0.951 . S
C481 C480 1.424 . S
C481 C482 1.347 . S
C482 H474 0.951 . S
C482 C477 1.436 . S
C482 C481 1.347 . S
H483 C484 0.958 . S
C484 H483 0.958 . S
C484 C490 1.260 1_655 S
H485 C490 0.950 . S
H486 C494 0.949 . S
H487 C495 0.950 . S
H488 C496 0.951 . S
H489 C497 0.951 . S
C490 C484 1.260 1_455 S
C490 H485 0.950 . S
C490 C491 1.478 . S
C491 C478 1.394 . S
C491 C490 1.478 . S
C491 C492 1.397 1_545 S
C492 C491 1.397 1_565 S
C492 C493 1.438 . S
C492 C497 1.429 . S
C493 C476 1.394 1_565 S
C493 C492 1.438 . S
C493 C494 1.428 . S
C494 H486 0.949 . S
C494 C493 1.428 . S
C494 C495 1.345 . S
C495 H487 0.950 . S
C495 C494 1.345 . S
C495 C496 1.424 . S
C496 H488 0.951 . S
C496 C495 1.424 . S
C496 C497 1.347 . S
C497 H489 0.951 . S
C497 C492 1.429 . S
C497 C496 1.347 . S
H498 C499 0.951 . S
C499 H498 0.951 . S
C499 C505 1.265 . S
H500 C505 0.950 . S
H501 C509 0.949 . S
H502 C510 0.950 . S
H503 C511 0.951 . S
H504 C512 0.951 . S
C505 C499 1.265 . S
C505 H500 0.950 . S
C505 C506 1.478 . S
C506 C505 1.478 . S
C506 C507 1.397 . S
C506 C523 1.394 . S
C507 C506 1.397 . S
C507 C508 1.438 . S
C507 C512 1.429 . S
C508 C507 1.438 . S
C508 C509 1.428 . S
C508 C521 1.394 . S
C509 H501 0.949 . S
C509 C508 1.428 . S
C509 C510 1.345 . S
C510 H502 0.950 . S
C510 C509 1.345 . S
C510 C511 1.424 . S
C511 H503 0.951 . S
C511 C510 1.424 . S
C511 C512 1.347 . S
C512 H504 0.951 . S
C512 C507 1.429 . S
C512 C511 1.347 . S
H513 C514 0.951 . S
C514 H513 0.951 . S
C514 C520 1.265 . S
H515 C520 0.950 . S
H516 C524 0.949 . S
H517 C525 0.950 . S
H518 C526 0.951 . S
H519 C527 0.951 . S
C520 C514 1.265 . S
C520 H515 0.950 . S
C520 C521 1.478 . S
C521 C508 1.394 . S
C521 C520 1.478 . S
C521 C522 1.397 . S
C522 C521 1.397 . S
C522 C523 1.438 . S
C522 C527 1.429 . S
C523 C506 1.394 . S
C523 C522 1.438 . S
C523 C524 1.428 . S
C524 H516 0.949 . S
C524 C523 1.428 . S
C524 C525 1.345 . S
C525 H517 0.950 . S
C525 C524 1.345 . S
C525 C526 1.424 . S
C526 H518 0.951 . S
C526 C525 1.424 . S
C526 C527 1.347 . S
C527 H519 0.951 . S
C527 C522 1.429 . S
C527 C526 1.347 . S
H528 C529 0.951 . S
C529 H528 0.951 . S
C529 C535 1.265 . S
H530 C535 0.950 . S
H531 C539 0.949 . S
H532 C540 0.950 . S
H533 C541 0.951 . S
H534 C542 0.951 . S
C535 C529 1.265 . S
C535 H530 0.950 . S
C535 C536 1.478 . S
C536 C535 1.478 . S
C536 C537 1.397 . S
C536 C553 1.394 . S
C537 C536 1.397 . S
C537 C538 1.438 . S
C537 C542 1.429 . S
C538 C537 1.438 . S
C538 C539 1.428 . S
C538 C551 1.394 . S
C539 H531 0.949 . S
C539 C538 1.428 . S
C539 C540 1.345 . S
C540 H532 0.950 . S
C540 C539 1.345 . S
C540 C541 1.424 . S
C541 H533 0.951 . S
C541 C540 1.424 . S
C541 C542 1.347 . S
C542 H534 0.951 . S
C542 C537 1.429 . S
C542 C541 1.347 . S
H543 C544 0.951 . S
C544 H543 0.951 . S
C544 C550 1.265 . S
H545 C550 0.950 . S
H546 C554 0.949 . S
H547 C555 0.950 . S
H548 C556 0.951 . S
H549 C557 0.951 . S
C550 C544 1.265 . S
C550 H545 0.950 . S
C550 C551 1.478 . S
C551 C538 1.394 . S
C551 C550 1.478 . S
C551 C552 1.397 . S
C552 C551 1.397 . S
C552 C553 1.438 . S
C552 C557 1.429 . S
C553 C536 1.394 . S
C553 C552 1.438 . S
C553 C554 1.428 . S
C554 H546 0.949 . S
C554 C553 1.428 . S
C554 C555 1.345 . S
C555 H547 0.950 . S
C555 C554 1.345 . S
C555 C556 1.424 . S
C556 H548 0.951 . S
C556 C555 1.424 . S
C556 C557 1.347 . S
C557 H549 0.951 . S
C557 C552 1.429 . S
C557 C556 1.347 . S
C214 C175 1.199 . S
C199 C3 1.197 . S
C229 C4 1.447 . S
C244 C136 1.588 . S
C259 C19 1.565 . S
C274 C180 1.627 . S
C289 C7 1.015 1_554 S
C304 C141 1.241 . S
C319 C37 1.154 . S
C334 C97 1.177 . S
C349 C28 1.556 . S
C364 C58 1.622 . S
C394 C102 1.637 . S
C379 C41 1.578 . S
C424 C63 1.224 . S
C409 C25 1.166 . S
C439 C20 1.360 . S
C454 C43 1.446 . S
C469 C16 1.409 . S
C484 C82 1.498 1_655 S
C514 C121 1.461 . S
C499 C40 1.322 . S
C529 C24 1.410 . S
C544 C160 1.500 . S
