# Generated by pormake.
# Topology anh, (6,3)-cn, num edge types: 1
# Building blocks:
#     Node 0, Type 0, BuildingBlock: NUHQIS_clean_sbu_0, # of connection points: 6
#     Node 1, Type 0, BuildingBlock: NUHQIS_clean_sbu_0, # of connection points: 6
#     Node 2, Type 0, BuildingBlock: NUHQIS_clean_sbu_0, # of connection points: 6
#     Node 3, Type 1, BuildingBlock: BETDAH_clean_linker_0, # of connection points: 3
#     Node 4, Type 1, BuildingBlock: BETDAH_clean_linker_0, # of connection points: 3
#     Node 5, Type 1, BuildingBlock: BETDAH_clean_linker_0, # of connection points: 3
#     Node 6, Type 1, BuildingBlock: BETDAH_clean_linker_0, # of connection points: 3
#     Node 7, Type 1, BuildingBlock: BETDAH_clean_linker_0, # of connection points: 3
#     Node 8, Type 1, BuildingBlock: BETDAH_clean_linker_0, # of connection points: 3
#     Edge 9, Type (0, 1), BuildingBlock: XIVTED_clean_linker_0, # of connection points: 2
#     Edge 10, Type (0, 1), BuildingBlock: XIVTED_clean_linker_0, # of connection points: 2
#     Edge 11, Type (0, 1), BuildingBlock: XIVTED_clean_linker_0, # of connection points: 2
#     Edge 12, Type (0, 1), BuildingBlock: XIVTED_clean_linker_0, # of connection points: 2
#     Edge 13, Type (0, 1), BuildingBlock: XIVTED_clean_linker_0, # of connection points: 2
#     Edge 14, Type (0, 1), BuildingBlock: XIVTED_clean_linker_0, # of connection points: 2
#     Edge 15, Type (0, 1), BuildingBlock: XIVTED_clean_linker_0, # of connection points: 2
#     Edge 16, Type (0, 1), BuildingBlock: XIVTED_clean_linker_0, # of connection points: 2
#     Edge 17, Type (0, 1), BuildingBlock: XIVTED_clean_linker_0, # of connection points: 2
#     Edge 18, Type (0, 1), BuildingBlock: XIVTED_clean_linker_0, # of connection points: 2
#     Edge 19, Type (0, 1), BuildingBlock: XIVTED_clean_linker_0, # of connection points: 2
#     Edge 20, Type (0, 1), BuildingBlock: XIVTED_clean_linker_0, # of connection points: 2
#     Edge 21, Type (0, 1), BuildingBlock: XIVTED_clean_linker_0, # of connection points: 2
#     Edge 22, Type (0, 1), BuildingBlock: XIVTED_clean_linker_0, # of connection points: 2
#     Edge 23, Type (0, 1), BuildingBlock: XIVTED_clean_linker_0, # of connection points: 2
#     Edge 24, Type (0, 1), BuildingBlock: XIVTED_clean_linker_0, # of connection points: 2
#     Edge 25, Type (0, 1), BuildingBlock: XIVTED_clean_linker_0, # of connection points: 2
#     Edge 26, Type (0, 1), BuildingBlock: XIVTED_clean_linker_0, # of connection points: 2
# Relax obj value: 0.239
# Max RMSD: 0.146
# Mean RMSD: 0.106
data_MOF--net-anh--node1-NUHQIS_clean_sbu_0--node2-BETDAH_clean_linker_0--edge1-XIVTED_clean_linker_0
_symmetry_space_group_name_H-M    P1
_symmetry_Int_Tables_number       1
_symmetry_cell_setting            triclinic
loop_
_symmetry_equiv_pos_as_xyz
'x, y, z'
_cell_length_a     30.546854
_cell_length_b     30.306726
_cell_length_c     49.850259
_cell_angle_alpha  89.918974
_cell_angle_beta   95.345645
_cell_angle_gamma 120.00994
loop_
_atom_site_label
_atom_site_type_symbol
_atom_site_fract_x
_atom_site_fract_y
_atom_site_fract_z
_atom_type_partial_charge
Tb0 Tb 0.21994 0.66029 0.1375 0.0
Eu1 Eu 0.15872 0.7181 0.15315 0.0
C2 C 0.21188 0.67901 0.19776 0.0
C3 C 1.10298 0.59634 0.14924 0.0
C4 C 0.2688 0.56879 0.13828 0.0
C5 C 0.26133 0.48619 0.13058 0.0
C6 C 0.2525 0.52494 0.1217 0.0
C7 C 0.29231 0.57238 0.16447 0.0
C8 C 0.3015 0.53362 0.17333 0.0
C9 C 0.28704 0.49061 0.15623 0.0
C10 C 0.26337 0.61105 0.12709 0.0
O11 O 0.18754 0.66813 0.09864 0.0
O12 O 0.1642 0.72725 0.10828 0.0
O13 O 0.24156 0.77881 0.15803 0.0
O14 O 0.27423 0.74163 0.13221 0.0
C15 C 0.17186 0.6997 0.09102 0.0
O16 O 1.10772 0.74748 0.14205 0.0
O17 O 0.13978 0.756 0.18352 0.0
O18 O 0.17097 0.68205 0.19085 0.0
O19 O 0.24155 0.68149 0.17986 0.0
O20 O 0.14841 0.60049 0.15228 0.0
O21 O 1.09824 0.63615 0.14367 0.0
C22 C 0.27911 0.78167 0.14572 0.0
O23 O 0.21811 0.59937 0.1164 0.0
O24 O 0.28573 0.65428 0.1412 0.0
C25 C 1.05384 0.73484 0.17505 0.0
C26 C 0.94885 0.67645 0.17987 0.0
C27 C 0.96897 0.72275 0.16673 0.0
C28 C 1.02102 0.75168 0.1644 0.0
C29 C 1.03453 0.69046 0.18968 0.0
C30 C 0.98258 0.66179 0.19228 0.0
C31 C 1.10555 0.75853 0.16694 0.0
H32 H 0.25055 0.45411 0.11668 0.0
H33 H 0.23442 0.5214 0.10143 0.0
H34 H 0.30493 0.60566 0.17781 0.0
H35 H 0.32119 0.53796 0.19323 0.0
H36 H 0.94426 0.735 0.15658 0.0
H37 H 1.03516 0.78549 0.15278 0.0
H38 H 1.05911 0.6764 0.19787 0.0
H39 H 0.96858 0.62687 0.20293 0.0
Tb40 Tb 0.72214 0.20861 0.48691 0.0
Eu41 Eu 0.5996 0.15934 0.482 0.0
C42 C 0.66652 0.1776 0.53789 0.0
C43 C 0.64976 1.08783 0.48495 0.0
C44 C 0.86817 0.2818 0.48912 0.0
C45 C 0.95718 0.32931 0.50682 0.0
C46 C 0.90597 0.30182 0.51106 0.0
C47 C 0.88206 0.2925 0.4628 0.0
C48 C 0.93337 0.32003 0.45853 0.0
C49 C 0.97145 0.33709 0.48048 0.0
C50 C 0.81661 0.24277 0.49421 0.0
O51 O 0.70536 0.22377 0.44583 0.0
O52 O 0.62112 0.16159 0.43944 0.0
O53 O 0.62979 0.24221 0.47415 0.0
O54 O 0.70898 0.27212 0.49681 0.0
C55 C 0.6638 0.19441 0.42983 0.0
O56 O 0.52384 0.10746 0.4621 0.0
O57 O 0.53256 0.15494 0.49687 0.0
O58 O 0.63064 0.18448 0.52575 0.0
O59 O 0.69696 0.17118 0.52381 0.0
O60 O 0.69018 0.1269 0.47645 0.0
O61 O 0.61247 0.09338 0.49229 0.0
C62 C 0.67181 0.27974 0.48666 0.0
O63 O 0.79237 0.25484 0.5102 0.0
O64 O 0.78668 0.21152 0.47415 0.0
C65 C 0.46328 1.07034 0.49265 0.0
C66 C 0.40335 0.97063 0.50938 0.0
C67 C 0.38873 0.98616 0.48517 0.0
C68 C 0.41847 1.03563 0.47692 0.0
C69 C 0.47547 1.05664 0.518 0.0
C70 C 0.44541 1.00732 0.52642 0.0
C71 C 0.50097 0.11623 0.48044 0.0
H72 H 0.98554 0.34163 0.52414 0.0
H73 H 0.89602 0.29348 0.53151 0.0
H74 H 0.85354 0.27746 0.44551 0.0
H75 H 0.94328 0.32637 0.43802 0.0
H76 H 0.35699 0.95907 0.47131 0.0
H77 H 0.40862 1.04546 0.45725 0.0
H78 H 0.51004 1.08284 0.53051 0.0
H79 H 0.45719 0.99698 0.54542 0.0
Tb80 Tb 0.59022 0.65782 0.82246 0.0
Eu81 Eu 0.52575 0.53565 0.80592 0.0
C82 C 0.56418 0.578 0.86616 0.0
C83 C 0.64961 0.59607 0.81542 0.0
C84 C 0.65543 0.79744 0.85137 0.0
C85 C 0.71448 0.86409 0.88482 0.0
C86 C 0.69097 0.81374 0.87446 0.0
C87 C 0.63995 0.83092 0.84063 0.0
C88 C 0.66329 0.88125 0.85112 0.0
C89 C 0.70288 0.89902 0.87229 0.0
C90 C 0.64513 0.75178 0.83527 0.0
O91 O 0.59832 0.64887 0.77985 0.0
O92 O 0.52377 0.57488 0.76811 0.0
O93 O 0.46817 0.55624 0.81829 0.0
O94 O 0.51205 0.64366 0.81712 0.0
C95 C 0.56318 0.61659 0.76132 0.0
O96 O 0.50606 0.46769 0.781 0.0
O97 O 0.46395 0.46145 0.81491 0.0
O98 O 0.56331 0.54669 0.84789 0.0
O99 O 0.56145 0.61846 0.85923 0.0
O100 O 0.64821 0.63545 0.82544 0.0
O101 O 0.60807 0.55536 0.80436 0.0
C102 C 0.46946 0.60032 0.81891 0.0
O103 O 0.64925 0.7161 0.84781 0.0
O104 O 0.6093 0.73356 0.81509 0.0
C105 C 0.48212 0.39603 0.8071 0.0
C106 C 0.5142 0.32701 0.82376 0.0
C107 C 0.49063 0.32252 0.79744 0.0
C108 C 0.4747 0.35676 0.78921 0.0
C109 C 0.50261 0.39865 0.83388 0.0
C110 C 0.51813 0.36418 0.84219 0.0
C111 C 0.47363 0.437 0.79702 0.0
H112 H 0.74455 0.87669 0.90131 0.0
H113 H 0.70397 0.78896 0.88312 0.0
H114 H 0.61302 0.81969 0.82272 0.0
H115 H 0.65376 0.90738 0.8409 0.0
H116 H 0.48767 0.29486 0.78258 0.0
H117 H 0.45913 0.35428 0.76846 0.0
H118 H 0.50882 0.42874 0.84811 0.0
H119 H 0.53553 0.36826 0.86266 0.0
H120 H 0.58975 0.10315 0.22925 0.0
H121 H 0.73552 0.23575 0.22119 0.0
H122 H 0.64993 0.13124 0.15264 0.0
C123 C 0.6193 0.12707 0.21679 0.0
C124 C 0.61359 0.112 0.18947 0.0
C125 C 0.66275 0.17142 0.22854 0.0
C126 C 0.70207 0.2014 0.21244 0.0
C127 C 0.69772 0.18716 0.18493 0.0
C128 C 0.65355 0.1421 0.17378 0.0
N129 N 0.7363 0.21665 0.16771 0.0
C130 C 0.78096 0.26403 0.17377 0.0
H131 H 0.63693 0.56885 0.5713 0.0
H132 H 0.63054 0.70559 0.55613 0.0
H133 H 0.66207 0.63168 0.49305 0.0
C134 C 0.64002 0.59795 0.55767 0.0
C135 C 0.65108 0.59525 0.53115 0.0
C136 C 0.63222 0.63723 0.56683 0.0
C137 C 0.6366 0.67539 0.54922 0.0
C138 C 0.6471 0.67347 0.52245 0.0
C139 C 0.65384 0.63307 0.51361 0.0
N140 N 0.65056 0.71062 0.50366 0.0
C141 C 0.64752 0.75463 0.5085 0.0
H142 H 0.99102 0.64151 0.89482 0.0
H143 H 1.11965 0.62388 0.88301 0.0
H144 H 1.00456 0.59133 0.8171 0.0
C145 C 1.01164 0.63141 0.88194 0.0
C146 C 0.99152 0.6155 0.85489 0.0
C147 C 1.05745 0.63417 0.89262 0.0
C148 C 1.08466 0.62243 0.87524 0.0
C149 C 1.06616 0.6075 0.84789 0.0
C150 C 1.01908 0.60319 0.83807 0.0
N151 N 1.0934 0.59626 0.82971 0.0
C152 C 0.14165 0.60108 0.83519 0.0
H153 H 0.29939 0.68541 0.40529 0.0
H154 H 0.33505 0.57435 0.37658 0.0
H155 H 0.35644 0.6133 0.46134 0.0
C156 C 0.31216 0.65826 0.40929 0.0
C157 C 0.32753 0.65282 0.43593 0.0
C158 C 0.31494 0.6305 0.38766 0.0
C159 C 0.33409 0.59736 0.39288 0.0
C160 C 0.34877 0.59103 0.41939 0.0
C161 C 0.34567 0.61892 0.44084 0.0
N162 N 0.35972 0.55153 0.42469 0.0
C163 C 0.32573 0.51105 0.43852 0.0
H164 H 0.7066 0.22448 0.7447 0.0
H165 H 0.85538 0.24853 0.73457 0.0
H166 H 0.81317 0.25282 0.81394 0.0
C167 C 0.74377 0.232 0.75328 0.0
C168 C 0.75556 0.23778 0.78136 0.0
C169 C 0.77944 0.23628 0.73611 0.0
C170 C 0.82753 0.24577 0.74745 0.0
C171 C 0.83938 0.25047 0.77555 0.0
C172 C 0.80361 0.24753 0.79233 0.0
N173 N 0.88632 0.25577 0.78679 0.0
C174 C 0.88816 0.23078 0.80989 0.0
H175 H 0.63485 0.5086 0.06563 0.0
H176 H 0.49383 0.373 0.03837 0.0
H177 H 0.56292 0.38737 0.11947 0.0
C178 C 0.60375 0.47139 0.0696 0.0
C179 C 0.60368 0.45147 0.09505 0.0
C180 C 0.56433 0.44349 0.04908 0.0
C181 C 0.52456 0.39489 0.05405 0.0
C182 C 0.52395 0.37475 0.07944 0.0
C183 C 0.56355 0.40307 0.09987 0.0
N184 N 0.48221 0.32702 0.08468 0.0
C185 C 0.4548 0.32394 0.10595 0.0
H186 H 0.2342 0.38632 0.14779 0.0
H187 H 0.4947 0.39011 0.14913 0.0
H188 H 0.3804 0.51153 0.17973 0.0
H189 H 0.3531 0.2761 0.10639 0.0
H190 H 0.44816 0.41956 0.17433 0.0
H191 H 0.27161 0.33153 0.14682 0.0
C192 C 0.2739 0.40196 0.15519 0.0
C193 C 0.30459 0.45394 0.16309 0.0
C194 C 0.42702 0.38712 0.16003 0.0
C195 C 0.34763 0.39167 0.1619 0.0
C196 C 0.45354 0.37019 0.14581 0.0
C197 C 0.42734 0.33099 0.12578 0.0
C198 C 0.3742 0.36508 0.15366 0.0
C199 C 0.37433 0.30657 0.12179 0.0
C200 C 0.29521 0.37067 0.15467 0.0
C201 C 0.3554 0.47186 0.17319 0.0
N202 N 0.34941 0.32464 0.1353 0.0
N203 N 0.37563 0.44107 0.17171 0.0
H204 H 1.01079 0.30499 0.44305 0.0
H205 H 0.29737 0.52472 0.4857 0.0
H206 H 1.05537 0.41778 0.5082 0.0
H207 H 0.2514 0.4201 0.41666 0.0
H208 H 0.21097 0.47676 0.49897 0.0
H209 H 1.10011 0.33953 0.43664 0.0
C210 C 1.03936 0.33737 0.45585 0.0
C211 C 1.02555 0.35899 0.47596 0.0
C212 C 0.21995 0.46352 0.48126 0.0
C213 C 1.12802 0.39798 0.46913 0.0
C214 C 0.26931 0.49045 0.47393 0.0
C215 C 0.28099 0.47554 0.45036 0.0
C216 C 0.18227 0.42199 0.46458 0.0
C217 C 0.24354 0.43202 0.43523 0.0
C218 C 1.0904 0.35668 0.45239 0.0
C219 C 1.06431 0.39991 0.49247 0.0
N220 N 0.19548 0.40694 0.44244 0.0
N221 N 1.11379 0.41826 0.4886 0.0
H222 H 0.67999 0.97519 0.87817 0.0
H223 H 0.92382 0.16581 0.81657 0.0
H224 H 0.80623 0.94925 0.87593 0.0
H225 H 0.82923 0.21475 0.85022 0.0
H226 H 0.88787 0.09056 0.84368 0.0
H227 H 0.73782 1.06634 0.87368 0.0
C228 C 0.7201 0.98892 0.87747 0.0
C229 C 0.73822 0.95461 0.87708 0.0
C230 C 0.87592 0.11843 0.84573 0.0
C231 C 0.80428 1.05831 0.87137 0.0
C232 C 0.89661 0.16139 0.83034 0.0
C233 C 0.87885 0.19578 0.83105 0.0
C234 C 0.83628 0.10947 0.86121 0.0
C235 C 0.84322 0.18845 0.84886 0.0
C236 C 0.75315 1.04091 0.87496 0.0
C237 C 0.7906 0.97435 0.87631 0.0
N238 N 0.82211 0.14536 0.86282 0.0
N239 N 0.82158 1.02472 0.87281 0.0
H240 H 0.87188 0.69887 0.18063 0.0
H241 H 0.6584 0.41746 0.12594 0.0
H242 H 0.89802 0.57218 0.17255 0.0
H243 H 0.64733 0.55205 0.11136 0.0
H244 H 0.73768 0.46959 0.15513 0.0
H245 H 0.78135 0.64094 0.1671 0.0
C246 C 0.85862 0.65886 0.1764 0.0
C247 C 0.89299 0.64072 0.17729 0.0
C248 C 0.71745 0.48753 0.14586 0.0
C249 C 0.78942 0.57426 0.16216 0.0
C250 C 0.67215 0.4578 0.12935 0.0
C251 C 0.64687 0.48075 0.11595 0.0
C252 C 0.7373 0.54043 0.14907 0.0
C253 C 0.66632 0.53317 0.12096 0.0
C254 C 0.80693 0.62583 0.16878 0.0
C255 C 0.87324 0.58813 0.17229 0.0
N256 N 0.71069 0.56138 0.13693 0.0
N257 N 0.82291 0.55693 0.16462 0.0
H258 H 0.45323 0.92181 0.52982 0.0
H259 H 0.25233 0.67358 0.44491 0.0
H260 H 0.30402 0.8924 0.49816 0.0
H261 H 0.40165 0.70522 0.47746 0.0
H262 H 0.26048 0.74105 0.4753 0.0
H263 H 0.42431 0.83178 0.52353 0.0
C264 C 0.41379 0.89635 0.52237 0.0
C265 C 0.38148 0.91527 0.5137 0.0
C266 C 0.29103 0.73254 0.47625 0.0
C267 C 0.34875 0.8118 0.5054 0.0
C268 C 0.28649 0.69421 0.4588 0.0
C269 C 0.32701 0.68488 0.45815 0.0
C270 C 0.33668 0.76212 0.49289 0.0
C271 C 0.36976 0.71159 0.47707 0.0
C272 C 0.39743 0.84468 0.5185 0.0
C273 C 0.33086 0.87987 0.50416 0.0
N274 N 0.37393 0.74978 0.49327 0.0
N275 N 0.31642 0.83001 0.49957 0.0
H276 H 0.48492 0.22747 0.8096 0.0
H277 H 0.77307 0.30213 0.82459 0.0
H278 H 0.6076 0.36355 0.85221 0.0
H279 H 0.65312 0.17012 0.77791 0.0
H280 H 0.70923 0.31006 0.84669 0.0
H281 H 0.54123 0.1919 0.80968 0.0
C282 C 0.5233 0.2494 0.81948 0.0
C283 C 0.54193 0.29913 0.83023 0.0
C284 C 0.69681 0.27872 0.83199 0.0
C285 C 0.60651 0.25887 0.83032 0.0
C286 C 0.73332 0.27405 0.81945 0.0
C287 C 0.71825 0.23632 0.79882 0.0
C288 C 0.64498 0.24582 0.82357 0.0
C289 C 0.66623 0.20087 0.79307 0.0
C290 C 0.5554 0.22903 0.8196 0.0
C291 C 0.59153 0.32523 0.84347 0.0
N292 N 0.63137 0.2071 0.80497 0.0
N293 N 0.62241 0.30524 0.84261 0.0
H294 H 0.72276 1.06394 0.47479 0.0
H295 H 0.57041 0.77228 0.51789 0.0
H296 H 0.57381 0.99677 0.50226 0.0
H297 H 0.72362 0.8465 0.49629 0.0
H298 H 0.56963 0.85282 0.51222 0.0
H299 H 0.72213 0.98382 0.48173 0.0
C300 C 0.68968 1.03233 0.48215 0.0
C301 C 0.64822 1.03763 0.48785 0.0
C302 C 0.60358 0.85166 0.50891 0.0
C303 C 0.64742 0.94468 0.49608 0.0
C304 C 0.60409 0.80573 0.51229 0.0
C305 C 0.64738 0.80292 0.50786 0.0
C306 C 0.64657 0.89508 0.50079 0.0
C307 C 0.68965 0.84715 0.50019 0.0
C308 C 0.68945 0.98639 0.48622 0.0
C309 C 0.60667 0.99483 0.49749 0.0
N310 N 0.68816 0.89112 0.49686 0.0
N311 N 0.60734 0.9504 0.50127 0.0
H312 H 0.74213 0.67652 0.83499 0.0
H313 H 0.90692 0.53814 0.82411 0.0
H314 H 0.67397 0.52148 0.80266 0.0
H315 H 0.96226 0.68603 0.86319 0.0
H316 H 0.82366 0.53209 0.81238 0.0
H317 H 0.82395 0.68102 0.84183 0.0
C318 C 0.74412 0.64319 0.8292 0.0
C319 C 0.70027 0.59839 0.81825 0.0
C320 C 0.85415 0.56592 0.82341 0.0
C321 C 0.79586 0.60353 0.82624 0.0
C322 C 0.90188 0.56959 0.82995 0.0
C323 C 0.94192 0.61256 0.84488 0.0
C324 C 0.84638 0.60575 0.83159 0.0
C325 C 0.93267 0.65184 0.85202 0.0
C326 C 0.79134 0.64589 0.83317 0.0
C327 C 0.70638 0.55687 0.81115 0.0
N328 N 0.88629 0.64741 0.8454 0.0
N329 N 0.7531 0.56039 0.81533 0.0
H330 H 0.29741 0.87343 0.16678 0.0
H331 H 0.59947 1.03017 0.157 0.0
H332 H 0.37413 0.80523 0.13085 0.0
H333 H 0.51608 1.08656 0.19643 0.0
H334 H 0.51869 0.95043 0.14355 0.0
H335 H 0.37745 0.95344 0.17412 0.0
C336 C 0.33103 0.87511 0.16026 0.0
C337 C 0.32842 0.83178 0.1482 0.0
C338 C 0.51814 0.98044 0.155 0.0
C339 C 0.42197 0.92502 0.15685 0.0
C340 C 0.56425 1.02618 0.16253 0.0
C341 C 0.56493 1.06529 0.17811 0.0
C342 C 0.47217 0.97384 0.16289 0.0
C343 C 0.51788 1.05749 0.18479 0.0
C344 C 0.37712 0.92124 0.16452 0.0
C345 C 0.37394 0.83733 0.14018 0.0
N346 N 0.47395 1.01304 0.17727 0.0
N347 N 0.41875 0.88285 0.14477 0.0
H348 H 0.73706 0.35975 0.52316 0.0
H349 H 0.61277 0.53466 0.48378 0.0
H350 H 0.61249 0.31508 0.46093 0.0
H351 H 0.70691 0.55716 0.55826 0.0
H352 H 0.62121 0.46089 0.4715 0.0
H353 H 0.73543 0.43847 0.53265 0.0
C354 C 0.70976 0.36663 0.51124 0.0
C355 C 0.67482 0.33028 0.4912 0.0
C356 C 0.64022 0.48211 0.49049 0.0
C357 C 0.67275 0.42094 0.50202 0.0
C358 C 0.63569 0.52455 0.49743 0.0
C359 C 0.65889 0.55235 0.52221 0.0
C360 C 0.66882 0.46742 0.5082 0.0
C361 C 0.68775 0.53675 0.53911 0.0
C362 C 0.70864 0.41157 0.5168 0.0
C363 C 0.64011 0.3416 0.47664 0.0
N364 N 0.6919 0.49566 0.53183 0.0
N365 N 0.64 0.38563 0.4823 0.0
H366 H 0.37419 0.51879 0.82436 0.0
H367 H 0.23567 0.68474 0.83329 0.0
H368 H 0.45362 0.68273 0.8212 0.0
H369 H 0.15896 0.52144 0.83765 0.0
H370 H 0.31616 0.68566 0.83012 0.0
H371 H 0.29601 0.51968 0.83001 0.0
C372 C 0.37541 0.55511 0.82481 0.0
C373 C 0.42115 0.60077 0.8222 0.0
C374 C 0.28187 0.64962 0.83198 0.0
C375 C 0.33054 0.602 0.8288 0.0
C376 C 0.23595 0.64915 0.83394 0.0
C377 C 0.19069 0.603 0.83603 0.0
C378 C 0.28262 0.60349 0.83192 0.0
C379 C 0.19308 0.55793 0.83634 0.0
C380 C 0.33047 0.55555 0.8281 0.0
C381 C 0.41961 0.64647 0.82306 0.0
N382 N 0.23802 0.55927 0.83425 0.0
N383 N 0.3753 0.64589 0.82624 0.0
H384 H 1.00521 0.57807 0.14902 0.0
H385 H 0.87741 0.27979 0.1792 0.0
H386 H 1.09194 0.5014 0.16039 0.0
H387 H 0.79354 0.35892 0.16748 0.0
H388 H 0.95658 0.36028 0.17421 0.0
H389 H 0.92857 0.49888 0.15697 0.0
C390 C 1.00837 0.54459 0.15307 0.0
C391 C 1.05574 0.54694 0.1538 0.0
C392 C 0.92101 0.36028 0.17297 0.0
C393 C 0.96664 0.45481 0.1632 0.0
C394 C 0.8758 0.31433 0.176 0.0
C395 C 0.82886 0.31276 0.17411 0.0
C396 C 0.91944 0.40521 0.16779 0.0
C397 C 0.82892 0.35848 0.16942 0.0
C398 C 0.96422 0.49912 0.15772 0.0
C399 C 1.05661 0.50179 0.15948 0.0
N400 N 0.87327 0.40258 0.16638 0.0
N401 N 1.01294 0.45782 0.16388 0.0
H402 H 0.22472 0.69575 0.05103 0.0
H403 H 1.00085 0.61379 0.93588 0.0
H404 H 1.09211 0.7052 0.06424 0.0
H405 H 0.15662 0.68734 0.91716 0.0
H406 H 1.0314 0.63895 0.98331 0.0
H407 H 0.19921 0.68552 0.00232 0.0
C408 C 0.19056 0.69639 0.0436 0.0
C409 C 0.16051 0.70149 0.06164 0.0
C410 C 1.0588 0.64988 0.96874 0.0
C411 C 0.13039 0.68825 0.00605 0.0
C412 C 1.04148 0.63577 0.94148 0.0
C413 C 1.07602 0.64871 0.92199 0.0
C414 C 1.11112 0.67604 0.97697 0.0
C415 C 0.12826 0.67565 0.93118 0.0
C416 C 0.17608 0.69056 0.01584 0.0
C417 C 1.11654 0.70184 0.05098 0.0
N418 N 0.14415 0.68796 0.95797 0.0
N419 N 1.10228 0.69437 0.02388 0.0
H420 H 0.74802 0.23968 0.40198 0.0
H421 H 0.58731 0.16628 0.2565 0.0
H422 H 0.58402 0.15557 0.3897 0.0
H423 H 0.74509 0.20693 0.2676 0.0
H424 H 0.58867 0.17605 0.30516 0.0
H425 H 0.75025 0.24074 0.35295 0.0
C426 C 0.71243 0.22175 0.38903 0.0
C427 C 0.66569 0.19735 0.4001 0.0
C428 C 0.6231 0.18307 0.297 0.0
C429 C 0.66816 0.19878 0.34384 0.0
C430 C 0.6224 0.17744 0.26915 0.0
C431 C 0.66594 0.18483 0.25782 0.0
C432 C 0.6678 0.19675 0.31392 0.0
C433 C 0.71061 0.20076 0.27533 0.0
C434 C 0.71383 0.22225 0.36102 0.0
C435 C 0.62093 0.17462 0.38219 0.0
N436 N 0.71031 0.20584 0.30251 0.0
N437 N 0.6233 0.17597 0.35504 0.0
H438 H 0.6387 0.69882 0.73807 0.0
H439 H 0.55981 0.55716 0.59171 0.0
H440 H 0.50491 0.55154 0.71794 0.0
H441 H 0.67293 0.71637 0.60557 0.0
H442 H 0.54062 0.5548 0.63833 0.0
H443 H 0.65317 0.70679 0.69026 0.0
C444 C 0.61213 0.66833 0.72364 0.0
C445 C 0.57057 0.62434 0.7322 0.0
C446 C 0.56947 0.59042 0.63123 0.0
C447 C 0.58728 0.63308 0.6774 0.0
C448 C 0.5806 0.59171 0.60461 0.0
C449 C 0.61828 0.63695 0.59476 0.0
C450 C 0.59654 0.63456 0.64845 0.0
C451 C 0.64349 0.68074 0.61232 0.0
C452 C 0.62045 0.67295 0.69632 0.0
C453 C 0.5375 0.58615 0.71246 0.0
N454 N 0.63254 0.67836 0.63838 0.0
N455 N 0.5468 0.59125 0.68615 0.0
H456 H 0.63404 0.21828 0.57534 0.0
H457 H 0.79774 0.18153 0.69952 0.0
H458 H 0.72254 0.14471 0.56789 0.0
H459 H 0.72713 0.27346 0.70539 0.0
H460 H 0.76665 0.16376 0.65156 0.0
H461 H 0.66127 0.23243 0.62397 0.0
C462 C 0.65857 0.2045 0.58398 0.0
C463 C 0.67634 0.18063 0.56757 0.0
C464 C 0.75804 0.18792 0.66334 0.0
C465 C 0.70803 0.1971 0.62288 0.0
C466 C 0.77623 0.19847 0.69066 0.0
C467 C 0.76491 0.22888 0.70651 0.0
C468 C 0.72824 0.20788 0.65178 0.0
C469 C 0.73613 0.24917 0.69401 0.0
C470 C 0.67445 0.21294 0.61166 0.0
C471 C 0.7083 0.16375 0.57976 0.0
N472 N 0.71865 0.23817 0.66743 0.0
N473 N 0.72325 0.17249 0.60662 0.0
H474 H 0.51896 0.5918 0.90809 0.0
H475 H 0.64045 0.47894 0.01658 0.0
H476 H 0.6178 0.53597 0.88847 0.0
H477 H 0.49153 0.45893 0.02172 0.0
H478 H 0.64343 0.51761 0.9731 0.0
H479 H 0.51953 0.56119 0.95398 0.0
C480 C 0.54137 0.57392 0.91361 0.0
C481 C 0.56826 0.56617 0.89462 0.0
C482 C 0.61012 0.50478 0.98376 0.0
C483 C 0.56933 0.53172 0.94652 0.0
C484 C 0.60843 0.4828 0.00848 0.0
C485 C 0.56553 0.46548 0.02249 0.0
C486 C 0.56901 0.51036 0.97322 0.0
C487 C 0.52499 0.47136 0.01126 0.0
C488 C 0.54132 0.55613 0.93958 0.0
C489 C 0.59633 0.54236 0.90254 0.0
N490 N 0.52778 0.49362 0.98726 0.0
N491 N 0.59628 0.52614 0.9279 0.0
H492 H 0.29305 0.66979 0.21697 0.0
H493 H 0.2303 0.63664 0.37017 0.0
H494 H 0.16267 0.67127 0.2429 0.0
H495 H 0.35959 0.63704 0.34157 0.0
H496 H 0.20376 0.64851 0.32417 0.0
H497 H 0.31647 0.65698 0.26276 0.0
C498 C 0.26921 0.66753 0.23231 0.0
C499 C 0.22573 0.67178 0.22599 0.0
C500 C 0.23786 0.64593 0.32798 0.0
C501 C 0.25271 0.65683 0.27895 0.0
C502 C 0.25321 0.6394 0.35423 0.0
C503 C 0.29741 0.63604 0.35974 0.0
C504 C 0.26694 0.64914 0.30709 0.0
C505 C 0.32506 0.63893 0.33825 0.0
C506 C 0.28273 0.66011 0.25858 0.0
C507 C 0.19652 0.66831 0.24687 0.0
N508 N 0.30943 0.64544 0.31293 0.0
N509 N 0.21058 0.66104 0.2725 0.0
loop_
_geom_bond_atom_site_label_1
_geom_bond_atom_site_label_2
_geom_bond_distance
_geom_bond_site_symmetry_2
_ccdc_geom_bond_type
Tb0 C10 2.825 . S
Tb0 O11 2.347 . S
Tb0 O14 2.366 . S
Tb0 O19 2.418 . S
Tb0 O20 2.384 1_455 S
Tb0 O23 2.479 . S
Tb0 O24 2.471 . S
Eu1 O12 2.418 . S
Eu1 O13 2.384 . S
Eu1 O16 2.479 1_455 S
Eu1 O17 2.471 1_455 S
Eu1 O18 2.347 . S
Eu1 O21 2.366 1_455 S
Eu1 C31 2.825 1_455 S
C2 O18 1.259 . S
C2 O19 1.265 . S
C3 O20 1.255 . S
C3 O21 1.265 . S
C4 C6 1.380 . S
C4 C7 1.374 . S
C4 C10 1.507 . S
C5 C6 1.384 . S
C5 C9 1.387 . S
C5 H32 0.930 . S
C6 C4 1.380 . S
C6 C5 1.384 . S
C6 H33 0.931 . S
C7 C4 1.374 . S
C7 C8 1.390 . S
C7 H34 0.930 . S
C8 C7 1.390 . S
C8 C9 1.391 . S
C8 H35 0.930 . S
C9 C5 1.387 . S
C9 C8 1.391 . S
C10 Tb0 2.825 . S
C10 C4 1.507 . S
C10 O23 1.238 . S
C10 O24 1.247 . S
O11 Tb0 2.347 . S
O11 C15 1.259 . S
O12 Eu1 2.418 . S
O12 C15 1.265 . S
O13 Eu1 2.384 . S
O13 C22 1.255 . S
O14 Tb0 2.366 . S
O14 C22 1.265 . S
C15 O11 1.259 . S
C15 O12 1.265 . S
O16 Eu1 2.479 1_655 S
O16 C31 1.238 . S
O17 Eu1 2.471 1_655 S
O17 C31 1.247 . S
O18 Eu1 2.347 . S
O18 C2 1.259 . S
O19 Tb0 2.418 . S
O19 C2 1.265 . S
O20 Tb0 2.384 1_655 S
O20 C3 1.255 . S
O21 Eu1 2.366 1_655 S
O21 C3 1.265 . S
C22 O13 1.255 . S
C22 O14 1.265 . S
O23 Tb0 2.479 . S
O23 C10 1.238 . S
O24 Tb0 2.471 . S
O24 C10 1.247 . S
C25 C28 1.380 . S
C25 C29 1.374 . S
C25 C31 1.507 . S
C26 C27 1.387 . S
C26 C30 1.391 . S
C27 C26 1.387 . S
C27 C28 1.384 . S
C27 H36 0.930 . S
C28 C25 1.380 . S
C28 C27 1.384 . S
C28 H37 0.931 . S
C29 C25 1.374 . S
C29 C30 1.390 . S
C29 H38 0.930 . S
C30 C26 1.391 . S
C30 C29 1.390 . S
C30 H39 0.930 . S
C31 Eu1 2.825 1_655 S
C31 O16 1.238 . S
C31 O17 1.247 . S
C31 C25 1.507 . S
H32 C5 0.930 . S
H33 C6 0.931 . S
H34 C7 0.930 . S
H35 C8 0.930 . S
H36 C27 0.930 . S
H37 C28 0.931 . S
H38 C29 0.930 . S
H39 C30 0.930 . S
Tb40 C50 2.825 . S
Tb40 O51 2.347 . S
Tb40 O54 2.366 . S
Tb40 O59 2.418 . S
Tb40 O60 2.384 . S
Tb40 O63 2.479 . S
Tb40 O64 2.471 . S
Eu41 O52 2.418 . S
Eu41 O53 2.384 . S
Eu41 O56 2.479 1_545 S
Eu41 O57 2.471 1_545 S
Eu41 O58 2.347 . S
Eu41 O61 2.366 1_545 S
Eu41 C71 2.825 1_545 S
C42 O58 1.259 . S
C42 O59 1.265 . S
C43 O60 1.255 1_565 S
C43 O61 1.265 . S
C44 C46 1.380 . S
C44 C47 1.374 . S
C44 C50 1.507 . S
C45 C46 1.384 . S
C45 C49 1.387 . S
C45 H72 0.930 . S
C46 C44 1.380 . S
C46 C45 1.384 . S
C46 H73 0.931 . S
C47 C44 1.374 . S
C47 C48 1.390 . S
C47 H74 0.930 . S
C48 C47 1.390 . S
C48 C49 1.391 . S
C48 H75 0.930 . S
C49 C45 1.387 . S
C49 C48 1.391 . S
C50 Tb40 2.825 . S
C50 C44 1.507 . S
C50 O63 1.238 . S
C50 O64 1.247 . S
O51 Tb40 2.347 . S
O51 C55 1.259 . S
O52 Eu41 2.418 . S
O52 C55 1.265 . S
O53 Eu41 2.384 . S
O53 C62 1.255 . S
O54 Tb40 2.366 . S
O54 C62 1.265 . S
C55 O51 1.259 . S
C55 O52 1.265 . S
O56 Eu41 2.479 1_565 S
O56 C71 1.238 . S
O57 Eu41 2.471 1_565 S
O57 C71 1.247 . S
O58 Eu41 2.347 . S
O58 C42 1.259 . S
O59 Tb40 2.418 . S
O59 C42 1.265 . S
O60 Tb40 2.384 . S
O60 C43 1.255 1_545 S
O61 Eu41 2.366 1_565 S
O61 C43 1.265 . S
C62 O53 1.255 . S
C62 O54 1.265 . S
O63 Tb40 2.479 . S
O63 C50 1.238 . S
O64 Tb40 2.471 . S
O64 C50 1.247 . S
C65 C68 1.380 . S
C65 C69 1.374 . S
C65 C71 1.507 . S
C66 C67 1.387 . S
C66 C70 1.391 . S
C67 C66 1.387 . S
C67 C68 1.384 . S
C67 H76 0.930 . S
C68 C65 1.380 . S
C68 C67 1.384 . S
C68 H77 0.931 . S
C69 C65 1.374 . S
C69 C70 1.390 . S
C69 H78 0.930 . S
C70 C66 1.391 . S
C70 C69 1.390 . S
C70 H79 0.930 . S
C71 Eu41 2.825 1_565 S
C71 O56 1.238 . S
C71 O57 1.247 . S
C71 C65 1.507 . S
H72 C45 0.930 . S
H73 C46 0.931 . S
H74 C47 0.930 . S
H75 C48 0.930 . S
H76 C67 0.930 . S
H77 C68 0.931 . S
H78 C69 0.930 . S
H79 C70 0.930 . S
Tb80 C90 2.825 . S
Tb80 O91 2.347 . S
Tb80 O94 2.366 . S
Tb80 O99 2.418 . S
Tb80 O100 2.384 . S
Tb80 O103 2.479 . S
Tb80 O104 2.471 . S
Eu81 O92 2.418 . S
Eu81 O93 2.384 . S
Eu81 O96 2.479 . S
Eu81 O97 2.471 . S
Eu81 O98 2.347 . S
Eu81 O101 2.366 . S
Eu81 C111 2.825 . S
C82 O98 1.259 . S
C82 O99 1.265 . S
C83 O100 1.255 . S
C83 O101 1.265 . S
C84 C86 1.380 . S
C84 C87 1.374 . S
C84 C90 1.507 . S
C85 C86 1.384 . S
C85 C89 1.387 . S
C85 H112 0.930 . S
C86 C84 1.380 . S
C86 C85 1.384 . S
C86 H113 0.931 . S
C87 C84 1.374 . S
C87 C88 1.390 . S
C87 H114 0.930 . S
C88 C87 1.390 . S
C88 C89 1.391 . S
C88 H115 0.930 . S
C89 C85 1.387 . S
C89 C88 1.391 . S
C90 Tb80 2.825 . S
C90 C84 1.507 . S
C90 O103 1.238 . S
C90 O104 1.247 . S
O91 Tb80 2.347 . S
O91 C95 1.259 . S
O92 Eu81 2.418 . S
O92 C95 1.265 . S
O93 Eu81 2.384 . S
O93 C102 1.255 . S
O94 Tb80 2.366 . S
O94 C102 1.265 . S
C95 O91 1.259 . S
C95 O92 1.265 . S
O96 Eu81 2.479 . S
O96 C111 1.238 . S
O97 Eu81 2.471 . S
O97 C111 1.247 . S
O98 Eu81 2.347 . S
O98 C82 1.259 . S
O99 Tb80 2.418 . S
O99 C82 1.265 . S
O100 Tb80 2.384 . S
O100 C83 1.255 . S
O101 Eu81 2.366 . S
O101 C83 1.265 . S
C102 O93 1.255 . S
C102 O94 1.265 . S
O103 Tb80 2.479 . S
O103 C90 1.238 . S
O104 Tb80 2.471 . S
O104 C90 1.247 . S
C105 C108 1.380 . S
C105 C109 1.374 . S
C105 C111 1.507 . S
C106 C107 1.387 . S
C106 C110 1.391 . S
C107 C106 1.387 . S
C107 C108 1.384 . S
C107 H116 0.930 . S
C108 C105 1.380 . S
C108 C107 1.384 . S
C108 H117 0.931 . S
C109 C105 1.374 . S
C109 C110 1.390 . S
C109 H118 0.930 . S
C110 C106 1.391 . S
C110 C109 1.390 . S
C110 H119 0.930 . S
C111 Eu81 2.825 . S
C111 O96 1.238 . S
C111 O97 1.247 . S
C111 C105 1.507 . S
H112 C85 0.930 . S
H113 C86 0.931 . S
H114 C87 0.930 . S
H115 C88 0.930 . S
H116 C107 0.930 . S
H117 C108 0.931 . S
H118 C109 0.930 . S
H119 C110 0.930 . S
H120 C123 0.929 1_565 S
H121 C126 0.929 . S
H122 C128 0.930 . S
C123 H120 0.929 1_545 S
C123 C124 1.398 . S
C123 C125 1.396 . S
C124 C123 1.398 . S
C124 C128 1.407 . S
C125 C123 1.396 . S
C125 C126 1.394 . S
C126 H121 0.929 . S
C126 C125 1.394 . S
C126 C127 1.382 . S
C127 C126 1.382 . S
C127 C128 1.392 . S
C127 N129 1.420 . S
C128 H122 0.930 . S
C128 C124 1.407 . S
C128 C127 1.392 . S
N129 C127 1.420 . S
N129 C130 1.244 . S
C130 N129 1.244 . S
H131 C134 0.929 . S
H132 C137 0.929 . S
H133 C139 0.930 . S
C134 H131 0.929 . S
C134 C135 1.398 . S
C134 C136 1.396 . S
C135 C134 1.398 . S
C135 C139 1.407 . S
C136 C134 1.396 . S
C136 C137 1.394 . S
C137 H132 0.929 . S
C137 C136 1.394 . S
C137 C138 1.382 . S
C138 C137 1.382 . S
C138 C139 1.392 . S
C138 N140 1.420 . S
C139 H133 0.930 . S
C139 C135 1.407 . S
C139 C138 1.392 . S
N140 C138 1.420 . S
N140 C141 1.244 . S
C141 N140 1.244 . S
H142 C145 0.929 . S
H143 C148 0.929 . S
H144 C150 0.930 1_655 S
C145 H142 0.929 . S
C145 C146 1.398 . S
C145 C147 1.396 1_655 S
C146 C145 1.398 . S
C146 C150 1.407 1_655 S
C147 C145 1.396 1_455 S
C147 C148 1.394 . S
C148 H143 0.929 . S
C148 C147 1.394 . S
C148 C149 1.382 . S
C149 C148 1.382 . S
C149 C150 1.392 . S
C149 N151 1.420 . S
C150 H144 0.930 1_455 S
C150 C146 1.407 1_455 S
C150 C149 1.392 . S
N151 C149 1.420 . S
N151 C152 1.244 . S
C152 N151 1.244 . S
H153 C156 0.929 . S
H154 C159 0.926 1_655 S
H155 C161 0.930 . S
C156 H153 0.929 . S
C156 C157 1.398 . S
C156 C158 1.396 . S
C157 C156 1.398 . S
C157 C161 1.407 . S
C158 C156 1.396 . S
C158 C159 1.398 . S
C159 H154 0.926 1_455 S
C159 C158 1.398 . S
C159 C160 1.381 . S
C160 C159 1.381 . S
C160 C161 1.392 . S
C160 N162 1.420 1_455 S
C161 H155 0.930 . S
C161 C157 1.407 . S
C161 C160 1.392 . S
N162 C160 1.420 1_655 S
N162 C163 1.244 . S
C163 N162 1.244 . S
H164 C167 0.929 . S
H165 C170 0.929 1_565 S
H166 C172 0.930 . S
C167 H164 0.929 . S
C167 C168 1.398 . S
C167 C169 1.396 . S
C168 C167 1.398 . S
C168 C172 1.407 . S
C169 C167 1.396 . S
C169 C170 1.394 . S
C170 H165 0.929 1_545 S
C170 C169 1.394 . S
C170 C171 1.382 . S
C171 C170 1.382 . S
C171 C172 1.392 . S
C171 N173 1.420 1_545 S
C172 H166 0.930 . S
C172 C168 1.407 . S
C172 C171 1.392 . S
N173 C171 1.420 1_565 S
N173 C174 1.244 . S
C174 N173 1.244 . S
H175 C178 0.929 . S
H176 C181 0.929 . S
H177 C183 0.930 . S
C178 H175 0.929 . S
C178 C179 1.398 . S
C178 C180 1.396 . S
C179 C178 1.398 . S
C179 C183 1.407 . S
C180 C178 1.396 . S
C180 C181 1.394 . S
C181 H176 0.929 . S
C181 C180 1.394 . S
C181 C182 1.382 . S
C182 C181 1.382 . S
C182 C183 1.392 . S
C182 N184 1.420 . S
C183 H177 0.930 . S
C183 C179 1.407 . S
C183 C182 1.392 . S
N184 C182 1.420 . S
N184 C185 1.244 . S
C185 N184 1.244 . S
H186 C192 0.930 . S
H187 C196 0.930 . S
H188 C201 0.929 . S
H189 C199 0.929 . S
H190 C194 0.929 . S
H191 C200 0.929 . S
C192 H186 0.930 . S
C192 C193 1.367 . S
C192 C200 1.378 . S
C193 C192 1.367 . S
C193 C201 1.433 . S
C194 H190 0.929 . S
C194 C196 1.378 . S
C194 C198 1.350 . S
C195 C198 1.463 . S
C195 C200 1.350 . S
C195 N203 1.427 . S
C196 H187 0.930 . S
C196 C194 1.378 . S
C196 C197 1.367 . S
C197 C196 1.367 . S
C197 C199 1.433 . S
C198 C194 1.350 . S
C198 C195 1.463 . S
C198 N202 1.427 . S
C199 H189 0.929 . S
C199 C197 1.433 . S
C199 N202 1.384 . S
C200 H191 0.929 . S
C200 C192 1.378 . S
C200 C195 1.350 . S
C201 H188 0.929 . S
C201 C193 1.433 . S
C201 N203 1.384 . S
N202 C198 1.427 . S
N202 C199 1.384 . S
N203 C195 1.427 . S
N203 C201 1.384 . S
H204 C210 0.930 . S
H205 C214 0.930 . S
H206 C219 0.929 . S
H207 C217 0.929 . S
H208 C212 0.929 . S
H209 C218 0.929 . S
C210 H204 0.930 . S
C210 C211 1.367 . S
C210 C218 1.378 . S
C211 C210 1.367 . S
C211 C219 1.433 . S
C212 H208 0.929 . S
C212 C214 1.378 . S
C212 C216 1.350 . S
C213 C216 1.463 . S
C213 C218 1.350 . S
C213 N221 1.427 . S
C214 H205 0.930 . S
C214 C212 1.378 . S
C214 C215 1.367 . S
C215 C214 1.367 . S
C215 C217 1.433 . S
C216 C212 1.350 . S
C216 C213 1.463 . S
C216 N220 1.427 . S
C217 H207 0.929 . S
C217 C215 1.433 . S
C217 N220 1.384 . S
C218 H209 0.929 . S
C218 C210 1.378 . S
C218 C213 1.350 . S
C219 H206 0.929 . S
C219 C211 1.433 . S
C219 N221 1.384 . S
N220 C216 1.427 . S
N220 C217 1.384 . S
N221 C213 1.427 . S
N221 C219 1.384 . S
H222 C228 0.930 . S
H223 C232 0.930 . S
H224 C237 0.929 . S
H225 C235 0.929 . S
H226 C230 0.929 . S
H227 C236 0.929 . S
C228 H222 0.930 . S
C228 C229 1.367 . S
C228 C236 1.378 . S
C229 C228 1.367 . S
C229 C237 1.433 . S
C230 H226 0.929 . S
C230 C232 1.378 . S
C230 C234 1.350 . S
C231 C234 1.463 . S
C231 C236 1.350 . S
C231 N239 1.427 . S
C232 H223 0.930 . S
C232 C230 1.378 . S
C232 C233 1.367 . S
C233 C232 1.367 . S
C233 C235 1.433 . S
C234 C230 1.350 . S
C234 C231 1.463 . S
C234 N238 1.427 . S
C235 H225 0.929 . S
C235 C233 1.433 . S
C235 N238 1.384 . S
C236 H227 0.929 . S
C236 C228 1.378 . S
C236 C231 1.350 . S
C237 H224 0.929 . S
C237 C229 1.433 . S
C237 N239 1.384 . S
N238 C234 1.427 . S
N238 C235 1.384 . S
N239 C231 1.427 . S
N239 C237 1.384 . S
H240 C246 0.930 . S
H241 C250 0.930 . S
H242 C255 0.929 . S
H243 C253 0.929 . S
H244 C248 0.929 . S
H245 C254 0.929 . S
C246 H240 0.930 . S
C246 C247 1.367 . S
C246 C254 1.378 . S
C247 C246 1.367 . S
C247 C255 1.433 . S
C248 H244 0.929 . S
C248 C250 1.378 . S
C248 C252 1.350 . S
C249 C252 1.463 . S
C249 C254 1.350 . S
C249 N257 1.427 . S
C250 H241 0.930 . S
C250 C248 1.378 . S
C250 C251 1.367 . S
C251 C250 1.367 . S
C251 C253 1.433 . S
C252 C248 1.350 . S
C252 C249 1.463 . S
C252 N256 1.427 . S
C253 H243 0.929 . S
C253 C251 1.433 . S
C253 N256 1.384 . S
C254 H245 0.929 . S
C254 C246 1.378 . S
C254 C249 1.350 . S
C255 H242 0.929 . S
C255 C247 1.433 . S
C255 N257 1.384 . S
N256 C252 1.427 . S
N256 C253 1.384 . S
N257 C249 1.427 . S
N257 C255 1.384 . S
H258 C264 0.930 . S
H259 C268 0.930 . S
H260 C273 0.929 . S
H261 C271 0.929 . S
H262 C266 0.929 . S
H263 C272 0.929 . S
C264 H258 0.930 . S
C264 C265 1.367 . S
C264 C272 1.378 . S
C265 C264 1.367 . S
C265 C273 1.433 . S
C266 H262 0.929 . S
C266 C268 1.378 . S
C266 C270 1.350 . S
C267 C270 1.463 . S
C267 C272 1.350 . S
C267 N275 1.427 . S
C268 H259 0.930 . S
C268 C266 1.378 . S
C268 C269 1.367 . S
C269 C268 1.367 . S
C269 C271 1.433 . S
C270 C266 1.350 . S
C270 C267 1.463 . S
C270 N274 1.427 . S
C271 H261 0.929 . S
C271 C269 1.433 . S
C271 N274 1.384 . S
C272 H263 0.929 . S
C272 C264 1.378 . S
C272 C267 1.350 . S
C273 H260 0.929 . S
C273 C265 1.433 . S
C273 N275 1.384 . S
N274 C270 1.427 . S
N274 C271 1.384 . S
N275 C267 1.427 . S
N275 C273 1.384 . S
H276 C282 0.930 . S
H277 C286 0.930 . S
H278 C291 0.929 . S
H279 C289 0.929 . S
H280 C284 0.929 . S
H281 C290 0.929 . S
C282 H276 0.930 . S
C282 C283 1.367 . S
C282 C290 1.378 . S
C283 C282 1.367 . S
C283 C291 1.433 . S
C284 H280 0.929 . S
C284 C286 1.378 . S
C284 C288 1.350 . S
C285 C288 1.463 . S
C285 C290 1.350 . S
C285 N293 1.427 . S
C286 H277 0.930 . S
C286 C284 1.378 . S
C286 C287 1.367 . S
C287 C286 1.367 . S
C287 C289 1.433 . S
C288 C284 1.350 . S
C288 C285 1.463 . S
C288 N292 1.427 . S
C289 H279 0.929 . S
C289 C287 1.433 . S
C289 N292 1.384 . S
C290 H281 0.929 . S
C290 C282 1.378 . S
C290 C285 1.350 . S
C291 H278 0.929 . S
C291 C283 1.433 . S
C291 N293 1.384 . S
N292 C288 1.427 . S
N292 C289 1.384 . S
N293 C285 1.427 . S
N293 C291 1.384 . S
H294 C300 0.930 . S
H295 C304 0.930 . S
H296 C309 0.929 . S
H297 C307 0.929 . S
H298 C302 0.929 . S
H299 C308 0.929 . S
C300 H294 0.930 . S
C300 C301 1.367 . S
C300 C308 1.378 . S
C301 C300 1.367 . S
C301 C309 1.433 . S
C302 H298 0.929 . S
C302 C304 1.378 . S
C302 C306 1.350 . S
C303 C306 1.463 . S
C303 C308 1.350 . S
C303 N311 1.427 . S
C304 H295 0.930 . S
C304 C302 1.378 . S
C304 C305 1.367 . S
C305 C304 1.367 . S
C305 C307 1.433 . S
C306 C302 1.350 . S
C306 C303 1.463 . S
C306 N310 1.427 . S
C307 H297 0.929 . S
C307 C305 1.433 . S
C307 N310 1.384 . S
C308 H299 0.929 . S
C308 C300 1.378 . S
C308 C303 1.350 . S
C309 H296 0.929 . S
C309 C301 1.433 . S
C309 N311 1.384 . S
N310 C306 1.427 . S
N310 C307 1.384 . S
N311 C303 1.427 . S
N311 C309 1.384 . S
H312 C318 0.930 . S
H313 C322 0.930 . S
H314 C327 0.929 . S
H315 C325 0.929 . S
H316 C320 0.929 . S
H317 C326 0.929 . S
C318 H312 0.930 . S
C318 C319 1.367 . S
C318 C326 1.378 . S
C319 C318 1.367 . S
C319 C327 1.433 . S
C320 H316 0.929 . S
C320 C322 1.378 . S
C320 C324 1.350 . S
C321 C324 1.463 . S
C321 C326 1.350 . S
C321 N329 1.427 . S
C322 H313 0.930 . S
C322 C320 1.378 . S
C322 C323 1.367 . S
C323 C322 1.367 . S
C323 C325 1.433 . S
C324 C320 1.350 . S
C324 C321 1.463 . S
C324 N328 1.427 . S
C325 H315 0.929 . S
C325 C323 1.433 . S
C325 N328 1.384 . S
C326 H317 0.929 . S
C326 C318 1.378 . S
C326 C321 1.350 . S
C327 H314 0.929 . S
C327 C319 1.433 . S
C327 N329 1.384 . S
N328 C324 1.427 . S
N328 C325 1.384 . S
N329 C321 1.427 . S
N329 C327 1.384 . S
H330 C336 0.930 . S
H331 C340 0.930 . S
H332 C345 0.929 . S
H333 C343 0.929 . S
H334 C338 0.929 . S
H335 C344 0.929 . S
C336 H330 0.930 . S
C336 C337 1.367 . S
C336 C344 1.378 . S
C337 C336 1.367 . S
C337 C345 1.433 . S
C338 H334 0.929 . S
C338 C340 1.378 . S
C338 C342 1.350 . S
C339 C342 1.463 . S
C339 C344 1.350 . S
C339 N347 1.427 . S
C340 H331 0.930 . S
C340 C338 1.378 . S
C340 C341 1.367 . S
C341 C340 1.367 . S
C341 C343 1.433 . S
C342 C338 1.350 . S
C342 C339 1.463 . S
C342 N346 1.427 . S
C343 H333 0.929 . S
C343 C341 1.433 . S
C343 N346 1.384 . S
C344 H335 0.929 . S
C344 C336 1.378 . S
C344 C339 1.350 . S
C345 H332 0.929 . S
C345 C337 1.433 . S
C345 N347 1.384 . S
N346 C342 1.427 . S
N346 C343 1.384 . S
N347 C339 1.427 . S
N347 C345 1.384 . S
H348 C354 0.930 . S
H349 C358 0.930 . S
H350 C363 0.929 . S
H351 C361 0.929 . S
H352 C356 0.929 . S
H353 C362 0.929 . S
C354 H348 0.930 . S
C354 C355 1.367 . S
C354 C362 1.378 . S
C355 C354 1.367 . S
C355 C363 1.433 . S
C356 H352 0.929 . S
C356 C358 1.378 . S
C356 C360 1.350 . S
C357 C360 1.463 . S
C357 C362 1.350 . S
C357 N365 1.427 . S
C358 H349 0.930 . S
C358 C356 1.378 . S
C358 C359 1.367 . S
C359 C358 1.367 . S
C359 C361 1.433 . S
C360 C356 1.350 . S
C360 C357 1.463 . S
C360 N364 1.427 . S
C361 H351 0.929 . S
C361 C359 1.433 . S
C361 N364 1.384 . S
C362 H353 0.929 . S
C362 C354 1.378 . S
C362 C357 1.350 . S
C363 H350 0.929 . S
C363 C355 1.433 . S
C363 N365 1.384 . S
N364 C360 1.427 . S
N364 C361 1.384 . S
N365 C357 1.427 . S
N365 C363 1.384 . S
H366 C372 0.930 . S
H367 C376 0.930 . S
H368 C381 0.929 . S
H369 C379 0.929 . S
H370 C374 0.929 . S
H371 C380 0.929 . S
C372 H366 0.930 . S
C372 C373 1.367 . S
C372 C380 1.378 . S
C373 C372 1.367 . S
C373 C381 1.433 . S
C374 H370 0.929 . S
C374 C376 1.378 . S
C374 C378 1.350 . S
C375 C378 1.463 . S
C375 C380 1.350 . S
C375 N383 1.427 . S
C376 H367 0.930 . S
C376 C374 1.378 . S
C376 C377 1.367 . S
C377 C376 1.367 . S
C377 C379 1.433 . S
C378 C374 1.350 . S
C378 C375 1.463 . S
C378 N382 1.427 . S
C379 H369 0.929 . S
C379 C377 1.433 . S
C379 N382 1.384 . S
C380 H371 0.929 . S
C380 C372 1.378 . S
C380 C375 1.350 . S
C381 H368 0.929 . S
C381 C373 1.433 . S
C381 N383 1.384 . S
N382 C378 1.427 . S
N382 C379 1.384 . S
N383 C375 1.427 . S
N383 C381 1.384 . S
H384 C390 0.930 . S
H385 C394 0.930 . S
H386 C399 0.929 . S
H387 C397 0.929 . S
H388 C392 0.929 . S
H389 C398 0.929 . S
C390 H384 0.930 . S
C390 C391 1.367 . S
C390 C398 1.378 . S
C391 C390 1.367 . S
C391 C399 1.433 . S
C392 H388 0.929 . S
C392 C394 1.378 . S
C392 C396 1.350 . S
C393 C396 1.463 . S
C393 C398 1.350 . S
C393 N401 1.427 . S
C394 H385 0.930 . S
C394 C392 1.378 . S
C394 C395 1.367 . S
C395 C394 1.367 . S
C395 C397 1.433 . S
C396 C392 1.350 . S
C396 C393 1.463 . S
C396 N400 1.427 . S
C397 H387 0.929 . S
C397 C395 1.433 . S
C397 N400 1.384 . S
C398 H389 0.929 . S
C398 C390 1.378 . S
C398 C393 1.350 . S
C399 H386 0.929 . S
C399 C391 1.433 . S
C399 N401 1.384 . S
N400 C396 1.427 . S
N400 C397 1.384 . S
N401 C393 1.427 . S
N401 C399 1.384 . S
H402 C408 0.930 . S
H403 C412 0.930 . S
H404 C417 0.929 . S
H405 C415 0.929 . S
H406 C410 0.929 . S
H407 C416 0.929 . S
C408 H402 0.930 . S
C408 C409 1.367 . S
C408 C416 1.378 . S
C409 C408 1.367 . S
C409 C417 1.433 1_455 S
C410 H406 0.929 . S
C410 C412 1.378 . S
C410 C414 1.350 1_655 S
C411 C414 1.463 1_554 S
C411 C416 1.350 . S
C411 N419 1.427 1_455 S
C412 H403 0.930 . S
C412 C410 1.378 . S
C412 C413 1.367 1_655 S
C413 C412 1.367 1_455 S
C413 C415 1.433 . S
C414 C410 1.350 1_455 S
C414 C411 1.463 1_556 S
C414 N418 1.427 . S
C415 H405 0.929 . S
C415 C413 1.433 . S
C415 N418 1.384 . S
C416 H407 0.929 . S
C416 C408 1.378 . S
C416 C411 1.350 . S
C417 H404 0.929 . S
C417 C409 1.433 1_655 S
C417 N419 1.384 . S
N418 C414 1.427 . S
N418 C415 1.384 . S
N419 C411 1.427 1_655 S
N419 C417 1.384 . S
H420 C426 0.930 . S
H421 C430 0.930 . S
H422 C435 0.929 . S
H423 C433 0.929 . S
H424 C428 0.929 . S
H425 C434 0.929 . S
C426 H420 0.930 . S
C426 C427 1.367 . S
C426 C434 1.378 . S
C427 C426 1.367 . S
C427 C435 1.433 . S
C428 H424 0.929 . S
C428 C430 1.378 . S
C428 C432 1.350 . S
C429 C432 1.463 . S
C429 C434 1.350 . S
C429 N437 1.427 . S
C430 H421 0.930 . S
C430 C428 1.378 . S
C430 C431 1.367 . S
C431 C430 1.367 . S
C431 C433 1.433 . S
C432 C428 1.350 . S
C432 C429 1.463 . S
C432 N436 1.427 . S
C433 H423 0.929 . S
C433 C431 1.433 . S
C433 N436 1.384 . S
C434 H425 0.929 . S
C434 C426 1.378 . S
C434 C429 1.350 . S
C435 H422 0.929 . S
C435 C427 1.433 . S
C435 N437 1.384 . S
N436 C432 1.427 . S
N436 C433 1.384 . S
N437 C429 1.427 . S
N437 C435 1.384 . S
H438 C444 0.930 . S
H439 C448 0.930 . S
H440 C453 0.929 . S
H441 C451 0.929 . S
H442 C446 0.929 . S
H443 C452 0.929 . S
C444 H438 0.930 . S
C444 C445 1.367 . S
C444 C452 1.378 . S
C445 C444 1.367 . S
C445 C453 1.433 . S
C446 H442 0.929 . S
C446 C448 1.378 . S
C446 C450 1.350 . S
C447 C450 1.463 . S
C447 C452 1.350 . S
C447 N455 1.427 . S
C448 H439 0.930 . S
C448 C446 1.378 . S
C448 C449 1.367 . S
C449 C448 1.367 . S
C449 C451 1.433 . S
C450 C446 1.350 . S
C450 C447 1.463 . S
C450 N454 1.427 . S
C451 H441 0.929 . S
C451 C449 1.433 . S
C451 N454 1.384 . S
C452 H443 0.929 . S
C452 C444 1.378 . S
C452 C447 1.350 . S
C453 H440 0.929 . S
C453 C445 1.433 . S
C453 N455 1.384 . S
N454 C450 1.427 . S
N454 C451 1.384 . S
N455 C447 1.427 . S
N455 C453 1.384 . S
H456 C462 0.930 . S
H457 C466 0.930 1_565 S
H458 C471 0.929 . S
H459 C469 0.929 . S
H460 C464 0.929 1_565 S
H461 C470 0.929 . S
C462 H456 0.930 . S
C462 C463 1.367 . S
C462 C470 1.378 . S
C463 C462 1.367 . S
C463 C471 1.433 . S
C464 H460 0.929 1_545 S
C464 C466 1.378 . S
C464 C468 1.350 . S
C465 C468 1.463 . S
C465 C470 1.350 . S
C465 N473 1.427 . S
C466 H457 0.930 1_545 S
C466 C464 1.378 . S
C466 C467 1.367 . S
C467 C466 1.367 . S
C467 C469 1.433 . S
C468 C464 1.350 . S
C468 C465 1.463 . S
C468 N472 1.427 . S
C469 H459 0.929 . S
C469 C467 1.433 . S
C469 N472 1.384 . S
C470 H461 0.929 . S
C470 C462 1.378 . S
C470 C465 1.350 . S
C471 H458 0.929 . S
C471 C463 1.433 . S
C471 N473 1.384 . S
N472 C468 1.427 . S
N472 C469 1.384 . S
N473 C465 1.427 . S
N473 C471 1.384 . S
H474 C480 0.930 . S
H475 C484 0.930 . S
H476 C489 0.929 . S
H477 C487 0.929 . S
H478 C482 0.929 1_556 S
H479 C488 0.929 . S
C480 H474 0.930 . S
C480 C481 1.367 . S
C480 C488 1.378 . S
C481 C480 1.367 . S
C481 C489 1.433 . S
C482 H478 0.929 1_554 S
C482 C484 1.378 . S
C482 C486 1.350 1_554 S
C483 C486 1.463 . S
C483 C488 1.350 . S
C483 N491 1.427 . S
C484 H475 0.930 . S
C484 C482 1.378 . S
C484 C485 1.367 . S
C485 C484 1.367 . S
C485 C487 1.433 . S
C486 C482 1.350 1_556 S
C486 C483 1.463 . S
C486 N490 1.427 1_556 S
C487 H477 0.929 . S
C487 C485 1.433 . S
C487 N490 1.384 . S
C488 H479 0.929 . S
C488 C480 1.378 . S
C488 C483 1.350 . S
C489 H476 0.929 . S
C489 C481 1.433 . S
C489 N491 1.384 . S
N490 C486 1.427 1_554 S
N490 C487 1.384 . S
N491 C483 1.427 . S
N491 C489 1.384 . S
H492 C498 0.930 . S
H493 C502 0.930 . S
H494 C507 0.929 . S
H495 C505 0.929 . S
H496 C500 0.929 . S
H497 C506 0.929 . S
C498 H492 0.930 . S
C498 C499 1.367 . S
C498 C506 1.378 . S
C499 C498 1.367 . S
C499 C507 1.433 . S
C500 H496 0.929 . S
C500 C502 1.378 . S
C500 C504 1.350 . S
C501 C504 1.463 . S
C501 C506 1.350 . S
C501 N509 1.427 . S
C502 H493 0.930 . S
C502 C500 1.378 . S
C502 C503 1.367 . S
C503 C502 1.367 . S
C503 C505 1.433 . S
C504 C500 1.350 . S
C504 C501 1.463 . S
C504 N508 1.427 . S
C505 H495 0.929 . S
C505 C503 1.433 . S
C505 N508 1.384 . S
C506 H497 0.929 . S
C506 C498 1.378 . S
C506 C501 1.350 . S
C507 H494 0.929 . S
C507 C499 1.433 . S
C507 N509 1.384 . S
N508 C504 1.427 . S
N508 C505 1.384 . S
N509 C501 1.427 . S
N509 C507 1.384 . S
C193 C9 0.625 . S
C197 C185 0.595 . S
C211 C49 0.416 . S
C215 C163 0.397 . S
C229 C89 0.358 . S
C233 C174 0.339 . S
C247 C26 0.365 . S
C251 C179 0.281 . S
C269 C157 0.231 . S
C265 C66 0.338 . S
C287 C168 0.265 . S
C283 C106 0.424 . S
C301 C43 3.044 . S
C305 C141 2.978 . S
C319 C83 3.002 . S
C323 C146 2.955 . S
C337 C22 3.040 . S
C341 C124 2.982 1_565 S
C359 C135 2.986 . S
C355 C62 3.037 . S
C377 C152 2.998 . S
C373 C102 3.062 . S
C391 C3 3.043 . S
C395 C130 2.982 . S
C413 C147 1.730 . S
C409 C15 1.709 . S
C427 C55 1.743 . S
C431 C125 1.753 . S
C445 C95 1.732 . S
C449 C136 1.751 . S
C467 C169 1.223 . S
C463 C42 1.197 . S
C485 C180 1.230 . S
C481 C82 1.209 . S
C499 C2 1.171 . S
C503 C158 1.200 . S
