# Generated by pormake.
# Topology zzz, (3,6)-cn, num edge types: 1
# Building blocks:
#     Node 0, Type 0, BuildingBlock: CUQRIR_clean_linker_1, # of connection points: 3
#     Node 1, Type 0, BuildingBlock: CUQRIR_clean_linker_1, # of connection points: 3
#     Node 2, Type 0, BuildingBlock: CUQRIR_clean_linker_1, # of connection points: 3
#     Node 3, Type 0, BuildingBlock: CUQRIR_clean_linker_1, # of connection points: 3
#     Node 4, Type 0, BuildingBlock: CUQRIR_clean_linker_1, # of connection points: 3
#     Node 5, Type 0, BuildingBlock: CUQRIR_clean_linker_1, # of connection points: 3
#     Node 6, Type 0, BuildingBlock: CUQRIR_clean_linker_1, # of connection points: 3
#     Node 7, Type 0, BuildingBlock: CUQRIR_clean_linker_1, # of connection points: 3
#     Node 8, Type 1, BuildingBlock: JUFBIX_clean_sbu_0, # of connection points: 6
#     Node 9, Type 1, BuildingBlock: JUFBIX_clean_sbu_0, # of connection points: 6
#     Node 10, Type 1, BuildingBlock: JUFBIX_clean_sbu_0, # of connection points: 6
#     Node 11, Type 1, BuildingBlock: JUFBIX_clean_sbu_0, # of connection points: 6
#     Edge 12, Type (0, 1), BuildingBlock: AJUNOK_clean_linker_0, # of connection points: 2
#     Edge 13, Type (0, 1), BuildingBlock: AJUNOK_clean_linker_0, # of connection points: 2
#     Edge 14, Type (0, 1), BuildingBlock: AJUNOK_clean_linker_0, # of connection points: 2
#     Edge 15, Type (0, 1), BuildingBlock: AJUNOK_clean_linker_0, # of connection points: 2
#     Edge 16, Type (0, 1), BuildingBlock: AJUNOK_clean_linker_0, # of connection points: 2
#     Edge 17, Type (0, 1), BuildingBlock: AJUNOK_clean_linker_0, # of connection points: 2
#     Edge 18, Type (0, 1), BuildingBlock: AJUNOK_clean_linker_0, # of connection points: 2
#     Edge 19, Type (0, 1), BuildingBlock: AJUNOK_clean_linker_0, # of connection points: 2
#     Edge 20, Type (0, 1), BuildingBlock: AJUNOK_clean_linker_0, # of connection points: 2
#     Edge 21, Type (0, 1), BuildingBlock: AJUNOK_clean_linker_0, # of connection points: 2
#     Edge 22, Type (0, 1), BuildingBlock: AJUNOK_clean_linker_0, # of connection points: 2
#     Edge 23, Type (0, 1), BuildingBlock: AJUNOK_clean_linker_0, # of connection points: 2
#     Edge 24, Type (0, 1), BuildingBlock: AJUNOK_clean_linker_0, # of connection points: 2
#     Edge 25, Type (0, 1), BuildingBlock: AJUNOK_clean_linker_0, # of connection points: 2
#     Edge 26, Type (0, 1), BuildingBlock: AJUNOK_clean_linker_0, # of connection points: 2
#     Edge 27, Type (0, 1), BuildingBlock: AJUNOK_clean_linker_0, # of connection points: 2
#     Edge 28, Type (0, 1), BuildingBlock: AJUNOK_clean_linker_0, # of connection points: 2
#     Edge 29, Type (0, 1), BuildingBlock: AJUNOK_clean_linker_0, # of connection points: 2
#     Edge 30, Type (0, 1), BuildingBlock: AJUNOK_clean_linker_0, # of connection points: 2
#     Edge 31, Type (0, 1), BuildingBlock: AJUNOK_clean_linker_0, # of connection points: 2
#     Edge 32, Type (0, 1), BuildingBlock: AJUNOK_clean_linker_0, # of connection points: 2
#     Edge 33, Type (0, 1), BuildingBlock: AJUNOK_clean_linker_0, # of connection points: 2
#     Edge 34, Type (0, 1), BuildingBlock: AJUNOK_clean_linker_0, # of connection points: 2
#     Edge 35, Type (0, 1), BuildingBlock: AJUNOK_clean_linker_0, # of connection points: 2
# Relax obj value: 0.126
# Max RMSD: 0.173
# Mean RMSD: 0.097
data_MOF--net-zzz--node1-JUFBIX_clean_sbu_0--node2-CUQRIR_clean_linker_1--edge1-AJUNOK_clean_linker_0
_symmetry_space_group_name_H-M    P1
_symmetry_Int_Tables_number       1
_symmetry_cell_setting            triclinic
loop_
_symmetry_equiv_pos_as_xyz
'x, y, z'
_cell_length_a     34.93014
_cell_length_b     34.697456
_cell_length_c     11.450864
_cell_angle_alpha  76.992409
_cell_angle_beta   90.097036
_cell_angle_gamma 91.267376
loop_
_atom_site_label
_atom_site_type_symbol
_atom_site_fract_x
_atom_site_fract_y
_atom_site_fract_z
_atom_type_partial_charge
C0 C 0.81856 0.5133 0.35677 0.0
N1 N 0.85663 0.50631 0.36844 0.0
N2 N 0.80548 0.50616 0.25191 0.0
C3 C 0.79411 0.52736 0.44571 0.0
C4 C 0.83677 0.49476 0.20032 0.0
N5 N 0.86771 0.49448 0.27129 0.0
C6 C 0.83806 0.48774 0.07516 0.0
H7 H 0.80704 0.5203 0.53639 0.0
H8 H 0.765 0.51367 0.44881 0.0
H9 H 0.79118 0.55988 0.41639 0.0
H10 H 0.81021 0.49306 0.02838 0.0
H11 H 0.84607 0.4567 0.07952 0.0
H12 H 0.86041 0.50728 0.02199 0.0
C13 C 0.04477 0.75215 0.36276 0.0
N14 N 0.05301 0.78991 0.37017 0.0
N15 N 0.05993 0.74473 0.2613 0.0
C16 C 0.01978 0.72334 0.44858 0.0
C17 C 0.07755 0.77929 0.20809 0.0
N18 N 0.07276 0.80697 0.27256 0.0
C19 C 0.09242 0.7884 0.08118 0.0
H20 H 0.03148 0.69319 0.46178 0.0
H21 H 0.99075 0.72252 0.40961 0.0
H22 H 1.01759 0.73187 0.53605 0.0
H23 H 0.10496 0.76175 0.0594 0.0
H24 H 0.11435 0.81264 0.06763 0.0
H25 H 0.06834 0.79799 0.01881 0.0
C26 C 0.80459 0.02167 0.20646 0.0
N27 N 0.76599 0.02509 0.20011 0.0
N28 N 0.82053 0.03203 0.09511 0.0
C29 C 0.82611 1.00507 0.31951 0.0
C30 C 0.79004 0.04149 0.02165 0.0
N31 N 0.75706 0.03732 0.08516 0.0
C32 C 0.79244 0.05453 0.88737 0.0
H33 H 0.83223 0.02923 0.36642 0.0
H34 H 0.85366 0.99248 0.29989 0.0
H35 H 0.80856 0.98198 0.38032 0.0
H36 H 0.79112 0.0281 0.848 0.0
H37 H 0.81985 0.07077 0.85957 0.0
H38 H 0.76809 0.07367 0.85181 0.0
C39 C 0.5375 0.75179 0.23416 0.0
N40 N 0.53547 0.71241 0.23785 0.0
N41 N 0.53207 0.77318 0.1204 0.0
C42 C 0.54458 0.76928 0.34118 0.0
C43 C 0.52661 0.74514 0.05584 0.0
N44 N 0.52838 0.70842 0.12727 0.0
C45 C 0.52064 0.75363 0.92247 0.0
H46 H 0.55746 0.79949 0.31393 0.0
H47 H 0.56352 0.75041 0.40677 0.0
H48 H 0.51686 0.77105 0.38659 0.0
H49 H 0.54888 0.75453 0.8776 0.0
H50 H 0.50688 0.78259 0.89021 0.0
H51 H 0.50274 0.73013 0.89666 0.0
C52 C 0.26412 0.52346 0.26881 0.0
N53 N 0.2267 0.53282 0.25242 0.0
N54 N 0.27674 0.53038 0.37453 0.0
C55 C 0.28766 0.506 0.18506 0.0
C56 C 0.24579 0.54441 0.42102 0.0
N57 N 0.21544 0.54598 0.34702 0.0
C58 C 0.24416 0.55327 0.54392 0.0
H59 H 0.2828 0.47346 0.20652 0.0
H60 H 0.31862 0.51225 0.19537 0.0
H61 H 0.27884 0.51779 0.09085 0.0
H62 H 0.23181 0.58279 0.53807 0.0
H63 H 0.27282 0.55304 0.58572 0.0
H64 H 0.22513 0.53103 0.60244 0.0
C65 C 0.03532 0.28776 0.26157 0.0
N66 N 0.0278 0.24962 0.25659 0.0
N67 N 0.02143 0.2951 0.36485 0.0
C68 C 0.05802 0.31726 0.17053 0.0
C69 C 1.00541 0.26011 0.4218 0.0
N70 N 1.00974 0.23237 0.35738 0.0
C71 C 0.99269 0.25095 0.55097 0.0
H72 H 0.0589 0.30846 0.08324 0.0
H73 H 0.08766 0.31939 0.20379 0.0
H74 H 0.04533 0.34694 0.15868 0.0
H75 H 0.97213 0.22545 0.56952 0.0
H76 H 0.97918 0.27702 0.57337 0.0
H77 H 1.01806 0.24328 0.60939 0.0
C78 C 0.27418 1.01328 0.42247 0.0
N79 N 0.31281 1.01027 0.42893 0.0
N80 N 0.25858 1.0065 0.53431 0.0
C81 C 0.25221 0.02529 0.30781 0.0
C82 C 0.28929 0.99961 0.60799 0.0
N83 N 0.32206 1.00195 0.54407 0.0
C84 C 0.28725 0.99028 0.74264 0.0
H85 H 0.26948 0.04635 0.2397 0.0
H86 H 0.22469 0.03883 0.32279 0.0
H87 H 0.24599 0.99859 0.2723 0.0
H88 H 0.26069 0.97299 0.77453 0.0
H89 H 0.28671 1.01829 0.77386 0.0
H90 H 0.31257 0.97345 0.78237 0.0
C91 C 0.54149 0.28113 0.39534 0.0
N92 N 0.54334 0.32048 0.39203 0.0
N93 N 0.547 0.25968 0.50894 0.0
C94 C 0.53457 0.26373 0.28807 0.0
C95 C 0.55233 0.28764 0.57384 0.0
N96 N 0.5504 0.32441 0.50272 0.0
C97 C 0.55825 0.27901 0.70726 0.0
H98 H 0.51555 0.28254 0.22261 0.0
H99 H 0.52184 0.23344 0.31504 0.0
H100 H 0.56233 0.26216 0.24264 0.0
H101 H 0.5761 0.30246 0.73352 0.0
H102 H 0.57203 0.25005 0.73929 0.0
H103 H 0.52999 0.27802 0.75204 0.0
Co104 Co 0.05228 0.03802 0.87184 0.0
C105 C 0.97327 0.02291 0.90652 0.0
Co106 Co 0.02688 1.0007 0.75665 0.0
C107 C 0.05566 0.10856 0.96383 0.0
C108 C 0.10228 0.07087 0.02924 0.0
N109 N 0.0712 0.07369 0.95828 0.0
N110 N 0.0757 0.12783 0.03518 0.0
C111 C 0.10497 0.1039 0.07729 0.0
H112 H 0.02974 0.11942 0.91702 0.0
H113 H 0.12126 0.04602 0.047 0.0
C114 C 0.10585 1.01576 0.72201 0.0
N115 N 1.00789 0.96518 0.6697 0.0
C116 C 0.02284 0.92995 0.66511 0.0
C117 C 0.97774 0.96906 0.59481 0.0
N118 N 1.00338 0.91152 0.59032 0.0
C119 C 0.97508 0.93639 0.54522 0.0
C120 C 0.02577 0.07783 0.64669 0.0
O121 O 0.10158 0.03541 0.80243 0.0
O122 O 0.07684 0.99788 0.68985 0.0
O123 O 1.01589 0.04423 0.62895 0.0
O124 O 0.04091 0.08053 0.74528 0.0
O125 O 0.97747 1.00386 0.82454 0.0
H126 H 0.95955 0.99453 0.57483 0.0
H127 H 0.04808 0.91837 0.71457 0.0
O128 O 1.00239 0.04026 0.94017 0.0
O129 O 0.06403 0.99462 0.99825 0.0
O130 O 0.03775 0.95808 0.88446 0.0
C131 C 0.05393 0.96094 0.98152 0.0
H132 H 0.12588 0.10879 0.14252 0.0
H133 H 0.95501 0.93252 0.47655 0.0
Co134 Co 0.52577 0.02342 0.89411 0.0
C135 C 0.53684 0.9424 0.91417 0.0
Co136 Co 0.55388 1.00953 0.73475 0.0
C137 C 0.46246 0.02083 0.05822 0.0
C138 C 0.50759 0.05953 0.09205 0.0
N139 N 0.49821 0.03425 0.02234 0.0
N140 N 0.44898 0.03686 0.14681 0.0
C141 C 0.47748 0.06119 0.1684 0.0
H142 H 0.44603 1.00088 0.01636 0.0
H143 H 0.53419 0.07645 0.0857 0.0
C144 C 0.54277 0.0905 0.71455 0.0
N145 N 0.58127 0.99853 0.60555 0.0
C146 C 0.61857 1.00733 0.57645 0.0
C147 C 0.5687 0.97887 0.52342 0.0
N148 N 0.62991 0.99346 0.48103 0.0
C149 C 0.59825 0.97604 0.44648 0.0
C150 C 0.47609 1.01075 0.7136 0.0
O151 O 0.52808 0.07849 0.81853 0.0
O152 O 0.55617 0.06514 0.66125 0.0
O153 O 0.50591 1.00462 0.65754 0.0
O154 O 0.47934 1.01874 0.8157 0.0
O155 O 0.55147 0.95441 0.81008 0.0
H156 H 0.53988 0.96719 0.5194 0.0
H157 H 0.63736 0.02326 0.62521 0.0
O158 O 0.52361 0.96778 0.96766 0.0
O159 O 0.57343 0.02871 0.97128 0.0
O160 O 0.60043 1.01439 0.8139 0.0
C161 C 0.60348 0.02317 0.91519 0.0
H162 H 0.47659 0.07918 0.23426 0.0
H163 H 0.59608 0.96292 0.36947 0.0
Co164 Co 0.57109 0.51809 0.82064 0.0
C165 C 0.53697 0.45832 0.99822 0.0
Co166 Co 0.50816 0.51479 0.8094 0.0
C167 C 0.64173 0.51813 0.94886 0.0
C168 C 0.6511 0.53473 0.75918 0.0
N169 N 0.62351 0.52266 0.84247 0.0
N170 N 0.67935 0.52737 0.93529 0.0
C171 C 0.6855 0.53771 0.81612 0.0
H172 H 0.6275 0.50937 0.03499 0.0
H173 H 0.64641 0.54159 0.6634 0.0
C174 C 0.54214 0.57457 0.63169 0.0
N175 N 0.45581 0.51045 0.7878 0.0
C176 C 0.43772 0.51324 0.68187 0.0
C177 C 0.42788 0.50196 0.87123 0.0
N178 N 0.39962 0.50681 0.69564 0.0
C179 C 0.3933 0.4996 0.81481 0.0
C180 C 0.53158 0.5666 0.9444 0.0
O181 O 0.57315 0.56143 0.68243 0.0
O182 O 0.51073 0.55766 0.67211 0.0
O183 O 0.50135 0.55209 0.90729 0.0
O184 O 0.56388 0.55476 0.91795 0.0
O185 O 0.50596 0.47159 0.94773 0.0
H186 H 0.43241 0.49748 0.96678 0.0
H187 H 0.45246 0.51888 0.59649 0.0
O188 O 0.56843 0.47509 0.95762 0.0
O189 O 0.57796 0.4809 0.72238 0.0
O190 O 0.51538 0.47799 0.71249 0.0
C191 C 0.5477 0.46627 0.68567 0.0
H192 H 0.71295 0.54646 0.77342 0.0
H193 H 0.36556 0.49359 0.85792 0.0
Co194 Co 0.03842 0.55325 0.79852 0.0
C195 C 0.10463 0.52071 0.92452 0.0
Co196 Co 0.04529 0.48913 0.81909 0.0
C197 C 0.03915 0.61537 0.92077 0.0
C198 C 0.01877 0.6372 0.7425 0.0
N199 N 0.03251 0.6046 0.81624 0.0
N200 N 0.02975 0.65301 0.91698 0.0
C201 C 1.01718 0.66716 0.80419 0.0
H202 H 0.0498 0.5954 1.0001 0.0
H203 H 1.00996 0.63889 0.65093 0.0
C204 C 0.97931 0.52199 0.6922 0.0
N205 N 0.05109 0.43772 0.80156 0.0
C206 C 0.04322 0.42651 0.69837 0.0
C207 C 0.06585 0.40545 0.87429 0.0
N208 N 0.05282 0.38896 0.70217 0.0
C209 C 0.06689 0.37529 0.81328 0.0
C210 C 1.00408 0.50068 1.00229 0.0
O211 O 0.99164 0.55493 0.71021 0.0
O212 O 0.99852 0.49122 0.73248 0.0
O213 O 1.01732 0.47193 0.96424 0.0
O214 O 1.01056 0.5357 0.9426 0.0
O215 O 0.09244 0.48761 0.90709 0.0
H216 H 0.07574 0.40413 0.96465 0.0
H217 H 0.03165 0.44609 0.6197 0.0
O218 O 0.08498 0.55119 0.88521 0.0
O219 O 0.06657 0.57043 0.65328 0.0
O220 O 0.07285 0.50659 0.67491 0.0
C221 C 0.07946 0.54155 0.61497 0.0
H222 H 1.00796 0.69703 0.76808 0.0
H223 H 0.07685 0.34562 0.84843 0.0
C224 C 0.21097 0.03795 0.63959 0.0
C225 C 0.21949 1.0107 0.56976 0.0
C226 C 0.17418 0.03959 0.68709 0.0
C227 C 0.14422 1.0141 0.66625 0.0
H228 H 0.23324 0.05776 0.6591 0.0
H229 H 0.16934 0.06087 0.74141 0.0
S230 S 0.15188 0.9379 0.48584 0.0
N231 N 0.19531 0.95812 0.48013 0.0
N232 N 0.12582 0.96126 0.56719 0.0
C233 C 0.15224 0.98736 0.59343 0.0
C234 C 0.1899 0.98567 0.54563 0.0
C235 C 0.51924 0.20012 0.64564 0.0
C236 C 0.54518 0.21717 0.55377 0.0
C237 C 0.51865 0.15927 0.69647 0.0
C238 C 0.54369 0.1336 0.65647 0.0
H239 H 0.49942 0.21869 0.67904 0.0
H240 H 0.49825 0.14775 0.76761 0.0
S241 S 0.61742 0.16374 0.41805 0.0
N242 N 0.59698 0.20557 0.42605 0.0
N243 N 0.59521 0.12865 0.51806 0.0
C244 C 0.56938 0.15028 0.5629 0.0
C245 C 0.57027 0.19204 0.5124 0.0
C246 C 0.31093 0.48856 0.53728 0.0
C247 C 0.31233 0.52015 0.43557 0.0
C248 C 0.33953 0.48329 0.62223 0.0
C249 C 0.37116 0.5085 0.60337 0.0
H250 H 0.28536 0.46991 0.55528 0.0
H251 H 0.33651 0.46026 0.7032 0.0
S252 S 0.40372 0.59462 0.32096 0.0
N253 N 0.38204 0.55708 0.42683 0.0
N254 N 0.40329 0.56143 0.45196 0.0
C255 C 0.37359 0.53903 0.48459 0.0
C256 C 0.34393 0.5468 0.39997 0.0
C257 C 1.00813 0.35335 0.44492 0.0
C258 C 0.03399 0.32502 0.42593 0.0
C259 C 1.01511 0.37503 0.53285 0.0
C260 C 0.04785 0.36849 0.60636 0.0
H261 H 0.98135 0.35699 0.39632 0.0
H262 H 0.99374 0.39559 0.54761 0.0
S263 S 0.12576 0.29968 0.58364 0.0
N264 N 0.09453 0.29327 0.4808 0.0
N265 N 0.1079 0.33392 0.64619 0.0
C266 C 0.07479 0.34155 0.5838 0.0
C267 C 0.06783 0.31992 0.49332 0.0
C268 C 0.86727 1.00302 0.98012 0.0
C269 C 0.8595 0.02777 0.05849 0.0
C270 C 0.90408 1.00144 0.93274 0.0
C271 C 0.93483 0.02448 0.96216 0.0
H272 H 0.84443 0.98513 0.95397 0.0
H273 H 0.90829 0.98218 0.87164 0.0
S274 S 0.92931 0.09323 0.16801 0.0
N275 N 0.88521 0.07514 0.16601 0.0
N276 N 0.95474 0.07209 0.07914 0.0
C277 C 0.92752 0.04864 0.04351 0.0
C278 C 0.88983 0.05026 0.09126 0.0
C279 C 0.55991 0.8326 0.98306 0.0
C280 C 0.53401 0.81568 0.0752 0.0
C281 C 0.56063 0.87345 0.93207 0.0
C282 C 0.53576 0.89926 0.97218 0.0
H283 H 0.57962 0.81394 0.94961 0.0
H284 H 0.58098 0.88488 0.86075 0.0
S285 S 0.46206 0.86942 0.21082 0.0
N286 N 0.48234 0.82751 0.20292 0.0
N287 N 0.48433 0.90442 0.11069 0.0
C288 C 0.51007 0.88269 0.06587 0.0
C289 C 0.50905 0.84093 0.1165 0.0
C290 C 0.74116 0.4854 0.20003 0.0
C291 C 0.76919 0.51541 0.1945 0.0
C292 C 0.7104 0.49035 0.11908 0.0
C293 C 0.70745 0.52507 0.02848 0.0
H294 H 0.74439 0.45721 0.26262 0.0
H295 H 0.69017 0.46602 0.12237 0.0
S296 S 0.7717 0.61352 0.98469 0.0
N297 N 0.79053 0.58187 0.09889 0.0
N298 N 0.73314 0.59111 0.94532 0.0
C299 C 0.7342 0.55599 0.02657 0.0
C300 C 0.76499 0.55117 0.11011 0.0
C301 C 0.07107 0.68534 0.18468 0.0
C302 C 0.04695 0.71595 0.19661 0.0
C303 C 0.06437 0.66397 0.09591 0.0
C304 C 0.03385 0.67314 0.01408 0.0
H305 H 0.09638 0.67945 0.24 0.0
H306 H 0.08434 0.64139 0.08772 0.0
S307 S 0.96042 0.74846 0.01768 0.0
N308 N 0.98995 0.75261 0.12722 0.0
N309 N 0.97712 0.71257 0.96002 0.0
C310 C 1.00839 0.70239 0.02983 0.0
C311 C 1.01499 0.72371 0.12129 0.0
C312 C 0.9836 0.16429 0.42846 0.0
C313 C 1.01453 0.19149 0.41352 0.0
C314 C 0.98781 0.12563 0.49745 0.0
C315 C 0.02293 0.11399 0.55309 0.0
H316 H 0.95595 0.1735 0.39073 0.0
H317 H 0.9631 0.1057 0.51328 0.0
S318 S 0.11285 0.17388 0.53068 0.0
N319 N 0.08135 0.20382 0.45223 0.0
N320 N 0.08964 0.13139 0.5802 0.0
C321 C 0.05439 0.14045 0.53246 0.0
C322 C 0.05007 0.17929 0.46302 0.0
C323 C 0.38757 0.97608 0.57164 0.0
C324 C 0.36046 1.00374 0.5882 0.0
C325 C 0.42576 0.97921 0.60763 0.0
C326 C 0.43752 1.00981 0.66266 0.0
H327 H 0.37904 0.95185 0.53139 0.0
H328 H 0.44581 0.957 0.59584 0.0
S329 S 0.37801 0.09156 0.71504 0.0
N330 N 0.34847 0.06416 0.65323 0.0
N331 N 0.41967 0.06948 0.72534 0.0
C332 C 0.4107 0.03798 0.67735 0.0
C333 C 0.37224 0.03506 0.63915 0.0
C334 C 0.58383 0.37679 0.58142 0.0
C335 C 0.55021 0.36127 0.54062 0.0
C336 C 0.58336 0.41194 0.62306 0.0
C337 C 0.54919 0.43273 0.62468 0.0
H338 H 0.6104 0.36119 0.58297 0.0
H339 H 0.60965 0.42212 0.6577 0.0
S340 S 0.45414 0.40501 0.5171 0.0
N341 N 0.48262 0.36945 0.49901 0.0
N342 N 0.48135 0.43599 0.57272 0.0
C343 C 0.51575 0.41806 0.57862 0.0
C344 C 0.51636 0.3822 0.5377 0.0
C345 C 0.16335 0.58283 0.41507 0.0
C346 C 0.17628 0.5485 0.38304 0.0
C347 C 0.12926 0.58206 0.48066 0.0
C348 C 0.10701 0.54699 0.51414 0.0
H349 H 0.18115 0.60946 0.39688 0.0
H350 H 0.12206 0.60799 0.51327 0.0
S351 S 0.12513 0.45157 0.4304 0.0
N352 N 0.16258 0.48007 0.37883 0.0
N353 N 0.09684 0.47951 0.48976 0.0
C354 C 0.11741 0.51414 0.46872 0.0
C355 C 0.15259 0.51459 0.40639 0.0
C356 C 0.03258 0.85962 0.1657 0.0
C357 C 0.06825 0.84779 0.21561 0.0
C358 C 0.02787 0.89747 0.09554 0.0
C359 C 0.05866 0.9248 0.07396 0.0
H360 H 1.00871 0.83864 0.17678 0.0
H361 H 1.00028 0.90496 0.05409 0.0
S362 S 0.15732 0.90857 0.19062 0.0
N363 N 0.13439 0.86608 0.24446 0.0
N364 N 0.12556 0.93838 0.11223 0.0
C365 C 0.09407 0.91409 0.12851 0.0
C366 C 0.09892 0.8751 0.19941 0.0
C367 C 0.70936 1.00864 0.96976 0.0
C368 C 0.71891 0.0363 0.03799 0.0
C369 C 0.67174 1.00434 0.93221 0.0
C370 C 0.64216 0.02704 0.9636 0.0
H371 H 0.73108 0.98966 0.94753 0.0
H372 H 0.6657 0.98271 0.87914 0.0
S373 S 0.65292 0.10476 0.13721 0.0
N374 N 0.69665 0.08815 0.13045 0.0
N375 N 0.62517 0.0788 0.06493 0.0
C376 C 0.65132 0.05476 0.03229 0.0
C377 C 0.68993 0.05974 0.06809 0.0
C378 C 0.49505 0.65553 0.05078 0.0
C379 C 0.52872 0.67154 0.08961 0.0
C380 C 0.49568 0.62039 1.00913 0.0
C381 C 0.53007 0.60014 1.0054 0.0
H382 H 0.46831 0.67074 0.05078 0.0
H383 H 0.4693 0.6098 0.97615 0.0
S384 S 0.62539 0.6293 0.10749 0.0
N385 N 0.59661 0.66437 0.12748 0.0
N386 N 0.59824 0.59793 0.05331 0.0
C387 C 0.5636 0.61531 0.04954 0.0
C388 C 0.56281 0.65112 0.09062 0.0
C389 C 0.91942 0.45875 0.19734 0.0
C390 C 0.90669 0.49256 0.23283 0.0
C391 C 0.95364 0.45988 0.13231 0.0
C392 C 0.97613 0.49486 0.10203 0.0
H393 H 0.90147 0.43224 0.21305 0.0
H394 H 0.9608 0.43434 0.09768 0.0
S395 S 0.95815 0.58913 0.193 0.0
N396 N 0.92061 0.56049 0.24263 0.0
N397 N 0.98636 0.56179 0.13102 0.0
C398 C 0.96568 0.52727 0.14949 0.0
C399 C 0.93047 0.52641 0.21202 0.0
C400 C 1.01424 0.20354 0.12793 0.0
C401 C 0.04096 0.22746 0.17228 0.0
C402 C 0.02584 0.17231 0.07813 0.0
C403 C 0.06483 0.16357 0.07095 0.0
H404 H 0.98392 0.20735 0.14002 0.0
H405 H 1.00388 0.15343 0.05221 0.0
S406 S 0.14652 0.22065 0.16124 0.0
N407 N 0.10821 0.24249 0.1975 0.0
N408 N 0.13042 0.18465 0.10006 0.0
C409 C 0.09204 0.18913 0.10726 0.0
C410 C 0.08005 0.22095 0.15842 0.0
C411 C 0.36005 0.05607 0.3097 0.0
C412 C 0.34075 0.01922 0.33367 0.0
C413 C 0.39464 0.06198 0.24508 0.0
C414 C 0.4115 0.03107 0.20306 0.0
H415 H 0.34937 0.07973 0.34738 0.0
H416 H 0.40882 0.09071 0.23089 0.0
S417 S 0.37143 0.92881 0.24372 0.0
N418 N 0.33985 0.95183 0.30918 0.0
N419 N 0.40523 0.9621 0.19004 0.0
C420 C 0.3915 0.99439 0.22312 0.0
C421 C 0.35606 0.98869 0.28785 0.0
C422 C 0.57369 0.37746 0.25354 0.0
C423 C 0.54124 0.35316 0.28902 0.0
C424 C 0.57187 0.41138 0.16018 0.0
C425 C 0.53728 0.42272 0.09954 0.0
H426 H 0.60063 0.37018 0.29925 0.0
H427 H 0.59787 0.42896 0.13603 0.0
S428 S 0.44353 0.36951 0.16464 0.0
N429 N 0.47334 0.34288 0.26069 0.0
N430 N 0.4694 0.4067 0.08535 0.0
C431 C 0.5044 0.39867 0.13575 0.0
C432 C 0.5065 0.36388 0.23033 0.0
C433 C 0.19147 0.49382 0.12804 0.0
C434 C 0.20229 0.53049 0.15243 0.0
C435 C 0.16061 0.49076 0.05089 0.0
C436 C 0.1402 0.52445 0.99395 0.0
H437 H 0.20513 0.46712 0.17538 0.0
H438 H 0.15179 0.4617 0.03966 0.0
S439 S 0.16351 0.62816 1.01235 0.0
N440 N 0.19414 0.60119 0.10405 0.0
N441 N 0.13753 0.59652 0.95566 0.0
C442 C 0.15336 0.56167 1.01048 0.0
C443 C 0.18412 0.56441 0.09029 0.0
C444 C 0.06493 0.83454 0.50438 0.0
C445 C 0.03868 0.81216 0.45254 0.0
C446 C 0.05301 0.86564 0.55427 0.0
C447 C 1.01417 0.87583 0.55397 0.0
H448 H 0.09531 0.8296 0.49859 0.0
H449 H 0.0748 0.88327 0.58644 0.0
S450 S 0.93349 0.82342 0.43932 0.0
N451 N 0.972 0.80057 0.40939 0.0
N452 N 0.94897 0.85776 0.50825 0.0
C453 C 0.98727 0.85184 0.5093 0.0
C454 C 0.99963 0.82027 0.45762 0.0
C455 C 0.72575 0.03818 0.36287 0.0
C456 C 0.73797 1.01205 0.29386 0.0
C457 C 0.69107 0.03127 0.42736 0.0
C458 C 0.66753 0.99779 0.42554 0.0
H459 H 0.74163 0.06558 0.35926 0.0
H460 H 0.68167 0.05348 0.47317 0.0
S461 S 0.69108 0.91719 0.27385 0.0
N462 N 0.72679 0.94966 0.2376 0.0
N463 N 0.66246 0.9355 0.36145 0.0
C464 C 0.68135 0.96991 0.36421 0.0
C465 C 0.71643 0.97724 0.29825 0.0
C466 C 0.5052 0.65545 0.37672 0.0
C467 C 0.53763 0.67976 0.34093 0.0
C468 C 0.5071 0.62152 0.47004 0.0
C469 C 0.54175 0.61017 0.53035 0.0
H470 H 0.47821 0.66273 0.33129 0.0
H471 H 0.48111 0.60395 0.49447 0.0
S472 S 0.63548 0.66334 0.46413 0.0
N473 N 0.60559 0.68998 0.3684 0.0
N474 N 0.60966 0.62618 0.54377 0.0
C475 C 0.57461 0.63422 0.49377 0.0
C476 C 0.57243 0.669 0.39918 0.0
C477 C 0.90423 0.47754 0.51837 0.0
C478 C 0.88189 0.50984 0.46556 0.0
C479 C 0.93454 0.48165 0.59491 0.0
C480 C 0.9442 0.51853 0.6209 0.0
H481 H 0.89907 0.44914 0.49609 0.0
H482 H 0.95141 0.45581 0.63022 0.0
S483 S 0.89313 0.61225 0.50799 0.0
N484 N 0.87002 0.57959 0.44737 0.0
N485 N 0.92733 0.58777 0.59106 0.0
C486 C 0.92095 0.55088 0.57233 0.0
C487 C 0.88964 0.54642 0.4951 0.0
loop_
_geom_bond_atom_site_label_1
_geom_bond_atom_site_label_2
_geom_bond_distance
_geom_bond_site_symmetry_2
_ccdc_geom_bond_type
C0 N1 1.317 . S
C0 N2 1.348 . S
C0 C3 1.485 . S
N1 C0 1.317 . S
N1 N5 1.370 . S
N2 C0 1.348 . S
N2 C4 1.346 . S
C3 C0 1.485 . S
C3 H7 0.960 . S
C3 H8 0.961 . S
C3 H9 0.960 . S
C4 N2 1.346 . S
C4 N5 1.307 . S
C4 C6 1.486 1_554 S
N5 N1 1.370 . S
N5 C4 1.307 . S
C6 C4 1.486 1_556 S
C6 H10 0.960 . S
C6 H11 0.960 . S
C6 H12 0.959 . S
H7 C3 0.960 . S
H8 C3 0.961 . S
H9 C3 0.960 . S
H10 C6 0.960 . S
H11 C6 0.960 . S
H12 C6 0.959 . S
C13 N14 1.317 . S
C13 N15 1.348 . S
C13 C16 1.485 . S
N14 C13 1.317 . S
N14 N18 1.370 . S
N15 C13 1.348 . S
N15 C17 1.346 1_554 S
C16 C13 1.485 . S
C16 H20 0.960 . S
C16 H21 0.961 . S
C16 H22 0.960 . S
C17 N15 1.346 1_556 S
C17 N18 1.307 1_556 S
C17 C19 1.486 . S
N18 N14 1.370 . S
N18 C17 1.307 1_554 S
C19 C17 1.486 . S
C19 H23 0.960 . S
C19 H24 0.960 . S
C19 H25 0.959 . S
H20 C16 0.960 . S
H21 C16 0.961 . S
H22 C16 0.960 . S
H23 C19 0.960 . S
H24 C19 0.960 . S
H25 C19 0.959 . S
C26 N27 1.317 . S
C26 N28 1.348 . S
C26 C29 1.485 . S
N27 C26 1.317 . S
N27 N31 1.368 1_554 S
N28 C26 1.348 . S
N28 C30 1.346 1_564 S
C29 C26 1.485 . S
C29 H33 0.960 1_565 S
C29 H34 0.961 . S
C29 H35 0.960 . S
C30 N28 1.346 1_546 S
C30 N31 1.309 1_545 S
C30 C32 1.485 . S
N31 N27 1.368 1_556 S
N31 C30 1.309 1_565 S
C32 C30 1.485 . S
C32 H36 0.960 1_545 S
C32 H37 0.960 . S
C32 H38 0.959 . S
H33 C29 0.960 1_545 S
H34 C29 0.961 . S
H35 C29 0.960 . S
H36 C32 0.960 1_565 S
H37 C32 0.960 . S
H38 C32 0.959 . S
C39 N40 1.317 . S
C39 N41 1.348 . S
C39 C42 1.485 . S
N40 C39 1.317 . S
N40 N44 1.370 . S
N41 C39 1.348 . S
N41 C43 1.346 . S
C42 C39 1.485 . S
C42 H46 0.960 . S
C42 H47 0.961 . S
C42 H48 0.960 . S
C43 N41 1.346 . S
C43 N44 1.307 . S
C43 C45 1.486 1_554 S
N44 N40 1.370 . S
N44 C43 1.307 . S
C45 C43 1.486 1_556 S
C45 H49 0.960 . S
C45 H50 0.960 . S
C45 H51 0.959 . S
H46 C42 0.960 . S
H47 C42 0.961 . S
H48 C42 0.960 . S
H49 C45 0.960 . S
H50 C45 0.960 . S
H51 C45 0.959 . S
C52 N53 1.317 . S
C52 N54 1.348 . S
C52 C55 1.485 . S
N53 C52 1.317 . S
N53 N57 1.370 . S
N54 C52 1.348 . S
N54 C56 1.346 . S
C55 C52 1.485 . S
C55 H59 0.960 . S
C55 H60 0.961 . S
C55 H61 0.960 . S
C56 N54 1.346 . S
C56 N57 1.307 . S
C56 C58 1.486 . S
N57 N53 1.370 . S
N57 C56 1.307 . S
C58 C56 1.486 . S
C58 H62 0.960 . S
C58 H63 0.960 . S
C58 H64 0.959 . S
H59 C55 0.960 . S
H60 C55 0.961 . S
H61 C55 0.960 . S
H62 C58 0.960 . S
H63 C58 0.960 . S
H64 C58 0.959 . S
C65 N66 1.317 . S
C65 N67 1.348 . S
C65 C68 1.485 . S
N66 C65 1.317 . S
N66 N70 1.370 . S
N67 C65 1.348 . S
N67 C69 1.346 . S
C68 C65 1.485 . S
C68 H72 0.960 . S
C68 H73 0.961 . S
C68 H74 0.960 . S
C69 N67 1.346 . S
C69 N70 1.307 . S
C69 C71 1.486 . S
N70 N66 1.370 . S
N70 C69 1.307 . S
C71 C69 1.486 . S
C71 H75 0.960 . S
C71 H76 0.960 . S
C71 H77 0.959 . S
H72 C68 0.960 . S
H73 C68 0.961 . S
H74 C68 0.960 . S
H75 C71 0.960 . S
H76 C71 0.960 . S
H77 C71 0.959 . S
C78 N79 1.317 . S
C78 N80 1.348 . S
C78 C81 1.485 . S
N79 C78 1.317 . S
N79 N83 1.372 . S
N80 C78 1.348 . S
N80 C82 1.345 1_565 S
C81 C78 1.485 . S
C81 H85 0.960 1_565 S
C81 H86 0.961 . S
C81 H87 0.960 . S
C82 N80 1.345 1_545 S
C82 N83 1.305 1_545 S
C82 C84 1.489 . S
N83 N79 1.372 . S
N83 C82 1.305 1_565 S
C84 C82 1.489 . S
C84 H88 0.960 1_545 S
C84 H89 0.960 . S
C84 H90 0.959 . S
H85 C81 0.960 1_545 S
H86 C81 0.961 . S
H87 C81 0.960 . S
H88 C84 0.960 1_565 S
H89 C84 0.960 . S
H90 C84 0.959 . S
C91 N92 1.317 . S
C91 N93 1.348 . S
C91 C94 1.485 . S
N92 C91 1.317 . S
N92 N96 1.370 . S
N93 C91 1.348 . S
N93 C95 1.346 . S
C94 C91 1.485 . S
C94 H98 0.960 . S
C94 H99 0.961 . S
C94 H100 0.960 . S
C95 N93 1.346 . S
C95 N96 1.307 . S
C95 C97 1.486 . S
N96 N92 1.370 . S
N96 C95 1.307 . S
C97 C95 1.486 . S
C97 H101 0.960 . S
C97 H102 0.960 . S
C97 H103 0.959 . S
H98 C94 0.960 . S
H99 C94 0.961 . S
H100 C94 0.960 . S
H101 C97 0.960 . S
H102 C97 0.960 . S
H103 C97 0.959 . S
Co104 N109 2.057 1_556 S
Co104 O121 2.021 . S
Co104 O124 2.062 . S
Co104 O128 2.117 1_455 S
Co104 O129 2.020 1_545 S
C105 O125 1.259 1_545 S
C105 O128 1.258 . S
Co106 N115 2.057 . S
Co106 O122 2.117 . S
Co106 O123 2.020 1_565 S
Co106 O125 2.021 1_455 S
Co106 O130 2.062 . S
C107 N109 1.316 . S
C107 N110 1.347 . S
C107 H112 0.931 . S
C108 N109 1.375 . S
C108 C111 1.350 . S
C108 H113 0.930 1_455 S
N109 Co104 2.057 1_554 S
N109 C107 1.316 . S
N109 C108 1.375 . S
N110 C107 1.347 . S
N110 C111 1.373 . S
C111 C108 1.350 . S
C111 N110 1.373 . S
C111 H132 0.931 1_455 S
H112 C107 0.931 . S
H113 C108 0.930 1_655 S
C114 O121 1.259 1_565 S
C114 O122 1.258 . S
N115 Co106 2.057 . S
N115 C116 1.316 1_455 S
N115 C117 1.375 . S
C116 N115 1.316 1_655 S
C116 N118 1.347 . S
C116 H127 0.931 . S
C117 N115 1.375 . S
C117 C119 1.350 . S
C117 H126 0.930 . S
N118 C116 1.347 . S
N118 C119 1.373 1_655 S
C119 C117 1.350 . S
C119 N118 1.373 1_455 S
C119 H133 0.931 . S
C120 O123 1.256 . S
C120 O124 1.255 . S
O121 Co104 2.021 . S
O121 C114 1.259 1_545 S
O122 Co106 2.117 . S
O122 C114 1.258 . S
O123 Co106 2.020 1_545 S
O123 C120 1.256 . S
O124 Co104 2.062 . S
O124 C120 1.255 . S
O125 C105 1.259 1_565 S
O125 Co106 2.021 1_655 S
H126 C117 0.930 . S
H127 C116 0.931 . S
O128 Co104 2.117 1_655 S
O128 C105 1.258 . S
O129 Co104 2.020 1_565 S
O129 C131 1.256 . S
O130 Co106 2.062 . S
O130 C131 1.255 . S
C131 O129 1.256 . S
C131 O130 1.255 . S
H132 C111 0.931 1_655 S
H133 C119 0.931 . S
Co134 N139 2.057 1_546 S
Co134 O151 2.021 . S
Co134 O154 2.062 . S
Co134 O158 2.117 1_545 S
Co134 O159 2.020 . S
C135 O155 1.259 . S
C135 O158 1.258 . S
Co136 N145 2.057 1_565 S
Co136 O152 2.117 1_565 S
Co136 O153 2.020 . S
Co136 O155 2.021 . S
Co136 O160 2.062 . S
C137 N139 1.316 1_545 S
C137 N140 1.347 . S
C137 H142 0.931 . S
C138 N139 1.375 . S
C138 C141 1.350 . S
C138 H143 0.930 . S
N139 Co134 2.057 1_564 S
N139 C137 1.316 1_565 S
N139 C138 1.375 . S
N140 C137 1.347 . S
N140 C141 1.373 1_545 S
C141 C138 1.350 . S
C141 N140 1.373 1_565 S
C141 H162 0.931 . S
H142 C137 0.931 . S
H143 C138 0.930 . S
C144 O151 1.259 . S
C144 O152 1.258 . S
N145 Co136 2.057 1_545 S
N145 C146 1.316 1_545 S
N145 C147 1.375 . S
C146 N145 1.316 1_565 S
C146 N148 1.347 . S
C146 H157 0.931 . S
C147 N145 1.375 . S
C147 C149 1.350 . S
C147 H156 0.930 . S
N148 C146 1.347 . S
N148 C149 1.373 1_565 S
C149 C147 1.350 . S
C149 N148 1.373 1_545 S
C149 H163 0.931 . S
C150 O153 1.256 . S
C150 O154 1.255 1_565 S
O151 Co134 2.021 . S
O151 C144 1.259 . S
O152 Co136 2.117 1_545 S
O152 C144 1.258 . S
O153 Co136 2.020 . S
O153 C150 1.256 . S
O154 Co134 2.062 . S
O154 C150 1.255 1_545 S
O155 C135 1.259 . S
O155 Co136 2.021 . S
H156 C147 0.930 . S
H157 C146 0.931 . S
O158 Co134 2.117 1_565 S
O158 C135 1.258 . S
O159 Co134 2.020 . S
O159 C161 1.256 . S
O160 Co136 2.062 . S
O160 C161 1.255 1_565 S
C161 O159 1.256 . S
C161 O160 1.255 1_545 S
H162 C141 0.931 . S
H163 C149 0.931 . S
Co164 N169 2.057 . S
Co164 O181 2.021 . S
Co164 O184 2.062 . S
Co164 O188 2.117 . S
Co164 O189 2.020 . S
C165 O185 1.259 . S
C165 O188 1.258 . S
Co166 N175 2.057 . S
Co166 O182 2.117 . S
Co166 O183 2.020 . S
Co166 O185 2.021 . S
Co166 O190 2.062 . S
C167 N169 1.316 . S
C167 N170 1.347 . S
C167 H172 0.931 . S
C168 N169 1.375 . S
C168 C171 1.350 1_556 S
C168 H173 0.930 1_556 S
N169 Co164 2.057 . S
N169 C167 1.316 . S
N169 C168 1.375 . S
N170 C167 1.347 . S
N170 C171 1.373 1_556 S
C171 C168 1.350 1_554 S
C171 N170 1.373 1_554 S
C171 H192 0.931 . S
H172 C167 0.931 . S
H173 C168 0.930 1_554 S
C174 O181 1.259 . S
C174 O182 1.258 . S
N175 Co166 2.057 . S
N175 C176 1.316 . S
N175 C177 1.375 . S
C176 N175 1.316 . S
C176 N178 1.347 . S
C176 H187 0.931 . S
C177 N175 1.375 . S
C177 C179 1.350 . S
C177 H186 0.930 . S
N178 C176 1.347 . S
N178 C179 1.373 . S
C179 C177 1.350 . S
C179 N178 1.373 . S
C179 H193 0.931 . S
C180 O183 1.256 . S
C180 O184 1.255 . S
O181 Co164 2.021 . S
O181 C174 1.259 . S
O182 Co166 2.117 . S
O182 C174 1.258 . S
O183 Co166 2.020 . S
O183 C180 1.256 . S
O184 Co164 2.062 . S
O184 C180 1.255 . S
O185 C165 1.259 . S
O185 Co166 2.021 . S
H186 C177 0.930 . S
H187 C176 0.931 . S
O188 Co164 2.117 . S
O188 C165 1.258 . S
O189 Co164 2.020 . S
O189 C191 1.256 . S
O190 Co166 2.062 . S
O190 C191 1.255 . S
C191 O189 1.256 . S
C191 O190 1.255 . S
H192 C171 0.931 . S
H193 C179 0.931 . S
Co194 N199 2.057 . S
Co194 O211 2.021 1_455 S
Co194 O214 2.062 1_455 S
Co194 O218 2.117 . S
Co194 O219 2.020 . S
C195 O215 1.259 . S
C195 O218 1.258 . S
Co196 N205 2.057 . S
Co196 O212 2.117 1_455 S
Co196 O213 2.020 1_455 S
Co196 O215 2.021 . S
Co196 O220 2.062 . S
C197 N199 1.316 . S
C197 N200 1.347 . S
C197 H202 0.931 1_455 S
C198 N199 1.375 . S
C198 C201 1.350 . S
C198 H203 0.930 . S
N199 Co194 2.057 . S
N199 C197 1.316 . S
N199 C198 1.375 . S
N200 C197 1.347 . S
N200 C201 1.373 . S
C201 C198 1.350 . S
C201 N200 1.373 . S
C201 H222 0.931 . S
H202 C197 0.931 1_655 S
H203 C198 0.930 . S
C204 O211 1.259 . S
C204 O212 1.258 . S
N205 Co196 2.057 . S
N205 C206 1.316 . S
N205 C207 1.375 1_455 S
C206 N205 1.316 . S
C206 N208 1.347 . S
C206 H217 0.931 . S
C207 N205 1.375 1_655 S
C207 C209 1.350 1_655 S
C207 H216 0.930 . S
N208 C206 1.347 . S
N208 C209 1.373 . S
C209 C207 1.350 1_455 S
C209 N208 1.373 . S
C209 H223 0.931 1_455 S
C210 O213 1.256 . S
C210 O214 1.255 . S
O211 Co194 2.021 1_655 S
O211 C204 1.259 . S
O212 Co196 2.117 1_655 S
O212 C204 1.258 . S
O213 Co196 2.020 1_655 S
O213 C210 1.256 . S
O214 Co194 2.062 1_655 S
O214 C210 1.255 . S
O215 C195 1.259 . S
O215 Co196 2.021 . S
H216 C207 0.930 . S
H217 C206 0.931 . S
O218 Co194 2.117 . S
O218 C195 1.258 . S
O219 Co194 2.020 . S
O219 C221 1.256 . S
O220 Co196 2.062 . S
O220 C221 1.255 . S
C221 O219 1.256 . S
C221 O220 1.255 . S
H222 C201 0.931 . S
H223 C209 0.931 1_655 S
C224 C225 1.369 1_545 S
C224 C226 1.419 . S
C224 H228 0.930 . S
C225 C224 1.369 1_565 S
C225 C234 1.429 . S
C226 C224 1.419 . S
C226 C227 1.363 1_545 S
C226 H229 0.929 . S
C227 C226 1.363 1_565 S
C227 C233 1.428 . S
H228 C224 0.930 . S
H229 C226 0.929 . S
S230 N231 1.613 . S
S230 N232 1.610 . S
N231 S230 1.613 . S
N231 C234 1.350 . S
N232 S230 1.610 . S
N232 C233 1.351 . S
C233 C227 1.428 . S
C233 N232 1.351 . S
C233 C234 1.434 . S
C234 C225 1.429 . S
C234 N231 1.350 . S
C234 C233 1.434 . S
C235 C236 1.369 . S
C235 C237 1.419 . S
C235 H239 0.930 . S
C236 C235 1.369 . S
C236 C245 1.429 . S
C237 C235 1.419 . S
C237 C238 1.363 . S
C237 H240 0.929 . S
C238 C237 1.363 . S
C238 C244 1.428 . S
H239 C235 0.930 . S
H240 C237 0.929 . S
S241 N242 1.613 . S
S241 N243 1.610 . S
N242 S241 1.613 . S
N242 C245 1.350 . S
N243 S241 1.610 . S
N243 C244 1.351 . S
C244 C238 1.428 . S
C244 N243 1.351 . S
C244 C245 1.434 . S
C245 C236 1.429 . S
C245 N242 1.350 . S
C245 C244 1.434 . S
C246 C247 1.369 . S
C246 C248 1.419 . S
C246 H250 0.930 . S
C247 C246 1.369 . S
C247 C256 1.429 . S
C248 C246 1.419 . S
C248 C249 1.363 . S
C248 H251 0.929 . S
C249 C248 1.363 . S
C249 C255 1.428 . S
H250 C246 0.930 . S
H251 C248 0.929 . S
S252 N253 1.613 . S
S252 N254 1.610 . S
N253 S252 1.613 . S
N253 C256 1.350 . S
N254 S252 1.610 . S
N254 C255 1.351 . S
C255 C249 1.428 . S
C255 N254 1.351 . S
C255 C256 1.434 . S
C256 C247 1.429 . S
C256 N253 1.350 . S
C256 C255 1.434 . S
C257 C258 1.369 . S
C257 C259 1.419 . S
C257 H261 0.930 . S
C258 C257 1.369 . S
C258 C267 1.429 . S
C259 C257 1.419 . S
C259 C260 1.363 . S
C259 H262 0.929 . S
C260 C259 1.363 . S
C260 C266 1.428 . S
H261 C257 0.930 . S
H262 C259 0.929 . S
S263 N264 1.613 . S
S263 N265 1.610 . S
N264 S263 1.613 . S
N264 C267 1.350 . S
N265 S263 1.610 . S
N265 C266 1.351 . S
C266 C260 1.428 . S
C266 N265 1.351 . S
C266 C267 1.434 . S
C267 C258 1.429 . S
C267 N264 1.350 . S
C267 C266 1.434 . S
C268 C269 1.369 . S
C268 C270 1.419 . S
C268 H272 0.930 . S
C269 C268 1.369 . S
C269 C278 1.429 1_546 S
C270 C268 1.419 . S
C270 C271 1.363 . S
C270 H273 0.929 . S
C271 C270 1.363 . S
C271 C277 1.428 1_545 S
H272 C268 0.930 . S
H273 C270 0.929 . S
S274 N275 1.613 . S
S274 N276 1.610 . S
N275 S274 1.613 . S
N275 C278 1.350 . S
N276 S274 1.610 . S
N276 C277 1.351 1_554 S
C277 C271 1.428 1_565 S
C277 N276 1.351 1_556 S
C277 C278 1.434 1_556 S
C278 C269 1.429 1_564 S
C278 N275 1.350 . S
C278 C277 1.434 1_554 S
C279 C280 1.369 . S
C279 C281 1.419 . S
C279 H283 0.930 . S
C280 C279 1.369 . S
C280 C289 1.429 1_554 S
C281 C279 1.419 . S
C281 C282 1.363 1_554 S
C281 H284 0.929 . S
C282 C281 1.363 1_556 S
C282 C288 1.428 . S
H283 C279 0.930 . S
H284 C281 0.929 . S
S285 N286 1.613 . S
S285 N287 1.610 . S
N286 S285 1.613 . S
N286 C289 1.350 . S
N287 S285 1.610 . S
N287 C288 1.351 . S
C288 C282 1.428 . S
C288 N287 1.351 . S
C288 C289 1.434 . S
C289 C280 1.429 1_556 S
C289 N286 1.350 . S
C289 C288 1.434 . S
C290 C291 1.369 . S
C290 C292 1.419 . S
C290 H294 0.930 . S
C291 C290 1.369 . S
C291 C300 1.429 . S
C292 C290 1.419 . S
C292 C293 1.363 1_554 S
C292 H295 0.929 . S
C293 C292 1.363 1_556 S
C293 C299 1.428 . S
H294 C290 0.930 . S
H295 C292 0.929 . S
S296 N297 1.613 1_556 S
S296 N298 1.610 . S
N297 S296 1.613 1_554 S
N297 C300 1.350 . S
N298 S296 1.610 . S
N298 C299 1.351 . S
C299 C293 1.428 . S
C299 N298 1.351 . S
C299 C300 1.434 1_556 S
C300 C291 1.429 . S
C300 N297 1.350 . S
C300 C299 1.434 1_554 S
C301 C302 1.369 1_456 S
C301 C303 1.419 . S
C301 H305 0.930 . S
C302 C301 1.369 1_654 S
C302 C311 1.427 1_554 S
C303 C301 1.419 . S
C303 C304 1.363 1_455 S
C303 H306 0.929 . S
C304 C303 1.363 1_655 S
C304 C310 1.428 . S
H305 C301 0.930 . S
H306 C303 0.929 . S
S307 N308 1.613 . S
S307 N309 1.610 1_554 S
N308 S307 1.613 . S
N308 C311 1.348 1_554 S
N309 S307 1.610 1_556 S
N309 C310 1.351 . S
C310 C304 1.428 . S
C310 N309 1.351 . S
C310 C311 1.438 . S
C311 C302 1.427 1_556 S
C311 N308 1.348 1_556 S
C311 C310 1.438 . S
C312 C313 1.369 . S
C312 C314 1.419 . S
C312 H316 0.930 . S
C313 C312 1.369 . S
C313 C322 1.429 . S
C314 C312 1.419 . S
C314 C315 1.363 . S
C314 H317 0.929 1_455 S
C315 C314 1.363 . S
C315 C321 1.428 . S
H316 C312 0.930 . S
H317 C314 0.929 1_655 S
S318 N319 1.613 . S
S318 N320 1.610 . S
N319 S318 1.613 . S
N319 C322 1.350 . S
N320 S318 1.610 . S
N320 C321 1.351 . S
C321 C315 1.428 . S
C321 N320 1.351 . S
C321 C322 1.434 . S
C322 C313 1.429 . S
C322 N319 1.350 . S
C322 C321 1.434 . S
C323 C324 1.373 . S
C323 C325 1.419 . S
C323 H327 0.930 . S
C324 C323 1.373 . S
C324 C333 1.426 1_565 S
C325 C323 1.419 . S
C325 C326 1.363 . S
C325 H328 0.929 . S
C326 C325 1.363 . S
C326 C332 1.428 1_565 S
H327 C323 0.930 . S
H328 C325 0.929 . S
S329 N330 1.613 . S
S329 N331 1.610 . S
N330 S329 1.613 . S
N330 C333 1.350 . S
N331 S329 1.610 . S
N331 C332 1.351 . S
C332 C326 1.428 1_545 S
C332 N331 1.351 . S
C332 C333 1.434 . S
C333 C324 1.426 1_545 S
C333 N330 1.350 . S
C333 C332 1.434 . S
C334 C335 1.369 . S
C334 C336 1.419 . S
C334 H338 0.930 . S
C335 C334 1.369 . S
C335 C344 1.429 . S
C336 C334 1.419 . S
C336 C337 1.363 . S
C336 H339 0.929 . S
C337 C336 1.363 . S
C337 C343 1.428 . S
H338 C334 0.930 . S
H339 C336 0.929 . S
S340 N341 1.613 . S
S340 N342 1.610 . S
N341 S340 1.613 . S
N341 C344 1.350 . S
N342 S340 1.610 . S
N342 C343 1.351 . S
C343 C337 1.428 . S
C343 N342 1.351 . S
C343 C344 1.434 . S
C344 C335 1.429 . S
C344 N341 1.350 . S
C344 C343 1.434 . S
C345 C346 1.369 . S
C345 C347 1.419 . S
C345 H349 0.930 . S
C346 C345 1.369 . S
C346 C355 1.429 . S
C347 C345 1.419 . S
C347 C348 1.363 . S
C347 H350 0.929 . S
C348 C347 1.363 . S
C348 C354 1.428 . S
H349 C345 0.930 . S
H350 C347 0.929 . S
S351 N352 1.613 . S
S351 N353 1.610 . S
N352 S351 1.613 . S
N352 C355 1.350 . S
N353 S351 1.610 . S
N353 C354 1.351 . S
C354 C348 1.428 . S
C354 N353 1.351 . S
C354 C355 1.434 . S
C355 C346 1.429 . S
C355 N352 1.350 . S
C355 C354 1.434 . S
C356 C357 1.374 . S
C356 C358 1.419 . S
C356 H360 0.930 . S
C357 C356 1.374 . S
C357 C366 1.424 1_556 S
C358 C356 1.419 . S
C358 C359 1.363 1_655 S
C358 H361 0.929 . S
C359 C358 1.363 1_455 S
C359 C365 1.428 1_556 S
H360 C356 0.930 . S
H361 C358 0.929 . S
S362 N363 1.613 . S
S362 N364 1.610 . S
N363 S362 1.613 . S
N363 C366 1.350 1_455 S
N364 S362 1.610 . S
N364 C365 1.351 . S
C365 C359 1.428 1_554 S
C365 N364 1.351 . S
C365 C366 1.434 1_455 S
C366 C357 1.424 1_554 S
C366 N363 1.350 1_655 S
C366 C365 1.434 1_655 S
C367 C368 1.372 1_564 S
C367 C369 1.419 . S
C367 H371 0.930 . S
C368 C367 1.372 1_546 S
C368 C377 1.429 . S
C369 C367 1.419 . S
C369 C370 1.363 1_564 S
C369 H372 0.928 . S
C370 C369 1.363 1_546 S
C370 C376 1.428 . S
H371 C367 0.930 . S
H372 C369 0.928 . S
S373 N374 1.613 . S
S373 N375 1.610 . S
N374 S373 1.613 . S
N374 C377 1.350 . S
N375 S373 1.610 . S
N375 C376 1.351 . S
C376 C370 1.428 . S
C376 N375 1.351 . S
C376 C377 1.434 . S
C377 C368 1.429 . S
C377 N374 1.350 . S
C377 C376 1.434 . S
C378 C379 1.369 . S
C378 C380 1.419 . S
C378 H382 0.930 . S
C379 C378 1.369 . S
C379 C388 1.429 1_554 S
C380 C378 1.419 . S
C380 C381 1.363 1_554 S
C380 H383 0.929 . S
C381 C380 1.363 1_556 S
C381 C387 1.428 . S
H382 C378 0.930 . S
H383 C380 0.929 . S
S384 N385 1.613 . S
S384 N386 1.610 . S
N385 S384 1.613 . S
N385 C388 1.350 . S
N386 S384 1.610 . S
N386 C387 1.351 . S
C387 C381 1.428 . S
C387 N386 1.351 . S
C387 C388 1.434 . S
C388 C379 1.429 1_556 S
C388 N385 1.350 . S
C388 C387 1.434 . S
C389 C390 1.369 . S
C389 C391 1.419 1_554 S
C389 H393 0.930 . S
C390 C389 1.369 . S
C390 C399 1.429 . S
C391 C389 1.419 1_556 S
C391 C392 1.363 . S
C391 H394 0.929 . S
C392 C391 1.363 . S
C392 C398 1.428 1_556 S
H393 C389 0.930 . S
H394 C391 0.929 . S
S395 N396 1.613 . S
S395 N397 1.610 . S
N396 S395 1.613 . S
N396 C399 1.350 . S
N397 S395 1.610 . S
N397 C398 1.351 . S
C398 C392 1.428 1_554 S
C398 N397 1.351 . S
C398 C399 1.434 . S
C399 C390 1.429 . S
C399 N396 1.350 . S
C399 C398 1.434 . S
C400 C401 1.369 . S
C400 C402 1.419 . S
C400 H404 0.930 . S
C401 C400 1.369 . S
C401 C410 1.429 . S
C402 C400 1.419 . S
C402 C403 1.363 . S
C402 H405 0.929 . S
C403 C402 1.363 . S
C403 C409 1.428 . S
H404 C400 0.930 . S
H405 C402 0.929 . S
S406 N407 1.613 . S
S406 N408 1.610 . S
N407 S406 1.613 . S
N407 C410 1.350 . S
N408 S406 1.610 . S
N408 C409 1.351 . S
C409 C403 1.428 . S
C409 N408 1.351 . S
C409 C410 1.434 . S
C410 C401 1.429 . S
C410 N407 1.350 . S
C410 C409 1.434 . S
C411 C412 1.369 . S
C411 C413 1.419 . S
C411 H415 0.930 . S
C412 C411 1.369 . S
C412 C421 1.429 1_545 S
C413 C411 1.419 . S
C413 C414 1.363 . S
C413 H416 0.929 . S
C414 C413 1.363 . S
C414 C420 1.428 1_545 S
H415 C411 0.930 . S
H416 C413 0.929 . S
S417 N418 1.613 . S
S417 N419 1.610 . S
N418 S417 1.613 . S
N418 C421 1.350 . S
N419 S417 1.610 . S
N419 C420 1.351 . S
C420 C414 1.428 1_565 S
C420 N419 1.351 . S
C420 C421 1.434 . S
C421 C412 1.429 1_565 S
C421 N418 1.350 . S
C421 C420 1.434 . S
C422 C423 1.369 . S
C422 C424 1.419 . S
C422 H426 0.930 . S
C423 C422 1.369 . S
C423 C432 1.429 . S
C424 C422 1.419 . S
C424 C425 1.363 . S
C424 H427 0.929 . S
C425 C424 1.363 . S
C425 C431 1.428 . S
H426 C422 0.930 . S
H427 C424 0.929 . S
S428 N429 1.613 . S
S428 N430 1.610 1_554 S
N429 S428 1.613 . S
N429 C432 1.350 . S
N430 S428 1.610 1_556 S
N430 C431 1.351 1_556 S
C431 C425 1.428 . S
C431 N430 1.351 1_554 S
C431 C432 1.434 . S
C432 C423 1.429 . S
C432 N429 1.350 . S
C432 C431 1.434 . S
C433 C434 1.369 . S
C433 C435 1.419 . S
C433 H437 0.930 . S
C434 C433 1.369 . S
C434 C443 1.429 . S
C435 C433 1.419 . S
C435 C436 1.363 . S
C435 H438 0.929 . S
C436 C435 1.363 . S
C436 C442 1.428 . S
H437 C433 0.930 . S
H438 C435 0.929 . S
S439 N440 1.613 1_556 S
S439 N441 1.610 . S
N440 S439 1.613 1_554 S
N440 C443 1.350 . S
N441 S439 1.610 . S
N441 C442 1.351 1_556 S
C442 C436 1.428 . S
C442 N441 1.351 1_554 S
C442 C443 1.434 . S
C443 C434 1.429 . S
C443 N440 1.350 . S
C443 C442 1.434 . S
C444 C445 1.369 . S
C444 C446 1.419 . S
C444 H448 0.930 1_655 S
C445 C444 1.369 . S
C445 C454 1.429 . S
C446 C444 1.419 . S
C446 C447 1.363 . S
C446 H449 0.929 1_655 S
C447 C446 1.363 . S
C447 C453 1.428 . S
H448 C444 0.930 1_455 S
H449 C446 0.929 1_455 S
S450 N451 1.613 . S
S450 N452 1.610 . S
N451 S450 1.613 . S
N451 C454 1.350 . S
N452 S450 1.610 . S
N452 C453 1.351 . S
C453 C447 1.428 . S
C453 N452 1.351 . S
C453 C454 1.434 . S
C454 C445 1.429 . S
C454 N451 1.350 . S
C454 C453 1.434 . S
C455 C456 1.371 . S
C455 C457 1.418 . S
C455 H459 0.929 1_565 S
C456 C455 1.371 . S
C456 C465 1.429 . S
C457 C455 1.418 . S
C457 C458 1.363 . S
C457 H460 0.929 . S
C458 C457 1.363 . S
C458 C464 1.428 . S
H459 C455 0.929 1_545 S
H460 C457 0.929 . S
S461 N462 1.613 . S
S461 N463 1.610 . S
N462 S461 1.613 . S
N462 C465 1.350 . S
N463 S461 1.610 . S
N463 C464 1.351 . S
C464 C458 1.428 . S
C464 N463 1.351 . S
C464 C465 1.434 . S
C465 C456 1.429 . S
C465 N462 1.350 . S
C465 C464 1.434 . S
C466 C467 1.369 . S
C466 C468 1.419 . S
C466 H470 0.930 . S
C467 C466 1.369 . S
C467 C476 1.429 . S
C468 C466 1.419 . S
C468 C469 1.363 . S
C468 H471 0.929 . S
C469 C468 1.363 . S
C469 C475 1.428 . S
H470 C466 0.930 . S
H471 C468 0.929 . S
S472 N473 1.613 . S
S472 N474 1.610 . S
N473 S472 1.613 . S
N473 C476 1.350 . S
N474 S472 1.610 . S
N474 C475 1.351 . S
C475 C469 1.428 . S
C475 N474 1.351 . S
C475 C476 1.434 . S
C476 C467 1.429 . S
C476 N473 1.350 . S
C476 C475 1.434 . S
C477 C478 1.369 . S
C477 C479 1.419 . S
C477 H481 0.930 . S
C478 C477 1.369 . S
C478 C487 1.429 . S
C479 C477 1.419 . S
C479 C480 1.363 . S
C479 H482 0.929 . S
C480 C479 1.363 . S
C480 C486 1.428 . S
H481 C477 0.930 . S
H482 C479 0.929 . S
S483 N484 1.613 . S
S483 N485 1.610 . S
N484 S483 1.613 . S
N484 C487 1.350 . S
N485 S483 1.610 . S
N485 C486 1.351 . S
C486 C480 1.428 . S
C486 N485 1.351 . S
C486 C487 1.434 . S
C487 C478 1.429 . S
C487 N484 1.350 . S
C487 C486 1.434 . S
C225 N80 1.745 . S
C227 C114 1.743 . S
C238 C144 1.814 . S
C236 N93 1.799 . S
C249 N178 1.375 . S
C247 N54 1.415 . S
C260 N208 1.447 . S
C258 N67 1.464 . S
C271 C105 1.743 . S
C269 N28 1.749 1_546 S
C280 N41 1.810 . S
C282 C135 1.817 . S
C291 N2 1.423 . S
C293 N170 1.374 . S
C302 N15 1.483 . S
C304 N200 1.442 1_655 S
C315 C120 0.671 . S
C313 N70 0.689 . S
C326 C150 1.099 . S
C324 N83 1.097 . S
C337 C191 1.354 . S
C335 N96 1.363 . S
C346 N57 0.865 . S
C348 C221 0.865 . S
C357 N18 0.668 1_556 S
C359 C131 0.687 . S
C370 C161 1.095 . S
C368 N31 1.104 1_545 S
C381 C180 1.355 . S
C379 N44 1.364 . S
C390 N5 0.869 . S
C392 C210 0.859 . S
C401 N66 1.503 . S
C403 N110 1.477 . S
C412 N79 1.479 1_545 S
C414 N140 1.445 . S
C425 C165 1.668 1_554 S
C423 N92 1.666 . S
C436 C195 1.596 1_554 S
C434 N53 1.594 . S
C445 N14 1.511 . S
C447 N118 1.484 . S
C458 N148 1.445 . S
C456 N27 1.474 . S
C469 C174 1.669 . S
C467 N40 1.670 . S
C478 N1 1.592 . S
C480 C204 1.597 . S
