# Generated by pormake.
# Topology pyr, (3,6)-cn, num edge types: 1
# Building blocks:
#     Node 0, Type 0, BuildingBlock: BELTOD_clean_linker_0, # of connection points: 3
#     Node 1, Type 0, BuildingBlock: BELTOD_clean_linker_0, # of connection points: 3
#     Node 2, Type 0, BuildingBlock: BELTOD_clean_linker_0, # of connection points: 3
#     Node 3, Type 0, BuildingBlock: BELTOD_clean_linker_0, # of connection points: 3
#     Node 4, Type 0, BuildingBlock: BELTOD_clean_linker_0, # of connection points: 3
#     Node 5, Type 0, BuildingBlock: BELTOD_clean_linker_0, # of connection points: 3
#     Node 6, Type 0, BuildingBlock: BELTOD_clean_linker_0, # of connection points: 3
#     Node 7, Type 0, BuildingBlock: BELTOD_clean_linker_0, # of connection points: 3
#     Node 8, Type 1, BuildingBlock: PAMTOO_clean_sbu_0, # of connection points: 6
#     Node 9, Type 1, BuildingBlock: PAMTOO_clean_sbu_0, # of connection points: 6
#     Node 10, Type 1, BuildingBlock: PAMTOO_clean_sbu_0, # of connection points: 6
#     Node 11, Type 1, BuildingBlock: PAMTOO_clean_sbu_0, # of connection points: 6
#     Edge 12, Type (0, 1), BuildingBlock: MIFKUJ_clean_linker_0, # of connection points: 2
#     Edge 13, Type (0, 1), BuildingBlock: MIFKUJ_clean_linker_0, # of connection points: 2
#     Edge 14, Type (0, 1), BuildingBlock: MIFKUJ_clean_linker_0, # of connection points: 2
#     Edge 15, Type (0, 1), BuildingBlock: MIFKUJ_clean_linker_0, # of connection points: 2
#     Edge 16, Type (0, 1), BuildingBlock: MIFKUJ_clean_linker_0, # of connection points: 2
#     Edge 17, Type (0, 1), BuildingBlock: MIFKUJ_clean_linker_0, # of connection points: 2
#     Edge 18, Type (0, 1), BuildingBlock: MIFKUJ_clean_linker_0, # of connection points: 2
#     Edge 19, Type (0, 1), BuildingBlock: MIFKUJ_clean_linker_0, # of connection points: 2
#     Edge 20, Type (0, 1), BuildingBlock: MIFKUJ_clean_linker_0, # of connection points: 2
#     Edge 21, Type (0, 1), BuildingBlock: MIFKUJ_clean_linker_0, # of connection points: 2
#     Edge 22, Type (0, 1), BuildingBlock: MIFKUJ_clean_linker_0, # of connection points: 2
#     Edge 23, Type (0, 1), BuildingBlock: MIFKUJ_clean_linker_0, # of connection points: 2
#     Edge 24, Type (0, 1), BuildingBlock: MIFKUJ_clean_linker_0, # of connection points: 2
#     Edge 25, Type (0, 1), BuildingBlock: MIFKUJ_clean_linker_0, # of connection points: 2
#     Edge 26, Type (0, 1), BuildingBlock: MIFKUJ_clean_linker_0, # of connection points: 2
#     Edge 27, Type (0, 1), BuildingBlock: MIFKUJ_clean_linker_0, # of connection points: 2
#     Edge 28, Type (0, 1), BuildingBlock: MIFKUJ_clean_linker_0, # of connection points: 2
#     Edge 29, Type (0, 1), BuildingBlock: MIFKUJ_clean_linker_0, # of connection points: 2
#     Edge 30, Type (0, 1), BuildingBlock: MIFKUJ_clean_linker_0, # of connection points: 2
#     Edge 31, Type (0, 1), BuildingBlock: MIFKUJ_clean_linker_0, # of connection points: 2
#     Edge 32, Type (0, 1), BuildingBlock: MIFKUJ_clean_linker_0, # of connection points: 2
#     Edge 33, Type (0, 1), BuildingBlock: MIFKUJ_clean_linker_0, # of connection points: 2
#     Edge 34, Type (0, 1), BuildingBlock: MIFKUJ_clean_linker_0, # of connection points: 2
#     Edge 35, Type (0, 1), BuildingBlock: MIFKUJ_clean_linker_0, # of connection points: 2
# Relax obj value: 0.076
# Max RMSD: 0.148
# Mean RMSD: 0.065
data_MOF--net-pyr--node1-PAMTOO_clean_sbu_0--node2-BELTOD_clean_linker_0--edge1-MIFKUJ_clean_linker_0
_symmetry_space_group_name_H-M    P1
_symmetry_Int_Tables_number       1
_symmetry_cell_setting            triclinic
loop_
_symmetry_equiv_pos_as_xyz
'x, y, z'
_cell_length_a     52.695466
_cell_length_b     56.087371
_cell_length_c     56.390806
_cell_angle_alpha  90.100836
_cell_angle_beta   90.071949
_cell_angle_gamma 101.13303
loop_
_atom_site_label
_atom_site_type_symbol
_atom_site_fract_x
_atom_site_fract_y
_atom_site_fract_z
_atom_type_partial_charge
P0 P 0.3444 0.29204 0.2239 0.0
H1 H 0.39636 0.2929 0.20499 0.0
H2 H 0.41508 0.26322 0.18247 0.0
H3 H 0.34095 0.21413 0.18268 0.0
H4 H 0.32233 0.24405 0.20471 0.0
H5 H 0.31583 0.3295 0.236 0.0
H6 H 0.28416 0.34778 0.2144 0.0
H7 H 0.29656 0.30696 0.15186 0.0
H8 H 0.32837 0.28889 0.17348 0.0
H9 H 0.35572 0.27927 0.27259 0.0
H10 H 0.28986 0.26847 0.22557 0.0
O11 O 0.36803 0.31246 0.23616 0.0
H12 H 0.32889 0.25681 0.30376 0.0
H13 H 0.26314 0.24572 0.25631 0.0
C14 C 0.35807 0.27051 0.20682 0.0
C15 C 0.38416 0.27575 0.20018 0.0
C16 C 0.39486 0.25872 0.18739 0.0
C17 C 0.37954 0.23625 0.18089 0.0
C18 C 0.35324 0.23133 0.18722 0.0
C19 C 0.3426 0.24834 0.20001 0.0
C20 C 0.3244 0.30785 0.20639 0.0
C21 C 0.31203 0.3248 0.21752 0.0
C22 C 0.29382 0.33508 0.20523 0.0
C23 C 0.28774 0.32863 0.18151 0.0
C24 C 0.30098 0.31238 0.17008 0.0
C25 C 0.31911 0.30197 0.18247 0.0
C26 C 0.32464 0.27596 0.24699 0.0
C27 C 0.33547 0.27218 0.26903 0.0
C28 C 0.32015 0.2592 0.28675 0.0
C29 C 0.2938 0.24965 0.28259 0.0
C30 C 0.28319 0.25328 0.2603 0.0
C31 C 0.2985 0.26624 0.24266 0.0
P32 P 0.23917 0.80008 0.67238 0.0
H33 H 0.28884 0.79894 0.69383 0.0
H34 H 0.3059 0.80724 0.7339 0.0
H35 H 0.23122 0.81923 0.75717 0.0
H36 H 0.21409 0.81009 0.71713 0.0
H37 H 0.24203 0.77587 0.62719 0.0
H38 H 0.24901 0.73531 0.61759 0.0
H39 H 0.23515 0.71399 0.69081 0.0
H40 H 0.22868 0.75497 0.70034 0.0
H41 H 0.23059 0.84875 0.67912 0.0
H42 H 0.18644 0.78043 0.65419 0.0
O43 O 0.26244 0.81542 0.65516 0.0
H44 H 0.19521 0.869 0.66839 0.0
H45 H 0.15076 0.80079 0.64319 0.0
C46 C 0.25048 0.80461 0.70243 0.0
C47 C 0.27614 0.80326 0.70761 0.0
C48 C 0.28586 0.80807 0.73049 0.0
C49 C 0.27004 0.8143 0.74864 0.0
C50 C 0.2439 0.81445 0.74361 0.0
C51 C 0.23415 0.8095 0.72066 0.0
C52 C 0.23555 0.76854 0.66454 0.0
C53 C 0.23976 0.76227 0.64104 0.0
C54 C 0.24356 0.73894 0.63556 0.0
C55 C 0.24304 0.72147 0.65353 0.0
C56 C 0.23616 0.72719 0.67667 0.0
C57 C 0.23238 0.75058 0.68212 0.0
C58 C 0.2111 0.81317 0.66741 0.0
C59 C 0.21309 0.83806 0.67161 0.0
C60 C 0.19293 0.84962 0.66537 0.0
C61 C 0.17039 0.83649 0.65472 0.0
C62 C 0.16791 0.81128 0.65145 0.0
C63 C 0.18828 0.79968 0.65765 0.0
P64 P 0.6674 0.34381 0.81486 0.0
H65 H 0.70253 0.32953 0.84922 0.0
H66 H 0.73768 0.3518 0.87335 0.0
H67 H 0.72159 0.4196 0.84686 0.0
H68 H 0.68574 0.39699 0.82316 0.0
H69 H 0.63654 0.29619 0.80283 0.0
H70 H 0.61375 0.26274 0.82693 0.0
H71 H 0.62591 0.30887 0.889 0.0
H72 H 0.64923 0.34211 0.8647 0.0
H73 H 0.68994 0.37627 0.77717 0.0
H74 H 0.61345 0.35002 0.80466 0.0
O75 O 0.684 0.32742 0.79836 0.0
H76 H 0.6718 0.39633 0.74463 0.0
H77 H 0.59498 0.37018 0.77192 0.0
C78 C 0.69145 0.36149 0.83431 0.0
C79 C 0.70635 0.34921 0.84877 0.0
C80 C 0.7267 0.36203 0.86242 0.0
C81 C 0.73289 0.38759 0.86187 0.0
C82 C 0.71741 0.39995 0.84784 0.0
C83 C 0.6969 0.38702 0.83415 0.0
C84 C 0.64491 0.32165 0.83191 0.0
C85 C 0.63388 0.29928 0.82155 0.0
C86 C 0.62076 0.28007 0.83545 0.0
C87 C 0.61819 0.28278 0.86015 0.0
C88 C 0.62796 0.30579 0.8702 0.0
C89 C 0.64111 0.32499 0.85623 0.0
C90 C 0.65315 0.36171 0.79352 0.0
C91 C 0.6692 0.37512 0.77641 0.0
C92 C 0.65874 0.38641 0.75761 0.0
C93 C 0.63184 0.38471 0.75537 0.0
C94 C 0.61577 0.37199 0.77307 0.0
C95 C 0.62632 0.36045 0.79186 0.0
P96 P 0.84903 0.68568 0.31181 0.0
H97 H 0.87869 0.73333 0.29852 0.0
H98 H 0.89952 0.7687 0.32134 0.0
H99 H 0.88441 0.72712 0.38596 0.0
H100 H 0.86299 0.69202 0.363 0.0
H101 H 0.8335 0.63722 0.29091 0.0
H102 H 0.85297 0.61541 0.26062 0.0
H103 H 0.92224 0.67101 0.26289 0.0
H104 H 0.90223 0.693 0.29283 0.0
H105 H 0.79341 0.68527 0.31467 0.0
H106 H 0.84776 0.64827 0.34919 0.0
O107 O 0.83455 0.69975 0.29122 0.0
H108 H 0.75867 0.66355 0.33938 0.0
H109 H 0.81277 0.62682 0.37474 0.0
C110 C 0.86891 0.70992 0.32891 0.0
C111 C 0.88012 0.73168 0.31759 0.0
C112 C 0.89218 0.75199 0.33075 0.0
C113 C 0.89352 0.75108 0.35569 0.0
C114 C 0.88332 0.72882 0.36689 0.0
C115 C 0.8712 0.70851 0.35367 0.0
C116 C 0.86655 0.66653 0.29476 0.0
C117 C 0.85319 0.64438 0.28546 0.0
C118 C 0.86441 0.63189 0.26795 0.0
C119 C 0.88929 0.64134 0.25899 0.0
C120 C 0.90295 0.6632 0.26895 0.0
C121 C 0.89165 0.67569 0.28646 0.0
C122 C 0.82334 0.66841 0.32992 0.0
C123 C 0.79796 0.67238 0.32748 0.0
C124 C 0.77797 0.65991 0.34167 0.0
C125 C 0.7829 0.64342 0.35902 0.0
C126 C 0.80837 0.63949 0.3616 0.0
C127 C 0.82836 0.65168 0.34698 0.0
P128 P 0.73969 0.82107 0.85714 0.0
H129 H 0.71643 0.8083 0.90316 0.0
H130 H 0.67677 0.81617 0.92139 0.0
H131 H 0.65376 0.84232 0.85422 0.0
H132 H 0.69311 0.83403 0.83606 0.0
H133 H 0.79169 0.81466 0.86804 0.0
H134 H 0.81017 0.77909 0.87683 0.0
H135 H 0.73416 0.73354 0.87182 0.0
H136 H 0.71565 0.76962 0.86361 0.0
H137 H 0.74538 0.86355 0.82674 0.0
H138 H 0.73797 0.78611 0.8178 0.0
O139 O 0.75857 0.84536 0.86928 0.0
H140 H 0.75316 0.86935 0.78429 0.0
H141 H 0.74572 0.79179 0.77524 0.0
C142 C 0.70763 0.8204 0.86825 0.0
C143 C 0.70242 0.81494 0.89219 0.0
C144 C 0.67985 0.81962 0.90262 0.0
C145 C 0.66226 0.83005 0.88927 0.0
C146 C 0.66678 0.83403 0.8649 0.0
C147 C 0.68938 0.82937 0.85451 0.0
C148 C 0.75229 0.79478 0.86566 0.0
C149 C 0.77893 0.79708 0.86919 0.0
C150 C 0.78951 0.77666 0.87392 0.0
C151 C 0.77366 0.75343 0.87485 0.0
C152 C 0.74683 0.7512 0.87147 0.0
C153 C 0.73624 0.77176 0.86679 0.0
C154 C 0.74172 0.8245 0.82547 0.0
C155 C 0.74513 0.84777 0.81558 0.0
C156 C 0.74934 0.85103 0.79127 0.0
C157 C 0.7502 0.83101 0.77646 0.0
C158 C 0.74546 0.80755 0.78629 0.0
C159 C 0.74105 0.80431 0.81061 0.0
P160 P 0.84537 0.28812 0.31652 0.0
H161 H 0.83906 0.33763 0.32839 0.0
H162 H 0.80582 0.35304 0.35064 0.0
H163 H 0.76971 0.27946 0.36875 0.0
H164 H 0.80289 0.2642 0.3462 0.0
H165 H 0.87787 0.25512 0.30006 0.0
H166 H 0.90119 0.22754 0.32067 0.0
H167 H 0.87852 0.25364 0.38802 0.0
H168 H 0.85536 0.28124 0.36733 0.0
H169 H 0.82158 0.30107 0.27288 0.0
H170 H 0.82358 0.23602 0.31288 0.0
O171 O 0.86536 0.31088 0.30327 0.0
H172 H 0.7911 0.27749 0.24491 0.0
H173 H 0.79444 0.21216 0.28448 0.0
C174 C 0.82339 0.29979 0.33569 0.0
C175 C 0.82422 0.32484 0.33744 0.0
C176 C 0.80525 0.33363 0.35024 0.0
C177 C 0.78506 0.31745 0.36137 0.0
C178 C 0.78482 0.29236 0.36013 0.0
C179 C 0.80383 0.28363 0.34739 0.0
C180 C 0.86437 0.26975 0.33214 0.0
C181 C 0.87804 0.25497 0.31926 0.0
C182 C 0.89126 0.23919 0.33104 0.0
C183 C 0.89142 0.23826 0.35594 0.0
C184 C 0.87877 0.254 0.36882 0.0
C185 C 0.86535 0.26965 0.35699 0.0
C186 C 0.82545 0.2702 0.29452 0.0
C187 C 0.81595 0.28161 0.27528 0.0
C188 C 0.79856 0.26808 0.25929 0.0
C189 C 0.79032 0.24286 0.26234 0.0
C190 C 0.80005 0.23156 0.28168 0.0
C191 C 0.81714 0.24515 0.29777 0.0
P192 P 0.37612 0.66835 0.18946 0.0
H193 H 0.35875 0.66334 0.14058 0.0
H194 H 0.31746 0.64698 0.12162 0.0
H195 H 0.28211 0.63256 0.19054 0.0
H196 H 0.32396 0.64865 0.20942 0.0
H197 H 0.42609 0.70067 0.182 0.0
H198 H 0.43816 0.74206 0.16711 0.0
H199 H 0.35814 0.74961 0.17049 0.0
H200 H 0.34619 0.70772 0.18465 0.0
H201 H 0.36684 0.62008 0.21017 0.0
H202 H 0.39499 0.6931 0.23474 0.0
O203 O 0.39679 0.65579 0.17353 0.0
H204 H 0.37802 0.60406 0.248 0.0
H205 H 0.40528 0.67735 0.27337 0.0
C206 C 0.3446 0.65692 0.17641 0.0
C207 C 0.34212 0.65665 0.15165 0.0
C208 C 0.31834 0.64743 0.1408 0.0
C209 C 0.29624 0.63836 0.15445 0.0
C210 C 0.29871 0.63903 0.1794 0.0
C211 C 0.32264 0.64834 0.19026 0.0
C212 C 0.3852 0.70088 0.18427 0.0
C213 C 0.41117 0.71135 0.17992 0.0
C214 C 0.41807 0.73521 0.1714 0.0
C215 C 0.39916 0.7494 0.16717 0.0
C216 C 0.37326 0.73922 0.1729 0.0
C217 C 0.36638 0.71526 0.18133 0.0
C218 C 0.37965 0.65783 0.21959 0.0
C219 C 0.37477 0.63276 0.22403 0.0
C220 C 0.38118 0.62358 0.24589 0.0
C221 C 0.39267 0.63923 0.26418 0.0
C222 C 0.39689 0.66453 0.25983 0.0
C223 C 0.39064 0.67368 0.23775 0.0
P224 P 0.17104 0.3425 0.71538 0.0
H225 H 0.18256 0.29612 0.70128 0.0
H226 H 0.16116 0.26296 0.6762 0.0
H227 H 0.0991 0.30151 0.66309 0.0
H228 H 0.12096 0.33508 0.68858 0.0
H229 H 0.22212 0.3351 0.70169 0.0
H230 H 0.25617 0.35734 0.67665 0.0
H231 H 0.2088 0.41038 0.66168 0.0
H232 H 0.17461 0.38791 0.68734 0.0
H233 H 0.11774 0.33403 0.73478 0.0
H234 H 0.18625 0.39006 0.73775 0.0
O235 O 0.18654 0.3291 0.73573 0.0
H236 H 0.09804 0.35476 0.76616 0.0
H237 H 0.16689 0.41059 0.76923 0.0
C238 C 0.15313 0.31793 0.69739 0.0
C239 C 0.16422 0.29748 0.69324 0.0
C240 C 0.15204 0.27852 0.67861 0.0
C241 C 0.12836 0.27944 0.66747 0.0
C242 C 0.11719 0.30003 0.67156 0.0
C243 C 0.12963 0.31925 0.68616 0.0
C244 C 0.19595 0.36005 0.69682 0.0
C245 C 0.21902 0.3516 0.69318 0.0
C246 C 0.23847 0.36427 0.6786 0.0
C247 C 0.23535 0.38571 0.66698 0.0
C248 C 0.21205 0.39411 0.67052 0.0
C249 C 0.19244 0.38126 0.68514 0.0
C250 C 0.15319 0.36087 0.73309 0.0
C251 C 0.1282 0.35125 0.74146 0.0
C252 C 0.11701 0.36304 0.75964 0.0
C253 C 0.1309 0.38434 0.77039 0.0
C254 C 0.15566 0.39419 0.76154 0.0
C255 C 0.16662 0.3826 0.74319 0.0
Dy256 Dy 0.03193 0.02264 0.49373 0.0
Dy257 Dy 0.97722 0.01455 0.52345 0.0
C258 C 0.02367 0.05993 0.53538 0.0
O259 O 0.0345 0.99251 0.51856 0.0
O260 O 1.00299 0.99647 0.54584 0.0
O261 O 0.07345 0.02665 0.49104 0.0
O262 O 0.04994 0.02609 0.45933 0.0
O263 O 0.97723 0.97879 0.5059 0.0
O264 O 1.0037 0.99329 0.47495 0.0
O265 O 0.97179 0.03299 0.48914 0.0
O266 O 0.01317 0.05365 0.48473 0.0
O267 O 0.93559 1.00521 0.52235 0.0
O268 O 0.95522 0.01724 0.55532 0.0
C269 C 0.02323 0.98761 0.5392 0.0
O270 O 0.04016 0.04916 0.52396 0.0
O271 O 0.99854 0.05161 0.53437 0.0
C272 C 0.09173 0.04991 0.45837 0.0
C273 C 0.12633 0.08859 0.43734 0.0
C274 C 0.10471 0.09301 0.45004 0.0
C275 C 0.08754 0.07378 0.46052 0.0
C276 C 0.11332 0.04547 0.44598 0.0
C277 C 0.13047 0.06461 0.43554 0.0
C278 C 0.0733 0.02934 0.46806 0.0
C279 C 0.98651 0.97593 0.48472 0.0
C280 C 0.98842 0.05143 0.48073 0.0
C281 C 0.91635 0.98865 0.55782 0.0
C282 C 0.88416 0.95154 0.58332 0.0
C283 C 0.90232 0.94586 0.567 0.0
C284 C 0.91834 0.9643 0.55439 0.0
C285 C 0.89826 0.9944 0.57392 0.0
C286 C 0.88233 0.97604 0.5866 0.0
C287 C 0.93322 1.00833 0.54511 0.0
H288 H 0.10109 0.11129 0.45186 0.0
H289 H 0.07087 0.07747 0.47006 0.0
H290 H 0.11669 0.0271 0.44405 0.0
H291 H 0.14663 0.06051 0.42553 0.0
H292 H 0.90409 0.92719 0.56393 0.0
H293 H 0.93233 0.95957 0.54204 0.0
H294 H 0.89663 0.01314 0.57687 0.0
H295 H 0.86898 0.98112 0.59936 0.0
Dy296 Dy 0.4733 0.01896 1.00576 0.0
Dy297 Dy 0.52655 0.02755 0.03808 0.0
C298 C 0.4814 0.98043 0.04624 0.0
O299 O 0.47029 0.04981 0.02974 0.0
O300 O 0.49843 0.04381 0.05931 0.0
O301 O 0.43166 0.01232 1.00241 0.0
O302 O 0.45592 0.01844 0.97111 0.0
O303 O 0.52766 0.06293 0.0193 0.0
O304 O 0.50223 0.04798 0.98766 0.0
O305 O 0.53489 0.00888 1.0048 0.0
O306 O 0.49392 0.9898 0.99452 0.0
O307 O 0.56799 0.03876 0.04041 0.0
O308 O 0.54595 0.02389 0.07126 0.0
C309 C 0.47964 0.05391 0.05125 0.0
O310 O 0.46486 0.99121 0.03492 0.0
O311 O 0.50635 0.98949 0.04622 0.0
C312 C 0.41614 0.99179 0.96698 0.0
C313 C 0.38903 0.95277 0.94011 0.0
C314 C 0.39933 0.94852 0.96236 0.0
C315 C 0.41302 0.96793 0.97565 0.0
C316 C 0.4051 0.99607 0.94519 0.0
C317 C 0.39171 0.97673 0.93183 0.0
C318 C 0.43245 0.01224 0.97928 0.0
C319 C 0.51926 0.06536 0.99765 0.0
C320 C 0.51906 0.99174 0.99336 0.0
C321 C 0.58396 0.0528 0.0781 0.0
C322 C 0.61403 0.08782 0.10762 0.0
C323 C 0.59834 0.09495 0.0898 0.0
C324 C 0.58328 0.07752 0.0752 0.0
C325 C 0.59957 0.04567 0.0958 0.0
C326 C 0.61446 0.06301 0.11046 0.0
C327 C 0.56855 0.03406 0.06304 0.0
H328 H 0.39763 0.93018 0.96901 0.0
H329 H 0.42169 0.96426 0.99236 0.0
H330 H 0.40743 0.01436 0.93822 0.0
H331 H 0.38371 0.98047 0.91483 0.0
H332 H 0.5975 0.11393 0.08735 0.0
H333 H 0.57116 0.08332 0.06169 0.0
H334 H 0.60029 0.02665 0.09824 0.0
H335 H 0.62663 0.057 0.1238 0.0
Dy336 Dy 0.5081 0.48889 0.49797 0.0
Dy337 Dy 0.51005 0.5391 0.52751 0.0
C338 C 0.53233 0.4947 0.54974 0.0
O339 O 0.47446 0.48104 0.52294 0.0
O340 O 0.46864 0.51991 0.5294 0.0
O341 O 0.50408 0.44987 0.497 0.0
O342 O 0.51013 0.47056 0.46445 0.0
O343 O 0.50132 0.54683 0.48961 0.0
O344 O 0.48105 0.50875 0.47864 0.0
O345 O 0.55102 0.54183 0.51514 0.0
O346 O 0.54197 0.51543 0.4838 0.0
O347 O 0.50982 0.57757 0.52846 0.0
O348 O 0.51105 0.5579 0.56114 0.0
C349 C 0.46046 0.49631 0.53099 0.0
O350 O 0.53597 0.48755 0.52801 0.0
O351 O 0.51841 0.51137 0.55354 0.0
C352 C 0.53038 0.43692 0.46769 0.0
C353 C 0.5717 0.415 0.4531 0.0
C354 C 0.57237 0.42664 0.47529 0.0
C355 C 0.55199 0.43761 0.48245 0.0
C356 C 0.52944 0.42512 0.4457 0.0
C357 C 0.54991 0.41428 0.43844 0.0
C358 C 0.50946 0.44953 0.47445 0.0
C359 C 0.48607 0.53236 0.47502 0.0
C360 C 0.55758 0.53311 0.49484 0.0
C361 C 0.48441 0.58676 0.56012 0.0
C362 C 0.44008 0.60167 0.57814 0.0
C363 C 0.43816 0.58584 0.55858 0.0
C364 C 0.4601 0.57842 0.5497 0.0
C365 C 0.48651 0.6025 0.57962 0.0
C366 C 0.46452 0.60993 0.58857 0.0
C367 C 0.50715 0.57789 0.5514 0.0
H368 H 0.58865 0.42727 0.48717 0.0
H369 H 0.55323 0.44682 0.49944 0.0
H370 H 0.51304 0.42464 0.43397 0.0
H371 H 0.5489 0.40584 0.42109 0.0
H372 H 0.41976 0.57939 0.54992 0.0
H373 H 0.45806 0.56611 0.5347 0.0
H374 H 0.50507 0.60885 0.58805 0.0
H375 H 0.46661 0.62188 0.60384 0.0
Dy376 Dy 0.01011 0.53653 1.0001 0.0
Dy377 Dy 0.00908 0.48655 0.0293 0.0
C378 C 0.98671 0.53007 0.05272 0.0
O379 O 0.05109 0.54005 0.01285 0.0
O380 O 0.04339 0.51261 0.04339 0.0
O381 O 0.00938 0.57485 0.99817 0.0
O382 O 0.01166 0.55441 0.96601 0.0
O383 O 0.03725 0.48611 0.9994 0.0
O384 O 0.01702 0.50793 0.97423 0.0
O385 O 0.97563 0.47883 1.00392 0.0
O386 O 0.9686 0.51754 0.99955 0.0
O387 O 0.00692 0.44769 0.02952 0.0
O388 O 0.0091 0.46759 0.06259 0.0
C389 C 0.05837 0.53084 0.03264 0.0
O390 O 1.00102 0.54478 0.03774 0.0
O391 O 0.98256 0.50639 0.04943 0.0
C392 C 0.98536 0.58379 0.96494 0.0
C393 C 0.94268 0.59977 0.94448 0.0
C394 C 0.94263 0.59371 0.96868 0.0
C395 C 0.96367 0.58568 0.97877 0.0
C396 C 0.98543 0.58964 0.94078 0.0
C397 C 0.96426 0.59746 0.9306 0.0
C398 C 0.00735 0.57457 0.97514 0.0
C399 C 0.03225 0.49233 0.97771 0.0
C400 C 0.9609 0.49397 0.99707 0.0
C401 C 0.03146 0.43494 0.06088 0.0
C402 C 0.07293 0.4142 0.07751 0.0
C403 C 0.06632 0.41311 0.05331 0.0
C404 C 0.04584 0.42339 0.04506 0.0
C405 C 0.03765 0.43552 0.08512 0.0
C406 C 0.05822 0.42539 0.09334 0.0
C407 C 0.01057 0.44703 0.05238 0.0
H408 H 0.92654 0.5956 0.97998 0.0
H409 H 0.96291 0.58097 0.99741 0.0
H410 H 1.0018 0.58797 0.92972 0.0
H411 H 0.96478 0.60157 0.91184 0.0
H412 H 0.07695 0.40426 0.0407 0.0
H413 H 0.04147 0.42245 0.02627 0.0
H414 H 0.02685 0.44422 0.09773 0.0
H415 H 0.06293 0.42683 0.11205 0.0
H416 H 0.24385 0.25156 0.29436 0.0
H417 H 0.21617 0.22651 0.32319 0.0
H418 H 0.27916 0.19119 0.34206 0.0
H419 H 0.3067 0.21556 0.31263 0.0
H420 H 0.23578 0.15876 0.33488 0.0
H421 H 0.25954 0.23287 0.37905 0.0
H422 H 0.26481 0.27693 0.3862 0.0
H423 H 0.18289 0.27222 0.37878 0.0
H424 H 0.17715 0.22816 0.37124 0.0
H425 H 0.17907 0.09601 0.43511 0.0
H426 H 0.20788 0.12598 0.41126 0.0
H427 H 0.14288 0.15656 0.3884 0.0
H428 H 0.11378 0.12636 0.41198 0.0
H429 H 0.18706 0.19186 0.39822 0.0
H430 H 0.1635 0.11832 0.35301 0.0
H431 H 0.15791 0.07423 0.34585 0.0
H432 H 0.23952 0.07814 0.355 0.0
H433 H 0.24554 0.12222 0.36259 0.0
C434 C 0.2518 0.23842 0.3046 0.0
C435 C 0.27747 0.23552 0.30115 0.0
C436 C 0.23603 0.2243 0.32126 0.0
C437 C 0.24567 0.20715 0.33495 0.0
C438 C 0.27136 0.20438 0.33174 0.0
C439 C 0.28714 0.21847 0.31505 0.0
C440 C 0.22862 0.19128 0.35181 0.0
C441 C 0.22548 0.16603 0.34897 0.0
C442 C 0.21457 0.20076 0.36976 0.0
C443 C 0.21795 0.22725 0.37436 0.0
C444 C 0.24267 0.24126 0.37875 0.0
C445 C 0.24574 0.26623 0.38291 0.0
C446 C 0.22421 0.27738 0.38289 0.0
C447 C 0.19955 0.26356 0.37876 0.0
C448 C 0.19638 0.23859 0.37457 0.0
C449 C 0.17089 0.10914 0.42505 0.0
C450 C 0.14409 0.10859 0.42517 0.0
C451 C 0.18739 0.1263 0.41152 0.0
C452 C 0.17743 0.14322 0.39782 0.0
C453 C 0.15091 0.14361 0.39885 0.0
C454 C 0.13434 0.12639 0.41238 0.0
C455 C 0.19452 0.15946 0.38135 0.0
C456 C 0.19752 0.18469 0.38419 0.0
C457 C 0.20845 0.15 0.36334 0.0
C458 C 0.20493 0.12352 0.35861 0.0
C459 C 0.18022 0.10974 0.35368 0.0
C460 C 0.17698 0.08476 0.34952 0.0
C461 C 0.19834 0.07338 0.35003 0.0
C462 C 0.22299 0.08697 0.35464 0.0
C463 C 0.22633 0.11196 0.35886 0.0
H464 H 0.19579 0.05403 0.3468 0.0
H465 H 0.22662 0.29672 0.38611 0.0
H466 H 0.31644 0.84375 0.7577 0.0
H467 H 0.33463 0.85823 0.79591 0.0
H468 H 0.26727 0.81798 0.83129 0.0
H469 H 0.24882 0.80318 0.79277 0.0
H470 H 0.27965 0.86374 0.84772 0.0
H471 H 0.32479 0.79945 0.83657 0.0
H472 H 0.34991 0.77346 0.81517 0.0
H473 H 0.4126 0.83425 0.80656 0.0
H474 H 0.38772 0.86072 0.82759 0.0
H475 H 0.35038 0.91446 0.95171 0.0
H476 H 0.32823 0.88232 0.92495 0.0
H477 H 0.378 0.91327 0.86765 0.0
H478 H 0.39996 0.94522 0.89412 0.0
H479 H 0.37057 0.86243 0.86977 0.0
H480 H 0.32038 0.92718 0.87266 0.0
H481 H 0.29507 0.95352 0.89337 0.0
H482 H 0.24168 0.89063 0.91775 0.0
H483 H 0.26692 0.86391 0.89741 0.0
C484 C 0.30567 0.83752 0.77359 0.0
C485 C 0.28128 0.82211 0.77219 0.0
C486 C 0.31611 0.84583 0.79546 0.0
C487 C 0.30253 0.83882 0.8165 0.0
C488 C 0.27814 0.82346 0.81526 0.0
C489 C 0.26761 0.81512 0.79327 0.0
C490 C 0.31345 0.84898 0.83943 0.0
C491 C 0.29927 0.86287 0.85293 0.0
C492 C 0.33912 0.84797 0.84616 0.0
C493 C 0.35431 0.8321 0.83362 0.0
C494 C 0.34387 0.80732 0.83 0.0
C495 C 0.35808 0.7925 0.81794 0.0
C496 C 0.38282 0.8022 0.8095 0.0
C497 C 0.39343 0.82675 0.81313 0.0
C498 C 0.3793 0.84167 0.82516 0.0
C499 C 0.35668 0.91414 0.93346 0.0
C500 C 0.37664 0.93238 0.92483 0.0
C501 C 0.34405 0.89588 0.91824 0.0
C502 C 0.35147 0.89554 0.89435 0.0
C503 C 0.37204 0.91321 0.88604 0.0
C504 C 0.38441 0.93154 0.9011 0.0
C505 C 0.3371 0.87784 0.87731 0.0
C506 C 0.35066 0.86258 0.86495 0.0
C507 C 0.31088 0.87752 0.87168 0.0
C508 C 0.29571 0.89357 0.88381 0.0
C509 C 0.30337 0.91898 0.88261 0.0
C510 C 0.28902 0.93397 0.89424 0.0
C511 C 0.26683 0.92375 0.90694 0.0
C512 C 0.25891 0.89852 0.90796 0.0
C513 C 0.27323 0.88344 0.89639 0.0
H514 H 0.25574 0.93539 0.91592 0.0
H515 H 0.39379 0.79069 0.80016 0.0
H516 H 0.59253 0.41087 0.75384 0.0
H517 H 0.57572 0.42922 0.71924 0.0
H518 H 0.62904 0.40087 0.67419 0.0
H519 H 0.64628 0.38312 0.70874 0.0
H520 H 0.62861 0.44387 0.66019 0.0
H521 H 0.56059 0.37642 0.67754 0.0
H522 H 0.52773 0.35029 0.702 0.0
H523 H 0.48909 0.41005 0.71356 0.0
H524 H 0.52192 0.43663 0.68941 0.0
H525 H 0.56654 0.46303 0.54998 0.0
H526 H 0.58331 0.44422 0.58442 0.0
H527 H 0.53906 0.48138 0.63107 0.0
H528 H 0.52236 0.50025 0.59692 0.0
H529 H 0.53467 0.43368 0.6437 0.0
H530 H 0.60377 0.50071 0.62544 0.0
H531 H 0.63637 0.52551 0.5997 0.0
H532 H 0.67262 0.46417 0.58829 0.0
H533 H 0.64001 0.4389 0.61371 0.0
C534 C 0.60055 0.40841 0.73654 0.0
C535 C 0.62084 0.3955 0.73421 0.0
C536 C 0.59085 0.41888 0.71665 0.0
C537 C 0.60076 0.4163 0.69376 0.0
C538 C 0.62098 0.40334 0.69148 0.0
C539 C 0.63089 0.39316 0.71136 0.0
C540 C 0.59048 0.42731 0.67227 0.0
C541 C 0.60804 0.44126 0.6565 0.0
C542 C 0.56362 0.4245 0.66733 0.0
C543 C 0.54387 0.40857 0.68187 0.0
C544 C 0.54519 0.38403 0.68545 0.0
C545 C 0.52656 0.36913 0.69924 0.0
C546 C 0.50638 0.37852 0.70939 0.0
C547 C 0.50475 0.40281 0.70572 0.0
C548 C 0.52336 0.4178 0.69197 0.0
C549 C 0.56043 0.46728 0.56757 0.0
C550 C 0.54313 0.48332 0.57054 0.0
C551 C 0.5701 0.45652 0.5873 0.0
C552 C 0.56262 0.46141 0.61052 0.0
C553 C 0.54518 0.47723 0.61346 0.0
C554 C 0.53571 0.48814 0.59381 0.0
C555 C 0.5728 0.45009 0.63175 0.0
C556 C 0.55522 0.43615 0.64744 0.0
C557 C 0.59962 0.45267 0.63648 0.0
C558 C 0.6193 0.46786 0.62128 0.0
C559 C 0.61857 0.49246 0.61729 0.0
C560 C 0.63707 0.50661 0.60279 0.0
C561 C 0.65651 0.4964 0.59231 0.0
C562 C 0.65753 0.47204 0.59638 0.0
C563 C 0.63906 0.4578 0.61085 0.0
H564 H 0.67082 0.50739 0.58109 0.0
H565 H 0.49196 0.36695 0.72005 0.0
H566 H 0.91918 0.66268 0.2217 0.0
H567 H 0.93546 0.64312 0.18781 0.0
H568 H 0.89968 0.57283 0.21482 0.0
H569 H 0.88423 0.59222 0.2494 0.0
H570 H 0.94556 0.57022 0.19735 0.0
H571 H 0.87295 0.60128 0.16808 0.0
H572 H 0.84658 0.63234 0.16055 0.0
H573 H 0.90857 0.67419 0.12018 0.0
H574 H 0.93545 0.64353 0.12775 0.0
H575 H 0.95697 0.50616 0.08897 0.0
H576 H 0.94006 0.5239 0.12393 0.0
H577 H 0.97488 0.59566 0.09984 0.0
H578 H 0.99142 0.57816 0.06479 0.0
H579 H 0.92827 0.59644 0.11594 0.0
H580 H 1.00116 0.56581 0.14584 0.0
H581 H 0.02752 0.53471 0.15323 0.0
H582 H 0.96492 0.49197 0.1922 0.0
H583 H 0.93806 0.52268 0.18477 0.0
C584 C 0.91504 0.64303 0.22076 0.0
C585 C 0.90021 0.62917 0.23853 0.0
C586 C 0.92414 0.63182 0.20106 0.0
C587 C 0.91849 0.60639 0.19831 0.0
C588 C 0.90424 0.59245 0.21628 0.0
C589 C 0.89519 0.60365 0.23604 0.0
C590 C 0.92727 0.59443 0.1767 0.0
C591 C 0.94142 0.57576 0.17956 0.0
C592 C 0.92245 0.60179 0.15331 0.0
C593 C 0.9063 0.62022 0.14868 0.0
C594 C 0.88103 0.61719 0.15774 0.0
C595 C 0.86598 0.63471 0.15344 0.0
C596 C 0.87592 0.65525 0.13994 0.0
C597 C 0.90091 0.65829 0.13066 0.0
C598 C 0.91605 0.64083 0.13493 0.0
C599 C 0.961 0.52573 0.09105 0.0
C600 C 0.97569 0.54064 0.07392 0.0
C601 C 0.95141 0.53589 0.11121 0.0
C602 C 0.95638 0.56123 0.11489 0.0
C603 C 0.9707 0.57611 0.09761 0.0
C604 C 0.98025 0.56599 0.07749 0.0
C605 C 0.94671 0.57235 0.13658 0.0
C606 C 0.93237 0.59086 0.13373 0.0
C607 C 0.95136 0.56484 0.15995 0.0
C608 C 0.96751 0.54642 0.16454 0.0
C609 C 0.99295 0.54969 0.15584 0.0
C610 C 0.00799 0.53215 0.16006 0.0
C611 C 0.99787 0.51134 0.17312 0.0
C612 C 0.97272 0.50807 0.18205 0.0
C613 C 0.95758 0.52555 0.17786 0.0
H614 H 0.00955 0.49778 0.17637 0.0
H615 H 0.86424 0.66879 0.13663 0.0
H616 H 0.35849 0.20754 0.14382 0.0
H617 H 0.37644 0.17604 0.12353 0.0
H618 H 0.44431 0.19176 0.168 0.0
H619 H 0.4264 0.22328 0.18849 0.0
H620 H 0.45715 0.18568 0.12242 0.0
H621 H 0.39797 0.14235 0.17869 0.0
H622 H 0.35634 0.13015 0.19942 0.0
H623 H 0.31975 0.10303 0.13408 0.0
H624 H 0.36111 0.1154 0.11287 0.0
H625 H 0.50138 0.07704 0.0913 0.0
H626 H 0.48509 0.10756 0.11491 0.0
H627 H 0.41844 0.10065 0.06912 0.0
H628 H 0.43454 0.07026 0.0454 0.0
H629 H 0.40633 0.10153 0.11748 0.0
H630 H 0.46563 0.1467 0.06121 0.0
H631 H 0.50766 0.15815 0.04098 0.0
H632 H 0.54449 0.18111 0.10737 0.0
H633 H 0.5027 0.16942 0.12806 0.0
C634 C 0.37717 0.20421 0.14939 0.0
C635 C 0.39094 0.21781 0.16787 0.0
C636 C 0.38742 0.18622 0.13776 0.0
C637 C 0.41155 0.18132 0.14449 0.0
C638 C 0.42564 0.19523 0.16255 0.0
C639 C 0.41541 0.21328 0.17417 0.0
C640 C 0.42195 0.16156 0.13273 0.0
C641 C 0.44621 0.1672 0.12166 0.0
C642 C 0.40752 0.13752 0.13146 0.0
C643 C 0.3826 0.13002 0.14415 0.0
C644 C 0.38101 0.13397 0.1687 0.0
C645 C 0.35746 0.12699 0.18054 0.0
C646 C 0.3354 0.11587 0.16807 0.0
C647 C 0.33685 0.11167 0.14372 0.0
C648 C 0.36034 0.11864 0.13178 0.0
C649 C 0.48315 0.08187 0.08637 0.0
C650 C 0.46929 0.07131 0.06643 0.0
C651 C 0.47394 0.09937 0.09982 0.0
C652 C 0.45067 0.10643 0.09362 0.0
C653 C 0.43645 0.09543 0.07416 0.0
C654 C 0.44576 0.07815 0.06057 0.0
C655 C 0.44134 0.12574 0.10704 0.0
C656 C 0.41729 0.11999 0.1184 0.0
C657 C 0.45601 0.14963 0.10867 0.0
C658 C 0.48109 0.15694 0.09622 0.0
C659 C 0.48273 0.15401 0.07152 0.0
C660 C 0.5065 0.16057 0.05996 0.0
C661 C 0.52875 0.17028 0.07289 0.0
C662 C 0.52724 0.17354 0.09739 0.0
C663 C 0.50352 0.16696 0.10904 0.0
H664 H 0.54714 0.17534 0.06391 0.0
H665 H 0.31719 0.11048 0.17727 0.0
H666 H 0.17869 0.87697 0.62757 0.0
H667 H 0.14721 0.90039 0.61379 0.0
H668 H 0.08588 0.84954 0.64729 0.0
H669 H 0.11764 0.82556 0.66091 0.0
H670 H 0.0711 0.86307 0.60412 0.0
H671 H 0.10728 0.90434 0.67309 0.0
H672 H 0.14159 0.92274 0.701 0.0
H673 H 0.17382 0.97502 0.6483 0.0
H674 H 0.13995 0.95672 0.61993 0.0
H675 H 0.99822 0.95794 0.57408 0.0
H676 H 0.01677 0.93002 0.59956 0.0
H677 H 0.09101 0.95344 0.56628 0.0
H678 H 0.0727 0.98077 0.54064 0.0
H679 H 0.09066 0.95211 0.61835 0.0
H680 H 0.0583 0.90402 0.54802 0.0
H681 H 0.02333 0.88553 0.52076 0.0
H682 H 0.98206 0.84632 0.57871 0.0
H683 H 0.01666 0.8649 0.60638 0.0
C684 C 0.15852 0.87081 0.63211 0.0
C685 C 0.15063 0.84969 0.64564 0.0
C686 C 0.14054 0.88422 0.62426 0.0
C687 C 0.11428 0.87708 0.63006 0.0
C688 C 0.1061 0.85549 0.64285 0.0
C689 C 0.12419 0.84184 0.65057 0.0
C690 C 0.09581 0.89249 0.62248 0.0
C691 C 0.07497 0.88244 0.60774 0.0
C692 C 0.10076 0.91777 0.62726 0.0
C693 C 0.12107 0.92908 0.64434 0.0
C694 C 0.12175 0.91968 0.6674 0.0
C695 C 0.14113 0.9301 0.68331 0.0
C696 C 0.15988 0.95002 0.67642 0.0
C697 C 0.15927 0.9596 0.65362 0.0
C698 C 0.13995 0.94923 0.63763 0.0
C699 C 0.01851 0.95716 0.57234 0.0
C700 C 0.03403 0.97143 0.55535 0.0
C701 C 0.02902 0.94122 0.58682 0.0
C702 C 0.05522 0.93977 0.58472 0.0
C703 C 0.07076 0.95439 0.56815 0.0
C704 C 0.06023 0.96988 0.55344 0.0
C705 C 0.06685 0.92281 0.5993 0.0
C706 C 0.08638 0.93263 0.61537 0.0
C707 C 0.06048 0.89737 0.59596 0.0
C708 C 0.03987 0.88608 0.57929 0.0
C709 C 0.04165 0.89164 0.55497 0.0
C710 C 0.02193 0.88111 0.53945 0.0
C711 C 1.00044 0.86483 0.54801 0.0
C712 C 0.99869 0.85898 0.57211 0.0
C713 C 0.01834 0.8695 0.58772 0.0
H714 H 0.98519 0.85669 0.53596 0.0
H715 H 0.17488 0.95805 0.68876 0.0
H716 H 0.78024 0.37493 0.86768 0.0
H717 H 0.81685 0.39514 0.89141 0.0
H718 H 0.77496 0.45119 0.9104 0.0
H719 H 0.73787 0.43081 0.88674 0.0
H720 H 0.82645 0.47017 0.90057 0.0
H721 H 0.77944 0.40703 0.9496 0.0
H722 H 0.75754 0.36522 0.95913 0.0
H723 H 0.82856 0.33992 0.94841 0.0
H724 H 0.85081 0.38154 0.93848 0.0
H725 H 0.91938 0.51638 0.99033 0.0
H726 H 0.87904 0.50053 0.96911 0.0
H727 H 0.90642 0.43445 0.95365 0.0
H728 H 0.94596 0.44967 0.97587 0.0
H729 H 0.85913 0.4225 0.96376 0.0
H730 H 0.90578 0.48472 0.91217 0.0
H731 H 0.92822 0.52636 0.90255 0.0
H732 H 0.85899 0.55332 0.91743 0.0
H733 H 0.83623 0.51187 0.92747 0.0
C734 C 0.7786 0.39144 0.87703 0.0
C735 C 0.75578 0.40095 0.8755 0.0
C736 C 0.79969 0.40308 0.89055 0.0
C737 C 0.79863 0.42454 0.90307 0.0
C738 C 0.77628 0.43463 0.90098 0.0
C739 C 0.75507 0.42295 0.88739 0.0
C740 C 0.82063 0.43584 0.91877 0.0
C741 C 0.8334 0.45988 0.91461 0.0
C742 C 0.83002 0.42239 0.93692 0.0
C743 C 0.81674 0.39738 0.94312 0.0
C744 C 0.79035 0.39253 0.94912 0.0
C745 C 0.77788 0.36886 0.95462 0.0
C746 C 0.79164 0.34992 0.95433 0.0
C747 C 0.81792 0.35461 0.94861 0.0
C748 C 0.83048 0.37824 0.94307 0.0
C749 C 0.9167 0.49841 0.98252 0.0
C750 C 0.93593 0.48429 0.98487 0.0
C751 C 0.89367 0.48941 0.97016 0.0
C752 C 0.88965 0.46637 0.95923 0.0
C753 C 0.90881 0.45224 0.96183 0.0
C754 C 0.93153 0.46099 0.97459 0.0
C755 C 0.8656 0.4567 0.94521 0.0
C756 C 0.85228 0.43292 0.94976 0.0
C757 C 0.85588 0.47038 0.92735 0.0
C758 C 0.86937 0.49522 0.92078 0.0
C759 C 0.89538 0.49954 0.91349 0.0
C760 C 0.90816 0.52311 0.90797 0.0
C761 C 0.89506 0.54248 0.90943 0.0
C762 C 0.86912 0.5383 0.91634 0.0
C763 C 0.85626 0.51477 0.92193 0.0
H764 H 0.90499 0.5607 0.90515 0.0
H765 H 0.78194 0.33161 0.95858 0.0
H766 H 0.7818 0.63928 0.40755 0.0
H767 H 0.74518 0.6212 0.43262 0.0
H768 H 0.69886 0.60032 0.37007 0.0
H769 H 0.73506 0.61932 0.34515 0.0
H770 H 0.67046 0.61665 0.39912 0.0
H771 H 0.72602 0.55897 0.40775 0.0
H772 H 0.76635 0.54464 0.41683 0.0
H773 H 0.76424 0.57039 0.48842 0.0
H774 H 0.72406 0.58516 0.47967 0.0
H775 H 0.57147 0.52726 0.44888 0.0
H776 H 0.6109 0.54647 0.42847 0.0
H777 H 0.63982 0.58323 0.49301 0.0
H778 H 0.59993 0.56425 0.51371 0.0
H779 H 0.6772 0.5605 0.46568 0.0
H780 H 0.61827 0.6156 0.45531 0.0
H781 H 0.57637 0.62606 0.44462 0.0
H782 H 0.5838 0.60069 0.37356 0.0
H783 H 0.62557 0.5897 0.38393 0.0
C784 C 0.76386 0.6306 0.39919 0.0
C785 C 0.76136 0.63072 0.37435 0.0
C786 C 0.74288 0.62016 0.41355 0.0
C787 C 0.71907 0.60901 0.4034 0.0
C788 C 0.71681 0.60883 0.37852 0.0
C789 C 0.73759 0.61965 0.36423 0.0
C790 C 0.69625 0.59819 0.41848 0.0
C791 C 0.67205 0.60417 0.41347 0.0
C792 C 0.69802 0.58222 0.43768 0.0
C793 C 0.7222 0.57342 0.44298 0.0
C794 C 0.73427 0.56175 0.42537 0.0
C795 C 0.75708 0.55352 0.43047 0.0
C796 C 0.76789 0.55667 0.45317 0.0
C797 C 0.75587 0.56801 0.47084 0.0
C798 C 0.73307 0.5763 0.46582 0.0
C799 C 0.58619 0.53931 0.4589 0.0
C800 C 0.58239 0.5442 0.48302 0.0
C801 C 0.60876 0.55034 0.44712 0.0
C802 C 0.62831 0.56639 0.45914 0.0
C803 C 0.62499 0.5709 0.48337 0.0
C804 C 0.60214 0.5601 0.49515 0.0
C805 C 0.65174 0.57882 0.446 0.0
C806 C 0.67589 0.57313 0.45139 0.0
C807 C 0.64988 0.59467 0.42684 0.0
C808 C 0.62496 0.60164 0.42047 0.0
C809 C 0.61088 0.61209 0.43745 0.0
C810 C 0.58717 0.61813 0.43144 0.0
C811 C 0.5774 0.61399 0.40844 0.0
C812 C 0.59138 0.60387 0.39138 0.0
C813 C 0.61509 0.59775 0.39731 0.0
H814 H 0.55902 0.61866 0.40383 0.0
H815 H 0.78555 0.55028 0.45708 0.0
H816 H 0.28745 0.34667 0.13636 0.0
H817 H 0.25175 0.36078 0.11623 0.0
H818 H 0.20471 0.34497 0.17891 0.0
H819 H 0.24008 0.33069 0.19897 0.0
H820 H 0.17892 0.32738 0.13798 0.0
H821 H 0.2317 0.40196 0.16654 0.0
H822 H 0.27169 0.4328 0.17076 0.0
H823 H 0.27407 0.44386 0.0954 0.0
H824 H 0.2343 0.41277 0.09069 0.0
H825 H 0.07666 0.38934 0.11876 0.0
H826 H 0.11407 0.37443 0.13386 0.0
H827 H 0.15697 0.40027 0.07083 0.0
H828 H 0.12003 0.41639 0.05614 0.0
H829 H 0.18614 0.41174 0.1086 0.0
H830 H 0.13252 0.33907 0.07968 0.0
H831 H 0.09238 0.30852 0.07491 0.0
H832 H 0.09171 0.29348 0.14957 0.0
H833 H 0.13167 0.32419 0.15484 0.0
C834 C 0.26947 0.3462 0.14578 0.0
C835 C 0.26659 0.33774 0.16927 0.0
C836 C 0.24918 0.35436 0.13434 0.0
C837 C 0.22567 0.35403 0.14615 0.0
C838 C 0.22272 0.34541 0.16951 0.0
C839 C 0.24301 0.33746 0.181 0.0
C840 C 0.20391 0.36237 0.13423 0.0
C841 C 0.1804 0.34587 0.13172 0.0
C842 C 0.20615 0.38629 0.12544 0.0
C843 C 0.23021 0.4048 0.12824 0.0
C844 C 0.24091 0.41076 0.15084 0.0
C845 C 0.2635 0.42833 0.15333 0.0
C846 C 0.27546 0.44022 0.13335 0.0
C847 C 0.26482 0.43459 0.11085 0.0
C848 C 0.24226 0.417 0.10827 0.0
C849 C 0.0941 0.39203 0.10816 0.0
C850 C 0.0953 0.40408 0.08622 0.0
C851 C 0.11539 0.38322 0.11669 0.0
C852 C 0.13822 0.3859 0.10332 0.0
C853 C 0.13951 0.39788 0.0814 0.0
C854 C 0.11827 0.40687 0.07292 0.0
C855 C 0.16095 0.37682 0.1126 0.0
C856 C 0.18467 0.39316 0.11461 0.0
C857 C 0.15896 0.35268 0.12079 0.0
C858 C 0.13499 0.33408 0.11768 0.0
C859 C 0.12372 0.32937 0.09511 0.0
C860 C 0.10101 0.31201 0.09231 0.0
C861 C 0.08947 0.2991 0.11193 0.0
C862 C 0.10066 0.3035 0.13439 0.0
C863 C 0.12336 0.32086 0.13729 0.0
H864 H 0.07189 0.28567 0.10973 0.0
H865 H 0.29293 0.45385 0.13532 0.0
H866 H 0.57738 0.24521 0.84989 0.0
H867 H 0.56065 0.20927 0.87365 0.0
H868 H 0.61535 0.23582 0.92905 0.0
H869 H 0.63298 0.27129 0.90495 0.0
H870 H 0.61417 0.18938 0.9231 0.0
H871 H 0.54889 0.23709 0.93333 0.0
H872 H 0.51657 0.261 0.92081 0.0
H873 H 0.47384 0.19888 0.88406 0.0
H874 H 0.5061 0.17467 0.89611 0.0
H875 H 0.55603 0.10486 0.01131 0.0
H876 H 0.57217 0.14206 0.98897 0.0
H877 H 0.52138 0.11502 0.93089 0.0
H878 H 0.50497 0.07787 0.95316 0.0
H879 H 0.52055 0.16212 0.93905 0.0
H880 H 0.58665 0.11476 0.9287 0.0
H881 H 0.61891 0.09106 0.94189 0.0
H882 H 0.66003 0.15313 0.97982 0.0
H883 H 0.62781 0.17712 0.96711 0.0
C884 C 0.586 0.24345 0.86708 0.0
C885 C 0.60661 0.26142 0.87537 0.0
C886 C 0.57617 0.22289 0.88083 0.0
C887 C 0.58644 0.21976 0.90342 0.0
C888 C 0.60694 0.23769 0.91178 0.0
C889 C 0.61684 0.25821 0.89801 0.0
C890 C 0.57626 0.1976 0.91805 0.0
C891 C 0.59372 0.18369 0.92686 0.0
C892 C 0.54951 0.18964 0.92269 0.0
C893 C 0.53005 0.20413 0.91543 0.0
C894 C 0.53271 0.22858 0.92243 0.0
C895 C 0.51438 0.24218 0.91544 0.0
C896 C 0.4932 0.23149 0.9016 0.0
C897 C 0.49028 0.20715 0.89476 0.0
C898 C 0.50856 0.19347 0.90168 0.0
C899 C 0.54828 0.10676 0.99378 0.0
C900 C 0.52923 0.08816 0.98408 0.0
C901 C 0.55762 0.12809 0.98094 0.0
C902 C 0.54826 0.1314 0.95803 0.0
C903 C 0.529 0.11301 0.94846 0.0
C904 C 0.51969 0.09166 0.96125 0.0
C905 C 0.55845 0.15394 0.94403 0.0
C906 C 0.54099 0.16789 0.93533 0.0
C907 C 0.58521 0.162 0.93958 0.0
C908 C 0.60467 0.14765 0.94715 0.0
C909 C 0.60246 0.1233 0.94 0.0
C910 C 0.62076 0.10983 0.94736 0.0
C911 C 0.64146 0.12056 0.96173 0.0
C912 C 0.64396 0.14482 0.96871 0.0
C913 C 0.6257 0.15837 0.96142 0.0
H914 H 0.65561 0.1101 0.96742 0.0
H915 H 0.47904 0.24205 0.89621 0.0
H916 H 0.93477 0.78789 0.34481 0.0
H917 H 0.95066 0.82535 0.36678 0.0
H918 H 0.89375 0.80261 0.42117 0.0
H919 H 0.87691 0.76563 0.39875 0.0
H920 H 0.89526 0.84837 0.41221 0.0
H921 H 0.96015 0.80166 0.42859 0.0
H922 H 0.99298 0.77712 0.4193 0.0
H923 H 0.03707 0.83685 0.38052 0.0
H924 H 1.00432 0.86166 0.38932 0.0
H925 H 0.94959 0.93681 0.49837 0.0
H926 H 0.93468 0.89869 0.47704 0.0
H927 H 0.98746 0.92379 0.42001 0.0
H928 H 1.00268 0.96196 0.44135 0.0
H929 H 0.98823 0.87686 0.43067 0.0
H930 H 0.92246 0.92334 0.41473 0.0
H931 H 0.88973 0.9476 0.42525 0.0
H932 H 0.84732 0.88748 0.46469 0.0
H933 H 0.87999 0.86297 0.45467 0.0
C934 C 0.92546 0.79082 0.36137 0.0
C935 C 0.90447 0.77347 0.36988 0.0
C936 C 0.93483 0.81225 0.37413 0.0
C937 C 0.9237 0.81689 0.39591 0.0
C938 C 0.90282 0.79958 0.40449 0.0
C939 C 0.89336 0.7782 0.39171 0.0
C940 C 0.93335 0.83997 0.40944 0.0
C941 C 0.91556 0.85434 0.41651 0.0
C942 C 0.95993 0.8483 0.41476 0.0
C943 C 0.97965 0.83343 0.40942 0.0
C944 C 0.97675 0.8095 0.41792 0.0
C945 C 0.99536 0.79555 0.41277 0.0
C946 C 0.01706 0.80539 0.39927 0.0
C947 C 0.02023 0.82924 0.39095 0.0
C948 C 1.00166 0.84326 0.39603 0.0
C949 C 0.95806 0.93432 0.48127 0.0
C950 C 0.97731 0.95266 0.47159 0.0
C951 C 0.94941 0.91245 0.46902 0.0
C952 C 0.95968 0.90832 0.44671 0.0
C953 C 0.97915 0.92645 0.43714 0.0
C954 C 0.98777 0.94838 0.44936 0.0
C955 C 0.95014 0.88515 0.43338 0.0
C956 C 0.96794 0.87081 0.42635 0.0
C957 C 0.92356 0.87676 0.42823 0.0
C958 C 0.9038 0.8914 0.43413 0.0
C959 C 0.90625 0.91536 0.42579 0.0
C960 C 0.88769 0.92914 0.43164 0.0
C961 C 0.86649 0.91911 0.44568 0.0
C962 C 0.86377 0.89524 0.45384 0.0
C963 C 0.88228 0.88138 0.44806 0.0
H964 H 0.85215 0.92981 0.45019 0.0
H965 H 0.03145 0.79457 0.39531 0.0
H966 H 0.27592 0.70196 0.6816 0.0
H967 H 0.30267 0.67321 0.66961 0.0
H968 H 0.2628 0.66282 0.60246 0.0
H969 H 0.23561 0.69155 0.61444 0.0
H970 H 0.30024 0.62657 0.65209 0.0
H971 H 0.30991 0.67063 0.56004 0.0
H972 H 0.30197 0.70778 0.54031 0.0
H973 H 0.31561 0.74705 0.606 0.0
H974 H 0.32409 0.71028 0.62596 0.0
H975 H 0.39107 0.57474 0.58352 0.0
H976 H 0.35235 0.58893 0.59678 0.0
H977 H 0.39767 0.6609 0.60737 0.0
H978 H 0.43616 0.64714 0.59324 0.0
H979 H 0.35441 0.66313 0.58457 0.0
H980 H 0.37789 0.62239 0.6542 0.0
H981 H 0.38811 0.58765 0.67653 0.0
H982 H 0.31303 0.54568 0.66008 0.0
H983 H 0.30248 0.58011 0.63741 0.0
C984 C 0.27201 0.69284 0.66467 0.0
C985 C 0.25389 0.69937 0.6488 0.0
C986 C 0.28742 0.67639 0.65783 0.0
C987 C 0.28504 0.66627 0.635 0.0
C988 C 0.26514 0.67073 0.62006 0.0
C989 C 0.24971 0.68722 0.62688 0.0
C990 C 0.30601 0.65474 0.62564 0.0
C991 C 0.31191 0.63431 0.63713 0.0
C992 C 0.32158 0.66523 0.60649 0.0
C993 C 0.3173 0.68764 0.59451 0.0
C994 C 0.31133 0.68723 0.57021 0.0
C995 C 0.30674 0.70822 0.559 0.0
C996 C 0.30819 0.72974 0.57191 0.0
C997 C 0.31442 0.73036 0.59603 0.0
C998 C 0.31912 0.70946 0.60729 0.0
C999 C 0.39276 0.59363 0.58853 0.0
C1000 C 0.41673 0.60983 0.58729 0.0
C1001 C 0.37065 0.60164 0.59633 0.0
C1002 C 0.37215 0.62594 0.6032 0.0
C1003 C 0.39607 0.64207 0.60214 0.0
C1004 C 0.41812 0.63412 0.59429 0.0
C1005 C 0.34881 0.63491 0.61101 0.0
C1006 C 0.34249 0.65498 0.59921 0.0
C1007 C 0.33326 0.62436 0.63018 0.0
C1008 C 0.33951 0.60373 0.64392 0.0
C1009 C 0.36364 0.60569 0.65521 0.0
C1010 C 0.36947 0.58607 0.66795 0.0
C1011 C 0.35125 0.56445 0.66967 0.0
C1012 C 0.32713 0.56243 0.65871 0.0
C1013 C 0.32121 0.582 0.64594 0.0
H1014 H 0.35581 0.54928 0.67954 0.0
H1015 H 0.30455 0.74594 0.56322 0.0
H1016 H 0.7854 0.81024 0.75268 0.0
H1017 H 0.80485 0.82221 0.71412 0.0
H1018 H 0.75412 0.87342 0.70555 0.0
H1019 H 0.73427 0.86128 0.74401 0.0
H1020 H 0.76449 0.85031 0.66235 0.0
H1021 H 0.80976 0.89301 0.72973 0.0
H1022 H 0.83179 0.89509 0.7685 0.0
H1023 H 0.88782 0.85667 0.73976 0.0
H1024 H 0.86583 0.85403 0.70089 0.0
H1025 H 0.83325 0.94783 0.59542 0.0
H1026 H 0.80817 0.91921 0.62299 0.0
H1027 H 0.87242 0.88233 0.63049 0.0
H1028 H 0.89815 0.91173 0.60384 0.0
H1029 H 0.85594 0.89208 0.67197 0.0
H1030 H 0.81479 0.85519 0.60249 0.0
H1031 H 0.79283 0.85318 0.56371 0.0
H1032 H 0.72964 0.87993 0.59523 0.0
H1033 H 0.75138 0.88244 0.63416 0.0
C1034 C 0.77781 0.82349 0.74227 0.0
C1035 C 0.75849 0.83502 0.75145 0.0
C1036 C 0.78902 0.83037 0.7203 0.0
C1037 C 0.7811 0.84888 0.70718 0.0
C1038 C 0.76049 0.85911 0.71544 0.0
C1039 C 0.74934 0.85232 0.73748 0.0
C1040 C 0.79641 0.8598 0.68661 0.0
C1041 C 0.78447 0.85951 0.66434 0.0
C1042 C 0.82262 0.87127 0.68923 0.0
C1043 C 0.83598 0.87306 0.71251 0.0
C1044 C 0.82665 0.88483 0.73174 0.0
C1045 C 0.83915 0.88614 0.75372 0.0
C1046 C 0.86115 0.87595 0.75662 0.0
C1047 C 0.87074 0.8645 0.73751 0.0
C1048 C 0.85828 0.86309 0.7155 0.0
C1049 C 0.84205 0.93359 0.60287 0.0
C1050 C 0.86782 0.93224 0.59761 0.0
C1051 C 0.82752 0.91698 0.61838 0.0
C1052 C 0.8383 0.89844 0.62866 0.0
C1053 C 0.86367 0.89644 0.62269 0.0
C1054 C 0.87829 0.91317 0.60731 0.0
C1055 C 0.82407 0.88288 0.64747 0.0
C1056 C 0.83616 0.88244 0.66961 0.0
C1057 C 0.79806 0.87071 0.64462 0.0
C1058 C 0.78482 0.86915 0.62125 0.0
C1059 C 0.7963 0.86081 0.60114 0.0
C1060 C 0.78387 0.85956 0.57912 0.0
C1061 C 0.75988 0.86646 0.577 0.0
C1062 C 0.74823 0.87459 0.59691 0.0
C1063 C 0.76058 0.8759 0.61896 0.0
H1064 H 0.75029 0.86548 0.55994 0.0
H1065 H 0.8708 0.87699 0.77364 0.0
H1066 H 0.78652 0.24798 0.21405 0.0
H1067 H 0.75537 0.22374 0.18704 0.0
H1068 H 0.72051 0.18038 0.24579 0.0
H1069 H 0.75078 0.205 0.27306 0.0
H1070 H 0.73258 0.15309 0.20664 0.0
H1071 H 0.68953 0.21955 0.22372 0.0
H1072 H 0.68598 0.26266 0.22633 0.0
H1073 H 0.6995 0.27084 0.15145 0.0
H1074 H 0.70351 0.22782 0.14845 0.0
H1075 H 0.61996 0.08582 0.15556 0.0
H1076 H 0.64931 0.11409 0.18076 0.0
H1077 H 0.67425 0.15919 0.12001 0.0
H1078 H 0.64469 0.13095 0.09466 0.0
H1079 H 0.66873 0.18648 0.15846 0.0
H1080 H 0.71107 0.12071 0.1405 0.0
H1081 H 0.71549 0.07788 0.13703 0.0
H1082 H 0.70517 0.06878 0.21221 0.0
H1083 H 0.70029 0.11149 0.2161 0.0
C1084 C 0.77199 0.23354 0.22132 0.0
C1085 C 0.77129 0.22841 0.24577 0.0
C1086 C 0.75429 0.21965 0.20582 0.0
C1087 C 0.73569 0.20032 0.21447 0.0
C1088 C 0.73486 0.19516 0.23879 0.0
C1089 C 0.75232 0.20917 0.25431 0.0
C1090 C 0.7174 0.18502 0.19814 0.0
C1091 C 0.71841 0.1603 0.1963 0.0
C1092 C 0.69953 0.19469 0.18415 0.0
C1093 C 0.69712 0.22054 0.18591 0.0
C1094 C 0.692 0.2306 0.20785 0.0
C1095 C 0.68985 0.25501 0.20939 0.0
C1096 C 0.69259 0.2695 0.18908 0.0
C1097 C 0.69742 0.2596 0.16717 0.0
C1098 C 0.69962 0.2352 0.16554 0.0
C1099 C 0.63168 0.10177 0.14757 0.0
C1100 C 0.63027 0.10605 0.12311 0.0
C1101 C 0.64843 0.11791 0.16198 0.0
C1102 C 0.66432 0.13849 0.15217 0.0
C1103 C 0.66221 0.14336 0.12791 0.0
C1104 C 0.64531 0.12726 0.11348 0.0
C1105 C 0.68365 0.15442 0.16719 0.0
C1106 C 0.68294 0.17926 0.16873 0.0
C1107 C 0.70201 0.14492 0.18078 0.0
C1108 C 0.70508 0.11925 0.17855 0.0
C1109 C 0.70954 0.10953 0.15627 0.0
C1110 C 0.71216 0.08528 0.15423 0.0
C1111 C 0.71055 0.0706 0.17438 0.0
C1112 C 0.70638 0.08017 0.19662 0.0
C1113 C 0.70371 0.1044 0.19875 0.0
H1114 H 0.71258 0.05183 0.17277 0.0
H1115 H 0.69091 0.2884 0.19031 0.0
H1116 H 0.43429 0.65798 0.29322 0.0
H1117 H 0.44863 0.6406 0.32925 0.0
H1118 H 0.38587 0.57902 0.32279 0.0
H1119 H 0.37023 0.59712 0.28778 0.0
H1120 H 0.39123 0.58856 0.3667 0.0
H1121 H 0.45247 0.57889 0.30659 0.0
H1122 H 0.48452 0.59151 0.27497 0.0
H1123 H 0.53313 0.63828 0.32396 0.0
H1124 H 0.50119 0.6262 0.35581 0.0
H1125 H 0.44754 0.51073 0.44425 0.0
H1126 H 0.43085 0.52875 0.40925 0.0
H1127 H 0.48414 0.59608 0.42224 0.0
H1128 H 0.5007 0.57837 0.45719 0.0
H1129 H 0.48353 0.5828 0.37518 0.0
H1130 H 0.42107 0.59099 0.4354 0.0
H1131 H 0.38931 0.57596 0.46663 0.0
H1132 H 0.34312 0.52886 0.41628 0.0
H1133 H 0.37482 0.54336 0.38481 0.0
C1134 C 0.42313 0.64096 0.29957 0.0
C1135 C 0.40106 0.62904 0.28708 0.0
C1136 C 0.4317 0.63075 0.32015 0.0
C1137 C 0.41885 0.60803 0.3287 0.0
C1138 C 0.39643 0.59641 0.31667 0.0
C1139 C 0.38764 0.60675 0.2963 0.0
C1140 C 0.42872 0.59633 0.35001 0.0
C1141 C 0.41138 0.58706 0.36828 0.0
C1142 C 0.4551 0.59447 0.35264 0.0
C1143 C 0.4743 0.60184 0.33351 0.0
C1144 C 0.4699 0.59201 0.31057 0.0
C1145 C 0.48806 0.59905 0.29261 0.0
C1146 C 0.5108 0.61575 0.29744 0.0
C1147 C 0.51547 0.62539 0.32024 0.0
C1148 C 0.49736 0.61845 0.33825 0.0
C1149 C 0.45567 0.5294 0.43971 0.0
C1150 C 0.47544 0.54306 0.45373 0.0
C1151 C 0.44604 0.53973 0.41968 0.0
C1152 C 0.45608 0.56391 0.41304 0.0
C1153 C 0.47599 0.57744 0.42688 0.0
C1154 C 0.48539 0.56726 0.44701 0.0
C1155 C 0.44608 0.57516 0.39167 0.0
C1156 C 0.4634 0.58432 0.37346 0.0
C1157 C 0.41967 0.57662 0.38897 0.0
C1158 C 0.40046 0.56808 0.4078 0.0
C1159 C 0.40424 0.57729 0.43103 0.0
C1160 C 0.38623 0.56889 0.44877 0.0
C1161 C 0.36425 0.55141 0.44346 0.0
C1162 C 0.36018 0.54237 0.42038 0.0
C1163 C 0.37815 0.55069 0.40257 0.0
H1164 H 0.35034 0.54491 0.45723 0.0
H1165 H 0.52485 0.62116 0.28351 0.0
H1166 H 0.15606 0.39991 0.81183 0.0
H1167 H 0.13919 0.41766 0.84677 0.0
H1168 H 0.06523 0.4119 0.81228 0.0
H1169 H 0.08197 0.39382 0.77726 0.0
H1170 H 0.08419 0.45831 0.83486 0.0
H1171 H 0.0703 0.37283 0.85355 0.0
H1172 H 0.08374 0.33342 0.85882 0.0
H1173 H 0.13857 0.36474 0.91203 0.0
H1174 H 0.12572 0.40445 0.90683 0.0
H1175 H 0.01231 0.48713 0.93285 0.0
H1176 H 0.02845 0.46838 0.89842 0.0
H1177 H 0.09249 0.45369 0.94 0.0
H1178 H 0.07531 0.4712 0.97503 0.0
H1179 H 0.07939 0.41773 0.91325 0.0
H1180 H 0.09623 0.50244 0.89557 0.0
H1181 H 0.0865 0.5434 0.89039 0.0
H1182 H 0.03155 0.51647 0.83574 0.0
H1183 H 0.04071 0.47526 0.84079 0.0
C1184 C 0.13623 0.40252 0.81158 0.0
C1185 C 0.12042 0.39546 0.79161 0.0
C1186 C 0.12655 0.41257 0.83168 0.0
C1187 C 0.10086 0.41611 0.83231 0.0
C1188 C 0.0851 0.40938 0.8123 0.0
C1189 C 0.09466 0.39893 0.79231 0.0
C1190 C 0.09057 0.4268 0.85384 0.0
C1191 C 0.08278 0.44929 0.85194 0.0
C1192 C 0.0896 0.41556 0.87639 0.0
C1193 C 0.09722 0.39166 0.87963 0.0
C1194 C 0.08538 0.37137 0.86624 0.0
C1195 C 0.09286 0.34896 0.86924 0.0
C1196 C 0.11204 0.34659 0.88571 0.0
C1197 C 0.12374 0.36661 0.89926 0.0
C1198 C 0.11635 0.38906 0.89631 0.0
C1199 C 0.02989 0.47996 0.9347 0.0
C1200 C 0.04262 0.48091 0.95675 0.0
C1201 C 0.03929 0.46935 0.91483 0.0
C1202 C 0.06226 0.46007 0.91608 0.0
C1203 C 0.07483 0.46073 0.93825 0.0
C1204 C 0.06504 0.47085 0.95834 0.0
C1205 C 0.07283 0.44944 0.89445 0.0
C1206 C 0.08075 0.42692 0.89627 0.0
C1207 C 0.07447 0.46095 0.87189 0.0
C1208 C 0.06898 0.48572 0.86872 0.0
C1209 C 0.08195 0.50523 0.88255 0.0
C1210 C 0.07655 0.52849 0.87963 0.0
C1211 C 0.05837 0.53252 0.86279 0.0
C1212 C 0.0456 0.51331 0.84879 0.0
C1213 C 0.05091 0.49 0.85166 0.0
H1214 H 0.05421 0.55054 0.86056 0.0
H1215 H 0.11781 0.32924 0.88801 0.0
H1216 H 0.61182 0.82698 0.875 0.0
H1217 H 0.57981 0.8484 0.89227 0.0
H1218 H 0.63439 0.87764 0.94701 0.0
H1219 H 0.66601 0.8561 0.9302 0.0
H1220 H 0.58812 0.86744 0.96524 0.0
H1221 H 0.62647 0.90904 0.89473 0.0
H1222 H 0.63719 0.91239 0.85214 0.0
H1223 H 0.55639 0.89591 0.83448 0.0
H1224 H 0.54521 0.89215 0.877 0.0
H1225 H 0.56826 0.98335 0.99559 0.0
H1226 H 0.58519 0.95045 0.97684 0.0
H1227 H 0.51157 0.92492 0.94292 0.0
H1228 H 0.49419 0.95776 0.96189 0.0
H1229 H 0.55815 0.92762 0.91302 0.0
H1230 H 0.52167 0.89513 0.98652 0.0
H1231 H 0.51439 0.8963 0.02963 0.0
H1232 H 0.59513 0.8986 0.04239 0.0
H1233 H 0.60312 0.89827 0.99932 0.0
C1234 C 0.61676 0.83771 0.89092 0.0
C1235 C 0.64143 0.83989 0.90123 0.0
C1236 C 0.59851 0.84996 0.90074 0.0
C1237 C 0.60484 0.86493 0.92074 0.0
C1238 C 0.629 0.86614 0.93165 0.0
C1239 C 0.64708 0.85374 0.92203 0.0
C1240 C 0.5874 0.88086 0.9295 0.0
C1241 C 0.58154 0.88055 0.9538 0.0
C1242 C 0.57833 0.89768 0.91451 0.0
C1243 C 0.58503 0.9 0.88899 0.0
C1244 C 0.611 0.90596 0.88175 0.0
C1245 C 0.61716 0.90795 0.85764 0.0
C1246 C 0.59748 0.90428 0.84062 0.0
C1247 C 0.57161 0.89868 0.84768 0.0
C1248 C 0.56535 0.89661 0.87178 0.0
C1249 C 0.55568 0.97094 0.98397 0.0
C1250 C 0.52985 0.97313 0.98029 0.0
C1251 C 0.56537 0.95209 0.97337 0.0
C1252 C 0.54951 0.93521 0.95874 0.0
C1253 C 0.52402 0.93779 0.95425 0.0
C1254 C 0.51416 0.95651 0.96512 0.0
C1255 C 0.55971 0.9146 0.94875 0.0
C1256 C 0.56418 0.91406 0.9243 0.0
C1257 C 0.56788 0.89727 0.96365 0.0
C1258 C 0.56302 0.89683 0.98963 0.0
C1259 C 0.53793 0.89607 0.99849 0.0
C1260 C 0.53366 0.89656 0.02293 0.0
C1261 C 0.55426 0.89746 0.03873 0.0
C1262 C 0.57919 0.89788 0.03012 0.0
C1263 C 0.5836 0.89757 1.00569 0.0
H1264 H 0.55089 0.89784 0.05765 0.0
H1265 H 0.60229 0.90585 0.82196 0.0
H1266 H 0.88674 0.19023 0.34529 0.0
H1267 H 0.90494 0.15962 0.3668 0.0
H1268 H 0.94144 0.21433 0.41634 0.0
H1269 H 0.92333 0.2452 0.39477 0.0
H1270 H 0.97376 0.18154 0.40057 0.0
H1271 H 0.88906 0.1798 0.43341 0.0
H1272 H 0.84186 0.17727 0.43151 0.0
H1273 H 0.8326 0.10691 0.39882 0.0
H1274 H 0.87981 0.10918 0.40019 0.0
H1275 H 0.00558 0.09981 0.48575 0.0
H1276 H 0.9897 0.13255 0.46563 0.0
H1277 H 0.93551 0.07953 0.42598 0.0
H1278 H 0.95005 0.04677 0.44768 0.0
H1279 H 0.91276 0.11315 0.43736 0.0
H1280 H 0.99682 0.11461 0.40257 0.0
H1281 H 0.0439 0.11608 0.40441 0.0
H1282 H 0.05466 0.18542 0.4393 0.0
H1283 H 0.00762 0.18428 0.43781 0.0
C1284 C 0.89892 0.19581 0.36058 0.0
C1285 C 0.90361 0.22009 0.36838 0.0
C1286 C 0.90917 0.1783 0.37291 0.0
C1287 C 0.92437 0.18473 0.39321 0.0
C1288 C 0.92973 0.20905 0.4007 0.0
C1289 C 0.91925 0.22658 0.38849 0.0
C1290 C 0.93379 0.16579 0.40705 0.0
C1291 C 0.9605 0.16668 0.40885 0.0
C1292 C 0.91641 0.14623 0.4174 0.0
C1293 C 0.88799 0.14477 0.4167 0.0
C1294 C 0.87698 0.16387 0.42563 0.0
C1295 C 0.85022 0.16247 0.42468 0.0
C1296 C 0.83424 0.14197 0.41499 0.0
C1297 C 0.845 0.12279 0.40629 0.0
C1298 C 0.87175 0.12412 0.40717 0.0
C1299 C 0.9903 0.09523 0.47268 0.0
C1300 C 0.97912 0.07089 0.46801 0.0
C1301 C 0.98136 0.11394 0.46105 0.0
C1302 C 0.96188 0.10861 0.44371 0.0
C1303 C 0.95063 0.08417 0.43918 0.0
C1304 C 0.95895 0.06546 0.45147 0.0
C1305 C 0.95288 0.12845 0.43061 0.0
C1306 C 0.92616 0.12784 0.42901 0.0
C1307 C 0.9703 0.14809 0.4202 0.0
C1308 C 0.99869 0.14929 0.42019 0.0
C1309 C 0.00924 0.13017 0.41062 0.0
C1310 C 0.0359 0.13094 0.41162 0.0
C1311 C 0.05225 0.15081 0.422 0.0
C1312 C 0.04198 0.17004 0.43125 0.0
C1313 C 0.01532 0.16938 0.43028 0.0
H1314 H 0.07287 0.15132 0.42285 0.0
H1315 H 0.81353 0.14091 0.41428 0.0
H1316 H 0.25966 0.59844 0.16745 0.0
H1317 H 0.21954 0.5807 0.14685 0.0
H1318 H 0.23583 0.63634 0.09332 0.0
H1319 H 0.27536 0.65473 0.1143 0.0
H1320 H 0.18632 0.6287 0.1038 0.0
H1321 H 0.24636 0.57713 0.08453 0.0
H1322 H 0.27736 0.55036 0.09264 0.0
H1323 H 0.21857 0.50078 0.12982 0.0
H1324 H 0.1873 0.52746 0.12224 0.0
H1325 H 0.09453 0.57061 0.01831 0.0
H1326 H 0.13494 0.58894 0.03833 0.0
H1327 H 0.11965 0.53428 0.09287 0.0
H1328 H 0.07967 0.51568 0.07287 0.0
H1329 H 0.16896 0.54153 0.0813 0.0
H1330 H 0.10923 0.59308 0.1014 0.0
H1331 H 0.07785 0.61948 0.09329 0.0
H1332 H 0.13575 0.66873 0.05478 0.0
H1333 H 0.16739 0.64243 0.06239 0.0
C1334 C 0.25458 0.60714 0.15147 0.0
C1335 C 0.27102 0.62799 0.14253 0.0
C1336 C 0.23171 0.59676 0.13951 0.0
C1337 C 0.22474 0.60685 0.11819 0.0
C1338 C 0.24075 0.62803 0.10959 0.0
C1339 C 0.26355 0.63844 0.12155 0.0
C1340 C 0.2009 0.59538 0.10479 0.0
C1341 C 0.18274 0.60971 0.09863 0.0
C1342 C 0.19575 0.57045 0.09836 0.0
C1343 C 0.21456 0.55443 0.10302 0.0
C1344 C 0.2401 0.56063 0.09461 0.0
C1345 C 0.25771 0.54545 0.09909 0.0
C1346 C 0.24996 0.52392 0.1118 0.0
C1347 C 0.22456 0.51749 0.12002 0.0
C1348 C 0.20688 0.53263 0.11563 0.0
C1349 C 0.09982 0.5624 0.0345 0.0
C1350 C 0.08365 0.54166 0.04394 0.0
C1351 C 0.12291 0.57301 0.04604 0.0
C1352 C 0.13032 0.56324 0.06737 0.0
C1353 C 0.11448 0.54225 0.0765 0.0
C1354 C 0.09147 0.53164 0.06501 0.0
C1355 C 0.15439 0.57484 0.08037 0.0
C1356 C 0.17258 0.56054 0.08645 0.0
C1357 C 0.15954 0.59977 0.08677 0.0
C1358 C 0.14059 0.61566 0.08226 0.0
C1359 C 0.11521 0.60944 0.09105 0.0
C1360 C 0.09739 0.6244 0.08657 0.0
C1361 C 0.10478 0.64573 0.07347 0.0
C1362 C 0.13004 0.65218 0.06489 0.0
C1363 C 0.14793 0.63727 0.0693 0.0
H1364 H 0.09096 0.65729 0.07002 0.0
H1365 H 0.26361 0.51217 0.11522 0.0
H1366 H 0.26555 0.36627 0.63561 0.0
H1367 H 0.30216 0.38725 0.61244 0.0
H1368 H 0.28988 0.45616 0.63919 0.0
H1369 H 0.25307 0.43517 0.66265 0.0
H1370 H 0.30259 0.45968 0.59248 0.0
H1371 H 0.33771 0.43037 0.66199 0.0
H1372 H 0.34405 0.4004 0.69227 0.0
H1373 H 0.37246 0.35748 0.63899 0.0
H1374 H 0.36593 0.38703 0.60832 0.0
H1375 H 0.42874 0.52167 0.55513 0.0
H1376 H 0.38963 0.50522 0.57764 0.0
H1377 H 0.39637 0.43257 0.5572 0.0
H1378 H 0.43571 0.44881 0.53513 0.0
H1379 H 0.38671 0.43368 0.60281 0.0
H1380 H 0.34938 0.46335 0.53292 0.0
H1381 H 0.34418 0.49474 0.50369 0.0
H1382 H 0.32144 0.53875 0.55917 0.0
H1383 H 0.32675 0.5077 0.58876 0.0
C1384 C 0.27063 0.38589 0.63671 0.0
C1385 C 0.25646 0.39894 0.65136 0.0
C1386 C 0.29161 0.39791 0.62336 0.0
C1387 C 0.29921 0.42332 0.62433 0.0
C1388 C 0.28452 0.43655 0.63816 0.0
C1389 C 0.2634 0.4245 0.65155 0.0
C1390 C 0.32291 0.43578 0.61141 0.0
C1391 C 0.32106 0.4542 0.59498 0.0
C1392 C 0.34709 0.42863 0.61442 0.0
C1393 C 0.3511 0.41081 0.63282 0.0
C1394 C 0.34512 0.41445 0.6567 0.0
C1395 C 0.34877 0.39755 0.67394 0.0
C1396 C 0.35859 0.37702 0.66755 0.0
C1397 C 0.36483 0.37338 0.64391 0.0
C1398 C 0.36117 0.39021 0.62659 0.0
C1399 C 0.42179 0.5022 0.5552 0.0
C1400 C 0.43548 0.48661 0.5432 0.0
C1401 C 0.39929 0.49279 0.56808 0.0
C1402 C 0.38975 0.46757 0.56906 0.0
C1403 C 0.40324 0.45206 0.55683 0.0
C1404 C 0.42576 0.46142 0.54409 0.0
C1405 C 0.3663 0.45714 0.58339 0.0
C1406 C 0.36825 0.43916 0.60026 0.0
C1407 C 0.34234 0.46485 0.58088 0.0
C1408 C 0.33865 0.48329 0.56306 0.0
C1409 C 0.34338 0.47977 0.53889 0.0
C1410 C 0.34039 0.49748 0.52226 0.0
C1411 C 0.33253 0.51874 0.52958 0.0
C1412 C 0.32753 0.52228 0.55353 0.0
C1413 C 0.33048 0.50461 0.57023 0.0
H1414 H 0.33027 0.53245 0.51668 0.0
H1415 H 0.36142 0.36396 0.68092 0.0
H1416 H 0.81841 0.74397 0.85614 0.0
H1417 H 0.83997 0.71057 0.86567 0.0
H1418 H 0.77677 0.6797 0.91167 0.0
H1419 H 0.75554 0.71393 0.90302 0.0
H1420 H 0.82084 0.68077 0.93337 0.0
H1421 H 0.78765 0.65186 0.85846 0.0
H1422 H 0.77744 0.65355 0.8159 0.0
H1423 H 0.85845 0.67046 0.79943 0.0
H1424 H 0.86918 0.66922 0.84192 0.0
H1425 H 0.89075 0.58534 0.95361 0.0
H1426 H 0.85542 0.60419 0.93934 0.0
H1427 H 0.90943 0.65424 0.89717 0.0
H1428 H 0.94491 0.63613 0.91182 0.0
H1429 H 0.86229 0.63576 0.8736 0.0
H1430 H 0.89361 0.67187 0.9494 0.0
H1431 H 0.9035 0.67023 0.99206 0.0
H1432 H 0.82414 0.63856 1.0064 0.0
H1433 H 0.81387 0.6397 0.96374 0.0
C1434 C 0.80906 0.73011 0.86832 0.0
C1435 C 0.78538 0.73176 0.87903 0.0
C1436 C 0.82124 0.71078 0.87347 0.0
C1437 C 0.80984 0.6924 0.88914 0.0
C1438 C 0.78585 0.69361 0.89942 0.0
C1439 C 0.77368 0.71309 0.89435 0.0
C1440 C 0.82419 0.67319 0.89612 0.0
C1441 C 0.82931 0.67044 0.9203 0.0
C1442 C 0.83552 0.65989 0.87908 0.0
C1443 C 0.82921 0.66055 0.85344 0.0
C1444 C 0.8033 0.65609 0.84579 0.0
C1445 C 0.79742 0.65695 0.82166 0.0
C1446 C 0.81728 0.66214 0.80498 0.0
C1447 C 0.84308 0.66643 0.81238 0.0
C1448 C 0.84907 0.66561 0.83649 0.0
C1449 C 0.89514 0.6004 0.94134 0.0
C1450 C 0.92076 0.60939 0.93407 0.0
C1451 C 0.87489 0.61099 0.93307 0.0
C1452 C 0.8799 0.63067 0.91734 0.0
C1453 C 0.90519 0.63896 0.90922 0.0
C1454 C 0.92544 0.62852 0.91758 0.0
C1455 C 0.85934 0.64399 0.91064 0.0
C1456 C 0.85317 0.64564 0.88659 0.0
C1457 C 0.84689 0.65616 0.92776 0.0
C1458 C 0.85305 0.65558 0.95338 0.0
C1459 C 0.87832 0.66436 0.96164 0.0
C1460 C 0.88399 0.66356 0.98581 0.0
C1461 C 0.86448 0.65422 1.00192 0.0
C1462 C 0.83925 0.64573 0.99389 0.0
C1463 C 0.83349 0.64645 0.96972 0.0
H1464 H 0.8689 0.65363 0.02064 0.0
H1465 H 0.81269 0.6628 0.78631 0.0
H1466 H 0.44388 0.78397 0.17295 0.0
H1467 H 0.45655 0.82275 0.1526 0.0
H1468 H 0.38331 0.81067 0.11596 0.0
H1469 H 0.37107 0.77116 0.1352 0.0
H1470 H 0.41893 0.82841 0.08589 0.0
H1471 H 0.39896 0.85238 0.16395 0.0
H1472 H 0.40106 0.8539 0.20762 0.0
H1473 H 0.48238 0.88382 0.20451 0.0
H1474 H 0.48085 0.88218 0.16079 0.0
H1475 H 0.43269 0.95156 0.04529 0.0
H1476 H 0.4177 0.91297 0.06591 0.0
H1477 H 0.49345 0.91744 0.09655 0.0
H1478 H 0.50858 0.95592 0.07606 0.0
H1479 H 0.45508 0.90418 0.12965 0.0
H1480 H 0.47431 0.87897 0.05119 0.0
H1481 H 0.47123 0.87847 1.00749 0.0
H1482 H 0.38933 0.85179 0.01187 0.0
H1483 H 0.39192 0.85245 0.05558 0.0
C1484 C 0.43044 0.78936 0.16045 0.0
C1485 C 0.40633 0.77413 0.1559 0.0
C1486 C 0.43764 0.81185 0.14898 0.0
C1487 C 0.42081 0.82007 0.13287 0.0
C1488 C 0.39671 0.80497 0.12832 0.0
C1489 C 0.38957 0.78238 0.13964 0.0
C1490 C 0.42854 0.84409 0.12046 0.0
C1491 C 0.42643 0.845 0.09559 0.0
C1492 C 0.43883 0.8659 0.13281 0.0
C1493 C 0.43983 0.86694 0.1591 0.0
C1494 C 0.41733 0.85912 0.17258 0.0
C1495 C 0.41841 0.86003 0.19734 0.0
C1496 C 0.44185 0.86889 0.20883 0.0
C1497 C 0.46425 0.87693 0.19558 0.0
C1498 C 0.46328 0.87604 0.17081 0.0
C1499 C 0.44618 0.9444 0.05646 0.0
C1500 C 0.4719 0.95701 0.05896 0.0
C1501 C 0.43759 0.92221 0.06818 0.0
C1502 C 0.45444 0.9121 0.08277 0.0
C1503 C 0.48002 0.92479 0.08548 0.0
C1504 C 0.48868 0.94683 0.07363 0.0
C1505 C 0.44554 0.88837 0.09523 0.0
C1506 C 0.44745 0.88755 0.12005 0.0
C1507 C 0.43487 0.86672 0.08288 0.0
C1508 C 0.43328 0.86602 0.05662 0.0
C1509 C 0.45564 0.87318 0.0428 0.0
C1510 C 0.45399 0.87284 0.01805 0.0
C1511 C 0.43009 0.86518 1.00692 0.0
C1512 C 0.40782 0.85776 0.02052 0.0
C1513 C 0.40937 0.85809 0.04528 0.0
H1514 H 0.42884 0.86494 0.98775 0.0
H1515 H 0.44265 0.86958 0.22801 0.0
H1516 H 0.07682 0.25758 0.66464 0.0
H1517 H 0.05728 0.22189 0.6411 0.0
H1518 H 0.13193 0.2186 0.61153 0.0
H1519 H 0.15141 0.25444 0.63458 0.0
H1520 H 0.09513 0.209 0.57769 0.0
H1521 H 0.10627 0.18129 0.65719 0.0
H1522 H 0.10083 0.18054 0.70063 0.0
H1523 H 0.01834 0.16248 0.69222 0.0
H1524 H 0.02329 0.16345 0.6487 0.0
H1525 H 0.07331 0.08657 0.53704 0.0
H1526 H 0.0891 0.12462 0.55828 0.0
H1527 H 0.01244 0.12373 0.5853 0.0
H1528 H 0.99649 0.08559 0.56422 0.0
H1529 H 0.0481 0.13617 0.61982 0.0
H1530 H 0.03655 0.16163 0.54053 0.0
H1531 H 0.04161 0.16142 0.49706 0.0
H1532 H 0.12389 0.18345 0.5047 0.0
H1533 H 0.11937 0.18342 0.54825 0.0
C1534 C 0.08902 0.24948 0.65288 0.0
C1535 C 0.11579 0.25885 0.65177 0.0
C1536 C 0.07785 0.2289 0.63954 0.0
C1537 C 0.09314 0.21719 0.6247 0.0
C1538 C 0.11965 0.22711 0.62287 0.0
C1539 C 0.13083 0.24756 0.63625 0.0
C1540 C 0.08185 0.19419 0.61169 0.0
C1541 C 0.08506 0.19303 0.58697 0.0
C1542 C 0.06815 0.17336 0.62355 0.0
C1543 C 0.06514 0.17271 0.6497 0.0
C1544 C 0.08697 0.17735 0.6646 0.0
C1545 C 0.08397 0.17685 0.68924 0.0
C1546 C 0.05925 0.17154 0.69918 0.0
C1547 C 0.03747 0.16664 0.6845 0.0
C1548 C 0.04036 0.16715 0.65985 0.0
C1549 C 0.05976 0.09437 0.54754 0.0
C1550 C 0.03356 0.08287 0.54882 0.0
C1551 C 0.06883 0.11628 0.55961 0.0
C1552 C 0.05196 0.12733 0.57327 0.0
C1553 C 0.02589 0.11569 0.57489 0.0
C1554 C 0.01677 0.09384 0.56273 0.0
C1555 C 0.06152 0.15093 0.58587 0.0
C1556 C 0.05802 0.15218 0.61051 0.0
C1557 C 0.07485 0.17185 0.5739 0.0
C1558 C 0.07764 0.17231 0.54769 0.0
C1559 C 0.05575 0.16628 0.53296 0.0
C1560 C 0.05851 0.16622 0.5083 0.0
C1561 C 0.08307 0.17237 0.49813 0.0
C1562 C 0.10489 0.17867 0.5126 0.0
C1563 C 0.10223 0.17872 0.53728 0.0
H1564 H 0.08517 0.17228 0.47903 0.0
H1565 H 0.05697 0.17115 0.71825 0.0
H1566 H 0.73337 0.29881 0.35799 0.0
H1567 H 0.6977 0.31496 0.37527 0.0
H1568 H 0.75213 0.37335 0.40756 0.0
H1569 H 0.78807 0.35694 0.39071 0.0
H1570 H 0.71257 0.35425 0.43786 0.0
H1571 H 0.72186 0.38405 0.35831 0.0
H1572 H 0.72554 0.38121 0.31486 0.0
H1573 H 0.65017 0.33555 0.31147 0.0
H1574 H 0.6462 0.33781 0.35498 0.0
H1575 H 0.62347 0.43288 0.45948 0.0
H1576 H 0.6598 0.4153 0.44578 0.0
H1577 H 0.60671 0.3555 0.41418 0.0
H1578 H 0.57017 0.3726 0.42833 0.0
H1579 H 0.64604 0.37577 0.38388 0.0
H1580 H 0.63698 0.34646 0.46393 0.0
H1581 H 0.63362 0.35006 0.50734 0.0
H1582 H 0.70893 0.39591 0.50973 0.0
H1583 H 0.71258 0.39288 0.46625 0.0
C1584 C 0.7378 0.31487 0.36907 0.0
C1585 C 0.76355 0.32663 0.37297 0.0
C1586 C 0.71738 0.3242 0.37876 0.0
C1587 C 0.72227 0.34551 0.39245 0.0
C1588 C 0.74795 0.35693 0.39696 0.0
C1589 C 0.76843 0.34764 0.3872 0.0
C1590 C 0.70052 0.35615 0.40152 0.0
C1591 C 0.6982 0.35926 0.42606 0.0
C1592 C 0.68155 0.36227 0.38611 0.0
C1593 C 0.68385 0.3609 0.35993 0.0
C1594 C 0.70616 0.37323 0.34832 0.0
C1595 C 0.70828 0.37176 0.32368 0.0
C1596 C 0.68813 0.35816 0.31042 0.0
C1597 C 0.66578 0.34605 0.32177 0.0
C1598 C 0.66358 0.34743 0.34642 0.0
C1599 C 0.61945 0.41578 0.44996 0.0
C1600 C 0.59384 0.40413 0.44507 0.0
C1601 C 0.64027 0.40582 0.44205 0.0
C1602 C 0.63592 0.38403 0.4291 0.0
C1603 C 0.61045 0.37237 0.42411 0.0
C1604 C 0.58961 0.38224 0.43213 0.0
C1605 C 0.65797 0.37371 0.42024 0.0
C1606 C 0.66038 0.37073 0.3957 0.0
C1607 C 0.67705 0.36783 0.43565 0.0
C1608 C 0.67494 0.36964 0.4618 0.0
C1609 C 0.65273 0.35748 0.47368 0.0
C1610 C 0.65079 0.35939 0.49831 0.0
C1611 C 0.67102 0.37326 0.51128 0.0
C1612 C 0.69326 0.3852 0.49965 0.0
C1613 C 0.69528 0.38338 0.47502 0.0
H1614 H 0.66948 0.3747 0.53035 0.0
H1615 H 0.6898 0.35705 0.29134 0.0
loop_
_geom_bond_atom_site_label_1
_geom_bond_atom_site_label_2
_geom_bond_distance
_geom_bond_site_symmetry_2
_ccdc_geom_bond_type
P0 O11 1.490 . S
P0 C14 1.812 . S
P0 C20 1.803 . S
P0 C26 1.819 . S
H1 C15 0.941 . S
H2 C16 0.939 . S
H3 C18 0.940 . S
H4 C19 0.940 . S
H5 C21 0.939 . S
H6 C22 0.942 . S
H7 C24 0.940 . S
H8 C25 0.939 . S
H9 C27 0.941 . S
H10 C31 0.939 . S
O11 P0 1.490 . S
H12 C28 0.939 . S
H13 C30 0.940 . S
C14 P0 1.812 . S
C14 C15 1.389 . S
C14 C19 1.391 . S
C15 H1 0.941 . S
C15 C14 1.389 . S
C15 C16 1.397 . S
C16 H2 0.939 . S
C16 C15 1.397 . S
C16 C17 1.378 . S
C17 C16 1.378 . S
C17 C18 1.378 . S
C18 H3 0.940 . S
C18 C17 1.378 . S
C18 C19 1.396 . S
C19 H4 0.940 . S
C19 C14 1.391 . S
C19 C18 1.396 . S
C20 P0 1.803 . S
C20 C21 1.378 . S
C20 C25 1.400 . S
C21 H5 0.939 . S
C21 C20 1.378 . S
C21 C22 1.361 . S
C22 H6 0.942 . S
C22 C21 1.361 . S
C22 C23 1.369 . S
C23 C22 1.369 . S
C23 C24 1.404 . S
C24 H7 0.940 . S
C24 C23 1.404 . S
C24 C25 1.389 . S
C25 H8 0.939 . S
C25 C20 1.400 . S
C25 C24 1.389 . S
C26 P0 1.819 . S
C26 C27 1.391 . S
C26 C31 1.391 . S
C27 H9 0.941 . S
C27 C26 1.391 . S
C27 C28 1.396 . S
C28 H12 0.939 . S
C28 C27 1.396 . S
C28 C29 1.397 . S
C29 C28 1.397 . S
C29 C30 1.385 . S
C30 H13 0.940 . S
C30 C29 1.385 . S
C30 C31 1.388 . S
C31 H10 0.939 . S
C31 C26 1.391 . S
C31 C30 1.388 . S
P32 O43 1.490 . S
P32 C46 1.812 . S
P32 C52 1.803 . S
P32 C58 1.819 . S
H33 C47 0.941 . S
H34 C48 0.939 . S
H35 C50 0.940 . S
H36 C51 0.940 . S
H37 C53 0.939 . S
H38 C54 0.942 . S
H39 C56 0.940 . S
H40 C57 0.939 . S
H41 C59 0.941 . S
H42 C63 0.939 . S
O43 P32 1.490 . S
H44 C60 0.939 . S
H45 C62 0.940 . S
C46 P32 1.812 . S
C46 C47 1.389 . S
C46 C51 1.391 . S
C47 H33 0.941 . S
C47 C46 1.389 . S
C47 C48 1.397 . S
C48 H34 0.939 . S
C48 C47 1.397 . S
C48 C49 1.378 . S
C49 C48 1.378 . S
C49 C50 1.378 . S
C50 H35 0.940 . S
C50 C49 1.378 . S
C50 C51 1.396 . S
C51 H36 0.940 . S
C51 C46 1.391 . S
C51 C50 1.396 . S
C52 P32 1.803 . S
C52 C53 1.378 . S
C52 C57 1.400 . S
C53 H37 0.939 . S
C53 C52 1.378 . S
C53 C54 1.361 . S
C54 H38 0.942 . S
C54 C53 1.361 . S
C54 C55 1.369 . S
C55 C54 1.369 . S
C55 C56 1.404 . S
C56 H39 0.940 . S
C56 C55 1.404 . S
C56 C57 1.389 . S
C57 H40 0.939 . S
C57 C52 1.400 . S
C57 C56 1.389 . S
C58 P32 1.819 . S
C58 C59 1.391 . S
C58 C63 1.391 . S
C59 H41 0.941 . S
C59 C58 1.391 . S
C59 C60 1.396 . S
C60 H44 0.939 . S
C60 C59 1.396 . S
C60 C61 1.397 . S
C61 C60 1.397 . S
C61 C62 1.385 . S
C62 H45 0.940 . S
C62 C61 1.385 . S
C62 C63 1.388 . S
C63 H42 0.939 . S
C63 C58 1.391 . S
C63 C62 1.388 . S
P64 O75 1.490 . S
P64 C78 1.812 . S
P64 C84 1.803 . S
P64 C90 1.819 . S
H65 C79 0.941 . S
H66 C80 0.939 . S
H67 C82 0.940 . S
H68 C83 0.940 . S
H69 C85 0.939 . S
H70 C86 0.942 . S
H71 C88 0.940 . S
H72 C89 0.939 . S
H73 C91 0.941 . S
H74 C95 0.939 . S
O75 P64 1.490 . S
H76 C92 0.939 . S
H77 C94 0.940 . S
C78 P64 1.812 . S
C78 C79 1.389 . S
C78 C83 1.391 . S
C79 H65 0.941 . S
C79 C78 1.389 . S
C79 C80 1.397 . S
C80 H66 0.939 . S
C80 C79 1.397 . S
C80 C81 1.378 . S
C81 C80 1.378 . S
C81 C82 1.378 . S
C82 H67 0.940 . S
C82 C81 1.378 . S
C82 C83 1.396 . S
C83 H68 0.940 . S
C83 C78 1.391 . S
C83 C82 1.396 . S
C84 P64 1.803 . S
C84 C85 1.378 . S
C84 C89 1.400 . S
C85 H69 0.939 . S
C85 C84 1.378 . S
C85 C86 1.361 . S
C86 H70 0.942 . S
C86 C85 1.361 . S
C86 C87 1.369 . S
C87 C86 1.369 . S
C87 C88 1.404 . S
C88 H71 0.940 . S
C88 C87 1.404 . S
C88 C89 1.389 . S
C89 H72 0.939 . S
C89 C84 1.400 . S
C89 C88 1.389 . S
C90 P64 1.819 . S
C90 C91 1.391 . S
C90 C95 1.391 . S
C91 H73 0.941 . S
C91 C90 1.391 . S
C91 C92 1.396 . S
C92 H76 0.939 . S
C92 C91 1.396 . S
C92 C93 1.397 . S
C93 C92 1.397 . S
C93 C94 1.385 . S
C94 H77 0.940 . S
C94 C93 1.385 . S
C94 C95 1.388 . S
C95 H74 0.939 . S
C95 C90 1.391 . S
C95 C94 1.388 . S
P96 O107 1.490 . S
P96 C110 1.812 . S
P96 C116 1.803 . S
P96 C122 1.819 . S
H97 C111 0.941 . S
H98 C112 0.939 . S
H99 C114 0.940 . S
H100 C115 0.940 . S
H101 C117 0.939 . S
H102 C118 0.942 . S
H103 C120 0.940 . S
H104 C121 0.939 . S
H105 C123 0.941 . S
H106 C127 0.939 . S
O107 P96 1.490 . S
H108 C124 0.939 . S
H109 C126 0.940 . S
C110 P96 1.812 . S
C110 C111 1.389 . S
C110 C115 1.391 . S
C111 H97 0.941 . S
C111 C110 1.389 . S
C111 C112 1.397 . S
C112 H98 0.939 . S
C112 C111 1.397 . S
C112 C113 1.378 . S
C113 C112 1.378 . S
C113 C114 1.378 . S
C114 H99 0.940 . S
C114 C113 1.378 . S
C114 C115 1.396 . S
C115 H100 0.940 . S
C115 C110 1.391 . S
C115 C114 1.396 . S
C116 P96 1.803 . S
C116 C117 1.378 . S
C116 C121 1.400 . S
C117 H101 0.939 . S
C117 C116 1.378 . S
C117 C118 1.361 . S
C118 H102 0.942 . S
C118 C117 1.361 . S
C118 C119 1.369 . S
C119 C118 1.369 . S
C119 C120 1.404 . S
C120 H103 0.940 . S
C120 C119 1.404 . S
C120 C121 1.389 . S
C121 H104 0.939 . S
C121 C116 1.400 . S
C121 C120 1.389 . S
C122 P96 1.819 . S
C122 C123 1.391 . S
C122 C127 1.391 . S
C123 H105 0.941 . S
C123 C122 1.391 . S
C123 C124 1.396 . S
C124 H108 0.939 . S
C124 C123 1.396 . S
C124 C125 1.397 . S
C125 C124 1.397 . S
C125 C126 1.385 . S
C126 H109 0.940 . S
C126 C125 1.385 . S
C126 C127 1.388 . S
C127 H106 0.939 . S
C127 C122 1.391 . S
C127 C126 1.388 . S
P128 O139 1.490 . S
P128 C142 1.812 . S
P128 C148 1.803 . S
P128 C154 1.819 . S
H129 C143 0.941 . S
H130 C144 0.939 . S
H131 C146 0.940 . S
H132 C147 0.940 . S
H133 C149 0.939 . S
H134 C150 0.942 . S
H135 C152 0.940 . S
H136 C153 0.939 . S
H137 C155 0.941 . S
H138 C159 0.939 . S
O139 P128 1.490 . S
H140 C156 0.939 . S
H141 C158 0.940 . S
C142 P128 1.812 . S
C142 C143 1.389 . S
C142 C147 1.391 . S
C143 H129 0.941 . S
C143 C142 1.389 . S
C143 C144 1.397 . S
C144 H130 0.939 . S
C144 C143 1.397 . S
C144 C145 1.378 . S
C145 C144 1.378 . S
C145 C146 1.378 . S
C146 H131 0.940 . S
C146 C145 1.378 . S
C146 C147 1.396 . S
C147 H132 0.940 . S
C147 C142 1.391 . S
C147 C146 1.396 . S
C148 P128 1.803 . S
C148 C149 1.378 . S
C148 C153 1.400 . S
C149 H133 0.939 . S
C149 C148 1.378 . S
C149 C150 1.361 . S
C150 H134 0.942 . S
C150 C149 1.361 . S
C150 C151 1.369 . S
C151 C150 1.369 . S
C151 C152 1.404 . S
C152 H135 0.940 . S
C152 C151 1.404 . S
C152 C153 1.389 . S
C153 H136 0.939 . S
C153 C148 1.400 . S
C153 C152 1.389 . S
C154 P128 1.819 . S
C154 C155 1.391 . S
C154 C159 1.391 . S
C155 H137 0.941 . S
C155 C154 1.391 . S
C155 C156 1.396 . S
C156 H140 0.939 . S
C156 C155 1.396 . S
C156 C157 1.397 . S
C157 C156 1.397 . S
C157 C158 1.385 . S
C158 H141 0.940 . S
C158 C157 1.385 . S
C158 C159 1.388 . S
C159 H138 0.939 . S
C159 C154 1.391 . S
C159 C158 1.388 . S
P160 O171 1.490 . S
P160 C174 1.812 . S
P160 C180 1.803 . S
P160 C186 1.819 . S
H161 C175 0.941 . S
H162 C176 0.939 . S
H163 C178 0.940 . S
H164 C179 0.940 . S
H165 C181 0.939 . S
H166 C182 0.942 . S
H167 C184 0.940 . S
H168 C185 0.939 . S
H169 C187 0.941 . S
H170 C191 0.939 . S
O171 P160 1.490 . S
H172 C188 0.939 . S
H173 C190 0.940 . S
C174 P160 1.812 . S
C174 C175 1.389 . S
C174 C179 1.391 . S
C175 H161 0.941 . S
C175 C174 1.389 . S
C175 C176 1.397 . S
C176 H162 0.939 . S
C176 C175 1.397 . S
C176 C177 1.378 . S
C177 C176 1.378 . S
C177 C178 1.378 . S
C178 H163 0.940 . S
C178 C177 1.378 . S
C178 C179 1.396 . S
C179 H164 0.940 . S
C179 C174 1.391 . S
C179 C178 1.396 . S
C180 P160 1.803 . S
C180 C181 1.378 . S
C180 C185 1.400 . S
C181 H165 0.939 . S
C181 C180 1.378 . S
C181 C182 1.361 . S
C182 H166 0.942 . S
C182 C181 1.361 . S
C182 C183 1.369 . S
C183 C182 1.369 . S
C183 C184 1.404 . S
C184 H167 0.940 . S
C184 C183 1.404 . S
C184 C185 1.389 . S
C185 H168 0.939 . S
C185 C180 1.400 . S
C185 C184 1.389 . S
C186 P160 1.819 . S
C186 C187 1.391 . S
C186 C191 1.391 . S
C187 H169 0.941 . S
C187 C186 1.391 . S
C187 C188 1.396 . S
C188 H172 0.939 . S
C188 C187 1.396 . S
C188 C189 1.397 . S
C189 C188 1.397 . S
C189 C190 1.385 . S
C190 H173 0.940 . S
C190 C189 1.385 . S
C190 C191 1.388 . S
C191 H170 0.939 . S
C191 C186 1.391 . S
C191 C190 1.388 . S
P192 O203 1.490 . S
P192 C206 1.812 . S
P192 C212 1.803 . S
P192 C218 1.819 . S
H193 C207 0.941 . S
H194 C208 0.939 . S
H195 C210 0.940 . S
H196 C211 0.940 . S
H197 C213 0.939 . S
H198 C214 0.942 . S
H199 C216 0.940 . S
H200 C217 0.939 . S
H201 C219 0.941 . S
H202 C223 0.939 . S
O203 P192 1.490 . S
H204 C220 0.939 . S
H205 C222 0.940 . S
C206 P192 1.812 . S
C206 C207 1.389 . S
C206 C211 1.391 . S
C207 H193 0.941 . S
C207 C206 1.389 . S
C207 C208 1.397 . S
C208 H194 0.939 . S
C208 C207 1.397 . S
C208 C209 1.378 . S
C209 C208 1.378 . S
C209 C210 1.378 . S
C210 H195 0.940 . S
C210 C209 1.378 . S
C210 C211 1.396 . S
C211 H196 0.940 . S
C211 C206 1.391 . S
C211 C210 1.396 . S
C212 P192 1.803 . S
C212 C213 1.378 . S
C212 C217 1.400 . S
C213 H197 0.939 . S
C213 C212 1.378 . S
C213 C214 1.361 . S
C214 H198 0.942 . S
C214 C213 1.361 . S
C214 C215 1.369 . S
C215 C214 1.369 . S
C215 C216 1.404 . S
C216 H199 0.940 . S
C216 C215 1.404 . S
C216 C217 1.389 . S
C217 H200 0.939 . S
C217 C212 1.400 . S
C217 C216 1.389 . S
C218 P192 1.819 . S
C218 C219 1.391 . S
C218 C223 1.391 . S
C219 H201 0.941 . S
C219 C218 1.391 . S
C219 C220 1.396 . S
C220 H204 0.939 . S
C220 C219 1.396 . S
C220 C221 1.397 . S
C221 C220 1.397 . S
C221 C222 1.385 . S
C222 H205 0.940 . S
C222 C221 1.385 . S
C222 C223 1.388 . S
C223 H202 0.939 . S
C223 C218 1.391 . S
C223 C222 1.388 . S
P224 O235 1.490 . S
P224 C238 1.812 . S
P224 C244 1.803 . S
P224 C250 1.819 . S
H225 C239 0.941 . S
H226 C240 0.939 . S
H227 C242 0.940 . S
H228 C243 0.940 . S
H229 C245 0.939 . S
H230 C246 0.942 . S
H231 C248 0.940 . S
H232 C249 0.939 . S
H233 C251 0.941 . S
H234 C255 0.939 . S
O235 P224 1.490 . S
H236 C252 0.939 . S
H237 C254 0.940 . S
C238 P224 1.812 . S
C238 C239 1.389 . S
C238 C243 1.391 . S
C239 H225 0.941 . S
C239 C238 1.389 . S
C239 C240 1.397 . S
C240 H226 0.939 . S
C240 C239 1.397 . S
C240 C241 1.378 . S
C241 C240 1.378 . S
C241 C242 1.378 . S
C242 H227 0.940 . S
C242 C241 1.378 . S
C242 C243 1.396 . S
C243 H228 0.940 . S
C243 C238 1.391 . S
C243 C242 1.396 . S
C244 P224 1.803 . S
C244 C245 1.378 . S
C244 C249 1.400 . S
C245 H229 0.939 . S
C245 C244 1.378 . S
C245 C246 1.361 . S
C246 H230 0.942 . S
C246 C245 1.361 . S
C246 C247 1.369 . S
C247 C246 1.369 . S
C247 C248 1.404 . S
C248 H231 0.940 . S
C248 C247 1.404 . S
C248 C249 1.389 . S
C249 H232 0.939 . S
C249 C244 1.400 . S
C249 C248 1.389 . S
C250 P224 1.819 . S
C250 C251 1.391 . S
C250 C255 1.391 . S
C251 H233 0.941 . S
C251 C250 1.391 . S
C251 C252 1.396 . S
C252 H236 0.939 . S
C252 C251 1.396 . S
C252 C253 1.397 . S
C253 C252 1.397 . S
C253 C254 1.385 . S
C254 H237 0.940 . S
C254 C253 1.385 . S
C254 C255 1.388 . S
C255 H234 0.939 . S
C255 C250 1.391 . S
C255 C254 1.388 . S
Dy256 O259 2.307 1_545 S
Dy256 O261 2.395 . S
Dy256 O262 2.379 . S
Dy256 O264 2.339 1_545 S
Dy256 O266 2.337 . S
Dy256 O270 2.275 . S
Dy256 C278 2.738 . S
Dy257 O260 2.298 1_645 S
Dy257 O263 2.275 1_545 S
Dy257 O265 2.307 . S
Dy257 O267 2.395 1_545 S
Dy257 O268 2.379 1_545 S
Dy257 O271 2.339 . S
Dy257 C287 2.738 1_545 S
C258 O270 1.254 . S
C258 O271 1.257 1_455 S
O259 Dy256 2.307 1_565 S
O259 C269 1.266 . S
O260 Dy257 2.298 1_465 S
O260 C269 1.236 . S
O261 Dy256 2.395 . S
O261 C278 1.255 . S
O262 Dy256 2.379 . S
O262 C278 1.249 . S
O263 Dy257 2.275 1_565 S
O263 C279 1.254 . S
O264 Dy256 2.339 1_565 S
O264 C279 1.257 1_455 S
O265 Dy257 2.307 . S
O265 C280 1.266 . S
O266 Dy256 2.337 . S
O266 C280 1.198 1_455 S
O267 Dy257 2.395 1_565 S
O267 C287 1.255 . S
O268 Dy257 2.379 1_565 S
O268 C287 1.249 . S
C269 O259 1.266 . S
C269 O260 1.236 . S
O270 Dy256 2.275 . S
O270 C258 1.254 . S
O271 Dy257 2.339 . S
O271 C258 1.257 1_655 S
C272 C275 1.344 . S
C272 C276 1.328 . S
C272 C278 1.516 . S
C273 C274 1.304 . S
C273 C277 1.323 . S
C274 C273 1.304 . S
C274 C275 1.371 . S
C274 H288 0.930 . S
C275 C272 1.344 . S
C275 C274 1.371 . S
C275 H289 0.931 . S
C276 C272 1.328 . S
C276 C277 1.433 . S
C276 H290 0.931 . S
C277 C273 1.323 . S
C277 C276 1.433 . S
C277 H291 0.933 . S
C278 Dy256 2.738 . S
C278 O261 1.255 . S
C278 O262 1.249 . S
C278 C272 1.516 . S
C279 O263 1.254 . S
C279 O264 1.257 1_655 S
C280 O265 1.266 . S
C280 O266 1.198 1_655 S
C281 C284 1.344 . S
C281 C285 1.328 . S
C281 C287 1.516 . S
C282 C283 1.304 . S
C282 C286 1.323 . S
C283 C282 1.304 . S
C283 C284 1.371 . S
C283 H292 0.930 . S
C284 C281 1.344 . S
C284 C283 1.371 . S
C284 H293 0.931 . S
C285 C281 1.328 . S
C285 C286 1.433 . S
C285 H294 0.931 . S
C286 C282 1.323 . S
C286 C285 1.433 . S
C286 H295 0.933 . S
C287 Dy257 2.738 1_565 S
C287 O267 1.255 . S
C287 O268 1.249 . S
C287 C281 1.516 . S
H288 C274 0.930 . S
H289 C275 0.931 . S
H290 C276 0.931 . S
H291 C277 0.933 . S
H292 C283 0.930 . S
H293 C284 0.931 . S
H294 C285 0.931 . S
H295 C286 0.933 . S
Dy296 O299 2.307 1_556 S
Dy296 O301 2.395 1_545 S
Dy296 O302 2.377 1_545 S
Dy296 O304 2.339 . S
Dy296 O306 2.298 1_545 S
Dy296 O310 2.275 1_546 S
Dy296 C318 2.738 1_545 S
Dy297 O300 2.298 . S
Dy297 O303 2.275 1_554 S
Dy297 O305 2.307 1_544 S
Dy297 O307 2.395 . S
Dy297 O308 2.379 . S
Dy297 O311 2.339 1_545 S
Dy297 C327 2.738 . S
C298 O310 1.254 . S
C298 O311 1.257 . S
O299 Dy296 2.307 1_554 S
O299 C309 1.266 . S
O300 Dy297 2.298 . S
O300 C309 1.236 . S
O301 Dy296 2.395 1_565 S
O301 C318 1.255 . S
O302 Dy296 2.377 1_565 S
O302 C318 1.259 . S
O303 Dy297 2.275 1_556 S
O303 C319 1.254 . S
O304 Dy296 2.339 . S
O304 C319 1.257 . S
O305 Dy297 2.307 1_566 S
O305 C320 1.266 . S
O306 Dy296 2.298 1_565 S
O306 C320 1.236 . S
O307 Dy297 2.395 . S
O307 C327 1.255 . S
O308 Dy297 2.379 . S
O308 C327 1.249 . S
C309 O299 1.266 . S
C309 O300 1.236 . S
O310 Dy296 2.275 1_564 S
O310 C298 1.254 . S
O311 Dy297 2.339 1_565 S
O311 C298 1.257 . S
C312 C315 1.344 . S
C312 C316 1.328 . S
C312 C318 1.516 . S
C313 C314 1.304 . S
C313 C317 1.323 . S
C314 C313 1.304 . S
C314 C315 1.371 . S
C314 H328 0.930 . S
C315 C312 1.344 . S
C315 C314 1.371 . S
C315 H329 0.931 . S
C316 C312 1.328 . S
C316 C317 1.433 . S
C316 H330 0.931 . S
C317 C313 1.323 . S
C317 C316 1.433 . S
C317 H331 0.933 . S
C318 Dy296 2.738 1_565 S
C318 O301 1.255 . S
C318 O302 1.259 . S
C318 C312 1.516 . S
C319 O303 1.254 . S
C319 O304 1.257 . S
C320 O305 1.266 . S
C320 O306 1.236 . S
C321 C324 1.344 . S
C321 C325 1.328 . S
C321 C327 1.516 . S
C322 C323 1.304 . S
C322 C326 1.323 . S
C323 C322 1.304 . S
C323 C324 1.371 . S
C323 H332 0.930 . S
C324 C321 1.344 . S
C324 C323 1.371 . S
C324 H333 0.931 . S
C325 C321 1.328 . S
C325 C326 1.433 . S
C325 H334 0.931 . S
C326 C322 1.323 . S
C326 C325 1.433 . S
C326 H335 0.933 . S
C327 Dy297 2.738 . S
C327 O307 1.255 . S
C327 O308 1.249 . S
C327 C321 1.516 . S
H328 C314 0.930 . S
H329 C315 0.931 . S
H330 C316 0.931 . S
H331 C317 0.933 . S
H332 C323 0.930 . S
H333 C324 0.931 . S
H334 C325 0.931 . S
H335 C326 0.933 . S
Dy336 O339 2.307 . S
Dy336 O341 2.395 . S
Dy336 O342 2.379 . S
Dy336 O344 2.339 . S
Dy336 O346 2.298 . S
Dy336 O350 2.275 . S
Dy336 C358 2.738 . S
Dy337 O340 2.298 . S
Dy337 O343 2.275 . S
Dy337 O345 2.307 . S
Dy337 O347 2.395 . S
Dy337 O348 2.379 . S
Dy337 O351 2.339 . S
Dy337 C367 2.738 . S
C338 O350 1.254 . S
C338 O351 1.257 . S
O339 Dy336 2.307 . S
O339 C349 1.266 . S
O340 Dy337 2.298 . S
O340 C349 1.236 . S
O341 Dy336 2.395 . S
O341 C358 1.255 . S
O342 Dy336 2.379 . S
O342 C358 1.249 . S
O343 Dy337 2.275 . S
O343 C359 1.254 . S
O344 Dy336 2.339 . S
O344 C359 1.257 . S
O345 Dy337 2.307 . S
O345 C360 1.266 . S
O346 Dy336 2.298 . S
O346 C360 1.236 . S
O347 Dy337 2.395 . S
O347 C367 1.255 . S
O348 Dy337 2.379 . S
O348 C367 1.249 . S
C349 O339 1.266 . S
C349 O340 1.236 . S
O350 Dy336 2.275 . S
O350 C338 1.254 . S
O351 Dy337 2.339 . S
O351 C338 1.257 . S
C352 C355 1.344 . S
C352 C356 1.328 . S
C352 C358 1.516 . S
C353 C354 1.304 . S
C353 C357 1.323 . S
C354 C353 1.304 . S
C354 C355 1.371 . S
C354 H368 0.930 . S
C355 C352 1.344 . S
C355 C354 1.371 . S
C355 H369 0.931 . S
C356 C352 1.328 . S
C356 C357 1.433 . S
C356 H370 0.931 . S
C357 C353 1.323 . S
C357 C356 1.433 . S
C357 H371 0.933 . S
C358 Dy336 2.738 . S
C358 O341 1.255 . S
C358 O342 1.249 . S
C358 C352 1.516 . S
C359 O343 1.254 . S
C359 O344 1.257 . S
C360 O345 1.266 . S
C360 O346 1.236 . S
C361 C364 1.344 . S
C361 C365 1.328 . S
C361 C367 1.516 . S
C362 C363 1.304 . S
C362 C366 1.323 . S
C363 C362 1.304 . S
C363 C364 1.371 . S
C363 H372 0.930 . S
C364 C361 1.344 . S
C364 C363 1.371 . S
C364 H373 0.931 . S
C365 C361 1.328 . S
C365 C366 1.433 . S
C365 H374 0.931 . S
C366 C362 1.323 . S
C366 C365 1.433 . S
C366 H375 0.933 . S
C367 Dy337 2.738 . S
C367 O347 1.255 . S
C367 O348 1.249 . S
C367 C361 1.516 . S
H368 C354 0.930 . S
H369 C355 0.931 . S
H370 C356 0.931 . S
H371 C357 0.933 . S
H372 C363 0.930 . S
H373 C364 0.931 . S
H374 C365 0.931 . S
H375 C366 0.933 . S
Dy376 O379 2.307 1_556 S
Dy376 O381 2.395 1_455 S
Dy376 O382 2.379 1_455 S
Dy376 O384 2.339 . S
Dy376 O386 2.298 1_455 S
Dy376 O390 2.275 1_456 S
Dy376 C398 2.738 1_455 S
Dy377 O380 2.298 . S
Dy377 O383 2.275 1_554 S
Dy377 O385 2.307 1_455 S
Dy377 O387 2.395 . S
Dy377 O388 2.379 . S
Dy377 O391 2.339 1_455 S
Dy377 C407 2.738 . S
C378 O390 1.254 . S
C378 O391 1.257 . S
O379 Dy376 2.307 1_554 S
O379 C389 1.266 . S
O380 Dy377 2.298 . S
O380 C389 1.236 . S
O381 Dy376 2.395 1_655 S
O381 C398 1.255 . S
O382 Dy376 2.379 1_655 S
O382 C398 1.249 . S
O383 Dy377 2.275 1_556 S
O383 C399 1.254 . S
O384 Dy376 2.339 . S
O384 C399 1.257 . S
O385 Dy377 2.307 1_655 S
O385 C400 1.266 1_554 S
O386 Dy376 2.298 1_655 S
O386 C400 1.236 . S
O387 Dy377 2.395 . S
O387 C407 1.255 . S
O388 Dy377 2.379 . S
O388 C407 1.249 . S
C389 O379 1.266 . S
C389 O380 1.236 . S
O390 Dy376 2.275 1_654 S
O390 C378 1.254 . S
O391 Dy377 2.339 1_655 S
O391 C378 1.257 . S
C392 C395 1.344 . S
C392 C396 1.328 . S
C392 C398 1.516 . S
C393 C394 1.304 . S
C393 C397 1.323 . S
C394 C393 1.304 . S
C394 C395 1.371 . S
C394 H408 0.930 . S
C395 C392 1.344 . S
C395 C394 1.371 . S
C395 H409 0.931 . S
C396 C392 1.328 . S
C396 C397 1.433 . S
C396 H410 0.931 . S
C397 C393 1.323 . S
C397 C396 1.433 . S
C397 H411 0.933 . S
C398 Dy376 2.738 1_655 S
C398 O381 1.255 . S
C398 O382 1.249 . S
C398 C392 1.516 . S
C399 O383 1.254 . S
C399 O384 1.257 . S
C400 O385 1.266 1_556 S
C400 O386 1.236 . S
C401 C404 1.344 . S
C401 C405 1.328 . S
C401 C407 1.516 . S
C402 C403 1.304 . S
C402 C406 1.323 . S
C403 C402 1.304 . S
C403 C404 1.371 . S
C403 H412 0.930 . S
C404 C401 1.344 . S
C404 C403 1.371 . S
C404 H413 0.931 . S
C405 C401 1.328 . S
C405 C406 1.433 . S
C405 H414 0.931 . S
C406 C402 1.323 . S
C406 C405 1.433 . S
C406 H415 0.933 . S
C407 Dy377 2.738 . S
C407 O387 1.255 . S
C407 O388 1.249 . S
C407 C401 1.516 . S
H408 C394 0.930 . S
H409 C395 0.931 . S
H410 C396 0.931 . S
H411 C397 0.933 . S
H412 C403 0.930 . S
H413 C404 0.931 . S
H414 C405 0.931 . S
H415 C406 0.933 . S
H416 C434 0.951 . S
H417 C436 0.951 . S
H418 C438 0.950 . S
H419 C439 0.950 . S
H420 C441 0.950 . S
H421 C444 0.950 . S
H422 C445 0.950 . S
H423 C447 0.950 . S
H424 C448 0.950 . S
H425 C449 0.951 . S
H426 C451 0.951 . S
H427 C453 0.950 . S
H428 C454 0.950 . S
H429 C456 0.950 . S
H430 C459 0.950 . S
H431 C460 0.950 . S
H432 C462 0.950 . S
H433 C463 0.950 . S
C434 H416 0.951 . S
C434 C435 1.366 . S
C434 C436 1.388 . S
C435 C434 1.366 . S
C435 C439 1.385 . S
C436 H417 0.951 . S
C436 C434 1.388 . S
C436 C437 1.366 . S
C437 C436 1.366 . S
C437 C438 1.414 . S
C437 C440 1.499 . S
C438 H418 0.950 . S
C438 C437 1.414 . S
C438 C439 1.374 . S
C439 H419 0.950 . S
C439 C435 1.385 . S
C439 C438 1.374 . S
C440 C437 1.499 . S
C440 C441 1.373 . S
C440 C442 1.389 . S
C441 H420 0.950 . S
C441 C440 1.373 . S
C441 C457 1.377 . S
C442 C440 1.389 . S
C442 C443 1.524 . S
C442 C456 1.377 . S
C443 C442 1.524 . S
C443 C444 1.397 . S
C443 C448 1.363 . S
C444 H421 0.950 . S
C444 C443 1.397 . S
C444 C445 1.334 . S
C445 H422 0.950 . S
C445 C444 1.334 . S
C445 C446 1.287 . S
C446 C445 1.287 . S
C446 C447 1.524 . S
C446 H465 0.913 . S
C447 H423 0.950 . S
C447 C446 1.524 . S
C447 C448 1.415 . S
C448 H424 0.950 . S
C448 C443 1.363 . S
C448 C447 1.415 . S
C449 H425 0.951 . S
C449 C450 1.366 . S
C449 C451 1.388 . S
C450 C449 1.366 . S
C450 C454 1.385 . S
C451 H426 0.951 . S
C451 C449 1.388 . S
C451 C452 1.366 . S
C452 C451 1.366 . S
C452 C453 1.414 . S
C452 C455 1.499 . S
C453 H427 0.950 . S
C453 C452 1.414 . S
C453 C454 1.374 . S
C454 H428 0.950 . S
C454 C450 1.385 . S
C454 C453 1.374 . S
C455 C452 1.499 . S
C455 C456 1.373 . S
C455 C457 1.389 . S
C456 H429 0.950 . S
C456 C442 1.377 . S
C456 C455 1.373 . S
C457 C441 1.377 . S
C457 C455 1.389 . S
C457 C458 1.524 . S
C458 C457 1.524 . S
C458 C459 1.397 . S
C458 C463 1.363 . S
C459 H430 0.950 . S
C459 C458 1.397 . S
C459 C460 1.334 . S
C460 H431 0.950 . S
C460 C459 1.334 . S
C460 C461 1.287 . S
C461 C460 1.287 . S
C461 C462 1.524 . S
C461 H464 0.999 . S
C462 H432 0.950 . S
C462 C461 1.524 . S
C462 C463 1.415 . S
C463 H433 0.950 . S
C463 C458 1.363 . S
C463 C462 1.415 . S
H464 C461 0.999 . S
H465 C446 0.913 . S
H466 C484 0.951 . S
H467 C486 0.951 . S
H468 C488 0.950 . S
H469 C489 0.950 . S
H470 C491 0.950 . S
H471 C494 0.950 . S
H472 C495 0.950 . S
H473 C497 0.950 . S
H474 C498 0.950 . S
H475 C499 0.951 . S
H476 C501 0.951 . S
H477 C503 0.950 . S
H478 C504 0.950 . S
H479 C506 0.950 . S
H480 C509 0.950 . S
H481 C510 0.950 . S
H482 C512 0.950 . S
H483 C513 0.950 . S
C484 H466 0.951 . S
C484 C485 1.366 . S
C484 C486 1.388 . S
C485 C484 1.366 . S
C485 C489 1.385 . S
C486 H467 0.951 . S
C486 C484 1.388 . S
C486 C487 1.366 . S
C487 C486 1.366 . S
C487 C488 1.414 . S
C487 C490 1.499 . S
C488 H468 0.950 . S
C488 C487 1.414 . S
C488 C489 1.374 . S
C489 H469 0.950 . S
C489 C485 1.385 . S
C489 C488 1.374 . S
C490 C487 1.499 . S
C490 C491 1.373 . S
C490 C492 1.389 . S
C491 H470 0.950 . S
C491 C490 1.373 . S
C491 C507 1.377 . S
C492 C490 1.389 . S
C492 C493 1.524 . S
C492 C506 1.377 . S
C493 C492 1.524 . S
C493 C494 1.397 . S
C493 C498 1.363 . S
C494 H471 0.950 . S
C494 C493 1.397 . S
C494 C495 1.334 . S
C495 H472 0.950 . S
C495 C494 1.334 . S
C495 C496 1.287 . S
C496 C495 1.287 . S
C496 C497 1.524 . S
C496 H515 0.913 . S
C497 H473 0.950 . S
C497 C496 1.524 . S
C497 C498 1.415 . S
C498 H474 0.950 . S
C498 C493 1.363 . S
C498 C497 1.415 . S
C499 H475 0.951 . S
C499 C500 1.366 . S
C499 C501 1.388 . S
C500 C499 1.366 . S
C500 C504 1.385 . S
C501 H476 0.951 . S
C501 C499 1.388 . S
C501 C502 1.366 . S
C502 C501 1.366 . S
C502 C503 1.414 . S
C502 C505 1.499 . S
C503 H477 0.950 . S
C503 C502 1.414 . S
C503 C504 1.374 . S
C504 H478 0.950 . S
C504 C500 1.385 . S
C504 C503 1.374 . S
C505 C502 1.499 . S
C505 C506 1.373 . S
C505 C507 1.389 . S
C506 H479 0.950 . S
C506 C492 1.377 . S
C506 C505 1.373 . S
C507 C491 1.377 . S
C507 C505 1.389 . S
C507 C508 1.524 . S
C508 C507 1.524 . S
C508 C509 1.397 . S
C508 C513 1.363 . S
C509 H480 0.950 . S
C509 C508 1.397 . S
C509 C510 1.334 . S
C510 H481 0.950 . S
C510 C509 1.334 . S
C510 C511 1.287 . S
C511 C510 1.287 . S
C511 C512 1.524 . S
C511 H514 0.999 . S
C512 H482 0.950 . S
C512 C511 1.524 . S
C512 C513 1.415 . S
C513 H483 0.950 . S
C513 C508 1.363 . S
C513 C512 1.415 . S
H514 C511 0.999 . S
H515 C496 0.913 . S
H516 C534 0.951 . S
H517 C536 0.951 . S
H518 C538 0.950 . S
H519 C539 0.950 . S
H520 C541 0.950 . S
H521 C544 0.950 . S
H522 C545 0.950 . S
H523 C547 0.950 . S
H524 C548 0.950 . S
H525 C549 0.951 . S
H526 C551 0.951 . S
H527 C553 0.950 . S
H528 C554 0.950 . S
H529 C556 0.950 . S
H530 C559 0.950 . S
H531 C560 0.950 . S
H532 C562 0.950 . S
H533 C563 0.950 . S
C534 H516 0.951 . S
C534 C535 1.366 . S
C534 C536 1.388 . S
C535 C534 1.366 . S
C535 C539 1.385 . S
C536 H517 0.951 . S
C536 C534 1.388 . S
C536 C537 1.366 . S
C537 C536 1.366 . S
C537 C538 1.414 . S
C537 C540 1.499 . S
C538 H518 0.950 . S
C538 C537 1.414 . S
C538 C539 1.374 . S
C539 H519 0.950 . S
C539 C535 1.385 . S
C539 C538 1.374 . S
C540 C537 1.499 . S
C540 C541 1.373 . S
C540 C542 1.389 . S
C541 H520 0.950 . S
C541 C540 1.373 . S
C541 C557 1.377 . S
C542 C540 1.389 . S
C542 C543 1.524 . S
C542 C556 1.377 . S
C543 C542 1.524 . S
C543 C544 1.397 . S
C543 C548 1.363 . S
C544 H521 0.950 . S
C544 C543 1.397 . S
C544 C545 1.334 . S
C545 H522 0.950 . S
C545 C544 1.334 . S
C545 C546 1.287 . S
C546 C545 1.287 . S
C546 C547 1.524 . S
C546 H565 0.913 . S
C547 H523 0.950 . S
C547 C546 1.524 . S
C547 C548 1.415 . S
C548 H524 0.950 . S
C548 C543 1.363 . S
C548 C547 1.415 . S
C549 H525 0.951 . S
C549 C550 1.366 . S
C549 C551 1.388 . S
C550 C549 1.366 . S
C550 C554 1.385 . S
C551 H526 0.951 . S
C551 C549 1.388 . S
C551 C552 1.366 . S
C552 C551 1.366 . S
C552 C553 1.414 . S
C552 C555 1.499 . S
C553 H527 0.950 . S
C553 C552 1.414 . S
C553 C554 1.374 . S
C554 H528 0.950 . S
C554 C550 1.385 . S
C554 C553 1.374 . S
C555 C552 1.499 . S
C555 C556 1.373 . S
C555 C557 1.389 . S
C556 H529 0.950 . S
C556 C542 1.377 . S
C556 C555 1.373 . S
C557 C541 1.377 . S
C557 C555 1.389 . S
C557 C558 1.524 . S
C558 C557 1.524 . S
C558 C559 1.397 . S
C558 C563 1.363 . S
C559 H530 0.950 . S
C559 C558 1.397 . S
C559 C560 1.334 . S
C560 H531 0.950 . S
C560 C559 1.334 . S
C560 C561 1.287 . S
C561 C560 1.287 . S
C561 C562 1.524 . S
C561 H564 0.999 . S
C562 H532 0.950 . S
C562 C561 1.524 . S
C562 C563 1.415 . S
C563 H533 0.950 . S
C563 C558 1.363 . S
C563 C562 1.415 . S
H564 C561 0.999 . S
H565 C546 0.913 . S
H566 C584 0.951 . S
H567 C586 0.951 . S
H568 C588 0.950 . S
H569 C589 0.950 . S
H570 C591 0.950 . S
H571 C594 0.950 . S
H572 C595 0.950 . S
H573 C597 0.950 . S
H574 C598 0.950 . S
H575 C599 0.951 . S
H576 C601 0.951 . S
H577 C603 0.950 . S
H578 C604 0.950 . S
H579 C606 0.950 . S
H580 C609 0.950 . S
H581 C610 0.950 . S
H582 C612 0.950 . S
H583 C613 0.950 . S
C584 H566 0.951 . S
C584 C585 1.366 . S
C584 C586 1.388 . S
C585 C584 1.366 . S
C585 C589 1.385 . S
C586 H567 0.951 . S
C586 C584 1.388 . S
C586 C587 1.366 . S
C587 C586 1.366 . S
C587 C588 1.414 . S
C587 C590 1.499 . S
C588 H568 0.950 . S
C588 C587 1.414 . S
C588 C589 1.374 . S
C589 H569 0.950 . S
C589 C585 1.385 . S
C589 C588 1.374 . S
C590 C587 1.499 . S
C590 C591 1.373 . S
C590 C592 1.389 . S
C591 H570 0.950 . S
C591 C590 1.373 . S
C591 C607 1.377 . S
C592 C590 1.389 . S
C592 C593 1.524 . S
C592 C606 1.377 . S
C593 C592 1.524 . S
C593 C594 1.397 . S
C593 C598 1.363 . S
C594 H571 0.950 . S
C594 C593 1.397 . S
C594 C595 1.334 . S
C595 H572 0.950 . S
C595 C594 1.334 . S
C595 C596 1.287 . S
C596 C595 1.287 . S
C596 C597 1.524 . S
C596 H615 0.913 . S
C597 H573 0.950 . S
C597 C596 1.524 . S
C597 C598 1.415 . S
C598 H574 0.950 . S
C598 C593 1.363 . S
C598 C597 1.415 . S
C599 H575 0.951 . S
C599 C600 1.366 . S
C599 C601 1.388 . S
C600 C599 1.366 . S
C600 C604 1.385 . S
C601 H576 0.951 . S
C601 C599 1.388 . S
C601 C602 1.366 . S
C602 C601 1.366 . S
C602 C603 1.414 . S
C602 C605 1.499 . S
C603 H577 0.950 . S
C603 C602 1.414 . S
C603 C604 1.374 . S
C604 H578 0.950 . S
C604 C600 1.385 . S
C604 C603 1.374 . S
C605 C602 1.499 . S
C605 C606 1.373 . S
C605 C607 1.389 . S
C606 H579 0.950 . S
C606 C592 1.377 . S
C606 C605 1.373 . S
C607 C591 1.377 . S
C607 C605 1.389 . S
C607 C608 1.524 . S
C608 C607 1.524 . S
C608 C609 1.397 . S
C608 C613 1.363 . S
C609 H580 0.950 . S
C609 C608 1.397 . S
C609 C610 1.334 . S
C610 H581 0.950 . S
C610 C609 1.334 . S
C610 C611 1.287 . S
C611 C610 1.287 . S
C611 C612 1.524 . S
C611 H614 0.999 . S
C612 H582 0.950 . S
C612 C611 1.524 . S
C612 C613 1.415 . S
C613 H583 0.950 . S
C613 C608 1.363 . S
C613 C612 1.415 . S
H614 C611 0.999 . S
H615 C596 0.913 . S
H616 C634 0.951 . S
H617 C636 0.951 . S
H618 C638 0.950 . S
H619 C639 0.950 . S
H620 C641 0.950 . S
H621 C644 0.950 . S
H622 C645 0.950 . S
H623 C647 0.950 . S
H624 C648 0.950 . S
H625 C649 0.951 . S
H626 C651 0.951 . S
H627 C653 0.950 . S
H628 C654 0.950 . S
H629 C656 0.950 . S
H630 C659 0.950 . S
H631 C660 0.950 . S
H632 C662 0.950 . S
H633 C663 0.950 . S
C634 H616 0.951 . S
C634 C635 1.366 . S
C634 C636 1.388 . S
C635 C634 1.366 . S
C635 C639 1.385 . S
C636 H617 0.951 . S
C636 C634 1.388 . S
C636 C637 1.366 . S
C637 C636 1.366 . S
C637 C638 1.414 . S
C637 C640 1.499 . S
C638 H618 0.950 . S
C638 C637 1.414 . S
C638 C639 1.374 . S
C639 H619 0.950 . S
C639 C635 1.385 . S
C639 C638 1.374 . S
C640 C637 1.499 . S
C640 C641 1.373 . S
C640 C642 1.389 . S
C641 H620 0.950 . S
C641 C640 1.373 . S
C641 C657 1.377 . S
C642 C640 1.389 . S
C642 C643 1.524 . S
C642 C656 1.377 . S
C643 C642 1.524 . S
C643 C644 1.397 . S
C643 C648 1.363 . S
C644 H621 0.950 . S
C644 C643 1.397 . S
C644 C645 1.334 . S
C645 H622 0.950 . S
C645 C644 1.334 . S
C645 C646 1.287 . S
C646 C645 1.287 . S
C646 C647 1.524 . S
C646 H665 0.913 . S
C647 H623 0.950 . S
C647 C646 1.524 . S
C647 C648 1.415 . S
C648 H624 0.950 . S
C648 C643 1.363 . S
C648 C647 1.415 . S
C649 H625 0.951 . S
C649 C650 1.366 . S
C649 C651 1.388 . S
C650 C649 1.366 . S
C650 C654 1.385 . S
C651 H626 0.951 . S
C651 C649 1.388 . S
C651 C652 1.366 . S
C652 C651 1.366 . S
C652 C653 1.414 . S
C652 C655 1.499 . S
C653 H627 0.950 . S
C653 C652 1.414 . S
C653 C654 1.374 . S
C654 H628 0.950 . S
C654 C650 1.385 . S
C654 C653 1.374 . S
C655 C652 1.499 . S
C655 C656 1.373 . S
C655 C657 1.389 . S
C656 H629 0.950 . S
C656 C642 1.377 . S
C656 C655 1.373 . S
C657 C641 1.377 . S
C657 C655 1.389 . S
C657 C658 1.524 . S
C658 C657 1.524 . S
C658 C659 1.397 . S
C658 C663 1.363 . S
C659 H630 0.950 . S
C659 C658 1.397 . S
C659 C660 1.334 . S
C660 H631 0.950 . S
C660 C659 1.334 . S
C660 C661 1.287 . S
C661 C660 1.287 . S
C661 C662 1.524 . S
C661 H664 0.999 . S
C662 H632 0.950 . S
C662 C661 1.524 . S
C662 C663 1.415 . S
C663 H633 0.950 . S
C663 C658 1.363 . S
C663 C662 1.415 . S
H664 C661 0.999 . S
H665 C646 0.913 . S
H666 C684 0.951 . S
H667 C686 0.951 . S
H668 C688 0.950 . S
H669 C689 0.950 . S
H670 C691 0.950 . S
H671 C694 0.950 . S
H672 C695 0.950 . S
H673 C697 0.950 . S
H674 C698 0.950 . S
H675 C699 0.951 . S
H676 C701 0.951 . S
H677 C703 0.950 . S
H678 C704 0.950 . S
H679 C706 0.950 . S
H680 C709 0.950 . S
H681 C710 0.950 . S
H682 C712 0.952 1_655 S
H683 C713 0.950 . S
C684 H666 0.951 . S
C684 C685 1.366 . S
C684 C686 1.388 . S
C685 C684 1.366 . S
C685 C689 1.385 . S
C686 H667 0.951 . S
C686 C684 1.388 . S
C686 C687 1.366 . S
C687 C686 1.366 . S
C687 C688 1.414 . S
C687 C690 1.499 . S
C688 H668 0.950 . S
C688 C687 1.414 . S
C688 C689 1.374 . S
C689 H669 0.950 . S
C689 C685 1.385 . S
C689 C688 1.374 . S
C690 C687 1.499 . S
C690 C691 1.373 . S
C690 C692 1.389 . S
C691 H670 0.950 . S
C691 C690 1.373 . S
C691 C707 1.377 . S
C692 C690 1.389 . S
C692 C693 1.524 . S
C692 C706 1.377 . S
C693 C692 1.524 . S
C693 C694 1.397 . S
C693 C698 1.363 . S
C694 H671 0.950 . S
C694 C693 1.397 . S
C694 C695 1.334 . S
C695 H672 0.950 . S
C695 C694 1.334 . S
C695 C696 1.287 . S
C696 C695 1.287 . S
C696 C697 1.524 . S
C696 H715 0.913 . S
C697 H673 0.950 . S
C697 C696 1.524 . S
C697 C698 1.415 . S
C698 H674 0.950 . S
C698 C693 1.363 . S
C698 C697 1.415 . S
C699 H675 0.951 . S
C699 C700 1.366 . S
C699 C701 1.388 . S
C700 C699 1.366 . S
C700 C704 1.385 . S
C701 H676 0.951 . S
C701 C699 1.388 . S
C701 C702 1.366 . S
C702 C701 1.366 . S
C702 C703 1.414 . S
C702 C705 1.499 . S
C703 H677 0.950 . S
C703 C702 1.414 . S
C703 C704 1.374 . S
C704 H678 0.950 . S
C704 C700 1.385 . S
C704 C703 1.374 . S
C705 C702 1.499 . S
C705 C706 1.373 . S
C705 C707 1.389 . S
C706 H679 0.950 . S
C706 C692 1.377 . S
C706 C705 1.373 . S
C707 C691 1.377 . S
C707 C705 1.389 . S
C707 C708 1.524 . S
C708 C707 1.524 . S
C708 C709 1.397 . S
C708 C713 1.363 . S
C709 H680 0.950 . S
C709 C708 1.397 . S
C709 C710 1.334 . S
C710 H681 0.950 . S
C710 C709 1.334 . S
C710 C711 1.287 . S
C711 C710 1.287 . S
C711 C712 1.523 . S
C711 H714 0.999 1_455 S
C712 H682 0.952 1_455 S
C712 C711 1.523 . S
C712 C713 1.413 . S
C713 H683 0.950 . S
C713 C708 1.363 . S
C713 C712 1.413 . S
H714 C711 0.999 1_655 S
H715 C696 0.913 . S
H716 C734 0.951 . S
H717 C736 0.951 . S
H718 C738 0.950 . S
H719 C739 0.950 . S
H720 C741 0.950 . S
H721 C744 0.950 . S
H722 C745 0.950 . S
H723 C747 0.950 . S
H724 C748 0.950 . S
H725 C749 0.989 . S
H726 C751 0.951 . S
H727 C753 0.950 . S
H728 C754 0.950 . S
H729 C756 0.950 . S
H730 C759 0.950 . S
H731 C760 0.950 . S
H732 C762 0.950 . S
H733 C763 0.950 . S
C734 H716 0.951 . S
C734 C735 1.366 . S
C734 C736 1.388 . S
C735 C734 1.366 . S
C735 C739 1.385 . S
C736 H717 0.951 . S
C736 C734 1.388 . S
C736 C737 1.366 . S
C737 C736 1.366 . S
C737 C738 1.414 . S
C737 C740 1.499 . S
C738 H718 0.950 . S
C738 C737 1.414 . S
C738 C739 1.374 . S
C739 H719 0.950 . S
C739 C735 1.385 . S
C739 C738 1.374 . S
C740 C737 1.499 . S
C740 C741 1.373 . S
C740 C742 1.389 . S
C741 H720 0.950 . S
C741 C740 1.373 . S
C741 C757 1.377 . S
C742 C740 1.389 . S
C742 C743 1.524 . S
C742 C756 1.377 . S
C743 C742 1.524 . S
C743 C744 1.397 . S
C743 C748 1.363 . S
C744 H721 0.950 . S
C744 C743 1.397 . S
C744 C745 1.334 . S
C745 H722 0.950 . S
C745 C744 1.334 . S
C745 C746 1.287 . S
C746 C745 1.287 . S
C746 C747 1.524 . S
C746 H765 0.913 . S
C747 H723 0.950 . S
C747 C746 1.524 . S
C747 C748 1.415 . S
C748 H724 0.950 . S
C748 C743 1.363 . S
C748 C747 1.415 . S
C749 H725 0.989 . S
C749 C750 1.366 . S
C749 C751 1.388 . S
C750 C749 1.366 . S
C750 C754 1.385 . S
C751 H726 0.951 . S
C751 C749 1.388 . S
C751 C752 1.366 . S
C752 C751 1.366 . S
C752 C753 1.414 . S
C752 C755 1.499 . S
C753 H727 0.950 . S
C753 C752 1.414 . S
C753 C754 1.374 . S
C754 H728 0.950 . S
C754 C750 1.385 . S
C754 C753 1.374 . S
C755 C752 1.499 . S
C755 C756 1.373 . S
C755 C757 1.389 . S
C756 H729 0.950 . S
C756 C742 1.377 . S
C756 C755 1.373 . S
C757 C741 1.377 . S
C757 C755 1.389 . S
C757 C758 1.524 . S
C758 C757 1.524 . S
C758 C759 1.397 . S
C758 C763 1.363 . S
C759 H730 0.950 . S
C759 C758 1.397 . S
C759 C760 1.334 . S
C760 H731 0.950 . S
C760 C759 1.334 . S
C760 C761 1.287 . S
C761 C760 1.287 . S
C761 C762 1.524 . S
C761 H764 0.999 . S
C762 H732 0.950 . S
C762 C761 1.524 . S
C762 C763 1.415 . S
C763 H733 0.950 . S
C763 C758 1.363 . S
C763 C762 1.415 . S
H764 C761 0.999 . S
H765 C746 0.913 . S
H766 C784 0.951 . S
H767 C786 0.951 . S
H768 C788 0.950 . S
H769 C789 0.950 . S
H770 C791 0.950 . S
H771 C794 0.950 . S
H772 C795 0.950 . S
H773 C797 0.950 . S
H774 C798 0.950 . S
H775 C799 0.951 . S
H776 C801 0.951 . S
H777 C803 0.950 . S
H778 C804 0.950 . S
H779 C806 0.950 . S
H780 C809 0.950 . S
H781 C810 0.950 . S
H782 C812 0.950 . S
H783 C813 0.950 . S
C784 H766 0.951 . S
C784 C785 1.366 . S
C784 C786 1.388 . S
C785 C784 1.366 . S
C785 C789 1.385 . S
C786 H767 0.951 . S
C786 C784 1.388 . S
C786 C787 1.366 . S
C787 C786 1.366 . S
C787 C788 1.414 . S
C787 C790 1.499 . S
C788 H768 0.950 . S
C788 C787 1.414 . S
C788 C789 1.374 . S
C789 H769 0.950 . S
C789 C785 1.385 . S
C789 C788 1.374 . S
C790 C787 1.499 . S
C790 C791 1.373 . S
C790 C792 1.389 . S
C791 H770 0.950 . S
C791 C790 1.373 . S
C791 C807 1.377 . S
C792 C790 1.389 . S
C792 C793 1.524 . S
C792 C806 1.377 . S
C793 C792 1.524 . S
C793 C794 1.397 . S
C793 C798 1.363 . S
C794 H771 0.950 . S
C794 C793 1.397 . S
C794 C795 1.334 . S
C795 H772 0.950 . S
C795 C794 1.334 . S
C795 C796 1.287 . S
C796 C795 1.287 . S
C796 C797 1.524 . S
C796 H815 0.913 . S
C797 H773 0.950 . S
C797 C796 1.524 . S
C797 C798 1.415 . S
C798 H774 0.950 . S
C798 C793 1.363 . S
C798 C797 1.415 . S
C799 H775 0.951 . S
C799 C800 1.366 . S
C799 C801 1.388 . S
C800 C799 1.366 . S
C800 C804 1.385 . S
C801 H776 0.951 . S
C801 C799 1.388 . S
C801 C802 1.366 . S
C802 C801 1.366 . S
C802 C803 1.414 . S
C802 C805 1.499 . S
C803 H777 0.950 . S
C803 C802 1.414 . S
C803 C804 1.374 . S
C804 H778 0.950 . S
C804 C800 1.385 . S
C804 C803 1.374 . S
C805 C802 1.499 . S
C805 C806 1.373 . S
C805 C807 1.389 . S
C806 H779 0.950 . S
C806 C792 1.377 . S
C806 C805 1.373 . S
C807 C791 1.377 . S
C807 C805 1.389 . S
C807 C808 1.524 . S
C808 C807 1.524 . S
C808 C809 1.397 . S
C808 C813 1.363 . S
C809 H780 0.950 . S
C809 C808 1.397 . S
C809 C810 1.334 . S
C810 H781 0.950 . S
C810 C809 1.334 . S
C810 C811 1.287 . S
C811 C810 1.287 . S
C811 C812 1.524 . S
C811 H814 0.999 . S
C812 H782 0.950 . S
C812 C811 1.524 . S
C812 C813 1.415 . S
C813 H783 0.950 . S
C813 C808 1.363 . S
C813 C812 1.415 . S
H814 C811 0.999 . S
H815 C796 0.913 . S
H816 C834 0.951 . S
H817 C836 0.951 . S
H818 C838 0.950 . S
H819 C839 0.950 . S
H820 C841 0.950 . S
H821 C844 0.950 . S
H822 C845 0.950 . S
H823 C847 0.950 . S
H824 C848 0.950 . S
H825 C849 0.951 . S
H826 C851 0.951 . S
H827 C853 0.950 . S
H828 C854 0.950 . S
H829 C856 0.950 . S
H830 C859 0.950 . S
H831 C860 0.950 . S
H832 C862 0.950 . S
H833 C863 0.950 . S
C834 H816 0.951 . S
C834 C835 1.366 . S
C834 C836 1.388 . S
C835 C834 1.366 . S
C835 C839 1.385 . S
C836 H817 0.951 . S
C836 C834 1.388 . S
C836 C837 1.366 . S
C837 C836 1.366 . S
C837 C838 1.414 . S
C837 C840 1.499 . S
C838 H818 0.950 . S
C838 C837 1.414 . S
C838 C839 1.374 . S
C839 H819 0.950 . S
C839 C835 1.385 . S
C839 C838 1.374 . S
C840 C837 1.499 . S
C840 C841 1.373 . S
C840 C842 1.389 . S
C841 H820 0.950 . S
C841 C840 1.373 . S
C841 C857 1.377 . S
C842 C840 1.389 . S
C842 C843 1.524 . S
C842 C856 1.377 . S
C843 C842 1.524 . S
C843 C844 1.397 . S
C843 C848 1.363 . S
C844 H821 0.950 . S
C844 C843 1.397 . S
C844 C845 1.334 . S
C845 H822 0.950 . S
C845 C844 1.334 . S
C845 C846 1.287 . S
C846 C845 1.287 . S
C846 C847 1.524 . S
C846 H865 0.913 . S
C847 H823 0.950 . S
C847 C846 1.524 . S
C847 C848 1.415 . S
C848 H824 0.950 . S
C848 C843 1.363 . S
C848 C847 1.415 . S
C849 H825 0.951 . S
C849 C850 1.366 . S
C849 C851 1.388 . S
C850 C849 1.366 . S
C850 C854 1.385 . S
C851 H826 0.951 . S
C851 C849 1.388 . S
C851 C852 1.366 . S
C852 C851 1.366 . S
C852 C853 1.414 . S
C852 C855 1.499 . S
C853 H827 0.950 . S
C853 C852 1.414 . S
C853 C854 1.374 . S
C854 H828 0.950 . S
C854 C850 1.385 . S
C854 C853 1.374 . S
C855 C852 1.499 . S
C855 C856 1.373 . S
C855 C857 1.389 . S
C856 H829 0.950 . S
C856 C842 1.377 . S
C856 C855 1.373 . S
C857 C841 1.377 . S
C857 C855 1.389 . S
C857 C858 1.524 . S
C858 C857 1.524 . S
C858 C859 1.397 . S
C858 C863 1.363 . S
C859 H830 0.950 . S
C859 C858 1.397 . S
C859 C860 1.334 . S
C860 H831 0.950 . S
C860 C859 1.334 . S
C860 C861 1.287 . S
C861 C860 1.287 . S
C861 C862 1.524 . S
C861 H864 0.999 . S
C862 H832 0.950 . S
C862 C861 1.524 . S
C862 C863 1.415 . S
C863 H833 0.950 . S
C863 C858 1.363 . S
C863 C862 1.415 . S
H864 C861 0.999 . S
H865 C846 0.913 . S
H866 C884 0.951 . S
H867 C886 0.951 . S
H868 C888 0.950 . S
H869 C889 0.950 . S
H870 C891 0.950 . S
H871 C894 0.950 . S
H872 C895 0.950 . S
H873 C897 0.950 . S
H874 C898 0.950 . S
H875 C899 0.951 . S
H876 C901 0.951 . S
H877 C903 0.950 . S
H878 C904 0.950 . S
H879 C906 0.950 . S
H880 C909 0.950 . S
H881 C910 0.950 . S
H882 C912 0.950 . S
H883 C913 0.950 . S
C884 H866 0.951 . S
C884 C885 1.366 . S
C884 C886 1.388 . S
C885 C884 1.366 . S
C885 C889 1.385 . S
C886 H867 0.951 . S
C886 C884 1.388 . S
C886 C887 1.366 . S
C887 C886 1.366 . S
C887 C888 1.414 . S
C887 C890 1.499 . S
C888 H868 0.950 . S
C888 C887 1.414 . S
C888 C889 1.374 . S
C889 H869 0.950 . S
C889 C885 1.385 . S
C889 C888 1.374 . S
C890 C887 1.499 . S
C890 C891 1.373 . S
C890 C892 1.389 . S
C891 H870 0.950 . S
C891 C890 1.373 . S
C891 C907 1.377 . S
C892 C890 1.389 . S
C892 C893 1.524 . S
C892 C906 1.377 . S
C893 C892 1.524 . S
C893 C894 1.397 . S
C893 C898 1.363 . S
C894 H871 0.950 . S
C894 C893 1.397 . S
C894 C895 1.334 . S
C895 H872 0.950 . S
C895 C894 1.334 . S
C895 C896 1.287 . S
C896 C895 1.287 . S
C896 C897 1.524 . S
C896 H915 0.913 . S
C897 H873 0.950 . S
C897 C896 1.524 . S
C897 C898 1.415 . S
C898 H874 0.950 . S
C898 C893 1.363 . S
C898 C897 1.415 . S
C899 H875 0.951 . S
C899 C900 1.366 . S
C899 C901 1.388 . S
C900 C899 1.366 . S
C900 C904 1.385 . S
C901 H876 0.951 . S
C901 C899 1.388 . S
C901 C902 1.366 . S
C902 C901 1.366 . S
C902 C903 1.414 . S
C902 C905 1.499 . S
C903 H877 0.950 . S
C903 C902 1.414 . S
C903 C904 1.374 . S
C904 H878 0.950 . S
C904 C900 1.385 . S
C904 C903 1.374 . S
C905 C902 1.499 . S
C905 C906 1.373 . S
C905 C907 1.389 . S
C906 H879 0.950 . S
C906 C892 1.377 . S
C906 C905 1.373 . S
C907 C891 1.377 . S
C907 C905 1.389 . S
C907 C908 1.524 . S
C908 C907 1.524 . S
C908 C909 1.397 . S
C908 C913 1.363 . S
C909 H880 0.950 . S
C909 C908 1.397 . S
C909 C910 1.334 . S
C910 H881 0.950 . S
C910 C909 1.334 . S
C910 C911 1.287 . S
C911 C910 1.287 . S
C911 C912 1.524 . S
C911 H914 0.999 . S
C912 H882 0.950 . S
C912 C911 1.524 . S
C912 C913 1.415 . S
C913 H883 0.950 . S
C913 C908 1.363 . S
C913 C912 1.415 . S
H914 C911 0.999 . S
H915 C896 0.913 . S
H916 C934 0.951 . S
H917 C936 0.951 . S
H918 C938 0.950 . S
H919 C939 0.950 . S
H920 C941 0.950 . S
H921 C944 0.950 . S
H922 C945 0.950 . S
H923 C947 0.950 . S
H924 C948 0.952 1_455 S
H925 C949 0.951 . S
H926 C951 0.951 . S
H927 C953 0.950 . S
H928 C954 0.976 . S
H929 C956 0.950 . S
H930 C959 0.950 . S
H931 C960 0.950 . S
H932 C962 0.950 . S
H933 C963 0.950 . S
C934 H916 0.951 . S
C934 C935 1.366 . S
C934 C936 1.388 . S
C935 C934 1.366 . S
C935 C939 1.385 . S
C936 H917 0.951 . S
C936 C934 1.388 . S
C936 C937 1.366 . S
C937 C936 1.366 . S
C937 C938 1.414 . S
C937 C940 1.499 . S
C938 H918 0.950 . S
C938 C937 1.414 . S
C938 C939 1.374 . S
C939 H919 0.950 . S
C939 C935 1.385 . S
C939 C938 1.374 . S
C940 C937 1.499 . S
C940 C941 1.373 . S
C940 C942 1.389 . S
C941 H920 0.950 . S
C941 C940 1.373 . S
C941 C957 1.377 . S
C942 C940 1.389 . S
C942 C943 1.524 . S
C942 C956 1.377 . S
C943 C942 1.524 . S
C943 C944 1.397 . S
C943 C948 1.374 . S
C944 H921 0.950 . S
C944 C943 1.397 . S
C944 C945 1.334 . S
C945 H922 0.950 . S
C945 C944 1.334 . S
C945 C946 1.287 1_655 S
C946 C945 1.287 1_455 S
C946 C947 1.524 . S
C946 H965 0.913 . S
C947 H923 0.950 . S
C947 C946 1.524 . S
C947 C948 1.402 1_455 S
C948 H924 0.952 1_655 S
C948 C943 1.374 . S
C948 C947 1.402 1_655 S
C949 H925 0.951 . S
C949 C950 1.366 . S
C949 C951 1.388 . S
C950 C949 1.366 . S
C950 C954 1.385 . S
C951 H926 0.951 . S
C951 C949 1.388 . S
C951 C952 1.366 . S
C952 C951 1.366 . S
C952 C953 1.414 . S
C952 C955 1.499 . S
C953 H927 0.950 . S
C953 C952 1.414 . S
C953 C954 1.374 . S
C954 H928 0.976 . S
C954 C950 1.385 . S
C954 C953 1.374 . S
C955 C952 1.499 . S
C955 C956 1.373 . S
C955 C957 1.389 . S
C956 H929 0.950 . S
C956 C942 1.377 . S
C956 C955 1.373 . S
C957 C941 1.377 . S
C957 C955 1.389 . S
C957 C958 1.524 . S
C958 C957 1.524 . S
C958 C959 1.397 . S
C958 C963 1.363 . S
C959 H930 0.950 . S
C959 C958 1.397 . S
C959 C960 1.334 . S
C960 H931 0.950 . S
C960 C959 1.334 . S
C960 C961 1.287 . S
C961 C960 1.287 . S
C961 C962 1.524 . S
C961 H964 0.999 . S
C962 H932 0.950 . S
C962 C961 1.524 . S
C962 C963 1.415 . S
C963 H933 0.950 . S
C963 C958 1.363 . S
C963 C962 1.415 . S
H964 C961 0.999 . S
H965 C946 0.913 . S
H966 C984 0.951 . S
H967 C986 0.951 . S
H968 C988 0.950 . S
H969 C989 0.950 . S
H970 C991 0.950 . S
H971 C994 0.950 . S
H972 C995 0.950 . S
H973 C997 0.950 . S
H974 C998 0.950 . S
H975 C999 0.951 . S
H976 C1001 0.951 . S
H977 C1003 0.950 . S
H978 C1004 0.950 . S
H979 C1006 0.950 . S
H980 C1009 0.950 . S
H981 C1010 0.950 . S
H982 C1012 0.950 . S
H983 C1013 0.950 . S
C984 H966 0.951 . S
C984 C985 1.366 . S
C984 C986 1.388 . S
C985 C984 1.366 . S
C985 C989 1.385 . S
C986 H967 0.951 . S
C986 C984 1.388 . S
C986 C987 1.366 . S
C987 C986 1.366 . S
C987 C988 1.414 . S
C987 C990 1.499 . S
C988 H968 0.950 . S
C988 C987 1.414 . S
C988 C989 1.374 . S
C989 H969 0.950 . S
C989 C985 1.385 . S
C989 C988 1.374 . S
C990 C987 1.499 . S
C990 C991 1.373 . S
C990 C992 1.389 . S
C991 H970 0.950 . S
C991 C990 1.373 . S
C991 C1007 1.377 . S
C992 C990 1.389 . S
C992 C993 1.524 . S
C992 C1006 1.377 . S
C993 C992 1.524 . S
C993 C994 1.397 . S
C993 C998 1.363 . S
C994 H971 0.950 . S
C994 C993 1.397 . S
C994 C995 1.334 . S
C995 H972 0.950 . S
C995 C994 1.334 . S
C995 C996 1.287 . S
C996 C995 1.287 . S
C996 C997 1.524 . S
C996 H1015 0.913 . S
C997 H973 0.950 . S
C997 C996 1.524 . S
C997 C998 1.415 . S
C998 H974 0.950 . S
C998 C993 1.363 . S
C998 C997 1.415 . S
C999 H975 0.951 . S
C999 C1000 1.366 . S
C999 C1001 1.388 . S
C1000 C999 1.366 . S
C1000 C1004 1.385 . S
C1001 H976 0.951 . S
C1001 C999 1.388 . S
C1001 C1002 1.366 . S
C1002 C1001 1.366 . S
C1002 C1003 1.414 . S
C1002 C1005 1.499 . S
C1003 H977 0.950 . S
C1003 C1002 1.414 . S
C1003 C1004 1.374 . S
C1004 H978 0.950 . S
C1004 C1000 1.385 . S
C1004 C1003 1.374 . S
C1005 C1002 1.499 . S
C1005 C1006 1.373 . S
C1005 C1007 1.389 . S
C1006 H979 0.950 . S
C1006 C992 1.377 . S
C1006 C1005 1.373 . S
C1007 C991 1.377 . S
C1007 C1005 1.389 . S
C1007 C1008 1.524 . S
C1008 C1007 1.524 . S
C1008 C1009 1.397 . S
C1008 C1013 1.363 . S
C1009 H980 0.950 . S
C1009 C1008 1.397 . S
C1009 C1010 1.334 . S
C1010 H981 0.950 . S
C1010 C1009 1.334 . S
C1010 C1011 1.287 . S
C1011 C1010 1.287 . S
C1011 C1012 1.524 . S
C1011 H1014 0.999 . S
C1012 H982 0.950 . S
C1012 C1011 1.524 . S
C1012 C1013 1.415 . S
C1013 H983 0.950 . S
C1013 C1008 1.363 . S
C1013 C1012 1.415 . S
H1014 C1011 0.999 . S
H1015 C996 0.913 . S
H1016 C1034 0.951 . S
H1017 C1036 0.951 . S
H1018 C1038 0.950 . S
H1019 C1039 0.950 . S
H1020 C1041 0.950 . S
H1021 C1044 0.950 . S
H1022 C1045 0.950 . S
H1023 C1047 0.950 . S
H1024 C1048 0.950 . S
H1025 C1049 0.951 . S
H1026 C1051 0.951 . S
H1027 C1053 0.950 . S
H1028 C1054 0.950 . S
H1029 C1056 0.950 . S
H1030 C1059 0.950 . S
H1031 C1060 0.950 . S
H1032 C1062 0.950 . S
H1033 C1063 0.950 . S
C1034 H1016 0.951 . S
C1034 C1035 1.366 . S
C1034 C1036 1.388 . S
C1035 C1034 1.366 . S
C1035 C1039 1.385 . S
C1036 H1017 0.951 . S
C1036 C1034 1.388 . S
C1036 C1037 1.366 . S
C1037 C1036 1.366 . S
C1037 C1038 1.414 . S
C1037 C1040 1.499 . S
C1038 H1018 0.950 . S
C1038 C1037 1.414 . S
C1038 C1039 1.374 . S
C1039 H1019 0.950 . S
C1039 C1035 1.385 . S
C1039 C1038 1.374 . S
C1040 C1037 1.499 . S
C1040 C1041 1.373 . S
C1040 C1042 1.389 . S
C1041 H1020 0.950 . S
C1041 C1040 1.373 . S
C1041 C1057 1.377 . S
C1042 C1040 1.389 . S
C1042 C1043 1.524 . S
C1042 C1056 1.377 . S
C1043 C1042 1.524 . S
C1043 C1044 1.397 . S
C1043 C1048 1.363 . S
C1044 H1021 0.950 . S
C1044 C1043 1.397 . S
C1044 C1045 1.334 . S
C1045 H1022 0.950 . S
C1045 C1044 1.334 . S
C1045 C1046 1.287 . S
C1046 C1045 1.287 . S
C1046 C1047 1.524 . S
C1046 H1065 0.913 . S
C1047 H1023 0.950 . S
C1047 C1046 1.524 . S
C1047 C1048 1.415 . S
C1048 H1024 0.950 . S
C1048 C1043 1.363 . S
C1048 C1047 1.415 . S
C1049 H1025 0.951 . S
C1049 C1050 1.366 . S
C1049 C1051 1.388 . S
C1050 C1049 1.366 . S
C1050 C1054 1.385 . S
C1051 H1026 0.951 . S
C1051 C1049 1.388 . S
C1051 C1052 1.366 . S
C1052 C1051 1.366 . S
C1052 C1053 1.414 . S
C1052 C1055 1.499 . S
C1053 H1027 0.950 . S
C1053 C1052 1.414 . S
C1053 C1054 1.374 . S
C1054 H1028 0.950 . S
C1054 C1050 1.385 . S
C1054 C1053 1.374 . S
C1055 C1052 1.499 . S
C1055 C1056 1.373 . S
C1055 C1057 1.389 . S
C1056 H1029 0.950 . S
C1056 C1042 1.377 . S
C1056 C1055 1.373 . S
C1057 C1041 1.377 . S
C1057 C1055 1.389 . S
C1057 C1058 1.524 . S
C1058 C1057 1.524 . S
C1058 C1059 1.397 . S
C1058 C1063 1.363 . S
C1059 H1030 0.950 . S
C1059 C1058 1.397 . S
C1059 C1060 1.334 . S
C1060 H1031 0.950 . S
C1060 C1059 1.334 . S
C1060 C1061 1.287 . S
C1061 C1060 1.287 . S
C1061 C1062 1.524 . S
C1061 H1064 0.999 . S
C1062 H1032 0.950 . S
C1062 C1061 1.524 . S
C1062 C1063 1.415 . S
C1063 H1033 0.950 . S
C1063 C1058 1.363 . S
C1063 C1062 1.415 . S
H1064 C1061 0.999 . S
H1065 C1046 0.913 . S
H1066 C1084 0.951 . S
H1067 C1086 0.951 . S
H1068 C1088 0.950 . S
H1069 C1089 0.950 . S
H1070 C1091 0.950 . S
H1071 C1094 0.950 . S
H1072 C1095 0.950 . S
H1073 C1097 0.950 . S
H1074 C1098 0.950 . S
H1075 C1099 0.951 . S
H1076 C1101 0.951 . S
H1077 C1103 0.950 . S
H1078 C1104 0.950 . S
H1079 C1106 0.950 . S
H1080 C1109 0.950 . S
H1081 C1110 0.950 . S
H1082 C1112 0.950 . S
H1083 C1113 0.950 . S
C1084 H1066 0.951 . S
C1084 C1085 1.366 . S
C1084 C1086 1.388 . S
C1085 C1084 1.366 . S
C1085 C1089 1.385 . S
C1086 H1067 0.951 . S
C1086 C1084 1.388 . S
C1086 C1087 1.366 . S
C1087 C1086 1.366 . S
C1087 C1088 1.414 . S
C1087 C1090 1.499 . S
C1088 H1068 0.950 . S
C1088 C1087 1.414 . S
C1088 C1089 1.374 . S
C1089 H1069 0.950 . S
C1089 C1085 1.385 . S
C1089 C1088 1.374 . S
C1090 C1087 1.499 . S
C1090 C1091 1.373 . S
C1090 C1092 1.389 . S
C1091 H1070 0.950 . S
C1091 C1090 1.373 . S
C1091 C1107 1.377 . S
C1092 C1090 1.389 . S
C1092 C1093 1.524 . S
C1092 C1106 1.377 . S
C1093 C1092 1.524 . S
C1093 C1094 1.397 . S
C1093 C1098 1.363 . S
C1094 H1071 0.950 . S
C1094 C1093 1.397 . S
C1094 C1095 1.334 . S
C1095 H1072 0.950 . S
C1095 C1094 1.334 . S
C1095 C1096 1.287 . S
C1096 C1095 1.287 . S
C1096 C1097 1.524 . S
C1096 H1115 0.913 . S
C1097 H1073 0.950 . S
C1097 C1096 1.524 . S
C1097 C1098 1.415 . S
C1098 H1074 0.950 . S
C1098 C1093 1.363 . S
C1098 C1097 1.415 . S
C1099 H1075 0.951 . S
C1099 C1100 1.366 . S
C1099 C1101 1.388 . S
C1100 C1099 1.366 . S
C1100 C1104 1.385 . S
C1101 H1076 0.951 . S
C1101 C1099 1.388 . S
C1101 C1102 1.366 . S
C1102 C1101 1.366 . S
C1102 C1103 1.414 . S
C1102 C1105 1.499 . S
C1103 H1077 0.950 . S
C1103 C1102 1.414 . S
C1103 C1104 1.374 . S
C1104 H1078 0.950 . S
C1104 C1100 1.385 . S
C1104 C1103 1.374 . S
C1105 C1102 1.499 . S
C1105 C1106 1.373 . S
C1105 C1107 1.389 . S
C1106 H1079 0.950 . S
C1106 C1092 1.377 . S
C1106 C1105 1.373 . S
C1107 C1091 1.377 . S
C1107 C1105 1.389 . S
C1107 C1108 1.524 . S
C1108 C1107 1.524 . S
C1108 C1109 1.397 . S
C1108 C1113 1.363 . S
C1109 H1080 0.950 . S
C1109 C1108 1.397 . S
C1109 C1110 1.334 . S
C1110 H1081 0.950 . S
C1110 C1109 1.334 . S
C1110 C1111 1.287 . S
C1111 C1110 1.287 . S
C1111 C1112 1.524 . S
C1111 H1114 0.999 . S
C1112 H1082 0.950 . S
C1112 C1111 1.524 . S
C1112 C1113 1.415 . S
C1113 H1083 0.950 . S
C1113 C1108 1.363 . S
C1113 C1112 1.415 . S
H1114 C1111 0.999 . S
H1115 C1096 0.913 . S
H1116 C1134 0.951 . S
H1117 C1136 0.951 . S
H1118 C1138 0.950 . S
H1119 C1139 0.950 . S
H1120 C1141 0.950 . S
H1121 C1144 0.950 . S
H1122 C1145 0.950 . S
H1123 C1147 0.950 . S
H1124 C1148 0.950 . S
H1125 C1149 0.951 . S
H1126 C1151 0.951 . S
H1127 C1153 0.950 . S
H1128 C1154 0.950 . S
H1129 C1156 0.950 . S
H1130 C1159 0.950 . S
H1131 C1160 0.950 . S
H1132 C1162 0.950 . S
H1133 C1163 0.950 . S
C1134 H1116 0.951 . S
C1134 C1135 1.366 . S
C1134 C1136 1.388 . S
C1135 C1134 1.366 . S
C1135 C1139 1.385 . S
C1136 H1117 0.951 . S
C1136 C1134 1.388 . S
C1136 C1137 1.366 . S
C1137 C1136 1.366 . S
C1137 C1138 1.414 . S
C1137 C1140 1.499 . S
C1138 H1118 0.950 . S
C1138 C1137 1.414 . S
C1138 C1139 1.374 . S
C1139 H1119 0.950 . S
C1139 C1135 1.385 . S
C1139 C1138 1.374 . S
C1140 C1137 1.499 . S
C1140 C1141 1.373 . S
C1140 C1142 1.389 . S
C1141 H1120 0.950 . S
C1141 C1140 1.373 . S
C1141 C1157 1.377 . S
C1142 C1140 1.389 . S
C1142 C1143 1.524 . S
C1142 C1156 1.377 . S
C1143 C1142 1.524 . S
C1143 C1144 1.397 . S
C1143 C1148 1.363 . S
C1144 H1121 0.950 . S
C1144 C1143 1.397 . S
C1144 C1145 1.334 . S
C1145 H1122 0.950 . S
C1145 C1144 1.334 . S
C1145 C1146 1.287 . S
C1146 C1145 1.287 . S
C1146 C1147 1.524 . S
C1146 H1165 0.913 . S
C1147 H1123 0.950 . S
C1147 C1146 1.524 . S
C1147 C1148 1.415 . S
C1148 H1124 0.950 . S
C1148 C1143 1.363 . S
C1148 C1147 1.415 . S
C1149 H1125 0.951 . S
C1149 C1150 1.366 . S
C1149 C1151 1.388 . S
C1150 C1149 1.366 . S
C1150 C1154 1.385 . S
C1151 H1126 0.951 . S
C1151 C1149 1.388 . S
C1151 C1152 1.366 . S
C1152 C1151 1.366 . S
C1152 C1153 1.414 . S
C1152 C1155 1.499 . S
C1153 H1127 0.950 . S
C1153 C1152 1.414 . S
C1153 C1154 1.374 . S
C1154 H1128 0.950 . S
C1154 C1150 1.385 . S
C1154 C1153 1.374 . S
C1155 C1152 1.499 . S
C1155 C1156 1.373 . S
C1155 C1157 1.389 . S
C1156 H1129 0.950 . S
C1156 C1142 1.377 . S
C1156 C1155 1.373 . S
C1157 C1141 1.377 . S
C1157 C1155 1.389 . S
C1157 C1158 1.524 . S
C1158 C1157 1.524 . S
C1158 C1159 1.397 . S
C1158 C1163 1.363 . S
C1159 H1130 0.950 . S
C1159 C1158 1.397 . S
C1159 C1160 1.334 . S
C1160 H1131 0.950 . S
C1160 C1159 1.334 . S
C1160 C1161 1.287 . S
C1161 C1160 1.287 . S
C1161 C1162 1.524 . S
C1161 H1164 0.999 . S
C1162 H1132 0.950 . S
C1162 C1161 1.524 . S
C1162 C1163 1.415 . S
C1163 H1133 0.950 . S
C1163 C1158 1.363 . S
C1163 C1162 1.415 . S
H1164 C1161 0.999 . S
H1165 C1146 0.913 . S
H1166 C1184 0.951 . S
H1167 C1186 0.951 . S
H1168 C1188 0.950 . S
H1169 C1189 0.950 . S
H1170 C1191 0.950 . S
H1171 C1194 0.950 . S
H1172 C1195 0.950 . S
H1173 C1197 0.950 . S
H1174 C1198 0.950 . S
H1175 C1199 0.951 . S
H1176 C1201 0.951 . S
H1177 C1203 0.950 . S
H1178 C1204 0.950 . S
H1179 C1206 0.950 . S
H1180 C1209 0.950 . S
H1181 C1210 0.950 . S
H1182 C1212 0.941 1_655 S
H1183 C1213 0.950 . S
C1184 H1166 0.951 . S
C1184 C1185 1.366 . S
C1184 C1186 1.388 . S
C1185 C1184 1.366 . S
C1185 C1189 1.385 . S
C1186 H1167 0.951 . S
C1186 C1184 1.388 . S
C1186 C1187 1.366 . S
C1187 C1186 1.366 . S
C1187 C1188 1.414 . S
C1187 C1190 1.499 . S
C1188 H1168 0.950 . S
C1188 C1187 1.414 . S
C1188 C1189 1.374 . S
C1189 H1169 0.950 . S
C1189 C1185 1.385 . S
C1189 C1188 1.374 . S
C1190 C1187 1.499 . S
C1190 C1191 1.373 . S
C1190 C1192 1.389 . S
C1191 H1170 0.950 . S
C1191 C1190 1.373 . S
C1191 C1207 1.377 . S
C1192 C1190 1.389 . S
C1192 C1193 1.524 . S
C1192 C1206 1.377 . S
C1193 C1192 1.524 . S
C1193 C1194 1.397 . S
C1193 C1198 1.363 . S
C1194 H1171 0.950 . S
C1194 C1193 1.397 . S
C1194 C1195 1.334 . S
C1195 H1172 0.950 . S
C1195 C1194 1.334 . S
C1195 C1196 1.287 . S
C1196 C1195 1.287 . S
C1196 C1197 1.524 . S
C1196 H1215 0.913 . S
C1197 H1173 0.950 . S
C1197 C1196 1.524 . S
C1197 C1198 1.415 . S
C1198 H1174 0.950 . S
C1198 C1193 1.363 . S
C1198 C1197 1.415 . S
C1199 H1175 0.951 . S
C1199 C1200 1.366 . S
C1199 C1201 1.388 . S
C1200 C1199 1.366 . S
C1200 C1204 1.385 . S
C1201 H1176 0.951 . S
C1201 C1199 1.388 . S
C1201 C1202 1.366 . S
C1202 C1201 1.366 . S
C1202 C1203 1.414 . S
C1202 C1205 1.499 . S
C1203 H1177 0.950 . S
C1203 C1202 1.414 . S
C1203 C1204 1.374 . S
C1204 H1178 0.950 . S
C1204 C1200 1.385 . S
C1204 C1203 1.374 . S
C1205 C1202 1.499 . S
C1205 C1206 1.373 . S
C1205 C1207 1.389 . S
C1206 H1179 0.950 . S
C1206 C1192 1.377 . S
C1206 C1205 1.373 . S
C1207 C1191 1.377 . S
C1207 C1205 1.389 . S
C1207 C1208 1.524 . S
C1208 C1207 1.524 . S
C1208 C1209 1.397 . S
C1208 C1213 1.363 . S
C1209 H1180 0.950 . S
C1209 C1208 1.397 . S
C1209 C1210 1.334 . S
C1210 H1181 0.950 . S
C1210 C1209 1.334 . S
C1210 C1211 1.287 . S
C1211 C1210 1.287 . S
C1211 C1212 1.526 . S
C1211 H1214 0.999 1_455 S
C1212 H1182 0.941 1_455 S
C1212 C1211 1.526 . S
C1212 C1213 1.422 . S
C1213 H1183 0.950 . S
C1213 C1208 1.363 . S
C1213 C1212 1.422 . S
H1214 C1211 0.999 1_655 S
H1215 C1196 0.913 . S
H1216 C1234 0.951 . S
H1217 C1236 0.951 . S
H1218 C1238 0.950 . S
H1219 C1239 0.950 . S
H1220 C1241 0.950 . S
H1221 C1244 0.950 . S
H1222 C1245 0.950 . S
H1223 C1247 0.950 . S
H1224 C1248 0.950 . S
H1225 C1249 0.951 . S
H1226 C1251 0.951 . S
H1227 C1253 0.950 . S
H1228 C1254 0.950 . S
H1229 C1256 0.950 . S
H1230 C1259 0.950 . S
H1231 C1260 0.950 1_554 S
H1232 C1262 0.950 . S
H1233 C1263 0.950 . S
C1234 H1216 0.951 . S
C1234 C1235 1.366 . S
C1234 C1236 1.388 . S
C1235 C1234 1.366 . S
C1235 C1239 1.385 . S
C1236 H1217 0.951 . S
C1236 C1234 1.388 . S
C1236 C1237 1.366 . S
C1237 C1236 1.366 . S
C1237 C1238 1.414 . S
C1237 C1240 1.499 . S
C1238 H1218 0.950 . S
C1238 C1237 1.414 . S
C1238 C1239 1.374 . S
C1239 H1219 0.950 . S
C1239 C1235 1.385 . S
C1239 C1238 1.374 . S
C1240 C1237 1.499 . S
C1240 C1241 1.373 . S
C1240 C1242 1.389 . S
C1241 H1220 0.950 . S
C1241 C1240 1.373 . S
C1241 C1257 1.377 . S
C1242 C1240 1.389 . S
C1242 C1243 1.524 . S
C1242 C1256 1.377 . S
C1243 C1242 1.524 . S
C1243 C1244 1.397 . S
C1243 C1248 1.363 . S
C1244 H1221 0.950 . S
C1244 C1243 1.397 . S
C1244 C1245 1.334 . S
C1245 H1222 0.950 . S
C1245 C1244 1.334 . S
C1245 C1246 1.287 . S
C1246 C1245 1.287 . S
C1246 C1247 1.524 . S
C1246 H1265 0.913 . S
C1247 H1223 0.950 . S
C1247 C1246 1.524 . S
C1247 C1248 1.415 . S
C1248 H1224 0.950 . S
C1248 C1243 1.363 . S
C1248 C1247 1.415 . S
C1249 H1225 0.951 . S
C1249 C1250 1.366 . S
C1249 C1251 1.388 . S
C1250 C1249 1.366 . S
C1250 C1254 1.385 . S
C1251 H1226 0.951 . S
C1251 C1249 1.388 . S
C1251 C1252 1.366 . S
C1252 C1251 1.366 . S
C1252 C1253 1.414 . S
C1252 C1255 1.499 . S
C1253 H1227 0.950 . S
C1253 C1252 1.414 . S
C1253 C1254 1.374 . S
C1254 H1228 0.950 . S
C1254 C1250 1.385 . S
C1254 C1253 1.374 . S
C1255 C1252 1.499 . S
C1255 C1256 1.373 . S
C1255 C1257 1.389 . S
C1256 H1229 0.950 . S
C1256 C1242 1.377 . S
C1256 C1255 1.373 . S
C1257 C1241 1.377 . S
C1257 C1255 1.389 . S
C1257 C1258 1.524 . S
C1258 C1257 1.524 . S
C1258 C1259 1.397 . S
C1258 C1263 1.363 . S
C1259 H1230 0.950 . S
C1259 C1258 1.397 . S
C1259 C1260 1.334 . S
C1260 H1231 0.950 1_556 S
C1260 C1259 1.334 . S
C1260 C1261 1.287 1_556 S
C1261 C1260 1.287 1_554 S
C1261 C1262 1.524 1_554 S
C1261 H1264 0.999 . S
C1262 H1232 0.950 . S
C1262 C1261 1.524 1_556 S
C1262 C1263 1.415 . S
C1263 H1233 0.950 . S
C1263 C1258 1.363 . S
C1263 C1262 1.415 . S
H1264 C1261 0.999 . S
H1265 C1246 0.913 . S
H1266 C1284 0.951 . S
H1267 C1286 0.951 . S
H1268 C1288 0.950 . S
H1269 C1289 0.950 . S
H1270 C1291 0.950 . S
H1271 C1294 0.950 . S
H1272 C1295 0.950 . S
H1273 C1297 0.950 . S
H1274 C1298 0.950 . S
H1275 C1299 0.951 . S
H1276 C1301 0.951 . S
H1277 C1303 0.950 . S
H1278 C1304 0.950 . S
H1279 C1306 0.950 . S
H1280 C1309 0.949 . S
H1281 C1310 0.950 . S
H1282 C1312 0.950 . S
H1283 C1313 0.950 . S
C1284 H1266 0.951 . S
C1284 C1285 1.366 . S
C1284 C1286 1.388 . S
C1285 C1284 1.366 . S
C1285 C1289 1.385 . S
C1286 H1267 0.951 . S
C1286 C1284 1.388 . S
C1286 C1287 1.366 . S
C1287 C1286 1.366 . S
C1287 C1288 1.414 . S
C1287 C1290 1.499 . S
C1288 H1268 0.950 . S
C1288 C1287 1.414 . S
C1288 C1289 1.374 . S
C1289 H1269 0.950 . S
C1289 C1285 1.385 . S
C1289 C1288 1.374 . S
C1290 C1287 1.499 . S
C1290 C1291 1.373 . S
C1290 C1292 1.389 . S
C1291 H1270 0.950 . S
C1291 C1290 1.373 . S
C1291 C1307 1.377 . S
C1292 C1290 1.389 . S
C1292 C1293 1.524 . S
C1292 C1306 1.377 . S
C1293 C1292 1.524 . S
C1293 C1294 1.397 . S
C1293 C1298 1.363 . S
C1294 H1271 0.950 . S
C1294 C1293 1.397 . S
C1294 C1295 1.334 . S
C1295 H1272 0.950 . S
C1295 C1294 1.334 . S
C1295 C1296 1.287 . S
C1296 C1295 1.287 . S
C1296 C1297 1.524 . S
C1296 H1315 0.913 . S
C1297 H1273 0.950 . S
C1297 C1296 1.524 . S
C1297 C1298 1.415 . S
C1298 H1274 0.950 . S
C1298 C1293 1.363 . S
C1298 C1297 1.415 . S
C1299 H1275 0.951 . S
C1299 C1300 1.366 . S
C1299 C1301 1.388 . S
C1300 C1299 1.366 . S
C1300 C1304 1.385 . S
C1301 H1276 0.951 . S
C1301 C1299 1.388 . S
C1301 C1302 1.366 . S
C1302 C1301 1.366 . S
C1302 C1303 1.414 . S
C1302 C1305 1.499 . S
C1303 H1277 0.950 . S
C1303 C1302 1.414 . S
C1303 C1304 1.374 . S
C1304 H1278 0.950 . S
C1304 C1300 1.385 . S
C1304 C1303 1.374 . S
C1305 C1302 1.499 . S
C1305 C1306 1.373 . S
C1305 C1307 1.389 . S
C1306 H1279 0.950 . S
C1306 C1292 1.377 . S
C1306 C1305 1.373 . S
C1307 C1291 1.377 . S
C1307 C1305 1.389 . S
C1307 C1308 1.524 . S
C1308 C1307 1.524 . S
C1308 C1309 1.396 . S
C1308 C1313 1.363 . S
C1309 H1280 0.949 . S
C1309 C1308 1.396 . S
C1309 C1310 1.336 1_655 S
C1310 H1281 0.950 . S
C1310 C1309 1.336 1_455 S
C1310 C1311 1.287 . S
C1311 C1310 1.287 . S
C1311 C1312 1.524 . S
C1311 H1314 0.999 . S
C1312 H1282 0.950 . S
C1312 C1311 1.524 . S
C1312 C1313 1.415 1_455 S
C1313 H1283 0.950 . S
C1313 C1308 1.363 . S
C1313 C1312 1.415 1_655 S
H1314 C1311 0.999 . S
H1315 C1296 0.913 . S
H1316 C1334 0.951 . S
H1317 C1336 0.951 . S
H1318 C1338 0.950 . S
H1319 C1339 0.950 . S
H1320 C1341 0.950 . S
H1321 C1344 0.950 . S
H1322 C1345 0.950 . S
H1323 C1347 0.950 . S
H1324 C1348 0.950 . S
H1325 C1349 0.951 . S
H1326 C1351 0.951 . S
H1327 C1353 0.950 . S
H1328 C1354 0.950 . S
H1329 C1356 0.950 . S
H1330 C1359 0.950 . S
H1331 C1360 0.950 . S
H1332 C1362 0.950 . S
H1333 C1363 0.950 . S
C1334 H1316 0.951 . S
C1334 C1335 1.366 . S
C1334 C1336 1.388 . S
C1335 C1334 1.366 . S
C1335 C1339 1.385 . S
C1336 H1317 0.951 . S
C1336 C1334 1.388 . S
C1336 C1337 1.366 . S
C1337 C1336 1.366 . S
C1337 C1338 1.414 . S
C1337 C1340 1.499 . S
C1338 H1318 0.950 . S
C1338 C1337 1.414 . S
C1338 C1339 1.374 . S
C1339 H1319 0.950 . S
C1339 C1335 1.385 . S
C1339 C1338 1.374 . S
C1340 C1337 1.499 . S
C1340 C1341 1.373 . S
C1340 C1342 1.389 . S
C1341 H1320 0.950 . S
C1341 C1340 1.373 . S
C1341 C1357 1.377 . S
C1342 C1340 1.389 . S
C1342 C1343 1.524 . S
C1342 C1356 1.377 . S
C1343 C1342 1.524 . S
C1343 C1344 1.397 . S
C1343 C1348 1.363 . S
C1344 H1321 0.950 . S
C1344 C1343 1.397 . S
C1344 C1345 1.334 . S
C1345 H1322 0.950 . S
C1345 C1344 1.334 . S
C1345 C1346 1.287 . S
C1346 C1345 1.287 . S
C1346 C1347 1.524 . S
C1346 H1365 0.913 . S
C1347 H1323 0.950 . S
C1347 C1346 1.524 . S
C1347 C1348 1.415 . S
C1348 H1324 0.950 . S
C1348 C1343 1.363 . S
C1348 C1347 1.415 . S
C1349 H1325 0.951 . S
C1349 C1350 1.366 . S
C1349 C1351 1.388 . S
C1350 C1349 1.366 . S
C1350 C1354 1.385 . S
C1351 H1326 0.951 . S
C1351 C1349 1.388 . S
C1351 C1352 1.366 . S
C1352 C1351 1.366 . S
C1352 C1353 1.414 . S
C1352 C1355 1.499 . S
C1353 H1327 0.950 . S
C1353 C1352 1.414 . S
C1353 C1354 1.374 . S
C1354 H1328 0.950 . S
C1354 C1350 1.385 . S
C1354 C1353 1.374 . S
C1355 C1352 1.499 . S
C1355 C1356 1.373 . S
C1355 C1357 1.389 . S
C1356 H1329 0.950 . S
C1356 C1342 1.377 . S
C1356 C1355 1.373 . S
C1357 C1341 1.377 . S
C1357 C1355 1.389 . S
C1357 C1358 1.524 . S
C1358 C1357 1.524 . S
C1358 C1359 1.397 . S
C1358 C1363 1.363 . S
C1359 H1330 0.950 . S
C1359 C1358 1.397 . S
C1359 C1360 1.334 . S
C1360 H1331 0.950 . S
C1360 C1359 1.334 . S
C1360 C1361 1.287 . S
C1361 C1360 1.287 . S
C1361 C1362 1.524 . S
C1361 H1364 0.999 . S
C1362 H1332 0.950 . S
C1362 C1361 1.524 . S
C1362 C1363 1.415 . S
C1363 H1333 0.950 . S
C1363 C1358 1.363 . S
C1363 C1362 1.415 . S
H1364 C1361 0.999 . S
H1365 C1346 0.913 . S
H1366 C1384 0.951 . S
H1367 C1386 0.951 . S
H1368 C1388 0.950 . S
H1369 C1389 0.950 . S
H1370 C1391 0.950 . S
H1371 C1394 0.950 . S
H1372 C1395 0.950 . S
H1373 C1397 0.950 . S
H1374 C1398 0.950 . S
H1375 C1399 0.951 . S
H1376 C1401 0.951 . S
H1377 C1403 0.950 . S
H1378 C1404 0.950 . S
H1379 C1406 0.950 . S
H1380 C1409 0.950 . S
H1381 C1410 0.950 . S
H1382 C1412 0.950 . S
H1383 C1413 0.950 . S
C1384 H1366 0.951 . S
C1384 C1385 1.366 . S
C1384 C1386 1.388 . S
C1385 C1384 1.366 . S
C1385 C1389 1.385 . S
C1386 H1367 0.951 . S
C1386 C1384 1.388 . S
C1386 C1387 1.366 . S
C1387 C1386 1.366 . S
C1387 C1388 1.414 . S
C1387 C1390 1.499 . S
C1388 H1368 0.950 . S
C1388 C1387 1.414 . S
C1388 C1389 1.374 . S
C1389 H1369 0.950 . S
C1389 C1385 1.385 . S
C1389 C1388 1.374 . S
C1390 C1387 1.499 . S
C1390 C1391 1.373 . S
C1390 C1392 1.389 . S
C1391 H1370 0.950 . S
C1391 C1390 1.373 . S
C1391 C1407 1.377 . S
C1392 C1390 1.389 . S
C1392 C1393 1.524 . S
C1392 C1406 1.377 . S
C1393 C1392 1.524 . S
C1393 C1394 1.397 . S
C1393 C1398 1.363 . S
C1394 H1371 0.950 . S
C1394 C1393 1.397 . S
C1394 C1395 1.334 . S
C1395 H1372 0.950 . S
C1395 C1394 1.334 . S
C1395 C1396 1.287 . S
C1396 C1395 1.287 . S
C1396 C1397 1.524 . S
C1396 H1415 0.913 . S
C1397 H1373 0.950 . S
C1397 C1396 1.524 . S
C1397 C1398 1.415 . S
C1398 H1374 0.950 . S
C1398 C1393 1.363 . S
C1398 C1397 1.415 . S
C1399 H1375 0.951 . S
C1399 C1400 1.366 . S
C1399 C1401 1.388 . S
C1400 C1399 1.366 . S
C1400 C1404 1.385 . S
C1401 H1376 0.951 . S
C1401 C1399 1.388 . S
C1401 C1402 1.366 . S
C1402 C1401 1.366 . S
C1402 C1403 1.414 . S
C1402 C1405 1.499 . S
C1403 H1377 0.950 . S
C1403 C1402 1.414 . S
C1403 C1404 1.374 . S
C1404 H1378 0.950 . S
C1404 C1400 1.385 . S
C1404 C1403 1.374 . S
C1405 C1402 1.499 . S
C1405 C1406 1.373 . S
C1405 C1407 1.389 . S
C1406 H1379 0.950 . S
C1406 C1392 1.377 . S
C1406 C1405 1.373 . S
C1407 C1391 1.377 . S
C1407 C1405 1.389 . S
C1407 C1408 1.524 . S
C1408 C1407 1.524 . S
C1408 C1409 1.397 . S
C1408 C1413 1.363 . S
C1409 H1380 0.950 . S
C1409 C1408 1.397 . S
C1409 C1410 1.334 . S
C1410 H1381 0.950 . S
C1410 C1409 1.334 . S
C1410 C1411 1.287 . S
C1411 C1410 1.287 . S
C1411 C1412 1.524 . S
C1411 H1414 0.999 . S
C1412 H1382 0.950 . S
C1412 C1411 1.524 . S
C1412 C1413 1.415 . S
C1413 H1383 0.950 . S
C1413 C1408 1.363 . S
C1413 C1412 1.415 . S
H1414 C1411 0.999 . S
H1415 C1396 0.913 . S
H1416 C1434 0.951 . S
H1417 C1436 0.951 . S
H1418 C1438 0.950 . S
H1419 C1439 0.950 . S
H1420 C1441 0.950 . S
H1421 C1444 0.950 . S
H1422 C1445 0.950 . S
H1423 C1447 0.950 . S
H1424 C1448 0.950 . S
H1425 C1449 0.951 . S
H1426 C1451 0.951 . S
H1427 C1453 0.950 . S
H1428 C1454 0.950 . S
H1429 C1456 0.950 . S
H1430 C1459 0.950 . S
H1431 C1460 0.950 . S
H1432 C1462 0.950 . S
H1433 C1463 0.950 . S
C1434 H1416 0.951 . S
C1434 C1435 1.366 . S
C1434 C1436 1.388 . S
C1435 C1434 1.366 . S
C1435 C1439 1.385 . S
C1436 H1417 0.951 . S
C1436 C1434 1.388 . S
C1436 C1437 1.366 . S
C1437 C1436 1.366 . S
C1437 C1438 1.414 . S
C1437 C1440 1.499 . S
C1438 H1418 0.950 . S
C1438 C1437 1.414 . S
C1438 C1439 1.374 . S
C1439 H1419 0.950 . S
C1439 C1435 1.385 . S
C1439 C1438 1.374 . S
C1440 C1437 1.499 . S
C1440 C1441 1.373 . S
C1440 C1442 1.389 . S
C1441 H1420 0.950 . S
C1441 C1440 1.373 . S
C1441 C1457 1.377 . S
C1442 C1440 1.389 . S
C1442 C1443 1.524 . S
C1442 C1456 1.377 . S
C1443 C1442 1.524 . S
C1443 C1444 1.397 . S
C1443 C1448 1.363 . S
C1444 H1421 0.950 . S
C1444 C1443 1.397 . S
C1444 C1445 1.334 . S
C1445 H1422 0.950 . S
C1445 C1444 1.334 . S
C1445 C1446 1.287 . S
C1446 C1445 1.287 . S
C1446 C1447 1.524 . S
C1446 H1465 0.913 . S
C1447 H1423 0.950 . S
C1447 C1446 1.524 . S
C1447 C1448 1.415 . S
C1448 H1424 0.950 . S
C1448 C1443 1.363 . S
C1448 C1447 1.415 . S
C1449 H1425 0.951 . S
C1449 C1450 1.366 . S
C1449 C1451 1.388 . S
C1450 C1449 1.366 . S
C1450 C1454 1.385 . S
C1451 H1426 0.951 . S
C1451 C1449 1.388 . S
C1451 C1452 1.366 . S
C1452 C1451 1.366 . S
C1452 C1453 1.414 . S
C1452 C1455 1.499 . S
C1453 H1427 0.950 . S
C1453 C1452 1.414 . S
C1453 C1454 1.374 . S
C1454 H1428 0.950 . S
C1454 C1450 1.385 . S
C1454 C1453 1.374 . S
C1455 C1452 1.499 . S
C1455 C1456 1.373 . S
C1455 C1457 1.389 . S
C1456 H1429 0.950 . S
C1456 C1442 1.377 . S
C1456 C1455 1.373 . S
C1457 C1441 1.377 . S
C1457 C1455 1.389 . S
C1457 C1458 1.524 . S
C1458 C1457 1.524 . S
C1458 C1459 1.397 . S
C1458 C1463 1.363 . S
C1459 H1430 0.950 . S
C1459 C1458 1.397 . S
C1459 C1460 1.334 . S
C1460 H1431 0.950 . S
C1460 C1459 1.334 . S
C1460 C1461 1.287 . S
C1461 C1460 1.287 . S
C1461 C1462 1.524 . S
C1461 H1464 0.954 1_556 S
C1462 H1432 0.950 . S
C1462 C1461 1.524 . S
C1462 C1463 1.415 . S
C1463 H1433 0.950 . S
C1463 C1458 1.363 . S
C1463 C1462 1.415 . S
H1464 C1461 0.954 1_554 S
H1465 C1446 0.913 . S
H1466 C1484 0.951 . S
H1467 C1486 0.951 . S
H1468 C1488 0.950 . S
H1469 C1489 0.950 . S
H1470 C1491 0.950 . S
H1471 C1494 0.950 . S
H1472 C1495 0.950 . S
H1473 C1497 0.950 . S
H1474 C1498 0.950 . S
H1475 C1499 0.951 . S
H1476 C1501 0.951 . S
H1477 C1503 0.950 . S
H1478 C1504 0.950 . S
H1479 C1506 0.950 . S
H1480 C1509 0.950 . S
H1481 C1510 0.950 1_556 S
H1482 C1512 0.950 1_556 S
H1483 C1513 0.950 . S
C1484 H1466 0.951 . S
C1484 C1485 1.366 . S
C1484 C1486 1.388 . S
C1485 C1484 1.366 . S
C1485 C1489 1.385 . S
C1486 H1467 0.951 . S
C1486 C1484 1.388 . S
C1486 C1487 1.366 . S
C1487 C1486 1.366 . S
C1487 C1488 1.414 . S
C1487 C1490 1.499 . S
C1488 H1468 0.950 . S
C1488 C1487 1.414 . S
C1488 C1489 1.374 . S
C1489 H1469 0.950 . S
C1489 C1485 1.385 . S
C1489 C1488 1.374 . S
C1490 C1487 1.499 . S
C1490 C1491 1.373 . S
C1490 C1492 1.389 . S
C1491 H1470 0.950 . S
C1491 C1490 1.373 . S
C1491 C1507 1.377 . S
C1492 C1490 1.389 . S
C1492 C1493 1.524 . S
C1492 C1506 1.377 . S
C1493 C1492 1.524 . S
C1493 C1494 1.397 . S
C1493 C1498 1.363 . S
C1494 H1471 0.950 . S
C1494 C1493 1.397 . S
C1494 C1495 1.334 . S
C1495 H1472 0.950 . S
C1495 C1494 1.334 . S
C1495 C1496 1.287 . S
C1496 C1495 1.287 . S
C1496 C1497 1.524 . S
C1496 H1515 0.913 . S
C1497 H1473 0.950 . S
C1497 C1496 1.524 . S
C1497 C1498 1.415 . S
C1498 H1474 0.950 . S
C1498 C1493 1.363 . S
C1498 C1497 1.415 . S
C1499 H1475 0.951 . S
C1499 C1500 1.366 . S
C1499 C1501 1.388 . S
C1500 C1499 1.366 . S
C1500 C1504 1.385 . S
C1501 H1476 0.951 . S
C1501 C1499 1.388 . S
C1501 C1502 1.366 . S
C1502 C1501 1.366 . S
C1502 C1503 1.414 . S
C1502 C1505 1.499 . S
C1503 H1477 0.950 . S
C1503 C1502 1.414 . S
C1503 C1504 1.374 . S
C1504 H1478 0.950 . S
C1504 C1500 1.385 . S
C1504 C1503 1.374 . S
C1505 C1502 1.499 . S
C1505 C1506 1.373 . S
C1505 C1507 1.389 . S
C1506 H1479 0.950 . S
C1506 C1492 1.377 . S
C1506 C1505 1.373 . S
C1507 C1491 1.377 . S
C1507 C1505 1.389 . S
C1507 C1508 1.524 . S
C1508 C1507 1.524 . S
C1508 C1509 1.397 . S
C1508 C1513 1.363 . S
C1509 H1480 0.950 . S
C1509 C1508 1.397 . S
C1509 C1510 1.334 . S
C1510 H1481 0.950 1_554 S
C1510 C1509 1.334 . S
C1510 C1511 1.287 1_554 S
C1511 C1510 1.287 1_556 S
C1511 C1512 1.524 1_556 S
C1511 H1514 0.999 . S
C1512 H1482 0.950 1_554 S
C1512 C1511 1.524 1_554 S
C1512 C1513 1.415 . S
C1513 H1483 0.950 . S
C1513 C1508 1.363 . S
C1513 C1512 1.415 . S
H1514 C1511 0.999 . S
H1515 C1496 0.913 . S
H1516 C1534 0.951 . S
H1517 C1536 0.951 . S
H1518 C1538 0.950 . S
H1519 C1539 0.950 . S
H1520 C1541 0.950 . S
H1521 C1544 0.950 . S
H1522 C1545 0.950 . S
H1523 C1547 0.950 1_655 S
H1524 C1548 0.950 . S
H1525 C1549 0.951 . S
H1526 C1551 0.951 . S
H1527 C1553 0.950 . S
H1528 C1554 0.928 1_655 S
H1529 C1556 0.950 . S
H1530 C1559 0.950 . S
H1531 C1560 0.950 . S
H1532 C1562 0.950 . S
H1533 C1563 0.950 . S
C1534 H1516 0.951 . S
C1534 C1535 1.366 . S
C1534 C1536 1.388 . S
C1535 C1534 1.366 . S
C1535 C1539 1.385 . S
C1536 H1517 0.951 . S
C1536 C1534 1.388 . S
C1536 C1537 1.366 . S
C1537 C1536 1.366 . S
C1537 C1538 1.414 . S
C1537 C1540 1.499 . S
C1538 H1518 0.950 . S
C1538 C1537 1.414 . S
C1538 C1539 1.374 . S
C1539 H1519 0.950 . S
C1539 C1535 1.385 . S
C1539 C1538 1.374 . S
C1540 C1537 1.499 . S
C1540 C1541 1.373 . S
C1540 C1542 1.389 . S
C1541 H1520 0.950 . S
C1541 C1540 1.373 . S
C1541 C1557 1.377 . S
C1542 C1540 1.389 . S
C1542 C1543 1.524 . S
C1542 C1556 1.377 . S
C1543 C1542 1.524 . S
C1543 C1544 1.397 . S
C1543 C1548 1.363 . S
C1544 H1521 0.950 . S
C1544 C1543 1.397 . S
C1544 C1545 1.334 . S
C1545 H1522 0.950 . S
C1545 C1544 1.334 . S
C1545 C1546 1.287 . S
C1546 C1545 1.287 . S
C1546 C1547 1.524 . S
C1546 H1565 0.913 . S
C1547 H1523 0.950 1_455 S
C1547 C1546 1.524 . S
C1547 C1548 1.415 . S
C1548 H1524 0.950 . S
C1548 C1543 1.363 . S
C1548 C1547 1.415 . S
C1549 H1525 0.951 . S
C1549 C1550 1.366 . S
C1549 C1551 1.388 . S
C1550 C1549 1.366 . S
C1550 C1554 1.385 . S
C1551 H1526 0.951 . S
C1551 C1549 1.388 . S
C1551 C1552 1.366 . S
C1552 C1551 1.366 . S
C1552 C1553 1.414 . S
C1552 C1555 1.499 . S
C1553 H1527 0.950 . S
C1553 C1552 1.414 . S
C1553 C1554 1.374 . S
C1554 H1528 0.928 1_455 S
C1554 C1550 1.385 . S
C1554 C1553 1.374 . S
C1555 C1552 1.499 . S
C1555 C1556 1.373 . S
C1555 C1557 1.389 . S
C1556 H1529 0.950 . S
C1556 C1542 1.377 . S
C1556 C1555 1.373 . S
C1557 C1541 1.377 . S
C1557 C1555 1.389 . S
C1557 C1558 1.524 . S
C1558 C1557 1.524 . S
C1558 C1559 1.397 . S
C1558 C1563 1.363 . S
C1559 H1530 0.950 . S
C1559 C1558 1.397 . S
C1559 C1560 1.334 . S
C1560 H1531 0.950 . S
C1560 C1559 1.334 . S
C1560 C1561 1.287 . S
C1561 C1560 1.287 . S
C1561 C1562 1.524 . S
C1561 H1564 0.999 . S
C1562 H1532 0.950 . S
C1562 C1561 1.524 . S
C1562 C1563 1.415 . S
C1563 H1533 0.950 . S
C1563 C1558 1.363 . S
C1563 C1562 1.415 . S
H1564 C1561 0.999 . S
H1565 C1546 0.913 . S
H1566 C1584 0.951 . S
H1567 C1586 0.951 . S
H1568 C1588 0.950 . S
H1569 C1589 0.950 . S
H1570 C1591 0.950 . S
H1571 C1594 0.950 . S
H1572 C1595 0.950 . S
H1573 C1597 0.950 . S
H1574 C1598 0.950 . S
H1575 C1599 0.951 . S
H1576 C1601 0.951 . S
H1577 C1603 0.950 . S
H1578 C1604 0.950 . S
H1579 C1606 0.950 . S
H1580 C1609 0.950 . S
H1581 C1610 0.950 . S
H1582 C1612 0.950 . S
H1583 C1613 0.950 . S
C1584 H1566 0.951 . S
C1584 C1585 1.366 . S
C1584 C1586 1.388 . S
C1585 C1584 1.366 . S
C1585 C1589 1.385 . S
C1586 H1567 0.951 . S
C1586 C1584 1.388 . S
C1586 C1587 1.366 . S
C1587 C1586 1.366 . S
C1587 C1588 1.414 . S
C1587 C1590 1.499 . S
C1588 H1568 0.950 . S
C1588 C1587 1.414 . S
C1588 C1589 1.374 . S
C1589 H1569 0.950 . S
C1589 C1585 1.385 . S
C1589 C1588 1.374 . S
C1590 C1587 1.499 . S
C1590 C1591 1.373 . S
C1590 C1592 1.389 . S
C1591 H1570 0.950 . S
C1591 C1590 1.373 . S
C1591 C1607 1.377 . S
C1592 C1590 1.389 . S
C1592 C1593 1.524 . S
C1592 C1606 1.377 . S
C1593 C1592 1.524 . S
C1593 C1594 1.397 . S
C1593 C1598 1.363 . S
C1594 H1571 0.950 . S
C1594 C1593 1.397 . S
C1594 C1595 1.334 . S
C1595 H1572 0.950 . S
C1595 C1594 1.334 . S
C1595 C1596 1.287 . S
C1596 C1595 1.287 . S
C1596 C1597 1.524 . S
C1596 H1615 0.913 . S
C1597 H1573 0.950 . S
C1597 C1596 1.524 . S
C1597 C1598 1.415 . S
C1598 H1574 0.950 . S
C1598 C1593 1.363 . S
C1598 C1597 1.415 . S
C1599 H1575 0.951 . S
C1599 C1600 1.366 . S
C1599 C1601 1.388 . S
C1600 C1599 1.366 . S
C1600 C1604 1.385 . S
C1601 H1576 0.951 . S
C1601 C1599 1.388 . S
C1601 C1602 1.366 . S
C1602 C1601 1.366 . S
C1602 C1603 1.414 . S
C1602 C1605 1.499 . S
C1603 H1577 0.950 . S
C1603 C1602 1.414 . S
C1603 C1604 1.374 . S
C1604 H1578 0.950 . S
C1604 C1600 1.385 . S
C1604 C1603 1.374 . S
C1605 C1602 1.499 . S
C1605 C1606 1.373 . S
C1605 C1607 1.389 . S
C1606 H1579 0.950 . S
C1606 C1592 1.377 . S
C1606 C1605 1.373 . S
C1607 C1591 1.377 . S
C1607 C1605 1.389 . S
C1607 C1608 1.524 . S
C1608 C1607 1.524 . S
C1608 C1609 1.397 . S
C1608 C1613 1.363 . S
C1609 H1580 0.950 . S
C1609 C1608 1.397 . S
C1609 C1610 1.334 . S
C1610 H1581 0.950 . S
C1610 C1609 1.334 . S
C1610 C1611 1.287 . S
C1611 C1610 1.287 . S
C1611 C1612 1.524 . S
C1611 H1614 0.999 . S
C1612 H1582 0.950 . S
C1612 C1611 1.524 . S
C1612 C1613 1.415 . S
C1613 H1583 0.950 . S
C1613 C1608 1.363 . S
C1613 C1612 1.415 . S
H1614 C1611 0.999 . S
H1615 C1596 0.913 . S
C435 C29 1.163 . S
C450 C273 1.160 . S
C485 C49 1.017 . S
C500 C313 1.085 . S
C550 C338 2.383 . S
C535 C93 2.386 . S
C585 C119 2.293 . S
C600 C378 2.283 . S
C650 C309 1.673 . S
C635 C17 1.672 . S
C700 C269 1.749 . S
C685 C61 1.602 . S
C750 C400 1.599 . S
C735 C81 1.579 . S
C800 C360 1.640 . S
C785 C125 1.626 . S
C835 C23 1.214 . S
C850 C402 1.204 . S
C900 C319 2.083 . S
C885 C87 2.067 . S
C935 C113 2.140 . S
C950 C279 2.140 . S
C985 C55 1.150 . S
C1000 C362 1.238 . S
C1050 C282 1.135 . S
C1035 C157 1.049 . S
C1085 C189 1.160 . S
C1100 C322 1.149 . S
C1135 C221 2.367 . S
C1150 C359 2.340 . S
C1185 C253 2.357 . S
C1200 C399 2.361 . S
C1235 C145 1.643 . S
C1250 C320 1.772 . S
C1300 C280 1.694 . S
C1285 C183 1.693 . S
C1350 C389 1.643 . S
C1335 C209 1.628 . S
C1400 C349 1.594 . S
C1385 C247 1.578 . S
C1435 C151 1.147 . S
C1450 C393 1.221 . S
C1500 C298 2.072 . S
C1485 C215 2.077 . S
C1550 C258 2.102 . S
C1535 C241 2.084 . S
C1585 C177 1.258 . S
C1600 C353 1.246 . S
