# Generated by pormake.
# Topology pyr, (3,6)-cn, num edge types: 1
# Building blocks:
#     Node 0, Type 0, BuildingBlock: BETDAH_clean_linker_0, # of connection points: 3
#     Node 1, Type 0, BuildingBlock: BETDAH_clean_linker_0, # of connection points: 3
#     Node 2, Type 0, BuildingBlock: BETDAH_clean_linker_0, # of connection points: 3
#     Node 3, Type 0, BuildingBlock: BETDAH_clean_linker_0, # of connection points: 3
#     Node 4, Type 0, BuildingBlock: BETDAH_clean_linker_0, # of connection points: 3
#     Node 5, Type 0, BuildingBlock: BETDAH_clean_linker_0, # of connection points: 3
#     Node 6, Type 0, BuildingBlock: BETDAH_clean_linker_0, # of connection points: 3
#     Node 7, Type 0, BuildingBlock: BETDAH_clean_linker_0, # of connection points: 3
#     Node 8, Type 1, BuildingBlock: PAMTUU_clean_sbu_0, # of connection points: 6
#     Node 9, Type 1, BuildingBlock: PAMTUU_clean_sbu_0, # of connection points: 6
#     Node 10, Type 1, BuildingBlock: PAMTUU_clean_sbu_0, # of connection points: 6
#     Node 11, Type 1, BuildingBlock: PAMTUU_clean_sbu_0, # of connection points: 6
#     Edge 12, Type (0, 1), BuildingBlock: TEMPAE_clean_linker_10, # of connection points: 2
#     Edge 13, Type (0, 1), BuildingBlock: TEMPAE_clean_linker_10, # of connection points: 2
#     Edge 14, Type (0, 1), BuildingBlock: TEMPAE_clean_linker_10, # of connection points: 2
#     Edge 15, Type (0, 1), BuildingBlock: TEMPAE_clean_linker_10, # of connection points: 2
#     Edge 16, Type (0, 1), BuildingBlock: TEMPAE_clean_linker_10, # of connection points: 2
#     Edge 17, Type (0, 1), BuildingBlock: TEMPAE_clean_linker_10, # of connection points: 2
#     Edge 18, Type (0, 1), BuildingBlock: TEMPAE_clean_linker_10, # of connection points: 2
#     Edge 19, Type (0, 1), BuildingBlock: TEMPAE_clean_linker_10, # of connection points: 2
#     Edge 20, Type (0, 1), BuildingBlock: TEMPAE_clean_linker_10, # of connection points: 2
#     Edge 21, Type (0, 1), BuildingBlock: TEMPAE_clean_linker_10, # of connection points: 2
#     Edge 22, Type (0, 1), BuildingBlock: TEMPAE_clean_linker_10, # of connection points: 2
#     Edge 23, Type (0, 1), BuildingBlock: TEMPAE_clean_linker_10, # of connection points: 2
#     Edge 24, Type (0, 1), BuildingBlock: TEMPAE_clean_linker_10, # of connection points: 2
#     Edge 25, Type (0, 1), BuildingBlock: TEMPAE_clean_linker_10, # of connection points: 2
#     Edge 26, Type (0, 1), BuildingBlock: TEMPAE_clean_linker_10, # of connection points: 2
#     Edge 27, Type (0, 1), BuildingBlock: TEMPAE_clean_linker_10, # of connection points: 2
#     Edge 28, Type (0, 1), BuildingBlock: TEMPAE_clean_linker_10, # of connection points: 2
#     Edge 29, Type (0, 1), BuildingBlock: TEMPAE_clean_linker_10, # of connection points: 2
#     Edge 30, Type (0, 1), BuildingBlock: TEMPAE_clean_linker_10, # of connection points: 2
#     Edge 31, Type (0, 1), BuildingBlock: TEMPAE_clean_linker_10, # of connection points: 2
#     Edge 32, Type (0, 1), BuildingBlock: TEMPAE_clean_linker_10, # of connection points: 2
#     Edge 33, Type (0, 1), BuildingBlock: TEMPAE_clean_linker_10, # of connection points: 2
#     Edge 34, Type (0, 1), BuildingBlock: TEMPAE_clean_linker_10, # of connection points: 2
#     Edge 35, Type (0, 1), BuildingBlock: TEMPAE_clean_linker_10, # of connection points: 2
# Relax obj value: 0.133
# Max RMSD: 0.173
# Mean RMSD: 0.134
data_MOF--net-pyr--node1-PAMTUU_clean_sbu_0--node2-BETDAH_clean_linker_0--edge1-TEMPAE_clean_linker_10
_symmetry_space_group_name_H-M    P1
_symmetry_Int_Tables_number       1
_symmetry_cell_setting            triclinic
loop_
_symmetry_equiv_pos_as_xyz
'x, y, z'
_cell_length_a     37.824323
_cell_length_b     39.957453
_cell_length_c     39.634839
_cell_angle_alpha  90.336684
_cell_angle_beta   89.787649
_cell_angle_gamma 106.62808
loop_
_atom_site_label
_atom_site_type_symbol
_atom_site_fract_x
_atom_site_fract_y
_atom_site_fract_z
_atom_type_partial_charge
H0 H 0.36114 0.23536 0.24634 0.0
H1 H 0.41495 0.31974 0.18016 0.0
H2 H 0.3245 0.32758 0.24253 0.0
C3 C 0.36386 0.26115 0.23633 0.0
C4 C 0.34 0.28003 0.24781 0.0
C5 C 0.39082 0.27497 0.21172 0.0
C6 C 0.3942 0.3085 0.19902 0.0
C7 C 0.37013 0.32734 0.20961 0.0
C8 C 0.34314 0.31309 0.23416 0.0
N9 N 0.37307 0.36015 0.19456 0.0
C10 C 0.34315 0.37358 0.19215 0.0
H11 H 0.27274 0.80372 0.76005 0.0
H12 H 0.17081 0.82974 0.74869 0.0
H13 H 0.20132 0.76195 0.67645 0.0
C14 C 0.24719 0.80094 0.74649 0.0
C15 C 0.24026 0.781 0.71679 0.0
C16 C 0.22222 0.81835 0.7583 0.0
C17 C 0.18996 0.81595 0.7399 0.0
C18 C 0.18215 0.79511 0.71057 0.0
C19 C 0.207 0.77719 0.69955 0.0
N20 N 0.15003 0.79241 0.69121 0.0
C21 C 0.1348 0.81997 0.68789 0.0
H22 H 0.71395 0.37625 0.94558 0.0
H23 H 0.71592 0.44635 0.86245 0.0
H24 H 0.63417 0.34603 0.86611 0.0
C25 C 0.70204 0.38235 0.92241 0.0
C26 C 0.67167 0.35715 0.90833 0.0
C27 C 0.71851 0.41461 0.90636 0.0
C28 C 0.70354 0.42192 0.87525 0.0
C29 C 0.6727 0.3971 0.86075 0.0
C30 C 0.6576 0.36498 0.8774 0.0
N31 N 0.65665 0.40143 0.82883 0.0
C32 C 0.65871 0.43134 0.80947 0.0
H33 H 0.84682 0.75235 0.44957 0.0
H34 H 0.92906 0.78448 0.37209 0.0
H35 H 0.84847 0.68368 0.36534 0.0
C36 C 0.85958 0.74679 0.42649 0.0
C37 C 0.84408 0.71471 0.40959 0.0
C38 C 0.89016 0.77241 0.41339 0.0
C39 C 0.90537 0.76522 0.3826 0.0
C40 C 0.8911 0.73329 0.36519 0.0
C41 C 0.8601 0.70805 0.3787 0.0
N42 N 0.90846 0.72912 0.33382 0.0
C43 C 0.9054 0.69923 0.31387 0.0
H44 H 0.76117 0.79488 0.86059 0.0
H45 H 0.68201 0.75294 0.93874 0.0
H46 H 0.66065 0.82448 0.86634 0.0
C47 C 0.73448 0.79217 0.87216 0.0
C48 C 0.71165 0.81123 0.85928 0.0
C49 C 0.72429 0.77119 0.90085 0.0
C50 C 0.69041 0.76908 0.9166 0.0
C51 C 0.66772 0.78866 0.90464 0.0
C52 C 0.67841 0.80976 0.87595 0.0
N53 N 0.63451 0.78696 0.92215 0.0
C54 C 0.6203 0.81531 0.92477 0.0
H55 H 0.88964 0.24768 0.35621 0.0
H56 H 0.92576 0.31585 0.44156 0.0
H57 H 0.85079 0.33799 0.36985 0.0
C58 C 0.88996 0.27116 0.37019 0.0
C59 C 0.86825 0.29217 0.35909 0.0
C60 C 0.91062 0.27915 0.40004 0.0
C61 C 0.91067 0.30956 0.41808 0.0
C62 C 0.88882 0.33051 0.40761 0.0
C63 C 0.86765 0.32177 0.37807 0.0
N64 N 0.88715 0.3592 0.42815 0.0
C65 C 0.85548 0.37007 0.43042 0.0
H66 H 0.33556 0.75838 0.18089 0.0
H67 H 0.34178 0.66955 0.23924 0.0
H68 H 0.43296 0.7631 0.23873 0.0
C69 C 0.34997 0.74677 0.19893 0.0
C70 C 0.38579 0.76572 0.20918 0.0
C71 C 0.33358 0.71207 0.20939 0.0
C72 C 0.35332 0.69656 0.2319 0.0
C73 C 0.38882 0.71527 0.24363 0.0
C74 C 0.40493 0.74947 0.23144 0.0
N75 N 0.41201 0.69739 0.25979 0.0
C76 C 0.41186 0.68745 0.29386 0.0
H77 H 0.22607 0.36824 0.68448 0.0
H78 H 0.22322 0.46167 0.73761 0.0
H79 H 0.13199 0.36875 0.74592 0.0
C80 C 0.21273 0.38137 0.70234 0.0
C81 C 0.17748 0.36354 0.71488 0.0
C82 C 0.2297 0.41674 0.71021 0.0
C83 C 0.21121 0.43414 0.73222 0.0
C84 C 0.17653 0.41669 0.74634 0.0
C85 C 0.15963 0.38157 0.73696 0.0
N86 N 0.15512 0.43672 0.76209 0.0
C87 C 0.15065 0.44148 0.79685 0.0
Tb88 Tb 0.06699 0.0713 0.54688 0.0
Tb89 Tb 0.99348 0.06069 0.59396 0.0
C90 C 0.99816 1.00468 0.53813 0.0
C91 C 0.14485 0.10521 0.48645 0.0
C92 C 0.18471 0.15261 0.43808 0.0
C93 C 0.19427 0.12189 0.44541 0.0
C94 C 0.17453 0.09846 0.46941 0.0
C95 C 0.13505 0.13577 0.47944 0.0
C96 C 0.15488 0.15935 0.45539 0.0
C97 C 0.1237 0.07938 0.51045 0.0
O98 O 0.02914 0.09119 0.51734 0.0
O99 O 0.99501 0.10395 0.56081 0.0
O100 O 0.03818 0.10161 0.61758 0.0
O101 O 0.0734 0.12204 0.57105 0.0
O102 O 0.93632 0.05312 0.59873 0.0
O103 O 0.9718 0.06188 0.64251 0.0
O104 O 0.01756 0.0203 0.60985 0.0
O105 O 0.07707 0.04745 0.59377 0.0
O106 O 0.03432 0.01724 0.5386 0.0
O107 O 0.977 0.02118 0.55359 0.0
C108 C 1.00639 0.10771 0.5294 0.0
O109 O 0.12465 0.08931 0.5419 0.0
O110 O 0.09047 0.06231 0.50097 0.0
C111 C 0.06327 0.12659 0.60211 0.0
C112 C 0.91039 0.02835 0.651 0.0
C113 C 0.85884 0.97945 0.69068 0.0
C114 C 0.8793 1.01152 0.70454 0.0
C115 C 0.9047 0.03574 0.68486 0.0
C116 C 0.88975 0.99644 0.63682 0.0
C117 C 0.86396 0.97221 0.65654 0.0
C118 C 0.938 0.05467 0.6316 0.0
C119 C 0.05297 0.02324 0.61093 0.0
H120 H 0.21658 0.11555 0.43208 0.0
H121 H 0.18216 0.0748 0.47436 0.0
H122 H 0.11199 0.1412 0.49237 0.0
H123 H 0.14699 0.18286 0.45045 0.0
H124 H 0.87558 0.01791 0.73068 0.0
H125 H 0.92016 0.0603 0.69619 0.0
H126 H 0.89372 0.99014 0.61072 0.0
H127 H 0.84865 0.94753 0.64537 0.0
Tb128 Tb 0.56624 0.06878 0.08422 0.0
Tb129 Tb 0.4918 0.05628 0.03854 0.0
C130 C 0.55335 0.01992 1.01982 0.0
C131 C 0.64454 0.10698 0.14407 0.0
C132 C 0.69178 0.15724 0.18639 0.0
C133 C 0.69836 0.15733 0.15145 0.0
C134 C 0.67501 0.13232 0.13045 0.0
C135 C 0.6376 0.10754 0.17888 0.0
C136 C 0.66078 0.13246 0.19973 0.0
C137 C 0.62107 0.07857 0.12308 0.0
O138 O 0.58215 0.10698 0.04321 0.0
O139 O 0.52456 0.11027 0.02904 0.0
O140 O 0.4822 0.07794 0.08707 0.0
O141 O 0.54129 0.10887 0.09957 0.0
O142 O 0.46662 0.06333 0.99316 0.0
O143 O 0.43388 0.04095 0.03659 0.0
O144 O 0.48616 1.00545 0.06169 0.0
O145 O 0.52281 0.02611 0.10741 0.0
O146 O 0.56777 0.02683 0.05006 0.0
O147 O 0.52745 0.03316 1.00877 0.0
C148 C 0.56073 0.12304 0.02798 0.0
O149 O 0.58684 0.06648 0.1327 0.0
O150 O 0.6239 0.08131 0.09032 0.0
C151 C 0.50574 0.10375 0.10284 0.0
C152 C 0.40833 0.02362 0.98304 0.0
C153 C 0.36011 0.97691 0.93887 0.0
C154 C 0.3503 1.00544 0.95279 0.0
C155 C 0.37428 0.02861 0.97467 0.0
C156 C 0.41809 0.99487 0.96981 0.0
C157 C 0.39414 0.97168 0.94781 0.0
C158 C 0.43348 0.04927 1.0049 0.0
C159 C 0.49753 1.0009 0.09219 0.0
H160 H 0.72225 0.17594 0.14052 0.0
H161 H 0.68128 0.13241 0.10376 0.0
H162 H 0.61452 0.08825 0.19021 0.0
H163 H 0.65469 0.13203 0.22649 0.0
H164 H 0.32451 1.01037 0.9461 0.0
H165 H 0.36644 0.05076 0.9847 0.0
H166 H 0.44429 0.99061 0.97621 0.0
H167 H 0.40223 0.94969 0.93777 0.0
Tb168 Tb 0.53135 0.52666 0.53395 0.0
Tb169 Tb 0.53914 0.59894 0.57442 0.0
C170 C 0.50028 0.58605 0.50323 0.0
C171 C 0.56017 0.45508 0.49623 0.0
C172 C 0.62065 0.42986 0.48062 0.0
C173 C 0.58834 0.41985 0.46101 0.0
C174 C 0.55831 0.4324 0.46879 0.0
C175 C 0.5921 0.46468 0.51618 0.0
C176 C 0.62202 0.4521 0.50851 0.0
C177 C 0.53059 0.47153 0.50209 0.0
O178 O 0.58973 0.5559 0.5297 0.0
O179 O 0.58472 0.61101 0.53827 0.0
O180 O 0.57611 0.57477 0.60156 0.0
O181 O 0.54923 0.51823 0.5851 0.0
O182 O 0.54702 0.65314 0.57374 0.0
O183 O 0.53906 0.62501 0.62061 0.0
O184 O 0.49186 0.56055 0.59662 0.0
O185 O 0.47551 0.5211 0.55325 0.0
O186 O 0.51662 0.56158 0.49747 0.0
O187 O 0.49918 0.59829 0.53402 0.0
C188 C 0.60302 0.58996 0.52658 0.0
O189 O 0.51938 0.4719 0.53316 0.0
O190 O 0.53603 0.50189 0.48799 0.0
C191 C 0.57037 0.54095 0.6061 0.0
C192 C 0.50963 0.66868 0.61488 0.0
C193 C 0.44915 0.69183 0.63509 0.0
C194 C 0.48242 0.70184 0.65333 0.0
C195 C 0.51247 0.69034 0.64324 0.0
C196 C 0.47653 0.65879 0.59655 0.0
C197 C 0.44663 0.67042 0.60646 0.0
C198 C 0.54 0.65424 0.60586 0.0
C199 C 0.46792 0.53388 0.58222 0.0
H200 H 0.58643 0.40256 0.43952 0.0
H201 H 0.534 0.42505 0.45294 0.0
H202 H 0.59427 0.48267 0.53716 0.0
H203 H 0.6467 0.46072 0.52377 0.0
H204 H 0.48518 0.71856 0.67535 0.0
H205 H 0.5377 0.69793 0.65784 0.0
H206 H 0.47357 0.64159 0.57488 0.0
H207 H 0.42121 0.66194 0.59219 0.0
Tb208 Tb 0.02909 0.59895 0.03874 0.0
Tb209 Tb 0.02049 0.52694 0.07891 0.0
C210 C 0.05968 0.53922 1.00778 0.0
C211 C 0.99946 0.66942 1.00156 0.0
C212 C 0.93752 0.69184 0.98507 0.0
C213 C 0.97029 0.70301 0.96604 0.0
C214 C 1.001 0.69181 0.97421 0.0
C215 C 0.96718 0.65887 1.02109 0.0
C216 C 0.93654 0.67006 1.013 0.0
C217 C 0.02973 0.65402 1.00756 0.0
O218 O 0.97073 0.56965 0.03381 0.0
O219 O 0.97514 0.51442 0.04245 0.0
O220 O 0.98314 0.55144 0.10543 0.0
O221 O 1.01179 0.60772 0.09008 0.0
O222 O 0.01554 0.47318 0.07848 0.0
O223 O 0.01751 0.50113 0.12529 0.0
O224 O 0.068 0.56547 0.10116 0.0
O225 O 0.08493 0.60424 0.05767 0.0
O226 O 0.04367 0.56382 1.00211 0.0
O227 O 0.06052 0.52708 0.03849 0.0
C228 C 0.95729 0.53558 0.03038 0.0
O229 O 0.04018 0.65364 0.03879 0.0
O230 O 0.02563 0.62394 0.99294 0.0
C231 C 0.9897 0.58529 0.1105 0.0
C232 C 0.05136 0.46078 0.12206 0.0
C233 C 0.11291 0.44099 0.14466 0.0
C234 C 0.07692 0.42145 0.15378 0.0
C235 C 0.04632 0.43137 0.1426 0.0
C236 C 0.08714 0.48014 0.11276 0.0
C237 C 0.1176 0.47033 0.12388 0.0
C238 C 0.01989 0.47244 0.11102 0.0
C239 C 0.09237 0.59167 0.08662 0.0
H240 H 0.97178 0.71943 0.94413 0.0
H241 H 0.02552 0.69976 0.95859 0.0
H242 H 0.96536 0.64126 0.04214 0.0
H243 H 0.91193 0.66135 0.0284 0.0
H244 H 0.0725 0.39885 0.16993 0.0
H245 H 0.01884 0.4163 0.15015 0.0
H246 H 0.09152 0.50299 0.09692 0.0
H247 H 0.14485 0.48556 0.11591 0.0
C248 C 0.30669 0.28551 0.3015 0.0
C249 C 0.31206 0.265 0.27419 0.0
C250 C 0.28318 0.27061 0.32832 0.0
C251 C 0.26494 0.23435 0.32785 0.0
C252 C 0.26885 0.2139 0.29957 0.0
C253 C 0.29221 0.22951 0.27302 0.0
C254 C 0.27929 0.29333 0.35785 0.0
C255 C 0.24978 0.17514 0.29806 0.0
C256 C 0.24392 0.18393 0.40957 0.0
C257 C 0.20548 0.17682 0.41183 0.0
C258 C 0.2637 0.20365 0.38294 0.0
C259 C 0.24464 0.21696 0.3581 0.0
C260 C 0.20608 0.21139 0.36108 0.0
C261 C 0.18689 0.19124 0.38789 0.0
C262 C 0.30484 0.20903 0.38068 0.0
C263 C 0.1849 0.2255 0.33525 0.0
H264 H 0.32201 0.31294 0.30261 0.0
H265 H 0.29555 0.21371 0.25159 0.0
H266 H 0.2498 0.2886 0.36468 0.0
H267 H 0.29348 0.28659 0.38015 0.0
H268 H 0.29139 0.32156 0.35246 0.0
H269 H 0.25365 0.16348 0.27329 0.0
H270 H 0.26089 0.16169 0.31808 0.0
H271 H 0.21979 0.16998 0.30281 0.0
H272 H 0.25855 0.17349 0.42839 0.0
H273 H 0.15715 0.18569 0.38935 0.0
H274 H 0.31955 0.23725 0.3785 0.0
H275 H 0.31131 0.19593 0.35767 0.0
H276 H 0.31574 0.19845 0.40293 0.0
H277 H 0.19863 0.25358 0.33059 0.0
H278 H 0.15596 0.22239 0.34326 0.0
H279 H 0.18448 0.21149 0.31095 0.0
C280 C 0.23376 0.87601 0.7875 0.0
C281 C 0.23181 0.84052 0.78881 0.0
C282 C 0.25025 0.89877 0.81381 0.0
C283 C 0.26481 0.88548 0.84196 0.0
C284 C 0.26019 0.84918 0.8445 0.0
C285 C 0.24383 0.82713 0.8178 0.0
C286 C 0.25455 0.93732 0.81026 0.0
C287 C 0.27489 0.83391 0.87426 0.0
C288 C 0.35014 0.94334 0.88466 0.0
C289 C 0.33543 0.95343 0.91423 0.0
C290 C 0.32728 0.92168 0.86076 0.0
C291 C 0.28875 0.90973 0.8666 0.0
C292 C 0.27364 0.91995 0.89629 0.0
C293 C 0.2972 0.94174 0.91978 0.0
C294 C 0.34443 0.91145 0.8293 0.0
C295 C 0.23274 0.90752 0.90341 0.0
H296 H 0.22458 0.88635 0.76499 0.0
H297 H 0.24194 0.79956 0.81887 0.0
H298 H 0.24698 0.94824 0.83411 0.0
H299 H 0.28386 0.95124 0.80485 0.0
H300 H 0.23733 0.94275 0.78951 0.0
H301 H 0.26499 0.80491 0.87442 0.0
H302 H 0.3055 0.84197 0.87334 0.0
H303 H 0.26663 0.84392 0.8983 0.0
H304 H 0.37957 0.95281 0.87998 0.0
H305 H 0.28576 0.94928 0.94275 0.0
H306 H 0.33179 0.91924 0.80654 0.0
H307 H 0.33898 0.88266 0.82826 0.0
H308 H 0.37474 0.92368 0.82821 0.0
H309 H 0.21718 0.91448 0.88219 0.0
H310 H 0.22522 0.91893 0.92706 0.0
H311 H 0.22372 0.87864 0.90555 0.0
C312 C 0.61765 0.46282 0.78332 0.0
C313 C 0.65109 0.45415 0.78303 0.0
C314 C 0.60628 0.47914 0.75538 0.0
C315 C 0.62872 0.48705 0.72598 0.0
C316 C 0.66316 0.47929 0.72609 0.0
C317 C 0.67376 0.46281 0.75439 0.0
C318 C 0.56938 0.48658 0.75683 0.0
C319 C 0.68826 0.48716 0.69572 0.0
C320 C 0.5804 0.4915 0.64127 0.0
C321 C 0.58686 0.52762 0.63616 0.0
C322 C 0.59407 0.47821 0.66989 0.0
C323 C 0.61508 0.50131 0.69459 0.0
C324 C 0.62216 0.53783 0.68943 0.0
C325 C 0.60805 0.55046 0.66052 0.0
C326 C 0.58554 0.43916 0.67388 0.0
C327 C 0.64441 0.56366 0.71471 0.0
H328 H 0.59957 0.45561 0.80501 0.0
H329 H 0.6993 0.45562 0.7536 0.0
H330 H 0.57258 0.51428 0.75043 0.0
H331 H 0.55055 0.47023 0.73787 0.0
H332 H 0.55625 0.48114 0.7821 0.0
H333 H 0.7153 0.48237 0.7006 0.0
H334 H 0.67488 0.47054 0.67417 0.0
H335 H 0.69313 0.51477 0.68803 0.0
H336 H 0.56419 0.47332 0.62293 0.0
H337 H 0.61339 0.57837 0.65723 0.0
H338 H 0.5695 0.43085 0.6974 0.0
H339 H 0.61154 0.43174 0.6762 0.0
H340 H 0.56952 0.42457 0.65231 0.0
H341 H 0.63018 0.55981 0.73952 0.0
H342 H 0.64863 0.59115 0.70676 0.0
H343 H 0.67176 0.55918 0.71835 0.0
C344 C 0.889 0.66728 0.25907 0.0
C345 C 0.91192 0.67566 0.28749 0.0
C346 C 0.89877 0.64992 0.23077 0.0
C347 C 0.93257 0.641 0.2305 0.0
C348 C 0.95517 0.64854 0.25973 0.0
C349 C 0.94463 0.66575 0.28768 0.0
C350 C 0.87357 0.64244 0.20053 0.0
C351 C 0.99143 0.63987 0.26094 0.0
C352 C 0.95149 0.57653 0.16462 0.0
C353 C 0.97332 0.59902 0.14052 0.0
C354 C 0.93762 0.58963 0.19359 0.0
C355 C 0.94566 0.62624 0.199 0.0
C356 C 0.96724 0.649 0.17451 0.0
C357 C 0.98064 0.63524 0.14583 0.0
C358 C 0.91469 0.56422 0.21869 0.0
C359 C 0.97675 0.68813 0.17883 0.0
H360 H 0.86401 0.67541 0.25844 0.0
H361 H 0.96283 0.67271 0.30927 0.0
H362 H 0.88722 0.6588 0.17902 0.0
H363 H 0.86802 0.61474 0.19262 0.0
H364 H 0.84686 0.6479 0.20567 0.0
H365 H 1.00458 0.64501 0.28619 0.0
H366 H 0.98732 0.61201 0.2543 0.0
H367 H 1.01068 0.65575 0.24203 0.0
H368 H 0.94551 0.54855 0.16109 0.0
H369 H 0.99734 0.65313 0.12764 0.0
H370 H 0.88773 0.56956 0.22257 0.0
H371 H 0.92888 0.56767 0.24346 0.0
H372 H 0.9096 0.53664 0.21043 0.0
H373 H 0.95115 0.69624 0.18134 0.0
H374 H 0.99308 0.70239 0.15731 0.0
H375 H 0.99286 0.69615 0.20233 0.0
C376 C 0.42718 0.2319 0.21912 0.0
C377 C 0.41352 0.25327 0.19785 0.0
C378 C 0.44485 0.20825 0.20586 0.0
C379 C 0.44927 0.2062 0.17052 0.0
C380 C 0.4371 0.22881 0.14903 0.0
C381 C 0.41923 0.25195 0.16294 0.0
C382 C 0.45748 0.18456 0.22956 0.0
C383 C 0.4416 0.22756 0.1112 0.0
C384 C 0.51598 0.16081 0.13316 0.0
C385 C 0.49184 0.12876 0.12277 0.0
C386 C 0.50266 0.18605 0.14946 0.0
C387 C 0.46437 0.17891 0.15573 0.0
C388 C 0.44007 0.14615 0.14638 0.0
C389 C 0.45408 0.12152 0.12988 0.0
C390 C 0.52936 0.22078 0.15889 0.0
C391 C 0.39908 0.13744 0.15299 0.0
H392 H 0.42343 0.2332 0.24618 0.0
H393 H 0.40839 0.26803 0.14628 0.0
H394 H 0.44117 0.15706 0.225 0.0
H395 H 0.48685 0.18623 0.22475 0.0
H396 H 0.4543 0.19107 0.25648 0.0
H397 H 0.43333 0.24873 0.09827 0.0
H398 H 0.47071 0.22977 0.10459 0.0
H399 H 0.42444 0.20207 0.10131 0.0
H400 H 0.5452 0.16665 0.12767 0.0
H401 H 0.43529 0.09675 0.12213 0.0
H402 H 0.52605 0.22679 0.18588 0.0
H403 H 0.5233 0.24183 0.14388 0.0
H404 H 0.55853 0.22134 0.15435 0.0
H405 H 0.39388 0.14137 0.18009 0.0
H406 H 0.38426 0.1101 0.1459 0.0
H407 H 0.38727 0.15527 0.13839 0.0
C408 C 0.12525 0.87622 0.70467 0.0
C409 C 0.12075 0.84913 0.68115 0.0
C410 C 0.1138 0.90583 0.6971 0.0
C411 C 0.09784 0.90817 0.66523 0.0
C412 C 0.09279 0.88036 0.64169 0.0
C413 C 0.10436 0.8511 0.65001 0.0
C414 C 0.11947 0.93486 0.72284 0.0
C415 C 0.07601 0.88188 0.60741 0.0
C416 C 0.04061 0.97002 0.64728 0.0
C417 C 0.06569 0.99642 0.62897 0.0
C418 C 0.05119 0.94194 0.66077 0.0
C419 C 0.08764 0.94012 0.65564 0.0
C420 C 0.11356 0.96752 0.63863 0.0
C421 C 0.10231 0.99539 0.6256 0.0
C422 C 0.02288 0.91339 0.67907 0.0
C423 C 0.1527 0.96651 0.63261 0.0
H424 H 0.1382 0.8745 0.72871 0.0
H425 H 0.1012 0.82999 0.63189 0.0
H426 H 0.13902 0.95901 0.71279 0.0
H427 H 0.09301 0.94078 0.7279 0.0
H428 H 0.1305 0.92821 0.74704 0.0
H429 H 0.07311 0.85766 0.59243 0.0
H430 H 0.04838 0.88604 0.61023 0.0
H431 H 0.09349 0.90433 0.59301 0.0
H432 H 0.01231 0.97068 0.65024 0.0
H433 H 0.12196 0.01566 0.61158 0.0
H434 H 0.03417 0.90741 0.70337 0.0
H435 H 0.01597 0.88915 0.66361 0.0
H436 H 0.99705 0.92053 0.68418 0.0
H437 H 0.16538 0.96162 0.65658 0.0
H438 H 0.17024 0.99118 0.62151 0.0
H439 H 0.15261 0.94469 0.61513 0.0
C440 C 0.78493 0.45294 0.90418 0.0
C441 C 0.75212 0.43923 0.92246 0.0
C442 C 0.81818 0.47115 0.92054 0.0
C443 C 0.81885 0.47615 0.95611 0.0
C444 C 0.78533 0.46391 0.97434 0.0
C445 C 0.75267 0.44566 0.95743 0.0
C446 C 0.85303 0.48364 0.89992 0.0
C447 C 0.7842 0.4688 1.01208 0.0
C448 C 0.90825 0.4845 1.00539 0.0
C449 C 0.92153 0.52059 1.01179 0.0
C450 C 0.87542 0.46999 0.98706 0.0
C451 C 0.85474 0.49186 0.97466 0.0
C452 C 0.86792 0.52833 0.98103 0.0
C453 C 0.90101 0.5422 0.99934 0.0
C454 C 0.86279 0.43104 0.98101 0.0
C455 C 0.84695 0.55279 0.96864 0.0
H456 H 0.78505 0.44793 0.87728 0.0
H457 H 0.7275 0.43552 0.97186 0.0
H458 H 0.86699 0.51153 0.90545 0.0
H459 H 0.87241 0.46858 0.90687 0.0
H460 H 0.84758 0.48052 0.87238 0.0
H461 H 0.75562 0.46034 1.02224 0.0
H462 H 0.80058 0.45344 0.02461 0.0
H463 H 0.79681 0.49663 1.0189 0.0
H464 H 0.9237 0.46738 1.01456 0.0
H465 H 0.9108 0.57011 1.00387 0.0
H466 H 0.85978 0.42548 0.95354 0.0
H467 H 0.8353 0.41971 0.99273 0.0
H468 H 0.88228 0.41763 0.99149 0.0
H469 H 0.8434 0.55027 0.94088 0.0
H470 H 0.86109 0.58051 0.97495 0.0
H471 H 0.81895 0.54562 0.98001 0.0
C472 C 0.80891 0.68232 0.45929 0.0
C473 C 0.81038 0.68946 0.42453 0.0
C474 C 0.77595 0.66326 0.47515 0.0
C475 C 0.74316 0.65095 0.45601 0.0
C476 C 0.74482 0.65663 0.4206 0.0
C477 C 0.77836 0.67564 0.4053 0.0
C478 C 0.77591 0.65765 0.51279 0.0
C479 C 0.71071 0.64411 0.39909 0.0
C480 C 0.66017 0.58391 0.49639 0.0
C481 C 0.63914 0.60522 0.5088 0.0
C482 C 0.69376 0.59822 0.47895 0.0
C483 C 0.70683 0.63479 0.47351 0.0
C484 C 0.68562 0.65634 0.48585 0.0
C485 C 0.65231 0.64141 0.50328 0.0
C486 C 0.71538 0.57417 0.46649 0.0
C487 C 0.69819 0.69539 0.48074 0.0
H488 H 0.83354 0.69255 0.47437 0.0
H489 H 0.77903 0.68119 0.37853 0.0
H490 H 0.75901 0.67267 0.52537 0.0
H491 H 0.76324 0.62968 0.51878 0.0
H492 H 0.80415 0.66606 0.52361 0.0
H493 H 0.71708 0.64759 0.37173 0.0
H494 H 0.6968 0.6161 0.40393 0.0
H495 H 0.69091 0.65889 0.40584 0.0
H496 H 0.65042 0.55594 0.50029 0.0
H497 H 0.63645 0.65828 0.51247 0.0
H498 H 0.74302 0.58138 0.47845 0.0
H499 H 0.71975 0.5771 0.43885 0.0
H500 H 0.70125 0.54631 0.47207 0.0
H501 H 0.72524 0.70669 0.4932 0.0
H502 H 0.67822 0.70849 0.49107 0.0
H503 H 0.70209 0.70137 0.45344 0.0
C504 C 0.30181 0.39445 0.15584 0.0
C505 C 0.3107 0.385 0.18786 0.0
C506 C 0.2692 0.40372 0.1506 0.0
C507 C 0.24511 0.40336 0.17816 0.0
C508 C 0.25435 0.39405 0.2107 0.0
C509 C 0.28721 0.38491 0.21517 0.0
C510 C 0.26033 0.41352 0.11555 0.0
C511 C 0.22935 0.39335 0.24062 0.0
C512 C 0.17749 0.45645 0.1668 0.0
C513 C 0.14566 0.43081 0.15616 0.0
C514 C 0.20977 0.44774 0.175 0.0
C515 C 0.21018 0.41251 0.17264 0.0
C516 C 0.17777 0.38631 0.16311 0.0
C517 C 0.14586 0.39579 0.15496 0.0
C518 C 0.24374 0.47638 0.1852 0.0
C519 C 0.17717 0.34845 0.16035 0.0
H520 H 0.32017 0.39419 0.1348 0.0
H521 H 0.29433 0.37735 0.23989 0.0
H522 H 0.23391 0.39526 0.10688 0.0
H523 H 0.25675 0.44012 0.11582 0.0
H524 H 0.28223 0.41291 0.09699 0.0
H525 H 0.24084 0.38606 0.26431 0.0
H526 H 0.22477 0.41936 0.24417 0.0
H527 H 0.20199 0.37436 0.23596 0.0
H528 H 0.17728 0.48349 0.16835 0.0
H529 H 0.12146 0.37592 0.14649 0.0
H530 H 0.26584 0.47852 0.16615 0.0
H531 H 0.25438 0.47001 0.20965 0.0
H532 H 0.23827 0.50218 0.18755 0.0
H533 H 0.19605 0.34532 0.13986 0.0
H534 H 0.14912 0.33102 0.15491 0.0
H535 H 0.1872 0.33982 0.1841 0.0
C536 C 0.64415 0.29108 0.90737 0.0
C537 C 0.65519 0.32257 0.92578 0.0
C538 C 0.62935 0.25855 0.92351 0.0
C539 C 0.62503 0.25702 0.95913 0.0
C540 C 0.63596 0.2887 0.97784 0.0
C541 C 0.65089 0.32083 0.96108 0.0
C542 C 0.61846 0.22568 0.90237 0.0
C543 C 0.63165 0.28871 1.01571 0.0
C544 C 0.55494 0.17708 0.99805 0.0
C545 C 0.57744 0.15721 1.01023 0.0
C546 C 0.56997 0.20935 0.98161 0.0
C547 C 0.60865 0.22247 0.97672 0.0
C548 C 0.63155 0.20252 0.98883 0.0
C549 C 0.6158 0.17041 1.00547 0.0
C550 C 0.54431 0.22957 0.96958 0.0
C551 C 0.67285 0.2151 0.98415 0.0
H552 H 0.64768 0.29175 0.88021 0.0
H553 H 0.65877 0.34479 0.97573 0.0
H554 H 0.63397 0.20747 0.9107 0.0
H555 H 0.58869 0.21218 0.9059 0.0
H556 H 0.62382 0.23104 0.87507 0.0
H557 H 0.64153 0.31538 0.02674 0.0
H558 H 0.6022 0.27735 1.02261 0.0
H559 H 0.64726 0.27211 0.02732 0.0
H560 H 0.52533 0.16753 1.00156 0.0
H561 H 0.63364 0.15554 1.01462 0.0
H562 H 0.54723 0.23353 0.94191 0.0
H563 H 0.5518 0.25581 0.98158 0.0
H564 H 0.51495 0.21609 0.97542 0.0
H565 H 0.67963 0.21887 0.95692 0.0
H566 H 0.68692 0.19654 0.99455 0.0
H567 H 0.68409 0.2408 0.99676 0.0
C568 C 0.90902 0.80775 0.46718 0.0
C569 C 0.90573 0.80667 0.4318 0.0
C570 C 0.92318 0.83958 0.48486 0.0
C571 C 0.93433 0.87158 0.46699 0.0
C572 C 0.93096 0.87072 0.4313 0.0
C573 C 0.91692 0.83847 0.41424 0.0
C574 C 0.92654 0.83891 0.52276 0.0
C575 C 0.9422 0.90398 0.41106 0.0
C576 C 0.94304 0.95755 0.51517 0.0
C577 C 0.98133 0.97049 0.52028 0.0
C578 C 0.92742 0.92565 0.49788 0.0
C579 C 0.95041 0.90574 0.48549 0.0
C580 C 0.989 0.91853 0.49088 0.0
C581 C 1.00388 0.95056 0.50795 0.0
C582 C 0.88621 0.9133 0.49272 0.0
C583 C 0.01473 0.89831 0.47859 0.0
H584 H 0.90101 0.78351 0.48116 0.0
H585 H 0.91414 0.83826 0.38703 0.0
H586 H 0.95584 0.84991 0.53022 0.0
H587 H 0.91085 0.8555 0.53459 0.0
H588 H 0.91617 0.81207 0.53309 0.0
H589 H 0.93725 0.89913 0.38362 0.0
H590 H 0.92663 0.92208 0.41986 0.0
H591 H 0.97193 0.91735 0.41499 0.0
H592 H 0.9252 0.97251 0.52444 0.0
H593 H 0.03345 0.95991 0.51174 0.0
H594 H 0.87467 0.88731 0.50447 0.0
H595 H 0.87992 0.91023 0.46536 0.0
H596 H 0.87203 0.93167 0.50366 0.0
H597 H 1.00678 0.87183 0.48985 0.0
H598 H 0.04399 0.91147 0.48505 0.0
H599 H 0.01246 0.89492 0.45081 0.0
C600 C 0.30567 0.78791 0.70082 0.0
C601 C 0.2692 0.76651 0.70287 0.0
C602 C 0.33399 0.77484 0.68888 0.0
C603 C 0.32565 0.73943 0.67878 0.0
C604 C 0.28878 0.71775 0.68027 0.0
C605 C 0.26085 0.73164 0.69219 0.0
C606 C 0.3729 0.79888 0.68736 0.0
C607 C 0.27898 0.67982 0.66983 0.0
C608 C 0.39642 0.7159 0.62259 0.0
C609 C 0.41691 0.70319 0.64614 0.0
C610 C 0.36604 0.72703 0.63273 0.0
C611 C 0.35587 0.72521 0.66722 0.0
C612 C 0.37603 0.71179 0.69102 0.0
C613 C 0.40642 0.70104 0.68019 0.0
C614 C 0.34541 0.74152 0.6067 0.0
C615 C 0.36586 0.7093 0.72799 0.0
H616 H 0.31205 0.81507 0.70852 0.0
H617 H 0.23267 0.71508 0.69387 0.0
H618 H 0.39114 0.78883 0.70388 0.0
H619 H 0.38384 0.79965 0.66128 0.0
H620 H 0.37454 0.82596 0.69542 0.0
H621 H 0.2489 0.6667 0.67178 0.0
H622 H 0.28791 0.67754 0.64343 0.0
H623 H 0.29385 0.66574 0.68599 0.0
H624 H 0.40465 0.71782 0.59627 0.0
H625 H 0.42187 0.69071 0.69836 0.0
H626 H 0.3483 0.7694 0.61235 0.0
H627 H 0.31555 0.72742 0.60766 0.0
H628 H 0.35568 0.73951 0.58069 0.0
H629 H 0.36924 0.73583 0.73848 0.0
H630 H 0.38313 0.69653 0.74293 0.0
H631 H 0.33646 0.6943 0.73121 0.0
C632 C 0.74113 0.82188 0.80232 0.0
C633 C 0.72414 0.83391 0.82948 0.0
C634 C 0.75892 0.84456 0.77671 0.0
C635 C 0.75941 0.88007 0.77813 0.0
C636 C 0.73982 0.89175 0.80403 0.0
C637 C 0.72247 0.86851 0.82953 0.0
C638 C 0.77944 0.83104 0.74953 0.0
C639 C 0.73934 0.92935 0.80615 0.0
C640 C 0.84509 0.94549 0.74398 0.0
C641 C 0.83317 0.95344 0.71241 0.0
C642 C 0.82124 0.92172 0.76552 0.0
C643 C 0.7844 0.90568 0.75535 0.0
C644 C 0.77214 0.91354 0.72345 0.0
C645 C 0.79682 0.93724 0.70218 0.0
C646 C 0.83559 0.91365 0.79914 0.0
C647 C 0.73297 0.89715 0.71196 0.0
H648 H 0.7418 0.79493 0.80184 0.0
H649 H 0.70944 0.87798 0.85047 0.0
H650 H 0.77292 0.83944 0.72427 0.0
H651 H 0.80959 0.84212 0.75343 0.0
H652 H 0.77275 0.8021 0.7497 0.0
H653 H 0.71855 0.93302 0.82458 0.0
H654 H 0.76693 0.94595 0.81409 0.0
H655 H 0.73338 0.9387 0.7811 0.0
H656 H 0.87334 0.95771 0.75171 0.0
H657 H 0.78753 0.94363 0.67785 0.0
H658 H 0.83285 0.88531 0.80079 0.0
H659 H 0.81896 0.92017 0.81994 0.0
H660 H 0.86499 0.92836 0.80317 0.0
H661 H 0.72688 0.8683 0.71133 0.0
H662 H 0.72771 0.90622 0.68653 0.0
H663 H 0.71346 0.9035 0.73017 0.0
C664 C 0.80677 0.28074 0.3309 0.0
C665 C 0.84394 0.28112 0.32931 0.0
C666 C 0.78207 0.26517 0.30515 0.0
C667 C 0.79488 0.24951 0.27731 0.0
C668 C 0.83285 0.25196 0.27449 0.0
C669 C 0.85694 0.2678 0.30051 0.0
C670 C 0.74183 0.26328 0.30898 0.0
C671 C 0.84762 0.23571 0.24514 0.0
C672 C 0.72872 0.1686 0.23938 0.0
C673 C 0.71811 0.18141 0.20938 0.0
C674 C 0.75343 0.19064 0.26169 0.0
C675 C 0.76806 0.22646 0.25382 0.0
C676 C 0.75756 0.23967 0.22358 0.0
C677 C 0.73272 0.21691 0.20159 0.0
C678 C 0.7641 0.17544 0.29361 0.0
C679 C 0.77252 0.27776 0.21452 0.0
H680 H 0.79648 0.2908 0.35318 0.0
H681 H 0.8858 0.26863 0.29891 0.0
H682 H 0.73067 0.27007 0.28495 0.0
H683 H 0.72583 0.23617 0.3154 0.0
H684 H 0.7373 0.28102 0.32919 0.0
H685 H 0.87826 0.24361 0.24455 0.0
H686 H 0.83758 0.20683 0.24706 0.0
H687 H 0.83742 0.2431 0.22091 0.0
H688 H 0.71804 0.14106 0.24522 0.0
H689 H 0.72437 0.22694 0.17853 0.0
H690 H 0.75723 0.18921 0.31598 0.0
H691 H 0.79433 0.17926 0.29394 0.0
H692 H 0.74989 0.1471 0.29612 0.0
H693 H 0.76566 0.29424 0.2347 0.0
H694 H 0.76131 0.28398 0.19023 0.0
H695 H 0.80305 0.285 0.21263 0.0
C696 C 0.39631 0.64745 0.34396 0.0
C697 C 0.42091 0.67533 0.32697 0.0
C698 C 0.40687 0.63328 0.37379 0.0
C699 C 0.44313 0.64693 0.38702 0.0
C700 C 0.46771 0.67559 0.37011 0.0
C701 C 0.45636 0.68931 0.3405 0.0
C702 C 0.37946 0.60299 0.39068 0.0
C703 C 0.50659 0.69119 0.38271 0.0
C704 C 0.46699 0.62759 0.47842 0.0
C705 C 0.48391 0.60071 0.47392 0.0
C706 C 0.45311 0.64236 0.45074 0.0
C707 C 0.45608 0.63031 0.4173 0.0
C708 C 0.47271 0.60291 0.41271 0.0
C709 C 0.48624 0.58858 0.44077 0.0
C710 C 0.43563 0.67131 0.45727 0.0
C711 C 0.47681 0.58899 0.37788 0.0
H712 H 0.36901 0.63616 0.33353 0.0
H713 H 0.47574 0.71055 0.32734 0.0
H714 H 0.38942 0.57947 0.38918 0.0
H715 H 0.37687 0.60886 0.41783 0.0
H716 H 0.35173 0.59681 0.37887 0.0
H717 H 0.52184 0.71435 0.36787 0.0
H718 H 0.50619 0.69903 0.40957 0.0
H719 H 0.52192 0.67133 0.38128 0.0
H720 H 0.46488 0.63743 0.50366 0.0
H721 H 0.49916 0.56795 0.43656 0.0
H722 H 0.40744 0.6643 0.44643 0.0
H723 H 0.45192 0.69553 0.4446 0.0
H724 H 0.43387 0.67687 0.48463 0.0
H725 H 0.44946 0.5798 0.36549 0.0
H726 H 0.48941 0.56707 0.37839 0.0
H727 H 0.49432 0.61019 0.36205 0.0
C728 C 0.16514 0.4787 0.84879 0.0
C729 C 0.14071 0.45169 0.83051 0.0
C730 C 0.15402 0.49205 0.87896 0.0
C731 C 0.11736 0.47837 0.89124 0.0
C732 C 0.09294 0.45041 0.87315 0.0
C733 C 0.10485 0.43754 0.84311 0.0
C734 C 0.1812 0.52169 0.8971 0.0
C735 C 0.05369 0.43484 0.88486 0.0
C736 C 0.09214 0.49697 0.98264 0.0
C737 C 0.07602 0.52437 0.97843 0.0
C738 C 0.10601 0.48207 0.95481 0.0
C739 C 0.10384 0.49461 0.92161 0.0
C740 C 0.08798 0.52249 0.91731 0.0
C741 C 0.07441 0.53689 0.9455 0.0
C742 C 0.12266 0.45256 0.96092 0.0
C743 C 0.08489 0.53695 0.8827 0.0
H744 H 0.19274 0.49012 0.83897 0.0
H745 H 0.08563 0.41701 0.82888 0.0
H746 H 0.17173 0.54549 0.89595 0.0
H747 H 0.18275 0.51521 0.92414 0.0
H748 H 0.20931 0.52773 0.88596 0.0
H749 H 0.0388 0.41189 0.86939 0.0
H750 H 0.05323 0.42669 0.9116 0.0
H751 H 0.03854 0.45482 0.88345 0.0
H752 H 0.09363 0.48685 1.00774 0.0
H753 H 0.06211 0.55794 0.94155 0.0
H754 H 0.15118 0.45938 0.95073 0.0
H755 H 0.10646 0.42877 0.94736 0.0
H756 H 0.12341 0.44637 0.98815 0.0
H757 H 0.11258 0.54609 0.87083 0.0
H758 H 0.07253 0.55903 0.88347 0.0
H759 H 0.06764 0.51608 0.86626 0.0
C760 C 0.62295 0.87682 0.91509 0.0
C761 C 0.60703 0.8451 0.93135 0.0
C762 C 0.61329 0.90704 0.92447 0.0
C763 C 0.58748 0.90525 0.95091 0.0
C764 C 0.57029 0.8727 0.96633 0.0
C765 C 0.58035 0.84296 0.95632 0.0
C766 C 0.63204 0.94114 0.90729 0.0
C767 C 0.54277 0.86965 0.99469 0.0
C768 C 0.59505 0.98267 1.00879 0.0
C769 C 0.5646 0.99373 0.999 0.0
C770 C 0.60369 0.95491 0.99229 0.0
C771 C 0.58139 0.93769 0.96521 0.0
C772 C 0.55172 0.94979 0.95402 0.0
C773 C 0.54365 0.97772 0.97107 0.0
C774 C 0.63567 0.94294 1.00498 0.0
C775 C 0.52752 0.93225 0.92507 0.0
H776 H 0.64377 0.87823 0.89583 0.0
H777 H 0.5683 0.81824 0.96887 0.0
H778 H 0.61144 0.95465 0.8998 0.0
H779 H 0.65144 0.95861 0.92514 0.0
H780 H 0.64775 0.93734 0.88456 0.0
H781 H 0.5297 0.84207 1.00204 0.0
H782 H 0.55685 0.88418 1.01712 0.0
H783 H 0.5208 0.8815 0.98728 0.0
H784 H 0.61169 0.99508 0.03008 0.0
H785 H 0.52008 0.98608 0.96329 0.0
H786 H 0.6545 0.94145 0.98387 0.0
H787 H 0.6252 0.91633 1.01572 0.0
H788 H 0.6518 0.9606 0.02474 0.0
H789 H 0.54464 0.92911 0.90316 0.0
H790 H 0.50835 0.94716 0.91698 0.0
H791 H 0.51094 0.90574 0.93277 0.0
C792 C 0.91039 0.21804 0.41375 0.0
C793 C 0.92885 0.25393 0.41417 0.0
C794 C 0.92535 0.19396 0.42963 0.0
C795 C 0.95945 0.20605 0.44669 0.0
C796 C 0.97893 0.24204 0.44621 0.0
C797 C 0.96339 0.26558 0.42992 0.0
C798 C 0.9037 0.15579 0.42957 0.0
C799 C 0.01539 0.25587 0.46414 0.0
C800 C 0.97187 0.15175 0.52129 0.0
C801 C 0.99471 0.1328 0.50786 0.0
C802 C 0.96078 0.17602 0.50175 0.0
C803 C 0.97268 0.18149 0.46782 0.0
C804 C 0.99592 0.16267 0.45406 0.0
C805 C 1.00672 0.13854 0.47428 0.0
C806 C 0.93603 0.19562 0.51739 0.0
C807 C 1.00903 0.16779 0.41793 0.0
H808 H 0.8834 0.20879 0.40218 0.0
H809 H 0.97799 0.29321 0.43 0.0
H810 H 0.92161 0.13941 0.42183 0.0
H811 H 0.89363 0.14781 0.45546 0.0
H812 H 0.87956 0.1502 0.41238 0.0
H813 H 0.02865 0.28393 0.45875 0.0
H814 H 1.01105 0.25273 0.49178 0.0
H815 H 0.0346 0.24073 0.45661 0.0
H816 H 0.96253 0.14769 0.54723 0.0
H817 H 0.02451 0.12415 0.46372 0.0
H818 H 0.90948 0.18945 0.50356 0.0
H819 H 0.94907 0.22418 0.51536 0.0
H820 H 0.93008 0.18903 0.54441 0.0
H821 H 0.985 0.16024 0.40065 0.0
H822 H 0.02809 0.15211 0.41141 0.0
H823 H 0.02336 0.19576 0.41331 0.0
C824 C 0.26784 0.70689 0.19223 0.0
C825 C 0.29714 0.69186 0.19427 0.0
C826 C 0.2347 0.68997 0.17527 0.0
C827 C 0.23055 0.65726 0.15916 0.0
C828 C 0.25986 0.64169 0.16149 0.0
C829 C 0.29252 0.65897 0.17916 0.0
C830 C 0.20417 0.70736 0.17434 0.0
C831 C 0.25711 0.60714 0.14452 0.0
C832 C 0.13273 0.59985 0.13847 0.0
C833 C 0.12832 0.60793 0.10449 0.0
C834 C 0.16562 0.61545 0.15634 0.0
C835 C 0.19561 0.63952 0.13995 0.0
C836 C 0.19166 0.64732 0.10546 0.0
C837 C 0.15813 0.63176 0.08832 0.0
C838 C 0.16797 0.6066 0.19308 0.0
C839 C 0.22292 0.67226 0.08664 0.0
H840 H 0.27094 0.73218 0.20388 0.0
H841 H 0.31505 0.64727 0.18008 0.0
H842 H 0.19874 0.71329 0.14788 0.0
H843 H 0.17828 0.68943 0.18445 0.0
H844 H 0.21096 0.73204 0.1892 0.0
H845 H 0.28199 0.59825 0.14884 0.0
H846 H 0.23259 0.58682 0.15398 0.0
H847 H 0.25342 0.60941 0.11695 0.0
H848 H 0.11008 0.58164 0.15149 0.0
H849 H 0.15536 0.63819 0.06212 0.0
H850 H 0.17294 0.63064 0.20869 0.0
H851 H 0.1916 0.59586 0.19714 0.0
H852 H 0.14243 0.58727 0.20221 0.0
H853 H 0.22932 0.6986 0.09833 0.0
H854 H 0.21635 0.67439 0.05958 0.0
H855 H 0.24819 0.66352 0.0884 0.0
C856 C 0.29444 0.42034 0.69084 0.0
C857 C 0.26534 0.43563 0.69309 0.0
C858 C 0.32709 0.43643 0.67282 0.0
C859 C 0.33086 0.46849 0.65596 0.0
C860 C 0.30165 0.48417 0.65828 0.0
C861 C 0.26949 0.46775 0.67695 0.0
C862 C 0.35761 0.419 0.67181 0.0
C863 C 0.30407 0.51805 0.64051 0.0
C864 C 0.42804 0.526 0.63436 0.0
C865 C 0.43228 0.51743 0.60037 0.0
C866 C 0.39542 0.51041 0.65254 0.0
C867 C 0.36559 0.48581 0.63646 0.0
C868 C 0.36939 0.47738 0.60202 0.0
C869 C 0.40267 0.49299 0.58452 0.0
C870 C 0.39313 0.51996 0.68924 0.0
C871 C 0.33824 0.45175 0.58361 0.0
H872 H 0.29167 0.39565 0.70331 0.0
H873 H 0.24705 0.47958 0.67804 0.0
H874 H 0.36308 0.41274 0.64534 0.0
H875 H 0.38348 0.43707 0.68181 0.0
H876 H 0.35081 0.39452 0.68673 0.0
H877 H 0.279 0.5268 0.64448 0.0
H878 H 0.3284 0.53885 0.64969 0.0
H879 H 0.30795 0.51495 0.61303 0.0
H880 H 0.4506 0.54464 0.64714 0.0
H881 H 0.40539 0.48617 0.55833 0.0
H882 H 0.38829 0.49624 0.70505 0.0
H883 H 0.36944 0.53069 0.6933 0.0
H884 H 0.41864 0.53953 0.69813 0.0
H885 H 0.33199 0.42576 0.59577 0.0
H886 H 0.34484 0.44887 0.55661 0.0
H887 H 0.31288 0.46038 0.5852 0.0
C888 C 0.77048 0.73757 0.89388 0.0
C889 C 0.75056 0.75371 0.91526 0.0
C890 C 0.79912 0.72536 0.90635 0.0
C891 C 0.80791 0.72916 0.9411 0.0
C892 C 0.78671 0.7438 0.96313 0.0
C893 C 0.75829 0.75597 0.94993 0.0
C894 C 0.821 0.70978 0.88206 0.0
C895 C 0.79513 0.74807 1.00038 0.0
C896 C 0.86926 0.67695 0.97559 0.0
C897 C 0.90408 0.70178 0.97508 0.0
C898 C 0.83756 0.68561 0.96521 0.0
C899 C 0.84079 0.71987 0.95388 0.0
C900 C 0.87577 0.74516 0.95365 0.0
C901 C 0.90697 0.73582 0.9643 0.0
C902 C 0.80075 0.65796 0.96581 0.0
C903 C 0.88033 0.78198 0.9417 0.0
H904 H 0.76425 0.73531 0.86715 0.0
H905 H 0.74325 0.76871 0.96653 0.0
H906 H 0.84981 0.72688 0.88065 0.0
H907 H 0.82213 0.6839 0.89113 0.0
H908 H 0.80914 0.70662 0.85624 0.0
H909 H 0.77406 0.757 1.01452 0.0
H910 H 0.79671 0.72302 1.01126 0.0
H911 H 0.82243 0.76746 1.00417 0.0
H912 H 0.86687 0.65045 0.98342 0.0
H913 H 0.9337 0.75523 0.96427 0.0
H914 H 0.7896 0.65298 0.93983 0.0
H915 H 0.78061 0.66718 0.98096 0.0
H916 H 0.80273 0.63292 0.97652 0.0
H917 H 0.87155 0.78153 0.91498 0.0
H918 H 0.9093 0.79869 0.94373 0.0
H919 H 0.86242 0.79412 0.95671 0.0
C920 C 0.43995 0.81038 0.18185 0.0
C921 C 0.40365 0.8014 0.19446 0.0
C922 C 0.45584 0.84267 0.16557 0.0
C923 C 0.43529 0.86716 0.16198 0.0
C924 C 0.39895 0.85854 0.17534 0.0
C925 C 0.38361 0.82593 0.19111 0.0
C926 C 0.49443 0.85027 0.1515 0.0
C927 C 0.37602 0.88373 0.17273 0.0
C928 C 0.4871 0.96349 0.1448 0.0
C929 C 0.48147 0.96671 0.11004 0.0
C930 C 0.47225 0.93154 0.16191 0.0
C931 C 0.45154 0.90151 0.14397 0.0
C932 C 0.44605 0.90451 0.10881 0.0
C933 C 0.46075 0.93691 0.09243 0.0
C934 C 0.47854 0.93002 0.19938 0.0
C935 C 0.42471 0.87334 0.08837 0.0
H936 H 0.45565 0.79164 0.18374 0.0
H937 H 0.3557 0.8196 0.20092 0.0
H938 H 0.49393 0.854 0.1238 0.0
H939 H 0.51227 0.87489 0.1625 0.0
H940 H 0.50708 0.82893 0.15668 0.0
H941 H 0.34875 0.87379 0.18532 0.0
H942 H 0.39094 0.90918 0.18431 0.0
H943 H 0.37144 0.88867 0.14581 0.0
H944 H 0.5029 0.98614 0.15886 0.0
H945 H 0.45632 0.93876 0.06558 0.0
H946 H 0.49319 0.91025 0.20478 0.0
H947 H 0.45164 0.92178 0.21277 0.0
H948 H 0.49495 0.95558 0.20984 0.0
H949 H 0.4376 0.85178 0.09082 0.0
H950 H 0.42351 0.87957 0.06119 0.0
H951 H 0.39611 0.86362 0.09818 0.0
C952 C 0.17835 0.30221 0.69964 0.0
C953 C 0.15875 0.32719 0.70224 0.0
C954 C 0.16261 0.26918 0.68466 0.0
C955 C 0.12631 0.26065 0.67141 0.0
C956 C 0.10608 0.28547 0.67454 0.0
C957 C 0.12238 0.31821 0.69002 0.0
C958 C 0.18517 0.2436 0.68247 0.0
C959 C 0.0675 0.27784 0.66059 0.0
C960 C 0.1008 0.19018 0.6022 0.0
C961 C 0.07977 0.16077 0.61991 0.0
C962 C 0.11568 0.2227 0.61849 0.0
C963 C 0.10997 0.22617 0.6536 0.0
C964 C 0.089 0.19652 0.67167 0.0
C965 C 0.07404 0.16442 0.65466 0.0
C966 C 0.13745 0.25349 0.59799 0.0
C967 C 0.0825 0.19865 0.70911 0.0
H968 H 0.20634 0.30867 0.70915 0.0
H969 H 0.1071 0.33735 0.69139 0.0
H970 H 0.16978 0.21835 0.69396 0.0
H971 H 0.19018 0.23832 0.65563 0.0
H972 H 0.21223 0.25341 0.69536 0.0
H973 H 0.05492 0.29927 0.66589 0.0
H974 H 0.06808 0.27393 0.63287 0.0
H975 H 0.04958 0.25332 0.67152 0.0
H976 H 0.10532 0.18794 0.57536 0.0
H977 H 0.05796 0.14204 0.66877 0.0
H978 H 0.16596 0.26317 0.60793 0.0
H979 H 0.12472 0.27521 0.60022 0.0
H980 H 0.13888 0.24683 0.57086 0.0
H981 H 0.10931 0.20694 0.72253 0.0
H982 H 0.06587 0.17331 0.71965 0.0
H983 H 0.06799 0.21864 0.71436 0.0
C984 C 0.78789 0.35195 0.43172 0.0
C985 C 0.82114 0.37848 0.43421 0.0
C986 C 0.75412 0.35904 0.43757 0.0
C987 C 0.75394 0.39349 0.44603 0.0
C988 C 0.78768 0.42051 0.44774 0.0
C989 C 0.82104 0.4126 0.44186 0.0
C990 C 0.71877 0.32957 0.43552 0.0
C991 C 0.78858 0.45757 0.4565 0.0
C992 C 0.66552 0.41992 0.43775 0.0
C993 C 0.6535 0.41845 0.47138 0.0
C994 C 0.6979 0.41138 0.429 0.0
C995 C 0.71866 0.40106 0.4545 0.0
C996 C 0.70621 0.39879 0.48838 0.0
C997 C 0.67381 0.40756 0.49641 0.0
C998 C 0.71036 0.41419 0.39263 0.0
C999 C 0.72743 0.38761 0.51624 0.0
H1000 H 0.78835 0.32554 0.42577 0.0
H1001 H 0.84704 0.43295 0.44376 0.0
H1002 H 0.70528 0.3254 0.46067 0.0
H1003 H 0.69924 0.33637 0.41786 0.0
H1004 H 0.72357 0.30468 0.42701 0.0
H1005 H 0.81691 0.47579 0.4552 0.0
H1006 H 0.77059 0.46688 0.43905 0.0
H1007 H 0.77766 0.45856 0.48239 0.0
H1008 H 0.65016 0.42873 0.41837 0.0
H1009 H 0.66438 0.40598 0.52237 0.0
H1010 H 0.71435 0.38909 0.38391 0.0
H1011 H 0.73737 0.43437 0.3903 0.0
H1012 H 0.6903 0.42118 0.37565 0.0
H1013 H 0.73105 0.36163 0.51028 0.0
H1014 H 0.71343 0.38618 0.54111 0.0
H1015 H 0.75538 0.40633 0.5183 0.0
loop_
_geom_bond_atom_site_label_1
_geom_bond_atom_site_label_2
_geom_bond_distance
_geom_bond_site_symmetry_2
_ccdc_geom_bond_type
H0 C3 0.929 . S
H1 C6 0.929 . S
H2 C8 0.930 . S
C3 H0 0.929 . S
C3 C4 1.398 . S
C3 C5 1.396 . S
C4 C3 1.398 . S
C4 C8 1.407 . S
C5 C3 1.396 . S
C5 C6 1.394 . S
C6 H1 0.929 . S
C6 C5 1.394 . S
C6 C7 1.382 . S
C7 C6 1.382 . S
C7 C8 1.392 . S
C7 N9 1.420 . S
C8 H2 0.930 . S
C8 C4 1.407 . S
C8 C7 1.392 . S
N9 C7 1.420 . S
N9 C10 1.244 . S
C10 N9 1.244 . S
H11 C14 0.929 . S
H12 C17 0.929 . S
H13 C19 0.930 . S
C14 H11 0.929 . S
C14 C15 1.398 . S
C14 C16 1.396 . S
C15 C14 1.398 . S
C15 C19 1.407 . S
C16 C14 1.396 . S
C16 C17 1.394 . S
C17 H12 0.929 . S
C17 C16 1.394 . S
C17 C18 1.382 . S
C18 C17 1.382 . S
C18 C19 1.392 . S
C18 N20 1.420 . S
C19 H13 0.930 . S
C19 C15 1.407 . S
C19 C18 1.392 . S
N20 C18 1.420 . S
N20 C21 1.244 . S
C21 N20 1.244 . S
H22 C25 0.929 . S
H23 C28 0.929 . S
H24 C30 0.930 . S
C25 H22 0.929 . S
C25 C26 1.398 . S
C25 C27 1.396 . S
C26 C25 1.398 . S
C26 C30 1.407 . S
C27 C25 1.396 . S
C27 C28 1.394 . S
C28 H23 0.929 . S
C28 C27 1.394 . S
C28 C29 1.382 . S
C29 C28 1.382 . S
C29 C30 1.392 . S
C29 N31 1.420 . S
C30 H24 0.930 . S
C30 C26 1.407 . S
C30 C29 1.392 . S
N31 C29 1.420 . S
N31 C32 1.244 . S
C32 N31 1.244 . S
H33 C36 0.929 . S
H34 C39 0.929 . S
H35 C41 0.930 . S
C36 H33 0.929 . S
C36 C37 1.398 . S
C36 C38 1.396 . S
C37 C36 1.398 . S
C37 C41 1.407 . S
C38 C36 1.396 . S
C38 C39 1.394 . S
C39 H34 0.929 . S
C39 C38 1.394 . S
C39 C40 1.382 . S
C40 C39 1.382 . S
C40 C41 1.392 . S
C40 N42 1.420 . S
C41 H35 0.930 . S
C41 C37 1.407 . S
C41 C40 1.392 . S
N42 C40 1.420 . S
N42 C43 1.244 . S
C43 N42 1.244 . S
H44 C47 0.929 . S
H45 C50 0.929 . S
H46 C52 0.930 . S
C47 H44 0.929 . S
C47 C48 1.398 . S
C47 C49 1.396 . S
C48 C47 1.398 . S
C48 C52 1.407 . S
C49 C47 1.396 . S
C49 C50 1.394 . S
C50 H45 0.929 . S
C50 C49 1.394 . S
C50 C51 1.382 . S
C51 C50 1.382 . S
C51 C52 1.392 . S
C51 N53 1.420 . S
C52 H46 0.930 . S
C52 C48 1.407 . S
C52 C51 1.392 . S
N53 C51 1.420 . S
N53 C54 1.244 . S
C54 N53 1.244 . S
H55 C58 0.929 . S
H56 C61 0.929 . S
H57 C63 0.930 . S
C58 H55 0.929 . S
C58 C59 1.398 . S
C58 C60 1.396 . S
C59 C58 1.398 . S
C59 C63 1.407 . S
C60 C58 1.396 . S
C60 C61 1.394 . S
C61 H56 0.929 . S
C61 C60 1.394 . S
C61 C62 1.382 . S
C62 C61 1.382 . S
C62 C63 1.392 . S
C62 N64 1.420 . S
C63 H57 0.930 . S
C63 C59 1.407 . S
C63 C62 1.392 . S
N64 C62 1.420 . S
N64 C65 1.244 . S
C65 N64 1.244 . S
H66 C69 0.929 . S
H67 C72 0.929 . S
H68 C74 0.930 . S
C69 H66 0.929 . S
C69 C70 1.398 . S
C69 C71 1.396 . S
C70 C69 1.398 . S
C70 C74 1.407 . S
C71 C69 1.396 . S
C71 C72 1.394 . S
C72 H67 0.929 . S
C72 C71 1.394 . S
C72 C73 1.382 . S
C73 C72 1.382 . S
C73 C74 1.392 . S
C73 N75 1.420 . S
C74 H68 0.930 . S
C74 C70 1.407 . S
C74 C73 1.392 . S
N75 C73 1.420 . S
N75 C76 1.244 . S
C76 N75 1.244 . S
H77 C80 0.929 . S
H78 C83 0.929 . S
H79 C85 0.930 . S
C80 H77 0.929 . S
C80 C81 1.398 . S
C80 C82 1.396 . S
C81 C80 1.398 . S
C81 C85 1.407 . S
C82 C80 1.396 . S
C82 C83 1.394 . S
C83 H78 0.929 . S
C83 C82 1.394 . S
C83 C84 1.382 . S
C84 C83 1.382 . S
C84 C85 1.392 . S
C84 N86 1.420 . S
C85 H79 0.930 . S
C85 C81 1.407 . S
C85 C84 1.392 . S
N86 C84 1.420 . S
N86 C87 1.244 . S
C87 N86 1.244 . S
Tb88 C97 2.764 . S
Tb88 O98 2.325 . S
Tb88 O101 2.303 . S
Tb88 O105 2.322 1_545 S
Tb88 O106 2.349 1_545 S
Tb88 O109 2.415 . S
Tb88 O110 2.399 . S
Tb89 O99 2.322 . S
Tb89 O100 2.349 1_655 S
Tb89 O102 2.415 1_545 S
Tb89 O103 2.399 . S
Tb89 O104 2.325 1_655 S
Tb89 O107 2.303 1_545 S
Tb89 C118 2.764 1_545 S
C90 O106 1.261 1_655 S
C90 O107 1.257 . S
C91 C94 1.358 . S
C91 C95 1.332 . S
C91 C97 1.504 . S
C92 C93 1.373 . S
C92 C96 1.308 . S
C93 C92 1.373 . S
C93 C94 1.429 . S
C93 H120 0.932 . S
C94 C91 1.358 . S
C94 C93 1.429 . S
C94 H121 0.930 . S
C95 C91 1.332 . S
C95 C96 1.394 . S
C95 H122 0.932 . S
C96 C92 1.308 . S
C96 C95 1.394 . S
C96 H123 0.929 . S
C97 Tb88 2.764 . S
C97 C91 1.504 . S
C97 O109 1.239 . S
C97 O110 1.263 . S
O98 Tb88 2.325 . S
O98 C108 1.236 1_455 S
O99 Tb89 2.322 . S
O99 C108 1.257 . S
O100 Tb89 2.349 1_455 S
O100 C111 1.261 . S
O101 Tb88 2.303 . S
O101 C111 1.257 . S
O102 Tb89 2.415 1_565 S
O102 C118 1.239 . S
O103 Tb89 2.399 . S
O103 C118 1.263 1_545 S
O104 Tb89 2.325 1_455 S
O104 C119 1.236 1_545 S
O105 Tb88 2.322 1_565 S
O105 C119 1.257 . S
O106 Tb88 2.349 1_565 S
O106 C90 1.261 1_455 S
O107 Tb89 2.303 1_565 S
O107 C90 1.257 . S
C108 O98 1.236 1_655 S
C108 O99 1.257 . S
O109 Tb88 2.415 . S
O109 C97 1.239 . S
O110 Tb88 2.399 . S
O110 C97 1.263 . S
C111 O100 1.261 . S
C111 O101 1.257 . S
C112 C115 1.358 . S
C112 C116 1.332 . S
C112 C118 1.504 . S
C113 C114 1.373 . S
C113 C117 1.308 . S
C114 C113 1.373 . S
C114 C115 1.429 . S
C114 H124 0.932 . S
C115 C112 1.358 . S
C115 C114 1.429 . S
C115 H125 0.953 . S
C116 C112 1.332 . S
C116 C117 1.394 . S
C116 H126 0.932 . S
C117 C113 1.308 . S
C117 C116 1.394 . S
C117 H127 0.929 . S
C118 Tb89 2.764 1_565 S
C118 O102 1.239 . S
C118 O103 1.263 1_565 S
C118 C112 1.504 . S
C119 O104 1.236 1_565 S
C119 O105 1.257 . S
H120 C93 0.932 . S
H121 C94 0.930 . S
H122 C95 0.932 . S
H123 C96 0.929 . S
H124 C114 0.932 . S
H125 C115 0.953 . S
H126 C116 0.932 . S
H127 C117 0.929 . S
Tb128 C137 2.764 . S
Tb128 O138 2.325 . S
Tb128 O141 2.303 . S
Tb128 O145 2.322 1_545 S
Tb128 O146 2.349 . S
Tb128 O149 2.415 . S
Tb128 O150 2.399 . S
Tb129 O139 2.322 . S
Tb129 O140 2.349 . S
Tb129 O142 2.415 1_544 S
Tb129 O143 2.399 1_544 S
Tb129 O144 2.325 1_545 S
Tb129 O147 2.303 . S
Tb129 C158 2.764 1_544 S
C130 O146 1.261 1_565 S
C130 O147 1.257 1_565 S
C131 C134 1.358 . S
C131 C135 1.332 . S
C131 C137 1.504 . S
C132 C133 1.373 . S
C132 C136 1.308 . S
C133 C132 1.373 . S
C133 C134 1.429 . S
C133 H160 0.932 . S
C134 C131 1.358 . S
C134 C133 1.429 . S
C134 H161 0.930 . S
C135 C131 1.332 . S
C135 C136 1.394 . S
C135 H162 0.932 . S
C136 C132 1.308 . S
C136 C135 1.394 . S
C136 H163 0.929 . S
C137 Tb128 2.764 . S
C137 C131 1.504 . S
C137 O149 1.239 . S
C137 O150 1.263 . S
O138 Tb128 2.325 . S
O138 C148 1.236 . S
O139 Tb129 2.322 . S
O139 C148 1.257 . S
O140 Tb129 2.349 . S
O140 C151 1.261 . S
O141 Tb128 2.303 . S
O141 C151 1.257 . S
O142 Tb129 2.415 1_566 S
O142 C158 1.239 . S
O143 Tb129 2.399 1_566 S
O143 C158 1.263 . S
O144 Tb129 2.325 1_565 S
O144 C159 1.236 . S
O145 Tb128 2.322 1_565 S
O145 C159 1.257 . S
O146 Tb128 2.349 . S
O146 C130 1.261 1_545 S
O147 Tb129 2.303 . S
O147 C130 1.257 1_545 S
C148 O138 1.236 . S
C148 O139 1.257 . S
O149 Tb128 2.415 . S
O149 C137 1.239 . S
O150 Tb128 2.399 . S
O150 C137 1.263 . S
C151 O140 1.261 . S
C151 O141 1.257 . S
C152 C155 1.358 . S
C152 C156 1.332 . S
C152 C158 1.504 . S
C153 C154 1.373 . S
C153 C157 1.308 . S
C154 C153 1.373 . S
C154 C155 1.429 . S
C154 H164 0.932 . S
C155 C152 1.358 . S
C155 C154 1.429 . S
C155 H165 0.930 . S
C156 C152 1.332 . S
C156 C157 1.394 . S
C156 H166 0.932 . S
C157 C153 1.308 . S
C157 C156 1.394 . S
C157 H167 0.929 . S
C158 Tb129 2.764 1_566 S
C158 O142 1.239 . S
C158 O143 1.263 . S
C158 C152 1.504 . S
C159 O144 1.236 . S
C159 O145 1.257 . S
H160 C133 0.932 . S
H161 C134 0.930 . S
H162 C135 0.932 . S
H163 C136 0.929 . S
H164 C154 0.932 . S
H165 C155 0.930 . S
H166 C156 0.932 . S
H167 C157 0.929 . S
Tb168 C177 2.764 . S
Tb168 O178 2.325 . S
Tb168 O181 2.303 . S
Tb168 O185 2.322 . S
Tb168 O186 2.349 . S
Tb168 O189 2.415 . S
Tb168 O190 2.399 . S
Tb169 O179 2.322 . S
Tb169 O180 2.349 . S
Tb169 O182 2.415 . S
Tb169 O183 2.399 . S
Tb169 O184 2.325 . S
Tb169 O187 2.303 . S
Tb169 C198 2.764 . S
C170 O186 1.261 . S
C170 O187 1.257 . S
C171 C174 1.358 . S
C171 C175 1.332 . S
C171 C177 1.504 . S
C172 C173 1.373 . S
C172 C176 1.308 . S
C173 C172 1.373 . S
C173 C174 1.429 . S
C173 H200 0.932 . S
C174 C171 1.358 . S
C174 C173 1.429 . S
C174 H201 0.930 . S
C175 C171 1.332 . S
C175 C176 1.394 . S
C175 H202 0.932 . S
C176 C172 1.308 . S
C176 C175 1.394 . S
C176 H203 0.929 . S
C177 Tb168 2.764 . S
C177 C171 1.504 . S
C177 O189 1.239 . S
C177 O190 1.263 . S
O178 Tb168 2.325 . S
O178 C188 1.236 . S
O179 Tb169 2.322 . S
O179 C188 1.257 . S
O180 Tb169 2.349 . S
O180 C191 1.261 . S
O181 Tb168 2.303 . S
O181 C191 1.257 . S
O182 Tb169 2.415 . S
O182 C198 1.239 . S
O183 Tb169 2.399 . S
O183 C198 1.263 . S
O184 Tb169 2.325 . S
O184 C199 1.236 . S
O185 Tb168 2.322 . S
O185 C199 1.257 . S
O186 Tb168 2.349 . S
O186 C170 1.261 . S
O187 Tb169 2.303 . S
O187 C170 1.257 . S
C188 O178 1.236 . S
C188 O179 1.257 . S
O189 Tb168 2.415 . S
O189 C177 1.239 . S
O190 Tb168 2.399 . S
O190 C177 1.263 . S
C191 O180 1.261 . S
C191 O181 1.257 . S
C192 C195 1.358 . S
C192 C196 1.332 . S
C192 C198 1.504 . S
C193 C194 1.373 . S
C193 C197 1.308 . S
C194 C193 1.373 . S
C194 C195 1.429 . S
C194 H204 0.932 . S
C195 C192 1.358 . S
C195 C194 1.429 . S
C195 H205 0.930 . S
C196 C192 1.332 . S
C196 C197 1.394 . S
C196 H206 0.932 . S
C197 C193 1.308 . S
C197 C196 1.394 . S
C197 H207 0.929 . S
C198 Tb169 2.764 . S
C198 O182 1.239 . S
C198 O183 1.263 . S
C198 C192 1.504 . S
C199 O184 1.236 . S
C199 O185 1.257 . S
H200 C173 0.932 . S
H201 C174 0.930 . S
H202 C175 0.932 . S
H203 C176 0.929 . S
H204 C194 0.932 . S
H205 C195 0.930 . S
H206 C196 0.932 . S
H207 C197 0.929 . S
Tb208 C217 2.764 1_455 S
Tb208 O218 2.325 1_455 S
Tb208 O221 2.303 1_556 S
Tb208 O225 2.322 1_556 S
Tb208 O226 2.349 . S
Tb208 O229 2.415 1_455 S
Tb208 O230 2.399 . S
Tb209 O219 2.322 1_455 S
Tb209 O220 2.349 . S
Tb209 O222 2.415 . S
Tb209 O223 2.399 . S
Tb209 O224 2.325 . S
Tb209 O227 2.303 1_554 S
Tb209 C238 2.764 . S
C210 O226 1.261 . S
C210 O227 1.257 . S
C211 C214 1.358 . S
C211 C215 1.332 . S
C211 C217 1.504 . S
C212 C213 1.373 . S
C212 C216 1.308 . S
C213 C212 1.373 . S
C213 C214 1.429 . S
C213 H240 0.932 . S
C214 C211 1.358 . S
C214 C213 1.429 . S
C214 H241 0.930 . S
C215 C211 1.332 . S
C215 C216 1.394 . S
C215 H242 0.932 . S
C216 C212 1.308 . S
C216 C215 1.394 . S
C216 H243 0.929 . S
C217 Tb208 2.764 1_655 S
C217 C211 1.504 . S
C217 O229 1.239 . S
C217 O230 1.263 1_655 S
O218 Tb208 2.325 1_655 S
O218 C228 1.236 . S
O219 Tb209 2.322 1_655 S
O219 C228 1.257 1_554 S
O220 Tb209 2.349 . S
O220 C231 1.261 . S
O221 Tb208 2.303 1_554 S
O221 C231 1.257 . S
O222 Tb209 2.415 . S
O222 C238 1.239 . S
O223 Tb209 2.399 . S
O223 C238 1.263 . S
O224 Tb209 2.325 . S
O224 C239 1.236 . S
O225 Tb208 2.322 1_554 S
O225 C239 1.257 . S
O226 Tb208 2.349 . S
O226 C210 1.261 . S
O227 Tb209 2.303 1_556 S
O227 C210 1.257 . S
C228 O218 1.236 . S
C228 O219 1.257 1_556 S
O229 Tb208 2.415 1_655 S
O229 C217 1.239 . S
O230 Tb208 2.399 . S
O230 C217 1.263 1_455 S
C231 O220 1.261 . S
C231 O221 1.257 . S
C232 C235 1.358 . S
C232 C236 1.332 . S
C232 C238 1.504 . S
C233 C234 1.373 . S
C233 C237 1.308 . S
C234 C233 1.373 . S
C234 C235 1.429 . S
C234 H244 0.932 . S
C235 C232 1.358 . S
C235 C234 1.429 . S
C235 H245 0.930 . S
C236 C232 1.332 . S
C236 C237 1.394 . S
C236 H246 0.932 . S
C237 C233 1.308 . S
C237 C236 1.394 . S
C237 H247 0.929 . S
C238 Tb209 2.764 . S
C238 O222 1.239 . S
C238 O223 1.263 . S
C238 C232 1.504 . S
C239 O224 1.236 . S
C239 O225 1.257 . S
H240 C213 0.932 . S
H241 C214 0.930 . S
H242 C215 0.932 . S
H243 C216 0.929 . S
H244 C234 0.932 . S
H245 C235 0.930 . S
H246 C236 0.932 . S
H247 C237 0.929 . S
C248 C249 1.391 . S
C248 C250 1.394 . S
C248 H264 0.931 . S
C249 C248 1.391 . S
C249 C253 1.376 . S
C250 C248 1.394 . S
C250 C251 1.369 . S
C250 C254 1.531 . S
C251 C250 1.369 . S
C251 C252 1.410 . S
C251 C259 1.503 . S
C252 C251 1.410 . S
C252 C253 1.392 . S
C252 C255 1.511 . S
C253 C249 1.376 . S
C253 C252 1.392 . S
C253 H265 0.929 . S
C254 C250 1.531 . S
C254 H266 0.960 . S
C254 H267 0.962 . S
C254 H268 0.960 . S
C255 C252 1.511 . S
C255 H269 0.961 . S
C255 H270 0.961 . S
C255 H271 0.961 . S
C256 C257 1.370 . S
C256 C258 1.363 . S
C256 H272 0.931 . S
C257 C256 1.370 . S
C257 C261 1.408 . S
C258 C256 1.363 . S
C258 C259 1.370 . S
C258 C262 1.524 . S
C259 C251 1.503 . S
C259 C258 1.370 . S
C259 C260 1.403 . S
C260 C259 1.403 . S
C260 C261 1.404 . S
C260 C263 1.539 . S
C261 C257 1.408 . S
C261 C260 1.404 . S
C261 H273 0.930 . S
C262 C258 1.524 . S
C262 H274 0.956 . S
C262 H275 0.961 . S
C262 H276 0.961 . S
C263 C260 1.539 . S
C263 H277 0.958 . S
C263 H278 0.961 . S
C263 H279 0.960 . S
H264 C248 0.931 . S
H265 C253 0.929 . S
H266 C254 0.960 . S
H267 C254 0.962 . S
H268 C254 0.960 . S
H269 C255 0.961 . S
H270 C255 0.961 . S
H271 C255 0.961 . S
H272 C256 0.931 . S
H273 C261 0.930 . S
H274 C262 0.956 . S
H275 C262 0.961 . S
H276 C262 0.961 . S
H277 C263 0.958 . S
H278 C263 0.961 . S
H279 C263 0.960 . S
C280 C281 1.391 . S
C280 C282 1.394 . S
C280 H296 0.931 . S
C281 C280 1.391 . S
C281 C285 1.376 . S
C282 C280 1.394 . S
C282 C283 1.369 . S
C282 C286 1.531 . S
C283 C282 1.369 . S
C283 C284 1.410 . S
C283 C291 1.503 . S
C284 C283 1.410 . S
C284 C285 1.392 . S
C284 C287 1.511 . S
C285 C281 1.376 . S
C285 C284 1.392 . S
C285 H297 0.929 . S
C286 C282 1.531 . S
C286 H298 0.960 . S
C286 H299 0.962 . S
C286 H300 0.960 . S
C287 C284 1.511 . S
C287 H301 0.961 . S
C287 H302 0.961 . S
C287 H303 0.961 . S
C288 C289 1.370 . S
C288 C290 1.363 . S
C288 H304 0.931 . S
C289 C288 1.370 . S
C289 C293 1.408 . S
C290 C288 1.363 . S
C290 C291 1.370 . S
C290 C294 1.524 . S
C291 C283 1.503 . S
C291 C290 1.370 . S
C291 C292 1.403 . S
C292 C291 1.403 . S
C292 C293 1.404 . S
C292 C295 1.539 . S
C293 C289 1.408 . S
C293 C292 1.404 . S
C293 H305 0.930 . S
C294 C290 1.524 . S
C294 H306 0.956 . S
C294 H307 0.961 . S
C294 H308 0.961 . S
C295 C292 1.539 . S
C295 H309 0.958 . S
C295 H310 0.961 . S
C295 H311 0.960 . S
H296 C280 0.931 . S
H297 C285 0.929 . S
H298 C286 0.960 . S
H299 C286 0.962 . S
H300 C286 0.960 . S
H301 C287 0.961 . S
H302 C287 0.961 . S
H303 C287 0.961 . S
H304 C288 0.931 . S
H305 C293 0.930 . S
H306 C294 0.956 . S
H307 C294 0.961 . S
H308 C294 0.961 . S
H309 C295 0.958 . S
H310 C295 0.961 . S
H311 C295 0.960 . S
C312 C313 1.391 . S
C312 C314 1.394 . S
C312 H328 0.931 . S
C313 C312 1.391 . S
C313 C317 1.376 . S
C314 C312 1.394 . S
C314 C315 1.369 . S
C314 C318 1.531 . S
C315 C314 1.369 . S
C315 C316 1.410 . S
C315 C323 1.503 . S
C316 C315 1.410 . S
C316 C317 1.392 . S
C316 C319 1.511 . S
C317 C313 1.376 . S
C317 C316 1.392 . S
C317 H329 0.929 . S
C318 C314 1.531 . S
C318 H330 0.960 . S
C318 H331 0.962 . S
C318 H332 0.960 . S
C319 C316 1.511 . S
C319 H333 0.961 . S
C319 H334 0.961 . S
C319 H335 0.961 . S
C320 C321 1.370 . S
C320 C322 1.363 . S
C320 H336 0.931 . S
C321 C320 1.370 . S
C321 C325 1.408 . S
C322 C320 1.363 . S
C322 C323 1.370 . S
C322 C326 1.524 . S
C323 C315 1.503 . S
C323 C322 1.370 . S
C323 C324 1.403 . S
C324 C323 1.403 . S
C324 C325 1.404 . S
C324 C327 1.539 . S
C325 C321 1.408 . S
C325 C324 1.404 . S
C325 H337 0.930 . S
C326 C322 1.524 . S
C326 H338 0.956 . S
C326 H339 0.961 . S
C326 H340 0.961 . S
C327 C324 1.539 . S
C327 H341 0.958 . S
C327 H342 0.961 . S
C327 H343 0.960 . S
H328 C312 0.931 . S
H329 C317 0.929 . S
H330 C318 0.960 . S
H331 C318 0.962 . S
H332 C318 0.960 . S
H333 C319 0.961 . S
H334 C319 0.961 . S
H335 C319 0.961 . S
H336 C320 0.931 . S
H337 C325 0.930 . S
H338 C326 0.956 . S
H339 C326 0.961 . S
H340 C326 0.961 . S
H341 C327 0.958 . S
H342 C327 0.961 . S
H343 C327 0.960 . S
C344 C345 1.391 . S
C344 C346 1.394 . S
C344 H360 0.931 . S
C345 C344 1.391 . S
C345 C349 1.376 . S
C346 C344 1.394 . S
C346 C347 1.369 . S
C346 C350 1.531 . S
C347 C346 1.369 . S
C347 C348 1.410 . S
C347 C355 1.503 . S
C348 C347 1.410 . S
C348 C349 1.392 . S
C348 C351 1.509 . S
C349 C345 1.376 . S
C349 C348 1.392 . S
C349 H361 0.929 . S
C350 C346 1.531 . S
C350 H362 0.960 . S
C350 H363 0.962 . S
C350 H364 0.960 . S
C351 C348 1.509 . S
C351 H365 0.961 1_655 S
C351 H366 0.961 1_655 S
C351 H367 0.962 1_655 S
C352 C353 1.370 . S
C352 C354 1.363 . S
C352 H368 0.931 . S
C353 C352 1.370 . S
C353 C357 1.408 . S
C354 C352 1.363 . S
C354 C355 1.370 . S
C354 C358 1.524 . S
C355 C347 1.503 . S
C355 C354 1.370 . S
C355 C356 1.403 . S
C356 C355 1.403 . S
C356 C357 1.404 . S
C356 C359 1.539 . S
C357 C353 1.408 . S
C357 C356 1.404 . S
C357 H369 0.930 1_655 S
C358 C354 1.524 . S
C358 H370 0.956 . S
C358 H371 0.961 . S
C358 H372 0.961 . S
C359 C356 1.539 . S
C359 H373 0.958 . S
C359 H374 0.961 1_655 S
C359 H375 0.960 . S
H360 C344 0.931 . S
H361 C349 0.929 . S
H362 C350 0.960 . S
H363 C350 0.962 . S
H364 C350 0.960 . S
H365 C351 0.961 1_455 S
H366 C351 0.961 1_455 S
H367 C351 0.962 1_455 S
H368 C352 0.931 . S
H369 C357 0.930 1_455 S
H370 C358 0.956 . S
H371 C358 0.961 . S
H372 C358 0.961 . S
H373 C359 0.958 . S
H374 C359 0.961 1_455 S
H375 C359 0.960 . S
C376 C377 1.391 . S
C376 C378 1.394 . S
C376 H392 0.931 . S
C377 C376 1.391 . S
C377 C381 1.376 . S
C378 C376 1.394 . S
C378 C379 1.369 . S
C378 C382 1.531 . S
C379 C378 1.369 . S
C379 C380 1.410 . S
C379 C387 1.503 . S
C380 C379 1.410 . S
C380 C381 1.392 . S
C380 C383 1.511 . S
C381 C377 1.376 . S
C381 C380 1.392 . S
C381 H393 0.929 . S
C382 C378 1.531 . S
C382 H394 0.960 . S
C382 H395 0.962 . S
C382 H396 0.960 . S
C383 C380 1.511 . S
C383 H397 0.961 . S
C383 H398 0.961 . S
C383 H399 0.961 . S
C384 C385 1.370 . S
C384 C386 1.363 . S
C384 H400 0.931 . S
C385 C384 1.370 . S
C385 C389 1.408 . S
C386 C384 1.363 . S
C386 C387 1.370 . S
C386 C390 1.524 . S
C387 C379 1.503 . S
C387 C386 1.370 . S
C387 C388 1.403 . S
C388 C387 1.403 . S
C388 C389 1.404 . S
C388 C391 1.539 . S
C389 C385 1.408 . S
C389 C388 1.404 . S
C389 H401 0.930 . S
C390 C386 1.524 . S
C390 H402 0.956 . S
C390 H403 0.961 . S
C390 H404 0.961 . S
C391 C388 1.539 . S
C391 H405 0.958 . S
C391 H406 0.961 . S
C391 H407 0.960 . S
H392 C376 0.931 . S
H393 C381 0.929 . S
H394 C382 0.960 . S
H395 C382 0.962 . S
H396 C382 0.960 . S
H397 C383 0.961 . S
H398 C383 0.961 . S
H399 C383 0.961 . S
H400 C384 0.931 . S
H401 C389 0.930 . S
H402 C390 0.956 . S
H403 C390 0.961 . S
H404 C390 0.961 . S
H405 C391 0.958 . S
H406 C391 0.961 . S
H407 C391 0.960 . S
C408 C409 1.391 . S
C408 C410 1.394 . S
C408 H424 0.931 . S
C409 C408 1.391 . S
C409 C413 1.376 . S
C410 C408 1.394 . S
C410 C411 1.369 . S
C410 C414 1.531 . S
C411 C410 1.369 . S
C411 C412 1.410 . S
C411 C419 1.503 . S
C412 C411 1.410 . S
C412 C413 1.392 . S
C412 C415 1.511 . S
C413 C409 1.376 . S
C413 C412 1.392 . S
C413 H425 0.929 . S
C414 C410 1.531 . S
C414 H426 0.960 . S
C414 H427 0.962 . S
C414 H428 0.960 . S
C415 C412 1.511 . S
C415 H429 0.961 . S
C415 H430 0.961 . S
C415 H431 0.961 . S
C416 C417 1.370 . S
C416 C418 1.363 . S
C416 H432 0.931 . S
C417 C416 1.370 . S
C417 C421 1.408 . S
C418 C416 1.363 . S
C418 C419 1.370 . S
C418 C422 1.537 . S
C419 C411 1.503 . S
C419 C418 1.370 . S
C419 C420 1.403 . S
C420 C419 1.403 . S
C420 C421 1.404 . S
C420 C423 1.539 . S
C421 C417 1.408 . S
C421 C420 1.404 . S
C421 H433 0.930 . S
C422 C418 1.537 . S
C422 H434 0.958 . S
C422 H435 0.960 . S
C422 H436 0.941 1_455 S
C423 C420 1.539 . S
C423 H437 0.958 . S
C423 H438 0.961 . S
C423 H439 0.960 . S
H424 C408 0.931 . S
H425 C413 0.929 . S
H426 C414 0.960 . S
H427 C414 0.962 . S
H428 C414 0.960 . S
H429 C415 0.961 . S
H430 C415 0.961 . S
H431 C415 0.961 . S
H432 C416 0.931 . S
H433 C421 0.930 . S
H434 C422 0.958 . S
H435 C422 0.960 . S
H436 C422 0.941 1_655 S
H437 C423 0.958 . S
H438 C423 0.961 . S
H439 C423 0.960 . S
C440 C441 1.391 . S
C440 C442 1.394 . S
C440 H456 0.931 . S
C441 C440 1.391 . S
C441 C445 1.376 . S
C442 C440 1.394 . S
C442 C443 1.369 . S
C442 C446 1.531 . S
C443 C442 1.369 . S
C443 C444 1.410 . S
C443 C451 1.503 . S
C444 C443 1.410 . S
C444 C445 1.392 . S
C444 C447 1.511 . S
C445 C441 1.376 . S
C445 C444 1.392 . S
C445 H457 0.929 . S
C446 C442 1.531 . S
C446 H458 0.960 . S
C446 H459 0.962 . S
C446 H460 0.960 . S
C447 C444 1.511 . S
C447 H461 0.961 1_556 S
C447 H462 0.961 . S
C447 H463 0.961 1_556 S
C448 C449 1.370 . S
C448 C450 1.363 . S
C448 H464 0.931 . S
C449 C448 1.370 . S
C449 C453 1.408 . S
C450 C448 1.363 . S
C450 C451 1.370 . S
C450 C454 1.524 . S
C451 C443 1.503 . S
C451 C450 1.370 . S
C451 C452 1.403 . S
C452 C451 1.403 . S
C452 C453 1.404 . S
C452 C455 1.539 . S
C453 C449 1.408 . S
C453 C452 1.404 . S
C453 H465 0.930 1_556 S
C454 C450 1.524 . S
C454 H466 0.956 . S
C454 H467 0.961 . S
C454 H468 0.961 . S
C455 C452 1.539 . S
C455 H469 0.958 . S
C455 H470 0.961 1_556 S
C455 H471 0.960 . S
H456 C440 0.931 . S
H457 C445 0.929 . S
H458 C446 0.960 . S
H459 C446 0.962 . S
H460 C446 0.960 . S
H461 C447 0.961 1_554 S
H462 C447 0.961 . S
H463 C447 0.961 1_554 S
H464 C448 0.931 . S
H465 C453 0.930 1_554 S
H466 C454 0.956 . S
H467 C454 0.961 . S
H468 C454 0.961 . S
H469 C455 0.958 . S
H470 C455 0.961 1_554 S
H471 C455 0.960 . S
C472 C473 1.391 . S
C472 C474 1.394 . S
C472 H488 0.931 . S
C473 C472 1.391 . S
C473 C477 1.376 . S
C474 C472 1.394 . S
C474 C475 1.369 . S
C474 C478 1.531 . S
C475 C474 1.369 . S
C475 C476 1.410 . S
C475 C483 1.503 . S
C476 C475 1.410 . S
C476 C477 1.392 . S
C476 C479 1.511 . S
C477 C473 1.376 . S
C477 C476 1.392 . S
C477 H489 0.929 . S
C478 C474 1.531 . S
C478 H490 0.960 . S
C478 H491 0.962 . S
C478 H492 0.960 . S
C479 C476 1.511 . S
C479 H493 0.961 . S
C479 H494 0.961 . S
C479 H495 0.961 . S
C480 C481 1.370 . S
C480 C482 1.363 . S
C480 H496 0.931 . S
C481 C480 1.370 . S
C481 C485 1.408 . S
C482 C480 1.363 . S
C482 C483 1.370 . S
C482 C486 1.524 . S
C483 C475 1.503 . S
C483 C482 1.370 . S
C483 C484 1.403 . S
C484 C483 1.403 . S
C484 C485 1.404 . S
C484 C487 1.539 . S
C485 C481 1.408 . S
C485 C484 1.404 . S
C485 H497 0.930 . S
C486 C482 1.524 . S
C486 H498 0.956 . S
C486 H499 0.961 . S
C486 H500 0.961 . S
C487 C484 1.539 . S
C487 H501 0.958 . S
C487 H502 0.961 . S
C487 H503 0.960 . S
H488 C472 0.931 . S
H489 C477 0.929 . S
H490 C478 0.960 . S
H491 C478 0.962 . S
H492 C478 0.960 . S
H493 C479 0.961 . S
H494 C479 0.961 . S
H495 C479 0.961 . S
H496 C480 0.931 . S
H497 C485 0.930 . S
H498 C486 0.956 . S
H499 C486 0.961 . S
H500 C486 0.961 . S
H501 C487 0.958 . S
H502 C487 0.961 . S
H503 C487 0.960 . S
C504 C505 1.391 . S
C504 C506 1.394 . S
C504 H520 0.931 . S
C505 C504 1.391 . S
C505 C509 1.376 . S
C506 C504 1.394 . S
C506 C507 1.369 . S
C506 C510 1.531 . S
C507 C506 1.369 . S
C507 C508 1.410 . S
C507 C515 1.503 . S
C508 C507 1.410 . S
C508 C509 1.392 . S
C508 C511 1.511 . S
C509 C505 1.376 . S
C509 C508 1.392 . S
C509 H521 0.929 . S
C510 C506 1.531 . S
C510 H522 0.960 . S
C510 H523 0.962 . S
C510 H524 0.960 . S
C511 C508 1.511 . S
C511 H525 0.961 . S
C511 H526 0.961 . S
C511 H527 0.961 . S
C512 C513 1.370 . S
C512 C514 1.363 . S
C512 H528 0.931 . S
C513 C512 1.370 . S
C513 C517 1.408 . S
C514 C512 1.363 . S
C514 C515 1.370 . S
C514 C518 1.524 . S
C515 C507 1.503 . S
C515 C514 1.370 . S
C515 C516 1.403 . S
C516 C515 1.403 . S
C516 C517 1.404 . S
C516 C519 1.539 . S
C517 C513 1.408 . S
C517 C516 1.404 . S
C517 H529 0.930 . S
C518 C514 1.524 . S
C518 H530 0.956 . S
C518 H531 0.961 . S
C518 H532 0.961 . S
C519 C516 1.539 . S
C519 H533 0.958 . S
C519 H534 0.961 . S
C519 H535 0.960 . S
H520 C504 0.931 . S
H521 C509 0.929 . S
H522 C510 0.960 . S
H523 C510 0.962 . S
H524 C510 0.960 . S
H525 C511 0.961 . S
H526 C511 0.961 . S
H527 C511 0.961 . S
H528 C512 0.931 . S
H529 C517 0.930 . S
H530 C518 0.956 . S
H531 C518 0.961 . S
H532 C518 0.961 . S
H533 C519 0.958 . S
H534 C519 0.961 . S
H535 C519 0.960 . S
C536 C537 1.391 . S
C536 C538 1.394 . S
C536 H552 0.931 . S
C537 C536 1.391 . S
C537 C541 1.376 . S
C538 C536 1.394 . S
C538 C539 1.369 . S
C538 C542 1.531 . S
C539 C538 1.369 . S
C539 C540 1.410 . S
C539 C547 1.503 . S
C540 C539 1.410 . S
C540 C541 1.392 . S
C540 C543 1.511 1_556 S
C541 C537 1.376 . S
C541 C540 1.392 . S
C541 H553 0.929 . S
C542 C538 1.531 . S
C542 H554 0.960 . S
C542 H555 0.962 . S
C542 H556 0.960 . S
C543 C540 1.511 1_554 S
C543 H557 0.961 . S
C543 H558 0.961 . S
C543 H559 0.961 . S
C544 C545 1.370 . S
C544 C546 1.363 1_554 S
C544 H560 0.931 . S
C545 C544 1.370 . S
C545 C549 1.408 1_554 S
C546 C544 1.363 1_556 S
C546 C547 1.370 . S
C546 C550 1.524 . S
C547 C539 1.503 . S
C547 C546 1.370 . S
C547 C548 1.403 . S
C548 C547 1.403 . S
C548 C549 1.404 . S
C548 C551 1.539 . S
C549 C545 1.408 1_556 S
C549 C548 1.404 . S
C549 H561 0.930 . S
C550 C546 1.524 . S
C550 H562 0.956 . S
C550 H563 0.958 1_556 S
C550 H564 0.961 1_556 S
C551 C548 1.539 . S
C551 H565 0.958 . S
C551 H566 0.961 . S
C551 H567 0.960 . S
H552 C536 0.931 . S
H553 C541 0.929 . S
H554 C542 0.960 . S
H555 C542 0.962 . S
H556 C542 0.960 . S
H557 C543 0.961 . S
H558 C543 0.961 . S
H559 C543 0.961 . S
H560 C544 0.931 . S
H561 C549 0.930 . S
H562 C550 0.956 . S
H563 C550 0.958 1_554 S
H564 C550 0.961 1_554 S
H565 C551 0.958 . S
H566 C551 0.961 . S
H567 C551 0.960 . S
C568 C569 1.391 . S
C568 C570 1.394 . S
C568 H584 0.931 . S
C569 C568 1.391 . S
C569 C573 1.376 . S
C570 C568 1.394 . S
C570 C571 1.369 . S
C570 C574 1.531 . S
C571 C570 1.369 . S
C571 C572 1.410 . S
C571 C579 1.503 . S
C572 C571 1.410 . S
C572 C573 1.392 . S
C572 C575 1.511 . S
C573 C569 1.376 . S
C573 C572 1.392 . S
C573 H585 0.929 . S
C574 C570 1.531 . S
C574 H586 0.960 . S
C574 H587 0.962 . S
C574 H588 0.960 . S
C575 C572 1.511 . S
C575 H589 0.961 . S
C575 H590 0.961 . S
C575 H591 0.961 1_655 S
C576 C577 1.370 . S
C576 C578 1.363 . S
C576 H592 0.931 . S
C577 C576 1.370 . S
C577 C581 1.408 . S
C578 C576 1.363 . S
C578 C579 1.370 . S
C578 C582 1.524 . S
C579 C571 1.503 . S
C579 C578 1.370 . S
C579 C580 1.403 . S
C580 C579 1.403 . S
C580 C581 1.404 . S
C580 C583 1.539 . S
C581 C577 1.408 . S
C581 C580 1.404 . S
C581 H593 0.930 . S
C582 C578 1.524 . S
C582 H594 0.956 . S
C582 H595 0.961 . S
C582 H596 0.961 . S
C583 C580 1.539 . S
C583 H597 0.958 . S
C583 H598 0.961 1_655 S
C583 H599 0.960 . S
H584 C568 0.931 . S
H585 C573 0.929 . S
H586 C574 0.960 . S
H587 C574 0.962 . S
H588 C574 0.960 . S
H589 C575 0.961 . S
H590 C575 0.961 . S
H591 C575 0.961 1_455 S
H592 C576 0.931 . S
H593 C581 0.930 . S
H594 C582 0.956 . S
H595 C582 0.961 . S
H596 C582 0.961 . S
H597 C583 0.958 . S
H598 C583 0.961 1_455 S
H599 C583 0.960 . S
C600 C601 1.391 . S
C600 C602 1.394 . S
C600 H616 0.931 . S
C601 C600 1.391 . S
C601 C605 1.376 . S
C602 C600 1.394 . S
C602 C603 1.369 . S
C602 C606 1.531 . S
C603 C602 1.369 . S
C603 C604 1.410 . S
C603 C611 1.503 . S
C604 C603 1.410 . S
C604 C605 1.392 . S
C604 C607 1.511 . S
C605 C601 1.376 . S
C605 C604 1.392 . S
C605 H617 0.929 . S
C606 C602 1.531 . S
C606 H618 0.960 . S
C606 H619 0.962 . S
C606 H620 0.960 . S
C607 C604 1.511 . S
C607 H621 0.961 . S
C607 H622 0.961 . S
C607 H623 0.961 . S
C608 C609 1.370 . S
C608 C610 1.363 . S
C608 H624 0.931 . S
C609 C608 1.370 . S
C609 C613 1.408 . S
C610 C608 1.363 . S
C610 C611 1.370 . S
C610 C614 1.524 . S
C611 C603 1.503 . S
C611 C610 1.370 . S
C611 C612 1.403 . S
C612 C611 1.403 . S
C612 C613 1.404 . S
C612 C615 1.539 . S
C613 C609 1.408 . S
C613 C612 1.404 . S
C613 H625 0.930 . S
C614 C610 1.524 . S
C614 H626 0.956 . S
C614 H627 0.961 . S
C614 H628 0.961 . S
C615 C612 1.539 . S
C615 H629 0.958 . S
C615 H630 0.961 . S
C615 H631 0.960 . S
H616 C600 0.931 . S
H617 C605 0.929 . S
H618 C606 0.960 . S
H619 C606 0.962 . S
H620 C606 0.960 . S
H621 C607 0.961 . S
H622 C607 0.961 . S
H623 C607 0.961 . S
H624 C608 0.931 . S
H625 C613 0.930 . S
H626 C614 0.956 . S
H627 C614 0.961 . S
H628 C614 0.961 . S
H629 C615 0.958 . S
H630 C615 0.961 . S
H631 C615 0.960 . S
C632 C633 1.391 . S
C632 C634 1.394 . S
C632 H648 0.931 . S
C633 C632 1.391 . S
C633 C637 1.376 . S
C634 C632 1.394 . S
C634 C635 1.369 . S
C634 C638 1.531 . S
C635 C634 1.369 . S
C635 C636 1.410 . S
C635 C643 1.503 . S
C636 C635 1.410 . S
C636 C637 1.392 . S
C636 C639 1.511 . S
C637 C633 1.376 . S
C637 C636 1.392 . S
C637 H649 0.929 . S
C638 C634 1.531 . S
C638 H650 0.960 . S
C638 H651 0.962 . S
C638 H652 0.960 . S
C639 C636 1.511 . S
C639 H653 0.961 . S
C639 H654 0.961 . S
C639 H655 0.961 . S
C640 C641 1.370 . S
C640 C642 1.363 . S
C640 H656 0.931 . S
C641 C640 1.370 . S
C641 C645 1.408 . S
C642 C640 1.363 . S
C642 C643 1.370 . S
C642 C646 1.524 . S
C643 C635 1.503 . S
C643 C642 1.370 . S
C643 C644 1.403 . S
C644 C643 1.403 . S
C644 C645 1.404 . S
C644 C647 1.539 . S
C645 C641 1.408 . S
C645 C644 1.404 . S
C645 H657 0.930 . S
C646 C642 1.524 . S
C646 H658 0.956 . S
C646 H659 0.961 . S
C646 H660 0.961 . S
C647 C644 1.539 . S
C647 H661 0.958 . S
C647 H662 0.961 . S
C647 H663 0.960 . S
H648 C632 0.931 . S
H649 C637 0.929 . S
H650 C638 0.960 . S
H651 C638 0.962 . S
H652 C638 0.960 . S
H653 C639 0.961 . S
H654 C639 0.961 . S
H655 C639 0.961 . S
H656 C640 0.931 . S
H657 C645 0.930 . S
H658 C646 0.956 . S
H659 C646 0.961 . S
H660 C646 0.961 . S
H661 C647 0.958 . S
H662 C647 0.961 . S
H663 C647 0.960 . S
C664 C665 1.391 . S
C664 C666 1.394 . S
C664 H680 0.931 . S
C665 C664 1.391 . S
C665 C669 1.376 . S
C666 C664 1.394 . S
C666 C667 1.369 . S
C666 C670 1.531 . S
C667 C666 1.369 . S
C667 C668 1.410 . S
C667 C675 1.503 . S
C668 C667 1.410 . S
C668 C669 1.392 . S
C668 C671 1.511 . S
C669 C665 1.376 . S
C669 C668 1.392 . S
C669 H681 0.929 . S
C670 C666 1.531 . S
C670 H682 0.960 . S
C670 H683 0.962 . S
C670 H684 0.960 . S
C671 C668 1.511 . S
C671 H685 0.961 . S
C671 H686 0.961 . S
C671 H687 0.961 . S
C672 C673 1.370 . S
C672 C674 1.363 . S
C672 H688 0.931 . S
C673 C672 1.370 . S
C673 C677 1.408 . S
C674 C672 1.363 . S
C674 C675 1.370 . S
C674 C678 1.524 . S
C675 C667 1.503 . S
C675 C674 1.370 . S
C675 C676 1.403 . S
C676 C675 1.403 . S
C676 C677 1.404 . S
C676 C679 1.539 . S
C677 C673 1.408 . S
C677 C676 1.404 . S
C677 H689 0.930 . S
C678 C674 1.524 . S
C678 H690 0.956 . S
C678 H691 0.961 . S
C678 H692 0.961 . S
C679 C676 1.539 . S
C679 H693 0.958 . S
C679 H694 0.961 . S
C679 H695 0.960 . S
H680 C664 0.931 . S
H681 C669 0.929 . S
H682 C670 0.960 . S
H683 C670 0.962 . S
H684 C670 0.960 . S
H685 C671 0.961 . S
H686 C671 0.961 . S
H687 C671 0.961 . S
H688 C672 0.931 . S
H689 C677 0.930 . S
H690 C678 0.956 . S
H691 C678 0.961 . S
H692 C678 0.961 . S
H693 C679 0.958 . S
H694 C679 0.961 . S
H695 C679 0.960 . S
C696 C697 1.391 . S
C696 C698 1.394 . S
C696 H712 0.931 . S
C697 C696 1.391 . S
C697 C701 1.376 . S
C698 C696 1.394 . S
C698 C699 1.369 . S
C698 C702 1.531 . S
C699 C698 1.369 . S
C699 C700 1.410 . S
C699 C707 1.503 . S
C700 C699 1.410 . S
C700 C701 1.392 . S
C700 C703 1.511 . S
C701 C697 1.376 . S
C701 C700 1.392 . S
C701 H713 0.929 . S
C702 C698 1.531 . S
C702 H714 0.960 . S
C702 H715 0.962 . S
C702 H716 0.960 . S
C703 C700 1.511 . S
C703 H717 0.961 . S
C703 H718 0.961 . S
C703 H719 0.961 . S
C704 C705 1.370 . S
C704 C706 1.363 . S
C704 H720 0.931 . S
C705 C704 1.370 . S
C705 C709 1.408 . S
C706 C704 1.363 . S
C706 C707 1.370 . S
C706 C710 1.524 . S
C707 C699 1.503 . S
C707 C706 1.370 . S
C707 C708 1.403 . S
C708 C707 1.403 . S
C708 C709 1.404 . S
C708 C711 1.539 . S
C709 C705 1.408 . S
C709 C708 1.404 . S
C709 H721 0.930 . S
C710 C706 1.524 . S
C710 H722 0.956 . S
C710 H723 0.961 . S
C710 H724 0.961 . S
C711 C708 1.539 . S
C711 H725 0.958 . S
C711 H726 0.961 . S
C711 H727 0.960 . S
H712 C696 0.931 . S
H713 C701 0.929 . S
H714 C702 0.960 . S
H715 C702 0.962 . S
H716 C702 0.960 . S
H717 C703 0.961 . S
H718 C703 0.961 . S
H719 C703 0.961 . S
H720 C704 0.931 . S
H721 C709 0.930 . S
H722 C710 0.956 . S
H723 C710 0.961 . S
H724 C710 0.961 . S
H725 C711 0.958 . S
H726 C711 0.961 . S
H727 C711 0.960 . S
C728 C729 1.391 . S
C728 C730 1.394 . S
C728 H744 0.931 . S
C729 C728 1.391 . S
C729 C733 1.376 . S
C730 C728 1.394 . S
C730 C731 1.369 . S
C730 C734 1.531 . S
C731 C730 1.369 . S
C731 C732 1.410 . S
C731 C739 1.503 . S
C732 C731 1.410 . S
C732 C733 1.392 . S
C732 C735 1.511 . S
C733 C729 1.376 . S
C733 C732 1.392 . S
C733 H745 0.929 . S
C734 C730 1.531 . S
C734 H746 0.960 . S
C734 H747 0.962 . S
C734 H748 0.960 . S
C735 C732 1.511 . S
C735 H749 0.961 . S
C735 H750 0.961 . S
C735 H751 0.961 . S
C736 C737 1.370 . S
C736 C738 1.363 . S
C736 H752 0.931 . S
C737 C736 1.370 . S
C737 C741 1.408 . S
C738 C736 1.363 . S
C738 C739 1.370 . S
C738 C742 1.524 . S
C739 C731 1.503 . S
C739 C738 1.370 . S
C739 C740 1.403 . S
C740 C739 1.403 . S
C740 C741 1.404 . S
C740 C743 1.539 . S
C741 C737 1.408 . S
C741 C740 1.404 . S
C741 H753 0.930 . S
C742 C738 1.524 . S
C742 H754 0.956 . S
C742 H755 0.961 . S
C742 H756 0.961 . S
C743 C740 1.539 . S
C743 H757 0.958 . S
C743 H758 0.961 . S
C743 H759 0.960 . S
H744 C728 0.931 . S
H745 C733 0.929 . S
H746 C734 0.960 . S
H747 C734 0.962 . S
H748 C734 0.960 . S
H749 C735 0.961 . S
H750 C735 0.961 . S
H751 C735 0.961 . S
H752 C736 0.931 . S
H753 C741 0.930 . S
H754 C742 0.956 . S
H755 C742 0.961 . S
H756 C742 0.961 . S
H757 C743 0.958 . S
H758 C743 0.961 . S
H759 C743 0.960 . S
C760 C761 1.391 . S
C760 C762 1.394 . S
C760 H776 0.931 . S
C761 C760 1.391 . S
C761 C765 1.376 . S
C762 C760 1.394 . S
C762 C763 1.369 . S
C762 C766 1.531 . S
C763 C762 1.369 . S
C763 C764 1.410 . S
C763 C771 1.503 . S
C764 C763 1.410 . S
C764 C765 1.392 . S
C764 C767 1.511 1_556 S
C765 C761 1.376 . S
C765 C764 1.392 . S
C765 H777 0.929 . S
C766 C762 1.531 . S
C766 H778 0.960 . S
C766 H779 0.962 . S
C766 H780 0.960 . S
C767 C764 1.511 1_554 S
C767 H781 0.961 . S
C767 H782 0.961 . S
C767 H783 0.961 . S
C768 C769 1.370 1_556 S
C768 C770 1.363 . S
C768 H784 0.951 1_556 S
C769 C768 1.370 1_554 S
C769 C773 1.408 1_554 S
C770 C768 1.363 . S
C770 C771 1.370 . S
C770 C774 1.524 . S
C771 C763 1.503 . S
C771 C770 1.370 . S
C771 C772 1.403 . S
C772 C771 1.403 . S
C772 C773 1.404 . S
C772 C775 1.539 . S
C773 C769 1.408 1_556 S
C773 C772 1.404 . S
C773 H785 0.930 1_556 S
C774 C770 1.524 . S
C774 H786 0.956 . S
C774 H787 0.961 . S
C774 H788 0.961 . S
C775 C772 1.539 . S
C775 H789 0.958 . S
C775 H790 0.961 . S
C775 H791 0.960 . S
H776 C760 0.931 . S
H777 C765 0.929 . S
H778 C766 0.960 . S
H779 C766 0.962 . S
H780 C766 0.960 . S
H781 C767 0.961 . S
H782 C767 0.961 . S
H783 C767 0.961 . S
H784 C768 0.951 1_554 S
H785 C773 0.930 1_554 S
H786 C774 0.956 . S
H787 C774 0.961 . S
H788 C774 0.961 . S
H789 C775 0.958 . S
H790 C775 0.961 . S
H791 C775 0.960 . S
C792 C793 1.391 . S
C792 C794 1.394 . S
C792 H808 0.931 . S
C793 C792 1.391 . S
C793 C797 1.376 . S
C794 C792 1.394 . S
C794 C795 1.369 . S
C794 C798 1.531 . S
C795 C794 1.369 . S
C795 C796 1.410 . S
C795 C803 1.503 . S
C796 C795 1.410 . S
C796 C797 1.392 . S
C796 C799 1.511 . S
C797 C793 1.376 . S
C797 C796 1.392 . S
C797 H809 0.929 . S
C798 C794 1.531 . S
C798 H810 0.960 . S
C798 H811 0.962 . S
C798 H812 0.960 . S
C799 C796 1.511 . S
C799 H813 0.961 . S
C799 H814 0.961 . S
C799 H815 0.961 1_655 S
C800 C801 1.370 . S
C800 C802 1.363 . S
C800 H816 0.931 . S
C801 C800 1.370 . S
C801 C805 1.408 . S
C802 C800 1.363 . S
C802 C803 1.370 . S
C802 C806 1.524 . S
C803 C795 1.503 . S
C803 C802 1.370 . S
C803 C804 1.403 . S
C804 C803 1.403 . S
C804 C805 1.404 . S
C804 C807 1.539 1_655 S
C805 C801 1.408 . S
C805 C804 1.404 . S
C805 H817 0.930 1_655 S
C806 C802 1.524 . S
C806 H818 0.956 . S
C806 H819 0.961 . S
C806 H820 0.961 . S
C807 C804 1.539 1_455 S
C807 H821 0.958 . S
C807 H822 0.961 . S
C807 H823 0.960 . S
H808 C792 0.931 . S
H809 C797 0.929 . S
H810 C798 0.960 . S
H811 C798 0.962 . S
H812 C798 0.960 . S
H813 C799 0.961 . S
H814 C799 0.961 . S
H815 C799 0.961 1_455 S
H816 C800 0.931 . S
H817 C805 0.930 1_455 S
H818 C806 0.956 . S
H819 C806 0.961 . S
H820 C806 0.961 . S
H821 C807 0.958 . S
H822 C807 0.961 . S
H823 C807 0.960 . S
C824 C825 1.391 . S
C824 C826 1.394 . S
C824 H840 0.931 . S
C825 C824 1.391 . S
C825 C829 1.376 . S
C826 C824 1.394 . S
C826 C827 1.369 . S
C826 C830 1.531 . S
C827 C826 1.369 . S
C827 C828 1.410 . S
C827 C835 1.503 . S
C828 C827 1.410 . S
C828 C829 1.392 . S
C828 C831 1.511 . S
C829 C825 1.376 . S
C829 C828 1.392 . S
C829 H841 0.929 . S
C830 C826 1.531 . S
C830 H842 0.960 . S
C830 H843 0.962 . S
C830 H844 0.960 . S
C831 C828 1.511 . S
C831 H845 0.961 . S
C831 H846 0.961 . S
C831 H847 0.961 . S
C832 C833 1.370 . S
C832 C834 1.363 . S
C832 H848 0.931 . S
C833 C832 1.370 . S
C833 C837 1.408 . S
C834 C832 1.363 . S
C834 C835 1.370 . S
C834 C838 1.524 . S
C835 C827 1.503 . S
C835 C834 1.370 . S
C835 C836 1.403 . S
C836 C835 1.403 . S
C836 C837 1.404 . S
C836 C839 1.539 . S
C837 C833 1.408 . S
C837 C836 1.404 . S
C837 H849 0.930 . S
C838 C834 1.524 . S
C838 H850 0.956 . S
C838 H851 0.961 . S
C838 H852 0.961 . S
C839 C836 1.539 . S
C839 H853 0.958 . S
C839 H854 0.961 . S
C839 H855 0.960 . S
H840 C824 0.931 . S
H841 C829 0.929 . S
H842 C830 0.960 . S
H843 C830 0.962 . S
H844 C830 0.960 . S
H845 C831 0.961 . S
H846 C831 0.961 . S
H847 C831 0.961 . S
H848 C832 0.931 . S
H849 C837 0.930 . S
H850 C838 0.956 . S
H851 C838 0.961 . S
H852 C838 0.961 . S
H853 C839 0.958 . S
H854 C839 0.961 . S
H855 C839 0.960 . S
C856 C857 1.391 . S
C856 C858 1.394 . S
C856 H872 0.931 . S
C857 C856 1.391 . S
C857 C861 1.376 . S
C858 C856 1.394 . S
C858 C859 1.369 . S
C858 C862 1.531 . S
C859 C858 1.369 . S
C859 C860 1.410 . S
C859 C867 1.503 . S
C860 C859 1.410 . S
C860 C861 1.392 . S
C860 C863 1.511 . S
C861 C857 1.376 . S
C861 C860 1.392 . S
C861 H873 0.929 . S
C862 C858 1.531 . S
C862 H874 0.960 . S
C862 H875 0.962 . S
C862 H876 0.960 . S
C863 C860 1.511 . S
C863 H877 0.961 . S
C863 H878 0.961 . S
C863 H879 0.961 . S
C864 C865 1.370 . S
C864 C866 1.363 . S
C864 H880 0.931 . S
C865 C864 1.370 . S
C865 C869 1.408 . S
C866 C864 1.363 . S
C866 C867 1.370 . S
C866 C870 1.524 . S
C867 C859 1.503 . S
C867 C866 1.370 . S
C867 C868 1.403 . S
C868 C867 1.403 . S
C868 C869 1.404 . S
C868 C871 1.539 . S
C869 C865 1.408 . S
C869 C868 1.404 . S
C869 H881 0.930 . S
C870 C866 1.524 . S
C870 H882 0.956 . S
C870 H883 0.961 . S
C870 H884 0.961 . S
C871 C868 1.539 . S
C871 H885 0.958 . S
C871 H886 0.961 . S
C871 H887 0.960 . S
H872 C856 0.931 . S
H873 C861 0.929 . S
H874 C862 0.960 . S
H875 C862 0.962 . S
H876 C862 0.960 . S
H877 C863 0.961 . S
H878 C863 0.961 . S
H879 C863 0.961 . S
H880 C864 0.931 . S
H881 C869 0.930 . S
H882 C870 0.956 . S
H883 C870 0.961 . S
H884 C870 0.961 . S
H885 C871 0.958 . S
H886 C871 0.961 . S
H887 C871 0.960 . S
C888 C889 1.391 . S
C888 C890 1.394 . S
C888 H904 0.931 . S
C889 C888 1.391 . S
C889 C893 1.376 . S
C890 C888 1.394 . S
C890 C891 1.369 . S
C890 C894 1.531 . S
C891 C890 1.369 . S
C891 C892 1.410 . S
C891 C899 1.503 . S
C892 C891 1.410 . S
C892 C893 1.392 . S
C892 C895 1.511 . S
C893 C889 1.376 . S
C893 C892 1.392 . S
C893 H905 0.929 . S
C894 C890 1.531 . S
C894 H906 0.960 . S
C894 H907 0.962 . S
C894 H908 0.960 . S
C895 C892 1.511 . S
C895 H909 0.961 . S
C895 H910 0.961 . S
C895 H911 0.961 . S
C896 C897 1.370 . S
C896 C898 1.363 . S
C896 H912 0.931 . S
C897 C896 1.370 . S
C897 C901 1.408 . S
C898 C896 1.363 . S
C898 C899 1.370 . S
C898 C902 1.524 . S
C899 C891 1.503 . S
C899 C898 1.370 . S
C899 C900 1.403 . S
C900 C899 1.403 . S
C900 C901 1.404 . S
C900 C903 1.539 . S
C901 C897 1.408 . S
C901 C900 1.404 . S
C901 H913 0.930 . S
C902 C898 1.524 . S
C902 H914 0.956 . S
C902 H915 0.961 . S
C902 H916 0.961 . S
C903 C900 1.539 . S
C903 H917 0.958 . S
C903 H918 0.961 . S
C903 H919 0.960 . S
H904 C888 0.931 . S
H905 C893 0.929 . S
H906 C894 0.960 . S
H907 C894 0.962 . S
H908 C894 0.960 . S
H909 C895 0.961 . S
H910 C895 0.961 . S
H911 C895 0.961 . S
H912 C896 0.931 . S
H913 C901 0.930 . S
H914 C902 0.956 . S
H915 C902 0.961 . S
H916 C902 0.961 . S
H917 C903 0.958 . S
H918 C903 0.961 . S
H919 C903 0.960 . S
C920 C921 1.391 . S
C920 C922 1.394 . S
C920 H936 0.931 . S
C921 C920 1.391 . S
C921 C925 1.376 . S
C922 C920 1.394 . S
C922 C923 1.369 . S
C922 C926 1.531 . S
C923 C922 1.369 . S
C923 C924 1.410 . S
C923 C931 1.503 . S
C924 C923 1.410 . S
C924 C925 1.392 . S
C924 C927 1.511 . S
C925 C921 1.376 . S
C925 C924 1.392 . S
C925 H937 0.929 . S
C926 C922 1.531 . S
C926 H938 0.960 . S
C926 H939 0.962 . S
C926 H940 0.960 . S
C927 C924 1.511 . S
C927 H941 0.961 . S
C927 H942 0.961 . S
C927 H943 0.961 . S
C928 C929 1.370 . S
C928 C930 1.363 . S
C928 H944 0.931 . S
C929 C928 1.370 . S
C929 C933 1.408 . S
C930 C928 1.363 . S
C930 C931 1.370 . S
C930 C934 1.524 . S
C931 C923 1.503 . S
C931 C930 1.370 . S
C931 C932 1.403 . S
C932 C931 1.403 . S
C932 C933 1.404 . S
C932 C935 1.539 . S
C933 C929 1.408 . S
C933 C932 1.404 . S
C933 H945 0.930 . S
C934 C930 1.524 . S
C934 H946 0.956 . S
C934 H947 0.961 . S
C934 H948 0.961 . S
C935 C932 1.539 . S
C935 H949 0.958 . S
C935 H950 0.961 . S
C935 H951 0.960 . S
H936 C920 0.931 . S
H937 C925 0.929 . S
H938 C926 0.960 . S
H939 C926 0.962 . S
H940 C926 0.960 . S
H941 C927 0.961 . S
H942 C927 0.961 . S
H943 C927 0.961 . S
H944 C928 0.931 . S
H945 C933 0.930 . S
H946 C934 0.956 . S
H947 C934 0.961 . S
H948 C934 0.961 . S
H949 C935 0.958 . S
H950 C935 0.961 . S
H951 C935 0.960 . S
C952 C953 1.391 . S
C952 C954 1.394 . S
C952 H968 0.931 . S
C953 C952 1.391 . S
C953 C957 1.376 . S
C954 C952 1.394 . S
C954 C955 1.369 . S
C954 C958 1.531 . S
C955 C954 1.369 . S
C955 C956 1.410 . S
C955 C963 1.503 . S
C956 C955 1.410 . S
C956 C957 1.392 . S
C956 C959 1.511 . S
C957 C953 1.376 . S
C957 C956 1.392 . S
C957 H969 0.929 . S
C958 C954 1.531 . S
C958 H970 0.960 . S
C958 H971 0.962 . S
C958 H972 0.960 . S
C959 C956 1.511 . S
C959 H973 0.961 . S
C959 H974 0.961 . S
C959 H975 0.961 . S
C960 C961 1.370 . S
C960 C962 1.363 . S
C960 H976 0.931 . S
C961 C960 1.370 . S
C961 C965 1.408 . S
C962 C960 1.363 . S
C962 C963 1.370 . S
C962 C966 1.524 . S
C963 C955 1.503 . S
C963 C962 1.370 . S
C963 C964 1.403 . S
C964 C963 1.403 . S
C964 C965 1.404 . S
C964 C967 1.539 . S
C965 C961 1.408 . S
C965 C964 1.404 . S
C965 H977 0.930 . S
C966 C962 1.524 . S
C966 H978 0.956 . S
C966 H979 0.961 . S
C966 H980 0.961 . S
C967 C964 1.539 . S
C967 H981 0.958 . S
C967 H982 0.961 . S
C967 H983 0.960 . S
H968 C952 0.931 . S
H969 C957 0.929 . S
H970 C958 0.960 . S
H971 C958 0.962 . S
H972 C958 0.960 . S
H973 C959 0.961 . S
H974 C959 0.961 . S
H975 C959 0.961 . S
H976 C960 0.931 . S
H977 C965 0.930 . S
H978 C966 0.956 . S
H979 C966 0.961 . S
H980 C966 0.961 . S
H981 C967 0.958 . S
H982 C967 0.961 . S
H983 C967 0.960 . S
C984 C985 1.391 . S
C984 C986 1.394 . S
C984 H1000 0.931 . S
C985 C984 1.391 . S
C985 C989 1.376 . S
C986 C984 1.394 . S
C986 C987 1.369 . S
C986 C990 1.531 . S
C987 C986 1.369 . S
C987 C988 1.410 . S
C987 C995 1.503 . S
C988 C987 1.410 . S
C988 C989 1.392 . S
C988 C991 1.511 . S
C989 C985 1.376 . S
C989 C988 1.392 . S
C989 H1001 0.929 . S
C990 C986 1.531 . S
C990 H1002 0.960 . S
C990 H1003 0.962 . S
C990 H1004 0.960 . S
C991 C988 1.511 . S
C991 H1005 0.961 . S
C991 H1006 0.961 . S
C991 H1007 0.961 . S
C992 C993 1.370 . S
C992 C994 1.363 . S
C992 H1008 0.931 . S
C993 C992 1.370 . S
C993 C997 1.408 . S
C994 C992 1.363 . S
C994 C995 1.370 . S
C994 C998 1.524 . S
C995 C987 1.503 . S
C995 C994 1.370 . S
C995 C996 1.403 . S
C996 C995 1.403 . S
C996 C997 1.404 . S
C996 C999 1.539 . S
C997 C993 1.408 . S
C997 C996 1.404 . S
C997 H1009 0.930 . S
C998 C994 1.524 . S
C998 H1010 0.956 . S
C998 H1011 0.961 . S
C998 H1012 0.961 . S
C999 C996 1.539 . S
C999 H1013 0.958 . S
C999 H1014 0.961 . S
C999 H1015 0.960 . S
H1000 C984 0.931 . S
H1001 C989 0.929 . S
H1002 C990 0.960 . S
H1003 C990 0.962 . S
H1004 C990 0.960 . S
H1005 C991 0.961 . S
H1006 C991 0.961 . S
H1007 C991 0.961 . S
H1008 C992 0.931 . S
H1009 C997 0.930 . S
H1010 C998 0.956 . S
H1011 C998 0.961 . S
H1012 C998 0.961 . S
H1013 C999 0.958 . S
H1014 C999 0.961 . S
H1015 C999 0.960 . S
C249 C4 0.886 . S
C257 C92 0.929 . S
C281 C16 1.314 . S
C289 C153 1.325 . S
C321 C191 2.135 . S
C313 C32 2.153 . S
C345 C43 2.271 . S
C353 C231 2.240 1_655 S
C385 C151 1.757 . S
C377 C5 1.706 . S
C417 C119 1.656 . S
C409 C21 1.543 . S
C449 C228 1.705 . S
C441 C27 1.708 . S
C481 C188 1.722 . S
C473 C37 1.741 . S
C505 C10 0.986 . S
C513 C233 1.027 . S
C545 C148 2.596 . S
C537 C26 2.582 . S
C569 C38 1.912 . S
C577 C90 1.884 . S
C601 C15 1.542 . S
C609 C193 1.570 . S
C641 C113 1.060 . S
C633 C48 1.078 . S
C665 C59 1.095 . S
C673 C132 1.092 . S
C697 C76 2.477 . S
C705 C170 2.407 . S
C729 C87 2.043 . S
C737 C210 2.023 . S
C761 C54 1.034 . S
C769 C130 1.013 . S
C801 C108 2.336 . S
C793 C60 2.267 . S
C833 C239 1.602 . S
C825 C71 1.579 . S
C865 C199 1.826 . S
C857 C82 1.819 . S
C889 C49 1.281 . S
C897 C212 1.385 . S
C929 C159 2.055 . S
C921 C70 2.052 . S
C961 C111 2.346 . S
C953 C81 2.394 . S
C985 C65 1.281 . S
C993 C172 1.310 . S
