# Generated by pormake.
# Topology pyr, (3,6)-cn, num edge types: 1
# Building blocks:
#     Node 0, Type 0, BuildingBlock: ESEHIV_clean_linker_0, # of connection points: 3
#     Node 1, Type 0, BuildingBlock: ESEHIV_clean_linker_0, # of connection points: 3
#     Node 2, Type 0, BuildingBlock: ESEHIV_clean_linker_0, # of connection points: 3
#     Node 3, Type 0, BuildingBlock: ESEHIV_clean_linker_0, # of connection points: 3
#     Node 4, Type 0, BuildingBlock: ESEHIV_clean_linker_0, # of connection points: 3
#     Node 5, Type 0, BuildingBlock: ESEHIV_clean_linker_0, # of connection points: 3
#     Node 6, Type 0, BuildingBlock: ESEHIV_clean_linker_0, # of connection points: 3
#     Node 7, Type 0, BuildingBlock: ESEHIV_clean_linker_0, # of connection points: 3
#     Node 8, Type 1, BuildingBlock: FUNLAD_clean_sbu_0, # of connection points: 6
#     Node 9, Type 1, BuildingBlock: FUNLAD_clean_sbu_0, # of connection points: 6
#     Node 10, Type 1, BuildingBlock: FUNLAD_clean_sbu_0, # of connection points: 6
#     Node 11, Type 1, BuildingBlock: FUNLAD_clean_sbu_0, # of connection points: 6
#     Edge 12, Type (0, 1), BuildingBlock: EYOCIG_clean_linker_4, # of connection points: 2
#     Edge 13, Type (0, 1), BuildingBlock: EYOCIG_clean_linker_4, # of connection points: 2
#     Edge 14, Type (0, 1), BuildingBlock: EYOCIG_clean_linker_4, # of connection points: 2
#     Edge 15, Type (0, 1), BuildingBlock: EYOCIG_clean_linker_4, # of connection points: 2
#     Edge 16, Type (0, 1), BuildingBlock: EYOCIG_clean_linker_4, # of connection points: 2
#     Edge 17, Type (0, 1), BuildingBlock: EYOCIG_clean_linker_4, # of connection points: 2
#     Edge 18, Type (0, 1), BuildingBlock: EYOCIG_clean_linker_4, # of connection points: 2
#     Edge 19, Type (0, 1), BuildingBlock: EYOCIG_clean_linker_4, # of connection points: 2
#     Edge 20, Type (0, 1), BuildingBlock: EYOCIG_clean_linker_4, # of connection points: 2
#     Edge 21, Type (0, 1), BuildingBlock: EYOCIG_clean_linker_4, # of connection points: 2
#     Edge 22, Type (0, 1), BuildingBlock: EYOCIG_clean_linker_4, # of connection points: 2
#     Edge 23, Type (0, 1), BuildingBlock: EYOCIG_clean_linker_4, # of connection points: 2
#     Edge 24, Type (0, 1), BuildingBlock: EYOCIG_clean_linker_4, # of connection points: 2
#     Edge 25, Type (0, 1), BuildingBlock: EYOCIG_clean_linker_4, # of connection points: 2
#     Edge 26, Type (0, 1), BuildingBlock: EYOCIG_clean_linker_4, # of connection points: 2
#     Edge 27, Type (0, 1), BuildingBlock: EYOCIG_clean_linker_4, # of connection points: 2
#     Edge 28, Type (0, 1), BuildingBlock: EYOCIG_clean_linker_4, # of connection points: 2
#     Edge 29, Type (0, 1), BuildingBlock: EYOCIG_clean_linker_4, # of connection points: 2
#     Edge 30, Type (0, 1), BuildingBlock: EYOCIG_clean_linker_4, # of connection points: 2
#     Edge 31, Type (0, 1), BuildingBlock: EYOCIG_clean_linker_4, # of connection points: 2
#     Edge 32, Type (0, 1), BuildingBlock: EYOCIG_clean_linker_4, # of connection points: 2
#     Edge 33, Type (0, 1), BuildingBlock: EYOCIG_clean_linker_4, # of connection points: 2
#     Edge 34, Type (0, 1), BuildingBlock: EYOCIG_clean_linker_4, # of connection points: 2
#     Edge 35, Type (0, 1), BuildingBlock: EYOCIG_clean_linker_4, # of connection points: 2
# Relax obj value: 0.138
# Max RMSD: 0.084
# Mean RMSD: 0.045
data_MOF--net-pry--node1-FUNLAD_clean_sbu_0--node2-ESEHIV_clean_linker_0--edge1-EYOCIG_clean_linker_4
_symmetry_space_group_name_H-M    P1
_symmetry_Int_Tables_number       1
_symmetry_cell_setting            triclinic
loop_
_symmetry_equiv_pos_as_xyz
'x, y, z'
_cell_length_a     26.667771
_cell_length_b     28.218797
_cell_length_c     28.490229
_cell_angle_alpha  90.052512
_cell_angle_beta   89.894239
_cell_angle_gamma 79.126705
loop_
_atom_site_label
_atom_site_type_symbol
_atom_site_fract_x
_atom_site_fract_y
_atom_site_fract_z
_atom_type_partial_charge
H0 H 0.05899 0.23357 0.24597 0.0
H1 H 0.18403 0.11141 0.24042 0.0
H2 H 0.17317 0.224 0.13717 0.0
C3 C 0.09359 0.21443 0.22947 0.0
C4 C 0.11307 0.23429 0.189 0.0
C5 C 0.11902 0.16972 0.24852 0.0
C6 C 0.16409 0.14548 0.22638 0.0
C7 C 0.18363 0.16498 0.18624 0.0
C8 C 0.15796 0.20909 0.16803 0.0
H9 H 0.30912 0.96099 0.74006 0.0
H10 H 0.43435 0.83904 0.74555 0.0
H11 H 0.32049 0.84799 0.63694 0.0
C12 C 0.32916 0.92689 0.72603 0.0
C13 C 0.30976 0.9072 0.68594 0.0
C14 C 0.37421 0.90281 0.74813 0.0
C15 C 0.39977 0.85806 0.72908 0.0
C16 C 0.38044 0.838 0.68868 0.0
C17 C 0.33557 0.86305 0.66775 0.0
H18 H 0.65685 0.42146 0.06567 0.0
H19 H 0.67168 0.50829 0.9439 0.0
H20 H 0.54358 0.43769 0.9566 0.0
C21 C 0.64081 0.43902 0.03379 0.0
C22 C 0.59541 0.4285 1.01517 0.0
C23 C 0.66796 0.46852 1.00812 0.0
C24 C 0.64923 0.48793 0.96502 0.0
C25 C 0.60451 0.47665 0.94678 0.0
C26 C 0.57696 0.44823 0.97228 0.0
H27 H 0.8329 0.65225 0.55781 0.0
H28 H 0.95915 0.62516 0.46129 0.0
H29 H 0.83337 0.55229 0.44341 0.0
C30 C 0.85298 0.63116 0.52934 0.0
C31 C 0.82919 0.59873 0.50411 0.0
C32 C 0.90039 0.64004 0.514 0.0
C33 C 0.92425 0.61571 0.47497 0.0
C34 C 0.90003 0.58444 0.4496 0.0
C35 C 0.85328 0.57469 0.46477 0.0
H36 H 0.81023 0.96018 0.81876 0.0
H37 H 0.93567 0.83835 0.81345 0.0
H38 H 0.82126 0.84761 0.92204 0.0
C39 C 0.83026 0.92615 0.83283 0.0
C40 C 0.81072 0.9066 0.87293 0.0
C41 C 0.87543 0.90205 0.81077 0.0
C42 C 0.90099 0.85739 0.82989 0.0
C43 C 0.88149 0.83746 0.87033 0.0
C44 C 0.83648 0.86256 0.8912 0.0
H45 H 0.55997 0.23322 0.31166 0.0
H46 H 0.68477 0.11095 0.31848 0.0
H47 H 0.67332 0.22487 0.42066 0.0
C48 C 0.59441 0.21423 0.32838 0.0
C49 C 0.61364 0.23457 0.36866 0.0
C50 C 0.6199 0.16926 0.30977 0.0
C51 C 0.66478 0.14522 0.33219 0.0
C52 C 0.68408 0.1652 0.37218 0.0
C53 C 0.65833 0.20957 0.38993 0.0
H54 H 0.33657 0.64981 0.9917 0.0
H55 H 0.32728 0.56072 0.11295 0.0
H56 H 0.45414 0.63247 0.09683 0.0
C57 C 0.35405 0.6317 1.0228 0.0
C58 C 0.40003 0.64225 0.04004 0.0
C59 C 0.32819 0.60154 0.04901 0.0
C60 C 0.34878 0.58148 0.09127 0.0
C61 C 0.39407 0.5928 0.10819 0.0
C62 C 0.42036 0.62183 0.08207 0.0
H63 H 0.03851 0.44193 0.59749 0.0
H64 H 0.16061 0.42081 0.49637 0.0
H65 H 0.16499 0.51376 0.61575 0.0
C66 C 0.07294 0.45205 0.58348 0.0
C67 C 0.0982 0.48181 0.60972 0.0
C68 C 0.09507 0.43017 0.5426 0.0
C69 C 0.14183 0.44002 0.52649 0.0
C70 C 0.16667 0.47094 0.55272 0.0
C71 C 0.1443 0.49245 0.59389 0.0
C72 C 0.0399 0.06329 0.44451 0.0
N73 N -0.00036 0.14005 0.56839 0.0
C74 C 0.04654 0.15174 0.56255 0.0
C75 C 0.05145 0.19961 0.55806 0.0
C76 C 0.00776 0.23557 0.55894 0.0
C77 C 0.96035 0.22361 0.56933 0.0
C78 C 0.95712 0.17489 0.5742 0.0
Zn79 Zn -0.005 0.07203 0.54677 0.0
C80 C 0.90075 0.07175 0.48941 0.0
N81 N 0.99355 0.93306 0.4908 0.0
C82 C 0.03598 0.89833 0.4841 0.0
C83 C 0.9467 0.92131 0.49673 0.0
C84 C 0.94174 0.87339 0.5002 0.0
C85 C 0.98536 0.8374 0.49822 0.0
C86 C 0.03271 0.84953 0.48791 0.0
Zn87 Zn -0.00175 1.00092 0.51258 0.0
O88 O 0.02913 0.09034 0.48034 0.0
C89 C 0.09251 1.00114 0.56985 0.0
O90 O 0.03259 1.01991 0.44677 0.0
H91 H 0.91358 0.94886 0.50369 0.0
H92 H 0.07975 0.1241 0.55628 0.0
H93 H 0.07292 0.90833 0.47987 0.0
O94 O 0.06906 0.044 0.57723 0.0
O95 O 0.0726 0.97408 0.54276 0.0
H96 H 0.92015 0.16496 0.57841 0.0
O97 O 0.96419 0.98255 0.57901 0.0
O98 O 0.96069 0.05297 0.61263 0.0
O99 O 0.92423 1.0289 0.48208 0.0
O100 O 0.92062 0.09882 0.51653 0.0
C101 C 0.95347 1.00955 0.61489 0.0
H102 H 0.0886 0.20807 0.55028 0.0
H103 H 0.92601 0.2511 0.57062 0.0
H104 H 0.90465 0.8648 0.50798 0.0
H105 H 0.067 0.82203 0.48583 0.0
C106 C 0.5928 1.00119 0.98844 0.0
N107 N 0.49917 0.13966 0.99091 0.0
C108 C 0.54573 0.15197 0.9969 0.0
C109 C 0.54997 0.20005 1.00111 0.0
C110 C 0.50592 0.2356 0.99977 0.0
C111 C 0.45889 0.22295 0.98929 0.0
C112 C 0.45636 0.17403 0.98474 0.0
Zn113 Zn 0.49524 0.07146 1.01226 0.0
C114 C 0.45354 1.00914 0.94405 0.0
N115 N 0.4945 0.93189 0.06726 0.0
C116 C 0.5373 0.89732 0.0726 0.0
C117 C 0.44779 0.9198 0.06155 0.0
C118 C 0.44336 0.87183 0.05663 0.0
C119 C 0.48735 0.83619 0.05696 0.0
C120 C 0.53456 0.84853 0.06729 0.0
Zn121 Zn 0.49856 1.00017 0.04605 0.0
O122 O 0.56934 0.04408 0.98137 0.0
C123 C 0.5403 0.06247 0.11425 0.0
O124 O 0.57286 0.97397 1.01533 0.0
H125 H 0.41434 0.94726 0.05571 0.0
H126 H 0.57915 0.12466 1.00337 0.0
H127 H 0.57412 0.90756 0.07676 0.0
O128 O 0.5294 0.08965 0.07861 0.0
O129 O 0.53302 1.01907 0.11181 0.0
H130 H 0.41966 0.16359 0.98041 0.0
O131 O 0.42454 1.02762 0.07702 0.0
O132 O 0.4209 0.09768 0.04294 0.0
O133 O 0.46435 0.98199 0.97971 0.0
O134 O 0.46087 0.05252 0.94648 0.0
C135 C 0.40104 0.07048 0.06993 0.0
H136 H 0.58683 0.20904 1.00897 0.0
H137 H 0.42429 0.25008 0.98765 0.0
H138 H 0.40635 0.86308 0.04893 0.0
H139 H 0.56913 0.8213 0.06817 0.0
C140 C 0.53121 0.44489 0.48648 0.0
N141 N 0.53219 0.4969 0.62619 0.0
C142 C 0.51756 0.45911 0.64852 0.0
C143 C 0.52739 0.45201 0.69642 0.0
C144 C 0.55235 0.48419 0.72031 0.0
C145 C 0.56926 0.52103 0.69618 0.0
C146 C 0.55849 0.52698 0.64886 0.0
Zn147 Zn 0.50838 0.51879 0.56137 0.0
C148 C 0.59147 0.55976 0.51329 0.0
N149 N 0.46227 0.57671 0.42921 0.0
C150 C 0.43586 0.54677 0.40646 0.0
C151 C 0.47824 0.61368 0.40664 0.0
C152 C 0.47 0.61985 0.35842 0.0
C153 C 0.44518 0.58763 0.33446 0.0
C154 C 0.4266 0.55186 0.35881 0.0
Zn155 Zn 0.48577 0.55485 0.49417 0.0
O156 O 0.53509 0.44752 0.53094 0.0
C157 C 0.40274 0.51374 0.5422 0.0
O158 O 0.51306 0.48309 0.46384 0.0
H159 H 0.49957 0.63665 0.42542 0.0
H160 H 0.49633 0.43602 0.6298 0.0
H161 H 0.42461 0.51679 0.42447 0.0
O162 O 0.43603 0.50046 0.57359 0.0
O163 O 0.41344 0.53726 0.50701 0.0
H164 H 0.56878 0.55751 0.63102 0.0
O165 O 0.45909 0.62618 0.52465 0.0
O166 O 0.48101 0.59048 0.59172 0.0
O167 O 0.55817 0.57307 0.48193 0.0
O168 O 0.58072 0.53636 0.54852 0.0
C169 C 0.4629 0.62873 0.56914 0.0
H170 H 0.51412 0.42311 0.7148 0.0
H171 H 0.58862 0.54631 0.71414 0.0
H172 H 0.4845 0.64798 0.33989 0.0
H173 H 0.40729 0.52658 0.3408 0.0
C174 C 0.96321 0.62849 0.9901 0.0
N175 N 0.96723 0.57481 0.13019 0.0
C176 C 0.9865 0.60945 0.15358 0.0
C177 C 0.98138 0.6132 0.20238 0.0
C178 C 0.95618 0.58105 0.22607 0.0
C179 C 0.93413 0.54796 0.20108 0.0
C180 C 0.94044 0.54513 0.15292 0.0
Zn181 Zn 0.98757 0.55406 0.06385 0.0
C182 C 0.90199 0.51434 1.01887 0.0
N183 N 0.02787 0.4967 0.92987 0.0
C184 C 0.05404 0.5266 0.90671 0.0
C185 C 0.01047 0.46051 0.90725 0.0
C186 C 0.01725 0.455 0.85873 0.0
C187 C 0.04209 0.48708 0.83452 0.0
C188 C 0.06189 0.52213 0.85881 0.0
Zn189 Zn 0.00729 0.51785 0.99593 0.0
O190 O 0.96094 0.62594 0.03472 0.0
C191 C 0.09295 0.55744 0.04086 0.0
O192 O 0.97977 0.5901 0.96702 0.0
H193 H 0.9893 0.43759 0.92632 0.0
H194 H 0.0082 0.63217 0.13488 0.0
H195 H 0.06633 0.55608 0.9247 0.0
O196 O 0.06097 0.57097 0.07339 0.0
O197 O 0.08057 0.53429 1.00611 0.0
H198 H 0.92686 0.51666 0.13443 0.0
O199 O 0.03415 0.44607 1.02507 0.0
O200 O 0.01479 0.48178 0.09271 0.0
O201 O 0.93407 0.50061 0.98646 0.0
O202 O 0.91422 0.53784 0.05344 0.0
C203 C 0.03159 0.44345 0.06965 0.0
H204 H -0.00154 0.63937 0.2214 0.0
H205 H 0.91439 0.52283 0.21883 0.0
H206 H 0.00184 0.42738 0.84027 0.0
H207 H 0.08128 0.54726 0.84064 0.0
C208 C 0.0863 0.12775 0.32524 0.0
C209 C 0.0998 0.14804 0.29056 0.0
C210 C 0.07107 0.1032 0.36607 0.0
C211 C 0.05704 0.08356 0.40093 0.0
C212 C 0.40686 0.94494 0.82477 0.0
C213 C 0.39332 0.92464 0.79011 0.0
C214 C 0.42218 0.96943 0.8656 0.0
C215 C 0.4363 0.989 0.90046 0.0
C216 C 0.57906 0.48833 0.85834 0.0
C217 C 0.59274 0.48446 0.89832 0.0
C218 C 0.56648 0.48522 0.81104 0.0
C219 C 0.55855 0.48219 0.76994 0.0
C220 C 0.93433 0.56853 0.36388 0.0
C221 C 0.91638 0.57383 0.40246 0.0
C222 C 0.94836 0.5732 0.31708 0.0
C223 C 0.95401 0.57955 0.27603 0.0
C224 C 0.26874 0.12275 0.14171 0.0
C225 C 0.23028 0.14046 0.16321 0.0
C226 C 0.3142 0.10401 0.11587 0.0
C227 C 0.35375 0.08896 0.09483 0.0
C228 C 0.22469 0.94906 0.64143 0.0
C229 C 0.26312 0.93154 0.66293 0.0
C230 C 0.17928 0.96759 0.61559 0.0
C231 C 0.13977 0.98255 0.5946 0.0
C232 C 0.7612 0.48163 1.02415 0.0
C233 C 0.71876 0.47331 1.02091 0.0
C234 C 0.81068 0.492 1.02141 0.0
C235 C 0.85277 0.50128 1.0186 0.0
C236 C 0.73356 0.58935 0.51464 0.0
C237 C 0.77683 0.59577 0.51264 0.0
C238 C 0.68333 0.58083 0.51224 0.0
C239 C 0.64084 0.57235 0.51066 0.0
C240 C 0.07348 0.31754 0.14568 0.0
C241 C 0.08856 0.28035 0.16773 0.0
C242 C 0.05877 0.36065 0.11789 0.0
C243 C 0.0468 0.39757 0.09468 0.0
C244 C 0.54726 0.35917 0.03571 0.0
C245 C 0.57282 0.38987 0.03284 0.0
C246 C 0.52281 0.32024 0.02609 0.0
C247 C 0.50987 0.28367 1.01355 0.0
C248 C 0.94365 0.71335 0.53239 0.0
C249 C 0.91977 0.68137 0.52953 0.0
C250 C 0.96747 0.75275 0.5232 0.0
C251 C 0.98068 0.78937 0.51125 0.0
C252 C 0.42041 0.75461 0.6455 0.0
C253 C 0.40512 0.79189 0.66746 0.0
C254 C 0.43537 0.7114 0.61777 0.0
C255 C 0.4475 0.67445 0.59452 0.0
C256 C 0.90789 0.94438 0.73412 0.0
C257 C 0.89459 0.92386 0.76877 0.0
C258 C 0.9228 0.96925 0.69335 0.0
C259 C 0.9366 0.98912 0.65851 0.0
C260 C 0.58728 0.12677 0.23333 0.0
C261 C 0.60087 0.14718 0.26789 0.0
C262 C 0.57186 0.10219 0.1926 0.0
C263 C 0.55766 0.08259 0.1578 0.0
C264 C 0.42187 0.58094 0.19608 0.0
C265 C 0.40728 0.58497 0.15637 0.0
C266 C 0.43415 0.58453 0.24341 0.0
C267 C 0.44077 0.58848 0.28464 0.0
C268 C 0.06655 0.49514 0.69655 0.0
C269 C 0.08311 0.49069 0.65742 0.0
C270 C 0.05276 0.49118 0.7435 0.0
C271 C 0.04601 0.4865 0.78464 0.0
C272 C 0.72539 0.94877 0.91718 0.0
C273 C 0.76396 0.93103 0.89585 0.0
C274 C 0.67981 0.9676 0.94279 0.0
C275 C 0.64017 0.98273 0.96368 0.0
C276 C 0.76885 0.12355 0.41728 0.0
C277 C 0.73056 0.14095 0.39551 0.0
C278 C 0.81412 0.10518 0.44338 0.0
C279 C 0.85356 0.09032 0.46453 0.0
C280 C 0.23426 0.58893 0.0354 0.0
C281 C 0.27689 0.59694 0.03789 0.0
C282 C 0.18459 0.57906 0.0385 0.0
C283 C 0.14234 0.57014 0.04132 0.0
C284 C 0.26138 0.48229 0.54048 0.0
C285 C 0.21847 0.47497 0.54284 0.0
C286 C 0.31128 0.4917 0.54285 0.0
C287 C 0.35358 0.50066 0.54454 0.0
C288 C 0.92121 0.75431 0.91384 0.0
C289 C 0.9061 0.79146 0.8917 0.0
C290 C 0.93596 0.71125 0.94174 0.0
C291 C 0.94796 0.67437 0.96503 0.0
C292 C 0.4461 0.71294 1.01937 0.0
C293 C 0.42122 0.68172 1.02233 0.0
C294 C 0.4702 0.75204 0.02926 0.0
C295 C 0.48313 0.78844 0.04233 0.0
C296 C 0.05006 0.35863 0.52231 0.0
C297 C 0.07468 0.39004 0.52536 0.0
C298 C 0.02579 0.3196 0.53197 0.0
C299 C 0.01248 0.2833 0.54475 0.0
C300 C 0.57372 0.31846 0.41098 0.0
C301 C 0.58902 0.28093 0.38941 0.0
C302 C 0.55872 0.36196 0.43827 0.0
C303 C 0.54657 0.39908 0.46123 0.0
loop_
_geom_bond_atom_site_label_1
_geom_bond_atom_site_label_2
_geom_bond_distance
_geom_bond_site_symmetry_2
_ccdc_geom_bond_type
H0 C3 0.931 . S
H1 C6 0.928 . S
H2 C8 0.930 . S
C3 H0 0.931 . S
C3 C4 1.413 . S
C3 C5 1.360 . S
C4 C3 1.413 . S
C4 C8 1.429 . S
C5 C3 1.360 . S
C5 C6 1.372 . S
C6 H1 0.928 . S
C6 C5 1.372 . S
C6 C7 1.404 . S
C7 C6 1.404 . S
C7 C8 1.391 . S
C8 H2 0.930 . S
C8 C4 1.429 . S
C8 C7 1.391 . S
H9 C12 0.931 . S
H10 C15 0.928 . S
H11 C17 0.930 . S
C12 H9 0.931 . S
C12 C13 1.413 . S
C12 C14 1.360 . S
C13 C12 1.413 . S
C13 C17 1.429 . S
C14 C12 1.360 . S
C14 C15 1.372 . S
C15 H10 0.928 . S
C15 C14 1.372 . S
C15 C16 1.404 . S
C16 C15 1.404 . S
C16 C17 1.391 . S
C17 H11 0.930 . S
C17 C13 1.429 . S
C17 C16 1.391 . S
H18 C21 0.931 . S
H19 C24 0.928 . S
H20 C26 0.930 . S
C21 H18 0.931 . S
C21 C22 1.413 . S
C21 C23 1.360 . S
C22 C21 1.413 . S
C22 C26 1.429 . S
C23 C21 1.360 . S
C23 C24 1.372 . S
C24 H19 0.928 . S
C24 C23 1.372 . S
C24 C25 1.404 . S
C25 C24 1.404 . S
C25 C26 1.391 . S
C26 H20 0.930 . S
C26 C22 1.429 . S
C26 C25 1.391 . S
H27 C30 0.931 . S
H28 C33 0.928 . S
H29 C35 0.930 . S
C30 H27 0.931 . S
C30 C31 1.413 . S
C30 C32 1.360 . S
C31 C30 1.413 . S
C31 C35 1.429 . S
C32 C30 1.360 . S
C32 C33 1.372 . S
C33 H28 0.928 . S
C33 C32 1.372 . S
C33 C34 1.404 . S
C34 C33 1.404 . S
C34 C35 1.391 . S
C35 H29 0.930 . S
C35 C31 1.429 . S
C35 C34 1.391 . S
H36 C39 0.931 . S
H37 C42 0.928 . S
H38 C44 0.930 . S
C39 H36 0.931 . S
C39 C40 1.413 . S
C39 C41 1.360 . S
C40 C39 1.413 . S
C40 C44 1.429 . S
C41 C39 1.360 . S
C41 C42 1.372 . S
C42 H37 0.928 . S
C42 C41 1.372 . S
C42 C43 1.404 . S
C43 C42 1.404 . S
C43 C44 1.391 . S
C44 H38 0.930 . S
C44 C40 1.429 . S
C44 C43 1.391 . S
H45 C48 0.931 . S
H46 C51 0.928 . S
H47 C53 0.930 . S
C48 H45 0.931 . S
C48 C49 1.413 . S
C48 C50 1.360 . S
C49 C48 1.413 . S
C49 C53 1.429 . S
C50 C48 1.360 . S
C50 C51 1.372 . S
C51 H46 0.928 . S
C51 C50 1.372 . S
C51 C52 1.404 . S
C52 C51 1.404 . S
C52 C53 1.391 . S
C53 H47 0.930 . S
C53 C49 1.429 . S
C53 C52 1.391 . S
H54 C57 0.931 . S
H55 C60 0.928 . S
H56 C62 0.930 . S
C57 H54 0.931 . S
C57 C58 1.413 . S
C57 C59 1.360 . S
C58 C57 1.413 . S
C58 C62 1.429 . S
C59 C57 1.360 . S
C59 C60 1.372 . S
C60 H55 0.928 . S
C60 C59 1.372 . S
C60 C61 1.404 . S
C61 C60 1.404 . S
C61 C62 1.391 . S
C62 H56 0.930 . S
C62 C58 1.429 . S
C62 C61 1.391 . S
H63 C66 0.931 . S
H64 C69 0.928 . S
H65 C71 0.930 . S
C66 H63 0.931 . S
C66 C67 1.413 . S
C66 C68 1.360 . S
C67 C66 1.413 . S
C67 C71 1.429 . S
C68 C66 1.360 . S
C68 C69 1.372 . S
C69 H64 0.928 . S
C69 C68 1.372 . S
C69 C70 1.404 . S
C70 C69 1.404 . S
C70 C71 1.391 . S
C71 H65 0.930 . S
C71 C67 1.429 . S
C71 C70 1.391 . S
C72 O88 1.251 . S
C72 O90 1.254 1_545 S
N73 C74 1.333 . S
N73 C78 1.307 . S
N73 Zn79 2.020 . S
C74 N73 1.333 . S
C74 C75 1.379 . S
C74 H92 0.952 . S
C75 C74 1.379 . S
C75 C76 1.390 . S
C75 H102 0.949 . S
C76 C75 1.390 . S
C76 C77 1.357 . S
C77 C76 1.357 . S
C77 C78 1.370 . S
C77 H103 0.950 . S
C78 N73 1.307 . S
C78 C77 1.370 . S
C78 H96 0.948 1_455 S
Zn79 N73 2.020 . S
Zn79 O88 2.039 . S
Zn79 O94 2.034 . S
Zn79 O98 2.025 1_455 S
Zn79 O100 2.024 1_455 S
C80 O99 1.246 1_545 S
C80 O100 1.249 . S
N81 C82 1.307 . S
N81 C83 1.333 . S
N81 Zn87 2.020 . S
C82 N81 1.307 . S
C82 C86 1.370 . S
C82 H93 0.948 1_655 S
C83 N81 1.333 . S
C83 C84 1.379 . S
C83 H91 0.952 . S
C84 C83 1.379 . S
C84 C85 1.390 . S
C84 H104 0.949 . S
C85 C84 1.390 . S
C85 C86 1.357 . S
C86 C82 1.370 . S
C86 C85 1.357 . S
C86 H105 0.939 1_655 S
Zn87 N81 2.020 . S
Zn87 O90 2.025 1_655 S
Zn87 O95 2.024 1_655 S
Zn87 O97 2.039 . S
Zn87 O99 2.034 . S
O88 C72 1.251 . S
O88 Zn79 2.039 . S
C89 O94 1.246 1_565 S
C89 O95 1.249 . S
O90 C72 1.254 1_565 S
O90 Zn87 2.025 1_455 S
H91 C83 0.952 . S
H92 C74 0.952 . S
H93 C82 0.948 1_455 S
O94 Zn79 2.034 . S
O94 C89 1.246 1_545 S
O95 Zn87 2.024 1_455 S
O95 C89 1.249 . S
H96 C78 0.948 1_655 S
O97 Zn87 2.039 . S
O97 C101 1.251 . S
O98 Zn79 2.025 1_655 S
O98 C101 1.254 1_545 S
O99 C80 1.246 1_565 S
O99 Zn87 2.034 . S
O100 Zn79 2.024 1_655 S
O100 C80 1.249 . S
C101 O97 1.251 . S
C101 O98 1.254 1_565 S
H102 C75 0.949 . S
H103 C77 0.950 . S
H104 C84 0.949 . S
H105 C86 0.939 1_455 S
C106 O122 1.251 1_565 S
C106 O124 1.254 . S
N107 C108 1.333 . S
N107 C112 1.307 . S
N107 Zn113 2.020 . S
C108 N107 1.333 . S
C108 C109 1.379 . S
C108 H126 0.952 . S
C109 C108 1.379 . S
C109 C110 1.390 . S
C109 H136 0.949 . S
C110 C109 1.390 . S
C110 C111 1.357 . S
C111 C110 1.357 . S
C111 C112 1.370 . S
C111 H137 0.950 . S
C112 N107 1.307 . S
C112 C111 1.370 . S
C112 H130 0.948 . S
Zn113 N107 2.020 . S
Zn113 O122 2.039 . S
Zn113 O128 2.034 1_556 S
Zn113 O132 2.025 1_556 S
Zn113 O134 2.024 . S
C114 O133 1.246 . S
C114 O134 1.249 1_565 S
N115 C116 1.307 . S
N115 C117 1.333 . S
N115 Zn121 2.020 . S
C116 N115 1.307 . S
C116 C120 1.370 . S
C116 H127 0.948 . S
C117 N115 1.333 . S
C117 C118 1.379 . S
C117 H125 0.952 . S
C118 C117 1.379 . S
C118 C119 1.390 . S
C118 H138 0.949 . S
C119 C118 1.390 . S
C119 C120 1.357 . S
C120 C116 1.370 . S
C120 C119 1.357 . S
C120 H139 0.950 . S
Zn121 N115 2.020 . S
Zn121 O124 2.025 1_554 S
Zn121 O129 2.024 . S
Zn121 O131 2.039 . S
Zn121 O133 2.034 1_554 S
O122 C106 1.251 1_545 S
O122 Zn113 2.039 . S
C123 O128 1.246 . S
C123 O129 1.249 1_545 S
O124 C106 1.254 . S
O124 Zn121 2.025 1_556 S
H125 C117 0.952 . S
H126 C108 0.952 . S
H127 C116 0.948 . S
O128 Zn113 2.034 1_554 S
O128 C123 1.246 . S
O129 Zn121 2.024 . S
O129 C123 1.249 1_565 S
H130 C112 0.948 . S
O131 Zn121 2.039 . S
O131 C135 1.251 1_565 S
O132 Zn113 2.025 1_554 S
O132 C135 1.254 . S
O133 C114 1.246 . S
O133 Zn121 2.034 1_556 S
O134 Zn113 2.024 . S
O134 C114 1.249 1_545 S
C135 O131 1.251 1_545 S
C135 O132 1.254 . S
H136 C109 0.949 . S
H137 C111 0.950 . S
H138 C118 0.949 . S
H139 C120 0.950 . S
C140 O156 1.251 . S
C140 O158 1.254 . S
N141 C142 1.333 . S
N141 C146 1.307 . S
N141 Zn147 2.020 . S
C142 N141 1.333 . S
C142 C143 1.379 . S
C142 H160 0.952 . S
C143 C142 1.379 . S
C143 C144 1.390 . S
C143 H170 0.949 . S
C144 C143 1.390 . S
C144 C145 1.357 . S
C145 C144 1.357 . S
C145 C146 1.370 . S
C145 H171 0.950 . S
C146 N141 1.307 . S
C146 C145 1.370 . S
C146 H164 0.948 . S
Zn147 N141 2.020 . S
Zn147 O156 2.039 . S
Zn147 O162 2.034 . S
Zn147 O166 2.025 . S
Zn147 O168 2.024 . S
C148 O167 1.246 . S
C148 O168 1.249 . S
N149 C150 1.307 . S
N149 C151 1.333 . S
N149 Zn155 2.020 . S
C150 N149 1.307 . S
C150 C154 1.370 . S
C150 H161 0.948 . S
C151 N149 1.333 . S
C151 C152 1.379 . S
C151 H159 0.952 . S
C152 C151 1.379 . S
C152 C153 1.390 . S
C152 H172 0.949 . S
C153 C152 1.390 . S
C153 C154 1.357 . S
C154 C150 1.370 . S
C154 C153 1.357 . S
C154 H173 0.950 . S
Zn155 N149 2.020 . S
Zn155 O158 2.025 . S
Zn155 O163 2.024 . S
Zn155 O165 2.039 . S
Zn155 O167 2.034 . S
O156 C140 1.251 . S
O156 Zn147 2.039 . S
C157 O162 1.246 . S
C157 O163 1.249 . S
O158 C140 1.254 . S
O158 Zn155 2.025 . S
H159 C151 0.952 . S
H160 C142 0.952 . S
H161 C150 0.948 . S
O162 Zn147 2.034 . S
O162 C157 1.246 . S
O163 Zn155 2.024 . S
O163 C157 1.249 . S
H164 C146 0.948 . S
O165 Zn155 2.039 . S
O165 C169 1.251 . S
O166 Zn147 2.025 . S
O166 C169 1.254 . S
O167 C148 1.246 . S
O167 Zn155 2.034 . S
O168 Zn147 2.024 . S
O168 C148 1.249 . S
C169 O165 1.251 . S
C169 O166 1.254 . S
H170 C143 0.949 . S
H171 C145 0.950 . S
H172 C152 0.949 . S
H173 C154 0.950 . S
C174 O190 1.251 1_556 S
C174 O192 1.254 . S
N175 C176 1.333 . S
N175 C180 1.307 . S
N175 Zn181 2.020 . S
C176 N175 1.333 . S
C176 C177 1.379 . S
C176 H194 0.952 . S
C177 C176 1.379 . S
C177 C178 1.390 . S
C177 H204 0.949 . S
C178 C177 1.390 . S
C178 C179 1.357 . S
C179 C178 1.357 . S
C179 C180 1.370 . S
C179 H205 0.950 . S
C180 N175 1.307 . S
C180 C179 1.370 . S
C180 H198 0.948 . S
Zn181 N175 2.020 . S
Zn181 O190 2.039 . S
Zn181 O196 2.034 1_655 S
Zn181 O200 2.025 1_655 S
Zn181 O202 2.024 . S
C182 O201 1.246 . S
C182 O202 1.249 1_556 S
N183 C184 1.307 . S
N183 C185 1.333 . S
N183 Zn189 2.020 . S
C184 N183 1.307 . S
C184 C188 1.370 . S
C184 H195 0.948 . S
C185 N183 1.333 . S
C185 C186 1.379 . S
C185 H193 0.952 . S
C186 C185 1.379 . S
C186 C187 1.390 . S
C186 H206 0.949 . S
C187 C186 1.390 . S
C187 C188 1.357 . S
C188 C184 1.370 . S
C188 C187 1.357 . S
C188 H207 0.950 . S
Zn189 N183 2.020 . S
Zn189 O192 2.025 1_455 S
Zn189 O197 2.024 . S
Zn189 O199 2.039 . S
Zn189 O201 2.034 1_455 S
O190 C174 1.251 1_554 S
O190 Zn181 2.039 . S
C191 O196 1.246 . S
C191 O197 1.249 1_554 S
O192 C174 1.254 . S
O192 Zn189 2.025 1_655 S
H193 C185 0.952 . S
H194 C176 0.952 . S
H195 C184 0.948 . S
O196 Zn181 2.034 1_455 S
O196 C191 1.246 . S
O197 Zn189 2.024 . S
O197 C191 1.249 1_556 S
H198 C180 0.948 . S
O199 Zn189 2.039 . S
O199 C203 1.251 1_556 S
O200 Zn181 2.025 1_455 S
O200 C203 1.254 . S
O201 C182 1.246 . S
O201 Zn189 2.034 1_655 S
O202 Zn181 2.024 . S
O202 C182 1.249 1_554 S
C203 O199 1.251 1_554 S
C203 O200 1.254 . S
H204 C177 0.949 . S
H205 C179 0.950 . S
H206 C186 0.949 . S
H207 C188 0.950 . S
C208 C209 1.170 . S
C208 C210 1.380 . S
C209 C208 1.170 . S
C210 C208 1.380 . S
C210 C211 1.170 . S
C211 C210 1.170 . S
C212 C213 1.170 . S
C212 C214 1.380 . S
C213 C212 1.170 . S
C214 C212 1.380 . S
C214 C215 1.170 . S
C215 C214 1.170 . S
C216 C217 1.170 . S
C216 C218 1.380 . S
C217 C216 1.170 . S
C218 C216 1.380 . S
C218 C219 1.170 . S
C219 C218 1.170 . S
C220 C221 1.170 . S
C220 C222 1.380 . S
C221 C220 1.170 . S
C222 C220 1.380 . S
C222 C223 1.170 . S
C223 C222 1.170 . S
C224 C225 1.170 . S
C224 C226 1.380 . S
C225 C224 1.170 . S
C226 C224 1.380 . S
C226 C227 1.170 . S
C227 C226 1.170 . S
C228 C229 1.170 . S
C228 C230 1.380 . S
C229 C228 1.170 . S
C230 C228 1.380 . S
C230 C231 1.170 . S
C231 C230 1.170 . S
C232 C233 1.170 . S
C232 C234 1.380 . S
C233 C232 1.170 . S
C234 C232 1.380 . S
C234 C235 1.170 . S
C235 C234 1.170 . S
C236 C237 1.170 . S
C236 C238 1.380 . S
C237 C236 1.170 . S
C238 C236 1.380 . S
C238 C239 1.170 . S
C239 C238 1.170 . S
C240 C241 1.170 . S
C240 C242 1.380 . S
C241 C240 1.170 . S
C242 C240 1.380 . S
C242 C243 1.170 . S
C243 C242 1.170 . S
C244 C245 1.170 . S
C244 C246 1.380 . S
C245 C244 1.170 . S
C246 C244 1.380 . S
C246 C247 1.170 . S
C247 C246 1.170 . S
C248 C249 1.170 . S
C248 C250 1.380 . S
C249 C248 1.170 . S
C250 C248 1.380 . S
C250 C251 1.170 . S
C251 C250 1.170 . S
C252 C253 1.170 . S
C252 C254 1.380 . S
C253 C252 1.170 . S
C254 C252 1.380 . S
C254 C255 1.170 . S
C255 C254 1.170 . S
C256 C257 1.170 . S
C256 C258 1.380 . S
C257 C256 1.170 . S
C258 C256 1.380 . S
C258 C259 1.170 . S
C259 C258 1.170 . S
C260 C261 1.170 . S
C260 C262 1.380 . S
C261 C260 1.170 . S
C262 C260 1.380 . S
C262 C263 1.170 . S
C263 C262 1.170 . S
C264 C265 1.170 . S
C264 C266 1.380 . S
C265 C264 1.170 . S
C266 C264 1.380 . S
C266 C267 1.170 . S
C267 C266 1.170 . S
C268 C269 1.170 . S
C268 C270 1.380 . S
C269 C268 1.170 . S
C270 C268 1.380 . S
C270 C271 1.170 . S
C271 C270 1.170 . S
C272 C273 1.170 . S
C272 C274 1.380 . S
C273 C272 1.170 . S
C274 C272 1.380 . S
C274 C275 1.170 . S
C275 C274 1.170 . S
C276 C277 1.170 . S
C276 C278 1.380 . S
C277 C276 1.170 . S
C278 C276 1.380 . S
C278 C279 1.170 . S
C279 C278 1.170 . S
C280 C281 1.170 . S
C280 C282 1.380 . S
C281 C280 1.170 . S
C282 C280 1.380 . S
C282 C283 1.170 . S
C283 C282 1.170 . S
C284 C285 1.170 . S
C284 C286 1.380 . S
C285 C284 1.170 . S
C286 C284 1.380 . S
C286 C287 1.170 . S
C287 C286 1.170 . S
C288 C289 1.170 . S
C288 C290 1.380 . S
C289 C288 1.170 . S
C290 C288 1.380 . S
C290 C291 1.170 . S
C291 C290 1.170 . S
C292 C293 1.170 . S
C292 C294 1.380 . S
C293 C292 1.170 . S
C294 C292 1.380 . S
C294 C295 1.170 . S
C295 C294 1.170 . S
C296 C297 1.170 . S
C296 C298 1.380 . S
C297 C296 1.170 . S
C298 C296 1.380 . S
C298 C299 1.170 . S
C299 C298 1.170 . S
C300 C301 1.170 . S
C300 C302 1.380 . S
C301 C300 1.170 . S
C302 C300 1.380 . S
C302 C303 1.170 . S
C303 C302 1.170 . S
C209 C5 2.296 . S
C211 C72 2.301 . S
C213 C14 2.258 . S
C215 C114 2.269 . S
C219 C144 0.990 . S
C217 C25 0.961 . S
C221 C34 1.032 . S
C223 C178 1.006 . S
C227 C135 1.797 . S
C225 C7 1.784 . S
C231 C89 1.813 . S
C229 C13 1.809 . S
C235 C182 1.257 . S
C233 C23 1.236 . S
C239 C148 1.303 . S
C237 C31 1.262 . S
C241 C4 2.166 . S
C243 C203 2.171 . S
C247 C110 1.146 . S
C245 C22 1.098 . S
C249 C32 1.118 . S
C251 C85 1.128 . S
C253 C16 2.144 . S
C255 C169 2.152 . S
C259 C101 2.294 . S
C257 C41 2.285 . S
C261 C50 2.265 . S
C263 C123 2.274 . S
C265 C61 0.962 . S
C267 C153 0.983 . S
C269 C67 1.020 . S
C271 C187 1.015 . S
C273 C40 1.796 . S
C275 C106 1.812 . S
C279 C80 1.795 . S
C277 C52 1.797 . S
C283 C191 1.265 . S
C281 C59 1.264 . S
C287 C157 1.292 . S
C285 C70 1.277 . S
C289 C43 2.170 . S
C291 C174 2.171 . S
C295 C119 1.121 . S
C293 C58 1.144 . S
C299 C76 1.125 . S
C297 C68 1.130 . S
C301 C49 2.155 . S
C303 C140 2.153 . S
