# Generated by pormake.
# Topology nom, (4,4)-cn, num edge types: 1
# Building blocks:
#     Node 0, Type 0, BuildingBlock: MIFKUJ_clean_linker_1, # of connection points: 4
#     Node 1, Type 0, BuildingBlock: MIFKUJ_clean_linker_1, # of connection points: 4
#     Node 2, Type 0, BuildingBlock: MIFKUJ_clean_linker_1, # of connection points: 4
#     Node 3, Type 0, BuildingBlock: MIFKUJ_clean_linker_1, # of connection points: 4
#     Node 4, Type 0, BuildingBlock: MIFKUJ_clean_linker_1, # of connection points: 4
#     Node 5, Type 0, BuildingBlock: MIFKUJ_clean_linker_1, # of connection points: 4
#     Node 6, Type 1, BuildingBlock: KUFVIS_clean_sbu_0, # of connection points: 4
#     Node 7, Type 1, BuildingBlock: KUFVIS_clean_sbu_0, # of connection points: 4
#     Node 8, Type 1, BuildingBlock: KUFVIS_clean_sbu_0, # of connection points: 4
#     Node 9, Type 1, BuildingBlock: KUFVIS_clean_sbu_0, # of connection points: 4
#     Node 10, Type 1, BuildingBlock: KUFVIS_clean_sbu_0, # of connection points: 4
#     Node 11, Type 1, BuildingBlock: KUFVIS_clean_sbu_0, # of connection points: 4
#     Edge 12, Type (0, 1), BuildingBlock: CIFDUS_clean_linker_0, # of connection points: 2
#     Edge 13, Type (0, 1), BuildingBlock: CIFDUS_clean_linker_0, # of connection points: 2
#     Edge 14, Type (0, 1), BuildingBlock: CIFDUS_clean_linker_0, # of connection points: 2
#     Edge 15, Type (0, 1), BuildingBlock: CIFDUS_clean_linker_0, # of connection points: 2
#     Edge 16, Type (0, 1), BuildingBlock: CIFDUS_clean_linker_0, # of connection points: 2
#     Edge 17, Type (0, 1), BuildingBlock: CIFDUS_clean_linker_0, # of connection points: 2
#     Edge 18, Type (0, 1), BuildingBlock: CIFDUS_clean_linker_0, # of connection points: 2
#     Edge 19, Type (0, 1), BuildingBlock: CIFDUS_clean_linker_0, # of connection points: 2
#     Edge 20, Type (0, 1), BuildingBlock: CIFDUS_clean_linker_0, # of connection points: 2
#     Edge 21, Type (0, 1), BuildingBlock: CIFDUS_clean_linker_0, # of connection points: 2
#     Edge 22, Type (0, 1), BuildingBlock: CIFDUS_clean_linker_0, # of connection points: 2
#     Edge 23, Type (0, 1), BuildingBlock: CIFDUS_clean_linker_0, # of connection points: 2
#     Edge 24, Type (0, 1), BuildingBlock: CIFDUS_clean_linker_0, # of connection points: 2
#     Edge 25, Type (0, 1), BuildingBlock: CIFDUS_clean_linker_0, # of connection points: 2
#     Edge 26, Type (0, 1), BuildingBlock: CIFDUS_clean_linker_0, # of connection points: 2
#     Edge 27, Type (0, 1), BuildingBlock: CIFDUS_clean_linker_0, # of connection points: 2
#     Edge 28, Type (0, 1), BuildingBlock: CIFDUS_clean_linker_0, # of connection points: 2
#     Edge 29, Type (0, 1), BuildingBlock: CIFDUS_clean_linker_0, # of connection points: 2
#     Edge 30, Type (0, 1), BuildingBlock: CIFDUS_clean_linker_0, # of connection points: 2
#     Edge 31, Type (0, 1), BuildingBlock: CIFDUS_clean_linker_0, # of connection points: 2
#     Edge 32, Type (0, 1), BuildingBlock: CIFDUS_clean_linker_0, # of connection points: 2
#     Edge 33, Type (0, 1), BuildingBlock: CIFDUS_clean_linker_0, # of connection points: 2
#     Edge 34, Type (0, 1), BuildingBlock: CIFDUS_clean_linker_0, # of connection points: 2
#     Edge 35, Type (0, 1), BuildingBlock: CIFDUS_clean_linker_0, # of connection points: 2
# Relax obj value: 0.001
# Max RMSD: 0.099
# Mean RMSD: 0.062
data_MOF--net-nom--node1-KUFVIS_clean_sbu_0--node2-MIFKUJ_clean_linker_1--edge1-CIFDUS_clean_linker_0
_symmetry_space_group_name_H-M    P1
_symmetry_Int_Tables_number       1
_symmetry_cell_setting            triclinic
loop_
_symmetry_equiv_pos_as_xyz
'x, y, z'
_cell_length_a     47.164248
_cell_length_b     47.599267
_cell_length_c     50.389492
_cell_angle_alpha  90.444314
_cell_angle_beta   90.60659
_cell_angle_gamma 120.04645
loop_
_atom_site_label
_atom_site_type_symbol
_atom_site_fract_x
_atom_site_fract_y
_atom_site_fract_z
_atom_type_partial_charge
H0 H 0.96452 0.46243 0.2884 0.0
H1 H 0.92425 0.43929 0.25158 0.0
H2 H 0.91614 0.52567 0.25115 0.0
H3 H 0.9555 0.54823 0.28849 0.0
H4 H 0.02759 0.53756 0.28736 0.0
H5 H 0.92824 0.45742 0.33236 0.0
H6 H 0.86989 0.43287 0.34189 0.0
H7 H 0.88711 0.52509 0.37306 0.0
H8 H 0.94492 0.54972 0.36223 0.0
H9 H 0.03729 0.60005 0.38853 0.0
H10 H 0.07372 0.62307 0.42731 0.0
H11 H 0.11795 0.56489 0.40852 0.0
H12 H 0.08212 0.54277 0.36947 0.0
H13 H 0.99193 0.53735 0.3797 0.0
H14 H 0.07906 0.61973 0.32936 0.0
H15 H 0.13429 0.65477 0.3124 0.0
H16 H 0.14067 0.57016 0.29106 0.0
H17 H 0.08491 0.53503 0.30747 0.0
C18 C 0.96268 0.50687 0.29105 0.0
C19 C 0.95391 0.47623 0.28039 0.0
C20 C 0.93095 0.46306 0.25956 0.0
C21 C 0.91728 0.48081 0.24879 0.0
C22 C 0.92648 0.51166 0.25925 0.0
C23 C 0.94884 0.5245 0.28044 0.0
C24 C 0.98641 0.52073 0.31331 0.0
C25 C 0.01992 0.53687 0.30769 0.0
C26 C 0.9761 0.52107 0.33946 0.0
C27 C 0.94087 0.50557 0.34611 0.0
C28 C 0.91931 0.47243 0.34086 0.0
C29 C 0.88601 0.45832 0.34663 0.0
C30 C 0.87368 0.47705 0.35802 0.0
C31 C 0.89555 0.51008 0.36376 0.0
C32 C 0.92873 0.52416 0.35784 0.0
C33 C 0.05715 0.56987 0.37606 0.0
C34 C 0.05513 0.59259 0.39265 0.0
C35 C 0.07583 0.60557 0.41489 0.0
C36 C 0.09873 0.59579 0.42109 0.0
C37 C 0.10105 0.57343 0.4041 0.0
C38 C 0.08052 0.56068 0.38178 0.0
C39 C 0.03334 0.55398 0.3539 0.0
C40 C 0.99975 0.53751 0.3595 0.0
C41 C 0.04351 0.55404 0.32761 0.0
C42 C 0.07804 0.57484 0.31976 0.0
C43 C 0.09248 0.60873 0.32129 0.0
C44 C 0.12386 0.62868 0.31149 0.0
C45 C 0.14153 0.61506 0.30039 0.0
C46 C 0.1275 0.58115 0.29962 0.0
C47 C 0.09576 0.56115 0.30893 0.0
H48 H 0.41654 0.95342 0.52929 0.0
H49 H 0.38836 0.89627 0.54145 0.0
H50 H 0.46199 0.88394 0.50129 0.0
H51 H 0.49019 0.94128 0.48924 0.0
H52 H 0.47585 1.00121 0.54205 0.0
H53 H 0.41906 0.94786 0.46106 0.0
H54 H 0.40408 0.90819 0.42457 0.0
H55 H 0.50459 0.95623 0.39975 0.0
H56 H 0.51991 0.99555 0.43665 0.0
H57 H 0.55772 0.08914 0.45809 0.0
H58 H 0.58306 0.14676 0.44697 0.0
H59 H 0.51433 0.15586 0.49698 0.0
H60 H 0.48804 0.09818 0.50706 0.0
H61 H 0.50219 0.03924 0.44947 0.0
H62 H 0.55996 0.0883 0.53258 0.0
H63 H 0.57672 0.12122 0.57338 0.0
H64 H 0.47497 0.08045 0.59419 0.0
H65 H 0.45862 0.04685 0.55389 0.0
C66 C 0.4553 0.95163 0.50808 0.0
C67 C 0.42671 0.93846 0.52318 0.0
C68 C 0.41071 0.9058 0.53025 0.0
C69 C 0.42296 0.88553 0.52241 0.0
C70 C 0.45172 0.8988 0.5074 0.0
C71 C 0.46783 0.93157 0.50044 0.0
C72 C 0.47232 0.98659 0.50111 0.0
C73 C 0.48124 0.00951 0.52175 0.0
C74 C 0.48028 0.99748 0.47469 0.0
C75 C 0.47072 0.97442 0.45185 0.0
C76 C 0.43796 0.9498 0.44791 0.0
C77 C 0.42937 0.92728 0.42708 0.0
C78 C 0.4533 0.92935 0.40967 0.0
C79 C 0.48586 0.95434 0.41309 0.0
C80 C 0.49452 0.97675 0.43404 0.0
C81 C 0.52132 0.08922 0.48394 0.0
C82 C 0.54792 0.10344 0.46656 0.0
C83 C 0.56241 0.13635 0.46019 0.0
C84 C 0.55085 0.1558 0.47133 0.0
C85 C 0.52408 0.14155 0.48847 0.0
C86 C 0.50922 0.10857 0.4944 0.0
C87 C 0.50564 0.05406 0.49052 0.0
C88 C 0.49693 0.03104 0.46979 0.0
C89 C 0.49795 0.04294 0.51691 0.0
C90 C 0.50808 0.06524 0.54021 0.0
C91 C 0.54133 0.08678 0.54584 0.0
C92 C 0.55082 0.10563 0.56916 0.0
C93 C 0.5272 0.1034 0.58721 0.0
C94 C 0.49386 0.08233 0.58108 0.0
C95 C 0.48443 0.06329 0.55793 0.0
H96 H 0.52132 0.55727 0.71936 0.0
H97 H 0.50082 0.5702 0.75945 0.0
H98 H 0.40141 0.50608 0.73212 0.0
H99 H 0.42204 0.49303 0.69228 0.0
H100 H 0.50935 0.49582 0.70277 0.0
H101 H 0.48878 0.58003 0.67001 0.0
H102 H 0.45526 0.60511 0.66081 0.0
H103 H 0.38882 0.52107 0.61334 0.0
H104 H 0.42141 0.49579 0.62342 0.0
H105 H 0.46249 0.44946 0.59791 0.0
H106 H 0.47566 0.42841 0.55848 0.0
H107 H 0.57879 0.48647 0.57857 0.0
H108 H 0.56518 0.50645 0.61856 0.0
H109 H 0.4808 0.51201 0.61136 0.0
H110 H 0.49375 0.42602 0.64312 0.0
H111 H 0.51946 0.39353 0.65251 0.0
H112 H 0.59134 0.47049 0.70298 0.0
H113 H 0.56656 0.50384 0.69252 0.0
C114 C 0.47321 0.52444 0.70277 0.0
C115 C 0.49513 0.54613 0.722 0.0
C116 C 0.48339 0.55361 0.74479 0.0
C117 C 0.44951 0.53914 0.7489 0.0
C118 C 0.42763 0.5174 0.72958 0.0
C119 C 0.43937 0.51014 0.70673 0.0
C120 C 0.48558 0.51568 0.67904 0.0
C121 C 0.5038 0.49999 0.68273 0.0
C122 C 0.4772 0.52011 0.65299 0.0
C123 C 0.45742 0.53586 0.64763 0.0
C124 C 0.46676 0.56691 0.65789 0.0
C125 C 0.44778 0.58135 0.65241 0.0
C126 C 0.41921 0.56497 0.63655 0.0
C127 C 0.41028 0.53409 0.62608 0.0
C128 C 0.4291 0.51971 0.63161 0.0
C129 C 0.51285 0.47941 0.61118 0.0
C130 C 0.48793 0.4576 0.59379 0.0
C131 C 0.49554 0.44571 0.57118 0.0
C132 C 0.52831 0.45573 0.56526 0.0
C133 C 0.55325 0.47774 0.58273 0.0
C134 C 0.54557 0.48937 0.60552 0.0
C135 C 0.50435 0.49192 0.63504 0.0
C136 C 0.48695 0.50838 0.63137 0.0
C137 C 0.5128 0.48746 0.6611 0.0
C138 C 0.52869 0.46781 0.66653 0.0
C139 C 0.51557 0.43639 0.65562 0.0
C140 C 0.5301 0.4177 0.66114 0.0
C141 C 0.55745 0.42966 0.67831 0.0
C142 C 0.57025 0.46079 0.68967 0.0
C143 C 0.55611 0.47978 0.6837 0.0
H144 H 0.04724 0.57692 0.77406 0.0
H145 H 0.08431 0.59796 0.7364 0.0
H146 H 0.11115 0.5244 0.74811 0.0
H147 H 0.07384 0.50337 0.78565 0.0
H148 H 0.9928 0.50768 0.77954 0.0
H149 H 0.10348 0.58434 0.81968 0.0
H150 H 0.15995 0.59728 0.82869 0.0
H151 H 0.12353 0.50617 0.86929 0.0
H152 H 0.06773 0.49261 0.8588 0.0
H153 H 0.98265 0.45703 0.88416 0.0
H154 H 0.94436 0.43762 0.92076 0.0
H155 H 0.90877 0.50191 0.89729 0.0
H156 H 0.9458 0.51951 0.85972 0.0
H157 H 0.03248 0.51835 0.87268 0.0
H158 H 0.94647 0.4335 0.83329 0.0
H159 H 0.89123 0.39185 0.8202 0.0
H160 H 0.87837 0.46309 0.77747 0.0
H161 H 0.93414 0.50529 0.79107 0.0
C162 C 0.05798 0.53875 0.78267 0.0
C163 C 0.06117 0.5654 0.76849 0.0
C164 C 0.0825 0.57751 0.74714 0.0
C165 C 0.1007 0.56289 0.73936 0.0
C166 C 0.09729 0.53604 0.75354 0.0
C167 C 0.07612 0.52408 0.77503 0.0
C168 C 0.03538 0.52625 0.8053 0.0
C169 C 1.0015 0.51086 0.79996 0.0
C170 C 0.04668 0.52754 0.83169 0.0
C171 C 0.08126 0.53727 0.83822 0.0
C172 C 0.10774 0.56703 0.83024 0.0
C173 C 0.14003 0.57455 0.83566 0.0
C174 C 0.14639 0.5526 0.84945 0.0
C175 C 0.11972 0.52332 0.85804 0.0
C176 C 0.08766 0.51571 0.85236 0.0
C177 C 0.96713 0.48979 0.86935 0.0
C178 C 0.96653 0.46687 0.88695 0.0
C179 C 0.9447 0.45597 0.908 0.0
C180 C 0.92353 0.4684 0.91234 0.0
C181 C 0.92423 0.49136 0.8945 0.0
C182 C 0.94561 0.50172 0.8731 0.0
C183 C 0.99019 0.50128 0.84696 0.0
C184 C 0.02391 0.51624 0.8523 0.0
C185 C 0.9788 0.49679 0.82039 0.0
C186 C 0.9443 0.47262 0.81346 0.0
C187 C 0.93163 0.44041 0.82153 0.0
C188 C 0.90016 0.41653 0.81383 0.0
C189 C 0.8806 0.42422 0.79772 0.0
C190 C 0.89291 0.4566 0.79004 0.0
C191 C 0.92472 0.48062 0.79767 0.0
H192 H 0.61475 0.07886 0.01655 0.0
H193 H 0.65709 0.13441 0.02682 0.0
H194 H 0.58863 0.16722 0.00809 0.0
H195 H 0.54565 0.11096 1.00063 0.0
H196 H 0.54672 0.04581 0.04335 0.0
H197 H 0.58624 0.04507 0.93943 0.0
H198 H 0.60694 0.07893 0.90029 0.0
H199 H 0.55106 0.12533 0.92081 0.0
H200 H 0.5282 0.08908 0.95823 0.0
H201 H 0.46065 0.95208 0.96122 0.0
H202 H 0.43536 0.89382 0.95111 0.0
H203 H 0.50656 0.8886 1.0022 0.0
H204 H 0.5326 0.94686 0.0114 0.0
H205 H 0.51908 1.00068 0.9516 0.0
H206 H 0.45993 0.95123 0.0312 0.0
H207 H 0.44499 0.91391 0.06824 0.0
H208 H 0.5439 0.96965 0.09978 0.0
H209 H 0.5592 1.00504 0.06173 0.0
C210 C 0.57736 0.09096 0.00716 0.0
C211 C 0.60896 0.09812 0.01473 0.0
C212 C 0.63327 0.13005 0.02028 0.0
C213 C 0.6267 0.15573 0.01791 0.0
C214 C 0.59477 0.14829 0.01038 0.0
C215 C 0.5702 0.11613 1.00555 0.0
C216 C 0.55206 0.05681 1.00181 0.0
C217 C 0.54013 0.03575 0.02336 0.0
C218 C 0.54353 0.04413 0.97567 0.0
C219 C 0.55638 0.06519 0.95217 0.0
C220 C 0.57841 0.06249 0.93534 0.0
C221 C 0.59051 0.08221 0.91309 0.0
C222 C 0.58112 0.10538 0.90731 0.0
C223 C 0.55875 0.1077 0.92424 0.0
C224 C 0.54613 0.08745 0.94611 0.0
C225 C 0.49812 0.95375 0.98751 0.0
C226 C 0.47085 0.9384 0.9702 0.0
C227 C 0.45642 0.90521 0.96445 0.0
C228 C 0.46885 0.88682 0.97615 0.0
C229 C 0.4962 0.90219 0.99332 0.0
C230 C 0.51098 0.93543 0.99864 0.0
C231 C 0.51388 0.98911 0.99325 0.0
C232 C 0.52442 0.01044 0.97172 0.0
C233 C 0.52112 1.00196 0.01955 0.0
C234 C 0.51087 0.98076 0.04331 0.0
C235 C 0.47847 0.95521 0.04597 0.0
C236 C 0.46985 0.93405 0.06741 0.0
C237 C 0.49328 0.93839 0.08701 0.0
C238 C 0.52533 0.96486 0.0848 0.0
C239 C 0.53404 0.98557 0.06318 0.0
H240 H 0.51145 0.49188 0.21473 0.0
H241 H 0.52712 0.46946 0.25193 0.0
H242 H 0.62876 0.52756 0.23075 0.0
H243 H 0.61306 0.55045 0.19388 0.0
H244 H 0.5276 0.55409 0.20428 0.0
H245 H 0.55488 0.47499 0.16398 0.0
H246 H 0.59293 0.45634 0.15192 0.0
H247 H 0.65063 0.54493 0.10866 0.0
H248 H 0.61442 0.56437 0.12262 0.0
H249 H 0.56955 0.60503 0.09992 0.0
H250 H 0.55215 0.62187 0.06029 0.0
H251 H 0.45096 0.56135 0.08243 0.0
H252 H 0.46882 0.54581 0.12267 0.0
H253 H 0.5545 0.54384 0.1112 0.0
H254 H 0.54968 0.62883 0.15039 0.0
H255 H 0.53239 0.66683 0.1648 0.0
H256 H 0.45375 0.59086 0.20894 0.0
H257 H 0.47083 0.5524 0.19388 0.0
C258 C 0.56099 0.52249 0.20121 0.0
C259 C 0.53714 0.49991 0.21815 0.0
C260 C 0.54611 0.48712 0.23941 0.0
C261 C 0.57915 0.49657 0.24415 0.0
C262 C 0.60306 0.51941 0.22733 0.0
C263 C 0.59411 0.5325 0.20625 0.0
C264 C 0.55096 0.5356 0.17854 0.0
C265 C 0.53295 0.55128 0.18387 0.0
C266 C 0.55986 0.53392 0.15201 0.0
C267 C 0.58199 0.52135 0.14461 0.0
C268 C 0.57607 0.49059 0.1523 0.0
C269 C 0.59765 0.47975 0.14503 0.0
C270 C 0.62516 0.49918 0.12943 0.0
C271 C 0.63035 0.52956 0.12125 0.0
C272 C 0.60929 0.54059 0.12895 0.0
C273 C 0.52048 0.5742 0.11422 0.0
C274 C 0.54363 0.59569 0.09633 0.0
C275 C 0.53359 0.60506 0.07355 0.0
C276 C 0.50009 0.5927 0.06789 0.0
C277 C 0.47696 0.57169 0.08623 0.0
C278 C 0.4871 0.56268 0.10924 0.0
C279 C 0.53116 0.56198 0.13698 0.0
C280 C 0.54886 0.54624 0.13163 0.0
C281 C 0.52401 0.56558 0.16353 0.0
C282 C 0.51134 0.58759 0.17077 0.0
C283 C 0.52825 0.62004 0.16267 0.0
C284 C 0.51856 0.64189 0.17117 0.0
C285 C 0.49184 0.6319 0.18815 0.0
C286 C 0.4743 0.59919 0.19572 0.0
C287 C 0.48414 0.57727 0.18725 0.0
Mn288 Mn 0.62543 0.38779 0.41288 0.0
Mn289 Mn 0.66094 0.46706 0.43072 0.0
C290 C 0.60258 0.40474 0.44525 0.0
C291 C 0.6176 0.33556 0.41826 0.0
C292 C 0.61973 0.43975 0.38091 0.0
O293 O 0.6716 0.40585 0.39873 0.0
O294 O 0.69138 0.45851 0.40976 0.0
C295 C 0.71041 0.46733 0.46759 0.0
N296 N 0.68516 0.47292 0.46297 0.0
C297 C 0.68731 0.49066 0.50818 0.0
C298 C 0.71346 0.48527 0.51337 0.0
C299 C 0.725 0.47348 0.493 0.0
C300 C 0.6737 0.484 0.48249 0.0
H301 H 0.71933 0.4582 0.45203 0.0
C302 C 0.69419 0.43562 0.39888 0.0
O303 O 0.61037 0.34427 0.39599 0.0
O304 O 0.63076 0.35759 0.43681 0.0
N305 N 0.63484 0.47936 0.45126 0.0
C306 C 0.60964 0.48357 0.44296 0.0
C307 C 0.59545 0.49549 0.4609 0.0
C308 C 0.60756 0.50336 0.4871 0.0
C309 C 0.63402 0.49957 0.49503 0.0
C310 C 0.64736 0.48787 0.47619 0.0
H311 H 0.60038 0.47779 0.42282 0.0
O312 O 0.58456 0.37789 0.43211 0.0
O313 O 0.63324 0.42104 0.43892 0.0
O314 O 0.61487 0.41093 0.38316 0.0
O315 O 0.6356 0.4625 0.39796 0.0
C316 C 0.64752 0.5067 0.52094 0.0
C317 C 0.67405 0.50211 0.52755 0.0
H318 H 0.72477 0.48997 0.53295 0.0
H319 H 0.74509 0.46914 0.49687 0.0
H320 H 0.57513 0.49848 0.45458 0.0
H321 H 0.59632 0.51219 0.50097 0.0
H322 H 0.63751 0.51549 0.536 0.0
H323 H 0.68405 0.50743 0.54759 0.0
Mn324 Mn 0.26124 0.65368 0.57682 0.0
Mn325 Mn 0.21866 0.57607 0.55437 0.0
C326 C 0.22267 0.63925 0.54307 0.0
C327 C 0.3064 0.70606 0.57422 0.0
C328 C 0.20358 0.5985 0.60604 0.0
O329 O 0.28849 0.63452 0.59113 0.0
O330 O 0.25838 0.58364 0.57437 0.0
C331 C 0.26705 0.57964 0.51564 0.0
N332 N 0.23616 0.57316 0.5211 0.0
C333 C 0.21891 0.55837 0.47554 0.0
C334 C 0.2505 0.56469 0.46944 0.0
C335 C 0.27469 0.57545 0.48957 0.0
C336 C 0.21276 0.56301 0.50186 0.0
H337 H 0.28571 0.58798 0.53105 0.0
C338 C 0.28276 0.60548 0.58788 0.0
O339 O 0.28937 0.69606 0.59573 0.0
O340 O 0.29812 0.68514 0.55491 0.0
N341 N 0.17946 0.56506 0.53465 0.0
C342 C 0.15041 0.56062 0.54376 0.0
C343 C 0.12365 0.55004 0.52608 0.0
C344 C 0.12693 0.54382 0.49932 0.0
C345 C 0.1569 0.54801 0.49052 0.0
C346 C 0.18262 0.55834 0.5091 0.0
H347 H 0.14773 0.56524 0.56433 0.0
O348 O 0.23135 0.66518 0.55732 0.0
O349 O 0.2367 0.62256 0.54902 0.0
O350 O 0.22588 0.62835 0.60457 0.0
O351 O 0.1988 0.57721 0.58825 0.0
C352 C 0.16239 0.54276 0.46398 0.0
C353 C 0.19341 0.54805 0.45647 0.0
H354 H 0.25651 0.56156 0.44935 0.0
H355 H 0.29916 0.58052 0.48499 0.0
H356 H 0.10059 0.54682 0.53303 0.0
H357 H 0.10635 0.53602 0.48568 0.0
H358 H 0.14304 0.53502 0.44912 0.0
H359 H 0.19745 0.54429 0.43595 0.0
Mn360 Mn 0.62452 0.2674 0.74216 0.0
Mn361 Mn 0.66482 0.22726 0.72865 0.0
C362 C 0.60385 0.22632 0.71048 0.0
C363 C 0.61587 0.31078 0.73482 0.0
C364 C 0.62477 0.21626 0.77824 0.0
O365 O 0.67016 0.29712 0.75784 0.0
O366 O 0.69599 0.2706 0.74433 0.0
C367 C 0.70802 0.26895 0.68625 0.0
N368 N 0.68437 0.23928 0.69453 0.0
C369 C 0.68151 0.21514 0.65172 0.0
C370 C 0.70597 0.2454 0.64278 0.0
C371 C 0.71924 0.27243 0.66012 0.0
C372 C 0.67141 0.21311 0.67802 0.0
H373 H 0.71818 0.28982 0.69947 0.0
C374 C 0.69593 0.29493 0.75543 0.0
O375 O 0.60801 0.2953 0.75708 0.0
O376 O 0.62951 0.3016 0.71718 0.0
N377 N 0.63734 0.18517 0.713 0.0
C378 C 0.61282 0.15807 0.72431 0.0
C379 C 0.59644 0.12906 0.70939 0.0
C380 C 0.60552 0.12816 0.68308 0.0
C381 C 0.63099 0.15628 0.67194 0.0
C382 C 0.64663 0.18442 0.68784 0.0
H383 H 0.60568 0.15861 0.74451 0.0
O384 O 0.58468 0.23498 0.72166 0.0
O385 O 0.63432 0.24196 0.71823 0.0
O386 O 0.61394 0.23518 0.77225 0.0
O387 O 0.6449 0.21254 0.76393 0.0
C388 C 0.64108 0.15763 0.64553 0.0
C389 C 0.66629 0.18705 0.63542 0.0
H390 H 0.71456 0.24823 0.6226 0.0
H391 H 0.73802 0.2959 0.65332 0.0
H392 H 0.57674 0.10748 0.71811 0.0
H393 H 0.59257 0.10583 0.67154 0.0
H394 H 0.6293 0.13631 0.63272 0.0
H395 H 0.67354 0.1879 0.61498 0.0
Mn396 Mn 0.40039 0.65637 0.91376 0.0
Mn397 Mn 0.36043 0.57617 0.92634 0.0
C398 C 0.42078 0.63605 0.94539 0.0
C399 C 0.40904 0.70838 0.9211 0.0
C400 C 0.40181 0.60505 0.87765 0.0
O401 O 0.35506 0.64083 0.89783 0.0
O402 O 0.3298 0.58798 0.90886 0.0
C403 C 0.31478 0.57512 0.96671 0.0
N404 N 0.33895 0.56897 0.95962 0.0
C405 C 0.33976 0.54841 1.00294 0.0
C406 C 0.31472 0.55433 0.01064 0.0
C407 C 0.30222 0.56779 0.99245 0.0
C408 C 0.35119 0.55607 0.97698 0.0
H409 H 0.30522 0.58563 0.95284 0.0
C410 C 0.32983 0.61252 0.89844 0.0
O411 O 0.41702 0.70035 0.8989 0.0
O412 O 0.39534 0.68597 0.93877 0.0
N413 N 0.38712 0.56163 0.94345 0.0
C414 C 0.41212 0.55861 0.93322 0.0
C415 C 0.42775 0.54607 0.94906 0.0
C416 C 0.41742 0.53661 0.97516 0.0
C417 C 0.3914 0.53959 0.98514 0.0
C418 C 0.37655 0.55196 0.96835 0.0
H419 H 0.42022 0.5659 0.9132 0.0
O420 O 0.44003 0.66361 0.93433 0.0
O421 O 0.39031 0.62128 0.93751 0.0
O422 O 0.41109 0.63455 0.88348 0.0
O423 O 0.38246 0.58128 0.89205 0.0
C424 C 0.37999 0.5313 0.01124 0.0
C425 C 0.35422 0.53575 0.02014 0.0
H426 H 0.30509 0.54887 0.03053 0.0
H427 H 0.28301 0.57258 0.9983 0.0
H428 H 0.44785 0.54389 0.94123 0.0
H429 H 0.42981 0.52732 0.98743 0.0
H430 H 0.39113 0.52187 0.02473 0.0
H431 H 0.34592 0.52965 0.04035 0.0
Mn432 Mn 0.77319 0.4073 0.08212 0.0
Mn433 Mn 0.81357 0.36799 0.09922 0.0
C434 C 0.81469 0.42969 0.11357 0.0
C435 C 0.7299 0.41684 0.08781 0.0
C436 C 0.82762 0.4072 0.04915 0.0
O437 O 0.74284 0.3618 0.06802 0.0
O438 O 0.77184 0.33791 0.08002 0.0
C439 C 0.76606 0.32344 0.13817 0.0
N440 N 0.79716 0.3466 0.13215 0.0
C441 C 0.8169 0.34424 0.17584 0.0
C442 C 0.78511 0.32021 0.18246 0.0
C443 C 0.75957 0.30987 0.16357 0.0
C444 C 0.82186 0.35693 0.15025 0.0
H445 H 0.74637 0.31537 0.12369 0.0
C446 C 0.74681 0.33727 0.06918 0.0
O447 O 0.74577 0.42378 0.0657 0.0
O448 O 0.73864 0.40387 0.10632 0.0
N449 N 0.85423 0.39345 0.11811 0.0
C450 C 0.88302 0.41823 0.10914 0.0
C451 C 0.91083 0.43209 0.12593 0.0
C452 C 0.90886 0.42011 0.15163 0.0
C453 C 0.87907 0.39437 0.16034 0.0
C454 C 0.85217 0.38152 0.14272 0.0
H455 H 0.88462 0.42768 0.0895 0.0
O456 O 0.80595 0.44777 0.10083 0.0
O457 O 0.79861 0.39875 0.10783 0.0
O458 O 0.80581 0.41536 0.05221 0.0
O459 O 0.83262 0.38985 0.06565 0.0
C460 C 0.87483 0.38142 0.18599 0.0
C461 C 0.84375 0.35639 0.19375 0.0
H462 H 0.78 0.3097 0.20204 0.0
H463 H 0.73494 0.29144 0.16857 0.0
H464 H 0.9337 0.45205 0.1191 0.0
H465 H 0.9303 0.43104 0.1646 0.0
H466 H 0.89515 0.39094 0.20007 0.0
H467 H 0.84067 0.34702 0.21367 0.0
Mn468 Mn 0.37913 0.77245 0.25149 0.0
Mn469 Mn 0.46067 0.81718 0.26319 0.0
C470 C 0.39959 0.81648 0.28035 0.0
C471 C 0.32834 0.72792 0.26143 0.0
C472 C 0.42744 0.82276 0.21314 0.0
O473 O 0.39616 0.74356 0.23707 0.0
O474 O 0.44936 0.77356 0.24911 0.0
C475 C 0.46566 0.77911 0.30732 0.0
N476 N 0.47068 0.8079 0.29774 0.0
C477 C 0.49483 0.83527 0.33925 0.0
C478 C 0.4901 0.80595 0.34952 0.0
C479 C 0.47537 0.77774 0.3335 0.0
C480 C 0.48464 0.83514 0.31303 0.0
H481 H 0.45427 0.75737 0.29508 0.0
C482 C 0.4251 0.74785 0.23897 0.0
O483 O 0.33368 0.7417 0.23845 0.0
O484 O 0.35269 0.73938 0.27826 0.0
N485 N 0.47532 0.85994 0.27702 0.0
C486 C 0.47717 0.88602 0.2644 0.0
C487 C 0.49077 0.91605 0.27786 0.0
C488 C 0.50264 0.91906 0.30402 0.0
C489 C 0.50101 0.89204 0.31643 0.0
C490 C 0.4874 0.86278 0.30197 0.0
H491 H 0.46818 0.8839 0.24427 0.0
O492 O 0.37056 0.8047 0.26985 0.0
O493 O 0.41551 0.80162 0.2742 0.0
O494 O 0.39803 0.80274 0.21969 0.0
O495 O 0.45247 0.82893 0.22752 0.0
C496 C 0.51193 0.89287 0.34272 0.0
C497 C 0.5088 0.86449 0.35413 0.0
H498 H 0.49746 0.80478 0.36972 0.0
H499 H 0.4715 0.755 0.34132 0.0
H500 H 0.49202 0.93681 0.26812 0.0
H501 H 0.51283 0.94218 0.31443 0.0
H502 H 0.52236 0.91509 0.35446 0.0
H503 H 0.51686 0.86532 0.37448 0.0
H504 H 0.19918 0.61832 0.31327 0.0
H505 H 0.15643 0.65954 0.26182 0.0
H506 H 0.21022 0.69615 0.24328 0.0
H507 H 0.26981 0.7182 0.24325 0.0
H508 H 0.31335 0.68042 0.29751 0.0
H509 H 0.25904 0.64051 0.31323 0.0
C510 C 0.20176 0.63519 0.29786 0.0
C511 C 0.17407 0.63633 0.28884 0.0
C512 C 0.23289 0.65672 0.28781 0.0
C513 C 0.17756 0.65846 0.2691 0.0
C514 C 0.20824 0.67929 0.25848 0.0
C515 C 0.26731 0.7009 0.25824 0.0
C516 C 0.29543 0.70201 0.26908 0.0
C517 C 0.23613 0.67886 0.26786 0.0
C518 C 0.29198 0.67993 0.28886 0.0
C519 C 0.26096 0.65717 0.29789 0.0
H520 H 0.56422 0.18434 0.42282 0.0
H521 H 0.57259 0.20594 0.50674 0.0
H522 H 0.59644 0.26375 0.49766 0.0
H523 H 0.61247 0.30779 0.466 0.0
H524 H 0.60092 0.28637 0.38195 0.0
H525 H 0.58113 0.22901 0.39085 0.0
C526 C 0.5716 0.20182 0.43905 0.0
C527 C 0.56665 0.19095 0.46541 0.0
C528 C 0.58469 0.23502 0.43365 0.0
C529 C 0.57594 0.21374 0.4863 0.0
C530 C 0.58964 0.24678 0.48112 0.0
C531 C 0.60602 0.29066 0.44959 0.0
C532 C 0.60834 0.30138 0.42333 0.0
C533 C 0.5938 0.25766 0.45489 0.0
C534 C 0.59942 0.27876 0.40234 0.0
C535 C 0.58803 0.24594 0.40743 0.0
H536 H 0.35307 0.53479 0.63616 0.0
H537 H 0.43884 0.62813 0.62371 0.0
H538 H 0.40407 0.65023 0.60979 0.0
H539 H 0.349 0.64142 0.59747 0.0
H540 H 0.26445 0.54638 0.60748 0.0
H541 H 0.29899 0.52654 0.62572 0.0
C542 C 0.36423 0.55996 0.63031 0.0
C543 C 0.39849 0.57961 0.63061 0.0
C544 C 0.34424 0.57216 0.62167 0.0
C545 C 0.41249 0.61245 0.62372 0.0
C546 C 0.39262 0.62505 0.61557 0.0
C547 C 0.33824 0.61652 0.60394 0.0
C548 C 0.30429 0.59532 0.6009 0.0
C549 C 0.35844 0.60493 0.61394 0.0
C550 C 0.29059 0.56305 0.60927 0.0
C551 C 0.31028 0.55167 0.61977 0.0
H552 H 0.82187 0.42266 0.79816 0.0
H553 H 0.86697 0.36667 0.77553 0.0
H554 H 0.81395 0.32183 0.76094 0.0
H555 H 0.75514 0.29836 0.75485 0.0
H556 H 0.70879 0.35332 0.77749 0.0
H557 H 0.76191 0.39864 0.79187 0.0
C558 C 0.82 0.4007 0.78984 0.0
C559 C 0.84823 0.3979 0.78802 0.0
C560 C 0.78926 0.37478 0.78164 0.0
C561 C 0.84552 0.36923 0.77742 0.0
C562 C 0.81524 0.34362 0.76901 0.0
C563 C 0.75646 0.32016 0.76297 0.0
C564 C 0.72784 0.32226 0.76507 0.0
C565 C 0.78696 0.34606 0.77116 0.0
C566 C 0.73032 0.35087 0.77568 0.0
C567 C 0.76073 0.37688 0.78386 0.0
H568 H 0.45644 0.8579 0.92758 0.0
H569 H 0.44854 0.8376 0.01124 0.0
H570 H 0.42683 0.77988 1.00146 0.0
H571 H 0.41282 0.73584 0.96919 0.0
H572 H 0.42411 0.7566 0.88554 0.0
H573 H 0.44148 0.81347 0.89515 0.0
C574 C 0.44955 0.84069 0.94359 0.0
C575 C 0.45394 0.85177 0.97005 0.0
C576 C 0.43782 0.80774 0.93781 0.0
C577 C 0.44545 0.82948 0.99072 0.0
C578 C 0.43303 0.79656 0.98514 0.0
C579 C 0.41873 0.75274 0.95305 0.0
C580 C 0.41714 0.74209 0.92671 0.0
C581 C 0.4295 0.78549 0.95877 0.0
C582 C 0.42522 0.76429 0.906 0.0
C583 C 0.43517 0.79678 0.91148 0.0
H584 H 0.61204 0.43742 0.11711 0.0
H585 H 0.69169 0.53646 0.12464 0.0
H586 H 0.73007 0.51995 0.10984 0.0
H587 H 0.74176 0.47738 0.09576 0.0
H588 H 0.66414 0.37771 0.09297 0.0
H589 H 0.62424 0.39428 0.10513 0.0
C590 C 0.63782 0.45538 0.11587 0.0
C591 C 0.64864 0.48829 0.12167 0.0
C592 C 0.66016 0.44559 0.10806 0.0
C593 C 0.68226 0.51112 0.11963 0.0
C594 C 0.70441 0.5017 0.11135 0.0
C595 C 0.716 0.45945 0.09754 0.0
C596 C 0.7055 0.42658 0.09305 0.0
C597 C 0.69366 0.46907 0.10545 0.0
C598 C 0.6724 0.40324 0.09602 0.0
C599 C 0.64974 0.41271 0.10308 0.0
H600 H 0.39535 0.85842 0.56965 0.0
H601 H 0.4105 0.83387 0.49045 0.0
H602 H 0.3784 0.77621 0.50047 0.0
H603 H 0.34283 0.73282 0.5305 0.0
H604 H 0.326 0.75694 0.60931 0.0
H605 H 0.36204 0.81467 0.60069 0.0
C606 C 0.3916 0.84043 0.55458 0.0
C607 C 0.40519 0.85051 0.52927 0.0
C608 C 0.37279 0.80724 0.56039 0.0
C609 C 0.40059 0.82687 0.51014 0.0
C610 C 0.38206 0.79385 0.51581 0.0
C611 C 0.34734 0.75064 0.54595 0.0
C612 C 0.33159 0.74054 0.57049 0.0
C613 C 0.36765 0.78377 0.54071 0.0
C614 C 0.33778 0.76401 0.59025 0.0
C615 C 0.35827 0.79706 0.58528 0.0
H616 H 0.56899 0.41366 0.72717 0.0
H617 H 0.57771 0.39951 0.6437 0.0
H618 H 0.5989 0.36319 0.65398 0.0
H619 H 0.61241 0.33356 0.68658 0.0
H620 H 0.60027 0.34466 0.77003 0.0
H621 H 0.5832 0.38429 0.75998 0.0
C622 C 0.57592 0.40286 0.71132 0.0
C623 C 0.57195 0.40921 0.68475 0.0
C624 C 0.58734 0.38144 0.71738 0.0
C625 C 0.58049 0.39479 0.66429 0.0
C626 C 0.59261 0.3741 0.67016 0.0
C627 C 0.60637 0.34491 0.70259 0.0
C628 C 0.60769 0.3363 0.72901 0.0
C629 C 0.59579 0.36697 0.69661 0.0
C630 C 0.5994 0.3509 0.74953 0.0
C631 C 0.58962 0.37352 0.74379 0.0
H632 H 0.20013 0.611 0.86338 0.0
H633 H 0.16962 0.5103 0.84793 0.0
H634 H 0.22357 0.52013 0.86133 0.0
H635 H 0.27861 0.55649 0.87932 0.0
H636 H 0.31073 0.65779 0.89265 0.0
H637 H 0.25721 0.64865 0.87762 0.0
C638 C 0.2054 0.5913 0.86249 0.0
C639 C 0.18048 0.5598 0.85512 0.0
C640 C 0.23679 0.59719 0.86988 0.0
C641 C 0.18791 0.53461 0.85424 0.0
C642 C 0.21888 0.54022 0.86173 0.0
C643 C 0.27396 0.57661 0.87885 0.0
C644 C 0.29849 0.60768 0.88734 0.0
C645 C 0.24331 0.57125 0.87001 0.0
C646 C 0.29225 0.63361 0.8862 0.0
C647 C 0.26161 0.62838 0.87771 0.0
H648 H 0.62008 0.20512 0.03971 0.0
H649 H 0.6928 0.18382 0.00937 0.0
H650 H 0.7361 0.23773 0.02276 0.0
H651 H 0.7537 0.29051 0.04435 0.0
H652 H 0.68108 0.31389 0.07046 0.0
H653 H 0.63729 0.25986 0.05659 0.0
C654 C 0.64525 0.2123 0.03542 0.0
C655 C 0.6529 0.18984 0.02394 0.0
C656 C 0.67015 0.24384 0.04235 0.0
C657 C 0.68596 0.19994 0.01896 0.0
C658 C 0.71086 0.23098 0.02637 0.0
C659 C 0.72825 0.28377 0.04683 0.0
C660 C 0.72053 0.30589 0.05858 0.0
C661 C 0.70327 0.25297 0.03839 0.0
C662 C 0.68754 0.29719 0.06138 0.0
C663 C 0.66254 0.26629 0.05358 0.0
H664 H 0.43155 0.6269 0.19225 0.0
H665 H 0.53441 0.69151 0.20879 0.0
H666 H 0.52274 0.73258 0.22596 0.0
H667 H 0.48388 0.75051 0.23592 0.0
H668 H 0.38074 0.68699 0.21932 0.0
H669 H 0.39199 0.64517 0.20269 0.0
C670 C 0.45132 0.64991 0.19977 0.0
C671 C 0.48384 0.6562 0.19904 0.0
C672 C 0.44444 0.67364 0.20958 0.0
C673 C 0.50924 0.68622 0.20871 0.0
C674 C 0.50258 0.70969 0.21866 0.0
C675 C 0.46371 0.72754 0.22873 0.0
C676 C 0.43147 0.72206 0.22892 0.0
C677 C 0.47034 0.70373 0.21908 0.0
C678 C 0.40583 0.69203 0.2194 0.0
C679 C 0.41224 0.66804 0.20989 0.0
H680 H 0.83531 0.50407 0.35112 0.0
H681 H 0.83224 0.41695 0.37851 0.0
H682 H 0.77504 0.39466 0.391 0.0
H683 H 0.72703 0.40188 0.39741 0.0
H684 H 0.7325 0.491 0.37265 0.0
H685 H 0.78753 0.51056 0.35606 0.0
C686 C 0.82225 0.48027 0.35997 0.0
C687 C 0.83826 0.46242 0.36411 0.0
C688 C 0.7897 0.46796 0.36767 0.0
C689 C 0.82055 0.43122 0.37494 0.0
C690 C 0.78786 0.41851 0.38225 0.0
C691 C 0.74016 0.42533 0.388 0.0
C692 C 0.72581 0.44502 0.38631 0.0
C693 C 0.77231 0.43689 0.37911 0.0
C694 C 0.74316 0.47552 0.37434 0.0
C695 C 0.77463 0.48675 0.36487 0.0
H696 H 0.16271 0.61254 0.42768 0.0
H697 H 0.08035 0.6053 0.47018 0.0
H698 H 0.11255 0.62121 0.51139 0.0
H699 H 0.16295 0.63326 0.5361 0.0
H700 H 0.24341 0.63623 0.49409 0.0
H701 H 0.21334 0.62612 0.45194 0.0
C702 C 0.15175 0.61439 0.44595 0.0
C703 C 0.11911 0.60764 0.44577 0.0
C704 C 0.17011 0.62277 0.46969 0.0
C705 C 0.10555 0.61075 0.4696 0.0
C706 C 0.12387 0.61966 0.49325 0.0
C707 C 0.17374 0.63179 0.51761 0.0
C708 C 0.20466 0.63436 0.51799 0.0
C709 C 0.15598 0.6252 0.49361 0.0
C710 C 0.21908 0.63328 0.49409 0.0
C711 C 0.20201 0.62768 0.47007 0.0
H712 H 0.57706 0.16551 0.59549 0.0
H713 H 0.5 0.08393 0.6362 0.0
H714 H 0.5159 0.11512 0.67772 0.0
H715 H 0.55235 0.16557 0.70283 0.0
H716 H 0.63122 0.24557 0.6626 0.0
H717 H 0.61411 0.21507 0.62057 0.0
C718 C 0.5639 0.15438 0.61345 0.0
C719 C 0.53721 0.12244 0.61256 0.0
C720 C 0.5735 0.17223 0.63739 0.0
C721 C 0.52022 0.10868 0.63609 0.0
C722 C 0.5294 0.12642 0.65993 0.0
C723 C 0.5657 0.17609 0.68479 0.0
C724 C 0.59339 0.20723 0.68568 0.0
C725 C 0.55599 0.15821 0.66083 0.0
C726 C 0.61028 0.22118 0.66229 0.0
C727 C 0.60043 0.20385 0.63831 0.0
H728 H 0.46954 0.5981 0.77203 0.0
H729 H 0.40132 0.4959 0.78084 0.0
H730 H 0.38062 0.50718 0.82141 0.0
H731 H 0.38203 0.54599 0.85443 0.0
H732 H 0.44983 0.64843 0.84529 0.0
H733 H 0.47062 0.63706 0.80495 0.0
C734 C 0.45028 0.57831 0.78295 0.0
C735 C 0.43699 0.54623 0.77346 0.0
C736 C 0.4384 0.58499 0.8062 0.0
C737 C 0.41173 0.52085 0.7876 0.0
C738 C 0.39999 0.52726 0.81085 0.0
C739 C 0.40139 0.56588 0.84368 0.0
C740 C 0.41429 0.59803 0.85301 0.0
C741 C 0.41314 0.55924 0.82034 0.0
C742 C 0.43929 0.62344 0.83863 0.0
C743 C 0.45128 0.61698 0.81553 0.0
H744 H 0.93561 0.45318 0.96164 0.0
H745 H 0.86145 0.46012 0.91588 0.0
H746 H 0.82605 0.44378 0.95442 0.0
H747 H 0.81549 0.42604 1.0011 0.0
H748 H 0.88814 0.41406 0.04446 0.0
H749 H 0.92425 0.43312 0.00671 0.0
C750 C 0.9115 0.4506 0.95976 0.0
C751 C 0.90143 0.45793 0.93567 0.0
C752 C 0.89081 0.44019 0.98169 0.0
C753 C 0.8703 0.45522 0.93418 0.0
C754 C 0.84983 0.44559 0.9562 0.0
C755 C 0.83927 0.42774 1.00228 0.0
C756 C 0.84911 0.4189 0.02575 0.0
C757 C 0.8598 0.43793 0.98008 0.0
C758 C 0.87986 0.42082 0.02679 0.0
C759 C 0.90063 0.43171 1.00515 0.0
H760 H 0.43534 0.90662 0.11391 0.0
H761 H 0.53189 0.91755 0.11067 0.0
H762 H 0.5199 0.88284 0.14895 0.0
H763 H 0.48282 0.85047 0.18414 0.0
H764 H 0.38507 0.83629 0.18613 0.0
H765 H 0.39648 0.87038 0.1471 0.0
C766 C 0.45365 0.90107 0.12125 0.0
C767 C 0.48476 0.91538 0.10951 0.0
C768 C 0.44636 0.88034 0.14304 0.0
C769 C 0.5081 0.90788 0.11964 0.0
C770 C 0.50118 0.8877 0.14145 0.0
C771 C 0.46392 0.8547 0.17598 0.0
C772 C 0.43322 0.84101 0.18817 0.0
C773 C 0.47056 0.8741 0.15348 0.0
C774 C 0.4089 0.84643 0.17711 0.0
C775 C 0.41547 0.86607 0.15486 0.0
H776 H 0.55841 0.48993 0.29501 0.0
H777 H 0.62143 0.47299 0.24411 0.0
H778 H 0.63785 0.45156 0.28157 0.0
H779 H 0.63559 0.43923 0.32943 0.0
H780 H 0.57455 0.45886 0.38033 0.0
H781 H 0.55562 0.47712 0.34234 0.0
C782 C 0.57548 0.48123 0.29207 0.0
C783 C 0.58865 0.48301 0.26682 0.0
C784 C 0.58508 0.46933 0.31375 0.0
C785 C 0.61116 0.47213 0.26341 0.0
C786 C 0.62044 0.45974 0.2848 0.0
C787 C 0.61782 0.44713 0.33199 0.0
C788 C 0.60629 0.44765 0.35747 0.0
C789 C 0.60772 0.4584 0.31011 0.0
C790 C 0.58376 0.45841 0.36084 0.0
C791 C 0.57296 0.46883 0.33914 0.0
H792 H 0.4377 0.93427 0.35891 0.0
H793 H 0.44871 0.87051 0.41281 0.0
H794 H 0.43323 0.82961 0.37728 0.0
H795 H 0.41642 0.81215 0.33078 0.0
H796 H 0.40389 0.87523 0.27716 0.0
H797 H 0.41978 0.9163 0.31257 0.0
C798 C 0.43669 0.91138 0.36269 0.0
C799 C 0.44431 0.90514 0.38815 0.0
C800 C 0.42753 0.88803 0.34227 0.0
C801 C 0.44289 0.87554 0.39319 0.0
C802 C 0.43398 0.85224 0.37297 0.0
C803 C 0.41762 0.83511 0.32691 0.0
C804 C 0.41032 0.84145 0.30137 0.0
C805 C 0.42634 0.85826 0.34742 0.0
C806 C 0.41032 0.87044 0.29664 0.0
C807 C 0.41931 0.89379 0.31684 0.0
H808 H 0.5758 0.43955 0.55923 0.0
H809 H 0.49906 0.44477 0.51601 0.0
H810 H 0.51296 0.42606 0.47566 0.0
H811 H 0.54929 0.41143 0.45176 0.0
H812 H 0.62887 0.41112 0.49417 0.0
H813 H 0.61145 0.4244 0.5357 0.0
C814 C 0.5622 0.4368 0.54098 0.0
C815 C 0.53641 0.44362 0.54078 0.0
C816 C 0.57079 0.42676 0.51766 0.0
C817 C 0.51872 0.43928 0.51695 0.0
C818 C 0.52674 0.42871 0.49377 0.0
C819 C 0.56255 0.41414 0.4702 0.0
C820 C 0.5907 0.41126 0.47005 0.0
C821 C 0.55296 0.42274 0.4938 0.0
C822 C 0.60756 0.41412 0.49394 0.0
C823 C 0.59756 0.42159 0.51762 0.0
H824 H 0.1053 0.52736 0.69909 0.0
H825 H 0.14477 0.6259 0.72734 0.0
H826 H 0.18012 0.6459 0.68864 0.0
H827 H 0.19986 0.63521 0.6467 0.0
H828 H 0.15908 0.53614 0.61869 0.0
H829 H 0.12451 0.51673 0.65736 0.0
C830 C 0.12187 0.5532 0.6969 0.0
C831 C 0.12252 0.57509 0.7161 0.0
C832 C 0.1419 0.5645 0.67458 0.0
C833 C 0.14367 0.60855 0.71273 0.0
C834 C 0.16396 0.61999 0.69066 0.0
C835 C 0.18343 0.60938 0.64903 0.0
C836 C 0.18227 0.5873 0.62967 0.0
C837 C 0.16326 0.59818 0.6714 0.0
C838 C 0.16062 0.55387 0.6331 0.0
C839 C 0.14077 0.54262 0.6553 0.0
H840 H 0.55025 0.12889 0.87562 0.0
H841 H 0.64226 0.13063 0.88558 0.0
H842 H 0.6633 0.16398 0.84636 0.0
H843 H 0.65589 0.19301 0.80914 0.0
H844 H 0.56588 0.19535 0.80173 0.0
H845 H 0.54425 0.16089 0.84052 0.0
C846 C 0.57514 0.13694 0.86965 0.0
C847 C 0.59437 0.12677 0.88369 0.0
C848 C 0.5876 0.15709 0.84751 0.0
C849 C 0.62639 0.13719 0.87499 0.0
C850 C 0.63866 0.15661 0.85262 0.0
C851 C 0.63156 0.186 0.81606 0.0
C852 C 0.61249 0.19664 0.80251 0.0
C853 C 0.61946 0.16663 0.83868 0.0
C854 C 0.58114 0.18765 0.81188 0.0
C855 C 0.5687 0.16782 0.834 0.0
H856 H 0.44891 0.60354 0.06 0.0
H857 H 0.527 0.60026 0.01868 0.0
H858 H 0.51026 0.61461 0.97744 0.0
H859 H 0.47298 0.62764 0.95272 0.0
H860 H 0.39298 0.62735 0.99335 0.0
H861 H 0.41072 0.61468 0.03516 0.0
C862 C 0.46212 0.60561 0.04197 0.0
C863 C 0.48941 0.60108 0.04267 0.0
C864 C 0.45199 0.61325 0.01813 0.0
C865 C 0.50637 0.60432 0.01901 0.0
C866 C 0.4967 0.61232 0.9953 0.0
C867 C 0.45949 0.62463 0.97079 0.0
C868 C 0.43133 0.62749 0.97005 0.0
C869 C 0.46958 0.61688 0.99462 0.0
C870 C 0.41427 0.62432 0.99351 0.0
C871 C 0.4245 0.61727 0.01738 0.0
H872 H 0.92477 0.50626 0.20009 0.0
H873 H 0.85788 0.42566 0.24748 0.0
H874 H 0.81897 0.40345 0.20994 0.0
H875 H 0.8051 0.40624 0.16314 0.0
H876 H 0.87325 0.48534 0.11516 0.0
H877 H 0.91074 0.5092 0.15338 0.0
C878 C 0.90161 0.48387 0.20207 0.0
C879 C 0.89394 0.46749 0.22626 0.0
C880 C 0.87991 0.47097 0.18031 0.0
C881 C 0.8641 0.43845 0.22885 0.0
C882 C 0.84193 0.42588 0.2075 0.0
C883 C 0.82841 0.42843 0.16111 0.0
C884 C 0.83727 0.44347 0.13638 0.0
C885 C 0.84979 0.44171 0.18304 0.0
C886 C 0.86658 0.47306 0.13402 0.0
C887 C 0.8879 0.48665 0.15579 0.0
loop_
_geom_bond_atom_site_label_1
_geom_bond_atom_site_label_2
_geom_bond_distance
_geom_bond_site_symmetry_2
_ccdc_geom_bond_type
H0 C19 0.949 . S
H1 C20 0.950 . S
H2 C22 0.950 . S
H3 C23 0.950 . S
H4 C25 0.950 . S
H5 C28 0.950 . S
H6 C29 0.950 . S
H7 C31 0.951 . S
H8 C32 0.949 . S
H9 C34 0.949 . S
H10 C35 0.950 . S
H11 C37 0.950 . S
H12 C38 0.950 . S
H13 C40 0.950 . S
H14 C43 0.950 . S
H15 C44 0.950 . S
H16 C46 0.951 . S
H17 C47 0.949 . S
C18 C19 1.376 . S
C18 C23 1.386 . S
C18 C24 1.483 . S
C19 H0 0.949 . S
C19 C18 1.376 . S
C19 C20 1.397 . S
C20 H1 0.950 . S
C20 C19 1.397 . S
C20 C21 1.391 . S
C21 C20 1.391 . S
C21 C22 1.405 . S
C22 H2 0.950 . S
C22 C21 1.405 . S
C22 C23 1.367 . S
C23 H3 0.950 . S
C23 C18 1.386 . S
C23 C22 1.367 . S
C24 C18 1.483 . S
C24 C25 1.382 1_655 S
C24 C26 1.403 . S
C25 H4 0.950 . S
C25 C24 1.382 1_455 S
C25 C41 1.411 . S
C26 C24 1.403 . S
C26 C27 1.489 . S
C26 C40 1.411 . S
C27 C26 1.489 . S
C27 C28 1.383 . S
C27 C32 1.382 . S
C28 H5 0.950 . S
C28 C27 1.383 . S
C28 C29 1.395 . S
C29 H6 0.950 . S
C29 C28 1.395 . S
C29 C30 1.288 . S
C30 C29 1.288 . S
C30 C31 1.392 . S
C31 H7 0.951 . S
C31 C30 1.392 . S
C31 C32 1.392 . S
C32 H8 0.949 . S
C32 C27 1.382 . S
C32 C31 1.392 . S
C33 C34 1.376 . S
C33 C38 1.386 . S
C33 C39 1.483 . S
C34 H9 0.949 . S
C34 C33 1.376 . S
C34 C35 1.397 . S
C35 H10 0.950 . S
C35 C34 1.397 . S
C35 C36 1.391 . S
C36 C35 1.391 . S
C36 C37 1.405 . S
C37 H11 0.950 . S
C37 C36 1.405 . S
C37 C38 1.367 . S
C38 H12 0.950 . S
C38 C33 1.386 . S
C38 C37 1.367 . S
C39 C33 1.483 . S
C39 C40 1.382 1_455 S
C39 C41 1.403 . S
C40 H13 0.950 . S
C40 C26 1.411 . S
C40 C39 1.382 1_655 S
C41 C25 1.411 . S
C41 C39 1.403 . S
C41 C42 1.489 . S
C42 C41 1.489 . S
C42 C43 1.383 . S
C42 C47 1.382 . S
C43 H14 0.950 . S
C43 C42 1.383 . S
C43 C44 1.395 . S
C44 H15 0.950 . S
C44 C43 1.395 . S
C44 C45 1.288 . S
C45 C44 1.288 . S
C45 C46 1.392 . S
C46 H16 0.951 . S
C46 C45 1.392 . S
C46 C47 1.392 . S
C47 H17 0.949 . S
C47 C42 1.382 . S
C47 C46 1.392 . S
H48 C67 0.949 . S
H49 C68 0.950 . S
H50 C70 0.950 . S
H51 C71 0.950 . S
H52 C73 0.950 1_565 S
H53 C76 0.950 . S
H54 C77 0.950 . S
H55 C79 0.951 . S
H56 C80 0.949 . S
H57 C82 0.949 . S
H58 C83 0.950 . S
H59 C85 0.950 . S
H60 C86 0.950 . S
H61 C88 0.950 . S
H62 C91 0.950 . S
H63 C92 0.950 . S
H64 C94 0.951 . S
H65 C95 0.949 . S
C66 C67 1.376 . S
C66 C71 1.386 . S
C66 C72 1.483 . S
C67 H48 0.949 . S
C67 C66 1.376 . S
C67 C68 1.397 . S
C68 H49 0.950 . S
C68 C67 1.397 . S
C68 C69 1.391 . S
C69 C68 1.391 . S
C69 C70 1.405 . S
C70 H50 0.950 . S
C70 C69 1.405 . S
C70 C71 1.367 . S
C71 H51 0.950 . S
C71 C66 1.386 . S
C71 C70 1.367 . S
C72 C66 1.483 . S
C72 C73 1.382 1_565 S
C72 C74 1.403 . S
C73 H52 0.950 1_545 S
C73 C72 1.382 1_545 S
C73 C89 1.411 . S
C74 C72 1.403 . S
C74 C75 1.489 . S
C74 C88 1.411 1_565 S
C75 C74 1.489 . S
C75 C76 1.383 . S
C75 C80 1.382 . S
C76 H53 0.950 . S
C76 C75 1.383 . S
C76 C77 1.395 . S
C77 H54 0.950 . S
C77 C76 1.395 . S
C77 C78 1.288 . S
C78 C77 1.288 . S
C78 C79 1.392 . S
C79 H55 0.951 . S
C79 C78 1.392 . S
C79 C80 1.392 . S
C80 H56 0.949 . S
C80 C75 1.382 . S
C80 C79 1.392 . S
C81 C82 1.376 . S
C81 C86 1.386 . S
C81 C87 1.483 . S
C82 H57 0.949 . S
C82 C81 1.376 . S
C82 C83 1.397 . S
C83 H58 0.950 . S
C83 C82 1.397 . S
C83 C84 1.391 . S
C84 C83 1.391 . S
C84 C85 1.405 . S
C85 H59 0.950 . S
C85 C84 1.405 . S
C85 C86 1.367 . S
C86 H60 0.950 . S
C86 C81 1.386 . S
C86 C85 1.367 . S
C87 C81 1.483 . S
C87 C88 1.382 . S
C87 C89 1.403 . S
C88 H61 0.950 . S
C88 C74 1.411 1_545 S
C88 C87 1.382 . S
C89 C73 1.411 . S
C89 C87 1.403 . S
C89 C90 1.489 . S
C90 C89 1.489 . S
C90 C91 1.383 . S
C90 C95 1.382 . S
C91 H62 0.950 . S
C91 C90 1.383 . S
C91 C92 1.395 . S
C92 H63 0.950 . S
C92 C91 1.395 . S
C92 C93 1.288 . S
C93 C92 1.288 . S
C93 C94 1.392 . S
C94 H64 0.951 . S
C94 C93 1.392 . S
C94 C95 1.392 . S
C95 H65 0.949 . S
C95 C90 1.382 . S
C95 C94 1.392 . S
H96 C115 0.949 . S
H97 C116 0.950 . S
H98 C118 0.950 . S
H99 C119 0.950 . S
H100 C121 0.950 . S
H101 C124 0.950 . S
H102 C125 0.950 . S
H103 C127 0.951 . S
H104 C128 0.949 . S
H105 C130 0.949 . S
H106 C131 0.950 . S
H107 C133 0.950 . S
H108 C134 0.950 . S
H109 C136 0.950 . S
H110 C139 0.950 . S
H111 C140 0.950 . S
H112 C142 0.951 . S
H113 C143 0.949 . S
C114 C115 1.376 . S
C114 C119 1.386 . S
C114 C120 1.483 . S
C115 H96 0.949 . S
C115 C114 1.376 . S
C115 C116 1.397 . S
C116 H97 0.950 . S
C116 C115 1.397 . S
C116 C117 1.391 . S
C117 C116 1.391 . S
C117 C118 1.405 . S
C118 H98 0.950 . S
C118 C117 1.405 . S
C118 C119 1.367 . S
C119 H99 0.950 . S
C119 C114 1.386 . S
C119 C118 1.367 . S
C120 C114 1.483 . S
C120 C121 1.382 . S
C120 C122 1.403 . S
C121 H100 0.950 . S
C121 C120 1.382 . S
C121 C137 1.411 . S
C122 C120 1.403 . S
C122 C123 1.489 . S
C122 C136 1.411 . S
C123 C122 1.489 . S
C123 C124 1.383 . S
C123 C128 1.382 . S
C124 H101 0.950 . S
C124 C123 1.383 . S
C124 C125 1.395 . S
C125 H102 0.950 . S
C125 C124 1.395 . S
C125 C126 1.288 . S
C126 C125 1.288 . S
C126 C127 1.392 . S
C127 H103 0.951 . S
C127 C126 1.392 . S
C127 C128 1.392 . S
C128 H104 0.949 . S
C128 C123 1.382 . S
C128 C127 1.392 . S
C129 C130 1.376 . S
C129 C134 1.386 . S
C129 C135 1.483 . S
C130 H105 0.949 . S
C130 C129 1.376 . S
C130 C131 1.397 . S
C131 H106 0.950 . S
C131 C130 1.397 . S
C131 C132 1.391 . S
C132 C131 1.391 . S
C132 C133 1.405 . S
C133 H107 0.950 . S
C133 C132 1.405 . S
C133 C134 1.367 . S
C134 H108 0.950 . S
C134 C129 1.386 . S
C134 C133 1.367 . S
C135 C129 1.483 . S
C135 C136 1.382 . S
C135 C137 1.403 . S
C136 H109 0.950 . S
C136 C122 1.411 . S
C136 C135 1.382 . S
C137 C121 1.411 . S
C137 C135 1.403 . S
C137 C138 1.489 . S
C138 C137 1.489 . S
C138 C139 1.383 . S
C138 C143 1.382 . S
C139 H110 0.950 . S
C139 C138 1.383 . S
C139 C140 1.395 . S
C140 H111 0.950 . S
C140 C139 1.395 . S
C140 C141 1.288 . S
C141 C140 1.288 . S
C141 C142 1.392 . S
C142 H112 0.951 . S
C142 C141 1.392 . S
C142 C143 1.392 . S
C143 H113 0.949 . S
C143 C138 1.382 . S
C143 C142 1.392 . S
H144 C163 0.949 . S
H145 C164 0.950 . S
H146 C166 0.950 . S
H147 C167 0.950 . S
H148 C169 0.950 . S
H149 C172 0.950 . S
H150 C173 0.950 . S
H151 C175 0.951 . S
H152 C176 0.949 . S
H153 C178 0.949 . S
H154 C179 0.950 . S
H155 C181 0.950 . S
H156 C182 0.950 . S
H157 C184 0.950 . S
H158 C187 0.950 . S
H159 C188 0.950 . S
H160 C190 0.951 . S
H161 C191 0.949 . S
C162 C163 1.376 . S
C162 C167 1.386 . S
C162 C168 1.483 . S
C163 H144 0.949 . S
C163 C162 1.376 . S
C163 C164 1.397 . S
C164 H145 0.950 . S
C164 C163 1.397 . S
C164 C165 1.391 . S
C165 C164 1.391 . S
C165 C166 1.405 . S
C166 H146 0.950 . S
C166 C165 1.405 . S
C166 C167 1.367 . S
C167 H147 0.950 . S
C167 C162 1.386 . S
C167 C166 1.367 . S
C168 C162 1.483 . S
C168 C169 1.382 1_455 S
C168 C170 1.403 . S
C169 H148 0.950 . S
C169 C168 1.382 1_655 S
C169 C185 1.411 . S
C170 C168 1.403 . S
C170 C171 1.489 . S
C170 C184 1.411 . S
C171 C170 1.489 . S
C171 C172 1.383 . S
C171 C176 1.382 . S
C172 H149 0.950 . S
C172 C171 1.383 . S
C172 C173 1.395 . S
C173 H150 0.950 . S
C173 C172 1.395 . S
C173 C174 1.288 . S
C174 C173 1.288 . S
C174 C175 1.392 . S
C175 H151 0.951 . S
C175 C174 1.392 . S
C175 C176 1.392 . S
C176 H152 0.949 . S
C176 C171 1.382 . S
C176 C175 1.392 . S
C177 C178 1.376 . S
C177 C182 1.386 . S
C177 C183 1.483 . S
C178 H153 0.949 . S
C178 C177 1.376 . S
C178 C179 1.397 . S
C179 H154 0.950 . S
C179 C178 1.397 . S
C179 C180 1.391 . S
C180 C179 1.391 . S
C180 C181 1.405 . S
C181 H155 0.950 . S
C181 C180 1.405 . S
C181 C182 1.367 . S
C182 H156 0.950 . S
C182 C177 1.386 . S
C182 C181 1.367 . S
C183 C177 1.483 . S
C183 C184 1.382 1_655 S
C183 C185 1.403 . S
C184 H157 0.950 . S
C184 C170 1.411 . S
C184 C183 1.382 1_455 S
C185 C169 1.411 . S
C185 C183 1.403 . S
C185 C186 1.489 . S
C186 C185 1.489 . S
C186 C187 1.383 . S
C186 C191 1.382 . S
C187 H158 0.950 . S
C187 C186 1.383 . S
C187 C188 1.395 . S
C188 H159 0.950 . S
C188 C187 1.395 . S
C188 C189 1.288 . S
C189 C188 1.288 . S
C189 C190 1.392 . S
C190 H160 0.951 . S
C190 C189 1.392 . S
C190 C191 1.392 . S
C191 H161 0.949 . S
C191 C186 1.382 . S
C191 C190 1.392 . S
H192 C211 0.949 . S
H193 C212 0.950 . S
H194 C214 0.950 . S
H195 C215 0.955 . S
H196 C217 0.950 . S
H197 C220 0.950 . S
H198 C221 0.950 . S
H199 C223 0.951 . S
H200 C224 0.949 . S
H201 C226 0.949 . S
H202 C227 0.950 . S
H203 C229 0.950 . S
H204 C230 0.950 . S
H205 C232 0.951 . S
H206 C235 0.950 . S
H207 C236 0.950 . S
H208 C238 0.951 . S
H209 C239 0.949 . S
C210 C211 1.376 . S
C210 C215 1.384 1_554 S
C210 C216 1.483 1_554 S
C211 H192 0.949 . S
C211 C210 1.376 . S
C211 C212 1.397 . S
C212 H193 0.950 . S
C212 C211 1.397 . S
C212 C213 1.391 . S
C213 C212 1.391 . S
C213 C214 1.405 . S
C214 H194 0.950 . S
C214 C213 1.405 . S
C214 C215 1.365 1_554 S
C215 H195 0.955 . S
C215 C210 1.384 1_556 S
C215 C214 1.365 1_556 S
C216 C210 1.483 1_556 S
C216 C217 1.382 1_556 S
C216 C218 1.403 . S
C217 H196 0.950 . S
C217 C216 1.382 1_554 S
C217 C233 1.411 1_545 S
C218 C216 1.403 . S
C218 C219 1.489 . S
C218 C232 1.411 . S
C219 C218 1.489 . S
C219 C220 1.383 . S
C219 C224 1.382 . S
C220 H197 0.950 . S
C220 C219 1.383 . S
C220 C221 1.395 . S
C221 H198 0.950 . S
C221 C220 1.395 . S
C221 C222 1.288 . S
C222 C221 1.288 . S
C222 C223 1.392 . S
C223 H199 0.951 . S
C223 C222 1.392 . S
C223 C224 1.392 . S
C224 H200 0.949 . S
C224 C219 1.382 . S
C224 C223 1.392 . S
C225 C226 1.376 . S
C225 C230 1.386 . S
C225 C231 1.483 . S
C226 H201 0.949 . S
C226 C225 1.376 . S
C226 C227 1.397 . S
C227 H202 0.950 . S
C227 C226 1.397 . S
C227 C228 1.391 . S
C228 C227 1.391 . S
C228 C229 1.405 . S
C229 H203 0.950 . S
C229 C228 1.405 . S
C229 C230 1.367 . S
C230 H204 0.950 . S
C230 C225 1.386 . S
C230 C229 1.367 . S
C231 C225 1.483 . S
C231 C232 1.382 1_565 S
C231 C233 1.403 1_556 S
C232 H205 0.951 . S
C232 C218 1.411 . S
C232 C231 1.382 1_545 S
C233 C217 1.411 1_565 S
C233 C231 1.403 1_554 S
C233 C234 1.489 . S
C234 C233 1.489 . S
C234 C235 1.383 . S
C234 C239 1.382 . S
C235 H206 0.950 . S
C235 C234 1.383 . S
C235 C236 1.395 . S
C236 H207 0.950 . S
C236 C235 1.395 . S
C236 C237 1.288 . S
C237 C236 1.288 . S
C237 C238 1.392 . S
C238 H208 0.951 . S
C238 C237 1.392 . S
C238 C239 1.392 . S
C239 H209 0.949 . S
C239 C234 1.382 . S
C239 C238 1.392 . S
H240 C259 0.949 . S
H241 C260 0.950 . S
H242 C262 0.950 . S
H243 C263 0.950 . S
H244 C265 0.950 . S
H245 C268 0.950 . S
H246 C269 0.950 . S
H247 C271 0.951 . S
H248 C272 0.949 . S
H249 C274 0.949 . S
H250 C275 0.950 . S
H251 C277 0.950 . S
H252 C278 0.950 . S
H253 C280 0.950 . S
H254 C283 0.950 . S
H255 C284 0.950 . S
H256 C286 0.951 . S
H257 C287 0.949 . S
C258 C259 1.376 . S
C258 C263 1.386 . S
C258 C264 1.483 . S
C259 H240 0.949 . S
C259 C258 1.376 . S
C259 C260 1.397 . S
C260 H241 0.950 . S
C260 C259 1.397 . S
C260 C261 1.391 . S
C261 C260 1.391 . S
C261 C262 1.405 . S
C262 H242 0.950 . S
C262 C261 1.405 . S
C262 C263 1.367 . S
C263 H243 0.950 . S
C263 C258 1.386 . S
C263 C262 1.367 . S
C264 C258 1.483 . S
C264 C265 1.382 . S
C264 C266 1.403 . S
C265 H244 0.950 . S
C265 C264 1.382 . S
C265 C281 1.411 . S
C266 C264 1.403 . S
C266 C267 1.489 . S
C266 C280 1.411 . S
C267 C266 1.489 . S
C267 C268 1.383 . S
C267 C272 1.382 . S
C268 H245 0.950 . S
C268 C267 1.383 . S
C268 C269 1.395 . S
C269 H246 0.950 . S
C269 C268 1.395 . S
C269 C270 1.288 . S
C270 C269 1.288 . S
C270 C271 1.392 . S
C271 H247 0.951 . S
C271 C270 1.392 . S
C271 C272 1.392 . S
C272 H248 0.949 . S
C272 C267 1.382 . S
C272 C271 1.392 . S
C273 C274 1.376 . S
C273 C278 1.386 . S
C273 C279 1.483 . S
C274 H249 0.949 . S
C274 C273 1.376 . S
C274 C275 1.397 . S
C275 H250 0.950 . S
C275 C274 1.397 . S
C275 C276 1.391 . S
C276 C275 1.391 . S
C276 C277 1.405 . S
C277 H251 0.950 . S
C277 C276 1.405 . S
C277 C278 1.367 . S
C278 H252 0.950 . S
C278 C273 1.386 . S
C278 C277 1.367 . S
C279 C273 1.483 . S
C279 C280 1.382 . S
C279 C281 1.403 . S
C280 H253 0.950 . S
C280 C266 1.411 . S
C280 C279 1.382 . S
C281 C265 1.411 . S
C281 C279 1.403 . S
C281 C282 1.489 . S
C282 C281 1.489 . S
C282 C283 1.383 . S
C282 C287 1.382 . S
C283 H254 0.950 . S
C283 C282 1.383 . S
C283 C284 1.395 . S
C284 H255 0.950 . S
C284 C283 1.395 . S
C284 C285 1.288 . S
C285 C284 1.288 . S
C285 C286 1.392 . S
C286 H256 0.951 . S
C286 C285 1.392 . S
C286 C287 1.392 . S
C287 H257 0.949 . S
C287 C282 1.382 . S
C287 C286 1.392 . S
Mn288 O293 2.095 . S
Mn288 O303 2.162 . S
Mn288 O304 2.297 . S
Mn288 O312 2.385 . S
Mn288 O313 2.209 . S
Mn288 O314 2.094 . S
Mn289 O294 2.121 . S
Mn289 N296 2.257 . S
Mn289 N305 2.282 . S
Mn289 O313 2.215 . S
Mn289 O315 2.117 . S
C290 O312 1.234 . S
C290 O313 1.283 . S
C291 O303 1.281 . S
C291 O304 1.236 . S
C292 O314 1.240 . S
C292 O315 1.264 . S
O293 Mn288 2.095 . S
O293 C302 1.250 . S
O294 Mn289 2.121 . S
O294 C302 1.258 . S
C295 N296 1.326 . S
C295 C299 1.460 . S
C295 H301 0.929 . S
N296 Mn289 2.257 . S
N296 C295 1.326 . S
N296 C300 1.362 . S
C297 C298 1.258 . S
C297 C300 1.431 . S
C297 C317 1.449 . S
C298 C297 1.258 . S
C298 C299 1.477 . S
C298 H318 0.931 . S
C299 C295 1.460 . S
C299 C298 1.477 . S
C299 H319 0.930 . S
C300 N296 1.362 . S
C300 C297 1.431 . S
C300 C310 1.476 . S
H301 C295 0.929 . S
C302 O293 1.250 . S
C302 O294 1.258 . S
O303 Mn288 2.162 . S
O303 C291 1.281 . S
O304 Mn288 2.297 . S
O304 C291 1.236 . S
N305 Mn289 2.282 . S
N305 C306 1.328 . S
N305 C310 1.318 . S
C306 N305 1.328 . S
C306 C307 1.457 . S
C306 H311 0.929 . S
C307 C306 1.457 . S
C307 C308 1.291 . S
C307 H320 0.931 . S
C308 C307 1.291 . S
C308 C309 1.373 . S
C308 H321 0.929 . S
C309 C308 1.373 . S
C309 C310 1.396 . S
C309 C316 1.403 . S
C310 C300 1.476 . S
C310 N305 1.318 . S
C310 C309 1.396 . S
H311 C306 0.929 . S
O312 Mn288 2.385 . S
O312 C290 1.234 . S
O313 Mn288 2.209 . S
O313 Mn289 2.215 . S
O313 C290 1.283 . S
O314 Mn288 2.094 . S
O314 C292 1.240 . S
O315 Mn289 2.117 . S
O315 C292 1.264 . S
C316 C309 1.403 . S
C316 C317 1.399 . S
C316 H322 0.929 . S
C317 C297 1.449 . S
C317 C316 1.399 . S
C317 H323 0.930 . S
H318 C298 0.931 . S
H319 C299 0.930 . S
H320 C307 0.931 . S
H321 C308 0.929 . S
H322 C316 0.929 . S
H323 C317 0.930 . S
Mn324 O329 2.095 . S
Mn324 O339 2.162 . S
Mn324 O340 2.297 . S
Mn324 O348 2.385 . S
Mn324 O349 2.209 . S
Mn324 O350 2.094 . S
Mn325 O330 2.121 . S
Mn325 N332 2.257 . S
Mn325 N341 2.282 . S
Mn325 O349 2.215 . S
Mn325 O351 2.117 . S
C326 O348 1.234 . S
C326 O349 1.283 . S
C327 O339 1.281 . S
C327 O340 1.236 . S
C328 O350 1.240 . S
C328 O351 1.264 . S
O329 Mn324 2.095 . S
O329 C338 1.250 . S
O330 Mn325 2.121 . S
O330 C338 1.258 . S
C331 N332 1.326 . S
C331 C335 1.460 . S
C331 H337 0.929 . S
N332 Mn325 2.257 . S
N332 C331 1.326 . S
N332 C336 1.362 . S
C333 C334 1.258 . S
C333 C336 1.431 . S
C333 C353 1.449 . S
C334 C333 1.258 . S
C334 C335 1.477 . S
C334 H354 0.931 . S
C335 C331 1.460 . S
C335 C334 1.477 . S
C335 H355 0.930 . S
C336 N332 1.362 . S
C336 C333 1.431 . S
C336 C346 1.476 . S
H337 C331 0.929 . S
C338 O329 1.250 . S
C338 O330 1.258 . S
O339 Mn324 2.162 . S
O339 C327 1.281 . S
O340 Mn324 2.297 . S
O340 C327 1.236 . S
N341 Mn325 2.282 . S
N341 C342 1.328 . S
N341 C346 1.318 . S
C342 N341 1.328 . S
C342 C343 1.457 . S
C342 H347 0.929 . S
C343 C342 1.457 . S
C343 C344 1.291 . S
C343 H356 0.931 . S
C344 C343 1.291 . S
C344 C345 1.373 . S
C344 H357 0.929 . S
C345 C344 1.373 . S
C345 C346 1.396 . S
C345 C352 1.403 . S
C346 C336 1.476 . S
C346 N341 1.318 . S
C346 C345 1.396 . S
H347 C342 0.929 . S
O348 Mn324 2.385 . S
O348 C326 1.234 . S
O349 Mn324 2.209 . S
O349 Mn325 2.215 . S
O349 C326 1.283 . S
O350 Mn324 2.094 . S
O350 C328 1.240 . S
O351 Mn325 2.117 . S
O351 C328 1.264 . S
C352 C345 1.403 . S
C352 C353 1.399 . S
C352 H358 0.929 . S
C353 C333 1.449 . S
C353 C352 1.399 . S
C353 H359 0.930 . S
H354 C334 0.931 . S
H355 C335 0.930 . S
H356 C343 0.931 . S
H357 C344 0.929 . S
H358 C352 0.929 . S
H359 C353 0.930 . S
Mn360 O365 2.095 . S
Mn360 O375 2.162 . S
Mn360 O376 2.297 . S
Mn360 O384 2.385 . S
Mn360 O385 2.209 . S
Mn360 O386 2.094 . S
Mn361 O366 2.121 . S
Mn361 N368 2.257 . S
Mn361 N377 2.282 . S
Mn361 O385 2.215 . S
Mn361 O387 2.117 . S
C362 O384 1.234 . S
C362 O385 1.283 . S
C363 O375 1.281 . S
C363 O376 1.236 . S
C364 O386 1.240 . S
C364 O387 1.264 . S
O365 Mn360 2.095 . S
O365 C374 1.250 . S
O366 Mn361 2.121 . S
O366 C374 1.258 . S
C367 N368 1.326 . S
C367 C371 1.460 . S
C367 H373 0.929 . S
N368 Mn361 2.257 . S
N368 C367 1.326 . S
N368 C372 1.362 . S
C369 C370 1.258 . S
C369 C372 1.431 . S
C369 C389 1.449 . S
C370 C369 1.258 . S
C370 C371 1.477 . S
C370 H390 0.931 . S
C371 C367 1.460 . S
C371 C370 1.477 . S
C371 H391 0.930 . S
C372 N368 1.362 . S
C372 C369 1.431 . S
C372 C382 1.476 . S
H373 C367 0.929 . S
C374 O365 1.250 . S
C374 O366 1.258 . S
O375 Mn360 2.162 . S
O375 C363 1.281 . S
O376 Mn360 2.297 . S
O376 C363 1.236 . S
N377 Mn361 2.282 . S
N377 C378 1.328 . S
N377 C382 1.318 . S
C378 N377 1.328 . S
C378 C379 1.457 . S
C378 H383 0.929 . S
C379 C378 1.457 . S
C379 C380 1.291 . S
C379 H392 0.931 . S
C380 C379 1.291 . S
C380 C381 1.373 . S
C380 H393 0.929 . S
C381 C380 1.373 . S
C381 C382 1.396 . S
C381 C388 1.403 . S
C382 C372 1.476 . S
C382 N377 1.318 . S
C382 C381 1.396 . S
H383 C378 0.929 . S
O384 Mn360 2.385 . S
O384 C362 1.234 . S
O385 Mn360 2.209 . S
O385 Mn361 2.215 . S
O385 C362 1.283 . S
O386 Mn360 2.094 . S
O386 C364 1.240 . S
O387 Mn361 2.117 . S
O387 C364 1.264 . S
C388 C381 1.403 . S
C388 C389 1.399 . S
C388 H394 0.929 . S
C389 C369 1.449 . S
C389 C388 1.399 . S
C389 H395 0.930 . S
H390 C370 0.931 . S
H391 C371 0.930 . S
H392 C379 0.931 . S
H393 C380 0.929 . S
H394 C388 0.929 . S
H395 C389 0.930 . S
Mn396 O401 2.095 . S
Mn396 O411 2.162 . S
Mn396 O412 2.297 . S
Mn396 O420 2.385 . S
Mn396 O421 2.209 . S
Mn396 O422 2.094 . S
Mn397 O402 2.121 . S
Mn397 N404 2.257 . S
Mn397 N413 2.282 . S
Mn397 O421 2.215 . S
Mn397 O423 2.117 . S
C398 O420 1.234 . S
C398 O421 1.283 . S
C399 O411 1.281 . S
C399 O412 1.236 . S
C400 O422 1.240 . S
C400 O423 1.264 . S
O401 Mn396 2.095 . S
O401 C410 1.250 . S
O402 Mn397 2.121 . S
O402 C410 1.258 . S
C403 N404 1.326 . S
C403 C407 1.460 . S
C403 H409 0.929 . S
N404 Mn397 2.257 . S
N404 C403 1.326 . S
N404 C408 1.362 . S
C405 C406 1.258 . S
C405 C408 1.431 . S
C405 C425 1.449 . S
C406 C405 1.258 . S
C406 C407 1.477 . S
C406 H426 0.931 . S
C407 C403 1.460 . S
C407 C406 1.477 . S
C407 H427 0.930 . S
C408 N404 1.362 . S
C408 C405 1.431 . S
C408 C418 1.476 . S
H409 C403 0.929 . S
C410 O401 1.250 . S
C410 O402 1.258 . S
O411 Mn396 2.162 . S
O411 C399 1.281 . S
O412 Mn396 2.297 . S
O412 C399 1.236 . S
N413 Mn397 2.282 . S
N413 C414 1.328 . S
N413 C418 1.318 . S
C414 N413 1.328 . S
C414 C415 1.457 . S
C414 H419 0.929 . S
C415 C414 1.457 . S
C415 C416 1.291 . S
C415 H428 0.931 . S
C416 C415 1.291 . S
C416 C417 1.373 . S
C416 H429 0.929 . S
C417 C416 1.373 . S
C417 C418 1.396 . S
C417 C424 1.403 . S
C418 C408 1.476 . S
C418 N413 1.318 . S
C418 C417 1.396 . S
H419 C414 0.929 . S
O420 Mn396 2.385 . S
O420 C398 1.234 . S
O421 Mn396 2.209 . S
O421 Mn397 2.215 . S
O421 C398 1.283 . S
O422 Mn396 2.094 . S
O422 C400 1.240 . S
O423 Mn397 2.117 . S
O423 C400 1.264 . S
C424 C417 1.403 . S
C424 C425 1.399 . S
C424 H430 0.929 . S
C425 C405 1.449 . S
C425 C424 1.399 . S
C425 H431 0.930 . S
H426 C406 0.931 . S
H427 C407 0.930 . S
H428 C415 0.931 . S
H429 C416 0.929 . S
H430 C424 0.929 . S
H431 C425 0.930 . S
Mn432 O437 2.095 . S
Mn432 O447 2.162 . S
Mn432 O448 2.297 . S
Mn432 O456 2.385 . S
Mn432 O457 2.209 . S
Mn432 O458 2.094 . S
Mn433 O438 2.121 . S
Mn433 N440 2.257 . S
Mn433 N449 2.282 . S
Mn433 O457 2.215 . S
Mn433 O459 2.117 . S
C434 O456 1.234 . S
C434 O457 1.283 . S
C435 O447 1.281 . S
C435 O448 1.236 . S
C436 O458 1.240 . S
C436 O459 1.264 . S
O437 Mn432 2.095 . S
O437 C446 1.250 . S
O438 Mn433 2.121 . S
O438 C446 1.258 . S
C439 N440 1.326 . S
C439 C443 1.460 . S
C439 H445 0.929 . S
N440 Mn433 2.257 . S
N440 C439 1.326 . S
N440 C444 1.362 . S
C441 C442 1.258 . S
C441 C444 1.431 . S
C441 C461 1.449 . S
C442 C441 1.258 . S
C442 C443 1.477 . S
C442 H462 0.931 . S
C443 C439 1.460 . S
C443 C442 1.477 . S
C443 H463 0.930 . S
C444 N440 1.362 . S
C444 C441 1.431 . S
C444 C454 1.476 . S
H445 C439 0.929 . S
C446 O437 1.250 . S
C446 O438 1.258 . S
O447 Mn432 2.162 . S
O447 C435 1.281 . S
O448 Mn432 2.297 . S
O448 C435 1.236 . S
N449 Mn433 2.282 . S
N449 C450 1.328 . S
N449 C454 1.318 . S
C450 N449 1.328 . S
C450 C451 1.457 . S
C450 H455 0.929 . S
C451 C450 1.457 . S
C451 C452 1.291 . S
C451 H464 0.931 . S
C452 C451 1.291 . S
C452 C453 1.373 . S
C452 H465 0.929 . S
C453 C452 1.373 . S
C453 C454 1.396 . S
C453 C460 1.403 . S
C454 C444 1.476 . S
C454 N449 1.318 . S
C454 C453 1.396 . S
H455 C450 0.929 . S
O456 Mn432 2.385 . S
O456 C434 1.234 . S
O457 Mn432 2.209 . S
O457 Mn433 2.215 . S
O457 C434 1.283 . S
O458 Mn432 2.094 . S
O458 C436 1.240 . S
O459 Mn433 2.117 . S
O459 C436 1.264 . S
C460 C453 1.403 . S
C460 C461 1.399 . S
C460 H466 0.929 . S
C461 C441 1.449 . S
C461 C460 1.399 . S
C461 H467 0.930 . S
H462 C442 0.931 . S
H463 C443 0.930 . S
H464 C451 0.931 . S
H465 C452 0.929 . S
H466 C460 0.929 . S
H467 C461 0.930 . S
Mn468 O473 2.095 . S
Mn468 O483 2.162 . S
Mn468 O484 2.297 . S
Mn468 O492 2.385 . S
Mn468 O493 2.209 . S
Mn468 O494 2.094 . S
Mn469 O474 2.121 . S
Mn469 N476 2.257 . S
Mn469 N485 2.282 . S
Mn469 O493 2.215 . S
Mn469 O495 2.117 . S
C470 O492 1.234 . S
C470 O493 1.283 . S
C471 O483 1.281 . S
C471 O484 1.236 . S
C472 O494 1.240 . S
C472 O495 1.264 . S
O473 Mn468 2.095 . S
O473 C482 1.250 . S
O474 Mn469 2.121 . S
O474 C482 1.258 . S
C475 N476 1.326 . S
C475 C479 1.460 . S
C475 H481 0.929 . S
N476 Mn469 2.257 . S
N476 C475 1.326 . S
N476 C480 1.362 . S
C477 C478 1.258 . S
C477 C480 1.431 . S
C477 C497 1.449 . S
C478 C477 1.258 . S
C478 C479 1.477 . S
C478 H498 0.931 . S
C479 C475 1.460 . S
C479 C478 1.477 . S
C479 H499 0.930 . S
C480 N476 1.362 . S
C480 C477 1.431 . S
C480 C490 1.476 . S
H481 C475 0.929 . S
C482 O473 1.250 . S
C482 O474 1.258 . S
O483 Mn468 2.162 . S
O483 C471 1.281 . S
O484 Mn468 2.297 . S
O484 C471 1.236 . S
N485 Mn469 2.282 . S
N485 C486 1.328 . S
N485 C490 1.318 . S
C486 N485 1.328 . S
C486 C487 1.457 . S
C486 H491 0.929 . S
C487 C486 1.457 . S
C487 C488 1.291 . S
C487 H500 0.931 . S
C488 C487 1.291 . S
C488 C489 1.373 . S
C488 H501 0.929 . S
C489 C488 1.373 . S
C489 C490 1.396 . S
C489 C496 1.403 . S
C490 C480 1.476 . S
C490 N485 1.318 . S
C490 C489 1.396 . S
H491 C486 0.929 . S
O492 Mn468 2.385 . S
O492 C470 1.234 . S
O493 Mn468 2.209 . S
O493 Mn469 2.215 . S
O493 C470 1.283 . S
O494 Mn468 2.094 . S
O494 C472 1.240 . S
O495 Mn469 2.117 . S
O495 C472 1.264 . S
C496 C489 1.403 . S
C496 C497 1.399 . S
C496 H502 0.929 . S
C497 C477 1.449 . S
C497 C496 1.399 . S
C497 H503 0.930 . S
H498 C478 0.931 . S
H499 C479 0.930 . S
H500 C487 0.931 . S
H501 C488 0.929 . S
H502 C496 0.929 . S
H503 C497 0.930 . S
H504 C510 0.930 . S
H505 C513 0.930 . S
H506 C514 0.930 . S
H507 C515 0.930 . S
H508 C518 0.930 . S
H509 C519 0.930 . S
C510 H504 0.930 . S
C510 C511 1.355 . S
C510 C512 1.415 . S
C511 C510 1.355 . S
C511 C513 1.419 . S
C512 C510 1.415 . S
C512 C517 1.425 . S
C512 C519 1.409 . S
C513 H505 0.930 . S
C513 C511 1.419 . S
C513 C514 1.362 . S
C514 H506 0.930 . S
C514 C513 1.362 . S
C514 C517 1.409 . S
C515 H507 0.930 . S
C515 C516 1.355 . S
C515 C517 1.415 . S
C516 C515 1.355 . S
C516 C518 1.419 . S
C517 C512 1.425 . S
C517 C514 1.409 . S
C517 C515 1.415 . S
C518 H508 0.930 . S
C518 C516 1.419 . S
C518 C519 1.362 . S
C519 H509 0.930 . S
C519 C512 1.409 . S
C519 C518 1.362 . S
H520 C526 0.930 . S
H521 C529 0.930 . S
H522 C530 0.930 . S
H523 C531 0.930 . S
H524 C534 0.930 . S
H525 C535 0.930 . S
C526 H520 0.930 . S
C526 C527 1.355 . S
C526 C528 1.415 . S
C527 C526 1.355 . S
C527 C529 1.419 . S
C528 C526 1.415 . S
C528 C533 1.425 . S
C528 C535 1.409 . S
C529 H521 0.930 . S
C529 C527 1.419 . S
C529 C530 1.362 . S
C530 H522 0.930 . S
C530 C529 1.362 . S
C530 C533 1.409 . S
C531 H523 0.930 . S
C531 C532 1.355 . S
C531 C533 1.415 . S
C532 C531 1.355 . S
C532 C534 1.419 . S
C533 C528 1.425 . S
C533 C530 1.409 . S
C533 C531 1.415 . S
C534 H524 0.930 . S
C534 C532 1.419 . S
C534 C535 1.362 . S
C535 H525 0.930 . S
C535 C528 1.409 . S
C535 C534 1.362 . S
H536 C542 0.930 . S
H537 C545 0.930 . S
H538 C546 0.930 . S
H539 C547 0.930 . S
H540 C550 0.930 . S
H541 C551 0.930 . S
C542 H536 0.930 . S
C542 C543 1.355 . S
C542 C544 1.415 . S
C543 C542 1.355 . S
C543 C545 1.419 . S
C544 C542 1.415 . S
C544 C549 1.425 . S
C544 C551 1.409 . S
C545 H537 0.930 . S
C545 C543 1.419 . S
C545 C546 1.362 . S
C546 H538 0.930 . S
C546 C545 1.362 . S
C546 C549 1.409 . S
C547 H539 0.930 . S
C547 C548 1.355 . S
C547 C549 1.415 . S
C548 C547 1.355 . S
C548 C550 1.419 . S
C549 C544 1.425 . S
C549 C546 1.409 . S
C549 C547 1.415 . S
C550 H540 0.930 . S
C550 C548 1.419 . S
C550 C551 1.362 . S
C551 H541 0.930 . S
C551 C544 1.409 . S
C551 C550 1.362 . S
H552 C558 0.930 . S
H553 C561 0.930 . S
H554 C562 0.930 . S
H555 C563 0.930 . S
H556 C566 0.930 . S
H557 C567 0.930 . S
C558 H552 0.930 . S
C558 C559 1.355 . S
C558 C560 1.415 . S
C559 C558 1.355 . S
C559 C561 1.419 . S
C560 C558 1.415 . S
C560 C565 1.425 . S
C560 C567 1.409 . S
C561 H553 0.930 . S
C561 C559 1.419 . S
C561 C562 1.362 . S
C562 H554 0.930 . S
C562 C561 1.362 . S
C562 C565 1.409 . S
C563 H555 0.930 . S
C563 C564 1.355 . S
C563 C565 1.415 . S
C564 C563 1.355 . S
C564 C566 1.419 . S
C565 C560 1.425 . S
C565 C562 1.409 . S
C565 C563 1.415 . S
C566 H556 0.930 . S
C566 C564 1.419 . S
C566 C567 1.362 . S
C567 H557 0.930 . S
C567 C560 1.409 . S
C567 C566 1.362 . S
H568 C574 0.930 . S
H569 C577 0.930 . S
H570 C578 0.930 . S
H571 C579 0.930 . S
H572 C582 0.930 . S
H573 C583 0.930 . S
C574 H568 0.930 . S
C574 C575 1.355 . S
C574 C576 1.415 . S
C575 C574 1.355 . S
C575 C577 1.419 . S
C576 C574 1.415 . S
C576 C581 1.425 . S
C576 C583 1.409 . S
C577 H569 0.930 . S
C577 C575 1.419 . S
C577 C578 1.362 . S
C578 H570 0.930 . S
C578 C577 1.362 . S
C578 C581 1.409 . S
C579 H571 0.930 . S
C579 C580 1.355 . S
C579 C581 1.415 . S
C580 C579 1.355 . S
C580 C582 1.419 . S
C581 C576 1.425 . S
C581 C578 1.409 . S
C581 C579 1.415 . S
C582 H572 0.930 . S
C582 C580 1.419 . S
C582 C583 1.362 . S
C583 H573 0.930 . S
C583 C576 1.409 . S
C583 C582 1.362 . S
H584 C590 0.930 . S
H585 C593 0.930 . S
H586 C594 0.930 . S
H587 C595 0.930 . S
H588 C598 0.930 . S
H589 C599 0.930 . S
C590 H584 0.930 . S
C590 C591 1.355 . S
C590 C592 1.415 . S
C591 C590 1.355 . S
C591 C593 1.419 . S
C592 C590 1.415 . S
C592 C597 1.425 . S
C592 C599 1.409 . S
C593 H585 0.930 . S
C593 C591 1.419 . S
C593 C594 1.362 . S
C594 H586 0.930 . S
C594 C593 1.362 . S
C594 C597 1.409 . S
C595 H587 0.930 . S
C595 C596 1.355 . S
C595 C597 1.415 . S
C596 C595 1.355 . S
C596 C598 1.419 . S
C597 C592 1.425 . S
C597 C594 1.409 . S
C597 C595 1.415 . S
C598 H588 0.930 . S
C598 C596 1.419 . S
C598 C599 1.362 . S
C599 H589 0.930 . S
C599 C592 1.409 . S
C599 C598 1.362 . S
H600 C606 0.930 . S
H601 C609 0.930 . S
H602 C610 0.930 . S
H603 C611 0.930 . S
H604 C614 0.930 . S
H605 C615 0.930 . S
C606 H600 0.930 . S
C606 C607 1.355 . S
C606 C608 1.415 . S
C607 C606 1.355 . S
C607 C609 1.419 . S
C608 C606 1.415 . S
C608 C613 1.425 . S
C608 C615 1.409 . S
C609 H601 0.930 . S
C609 C607 1.419 . S
C609 C610 1.362 . S
C610 H602 0.930 . S
C610 C609 1.362 . S
C610 C613 1.409 . S
C611 H603 0.930 . S
C611 C612 1.355 . S
C611 C613 1.415 . S
C612 C611 1.355 . S
C612 C614 1.419 . S
C613 C608 1.425 . S
C613 C610 1.409 . S
C613 C611 1.415 . S
C614 H604 0.930 . S
C614 C612 1.419 . S
C614 C615 1.362 . S
C615 H605 0.930 . S
C615 C608 1.409 . S
C615 C614 1.362 . S
H616 C622 0.930 . S
H617 C625 0.930 . S
H618 C626 0.930 . S
H619 C627 0.930 . S
H620 C630 0.930 . S
H621 C631 0.930 . S
C622 H616 0.930 . S
C622 C623 1.355 . S
C622 C624 1.415 . S
C623 C622 1.355 . S
C623 C625 1.419 . S
C624 C622 1.415 . S
C624 C629 1.425 . S
C624 C631 1.409 . S
C625 H617 0.930 . S
C625 C623 1.419 . S
C625 C626 1.362 . S
C626 H618 0.930 . S
C626 C625 1.362 . S
C626 C629 1.409 . S
C627 H619 0.930 . S
C627 C628 1.355 . S
C627 C629 1.415 . S
C628 C627 1.355 . S
C628 C630 1.419 . S
C629 C624 1.425 . S
C629 C626 1.409 . S
C629 C627 1.415 . S
C630 H620 0.930 . S
C630 C628 1.419 . S
C630 C631 1.362 . S
C631 H621 0.930 . S
C631 C624 1.409 . S
C631 C630 1.362 . S
H632 C638 0.930 . S
H633 C641 0.930 . S
H634 C642 0.930 . S
H635 C643 0.930 . S
H636 C646 0.930 . S
H637 C647 0.930 . S
C638 H632 0.930 . S
C638 C639 1.355 . S
C638 C640 1.415 . S
C639 C638 1.355 . S
C639 C641 1.419 . S
C640 C638 1.415 . S
C640 C645 1.425 . S
C640 C647 1.409 . S
C641 H633 0.930 . S
C641 C639 1.419 . S
C641 C642 1.362 . S
C642 H634 0.930 . S
C642 C641 1.362 . S
C642 C645 1.409 . S
C643 H635 0.930 . S
C643 C644 1.355 . S
C643 C645 1.415 . S
C644 C643 1.355 . S
C644 C646 1.419 . S
C645 C640 1.425 . S
C645 C642 1.409 . S
C645 C643 1.415 . S
C646 H636 0.930 . S
C646 C644 1.419 . S
C646 C647 1.362 . S
C647 H637 0.930 . S
C647 C640 1.409 . S
C647 C646 1.362 . S
H648 C654 0.930 . S
H649 C657 0.930 . S
H650 C658 0.930 . S
H651 C659 0.930 . S
H652 C662 0.930 . S
H653 C663 0.930 . S
C654 H648 0.930 . S
C654 C655 1.355 . S
C654 C656 1.415 . S
C655 C654 1.355 . S
C655 C657 1.419 . S
C656 C654 1.415 . S
C656 C661 1.425 . S
C656 C663 1.409 . S
C657 H649 0.930 . S
C657 C655 1.419 . S
C657 C658 1.362 . S
C658 H650 0.930 . S
C658 C657 1.362 . S
C658 C661 1.409 . S
C659 H651 0.930 . S
C659 C660 1.355 . S
C659 C661 1.415 . S
C660 C659 1.355 . S
C660 C662 1.419 . S
C661 C656 1.425 . S
C661 C658 1.409 . S
C661 C659 1.415 . S
C662 H652 0.930 . S
C662 C660 1.419 . S
C662 C663 1.362 . S
C663 H653 0.930 . S
C663 C656 1.409 . S
C663 C662 1.362 . S
H664 C670 0.930 . S
H665 C673 0.930 . S
H666 C674 0.930 . S
H667 C675 0.930 . S
H668 C678 0.930 . S
H669 C679 0.930 . S
C670 H664 0.930 . S
C670 C671 1.355 . S
C670 C672 1.415 . S
C671 C670 1.355 . S
C671 C673 1.419 . S
C672 C670 1.415 . S
C672 C677 1.425 . S
C672 C679 1.409 . S
C673 H665 0.930 . S
C673 C671 1.419 . S
C673 C674 1.362 . S
C674 H666 0.930 . S
C674 C673 1.362 . S
C674 C677 1.409 . S
C675 H667 0.930 . S
C675 C676 1.355 . S
C675 C677 1.415 . S
C676 C675 1.355 . S
C676 C678 1.419 . S
C677 C672 1.425 . S
C677 C674 1.409 . S
C677 C675 1.415 . S
C678 H668 0.930 . S
C678 C676 1.419 . S
C678 C679 1.362 . S
C679 H669 0.930 . S
C679 C672 1.409 . S
C679 C678 1.362 . S
H680 C686 0.930 . S
H681 C689 0.930 . S
H682 C690 0.930 . S
H683 C691 0.930 . S
H684 C694 0.930 . S
H685 C695 0.930 . S
C686 H680 0.930 . S
C686 C687 1.355 . S
C686 C688 1.415 . S
C687 C686 1.355 . S
C687 C689 1.419 . S
C688 C686 1.415 . S
C688 C693 1.425 . S
C688 C695 1.409 . S
C689 H681 0.930 . S
C689 C687 1.419 . S
C689 C690 1.362 . S
C690 H682 0.930 . S
C690 C689 1.362 . S
C690 C693 1.409 . S
C691 H683 0.930 . S
C691 C692 1.355 . S
C691 C693 1.415 . S
C692 C691 1.355 . S
C692 C694 1.419 . S
C693 C688 1.425 . S
C693 C690 1.409 . S
C693 C691 1.415 . S
C694 H684 0.930 . S
C694 C692 1.419 . S
C694 C695 1.362 . S
C695 H685 0.930 . S
C695 C688 1.409 . S
C695 C694 1.362 . S
H696 C702 0.930 . S
H697 C705 0.930 . S
H698 C706 0.930 . S
H699 C707 0.930 . S
H700 C710 0.930 . S
H701 C711 0.930 . S
C702 H696 0.930 . S
C702 C703 1.355 . S
C702 C704 1.415 . S
C703 C702 1.355 . S
C703 C705 1.419 . S
C704 C702 1.415 . S
C704 C709 1.425 . S
C704 C711 1.409 . S
C705 H697 0.930 . S
C705 C703 1.419 . S
C705 C706 1.362 . S
C706 H698 0.930 . S
C706 C705 1.362 . S
C706 C709 1.409 . S
C707 H699 0.930 . S
C707 C708 1.355 . S
C707 C709 1.415 . S
C708 C707 1.355 . S
C708 C710 1.419 . S
C709 C704 1.425 . S
C709 C706 1.409 . S
C709 C707 1.415 . S
C710 H700 0.930 . S
C710 C708 1.419 . S
C710 C711 1.362 . S
C711 H701 0.930 . S
C711 C704 1.409 . S
C711 C710 1.362 . S
H712 C718 0.930 . S
H713 C721 0.930 . S
H714 C722 0.930 . S
H715 C723 0.930 . S
H716 C726 0.930 . S
H717 C727 0.930 . S
C718 H712 0.930 . S
C718 C719 1.355 . S
C718 C720 1.415 . S
C719 C718 1.355 . S
C719 C721 1.419 . S
C720 C718 1.415 . S
C720 C725 1.425 . S
C720 C727 1.409 . S
C721 H713 0.930 . S
C721 C719 1.419 . S
C721 C722 1.362 . S
C722 H714 0.930 . S
C722 C721 1.362 . S
C722 C725 1.409 . S
C723 H715 0.930 . S
C723 C724 1.355 . S
C723 C725 1.415 . S
C724 C723 1.355 . S
C724 C726 1.419 . S
C725 C720 1.425 . S
C725 C722 1.409 . S
C725 C723 1.415 . S
C726 H716 0.930 . S
C726 C724 1.419 . S
C726 C727 1.362 . S
C727 H717 0.930 . S
C727 C720 1.409 . S
C727 C726 1.362 . S
H728 C734 0.930 . S
H729 C737 0.930 . S
H730 C738 0.930 . S
H731 C739 0.930 . S
H732 C742 0.930 . S
H733 C743 0.930 . S
C734 H728 0.930 . S
C734 C735 1.355 . S
C734 C736 1.415 . S
C735 C734 1.355 . S
C735 C737 1.419 . S
C736 C734 1.415 . S
C736 C741 1.425 . S
C736 C743 1.409 . S
C737 H729 0.930 . S
C737 C735 1.419 . S
C737 C738 1.362 . S
C738 H730 0.930 . S
C738 C737 1.362 . S
C738 C741 1.409 . S
C739 H731 0.930 . S
C739 C740 1.355 . S
C739 C741 1.415 . S
C740 C739 1.355 . S
C740 C742 1.419 . S
C741 C736 1.425 . S
C741 C738 1.409 . S
C741 C739 1.415 . S
C742 H732 0.930 . S
C742 C740 1.419 . S
C742 C743 1.362 . S
C743 H733 0.930 . S
C743 C736 1.409 . S
C743 C742 1.362 . S
H744 C750 0.930 . S
H745 C753 0.930 . S
H746 C754 0.930 . S
H747 C755 0.930 . S
H748 C758 0.930 . S
H749 C759 0.930 1_554 S
C750 H744 0.930 . S
C750 C751 1.355 . S
C750 C752 1.415 . S
C751 C750 1.355 . S
C751 C753 1.419 . S
C752 C750 1.415 . S
C752 C757 1.425 . S
C752 C759 1.409 . S
C753 H745 0.930 . S
C753 C751 1.419 . S
C753 C754 1.362 . S
C754 H746 0.930 . S
C754 C753 1.362 . S
C754 C757 1.409 . S
C755 H747 0.930 . S
C755 C756 1.355 1_556 S
C755 C757 1.415 . S
C756 C755 1.355 1_554 S
C756 C758 1.419 . S
C757 C752 1.425 . S
C757 C754 1.409 . S
C757 C755 1.415 . S
C758 H748 0.930 . S
C758 C756 1.419 . S
C758 C759 1.362 1_554 S
C759 H749 0.930 1_556 S
C759 C752 1.409 . S
C759 C758 1.362 1_556 S
H760 C766 0.930 . S
H761 C769 0.930 . S
H762 C770 0.930 . S
H763 C771 0.930 . S
H764 C774 0.930 . S
H765 C775 0.930 . S
C766 H760 0.930 . S
C766 C767 1.355 . S
C766 C768 1.415 . S
C767 C766 1.355 . S
C767 C769 1.419 . S
C768 C766 1.415 . S
C768 C773 1.425 . S
C768 C775 1.409 . S
C769 H761 0.930 . S
C769 C767 1.419 . S
C769 C770 1.362 . S
C770 H762 0.930 . S
C770 C769 1.362 . S
C770 C773 1.409 . S
C771 H763 0.930 . S
C771 C772 1.355 . S
C771 C773 1.415 . S
C772 C771 1.355 . S
C772 C774 1.419 . S
C773 C768 1.425 . S
C773 C770 1.409 . S
C773 C771 1.415 . S
C774 H764 0.930 . S
C774 C772 1.419 . S
C774 C775 1.362 . S
C775 H765 0.930 . S
C775 C768 1.409 . S
C775 C774 1.362 . S
H776 C782 0.930 . S
H777 C785 0.930 . S
H778 C786 0.930 . S
H779 C787 0.930 . S
H780 C790 0.930 . S
H781 C791 0.930 . S
C782 H776 0.930 . S
C782 C783 1.355 . S
C782 C784 1.415 . S
C783 C782 1.355 . S
C783 C785 1.419 . S
C784 C782 1.415 . S
C784 C789 1.425 . S
C784 C791 1.409 . S
C785 H777 0.930 . S
C785 C783 1.419 . S
C785 C786 1.362 . S
C786 H778 0.930 . S
C786 C785 1.362 . S
C786 C789 1.409 . S
C787 H779 0.930 . S
C787 C788 1.355 . S
C787 C789 1.415 . S
C788 C787 1.355 . S
C788 C790 1.419 . S
C789 C784 1.425 . S
C789 C786 1.409 . S
C789 C787 1.415 . S
C790 H780 0.930 . S
C790 C788 1.419 . S
C790 C791 1.362 . S
C791 H781 0.930 . S
C791 C784 1.409 . S
C791 C790 1.362 . S
H792 C798 0.930 . S
H793 C801 0.930 . S
H794 C802 0.930 . S
H795 C803 0.930 . S
H796 C806 0.930 . S
H797 C807 0.930 . S
C798 H792 0.930 . S
C798 C799 1.355 . S
C798 C800 1.415 . S
C799 C798 1.355 . S
C799 C801 1.419 . S
C800 C798 1.415 . S
C800 C805 1.425 . S
C800 C807 1.409 . S
C801 H793 0.930 . S
C801 C799 1.419 . S
C801 C802 1.362 . S
C802 H794 0.930 . S
C802 C801 1.362 . S
C802 C805 1.409 . S
C803 H795 0.930 . S
C803 C804 1.355 . S
C803 C805 1.415 . S
C804 C803 1.355 . S
C804 C806 1.419 . S
C805 C800 1.425 . S
C805 C802 1.409 . S
C805 C803 1.415 . S
C806 H796 0.930 . S
C806 C804 1.419 . S
C806 C807 1.362 . S
C807 H797 0.930 . S
C807 C800 1.409 . S
C807 C806 1.362 . S
H808 C814 0.930 . S
H809 C817 0.930 . S
H810 C818 0.930 . S
H811 C819 0.930 . S
H812 C822 0.930 . S
H813 C823 0.930 . S
C814 H808 0.930 . S
C814 C815 1.355 . S
C814 C816 1.415 . S
C815 C814 1.355 . S
C815 C817 1.419 . S
C816 C814 1.415 . S
C816 C821 1.425 . S
C816 C823 1.409 . S
C817 H809 0.930 . S
C817 C815 1.419 . S
C817 C818 1.362 . S
C818 H810 0.930 . S
C818 C817 1.362 . S
C818 C821 1.409 . S
C819 H811 0.930 . S
C819 C820 1.355 . S
C819 C821 1.415 . S
C820 C819 1.355 . S
C820 C822 1.419 . S
C821 C816 1.425 . S
C821 C818 1.409 . S
C821 C819 1.415 . S
C822 H812 0.930 . S
C822 C820 1.419 . S
C822 C823 1.362 . S
C823 H813 0.930 . S
C823 C816 1.409 . S
C823 C822 1.362 . S
H824 C830 0.930 . S
H825 C833 0.930 . S
H826 C834 0.930 . S
H827 C835 0.930 . S
H828 C838 0.930 . S
H829 C839 0.930 . S
C830 H824 0.930 . S
C830 C831 1.355 . S
C830 C832 1.415 . S
C831 C830 1.355 . S
C831 C833 1.419 . S
C832 C830 1.415 . S
C832 C837 1.425 . S
C832 C839 1.409 . S
C833 H825 0.930 . S
C833 C831 1.419 . S
C833 C834 1.362 . S
C834 H826 0.930 . S
C834 C833 1.362 . S
C834 C837 1.409 . S
C835 H827 0.930 . S
C835 C836 1.355 . S
C835 C837 1.415 . S
C836 C835 1.355 . S
C836 C838 1.419 . S
C837 C832 1.425 . S
C837 C834 1.409 . S
C837 C835 1.415 . S
C838 H828 0.930 . S
C838 C836 1.419 . S
C838 C839 1.362 . S
C839 H829 0.930 . S
C839 C832 1.409 . S
C839 C838 1.362 . S
H840 C846 0.930 . S
H841 C849 0.930 . S
H842 C850 0.930 . S
H843 C851 0.930 . S
H844 C854 0.930 . S
H845 C855 0.930 . S
C846 H840 0.930 . S
C846 C847 1.355 . S
C846 C848 1.415 . S
C847 C846 1.355 . S
C847 C849 1.419 . S
C848 C846 1.415 . S
C848 C853 1.425 . S
C848 C855 1.409 . S
C849 H841 0.930 . S
C849 C847 1.419 . S
C849 C850 1.362 . S
C850 H842 0.930 . S
C850 C849 1.362 . S
C850 C853 1.409 . S
C851 H843 0.930 . S
C851 C852 1.355 . S
C851 C853 1.415 . S
C852 C851 1.355 . S
C852 C854 1.419 . S
C853 C848 1.425 . S
C853 C850 1.409 . S
C853 C851 1.415 . S
C854 H844 0.930 . S
C854 C852 1.419 . S
C854 C855 1.362 . S
C855 H845 0.930 . S
C855 C848 1.409 . S
C855 C854 1.362 . S
H856 C862 0.930 . S
H857 C865 0.930 . S
H858 C866 0.919 1_556 S
H859 C867 0.930 . S
H860 C870 0.930 . S
H861 C871 0.930 . S
C862 H856 0.930 . S
C862 C863 1.355 . S
C862 C864 1.415 . S
C863 C862 1.355 . S
C863 C865 1.419 . S
C864 C862 1.415 . S
C864 C869 1.425 1_554 S
C864 C871 1.409 . S
C865 H857 0.930 . S
C865 C863 1.419 . S
C865 C866 1.376 . S
C866 H858 0.919 1_554 S
C866 C865 1.376 . S
C866 C869 1.407 1_554 S
C867 H859 0.930 . S
C867 C868 1.355 . S
C867 C869 1.415 . S
C868 C867 1.355 . S
C868 C870 1.419 . S
C869 C864 1.425 1_556 S
C869 C866 1.407 1_556 S
C869 C867 1.415 . S
C870 H860 0.930 . S
C870 C868 1.419 . S
C870 C871 1.362 1_556 S
C871 H861 0.930 . S
C871 C864 1.409 . S
C871 C870 1.362 1_554 S
H872 C878 0.930 . S
H873 C881 0.930 . S
H874 C882 0.930 . S
H875 C883 0.930 . S
H876 C886 0.930 . S
H877 C887 0.930 . S
C878 H872 0.930 . S
C878 C879 1.355 . S
C878 C880 1.415 . S
C879 C878 1.355 . S
C879 C881 1.419 . S
C880 C878 1.415 . S
C880 C885 1.425 . S
C880 C887 1.409 . S
C881 H873 0.930 . S
C881 C879 1.419 . S
C881 C882 1.362 . S
C882 H874 0.930 . S
C882 C881 1.362 . S
C882 C885 1.409 . S
C883 H875 0.930 . S
C883 C884 1.355 . S
C883 C885 1.415 . S
C884 C883 1.355 . S
C884 C886 1.419 . S
C885 C880 1.425 . S
C885 C882 1.409 . S
C885 C883 1.415 . S
C886 H876 0.930 . S
C886 C884 1.419 . S
C886 C887 1.362 . S
C887 H877 0.930 . S
C887 C880 1.409 . S
C887 C886 1.362 . S
C516 C471 1.595 . S
C511 C45 1.597 . S
C527 C84 1.626 . S
C532 C291 1.637 . S
C543 C126 1.588 . S
C548 C338 1.595 . S
C559 C189 1.555 . S
C564 C374 1.566 . S
C580 C399 1.574 . S
C575 C228 1.564 . S
C591 C270 1.523 . S
C596 C435 1.580 . S
C607 C69 1.634 . S
C612 C327 1.647 . S
C623 C141 1.594 . S
C628 C363 1.584 . S
C639 C174 1.498 . S
C644 C410 1.552 . S
C660 C446 1.603 . S
C655 C213 1.549 . S
C676 C482 1.609 . S
C671 C285 1.596 . S
C692 C302 1.587 . S
C687 C30 1.608 . S
C703 C36 1.486 . S
C708 C326 1.488 . S
C719 C93 1.491 . S
C724 C362 1.497 . S
C740 C400 1.484 . S
C735 C117 1.491 . S
C751 C180 1.494 . S
C756 C436 1.482 . S
C772 C472 1.469 . S
C767 C237 1.460 . S
C788 C292 1.443 . S
C783 C261 1.449 . S
C804 C470 1.472 . S
C799 C78 1.484 . S
C815 C132 1.488 . S
C820 C290 1.490 . S
C836 C328 1.465 . S
C831 C165 1.471 . S
C847 C222 1.491 . S
C852 C364 1.483 . S
C863 C276 1.528 . S
C868 C398 1.525 . S
C879 C21 1.498 . S
C884 C434 1.479 . S
