# Generated by pormake.
# Topology nom, (4,4)-cn, num edge types: 1
# Building blocks:
#     Node 0, Type 0, BuildingBlock: AZAVOO_clean_linker_0, # of connection points: 4
#     Node 1, Type 0, BuildingBlock: AZAVOO_clean_linker_0, # of connection points: 4
#     Node 2, Type 0, BuildingBlock: AZAVOO_clean_linker_0, # of connection points: 4
#     Node 3, Type 0, BuildingBlock: AZAVOO_clean_linker_0, # of connection points: 4
#     Node 4, Type 0, BuildingBlock: AZAVOO_clean_linker_0, # of connection points: 4
#     Node 5, Type 0, BuildingBlock: AZAVOO_clean_linker_0, # of connection points: 4
#     Node 6, Type 1, BuildingBlock: UXUYUI_clean_sbu_0, # of connection points: 4
#     Node 7, Type 1, BuildingBlock: UXUYUI_clean_sbu_0, # of connection points: 4
#     Node 8, Type 1, BuildingBlock: UXUYUI_clean_sbu_0, # of connection points: 4
#     Node 9, Type 1, BuildingBlock: UXUYUI_clean_sbu_0, # of connection points: 4
#     Node 10, Type 1, BuildingBlock: UXUYUI_clean_sbu_0, # of connection points: 4
#     Node 11, Type 1, BuildingBlock: UXUYUI_clean_sbu_0, # of connection points: 4
#     Edge 12, Type (0, 1), None
#     Edge 13, Type (0, 1), None
#     Edge 14, Type (0, 1), None
#     Edge 15, Type (0, 1), None
#     Edge 16, Type (0, 1), None
#     Edge 17, Type (0, 1), None
#     Edge 18, Type (0, 1), None
#     Edge 19, Type (0, 1), None
#     Edge 20, Type (0, 1), None
#     Edge 21, Type (0, 1), None
#     Edge 22, Type (0, 1), None
#     Edge 23, Type (0, 1), None
#     Edge 24, Type (0, 1), None
#     Edge 25, Type (0, 1), None
#     Edge 26, Type (0, 1), None
#     Edge 27, Type (0, 1), None
#     Edge 28, Type (0, 1), None
#     Edge 29, Type (0, 1), None
#     Edge 30, Type (0, 1), None
#     Edge 31, Type (0, 1), None
#     Edge 32, Type (0, 1), None
#     Edge 33, Type (0, 1), None
#     Edge 34, Type (0, 1), None
#     Edge 35, Type (0, 1), None
# Relax obj value: 0.193
# Max RMSD: 0.227
# Mean RMSD: 0.184
data_MOF--net-nom--node1-UXUYUI_clean_sbu_0--node2-AZAVOO_clean_linker_0--edge1-none
_symmetry_space_group_name_H-M    P1
_symmetry_Int_Tables_number       1
_symmetry_cell_setting            triclinic
loop_
_symmetry_equiv_pos_as_xyz
'x, y, z'
_cell_length_a     35.582435
_cell_length_b     36.402271
_cell_length_c     43.883215
_cell_angle_alpha  90.051108
_cell_angle_beta   89.818655
_cell_angle_gamma 121.40353
loop_
_atom_site_label
_atom_site_type_symbol
_atom_site_fract_x
_atom_site_fract_y
_atom_site_fract_z
_atom_type_partial_charge
H0 H 0.05008 0.45423 0.11187 0.0
H1 H 0.32475 0.72373 0.40034 0.0
H2 H 0.99123 0.4392 0.27248 0.0
H3 H 0.94342 0.40711 0.2283 0.0
H4 H 0.9422 0.52423 0.21544 0.0
H5 H 0.98887 0.55533 0.26025 0.0
H6 H 0.08195 0.47744 0.24314 0.0
H7 H 0.07247 0.45876 0.18894 0.0
H8 H 0.05595 0.5662 0.17043 0.0
H9 H 0.06557 0.58449 0.22467 0.0
H10 H 0.18078 0.54585 0.2852 0.0
H11 H 0.25648 0.59438 0.26836 0.0
H12 H 0.21906 0.68096 0.23149 0.0
H13 H 0.14406 0.6333 0.25007 0.0
H14 H 0.15695 0.53596 0.35119 0.0
H15 H 0.22458 0.57608 0.38104 0.0
H16 H 0.23815 0.69562 0.35114 0.0
H17 H 0.17011 0.65504 0.32178 0.0
H18 H 0.0638 0.48902 0.3742 0.0
H19 H 0.09791 0.50182 0.42439 0.0
H20 H 0.13104 0.63405 0.42053 0.0
H21 H 0.0977 0.62107 0.37007 0.0
H22 H 0.95878 0.45268 0.3273 0.0
H23 H 0.89049 0.43932 0.35084 0.0
H24 H 0.95316 0.57469 0.37264 0.0
H25 H 0.01993 0.588 0.347 0.0
O26 O 0.05539 0.46312 0.133 0.0
O27 O 0.04844 0.51952 0.12453 0.0
O28 O 0.29109 0.64477 0.40186 0.0
O29 O 0.2984 0.70705 0.3883 0.0
C30 C 0.03481 0.52363 0.28722 0.0
C31 C 0.07495 0.54014 0.27099 0.0
C32 C 0.11529 0.56363 0.28631 0.0
C33 C 0.11586 0.56822 0.31821 0.0
C34 C 0.07593 0.55129 0.33466 0.0
C35 C 0.03523 0.53076 0.31903 0.0
C36 C 0.99335 0.49951 0.26965 0.0
C37 C 0.97876 0.45705 0.26102 0.0
C38 C 0.95229 0.43917 0.23531 0.0
C39 C 0.94002 0.46353 0.21774 0.0
C40 C 0.95097 0.50448 0.22837 0.0
C41 C 0.9773 0.52224 0.25423 0.0
C42 C 0.07446 0.53228 0.23773 0.0
C43 C 0.07696 0.49725 0.22724 0.0
C44 C 0.07126 0.48652 0.19631 0.0
C45 C 0.06317 0.51083 0.17537 0.0
C46 C 0.06201 0.54674 0.18594 0.0
C47 C 0.06771 0.5574 0.21687 0.0
C48 C 0.15718 0.58631 0.26907 0.0
C49 C 0.1888 0.57477 0.27279 0.0
C50 C 0.232 0.60251 0.26299 0.0
C51 C 0.24398 0.64194 0.24896 0.0
C52 C 0.21109 0.65131 0.24279 0.0
C53 C 0.16809 0.62384 0.25298 0.0
C54 C 0.15862 0.59264 0.3345 0.0
C55 C 0.17469 0.57081 0.35107 0.0
C56 C 0.21331 0.5938 0.36806 0.0
C57 C 0.23666 0.63908 0.36857 0.0
C58 C 0.22089 0.6608 0.35134 0.0
C59 C 0.18217 0.63775 0.33446 0.0
C60 C 0.07831 0.55409 0.36843 0.0
C61 C 0.07642 0.52013 0.38486 0.0
C62 C 0.0964 0.52768 0.41347 0.0
C63 C 0.11835 0.56931 0.42607 0.0
C64 C 0.11547 0.60191 0.41107 0.0
C65 C 0.09556 0.59434 0.3825 0.0
C66 C 0.99443 0.52134 0.33527 0.0
C67 C 0.95763 0.47944 0.33701 0.0
C68 C 0.91875 0.47183 0.35091 0.0
C69 C 0.91607 0.50594 0.36379 0.0
C70 C 0.95354 0.5477 0.36263 0.0
C71 C 0.99206 0.55531 0.34831 0.0
C72 C 0.05531 0.4983 0.14275 0.0
C73 C 0.27703 0.66363 0.38724 0.0
H74 H 0.59519 0.05784 0.29362 0.0
H75 H 0.59283 0.25323 0.62332 0.0
H76 H 0.57744 0.96979 0.46554 0.0
H77 H 0.56824 0.91991 0.42482 0.0
H78 H 0.45176 0.91824 0.39452 0.0
H79 H 0.46005 0.96603 0.43634 0.0
H80 H 0.6092 0.04855 0.42581 0.0
H81 H 0.61493 0.05256 0.37018 0.0
H82 H 0.50138 0.06624 0.36617 0.0
H83 H 0.49572 0.06162 0.42182 0.0
H84 H 0.63459 0.1437 0.45268 0.0
H85 H 0.65519 0.21523 0.43356 0.0
H86 H 0.52666 0.19097 0.4587 0.0
H87 H 0.50639 0.11967 0.47754 0.0
H88 H 0.63808 0.13443 0.53194 0.0
H89 H 0.66326 0.19478 0.56743 0.0
H90 H 0.53071 0.17026 0.57265 0.0
H91 H 0.50608 0.1101 0.53715 0.0
H92 H 0.60143 0.039 0.55941 0.0
H93 H 0.61722 0.0618 0.61272 0.0
H94 H 0.49399 0.05765 0.61906 0.0
H95 H 0.4782 0.0344 0.56585 0.0
H96 H 0.54062 0.93776 0.51614 0.0
H97 H 0.48799 0.86399 0.53293 0.0
H98 H 0.38816 0.89693 0.5435 0.0
H99 H 0.44021 0.96957 0.52537 0.0
O100 O 0.59286 0.0572 0.31562 0.0
O101 O 0.53518 0.06544 0.31482 0.0
O102 O 0.65259 0.24568 0.60161 0.0
O103 O 0.58398 0.2304 0.60855 0.0
C104 C 0.53012 0.00798 0.47442 0.0
C105 C 0.5469 0.04928 0.46135 0.0
C106 C 0.55723 0.08474 0.48014 0.0
C107 C 0.55484 0.07985 0.51205 0.0
C108 C 0.53827 0.03873 0.52515 0.0
C109 C 0.52349 0.00237 0.5063 0.0
C110 C 0.51909 0.97107 0.45413 0.0
C111 C 0.549 0.95723 0.45079 0.0
C112 C 0.54411 0.92935 0.42712 0.0
C113 C 0.50954 0.91529 0.40603 0.0
C114 C 0.47844 0.92772 0.41045 0.0
C115 C 0.48307 0.95514 0.43437 0.0
C116 C 0.55212 0.05487 0.42778 0.0
C117 C 0.58576 0.05264 0.41286 0.0
C118 C 0.5889 0.05488 0.38109 0.0
C119 C 0.55854 0.05961 0.36371 0.0
C120 C 0.52529 0.06257 0.37886 0.0
C121 C 0.52209 0.06016 0.41063 0.0
C122 C 0.56918 0.1268 0.46668 0.0
C123 C 0.61084 0.15378 0.45372 0.0
C124 C 0.62242 0.19444 0.44276 0.0
C125 C 0.59255 0.20871 0.4448 0.0
C126 C 0.55051 0.18106 0.45719 0.0
C127 C 0.53889 0.14039 0.46789 0.0
C128 C 0.57035 0.11807 0.53199 0.0
C129 C 0.61468 0.14247 0.54057 0.0
C130 C 0.62891 0.17681 0.56088 0.0
C131 C 0.59895 0.1873 0.57291 0.0
C132 C 0.55462 0.16305 0.56385 0.0
C133 C 0.54048 0.12878 0.54351 0.0
C134 C 0.53876 0.03522 0.55878 0.0
C135 C 0.57676 0.04073 0.57279 0.0
C136 C 0.58584 0.05394 0.6032 0.0
C137 C 0.55711 0.06208 0.61978 0.0
C138 C 0.51678 0.05186 0.60666 0.0
C139 C 0.50753 0.03822 0.57638 0.0
C140 C 0.49406 0.95883 0.51917 0.0
C141 C 0.50736 0.9289 0.52203 0.0
C142 C 0.47734 0.88692 0.53195 0.0
C143 C 0.43365 0.87437 0.53934 0.0
C144 C 0.42118 0.90514 0.53746 0.0
C145 C 0.45102 0.94681 0.52737 0.0
C146 C 0.56138 0.06101 0.32993 0.0
C147 C 0.61362 0.22295 0.59515 0.0
H148 H 0.52798 0.47672 0.84771 0.0
H149 H 0.63596 0.38345 0.50848 0.0
H150 H 0.5499 0.58421 0.68368 0.0
H151 H 0.53521 0.60885 0.73149 0.0
H152 H 0.4139 0.48602 0.7416 0.0
H153 H 0.42805 0.46259 0.69307 0.0
H154 H 0.57464 0.53117 0.7209 0.0
H155 H 0.56632 0.51983 0.77605 0.0
H156 H 0.45461 0.3914 0.76147 0.0
H157 H 0.46288 0.40353 0.70633 0.0
H158 H 0.61106 0.47678 0.69243 0.0
H159 H 0.62763 0.42544 0.71522 0.0
H160 H 0.5105 0.32047 0.67379 0.0
H161 H 0.495 0.37224 0.65056 0.0
H162 H 0.63536 0.50205 0.62427 0.0
H163 H 0.67595 0.48202 0.58976 0.0
H164 H 0.55307 0.38434 0.54961 0.0
H165 H 0.51288 0.40431 0.58462 0.0
H166 H 0.6092 0.56665 0.59726 0.0
H167 H 0.64718 0.57477 0.54899 0.0
H168 H 0.52782 0.4675 0.51208 0.0
H169 H 0.49015 0.45975 0.56043 0.0
H170 H 0.52744 0.59291 0.62987 0.0
H171 H 0.47758 0.61591 0.61182 0.0
H172 H 0.38362 0.48524 0.58456 0.0
H173 H 0.43315 0.46259 0.60311 0.0
O174 O 0.53111 0.48024 0.82581 0.0
O175 O 0.47505 0.41384 0.81712 0.0
O176 O 0.68239 0.43873 0.54633 0.0
O177 O 0.62049 0.39079 0.52309 0.0
C178 C 0.50711 0.50208 0.6638 0.0
C179 C 0.52253 0.47654 0.67636 0.0
C180 C 0.54061 0.45863 0.65724 0.0
C181 C 0.54727 0.46946 0.62615 0.0
C182 C 0.5329 0.49594 0.61368 0.0
C183 C 0.51026 0.50999 0.63211 0.0
C184 C 0.48994 0.52171 0.68487 0.0
C185 C 0.51901 0.56356 0.6954 0.0
C186 C 0.51108 0.57714 0.72313 0.0
C187 C 0.47405 0.54893 0.74081 0.0
C188 C 0.44274 0.5086 0.72861 0.0
C189 C 0.45053 0.49522 0.70071 0.0
C190 C 0.51926 0.46823 0.70971 0.0
C191 C 0.54849 0.50058 0.72969 0.0
C192 C 0.54364 0.49401 0.76117 0.0
C193 C 0.50971 0.45475 0.77318 0.0
C194 C 0.48104 0.42204 0.75298 0.0
C195 C 0.48579 0.42878 0.7215 0.0
C196 C 0.55201 0.42806 0.66983 0.0
C197 C 0.58924 0.44269 0.68822 0.0
C198 C 0.59832 0.4133 0.70143 0.0
C199 C 0.57018 0.36883 0.69647 0.0
C200 C 0.53303 0.35448 0.6778 0.0
C201 C 0.5241 0.38391 0.66454 0.0
C202 C 0.57127 0.45474 0.60681 0.0
C203 C 0.61728 0.47598 0.60826 0.0
C204 C 0.64036 0.46457 0.58845 0.0
C205 C 0.61776 0.4317 0.5668 0.0
C206 C 0.57151 0.40987 0.56592 0.0
C207 C 0.54846 0.42114 0.5859 0.0
C208 C 0.54701 0.51248 0.58235 0.0
C209 C 0.59055 0.54654 0.57817 0.0
C210 C 0.61242 0.55071 0.55075 0.0
C211 C 0.59076 0.52116 0.52706 0.0
C212 C 0.54538 0.49084 0.52991 0.0
C213 C 0.52359 0.48653 0.55746 0.0
C214 C 0.4838 0.52607 0.61792 0.0
C215 C 0.49629 0.56944 0.61973 0.0
C216 C 0.46785 0.5825 0.60926 0.0
C217 C 0.42644 0.55228 0.59697 0.0
C218 C 0.41493 0.50917 0.59429 0.0
C219 C 0.44335 0.49625 0.60464 0.0
C220 C 0.50414 0.44819 0.80665 0.0
C221 C 0.64228 0.42065 0.54492 0.0
H222 H 0.01746 0.51077 0.02137 0.0
H223 H 0.30043 0.57661 0.72085 0.0
H224 H 0.96854 0.51684 0.85755 0.0
H225 H 0.92188 0.4925 0.90289 0.0
H226 H 0.91397 0.37002 0.89719 0.0
H227 H 0.95875 0.39411 0.85112 0.0
H228 H 0.05517 0.555 0.89221 0.0
H229 H 0.04339 0.54931 0.94744 0.0
H230 H 0.02073 0.42051 0.94521 0.0
H231 H 0.03261 0.4267 0.89003 0.0
H232 H 0.15852 0.58699 0.85966 0.0
H233 H 0.22509 0.59824 0.88486 0.0
H234 H 0.17056 0.46072 0.88569 0.0
H235 H 0.10482 0.45002 0.85981 0.0
H236 H 0.14659 0.59947 0.78984 0.0
H237 H 0.21615 0.63112 0.76165 0.0
H238 H 0.20937 0.50907 0.76519 0.0
H239 H 0.13979 0.47787 0.79333 0.0
H240 H 0.06002 0.56667 0.7573 0.0
H241 H 0.09972 0.5954 0.70925 0.0
H242 H 0.11105 0.48341 0.69961 0.0
H243 H 0.07214 0.45548 0.74789 0.0
H244 H 0.9423 0.48892 0.79783 0.0
H245 H 0.87057 0.43586 0.7772 0.0
H246 H 0.92484 0.36103 0.74397 0.0
H247 H 0.99519 0.41236 0.76701 0.0
O248 O 0.02349 0.51292 0.99971 0.0
O249 O 0.01322 0.44726 0.99745 0.0
O250 O 0.28016 0.62927 0.73669 0.0
O251 O 0.2737 0.5653 0.73277 0.0
C252 C 0.01024 0.47808 0.8352 0.0
C253 C 0.04829 0.49373 0.85339 0.0
C254 C 0.0896 0.5107 0.83958 0.0
C255 C 0.09405 0.51637 0.80783 0.0
C256 C 0.05626 0.50133 0.78939 0.0
C257 C 0.01391 0.48008 0.80297 0.0
C258 C 0.96727 0.45734 0.85122 0.0
C259 C 0.95445 0.48385 0.86506 0.0
C260 C 0.92871 0.47021 0.89147 0.0
C261 C 0.91572 0.42997 0.90449 0.0
C262 C 0.92351 0.40131 0.88804 0.0
C263 C 0.94881 0.41484 0.86139 0.0
C264 C 0.04467 0.49127 0.8872 0.0
C265 C 0.04815 0.5258 0.90379 0.0
C266 C 0.04124 0.52238 0.93529 0.0
C267 C 0.03097 0.48439 0.95074 0.0
C268 C 0.02856 0.45021 0.93404 0.0
C269 C 0.03549 0.4537 0.90255 0.0
C270 C 0.12732 0.51781 0.85796 0.0
C271 C 0.16082 0.55942 0.86583 0.0
C272 C 0.19844 0.56563 0.88045 0.0
C273 C 0.20278 0.53023 0.88725 0.0
C274 C 0.16803 0.48847 0.8806 0.0
C275 C 0.1306 0.48234 0.86594 0.0
C276 C 0.13831 0.53647 0.79354 0.0
C277 C 0.1605 0.57983 0.78479 0.0
C278 C 0.20011 0.59774 0.76864 0.0
C279 C 0.21814 0.5725 0.76101 0.0
C280 C 0.19626 0.5293 0.77055 0.0
C281 C 0.15671 0.51148 0.78678 0.0
C282 C 0.06282 0.5088 0.75603 0.0
C283 C 0.06914 0.54735 0.74405 0.0
C284 C 0.09234 0.56397 0.71672 0.0
C285 C 0.10951 0.54218 0.70099 0.0
C286 C 0.09915 0.50146 0.71154 0.0
C287 C 0.07597 0.48491 0.7388 0.0
C288 C 0.97399 0.45447 0.78415 0.0
C289 C 0.9388 0.46139 0.78569 0.0
C290 C 0.89784 0.43108 0.77357 0.0
C291 C 0.89157 0.39364 0.7592 0.0
C292 C 0.92806 0.38886 0.75548 0.0
C293 C 0.96867 0.41868 0.76815 0.0
C294 C 0.02213 0.48029 0.98403 0.0
C295 C 0.25922 0.59089 0.74279 0.0
H296 H 0.45253 0.01503 0.80415 0.0
H297 H 0.48791 0.74543 0.07678 0.0
H298 H 0.50902 0.06795 0.96006 0.0
H299 H 0.53159 0.12095 0.91917 0.0
H300 H 0.65933 0.13346 0.91674 0.0
H301 H 0.63686 0.08188 0.95824 0.0
H302 H 0.45234 0.97137 0.9325 0.0
H303 H 0.43895 0.98365 0.87984 0.0
H304 H 0.57585 0.03323 0.85816 0.0
H305 H 0.58856 0.02015 0.91068 0.0
H306 H 0.43858 0.87354 0.96477 0.0
H307 H 0.42653 0.81014 0.93677 0.0
H308 H 0.55872 0.88414 0.90018 0.0
H309 H 0.57127 0.94613 0.92974 0.0
H310 H 0.44887 0.89882 0.03641 0.0
H311 H 0.42594 0.83138 0.06327 0.0
H312 H 0.53727 0.82998 0.02491 0.0
H313 H 0.5598 0.89747 0.99811 0.0
H314 H 0.5006 0.98856 0.06906 0.0
H315 H 0.50071 0.96431 0.12112 0.0
H316 H 0.60372 0.94052 0.09594 0.0
H317 H 0.60278 0.96413 0.04395 0.0
H318 H 0.5525 0.09001 0.02768 0.0
H319 H 0.60979 0.15758 0.05063 0.0
H320 H 0.69964 0.11121 0.04861 0.0
H321 H 0.64281 0.04467 0.02472 0.0
O322 O 0.45822 0.00929 0.82461 0.0
O323 O 0.52899 0.03483 0.81478 0.0
O324 O 0.43185 0.76605 0.07681 0.0
O325 O 0.49541 0.77123 0.06551 0.0
C326 C 0.55268 0.02817 0.97657 0.0
C327 C 0.52998 0.99108 0.95806 0.0
C328 C 0.51684 0.95034 0.97022 0.0
C329 C 0.52183 0.94587 0.00164 0.0
C330 C 0.54432 0.98286 0.02018 0.0
C331 C 0.56157 0.02411 0.00732 0.0
C332 C 0.57119 0.07086 0.96187 0.0
C333 C 0.5426 0.08388 0.9517 0.0
C334 C 0.55533 0.11357 0.92793 0.0
C335 C 0.59677 0.13045 0.91391 0.0
C336 C 0.62716 0.12126 0.92686 0.0
C337 C 0.6145 0.09186 0.95081 0.0
C338 C 0.52143 0.99514 0.92544 0.0
C339 C 0.47923 0.9844 0.91623 0.0
C340 C 0.47175 0.99166 0.88619 0.0
C341 C 0.5064 0.00969 0.86483 0.0
C342 C 0.54846 0.01943 0.87403 0.0
C343 C 0.55582 0.01201 0.90402 0.0
C344 C 0.50577 0.91426 0.94932 0.0
C345 C 0.46454 0.8761 0.95028 0.0
C346 C 0.45766 0.84012 0.93401 0.0
C347 C 0.49186 0.84214 0.91639 0.0
C348 C 0.532 0.88144 0.91386 0.0
C349 C 0.53903 0.91701 0.93046 0.0
C350 C 0.50579 0.9028 0.01522 0.0
C351 C 0.46789 0.88356 0.03352 0.0
C352 C 0.45496 0.84514 0.04889 0.0
C353 C 0.47995 0.82546 0.04635 0.0
C354 C 0.51747 0.84446 0.02748 0.0
C355 C 0.53023 0.88279 0.01198 0.0
C356 C 0.55147 0.9778 0.0528 0.0
C357 C 0.52403 0.97929 0.0751 0.0
C358 C 0.5242 0.96547 0.1048 0.0
C359 C 0.55184 0.94998 0.11251 0.0
C360 C 0.58155 0.9516 0.09056 0.0
C361 C 0.58133 0.96538 0.06095 0.0
C362 C 0.59359 0.06258 0.02465 0.0
C363 C 0.58435 0.09431 0.03268 0.0
C364 C 0.61697 0.13262 0.04601 0.0
C365 C 0.65919 0.13959 0.05142 0.0
C366 C 0.66753 0.10682 0.04453 0.0
C367 C 0.63505 0.06873 0.03112 0.0
C368 C 0.49872 0.01869 0.83321 0.0
C369 C 0.46742 0.78574 0.06376 0.0
H370 H 0.46922 0.46071 0.95131 0.0
H371 H 0.73603 0.43644 0.22844 0.0
H372 H 0.46899 0.51956 0.11381 0.0
H373 H 0.44676 0.5413 0.06801 0.0
H374 H 0.58062 0.64734 0.05593 0.0
H375 H 0.60191 0.62616 0.10231 0.0
H376 H 0.49034 0.45373 0.08295 0.0
H377 H 0.47059 0.44442 0.0289 0.0
H378 H 0.5926 0.56263 0.00821 0.0
H379 H 0.61195 0.5714 0.06229 0.0
H380 H 0.55769 0.4145 0.11588 0.0
H381 H 0.60392 0.38881 0.09484 0.0
H382 H 0.70082 0.51871 0.06753 0.0
H383 H 0.6555 0.54418 0.08953 0.0
H384 H 0.55072 0.42229 0.18147 0.0
H385 H 0.58767 0.38965 0.20673 0.0
H386 H 0.71398 0.50302 0.18604 0.0
H387 H 0.67658 0.53513 0.16086 0.0
H388 H 0.51962 0.4718 0.21436 0.0
H389 H 0.53871 0.45505 0.26362 0.0
H390 H 0.67066 0.56562 0.25458 0.0
H391 H 0.65133 0.58129 0.20482 0.0
H392 H 0.49335 0.54316 0.19169 0.0
H393 H 0.48992 0.60039 0.21877 0.0
H394 H 0.62422 0.69163 0.19189 0.0
H395 H 0.62698 0.63435 0.16463 0.0
O396 O 0.47822 0.46434 0.97243 0.0
O397 O 0.54233 0.5242 0.96279 0.0
O398 O 0.65556 0.38733 0.22289 0.0
O399 O 0.72048 0.4482 0.21831 0.0
C400 C 0.55375 0.54668 0.12712 0.0
C401 C 0.56285 0.51959 0.10954 0.0
C402 C 0.58242 0.49887 0.12328 0.0
C403 C 0.58875 0.50143 0.15503 0.0
C404 C 0.57769 0.52679 0.17285 0.0
C405 C 0.56241 0.5513 0.1587 0.0
C406 C 0.53711 0.57103 0.1111 0.0
C407 C 0.49283 0.54902 0.10231 0.0
C408 C 0.48048 0.56093 0.07571 0.0
C409 C 0.51236 0.5949 0.05763 0.0
C410 C 0.55527 0.6208 0.06914 0.0
C411 C 0.56749 0.60903 0.0959 0.0
C412 C 0.55246 0.51325 0.07648 0.0
C413 C 0.51287 0.47736 0.06664 0.0
C414 C 0.50166 0.4722 0.03578 0.0
C415 C 0.53 0.50281 0.01422 0.0
C416 C 0.57005 0.53843 0.02419 0.0
C417 C 0.58121 0.5435 0.05505 0.0
C418 C 0.60341 0.48111 0.1042 0.0
C419 C 0.58829 0.43704 0.10452 0.0
C420 C 0.61458 0.42248 0.09242 0.0
C421 C 0.65607 0.45198 0.07992 0.0
C422 C 0.66918 0.49548 0.07736 0.0
C423 C 0.64315 0.50997 0.0896 0.0
C424 C 0.61106 0.48096 0.1694 0.0
C425 C 0.58635 0.43985 0.18234 0.0
C426 C 0.60753 0.42136 0.19674 0.0
C427 C 0.65379 0.4438 0.19843 0.0
C428 C 0.67835 0.48494 0.18522 0.0
C429 C 0.65713 0.5033 0.17076 0.0
C430 C 0.58405 0.5278 0.20616 0.0
C431 C 0.55201 0.49351 0.2237 0.0
C432 C 0.56316 0.48379 0.25175 0.0
C433 C 0.60654 0.50841 0.26269 0.0
C434 C 0.63728 0.5454 0.2464 0.0
C435 C 0.62609 0.555 0.2183 0.0
C436 C 0.56025 0.58487 0.1761 0.0
C437 C 0.52199 0.57548 0.19188 0.0
C438 C 0.52031 0.60811 0.20751 0.0
C439 C 0.55688 0.65055 0.20749 0.0
C440 C 0.59544 0.6594 0.19211 0.0
C441 C 0.59709 0.6268 0.17658 0.0
C442 C 0.51745 0.49785 0.98158 0.0
C443 C 0.67648 0.42459 0.21396 0.0
Li444 Li 0.67377 0.46696 0.42868 0.0
Li445 Li 0.65968 0.39675 0.41046 0.0
Li446 Li 0.73177 0.46282 0.40297 0.0
Li447 Li 0.66639 0.45157 0.37475 0.0
C448 C 0.73354 0.43672 0.46027 0.0
N449 N 0.79919 0.44055 0.49608 0.0
C450 C 0.73362 0.39921 0.46689 0.0
C451 C 0.76662 0.47611 0.47204 0.0
C452 C 0.76715 0.40183 0.485 0.0
C453 C 0.7996 0.4774 0.49003 0.0
C454 C 0.58052 0.38925 0.41403 0.0
C455 C 0.51111 0.32645 0.4003 0.0
N456 N 0.49735 0.32254 0.42972 0.0
C457 C 0.56566 0.38472 0.44412 0.0
C458 C 0.55304 0.36001 0.39191 0.0
C459 C 0.52351 0.35075 0.4516 0.0
C460 C 0.62081 0.49636 0.45047 0.0
N461 N 0.65592 0.49303 0.4582 0.0
C462 C 0.65444 0.51569 0.50895 0.0
C463 C 0.67358 0.50328 0.48656 0.0
C464 C 0.61643 0.51683 0.50213 0.0
C465 C 0.6003 0.50808 0.47223 0.0
H466 H 0.60732 0.48769 0.42773 0.0
H467 H 0.7011 0.49979 0.49219 0.0
C468 C 0.64296 0.31296 0.40033 0.0
N469 N 0.634 0.33719 0.41912 0.0
C470 C 0.62905 0.27049 0.40799 0.0
C471 C 0.59654 0.27856 0.45402 0.0
C472 C 0.61143 0.32096 0.44561 0.0
C473 C 0.60574 0.25291 0.43525 0.0
H474 H 0.66212 0.32698 0.37986 0.0
H475 H 0.60639 0.34138 0.46076 0.0
C476 C 0.71987 0.54308 0.40415 0.0
N477 N 0.73114 0.6201 0.42425 0.0
C478 C 0.6913 0.55619 0.39441 0.0
C479 C 0.75444 0.56929 0.42383 0.0
C480 C 0.69747 0.5952 0.40491 0.0
C481 C 0.75952 0.60808 0.43381 0.0
C482 C 0.69467 0.40579 0.34362 0.0
C483 C 0.73377 0.42454 0.32676 0.0
C484 C 0.65507 0.37518 0.33001 0.0
C485 C 0.73257 0.41222 0.29646 0.0
C486 C 0.65523 0.36381 0.29963 0.0
N487 N 0.69368 0.38233 0.28366 0.0
C488 C 0.80359 0.45103 0.40164 0.0
C489 C 0.81988 0.5193 0.38398 0.0
C490 C 0.84481 0.4594 0.39215 0.0
N491 N 0.79191 0.48073 0.39729 0.0
C492 C 0.86123 0.52878 0.37369 0.0
C493 C 0.87395 0.49828 0.37719 0.0
H494 H 0.78007 0.41994 0.41115 0.0
H495 H 0.80912 0.54169 0.37981 0.0
C496 C 0.60648 0.4605 0.3393 0.0
N497 N 0.64654 0.46428 0.33868 0.0
C498 C 0.59271 0.4749 0.31475 0.0
C499 C 0.66154 0.49633 0.28928 0.0
C500 C 0.67414 0.48189 0.31445 0.0
C501 C 0.62054 0.49345 0.28939 0.0
H502 H 0.58581 0.44755 0.35931 0.0
H503 H 0.70631 0.48561 0.31495 0.0
O504 O 0.70093 0.43477 0.44265 0.0
O505 O 0.62169 0.42222 0.4062 0.0
O506 O 0.71371 0.50453 0.39473 0.0
O507 O 0.69531 0.41683 0.37346 0.0
H508 H 0.70821 0.36843 0.45802 0.0
H509 H 0.76694 0.50538 0.46722 0.0
H510 H 0.76773 0.37309 0.49022 0.0
H511 H 0.82552 0.50769 0.49919 0.0
H512 H 0.48951 0.30352 0.38342 0.0
H513 H 0.58664 0.40672 0.46164 0.0
H514 H 0.56398 0.36324 0.36849 0.0
H515 H 0.51168 0.34671 0.47482 0.0
H516 H 0.66756 0.52158 0.53186 0.0
H517 H 0.57116 0.50865 0.46607 0.0
H518 H 0.63679 0.25174 0.39291 0.0
H519 H 0.57947 0.26652 0.47555 0.0
H520 H 0.66436 0.53623 0.37919 0.0
H521 H 0.77705 0.55975 0.43133 0.0
H522 H 0.67543 0.60563 0.39774 0.0
H523 H 0.78601 0.62862 0.44916 0.0
H524 H 0.76471 0.44825 0.33697 0.0
H525 H 0.62459 0.36031 0.34283 0.0
H526 H 0.76257 0.42636 0.28314 0.0
H527 H 0.62484 0.34017 0.28876 0.0
H528 H 0.85316 0.43509 0.39578 0.0
H529 H 0.88198 0.55882 0.36177 0.0
H530 H 0.56105 0.4724 0.31593 0.0
H531 H 0.68369 0.50957 0.26996 0.0
Li532 Li 0.23944 0.62136 0.59286 0.0
Li533 Li 0.29657 0.61174 0.56885 0.0
Li534 Li 0.29981 0.68309 0.56432 0.0
Li535 Li 0.24156 0.61664 0.53692 0.0
C536 C 0.3156 0.66634 0.63022 0.0
N537 N 0.34197 0.69442 0.68914 0.0
C538 C 0.33168 0.64625 0.64858 0.0
C539 C 0.31288 0.70065 0.64176 0.0
C540 C 0.34495 0.66099 0.67831 0.0
C541 C 0.32623 0.71428 0.67167 0.0
C542 C 0.21984 0.53189 0.55838 0.0
C543 C 0.21978 0.48453 0.51993 0.0
N544 N 0.19796 0.45074 0.53943 0.0
C545 C 0.19721 0.49671 0.578 0.0
C546 C 0.23109 0.52581 0.52908 0.0
C547 C 0.18653 0.45593 0.56801 0.0
C548 C 0.16453 0.60618 0.62913 0.0
N549 N 0.20051 0.60228 0.62736 0.0
C550 C 0.17888 0.56036 0.6731 0.0
C551 C 0.20811 0.57999 0.64879 0.0
C552 C 0.14108 0.56327 0.67531 0.0
C553 C 0.13441 0.58707 0.65312 0.0
H554 H 0.15829 0.62301 0.61161 0.0
H555 H 0.23643 0.57659 0.64658 0.0
C556 C 0.3775 0.6157 0.5661 0.0
N557 N 0.33464 0.59009 0.57461 0.0
C558 C 0.4081 0.60375 0.57276 0.0
C559 C 0.34975 0.53909 0.59657 0.0
C560 C 0.32038 0.55244 0.58964 0.0
C561 C 0.3944 0.56506 0.58835 0.0
H562 H 0.38812 0.64595 0.55474 0.0
H563 H 0.28654 0.5334 0.59713 0.0
C564 C 0.20908 0.67493 0.56584 0.0
N565 N 0.15444 0.70687 0.57462 0.0
C566 C 0.16785 0.65514 0.55181 0.0
C567 C 0.22269 0.71117 0.58412 0.0
C568 C 0.14065 0.67172 0.55659 0.0
C569 C 0.19453 0.72677 0.58834 0.0
C570 C 0.326 0.65327 0.50441 0.0
C571 C 0.33882 0.69052 0.48747 0.0
C572 C 0.33441 0.62235 0.49306 0.0
C573 C 0.35947 0.69602 0.45928 0.0
C574 C 0.35497 0.62895 0.46471 0.0
N575 N 0.36703 0.66536 0.44857 0.0
C576 C 0.38068 0.76133 0.57178 0.0
C577 C 0.32704 0.76611 0.54309 0.0
C578 C 0.41196 0.80453 0.56579 0.0
N579 N 0.33936 0.74312 0.56021 0.0
C580 C 0.35722 0.80928 0.53647 0.0
C581 C 0.40053 0.82901 0.54761 0.0
H582 H 0.38961 0.74199 0.58503 0.0
H583 H 0.29421 0.75045 0.53364 0.0
C584 C 0.16526 0.56178 0.50186 0.0
N585 N 0.20498 0.59931 0.50166 0.0
C586 C 0.1362 0.5512 0.47744 0.0
C587 C 0.18932 0.61825 0.45326 0.0
C588 C 0.21727 0.62749 0.4781 0.0
C589 C 0.14794 0.5798 0.45278 0.0
H590 H 0.15564 0.54054 0.52134 0.0
H591 H 0.24839 0.65766 0.47889 0.0
O592 O 0.30421 0.65349 0.60069 0.0
O593 O 0.23083 0.57202 0.56796 0.0
O594 O 0.23621 0.65928 0.56128 0.0
O595 O 0.30724 0.64812 0.53258 0.0
H596 H 0.33424 0.6198 0.63987 0.0
H597 H 0.30098 0.71681 0.6277 0.0
H598 H 0.35772 0.64595 0.69275 0.0
H599 H 0.32434 0.74083 0.68093 0.0
H600 H 0.22826 0.47935 0.4973 0.0
H601 H 0.18825 0.50096 0.60076 0.0
H602 H 0.24797 0.55259 0.51351 0.0
H603 H 0.16917 0.42841 0.58298 0.0
H604 H 0.18586 0.54304 0.68999 0.0
H605 H 0.10563 0.58996 0.65383 0.0
H606 H 0.44213 0.62464 0.56592 0.0
H607 H 0.33791 0.50946 0.60917 0.0
H608 H 0.15685 0.62714 0.53752 0.0
H609 H 0.25468 0.72717 0.59483 0.0
H610 H 0.10859 0.65664 0.54598 0.0
H611 H 0.2046 0.75474 0.60247 0.0
H612 H 0.33292 0.71495 0.49599 0.0
H613 H 0.32568 0.59379 0.50613 0.0
H614 H 0.36961 0.72471 0.44597 0.0
H615 H 0.36164 0.60526 0.45564 0.0
H616 H 0.44477 0.81848 0.57509 0.0
H617 H 0.34708 0.82653 0.52188 0.0
H618 H 0.10454 0.52141 0.47815 0.0
H619 H 0.20015 0.64096 0.43457 0.0
Li620 Li 0.69751 0.2511 0.74906 0.0
Li621 Li 0.63771 0.20766 0.78432 0.0
Li622 Li 0.63135 0.1863 0.7282 0.0
Li623 Li 0.62794 0.24908 0.74591 0.0
C624 C 0.70238 0.17603 0.75969 0.0
N625 N 0.762 0.14906 0.75891 0.0
C626 C 0.71871 0.17019 0.78702 0.0
C627 C 0.71606 0.16778 0.732 0.0
C628 C 0.74892 0.15665 0.78614 0.0
C629 C 0.7463 0.15427 0.73207 0.0
C630 C 0.68226 0.289 0.80759 0.0
C631 C 0.66312 0.30778 0.85551 0.0
N632 N 0.70504 0.32399 0.86543 0.0
C633 C 0.72528 0.30617 0.81821 0.0
C634 C 0.65102 0.29013 0.82632 0.0
C635 C 0.73611 0.32362 0.84753 0.0
C636 C 0.77026 0.33215 0.73974 0.0
N637 N 0.75929 0.29106 0.74566 0.0
C638 C 0.83437 0.31473 0.75617 0.0
C639 C 0.79045 0.28176 0.75316 0.0
C640 C 0.84648 0.35778 0.75131 0.0
C641 C 0.81386 0.36605 0.74202 0.0
H642 H 0.74471 0.33892 0.73493 0.0
H643 H 0.78124 0.2493 0.75861 0.0
C644 C 0.58277 0.15531 0.83237 0.0
N645 N 0.62475 0.18611 0.82503 0.0
C646 C 0.57266 0.13781 0.86168 0.0
C647 C 0.64898 0.18471 0.87557 0.0
C648 C 0.65771 0.20076 0.84586 0.0
C649 C 0.60605 0.15233 0.88378 0.0
H650 H 0.55731 0.14352 0.81524 0.0
H651 H 0.69105 0.22433 0.83929 0.0
C652 C 0.68845 0.26689 0.68818 0.0
N653 N 0.74234 0.31174 0.63945 0.0
C654 C 0.69713 0.30804 0.68111 0.0
C655 C 0.70657 0.24826 0.67017 0.0
C656 C 0.72458 0.33025 0.65644 0.0
C657 C 0.73396 0.27156 0.64574 0.0
C658 C 0.54781 0.18639 0.75593 0.0
C659 C 0.52015 0.1709 0.73056 0.0
C660 C 0.53622 0.20237 0.78087 0.0
C661 C 0.48168 0.17236 0.73037 0.0
C662 C 0.49749 0.20328 0.77982 0.0
N663 N 0.47127 0.18845 0.75477 0.0
C664 C 0.60906 0.10672 0.69694 0.0
C665 C 0.59022 0.15393 0.67401 0.0
C666 C 0.59181 0.07867 0.67198 0.0
N667 N 0.60817 0.14365 0.69726 0.0
C668 C 0.57177 0.12653 0.64918 0.0
C669 C 0.57268 0.08852 0.64781 0.0
H670 H 0.62359 0.09933 0.71575 0.0
H671 H 0.59052 0.18378 0.67472 0.0
C672 C 0.60917 0.3156 0.75136 0.0
N673 N 0.60427 0.28251 0.73398 0.0
C674 C 0.59699 0.34362 0.73988 0.0
C675 C 0.5745 0.30246 0.69309 0.0
C676 C 0.58691 0.27517 0.70554 0.0
C677 C 0.58014 0.33765 0.71015 0.0
H678 H 0.62386 0.32107 0.77368 0.0
H679 H 0.58441 0.2491 0.69206 0.0
O680 O 0.67269 0.18913 0.76016 0.0
O681 O 0.67094 0.27161 0.77896 0.0
O682 O 0.66184 0.24475 0.71236 0.0
O683 O 0.58628 0.18642 0.75625 0.0
H684 H 0.70827 0.17613 0.80866 0.0
H685 H 0.70347 0.17172 0.71069 0.0
H686 H 0.76196 0.15216 0.8071 0.0
H687 H 0.75726 0.14788 0.71078 0.0
H688 H 0.63916 0.3086 0.87028 0.0
H689 H 0.74998 0.30557 0.80424 0.0
H690 H 0.61773 0.2774 0.81849 0.0
H691 H 0.76918 0.33673 0.85608 0.0
H692 H 0.85795 0.30661 0.76405 0.0
H693 H 0.82151 0.39852 0.73772 0.0
H694 H 0.53933 0.11199 0.86652 0.0
H695 H 0.6758 0.197 0.89173 0.0
H696 H 0.68321 0.32288 0.69473 0.0
H697 H 0.69945 0.21614 0.67489 0.0
H698 H 0.73181 0.36223 0.65083 0.0
H699 H 0.74834 0.25758 0.63168 0.0
H700 H 0.52829 0.15803 0.71118 0.0
H701 H 0.55696 0.21399 0.8008 0.0
H702 H 0.46012 0.16072 0.7108 0.0
H703 H 0.48827 0.21579 0.79891 0.0
H704 H 0.59344 0.04978 0.67149 0.0
H705 H 0.55814 0.13569 0.63074 0.0
H706 H 0.60137 0.37006 0.75391 0.0
H707 H 0.56233 0.29702 0.66993 0.0
Li708 Li 0.46239 0.61155 0.92722 0.0
Li709 Li 0.45999 0.66459 0.89512 0.0
Li710 Li 0.39378 0.59106 0.9033 0.0
Li711 Li 0.45334 0.60135 0.86995 0.0
C712 C 0.42634 0.64761 0.96251 0.0
N713 N 0.42812 0.66815 0.02336 0.0
C714 C 0.45244 0.69026 0.9722 0.0
C715 C 0.40063 0.61547 0.98373 0.0
C716 C 0.45297 0.69999 0.00303 0.0
C717 C 0.40218 0.62647 0.01442 0.0
C718 C 0.54564 0.67952 0.88544 0.0
C719 C 0.59593 0.72785 0.8472 0.0
N720 N 0.62854 0.74553 0.86835 0.0
C721 C 0.57981 0.6978 0.90671 0.0
C722 C 0.55387 0.69434 0.85537 0.0
C723 C 0.62143 0.73128 0.89766 0.0
C724 C 0.46827 0.56674 0.97725 0.0
N725 N 0.48511 0.60645 0.96486 0.0
C726 C 0.52078 0.63996 0.01166 0.0
C727 C 0.51156 0.64276 0.98114 0.0
C728 C 0.5026 0.59936 0.02544 0.0
C729 C 0.47665 0.56243 0.00761 0.0
H730 H 0.44717 0.53844 0.96385 0.0
H731 H 0.5236 0.67396 0.9709 0.0
C732 C 0.44235 0.7289 0.8872 0.0
N733 N 0.47594 0.72231 0.89274 0.0
C734 C 0.44769 0.76905 0.89265 0.0
C735 C 0.52277 0.79516 0.908 0.0
C736 C 0.51601 0.7546 0.90213 0.0
C737 C 0.48783 0.8023 0.9043 0.0
H738 H 0.41051 0.70217 0.88046 0.0
H739 H 0.54152 0.74812 0.9076 0.0
C740 C 0.39062 0.51562 0.9056 0.0
N741 N 0.32282 0.4307 0.90997 0.0
C742 C 0.38255 0.48703 0.8817 0.0
C743 C 0.36464 0.50084 0.93191 0.0
C744 C 0.34801 0.44427 0.8843 0.0
C745 C 0.3304 0.45785 0.93363 0.0
C746 C 0.40838 0.63595 0.8374 0.0
C747 C 0.36739 0.61063 0.82346 0.0
C748 C 0.44153 0.6723 0.82227 0.0
C749 C 0.36066 0.62145 0.79431 0.0
C750 C 0.4335 0.6821 0.79315 0.0
N751 N 0.39358 0.65663 0.77985 0.0
C752 C 0.31495 0.58171 0.92268 0.0
C753 C 0.30804 0.53038 0.88617 0.0
C754 C 0.27103 0.56918 0.91872 0.0
N755 N 0.33259 0.563 0.90585 0.0
C756 C 0.26403 0.5167 0.88161 0.0
C757 C 0.24563 0.53742 0.89712 0.0
H758 H 0.33572 0.60847 0.93746 0.0
H759 H 0.32349 0.51753 0.87212 0.0
C760 C 0.50243 0.59227 0.82145 0.0
N761 N 0.46214 0.5818 0.83208 0.0
C762 C 0.50704 0.58164 0.79164 0.0
C763 C 0.42852 0.54856 0.78475 0.0
C764 C 0.42543 0.55944 0.8147 0.0
C765 C 0.46983 0.56022 0.77266 0.0
H766 H 0.53103 0.60949 0.8359 0.0
H767 H 0.39369 0.55072 0.82402 0.0
O768 O 0.42583 0.63748 0.9324 0.0
O769 O 0.50467 0.6468 0.89402 0.0
O770 O 0.42432 0.55761 0.9034 0.0
O771 O 0.41547 0.62571 0.86599 0.0
H772 H 0.47237 0.71562 0.95618 0.0
H773 H 0.37985 0.58239 0.97663 0.0
H774 H 0.47322 0.73286 0.01072 0.0
H775 H 0.38273 0.60186 0.03111 0.0
H776 H 0.60268 0.73969 0.82401 0.0
H777 H 0.5743 0.6863 0.92995 0.0
H778 H 0.52825 0.67986 0.83843 0.0
H779 H 0.64809 0.74588 0.91393 0.0
H780 H 0.54081 0.66925 0.02451 0.0
H781 H 0.46287 0.53042 0.01699 0.0
H782 H 0.42008 0.77336 0.88932 0.0
H783 H 0.55394 0.81955 0.91761 0.0
H784 H 0.40283 0.49765 0.86142 0.0
H785 H 0.37063 0.52237 0.95071 0.0
H786 H 0.34129 0.42185 0.86592 0.0
H787 H 0.30984 0.44608 0.95378 0.0
H788 H 0.34112 0.58269 0.83488 0.0
H789 H 0.47291 0.69311 0.83303 0.0
H790 H 0.32923 0.60185 0.78324 0.0
H791 H 0.45894 0.71009 0.78118 0.0
H792 H 0.25783 0.5858 0.93105 0.0
H793 H 0.24578 0.49277 0.86425 0.0
H794 H 0.53936 0.59003 0.78358 0.0
H795 H 0.39896 0.53193 0.77108 0.0
Li796 Li 0.78763 0.39367 0.06564 0.0
Li797 Li 0.84748 0.39517 0.09395 0.0
Li798 Li 0.84316 0.38863 0.03578 0.0
Li799 Li 0.7942 0.32844 0.06902 0.0
C800 C 0.86156 0.47802 0.05698 0.0
N801 N 0.88072 0.56081 0.04591 0.0
C802 C 0.88209 0.50978 0.07933 0.0
C803 C 0.85149 0.48862 0.02882 0.0
C804 C 0.8913 0.55138 0.07336 0.0
C805 C 0.86125 0.53057 0.02369 0.0
C806 C 0.7743 0.35325 0.13187 0.0
C807 C 0.7743 0.3209 0.1798 0.0
N808 N 0.75674 0.34204 0.19366 0.0
C809 C 0.7559 0.37436 0.14652 0.0
C810 C 0.78316 0.32595 0.14855 0.0
C811 C 0.74736 0.36835 0.17778 0.0
C812 C 0.70688 0.38811 0.0549 0.0
N813 N 0.74791 0.41272 0.06682 0.0
C814 C 0.73082 0.46354 0.08582 0.0
C815 C 0.76017 0.44957 0.08226 0.0
C816 C 0.68821 0.43893 0.07377 0.0
C817 C 0.67618 0.40076 0.05811 0.0
H818 H 0.69769 0.35819 0.04358 0.0
H819 H 0.79214 0.46723 0.09285 0.0
C820 C 0.91204 0.41107 0.13954 0.0
N821 N 0.8804 0.41891 0.13046 0.0
C822 C 0.93203 0.42547 0.168 0.0
C823 C 0.88667 0.45584 0.17707 0.0
C824 C 0.86796 0.44128 0.14837 0.0
C825 C 0.91896 0.44772 0.18741 0.0
H826 H 0.9214 0.39326 0.12485 0.0
H827 H 0.84271 0.44707 0.14055 0.0
C828 C 0.75943 0.34443 0.00582 0.0
N829 N 0.72172 0.33 0.94866 0.0
C830 C 0.74178 0.30417 0.9919 0.0
C831 C 0.75709 0.37704 0.99084 0.0
C832 C 0.72309 0.29759 0.96295 0.0
C833 C 0.73811 0.36921 0.96192 0.0
C834 C 0.87122 0.32804 0.06668 0.0
C835 C 0.88632 0.31869 0.04007 0.0
C836 C 0.86825 0.30632 0.09366 0.0
C837 C 0.89723 0.28698 0.04074 0.0
C838 C 0.87945 0.27479 0.09341 0.0
N839 N 0.89353 0.26581 0.06717 0.0
C840 C 0.90124 0.44281 0.98879 0.0
C841 C 0.85446 0.36936 0.97587 0.0
C842 C 0.91616 0.4527 0.95872 0.0
N843 N 0.87031 0.40181 0.9966 0.0
C844 C 0.86809 0.37782 0.9455 0.0
C845 C 0.89905 0.42009 0.93643 0.0
H846 H 0.91389 0.46795 0.00579 0.0
H847 H 0.8306 0.33685 0.98283 0.0
C848 C 0.7213 0.25007 0.08676 0.0
N849 N 0.75921 0.26809 0.07026 0.0
C850 C 0.68886 0.20695 0.08243 0.0
C851 C 0.73616 0.20152 0.04533 0.0
C852 C 0.76755 0.24467 0.0503 0.0
C853 C 0.69563 0.18258 0.06076 0.0
H854 H 0.71501 0.26983 0.10178 0.0
H855 H 0.79687 0.26025 0.03636 0.0
O856 O 0.85207 0.43704 0.06259 0.0
O857 O 0.78308 0.35892 0.10128 0.0
O858 O 0.77826 0.35153 0.0341 0.0
O859 O 0.86047 0.35904 0.06641 0.0
H860 H 0.89084 0.50244 0.10108 0.0
H861 H 0.83678 0.4649 0.01097 0.0
H862 H 0.90694 0.57618 0.09053 0.0
H863 H 0.85351 0.53914 0.00201 0.0
H864 H 0.78122 0.30004 0.19302 0.0
H865 H 0.74845 0.3953 0.13392 0.0
H866 H 0.79656 0.30873 0.13747 0.0
H867 H 0.73321 0.38453 0.1894 0.0
H868 H 0.74079 0.49241 0.09895 0.0
H869 H 0.64339 0.38077 0.04886 0.0
H870 H 0.95764 0.41945 0.17462 0.0
H871 H 0.87537 0.47262 0.19118 0.0
H872 H 0.74283 0.27836 0.00318 0.0
H873 H 0.76923 0.4079 0.00156 0.0
H874 H 0.70967 0.2667 0.95184 0.0
H875 H 0.73624 0.39425 0.95008 0.0
H876 H 0.8895 0.33567 0.0191 0.0
H877 H 0.85758 0.31379 0.11458 0.0
H878 H 0.90869 0.27922 0.02027 0.0
H879 H 0.87707 0.25756 0.1141 0.0
H880 H 0.94123 0.48554 0.95315 0.0
H881 H 0.85402 0.35157 0.9293 0.0
H882 H 0.65806 0.19343 0.09482 0.0
H883 H 0.7423 0.18418 0.02789 0.0
Li884 Li 0.49791 0.82527 0.28438 0.0
Li885 Li 0.44091 0.77559 0.24894 0.0
Li886 Li 0.51331 0.78248 0.25125 0.0
Li887 Li 0.50645 0.84066 0.22887 0.0
C888 C 0.45699 0.74868 0.31239 0.0
N889 N 0.43583 0.72475 0.37268 0.0
C890 C 0.41357 0.73064 0.32252 0.0
C891 C 0.48954 0.7541 0.33282 0.0
C892 C 0.40357 0.7188 0.3531 0.0
C893 C 0.47822 0.742 0.36325 0.0
C894 C 0.45391 0.86948 0.25313 0.0
C895 C 0.41954 0.90268 0.22706 0.0
N896 N 0.44242 0.93824 0.24483 0.0
C897 C 0.47705 0.90634 0.27118 0.0
C898 C 0.4248 0.86753 0.23097 0.0
C899 C 0.47076 0.94076 0.26663 0.0
C900 C 0.54356 0.87857 0.33563 0.0
N901 N 0.5036 0.84989 0.32367 0.0
C902 C 0.46683 0.85958 0.36577 0.0
C903 C 0.46563 0.84005 0.33813 0.0
C904 C 0.50754 0.89045 0.37838 0.0
C905 C 0.54632 0.89944 0.36306 0.0
H906 H 0.57322 0.88633 0.32335 0.0
H907 H 0.43429 0.81774 0.32775 0.0
C908 C 0.36657 0.69482 0.23618 0.0
N909 N 0.38041 0.73608 0.24402 0.0
C910 C 0.32174 0.66373 0.23592 0.0
C911 C 0.30653 0.71842 0.25171 0.0
C912 C 0.35158 0.74848 0.25137 0.0
C913 C 0.2911 0.6752 0.2444 0.0
H914 H 0.39044 0.68576 0.23121 0.0
H915 H 0.36371 0.78127 0.25834 0.0
C916 C 0.59189 0.85067 0.25621 0.0
N917 N 0.67236 0.85696 0.2505 0.0
C918 C 0.61717 0.86831 0.22985 0.0
C919 C 0.60772 0.83672 0.27982 0.0
C920 C 0.65773 0.8711 0.22736 0.0
C921 C 0.64843 0.84002 0.27645 0.0
C922 C 0.45458 0.75946 0.19069 0.0
C923 C 0.45102 0.72115 0.1811 0.0
C924 C 0.43162 0.77527 0.17526 0.0
C925 C 0.42428 0.69914 0.1562 0.0
C926 C 0.40517 0.75229 0.1505 0.0
N927 N 0.40207 0.71501 0.14156 0.0
C928 C 0.5242 0.71182 0.2601 0.0
C929 C 0.56053 0.75543 0.21697 0.0
C930 C 0.53195 0.68012 0.24952 0.0
N931 N 0.53778 0.74811 0.24344 0.0
C932 C 0.56924 0.7248 0.20567 0.0
C933 C 0.55369 0.68595 0.22153 0.0
H934 H 0.50493 0.70625 0.28056 0.0
H935 H 0.56908 0.78363 0.20351 0.0
C936 C 0.52941 0.91919 0.19603 0.0
N937 N 0.52621 0.88027 0.19552 0.0
C938 C 0.53906 0.94343 0.16929 0.0
C939 C 0.54477 0.88844 0.1426 0.0
C940 C 0.53489 0.86533 0.1697 0.0
C941 C 0.54615 0.92769 0.14199 0.0
H942 H 0.52372 0.93117 0.21692 0.0
H943 H 0.53303 0.83473 0.16997 0.0
O944 O 0.4675 0.76065 0.28257 0.0
O945 O 0.45926 0.83526 0.25738 0.0
O946 O 0.55183 0.84709 0.2589 0.0
O947 O 0.48048 0.78138 0.21508 0.0
H948 H 0.38791 0.72602 0.30699 0.0
H949 H 0.5232 0.76768 0.32528 0.0
H950 H 0.37016 0.70488 0.36126 0.0
H951 H 0.50314 0.74626 0.37936 0.0
H952 H 0.39724 0.90167 0.20992 0.0
H953 H 0.49994 0.90862 0.28829 0.0
H954 H 0.40652 0.8392 0.21689 0.0
H955 H 0.48855 0.96953 0.28035 0.0
H956 H 0.43607 0.85108 0.37681 0.0
H957 H 0.57848 0.92359 0.37146 0.0
H958 H 0.31132 0.63087 0.23004 0.0
H959 H 0.2843 0.72857 0.25919 0.0
H960 H 0.6055 0.8795 0.21145 0.0
H961 H 0.58869 0.82333 0.30046 0.0
H962 H 0.67755 0.88445 0.20701 0.0
H963 H 0.661 0.82912 0.29446 0.0
H964 H 0.46851 0.70842 0.19286 0.0
H965 H 0.43418 0.80495 0.18238 0.0
H966 H 0.42112 0.6694 0.14854 0.0
H967 H 0.38716 0.76411 0.13835 0.0
H968 H 0.51963 0.65071 0.26249 0.0
H969 H 0.58537 0.73027 0.18374 0.0
H970 H 0.54041 0.97384 0.16986 0.0
H971 H 0.5495 0.87478 0.12206 0.0
loop_
_geom_bond_atom_site_label_1
_geom_bond_atom_site_label_2
_geom_bond_distance
_geom_bond_site_symmetry_2
_ccdc_geom_bond_type
H0 O26 0.856 . S
H1 O29 0.854 . S
H2 C37 0.930 . S
H3 C38 0.930 . S
H4 C40 0.930 . S
H5 C41 0.930 . S
H6 C43 0.931 . S
H7 C44 0.930 . S
H8 C46 0.930 . S
H9 C47 0.929 . S
H10 C49 0.930 . S
H11 C50 0.931 . S
H12 C52 0.930 . S
H13 C53 0.929 . S
H14 C55 0.931 . S
H15 C56 0.930 . S
H16 C58 0.930 . S
H17 C59 0.932 . S
H18 C61 0.930 . S
H19 C62 0.929 . S
H20 C64 0.931 . S
H21 C65 0.930 . S
H22 C67 0.929 . S
H23 C68 0.931 . S
H24 C70 0.930 . S
H25 C71 0.929 1_455 S
O26 H0 0.856 . S
O26 C72 1.300 . S
O27 C72 1.209 . S
O28 C73 1.199 . S
O29 H1 0.854 . S
O29 C73 1.297 . S
C30 C31 1.404 . S
C30 C35 1.397 . S
C30 C36 1.492 . S
C31 C30 1.404 . S
C31 C32 1.396 . S
C31 C42 1.492 . S
C32 C31 1.396 . S
C32 C33 1.397 . S
C32 C48 1.509 . S
C33 C32 1.397 . S
C33 C34 1.412 . S
C33 C54 1.485 . S
C34 C33 1.412 . S
C34 C35 1.388 . S
C34 C60 1.490 . S
C35 C30 1.397 . S
C35 C34 1.388 . S
C35 C66 1.519 . S
C36 C30 1.492 . S
C36 C37 1.363 . S
C36 C41 1.390 1_455 S
C37 H2 0.930 . S
C37 C36 1.363 . S
C37 C38 1.372 1_455 S
C38 H3 0.930 . S
C38 C37 1.372 1_655 S
C38 C39 1.383 . S
C39 C38 1.383 . S
C39 C40 1.395 . S
C40 H4 0.930 . S
C40 C39 1.395 . S
C40 C41 1.362 . S
C41 H5 0.930 . S
C41 C36 1.390 1_655 S
C41 C40 1.362 . S
C42 C31 1.492 . S
C42 C43 1.377 . S
C42 C47 1.397 . S
C43 H6 0.931 . S
C43 C42 1.377 . S
C43 C44 1.376 . S
C44 H7 0.930 . S
C44 C43 1.376 . S
C44 C45 1.376 . S
C45 C44 1.376 . S
C45 C46 1.378 . S
C45 C72 1.486 . S
C46 H8 0.930 . S
C46 C45 1.378 . S
C46 C47 1.376 . S
C47 H9 0.929 . S
C47 C42 1.397 . S
C47 C46 1.376 . S
C48 C32 1.509 . S
C48 C49 1.391 . S
C48 C53 1.386 . S
C49 H10 0.930 . S
C49 C48 1.391 . S
C49 C50 1.375 . S
C50 H11 0.931 . S
C50 C49 1.375 . S
C50 C51 1.375 . S
C51 C50 1.375 . S
C51 C52 1.361 . S
C52 H12 0.930 . S
C52 C51 1.361 . S
C52 C53 1.399 . S
C53 H13 0.929 . S
C53 C48 1.386 . S
C53 C52 1.399 . S
C54 C33 1.485 . S
C54 C55 1.394 . S
C54 C59 1.360 . S
C55 H14 0.931 . S
C55 C54 1.394 . S
C55 C56 1.372 . S
C56 H15 0.930 . S
C56 C55 1.372 . S
C56 C57 1.397 . S
C57 C56 1.397 . S
C57 C58 1.390 . S
C57 C73 1.476 . S
C58 H16 0.930 . S
C58 C57 1.390 . S
C58 C59 1.366 . S
C59 H17 0.932 . S
C59 C54 1.360 . S
C59 C58 1.366 . S
C60 C34 1.490 . S
C60 C61 1.380 . S
C60 C65 1.386 . S
C61 H18 0.930 . S
C61 C60 1.380 . S
C61 C62 1.381 . S
C62 H19 0.929 . S
C62 C61 1.381 . S
C62 C63 1.371 . S
C63 C62 1.371 . S
C63 C64 1.380 . S
C64 H20 0.931 . S
C64 C63 1.380 . S
C64 C65 1.387 . S
C65 H21 0.930 . S
C65 C60 1.386 . S
C65 C64 1.387 . S
C66 C35 1.519 . S
C66 C67 1.377 1_455 S
C66 C71 1.361 1_455 S
C67 H22 0.929 . S
C67 C66 1.377 1_655 S
C67 C68 1.386 . S
C68 H23 0.931 . S
C68 C67 1.386 . S
C68 C69 1.363 . S
C69 C68 1.363 . S
C69 C70 1.385 . S
C70 H24 0.930 . S
C70 C69 1.385 . S
C70 C71 1.396 . S
C71 H25 0.929 1_655 S
C71 C66 1.361 1_655 S
C71 C70 1.396 . S
C72 O26 1.300 . S
C72 O27 1.209 . S
C72 C45 1.486 . S
C73 O28 1.199 . S
C73 O29 1.297 . S
C73 C57 1.476 . S
H74 O100 0.856 . S
H75 O103 0.854 . S
H76 C111 0.930 1_545 S
H77 C112 0.930 . S
H78 C114 0.930 . S
H79 C115 0.930 . S
H80 C117 0.931 . S
H81 C118 0.930 . S
H82 C120 0.930 . S
H83 C121 0.929 . S
H84 C123 0.930 . S
H85 C124 0.931 . S
H86 C126 0.930 . S
H87 C127 0.929 . S
H88 C129 0.931 . S
H89 C130 0.930 . S
H90 C132 0.930 . S
H91 C133 0.932 . S
H92 C135 0.930 . S
H93 C136 0.929 . S
H94 C138 0.931 . S
H95 C139 0.930 . S
H96 C141 0.929 . S
H97 C142 0.931 . S
H98 C144 0.930 . S
H99 C145 0.929 . S
O100 H74 0.856 . S
O100 C146 1.300 . S
O101 C146 1.209 . S
O102 C147 1.199 . S
O103 H75 0.854 . S
O103 C147 1.297 . S
C104 C105 1.404 . S
C104 C109 1.397 . S
C104 C110 1.486 1_545 S
C105 C104 1.404 . S
C105 C106 1.396 . S
C105 C116 1.492 . S
C106 C105 1.396 . S
C106 C107 1.397 . S
C106 C122 1.509 . S
C107 C106 1.397 . S
C107 C108 1.412 . S
C107 C128 1.485 . S
C108 C107 1.412 . S
C108 C109 1.388 . S
C108 C134 1.490 . S
C109 C104 1.397 . S
C109 C108 1.388 . S
C109 C140 1.519 1_545 S
C110 C104 1.486 1_565 S
C110 C111 1.367 . S
C110 C115 1.392 . S
C111 H76 0.930 1_565 S
C111 C110 1.367 . S
C111 C112 1.372 . S
C112 H77 0.930 . S
C112 C111 1.372 . S
C112 C113 1.383 . S
C113 C112 1.383 . S
C113 C114 1.395 . S
C114 H78 0.930 . S
C114 C113 1.395 . S
C114 C115 1.362 . S
C115 H79 0.930 . S
C115 C110 1.392 . S
C115 C114 1.362 . S
C116 C105 1.492 . S
C116 C117 1.377 . S
C116 C121 1.397 . S
C117 H80 0.931 . S
C117 C116 1.377 . S
C117 C118 1.376 . S
C118 H81 0.930 . S
C118 C117 1.376 . S
C118 C119 1.376 . S
C119 C118 1.376 . S
C119 C120 1.378 . S
C119 C146 1.486 . S
C120 H82 0.930 . S
C120 C119 1.378 . S
C120 C121 1.376 . S
C121 H83 0.929 . S
C121 C116 1.397 . S
C121 C120 1.376 . S
C122 C106 1.509 . S
C122 C123 1.391 . S
C122 C127 1.386 . S
C123 H84 0.930 . S
C123 C122 1.391 . S
C123 C124 1.375 . S
C124 H85 0.931 . S
C124 C123 1.375 . S
C124 C125 1.375 . S
C125 C124 1.375 . S
C125 C126 1.361 . S
C126 H86 0.930 . S
C126 C125 1.361 . S
C126 C127 1.399 . S
C127 H87 0.929 . S
C127 C122 1.386 . S
C127 C126 1.399 . S
C128 C107 1.485 . S
C128 C129 1.394 . S
C128 C133 1.360 . S
C129 H88 0.931 . S
C129 C128 1.394 . S
C129 C130 1.372 . S
C130 H89 0.930 . S
C130 C129 1.372 . S
C130 C131 1.397 . S
C131 C130 1.397 . S
C131 C132 1.390 . S
C131 C147 1.476 . S
C132 H90 0.930 . S
C132 C131 1.390 . S
C132 C133 1.366 . S
C133 H91 0.932 . S
C133 C128 1.360 . S
C133 C132 1.366 . S
C134 C108 1.490 . S
C134 C135 1.380 . S
C134 C139 1.386 . S
C135 H92 0.930 . S
C135 C134 1.380 . S
C135 C136 1.381 . S
C136 H93 0.929 . S
C136 C135 1.381 . S
C136 C137 1.371 . S
C137 C136 1.371 . S
C137 C138 1.380 . S
C138 H94 0.931 . S
C138 C137 1.380 . S
C138 C139 1.387 . S
C139 H95 0.930 . S
C139 C134 1.386 . S
C139 C138 1.387 . S
C140 C109 1.519 1_565 S
C140 C141 1.377 . S
C140 C145 1.361 . S
C141 H96 0.929 . S
C141 C140 1.377 . S
C141 C142 1.386 . S
C142 H97 0.931 . S
C142 C141 1.386 . S
C142 C143 1.363 . S
C143 C142 1.363 . S
C143 C144 1.385 . S
C144 H98 0.930 . S
C144 C143 1.385 . S
C144 C145 1.396 . S
C145 H99 0.929 . S
C145 C140 1.361 . S
C145 C144 1.396 . S
C146 O100 1.300 . S
C146 O101 1.209 . S
C146 C119 1.486 . S
C147 O102 1.199 . S
C147 O103 1.297 . S
C147 C131 1.476 . S
H148 O174 0.856 . S
H149 O177 0.854 . S
H150 C185 0.930 . S
H151 C186 0.930 . S
H152 C188 0.930 . S
H153 C189 0.930 . S
H154 C191 0.931 . S
H155 C192 0.930 . S
H156 C194 0.930 . S
H157 C195 0.929 . S
H158 C197 0.930 . S
H159 C198 0.931 . S
H160 C200 0.930 . S
H161 C201 0.929 . S
H162 C203 0.931 . S
H163 C204 0.930 . S
H164 C206 0.930 . S
H165 C207 0.932 . S
H166 C209 0.930 . S
H167 C210 0.929 . S
H168 C212 0.931 . S
H169 C213 0.930 . S
H170 C215 0.929 . S
H171 C216 0.931 . S
H172 C218 0.930 . S
H173 C219 0.929 . S
O174 H148 0.856 . S
O174 C220 1.300 . S
O175 C220 1.209 . S
O176 C221 1.199 . S
O177 H149 0.854 . S
O177 C221 1.297 . S
C178 C179 1.404 . S
C178 C183 1.397 . S
C178 C184 1.492 . S
C179 C178 1.404 . S
C179 C180 1.396 . S
C179 C190 1.492 . S
C180 C179 1.396 . S
C180 C181 1.397 . S
C180 C196 1.509 . S
C181 C180 1.397 . S
C181 C182 1.412 . S
C181 C202 1.485 . S
C182 C181 1.412 . S
C182 C183 1.388 . S
C182 C208 1.490 . S
C183 C178 1.397 . S
C183 C182 1.388 . S
C183 C214 1.519 . S
C184 C178 1.492 . S
C184 C185 1.363 . S
C184 C189 1.390 . S
C185 H150 0.930 . S
C185 C184 1.363 . S
C185 C186 1.372 . S
C186 H151 0.930 . S
C186 C185 1.372 . S
C186 C187 1.383 . S
C187 C186 1.383 . S
C187 C188 1.395 . S
C188 H152 0.930 . S
C188 C187 1.395 . S
C188 C189 1.362 . S
C189 H153 0.930 . S
C189 C184 1.390 . S
C189 C188 1.362 . S
C190 C179 1.492 . S
C190 C191 1.377 . S
C190 C195 1.397 . S
C191 H154 0.931 . S
C191 C190 1.377 . S
C191 C192 1.376 . S
C192 H155 0.930 . S
C192 C191 1.376 . S
C192 C193 1.376 . S
C193 C192 1.376 . S
C193 C194 1.378 . S
C193 C220 1.486 . S
C194 H156 0.930 . S
C194 C193 1.378 . S
C194 C195 1.376 . S
C195 H157 0.929 . S
C195 C190 1.397 . S
C195 C194 1.376 . S
C196 C180 1.509 . S
C196 C197 1.391 . S
C196 C201 1.386 . S
C197 H158 0.930 . S
C197 C196 1.391 . S
C197 C198 1.375 . S
C198 H159 0.931 . S
C198 C197 1.375 . S
C198 C199 1.375 . S
C199 C198 1.375 . S
C199 C200 1.361 . S
C200 H160 0.930 . S
C200 C199 1.361 . S
C200 C201 1.399 . S
C201 H161 0.929 . S
C201 C196 1.386 . S
C201 C200 1.399 . S
C202 C181 1.485 . S
C202 C203 1.394 . S
C202 C207 1.360 . S
C203 H162 0.931 . S
C203 C202 1.394 . S
C203 C204 1.372 . S
C204 H163 0.930 . S
C204 C203 1.372 . S
C204 C205 1.397 . S
C205 C204 1.397 . S
C205 C206 1.390 . S
C205 C221 1.476 . S
C206 H164 0.930 . S
C206 C205 1.390 . S
C206 C207 1.366 . S
C207 H165 0.932 . S
C207 C202 1.360 . S
C207 C206 1.366 . S
C208 C182 1.490 . S
C208 C209 1.380 . S
C208 C213 1.386 . S
C209 H166 0.930 . S
C209 C208 1.380 . S
C209 C210 1.381 . S
C210 H167 0.929 . S
C210 C209 1.381 . S
C210 C211 1.371 . S
C211 C210 1.371 . S
C211 C212 1.380 . S
C212 H168 0.931 . S
C212 C211 1.380 . S
C212 C213 1.387 . S
C213 H169 0.930 . S
C213 C208 1.386 . S
C213 C212 1.387 . S
C214 C183 1.519 . S
C214 C215 1.377 . S
C214 C219 1.361 . S
C215 H170 0.929 . S
C215 C214 1.377 . S
C215 C216 1.386 . S
C216 H171 0.931 . S
C216 C215 1.386 . S
C216 C217 1.363 . S
C217 C216 1.363 . S
C217 C218 1.385 . S
C218 H172 0.930 . S
C218 C217 1.385 . S
C218 C219 1.396 . S
C219 H173 0.929 . S
C219 C214 1.361 . S
C219 C218 1.396 . S
C220 O174 1.300 . S
C220 O175 1.209 . S
C220 C193 1.486 . S
C221 O176 1.199 . S
C221 O177 1.297 . S
C221 C205 1.476 . S
H222 O248 0.856 . S
H223 O251 0.854 . S
H224 C259 0.930 1_455 S
H225 C260 0.930 . S
H226 C262 0.930 . S
H227 C263 0.930 . S
H228 C265 0.931 . S
H229 C266 0.930 . S
H230 C268 0.930 . S
H231 C269 0.929 . S
H232 C271 0.930 . S
H233 C272 0.931 . S
H234 C274 0.930 . S
H235 C275 0.929 . S
H236 C277 0.931 . S
H237 C278 0.930 . S
H238 C280 0.930 . S
H239 C281 0.932 . S
H240 C283 0.930 . S
H241 C284 0.929 . S
H242 C286 0.931 . S
H243 C287 0.930 . S
H244 C289 0.929 . S
H245 C290 0.931 . S
H246 C292 0.930 . S
H247 C293 0.929 . S
O248 H222 0.856 . S
O248 C294 1.300 1_554 S
O249 C294 1.209 1_554 S
O250 C295 1.199 . S
O251 H223 0.854 . S
O251 C295 1.297 . S
C252 C253 1.404 . S
C252 C257 1.397 . S
C252 C258 1.492 1_455 S
C253 C252 1.404 . S
C253 C254 1.396 . S
C253 C264 1.492 . S
C254 C253 1.396 . S
C254 C255 1.397 . S
C254 C270 1.509 . S
C255 C254 1.397 . S
C255 C256 1.412 . S
C255 C276 1.485 . S
C256 C255 1.412 . S
C256 C257 1.388 . S
C256 C282 1.490 . S
C257 C252 1.397 . S
C257 C256 1.388 . S
C257 C288 1.519 1_455 S
C258 C252 1.492 1_655 S
C258 C259 1.363 . S
C258 C263 1.390 . S
C259 H224 0.930 1_655 S
C259 C258 1.363 . S
C259 C260 1.372 . S
C260 H225 0.930 . S
C260 C259 1.372 . S
C260 C261 1.383 . S
C261 C260 1.383 . S
C261 C262 1.395 . S
C262 H226 0.930 . S
C262 C261 1.395 . S
C262 C263 1.362 . S
C263 H227 0.930 . S
C263 C258 1.390 . S
C263 C262 1.362 . S
C264 C253 1.492 . S
C264 C265 1.377 . S
C264 C269 1.397 . S
C265 H228 0.931 . S
C265 C264 1.377 . S
C265 C266 1.376 . S
C266 H229 0.930 . S
C266 C265 1.376 . S
C266 C267 1.376 . S
C267 C266 1.376 . S
C267 C268 1.378 . S
C267 C294 1.486 . S
C268 H230 0.930 . S
C268 C267 1.378 . S
C268 C269 1.376 . S
C269 H231 0.929 . S
C269 C264 1.397 . S
C269 C268 1.376 . S
C270 C254 1.509 . S
C270 C271 1.391 . S
C270 C275 1.386 . S
C271 H232 0.930 . S
C271 C270 1.391 . S
C271 C272 1.375 . S
C272 H233 0.931 . S
C272 C271 1.375 . S
C272 C273 1.375 . S
C273 C272 1.375 . S
C273 C274 1.361 . S
C274 H234 0.930 . S
C274 C273 1.361 . S
C274 C275 1.399 . S
C275 H235 0.929 . S
C275 C270 1.386 . S
C275 C274 1.399 . S
C276 C255 1.485 . S
C276 C277 1.394 . S
C276 C281 1.360 . S
C277 H236 0.931 . S
C277 C276 1.394 . S
C277 C278 1.372 . S
C278 H237 0.930 . S
C278 C277 1.372 . S
C278 C279 1.397 . S
C279 C278 1.397 . S
C279 C280 1.390 . S
C279 C295 1.476 . S
C280 H238 0.930 . S
C280 C279 1.390 . S
C280 C281 1.366 . S
C281 H239 0.932 . S
C281 C276 1.360 . S
C281 C280 1.366 . S
C282 C256 1.490 . S
C282 C283 1.380 . S
C282 C287 1.386 . S
C283 H240 0.930 . S
C283 C282 1.380 . S
C283 C284 1.381 . S
C284 H241 0.929 . S
C284 C283 1.381 . S
C284 C285 1.371 . S
C285 C284 1.371 . S
C285 C286 1.380 . S
C286 H242 0.931 . S
C286 C285 1.380 . S
C286 C287 1.387 . S
C287 H243 0.930 . S
C287 C282 1.386 . S
C287 C286 1.387 . S
C288 C257 1.519 1_655 S
C288 C289 1.377 . S
C288 C293 1.361 . S
C289 H244 0.929 . S
C289 C288 1.377 . S
C289 C290 1.386 . S
C290 H245 0.931 . S
C290 C289 1.386 . S
C290 C291 1.363 . S
C291 C290 1.363 . S
C291 C292 1.385 . S
C292 H246 0.930 . S
C292 C291 1.385 . S
C292 C293 1.396 . S
C293 H247 0.929 . S
C293 C288 1.361 . S
C293 C292 1.396 . S
C294 O248 1.300 1_556 S
C294 O249 1.209 1_556 S
C294 C267 1.486 . S
C295 O250 1.199 . S
C295 O251 1.297 . S
C295 C279 1.476 . S
H296 O322 0.856 . S
H297 O325 0.854 . S
H298 C333 0.930 . S
H299 C334 0.930 . S
H300 C336 0.930 . S
H301 C337 0.930 . S
H302 C339 0.931 . S
H303 C340 0.930 . S
H304 C342 0.930 . S
H305 C343 0.929 . S
H306 C345 0.930 . S
H307 C346 0.931 . S
H308 C348 0.930 . S
H309 C349 0.929 . S
H310 C351 0.931 . S
H311 C352 0.930 . S
H312 C354 0.930 . S
H313 C355 0.932 . S
H314 C357 0.930 . S
H315 C358 0.929 1_545 S
H316 C360 0.931 . S
H317 C361 0.930 . S
H318 C363 0.929 1_556 S
H319 C364 0.931 . S
H320 C366 0.930 . S
H321 C367 0.929 . S
O322 H296 0.856 . S
O322 C368 1.300 . S
O323 C368 1.209 . S
O324 C369 1.199 . S
O325 H297 0.854 . S
O325 C369 1.297 . S
C326 C327 1.404 1_545 S
C326 C331 1.397 . S
C326 C332 1.492 . S
C327 C326 1.404 1_565 S
C327 C328 1.396 . S
C327 C338 1.492 . S
C328 C327 1.396 . S
C328 C329 1.397 . S
C328 C344 1.509 . S
C329 C328 1.397 . S
C329 C330 1.412 1_556 S
C329 C350 1.485 1_556 S
C330 C329 1.412 1_554 S
C330 C331 1.388 1_564 S
C330 C356 1.490 . S
C331 C326 1.397 . S
C331 C330 1.388 1_546 S
C331 C362 1.519 1_556 S
C332 C326 1.492 . S
C332 C333 1.363 . S
C332 C337 1.390 . S
C333 H298 0.930 . S
C333 C332 1.363 . S
C333 C334 1.372 . S
C334 H299 0.930 . S
C334 C333 1.372 . S
C334 C335 1.383 . S
C335 C334 1.383 . S
C335 C336 1.395 . S
C336 H300 0.930 . S
C336 C335 1.395 . S
C336 C337 1.362 . S
C337 H301 0.930 . S
C337 C332 1.390 . S
C337 C336 1.362 . S
C338 C327 1.492 . S
C338 C339 1.377 . S
C338 C343 1.397 . S
C339 H302 0.931 . S
C339 C338 1.377 . S
C339 C340 1.376 . S
C340 H303 0.930 . S
C340 C339 1.376 . S
C340 C341 1.376 . S
C341 C340 1.376 . S
C341 C342 1.378 . S
C341 C368 1.486 . S
C342 H304 0.930 . S
C342 C341 1.378 . S
C342 C343 1.376 . S
C343 H305 0.929 . S
C343 C338 1.397 . S
C343 C342 1.376 . S
C344 C328 1.509 . S
C344 C345 1.391 . S
C344 C349 1.386 . S
C345 H306 0.930 . S
C345 C344 1.391 . S
C345 C346 1.375 . S
C346 H307 0.931 . S
C346 C345 1.375 . S
C346 C347 1.375 . S
C347 C346 1.375 . S
C347 C348 1.361 . S
C348 H308 0.930 . S
C348 C347 1.361 . S
C348 C349 1.399 . S
C349 H309 0.929 . S
C349 C344 1.386 . S
C349 C348 1.399 . S
C350 C329 1.485 1_554 S
C350 C351 1.394 . S
C350 C355 1.360 . S
C351 H310 0.931 . S
C351 C350 1.394 . S
C351 C352 1.372 . S
C352 H311 0.930 . S
C352 C351 1.372 . S
C352 C353 1.397 . S
C353 C352 1.397 . S
C353 C354 1.390 . S
C353 C369 1.476 . S
C354 H312 0.930 . S
C354 C353 1.390 . S
C354 C355 1.366 . S
C355 H313 0.932 . S
C355 C350 1.360 . S
C355 C354 1.366 . S
C356 C330 1.490 . S
C356 C357 1.380 . S
C356 C361 1.386 . S
C357 H314 0.930 . S
C357 C356 1.380 . S
C357 C358 1.381 . S
C358 H315 0.929 1_565 S
C358 C357 1.381 . S
C358 C359 1.371 . S
C359 C358 1.371 . S
C359 C360 1.380 . S
C360 H316 0.931 . S
C360 C359 1.380 . S
C360 C361 1.387 . S
C361 H317 0.930 . S
C361 C356 1.386 . S
C361 C360 1.387 . S
C362 C331 1.519 1_554 S
C362 C363 1.377 . S
C362 C367 1.361 . S
C363 H318 0.929 1_554 S
C363 C362 1.377 . S
C363 C364 1.386 . S
C364 H319 0.931 . S
C364 C363 1.386 . S
C364 C365 1.363 . S
C365 C364 1.363 . S
C365 C366 1.385 . S
C366 H320 0.930 . S
C366 C365 1.385 . S
C366 C367 1.396 . S
C367 H321 0.929 . S
C367 C362 1.361 . S
C367 C366 1.396 . S
C368 O322 1.300 . S
C368 O323 1.209 . S
C368 C341 1.486 . S
C369 O324 1.199 . S
C369 O325 1.297 . S
C369 C353 1.476 . S
H370 O396 0.856 . S
H371 O399 0.854 . S
H372 C407 0.930 . S
H373 C408 0.930 . S
H374 C410 0.930 . S
H375 C411 0.930 . S
H376 C413 0.931 . S
H377 C414 0.930 . S
H378 C416 0.930 . S
H379 C417 0.929 . S
H380 C419 0.930 . S
H381 C420 0.931 . S
H382 C422 0.930 . S
H383 C423 0.929 . S
H384 C425 0.931 . S
H385 C426 0.930 . S
H386 C428 0.930 . S
H387 C429 0.932 . S
H388 C431 0.930 . S
H389 C432 0.929 . S
H390 C434 0.931 . S
H391 C435 0.930 . S
H392 C437 0.929 . S
H393 C438 0.931 . S
H394 C440 0.930 . S
H395 C441 0.929 . S
O396 H370 0.856 . S
O396 C442 1.300 . S
O397 C442 1.209 . S
O398 C443 1.199 . S
O399 H371 0.854 . S
O399 C443 1.297 . S
C400 C401 1.404 . S
C400 C405 1.397 . S
C400 C406 1.492 . S
C401 C400 1.404 . S
C401 C402 1.396 . S
C401 C412 1.492 . S
C402 C401 1.396 . S
C402 C403 1.397 . S
C402 C418 1.509 . S
C403 C402 1.397 . S
C403 C404 1.412 . S
C403 C424 1.485 . S
C404 C403 1.412 . S
C404 C405 1.388 . S
C404 C430 1.490 . S
C405 C400 1.397 . S
C405 C404 1.388 . S
C405 C436 1.519 . S
C406 C400 1.492 . S
C406 C407 1.363 . S
C406 C411 1.390 . S
C407 H372 0.930 . S
C407 C406 1.363 . S
C407 C408 1.372 . S
C408 H373 0.930 . S
C408 C407 1.372 . S
C408 C409 1.383 . S
C409 C408 1.383 . S
C409 C410 1.395 . S
C410 H374 0.930 . S
C410 C409 1.395 . S
C410 C411 1.362 . S
C411 H375 0.930 . S
C411 C406 1.390 . S
C411 C410 1.362 . S
C412 C401 1.492 . S
C412 C413 1.377 . S
C412 C417 1.397 . S
C413 H376 0.931 . S
C413 C412 1.377 . S
C413 C414 1.376 . S
C414 H377 0.930 . S
C414 C413 1.376 . S
C414 C415 1.376 . S
C415 C414 1.376 . S
C415 C416 1.378 . S
C415 C442 1.486 1_554 S
C416 H378 0.930 . S
C416 C415 1.378 . S
C416 C417 1.376 . S
C417 H379 0.929 . S
C417 C412 1.397 . S
C417 C416 1.376 . S
C418 C402 1.509 . S
C418 C419 1.391 . S
C418 C423 1.386 . S
C419 H380 0.930 . S
C419 C418 1.391 . S
C419 C420 1.375 . S
C420 H381 0.931 . S
C420 C419 1.375 . S
C420 C421 1.375 . S
C421 C420 1.375 . S
C421 C422 1.361 . S
C422 H382 0.930 . S
C422 C421 1.361 . S
C422 C423 1.399 . S
C423 H383 0.929 . S
C423 C418 1.386 . S
C423 C422 1.399 . S
C424 C403 1.485 . S
C424 C425 1.394 . S
C424 C429 1.360 . S
C425 H384 0.931 . S
C425 C424 1.394 . S
C425 C426 1.372 . S
C426 H385 0.930 . S
C426 C425 1.372 . S
C426 C427 1.397 . S
C427 C426 1.397 . S
C427 C428 1.390 . S
C427 C443 1.476 . S
C428 H386 0.930 . S
C428 C427 1.390 . S
C428 C429 1.366 . S
C429 H387 0.932 . S
C429 C424 1.360 . S
C429 C428 1.366 . S
C430 C404 1.490 . S
C430 C431 1.380 . S
C430 C435 1.386 . S
C431 H388 0.930 . S
C431 C430 1.380 . S
C431 C432 1.381 . S
C432 H389 0.929 . S
C432 C431 1.381 . S
C432 C433 1.371 . S
C433 C432 1.371 . S
C433 C434 1.380 . S
C434 H390 0.931 . S
C434 C433 1.380 . S
C434 C435 1.387 . S
C435 H391 0.930 . S
C435 C430 1.386 . S
C435 C434 1.387 . S
C436 C405 1.519 . S
C436 C437 1.377 . S
C436 C441 1.361 . S
C437 H392 0.929 . S
C437 C436 1.377 . S
C437 C438 1.386 . S
C438 H393 0.931 . S
C438 C437 1.386 . S
C438 C439 1.363 . S
C439 C438 1.363 . S
C439 C440 1.385 . S
C440 H394 0.930 . S
C440 C439 1.385 . S
C440 C441 1.396 . S
C441 H395 0.929 . S
C441 C436 1.361 . S
C441 C440 1.396 . S
C442 O396 1.300 . S
C442 O397 1.209 . S
C442 C415 1.486 1_556 S
C443 O398 1.199 . S
C443 O399 1.297 . S
C443 C427 1.476 . S
Li444 N461 1.990 . S
Li444 O504 1.956 . S
Li444 O505 1.970 . S
Li444 O506 1.961 . S
Li445 N469 1.990 . S
Li445 O504 1.970 . S
Li445 O505 1.956 . S
Li445 O507 1.961 . S
Li446 N491 1.990 . S
Li446 O504 1.961 . S
Li446 O506 1.956 . S
Li446 O507 1.970 . S
Li447 N497 1.990 . S
Li447 O505 1.961 . S
Li447 O506 1.970 . S
Li447 O507 1.956 . S
C448 C450 1.348 . S
C448 C451 1.356 . S
C448 O504 1.325 . S
N449 C452 1.314 . S
N449 C453 1.279 . S
C450 C448 1.348 . S
C450 C452 1.353 . S
C450 H508 0.929 . S
C451 C448 1.356 . S
C451 C453 1.358 . S
C451 H509 0.930 . S
C452 N449 1.314 . S
C452 C450 1.353 . S
C452 H510 0.930 . S
C453 N449 1.279 . S
C453 C451 1.358 . S
C453 H511 0.930 . S
C454 C457 1.348 . S
C454 C458 1.356 . S
C454 O505 1.325 . S
C455 N456 1.279 . S
C455 C458 1.358 . S
C455 H512 0.930 . S
N456 C455 1.279 . S
N456 C459 1.314 . S
C457 C454 1.348 . S
C457 C459 1.353 . S
C457 H513 0.929 . S
C458 C454 1.356 . S
C458 C455 1.358 . S
C458 H514 0.930 . S
C459 N456 1.314 . S
C459 C457 1.353 . S
C459 H515 0.930 . S
C460 N461 1.314 . S
C460 C465 1.353 . S
C460 H466 0.930 . S
N461 Li444 1.990 . S
N461 C460 1.314 . S
N461 C463 1.279 . S
C462 C463 1.358 . S
C462 C464 1.356 . S
C462 H516 0.930 . S
C463 N461 1.279 . S
C463 C462 1.358 . S
C463 H467 0.930 . S
C464 C462 1.356 . S
C464 C465 1.348 . S
C465 C460 1.353 . S
C465 C464 1.348 . S
C465 H517 0.929 . S
H466 C460 0.930 . S
H467 C463 0.930 . S
C468 N469 1.314 . S
C468 C470 1.353 . S
C468 H474 0.930 . S
N469 Li445 1.990 . S
N469 C468 1.314 . S
N469 C472 1.279 . S
C470 C468 1.353 . S
C470 C473 1.348 . S
C470 H518 0.929 . S
C471 C472 1.358 . S
C471 C473 1.356 . S
C471 H519 0.930 . S
C472 N469 1.279 . S
C472 C471 1.358 . S
C472 H475 0.930 . S
C473 C470 1.348 . S
C473 C471 1.356 . S
H474 C468 0.930 . S
H475 C472 0.930 . S
C476 C478 1.348 . S
C476 C479 1.356 . S
C476 O506 1.325 . S
N477 C480 1.314 . S
N477 C481 1.279 . S
C478 C476 1.348 . S
C478 C480 1.353 . S
C478 H520 0.929 . S
C479 C476 1.356 . S
C479 C481 1.358 . S
C479 H521 0.930 . S
C480 N477 1.314 . S
C480 C478 1.353 . S
C480 H522 0.930 . S
C481 N477 1.279 . S
C481 C479 1.358 . S
C481 H523 0.930 . S
C482 C483 1.348 . S
C482 C484 1.356 . S
C482 O507 1.325 . S
C483 C482 1.348 . S
C483 C485 1.353 . S
C483 H524 0.929 . S
C484 C482 1.356 . S
C484 C486 1.358 . S
C484 H525 0.930 . S
C485 C483 1.353 . S
C485 N487 1.314 . S
C485 H526 0.930 . S
C486 C484 1.358 . S
C486 N487 1.279 . S
C486 H527 0.930 . S
N487 C485 1.314 . S
N487 C486 1.279 . S
C488 C490 1.353 . S
C488 N491 1.314 . S
C488 H494 0.930 . S
C489 N491 1.279 . S
C489 C492 1.358 . S
C489 H495 0.930 . S
C490 C488 1.353 . S
C490 C493 1.348 . S
C490 H528 0.929 . S
N491 Li446 1.990 . S
N491 C488 1.314 . S
N491 C489 1.279 . S
C492 C489 1.358 . S
C492 C493 1.356 . S
C492 H529 0.930 . S
C493 C490 1.348 . S
C493 C492 1.356 . S
H494 C488 0.930 . S
H495 C489 0.930 . S
C496 N497 1.314 . S
C496 C498 1.353 . S
C496 H502 0.930 . S
N497 Li447 1.990 . S
N497 C496 1.314 . S
N497 C500 1.279 . S
C498 C496 1.353 . S
C498 C501 1.348 . S
C498 H530 0.929 . S
C499 C500 1.358 . S
C499 C501 1.356 . S
C499 H531 0.930 . S
C500 N497 1.279 . S
C500 C499 1.358 . S
C500 H503 0.930 . S
C501 C498 1.348 . S
C501 C499 1.356 . S
H502 C496 0.930 . S
H503 C500 0.930 . S
O504 Li444 1.956 . S
O504 Li445 1.970 . S
O504 Li446 1.961 . S
O504 C448 1.325 . S
O505 Li444 1.970 . S
O505 Li445 1.956 . S
O505 Li447 1.961 . S
O505 C454 1.325 . S
O506 Li444 1.961 . S
O506 Li446 1.956 . S
O506 Li447 1.970 . S
O506 C476 1.325 . S
O507 Li445 1.961 . S
O507 Li446 1.970 . S
O507 Li447 1.956 . S
O507 C482 1.325 . S
H508 C450 0.929 . S
H509 C451 0.930 . S
H510 C452 0.930 . S
H511 C453 0.930 . S
H512 C455 0.930 . S
H513 C457 0.929 . S
H514 C458 0.930 . S
H515 C459 0.930 . S
H516 C462 0.930 . S
H517 C465 0.929 . S
H518 C470 0.929 . S
H519 C471 0.930 . S
H520 C478 0.929 . S
H521 C479 0.930 . S
H522 C480 0.930 . S
H523 C481 0.930 . S
H524 C483 0.929 . S
H525 C484 0.930 . S
H526 C485 0.930 . S
H527 C486 0.930 . S
H528 C490 0.929 . S
H529 C492 0.930 . S
H530 C498 0.929 . S
H531 C499 0.930 . S
Li532 N549 1.990 . S
Li532 O592 1.956 . S
Li532 O593 1.970 . S
Li532 O594 1.961 . S
Li533 N557 1.990 . S
Li533 O592 1.970 . S
Li533 O593 1.956 . S
Li533 O595 1.961 . S
Li534 N579 1.990 . S
Li534 O592 1.961 . S
Li534 O594 1.956 . S
Li534 O595 1.970 . S
Li535 N585 1.990 . S
Li535 O593 1.961 . S
Li535 O594 1.970 . S
Li535 O595 1.956 . S
C536 C538 1.348 . S
C536 C539 1.356 . S
C536 O592 1.325 . S
N537 C540 1.314 . S
N537 C541 1.279 . S
C538 C536 1.348 . S
C538 C540 1.353 . S
C538 H596 0.929 . S
C539 C536 1.356 . S
C539 C541 1.358 . S
C539 H597 0.930 . S
C540 N537 1.314 . S
C540 C538 1.353 . S
C540 H598 0.930 . S
C541 N537 1.279 . S
C541 C539 1.358 . S
C541 H599 0.930 . S
C542 C545 1.348 . S
C542 C546 1.356 . S
C542 O593 1.325 . S
C543 N544 1.279 . S
C543 C546 1.358 . S
C543 H600 0.930 . S
N544 C543 1.279 . S
N544 C547 1.314 . S
C545 C542 1.348 . S
C545 C547 1.353 . S
C545 H601 0.929 . S
C546 C542 1.356 . S
C546 C543 1.358 . S
C546 H602 0.930 . S
C547 N544 1.314 . S
C547 C545 1.353 . S
C547 H603 0.930 . S
C548 N549 1.314 . S
C548 C553 1.353 . S
C548 H554 0.930 . S
N549 Li532 1.990 . S
N549 C548 1.314 . S
N549 C551 1.279 . S
C550 C551 1.358 . S
C550 C552 1.356 . S
C550 H604 0.930 . S
C551 N549 1.279 . S
C551 C550 1.358 . S
C551 H555 0.930 . S
C552 C550 1.356 . S
C552 C553 1.348 . S
C553 C548 1.353 . S
C553 C552 1.348 . S
C553 H605 0.929 . S
H554 C548 0.930 . S
H555 C551 0.930 . S
C556 N557 1.314 . S
C556 C558 1.353 . S
C556 H562 0.930 . S
N557 Li533 1.990 . S
N557 C556 1.314 . S
N557 C560 1.279 . S
C558 C556 1.353 . S
C558 C561 1.348 . S
C558 H606 0.929 . S
C559 C560 1.358 . S
C559 C561 1.356 . S
C559 H607 0.930 . S
C560 N557 1.279 . S
C560 C559 1.358 . S
C560 H563 0.930 . S
C561 C558 1.348 . S
C561 C559 1.356 . S
H562 C556 0.930 . S
H563 C560 0.930 . S
C564 C566 1.348 . S
C564 C567 1.356 . S
C564 O594 1.325 . S
N565 C568 1.314 . S
N565 C569 1.279 . S
C566 C564 1.348 . S
C566 C568 1.353 . S
C566 H608 0.929 . S
C567 C564 1.356 . S
C567 C569 1.358 . S
C567 H609 0.930 . S
C568 N565 1.314 . S
C568 C566 1.353 . S
C568 H610 0.930 . S
C569 N565 1.279 . S
C569 C567 1.358 . S
C569 H611 0.930 . S
C570 C571 1.348 . S
C570 C572 1.356 . S
C570 O595 1.325 . S
C571 C570 1.348 . S
C571 C573 1.353 . S
C571 H612 0.929 . S
C572 C570 1.356 . S
C572 C574 1.358 . S
C572 H613 0.930 . S
C573 C571 1.353 . S
C573 N575 1.314 . S
C573 H614 0.930 . S
C574 C572 1.358 . S
C574 N575 1.279 . S
C574 H615 0.930 . S
N575 C573 1.314 . S
N575 C574 1.279 . S
C576 C578 1.353 . S
C576 N579 1.314 . S
C576 H582 0.930 . S
C577 N579 1.279 . S
C577 C580 1.358 . S
C577 H583 0.930 . S
C578 C576 1.353 . S
C578 C581 1.348 . S
C578 H616 0.929 . S
N579 Li534 1.990 . S
N579 C576 1.314 . S
N579 C577 1.279 . S
C580 C577 1.358 . S
C580 C581 1.356 . S
C580 H617 0.930 . S
C581 C578 1.348 . S
C581 C580 1.356 . S
H582 C576 0.930 . S
H583 C577 0.930 . S
C584 N585 1.314 . S
C584 C586 1.353 . S
C584 H590 0.930 . S
N585 Li535 1.990 . S
N585 C584 1.314 . S
N585 C588 1.279 . S
C586 C584 1.353 . S
C586 C589 1.348 . S
C586 H618 0.929 . S
C587 C588 1.358 . S
C587 C589 1.356 . S
C587 H619 0.930 . S
C588 N585 1.279 . S
C588 C587 1.358 . S
C588 H591 0.930 . S
C589 C586 1.348 . S
C589 C587 1.356 . S
H590 C584 0.930 . S
H591 C588 0.930 . S
O592 Li532 1.956 . S
O592 Li533 1.970 . S
O592 Li534 1.961 . S
O592 C536 1.325 . S
O593 Li532 1.970 . S
O593 Li533 1.956 . S
O593 Li535 1.961 . S
O593 C542 1.325 . S
O594 Li532 1.961 . S
O594 Li534 1.956 . S
O594 Li535 1.970 . S
O594 C564 1.325 . S
O595 Li533 1.961 . S
O595 Li534 1.970 . S
O595 Li535 1.956 . S
O595 C570 1.325 . S
H596 C538 0.929 . S
H597 C539 0.930 . S
H598 C540 0.930 . S
H599 C541 0.930 . S
H600 C543 0.930 . S
H601 C545 0.929 . S
H602 C546 0.930 . S
H603 C547 0.930 . S
H604 C550 0.930 . S
H605 C553 0.929 . S
H606 C558 0.929 . S
H607 C559 0.930 . S
H608 C566 0.929 . S
H609 C567 0.930 . S
H610 C568 0.930 . S
H611 C569 0.930 . S
H612 C571 0.929 . S
H613 C572 0.930 . S
H614 C573 0.930 . S
H615 C574 0.930 . S
H616 C578 0.929 . S
H617 C580 0.930 . S
H618 C586 0.929 . S
H619 C587 0.930 . S
Li620 N637 1.990 . S
Li620 O680 1.956 . S
Li620 O681 1.970 . S
Li620 O682 1.961 . S
Li621 N645 1.990 . S
Li621 O680 1.970 . S
Li621 O681 1.956 . S
Li621 O683 1.961 . S
Li622 N667 1.990 . S
Li622 O680 1.961 . S
Li622 O682 1.956 . S
Li622 O683 1.970 . S
Li623 N673 1.990 . S
Li623 O681 1.961 . S
Li623 O682 1.970 . S
Li623 O683 1.956 . S
C624 C626 1.348 . S
C624 C627 1.356 . S
C624 O680 1.325 . S
N625 C628 1.314 . S
N625 C629 1.279 . S
C626 C624 1.348 . S
C626 C628 1.353 . S
C626 H684 0.929 . S
C627 C624 1.356 . S
C627 C629 1.358 . S
C627 H685 0.930 . S
C628 N625 1.314 . S
C628 C626 1.353 . S
C628 H686 0.930 . S
C629 N625 1.279 . S
C629 C627 1.358 . S
C629 H687 0.930 . S
C630 C633 1.348 . S
C630 C634 1.356 . S
C630 O681 1.325 . S
C631 N632 1.279 . S
C631 C634 1.358 . S
C631 H688 0.930 . S
N632 C631 1.279 . S
N632 C635 1.314 . S
C633 C630 1.348 . S
C633 C635 1.353 . S
C633 H689 0.929 . S
C634 C630 1.356 . S
C634 C631 1.358 . S
C634 H690 0.930 . S
C635 N632 1.314 . S
C635 C633 1.353 . S
C635 H691 0.930 . S
C636 N637 1.314 . S
C636 C641 1.353 . S
C636 H642 0.930 . S
N637 Li620 1.990 . S
N637 C636 1.314 . S
N637 C639 1.279 . S
C638 C639 1.358 . S
C638 C640 1.356 . S
C638 H692 0.930 . S
C639 N637 1.279 . S
C639 C638 1.358 . S
C639 H643 0.930 . S
C640 C638 1.356 . S
C640 C641 1.348 . S
C641 C636 1.353 . S
C641 C640 1.348 . S
C641 H693 0.929 . S
H642 C636 0.930 . S
H643 C639 0.930 . S
C644 N645 1.314 . S
C644 C646 1.353 . S
C644 H650 0.930 . S
N645 Li621 1.990 . S
N645 C644 1.314 . S
N645 C648 1.279 . S
C646 C644 1.353 . S
C646 C649 1.348 . S
C646 H694 0.929 . S
C647 C648 1.358 . S
C647 C649 1.356 . S
C647 H695 0.930 . S
C648 N645 1.279 . S
C648 C647 1.358 . S
C648 H651 0.930 . S
C649 C646 1.348 . S
C649 C647 1.356 . S
H650 C644 0.930 . S
H651 C648 0.930 . S
C652 C654 1.348 . S
C652 C655 1.356 . S
C652 O682 1.325 . S
N653 C656 1.314 . S
N653 C657 1.279 . S
C654 C652 1.348 . S
C654 C656 1.353 . S
C654 H696 0.929 . S
C655 C652 1.356 . S
C655 C657 1.358 . S
C655 H697 0.930 . S
C656 N653 1.314 . S
C656 C654 1.353 . S
C656 H698 0.930 . S
C657 N653 1.279 . S
C657 C655 1.358 . S
C657 H699 0.930 . S
C658 C659 1.348 . S
C658 C660 1.356 . S
C658 O683 1.325 . S
C659 C658 1.348 . S
C659 C661 1.353 . S
C659 H700 0.929 . S
C660 C658 1.356 . S
C660 C662 1.358 . S
C660 H701 0.930 . S
C661 C659 1.353 . S
C661 N663 1.314 . S
C661 H702 0.930 . S
C662 C660 1.358 . S
C662 N663 1.279 . S
C662 H703 0.930 . S
N663 C661 1.314 . S
N663 C662 1.279 . S
C664 C666 1.353 . S
C664 N667 1.314 . S
C664 H670 0.930 . S
C665 N667 1.279 . S
C665 C668 1.358 . S
C665 H671 0.930 . S
C666 C664 1.353 . S
C666 C669 1.348 . S
C666 H704 0.929 . S
N667 Li622 1.990 . S
N667 C664 1.314 . S
N667 C665 1.279 . S
C668 C665 1.358 . S
C668 C669 1.356 . S
C668 H705 0.930 . S
C669 C666 1.348 . S
C669 C668 1.356 . S
H670 C664 0.930 . S
H671 C665 0.930 . S
C672 N673 1.314 . S
C672 C674 1.353 . S
C672 H678 0.930 . S
N673 Li623 1.990 . S
N673 C672 1.314 . S
N673 C676 1.279 . S
C674 C672 1.353 . S
C674 C677 1.348 . S
C674 H706 0.929 . S
C675 C676 1.358 . S
C675 C677 1.356 . S
C675 H707 0.930 . S
C676 N673 1.279 . S
C676 C675 1.358 . S
C676 H679 0.930 . S
C677 C674 1.348 . S
C677 C675 1.356 . S
H678 C672 0.930 . S
H679 C676 0.930 . S
O680 Li620 1.956 . S
O680 Li621 1.970 . S
O680 Li622 1.961 . S
O680 C624 1.325 . S
O681 Li620 1.970 . S
O681 Li621 1.956 . S
O681 Li623 1.961 . S
O681 C630 1.325 . S
O682 Li620 1.961 . S
O682 Li622 1.956 . S
O682 Li623 1.970 . S
O682 C652 1.325 . S
O683 Li621 1.961 . S
O683 Li622 1.970 . S
O683 Li623 1.956 . S
O683 C658 1.325 . S
H684 C626 0.929 . S
H685 C627 0.930 . S
H686 C628 0.930 . S
H687 C629 0.930 . S
H688 C631 0.930 . S
H689 C633 0.929 . S
H690 C634 0.930 . S
H691 C635 0.930 . S
H692 C638 0.930 . S
H693 C641 0.929 . S
H694 C646 0.929 . S
H695 C647 0.930 . S
H696 C654 0.929 . S
H697 C655 0.930 . S
H698 C656 0.930 . S
H699 C657 0.930 . S
H700 C659 0.929 . S
H701 C660 0.930 . S
H702 C661 0.930 . S
H703 C662 0.930 . S
H704 C666 0.929 . S
H705 C668 0.930 . S
H706 C674 0.929 . S
H707 C675 0.930 . S
Li708 N725 1.990 . S
Li708 O768 1.956 . S
Li708 O769 1.970 . S
Li708 O770 1.961 . S
Li709 N733 1.990 . S
Li709 O768 1.970 . S
Li709 O769 1.956 . S
Li709 O771 1.961 . S
Li710 N755 1.990 . S
Li710 O768 1.961 . S
Li710 O770 1.956 . S
Li710 O771 1.970 . S
Li711 N761 1.990 . S
Li711 O769 1.961 . S
Li711 O770 1.970 . S
Li711 O771 1.956 . S
C712 C714 1.348 . S
C712 C715 1.356 . S
C712 O768 1.325 . S
N713 C716 1.329 . S
N713 C717 1.279 1_554 S
C714 C712 1.348 . S
C714 C716 1.324 1_556 S
C714 H772 0.929 . S
C715 C712 1.356 . S
C715 C717 1.358 . S
C715 H773 0.930 . S
C716 N713 1.329 . S
C716 C714 1.324 1_554 S
C716 H774 0.947 . S
C717 N713 1.279 1_556 S
C717 C715 1.358 . S
C717 H775 0.930 1_556 S
C718 C721 1.348 . S
C718 C722 1.356 . S
C718 O769 1.325 . S
C719 N720 1.279 . S
C719 C722 1.358 . S
C719 H776 0.930 . S
N720 C719 1.279 . S
N720 C723 1.314 . S
C721 C718 1.348 . S
C721 C723 1.353 . S
C721 H777 0.929 . S
C722 C718 1.356 . S
C722 C719 1.358 . S
C722 H778 0.930 . S
C723 N720 1.314 . S
C723 C721 1.353 . S
C723 H779 0.930 . S
C724 N725 1.314 . S
C724 C729 1.353 . S
C724 H730 0.930 . S
N725 Li708 1.990 . S
N725 C724 1.314 . S
N725 C727 1.279 . S
C726 C727 1.358 1_554 S
C726 C728 1.356 . S
C726 H780 0.930 . S
C727 N725 1.279 . S
C727 C726 1.358 1_556 S
C727 H731 0.930 1_556 S
C728 C726 1.356 . S
C728 C729 1.348 1_554 S
C729 C724 1.353 . S
C729 C728 1.348 1_556 S
C729 H781 0.929 . S
H730 C724 0.930 . S
H731 C727 0.930 1_554 S
C732 N733 1.314 . S
C732 C734 1.353 . S
C732 H738 0.930 . S
N733 Li709 1.990 . S
N733 C732 1.314 . S
N733 C736 1.279 . S
C734 C732 1.353 . S
C734 C737 1.348 . S
C734 H782 0.929 . S
C735 C736 1.358 . S
C735 C737 1.356 . S
C735 H783 0.930 . S
C736 N733 1.279 . S
C736 C735 1.358 . S
C736 H739 0.930 . S
C737 C734 1.348 . S
C737 C735 1.356 . S
H738 C732 0.930 . S
H739 C736 0.930 . S
C740 C742 1.348 . S
C740 C743 1.356 . S
C740 O770 1.325 . S
N741 C744 1.314 . S
N741 C745 1.279 . S
C742 C740 1.348 . S
C742 C744 1.353 . S
C742 H784 0.929 . S
C743 C740 1.356 . S
C743 C745 1.358 . S
C743 H785 0.930 . S
C744 N741 1.314 . S
C744 C742 1.353 . S
C744 H786 0.930 . S
C745 N741 1.279 . S
C745 C743 1.358 . S
C745 H787 0.930 . S
C746 C747 1.348 . S
C746 C748 1.356 . S
C746 O771 1.325 . S
C747 C746 1.348 . S
C747 C749 1.353 . S
C747 H788 0.929 . S
C748 C746 1.356 . S
C748 C750 1.358 . S
C748 H789 0.930 . S
C749 C747 1.353 . S
C749 N751 1.314 . S
C749 H790 0.930 . S
C750 C748 1.358 . S
C750 N751 1.279 . S
C750 H791 0.930 . S
N751 C749 1.314 . S
N751 C750 1.279 . S
C752 C754 1.353 . S
C752 N755 1.314 . S
C752 H758 0.930 . S
C753 N755 1.279 . S
C753 C756 1.358 . S
C753 H759 0.930 . S
C754 C752 1.353 . S
C754 C757 1.348 . S
C754 H792 0.929 . S
N755 Li710 1.990 . S
N755 C752 1.314 . S
N755 C753 1.279 . S
C756 C753 1.358 . S
C756 C757 1.356 . S
C756 H793 0.930 . S
C757 C754 1.348 . S
C757 C756 1.356 . S
H758 C752 0.930 . S
H759 C753 0.930 . S
C760 N761 1.314 . S
C760 C762 1.353 . S
C760 H766 0.930 . S
N761 Li711 1.990 . S
N761 C760 1.314 . S
N761 C764 1.279 . S
C762 C760 1.353 . S
C762 C765 1.348 . S
C762 H794 0.929 . S
C763 C764 1.358 . S
C763 C765 1.356 . S
C763 H795 0.930 . S
C764 N761 1.279 . S
C764 C763 1.358 . S
C764 H767 0.930 . S
C765 C762 1.348 . S
C765 C763 1.356 . S
H766 C760 0.930 . S
H767 C764 0.930 . S
O768 Li708 1.956 . S
O768 Li709 1.970 . S
O768 Li710 1.961 . S
O768 C712 1.325 . S
O769 Li708 1.970 . S
O769 Li709 1.956 . S
O769 Li711 1.961 . S
O769 C718 1.325 . S
O770 Li708 1.961 . S
O770 Li710 1.956 . S
O770 Li711 1.970 . S
O770 C740 1.325 . S
O771 Li709 1.961 . S
O771 Li710 1.970 . S
O771 Li711 1.956 . S
O771 C746 1.325 . S
H772 C714 0.929 . S
H773 C715 0.930 . S
H774 C716 0.947 . S
H775 C717 0.930 1_554 S
H776 C719 0.930 . S
H777 C721 0.929 . S
H778 C722 0.930 . S
H779 C723 0.930 . S
H780 C726 0.930 . S
H781 C729 0.929 . S
H782 C734 0.929 . S
H783 C735 0.930 . S
H784 C742 0.929 . S
H785 C743 0.930 . S
H786 C744 0.930 . S
H787 C745 0.930 . S
H788 C747 0.929 . S
H789 C748 0.930 . S
H790 C749 0.930 . S
H791 C750 0.930 . S
H792 C754 0.929 . S
H793 C756 0.930 . S
H794 C762 0.929 . S
H795 C763 0.930 . S
Li796 N813 1.990 . S
Li796 O856 1.956 . S
Li796 O857 1.970 . S
Li796 O858 1.961 . S
Li797 N821 1.990 . S
Li797 O856 1.970 . S
Li797 O857 1.956 . S
Li797 O859 1.961 . S
Li798 N843 1.982 1_554 S
Li798 O856 1.961 . S
Li798 O858 1.956 . S
Li798 O859 1.970 . S
Li799 N849 1.990 . S
Li799 O857 1.961 . S
Li799 O858 1.970 . S
Li799 O859 1.956 . S
C800 C802 1.348 . S
C800 C803 1.356 . S
C800 O856 1.325 . S
N801 C804 1.314 . S
N801 C805 1.279 . S
C802 C800 1.348 . S
C802 C804 1.353 . S
C802 H860 0.929 . S
C803 C800 1.356 . S
C803 C805 1.358 . S
C803 H861 0.930 . S
C804 N801 1.314 . S
C804 C802 1.353 . S
C804 H862 0.930 . S
C805 N801 1.279 . S
C805 C803 1.358 . S
C805 H863 0.930 . S
C806 C809 1.348 . S
C806 C810 1.356 . S
C806 O857 1.325 . S
C807 N808 1.279 . S
C807 C810 1.358 . S
C807 H864 0.930 . S
N808 C807 1.279 . S
N808 C811 1.314 . S
C809 C806 1.348 . S
C809 C811 1.353 . S
C809 H865 0.929 . S
C810 C806 1.356 . S
C810 C807 1.358 . S
C810 H866 0.930 . S
C811 N808 1.314 . S
C811 C809 1.353 . S
C811 H867 0.930 . S
C812 N813 1.314 . S
C812 C817 1.353 . S
C812 H818 0.930 . S
N813 Li796 1.990 . S
N813 C812 1.314 . S
N813 C815 1.279 . S
C814 C815 1.358 . S
C814 C816 1.356 . S
C814 H868 0.930 . S
C815 N813 1.279 . S
C815 C814 1.358 . S
C815 H819 0.930 . S
C816 C814 1.356 . S
C816 C817 1.348 . S
C817 C812 1.353 . S
C817 C816 1.348 . S
C817 H869 0.929 . S
H818 C812 0.930 . S
H819 C815 0.930 . S
C820 N821 1.314 . S
C820 C822 1.353 . S
C820 H826 0.930 . S
N821 Li797 1.990 . S
N821 C820 1.314 . S
N821 C824 1.279 . S
C822 C820 1.353 . S
C822 C825 1.348 . S
C822 H870 0.929 . S
C823 C824 1.358 . S
C823 C825 1.356 . S
C823 H871 0.930 . S
C824 N821 1.279 . S
C824 C823 1.358 . S
C824 H827 0.930 . S
C825 C822 1.348 . S
C825 C823 1.356 . S
H826 C820 0.930 . S
H827 C824 0.930 . S
C828 C830 1.348 1_554 S
C828 C831 1.356 1_554 S
C828 O858 1.325 . S
N829 C832 1.314 . S
N829 C833 1.279 . S
C830 C828 1.348 1_556 S
C830 C832 1.353 . S
C830 H872 0.929 1_556 S
C831 C828 1.356 1_556 S
C831 C833 1.358 . S
C831 H873 0.930 1_556 S
C832 N829 1.314 . S
C832 C830 1.353 . S
C832 H874 0.930 . S
C833 N829 1.279 . S
C833 C831 1.358 . S
C833 H875 0.930 . S
C834 C835 1.348 . S
C834 C836 1.356 . S
C834 O859 1.325 . S
C835 C834 1.348 . S
C835 C837 1.353 . S
C835 H876 0.929 . S
C836 C834 1.356 . S
C836 C838 1.358 . S
C836 H877 0.930 . S
C837 C835 1.353 . S
C837 N839 1.314 . S
C837 H878 0.930 . S
C838 C836 1.358 . S
C838 N839 1.279 . S
C838 H879 0.930 . S
N839 C837 1.314 . S
N839 C838 1.279 . S
C840 C842 1.329 1_554 S
C840 N843 1.313 1_554 S
C840 H846 0.958 . S
C841 N843 1.289 . S
C841 C844 1.358 . S
C841 H847 0.930 . S
C842 C840 1.329 1_556 S
C842 C845 1.348 . S
C842 H880 0.929 . S
N843 Li798 1.982 1_556 S
N843 C840 1.313 1_556 S
N843 C841 1.289 . S
C844 C841 1.358 . S
C844 C845 1.356 . S
C844 H881 0.930 . S
C845 C842 1.348 . S
C845 C844 1.356 . S
H846 C840 0.958 . S
H847 C841 0.930 . S
C848 N849 1.314 . S
C848 C850 1.353 . S
C848 H854 0.930 . S
N849 Li799 1.990 . S
N849 C848 1.314 . S
N849 C852 1.279 . S
C850 C848 1.353 . S
C850 C853 1.348 . S
C850 H882 0.929 . S
C851 C852 1.358 . S
C851 C853 1.356 . S
C851 H883 0.930 . S
C852 N849 1.279 . S
C852 C851 1.358 . S
C852 H855 0.930 . S
C853 C850 1.348 . S
C853 C851 1.356 . S
H854 C848 0.930 . S
H855 C852 0.930 . S
O856 Li796 1.956 . S
O856 Li797 1.970 . S
O856 Li798 1.961 . S
O856 C800 1.325 . S
O857 Li796 1.970 . S
O857 Li797 1.956 . S
O857 Li799 1.961 . S
O857 C806 1.325 . S
O858 Li796 1.961 . S
O858 Li798 1.956 . S
O858 Li799 1.970 . S
O858 C828 1.325 . S
O859 Li797 1.961 . S
O859 Li798 1.970 . S
O859 Li799 1.956 . S
O859 C834 1.325 . S
H860 C802 0.929 . S
H861 C803 0.930 . S
H862 C804 0.930 . S
H863 C805 0.930 . S
H864 C807 0.930 . S
H865 C809 0.929 . S
H866 C810 0.930 . S
H867 C811 0.930 . S
H868 C814 0.930 . S
H869 C817 0.929 . S
H870 C822 0.929 . S
H871 C823 0.930 . S
H872 C830 0.929 1_554 S
H873 C831 0.930 1_554 S
H874 C832 0.930 . S
H875 C833 0.930 . S
H876 C835 0.929 . S
H877 C836 0.930 . S
H878 C837 0.930 . S
H879 C838 0.930 . S
H880 C842 0.929 . S
H881 C844 0.930 . S
H882 C850 0.929 . S
H883 C851 0.930 . S
Li884 N901 1.990 . S
Li884 O944 1.956 . S
Li884 O945 1.970 . S
Li884 O946 1.961 . S
Li885 N909 1.990 . S
Li885 O944 1.970 . S
Li885 O945 1.956 . S
Li885 O947 1.961 . S
Li886 N931 1.990 . S
Li886 O944 1.961 . S
Li886 O946 1.956 . S
Li886 O947 1.970 . S
Li887 N937 1.990 . S
Li887 O945 1.961 . S
Li887 O946 1.970 . S
Li887 O947 1.956 . S
C888 C890 1.348 . S
C888 C891 1.356 . S
C888 O944 1.325 . S
N889 C892 1.314 . S
N889 C893 1.279 . S
C890 C888 1.348 . S
C890 C892 1.353 . S
C890 H948 0.929 . S
C891 C888 1.356 . S
C891 C893 1.358 . S
C891 H949 0.930 . S
C892 N889 1.314 . S
C892 C890 1.353 . S
C892 H950 0.930 . S
C893 N889 1.279 . S
C893 C891 1.358 . S
C893 H951 0.930 . S
C894 C897 1.348 . S
C894 C898 1.356 . S
C894 O945 1.325 . S
C895 N896 1.279 . S
C895 C898 1.358 . S
C895 H952 0.930 . S
N896 C895 1.279 . S
N896 C899 1.314 . S
C897 C894 1.348 . S
C897 C899 1.353 . S
C897 H953 0.929 . S
C898 C894 1.356 . S
C898 C895 1.358 . S
C898 H954 0.930 . S
C899 N896 1.314 . S
C899 C897 1.353 . S
C899 H955 0.930 . S
C900 N901 1.314 . S
C900 C905 1.353 . S
C900 H906 0.930 . S
N901 Li884 1.990 . S
N901 C900 1.314 . S
N901 C903 1.279 . S
C902 C903 1.358 . S
C902 C904 1.356 . S
C902 H956 0.930 . S
C903 N901 1.279 . S
C903 C902 1.358 . S
C903 H907 0.930 . S
C904 C902 1.356 . S
C904 C905 1.348 . S
C905 C900 1.353 . S
C905 C904 1.348 . S
C905 H957 0.929 . S
H906 C900 0.930 . S
H907 C903 0.930 . S
C908 N909 1.314 . S
C908 C910 1.353 . S
C908 H914 0.930 . S
N909 Li885 1.990 . S
N909 C908 1.314 . S
N909 C912 1.279 . S
C910 C908 1.353 . S
C910 C913 1.348 . S
C910 H958 0.929 . S
C911 C912 1.358 . S
C911 C913 1.356 . S
C911 H959 0.930 . S
C912 N909 1.279 . S
C912 C911 1.358 . S
C912 H915 0.930 . S
C913 C910 1.348 . S
C913 C911 1.356 . S
H914 C908 0.930 . S
H915 C912 0.930 . S
C916 C918 1.348 . S
C916 C919 1.356 . S
C916 O946 1.325 . S
N917 C920 1.314 . S
N917 C921 1.279 . S
C918 C916 1.348 . S
C918 C920 1.353 . S
C918 H960 0.929 . S
C919 C916 1.356 . S
C919 C921 1.358 . S
C919 H961 0.930 . S
C920 N917 1.314 . S
C920 C918 1.353 . S
C920 H962 0.930 . S
C921 N917 1.279 . S
C921 C919 1.358 . S
C921 H963 0.930 . S
C922 C923 1.348 . S
C922 C924 1.356 . S
C922 O947 1.325 . S
C923 C922 1.348 . S
C923 C925 1.353 . S
C923 H964 0.929 . S
C924 C922 1.356 . S
C924 C926 1.358 . S
C924 H965 0.930 . S
C925 C923 1.353 . S
C925 N927 1.314 . S
C925 H966 0.930 . S
C926 C924 1.358 . S
C926 N927 1.279 . S
C926 H967 0.930 . S
N927 C925 1.314 . S
N927 C926 1.279 . S
C928 C930 1.353 . S
C928 N931 1.314 . S
C928 H934 0.930 . S
C929 N931 1.279 . S
C929 C932 1.358 . S
C929 H935 0.930 . S
C930 C928 1.353 . S
C930 C933 1.348 . S
C930 H968 0.929 . S
N931 Li886 1.990 . S
N931 C928 1.314 . S
N931 C929 1.279 . S
C932 C929 1.358 . S
C932 C933 1.356 . S
C932 H969 0.930 . S
C933 C930 1.348 . S
C933 C932 1.356 . S
H934 C928 0.930 . S
H935 C929 0.930 . S
C936 N937 1.314 . S
C936 C938 1.353 . S
C936 H942 0.930 . S
N937 Li887 1.990 . S
N937 C936 1.314 . S
N937 C940 1.279 . S
C938 C936 1.353 . S
C938 C941 1.348 . S
C938 H970 0.929 . S
C939 C940 1.358 . S
C939 C941 1.356 . S
C939 H971 0.930 . S
C940 N937 1.279 . S
C940 C939 1.358 . S
C940 H943 0.930 . S
C941 C938 1.348 . S
C941 C939 1.356 . S
H942 C936 0.930 . S
H943 C940 0.930 . S
O944 Li884 1.956 . S
O944 Li885 1.970 . S
O944 Li886 1.961 . S
O944 C888 1.325 . S
O945 Li884 1.970 . S
O945 Li885 1.956 . S
O945 Li887 1.961 . S
O945 C894 1.325 . S
O946 Li884 1.961 . S
O946 Li886 1.956 . S
O946 Li887 1.970 . S
O946 C916 1.325 . S
O947 Li885 1.961 . S
O947 Li886 1.970 . S
O947 Li887 1.956 . S
O947 C922 1.325 . S
H948 C890 0.929 . S
H949 C891 0.930 . S
H950 C892 0.930 . S
H951 C893 0.930 . S
H952 C895 0.930 . S
H953 C897 0.929 . S
H954 C898 0.930 . S
H955 C899 0.930 . S
H956 C902 0.930 . S
H957 C905 0.929 . S
H958 C910 0.929 . S
H959 C911 0.930 . S
H960 C918 0.929 . S
H961 C919 0.930 . S
H962 C920 0.930 . S
H963 C921 0.930 . S
H964 C923 0.929 . S
H965 C924 0.930 . S
H966 C925 0.930 . S
H967 C926 0.930 . S
H968 C930 0.929 . S
H969 C932 0.930 . S
H970 C938 0.929 . S
H971 C939 0.930 . S
C913 C51 1.984 . S
C125 C473 2.532 . S
C217 C561 3.827 . S
C291 C640 3.022 . S
C737 C347 2.074 . S
C421 C816 1.551 . S
C143 C581 3.872 . S
C199 C677 2.336 . S
C273 C757 1.926 . S
C853 C365 2.668 . S
C933 C439 3.877 . S
C493 C69 4.157 . S
C63 C589 2.094 . S
C137 C669 2.049 . S
C765 C187 2.035 . S
C261 C845 1.785 . S
C941 C359 1.810 . S
C501 C433 1.207 . S
C904 C113 2.900 . S
C211 C464 1.910 . S
C552 C285 2.133 . S
C335 C649 1.873 . S
C409 C728 2.051 . S
C39 C825 2.672 . S
