# Generated by pormake.
# Topology pto, (3,4)-cn, num edge types: 1
# Building blocks:
#     Node 0, Type 0, BuildingBlock: OLANEW_clean_sbu_2, # of connection points: 3
#     Node 1, Type 0, BuildingBlock: OLANEW_clean_sbu_2, # of connection points: 3
#     Node 2, Type 0, BuildingBlock: OLANEW_clean_sbu_2, # of connection points: 3
#     Node 3, Type 0, BuildingBlock: OLANEW_clean_sbu_2, # of connection points: 3
#     Node 4, Type 0, BuildingBlock: OLANEW_clean_sbu_2, # of connection points: 3
#     Node 5, Type 0, BuildingBlock: OLANEW_clean_sbu_2, # of connection points: 3
#     Node 6, Type 0, BuildingBlock: OLANEW_clean_sbu_2, # of connection points: 3
#     Node 7, Type 0, BuildingBlock: OLANEW_clean_sbu_2, # of connection points: 3
#     Node 8, Type 1, BuildingBlock: AZAVOO_clean_linker_0, # of connection points: 4
#     Node 9, Type 1, BuildingBlock: AZAVOO_clean_linker_0, # of connection points: 4
#     Node 10, Type 1, BuildingBlock: AZAVOO_clean_linker_0, # of connection points: 4
#     Node 11, Type 1, BuildingBlock: AZAVOO_clean_linker_0, # of connection points: 4
#     Node 12, Type 1, BuildingBlock: AZAVOO_clean_linker_0, # of connection points: 4
#     Node 13, Type 1, BuildingBlock: AZAVOO_clean_linker_0, # of connection points: 4
#     Edge 14, Type (0, 1), BuildingBlock: OJICUG_clean_linker_0, # of connection points: 2
#     Edge 15, Type (0, 1), BuildingBlock: OJICUG_clean_linker_0, # of connection points: 2
#     Edge 16, Type (0, 1), BuildingBlock: OJICUG_clean_linker_0, # of connection points: 2
#     Edge 17, Type (0, 1), BuildingBlock: OJICUG_clean_linker_0, # of connection points: 2
#     Edge 18, Type (0, 1), BuildingBlock: OJICUG_clean_linker_0, # of connection points: 2
#     Edge 19, Type (0, 1), BuildingBlock: OJICUG_clean_linker_0, # of connection points: 2
#     Edge 20, Type (0, 1), BuildingBlock: OJICUG_clean_linker_0, # of connection points: 2
#     Edge 21, Type (0, 1), BuildingBlock: OJICUG_clean_linker_0, # of connection points: 2
#     Edge 22, Type (0, 1), BuildingBlock: OJICUG_clean_linker_0, # of connection points: 2
#     Edge 23, Type (0, 1), BuildingBlock: OJICUG_clean_linker_0, # of connection points: 2
#     Edge 24, Type (0, 1), BuildingBlock: OJICUG_clean_linker_0, # of connection points: 2
#     Edge 25, Type (0, 1), BuildingBlock: OJICUG_clean_linker_0, # of connection points: 2
#     Edge 26, Type (0, 1), BuildingBlock: OJICUG_clean_linker_0, # of connection points: 2
#     Edge 27, Type (0, 1), BuildingBlock: OJICUG_clean_linker_0, # of connection points: 2
#     Edge 28, Type (0, 1), BuildingBlock: OJICUG_clean_linker_0, # of connection points: 2
#     Edge 29, Type (0, 1), BuildingBlock: OJICUG_clean_linker_0, # of connection points: 2
#     Edge 30, Type (0, 1), BuildingBlock: OJICUG_clean_linker_0, # of connection points: 2
#     Edge 31, Type (0, 1), BuildingBlock: OJICUG_clean_linker_0, # of connection points: 2
#     Edge 32, Type (0, 1), BuildingBlock: OJICUG_clean_linker_0, # of connection points: 2
#     Edge 33, Type (0, 1), BuildingBlock: OJICUG_clean_linker_0, # of connection points: 2
#     Edge 34, Type (0, 1), BuildingBlock: OJICUG_clean_linker_0, # of connection points: 2
#     Edge 35, Type (0, 1), BuildingBlock: OJICUG_clean_linker_0, # of connection points: 2
#     Edge 36, Type (0, 1), BuildingBlock: OJICUG_clean_linker_0, # of connection points: 2
#     Edge 37, Type (0, 1), BuildingBlock: OJICUG_clean_linker_0, # of connection points: 2
# Relax obj value: 0.074
# Max RMSD: 0.224
# Mean RMSD: 0.131
data_MOF--net-pto--node1-OLANEW_clean_sbu_2--node2-AZAVOO_clean_linker_0--edge1-OJICUG_clean_linker_0
_symmetry_space_group_name_H-M    P1
_symmetry_Int_Tables_number       1
_symmetry_cell_setting            triclinic
loop_
_symmetry_equiv_pos_as_xyz
'x, y, z'
_cell_length_a     35.457268
_cell_length_b     39.046876
_cell_length_c     39.422822
_cell_angle_alpha  92.74529
_cell_angle_beta   89.732541
_cell_angle_gamma 117.37675
loop_
_atom_site_label
_atom_site_type_symbol
_atom_site_fract_x
_atom_site_fract_y
_atom_site_fract_z
_atom_type_partial_charge
O0 O 0.32767 0.47726 0.21905 0.0
Cd1 Cd 0.33192 0.51821 0.26902 0.0
O2 O 0.35555 0.52431 0.18396 0.0
Cd3 Cd 0.34069 0.56144 0.2188 0.0
O4 O 0.296 0.58123 0.23871 0.0
C5 C 0.26497 0.57443 0.2188 0.0
O6 O 0.26316 0.55751 0.18878 0.0
C7 C 0.34269 0.48905 0.19013 0.0
C8 C 0.35449 0.48674 0.3225 0.0
O9 O 0.31556 0.478 0.3163 0.0
O10 O 0.38301 0.51173 0.3043 0.0
O11 O 0.36625 0.06337 0.83288 0.0
Cd12 Cd 0.31223 0.04961 0.7885 0.0
O13 O 0.36515 0.00734 0.82029 0.0
Cd14 Cd 0.31042 0.98237 0.78528 0.0
O15 O 0.25308 0.92974 0.76944 0.0
C16 C 0.22388 0.91577 0.79111 0.0
O17 O 0.22838 0.93499 0.82036 0.0
C18 C 0.38057 0.03943 0.83746 0.0
C19 C 0.33832 0.10105 0.73603 0.0
O20 O 0.31945 0.1064 0.76203 0.0
O21 O 0.34562 0.07176 0.73509 0.0
O22 O 0.85318 0.93933 0.31864 0.0
Cd23 Cd 0.90052 0.94586 0.27152 0.0
O24 O 0.79254 0.906 0.29065 0.0
Cd25 Cd 0.81938 0.91733 0.24028 0.0
O26 O 0.79846 0.942 0.20041 0.0
C27 C 0.78769 0.96758 0.21074 0.0
O28 O 0.7927 0.97858 0.24315 0.0
C29 C 0.81286 0.92075 0.31839 0.0
C30 C 0.92651 0.88862 0.27295 0.0
O31 O 0.94353 0.91882 0.293 0.0
O32 O 0.89761 0.88563 0.25187 0.0
O33 O 0.76505 0.2578 0.82634 0.0
Cd34 Cd 0.72258 0.19016 0.8397 0.0
O35 O 0.70837 0.266 0.81863 0.0
Cd36 Cd 0.66156 0.20942 0.83423 0.0
O37 O 0.59983 0.1813 0.85795 0.0
C38 C 0.56679 0.17361 0.84022 0.0
O39 O 0.57063 0.17834 0.80738 0.0
C40 C 0.74848 0.27919 0.81844 0.0
C41 C 0.70179 0.14412 0.7797 0.0
O42 O 0.73583 0.15191 0.79659 0.0
O43 O 0.67724 0.15749 0.79159 0.0
O44 O 0.77701 0.87636 0.69581 0.0
Cd45 Cd 0.78821 0.85219 0.74915 0.0
O46 O 0.83241 0.93345 0.70375 0.0
Cd47 Cd 0.84385 0.92291 0.7554 0.0
O48 O 0.82434 0.94117 0.8024 0.0
C49 C 0.82487 0.97389 0.80142 0.0
O50 O 0.83937 0.99378 0.77419 0.0
C51 C 0.80069 0.9099 0.68559 0.0
C52 C 0.83034 0.80684 0.74413 0.0
O53 O 0.79008 0.79195 0.7391 0.0
O54 O 0.85087 0.84338 0.75073 0.0
O55 O 0.63278 0.33552 0.30394 0.0
Cd56 Cd 0.56141 0.2812 0.30359 0.0
O57 O 0.61852 0.37219 0.34044 0.0
Cd58 Cd 0.55074 0.33399 0.33294 0.0
O59 O 0.50433 0.31453 0.29115 0.0
C60 C 0.51198 0.33996 0.26958 0.0
O61 O 0.54392 0.37452 0.27568 0.0
C62 C 0.64526 0.36639 0.32262 0.0
C63 C 0.56381 0.2233 0.34071 0.0
O64 O 0.56962 0.22424 0.30859 0.0
O65 O 0.55591 0.24934 0.3552 0.0
O66 O 0.32791 0.51389 0.85681 0.0
Cd67 Cd 0.34284 0.56042 0.81273 0.0
O68 O 0.2861 0.46367 0.82379 0.0
Cd69 Cd 0.30314 0.49282 0.77637 0.0
O70 O 0.32442 0.47114 0.73222 0.0
C71 C 0.34458 0.4525 0.7393 0.0
O72 O 0.35296 0.45034 0.77134 0.0
C73 C 0.30296 0.47792 0.85278 0.0
C74 C 0.27841 0.58171 0.80433 0.0
O75 O 0.30825 0.59955 0.82653 0.0
O76 O 0.27899 0.55376 0.78629 0.0
O77 O 0.45916 0.0229 0.26542 0.0
Cd78 Cd 0.42303 0.99525 0.31804 0.0
O79 O 0.40132 0.00707 0.23464 0.0
Cd80 Cd 0.35588 0.97773 0.27383 0.0
O81 O 0.2951 0.92934 0.28546 0.0
C82 C 0.29361 0.89664 0.28943 0.0
O83 O 0.32914 0.89383 0.28894 0.0
C84 C 0.44156 0.02245 0.23724 0.0
C85 C 0.41862 0.04843 0.36573 0.0
O86 O 0.45303 0.04564 0.3619 0.0
O87 O 0.38643 0.02651 0.34675 0.0
H88 H 0.96869 0.38827 0.30285 0.0
H89 H 0.72105 0.61254 0.29917 0.0
H90 H 0.05939 0.593 0.32546 0.0
H91 H 0.12203 0.58505 0.30995 0.0
H92 H 0.12189 0.63005 0.2119 0.0
H93 H 0.05859 0.63666 0.22722 0.0
H94 H 0.96471 0.53354 0.33962 0.0
H95 H 0.96414 0.47058 0.33428 0.0
H96 H 0.98709 0.48454 0.22676 0.0
H97 H 0.98714 0.54724 0.23241 0.0
H98 H 0.8963 0.56432 0.35559 0.0
H99 H 0.82712 0.50911 0.36461 0.0
H100 H 0.82098 0.47212 0.25872 0.0
H101 H 0.89047 0.52704 0.25021 0.0
H102 H 0.91734 0.65467 0.35083 0.0
H103 H 0.85082 0.65796 0.36057 0.0
H104 H 0.80046 0.59454 0.2647 0.0
H105 H 0.86729 0.59192 0.25508 0.0
H106 H 0.01274 0.72211 0.33182 0.0
H107 H 0.00718 0.78154 0.32564 0.0
H108 H 0.92334 0.72805 0.23822 0.0
H109 H 0.93313 0.67095 0.24257 0.0
H110 H 0.07697 0.67899 0.33523 0.0
H111 H 0.14454 0.73817 0.33667 0.0
H112 H 0.11083 0.76835 0.24147 0.0
H113 H 0.04334 0.70858 0.23992 0.0
O114 O 0.96896 0.41322 0.30439 0.0
O115 O 0.981 0.42192 0.24928 0.0
O116 O 0.77513 0.64446 0.34493 0.0
O117 O 0.7477 0.61175 0.29594 0.0
C118 C 0.01441 0.61732 0.28555 0.0
C119 C 0.97625 0.58305 0.28965 0.0
C120 C 0.93816 0.58511 0.29627 0.0
C121 C 0.93757 0.62106 0.29652 0.0
C122 C 0.97544 0.65526 0.29131 0.0
C123 C 0.01425 0.65355 0.28751 0.0
C124 C 0.05427 0.61515 0.27738 0.0
C125 C 0.07303 0.60121 0.30068 0.0
C126 C 0.10898 0.59699 0.29187 0.0
C127 C 0.12682 0.60672 0.2596 0.0
C128 C 0.10856 0.62173 0.23674 0.0
C129 C 0.07262 0.62583 0.24554 0.0
C130 C 0.97598 0.5449 0.28642 0.0
C131 C 0.96947 0.52286 0.31494 0.0
C132 C 0.96924 0.48696 0.31181 0.0
C133 C 0.9756 0.47253 0.28009 0.0
C134 C 0.98213 0.49479 0.25156 0.0
C135 C 0.98224 0.53063 0.25472 0.0
C136 C 0.89832 0.54958 0.30228 0.0
C137 C 0.88017 0.54394 0.33451 0.0
C138 C 0.84056 0.51258 0.33952 0.0
C139 C 0.81839 0.48631 0.31235 0.0
C140 C 0.8374 0.49149 0.2803 0.0
C141 C 0.87704 0.52286 0.27533 0.0
C142 C 0.89704 0.6229 0.30235 0.0
C143 C 0.89191 0.64158 0.33196 0.0
C144 C 0.85388 0.64336 0.33747 0.0
C145 C 0.82027 0.62643 0.31343 0.0
C146 C 0.82563 0.6078 0.28376 0.0
C147 C 0.8637 0.60613 0.27825 0.0
C148 C 0.97335 0.69212 0.28766 0.0
C149 C 0.99395 0.72369 0.31095 0.0
C150 C 0.99013 0.7575 0.3076 0.0
C151 C 0.96454 0.75998 0.28147 0.0
C152 C 0.94414 0.72807 0.25822 0.0
C153 C 0.94912 0.69493 0.26095 0.0
C154 C 0.05519 0.68954 0.28753 0.0
C155 C 0.08427 0.69827 0.31458 0.0
C156 C 0.12282 0.73201 0.31536 0.0
C157 C 0.13285 0.75786 0.28923 0.0
C158 C 0.10365 0.74912 0.26213 0.0
C159 C 0.06523 0.71505 0.26116 0.0
C160 C 0.97538 0.4344 0.27685 0.0
C161 C 0.77977 0.62817 0.31918 0.0
H162 H 0.04235 0.42151 0.84572 0.0
H163 H 0.69793 0.51109 0.71624 0.0
H164 H 0.05621 0.61244 0.83752 0.0
H165 H 0.12502 0.61269 0.8433 0.0
H166 H 0.14304 0.62557 0.73531 0.0
H167 H 0.07396 0.62514 0.7298 0.0
H168 H 0.97386 0.53167 0.83808 0.0
H169 H 0.99764 0.48385 0.85081 0.0
H170 H 0.04997 0.49326 0.75035 0.0
H171 H 0.0254 0.54056 0.73778 0.0
H172 H 0.88103 0.52868 0.82344 0.0
H173 H 0.83295 0.46063 0.83211 0.0
H174 H 0.88224 0.42736 0.7431 0.0
H175 H 0.92941 0.49562 0.73396 0.0
H176 H 0.87638 0.60411 0.80957 0.0
H177 H 0.80095 0.58536 0.80101 0.0
H178 H 0.80038 0.52321 0.70704 0.0
H179 H 0.87593 0.54256 0.71572 0.0
H180 H 0.96243 0.6834 0.8114 0.0
H181 H 0.93459 0.72939 0.80313 0.0
H182 H 0.89253 0.67981 0.70157 0.0
H183 H 0.92123 0.63435 0.7098 0.0
H184 H 0.04742 0.68077 0.82723 0.0
H185 H 0.09925 0.74903 0.82985 0.0
H186 H 0.07835 0.75435 0.7227 0.0
H187 H 0.02714 0.68546 0.7202 0.0
O188 O 0.03297 0.44027 0.84007 0.0
O189 O 0.05976 0.44652 0.78829 0.0
O190 O 0.72983 0.55156 0.76862 0.0
O191 O 0.72779 0.519 0.72022 0.0
C192 C 0.01462 0.60832 0.77855 0.0
C193 C 0.98413 0.56912 0.77968 0.0
C194 C 0.94058 0.55818 0.7748 0.0
C195 C 0.92752 0.58647 0.76832 0.0
C196 C 0.95806 0.62583 0.76718 0.0
C197 C 0.00169 0.63677 0.77259 0.0
C198 C 0.06018 0.61873 0.78325 0.0
C199 C 0.07571 0.61664 0.81534 0.0
C200 C 0.11496 0.61672 0.81856 0.0
C201 C 0.13914 0.61867 0.78967 0.0
C202 C 0.12479 0.62354 0.75792 0.0
C203 C 0.08565 0.62375 0.75477 0.0
C204 C 0.99797 0.53957 0.78705 0.0
C205 C 0.99027 0.52318 0.81882 0.0
C206 C 0.00398 0.49596 0.82604 0.0
C207 C 0.02578 0.48477 0.80161 0.0
C208 C 0.03332 0.50124 0.76974 0.0
C209 C 0.01941 0.52831 0.76251 0.0
C210 C 0.90871 0.51714 0.77806 0.0
C211 C 0.88084 0.50677 0.80542 0.0
C212 C 0.85354 0.46794 0.81039 0.0
C213 C 0.85412 0.4388 0.78837 0.0
C214 C 0.88151 0.44926 0.76063 0.0
C215 C 0.90829 0.48815 0.75533 0.0
C216 C 0.88164 0.57483 0.7632 0.0
C217 C 0.85994 0.58661 0.78708 0.0
C218 C 0.81684 0.57577 0.78217 0.0
C219 C 0.79463 0.55279 0.75331 0.0
C220 C 0.8165 0.54092 0.72952 0.0
C221 C 0.85963 0.55186 0.73443 0.0
C222 C 0.94395 0.65555 0.76119 0.0
C223 C 0.94793 0.68295 0.78715 0.0
C224 C 0.932 0.70916 0.78239 0.0
C225 C 0.9113 0.70811 0.75172 0.0
C226 C 0.90798 0.68104 0.72556 0.0
C227 C 0.92443 0.65518 0.73018 0.0
C228 C 0.03369 0.67813 0.77351 0.0
C229 C 0.05428 0.69661 0.80427 0.0
C230 C 0.08352 0.73572 0.80577 0.0
C231 C 0.09273 0.75724 0.77652 0.0
C232 C 0.07219 0.73854 0.74562 0.0
C233 C 0.04285 0.69929 0.74416 0.0
C234 C 0.04058 0.45606 0.80945 0.0
C235 C 0.74883 0.54117 0.74797 0.0
H236 H 0.41052 0.21737 0.29745 0.0
H237 H 0.42225 0.526 0.58101 0.0
H238 H 0.33941 0.19922 0.47706 0.0
H239 H 0.34205 0.14475 0.44681 0.0
H240 H 0.47255 0.18724 0.48103 0.0
H241 H 0.47026 0.24359 0.50862 0.0
H242 H 0.35117 0.24956 0.42797 0.0
H243 H 0.36337 0.23035 0.37069 0.0
H244 H 0.4983 0.28352 0.39302 0.0
H245 H 0.48562 0.30311 0.45019 0.0
H246 H 0.3396 0.30485 0.44464 0.0
H247 H 0.32952 0.34598 0.40497 0.0
H248 H 0.45661 0.43608 0.42871 0.0
H249 H 0.46707 0.39352 0.46727 0.0
H250 H 0.33464 0.3468 0.51048 0.0
H251 H 0.32919 0.40559 0.52701 0.0
H252 H 0.45905 0.45884 0.56481 0.0
H253 H 0.46412 0.39999 0.54785 0.0
H254 H 0.32175 0.29739 0.56882 0.0
H255 H 0.3094 0.33115 0.61805 0.0
H256 H 0.44149 0.37791 0.6482 0.0
H257 H 0.45354 0.3438 0.5987 0.0
H258 H 0.32388 0.22832 0.56719 0.0
H259 H 0.31059 0.18718 0.61534 0.0
H260 H 0.44328 0.2146 0.61884 0.0
H261 H 0.45644 0.25635 0.57089 0.0
O262 O 0.40649 0.22579 0.32005 0.0
O263 O 0.47436 0.24743 0.33486 0.0
O264 O 0.3573 0.47419 0.55345 0.0
O265 O 0.42377 0.50268 0.57363 0.0
C266 C 0.4058 0.26302 0.50448 0.0
C267 C 0.40999 0.28814 0.47831 0.0
C268 C 0.40717 0.32254 0.48581 0.0
C269 C 0.40228 0.33284 0.51965 0.0
C270 C 0.39789 0.30781 0.54579 0.0
C271 C 0.39926 0.27265 0.5383 0.0
C272 C 0.40458 0.2253 0.49505 0.0
C273 C 0.36823 0.19619 0.47865 0.0
C274 C 0.36988 0.16487 0.46138 0.0
C275 C 0.40776 0.16144 0.46085 0.0
C276 C 0.44315 0.18924 0.47986 0.0
C277 C 0.44173 0.22116 0.49637 0.0
C278 C 0.41758 0.27827 0.44297 0.0
C279 C 0.3834 0.25766 0.42023 0.0
C280 C 0.39044 0.24648 0.38761 0.0
C281 C 0.43181 0.25542 0.37726 0.0
C282 C 0.46605 0.27618 0.40018 0.0
C283 C 0.45894 0.28755 0.43276 0.0
C284 C 0.40437 0.34584 0.45823 0.0
C285 C 0.3658 0.33293 0.44037 0.0
C286 C 0.35981 0.35686 0.41826 0.0
C287 C 0.39204 0.3946 0.41401 0.0
C288 C 0.43125 0.40711 0.4312 0.0
C289 C 0.43734 0.38287 0.45317 0.0
C290 C 0.39982 0.3693 0.52784 0.0
C291 C 0.36199 0.37138 0.52197 0.0
C292 C 0.35892 0.4049 0.53159 0.0
C293 C 0.39368 0.4369 0.54732 0.0
C294 C 0.43169 0.43475 0.5528 0.0
C295 C 0.43472 0.40124 0.54308 0.0
C296 C 0.38847 0.31806 0.58035 0.0
C297 C 0.34763 0.31374 0.58676 0.0
C298 C 0.34081 0.33351 0.61455 0.0
C299 C 0.3747 0.35774 0.6365 0.0
C300 C 0.41483 0.35942 0.63165 0.0
C301 C 0.42171 0.33975 0.60362 0.0
C302 C 0.39109 0.24525 0.56551 0.0
C303 C 0.35003 0.22531 0.57826 0.0
C304 C 0.34256 0.20201 0.60584 0.0
C305 C 0.37596 0.19787 0.62099 0.0
C306 C 0.4169 0.21706 0.60755 0.0
C307 C 0.42445 0.2408 0.58015 0.0
C308 C 0.43902 0.24274 0.34283 0.0
C309 C 0.39033 0.4723 0.55823 0.0
H310 H 0.58332 0.1059 0.79695 0.0
H311 H 0.82491 0.96852 0.05643 0.0
H312 H 0.59377 0.12174 0.98187 0.0
H313 H 0.53549 0.11982 0.94712 0.0
H314 H 0.47 0.9957 0.9509 0.0
H315 H 0.52813 0.99775 0.98508 0.0
H316 H 0.66036 0.12092 0.93144 0.0
H317 H 0.63706 0.12611 0.87433 0.0
H318 H 0.55162 0.00351 0.86936 0.0
H319 H 0.57541 0.99879 0.92631 0.0
H320 H 0.74397 0.09937 0.95063 0.0
H321 H 0.78518 0.08201 0.90929 0.0
H322 H 0.68137 0.96631 0.89791 0.0
H323 H 0.64095 0.98378 0.9395 0.0
H324 H 0.75941 0.09934 0.02485 0.0
H325 H 0.81641 0.08426 0.04147 0.0
H326 H 0.73 0.96233 0.02739 0.0
H327 H 0.67347 0.9779 0.01072 0.0
H328 H 0.70974 0.10017 0.0833 0.0
H329 H 0.74105 0.08079 0.12931 0.0
H330 H 0.64702 0.96212 0.10999 0.0
H331 H 0.61579 0.98175 0.06429 0.0
H332 H 0.63285 0.11328 0.07815 0.0
H333 H 0.5907 0.11132 0.12837 0.0
H334 H 0.49583 0.99701 0.09478 0.0
H335 H 0.53846 0.99882 0.04542 0.0
O336 O 0.59295 0.1031 0.81908 0.0
O337 O 0.54962 0.04 0.8179 0.0
O338 O 0.84705 0.03835 0.05465 0.0
O339 O 0.80336 0.97535 0.04909 0.0
C340 C 0.60512 0.0591 0.99537 0.0
C341 C 0.63098 0.05716 0.96857 0.0
C342 C 0.66649 0.05142 0.97558 0.0
C343 C 0.67707 0.04874 0.00935 0.0
C344 C 0.65169 0.05107 0.03622 0.0
C345 C 0.61557 0.05616 0.02934 0.0
C346 C 0.565 0.05992 0.98636 0.0
C347 C 0.56585 0.09437 0.97659 0.0
C348 C 0.53275 0.09321 0.95648 0.0
C349 C 0.49881 0.05755 0.94569 0.0
C350 C 0.49611 0.02354 0.95848 0.0
C351 C 0.52895 0.02472 0.97858 0.0
C352 C 0.61958 0.05951 0.93288 0.0
C353 C 0.637 0.09519 0.91776 0.0
C354 C 0.62346 0.09807 0.88524 0.0
C355 C 0.59228 0.06524 0.86735 0.0
C356 C 0.5756 0.02936 0.88243 0.0
C357 C 0.58923 0.02654 0.91489 0.0
C358 C 0.68941 0.04292 0.94764 0.0
C359 C 0.73004 0.0705 0.93874 0.0
C360 C 0.75346 0.06051 0.91524 0.0
C361 C 0.7366 0.0227 0.90059 0.0
C362 C 0.69546 0.99547 0.90915 0.0
C363 C 0.67211 0.00551 0.9325 0.0
C364 C 0.7125 0.0397 0.01658 0.0
C365 C 0.75309 0.06944 0.02502 0.0
C366 C 0.78548 0.06072 0.03462 0.0
C367 C 0.7777 0.02205 0.0359 0.0
C368 C 0.73707 0.99238 0.02674 0.0
C369 C 0.70478 1.00116 0.01708 0.0
C370 C 0.66045 0.04236 0.07061 0.0
C371 C 0.69474 0.0703 0.09011 0.0
C372 C 0.71278 0.05914 0.11612 0.0
C373 C 0.69688 0.01988 0.12265 0.0
C374 C 0.66021 0.99249 0.10507 0.0
C375 C 0.64194 0.00371 0.07938 0.0
C376 C 0.58817 0.05657 0.05769 0.0
C377 C 0.60262 0.0881 0.08145 0.0
C378 C 0.5787 0.08688 0.11012 0.0
C379 C 0.53982 0.05418 0.11527 0.0
C380 C 0.52521 0.02293 0.0911 0.0
C381 C 0.54939 0.02398 0.06276 0.0
C382 C 0.57695 0.06852 0.83329 0.0
C383 C 0.81157 0.01258 0.04707 0.0
H384 H 0.5908 0.96704 0.28204 0.0
H385 H 0.59783 0.22112 0.58924 0.0
H386 H 0.63257 0.93595 0.46279 0.0
H387 H 0.66597 0.9036 0.42836 0.0
H388 H 0.78564 0.00802 0.4367 0.0
H389 H 0.75221 0.03947 0.47104 0.0
H390 H 0.57793 0.98314 0.42941 0.0
H391 H 0.57048 0.96948 0.36787 0.0
H392 H 0.70552 0.04173 0.35788 0.0
H393 H 0.71237 0.05559 0.41933 0.0
H394 H 0.55483 0.04767 0.47672 0.0
H395 H 0.53336 0.08706 0.44233 0.0
H396 H 0.66023 0.1449 0.40338 0.0
H397 H 0.6821 0.10724 0.43891 0.0
H398 H 0.56142 0.04051 0.54813 0.0
H399 H 0.53768 0.0852 0.57441 0.0
H400 H 0.65654 0.1816 0.54852 0.0
H401 H 0.67991 0.13651 0.52253 0.0
H402 H 0.59727 0.0109 0.5874 0.0
H403 H 0.60682 0.03077 0.64811 0.0
H404 H 0.73723 0.11283 0.6306 0.0
H405 H 0.72725 0.09296 0.57014 0.0
H406 H 0.63403 0.95368 0.55829 0.0
H407 H 0.66807 0.92596 0.59408 0.0
H408 H 0.79138 0.01547 0.56701 0.0
H409 H 0.75677 0.04414 0.53321 0.0
O410 O 0.59443 0.97288 0.30631 0.0
O411 O 0.6641 0.00989 0.30263 0.0
O412 O 0.54602 0.15224 0.59207 0.0
O413 O 0.60651 0.2028 0.57923 0.0
C414 C 0.6695 0.01139 0.48633 0.0
C415 C 0.64987 0.02792 0.46624 0.0
C416 C 0.63421 0.05212 0.4817 0.0
C417 C 0.6365 0.05826 0.51742 0.0
C418 C 0.65528 0.04095 0.53751 0.0
C419 C 0.67213 0.01782 0.52193 0.0
C420 C 0.69017 0.98983 0.46962 0.0
C421 C 0.66622 0.95132 0.45777 0.0
C422 C 0.68529 0.93304 0.43803 0.0
C423 C 0.72853 0.95317 0.42986 0.0
C424 C 0.75259 0.9913 0.44309 0.0
C425 C 0.73354 0.00943 0.46269 0.0
C426 C 0.64573 0.01994 0.42884 0.0
C427 C 0.60584 0.99596 0.41386 0.0
C428 C 0.6017 0.9882 0.37871 0.0
C429 C 0.63744 0.00437 0.35795 0.0
C430 C 0.67738 0.02864 0.37312 0.0
C431 C 0.68143 0.03644 0.40824 0.0
C432 C 0.62 0.07444 0.46019 0.0
C433 C 0.578 0.06902 0.46092 0.0
C434 C 0.56577 0.09134 0.44131 0.0
C435 C 0.59518 0.11863 0.42017 0.0
C436 C 0.63695 0.12367 0.41921 0.0
C437 C 0.64938 0.10212 0.43937 0.0
C438 C 0.62238 0.08536 0.53361 0.0
C439 C 0.58232 0.07129 0.54836 0.0
C440 C 0.56883 0.09687 0.56326 0.0
C441 C 0.59524 0.13701 0.56357 0.0
C442 C 0.63544 0.15091 0.54874 0.0
C443 C 0.64888 0.12526 0.53389 0.0
C444 C 0.66154 0.05066 0.57451 0.0
C445 C 0.62789 0.03301 0.59683 0.0
C446 C 0.63338 0.04441 0.63137 0.0
C447 C 0.67277 0.07334 0.64408 0.0
C448 C 0.70669 0.09013 0.62166 0.0
C449 C 0.70104 0.07896 0.58715 0.0
C450 C 0.69297 1.00062 0.54292 0.0
C451 C 0.66839 0.96716 0.56015 0.0
C452 C 0.68799 0.95117 0.58028 0.0
C453 C 0.73261 0.96825 0.58332 0.0
C454 C 0.75702 1.00169 0.56563 0.0
C455 C 0.73734 0.01793 0.54595 0.0
C456 C 0.63298 0.99598 0.32064 0.0
C457 C 0.58096 0.16433 0.57918 0.0
H458 H 0.32169 0.2871 0.77885 0.0
H459 H 0.47666 0.12108 0.07586 0.0
H460 H 0.40371 0.37362 0.97958 0.0
H461 H 0.38237 0.41769 0.95402 0.0
H462 H 0.25419 0.3252 0.94078 0.0
H463 H 0.27647 0.28091 0.96592 0.0
H464 H 0.39601 0.3263 0.91602 0.0
H465 H 0.37342 0.3209 0.85669 0.0
H466 H 0.27791 0.20344 0.86992 0.0
H467 H 0.30043 0.20944 0.92946 0.0
H468 H 0.43733 0.28053 0.92239 0.0
H469 H 0.46961 0.24936 0.886 0.0
H470 H 0.39766 0.14232 0.9348 0.0
H471 H 0.3625 0.17289 0.96969 0.0
H472 H 0.47644 0.26637 0.99338 0.0
H473 H 0.51295 0.22946 0.00982 0.0
H474 H 0.4033 0.15559 0.0668 0.0
H475 H 0.36689 0.19241 0.04972 0.0
H476 H 0.47022 0.31586 0.05409 0.0
H477 H 0.49724 0.32992 0.11272 0.0
H478 H 0.3692 0.26702 0.14869 0.0
H479 H 0.34239 0.25276 0.08962 0.0
H480 H 0.43127 0.36921 0.04529 0.0
H481 H 0.42403 0.41576 0.08529 0.0
H482 H 0.28925 0.33999 0.09026 0.0
H483 H 0.29686 0.29353 0.05023 0.0
O484 O 0.32991 0.28866 0.80247 0.0
O485 O 0.28155 0.22828 0.81047 0.0
O486 O 0.5183 0.17474 0.03904 0.0
O487 O 0.46313 0.13641 0.06929 0.0
C488 C 0.35675 0.29711 0.98675 0.0
C489 C 0.36307 0.27171 0.96333 0.0
C490 C 0.38349 0.2502 0.97412 0.0
C491 C 0.39596 0.25306 0.00869 0.0
C492 C 0.38837 0.27757 0.03215 0.0
C493 C 0.36928 0.29989 0.02108 0.0
C494 C 0.34164 0.32413 0.97457 0.0
C495 C 0.37081 0.36309 0.9718 0.0
C496 C 0.35842 0.3883 0.95735 0.0
C497 C 0.31647 0.37508 0.94536 0.0
C498 C 0.28683 0.33624 0.94943 0.0
C499 C 0.29938 0.31093 0.96387 0.0
C500 C 0.34948 0.26842 0.92718 0.0
C501 C 0.36989 0.29958 0.90619 0.0
C502 C 0.35708 0.29633 0.87223 0.0
C503 C 0.32378 0.26176 0.85856 0.0
C504 C 0.30361 0.2305 0.87965 0.0
C505 C 0.3164 0.23383 0.91365 0.0
C506 C 0.39721 0.22901 0.9486 0.0
C507 C 0.42684 0.24991 0.92423 0.0
C508 C 0.44549 0.23218 0.90361 0.0
C509 C 0.43577 0.19355 0.90764 0.0
C510 C 0.40515 0.17207 0.93113 0.0
C511 C 0.38531 0.18953 0.95106 0.0
C512 C 0.41891 0.23185 0.02015 0.0
C513 C 0.46038 0.2422 0.00941 0.0
C514 C 0.48116 0.22109 0.01886 0.0
C515 C 0.46097 0.18945 0.03953 0.0
C516 C 0.41971 0.1797 0.05079 0.0
C517 C 0.39889 0.20073 0.04117 0.0
C518 C 0.40444 0.28316 0.0677 0.0
C519 C 0.44809 0.30472 0.07461 0.0
C520 C 0.46337 0.313 0.10808 0.0
C521 C 0.43525 0.29981 0.13525 0.0
C522 C 0.39156 0.27736 0.12823 0.0
C523 C 0.37623 0.26927 0.09463 0.0
C524 C 0.36461 0.32801 0.04513 0.0
C525 C 0.40023 0.36274 0.05508 0.0
C526 C 0.39599 0.38934 0.07766 0.0
C527 C 0.35608 0.38145 0.09083 0.0
C528 C 0.32043 0.34663 0.08069 0.0
C529 C 0.32465 0.32018 0.05784 0.0
C530 C 0.31036 0.2584 0.82243 0.0
C531 C 0.48267 0.16656 0.04921 0.0
C532 C 0.23052 0.60007 0.26194 0.0
C533 C 0.23059 0.58399 0.22927 0.0
H534 H 0.19789 0.62026 0.2971 0.0
C535 C 0.19678 0.57618 0.20662 0.0
H536 H 0.25612 0.60646 0.27998 0.0
C537 C 0.16348 0.58391 0.21644 0.0
C538 C 0.1631 0.59967 0.24917 0.0
H539 H 0.19572 0.5637 0.18129 0.0
H540 H 0.13753 0.57674 0.19855 0.0
C541 C 0.19706 0.60777 0.27181 0.0
C542 C 0.1861 0.8531 0.75655 0.0
C543 C 0.18789 0.87654 0.78535 0.0
H544 H 0.15491 0.79694 0.7313 0.0
C545 C 0.15642 0.86117 0.80995 0.0
H546 H 0.20987 0.86403 0.73713 0.0
C547 C 0.12489 0.82285 0.80653 0.0
C548 C 0.12407 0.79889 0.77846 0.0
H549 H 0.15661 0.87848 0.83231 0.0
H550 H 0.10139 0.81183 0.82614 0.0
C551 C 0.15451 0.81467 0.75314 0.0
C552 C 0.93881 0.83584 0.24542 0.0
C553 C 0.93888 0.85752 0.2748 0.0
H554 H 0.94949 0.78996 0.22399 0.0
C555 C 0.94951 0.84846 0.30618 0.0
H556 H 0.93123 0.84264 0.22084 0.0
C557 C 0.95823 0.81716 0.30837 0.0
C558 C 0.95777 0.79488 0.27901 0.0
H559 H 0.94947 0.86467 0.32927 0.0
H560 H 0.96402 0.80989 0.33329 0.0
C561 C 0.9489 0.80535 0.24739 0.0
C562 C 0.81876 0.33307 0.80263 0.0
C563 C 0.77553 0.31972 0.80979 0.0
H564 H 0.87746 0.38128 0.78994 0.0
C565 C 0.75823 0.34569 0.80906 0.0
H566 H 0.83301 0.31379 0.80292 0.0
C567 C 0.78371 0.38426 0.80192 0.0
C568 C 0.82689 0.3976 0.79489 0.0
H569 H 0.72506 0.33638 0.81449 0.0
H570 H 0.7696 0.40367 0.80178 0.0
C571 C 0.84413 0.3716 0.79501 0.0
C572 C 0.33491 0.44266 0.3706 0.0
C573 C 0.36574 0.46647 0.34826 0.0
H574 H 0.31941 0.40225 0.40943 0.0
C575 C 0.40634 0.46844 0.34914 0.0
H576 H 0.30346 0.44078 0.37078 0.0
C577 C 0.41531 0.44576 0.37094 0.0
C578 C 0.38392 0.42082 0.39242 0.0
H579 H 0.43075 0.48646 0.33214 0.0
H580 H 0.44635 0.44678 0.3701 0.0
C581 C 0.34397 0.42029 0.39254 0.0
C582 C 0.42118 0.07443 0.89113 0.0
C583 C 0.41337 0.04713 0.86397 0.0
H584 H 0.45385 0.09866 0.93895 0.0
C585 C 0.43508 0.02476 0.86348 0.0
H586 H 0.40469 0.09189 0.89229 0.0
C587 C 0.46295 0.02869 0.88989 0.0
C588 C 0.46972 0.05492 0.91764 0.0
H589 H 0.43017 0.00374 0.84281 0.0
H590 H 0.47919 0.01099 0.88864 0.0
C591 C 0.44914 0.07825 0.91782 0.0
C592 C 0.81114 0.93715 0.38038 0.0
C593 C 0.78932 0.92098 0.34941 0.0
H594 H 0.80855 0.95885 0.43075 0.0
C595 C 0.74555 0.90962 0.34728 0.0
H596 H 0.84475 0.94572 0.38301 0.0
C597 C 0.72496 0.91759 0.37447 0.0
C598 C 0.74764 0.93678 0.40445 0.0
H599 H 0.7277 0.89693 0.32384 0.0
H600 H 0.69205 0.9112 0.371 0.0
C601 C 0.79045 0.94482 0.40768 0.0
C602 C 0.49405 0.16911 0.83846 0.0
C603 C 0.52751 0.16882 0.85729 0.0
H604 H 0.43814 0.17725 0.84003 0.0
C605 C 0.5259 0.16999 0.89295 0.0
H606 H 0.49423 0.16813 0.81097 0.0
C607 C 0.49352 0.17469 0.90943 0.0
C608 C 0.46227 0.17829 0.89052 0.0
H609 H 0.55122 0.16996 0.90817 0.0
H610 H 0.49455 0.1782 0.9369 0.0
C611 C 0.4619 0.17424 0.85499 0.0
C612 C 0.33491 0.15464 0.70586 0.0
C613 C 0.3499 0.12709 0.70738 0.0
H614 H 0.33144 0.19854 0.67742 0.0
C615 C 0.37475 0.12383 0.68072 0.0
H616 H 0.31573 0.15796 0.72597 0.0
C617 C 0.38393 0.14728 0.65295 0.0
C618 C 0.368 0.17411 0.65107 0.0
H619 H 0.38685 0.10293 0.68115 0.0
H620 H 0.40262 0.14375 0.63255 0.0
C621 C 0.34367 0.17774 0.67795 0.0
C622 C 0.75326 0.96533 0.15472 0.0
C623 C 0.76637 0.9823 0.18758 0.0
H624 H 0.72084 0.96394 0.10856 0.0
C625 C 0.75707 0.01231 0.19877 0.0
H626 H 0.75996 0.94221 0.1453 0.0
C627 C 0.73468 0.02476 0.1777 0.0
C628 C 0.72069 0.00708 0.14522 0.0
H629 H 0.76678 0.02604 0.22394 0.0
H630 H 0.72766 0.04773 0.18698 0.0
C631 C 0.73051 0.97749 0.13382 0.0
C632 C 0.72224 0.11236 0.73147 0.0
C633 C 0.69235 0.12229 0.74649 0.0
H634 H 0.73926 0.08868 0.68739 0.0
C635 C 0.65449 0.11325 0.72855 0.0
H636 H 0.75164 0.11876 0.74469 0.0
C637 C 0.64742 0.096 0.69575 0.0
C638 C 0.67816 0.0876 0.68017 0.0
H639 H 0.63077 0.12044 0.73946 0.0
H640 H 0.61866 0.09068 0.68207 0.0
C641 C 0.71527 0.0953 0.69861 0.0
C642 C 0.36808 0.47487 0.13419 0.0
C643 C 0.34543 0.46167 0.16416 0.0
H644 H 0.38918 0.45973 0.08741 0.0
C645 C 0.32575 0.42187 0.16946 0.0
H646 H 0.3836 0.50534 0.12935 0.0
C647 C 0.32878 0.39586 0.14543 0.0
C648 C 0.35186 0.40909 0.1157 0.0
H649 H 0.30801 0.41071 0.19226 0.0
H650 H 0.31373 0.36543 0.15042 0.0
C651 C 0.37145 0.44883 0.11027 0.0
C652 C 0.83033 0.74309 0.73292 0.0
C653 C 0.85211 0.78228 0.74384 0.0
H654 H 0.83206 0.68902 0.72678 0.0
C655 C 0.89423 0.79731 0.75597 0.0
H656 H 0.79787 0.73063 0.72343 0.0
C657 C 0.91371 0.77339 0.75806 0.0
C658 C 0.89166 0.73407 0.74769 0.0
H659 H 0.91188 0.82736 0.7646 0.0
H660 H 0.94599 0.78562 0.76793 0.0
C661 C 0.84998 0.71929 0.73466 0.0
C662 C 0.70349 0.43249 0.33894 0.0
C663 C 0.69027 0.39613 0.32214 0.0
H664 H 0.75402 0.48957 0.34861 0.0
C665 C 0.72009 0.38906 0.30345 0.0
H666 H 0.68132 0.43895 0.35344 0.0
C667 C 0.76188 0.41798 0.30092 0.0
C668 C 0.77483 0.45469 0.31695 0.0
H669 H 0.71105 0.36129 0.29035 0.0
H670 H 0.78401 0.41164 0.28624 0.0
C671 C 0.74527 0.46146 0.33631 0.0
C672 C 0.24027 0.61988 0.82246 0.0
C673 C 0.24406 0.59274 0.7998 0.0
H674 H 0.20423 0.64964 0.8369 0.0
C675 C 0.21426 0.5757 0.77297 0.0
H676 H 0.26276 0.63357 0.84337 0.0
C677 C 0.18104 0.58512 0.76917 0.0
C678 C 0.1767 0.61162 0.79222 0.0
H679 H 0.21629 0.55473 0.75504 0.0
H680 H 0.15794 0.5707 0.74876 0.0
C681 C 0.20677 0.62906 0.81882 0.0
C682 C 0.25064 0.82608 0.29844 0.0
C683 C 0.25224 0.86162 0.29123 0.0
H684 H 0.21165 0.76543 0.30329 0.0
C685 C 0.21412 0.86292 0.28401 0.0
H686 H 0.27943 0.82409 0.30405 0.0
C687 C 0.17535 0.82924 0.28333 0.0
C688 C 0.17386 0.79368 0.29022 0.0
H689 H 0.21427 0.88982 0.27826 0.0
H690 H 0.14648 0.83103 0.27757 0.0
C691 C 0.21184 0.7925 0.29809 0.0
C692 C 0.80664 0.96337 0.65 0.0
C693 C 0.78773 0.92367 0.65556 0.0
H694 H 0.80354 0.00859 0.62383 0.0
C695 C 0.75294 0.89827 0.6349 0.0
H696 H 0.83333 0.98383 0.66556 0.0
C697 C 0.73612 0.91251 0.61042 0.0
C698 C 0.75342 0.9525 0.60631 0.0
H699 H 0.73777 0.8675 0.6384 0.0
H700 H 0.70893 0.89221 0.59526 0.0
C701 C 0.78954 0.97762 0.62587 0.0
C702 C 0.50023 0.3582 0.21225 0.0
C703 C 0.48888 0.33008 0.23653 0.0
H704 H 0.49184 0.37066 0.16143 0.0
C705 C 0.45747 0.29225 0.22797 0.0
H706 H 0.52405 0.38768 0.21805 0.0
C707 C 0.43899 0.2825 0.19533 0.0
C708 C 0.45181 0.31036 0.17069 0.0
H709 H 0.44798 0.26994 0.24615 0.0
H710 H 0.41581 0.25291 0.18902 0.0
C711 C 0.48197 0.34843 0.17971 0.0
C712 C 0.37723 0.40996 0.72073 0.0
C713 C 0.35484 0.43039 0.71251 0.0
H714 H 0.40092 0.37077 0.70315 0.0
C715 C 0.34043 0.42776 0.67889 0.0
H716 H 0.38883 0.41142 0.74639 0.0
C717 C 0.3472 0.40434 0.65427 0.0
C718 C 0.36865 0.38318 0.6627 0.0
H719 H 0.32325 0.44322 0.67169 0.0
H720 H 0.33566 0.4028 0.62856 0.0
C721 C 0.38422 0.3867 0.69601 0.0
C722 C 0.51201 0.05235 0.20833 0.0
C723 C 0.46745 0.03603 0.20646 0.0
H724 H 0.5699 0.07107 0.18084 0.0
C725 C 0.44745 0.02944 0.17435 0.0
H726 H 0.52844 0.05789 0.23263 0.0
C727 C 0.47118 0.03682 0.14478 0.0
C728 C 0.51546 0.0513 0.14662 0.0
H729 H 0.41322 0.01708 0.17191 0.0
H730 H 0.45476 0.03028 0.12039 0.0
C731 C 0.5358 0.06005 0.17869 0.0
C732 C 0.5813 0.16844 0.34502 0.0
C733 C 0.5682 0.19419 0.3607 0.0
H734 H 0.60017 0.12428 0.35181 0.0
C735 C 0.56156 0.19317 0.39592 0.0
H736 H 0.58675 0.1685 0.31796 0.0
C737 C 0.56861 0.16739 0.41514 0.0
C738 C 0.58309 0.1427 0.39952 0.0
H739 H 0.55159 0.21272 0.40876 0.0
H740 H 0.56412 0.16762 0.44234 0.0
C741 C 0.589 0.14315 0.36431 0.0
C742 C 0.27713 0.41131 0.87312 0.0
C743 C 0.29858 0.45151 0.88 0.0
H744 H 0.26638 0.35578 0.88805 0.0
C745 C 0.32048 0.46585 0.91122 0.0
H746 H 0.25976 0.39919 0.84939 0.0
C747 C 0.32376 0.44071 0.93377 0.0
C748 C 0.30547 0.40078 0.92544 0.0
H749 H 0.33697 0.49661 0.91749 0.0
H750 H 0.34224 0.45275 0.95703 0.0
C751 C 0.2807 0.38626 0.89549 0.0
C752 C 0.45242 0.11105 0.39989 0.0
C753 C 0.41622 0.0763 0.39119 0.0
H754 H 0.47796 0.16555 0.42746 0.0
C755 C 0.37767 0.06859 0.40677 0.0
H756 H 0.48243 0.11771 0.38799 0.0
C757 C 0.37529 0.09532 0.43048 0.0
C758 C 0.41117 0.13099 0.43841 0.0
H759 H 0.34937 0.04169 0.40084 0.0
H760 H 0.34515 0.08794 0.44239 0.0
C761 C 0.44984 0.13828 0.42285 0.0
C762 C 0.80604 0.02383 0.82687 0.0
C763 C 0.80544 0.98769 0.82855 0.0
H764 H 0.78452 0.06311 0.84816 0.0
C765 C 0.78389 0.96404 0.85516 0.0
H766 H 0.82239 0.04277 0.8067 0.0
C767 C 0.76219 0.97574 0.87889 0.0
C768 C 0.76174 0.01139 0.87659 0.0
H769 H 0.78292 0.93608 0.85723 0.0
H770 H 0.74552 0.95676 0.89896 0.0
C771 C 0.78448 0.03559 0.85068 0.0
loop_
_geom_bond_atom_site_label_1
_geom_bond_atom_site_label_2
_geom_bond_distance
_geom_bond_site_symmetry_2
_ccdc_geom_bond_type
O0 Cd1 2.300 . S
O0 C7 1.275 . S
Cd1 O0 2.300 . S
Cd1 O9 2.381 . S
Cd1 O10 2.378 . S
O2 Cd3 2.385 . S
O2 C7 1.255 . S
Cd3 O2 2.385 . S
Cd3 O4 2.317 . S
O4 Cd3 2.317 . S
O4 C5 1.232 . S
C5 O4 1.232 . S
C5 O6 1.218 . S
O6 C5 1.218 . S
C7 O0 1.275 . S
C7 O2 1.255 . S
C8 O9 1.258 . S
C8 O10 1.256 . S
O9 Cd1 2.381 . S
O9 C8 1.258 . S
O10 Cd1 2.378 . S
O10 C8 1.256 . S
O11 Cd12 2.300 . S
O11 C18 1.275 . S
Cd12 O11 2.300 . S
Cd12 O20 2.381 . S
Cd12 O21 2.378 . S
O13 Cd14 2.385 . S
O13 C18 1.255 1_565 S
Cd14 O13 2.385 . S
Cd14 O15 2.317 . S
O15 Cd14 2.317 . S
O15 C16 1.232 . S
C16 O15 1.232 . S
C16 O17 1.218 . S
O17 C16 1.218 . S
C18 O11 1.275 . S
C18 O13 1.255 1_545 S
C19 O20 1.258 . S
C19 O21 1.256 . S
O20 Cd12 2.381 . S
O20 C19 1.258 . S
O21 Cd12 2.378 . S
O21 C19 1.256 . S
O22 Cd23 2.300 . S
O22 C29 1.275 . S
Cd23 O22 2.300 . S
Cd23 O31 2.381 . S
Cd23 O32 2.378 . S
O24 Cd25 2.385 . S
O24 C29 1.255 . S
Cd25 O24 2.385 . S
Cd25 O26 2.317 . S
O26 Cd25 2.317 . S
O26 C27 1.232 . S
C27 O26 1.232 . S
C27 O28 1.218 . S
O28 C27 1.218 . S
C29 O22 1.275 . S
C29 O24 1.255 . S
C30 O31 1.258 . S
C30 O32 1.256 . S
O31 Cd23 2.381 . S
O31 C30 1.258 . S
O32 Cd23 2.378 . S
O32 C30 1.256 . S
O33 Cd34 2.300 . S
O33 C40 1.275 . S
Cd34 O33 2.300 . S
Cd34 O42 2.381 . S
Cd34 O43 2.378 . S
O35 Cd36 2.385 . S
O35 C40 1.255 . S
Cd36 O35 2.385 . S
Cd36 O37 2.317 . S
O37 Cd36 2.317 . S
O37 C38 1.232 . S
C38 O37 1.232 . S
C38 O39 1.218 . S
O39 C38 1.218 . S
C40 O33 1.275 . S
C40 O35 1.255 . S
C41 O42 1.258 . S
C41 O43 1.256 . S
O42 Cd34 2.381 . S
O42 C41 1.258 . S
O43 Cd34 2.378 . S
O43 C41 1.256 . S
O44 Cd45 2.300 . S
O44 C51 1.275 . S
Cd45 O44 2.300 . S
Cd45 O53 2.381 . S
Cd45 O54 2.378 . S
O46 Cd47 2.385 . S
O46 C51 1.255 . S
Cd47 O46 2.385 . S
Cd47 O48 2.317 . S
O48 Cd47 2.317 . S
O48 C49 1.232 . S
C49 O48 1.232 . S
C49 O50 1.218 . S
O50 C49 1.218 . S
C51 O44 1.275 . S
C51 O46 1.255 . S
C52 O53 1.258 . S
C52 O54 1.256 . S
O53 Cd45 2.381 . S
O53 C52 1.258 . S
O54 Cd45 2.378 . S
O54 C52 1.256 . S
O55 Cd56 2.300 . S
O55 C62 1.275 . S
Cd56 O55 2.300 . S
Cd56 O64 2.381 . S
Cd56 O65 2.378 . S
O57 Cd58 2.385 . S
O57 C62 1.255 . S
Cd58 O57 2.385 . S
Cd58 O59 2.317 . S
O59 Cd58 2.317 . S
O59 C60 1.232 . S
C60 O59 1.232 . S
C60 O61 1.218 . S
O61 C60 1.218 . S
C62 O55 1.275 . S
C62 O57 1.255 . S
C63 O64 1.258 . S
C63 O65 1.256 . S
O64 Cd56 2.381 . S
O64 C63 1.258 . S
O65 Cd56 2.378 . S
O65 C63 1.256 . S
O66 Cd67 2.300 . S
O66 C73 1.275 . S
Cd67 O66 2.300 . S
Cd67 O75 2.381 . S
Cd67 O76 2.378 . S
O68 Cd69 2.385 . S
O68 C73 1.255 . S
Cd69 O68 2.385 . S
Cd69 O70 2.317 . S
O70 Cd69 2.317 . S
O70 C71 1.232 . S
C71 O70 1.232 . S
C71 O72 1.218 . S
O72 C71 1.218 . S
C73 O66 1.275 . S
C73 O68 1.255 . S
C74 O75 1.258 . S
C74 O76 1.256 . S
O75 Cd67 2.381 . S
O75 C74 1.258 . S
O76 Cd67 2.378 . S
O76 C74 1.256 . S
O77 Cd78 2.300 1_565 S
O77 C84 1.275 . S
Cd78 O77 2.300 1_545 S
Cd78 O86 2.381 . S
Cd78 O87 2.378 . S
O79 Cd80 2.385 . S
O79 C84 1.255 . S
Cd80 O79 2.385 . S
Cd80 O81 2.317 . S
O81 Cd80 2.317 . S
O81 C82 1.232 . S
C82 O81 1.232 . S
C82 O83 1.218 . S
O83 C82 1.218 . S
C84 O77 1.275 . S
C84 O79 1.255 . S
C85 O86 1.258 . S
C85 O87 1.256 . S
O86 Cd78 2.381 . S
O86 C85 1.258 . S
O87 Cd78 2.378 . S
O87 C85 1.256 . S
H88 O114 0.856 . S
H89 O117 0.854 . S
H90 C125 0.930 . S
H91 C126 0.930 . S
H92 C128 0.930 . S
H93 C129 0.930 . S
H94 C131 0.931 . S
H95 C132 0.930 . S
H96 C134 0.930 . S
H97 C135 0.929 . S
H98 C137 0.930 . S
H99 C138 0.931 . S
H100 C140 0.930 . S
H101 C141 0.929 . S
H102 C143 0.931 . S
H103 C144 0.930 . S
H104 C146 0.930 . S
H105 C147 0.932 . S
H106 C149 0.930 . S
H107 C150 0.929 . S
H108 C152 0.931 . S
H109 C153 0.930 . S
H110 C155 0.929 . S
H111 C156 0.931 . S
H112 C158 0.930 . S
H113 C159 0.929 . S
O114 H88 0.856 . S
O114 C160 1.300 . S
O115 C160 1.209 . S
O116 C161 1.199 . S
O117 H89 0.854 . S
O117 C161 1.297 . S
C118 C119 1.397 1_455 S
C118 C123 1.378 1_455 S
C118 C124 1.504 . S
C119 C118 1.397 1_655 S
C119 C120 1.396 . S
C119 C130 1.492 . S
C120 C119 1.396 . S
C120 C121 1.397 . S
C120 C136 1.509 . S
C121 C120 1.397 . S
C121 C122 1.412 . S
C121 C142 1.485 . S
C122 C121 1.412 . S
C122 C123 1.416 . S
C122 C148 1.490 . S
C123 C118 1.378 1_655 S
C123 C122 1.416 . S
C123 C154 1.504 1_655 S
C124 C118 1.504 . S
C124 C125 1.363 . S
C124 C129 1.390 . S
C125 H90 0.930 . S
C125 C124 1.363 . S
C125 C126 1.372 . S
C126 H91 0.930 . S
C126 C125 1.372 . S
C126 C127 1.383 . S
C127 C126 1.383 . S
C127 C128 1.395 . S
C128 H92 0.930 . S
C128 C127 1.395 . S
C128 C129 1.362 . S
C129 H93 0.930 . S
C129 C124 1.390 . S
C129 C128 1.362 . S
C130 C119 1.492 . S
C130 C131 1.377 . S
C130 C135 1.397 . S
C131 H94 0.931 . S
C131 C130 1.377 . S
C131 C132 1.376 . S
C132 H95 0.930 . S
C132 C131 1.376 . S
C132 C133 1.376 . S
C133 C132 1.376 . S
C133 C134 1.378 . S
C133 C160 1.486 . S
C134 H96 0.930 . S
C134 C133 1.378 . S
C134 C135 1.376 . S
C135 H97 0.929 . S
C135 C130 1.397 . S
C135 C134 1.376 . S
C136 C120 1.509 . S
C136 C137 1.391 . S
C136 C141 1.386 . S
C137 H98 0.930 . S
C137 C136 1.391 . S
C137 C138 1.375 . S
C138 H99 0.931 . S
C138 C137 1.375 . S
C138 C139 1.375 . S
C139 C138 1.375 . S
C139 C140 1.361 . S
C140 H100 0.930 . S
C140 C139 1.361 . S
C140 C141 1.399 . S
C141 H101 0.929 . S
C141 C136 1.386 . S
C141 C140 1.399 . S
C142 C121 1.485 . S
C142 C143 1.394 . S
C142 C147 1.360 . S
C143 H102 0.931 . S
C143 C142 1.394 . S
C143 C144 1.372 . S
C144 H103 0.930 . S
C144 C143 1.372 . S
C144 C145 1.397 . S
C145 C144 1.397 . S
C145 C146 1.390 . S
C145 C161 1.476 . S
C146 H104 0.930 . S
C146 C145 1.390 . S
C146 C147 1.366 . S
C147 H105 0.932 . S
C147 C142 1.360 . S
C147 C146 1.366 . S
C148 C122 1.490 . S
C148 C149 1.380 . S
C148 C153 1.386 . S
C149 H106 0.930 . S
C149 C148 1.380 . S
C149 C150 1.381 . S
C150 H107 0.929 . S
C150 C149 1.381 . S
C150 C151 1.371 . S
C151 C150 1.371 . S
C151 C152 1.380 . S
C152 H108 0.931 . S
C152 C151 1.380 . S
C152 C153 1.387 . S
C153 H109 0.930 . S
C153 C148 1.386 . S
C153 C152 1.387 . S
C154 C123 1.504 1_455 S
C154 C155 1.377 . S
C154 C159 1.361 . S
C155 H110 0.929 . S
C155 C154 1.377 . S
C155 C156 1.386 . S
C156 H111 0.931 . S
C156 C155 1.386 . S
C156 C157 1.363 . S
C157 C156 1.363 . S
C157 C158 1.385 . S
C158 H112 0.930 . S
C158 C157 1.385 . S
C158 C159 1.396 . S
C159 H113 0.929 . S
C159 C154 1.361 . S
C159 C158 1.396 . S
C160 O114 1.300 . S
C160 O115 1.209 . S
C160 C133 1.486 . S
C161 O116 1.199 . S
C161 O117 1.297 . S
C161 C145 1.476 . S
H162 O188 0.856 . S
H163 O191 0.854 . S
H164 C199 0.930 . S
H165 C200 0.930 . S
H166 C202 0.930 . S
H167 C203 0.930 . S
H168 C205 0.931 . S
H169 C206 0.930 . S
H170 C208 0.930 . S
H171 C209 0.929 . S
H172 C211 0.930 . S
H173 C212 0.931 . S
H174 C214 0.930 . S
H175 C215 0.929 . S
H176 C217 0.931 . S
H177 C218 0.930 . S
H178 C220 0.930 . S
H179 C221 0.932 . S
H180 C223 0.930 . S
H181 C224 0.929 . S
H182 C226 0.931 . S
H183 C227 0.930 . S
H184 C229 0.929 . S
H185 C230 0.931 . S
H186 C232 0.930 . S
H187 C233 0.929 . S
O188 H162 0.856 . S
O188 C234 1.300 . S
O189 C234 1.209 . S
O190 C235 1.199 . S
O191 H163 0.854 . S
O191 C235 1.297 . S
C192 C193 1.404 1_455 S
C192 C197 1.397 1_455 S
C192 C198 1.492 . S
C193 C192 1.404 1_655 S
C193 C194 1.396 . S
C193 C204 1.492 . S
C194 C193 1.396 . S
C194 C195 1.397 . S
C194 C210 1.509 . S
C195 C194 1.397 . S
C195 C196 1.412 . S
C195 C216 1.485 . S
C196 C195 1.412 . S
C196 C197 1.388 . S
C196 C222 1.490 . S
C197 C192 1.397 1_655 S
C197 C196 1.388 . S
C197 C228 1.519 1_655 S
C198 C192 1.492 . S
C198 C199 1.363 . S
C198 C203 1.390 . S
C199 H164 0.930 . S
C199 C198 1.363 . S
C199 C200 1.372 . S
C200 H165 0.930 . S
C200 C199 1.372 . S
C200 C201 1.383 . S
C201 C200 1.383 . S
C201 C202 1.395 . S
C202 H166 0.930 . S
C202 C201 1.395 . S
C202 C203 1.362 . S
C203 H167 0.930 . S
C203 C198 1.390 . S
C203 C202 1.362 . S
C204 C193 1.492 . S
C204 C205 1.377 . S
C204 C209 1.397 1_655 S
C205 H168 0.931 . S
C205 C204 1.377 . S
C205 C206 1.376 . S
C206 H169 0.930 . S
C206 C205 1.376 . S
C206 C207 1.376 1_655 S
C207 C206 1.376 1_455 S
C207 C208 1.378 . S
C207 C234 1.486 . S
C208 H170 0.930 . S
C208 C207 1.378 . S
C208 C209 1.376 . S
C209 H171 0.929 . S
C209 C204 1.397 1_455 S
C209 C208 1.376 . S
C210 C194 1.509 . S
C210 C211 1.391 . S
C210 C215 1.386 . S
C211 H172 0.930 . S
C211 C210 1.391 . S
C211 C212 1.375 . S
C212 H173 0.931 . S
C212 C211 1.375 . S
C212 C213 1.375 . S
C213 C212 1.375 . S
C213 C214 1.361 . S
C214 H174 0.930 . S
C214 C213 1.361 . S
C214 C215 1.399 . S
C215 H175 0.929 . S
C215 C210 1.386 . S
C215 C214 1.399 . S
C216 C195 1.485 . S
C216 C217 1.394 . S
C216 C221 1.360 . S
C217 H176 0.931 . S
C217 C216 1.394 . S
C217 C218 1.372 . S
C218 H177 0.930 . S
C218 C217 1.372 . S
C218 C219 1.397 . S
C219 C218 1.397 . S
C219 C220 1.390 . S
C219 C235 1.476 . S
C220 H178 0.930 . S
C220 C219 1.390 . S
C220 C221 1.366 . S
C221 H179 0.932 . S
C221 C216 1.360 . S
C221 C220 1.366 . S
C222 C196 1.490 . S
C222 C223 1.380 . S
C222 C227 1.386 . S
C223 H180 0.930 . S
C223 C222 1.380 . S
C223 C224 1.381 . S
C224 H181 0.929 . S
C224 C223 1.381 . S
C224 C225 1.371 . S
C225 C224 1.371 . S
C225 C226 1.380 . S
C226 H182 0.931 . S
C226 C225 1.380 . S
C226 C227 1.387 . S
C227 H183 0.930 . S
C227 C222 1.386 . S
C227 C226 1.387 . S
C228 C197 1.519 1_455 S
C228 C229 1.377 . S
C228 C233 1.361 . S
C229 H184 0.929 . S
C229 C228 1.377 . S
C229 C230 1.386 . S
C230 H185 0.931 . S
C230 C229 1.386 . S
C230 C231 1.363 . S
C231 C230 1.363 . S
C231 C232 1.385 . S
C232 H186 0.930 . S
C232 C231 1.385 . S
C232 C233 1.396 . S
C233 H187 0.929 . S
C233 C228 1.361 . S
C233 C232 1.396 . S
C234 O188 1.300 . S
C234 O189 1.209 . S
C234 C207 1.486 . S
C235 O190 1.199 . S
C235 O191 1.297 . S
C235 C219 1.476 . S
H236 O262 0.856 . S
H237 O265 0.854 . S
H238 C273 0.930 . S
H239 C274 0.930 . S
H240 C276 0.930 . S
H241 C277 0.930 . S
H242 C279 0.931 . S
H243 C280 0.930 . S
H244 C282 0.930 . S
H245 C283 0.929 . S
H246 C285 0.930 . S
H247 C286 0.931 . S
H248 C288 0.930 . S
H249 C289 0.929 . S
H250 C291 0.931 . S
H251 C292 0.930 . S
H252 C294 0.930 . S
H253 C295 0.932 . S
H254 C297 0.930 . S
H255 C298 0.929 . S
H256 C300 0.931 . S
H257 C301 0.930 . S
H258 C303 0.929 . S
H259 C304 0.931 . S
H260 C306 0.930 . S
H261 C307 0.929 . S
O262 H236 0.856 . S
O262 C308 1.300 . S
O263 C308 1.209 . S
O264 C309 1.199 . S
O265 H237 0.854 . S
O265 C309 1.297 . S
C266 C267 1.404 . S
C266 C271 1.397 . S
C266 C272 1.492 . S
C267 C266 1.404 . S
C267 C268 1.396 . S
C267 C278 1.492 . S
C268 C267 1.396 . S
C268 C269 1.397 . S
C268 C284 1.509 . S
C269 C268 1.397 . S
C269 C270 1.412 . S
C269 C290 1.485 . S
C270 C269 1.412 . S
C270 C271 1.388 . S
C270 C296 1.490 . S
C271 C266 1.397 . S
C271 C270 1.388 . S
C271 C302 1.519 . S
C272 C266 1.492 . S
C272 C273 1.363 . S
C272 C277 1.390 . S
C273 H238 0.930 . S
C273 C272 1.363 . S
C273 C274 1.372 . S
C274 H239 0.930 . S
C274 C273 1.372 . S
C274 C275 1.383 . S
C275 C274 1.383 . S
C275 C276 1.395 . S
C276 H240 0.930 . S
C276 C275 1.395 . S
C276 C277 1.362 . S
C277 H241 0.930 . S
C277 C272 1.390 . S
C277 C276 1.362 . S
C278 C267 1.492 . S
C278 C279 1.377 . S
C278 C283 1.397 . S
C279 H242 0.931 . S
C279 C278 1.377 . S
C279 C280 1.376 . S
C280 H243 0.930 . S
C280 C279 1.376 . S
C280 C281 1.376 . S
C281 C280 1.376 . S
C281 C282 1.378 . S
C281 C308 1.486 . S
C282 H244 0.930 . S
C282 C281 1.378 . S
C282 C283 1.376 . S
C283 H245 0.929 . S
C283 C278 1.397 . S
C283 C282 1.376 . S
C284 C268 1.509 . S
C284 C285 1.391 . S
C284 C289 1.386 . S
C285 H246 0.930 . S
C285 C284 1.391 . S
C285 C286 1.375 . S
C286 H247 0.931 . S
C286 C285 1.375 . S
C286 C287 1.375 . S
C287 C286 1.375 . S
C287 C288 1.361 . S
C288 H248 0.930 . S
C288 C287 1.361 . S
C288 C289 1.399 . S
C289 H249 0.929 . S
C289 C284 1.386 . S
C289 C288 1.399 . S
C290 C269 1.485 . S
C290 C291 1.394 . S
C290 C295 1.360 . S
C291 H250 0.931 . S
C291 C290 1.394 . S
C291 C292 1.372 . S
C292 H251 0.930 . S
C292 C291 1.372 . S
C292 C293 1.397 . S
C293 C292 1.397 . S
C293 C294 1.390 . S
C293 C309 1.476 . S
C294 H252 0.930 . S
C294 C293 1.390 . S
C294 C295 1.366 . S
C295 H253 0.932 . S
C295 C290 1.360 . S
C295 C294 1.366 . S
C296 C270 1.490 . S
C296 C297 1.380 . S
C296 C301 1.386 . S
C297 H254 0.930 . S
C297 C296 1.380 . S
C297 C298 1.381 . S
C298 H255 0.929 . S
C298 C297 1.381 . S
C298 C299 1.371 . S
C299 C298 1.371 . S
C299 C300 1.380 . S
C300 H256 0.931 . S
C300 C299 1.380 . S
C300 C301 1.387 . S
C301 H257 0.930 . S
C301 C296 1.386 . S
C301 C300 1.387 . S
C302 C271 1.519 . S
C302 C303 1.377 . S
C302 C307 1.361 . S
C303 H258 0.929 . S
C303 C302 1.377 . S
C303 C304 1.386 . S
C304 H259 0.931 . S
C304 C303 1.386 . S
C304 C305 1.363 . S
C305 C304 1.363 . S
C305 C306 1.385 . S
C306 H260 0.930 . S
C306 C305 1.385 . S
C306 C307 1.396 . S
C307 H261 0.929 . S
C307 C302 1.361 . S
C307 C306 1.396 . S
C308 O262 1.300 . S
C308 O263 1.209 . S
C308 C281 1.486 . S
C309 O264 1.199 . S
C309 O265 1.297 . S
C309 C293 1.476 . S
H310 O336 0.856 1_565 S
H311 O339 0.854 . S
H312 C347 0.930 . S
H313 C348 0.930 . S
H314 C350 0.930 1_554 S
H315 C351 0.930 . S
H316 C353 0.931 . S
H317 C354 0.930 . S
H318 C356 0.930 . S
H319 C357 0.929 . S
H320 C359 0.930 1_545 S
H321 C360 0.931 1_545 S
H322 C362 0.930 . S
H323 C363 0.929 . S
H324 C365 0.931 . S
H325 C366 0.930 1_545 S
H326 C368 0.930 . S
H327 C369 0.932 . S
H328 C371 0.930 . S
H329 C372 0.929 . S
H330 C374 0.931 . S
H331 C375 0.930 . S
H332 C377 0.929 . S
H333 C378 0.931 . S
H334 C380 0.930 . S
H335 C381 0.929 . S
O336 H310 0.856 1_545 S
O336 C382 1.300 1_545 S
O337 C382 1.209 . S
O338 C383 1.199 . S
O339 H311 0.854 . S
O339 C383 1.297 . S
C340 C341 1.404 1_554 S
C340 C345 1.397 . S
C340 C346 1.492 1_564 S
C341 C340 1.404 1_556 S
C341 C342 1.396 . S
C341 C352 1.492 . S
C342 C341 1.396 . S
C342 C343 1.397 1_556 S
C342 C358 1.509 . S
C343 C342 1.397 1_554 S
C343 C344 1.412 . S
C343 C364 1.485 . S
C344 C343 1.412 . S
C344 C345 1.388 . S
C344 C370 1.490 . S
C345 C340 1.397 . S
C345 C344 1.388 . S
C345 C376 1.519 1_565 S
C346 C340 1.492 1_546 S
C346 C347 1.363 . S
C346 C351 1.390 1_546 S
C347 H312 0.930 . S
C347 C346 1.363 . S
C347 C348 1.372 . S
C348 H313 0.930 . S
C348 C347 1.372 . S
C348 C349 1.383 . S
C349 C348 1.383 . S
C349 C350 1.395 1_545 S
C350 H314 0.930 1_556 S
C350 C349 1.395 1_565 S
C350 C351 1.362 1_556 S
C351 H315 0.930 . S
C351 C346 1.390 1_564 S
C351 C350 1.362 1_554 S
C352 C341 1.492 . S
C352 C353 1.377 1_565 S
C352 C357 1.397 . S
C353 H316 0.931 . S
C353 C352 1.377 1_545 S
C353 C354 1.376 . S
C354 H317 0.930 . S
C354 C353 1.376 . S
C354 C355 1.376 1_545 S
C355 C354 1.376 1_565 S
C355 C356 1.378 . S
C355 C382 1.486 . S
C356 H318 0.930 . S
C356 C355 1.378 . S
C356 C357 1.376 . S
C357 H319 0.929 . S
C357 C352 1.397 . S
C357 C356 1.376 . S
C358 C342 1.509 . S
C358 C359 1.391 . S
C358 C363 1.386 . S
C359 H320 0.930 1_565 S
C359 C358 1.391 . S
C359 C360 1.375 . S
C360 H321 0.931 1_565 S
C360 C359 1.375 . S
C360 C361 1.375 . S
C361 C360 1.375 . S
C361 C362 1.361 . S
C362 H322 0.930 . S
C362 C361 1.361 . S
C362 C363 1.399 . S
C363 H323 0.929 . S
C363 C358 1.386 . S
C363 C362 1.399 . S
C364 C343 1.485 . S
C364 C365 1.394 1_565 S
C364 C369 1.360 . S
C365 H324 0.931 . S
C365 C364 1.394 1_545 S
C365 C366 1.372 1_545 S
C366 H325 0.930 1_565 S
C366 C365 1.372 1_565 S
C366 C367 1.397 . S
C367 C366 1.397 . S
C367 C368 1.390 . S
C367 C383 1.476 . S
C368 H326 0.930 . S
C368 C367 1.390 . S
C368 C369 1.366 . S
C369 H327 0.932 . S
C369 C364 1.360 . S
C369 C368 1.366 . S
C370 C344 1.490 . S
C370 C371 1.380 1_565 S
C370 C375 1.386 . S
C371 H328 0.930 . S
C371 C370 1.380 1_545 S
C371 C372 1.381 . S
C372 H329 0.929 . S
C372 C371 1.381 . S
C372 C373 1.371 . S
C373 C372 1.371 . S
C373 C374 1.380 1_545 S
C374 H330 0.931 . S
C374 C373 1.380 1_565 S
C374 C375 1.387 . S
C375 H331 0.930 . S
C375 C370 1.386 . S
C375 C374 1.387 . S
C376 C345 1.519 1_545 S
C376 C377 1.377 . S
C376 C381 1.361 1_545 S
C377 H332 0.929 . S
C377 C376 1.377 . S
C377 C378 1.386 . S
C378 H333 0.931 . S
C378 C377 1.386 . S
C378 C379 1.363 . S
C379 C378 1.363 . S
C379 C380 1.385 1_545 S
C380 H334 0.930 . S
C380 C379 1.385 1_565 S
C380 C381 1.396 . S
C381 H335 0.929 . S
C381 C376 1.361 1_565 S
C381 C380 1.396 . S
C382 O336 1.300 1_565 S
C382 O337 1.209 . S
C382 C355 1.486 . S
C383 O338 1.199 . S
C383 O339 1.297 . S
C383 C367 1.476 . S
H384 O410 0.856 . S
H385 O413 0.854 . S
H386 C421 0.930 . S
H387 C422 0.930 . S
H388 C424 0.930 . S
H389 C425 0.930 . S
H390 C427 0.931 . S
H391 C428 0.930 . S
H392 C430 0.930 . S
H393 C431 0.929 . S
H394 C433 0.930 . S
H395 C434 0.931 . S
H396 C436 0.930 . S
H397 C437 0.929 . S
H398 C439 0.931 . S
H399 C440 0.930 . S
H400 C442 0.930 . S
H401 C443 0.932 . S
H402 C445 0.930 . S
H403 C446 0.929 . S
H404 C448 0.931 . S
H405 C449 0.930 . S
H406 C451 0.929 . S
H407 C452 0.931 . S
H408 C454 0.930 . S
H409 C455 0.929 . S
O410 H384 0.856 . S
O410 C456 1.300 . S
O411 C456 1.209 . S
O412 C457 1.199 . S
O413 H385 0.854 . S
O413 C457 1.297 . S
C414 C415 1.404 . S
C414 C419 1.397 . S
C414 C420 1.492 1_545 S
C415 C414 1.404 . S
C415 C416 1.396 . S
C415 C426 1.492 . S
C416 C415 1.396 . S
C416 C417 1.397 . S
C416 C432 1.509 . S
C417 C416 1.397 . S
C417 C418 1.412 . S
C417 C438 1.485 . S
C418 C417 1.412 . S
C418 C419 1.388 . S
C418 C444 1.490 . S
C419 C414 1.397 . S
C419 C418 1.388 . S
C419 C450 1.519 1_545 S
C420 C414 1.492 1_565 S
C420 C421 1.363 . S
C420 C425 1.390 . S
C421 H386 0.930 . S
C421 C420 1.363 . S
C421 C422 1.372 . S
C422 H387 0.930 . S
C422 C421 1.372 . S
C422 C423 1.383 . S
C423 C422 1.383 . S
C423 C424 1.395 . S
C424 H388 0.930 . S
C424 C423 1.395 . S
C424 C425 1.362 . S
C425 H389 0.930 . S
C425 C420 1.390 . S
C425 C424 1.362 . S
C426 C415 1.492 . S
C426 C427 1.377 . S
C426 C431 1.397 . S
C427 H390 0.931 . S
C427 C426 1.377 . S
C427 C428 1.376 . S
C428 H391 0.930 . S
C428 C427 1.376 . S
C428 C429 1.376 . S
C429 C428 1.376 . S
C429 C430 1.378 . S
C429 C456 1.486 . S
C430 H392 0.930 . S
C430 C429 1.378 . S
C430 C431 1.376 . S
C431 H393 0.929 . S
C431 C426 1.397 . S
C431 C430 1.376 . S
C432 C416 1.509 . S
C432 C433 1.391 . S
C432 C437 1.386 . S
C433 H394 0.930 . S
C433 C432 1.391 . S
C433 C434 1.375 . S
C434 H395 0.931 . S
C434 C433 1.375 . S
C434 C435 1.375 . S
C435 C434 1.375 . S
C435 C436 1.361 . S
C436 H396 0.930 . S
C436 C435 1.361 . S
C436 C437 1.399 . S
C437 H397 0.929 . S
C437 C432 1.386 . S
C437 C436 1.399 . S
C438 C417 1.485 . S
C438 C439 1.394 . S
C438 C443 1.360 . S
C439 H398 0.931 . S
C439 C438 1.394 . S
C439 C440 1.372 . S
C440 H399 0.930 . S
C440 C439 1.372 . S
C440 C441 1.397 . S
C441 C440 1.397 . S
C441 C442 1.390 . S
C441 C457 1.476 . S
C442 H400 0.930 . S
C442 C441 1.390 . S
C442 C443 1.366 . S
C443 H401 0.932 . S
C443 C438 1.360 . S
C443 C442 1.366 . S
C444 C418 1.490 . S
C444 C445 1.380 1_545 S
C444 C449 1.386 . S
C445 H402 0.930 . S
C445 C444 1.380 1_565 S
C445 C446 1.381 . S
C446 H403 0.929 . S
C446 C445 1.381 . S
C446 C447 1.371 1_565 S
C447 C446 1.371 1_545 S
C447 C448 1.380 . S
C448 H404 0.931 . S
C448 C447 1.380 . S
C448 C449 1.387 . S
C449 H405 0.930 . S
C449 C444 1.386 . S
C449 C448 1.387 . S
C450 C419 1.519 1_565 S
C450 C451 1.377 . S
C450 C455 1.361 1_565 S
C451 H406 0.929 . S
C451 C450 1.377 . S
C451 C452 1.386 . S
C452 H407 0.931 . S
C452 C451 1.386 . S
C452 C453 1.363 . S
C453 C452 1.363 . S
C453 C454 1.385 . S
C454 H408 0.930 . S
C454 C453 1.385 . S
C454 C455 1.396 1_565 S
C455 H409 0.929 . S
C455 C450 1.361 1_545 S
C455 C454 1.396 1_545 S
C456 O410 1.300 . S
C456 O411 1.209 . S
C456 C429 1.486 . S
C457 O412 1.199 . S
C457 O413 1.297 . S
C457 C441 1.476 . S
H458 O484 0.856 . S
H459 O487 0.854 . S
H460 C495 0.930 . S
H461 C496 0.930 . S
H462 C498 0.930 . S
H463 C499 0.930 . S
H464 C501 0.931 . S
H465 C502 0.930 . S
H466 C504 0.930 . S
H467 C505 0.929 . S
H468 C507 0.930 . S
H469 C508 0.931 . S
H470 C510 0.930 . S
H471 C511 0.929 . S
H472 C513 0.931 . S
H473 C514 0.930 . S
H474 C516 0.930 . S
H475 C517 0.932 . S
H476 C519 0.930 . S
H477 C520 0.929 . S
H478 C522 0.931 . S
H479 C523 0.930 . S
H480 C525 0.929 . S
H481 C526 0.931 . S
H482 C528 0.930 . S
H483 C529 0.929 . S
O484 H458 0.856 . S
O484 C530 1.300 . S
O485 C530 1.209 . S
O486 C531 1.199 . S
O487 H459 0.854 . S
O487 C531 1.297 . S
C488 C489 1.404 . S
C488 C493 1.397 1_556 S
C488 C494 1.492 . S
C489 C488 1.404 . S
C489 C490 1.396 . S
C489 C500 1.492 . S
C490 C489 1.396 . S
C490 C491 1.397 1_556 S
C490 C506 1.509 . S
C491 C490 1.397 1_554 S
C491 C492 1.412 . S
C491 C512 1.485 . S
C492 C491 1.412 . S
C492 C493 1.388 . S
C492 C518 1.490 . S
C493 C488 1.397 1_554 S
C493 C492 1.388 . S
C493 C524 1.519 . S
C494 C488 1.492 . S
C494 C495 1.363 . S
C494 C499 1.390 . S
C495 H460 0.930 . S
C495 C494 1.363 . S
C495 C496 1.372 . S
C496 H461 0.930 . S
C496 C495 1.372 . S
C496 C497 1.383 . S
C497 C496 1.383 . S
C497 C498 1.395 . S
C498 H462 0.930 . S
C498 C497 1.395 . S
C498 C499 1.362 . S
C499 H463 0.930 . S
C499 C494 1.390 . S
C499 C498 1.362 . S
C500 C489 1.492 . S
C500 C501 1.377 . S
C500 C505 1.397 . S
C501 H464 0.931 . S
C501 C500 1.377 . S
C501 C502 1.376 . S
C502 H465 0.930 . S
C502 C501 1.376 . S
C502 C503 1.376 . S
C503 C502 1.376 . S
C503 C504 1.378 . S
C503 C530 1.486 . S
C504 H466 0.930 . S
C504 C503 1.378 . S
C504 C505 1.376 . S
C505 H467 0.929 . S
C505 C500 1.397 . S
C505 C504 1.376 . S
C506 C490 1.509 . S
C506 C507 1.391 . S
C506 C511 1.386 . S
C507 H468 0.930 . S
C507 C506 1.391 . S
C507 C508 1.375 . S
C508 H469 0.931 . S
C508 C507 1.375 . S
C508 C509 1.375 . S
C509 C508 1.375 . S
C509 C510 1.361 . S
C510 H470 0.930 . S
C510 C509 1.361 . S
C510 C511 1.399 . S
C511 H471 0.929 . S
C511 C506 1.386 . S
C511 C510 1.399 . S
C512 C491 1.485 . S
C512 C513 1.394 . S
C512 C517 1.360 . S
C513 H472 0.931 . S
C513 C512 1.394 . S
C513 C514 1.372 . S
C514 H473 0.930 . S
C514 C513 1.372 . S
C514 C515 1.397 . S
C515 C514 1.397 . S
C515 C516 1.390 . S
C515 C531 1.476 . S
C516 H474 0.930 . S
C516 C515 1.390 . S
C516 C517 1.366 . S
C517 H475 0.932 . S
C517 C512 1.360 . S
C517 C516 1.366 . S
C518 C492 1.490 . S
C518 C519 1.380 . S
C518 C523 1.386 . S
C519 H476 0.930 . S
C519 C518 1.380 . S
C519 C520 1.381 . S
C520 H477 0.929 . S
C520 C519 1.381 . S
C520 C521 1.371 . S
C521 C520 1.371 . S
C521 C522 1.380 . S
C522 H478 0.931 . S
C522 C521 1.380 . S
C522 C523 1.387 . S
C523 H479 0.930 . S
C523 C518 1.386 . S
C523 C522 1.387 . S
C524 C493 1.519 . S
C524 C525 1.377 . S
C524 C529 1.361 . S
C525 H480 0.929 . S
C525 C524 1.377 . S
C525 C526 1.386 . S
C526 H481 0.931 . S
C526 C525 1.386 . S
C526 C527 1.363 . S
C527 C526 1.363 . S
C527 C528 1.385 . S
C528 H482 0.930 . S
C528 C527 1.385 . S
C528 C529 1.396 . S
C529 H483 0.929 . S
C529 C524 1.361 . S
C529 C528 1.396 . S
C530 O484 1.300 . S
C530 O485 1.209 . S
C530 C503 1.486 . S
C531 O486 1.199 . S
C531 O487 1.297 . S
C531 C515 1.476 . S
C532 C533 1.387 . S
C532 H536 0.950 . S
C532 C541 1.390 . S
C533 C532 1.387 . S
C533 C535 1.387 . S
H534 C541 0.950 . S
C535 C533 1.387 . S
C535 C537 1.390 . S
C535 H539 0.950 . S
H536 C532 0.950 . S
C537 C535 1.390 . S
C537 C538 1.387 . S
C537 H540 0.950 . S
C538 C537 1.387 . S
C538 C541 1.387 . S
H539 C535 0.950 . S
H540 C537 0.950 . S
C541 C532 1.390 . S
C541 H534 0.950 . S
C541 C538 1.387 . S
C542 C543 1.387 . S
C542 H546 0.950 . S
C542 C551 1.390 . S
C543 C542 1.387 . S
C543 C545 1.387 . S
H544 C551 0.950 . S
C545 C543 1.387 . S
C545 C547 1.390 . S
C545 H549 0.950 . S
H546 C542 0.950 . S
C547 C545 1.390 . S
C547 C548 1.387 . S
C547 H550 0.950 . S
C548 C547 1.387 . S
C548 C551 1.387 . S
H549 C545 0.950 . S
H550 C547 0.950 . S
C551 C542 1.390 . S
C551 H544 0.950 . S
C551 C548 1.387 . S
C552 C553 1.387 . S
C552 H556 0.950 . S
C552 C561 1.390 . S
C553 C552 1.387 . S
C553 C555 1.387 . S
H554 C561 0.950 . S
C555 C553 1.387 . S
C555 C557 1.390 . S
C555 H559 0.950 . S
H556 C552 0.950 . S
C557 C555 1.390 . S
C557 C558 1.387 . S
C557 H560 0.950 . S
C558 C557 1.387 . S
C558 C561 1.387 . S
H559 C555 0.950 . S
H560 C557 0.950 . S
C561 C552 1.390 . S
C561 H554 0.950 . S
C561 C558 1.387 . S
C562 C563 1.387 . S
C562 H566 0.950 . S
C562 C571 1.390 . S
C563 C562 1.387 . S
C563 C565 1.387 . S
H564 C571 0.950 . S
C565 C563 1.387 . S
C565 C567 1.390 . S
C565 H569 0.950 . S
H566 C562 0.950 . S
C567 C565 1.390 . S
C567 C568 1.387 . S
C567 H570 0.950 . S
C568 C567 1.387 . S
C568 C571 1.387 . S
H569 C565 0.950 . S
H570 C567 0.950 . S
C571 C562 1.390 . S
C571 H564 0.950 . S
C571 C568 1.387 . S
C572 C573 1.387 . S
C572 H576 0.950 . S
C572 C581 1.390 . S
C573 C572 1.387 . S
C573 C575 1.387 . S
H574 C581 0.950 . S
C575 C573 1.387 . S
C575 C577 1.390 . S
C575 H579 0.950 . S
H576 C572 0.950 . S
C577 C575 1.390 . S
C577 C578 1.387 . S
C577 H580 0.950 . S
C578 C577 1.387 . S
C578 C581 1.387 . S
H579 C575 0.950 . S
H580 C577 0.950 . S
C581 C572 1.390 . S
C581 H574 0.950 . S
C581 C578 1.387 . S
C582 C583 1.387 . S
C582 H586 0.950 . S
C582 C591 1.390 . S
C583 C582 1.387 . S
C583 C585 1.387 1_545 S
H584 C591 0.950 . S
C585 C583 1.387 1_565 S
C585 C587 1.390 . S
C585 H589 0.950 . S
H586 C582 0.950 . S
C587 C585 1.390 . S
C587 C588 1.387 1_565 S
C587 H590 0.950 . S
C588 C587 1.387 1_545 S
C588 C591 1.387 . S
H589 C585 0.950 . S
H590 C587 0.950 . S
C591 C582 1.390 . S
C591 H584 0.950 . S
C591 C588 1.387 . S
C592 C593 1.387 . S
C592 H596 0.950 . S
C592 C601 1.390 . S
C593 C592 1.387 . S
C593 C595 1.387 . S
H594 C601 0.950 . S
C595 C593 1.387 . S
C595 C597 1.390 . S
C595 H599 0.950 . S
H596 C592 0.950 . S
C597 C595 1.390 . S
C597 C598 1.387 . S
C597 H600 0.950 . S
C598 C597 1.387 . S
C598 C601 1.387 . S
H599 C595 0.950 . S
H600 C597 0.950 . S
C601 C592 1.390 . S
C601 H594 0.950 . S
C601 C598 1.387 . S
C602 C603 1.387 . S
C602 H606 0.950 . S
C602 C611 1.390 . S
C603 C602 1.387 . S
C603 C605 1.387 . S
H604 C611 0.950 . S
C605 C603 1.387 . S
C605 C607 1.390 . S
C605 H609 0.950 . S
H606 C602 0.950 . S
C607 C605 1.390 . S
C607 C608 1.387 . S
C607 H610 0.950 . S
C608 C607 1.387 . S
C608 C611 1.387 . S
H609 C605 0.950 . S
H610 C607 0.950 . S
C611 C602 1.390 . S
C611 H604 0.950 . S
C611 C608 1.387 . S
C612 C613 1.387 . S
C612 H616 0.950 . S
C612 C621 1.390 . S
C613 C612 1.387 . S
C613 C615 1.387 . S
H614 C621 0.950 . S
C615 C613 1.387 . S
C615 C617 1.390 . S
C615 H619 0.950 . S
H616 C612 0.950 . S
C617 C615 1.390 . S
C617 C618 1.387 . S
C617 H620 0.950 . S
C618 C617 1.387 . S
C618 C621 1.387 . S
H619 C615 0.950 . S
H620 C617 0.950 . S
C621 C612 1.390 . S
C621 H614 0.950 . S
C621 C618 1.387 . S
C622 C623 1.387 . S
C622 H626 0.950 . S
C622 C631 1.390 . S
C623 C622 1.387 . S
C623 C625 1.387 . S
H624 C631 0.950 . S
C625 C623 1.387 . S
C625 C627 1.390 . S
C625 H629 0.950 . S
H626 C622 0.950 . S
C627 C625 1.390 . S
C627 C628 1.388 1_565 S
C627 H630 0.950 1_565 S
C628 C627 1.388 1_545 S
C628 C631 1.389 1_545 S
H629 C625 0.950 . S
H630 C627 0.950 1_545 S
C631 C622 1.390 . S
C631 H624 0.950 . S
C631 C628 1.389 1_565 S
C632 C633 1.387 . S
C632 H636 0.950 . S
C632 C641 1.390 . S
C633 C632 1.387 . S
C633 C635 1.387 . S
H634 C641 0.950 . S
C635 C633 1.387 . S
C635 C637 1.390 . S
C635 H639 0.950 . S
H636 C632 0.950 . S
C637 C635 1.390 . S
C637 C638 1.387 . S
C637 H640 0.950 . S
C638 C637 1.387 . S
C638 C641 1.387 . S
H639 C635 0.950 . S
H640 C637 0.950 . S
C641 C632 1.390 . S
C641 H634 0.950 . S
C641 C638 1.387 . S
C642 C643 1.387 . S
C642 H646 0.950 . S
C642 C651 1.390 . S
C643 C642 1.387 . S
C643 C645 1.387 . S
H644 C651 0.950 . S
C645 C643 1.387 . S
C645 C647 1.390 . S
C645 H649 0.950 . S
H646 C642 0.950 . S
C647 C645 1.390 . S
C647 C648 1.387 . S
C647 H650 0.950 . S
C648 C647 1.387 . S
C648 C651 1.387 . S
H649 C645 0.950 . S
H650 C647 0.950 . S
C651 C642 1.390 . S
C651 H644 0.950 . S
C651 C648 1.387 . S
C652 C653 1.387 . S
C652 H656 0.950 . S
C652 C661 1.390 . S
C653 C652 1.387 . S
C653 C655 1.387 . S
H654 C661 0.950 . S
C655 C653 1.387 . S
C655 C657 1.390 . S
C655 H659 0.950 . S
H656 C652 0.950 . S
C657 C655 1.390 . S
C657 C658 1.387 . S
C657 H660 0.950 . S
C658 C657 1.387 . S
C658 C661 1.387 . S
H659 C655 0.950 . S
H660 C657 0.950 . S
C661 C652 1.390 . S
C661 H654 0.950 . S
C661 C658 1.387 . S
C662 C663 1.387 . S
C662 H666 0.950 . S
C662 C671 1.390 . S
C663 C662 1.387 . S
C663 C665 1.387 . S
H664 C671 0.950 . S
C665 C663 1.387 . S
C665 C667 1.390 . S
C665 H669 0.950 . S
H666 C662 0.950 . S
C667 C665 1.390 . S
C667 C668 1.387 . S
C667 H670 0.950 . S
C668 C667 1.387 . S
C668 C671 1.387 . S
H669 C665 0.950 . S
H670 C667 0.950 . S
C671 C662 1.390 . S
C671 H664 0.950 . S
C671 C668 1.387 . S
C672 C673 1.387 . S
C672 H676 0.950 . S
C672 C681 1.390 . S
C673 C672 1.387 . S
C673 C675 1.387 . S
H674 C681 0.950 . S
C675 C673 1.387 . S
C675 C677 1.390 . S
C675 H679 0.950 . S
H676 C672 0.950 . S
C677 C675 1.390 . S
C677 C678 1.387 . S
C677 H680 0.950 . S
C678 C677 1.387 . S
C678 C681 1.387 . S
H679 C675 0.950 . S
H680 C677 0.950 . S
C681 C672 1.390 . S
C681 H674 0.950 . S
C681 C678 1.387 . S
C682 C683 1.387 . S
C682 H686 0.950 . S
C682 C691 1.390 . S
C683 C682 1.387 . S
C683 C685 1.387 . S
H684 C691 0.950 . S
C685 C683 1.387 . S
C685 C687 1.390 . S
C685 H689 0.950 . S
H686 C682 0.950 . S
C687 C685 1.390 . S
C687 C688 1.387 . S
C687 H690 0.950 . S
C688 C687 1.387 . S
C688 C691 1.387 . S
H689 C685 0.950 . S
H690 C687 0.950 . S
C691 C682 1.390 . S
C691 H684 0.950 . S
C691 C688 1.387 . S
C692 C693 1.387 . S
C692 H696 0.950 . S
C692 C701 1.390 . S
C693 C692 1.387 . S
C693 C695 1.387 . S
H694 C701 0.950 . S
C695 C693 1.387 . S
C695 C697 1.390 . S
C695 H699 0.950 . S
H696 C692 0.950 . S
C697 C695 1.390 . S
C697 C698 1.387 . S
C697 H700 0.950 . S
C698 C697 1.387 . S
C698 C701 1.387 . S
H699 C695 0.950 . S
H700 C697 0.950 . S
C701 C692 1.390 . S
C701 H694 0.950 . S
C701 C698 1.387 . S
C702 C703 1.387 . S
C702 H706 0.950 . S
C702 C711 1.390 . S
C703 C702 1.387 . S
C703 C705 1.387 . S
H704 C711 0.950 . S
C705 C703 1.387 . S
C705 C707 1.390 . S
C705 H709 0.950 . S
H706 C702 0.950 . S
C707 C705 1.390 . S
C707 C708 1.387 . S
C707 H710 0.950 . S
C708 C707 1.387 . S
C708 C711 1.387 . S
H709 C705 0.950 . S
H710 C707 0.950 . S
C711 C702 1.390 . S
C711 H704 0.950 . S
C711 C708 1.387 . S
C712 C713 1.387 . S
C712 H716 0.950 . S
C712 C721 1.390 . S
C713 C712 1.387 . S
C713 C715 1.387 . S
H714 C721 0.950 . S
C715 C713 1.387 . S
C715 C717 1.390 . S
C715 H719 0.950 . S
H716 C712 0.950 . S
C717 C715 1.390 . S
C717 C718 1.387 . S
C717 H720 0.950 . S
C718 C717 1.387 . S
C718 C721 1.387 . S
H719 C715 0.950 . S
H720 C717 0.950 . S
C721 C712 1.390 . S
C721 H714 0.950 . S
C721 C718 1.387 . S
C722 C723 1.387 1_545 S
C722 H726 0.950 . S
C722 C731 1.390 . S
C723 C722 1.387 1_565 S
C723 C725 1.387 . S
H724 C731 0.950 . S
C725 C723 1.387 . S
C725 C727 1.390 . S
C725 H729 0.950 . S
H726 C722 0.950 . S
C727 C725 1.390 . S
C727 C728 1.387 . S
C727 H730 0.950 . S
C728 C727 1.387 . S
C728 C731 1.387 1_565 S
H729 C725 0.950 . S
H730 C727 0.950 . S
C731 C722 1.390 . S
C731 H724 0.950 . S
C731 C728 1.387 1_545 S
C732 C733 1.387 . S
C732 H736 0.950 . S
C732 C741 1.390 . S
C733 C732 1.387 . S
C733 C735 1.387 . S
H734 C741 0.950 . S
C735 C733 1.387 . S
C735 C737 1.390 . S
C735 H739 0.950 . S
H736 C732 0.950 . S
C737 C735 1.390 . S
C737 C738 1.387 . S
C737 H740 0.950 . S
C738 C737 1.387 . S
C738 C741 1.387 . S
H739 C735 0.950 . S
H740 C737 0.950 . S
C741 C732 1.390 . S
C741 H734 0.950 . S
C741 C738 1.387 . S
C742 C743 1.387 . S
C742 H746 0.950 . S
C742 C751 1.390 . S
C743 C742 1.387 . S
C743 C745 1.387 . S
H744 C751 0.950 . S
C745 C743 1.387 . S
C745 C747 1.390 . S
C745 H749 0.950 . S
H746 C742 0.950 . S
C747 C745 1.390 . S
C747 C748 1.387 . S
C747 H750 0.950 . S
C748 C747 1.387 . S
C748 C751 1.387 . S
H749 C745 0.950 . S
H750 C747 0.950 . S
C751 C742 1.390 . S
C751 H744 0.950 . S
C751 C748 1.387 . S
C752 C753 1.387 . S
C752 H756 0.950 . S
C752 C761 1.390 . S
C753 C752 1.387 . S
C753 C755 1.387 . S
H754 C761 0.950 . S
C755 C753 1.387 . S
C755 C757 1.390 . S
C755 H759 0.950 . S
H756 C752 0.950 . S
C757 C755 1.390 . S
C757 C758 1.387 . S
C757 H760 0.950 . S
C758 C757 1.387 . S
C758 C761 1.387 . S
H759 C755 0.950 . S
H760 C757 0.950 . S
C761 C752 1.390 . S
C761 H754 0.950 . S
C761 C758 1.387 . S
C762 C763 1.387 . S
C762 H766 0.950 . S
C762 C771 1.390 . S
C763 C762 1.387 . S
C763 C765 1.387 . S
H764 C771 0.950 . S
C765 C763 1.387 . S
C765 C767 1.390 . S
C765 H769 0.950 . S
H766 C762 0.950 . S
C767 C765 1.390 . S
C767 C768 1.387 . S
C767 H770 0.950 . S
C768 C767 1.387 . S
C768 C771 1.387 . S
H769 C765 0.950 . S
H770 C767 0.950 . S
C771 C762 1.390 . S
C771 H764 0.950 . S
C771 C768 1.387 . S
C538 C127 1.791 . S
C533 C5 1.711 . S
C548 C231 1.903 . S
C543 C16 1.512 . S
C558 C151 1.596 . S
C553 C30 1.556 . S
C568 C213 1.711 . S
C563 C40 1.715 . S
C578 C287 1.712 . S
C573 C8 1.764 . S
C588 C349 1.842 . S
C583 C18 1.937 . S
C593 C29 1.761 . S
C598 C423 1.732 . S
C608 C509 1.717 . S
C603 C38 1.853 . S
C618 C305 2.504 . S
C613 C19 2.522 . S
C623 C27 1.524 . S
C628 C373 1.765 . S
C638 C447 1.423 . S
C633 C41 1.563 . S
C648 C527 2.001 . S
C643 C7 2.094 . S
C653 C52 1.575 . S
C658 C225 1.558 . S
C668 C139 2.016 . S
C663 C62 2.182 . S
C673 C74 1.575 . S
C678 C201 1.555 . S
C683 C82 1.594 . S
C688 C157 1.986 . S
C698 C453 1.728 . S
C693 C51 1.720 . S
C708 C521 1.382 . S
C703 C60 1.299 . S
C718 C299 1.869 . S
C713 C71 1.903 . S
C723 C84 2.180 . S
C728 C379 2.299 1_565 S
C738 C435 1.336 . S
C733 C63 1.344 . S
C748 C497 1.494 . S
C743 C73 1.576 . S
C758 C275 1.853 . S
C753 C85 1.935 . S
C763 C49 1.229 . S
C768 C361 1.447 . S
