# Generated by pormake.
# Topology ptr, (4,4)-cn, num edge types: 1
# Building blocks:
#     Node 0, Type 0, BuildingBlock: AZAVOO_clean_sbu_0, # of connection points: 4
#     Node 1, Type 0, BuildingBlock: AZAVOO_clean_sbu_0, # of connection points: 4
#     Node 2, Type 0, BuildingBlock: AZAVOO_clean_sbu_0, # of connection points: 4
#     Node 3, Type 0, BuildingBlock: AZAVOO_clean_sbu_0, # of connection points: 4
#     Node 4, Type 0, BuildingBlock: AZAVOO_clean_sbu_0, # of connection points: 4
#     Node 5, Type 0, BuildingBlock: AZAVOO_clean_sbu_0, # of connection points: 4
#     Node 6, Type 0, BuildingBlock: AZAVOO_clean_sbu_0, # of connection points: 4
#     Node 7, Type 0, BuildingBlock: AZAVOO_clean_sbu_0, # of connection points: 4
#     Node 8, Type 0, BuildingBlock: AZAVOO_clean_sbu_0, # of connection points: 4
#     Node 9, Type 0, BuildingBlock: AZAVOO_clean_sbu_0, # of connection points: 4
#     Node 10, Type 0, BuildingBlock: AZAVOO_clean_sbu_0, # of connection points: 4
#     Node 11, Type 0, BuildingBlock: AZAVOO_clean_sbu_0, # of connection points: 4
#     Node 12, Type 0, BuildingBlock: AZAVOO_clean_sbu_0, # of connection points: 4
#     Node 13, Type 0, BuildingBlock: AZAVOO_clean_sbu_0, # of connection points: 4
#     Node 14, Type 0, BuildingBlock: AZAVOO_clean_sbu_0, # of connection points: 4
#     Node 15, Type 0, BuildingBlock: AZAVOO_clean_sbu_0, # of connection points: 4
#     Node 16, Type 0, BuildingBlock: AZAVOO_clean_sbu_0, # of connection points: 4
#     Node 17, Type 0, BuildingBlock: AZAVOO_clean_sbu_0, # of connection points: 4
#     Node 18, Type 1, BuildingBlock: MUDLON_clean_linker_0, # of connection points: 4
#     Node 19, Type 1, BuildingBlock: MUDLON_clean_linker_0, # of connection points: 4
#     Node 20, Type 1, BuildingBlock: MUDLON_clean_linker_0, # of connection points: 4
#     Node 21, Type 1, BuildingBlock: MUDLON_clean_linker_0, # of connection points: 4
#     Node 22, Type 1, BuildingBlock: MUDLON_clean_linker_0, # of connection points: 4
#     Node 23, Type 1, BuildingBlock: MUDLON_clean_linker_0, # of connection points: 4
#     Node 24, Type 1, BuildingBlock: MUDLON_clean_linker_0, # of connection points: 4
#     Node 25, Type 1, BuildingBlock: MUDLON_clean_linker_0, # of connection points: 4
#     Node 26, Type 1, BuildingBlock: MUDLON_clean_linker_0, # of connection points: 4
#     Node 27, Type 1, BuildingBlock: MUDLON_clean_linker_0, # of connection points: 4
#     Node 28, Type 1, BuildingBlock: MUDLON_clean_linker_0, # of connection points: 4
#     Node 29, Type 1, BuildingBlock: MUDLON_clean_linker_0, # of connection points: 4
#     Node 30, Type 1, BuildingBlock: MUDLON_clean_linker_0, # of connection points: 4
#     Node 31, Type 1, BuildingBlock: MUDLON_clean_linker_0, # of connection points: 4
#     Node 32, Type 1, BuildingBlock: MUDLON_clean_linker_0, # of connection points: 4
#     Node 33, Type 1, BuildingBlock: MUDLON_clean_linker_0, # of connection points: 4
#     Node 34, Type 1, BuildingBlock: MUDLON_clean_linker_0, # of connection points: 4
#     Node 35, Type 1, BuildingBlock: MUDLON_clean_linker_0, # of connection points: 4
#     Edge 36, Type (0, 1), BuildingBlock: XUDNAN_clean_linker_2, # of connection points: 2
#     Edge 37, Type (0, 1), BuildingBlock: XUDNAN_clean_linker_2, # of connection points: 2
#     Edge 38, Type (0, 1), BuildingBlock: XUDNAN_clean_linker_2, # of connection points: 2
#     Edge 39, Type (0, 1), BuildingBlock: XUDNAN_clean_linker_2, # of connection points: 2
#     Edge 40, Type (0, 1), BuildingBlock: XUDNAN_clean_linker_2, # of connection points: 2
#     Edge 41, Type (0, 1), BuildingBlock: XUDNAN_clean_linker_2, # of connection points: 2
#     Edge 42, Type (0, 1), BuildingBlock: XUDNAN_clean_linker_2, # of connection points: 2
#     Edge 43, Type (0, 1), BuildingBlock: XUDNAN_clean_linker_2, # of connection points: 2
#     Edge 44, Type (0, 1), BuildingBlock: XUDNAN_clean_linker_2, # of connection points: 2
#     Edge 45, Type (0, 1), BuildingBlock: XUDNAN_clean_linker_2, # of connection points: 2
#     Edge 46, Type (0, 1), BuildingBlock: XUDNAN_clean_linker_2, # of connection points: 2
#     Edge 47, Type (0, 1), BuildingBlock: XUDNAN_clean_linker_2, # of connection points: 2
#     Edge 48, Type (0, 1), BuildingBlock: XUDNAN_clean_linker_2, # of connection points: 2
#     Edge 49, Type (0, 1), BuildingBlock: XUDNAN_clean_linker_2, # of connection points: 2
#     Edge 50, Type (0, 1), BuildingBlock: XUDNAN_clean_linker_2, # of connection points: 2
#     Edge 51, Type (0, 1), BuildingBlock: XUDNAN_clean_linker_2, # of connection points: 2
#     Edge 52, Type (0, 1), BuildingBlock: XUDNAN_clean_linker_2, # of connection points: 2
#     Edge 53, Type (0, 1), BuildingBlock: XUDNAN_clean_linker_2, # of connection points: 2
#     Edge 54, Type (0, 1), BuildingBlock: XUDNAN_clean_linker_2, # of connection points: 2
#     Edge 55, Type (0, 1), BuildingBlock: XUDNAN_clean_linker_2, # of connection points: 2
#     Edge 56, Type (0, 1), BuildingBlock: XUDNAN_clean_linker_2, # of connection points: 2
#     Edge 57, Type (0, 1), BuildingBlock: XUDNAN_clean_linker_2, # of connection points: 2
#     Edge 58, Type (0, 1), BuildingBlock: XUDNAN_clean_linker_2, # of connection points: 2
#     Edge 59, Type (0, 1), BuildingBlock: XUDNAN_clean_linker_2, # of connection points: 2
#     Edge 60, Type (0, 1), BuildingBlock: XUDNAN_clean_linker_2, # of connection points: 2
#     Edge 61, Type (0, 1), BuildingBlock: XUDNAN_clean_linker_2, # of connection points: 2
#     Edge 62, Type (0, 1), BuildingBlock: XUDNAN_clean_linker_2, # of connection points: 2
#     Edge 63, Type (0, 1), BuildingBlock: XUDNAN_clean_linker_2, # of connection points: 2
#     Edge 64, Type (0, 1), BuildingBlock: XUDNAN_clean_linker_2, # of connection points: 2
#     Edge 65, Type (0, 1), BuildingBlock: XUDNAN_clean_linker_2, # of connection points: 2
#     Edge 66, Type (0, 1), BuildingBlock: XUDNAN_clean_linker_2, # of connection points: 2
#     Edge 67, Type (0, 1), BuildingBlock: XUDNAN_clean_linker_2, # of connection points: 2
#     Edge 68, Type (0, 1), BuildingBlock: XUDNAN_clean_linker_2, # of connection points: 2
#     Edge 69, Type (0, 1), BuildingBlock: XUDNAN_clean_linker_2, # of connection points: 2
#     Edge 70, Type (0, 1), BuildingBlock: XUDNAN_clean_linker_2, # of connection points: 2
#     Edge 71, Type (0, 1), BuildingBlock: XUDNAN_clean_linker_2, # of connection points: 2
#     Edge 72, Type (0, 1), BuildingBlock: XUDNAN_clean_linker_2, # of connection points: 2
#     Edge 73, Type (0, 1), BuildingBlock: XUDNAN_clean_linker_2, # of connection points: 2
#     Edge 74, Type (0, 1), BuildingBlock: XUDNAN_clean_linker_2, # of connection points: 2
#     Edge 75, Type (0, 1), BuildingBlock: XUDNAN_clean_linker_2, # of connection points: 2
#     Edge 76, Type (0, 1), BuildingBlock: XUDNAN_clean_linker_2, # of connection points: 2
#     Edge 77, Type (0, 1), BuildingBlock: XUDNAN_clean_linker_2, # of connection points: 2
#     Edge 78, Type (0, 1), BuildingBlock: XUDNAN_clean_linker_2, # of connection points: 2
#     Edge 79, Type (0, 1), BuildingBlock: XUDNAN_clean_linker_2, # of connection points: 2
#     Edge 80, Type (0, 1), BuildingBlock: XUDNAN_clean_linker_2, # of connection points: 2
#     Edge 81, Type (0, 1), BuildingBlock: XUDNAN_clean_linker_2, # of connection points: 2
#     Edge 82, Type (0, 1), BuildingBlock: XUDNAN_clean_linker_2, # of connection points: 2
#     Edge 83, Type (0, 1), BuildingBlock: XUDNAN_clean_linker_2, # of connection points: 2
#     Edge 84, Type (0, 1), BuildingBlock: XUDNAN_clean_linker_2, # of connection points: 2
#     Edge 85, Type (0, 1), BuildingBlock: XUDNAN_clean_linker_2, # of connection points: 2
#     Edge 86, Type (0, 1), BuildingBlock: XUDNAN_clean_linker_2, # of connection points: 2
#     Edge 87, Type (0, 1), BuildingBlock: XUDNAN_clean_linker_2, # of connection points: 2
#     Edge 88, Type (0, 1), BuildingBlock: XUDNAN_clean_linker_2, # of connection points: 2
#     Edge 89, Type (0, 1), BuildingBlock: XUDNAN_clean_linker_2, # of connection points: 2
#     Edge 90, Type (0, 1), BuildingBlock: XUDNAN_clean_linker_2, # of connection points: 2
#     Edge 91, Type (0, 1), BuildingBlock: XUDNAN_clean_linker_2, # of connection points: 2
#     Edge 92, Type (0, 1), BuildingBlock: XUDNAN_clean_linker_2, # of connection points: 2
#     Edge 93, Type (0, 1), BuildingBlock: XUDNAN_clean_linker_2, # of connection points: 2
#     Edge 94, Type (0, 1), BuildingBlock: XUDNAN_clean_linker_2, # of connection points: 2
#     Edge 95, Type (0, 1), BuildingBlock: XUDNAN_clean_linker_2, # of connection points: 2
#     Edge 96, Type (0, 1), BuildingBlock: XUDNAN_clean_linker_2, # of connection points: 2
#     Edge 97, Type (0, 1), BuildingBlock: XUDNAN_clean_linker_2, # of connection points: 2
#     Edge 98, Type (0, 1), BuildingBlock: XUDNAN_clean_linker_2, # of connection points: 2
#     Edge 99, Type (0, 1), BuildingBlock: XUDNAN_clean_linker_2, # of connection points: 2
#     Edge 100, Type (0, 1), BuildingBlock: XUDNAN_clean_linker_2, # of connection points: 2
#     Edge 101, Type (0, 1), BuildingBlock: XUDNAN_clean_linker_2, # of connection points: 2
#     Edge 102, Type (0, 1), BuildingBlock: XUDNAN_clean_linker_2, # of connection points: 2
#     Edge 103, Type (0, 1), BuildingBlock: XUDNAN_clean_linker_2, # of connection points: 2
#     Edge 104, Type (0, 1), BuildingBlock: XUDNAN_clean_linker_2, # of connection points: 2
#     Edge 105, Type (0, 1), BuildingBlock: XUDNAN_clean_linker_2, # of connection points: 2
#     Edge 106, Type (0, 1), BuildingBlock: XUDNAN_clean_linker_2, # of connection points: 2
#     Edge 107, Type (0, 1), BuildingBlock: XUDNAN_clean_linker_2, # of connection points: 2
# Relax obj value: 0.069
# Max RMSD: 0.226
# Mean RMSD: 0.110
data_MOF--net-ptr--node1-AZAVOO_clean_sbu_0--node2-MUDLON_clean_linker_0--edge1-XUDNAN_clean_linker_2
_symmetry_space_group_name_H-M    P1
_symmetry_Int_Tables_number       1
_symmetry_cell_setting            triclinic
loop_
_symmetry_equiv_pos_as_xyz
'x, y, z'
_cell_length_a     106.51023
_cell_length_b     104.99729
_cell_length_c     59.790815
_cell_angle_alpha  90.980853
_cell_angle_beta   90.989182
_cell_angle_gamma 120.02252
loop_
_atom_site_label
_atom_site_type_symbol
_atom_site_fract_x
_atom_site_fract_y
_atom_site_fract_z
_atom_type_partial_charge
Mg0 Mg 0.01505 0.36083 0.97975 0.0
O1 O 0.01612 0.37403 0.01139 0.0
O2 O 0.9971 0.37758 0.00999 0.0
Mg3 Mg 0.98497 0.36819 0.97628 0.0
C4 C 0.00852 0.3791 0.01985 0.0
C5 C 0.0421 0.35792 0.98334 0.0
O6 O 0.04269 0.3631 0.9633 0.0
O7 O 0.99568 0.33988 0.99233 0.0
O8 O 0.9775 0.34436 0.98614 0.0
O9 O 0.02892 0.38177 0.96265 0.0
O10 O 0.00499 0.37053 0.96214 0.0
C11 C 0.98217 0.33575 0.99187 0.0
C12 C 0.01714 0.38173 0.95682 0.0
O13 O 0.03136 0.35526 0.99535 0.0
Mg14 Mg 0.6384 0.63753 0.0539 0.0
O15 O 0.62721 0.6263 0.02065 0.0
O16 O 0.60342 0.61788 0.02229 0.0
Mg17 Mg 0.59951 0.62303 0.05826 0.0
C18 C 0.61449 0.61973 0.01171 0.0
C19 C 0.67014 0.6463 0.03781 0.0
O20 O 0.66878 0.6357 0.05069 0.0
O21 O 0.63524 0.65698 0.04778 0.0
O22 O 0.61161 0.64816 0.05264 0.0
O23 O 0.63546 0.61618 0.06487 0.0
O24 O 0.61962 0.62362 0.07074 0.0
C25 C 0.6243 0.65882 0.04888 0.0
C26 C 0.623 0.61345 0.07222 0.0
O27 O 0.65988 0.64914 0.03626 0.0
Mg28 Mg 0.36217 0.9936 0.97837 0.0
O29 O 0.37547 0.99676 0.01046 0.0
O30 O 0.3986 0.01359 0.00487 0.0
Mg31 Mg 0.4 0.02035 0.96828 0.0
C32 C 0.38864 0.00452 0.01735 0.0
C33 C 0.33306 0.9691 0.99828 0.0
O34 O 0.33613 0.96045 0.98632 0.0
O35 O 0.36381 0.01578 0.98351 0.0
O36 O 0.38666 0.03184 0.97517 0.0
O37 O 0.36621 0.97565 0.96809 0.0
O38 O 0.38032 0.99898 0.95951 0.0
C39 C 0.37398 0.02893 0.98074 0.0
C40 C 0.37799 0.98568 0.9593 0.0
O41 O 0.34158 0.98292 0.99826 0.0
Mg42 Mg 0.99736 0.65034 0.04393 0.0
O43 O 0.99725 0.63752 0.01267 0.0
O44 O 0.01147 0.62782 0.01796 0.0
Mg45 Mg 0.02124 0.63514 0.05347 0.0
C46 C 0.00276 0.62989 0.00572 0.0
C47 C 0.97787 0.66419 0.03 0.0
O48 O 0.97572 0.66398 0.05159 0.0
O49 O 0.01982 0.66918 0.03648 0.0
O50 O 0.03398 0.6595 0.04335 0.0
O51 O 0.97919 0.6299 0.05705 0.0
O52 O 0.00233 0.63712 0.06375 0.0
C53 C 0.0323 0.67027 0.03773 0.0
C54 C 0.98887 0.62728 0.06575 0.0
O55 O 0.98633 0.65993 0.02263 0.0
Mg56 Mg 0.37258 0.36595 0.97841 0.0
O57 O 0.3849 0.37495 0.01179 0.0
O58 O 0.40584 0.37494 0.01085 0.0
Mg59 Mg 0.40697 0.36618 0.976 0.0
C60 C 0.39684 0.37747 0.02105 0.0
C61 C 0.33973 0.3528 0.99139 0.0
O62 O 0.33768 0.34177 0.97813 0.0
O63 O 0.36686 0.34286 0.9877 0.0
O64 O 0.38781 0.34315 0.98352 0.0
O65 O 0.38329 0.38833 0.96474 0.0
O66 O 0.3921 0.37325 0.96221 0.0
C67 C 0.37429 0.33638 0.98772 0.0
C68 C 0.39361 0.38601 0.95865 0.0
O69 O 0.35244 0.36371 0.99449 0.0
Mg70 Mg 0.63675 0.00283 0.04317 0.0
O71 O 0.62401 0.99915 0.01015 0.0
O72 O 0.60099 0.98173 0.01483 0.0
Mg73 Mg 0.59904 0.97442 0.05097 0.0
C74 C 0.61101 0.99102 0.00265 0.0
C75 C 0.66709 0.02838 0.02867 0.0
O76 O 0.66457 0.03575 0.04423 0.0
O77 O 0.63648 0.98128 0.03771 0.0
O78 O 0.61351 0.96432 0.04392 0.0
O79 O 0.63136 0.01986 0.05423 0.0
O80 O 0.6179 0.99612 0.0607 0.0
C81 C 0.62651 0.9679 0.03927 0.0
C82 C 0.61963 0.00917 0.0621 0.0
O83 O 0.6578 0.01493 0.02465 0.0
Mg84 Mg 0.67368 0.69089 0.32751 0.0
O85 O 0.6682 0.7007 0.35777 0.0
O86 O 0.64939 0.70356 0.34831 0.0
Mg87 Mg 0.64333 0.69624 0.31138 0.0
C88 C 0.65897 0.70463 0.36258 0.0
C89 C 0.69805 0.68406 0.34431 0.0
O90 O 0.703 0.68825 0.32419 0.0
O91 O 0.65346 0.66862 0.3325 0.0
O92 O 0.63565 0.6721 0.31938 0.0
O93 O 0.68911 0.71355 0.31566 0.0
O94 O 0.66571 0.70095 0.30658 0.0
C95 C 0.64014 0.6638 0.32722 0.0
C96 C 0.67792 0.71304 0.30586 0.0
O97 O 0.68678 0.68433 0.35021 0.0
Mg98 Mg 0.30926 0.9839 0.38497 0.0
O99 O 0.29155 0.97327 0.35719 0.0
O100 O 0.27076 0.96856 0.37276 0.0
Mg101 Mg 0.275 0.97539 0.40998 0.0
C102 C 0.27787 0.96829 0.35592 0.0
C103 C 0.33192 0.98517 0.3501 0.0
O104 O 0.3251 0.97086 0.35266 0.0
O105 O 0.30848 0.005 0.38338 0.0
O106 O 0.28852 0.00012 0.40173 0.0
O107 O 0.30543 0.96177 0.39349 0.0
O108 O 0.29393 0.97224 0.40871 0.0
C109 C 0.29998 0.009 0.39158 0.0
C110 C 0.29536 0.9608 0.40639 0.0
O111 O 0.32743 0.99285 0.36007 0.0
Mg112 Mg 0.02816 0.31683 0.31524 0.0
O113 O 0.04798 0.32959 0.3389 0.0
O114 O 0.06605 0.3463 0.31875 0.0
Mg115 Mg 0.05833 0.34301 0.28193 0.0
C116 C 0.06097 0.34024 0.33734 0.0
C117 C 0.99982 0.29988 0.34047 0.0
O118 O 0.99514 0.29692 0.3195 0.0
O119 O 0.02518 0.33693 0.31386 0.0
O120 O 0.04245 0.35105 0.29019 0.0
O121 O 0.03469 0.29993 0.30765 0.0
O122 O 0.0419 0.32041 0.2892 0.0
C123 C 0.03156 0.34834 0.30201 0.0
C124 C 0.04274 0.3088 0.29254 0.0
O125 O 0.01332 0.3081 0.34467 0.0
Mg126 Mg 0.66042 0.96995 0.36543 0.0
O127 O 0.66571 0.95661 0.33958 0.0
O128 O 0.67991 0.95002 0.35824 0.0
Mg129 Mg 0.68535 0.96036 0.39329 0.0
C130 C 0.67286 0.94978 0.34061 0.0
C131 C 0.63733 0.97495 0.34486 0.0
O132 O 0.63263 0.96929 0.36448 0.0
O133 O 0.68263 0.9903 0.36134 0.0
O134 O 0.69715 0.98355 0.37853 0.0
O135 O 0.64208 0.94907 0.37738 0.0
O136 O 0.66436 0.95948 0.39184 0.0
C137 C 0.69518 0.99286 0.36779 0.0
C138 C 0.65126 0.94853 0.39123 0.0
O139 O 0.64958 0.97697 0.33882 0.0
Mg140 Mg 0.02235 0.69353 0.30442 0.0
O141 O 0.03824 0.70518 0.33376 0.0
O142 O 0.06081 0.71153 0.32477 0.0
Mg143 Mg 0.05885 0.70272 0.28874 0.0
C144 C 0.05174 0.71121 0.33874 0.0
C145 C 0.99077 0.67896 0.3243 0.0
O146 O 0.98646 0.6733 0.30395 0.0
O147 O 0.02296 0.67255 0.31028 0.0
O148 O 0.04548 0.67878 0.30058 0.0
O149 O 0.027 0.71529 0.29238 0.0
O150 O 0.03898 0.70405 0.28203 0.0
C151 C 0.03301 0.66945 0.30767 0.0
C152 C 0.03749 0.7155 0.28145 0.0
O153 O 0.00423 0.68712 0.32883 0.0
Mg154 Mg 0.29927 0.33734 0.36581 0.0
O155 O 0.28664 0.32883 0.33195 0.0
O156 O 0.26522 0.30922 0.33988 0.0
Mg157 Mg 0.26325 0.3064 0.37755 0.0
C158 C 0.27423 0.31798 0.32596 0.0
C159 C 0.32927 0.36336 0.35903 0.0
O160 O 0.32482 0.3668 0.37733 0.0
O161 O 0.30252 0.31743 0.36715 0.0
O162 O 0.2805 0.29944 0.37619 0.0
O163 O 0.29076 0.35275 0.37105 0.0
O164 O 0.27981 0.32968 0.38172 0.0
C165 C 0.29379 0.30408 0.372 0.0
C166 C 0.27968 0.34181 0.37985 0.0
O167 O 0.32084 0.35114 0.34895 0.0
Mg168 Mg 0.34717 0.02519 0.65074 0.0
O169 O 0.34236 0.03584 0.68066 0.0
O170 O 0.32751 0.04378 0.66862 0.0
Mg171 Mg 0.32221 0.03735 0.63134 0.0
C172 C 0.33502 0.04224 0.68411 0.0
C173 C 0.37036 0.01992 0.67548 0.0
O174 O 0.37917 0.0317 0.66454 0.0
O175 O 0.32486 0.00511 0.65332 0.0
O176 O 0.31001 0.01249 0.63928 0.0
O177 O 0.36566 0.04699 0.642 0.0
O178 O 0.34321 0.03816 0.62894 0.0
C179 C 0.31223 0.00258 0.64747 0.0
C180 C 0.35638 0.04894 0.63047 0.0
O181 O 0.35676 0.01495 0.67377 0.0
Mg182 Mg 0.96994 0.31139 0.70325 0.0
O183 O 0.95006 0.29995 0.67897 0.0
O184 O 0.93258 0.30314 0.6934 0.0
Mg185 Mg 0.94097 0.3164 0.72621 0.0
C186 C 0.93722 0.29801 0.67816 0.0
C187 C 0.99797 0.31674 0.68188 0.0
O188 O 0.00249 0.32388 0.70127 0.0
O189 O 0.97519 0.3341 0.69163 0.0
O190 O 0.95744 0.33644 0.70708 0.0
O191 O 0.96141 0.29086 0.72305 0.0
O192 O 0.95665 0.30873 0.72976 0.0
C193 C 0.96885 0.34146 0.69552 0.0
C194 C 0.95466 0.29599 0.73464 0.0
O195 O 0.98445 0.30991 0.67707 0.0
Mg196 Mg 0.70571 0.67429 0.65682 0.0
O197 O 0.71762 0.67775 0.69075 0.0
O198 O 0.74056 0.69566 0.68678 0.0
Mg199 Mg 0.74347 0.70317 0.65065 0.0
C200 C 0.73048 0.68618 0.69868 0.0
C201 C 0.67315 0.65299 0.65928 0.0
O202 O 0.6755 0.65342 0.63773 0.0
O203 O 0.70536 0.69559 0.66218 0.0
O204 O 0.72827 0.71262 0.65574 0.0
O205 O 0.71158 0.65757 0.646 0.0
O206 O 0.72514 0.68142 0.64061 0.0
C207 C 0.7152 0.70899 0.66005 0.0
C208 C 0.72351 0.66842 0.63898 0.0
O209 O 0.68375 0.66091 0.67268 0.0
Mg210 Mg 0.32128 0.31409 0.70784 0.0
O211 O 0.33102 0.30315 0.6855 0.0
O212 O 0.34656 0.30032 0.70769 0.0
Mg213 Mg 0.34782 0.31026 0.74237 0.0
C214 C 0.34005 0.29865 0.6888 0.0
C215 C 0.30734 0.32847 0.68005 0.0
O216 O 0.3115 0.33668 0.69852 0.0
O217 O 0.34196 0.33634 0.70554 0.0
O218 O 0.35732 0.33346 0.72787 0.0
O219 O 0.30424 0.29201 0.71826 0.0
O220 O 0.32536 0.30515 0.7362 0.0
C221 C 0.35443 0.34136 0.71509 0.0
C222 C 0.31326 0.2929 0.73383 0.0
O223 O 0.31059 0.31841 0.6778 0.0
Mg224 Mg 0.70042 0.02908 0.65694 0.0
O225 O 0.71452 0.03918 0.68927 0.0
O226 O 0.73634 0.04215 0.68147 0.0
Mg227 Mg 0.73692 0.03638 0.6447 0.0
C228 C 0.72757 0.04291 0.695 0.0
C229 C 0.66852 0.01042 0.66445 0.0
O230 O 0.67093 0.00531 0.64577 0.0
O231 O 0.69964 0.00723 0.66211 0.0
O232 O 0.72165 0.01197 0.65202 0.0
O233 O 0.70617 0.05128 0.64497 0.0
O234 O 0.71868 0.04016 0.63793 0.0
C235 C 0.70885 0.00309 0.65844 0.0
C236 C 0.71728 0.05159 0.63595 0.0
O237 O 0.67922 0.02102 0.67498 0.0
Mg238 Mg 0.96887 0.68602 0.69901 0.0
O239 O 0.94915 0.67266 0.67482 0.0
O240 O 0.93085 0.65688 0.69558 0.0
Mg241 Mg 0.9384 0.66022 0.73213 0.0
C242 C 0.93604 0.66228 0.67671 0.0
C243 C 0.99642 0.70595 0.67327 0.0
O244 O 0.99917 0.71308 0.69264 0.0
O245 O 0.97215 0.66629 0.7023 0.0
O246 O 0.95344 0.65118 0.72302 0.0
O247 O 0.9621 0.70276 0.70507 0.0
O248 O 0.9551 0.68295 0.72506 0.0
C249 C 0.96486 0.65422 0.71237 0.0
C250 C 0.95436 0.69457 0.72106 0.0
O251 O 0.98428 0.69422 0.67002 0.0
H252 H 0.24005 0.33592 0.1336 0.0
N253 N 0.21546 0.31396 0.11235 0.0
H254 H 0.2507 0.33419 0.16904 0.0
H255 H 0.20424 0.29186 0.14038 0.0
H256 H 0.21437 0.29027 0.17651 0.0
H257 H 0.22695 0.29929 0.09342 0.0
H258 H 0.248 0.30897 0.06965 0.0
H259 H 0.22841 0.34112 0.09215 0.0
H260 H 0.24884 0.35052 0.06784 0.0
H261 H 0.21901 0.34021 0.12829 0.0
H262 H 0.18802 0.29827 0.098 0.0
H263 H 0.20072 0.34754 0.12881 0.0
H264 H 0.16911 0.30487 0.1003 0.0
H265 H 0.12922 0.35516 0.152 0.0
H266 H 0.11315 0.34446 0.1832 0.0
H267 H 0.11195 0.30317 0.17035 0.0
H268 H 0.12725 0.31378 0.13818 0.0
H269 H 0.11333 0.31966 0.10476 0.0
H270 H 0.09889 0.32195 0.07446 0.0
H271 H 0.13158 0.36759 0.06824 0.0
H272 H 0.14581 0.36535 0.09906 0.0
H273 H 0.16222 0.35136 0.14948 0.0
H274 H 0.18088 0.34457 0.14673 0.0
H275 H 0.15916 0.31822 0.08696 0.0
N276 N 0.1385 0.34205 0.12396 0.0
H277 H 0.13991 0.32401 0.09116 0.0
C278 C 0.22143 0.31385 0.13416 0.0
C279 C 0.23438 0.32592 0.14286 0.0
C280 C 0.24042 0.32495 0.16326 0.0
C281 C 0.23352 0.31201 0.17557 0.0
C282 C 0.22022 0.30025 0.16724 0.0
C283 C 0.21431 0.30116 0.14671 0.0
C284 C 0.22603 0.31935 0.09493 0.0
C285 C 0.23153 0.3104 0.08752 0.0
C286 C 0.24354 0.31595 0.07386 0.0
C287 C 0.25027 0.33062 0.06707 0.0
C288 C 0.24416 0.33929 0.07323 0.0
C289 C 0.23228 0.3338 0.08714 0.0
C290 C 0.20493 0.31877 0.11262 0.0
C291 C 0.20821 0.33256 0.12174 0.0
C292 C 0.1976 0.33664 0.12234 0.0
C293 C 0.18327 0.32682 0.11469 0.0
C294 C 0.18002 0.31293 0.10587 0.0
C295 C 0.19078 0.30905 0.10468 0.0
C296 C 0.12959 0.3354 0.14298 0.0
C297 C 0.12552 0.34383 0.15605 0.0
C298 C 0.11643 0.33769 0.17402 0.0
C299 C 0.11136 0.32295 0.17961 0.0
C300 C 0.11553 0.3145 0.1665 0.0
C301 C 0.12443 0.3206 0.14822 0.0
C302 C 0.13059 0.34247 0.1044 0.0
C303 C 0.11743 0.33015 0.09687 0.0
C304 C 0.10918 0.33145 0.07958 0.0
C305 C 0.11409 0.34497 0.06917 0.0
C306 C 0.12758 0.35704 0.07594 0.0
C307 C 0.1357 0.35579 0.09349 0.0
C308 C 0.14974 0.33839 0.12052 0.0
C309 C 0.16154 0.34413 0.13579 0.0
C310 C 0.17229 0.34032 0.134 0.0
C311 C 0.17173 0.33091 0.11646 0.0
C312 C 0.15994 0.32529 0.10093 0.0
C313 C 0.14894 0.32879 0.10312 0.0
H314 H 0.7009 0.78404 0.1406 0.0
N315 N 0.68908 0.80011 0.12861 0.0
H316 H 0.69971 0.77308 0.17667 0.0
H317 H 0.67975 0.80647 0.16832 0.0
H318 H 0.67947 0.79646 0.20437 0.0
H319 H 0.66105 0.77924 0.1369 0.0
H320 H 0.64591 0.75672 0.11482 0.0
H321 H 0.69467 0.79291 0.08861 0.0
H322 H 0.67947 0.77033 0.06617 0.0
H323 H 0.7111 0.82676 0.12091 0.0
H324 H 0.66508 0.80334 0.13143 0.0
H325 H 0.71082 0.84988 0.11926 0.0
H326 H 0.66476 0.82625 0.13117 0.0
H327 H 0.70084 0.92089 0.15338 0.0
H328 H 0.69682 0.92759 0.19102 0.0
H329 H 0.6636 0.88248 0.20023 0.0
H330 H 0.66754 0.8759 0.16264 0.0
H331 H 0.65806 0.88549 0.13052 0.0
H332 H 0.64588 0.89324 0.10386 0.0
H333 H 0.68615 0.91862 0.06985 0.0
H334 H 0.69841 0.91097 0.09712 0.0
H335 H 0.70857 0.88997 0.14456 0.0
H336 H 0.70908 0.867 0.14221 0.0
H337 H 0.66622 0.84538 0.11078 0.0
N338 N 0.68706 0.89457 0.13272 0.0
H339 H 0.6654 0.8679 0.11465 0.0
C340 C 0.69028 0.79595 0.15125 0.0
C341 C 0.69635 0.78692 0.15455 0.0
C342 C 0.69574 0.78073 0.1753 0.0
C343 C 0.68929 0.78369 0.1935 0.0
C344 C 0.68412 0.79355 0.19061 0.0
C345 C 0.68441 0.79945 0.16975 0.0
C346 C 0.67904 0.7878 0.11435 0.0
C347 C 0.66501 0.77759 0.12119 0.0
C348 C 0.65634 0.76469 0.10851 0.0
C349 C 0.6615 0.76168 0.08876 0.0
C350 C 0.67525 0.77224 0.08142 0.0
C351 C 0.6839 0.78517 0.0941 0.0
C352 C 0.6882 0.81332 0.12631 0.0
C353 C 0.70094 0.82662 0.12282 0.0
C354 C 0.70075 0.83984 0.12213 0.0
C355 C 0.68778 0.84005 0.12528 0.0
C356 C 0.67493 0.82659 0.12827 0.0
C357 C 0.6751 0.81338 0.12852 0.0
C358 C 0.68471 0.8979 0.15529 0.0
C359 C 0.69274 0.91246 0.1636 0.0
C360 C 0.69035 0.91629 0.18497 0.0
C361 C 0.67992 0.90555 0.19854 0.0
C362 C 0.67182 0.89095 0.19022 0.0
C363 C 0.6741 0.88717 0.16874 0.0
C364 C 0.67924 0.89778 0.1159 0.0
C365 C 0.66428 0.89262 0.11725 0.0
C366 C 0.65727 0.89694 0.1018 0.0
C367 C 0.66505 0.90654 0.0847 0.0
C368 C 0.6799 0.9113 0.08294 0.0
C369 C 0.6869 0.90692 0.0984 0.0
C370 C 0.68709 0.88087 0.12972 0.0
C371 C 0.69932 0.88025 0.13713 0.0
C372 C 0.69961 0.8671 0.13557 0.0
C373 C 0.6877 0.85423 0.12621 0.0
C374 C 0.67551 0.85494 0.11844 0.0
C375 C 0.67511 0.86801 0.12043 0.0
H376 H 0.12978 0.78446 0.1441 0.0
N377 N 0.12916 0.80528 0.11754 0.0
H378 H 0.11582 0.77394 0.17687 0.0
H379 H 0.11059 0.81189 0.13631 0.0
H380 H 0.0954 0.80034 0.16843 0.0
H381 H 0.10974 0.80115 0.08577 0.0
H382 H 0.09746 0.78015 0.05944 0.0
H383 H 0.13811 0.78539 0.10788 0.0
H384 H 0.12542 0.76399 0.08289 0.0
H385 H 0.15153 0.80246 0.13622 0.0
H386 H 0.14122 0.83298 0.10511 0.0
H387 H 0.17599 0.82206 0.14431 0.0
H388 H 0.16625 0.85281 0.11213 0.0
H389 H 0.2531 0.91355 0.1642 0.0
H390 H 0.25737 0.92756 0.19863 0.0
H391 H 0.21973 0.89122 0.22672 0.0
H392 H 0.21518 0.87693 0.19204 0.0
H393 H 0.22567 0.90465 0.13119 0.0
H394 H 0.23975 0.92002 0.10063 0.0
H395 H 0.26718 0.90058 0.1035 0.0
H396 H 0.25265 0.88486 0.13352 0.0
H397 H 0.22278 0.85789 0.14133 0.0
H398 H 0.19853 0.83827 0.12963 0.0
H399 H 0.18179 0.86765 0.14207 0.0
N400 N 0.23096 0.88536 0.15396 0.0
H401 H 0.2062 0.88732 0.15271 0.0
C402 C 0.12151 0.7993 0.13785 0.0
C403 C 0.12273 0.78844 0.14954 0.0
C404 C 0.11442 0.78213 0.1682 0.0
C405 C 0.10429 0.78611 0.17527 0.0
C406 C 0.10321 0.79712 0.16373 0.0
C407 C 0.11181 0.80368 0.14529 0.0
C408 C 0.12467 0.79479 0.09905 0.0
C409 C 0.1135 0.7933 0.08461 0.0
C410 C 0.10638 0.78118 0.0698 0.0
C411 C 0.11017 0.77012 0.06937 0.0
C412 C 0.12217 0.77225 0.08262 0.0
C413 C 0.12942 0.78451 0.0972 0.0
C414 C 0.14433 0.81621 0.12016 0.0
C415 C 0.15448 0.8133 0.13076 0.0
C416 C 0.16868 0.82463 0.13527 0.0
C417 C 0.17317 0.83912 0.12902 0.0
C418 C 0.16314 0.84187 0.11762 0.0
C419 C 0.14887 0.83053 0.11335 0.0
C420 C 0.23307 0.89426 0.17427 0.0
C421 C 0.24534 0.90852 0.17723 0.0
C422 C 0.24801 0.91658 0.19727 0.0
C423 C 0.23877 0.9106 0.21529 0.0
C424 C 0.22682 0.89628 0.21288 0.0
C425 C 0.22417 0.88813 0.19284 0.0
C426 C 0.23813 0.89357 0.13454 0.0
C427 C 0.23447 0.90343 0.12484 0.0
C428 C 0.24264 0.91234 0.10754 0.0
C429 C 0.25464 0.91159 0.09969 0.0
C430 C 0.2579 0.90131 0.10891 0.0
C431 C 0.24969 0.89238 0.12613 0.0
C432 C 0.21628 0.87396 0.14818 0.0
C433 C 0.21383 0.86003 0.14155 0.0
C434 C 0.19994 0.84883 0.13495 0.0
C435 C 0.18811 0.85129 0.13501 0.0
C436 C 0.19063 0.86537 0.14147 0.0
C437 C 0.20459 0.87663 0.14777 0.0
H438 H 0.33664 0.21335 0.85712 0.0
N439 N 0.3191 0.2009 0.89314 0.0
H440 H 0.33173 0.22486 0.82592 0.0
H441 H 0.2943 0.19993 0.88269 0.0
H442 H 0.28929 0.2115 0.85112 0.0
H443 H 0.30859 0.19928 0.93368 0.0
H444 H 0.31681 0.21909 0.96227 0.0
H445 H 0.3436 0.22811 0.89193 0.0
H446 H 0.35151 0.24787 0.91964 0.0
H447 H 0.34743 0.2082 0.88656 0.0
H448 H 0.30438 0.17189 0.89623 0.0
H449 H 0.35642 0.19127 0.88166 0.0
H450 H 0.31352 0.15475 0.89334 0.0
H451 H 0.36893 0.13707 0.83272 0.0
H452 H 0.36197 0.11901 0.80156 0.0
H453 H 0.32814 0.08616 0.84118 0.0
H454 H 0.33485 0.10427 0.87193 0.0
H455 H 0.34147 0.123 0.91099 0.0
H456 H 0.34363 0.10899 0.94124 0.0
H457 H 0.38069 0.11068 0.90957 0.0
H458 H 0.37922 0.12589 0.88074 0.0
H459 H 0.37219 0.15923 0.89175 0.0
H460 H 0.36282 0.17585 0.89853 0.0
H461 H 0.32135 0.14326 0.86898 0.0
N462 N 0.35832 0.1322 0.87373 0.0
H463 H 0.33043 0.1264 0.86411 0.0
C464 C 0.3158 0.20572 0.87249 0.0
C465 C 0.32617 0.21259 0.85594 0.0
C466 C 0.3234 0.2193 0.83806 0.0
C467 C 0.31019 0.2192 0.8362 0.0
C468 C 0.29954 0.21167 0.85204 0.0
C469 C 0.30237 0.20506 0.87005 0.0
C470 C 0.32536 0.21215 0.91064 0.0
C471 C 0.31816 0.2098 0.93084 0.0
C472 C 0.32281 0.22115 0.94705 0.0
C473 C 0.33479 0.23512 0.94326 0.0
C474 C 0.3424 0.23722 0.92339 0.0
C475 C 0.33779 0.22587 0.90732 0.0
C476 C 0.32507 0.19127 0.89127 0.0
C477 C 0.33987 0.19656 0.88771 0.0
C478 C 0.34508 0.18679 0.88527 0.0
C479 C 0.33575 0.17151 0.88701 0.0
C480 C 0.32103 0.16635 0.89129 0.0
C481 C 0.31577 0.17612 0.89317 0.0
C482 C 0.3526 0.12201 0.85471 0.0
C483 C 0.35981 0.12607 0.83444 0.0
C484 C 0.35582 0.11577 0.81672 0.0
C485 C 0.34463 0.10119 0.81914 0.0
C486 C 0.33691 0.0973 0.83903 0.0
C487 C 0.34075 0.10764 0.85658 0.0
C488 C 0.36031 0.12564 0.89357 0.0
C489 C 0.35037 0.12081 0.91098 0.0
C490 C 0.35149 0.11253 0.92818 0.0
C491 C 0.36222 0.1084 0.92794 0.0
C492 C 0.37243 0.11377 0.91088 0.0
C493 C 0.37157 0.12241 0.89414 0.0
C494 C 0.35222 0.14166 0.87711 0.0
C495 C 0.36106 0.1557 0.88685 0.0
C496 C 0.35568 0.16524 0.89052 0.0
C497 C 0.34131 0.16107 0.88408 0.0
C498 C 0.3324 0.14688 0.87449 0.0
C499 C 0.33769 0.13722 0.87135 0.0
H500 H 0.75538 0.1179 0.87091 0.0
N501 N 0.77897 0.12619 0.89656 0.0
H502 H 0.7476 0.10196 0.8374 0.0
H503 H 0.79518 0.11662 0.87424 0.0
H504 H 0.78808 0.10163 0.83985 0.0
H505 H 0.78 0.10188 0.9096 0.0
H506 H 0.76379 0.08352 0.93534 0.0
H507 H 0.75984 0.12795 0.92247 0.0
H508 H 0.74296 0.10923 0.94741 0.0
H509 H 0.79263 0.15266 0.8792 0.0
H510 H 0.79958 0.12481 0.92404 0.0
H511 H 0.81829 0.17152 0.88395 0.0
H512 H 0.82495 0.14364 0.92902 0.0
H513 H 0.87405 0.21844 0.89406 0.0
H514 H 0.88373 0.23539 0.86347 0.0
H515 H 0.91756 0.22442 0.85586 0.0
H516 H 0.90726 0.20686 0.88593 0.0
H517 H 0.90866 0.20598 0.93268 0.0
H518 H 0.92365 0.2259 0.95937 0.0
H519 H 0.89039 0.23801 0.96169 0.0
H520 H 0.87576 0.21838 0.9342 0.0
H521 H 0.86736 0.18859 0.87414 0.0
H522 H 0.84162 0.17105 0.87254 0.0
H523 H 0.841 0.1709 0.94458 0.0
N524 N 0.88485 0.20172 0.9111 0.0
H525 H 0.8669 0.18889 0.94654 0.0
C526 C 0.77587 0.11858 0.87503 0.0
C527 C 0.76262 0.1145 0.86399 0.0
C528 C 0.75823 0.10542 0.84473 0.0
C529 C 0.76715 0.10036 0.83579 0.0
C530 C 0.78073 0.10497 0.84642 0.0
C531 C 0.78496 0.1138 0.86598 0.0
C532 C 0.77121 0.1164 0.9143 0.0
C533 C 0.77226 0.10379 0.91833 0.0
C534 C 0.76282 0.09319 0.93285 0.0
C535 C 0.75191 0.09476 0.94325 0.0
C536 C 0.75132 0.1077 0.93995 0.0
C537 C 0.76093 0.11841 0.92566 0.0
C538 C 0.79398 0.13726 0.90114 0.0
C539 C 0.7996 0.15066 0.89022 0.0
C540 C 0.81423 0.16139 0.89292 0.0
C541 C 0.82355 0.15901 0.90689 0.0
C542 C 0.81793 0.14579 0.91833 0.0
C543 C 0.80334 0.13494 0.91534 0.0
C544 C 0.88991 0.21129 0.89219 0.0
C545 C 0.88347 0.21959 0.88569 0.0
C546 C 0.8891 0.22937 0.86825 0.0
C547 C 0.90151 0.23138 0.85724 0.0
C548 C 0.90787 0.223 0.86369 0.0
C549 C 0.90207 0.21302 0.88094 0.0
C550 C 0.89114 0.21066 0.93132 0.0
C551 C 0.90442 0.21264 0.93953 0.0
C552 C 0.91298 0.22407 0.95486 0.0
C553 C 0.90837 0.23379 0.96253 0.0
C554 C 0.89446 0.23099 0.95576 0.0
C555 C 0.88598 0.21964 0.94019 0.0
C556 C 0.86924 0.19134 0.9105 0.0
C557 C 0.86178 0.18536 0.88979 0.0
C558 C 0.84698 0.17516 0.88877 0.0
C559 C 0.83925 0.16997 0.90841 0.0
C560 C 0.84669 0.175 0.92917 0.0
C561 C 0.86153 0.18547 0.93023 0.0
H562 H 0.79795 0.71969 0.88073 0.0
N563 N 0.79512 0.70051 0.91146 0.0
H564 H 0.78471 0.71447 0.84472 0.0
H565 H 0.77717 0.67321 0.89242 0.0
H566 H 0.76418 0.66788 0.85648 0.0
H567 H 0.77911 0.67412 0.93139 0.0
H568 H 0.75846 0.6677 0.95535 0.0
H569 H 0.78889 0.71916 0.93175 0.0
H570 H 0.76902 0.71321 0.95697 0.0
H571 H 0.81862 0.72125 0.93303 0.0
H572 H 0.80122 0.67878 0.89982 0.0
H573 H 0.84211 0.7227 0.93773 0.0
H574 H 0.82485 0.68053 0.90294 0.0
H575 H 0.91571 0.73156 0.89286 0.0
H576 H 0.92343 0.73197 0.85433 0.0
H577 H 0.88533 0.68958 0.84046 0.0
H578 H 0.87756 0.68938 0.87879 0.0
H579 H 0.88762 0.68162 0.90773 0.0
H580 H 0.90111 0.6717 0.92671 0.0
H581 H 0.92475 0.71201 0.96626 0.0
H582 H 0.91115 0.72199 0.94701 0.0
H583 H 0.88545 0.73051 0.9123 0.0
H584 H 0.8613 0.72739 0.91493 0.0
H585 H 0.84365 0.6808 0.92446 0.0
N586 N 0.89282 0.70997 0.91208 0.0
H587 H 0.86778 0.68397 0.92059 0.0
C588 C 0.78861 0.69691 0.88924 0.0
C589 C 0.79076 0.70837 0.87529 0.0
C590 C 0.7832 0.70535 0.85474 0.0
C591 C 0.7733 0.69075 0.8478 0.0
C592 C 0.77154 0.67925 0.8615 0.0
C593 C 0.77909 0.68229 0.88203 0.0
C594 C 0.78521 0.69705 0.92938 0.0
C595 C 0.77697 0.68267 0.93704 0.0
C596 C 0.76526 0.67907 0.95094 0.0
C597 C 0.76183 0.68987 0.95765 0.0
C598 C 0.77103 0.70451 0.95154 0.0
C599 C 0.7825 0.708 0.93738 0.0
C600 C 0.80826 0.70011 0.9157 0.0
C601 C 0.81989 0.71223 0.92678 0.0
C602 C 0.83335 0.71308 0.92922 0.0
C603 C 0.83555 0.70189 0.92026 0.0
C604 C 0.82362 0.68935 0.91015 0.0
C605 C 0.81005 0.6884 0.9081 0.0
C606 C 0.8962 0.71043 0.88876 0.0
C607 C 0.90893 0.7225 0.88135 0.0
C608 C 0.91327 0.72273 0.85938 0.0
C609 C 0.90499 0.71077 0.84448 0.0
C610 C 0.89196 0.69888 0.85168 0.0
C611 C 0.88753 0.69875 0.87358 0.0
C612 C 0.89844 0.70268 0.92584 0.0
C613 C 0.89545 0.68827 0.92075 0.0
C614 C 0.90325 0.68261 0.93156 0.0
C615 C 0.91412 0.69116 0.94775 0.0
C616 C 0.9164 0.70515 0.95392 0.0
C617 C 0.90865 0.71086 0.94296 0.0
C618 C 0.87854 0.7076 0.91639 0.0
C619 C 0.87637 0.71966 0.91525 0.0
C620 C 0.86253 0.71783 0.91691 0.0
C621 C 0.85042 0.70382 0.92005 0.0
C622 C 0.85265 0.69172 0.92178 0.0
C623 C 0.86654 0.69356 0.9198 0.0
H624 H 0.76766 0.61438 0.49652 0.0
N625 N 0.77769 0.63163 0.46143 0.0
H626 H 0.76436 0.62136 0.53448 0.0
H627 H 0.78585 0.65946 0.47711 0.0
H628 H 0.78255 0.66643 0.5145 0.0
H629 H 0.78778 0.65639 0.43631 0.0
H630 H 0.77252 0.66395 0.41596 0.0
H631 H 0.74991 0.61497 0.45027 0.0
H632 H 0.73463 0.62233 0.42972 0.0
H633 H 0.78138 0.61064 0.44299 0.0
H634 H 0.80502 0.65596 0.46621 0.0
H635 H 0.80424 0.61092 0.43797 0.0
H636 H 0.82771 0.65608 0.4629 0.0
H637 H 0.87484 0.61243 0.48483 0.0
H638 H 0.88324 0.61483 0.52398 0.0
H639 H 0.88499 0.65672 0.53033 0.0
H640 H 0.87617 0.65403 0.49142 0.0
H641 H 0.89149 0.6607 0.46077 0.0
H642 H 0.913 0.67129 0.4383 0.0
H643 H 0.8988 0.62862 0.40713 0.0
H644 H 0.87694 0.61809 0.42951 0.0
H645 H 0.84385 0.60953 0.46578 0.0
H646 H 0.82134 0.61007 0.46161 0.0
H647 H 0.84572 0.65548 0.44226 0.0
N648 N 0.87068 0.63147 0.46187 0.0
H649 H 0.86814 0.65505 0.44784 0.0
C650 C 0.77699 0.63632 0.48397 0.0
C651 C 0.7711 0.62578 0.50053 0.0
C652 C 0.76919 0.62977 0.5221 0.0
C653 C 0.77326 0.64446 0.52749 0.0
C654 C 0.77955 0.65508 0.51103 0.0
C655 C 0.78137 0.65107 0.4895 0.0
C656 C 0.7699 0.6351 0.44498 0.0
C657 C 0.77625 0.64874 0.43443 0.0
C658 C 0.76752 0.65306 0.42279 0.0
C659 C 0.75236 0.64383 0.42162 0.0
C660 C 0.74625 0.62977 0.43068 0.0
C661 C 0.75495 0.62549 0.44223 0.0
C662 C 0.79139 0.6331 0.45539 0.0
C663 C 0.79152 0.62068 0.44682 0.0
C664 C 0.8046 0.62083 0.44425 0.0
C665 C 0.81789 0.6334 0.45057 0.0
C666 C 0.81777 0.64618 0.45777 0.0
C667 C 0.80468 0.64609 0.45993 0.0
C668 C 0.87499 0.63304 0.48519 0.0
C669 C 0.87693 0.62205 0.49477 0.0
C670 C 0.88171 0.62344 0.51704 0.0
C671 C 0.88483 0.636 0.53006 0.0
C672 C 0.88281 0.64701 0.52054 0.0
C673 C 0.87778 0.64548 0.49833 0.0
C674 C 0.88254 0.63851 0.44684 0.0
C675 C 0.89279 0.65362 0.44888 0.0
C676 C 0.90519 0.65967 0.4361 0.0
C677 C 0.9077 0.65077 0.42114 0.0
C678 C 0.89714 0.6358 0.41839 0.0
C679 C 0.88468 0.62976 0.43116 0.0
C680 C 0.8577 0.63213 0.45708 0.0
C681 C 0.84428 0.61955 0.46045 0.0
C682 C 0.8314 0.61987 0.45783 0.0
C683 C 0.83161 0.63282 0.45146 0.0
C684 C 0.84509 0.64537 0.44748 0.0
C685 C 0.85801 0.64509 0.45048 0.0
H686 H 0.38905 0.14544 0.48667 0.0
N687 N 0.36747 0.1499 0.47454 0.0
H688 H 0.39049 0.13241 0.51934 0.0
H689 H 0.34848 0.14012 0.50891 0.0
H690 H 0.34972 0.12693 0.5415 0.0
H691 H 0.33783 0.13235 0.47283 0.0
H692 H 0.32383 0.11033 0.44895 0.0
H693 H 0.37702 0.14088 0.44054 0.0
H694 H 0.36323 0.11874 0.41688 0.0
H695 H 0.38034 0.17229 0.50504 0.0
H696 H 0.35057 0.15715 0.44768 0.0
H697 H 0.37815 0.19418 0.50821 0.0
H698 H 0.34859 0.17908 0.45088 0.0
H699 H 0.37316 0.26864 0.50484 0.0
H700 H 0.36959 0.27651 0.54196 0.0
H701 H 0.33885 0.23138 0.55626 0.0
H702 H 0.34202 0.22361 0.5191 0.0
H703 H 0.33115 0.23202 0.48444 0.0
H704 H 0.31858 0.23833 0.4561 0.0
H705 H 0.35886 0.2638 0.42224 0.0
H706 H 0.37142 0.25733 0.45078 0.0
H707 H 0.38372 0.23901 0.49077 0.0
H708 H 0.38528 0.21655 0.48777 0.0
H709 H 0.33893 0.19104 0.47544 0.0
N710 N 0.36022 0.24155 0.48692 0.0
H711 H 0.33748 0.21342 0.47823 0.0
C712 C 0.36867 0.14366 0.49527 0.0
C713 C 0.38058 0.14163 0.4988 0.0
C714 C 0.38138 0.13423 0.51747 0.0
C715 C 0.37018 0.1286 0.53292 0.0
C716 C 0.35842 0.131 0.52973 0.0
C717 C 0.3577 0.13853 0.51113 0.0
C718 C 0.35853 0.13829 0.45842 0.0
C719 C 0.3434 0.12957 0.46043 0.0
C720 C 0.33542 0.11694 0.4468 0.0
C721 C 0.3424 0.11268 0.43105 0.0
C722 C 0.35743 0.12177 0.42853 0.0
C723 C 0.36537 0.13442 0.44207 0.0
C724 C 0.36501 0.16231 0.47698 0.0
C725 C 0.37304 0.17338 0.49345 0.0
C726 C 0.37197 0.18608 0.49507 0.0
C727 C 0.36307 0.1883 0.47994 0.0
C728 C 0.35525 0.17751 0.46316 0.0
C729 C 0.35634 0.16479 0.46147 0.0
C730 C 0.35814 0.24556 0.50922 0.0
C731 C 0.36568 0.26046 0.51602 0.0
C732 C 0.36357 0.26494 0.53708 0.0
C733 C 0.35399 0.25452 0.5519 0.0
C734 C 0.34639 0.23959 0.54516 0.0
C735 C 0.34828 0.23515 0.52392 0.0
C736 C 0.35226 0.24417 0.4696 0.0
C737 C 0.33725 0.23874 0.47073 0.0
C738 C 0.33006 0.24232 0.45447 0.0
C739 C 0.33774 0.25152 0.43691 0.0
C740 C 0.35269 0.25675 0.43563 0.0
C741 C 0.35985 0.25303 0.45181 0.0
C742 C 0.36059 0.22802 0.48458 0.0
C743 C 0.37393 0.22856 0.48734 0.0
C744 C 0.37476 0.21571 0.48577 0.0
C745 C 0.36221 0.202 0.4814 0.0
C746 C 0.34882 0.20145 0.47853 0.0
C747 C 0.34799 0.21431 0.48016 0.0
H748 H 0.79788 0.09278 0.48297 0.0
N749 N 0.80652 0.11626 0.45812 0.0
H750 H 0.78277 0.08614 0.51565 0.0
H751 H 0.79564 0.13248 0.47754 0.0
H752 H 0.7816 0.12666 0.5113 0.0
H753 H 0.78313 0.11645 0.43878 0.0
H754 H 0.76657 0.09896 0.41012 0.0
H755 H 0.81048 0.09722 0.43407 0.0
H756 H 0.79369 0.07917 0.40637 0.0
H757 H 0.83224 0.12879 0.47881 0.0
H758 H 0.80603 0.13807 0.43367 0.0
H759 H 0.85035 0.1549 0.48142 0.0
H760 H 0.82434 0.16407 0.43531 0.0
H761 H 0.88578 0.21301 0.51084 0.0
H762 H 0.8915 0.22409 0.54868 0.0
H763 H 0.88051 0.25652 0.52752 0.0
H764 H 0.87503 0.24551 0.48962 0.0
H765 H 0.88247 0.23853 0.43707 0.0
H766 H 0.9052 0.25275 0.41739 0.0
H767 H 0.92684 0.23879 0.46443 0.0
H768 H 0.90437 0.22498 0.48409 0.0
H769 H 0.8853 0.20159 0.4714 0.0
H770 H 0.86852 0.17561 0.46381 0.0
H771 H 0.83284 0.18422 0.46107 0.0
N772 N 0.87841 0.22363 0.47428 0.0
H773 H 0.84994 0.21045 0.46754 0.0
C774 C 0.79809 0.11316 0.47799 0.0
C775 C 0.79434 0.1002 0.48916 0.0
C776 C 0.78582 0.09653 0.50802 0.0
C777 C 0.78105 0.10595 0.51649 0.0
C778 C 0.78489 0.11902 0.50524 0.0
C779 C 0.79312 0.12249 0.486 0.0
C780 C 0.79816 0.10821 0.43837 0.0
C781 C 0.78578 0.10871 0.43111 0.0
C782 C 0.77619 0.09852 0.41494 0.0
C783 C 0.77863 0.08747 0.40601 0.0
C784 C 0.79147 0.08759 0.41248 0.0
C785 C 0.80112 0.09789 0.4284 0.0
C786 C 0.81781 0.13138 0.45605 0.0
C787 C 0.8306 0.13644 0.46897 0.0
C788 C 0.84096 0.15138 0.47037 0.0
C789 C 0.83882 0.16168 0.45865 0.0
C790 C 0.82624 0.15651 0.4449 0.0
C791 C 0.81579 0.14154 0.44371 0.0
C792 C 0.88003 0.22854 0.49736 0.0
C793 C 0.88447 0.22241 0.51437 0.0
C794 C 0.88779 0.22877 0.53596 0.0
C795 C 0.8865 0.2412 0.54099 0.0
C796 C 0.88148 0.24688 0.52418 0.0
C797 C 0.87835 0.24064 0.50257 0.0
C798 C 0.89164 0.2307 0.46202 0.0
C799 C 0.89211 0.23845 0.44292 0.0
C800 C 0.90508 0.24652 0.43171 0.0
C801 C 0.91784 0.24699 0.43948 0.0
C802 C 0.91726 0.23887 0.45827 0.0
C803 C 0.90432 0.23084 0.46946 0.0
C804 C 0.86888 0.20809 0.46984 0.0
C805 C 0.87393 0.19801 0.46891 0.0
C806 C 0.86424 0.18303 0.46473 0.0
C807 C 0.84928 0.17774 0.46175 0.0
C808 C 0.8443 0.18787 0.46277 0.0
C809 C 0.85402 0.20286 0.46669 0.0
H810 H 0.00776 0.55875 0.20855 0.0
N811 N 0.98725 0.53301 0.22702 0.0
H812 H 0.00421 0.57053 0.17673 0.0
H813 H 0.96456 0.52168 0.19845 0.0
H814 H 0.96126 0.53289 0.16498 0.0
H815 H 0.97108 0.53875 0.25412 0.0
H816 H 0.97943 0.55911 0.28159 0.0
H817 H 0.01545 0.55066 0.24276 0.0
H818 H 0.02385 0.57128 0.26884 0.0
H819 H 0.01278 0.53783 0.2091 0.0
H820 H 0.9737 0.50528 0.23952 0.0
H821 H 0.02145 0.52041 0.20681 0.0
H822 H 0.9817 0.48725 0.23571 0.0
H823 H 0.04634 0.45877 0.20211 0.0
H824 H 0.04693 0.44589 0.16835 0.0
H825 H 0.00504 0.43961 0.14725 0.0
H826 H 0.00405 0.45126 0.1822 0.0
H827 H 0.99928 0.43597 0.21792 0.0
H828 H 0.99483 0.41551 0.24201 0.0
H829 H 0.03574 0.44314 0.27699 0.0
H830 H 0.04047 0.4634 0.25218 0.0
H831 H 0.0288 0.48326 0.18743 0.0
H832 H 0.01911 0.49981 0.18868 0.0
H833 H 0.99765 0.48036 0.24995 0.0
N834 N 0.02471 0.4622 0.21633 0.0
H835 H 0.00633 0.46317 0.24783 0.0
C836 C 0.98622 0.53942 0.20636 0.0
C837 C 0.99754 0.55299 0.1993 0.0
C838 C 0.99554 0.55967 0.18067 0.0
C839 C 0.98236 0.55279 0.16816 0.0
C840 C 0.97141 0.53877 0.17447 0.0
C841 C 0.97331 0.53224 0.19346 0.0
C842 C 0.99253 0.54316 0.24611 0.0
C843 C 0.9826 0.54557 0.25785 0.0
C844 C 0.98742 0.55733 0.27335 0.0
C845 C 0.00236 0.56709 0.27721 0.0
C846 C 0.01227 0.564 0.2666 0.0
C847 C 0.00742 0.55212 0.25138 0.0
C848 C 0.99267 0.52292 0.22496 0.0
C849 C 0.00604 0.5269 0.2153 0.0
C850 C 0.01088 0.51678 0.21366 0.0
C851 C 0.00231 0.50231 0.22107 0.0
C852 C 0.9888 0.49833 0.23028 0.0
C853 C 0.98412 0.50857 0.23234 0.0
C854 C 0.02533 0.45624 0.1946 0.0
C855 C 0.03737 0.45473 0.19003 0.0
C856 C 0.03769 0.4474 0.17054 0.0
C857 C 0.02606 0.44167 0.1547 0.0
C858 C 0.01411 0.44355 0.15907 0.0
C859 C 0.01362 0.4505 0.17896 0.0
C860 C 0.02039 0.4511 0.23303 0.0
C861 C 0.00718 0.4377 0.23099 0.0
C862 C 0.00459 0.42609 0.24482 0.0
C863 C 0.01494 0.42787 0.26128 0.0
C864 C 0.02755 0.44162 0.26454 0.0
C865 C 0.03028 0.45313 0.25039 0.0
C866 C 0.01792 0.47129 0.21682 0.0
C867 C 0.02164 0.4822 0.2008 0.0
C868 C 0.01628 0.49192 0.20178 0.0
C869 C 0.0075 0.49149 0.2194 0.0
C870 C 0.00402 0.48083 0.23574 0.0
C871 C 0.00911 0.47089 0.2345 0.0
H872 H 0.57586 0.52529 0.22546 0.0
N873 N 0.55271 0.52285 0.24514 0.0
H874 H 0.58514 0.53564 0.18906 0.0
H875 H 0.53926 0.53159 0.21468 0.0
H876 H 0.54834 0.54182 0.17806 0.0
H877 H 0.54518 0.54416 0.25084 0.0
H878 H 0.55701 0.5655 0.27599 0.0
H879 H 0.57303 0.52858 0.27619 0.0
H880 H 0.586 0.5507 0.30001 0.0
H881 H 0.54706 0.49531 0.24299 0.0
H882 H 0.52635 0.52129 0.25129 0.0
H883 H 0.52341 0.47285 0.24272 0.0
H884 H 0.50283 0.49903 0.25212 0.0
H885 H 0.45937 0.41311 0.20737 0.0
H886 H 0.44714 0.4047 0.17058 0.0
H887 H 0.42697 0.43123 0.18046 0.0
H888 H 0.43863 0.43896 0.21734 0.0
H889 H 0.44622 0.44706 0.25716 0.0
H890 H 0.42621 0.4385 0.28289 0.0
H891 H 0.42245 0.39556 0.28228 0.0
H892 H 0.44238 0.40419 0.2562 0.0
H893 H 0.48001 0.43415 0.25905 0.0
H894 H 0.50333 0.45693 0.26409 0.0
H895 H 0.48601 0.48016 0.22745 0.0
N896 N 0.4563 0.43021 0.23749 0.0
H897 H 0.46274 0.45769 0.22356 0.0
C898 C 0.55695 0.5277 0.22275 0.0
C899 C 0.56973 0.5287 0.21501 0.0
C900 C 0.57495 0.53455 0.19417 0.0
C901 C 0.56746 0.53954 0.18062 0.0
C902 C 0.55442 0.53819 0.18819 0.0
C903 C 0.54919 0.5323 0.20909 0.0
C904 C 0.55797 0.53449 0.262 0.0
C905 C 0.55359 0.54508 0.26224 0.0
C906 C 0.56067 0.55757 0.27637 0.0
C907 C 0.57269 0.56009 0.28995 0.0
C908 C 0.57669 0.54917 0.29019 0.0
C909 C 0.56933 0.53649 0.27648 0.0
C910 C 0.5386 0.51 0.24732 0.0
C911 C 0.53743 0.49614 0.24522 0.0
C912 C 0.52388 0.48332 0.2452 0.0
C913 C 0.51114 0.48407 0.24742 0.0
C914 C 0.51237 0.49801 0.25004 0.0
C915 C 0.52593 0.51084 0.24982 0.0
C916 C 0.45 0.42667 0.2151 0.0
C917 C 0.4524 0.41718 0.20142 0.0
C918 C 0.44545 0.41246 0.18038 0.0
C919 C 0.43598 0.41722 0.17258 0.0
C920 C 0.43396 0.42712 0.18608 0.0
C921 C 0.44079 0.4317 0.20715 0.0
C922 C 0.44583 0.42622 0.25481 0.0
C923 C 0.44127 0.43588 0.2628 0.0
C924 C 0.42981 0.43097 0.27756 0.0
C925 C 0.42268 0.41632 0.28451 0.0
C926 C 0.42758 0.40684 0.27699 0.0
C927 C 0.43903 0.41177 0.2623 0.0
C928 C 0.46965 0.44405 0.24069 0.0
C929 C 0.48127 0.44422 0.25229 0.0
C930 C 0.49461 0.45723 0.255 0.0
C931 C 0.49665 0.47042 0.246 0.0
C932 C 0.48484 0.4703 0.23484 0.0
C933 C 0.47147 0.45731 0.23235 0.0
H934 H 0.53429 0.96926 0.20217 0.0
N935 N 0.52725 0.98436 0.2302 0.0
H936 H 0.54804 0.97782 0.16824 0.0
H937 H 0.5349 0.01046 0.20996 0.0
H938 H 0.54777 0.01879 0.17515 0.0
H939 H 0.55151 0.01032 0.24319 0.0
H940 H 0.57239 0.01255 0.26426 0.0
H941 H 0.52779 0.96375 0.25462 0.0
H942 H 0.54869 0.96587 0.2757 0.0
H943 H 0.50048 0.9702 0.21331 0.0
H944 H 0.52863 0.00634 0.25824 0.0
H945 H 0.48202 0.97727 0.21571 0.0
H946 H 0.5099 0.01295 0.26196 0.0
H947 H 0.42678 0.9935 0.21796 0.0
H948 H 0.414 0.98782 0.18203 0.0
H949 H 0.45257 0.02239 0.15237 0.0
H950 H 0.46484 0.02882 0.18915 0.0
H951 H 0.44664 0.03702 0.23434 0.0
H952 H 0.42784 0.03587 0.25834 0.0
H953 H 0.42213 0.99551 0.28566 0.0
H954 H 0.44036 0.99638 0.26108 0.0
H955 H 0.44749 0.98789 0.22911 0.0
H956 H 0.46455 0.97915 0.23501 0.0
H957 H 0.4997 0.02425 0.24158 0.0
N958 N 0.45404 0.01664 0.22803 0.0
H959 H 0.48226 0.03274 0.2374 0.0
C960 C 0.53347 0.98909 0.20854 0.0
C961 C 0.53702 0.97999 0.19612 0.0
C962 C 0.5448 0.98491 0.17658 0.0
C963 C 0.54903 0.99904 0.16877 0.0
C964 C 0.54491 0.00794 0.18078 0.0
C965 C 0.53736 0.00311 0.2006 0.0
C966 C 0.53802 0.98679 0.24732 0.0
C967 C 0.5506 0.00064 0.25085 0.0
C968 C 0.56262 0.00188 0.26269 0.0
C969 C 0.56227 0.98935 0.27134 0.0
C970 C 0.54928 0.97575 0.26935 0.0
C971 C 0.5373 0.97451 0.2574 0.0
C972 C 0.51596 0.98765 0.23546 0.0
C973 C 0.50249 0.97941 0.22424 0.0
C974 C 0.49189 0.98345 0.22578 0.0
C975 C 0.49439 0.99577 0.23899 0.0
C976 C 0.50765 0.0036 0.25122 0.0
C977 C 0.51839 0.9997 0.24931 0.0
C978 C 0.44671 0.01189 0.20637 0.0
C979 C 0.43248 0.99993 0.20378 0.0
C980 C 0.42521 0.99655 0.18299 0.0
C981 C 0.43213 0.0047 0.16407 0.0
C982 C 0.44667 0.01612 0.16655 0.0
C983 C 0.4538 0.01973 0.18751 0.0
C984 C 0.44502 0.01687 0.24567 0.0
C985 C 0.44153 0.02809 0.24587 0.0
C986 C 0.43077 0.02741 0.25965 0.0
C987 C 0.42331 0.01549 0.27381 0.0
C988 C 0.4274 0.00467 0.27459 0.0
C989 C 0.43805 0.00527 0.2606 0.0
C990 C 0.46362 0.01102 0.23312 0.0
C991 C 0.45881 0.99587 0.23242 0.0
C992 C 0.46867 0.99089 0.2355 0.0
C993 C 0.48363 0.00095 0.23862 0.0
C994 C 0.4883 0.0161 0.23969 0.0
C995 C 0.47837 0.02103 0.23712 0.0
H996 H 0.42755 0.94464 0.80947 0.0
N997 N 0.44966 0.9657 0.78842 0.0
H998 H 0.41905 0.94624 0.84657 0.0
H999 H 0.46363 0.98877 0.81854 0.0
H1000 H 0.45524 0.99052 0.85578 0.0
H1001 H 0.45439 0.99375 0.78467 0.0
H1002 H 0.43939 0.00077 0.76278 0.0
H1003 H 0.43005 0.94956 0.75682 0.0
H1004 H 0.41503 0.95655 0.73458 0.0
H1005 H 0.4566 0.94493 0.79091 0.0
H1006 H 0.4748 0.99109 0.77869 0.0
H1007 H 0.48054 0.94748 0.78856 0.0
H1008 H 0.49878 0.9937 0.77509 0.0
H1009 H 0.54341 0.95474 0.82156 0.0
H1010 H 0.55672 0.9609 0.85759 0.0
H1011 H 0.57851 0.00697 0.84168 0.0
H1012 H 0.56549 0.00065 0.80565 0.0
H1013 H 0.56148 0.99846 0.7666 0.0
H1014 H 0.58 0.00353 0.73869 0.0
H1015 H 0.5709 0.95865 0.74225 0.0
H1016 H 0.55279 0.95386 0.77051 0.0
H1017 H 0.52234 0.95188 0.76935 0.0
H1018 H 0.49905 0.95091 0.76501 0.0
H1019 H 0.51778 0.9942 0.79664 0.0
N1020 N 0.54647 0.97292 0.78909 0.0
H1021 H 0.5412 0.99541 0.79939 0.0
C1022 C 0.4461 0.96655 0.81127 0.0
C1023 C 0.43376 0.95457 0.81971 0.0
C1024 C 0.42899 0.9555 0.84093 0.0
C1025 C 0.43649 0.96852 0.85411 0.0
C1026 C 0.44919 0.98039 0.84592 0.0
C1027 C 0.454 0.9794 0.82468 0.0
C1028 C 0.44333 0.97107 0.77233 0.0
C1029 C 0.44614 0.98566 0.7733 0.0
C1030 C 0.43752 0.98968 0.76077 0.0
C1031 C 0.4259 0.97916 0.74718 0.0
C1032 C 0.42375 0.96484 0.74518 0.0
C1033 C 0.4324 0.96086 0.75764 0.0
C1034 C 0.46385 0.96771 0.78479 0.0
C1035 C 0.46577 0.95557 0.78722 0.0
C1036 C 0.47948 0.95706 0.78569 0.0
C1037 C 0.49168 0.97079 0.78141 0.0
C1038 C 0.4897 0.98298 0.77861 0.0
C1039 C 0.47592 0.98149 0.78044 0.0
C1040 C 0.55341 0.97716 0.81096 0.0
C1041 C 0.55094 0.96616 0.82605 0.0
C1042 C 0.55852 0.96972 0.84662 0.0
C1043 C 0.56874 0.98444 0.85247 0.0
C1044 C 0.57089 0.99551 0.83754 0.0
C1045 C 0.56334 0.99192 0.81696 0.0
C1046 C 0.55594 0.9758 0.77071 0.0
C1047 C 0.56349 0.98975 0.76129 0.0
C1048 C 0.57402 0.99262 0.7454 0.0
C1049 C 0.57688 0.98148 0.7384 0.0
C1050 C 0.56883 0.96739 0.74719 0.0
C1051 C 0.55852 0.96463 0.76329 0.0
C1052 C 0.53341 0.97351 0.7851 0.0
C1053 C 0.52142 0.96122 0.77501 0.0
C1054 C 0.50809 0.96066 0.77277 0.0
C1055 C 0.50637 0.97233 0.78097 0.0
C1056 C 0.51865 0.98501 0.79007 0.0
C1057 C 0.53208 0.98566 0.79191 0.0
H1058 H 0.94724 0.54244 0.83643 0.0
N1059 N 0.96602 0.54019 0.81049 0.0
H1060 H 0.95262 0.5589 0.86913 0.0
H1061 H 0.99271 0.55696 0.83113 0.0
H1062 H 0.99825 0.57358 0.86384 0.0
H1063 H 0.9917 0.55783 0.78999 0.0
H1064 H 0.99604 0.57661 0.76297 0.0
H1065 H 0.94652 0.5451 0.7908 0.0
H1066 H 0.95083 0.56473 0.76599 0.0
H1067 H 0.96633 0.52311 0.84359 0.0
H1068 H 0.9744 0.53078 0.77299 0.0
H1069 H 0.97119 0.50289 0.84072 0.0
H1070 H 0.9795 0.51075 0.77056 0.0
H1071 H 0.96849 0.42836 0.81849 0.0
H1072 H 0.97844 0.42055 0.8487 0.0
H1073 H 0.01701 0.46369 0.85154 0.0
H1074 H 0.00719 0.47095 0.82004 0.0
H1075 H 0.00628 0.46341 0.77552 0.0
H1076 H 0.00955 0.45145 0.74264 0.0
H1077 H 0.96387 0.41852 0.74296 0.0
H1078 H 0.96067 0.4316 0.77397 0.0
H1079 H 0.95988 0.456 0.81632 0.0
H1080 H 0.95746 0.47795 0.81989 0.0
H1081 H 0.99792 0.50318 0.78644 0.0
N1082 N 0.98117 0.45377 0.7981 0.0
H1083 H 0.00041 0.48127 0.78334 0.0
C1084 C 0.96952 0.54852 0.83138 0.0
C1085 C 0.95836 0.54905 0.84258 0.0
C1086 C 0.96147 0.55851 0.8611 0.0
C1087 C 0.97587 0.56764 0.86883 0.0
C1088 C 0.98705 0.56664 0.85825 0.0
C1089 C 0.98392 0.55721 0.83955 0.0
C1090 C 0.96867 0.54986 0.79206 0.0
C1091 C 0.98267 0.559 0.78411 0.0
C1092 C 0.98516 0.56994 0.76889 0.0
C1093 C 0.97387 0.57251 0.76214 0.0
C1094 C 0.95984 0.56307 0.76995 0.0
C1095 C 0.95729 0.5518 0.7844 0.0
C1096 C 0.97081 0.52942 0.80893 0.0
C1097 C 0.96966 0.52093 0.82765 0.0
C1098 C 0.97226 0.50919 0.82599 0.0
C1099 C 0.9759 0.50541 0.80549 0.0
C1100 C 0.97706 0.5137 0.7867 0.0
C1101 C 0.97425 0.52534 0.78825 0.0
C1102 C 0.98703 0.4502 0.81723 0.0
C1103 C 0.97905 0.43612 0.82581 0.0
C1104 C 0.98474 0.43175 0.84327 0.0
C1105 C 0.99853 0.44151 0.85289 0.0
C1106 C 0.00644 0.4558 0.84446 0.0
C1107 C 0.0008 0.46005 0.8266 0.0
C1108 C 0.98312 0.44853 0.77682 0.0
C1109 C 0.99688 0.45406 0.76768 0.0
C1110 C 0.99877 0.44695 0.74911 0.0
C1111 C 0.98705 0.43379 0.73993 0.0
C1112 C 0.9732 0.42873 0.74879 0.0
C1113 C 0.97128 0.43614 0.7668 0.0
C1114 C 0.98017 0.46692 0.79938 0.0
C1115 C 0.9682 0.46628 0.80977 0.0
C1116 C 0.9669 0.47881 0.8119 0.0
C1117 C 0.97753 0.49224 0.80345 0.0
C1118 C 0.98954 0.49291 0.79294 0.0
C1119 C 0.99094 0.48038 0.79112 0.0
H1120 H 0.4668 0.45174 0.79654 0.0
N1121 N 0.4641 0.47539 0.78495 0.0
H1122 H 0.46047 0.43933 0.83192 0.0
H1123 H 0.45564 0.48345 0.82145 0.0
H1124 H 0.44976 0.47138 0.85756 0.0
H1125 H 0.43842 0.47129 0.77205 0.0
H1126 H 0.42003 0.45105 0.74844 0.0
H1127 H 0.46914 0.45724 0.75696 0.0
H1128 H 0.4509 0.43707 0.7336 0.0
H1129 H 0.48753 0.47135 0.7801 0.0
H1130 H 0.47457 0.50414 0.78423 0.0
H1131 H 0.51274 0.49043 0.77983 0.0
H1132 H 0.49997 0.52348 0.7863 0.0
H1133 H 0.59531 0.56194 0.81329 0.0
H1134 H 0.60533 0.57343 0.84975 0.0
H1135 H 0.56386 0.56872 0.86662 0.0
H1136 H 0.55447 0.55863 0.82909 0.0
H1137 H 0.57447 0.58115 0.79307 0.0
H1138 H 0.58825 0.59833 0.76373 0.0
H1139 H 0.59157 0.56379 0.72901 0.0
H1140 H 0.57823 0.54682 0.75876 0.0
H1141 H 0.55605 0.52514 0.80902 0.0
H1142 H 0.53057 0.50637 0.80435 0.0
H1143 H 0.52213 0.53763 0.77069 0.0
N1144 N 0.56893 0.55283 0.79626 0.0
H1145 H 0.54738 0.55659 0.77727 0.0
C1146 C 0.46149 0.46845 0.80626 0.0
C1147 C 0.46317 0.45617 0.80972 0.0
C1148 C 0.45967 0.44915 0.83015 0.0
C1149 C 0.45456 0.45433 0.84763 0.0
C1150 C 0.45344 0.46696 0.84436 0.0
C1151 C 0.45684 0.47391 0.82383 0.0
C1152 C 0.45517 0.46585 0.76657 0.0
C1153 C 0.44136 0.46416 0.76306 0.0
C1154 C 0.43086 0.45257 0.74958 0.0
C1155 C 0.43396 0.44234 0.7394 0.0
C1156 C 0.44813 0.44466 0.74152 0.0
C1157 C 0.45866 0.45633 0.75488 0.0
C1158 C 0.47901 0.48629 0.78145 0.0
C1159 C 0.49002 0.48266 0.78033 0.0
C1160 C 0.5046 0.4937 0.78085 0.0
C1161 C 0.50859 0.50864 0.78341 0.0
C1162 C 0.49749 0.51221 0.78395 0.0
C1163 C 0.4829 0.50115 0.78281 0.0
C1164 C 0.57412 0.55918 0.81849 0.0
C1165 C 0.58842 0.56344 0.82488 0.0
C1166 C 0.59406 0.56988 0.84595 0.0
C1167 C 0.58538 0.5718 0.86164 0.0
C1168 C 0.571 0.5676 0.85512 0.0
C1169 C 0.5655 0.56158 0.83365 0.0
C1170 C 0.57558 0.56276 0.77819 0.0
C1171 C 0.57813 0.57728 0.77911 0.0
C1172 C 0.58596 0.58706 0.76238 0.0
C1173 C 0.59097 0.58235 0.74422 0.0
C1174 C 0.58774 0.56765 0.74278 0.0
C1175 C 0.58019 0.55798 0.75972 0.0
C1176 C 0.55369 0.54217 0.7933 0.0
C1177 C 0.54863 0.5279 0.80076 0.0
C1178 C 0.53406 0.51713 0.79774 0.0
C1179 C 0.52417 0.52029 0.78671 0.0
C1180 C 0.52928 0.53472 0.77941 0.0
C1181 C 0.54383 0.5456 0.78296 0.0
H1182 H 0.6582 0.86887 0.53758 0.0
N1183 N 0.6402 0.86319 0.57288 0.0
H1184 H 0.65678 0.87932 0.50203 0.0
H1185 H 0.61963 0.86865 0.55887 0.0
H1186 H 0.61799 0.87889 0.52309 0.0
H1187 H 0.63161 0.86967 0.61076 0.0
H1188 H 0.64549 0.89143 0.63564 0.0
H1189 H 0.6691 0.88388 0.57002 0.0
H1190 H 0.68289 0.90524 0.59471 0.0
H1191 H 0.66465 0.86035 0.57499 0.0
H1192 H 0.6179 0.83598 0.57017 0.0
H1193 H 0.66521 0.83757 0.57258 0.0
H1194 H 0.61838 0.81299 0.56681 0.0
H1195 H 0.67023 0.7785 0.54345 0.0
H1196 H 0.6754 0.76877 0.50974 0.0
H1197 H 0.62941 0.74109 0.49565 0.0
H1198 H 0.62434 0.75125 0.52928 0.0
H1199 H 0.63704 0.74342 0.57563 0.0
H1200 H 0.6513 0.73788 0.6016 0.0
H1201 H 0.6804 0.78453 0.61396 0.0
H1202 H 0.66688 0.78987 0.58635 0.0
H1203 H 0.6622 0.79626 0.54225 0.0
H1204 H 0.66121 0.81877 0.54602 0.0
H1205 H 0.62335 0.7964 0.58652 0.0
N1206 N 0.64342 0.76948 0.56033 0.0
H1207 H 0.62407 0.77358 0.58178 0.0
C1208 C 0.63903 0.8681 0.55098 0.0
C1209 C 0.64937 0.87098 0.53458 0.0
C1210 C 0.64856 0.87696 0.51426 0.0
C1211 C 0.63729 0.87993 0.50986 0.0
C1212 C 0.62671 0.87658 0.52597 0.0
C1213 C 0.62764 0.87079 0.54638 0.0
C1214 C 0.64927 0.87494 0.58869 0.0
C1215 C 0.6429 0.87726 0.60749 0.0
C1216 C 0.65079 0.8897 0.62157 0.0
C1217 C 0.66529 0.89998 0.61717 0.0
C1218 C 0.67182 0.89738 0.59878 0.0
C1219 C 0.66389 0.88508 0.58459 0.0
C1220 C 0.64114 0.84994 0.57301 0.0
C1221 C 0.65445 0.85015 0.57355 0.0
C1222 C 0.65478 0.83702 0.5719 0.0
C1223 C 0.64184 0.8234 0.56937 0.0
C1224 C 0.62855 0.82323 0.56906 0.0
C1225 C 0.62824 0.83635 0.5709 0.0
C1226 C 0.64683 0.7656 0.53886 0.0
C1227 C 0.66125 0.77061 0.53285 0.0
C1228 C 0.66419 0.7649 0.51367 0.0
C1229 C 0.65282 0.75399 0.50015 0.0
C1230 C 0.63843 0.74954 0.5056 0.0
C1231 C 0.63549 0.7553 0.52479 0.0
C1232 C 0.65077 0.76698 0.57886 0.0
C1233 C 0.6464 0.75243 0.58421 0.0
C1234 C 0.65456 0.74931 0.59931 0.0
C1235 C 0.66719 0.76074 0.60999 0.0
C1236 C 0.67102 0.77539 0.60571 0.0
C1237 C 0.66309 0.77849 0.59004 0.0
C1238 C 0.643 0.78303 0.56149 0.0
C1239 C 0.65354 0.79603 0.55167 0.0
C1240 C 0.65308 0.80905 0.55411 0.0
C1241 C 0.64222 0.80947 0.56665 0.0
C1242 C 0.63174 0.79646 0.57647 0.0
C1243 C 0.63214 0.78342 0.57386 0.0
H1244 H 0.23964 0.86668 0.55272 0.0
N1245 N 0.21625 0.86487 0.57064 0.0
H1246 H 0.2509 0.87841 0.51786 0.0
H1247 H 0.20487 0.87555 0.53984 0.0
H1248 H 0.21611 0.88746 0.50503 0.0
H1249 H 0.20863 0.88611 0.57651 0.0
H1250 H 0.22096 0.90769 0.60136 0.0
H1251 H 0.23525 0.86945 0.6033 0.0
H1252 H 0.24823 0.89141 0.62747 0.0
H1253 H 0.21115 0.83758 0.56782 0.0
H1254 H 0.18951 0.86281 0.57364 0.0
H1255 H 0.18776 0.81497 0.56402 0.0
H1256 H 0.16604 0.84025 0.571 0.0
H1257 H 0.12658 0.75645 0.51382 0.0
H1258 H 0.11368 0.74818 0.47746 0.0
H1259 H 0.09235 0.7732 0.4909 0.0
H1260 H 0.10473 0.78084 0.52729 0.0
H1261 H 0.10904 0.7843 0.56872 0.0
H1262 H 0.08662 0.77128 0.58952 0.0
H1263 H 0.08698 0.73063 0.57947 0.0
H1264 H 0.10931 0.74371 0.55862 0.0
H1265 H 0.14438 0.775 0.57151 0.0
H1266 H 0.16667 0.79791 0.5815 0.0
H1267 H 0.15072 0.82214 0.54428 0.0
N1268 N 0.12215 0.77138 0.54611 0.0
H1269 H 0.12829 0.79944 0.5356 0.0
C1270 C 0.22155 0.87034 0.54889 0.0
C1271 C 0.23435 0.87097 0.54214 0.0
C1272 C 0.24071 0.87763 0.52223 0.0
C1273 C 0.23439 0.88388 0.50877 0.0
C1274 C 0.22127 0.88284 0.5152 0.0
C1275 C 0.21484 0.87604 0.53506 0.0
C1276 C 0.22091 0.87599 0.58822 0.0
C1277 C 0.21681 0.88682 0.58821 0.0
C1278 C 0.22408 0.89935 0.60224 0.0
C1279 C 0.23577 0.90147 0.61626 0.0
C1280 C 0.2392 0.89016 0.61718 0.0
C1281 C 0.2318 0.87756 0.60334 0.0
C1282 C 0.20216 0.85187 0.57119 0.0
C1283 C 0.20131 0.83818 0.56882 0.0
C1284 C 0.18789 0.82525 0.56678 0.0
C1285 C 0.17491 0.8257 0.56725 0.0
C1286 C 0.17578 0.83946 0.57025 0.0
C1287 C 0.18927 0.85244 0.57203 0.0
C1288 C 0.11673 0.7693 0.52327 0.0
C1289 C 0.11939 0.76042 0.5086 0.0
C1290 C 0.11202 0.75572 0.48784 0.0
C1291 C 0.10184 0.75988 0.48139 0.0
C1292 C 0.09991 0.76957 0.49553 0.0
C1293 C 0.10717 0.77413 0.5163 0.0
C1294 C 0.11082 0.76491 0.56212 0.0
C1295 C 0.10449 0.77267 0.57149 0.0
C1296 C 0.09168 0.76522 0.58335 0.0
C1297 C 0.08496 0.74991 0.58581 0.0
C1298 C 0.09179 0.74239 0.57752 0.0
C1299 C 0.1046 0.74984 0.56583 0.0
C1300 C 0.13473 0.78533 0.55247 0.0
C1301 C 0.14568 0.7853 0.56573 0.0
C1302 C 0.15846 0.79841 0.57127 0.0
C1303 C 0.16067 0.81193 0.56342 0.0
C1304 C 0.14942 0.81201 0.5508 0.0
C1305 C 0.13655 0.79889 0.54554 0.0
H1306 H 0.20896 0.33656 0.53658 0.0
N1307 N 0.21534 0.3628 0.55707 0.0
H1308 H 0.21405 0.33286 0.49847 0.0
H1309 H 0.22635 0.38281 0.5255 0.0
H1310 H 0.23134 0.3791 0.48669 0.0
H1311 H 0.24223 0.37888 0.57339 0.0
H1312 H 0.25629 0.37037 0.59481 0.0
H1313 H 0.20426 0.33584 0.57632 0.0
H1314 H 0.21829 0.32718 0.5975 0.0
H1315 H 0.18859 0.33866 0.54654 0.0
H1316 H 0.20995 0.3816 0.57908 0.0
H1317 H 0.16537 0.33749 0.54934 0.0
H1318 H 0.18649 0.38013 0.58346 0.0
H1319 H 0.11547 0.33848 0.5225 0.0
H1320 H 0.10832 0.33806 0.48319 0.0
H1321 H 0.1118 0.38053 0.49348 0.0
H1322 H 0.11855 0.38067 0.53299 0.0
H1323 H 0.11333 0.37219 0.58641 0.0
H1324 H 0.09083 0.36094 0.60707 0.0
H1325 H 0.0779 0.31908 0.57392 0.0
H1326 H 0.1001 0.33051 0.55296 0.0
H1327 H 0.12346 0.33571 0.56379 0.0
H1328 H 0.14604 0.33554 0.56967 0.0
H1329 H 0.17017 0.38251 0.56004 0.0
N1330 N 0.1208 0.35987 0.55416 0.0
H1331 H 0.14746 0.38262 0.55549 0.0
C1332 C 0.21735 0.36006 0.53402 0.0
C1333 C 0.21371 0.34593 0.5259 0.0
C1334 C 0.21651 0.34378 0.5039 0.0
C1335 C 0.22302 0.35567 0.48947 0.0
C1336 C 0.22637 0.36974 0.49744 0.0
C1337 C 0.22351 0.37187 0.51952 0.0
C1338 C 0.22227 0.35804 0.57315 0.0
C1339 C 0.23686 0.36769 0.57915 0.0
C1340 C 0.24486 0.36281 0.59134 0.0
C1341 C 0.23842 0.34806 0.59762 0.0
C1342 C 0.22358 0.33855 0.59262 0.0
C1343 C 0.21553 0.34352 0.58062 0.0
C1344 C 0.20115 0.36046 0.56212 0.0
C1345 C 0.1883 0.34775 0.55471 0.0
C1346 C 0.17489 0.34703 0.55657 0.0
C1347 C 0.17398 0.35884 0.56628 0.0
C1348 C 0.18676 0.371 0.57526 0.0
C1349 C 0.20018 0.37182 0.57303 0.0
C1350 C 0.11736 0.35957 0.5307 0.0
C1351 C 0.11459 0.34763 0.51636 0.0
C1352 C 0.11054 0.34742 0.49392 0.0
C1353 C 0.10949 0.35925 0.48537 0.0
C1354 C 0.11262 0.37132 0.49962 0.0
C1355 C 0.11643 0.37141 0.52211 0.0
C1356 C 0.10848 0.35228 0.56821 0.0
C1357 C 0.10573 0.36054 0.58396 0.0
C1358 C 0.09288 0.35406 0.59577 0.0
C1359 C 0.08249 0.3391 0.59205 0.0
C1360 C 0.08555 0.33068 0.57692 0.0
C1361 C 0.09837 0.3372 0.56505 0.0
C1362 C 0.13376 0.35928 0.55939 0.0
C1363 C 0.13356 0.34602 0.56339 0.0
C1364 C 0.14657 0.34592 0.56655 0.0
C1365 C 0.16004 0.35901 0.56534 0.0
C1366 C 0.1601 0.37224 0.56164 0.0
C1367 C 0.14712 0.37235 0.55884 0.0
H1368 H 0.9925 0.38291 0.05206 0.0
H1369 H 0.03665 0.39623 0.03432 0.0
H1370 H 0.04593 0.41365 0.06681 0.0
H1371 H 0.99849 0.41767 0.0706 0.0
H1372 H 0.98656 0.41093 0.09389 0.0
H1373 H 0.98325 0.39916 0.06961 0.0
H1374 H 0.98385 0.3795 0.0945 0.0
H1375 H 0.98697 0.39112 0.11889 0.0
H1376 H 0.99936 0.38463 0.11284 0.0
H1377 H 0.05038 0.43139 0.09872 0.0
H1378 H 0.04986 0.44582 0.13108 0.0
H1379 H 0.00279 0.41889 0.13091 0.0
C1380 C 0.00411 0.38939 0.05518 0.0
C1381 C 0.01387 0.38827 0.04067 0.0
C1382 C 0.02899 0.39685 0.04533 0.0
C1383 C 0.03437 0.40684 0.06365 0.0
C1384 C 0.02448 0.40789 0.0774 0.0
C1385 C 0.00967 0.39917 0.07372 0.0
C1386 C 0.00141 0.40226 0.09136 0.0
C1387 C 0.99187 0.40784 0.08072 0.0
C1388 C 0.99237 0.38856 0.10522 0.0
C1389 C 0.01389 0.41431 0.10521 0.0
C1390 C 0.02708 0.41748 0.09672 0.0
C1391 C 0.04012 0.42875 0.10588 0.0
C1392 C 0.03968 0.43684 0.12447 0.0
C1393 C 0.02631 0.43345 0.13413 0.0
C1394 C 0.01325 0.42199 0.12412 0.0
H1395 H 0.60105 0.60764 0.10059 0.0
H1396 H 0.62342 0.5877 0.06824 0.0
H1397 H 0.60899 0.56503 0.08919 0.0
H1398 H 0.60176 0.59501 0.15318 0.0
H1399 H 0.58424 0.59195 0.16117 0.0
H1400 H 0.59438 0.60553 0.1409 0.0
H1401 H 0.57268 0.59271 0.11246 0.0
H1402 H 0.56243 0.57907 0.13273 0.0
H1403 H 0.56514 0.57343 0.10544 0.0
H1404 H 0.59419 0.54571 0.11648 0.0
H1405 H 0.5808 0.53155 0.14898 0.0
H1406 H 0.56891 0.56457 0.16471 0.0
C1407 C 0.6026 0.59834 0.09744 0.0
C1408 C 0.61322 0.59933 0.08264 0.0
C1409 C 0.61526 0.58711 0.07942 0.0
C1410 C 0.60708 0.57417 0.09117 0.0
C1411 C 0.59693 0.57367 0.10609 0.0
C1412 C 0.59466 0.58543 0.10925 0.0
C1413 C 0.58431 0.58272 0.12802 0.0
C1414 C 0.59162 0.5945 0.14693 0.0
C1415 C 0.57031 0.58193 0.11912 0.0
C1416 C 0.58149 0.56781 0.1354 0.0
C1417 C 0.58866 0.56266 0.12227 0.0
C1418 C 0.58841 0.54956 0.12672 0.0
C1419 C 0.58086 0.54164 0.14531 0.0
C1420 C 0.57379 0.54694 0.15939 0.0
C1421 C 0.57392 0.56006 0.15402 0.0
H1422 H 0.41072 0.02427 0.04559 0.0
H1423 H 0.3757 0.97892 0.03982 0.0
H1424 H 0.38333 0.97387 0.07626 0.0
H1425 H 0.43726 0.01781 0.07177 0.0
H1426 H 0.44443 0.03369 0.09049 0.0
H1427 H 0.43633 0.03382 0.06386 0.0
H1428 H 0.41847 0.03994 0.08374 0.0
H1429 H 0.42663 0.04 0.1104 0.0
H1430 H 0.40738 0.02826 0.10549 0.0
H1431 H 0.39585 0.97334 0.11188 0.0
H1432 H 0.41034 0.978 0.14667 0.0
H1433 H 0.43552 0.02439 0.13128 0.0
C1434 C 0.40464 0.0133 0.05207 0.0
C1435 C 0.39267 0.00196 0.03989 0.0
C1436 C 0.38487 0.98778 0.04897 0.0
C1437 C 0.38917 0.98478 0.06957 0.0
C1438 C 0.40112 0.99616 0.08105 0.0
C1439 C 0.40858 0.0102 0.07287 0.0
C1440 C 0.4207 0.02056 0.08898 0.0
C1441 C 0.43556 0.02684 0.07812 0.0
C1442 C 0.41814 0.03292 0.09767 0.0
C1443 C 0.41902 0.01008 0.10732 0.0
C1444 C 0.40778 0.99604 0.10228 0.0
C1445 C 0.4045 0.98437 0.11624 0.0
C1446 C 0.41277 0.98718 0.13611 0.0
C1447 C 0.42403 0.00163 0.14215 0.0
C1448 C 0.42716 0.01317 0.12731 0.0
H1449 H 0.39949 0.00197 0.93042 0.0
H1450 H 0.37949 0.96072 0.9651 0.0
H1451 H 0.39519 0.95336 0.94552 0.0
H1452 H 0.40017 0.98709 0.87902 0.0
H1453 H 0.41726 0.00226 0.87078 0.0
H1454 H 0.40635 0.00539 0.89027 0.0
H1455 H 0.42797 0.01704 0.91899 0.0
H1456 H 0.43898 0.01394 0.89952 0.0
H1457 H 0.43663 0.00678 0.92727 0.0
H1458 H 0.41083 0.94923 0.91916 0.0
H1459 H 0.42456 0.94825 0.88694 0.0
H1460 H 0.43382 0.99186 0.86866 0.0
C1461 C 0.39871 0.99157 0.93435 0.0
C1462 C 0.38838 0.98196 0.94939 0.0
C1463 C 0.38738 0.96827 0.95368 0.0
C1464 C 0.39631 0.96403 0.94273 0.0
C1465 C 0.40616 0.97361 0.92758 0.0
C1466 C 0.40743 0.98711 0.92339 0.0
C1467 C 0.41768 0.99464 0.90457 0.0
C1468 C 0.4099 0.9975 0.88501 0.0
C1469 C 0.43111 0.00895 0.91311 0.0
C1470 C 0.42157 0.98304 0.89829 0.0
C1471 C 0.41504 0.97112 0.91204 0.0
C1472 C 0.41617 0.95859 0.90848 0.0
C1473 C 0.42391 0.9581 0.89008 0.0
C1474 C 0.4303 0.97 0.87537 0.0
C1475 C 0.42936 0.98274 0.87991 0.0
H1476 H 0.99453 0.38608 0.945 0.0
H1477 H 0.04104 0.40487 0.93937 0.0
H1478 H 0.0418 0.42395 0.91498 0.0
H1479 H 0.98694 0.39028 0.89011 0.0
H1480 H 0.97331 0.39512 0.89616 0.0
H1481 H 0.97661 0.38395 0.91515 0.0
H1482 H 0.98145 0.4026 0.9477 0.0
H1483 H 0.97804 0.41381 0.92882 0.0
H1484 H 0.99489 0.42171 0.94482 0.0
H1485 H 0.03697 0.43885 0.88737 0.0
H1486 H 0.02712 0.44909 0.86003 0.0
H1487 H 0.98408 0.42196 0.88613 0.0
C1488 C 0.00493 0.39438 0.93907 0.0
C1489 C 0.01773 0.39399 0.94416 0.0
C1490 C 0.03109 0.40498 0.93579 0.0
C1491 C 0.03164 0.41588 0.92194 0.0
C1492 C 0.01878 0.41578 0.9169 0.0
C1493 C 0.0057 0.40544 0.92546 0.0
C1494 C 0.99334 0.40731 0.91659 0.0
C1495 C 0.98188 0.39334 0.90374 0.0
C1496 C 0.98653 0.41162 0.93562 0.0
C1497 C 0.00143 0.41994 0.90103 0.0
C1498 C 0.0161 0.42473 0.90153 0.0
C1499 C 0.02555 0.43544 0.88722 0.0
C1500 C 0.01984 0.44127 0.8718 0.0
C1501 C 0.00478 0.43644 0.87083 0.0
C1502 C 0.9956 0.42586 0.88613 0.0
H1503 H 0.59447 0.61554 0.97824 0.0
H1504 H 0.62988 0.6078 0.99488 0.0
H1505 H 0.6259 0.59442 0.95882 0.0
H1506 H 0.57125 0.58125 0.94927 0.0
H1507 H 0.56541 0.58903 0.9276 0.0
H1508 H 0.57077 0.59793 0.9549 0.0
H1509 H 0.58976 0.62218 0.93713 0.0
H1510 H 0.58435 0.61338 0.90976 0.0
H1511 H 0.60309 0.62203 0.91911 0.0
H1512 H 0.61695 0.58025 0.92281 0.0
H1513 H 0.60591 0.56895 0.88625 0.0
H1514 H 0.57823 0.58841 0.89002 0.0
C1515 C 0.60139 0.61106 0.97418 0.0
C1516 C 0.61245 0.61264 0.98935 0.0
C1517 C 0.6214 0.60678 0.98344 0.0
C1518 C 0.61918 0.59908 0.96307 0.0
C1519 C 0.60813 0.59759 0.94856 0.0
C1520 C 0.59957 0.60365 0.95356 0.0
C1521 C 0.58887 0.6009 0.93443 0.0
C1522 C 0.57314 0.59173 0.94201 0.0
C1523 C 0.59169 0.61549 0.92452 0.0
C1524 C 0.59265 0.59217 0.91813 0.0
C1525 C 0.60365 0.59025 0.92682 0.0
C1526 C 0.60857 0.58199 0.91553 0.0
C1527 C 0.60228 0.57572 0.89454 0.0
C1528 C 0.59138 0.57802 0.88461 0.0
C1529 C 0.58648 0.58632 0.89685 0.0
H1530 H 0.00973 0.6104 0.98586 0.0
H1531 H 0.98568 0.6332 0.97436 0.0
H1532 H 0.97712 0.62047 0.93762 0.0
H1533 H 0.02044 0.61066 0.92791 0.0
H1534 H 0.01831 0.59255 0.92907 0.0
H1535 H 0.02329 0.60406 0.95407 0.0
H1536 H 0.00126 0.58349 0.97407 0.0
H1537 H 0.99619 0.57193 0.94913 0.0
H1538 H 0.98333 0.57608 0.96164 0.0
H1539 H 0.97003 0.60445 0.90328 0.0
H1540 H 0.96527 0.58637 0.87273 0.0
H1541 H 0.99388 0.57388 0.90598 0.0
C1542 C 0.00281 0.61286 0.97552 0.0
C1543 C 0.9984 0.62284 0.98307 0.0
C1544 C 0.98922 0.62562 0.96904 0.0
C1545 C 0.9843 0.61846 0.94809 0.0
C1546 C 0.98869 0.60857 0.94132 0.0
C1547 C 0.99778 0.6058 0.95451 0.0
C1548 C 0.00046 0.59429 0.94347 0.0
C1549 C 0.01658 0.60078 0.93832 0.0
C1550 C 0.99498 0.58064 0.95794 0.0
C1551 C 0.99127 0.5909 0.92218 0.0
C1552 C 0.98462 0.59931 0.9213 0.0
C1553 C 0.97523 0.59785 0.9037 0.0
C1554 C 0.97252 0.58749 0.88652 0.0
C1555 C 0.97917 0.57871 0.88706 0.0
C1556 C 0.98877 0.58055 0.90506 0.0
H1557 H 0.39551 0.4095 0.93711 0.0
H1558 H 0.42 0.38782 0.95299 0.0
H1559 H 0.43997 0.4054 0.92995 0.0
H1560 H 0.40367 0.41364 0.88132 0.0
H1561 H 0.4047 0.43123 0.8789 0.0
H1562 H 0.39356 0.41872 0.89971 0.0
H1563 H 0.40729 0.43884 0.93073 0.0
H1564 H 0.4185 0.45145 0.90993 0.0
H1565 H 0.42677 0.4476 0.93343 0.0
H1566 H 0.45612 0.4237 0.90222 0.0
H1567 H 0.46659 0.44035 0.87065 0.0
H1568 H 0.4307 0.44889 0.87138 0.0
C1569 C 0.40525 0.40872 0.93629 0.0
C1570 C 0.40628 0.39741 0.94706 0.0
C1571 C 0.41901 0.39645 0.94501 0.0
C1572 C 0.43044 0.40644 0.93204 0.0
C1573 C 0.42893 0.41726 0.92118 0.0
C1574 C 0.41664 0.41844 0.92315 0.0
C1575 C 0.41692 0.42987 0.90777 0.0
C1576 C 0.40395 0.42294 0.89093 0.0
C1577 C 0.4174 0.4427 0.92128 0.0
C1578 C 0.43109 0.43463 0.89635 0.0
C1579 C 0.438 0.42746 0.9046 0.0
C1580 C 0.45087 0.42948 0.89575 0.0
C1581 C 0.45666 0.43886 0.8777 0.0
C1582 C 0.44947 0.44594 0.86848 0.0
C1583 C 0.43666 0.44394 0.8783 0.0
H1584 H 0.58441 0.97614 0.98081 0.0
H1585 H 0.62944 0.00916 0.97115 0.0
H1586 H 0.62339 0.0115 0.93198 0.0
H1587 H 0.57788 0.95836 0.92697 0.0
H1588 H 0.55958 0.95498 0.92404 0.0
H1589 H 0.56739 0.95611 0.95146 0.0
H1590 H 0.56189 0.97664 0.96332 0.0
H1591 H 0.55406 0.97558 0.93593 0.0
H1592 H 0.5686 0.99292 0.94694 0.0
H1593 H 0.61254 0.00992 0.89367 0.0
H1594 H 0.59771 0.00432 0.85887 0.0
H1595 H 0.55972 0.97274 0.89388 0.0
C1596 C 0.59302 0.98389 0.97052 0.0
C1597 C 0.60741 0.99246 0.97912 0.0
C1598 C 0.61833 0.00246 0.965 0.0
C1599 C 0.61501 0.00389 0.94271 0.0
C1600 C 0.60072 0.99528 0.93482 0.0
C1601 C 0.58991 0.98548 0.94828 0.0
C1602 C 0.57545 0.97739 0.93565 0.0
C1603 C 0.56975 0.96073 0.93446 0.0
C1604 C 0.56435 0.98084 0.94608 0.0
C1605 C 0.57985 0.9841 0.91291 0.0
C1606 C 0.59446 0.99442 0.9128 0.0
C1607 C 0.60107 0.00193 0.8936 0.0
C1608 C 0.59253 0.99874 0.87394 0.0
C1609 C 0.57752 0.98814 0.87364 0.0
C1610 C 0.57116 0.98081 0.89349 0.0
H1611 H 0.59128 0.98921 0.06997 0.0
H1612 H 0.62394 0.03517 0.08026 0.0
H1613 H 0.60732 0.03872 0.10453 0.0
H1614 H 0.5588 0.9947 0.07191 0.0
H1615 H 0.54846 0.97765 0.0861 0.0
H1616 H 0.56183 0.97954 0.0663 0.0
H1617 H 0.57438 0.97204 0.09666 0.0
H1618 H 0.56121 0.97029 0.11655 0.0
H1619 H 0.58025 0.98234 0.12289 0.0
H1620 H 0.58939 0.03587 0.13338 0.0
H1621 H 0.57122 0.02733 0.16265 0.0
H1622 H 0.54923 0.98363 0.13119 0.0
C1623 C 0.59481 0.00011 0.07678 0.0
C1624 C 0.60891 0.01189 0.07328 0.0
C1625 C 0.61313 0.026 0.0826 0.0
C1626 C 0.60376 0.02812 0.09639 0.0
C1627 C 0.5901 0.0161 0.10019 0.0
C1628 C 0.58553 0.00243 0.09025 0.0
C1629 C 0.57092 0.99098 0.09855 0.0
C1630 C 0.55932 0.98539 0.07958 0.0
C1631 C 0.57176 0.97817 0.1093 0.0
C1632 C 0.56841 0.00011 0.11579 0.0
C1633 C 0.57948 0.01461 0.11629 0.0
C1634 C 0.58041 0.02466 0.13268 0.0
C1635 C 0.56995 0.01969 0.14923 0.0
C1636 C 0.55866 0.00478 0.14929 0.0
C1637 C 0.5577 0.99507 0.1318 0.0
H1638 H 0.00646 0.61706 0.0817 0.0
H1639 H 0.96154 0.60656 0.07733 0.0
H1640 H 0.95452 0.58476 0.10018 0.0
H1641 H 0.99857 0.57834 0.07953 0.0
H1642 H 0.01336 0.58238 0.09886 0.0
H1643 H 0.01458 0.59633 0.0804 0.0
H1644 H 0.01965 0.61393 0.11458 0.0
H1645 H 0.01834 0.60004 0.13313 0.0
H1646 H 0.00696 0.60803 0.13695 0.0
H1647 H 0.95296 0.56613 0.12739 0.0
H1648 H 0.9567 0.5514 0.15541 0.0
H1649 H 0.00231 0.5726 0.13922 0.0
C1650 C 0.99511 0.61003 0.08511 0.0
C1651 C 0.98455 0.61351 0.07765 0.0
C1652 C 0.96982 0.60408 0.08276 0.0
C1653 C 0.96572 0.59166 0.09572 0.0
C1654 C 0.97644 0.58869 0.1031 0.0
C1655 C 0.9908 0.59748 0.09773 0.0
C1656 C 0.00029 0.59224 0.10857 0.0
C1657 C 0.0071 0.58701 0.09078 0.0
C1658 C 0.01199 0.60428 0.12424 0.0
C1659 C 0.98911 0.57947 0.12159 0.0
C1660 C 0.97541 0.57755 0.11813 0.0
C1661 C 0.96357 0.56727 0.1298 0.0
C1662 C 0.96581 0.55885 0.14564 0.0
C1663 C 0.9798 0.56065 0.14961 0.0
C1664 C 0.99148 0.57093 0.13691 0.0
H1665 H 0.42252 0.38778 0.04518 0.0
H1666 H 0.37878 0.3806 0.04983 0.0
H1667 H 0.38419 0.39021 0.08879 0.0
H1668 H 0.42561 0.37746 0.10092 0.0
H1669 H 0.44442 0.39139 0.10491 0.0
H1670 H 0.43722 0.38405 0.07723 0.0
H1671 H 0.44585 0.41038 0.06357 0.0
H1672 H 0.4531 0.41781 0.09121 0.0
H1673 H 0.44018 0.42181 0.07796 0.0
H1674 H 0.394 0.39993 0.12742 0.0
H1675 H 0.40777 0.40963 0.1631 0.0
H1676 H 0.44548 0.41146 0.13306 0.0
C1677 C 0.41407 0.38821 0.05437 0.0
C1678 C 0.40021 0.38339 0.0444 0.0
C1679 C 0.38949 0.38424 0.05703 0.0
C1680 C 0.39244 0.38967 0.0792 0.0
C1681 C 0.40618 0.3943 0.0885 0.0
C1682 C 0.41685 0.39369 0.07649 0.0
C1683 C 0.43073 0.39943 0.09047 0.0
C1684 C 0.43472 0.38736 0.09356 0.0
C1685 C 0.4432 0.41318 0.08019 0.0
C1686 C 0.42614 0.40323 0.11225 0.0
C1687 C 0.41194 0.40018 0.11073 0.0
C1688 C 0.40518 0.40251 0.12877 0.0
C1689 C 0.41315 0.40814 0.14893 0.0
C1690 C 0.42778 0.41147 0.15091 0.0
C1691 C 0.4343 0.40896 0.13221 0.0
H1692 H 0.64265 0.71634 0.37855 0.0
H1693 H 0.67724 0.70782 0.39779 0.0
H1694 H 0.67937 0.71953 0.4348 0.0
H1695 H 0.65788 0.75176 0.40588 0.0
H1696 H 0.64068 0.74925 0.41456 0.0
H1697 H 0.64156 0.73988 0.38965 0.0
H1698 H 0.62262 0.71484 0.40544 0.0
H1699 H 0.62164 0.72415 0.43038 0.0
H1700 H 0.62595 0.70965 0.43253 0.0
H1701 H 0.67809 0.73245 0.46945 0.0
H1702 H 0.67306 0.74523 0.4999 0.0
H1703 H 0.63953 0.74574 0.45819 0.0
C1704 C 0.65062 0.71684 0.39056 0.0
C1705 C 0.65977 0.71112 0.38518 0.0
C1706 C 0.67009 0.71209 0.40143 0.0
C1707 C 0.6714 0.71874 0.42253 0.0
C1708 C 0.66231 0.72436 0.42719 0.0
C1709 C 0.65209 0.72345 0.41172 0.0
C1710 C 0.64375 0.7305 0.42094 0.0
C1711 C 0.64612 0.74363 0.40692 0.0
C1712 C 0.62753 0.7191 0.42241 0.0
C1713 C 0.65091 0.73553 0.44399 0.0
C1714 C 0.6616 0.73189 0.44721 0.0
C1715 C 0.66977 0.7354 0.46711 0.0
C1716 C 0.66691 0.74278 0.48425 0.0
C1717 C 0.65597 0.74661 0.48141 0.0
C1718 C 0.6479 0.7429 0.46094 0.0
H1719 H 0.27521 0.95615 0.43792 0.0
H1720 H 0.29365 0.93411 0.4001 0.0
H1721 H 0.27827 0.9112 0.4199 0.0
H1722 H 0.27428 0.9401 0.48914 0.0
H1723 H 0.2574 0.93849 0.49762 0.0
H1724 H 0.2688 0.9527 0.47897 0.0
H1725 H 0.2474 0.94333 0.45003 0.0
H1726 H 0.23592 0.92905 0.46863 0.0
H1727 H 0.23823 0.92434 0.44047 0.0
H1728 H 0.26238 0.89133 0.4458 0.0
H1729 H 0.24729 0.87602 0.47632 0.0
H1730 H 0.23924 0.91102 0.49713 0.0
C1731 C 0.27583 0.94644 0.4335 0.0
C1732 C 0.28557 0.94689 0.41738 0.0
C1733 C 0.28625 0.93401 0.41237 0.0
C1734 C 0.27751 0.92093 0.42346 0.0
C1735 C 0.26813 0.9209 0.43944 0.0
C1736 C 0.26721 0.9333 0.44442 0.0
C1737 C 0.25691 0.93061 0.46324 0.0
C1738 C 0.26483 0.94109 0.48343 0.0
C1739 C 0.24384 0.93191 0.4551 0.0
C1740 C 0.25245 0.91487 0.46841 0.0
C1741 C 0.25894 0.90942 0.45436 0.0
C1742 C 0.25711 0.89541 0.45674 0.0
C1743 C 0.24858 0.88683 0.47415 0.0
C1744 C 0.24203 0.8923 0.48896 0.0
C1745 C 0.24384 0.90642 0.48576 0.0
H1746 H 0.05707 0.32636 0.37723 0.0
H1747 H 0.08646 0.36637 0.34352 0.0
H1748 H 0.10228 0.37547 0.37756 0.0
H1749 H 0.06023 0.34284 0.43147 0.0
H1750 H 0.05968 0.32778 0.44631 0.0
H1751 H 0.05067 0.32446 0.4193 0.0
H1752 H 0.06527 0.3125 0.40475 0.0
H1753 H 0.07436 0.31581 0.43171 0.0
H1754 H 0.08481 0.32271 0.40691 0.0
H1755 H 0.11445 0.38058 0.41574 0.0
H1756 H 0.1226 0.3808 0.45485 0.0
H1757 H 0.0858 0.33709 0.46297 0.0
C1758 C 0.06681 0.33706 0.377 0.0
C1759 C 0.07049 0.34569 0.35772 0.0
C1760 C 0.08342 0.35956 0.35807 0.0
C1761 C 0.09247 0.36483 0.37733 0.0
C1762 C 0.08851 0.35604 0.39603 0.0
C1763 C 0.07604 0.34241 0.39597 0.0
C1764 C 0.07435 0.33505 0.41816 0.0
C1765 C 0.06041 0.33238 0.42947 0.0
C1766 C 0.07473 0.32067 0.4152 0.0
C1767 C 0.08776 0.34673 0.43078 0.0
C1768 C 0.09575 0.35879 0.41776 0.0
C1769 C 0.10834 0.37116 0.42604 0.0
C1770 C 0.11285 0.37121 0.44824 0.0
C1771 C 0.10487 0.35893 0.46178 0.0
C1772 C 0.09222 0.34652 0.45284 0.0
H1773 H 0.07086 0.32848 0.28512 0.0
H1774 H 0.03728 0.28339 0.27087 0.0
H1775 H 0.05302 0.28074 0.24328 0.0
H1776 H 0.08078 0.33809 0.23209 0.0
H1777 H 0.09999 0.34954 0.23781 0.0
H1778 H 0.08739 0.34694 0.25925 0.0
H1779 H 0.10016 0.33749 0.28594 0.0
H1780 H 0.11299 0.34024 0.26464 0.0
H1781 H 0.10266 0.32246 0.27687 0.0
H1782 H 0.07031 0.28491 0.21222 0.0
H1783 H 0.08829 0.29469 0.18259 0.0
H1784 H 0.11143 0.33657 0.21931 0.0
C1785 C 0.067 0.31795 0.27657 0.0
C1786 C 0.05293 0.30615 0.27987 0.0
C1787 C 0.04815 0.29249 0.2686 0.0
C1788 C 0.057 0.29092 0.25292 0.0
C1789 C 0.07066 0.30302 0.24929 0.0
C1790 C 0.07576 0.31617 0.26122 0.0
C1791 C 0.09027 0.32789 0.25305 0.0
C1792 C 0.08955 0.3414 0.24507 0.0
C1793 C 0.10223 0.33227 0.27121 0.0
C1794 C 0.09215 0.31958 0.23374 0.0
C1795 C 0.08084 0.30522 0.23193 0.0
C1796 C 0.07945 0.29599 0.21387 0.0
C1797 C 0.08978 0.30166 0.19712 0.0
C1798 C 0.10138 0.31643 0.19854 0.0
C1799 C 0.10269 0.32528 0.2175 0.0
H1800 H 0.69992 0.73272 0.28029 0.0
H1801 H 0.65799 0.72204 0.30565 0.0
H1802 H 0.65779 0.74114 0.28257 0.0
H1803 H 0.71416 0.77331 0.27487 0.0
H1804 H 0.72315 0.7739 0.24931 0.0
H1805 H 0.72107 0.76095 0.27037 0.0
H1806 H 0.70837 0.73959 0.2409 0.0
H1807 H 0.71028 0.75242 0.21984 0.0
H1808 H 0.69259 0.73719 0.2255 0.0
H1809 H 0.66041 0.75861 0.25341 0.0
H1810 H 0.66579 0.77382 0.22038 0.0
H1811 H 0.70669 0.7744 0.21422 0.0
C1812 C 0.69093 0.73475 0.28142 0.0
C1813 C 0.67891 0.72587 0.29459 0.0
C1814 C 0.66716 0.72854 0.29536 0.0
C1815 C 0.66703 0.73948 0.28249 0.0
C1816 C 0.67878 0.7477 0.26902 0.0
C1817 C 0.69059 0.7456 0.2685 0.0
C1818 C 0.70117 0.75504 0.25102 0.0
C1819 C 0.71575 0.76648 0.26206 0.0
C1820 C 0.70321 0.74549 0.23327 0.0
C1821 C 0.69316 0.76231 0.24128 0.0
C1822 C 0.68038 0.75806 0.25215 0.0
C1823 C 0.67056 0.76234 0.24512 0.0
C1824 C 0.6738 0.7711 0.22633 0.0
C1825 C 0.6868 0.77558 0.2147 0.0
C1826 C 0.69667 0.77124 0.22262 0.0
H1827 H 0.28808 0.96137 0.31837 0.0
H1828 H 0.24909 0.95802 0.3459 0.0
H1829 H 0.23498 0.94354 0.31244 0.0
H1830 H 0.27952 0.96423 0.25974 0.0
H1831 H 0.28705 0.95327 0.24963 0.0
H1832 H 0.29426 0.96425 0.27507 0.0
H1833 H 0.28955 0.94103 0.29632 0.0
H1834 H 0.28223 0.92996 0.27102 0.0
H1835 H 0.27154 0.92519 0.29576 0.0
H1836 H 0.22476 0.928 0.2771 0.0
H1837 H 0.2195 0.91356 0.24159 0.0
H1838 H 0.26508 0.92696 0.23739 0.0
C1839 C 0.27662 0.95782 0.31724 0.0
C1840 C 0.26973 0.9609 0.33481 0.0
C1841 C 0.25466 0.95585 0.3327 0.0
C1842 C 0.24653 0.9476 0.31374 0.0
C1843 C 0.25361 0.9445 0.29698 0.0
C1844 C 0.26833 0.94955 0.29846 0.0
C1845 C 0.27322 0.94424 0.2785 0.0
C1846 C 0.28416 0.95728 0.26493 0.0
C1847 C 0.2795 0.93453 0.28585 0.0
C1848 C 0.25891 0.93531 0.26569 0.0
C1849 C 0.24773 0.93559 0.27661 0.0
C1850 C 0.23345 0.92778 0.26832 0.0
C1851 C 0.23054 0.91953 0.24824 0.0
C1852 C 0.24187 0.91919 0.23668 0.0
C1853 C 0.25622 0.9272 0.24563 0.0
H1854 H 0.67196 0.95465 0.29546 0.0
H1855 H 0.67343 0.92434 0.34244 0.0
H1856 H 0.67417 0.90921 0.31112 0.0
H1857 H 0.65011 0.92732 0.25133 0.0
H1858 H 0.66022 0.93909 0.22896 0.0
H1859 H 0.65861 0.94702 0.25496 0.0
H1860 H 0.68661 0.96272 0.25893 0.0
H1861 H 0.6883 0.95481 0.233 0.0
H1862 H 0.69726 0.95374 0.25816 0.0
H1863 H 0.67535 0.89764 0.27527 0.0
H1864 H 0.67813 0.89092 0.23666 0.0
H1865 H 0.67703 0.92908 0.2124 0.0
C1866 C 0.67222 0.94471 0.29905 0.0
C1867 C 0.67256 0.94061 0.32135 0.0
C1868 C 0.6732 0.9277 0.32547 0.0
C1869 C 0.67356 0.91899 0.30781 0.0
C1870 C 0.67343 0.9234 0.28605 0.0
C1871 C 0.67286 0.93598 0.28153 0.0
C1872 C 0.67374 0.93864 0.25659 0.0
C1873 C 0.65984 0.93797 0.24743 0.0
C1874 C 0.68729 0.95335 0.25137 0.0
C1875 C 0.67499 0.92566 0.24793 0.0
C1876 C 0.6746 0.91693 0.26523 0.0
C1877 C 0.67562 0.90435 0.26154 0.0
C1878 C 0.67714 0.90059 0.23957 0.0
C1879 C 0.67778 0.90946 0.22157 0.0
C1880 C 0.67666 0.92215 0.22587 0.0
H1881 H 0.05482 0.71643 0.24787 0.0
H1882 H 0.04268 0.74376 0.28646 0.0
H1883 H 0.05913 0.76526 0.26435 0.0
H1884 H 0.09245 0.74364 0.24064 0.0
H1885 H 0.09257 0.73753 0.21233 0.0
H1886 H 0.08056 0.72466 0.23216 0.0
H1887 H 0.05857 0.71786 0.20533 0.0
H1888 H 0.0705 0.73069 0.18544 0.0
H1889 H 0.05543 0.7322 0.19552 0.0
H1890 H 0.07699 0.78373 0.23755 0.0
H1891 H 0.09381 0.79728 0.2075 0.0
H1892 H 0.09229 0.75693 0.18509 0.0
C1893 C 0.05575 0.72698 0.25186 0.0
C1894 C 0.04761 0.7285 0.26897 0.0
C1895 C 0.04889 0.7424 0.27342 0.0
C1896 C 0.05821 0.75465 0.261 0.0
C1897 C 0.06601 0.75274 0.24408 0.0
C1898 C 0.06478 0.73921 0.23943 0.0
C1899 C 0.07369 0.7398 0.21967 0.0
C1900 C 0.08552 0.7362 0.22663 0.0
C1901 C 0.06396 0.72953 0.20035 0.0
C1902 C 0.08018 0.75579 0.21392 0.0
C1903 C 0.07576 0.76314 0.22825 0.0
C1904 C 0.08047 0.77806 0.22616 0.0
C1905 C 0.08994 0.78564 0.20891 0.0
C1906 C 0.09447 0.77824 0.19385 0.0
C1907 C 0.08938 0.76308 0.1965 0.0
H1908 H 0.27457 0.33733 0.2955 0.0
H1909 H 0.26342 0.29193 0.30337 0.0
H1910 H 0.25357 0.28599 0.26448 0.0
H1911 H 0.2424 0.32891 0.26621 0.0
H1912 H 0.25051 0.34428 0.24789 0.0
H1913 H 0.25867 0.3456 0.27507 0.0
H1914 H 0.28301 0.3522 0.25684 0.0
H1915 H 0.27494 0.35099 0.22957 0.0
H1916 H 0.28336 0.34014 0.23535 0.0
H1917 H 0.24376 0.2846 0.22596 0.0
H1918 H 0.23352 0.28745 0.19047 0.0
H1919 H 0.24903 0.33333 0.2085 0.0
C1920 C 0.27042 0.32626 0.28872 0.0
C1921 C 0.26994 0.3151 0.3021 0.0
C1922 C 0.26397 0.30061 0.29315 0.0
C1923 C 0.25839 0.29716 0.27112 0.0
C1924 C 0.25871 0.3083 0.25843 0.0
C1925 C 0.26449 0.32255 0.26686 0.0
C1926 C 0.26216 0.33206 0.25041 0.0
C1927 C 0.25288 0.33806 0.2605 0.0
C1928 C 0.27674 0.34459 0.24258 0.0
C1929 C 0.25399 0.32087 0.23161 0.0
C1930 C 0.25233 0.30731 0.23648 0.0
C1931 C 0.24496 0.29516 0.22194 0.0
C1932 C 0.23904 0.29686 0.20191 0.0
C1933 C 0.24029 0.31057 0.19668 0.0
C1934 C 0.24799 0.32274 0.21178 0.0
H1935 H 0.28187 0.36523 0.40311 0.0
H1936 H 0.25079 0.32148 0.37763 0.0
H1937 H 0.23136 0.32254 0.3981 0.0
H1938 H 0.27026 0.35941 0.45611 0.0
H1939 H 0.27315 0.37757 0.46229 0.0
H1940 H 0.28367 0.37503 0.4414 0.0
H1941 H 0.27525 0.38735 0.41217 0.0
H1942 H 0.26468 0.38997 0.43308 0.0
H1943 H 0.25613 0.38031 0.40708 0.0
H1944 H 0.21641 0.32666 0.42554 0.0
H1945 H 0.2074 0.33272 0.4595 0.0
H1946 H 0.24859 0.37323 0.46896 0.0
C1947 C 0.27084 0.35616 0.40114 0.0
C1948 C 0.2677 0.34335 0.38865 0.0
C1949 C 0.25333 0.33139 0.38711 0.0
C1950 C 0.24223 0.33197 0.39851 0.0
C1951 C 0.24574 0.34456 0.41145 0.0
C1952 C 0.25972 0.35646 0.41283 0.0
C1953 C 0.26117 0.3676 0.43063 0.0
C1954 C 0.27274 0.37003 0.44867 0.0
C1955 C 0.2645 0.38217 0.4201 0.0
C1956 C 0.24605 0.35977 0.4398 0.0
C1957 C 0.2372 0.34671 0.42807 0.0
C1958 C 0.22316 0.33696 0.43463 0.0
C1959 C 0.21818 0.34044 0.45404 0.0
C1960 C 0.2273 0.35344 0.46688 0.0
C1961 C 0.24125 0.3634 0.45922 0.0
H1962 H 0.66778 0.94457 0.42308 0.0
H1963 H 0.62466 0.92357 0.39197 0.0
H1964 H 0.61678 0.9028 0.41735 0.0
H1965 H 0.66885 0.91058 0.4324 0.0
H1966 H 0.67854 0.91734 0.45889 0.0
H1967 H 0.68105 0.93003 0.43717 0.0
H1968 H 0.67396 0.9447 0.46442 0.0
H1969 H 0.67139 0.93205 0.48618 0.0
H1970 H 0.65685 0.93529 0.47817 0.0
H1971 H 0.61305 0.88535 0.44809 0.0
H1972 H 0.614 0.87217 0.48143 0.0
H1973 H 0.65965 0.90428 0.49179 0.0
C1974 C 0.65676 0.93549 0.42129 0.0
C1975 C 0.64687 0.93567 0.40544 0.0
C1976 C 0.63246 0.92366 0.40394 0.0
C1977 C 0.62787 0.9118 0.41825 0.0
C1978 C 0.63786 0.91205 0.43386 0.0
C1979 C 0.65203 0.92353 0.43537 0.0
C1980 C 0.66044 0.92144 0.45422 0.0
C1981 C 0.67296 0.91974 0.44512 0.0
C1982 C 0.66598 0.93412 0.47178 0.0
C1983 C 0.6487 0.90714 0.46339 0.0
C1984 C 0.63577 0.90187 0.45137 0.0
C1985 C 0.62316 0.88926 0.45746 0.0
C1986 C 0.62378 0.8819 0.47644 0.0
C1987 C 0.63692 0.88715 0.489 0.0
C1988 C 0.64954 0.89985 0.4822 0.0
H1989 H 0.07965 0.72491 0.35687 0.0
H1990 H 0.03546 0.71337 0.37183 0.0
H1991 H 0.04372 0.72511 0.40921 0.0
H1992 H 0.08931 0.71846 0.41171 0.0
H1993 H 0.10763 0.73373 0.41154 0.0
H1994 H 0.09838 0.72463 0.3856 0.0
H1995 H 0.10314 0.74954 0.37026 0.0
H1996 H 0.11238 0.75872 0.39618 0.0
H1997 H 0.09729 0.7604 0.38585 0.0
H1998 H 0.0564 0.73768 0.44492 0.0
H1999 H 0.07279 0.74996 0.4775 0.0
H2000 H 0.10901 0.75386 0.43983 0.0
C2001 C 0.07171 0.72486 0.36798 0.0
C2002 C 0.05689 0.7182 0.36131 0.0
C2003 C 0.04687 0.71837 0.37645 0.0
C2004 C 0.05145 0.72504 0.39776 0.0
C2005 C 0.06609 0.73151 0.40376 0.0
C2006 C 0.07609 0.73147 0.3894 0.0
C2007 C 0.09117 0.73906 0.40028 0.0
C2008 C 0.09696 0.72833 0.40241 0.0
C2009 C 0.10161 0.75274 0.38737 0.0
C2010 C 0.08802 0.7433 0.42299 0.0
C2011 C 0.07348 0.73887 0.42454 0.0
C2012 C 0.06783 0.74132 0.44389 0.0
C2013 C 0.07728 0.74842 0.46225 0.0
C2014 C 0.09225 0.75306 0.46119 0.0
C2015 C 0.09764 0.75045 0.4412 0.0
H2016 H 0.33351 0.06683 0.69517 0.0
H2017 H 0.33798 0.03161 0.72397 0.0
H2018 H 0.3394 0.04213 0.76188 0.0
H2019 H 0.35938 0.095 0.73219 0.0
H2020 H 0.34976 0.10504 0.73378 0.0
H2021 H 0.3478 0.09406 0.7091 0.0
H2022 H 0.31991 0.07972 0.71325 0.0
H2023 H 0.32178 0.09067 0.73796 0.0
H2024 H 0.31241 0.07089 0.73917 0.0
H2025 H 0.3405 0.05652 0.79646 0.0
H2026 H 0.34344 0.07502 0.82533 0.0
H2027 H 0.33991 0.10181 0.77394 0.0
C2028 C 0.33458 0.06124 0.7095 0.0
C2029 C 0.33547 0.04832 0.70674 0.0
C2030 C 0.33724 0.04149 0.72579 0.0
C2031 C 0.33799 0.04735 0.74735 0.0
C2032 C 0.33716 0.06014 0.74951 0.0
C2033 C 0.33566 0.06711 0.7311 0.0
C2034 C 0.33609 0.08129 0.73794 0.0
C2035 C 0.34903 0.09464 0.72764 0.0
C2036 C 0.32169 0.08059 0.73171 0.0
C2037 C 0.33814 0.08125 0.76306 0.0
C2038 C 0.33849 0.06883 0.7694 0.0
C2039 C 0.34023 0.06628 0.79171 0.0
C2040 C 0.34182 0.0768 0.80798 0.0
C2041 C 0.34186 0.08977 0.8018 0.0
C2042 C 0.33994 0.09198 0.77906 0.0
H2043 H 0.94583 0.26761 0.74702 0.0
H2044 H 0.94213 0.30594 0.76419 0.0
H2045 H 0.92736 0.29315 0.79628 0.0
H2046 H 0.9091 0.24009 0.763 0.0
H2047 H 0.91483 0.2279 0.77413 0.0
H2048 H 0.92448 0.23973 0.75157 0.0
H2049 H 0.94846 0.25058 0.77513 0.0
H2050 H 0.93887 0.23886 0.7978 0.0
H2051 H 0.94952 0.25851 0.80258 0.0
H2052 H 0.91465 0.27723 0.8279 0.0
H2053 H 0.90371 0.25852 0.85654 0.0
H2054 H 0.91453 0.22984 0.8185 0.0
C2055 C 0.94177 0.27323 0.75738 0.0
C2056 C 0.94505 0.28774 0.75296 0.0
C2057 C 0.93962 0.29477 0.76703 0.0
C2058 C 0.93125 0.28762 0.78538 0.0
C2059 C 0.92834 0.2734 0.78942 0.0
C2060 C 0.9333 0.26621 0.77579 0.0
C2061 C 0.92885 0.25105 0.78432 0.0
C2062 C 0.91871 0.23898 0.76724 0.0
C2063 C 0.94222 0.24968 0.79031 0.0
C2064 C 0.92085 0.25102 0.80505 0.0
C2065 C 0.92069 0.26402 0.80762 0.0
C2066 C 0.91447 0.26688 0.82591 0.0
C2067 C 0.90819 0.25611 0.84203 0.0
C2068 C 0.90805 0.24257 0.83972 0.0
C2069 C 0.91448 0.24006 0.82088 0.0
H2070 H 0.75683 0.70161 0.72102 0.0
H2071 H 0.71214 0.66737 0.72978 0.0
H2072 H 0.71829 0.66465 0.76876 0.0
H2073 H 0.77334 0.68512 0.75316 0.0
H2074 H 0.78759 0.7024 0.76488 0.0
H2075 H 0.77963 0.70175 0.73775 0.0
H2076 H 0.77339 0.72146 0.75128 0.0
H2077 H 0.78135 0.7222 0.77844 0.0
H2078 H 0.76287 0.71833 0.77598 0.0
H2079 H 0.72937 0.66563 0.80678 0.0
H2080 H 0.74443 0.67056 0.84119 0.0
H2081 H 0.78189 0.70387 0.80717 0.0
C2082 C 0.74829 0.69355 0.73109 0.0
C2083 C 0.73398 0.68471 0.72227 0.0
C2084 C 0.72318 0.67429 0.73611 0.0
C2085 C 0.72656 0.67265 0.75827 0.0
C2086 C 0.74079 0.68149 0.76634 0.0
C2087 C 0.75147 0.69176 0.75318 0.0
C2088 C 0.76592 0.6999 0.76583 0.0
C2089 C 0.77729 0.69712 0.75474 0.0
C2090 C 0.77118 0.71645 0.76801 0.0
C2091 C 0.7617 0.69263 0.78822 0.0
C2092 C 0.74717 0.68203 0.78817 0.0
C2093 C 0.74078 0.67387 0.80699 0.0
C2094 C 0.74945 0.67668 0.8264 0.0
C2095 C 0.76437 0.68756 0.82687 0.0
C2096 C 0.77051 0.69558 0.80743 0.0
H2097 H 0.71894 0.64372 0.61632 0.0
H2098 H 0.75274 0.68763 0.63703 0.0
H2099 H 0.77039 0.68444 0.61499 0.0
H2100 H 0.74245 0.62643 0.61253 0.0
H2101 H 0.73266 0.61577 0.5878 0.0
H2102 H 0.72342 0.62032 0.60871 0.0
H2103 H 0.71508 0.63211 0.57844 0.0
H2104 H 0.72428 0.62764 0.55753 0.0
H2105 H 0.72848 0.64642 0.5617 0.0
H2106 H 0.78343 0.6779 0.58693 0.0
H2107 H 0.7906 0.66898 0.55379 0.0
H2108 H 0.7481 0.62966 0.55023 0.0
C2109 C 0.73018 0.65246 0.61682 0.0
C2110 C 0.73453 0.66589 0.62849 0.0
C2111 C 0.74918 0.67727 0.62818 0.0
C2112 C 0.75931 0.6755 0.61585 0.0
C2113 C 0.75458 0.66228 0.60392 0.0
C2114 C 0.74036 0.65093 0.60432 0.0
C2115 C 0.73759 0.63866 0.58777 0.0
C2116 C 0.73381 0.62445 0.59994 0.0
C2117 C 0.72566 0.63607 0.57034 0.0
C2118 C 0.75231 0.64514 0.57735 0.0
C2119 C 0.76205 0.65862 0.58725 0.0
C2120 C 0.77597 0.66726 0.57928 0.0
C2121 C 0.77992 0.66215 0.56037 0.0
C2122 C 0.76992 0.64861 0.5495 0.0
C2123 C 0.75609 0.63987 0.55851 0.0
H2124 H 0.33992 0.05561 0.60251 0.0
H2125 H 0.38275 0.07426 0.63407 0.0
H2126 H 0.39045 0.0975 0.61468 0.0
H2127 H 0.35146 0.07085 0.54997 0.0
H2128 H 0.3367 0.07426 0.54478 0.0
H2129 H 0.33421 0.05959 0.5626 0.0
H2130 H 0.32622 0.07072 0.59458 0.0
H2131 H 0.32868 0.08545 0.57682 0.0
H2132 H 0.33797 0.08959 0.60374 0.0
H2133 H 0.39401 0.118 0.5897 0.0
H2134 H 0.3931 0.13426 0.56105 0.0
H2135 H 0.34792 0.10223 0.54611 0.0
C2136 C 0.35084 0.06465 0.60568 0.0
C2137 C 0.36071 0.06314 0.61992 0.0
C2138 C 0.37499 0.07517 0.62328 0.0
C2139 C 0.37945 0.08843 0.61239 0.0
C2140 C 0.36949 0.0895 0.59828 0.0
C2141 C 0.35546 0.07795 0.59497 0.0
C2142 C 0.3471 0.08166 0.57808 0.0
C2143 C 0.34208 0.07096 0.55765 0.0
C2144 C 0.33423 0.08187 0.58896 0.0
C2145 C 0.35871 0.09698 0.57205 0.0
C2146 C 0.37152 0.10135 0.58398 0.0
C2147 C 0.384 0.11476 0.58043 0.0
C2148 C 0.3834 0.12388 0.56407 0.0
C2149 C 0.37042 0.11954 0.5515 0.0
C2150 C 0.3579 0.10598 0.5558 0.0
H2151 H 0.94167 0.28282 0.64404 0.0
H2152 H 0.91008 0.29377 0.66914 0.0
H2153 H 0.89333 0.27956 0.63773 0.0
H2154 H 0.93505 0.28534 0.58595 0.0
H2155 H 0.93722 0.27005 0.5773 0.0
H2156 H 0.94665 0.28081 0.6021 0.0
H2157 H 0.93516 0.25716 0.62527 0.0
H2158 H 0.92563 0.24633 0.60054 0.0
H2159 H 0.9157 0.24558 0.62506 0.0
H2160 H 0.88028 0.26494 0.60301 0.0
H2161 H 0.87186 0.25077 0.5671 0.0
H2162 H 0.91162 0.24894 0.56482 0.0
C2163 C 0.93123 0.28223 0.64297 0.0
C2164 C 0.92723 0.28945 0.65912 0.0
C2165 C 0.91343 0.28834 0.65706 0.0
C2166 C 0.9038 0.28028 0.63927 0.0
C2167 C 0.90807 0.27329 0.6237 0.0
C2168 C 0.92143 0.27415 0.62536 0.0
C2169 C 0.92341 0.26576 0.60617 0.0
C2170 C 0.93635 0.27611 0.59205 0.0
C2171 C 0.92507 0.25295 0.61478 0.0
C2172 C 0.90913 0.2602 0.59337 0.0
C2173 C 0.90044 0.26465 0.60379 0.0
C2174 C 0.88695 0.2613 0.59474 0.0
C2175 C 0.88228 0.2533 0.57435 0.0
C2176 C 0.89105 0.2487 0.5633 0.0
C2177 C 0.90458 0.25209 0.57311 0.0
H2178 H 0.33801 0.30097 0.64313 0.0
H2179 H 0.34788 0.27786 0.69376 0.0
H2180 H 0.352 0.26381 0.66425 0.0
H2181 H 0.31972 0.27057 0.60315 0.0
H2182 H 0.32738 0.28171 0.57907 0.0
H2183 H 0.32469 0.28971 0.60414 0.0
H2184 H 0.35188 0.30979 0.60541 0.0
H2185 H 0.35464 0.30186 0.58034 0.0
H2186 H 0.3655 0.30438 0.60527 0.0
H2187 H 0.35443 0.25177 0.62963 0.0
H2188 H 0.35689 0.24382 0.59156 0.0
H2189 H 0.347 0.27562 0.5631 0.0
C2190 C 0.34098 0.29291 0.64795 0.0
C2191 C 0.34258 0.29047 0.67073 0.0
C2192 C 0.34666 0.27996 0.67641 0.0
C2193 C 0.34896 0.27187 0.65978 0.0
C2194 C 0.34734 0.27454 0.63751 0.0
C2195 C 0.3436 0.2849 0.6315 0.0
C2196 C 0.34315 0.28596 0.60627 0.0
C2197 C 0.32782 0.28173 0.59765 0.0
C2198 C 0.35447 0.30141 0.59889 0.0
C2199 C 0.34714 0.27455 0.59911 0.0
C2200 C 0.34935 0.26799 0.61742 0.0
C2201 C 0.35281 0.25687 0.61513 0.0
C2202 C 0.35413 0.2524 0.59352 0.0
C2203 C 0.35219 0.25916 0.57454 0.0
C2204 C 0.34867 0.27038 0.5774 0.0
H2205 H 0.74419 0.05816 0.62204 0.0
H2206 H 0.71262 0.07269 0.61816 0.0
H2207 H 0.72721 0.09062 0.58984 0.0
H2208 H 0.77691 0.09528 0.61279 0.0
H2209 H 0.78537 0.0871 0.59674 0.0
H2210 H 0.77362 0.07715 0.61915 0.0
H2211 H 0.75807 0.05528 0.59153 0.0
H2212 H 0.7696 0.06519 0.56901 0.0
H2213 H 0.75036 0.05837 0.56655 0.0
H2214 H 0.74267 0.10337 0.55725 0.0
H2215 H 0.75898 0.11167 0.52543 0.0
H2216 H 0.78176 0.09051 0.55289 0.0
C2217 C 0.74054 0.06538 0.61573 0.0
C2218 C 0.72727 0.06402 0.62228 0.0
C2219 C 0.72282 0.07363 0.6135 0.0
C2220 C 0.73102 0.08383 0.59738 0.0
C2221 C 0.74379 0.08449 0.59065 0.0
C2222 C 0.7487 0.07575 0.59992 0.0
C2223 C 0.76224 0.07789 0.58878 0.0
C2224 C 0.77531 0.08477 0.60535 0.0
C2225 C 0.75992 0.06332 0.57835 0.0
C2226 C 0.76374 0.08859 0.571 0.0
C2227 C 0.75307 0.09236 0.57242 0.0
C2228 C 0.75137 0.10088 0.55638 0.0
C2229 C 0.76076 0.10561 0.53835 0.0
C2230 C 0.77182 0.10188 0.53654 0.0
C2231 C 0.77342 0.09351 0.55348 0.0
H2232 H 0.9393 0.67457 0.63528 0.0
H2233 H 0.91107 0.63574 0.67242 0.0
H2234 H 0.89492 0.62499 0.6391 0.0
H2235 H 0.91056 0.67606 0.60465 0.0
H2236 H 0.9205 0.68208 0.57923 0.0
H2237 H 0.9301 0.68674 0.60591 0.0
H2238 H 0.945 0.6748 0.59272 0.0
H2239 H 0.93548 0.67013 0.56599 0.0
H2240 H 0.93565 0.65596 0.58237 0.0
H2241 H 0.88216 0.61805 0.60172 0.0
H2242 H 0.87302 0.61588 0.56273 0.0
H2243 H 0.90878 0.65949 0.55005 0.0
C2244 C 0.92975 0.66379 0.63637 0.0
C2245 C 0.92648 0.656 0.65648 0.0
C2246 C 0.91379 0.64197 0.65726 0.0
C2247 C 0.90455 0.63573 0.6384 0.0
C2248 C 0.90805 0.64371 0.6189 0.0
C2249 C 0.92027 0.65746 0.61774 0.0
C2250 C 0.92134 0.66377 0.59477 0.0
C2251 C 0.92058 0.67801 0.59624 0.0
C2252 C 0.93519 0.66631 0.58329 0.0
C2253 C 0.90786 0.65137 0.58323 0.0
C2254 C 0.90041 0.63987 0.59744 0.0
C2255 C 0.88784 0.62701 0.59046 0.0
C2256 C 0.88277 0.62585 0.56832 0.0
C2257 C 0.89016 0.63754 0.55353 0.0
C2258 C 0.90282 0.65048 0.56115 0.0
H2259 H 0.93642 0.67889 0.75462 0.0
H2260 H 0.95236 0.71959 0.71912 0.0
H2261 H 0.93943 0.72741 0.74497 0.0
H2262 H 0.90043 0.67416 0.76733 0.0
H2263 H 0.90045 0.66682 0.79436 0.0
H2264 H 0.90965 0.66389 0.77155 0.0
H2265 H 0.9334 0.6754 0.79582 0.0
H2266 H 0.92433 0.67845 0.8186 0.0
H2267 H 0.94054 0.69365 0.80793 0.0
H2268 H 0.92724 0.73196 0.77765 0.0
H2269 H 0.91584 0.7323 0.81327 0.0
H2270 H 0.90733 0.6882 0.82608 0.0
C2271 C 0.93692 0.68928 0.75184 0.0
C2272 C 0.94534 0.69858 0.73473 0.0
C2273 C 0.94589 0.71223 0.73202 0.0
C2274 C 0.93858 0.71676 0.74662 0.0
C2275 C 0.93062 0.70741 0.7636 0.0
C2276 C 0.92961 0.69387 0.76607 0.0
C2277 C 0.92108 0.68621 0.78638 0.0
C2278 C 0.90707 0.67192 0.77949 0.0
C2279 C 0.9304 0.68326 0.80317 0.0
C2280 C 0.91782 0.69774 0.79542 0.0
C2281 C 0.92334 0.70988 0.78203 0.0
C2282 C 0.92263 0.7224 0.78802 0.0
C2283 C 0.91621 0.72253 0.80828 0.0
C2284 C 0.91054 0.7102 0.82219 0.0
C2285 C 0.91122 0.69762 0.81545 0.0
H2286 H 0.33067 0.29055 0.7661 0.0
H2287 H 0.28859 0.26588 0.73199 0.0
H2288 H 0.28323 0.24416 0.75405 0.0
H2289 H 0.33799 0.26055 0.76804 0.0
H2290 H 0.34691 0.26604 0.79526 0.0
H2291 H 0.34734 0.27967 0.77692 0.0
H2292 H 0.3364 0.28851 0.80778 0.0
H2293 H 0.33595 0.27492 0.82622 0.0
H2294 H 0.31958 0.27541 0.82001 0.0
H2295 H 0.28227 0.22523 0.78056 0.0
H2296 H 0.28613 0.21047 0.80886 0.0
H2297 H 0.32909 0.24738 0.82448 0.0
C2298 C 0.32037 0.28059 0.76311 0.0
C2299 C 0.31009 0.27994 0.74721 0.0
C2300 C 0.29666 0.26666 0.74405 0.0
C2301 C 0.29351 0.25425 0.75649 0.0
C2302 C 0.30393 0.25525 0.77194 0.0
C2303 C 0.31711 0.26807 0.77522 0.0
C2304 C 0.32648 0.26626 0.79275 0.0
C2305 C 0.34051 0.26825 0.78263 0.0
C2306 C 0.32979 0.2769 0.81288 0.0
C2307 C 0.31648 0.25046 0.79892 0.0
C2308 C 0.3035 0.24429 0.7868 0.0
C2309 C 0.29242 0.22991 0.79006 0.0
C2310 C 0.29468 0.22164 0.80618 0.0
C2311 C 0.30794 0.22774 0.81868 0.0
C2312 C 0.31895 0.24233 0.81487 0.0
H2313 H 0.72458 0.06355 0.7193 0.0
H2314 H 0.74354 0.03543 0.72168 0.0
H2315 H 0.75482 0.0463 0.75877 0.0
H2316 H 0.75568 0.0952 0.74211 0.0
H2317 H 0.74577 0.10196 0.75771 0.0
H2318 H 0.73777 0.09085 0.73261 0.0
H2319 H 0.71545 0.07248 0.75466 0.0
H2320 H 0.72336 0.08359 0.77983 0.0
H2321 H 0.71811 0.06439 0.77935 0.0
H2322 H 0.76441 0.06049 0.79497 0.0
H2323 H 0.7727 0.07781 0.82731 0.0
H2324 H 0.74965 0.09866 0.79965 0.0
C2325 C 0.73083 0.05949 0.72794 0.0
C2326 C 0.73303 0.04851 0.71795 0.0
C2327 C 0.74166 0.04375 0.72927 0.0
C2328 C 0.74808 0.04984 0.7503 0.0
C2329 C 0.74595 0.06084 0.75958 0.0
C2330 C 0.73762 0.06571 0.74875 0.0
C2331 C 0.73804 0.0785 0.76163 0.0
C2332 C 0.74471 0.09245 0.74768 0.0
C2333 C 0.72283 0.0745 0.76932 0.0
C2334 C 0.74793 0.08005 0.78131 0.0
C2335 C 0.75221 0.06964 0.77991 0.0
C2336 C 0.76124 0.06878 0.79618 0.0
C2337 C 0.76604 0.07883 0.8144 0.0
C2338 C 0.76204 0.08983 0.81611 0.0
C2339 C 0.75284 0.09036 0.79918 0.0
H2340 H 0.04369 0.34551 0.02276 0.0
H2341 H 0.06779 0.36601 0.9634 0.0
H2342 H 0.08839 0.36387 0.97811 0.0
H2343 H 0.07342 0.3627 0.06163 0.0
H2344 H 0.06755 0.34677 0.07858 0.0
H2345 H 0.05439 0.34928 0.06297 0.0
H2346 H 0.04453 0.32365 0.04357 0.0
H2347 H 0.05768 0.32105 0.05914 0.0
H2348 H 0.05682 0.31952 0.02901 0.0
H2349 H 0.10701 0.3611 0.00027 0.0
H2350 H 0.122 0.35688 0.02796 0.0
H2351 H 0.08564 0.33743 0.07224 0.0
C2352 C 0.05326 0.34944 0.01278 0.0
C2353 C 0.05412 0.35594 0.99192 0.0
C2354 C 0.06684 0.36096 0.9794 0.0
C2355 C 0.07862 0.3598 0.9876 0.0
C2356 C 0.07748 0.35346 0.00827 0.0
C2357 C 0.06509 0.34826 0.02063 0.0
C2358 C 0.06679 0.34216 0.04255 0.0
C2359 C 0.06546 0.35074 0.06261 0.0
C2360 C 0.0558 0.32561 0.04362 0.0
C2361 C 0.08213 0.34497 0.04071 0.0
C2362 C 0.08811 0.35151 0.02081 0.0
C2363 C 0.10241 0.35583 0.0158 0.0
C2364 C 0.11084 0.35344 0.0316 0.0
C2365 C 0.10491 0.34671 0.05205 0.0
C2366 C 0.09033 0.34233 0.05652 0.0
H2367 H 0.65036 0.68453 0.04832 0.0
H2368 H 0.60392 0.66762 0.04952 0.0
H2369 H 0.60845 0.69297 0.05485 0.0
H2370 H 0.65953 0.70958 0.09148 0.0
H2371 H 0.67625 0.72361 0.08017 0.0
H2372 H 0.66939 0.70462 0.07234 0.0
H2373 H 0.6698 0.71074 0.03045 0.0
H2374 H 0.67676 0.72984 0.03817 0.0
H2375 H 0.66043 0.72006 0.021 0.0
H2376 H 0.61811 0.7197 0.06539 0.0
H2377 H 0.63207 0.74542 0.07993 0.0
H2378 H 0.67206 0.7445 0.07248 0.0
C2379 C 0.64109 0.68614 0.049 0.0
C2380 C 0.62677 0.67404 0.04838 0.0
C2381 C 0.615 0.67669 0.04983 0.0
C2382 C 0.61746 0.69107 0.05281 0.0
C2383 C 0.63174 0.70269 0.05415 0.0
C2384 C 0.64336 0.70038 0.0521 0.0
C2385 C 0.65765 0.71446 0.05643 0.0
C2386 C 0.6662 0.71297 0.07629 0.0
C2387 C 0.66669 0.71905 0.03525 0.0
C2388 C 0.65227 0.72497 0.0621 0.0
C2389 C 0.63731 0.71806 0.06037 0.0
C2390 C 0.62984 0.72528 0.06645 0.0
C2391 C 0.63785 0.73985 0.07482 0.0
C2392 C 0.65317 0.74702 0.07719 0.0
C2393 C 0.66041 0.73949 0.07032 0.0
H2394 H 0.31421 0.93998 0.0061 0.0
H2395 H 0.32281 0.98414 0.02249 0.0
H2396 H 0.30208 0.9739 0.0476 0.0
H2397 H 0.27429 0.92163 0.00805 0.0
H2398 H 0.27282 0.90544 0.02049 0.0
H2399 H 0.28743 0.9161 0.00205 0.0
H2400 H 0.30611 0.91897 0.03297 0.0
H2401 H 0.29158 0.90835 0.05148 0.0
H2402 H 0.30577 0.92655 0.06009 0.0
H2403 H 0.28182 0.95917 0.07315 0.0
H2404 H 0.26378 0.941 0.09802 0.0
H2405 H 0.268 0.90633 0.06464 0.0
C2406 C 0.3116 0.94749 0.01469 0.0
C2407 C 0.32012 0.96286 0.01229 0.0
C2408 C 0.31644 0.97232 0.02405 0.0
C2409 C 0.30465 0.96661 0.03829 0.0
C2410 C 0.2966 0.95142 0.0405 0.0
C2411 C 0.29988 0.94198 0.029 0.0
C2412 C 0.29007 0.92618 0.03545 0.0
C2413 C 0.28059 0.91678 0.01531 0.0
C2414 C 0.29891 0.91964 0.0456 0.0
C2415 C 0.28106 0.92828 0.05285 0.0
C2416 C 0.28487 0.9429 0.05529 0.0
C2417 C 0.27858 0.94765 0.07115 0.0
C2418 C 0.26826 0.93722 0.08512 0.0
C2419 C 0.26438 0.9222 0.08321 0.0
C2420 C 0.27074 0.91771 0.06657 0.0
H2421 H 0.3921 0.05834 0.97333 0.0
H2422 H 0.34768 0.02657 0.98907 0.0
H2423 H 0.34069 0.04536 0.98349 0.0
H2424 H 0.39174 0.09185 0.99812 0.0
H2425 H 0.40284 0.10319 0.97609 0.0
H2426 H 0.40503 0.08823 0.98583 0.0
H2427 H 0.40081 0.07753 0.94526 0.0
H2428 H 0.39845 0.09229 0.93544 0.0
H2429 H 0.38442 0.07348 0.92997 0.0
H2430 H 0.33742 0.06537 0.96836 0.0
H2431 H 0.33838 0.08553 0.94704 0.0
H2432 H 0.38527 0.10566 0.94417 0.0
C2433 C 0.38101 0.05546 0.97637 0.0
C2434 C 0.37046 0.04093 0.98159 0.0
C2435 C 0.356 0.0376 0.98509 0.0
C2436 C 0.35191 0.04823 0.98203 0.0
C2437 C 0.36243 0.06225 0.9759 0.0
C2438 C 0.37676 0.066 0.97354 0.0
C2439 C 0.3856 0.08135 0.96463 0.0
C2440 C 0.39697 0.09177 0.98222 0.0
C2441 C 0.39272 0.08113 0.94252 0.0
C2442 C 0.37382 0.08523 0.96097 0.0
C2443 C 0.36058 0.07416 0.96788 0.0
C2444 C 0.3478 0.07437 0.96359 0.0
C2445 C 0.3485 0.08601 0.9515 0.0
C2446 C 0.36193 0.09743 0.94387 0.0
C2447 C 0.37478 0.09717 0.94949 0.0
H2448 H 0.95409 0.32056 0.97636 0.0
H2449 H 0.98625 0.31534 0.01424 0.0
H2450 H 0.96906 0.28855 0.0157 0.0
H2451 H 0.92105 0.29081 0.0022 0.0
H2452 H 0.91119 0.28546 0.97572 0.0
H2453 H 0.92491 0.30438 0.98131 0.0
H2454 H 0.93805 0.30399 0.94542 0.0
H2455 H 0.9244 0.28513 0.93974 0.0
H2456 H 0.94324 0.29017 0.94187 0.0
H2457 H 0.94918 0.26199 0.00958 0.0
H2458 H 0.92941 0.23818 0.9944 0.0
H2459 H 0.91135 0.26115 0.95827 0.0
C2460 C 0.95737 0.31388 0.98562 0.0
C2461 C 0.97144 0.32008 0.9955 0.0
C2462 C 0.97548 0.31085 0.00674 0.0
C2463 C 0.96576 0.29563 0.00772 0.0
C2464 C 0.95209 0.28982 0.99729 0.0
C2465 C 0.94793 0.2987 0.9864 0.0
C2466 C 0.93346 0.28967 0.9741 0.0
C2467 C 0.92197 0.29276 0.98393 0.0
C2468 C 0.93489 0.2924 0.9488 0.0
C2469 C 0.93027 0.27429 0.97918 0.0
C2470 C 0.94096 0.27457 0.99297 0.0
C2471 C 0.94071 0.26166 0.9989 0.0
C2472 C 0.92947 0.24818 0.99004 0.0
C2473 C 0.91875 0.24769 0.97505 0.0
C2474 C 0.91908 0.26098 0.97007 0.0
H2475 H 0.6944 0.64326 0.03621 0.0
H2476 H 0.67588 0.66886 0.0101 0.0
H2477 H 0.69761 0.6831 0.988 0.0
H2478 H 0.73174 0.6734 0.04038 0.0
H2479 H 0.73928 0.66213 0.03182 0.0
H2480 H 0.7224 0.65405 0.04621 0.0
H2481 H 0.70991 0.63489 0.01362 0.0
H2482 H 0.72674 0.64291 0.99913 0.0
H2483 H 0.71069 0.64113 0.98551 0.0
H2484 H 0.72058 0.69393 0.96772 0.0
H2485 H 0.74379 0.70096 0.95031 0.0
H2486 H 0.74825 0.66911 0.9901 0.0
C2487 C 0.69495 0.6519 0.02592 0.0
C2488 C 0.68341 0.65492 0.02492 0.0
C2489 C 0.68455 0.66631 0.01119 0.0
C2490 C 0.69686 0.67449 0.99857 0.0
C2491 C 0.70799 0.67121 -0.00013 0.0
C2492 C 0.70721 0.66023 0.01319 0.0
C2493 C 0.72067 0.65886 0.01115 0.0
C2494 C 0.72902 0.66232 0.03374 0.0
C2495 C 0.71676 0.64354 0.00179 0.0
C2496 C 0.72903 0.6707 0.99446 0.0
C2497 C 0.72149 0.67768 0.98826 0.0
C2498 C 0.72671 0.68869 0.97264 0.0
C2499 C 0.74 0.6927 0.96299 0.0
C2500 C 0.74805 0.68579 0.96905 0.0
C2501 C 0.74242 0.67463 0.98507 0.0
H2502 H 0.96062 0.67617 0.03944 0.0
H2503 H 0.97635 0.66094 0.98444 0.0
H2504 H 0.96165 0.66605 0.95779 0.0
H2505 H 0.9243 0.66146 0.01801 0.0
H2506 H 0.92259 0.67692 0.02735 0.0
H2507 H 0.93454 0.67232 0.04234 0.0
H2508 H 0.95602 0.69874 0.03739 0.0
H2509 H 0.94412 0.70344 0.02251 0.0
H2510 H 0.96038 0.70598 0.00971 0.0
H2511 H 0.94462 0.67176 0.93722 0.0
H2512 H 0.9275 0.67943 0.92357 0.0
H2513 H 0.92311 0.69165 0.99147 0.0
C2514 C 0.96103 0.67399 0.02179 0.0
C2515 C 0.96964 0.66813 0.01406 0.0
C2516 C 0.96989 0.66546 0.99079 0.0
C2517 C 0.96154 0.66828 0.9755 0.0
C2518 C 0.95306 0.67389 0.98368 0.0
C2519 C 0.95284 0.67687 0.00622 0.0
C2520 C 0.94284 0.68299 0.01049 0.0
C2521 C 0.93033 0.67281 0.02543 0.0
C2522 C 0.95135 0.69872 0.02062 0.0
C2523 C 0.93742 0.68288 0.98683 0.0
C2524 C 0.9434 0.67749 0.97168 0.0
C2525 C 0.93989 0.67604 0.9489 0.0
C2526 C 0.93007 0.68032 0.94133 0.0
C2527 C 0.92393 0.68606 0.95647 0.0
C2528 C 0.92769 0.68736 0.97952 0.0
H2529 H 0.38513 0.3179 0.98079 0.0
H2530 H 0.34601 0.3182 0.99912 0.0
H2531 H 0.33232 0.29109 0.99646 0.0
H2532 H 0.36976 0.29216 0.93962 0.0
H2533 H 0.3801 0.28309 0.9444 0.0
H2534 H 0.38758 0.30207 0.95283 0.0
H2535 H 0.39128 0.29611 0.99347 0.0
H2536 H 0.3839 0.27705 0.98511 0.0
H2537 H 0.37612 0.28196 0.00789 0.0
H2538 H 0.32205 0.26476 0.9848 0.0
H2539 H 0.3161 0.24155 0.9651 0.0
H2540 H 0.36191 0.25804 0.95522 0.0
C2541 C 0.3738 0.31227 0.98507 0.0
C2542 C 0.36668 0.32021 0.99024 0.0
C2543 C 0.35175 0.31239 0.9952 0.0
C2544 C 0.34388 0.29696 0.99383 0.0
C2545 C 0.3511 0.2895 0.98773 0.0
C2546 C 0.36579 0.2969 0.98368 0.0
C2547 C 0.37061 0.28653 0.9746 0.0
C2548 C 0.3774 0.29125 0.9515 0.0
C2549 C 0.3811 0.28534 0.99127 0.0
C2550 C 0.3562 0.27232 0.97289 0.0
C2551 C 0.34513 0.27418 0.98102 0.0
C2552 C 0.33067 0.26305 0.97897 0.0
C2553 C 0.32739 0.24984 0.9678 0.0
C2554 C 0.33854 0.24789 0.95866 0.0
C2555 C 0.35314 0.25915 0.962 0.0
H2556 H 0.68824 0.05759 0.03029 0.0
H2557 H 0.67582 0.01573 0.9968 0.0
H2558 H 0.69726 0.02798 0.97335 0.0
H2559 H 0.69998 0.07907 0.98236 0.0
H2560 H 0.71501 0.09482 0.99629 0.0
H2561 H 0.69935 0.08264 0.0118 0.0
H2562 H 0.71575 0.0786 0.03991 0.0
H2563 H 0.73149 0.09082 0.02448 0.0
H2564 H 0.72764 0.07236 0.02969 0.0
H2565 H 0.71881 0.04483 0.95173 0.0
H2566 H 0.7391 0.06526 0.93307 0.0
H2567 H 0.73819 0.09626 0.98119 0.0
C2568 C 0.69012 0.05097 0.01823 0.0
C2569 C 0.68035 0.03569 0.01542 0.0
C2570 C 0.68314 0.02744 0.99929 0.0
C2571 C 0.69532 0.03429 0.98592 0.0
C2572 C 0.70464 0.04937 0.98894 0.0
C2573 C 0.70224 0.05762 0.00472 0.0
C2574 C 0.71358 0.07379 0.00381 0.0
C2575 C 0.70656 0.08312 0.99823 0.0
C2576 C 0.72265 0.07921 0.02578 0.0
C2577 C 0.72253 0.07335 0.98471 0.0
C2578 C 0.71724 0.05914 0.97652 0.0
C2579 C 0.72322 0.05599 0.95822 0.0
C2580 C 0.73485 0.0677 0.94783 0.0
C2581 C 0.74042 0.08242 0.95577 0.0
C2582 C 0.73422 0.08518 0.97465 0.0
H2583 H 0.65344 0.97112 0.04507 0.0
H2584 H 0.6083 0.93829 0.03181 0.0
H2585 H 0.61439 0.91861 0.03567 0.0
H2586 H 0.67 0.95016 0.01893 0.0
H2587 H 0.68389 0.95662 0.04075 0.0
H2588 H 0.67663 0.96807 0.03203 0.0
H2589 H 0.67012 0.97012 0.07301 0.0
H2590 H 0.67727 0.95868 0.0818 0.0
H2591 H 0.65883 0.95355 0.08782 0.0
H2592 H 0.62453 0.90265 0.04673 0.0
H2593 H 0.63773 0.89174 0.06513 0.0
H2594 H 0.67601 0.93506 0.07253 0.0
C2595 C 0.64493 0.95981 0.04214 0.0
C2596 C 0.63042 0.95623 0.03793 0.0
C2597 C 0.6195 0.94128 0.03493 0.0
C2598 C 0.62288 0.93003 0.03698 0.0
C2599 C 0.63721 0.93392 0.04196 0.0
C2600 C 0.64808 0.94847 0.04441 0.0
C2601 C 0.66218 0.94974 0.05276 0.0
C2602 C 0.67386 0.95655 0.03505 0.0
C2603 C 0.66739 0.95853 0.07517 0.0
C2604 C 0.65736 0.93367 0.05566 0.0
C2605 C 0.64303 0.92469 0.04885 0.0
C2606 C 0.63583 0.90954 0.05175 0.0
C2607 C 0.64338 0.90346 0.06236 0.0
C2608 C 0.65791 0.91254 0.0702 0.0
C2609 C 0.66505 0.92778 0.06622 0.0
H2610 H 0.03494 0.69723 0.04509 0.0
H2611 H 0.05934 0.67613 0.02557 0.0
H2612 H 0.08185 0.70038 0.02621 0.0
H2613 H 0.05692 0.73264 0.01603 0.0
H2614 H 0.05543 0.74313 0.03896 0.0
H2615 H 0.04097 0.72461 0.03275 0.0
H2616 H 0.04276 0.71754 0.07354 0.0
H2617 H 0.05719 0.73597 0.07983 0.0
H2618 H 0.05995 0.72063 0.08462 0.0
H2619 H 0.10203 0.72657 0.03309 0.0
H2620 H 0.11819 0.75199 0.04748 0.0
H2621 H 0.08048 0.75529 0.06492 0.0
C2622 C 0.04493 0.69776 0.04018 0.0
C2623 C 0.04537 0.68483 0.03494 0.0
C2624 C 0.05875 0.68593 0.02944 0.0
C2625 C 0.07157 0.69966 0.02967 0.0
C2626 C 0.07084 0.71218 0.03556 0.0
C2627 C 0.05784 0.71133 0.04073 0.0
C2628 C 0.06016 0.72603 0.04926 0.0
C2629 C 0.05294 0.73195 0.03329 0.0
C2630 C 0.0547 0.72497 0.07323 0.0
C2631 C 0.07653 0.73518 0.04875 0.0
C2632 C 0.08249 0.72711 0.04035 0.0
C2633 C 0.09746 0.73303 0.03951 0.0
C2634 C 0.10657 0.74746 0.04789 0.0
C2635 C 0.10068 0.75575 0.05736 0.0
C2636 C 0.08543 0.74951 0.0573 0.0
H2637 H 0.31127 0.33041 0.99131 0.0
H2638 H 0.34044 0.37468 0.01772 0.0
H2639 H 0.32028 0.3743 0.03784 0.0
H2640 H 0.2793 0.33456 0.9843 0.0
H2641 H 0.26694 0.31611 0.99282 0.0
H2642 H 0.28347 0.32011 0.97931 0.0
H2643 H 0.29068 0.3095 0.01278 0.0
H2644 H 0.2742 0.30548 0.02638 0.0
H2645 H 0.29149 0.31674 0.04066 0.0
H2646 H 0.29757 0.36876 0.05672 0.0
H2647 H 0.2737 0.35826 0.07377 0.0
H2648 H 0.25883 0.31776 0.03454 0.0
C2649 C 0.31339 0.34008 0.00115 0.0
C2650 C 0.32744 0.35259 0.00289 0.0
C2651 C 0.32978 0.36497 0.0161 0.0
C2652 C 0.31839 0.36488 0.02756 0.0
C2653 C 0.30471 0.35237 0.0256 0.0
C2654 C 0.30213 0.34019 0.01274 0.0
C2655 C 0.28652 0.32794 0.01426 0.0
C2656 C 0.27859 0.32448 0.9913 0.0
C2657 C 0.28568 0.3141 0.02411 0.0
C2658 C 0.28082 0.33506 0.03029 0.0
C2659 C 0.29149 0.34919 0.03646 0.0
C2660 C 0.28905 0.35779 0.05178 0.0
C2661 C 0.27538 0.35174 0.06125 0.0
C2662 C 0.26426 0.33722 0.05536 0.0
C2663 C 0.26706 0.32887 0.03946 0.0
H2664 H 0.7227 0.68227 0.33779 0.0
H2665 H 0.68885 0.67242 0.38534 0.0
H2666 H 0.69936 0.66148 0.41014 0.0
H2667 H 0.72435 0.64946 0.34457 0.0
H2668 H 0.74377 0.65827 0.34249 0.0
H2669 H 0.73395 0.66584 0.32856 0.0
H2670 H 0.75016 0.69093 0.34924 0.0
H2671 H 0.76007 0.68345 0.36317 0.0
H2672 H 0.75172 0.69169 0.37937 0.0
H2673 H 0.71266 0.65071 0.42905 0.0
H2674 H 0.72876 0.64161 0.44195 0.0
H2675 H 0.75444 0.6586 0.38279 0.0
C2676 C 0.71756 0.6779 0.35349 0.0
C2677 C 0.70492 0.6782 0.35958 0.0
C2678 C 0.69853 0.67235 0.38028 0.0
C2679 C 0.7044 0.66609 0.3945 0.0
C2680 C 0.71674 0.66583 0.38789 0.0
C2681 C 0.72334 0.67166 0.36799 0.0
C2682 C 0.73647 0.66983 0.3649 0.0
C2683 C 0.73451 0.66028 0.34388 0.0
C2684 C 0.75043 0.68487 0.36413 0.0
C2685 C 0.7361 0.66191 0.38607 0.0
C2686 C 0.72459 0.65971 0.39903 0.0
C2687 C 0.72172 0.65238 0.41909 0.0
C2688 C 0.73087 0.64716 0.42619 0.0
C2689 C 0.74277 0.6493 0.41329 0.0
C2690 C 0.74546 0.65687 0.39302 0.0
H2691 H 0.2958 0.02547 0.42321 0.0
H2692 H 0.31464 0.02803 0.35859 0.0
H2693 H 0.32469 0.05496 0.35936 0.0
H2694 H 0.28825 0.05646 0.41671 0.0
H2695 H 0.29358 0.06264 0.44541 0.0
H2696 H 0.28554 0.04337 0.43787 0.0
H2697 H 0.30777 0.04311 0.45568 0.0
H2698 H 0.31587 0.06232 0.46321 0.0
H2699 H 0.32569 0.05598 0.4465 0.0
H2700 H 0.33489 0.0817 0.36894 0.0
H2701 H 0.34559 0.10627 0.38743 0.0
H2702 H 0.32142 0.0863 0.44693 0.0
C2703 C 0.30161 0.03166 0.40889 0.0
C2704 C 0.30425 0.02469 0.39066 0.0
C2705 C 0.31239 0.03319 0.3726 0.0
C2706 C 0.31808 0.04846 0.37286 0.0
C2707 C 0.31562 0.05508 0.39137 0.0
C2708 C 0.3076 0.04696 0.4091 0.0
C2709 C 0.30812 0.05688 0.42821 0.0
C2710 C 0.29297 0.05471 0.43228 0.0
C2711 C 0.31476 0.05443 0.44965 0.0
C2712 C 0.31804 0.07184 0.41876 0.0
C2713 C 0.322 0.07057 0.39731 0.0
C2714 C 0.33176 0.08284 0.38566 0.0
C2715 C 0.33787 0.09674 0.39637 0.0
C2716 C 0.33437 0.09827 0.41866 0.0
C2717 C 0.32409 0.08561 0.42973 0.0
H2718 H 0.97041 0.28132 0.3369 0.0
H2719 H 0.00599 0.3041 0.38559 0.0
H2720 H 0.98883 0.29323 0.41621 0.0
H2721 H 0.94375 0.28531 0.36785 0.0
H2722 H 0.92906 0.26733 0.35943 0.0
H2723 H 0.94411 0.27706 0.34134 0.0
H2724 H 0.94847 0.25488 0.34062 0.0
H2725 H 0.93343 0.24508 0.35869 0.0
H2726 H 0.95109 0.24797 0.36663 0.0
H2727 H 0.96787 0.27972 0.44146 0.0
H2728 H 0.94453 0.26455 0.45965 0.0
H2729 H 0.92275 0.25032 0.39441 0.0
C2730 C 0.97461 0.28407 0.35399 0.0
C2731 C 0.98955 0.29357 0.35885 0.0
C2732 C 0.99459 0.29685 0.38146 0.0
C2733 C 0.98494 0.29074 0.39897 0.0
C2734 C 0.97029 0.28139 0.39358 0.0
C2735 C 0.96514 0.27808 0.37165 0.0
C2736 C 0.94892 0.2676 0.37038 0.0
C2737 C 0.941 0.27476 0.35909 0.0
C2738 C 0.94527 0.25302 0.35837 0.0
C2739 C 0.94575 0.2655 0.39503 0.0
C2740 C 0.95822 0.27356 0.40812 0.0
C2741 C 0.95804 0.27333 0.43139 0.0
C2742 C 0.94475 0.2646 0.44155 0.0
C2743 C 0.93182 0.25619 0.42846 0.0
C2744 C 0.9324 0.25672 0.40488 0.0
H2745 H 0.02753 0.36014 0.26475 0.0
H2746 H 0.02324 0.35971 0.33668 0.0
H2747 H 0.01636 0.37906 0.33428 0.0
H2748 H 0.04302 0.39761 0.25787 0.0
H2749 H 0.03338 0.39616 0.23202 0.0
H2750 H 0.03679 0.38164 0.23955 0.0
H2751 H 0.00925 0.36274 0.23593 0.0
H2752 H 0.00575 0.37723 0.22831 0.0
H2753 H 0.99667 0.36585 0.25159 0.0
H2754 H 0.01347 0.40105 0.32384 0.0
H2755 H 0.0124 0.42173 0.30601 0.0
H2756 H 0.01637 0.40563 0.2409 0.0
C2757 C 0.02493 0.36398 0.27995 0.0
C2758 C 0.02597 0.3586 0.3009 0.0
C2759 C 0.02243 0.36374 0.32048 0.0
C2760 C 0.01854 0.3747 0.31924 0.0
C2761 C 0.01789 0.38002 0.29825 0.0
C2762 C 0.02069 0.37456 0.27893 0.0
C2763 C 0.01957 0.38219 0.25844 0.0
C2764 C 0.03405 0.38985 0.24627 0.0
C2765 C 0.00706 0.37136 0.24264 0.0
C2766 C 0.01622 0.39321 0.26923 0.0
C2767 C 0.01532 0.39188 0.29221 0.0
C2768 C 0.01375 0.40191 0.30583 0.0
C2769 C 0.01317 0.4136 0.29564 0.0
C2770 C 0.01392 0.41491 0.27215 0.0
C2771 C 0.01528 0.40451 0.25886 0.0
H2772 H 0.61654 0.64752 0.29982 0.0
H2773 H 0.64078 0.64403 0.35607 0.0
H2774 H 0.6243 0.617 0.35535 0.0
H2775 H 0.58032 0.61739 0.31336 0.0
H2776 H 0.57561 0.61147 0.28444 0.0
H2777 H 0.58795 0.63058 0.29155 0.0
H2778 H 0.60723 0.63022 0.26603 0.0
H2779 H 0.59495 0.61117 0.25882 0.0
H2780 H 0.61276 0.61677 0.27044 0.0
H2781 H 0.60567 0.59011 0.34705 0.0
H2782 H 0.58824 0.56583 0.33008 0.0
H2783 H 0.57828 0.58744 0.27699 0.0
C2784 C 0.61815 0.64111 0.31238 0.0
C2785 C 0.62975 0.64785 0.32827 0.0
C2786 C 0.63185 0.63906 0.3439 0.0
C2787 C 0.62252 0.62373 0.34366 0.0
C2788 C 0.61129 0.6174 0.32751 0.0
C2789 C 0.60918 0.62584 0.31204 0.0
C2790 C 0.59741 0.61635 0.29488 0.0
C2791 C 0.58456 0.61911 0.29614 0.0
C2792 C 0.60345 0.61877 0.27115 0.0
C2793 C 0.59333 0.60121 0.30289 0.0
C2794 C 0.60121 0.60201 0.32197 0.0
C2795 C 0.59946 0.58938 0.33207 0.0
C2796 C 0.5896 0.57561 0.32216 0.0
C2797 C 0.58182 0.57455 0.30203 0.0
C2798 C 0.58368 0.58764 0.29259 0.0
H2799 H 0.34442 0.97234 0.3254 0.0
H2800 H 0.35079 0.01476 0.348 0.0
H2801 H 0.37483 0.02711 0.33107 0.0
H2802 H 0.38051 0.98021 0.33528 0.0
H2803 H 0.38108 0.97042 0.31061 0.0
H2804 H 0.36405 0.96482 0.32367 0.0
H2805 H 0.35312 0.9676 0.28625 0.0
H2806 H 0.37006 0.97303 0.273 0.0
H2807 H 0.36226 0.9848 0.27206 0.0
H2808 H 0.39882 0.03477 0.31384 0.0
H2809 H 0.42028 0.03733 0.29473 0.0
H2810 H 0.39779 0.99005 0.28177 0.0
C2811 C 0.3508 0.98423 0.32659 0.0
C2812 C 0.34571 0.99256 0.33809 0.0
C2813 C 0.35442 0.00812 0.33926 0.0
C2814 C 0.36813 0.01525 0.32976 0.0
C2815 C 0.37293 0.0067 0.31896 0.0
C2816 C 0.36447 0.99155 0.31705 0.0
C2817 C 0.37221 0.98495 0.30457 0.0
C2818 C 0.3746 0.97448 0.31943 0.0
C2819 C 0.36392 0.97714 0.28267 0.0
C2820 C 0.38642 0.99874 0.30006 0.0
C2821 C 0.38663 0.01116 0.30855 0.0
C2822 C 0.39872 0.02514 0.30686 0.0
C2823 C 0.41084 0.02648 0.2959 0.0
C2824 C 0.41077 0.01392 0.28662 0.0
C2825 C 0.39835 0.99988 0.2889 0.0
H2826 H 0.6091 0.96743 0.35048 0.0
H2827 H 0.64536 0.99158 0.30711 0.0
H2828 H 0.63037 0.99879 0.28438 0.0
H2829 H 0.58142 0.95335 0.30719 0.0
H2830 H 0.56836 0.95479 0.3242 0.0
H2831 H 0.58209 0.95192 0.33714 0.0
H2832 H 0.59039 0.97518 0.36254 0.0
H2833 H 0.57673 0.97818 0.34959 0.0
H2834 H 0.59549 0.99253 0.34995 0.0
H2835 H 0.6113 0.00347 0.2667 0.0
H2836 H 0.58932 0.00381 0.25383 0.0
H2837 H 0.56557 0.97624 0.3087 0.0
C2838 C 0.61394 0.97427 0.33623 0.0
C2839 C 0.62844 0.97901 0.33061 0.0
C2840 C 0.63428 0.98782 0.3117 0.0
C2841 C 0.62587 0.99201 0.29877 0.0
C2842 C 0.61164 0.98722 0.30492 0.0
C2843 C 0.6057 0.97843 0.3231 0.0
C2844 C 0.59003 0.97437 0.32587 0.0
C2845 C 0.57988 0.95762 0.32345 0.0
C2846 C 0.58805 0.98043 0.34832 0.0
C2847 C 0.58803 0.98223 0.30637 0.0
C2848 C 0.60064 0.98968 0.29459 0.0
C2849 C 0.60139 0.9977 0.27584 0.0
C2850 C 0.58887 0.99793 0.26877 0.0
C2851 C 0.57574 0.99012 0.28034 0.0
C2852 C 0.57542 0.98228 0.29948 0.0
H2853 H 0.0076 0.64432 0.29756 0.0
H2854 H 0.05135 0.66032 0.32353 0.0
H2855 H 0.04662 0.63472 0.32446 0.0
H2856 H 0.98935 0.60822 0.32607 0.0
H2857 H 0.9781 0.5989 0.30161 0.0
H2858 H 0.98386 0.61798 0.30744 0.0
H2859 H 0.99489 0.62466 0.26813 0.0
H2860 H 0.98916 0.60566 0.2622 0.0
H2861 H 0.00798 0.61949 0.25995 0.0
H2862 H 0.03792 0.60773 0.31898 0.0
H2863 H 0.02707 0.58221 0.30421 0.0
H2864 H 0.98993 0.58456 0.27842 0.0
C2865 C 0.01599 0.64236 0.30419 0.0
C2866 C 0.02973 0.6542 0.3109 0.0
C2867 C 0.04069 0.65133 0.31857 0.0
C2868 C 0.03807 0.63684 0.31926 0.0
C2869 C 0.02449 0.6254 0.31199 0.0
C2870 C 0.01366 0.62802 0.30445 0.0
C2871 C 0.00084 0.61417 0.29448 0.0
C2872 C 0.98723 0.60955 0.30822 0.0
C2873 C 0.99807 0.61612 0.26973 0.0
C2874 C 0.00631 0.60344 0.29692 0.0
C2875 C 0.01979 0.61 0.30761 0.0
C2876 C 0.02733 0.60246 0.31069 0.0
C2877 C 0.02112 0.58798 0.30205 0.0
C2878 C 0.00764 0.58129 0.28996 0.0
C2879 C 5e-05 0.5891 0.28796 0.0
H2880 H 0.34272 0.35913 0.32306 0.0
H2881 H 0.34898 0.39055 0.3764 0.0
H2882 H 0.37351 0.40746 0.36326 0.0
H2883 H 0.37907 0.36529 0.32503 0.0
H2884 H 0.37995 0.36347 0.29515 0.0
H2885 H 0.36275 0.35384 0.30853 0.0
H2886 H 0.35237 0.36602 0.2824 0.0
H2887 H 0.36953 0.37564 0.26889 0.0
H2888 H 0.36165 0.38579 0.28095 0.0
H2889 H 0.39742 0.421 0.34444 0.0
H2890 H 0.41905 0.43013 0.32114 0.0
H2891 H 0.39719 0.38998 0.28008 0.0
C2892 C 0.34923 0.36958 0.33195 0.0
C2893 C 0.3439 0.37351 0.35076 0.0
C2894 C 0.3528 0.38728 0.36195 0.0
C2895 C 0.36677 0.39698 0.35462 0.0
C2896 C 0.37171 0.39275 0.3361 0.0
C2897 C 0.36323 0.37939 0.32489 0.0
C2898 C 0.37117 0.37751 0.3055 0.0
C2899 C 0.37336 0.36424 0.30876 0.0
C2900 C 0.36321 0.37617 0.28311 0.0
C2901 C 0.38544 0.39188 0.30759 0.0
C2902 C 0.38552 0.40053 0.32532 0.0
C2903 C 0.39748 0.41434 0.33048 0.0
C2904 C 0.40968 0.41945 0.31711 0.0
C2905 C 0.40984 0.41076 0.29884 0.0
C2906 C 0.39751 0.39679 0.29413 0.0
H2907 H 0.32133 0.3105 0.38404 0.0
H2908 H 0.27833 0.27423 0.36657 0.0
H2909 H 0.28629 0.25656 0.3762 0.0
H2910 H 0.34224 0.29188 0.36646 0.0
H2911 H 0.35479 0.3 0.39001 0.0
H2912 H 0.34666 0.30977 0.37755 0.0
H2913 H 0.33719 0.31199 0.41622 0.0
H2914 H 0.34519 0.30219 0.42873 0.0
H2915 H 0.32608 0.29556 0.43143 0.0
H2916 H 0.29754 0.24301 0.39283 0.0
H2917 H 0.31138 0.2345 0.41551 0.0
H2918 H 0.34696 0.27946 0.42306 0.0
C2919 C 0.31377 0.29884 0.38147 0.0
C2920 C 0.29926 0.29371 0.37437 0.0
C2921 C 0.28951 0.27838 0.37192 0.0
C2922 C 0.29395 0.26826 0.37723 0.0
C2923 C 0.30818 0.27365 0.38496 0.0
C2924 C 0.31799 0.28858 0.38697 0.0
C2925 C 0.33207 0.29148 0.39823 0.0
C2926 C 0.34469 0.29871 0.38209 0.0
C2927 C 0.33531 0.30085 0.41993 0.0
C2928 C 0.32841 0.27589 0.40307 0.0
C2929 C 0.31467 0.26576 0.39491 0.0
C2930 C 0.30841 0.2508 0.39894 0.0
C2931 C 0.3163 0.24608 0.41196 0.0
C2932 C 0.33025 0.25631 0.4209 0.0
C2933 C 0.33646 0.27135 0.41597 0.0
H2934 H 0.69972 0.01869 0.38586 0.0
H2935 H 0.71948 0.99952 0.3449 0.0
H2936 H 0.7423 0.02358 0.345 0.0
H2937 H 0.71975 0.05722 0.36457 0.0
H2938 H 0.72158 0.06512 0.39227 0.0
H2939 H 0.70597 0.04753 0.38472 0.0
H2940 H 0.71159 0.03588 0.41854 0.0
H2941 H 0.72716 0.05337 0.42615 0.0
H2942 H 0.72923 0.03753 0.42139 0.0
H2943 H 0.76361 0.04883 0.35306 0.0
H2944 H 0.78226 0.07219 0.37105 0.0
H2945 H 0.74903 0.07388 0.40994 0.0
C2946 C 0.7087 0.0198 0.37618 0.0
C2947 C 0.70784 0.00751 0.36479 0.0
C2948 C 0.71994 0.009 0.35326 0.0
C2949 C 0.73289 0.0226 0.3532 0.0
C2950 C 0.73357 0.0345 0.36506 0.0
C2951 C 0.7218 0.0332 0.37647 0.0
C2952 C 0.72596 0.04687 0.39075 0.0
C2953 C 0.71783 0.05465 0.38258 0.0
C2954 C 0.72334 0.04319 0.41567 0.0
C2955 C 0.74199 0.05587 0.3862 0.0
C2956 C 0.74609 0.04873 0.37088 0.0
C2957 C 0.7605 0.05455 0.36498 0.0
C2958 C 0.77105 0.06779 0.37546 0.0
C2959 C 0.76721 0.07494 0.39208 0.0
C2960 C 0.75239 0.06898 0.397 0.0
H2961 H 0.96097 0.66191 0.32109 0.0
H2962 H 0.99661 0.68994 0.3673 0.0
H2963 H 0.97919 0.68594 0.39664 0.0
H2964 H 0.93631 0.67369 0.33973 0.0
H2965 H 0.92046 0.65565 0.33672 0.0
H2966 H 0.9357 0.66064 0.31911 0.0
H2967 H 0.93716 0.63798 0.33208 0.0
H2968 H 0.92191 0.63291 0.3497 0.0
H2969 H 0.93874 0.63552 0.36156 0.0
H2970 H 0.95821 0.67908 0.42095 0.0
H2971 H 0.93472 0.66928 0.4392 0.0
H2972 H 0.91244 0.6458 0.37747 0.0
C2973 C 0.96511 0.6672 0.33738 0.0
C2974 C 0.98017 0.67625 0.34186 0.0
C2975 C 0.98514 0.68295 0.36342 0.0
C2976 C 0.97533 0.68076 0.38023 0.0
C2977 C 0.96059 0.67184 0.37525 0.0
C2978 C 0.95546 0.66512 0.35442 0.0
C2979 C 0.93903 0.65599 0.35361 0.0
C2980 C 0.93249 0.66185 0.33626 0.0
C2981 C 0.93391 0.63963 0.34896 0.0
C2982 C 0.93578 0.65864 0.37725 0.0
C2983 C 0.94839 0.66785 0.38939 0.0
C2984 C 0.94824 0.67191 0.41161 0.0
C2985 C 0.93483 0.66637 0.42177 0.0
C2986 C 0.92173 0.65687 0.40972 0.0
C2987 C 0.92227 0.65298 0.38714 0.0
H2988 H 0.3989 0.02815 0.68412 0.0
H2989 H 0.35482 0.99338 0.69544 0.0
H2990 H 0.36431 0.97921 0.71467 0.0
H2991 H 0.41375 0.00495 0.6731 0.0
H2992 H 0.43086 0.01685 0.68743 0.0
H2993 H 0.42069 0.02452 0.67499 0.0
H2994 H 0.42089 0.03671 0.71315 0.0
H2995 H 0.43115 0.02915 0.72569 0.0
H2996 H 0.41422 0.02549 0.7374 0.0
H2997 H 0.37845 0.96842 0.73142 0.0
H2998 H 0.39639 0.96232 0.74673 0.0
H2999 H 0.43135 0.00413 0.72493 0.0
C3000 C 0.39123 0.01759 0.69076 0.0
C3001 C 0.3761 0.01187 0.68822 0.0
C3002 C 0.36645 0.99802 0.69719 0.0
C3003 C 0.37173 0.98986 0.7081 0.0
C3004 C 0.38669 0.99574 0.71004 0.0
C3005 C 0.39632 0.00933 0.70181 0.0
C3006 C 0.41189 0.01312 0.70618 0.0
C3007 C 0.41976 0.01497 0.68411 0.0
C3008 C 0.42001 0.02693 0.72152 0.0
C3009 C 0.4095 0.99946 0.71799 0.0
C3010 C 0.39488 0.98956 0.71995 0.0
C3011 C 0.38993 0.97608 0.72999 0.0
C3012 C 0.40021 0.97266 0.73846 0.0
C3013 C 0.41527 0.9827 0.73689 0.0
C3014 C 0.41992 0.99627 0.72647 0.0
H3015 H 0.95579 0.35708 0.68411 0.0
H3016 H 0.99786 0.36117 0.69623 0.0
H3017 H 0.00898 0.38815 0.69955 0.0
H3018 H 0.97074 0.39513 0.6548 0.0
H3019 H 0.95679 0.39747 0.66755 0.0
H3020 H 0.9531 0.37935 0.65886 0.0
H3021 H 0.94501 0.37034 0.69889 0.0
H3022 H 0.94891 0.38834 0.70784 0.0
H3023 H 0.95743 0.3796 0.72229 0.0
H3024 H 0.01349 0.4122 0.71437 0.0
H3025 H 0.01164 0.43152 0.73483 0.0
H3026 H 0.96761 0.41381 0.70824 0.0
C3027 C 0.96746 0.36377 0.68622 0.0
C3028 C 0.97599 0.35713 0.68987 0.0
C3029 C 0.99118 0.36608 0.69305 0.0
C3030 C 0.99758 0.38143 0.69499 0.0
C3031 C 0.9887 0.38764 0.69294 0.0
C3032 C 0.97402 0.37912 0.68775 0.0
C3033 C 0.96651 0.3881 0.68954 0.0
C3034 C 0.96149 0.39014 0.6663 0.0
C3035 C 0.95374 0.38119 0.7056 0.0
C3036 C 0.97888 0.4025 0.69899 0.0
C3037 C 0.99166 0.40213 0.70038 0.0
C3038 C 0.00375 0.41293 0.71244 0.0
C3039 C 0.00258 0.424 0.72404 0.0
C3040 C 0.98942 0.42435 0.72342 0.0
C3041 C 0.97779 0.41388 0.70951 0.0
H3042 H 0.66437 0.64949 0.70282 0.0
H3043 H 0.64915 0.63294 0.63489 0.0
H3044 H 0.62551 0.61436 0.64906 0.0
H3045 H 0.64834 0.61538 0.72811 0.0
H3046 H 0.64355 0.62142 0.7533 0.0
H3047 H 0.65877 0.63434 0.7377 0.0
H3048 H 0.64748 0.65114 0.73465 0.0
H3049 H 0.63219 0.63825 0.7503 0.0
H3050 H 0.62932 0.64366 0.72311 0.0
H3051 H 0.60459 0.59592 0.67079 0.0
H3052 H 0.58752 0.5795 0.6987 0.0
H3053 H 0.6159 0.60848 0.75227 0.0
C3054 C 0.65599 0.64212 0.69089 0.0
C3055 C 0.65862 0.64268 0.66774 0.0
C3056 C 0.64739 0.63276 0.6527 0.0
C3057 C 0.63391 0.62217 0.66057 0.0
C3058 C 0.63175 0.62175 0.68352 0.0
C3059 C 0.64243 0.63154 0.69845 0.0
C3060 C 0.63758 0.62827 0.72237 0.0
C3061 C 0.64766 0.62463 0.73617 0.0
C3062 C 0.63658 0.64109 0.73325 0.0
C3063 C 0.62268 0.61485 0.71857 0.0
C3064 C 0.6195 0.61131 0.69603 0.0
C3065 C 0.60683 0.59873 0.68846 0.0
C3066 C 0.59724 0.58946 0.70437 0.0
C3067 C 0.60034 0.59288 0.72752 0.0
C3068 C 0.61312 0.60585 0.73464 0.0
H3069 H 0.68796 0.70547 0.66386 0.0
H3070 H 0.73301 0.73859 0.65488 0.0
H3071 H 0.72563 0.7569 0.64726 0.0
H3072 H 0.67386 0.71452 0.62044 0.0
H3073 H 0.65749 0.7116 0.63333 0.0
H3074 H 0.66631 0.70185 0.64293 0.0
H3075 H 0.66803 0.71205 0.68331 0.0
H3076 H 0.65902 0.72174 0.67389 0.0
H3077 H 0.6764 0.73164 0.68841 0.0
H3078 H 0.71327 0.76984 0.63272 0.0
H3079 H 0.697 0.77696 0.61457 0.0
H3080 H 0.65978 0.7364 0.63576 0.0
C3081 C 0.69634 0.7167 0.6611 0.0
C3082 C 0.71107 0.72055 0.65995 0.0
C3083 C 0.72165 0.73533 0.65589 0.0
C3084 C 0.71758 0.74586 0.6516 0.0
C3085 C 0.7029 0.74153 0.65182 0.0
C3086 C 0.69245 0.72737 0.65689 0.0
C3087 C 0.67733 0.72515 0.65368 0.0
C3088 C 0.66822 0.71254 0.63658 0.0
C3089 C 0.66975 0.72249 0.67617 0.0
C3090 C 0.68091 0.73996 0.64466 0.0
C3091 C 0.69572 0.7493 0.64404 0.0
C3092 C 0.70165 0.76284 0.63384 0.0
C3093 C 0.69223 0.76683 0.62363 0.0
C3094 C 0.67695 0.75736 0.62376 0.0
C3095 C 0.67133 0.74395 0.63513 0.0
H3096 H 0.28835 0.98819 0.61948 0.0
H3097 H 0.3087 0.98272 0.67913 0.0
H3098 H 0.28918 0.95672 0.68049 0.0
H3099 H 0.25 0.96244 0.63316 0.0
H3100 H 0.24516 0.95558 0.60464 0.0
H3101 H 0.25933 0.9743 0.61044 0.0
H3102 H 0.27715 0.96969 0.58737 0.0
H3103 H 0.26305 0.95104 0.58147 0.0
H3104 H 0.27999 0.95467 0.59438 0.0
H3105 H 0.26854 0.9309 0.67366 0.0
H3106 H 0.2497 0.9069 0.65759 0.0
H3107 H 0.24409 0.92899 0.60078 0.0
C3108 C 0.28845 0.98161 0.63317 0.0
C3109 C 0.29988 0.98747 0.64941 0.0
C3110 C 0.29996 0.97843 0.66663 0.0
C3111 C 0.28888 0.96369 0.6676 0.0
C3112 C 0.27789 0.95814 0.65109 0.0
C3113 C 0.27764 0.9668 0.63411 0.0
C3114 C 0.26564 0.95777 0.61696 0.0
C3115 C 0.25436 0.96283 0.61627 0.0
C3116 C 0.27183 0.95832 0.59368 0.0
C3117 C 0.25939 0.94263 0.62666 0.0
C3118 C 0.26639 0.94311 0.64659 0.0
C3119 C 0.26293 0.93039 0.65811 0.0
C3120 C 0.25228 0.91679 0.64876 0.0
C3121 C 0.24536 0.91596 0.62786 0.0
C3122 C 0.24885 0.92916 0.61701 0.0
H3123 H 0.02757 0.33129 0.68695 0.0
H3124 H 0.99231 0.30319 0.6403 0.0
H3125 H 0.01013 0.30467 0.61301 0.0
H3126 H 0.05123 0.35521 0.64699 0.0
H3127 H 0.0675 0.35744 0.66048 0.0
H3128 H 0.05197 0.35339 0.67684 0.0
H3129 H 0.05199 0.33051 0.69241 0.0
H3130 H 0.06755 0.33451 0.67611 0.0
H3131 H 0.05133 0.31674 0.67323 0.0
H3132 H 0.03185 0.31031 0.59013 0.0
H3133 H 0.05574 0.31988 0.57316 0.0
H3134 H 0.07676 0.34391 0.63516 0.0
C3135 C 0.02356 0.32532 0.67109 0.0
C3136 C 0.00853 0.3171 0.66578 0.0
C3137 C 0.00377 0.30954 0.64476 0.0
C3138 C 0.0138 0.31029 0.62917 0.0
C3139 C 0.02854 0.31859 0.6349 0.0
C3140 C 0.0334 0.32594 0.65538 0.0
C3141 C 0.04982 0.33455 0.65712 0.0
C3142 C 0.05545 0.35113 0.66055 0.0
C3143 C 0.0555 0.32872 0.67583 0.0
C3144 C 0.05345 0.33111 0.63426 0.0
C3145 C 0.04104 0.3218 0.62176 0.0
C3146 C 0.04165 0.31746 0.59986 0.0
C3147 C 0.05529 0.32289 0.59042 0.0
C3148 C 0.06818 0.33259 0.60285 0.0
C3149 C 0.06715 0.33659 0.62515 0.0
H3150 H 0.29976 0.34985 0.67864 0.0
H3151 H 0.29215 0.30959 0.64478 0.0
H3152 H 0.27361 0.31017 0.62012 0.0
H3153 H 0.2633 0.34167 0.67847 0.0
H3154 H 0.26737 0.3602 0.6733 0.0
H3155 H 0.28055 0.35707 0.68761 0.0
H3156 H 0.29961 0.37207 0.65819 0.0
H3157 H 0.28653 0.3754 0.64392 0.0
H3158 H 0.29529 0.36711 0.6289 0.0
H3159 H 0.25476 0.31428 0.60083 0.0
H3160 H 0.23861 0.32289 0.58589 0.0
H3161 H 0.25886 0.3607 0.63187 0.0
C3162 C 0.29433 0.34124 0.66587 0.0
C3163 C 0.2974 0.32965 0.66367 0.0
C3164 C 0.29003 0.3186 0.64674 0.0
C3165 C 0.27943 0.31881 0.63271 0.0
C3166 C 0.27643 0.3302 0.63569 0.0
C3167 C 0.28381 0.34133 0.65163 0.0
C3168 C 0.27849 0.35229 0.65147 0.0
C3169 C 0.27204 0.35283 0.67406 0.0
C3170 C 0.29071 0.36762 0.64524 0.0
C3171 C 0.26685 0.34549 0.63312 0.0
C3172 C 0.26578 0.33271 0.62431 0.0
C3173 C 0.25556 0.32431 0.60752 0.0
C3174 C 0.24635 0.32922 0.59929 0.0
C3175 C 0.24746 0.34244 0.60775 0.0
C3176 C 0.25783 0.35061 0.62497 0.0
H3177 H 0.68127 0.97952 0.65403 0.0
H3178 H 0.7262 0.99105 0.66436 0.0
H3179 H 0.71904 0.96482 0.66069 0.0
H3180 H 0.66431 0.94276 0.68146 0.0
H3181 H 0.64974 0.93469 0.66068 0.0
H3182 H 0.6579 0.95393 0.66852 0.0
H3183 H 0.66333 0.96072 0.62698 0.0
H3184 H 0.65528 0.94158 0.61903 0.0
H3185 H 0.67364 0.95435 0.61156 0.0
H3186 H 0.70777 0.93818 0.65043 0.0
H3187 H 0.69324 0.91309 0.63376 0.0
H3188 H 0.65569 0.91881 0.62927 0.0
C3189 C 0.68952 0.97647 0.65632 0.0
C3190 C 0.70428 0.98731 0.65971 0.0
C3191 C 0.71483 0.98292 0.66187 0.0
C3192 C 0.71085 0.96804 0.65992 0.0
C3193 C 0.69628 0.95766 0.65582 0.0
C3194 C 0.68575 0.96166 0.65415 0.0
C3195 C 0.67118 0.94863 0.64697 0.0
C3196 C 0.66013 0.94477 0.66552 0.0
C3197 C 0.66554 0.9515 0.62482 0.0
C3198 C 0.67529 0.93683 0.64399 0.0
C3199 C 0.68976 0.9422 0.64959 0.0
C3200 C 0.69637 0.93376 0.64639 0.0
C3201 C 0.68806 0.91957 0.63681 0.0
C3202 C 0.67333 0.91399 0.63041 0.0
C3203 C 0.66682 0.92265 0.63455 0.0
H3204 H 0.02337 0.73075 0.67501 0.0
H3205 H 0.99511 0.69232 0.63309 0.0
H3206 H 0.01454 0.69978 0.60583 0.0
H3207 H 0.04092 0.75575 0.62946 0.0
H3208 H 0.05838 0.76506 0.64386 0.0
H3209 H 0.04202 0.75704 0.65961 0.0
H3210 H 0.05095 0.74183 0.6815 0.0
H3211 H 0.06728 0.74974 0.66575 0.0
H3212 H 0.05583 0.73003 0.66631 0.0
H3213 H 0.03735 0.71061 0.58422 0.0
H3214 H 0.06176 0.72473 0.56872 0.0
H3215 H 0.07519 0.75631 0.62438 0.0
C3216 C 0.0212 0.72396 0.66 0.0
C3217 C 0.0077 0.71093 0.65619 0.0
C3218 C 0.00534 0.70235 0.63636 0.0
C3219 C 0.01632 0.70649 0.62078 0.0
C3220 C 0.02955 0.71928 0.62522 0.0
C3221 C 0.03201 0.72796 0.64424 0.0
C3222 C 0.04731 0.74104 0.64518 0.0
C3223 C 0.04714 0.75558 0.64448 0.0
C3224 C 0.05584 0.74062 0.66592 0.0
C3225 C 0.05312 0.73825 0.62384 0.0
C3226 C 0.04269 0.72563 0.6126 0.0
C3227 C 0.04559 0.72054 0.59281 0.0
C3228 C 0.05951 0.72857 0.58424 0.0
C3229 C 0.07037 0.74157 0.59541 0.0
C3230 C 0.06706 0.74648 0.61541 0.0
H3231 H 0.94885 0.62438 0.70842 0.0
H3232 H 0.99278 0.66056 0.71926 0.0
H3233 H 0.00102 0.64287 0.72779 0.0
H3234 H 0.94797 0.60334 0.7508 0.0
H3235 H 0.93786 0.58569 0.73644 0.0
H3236 H 0.93591 0.60086 0.72749 0.0
H3237 H 0.94308 0.59785 0.68737 0.0
H3238 H 0.94489 0.58249 0.69614 0.0
H3239 H 0.95982 0.59789 0.68325 0.0
H3240 H 0.003 0.6219 0.74338 0.0
H3241 H 0.99935 0.59938 0.76071 0.0
H3242 H 0.95494 0.57607 0.73399 0.0
C3243 C 0.96028 0.6285 0.71189 0.0
C3244 C 0.97022 0.64375 0.71322 0.0
C3245 C 0.98507 0.64887 0.71796 0.0
C3246 C 0.98982 0.63891 0.72284 0.0
C3247 C 0.97965 0.6239 0.72213 0.0
C3248 C 0.96526 0.6187 0.71612 0.0
C3249 C 0.95633 0.60215 0.71798 0.0
C3250 C 0.94379 0.59777 0.73414 0.0
C3251 C 0.9507 0.59465 0.6948 0.0
C3252 C 0.96772 0.59899 0.72749 0.0
C3253 C 0.98111 0.61164 0.72965 0.0
C3254 C 0.99272 0.6118 0.74097 0.0
C3255 C 0.99052 0.5988 0.7507 0.0
C3256 C 0.97682 0.58565 0.74885 0.0
C3257 C 0.96552 0.58579 0.7362 0.0
H3258 H 0.38236 0.35573 0.73224 0.0
H3259 H 0.35191 0.3626 0.69234 0.0
H3260 H 0.37 0.38909 0.69097 0.0
H3261 H 0.39569 0.38752 0.76567 0.0
H3262 H 0.41414 0.39119 0.76716 0.0
H3263 H 0.39944 0.37262 0.76284 0.0
H3264 H 0.4112 0.37 0.72675 0.0
H3265 H 0.42597 0.3886 0.73097 0.0
H3266 H 0.41555 0.38311 0.70497 0.0
H3267 H 0.39056 0.41532 0.6974 0.0
H3268 H 0.41192 0.43879 0.7106 0.0
H3269 H 0.42872 0.41445 0.74585 0.0
C3270 C 0.37953 0.36271 0.72286 0.0
C3271 C 0.36568 0.35701 0.71238 0.0
C3272 C 0.36246 0.36664 0.70045 0.0
C3273 C 0.37267 0.38172 0.69955 0.0
C3274 C 0.38612 0.387 0.71047 0.0
C3275 C 0.38959 0.37774 0.72175 0.0
C3276 C 0.40441 0.38622 0.73324 0.0
C3277 C 0.40334 0.38427 0.75873 0.0
C3278 C 0.4149 0.38171 0.72339 0.0
C3279 C 0.40859 0.40176 0.7272 0.0
C3280 C 0.39798 0.40201 0.71391 0.0
C3281 C 0.39904 0.41522 0.70751 0.0
C3282 C 0.41117 0.4285 0.71514 0.0
C3283 C 0.42207 0.42845 0.72901 0.0
C3284 C 0.42079 0.41486 0.73476 0.0
H3285 H 0.65885 0.02045 0.69933 0.0
H3286 H 0.64424 0.98631 0.64716 0.0
H3287 H 0.61908 0.97604 0.65921 0.0
H3288 H 0.63462 0.99782 0.74115 0.0
H3289 H 0.63152 0.01203 0.75231 0.0
H3290 H 0.6484 0.0169 0.73933 0.0
H3291 H 0.64434 0.03355 0.71214 0.0
H3292 H 0.62737 0.02864 0.72495 0.0
H3293 H 0.62785 0.02582 0.69522 0.0
H3294 H 0.59566 0.96897 0.67737 0.0
H3295 H 0.57545 0.96535 0.70117 0.0
H3296 H 0.60497 0.00421 0.74114 0.0
C3297 C 0.65036 0.01081 0.69046 0.0
C3298 C 0.65353 0.00419 0.67229 0.0
C3299 C 0.64209 0.9916 0.66109 0.0
C3300 C 0.62775 0.98568 0.66778 0.0
C3301 C 0.62498 0.99252 0.68562 0.0
C3302 C 0.63593 0.00478 0.69685 0.0
C3303 C 0.62998 0.00984 0.71572 0.0
C3304 C 0.63652 0.0091 0.73847 0.0
C3305 C 0.63254 0.02539 0.71176 0.0
C3306 C 0.61401 0.99841 0.71346 0.0
C3307 C 0.61137 0.98854 0.69594 0.0
C3308 C 0.59756 0.97667 0.69104 0.0
C3309 C 0.58617 0.97469 0.70464 0.0
C3310 C 0.58866 0.98456 0.72283 0.0
C3311 C 0.60273 0.99667 0.72706 0.0
loop_
_geom_bond_atom_site_label_1
_geom_bond_atom_site_label_2
_geom_bond_distance
_geom_bond_site_symmetry_2
_ccdc_geom_bond_type
Mg0 O1 1.992 1_556 S
Mg0 O7 1.981 1_456 S
Mg0 O9 2.132 . S
Mg0 O10 2.272 1_455 S
Mg0 O13 2.000 1_556 S
O1 Mg0 1.992 1_554 S
O1 C4 1.250 1_455 S
O2 Mg3 2.028 1_554 S
O2 C4 1.248 . S
Mg3 O2 2.028 1_556 S
Mg3 O8 2.032 . S
Mg3 O10 2.079 . S
C4 O1 1.250 1_655 S
C4 O2 1.248 . S
C5 O6 1.264 . S
C5 O13 1.249 . S
O6 C5 1.264 . S
O7 Mg0 1.981 1_654 S
O7 C11 1.246 1_554 S
O8 Mg3 2.032 . S
O8 C11 1.259 . S
O9 Mg0 2.132 . S
O9 C12 1.252 . S
O10 Mg0 2.272 1_655 S
O10 Mg3 2.079 . S
O10 C12 1.273 1_655 S
C11 O7 1.246 1_556 S
C11 O8 1.259 . S
C12 O9 1.252 . S
C12 O10 1.273 1_455 S
O13 Mg0 2.000 1_554 S
O13 C5 1.249 . S
Mg14 O15 2.028 1_554 S
Mg14 O21 1.986 . S
Mg14 O23 2.114 . S
Mg14 O24 2.251 . S
Mg14 O27 2.010 . S
O15 Mg14 2.028 1_556 S
O15 C18 1.250 . S
O16 Mg17 2.006 1_556 S
O16 C18 1.261 . S
Mg17 O16 2.006 1_554 S
Mg17 O22 2.032 . S
Mg17 O24 2.079 . S
C18 O15 1.250 . S
C18 O16 1.261 . S
C19 O20 1.264 . S
C19 O27 1.249 . S
O20 C19 1.264 . S
O21 Mg14 1.986 . S
O21 C25 1.246 . S
O22 Mg17 2.032 . S
O22 C25 1.259 . S
O23 Mg14 2.114 . S
O23 C26 1.252 . S
O24 Mg14 2.251 . S
O24 Mg17 2.079 . S
O24 C26 1.273 . S
C25 O21 1.246 . S
C25 O22 1.259 . S
C26 O23 1.252 . S
C26 O24 1.273 . S
O27 Mg14 2.010 . S
O27 C19 1.249 . S
Mg28 O29 2.025 . S
Mg28 O35 1.986 1_565 S
Mg28 O37 2.111 1_554 S
Mg28 O38 2.249 1_564 S
Mg28 O41 2.012 . S
O29 Mg28 2.025 . S
O29 C32 1.242 1_565 S
O30 Mg31 2.028 1_554 S
O30 C32 1.248 . S
Mg31 O30 2.028 1_556 S
Mg31 O36 2.033 1_556 S
Mg31 O38 2.079 . S
C32 O29 1.242 1_545 S
C32 O30 1.248 . S
C33 O34 1.264 . S
C33 O41 1.249 . S
O34 C33 1.264 . S
O35 Mg28 1.986 1_545 S
O35 C39 1.254 . S
O36 Mg31 2.033 1_554 S
O36 C39 1.257 . S
O37 Mg28 2.111 1_556 S
O37 C40 1.252 . S
O38 Mg28 2.249 1_546 S
O38 Mg31 2.079 . S
O38 C40 1.273 1_545 S
C39 O35 1.254 . S
C39 O36 1.257 . S
C40 O37 1.252 . S
C40 O38 1.273 1_565 S
O41 Mg28 2.012 . S
O41 C33 1.249 . S
Mg42 O43 2.059 1_554 S
Mg42 O49 1.986 1_655 S
Mg42 O51 2.114 . S
Mg42 O52 2.251 1_655 S
Mg42 O55 2.010 . S
O43 Mg42 2.059 1_556 S
O43 C46 1.167 1_655 S
O44 Mg45 2.033 1_556 S
O44 C46 1.245 . S
Mg45 O44 2.033 1_554 S
Mg45 O50 2.032 . S
Mg45 O52 2.079 . S
C46 O43 1.167 1_455 S
C46 O44 1.245 . S
C47 O48 1.264 . S
C47 O55 1.249 . S
O48 C47 1.264 . S
O49 Mg42 1.986 1_455 S
O49 C53 1.246 . S
O50 Mg45 2.032 . S
O50 C53 1.259 . S
O51 Mg42 2.114 . S
O51 C54 1.252 . S
O52 Mg42 2.251 1_455 S
O52 Mg45 2.079 . S
O52 C54 1.273 1_455 S
C53 O49 1.246 . S
C53 O50 1.259 . S
C54 O51 1.252 . S
C54 O52 1.273 1_655 S
O55 Mg42 2.010 . S
O55 C47 1.249 . S
Mg56 O57 2.028 . S
Mg56 O63 1.986 . S
Mg56 O65 2.114 1_554 S
Mg56 O66 2.251 1_554 S
Mg56 O69 2.010 . S
O57 Mg56 2.028 . S
O57 C60 1.250 . S
O58 Mg59 2.028 1_554 S
O58 C60 1.248 . S
Mg59 O58 2.028 1_556 S
Mg59 O64 2.035 . S
Mg59 O66 2.079 . S
C60 O57 1.250 . S
C60 O58 1.248 . S
C61 O62 1.264 . S
C61 O69 1.249 . S
O62 C61 1.264 . S
O63 Mg56 1.986 . S
O63 C67 1.251 . S
O64 Mg59 2.035 . S
O64 C67 1.256 1_556 S
O65 Mg56 2.114 1_556 S
O65 C68 1.252 . S
O66 Mg56 2.251 1_556 S
O66 Mg59 2.079 . S
O66 C68 1.273 . S
C67 O63 1.251 . S
C67 O64 1.256 1_554 S
C68 O65 1.252 . S
C68 O66 1.273 . S
O69 Mg56 2.010 . S
O69 C61 1.249 . S
Mg70 O71 2.028 1_554 S
Mg70 O77 1.986 1_545 S
Mg70 O79 2.114 . S
Mg70 O80 2.251 1_545 S
Mg70 O83 2.010 . S
O71 Mg70 2.028 1_556 S
O71 C74 1.250 1_545 S
O72 Mg73 2.028 . S
O72 C74 1.248 1_554 S
Mg73 O72 2.028 . S
Mg73 O78 2.032 . S
Mg73 O80 2.079 . S
C74 O71 1.250 1_565 S
C74 O72 1.248 1_556 S
C75 O76 1.264 . S
C75 O83 1.249 . S
O76 C75 1.264 . S
O77 Mg70 1.986 1_565 S
O77 C81 1.246 . S
O78 Mg73 2.032 . S
O78 C81 1.259 . S
O79 Mg70 2.114 . S
O79 C82 1.252 . S
O80 Mg70 2.251 1_565 S
O80 Mg73 2.079 . S
O80 C82 1.273 1_565 S
C81 O77 1.246 . S
C81 O78 1.259 . S
C82 O79 1.252 . S
C82 O80 1.273 1_545 S
O83 Mg70 2.010 . S
O83 C75 1.249 . S
Mg84 O85 2.028 . S
Mg84 O91 1.986 . S
Mg84 O93 2.114 . S
Mg84 O94 2.251 . S
Mg84 O97 2.010 . S
O85 Mg84 2.028 . S
O85 C88 1.250 . S
O86 Mg87 2.028 . S
O86 C88 1.248 . S
Mg87 O86 2.028 . S
Mg87 O92 2.032 . S
Mg87 O94 2.079 . S
C88 O85 1.250 . S
C88 O86 1.248 . S
C89 O90 1.264 . S
C89 O97 1.249 . S
O90 C89 1.264 . S
O91 Mg84 1.986 . S
O91 C95 1.246 . S
O92 Mg87 2.032 . S
O92 C95 1.259 . S
O93 Mg84 2.114 . S
O93 C96 1.252 . S
O94 Mg84 2.251 . S
O94 Mg87 2.079 . S
O94 C96 1.273 . S
C95 O91 1.246 . S
C95 O92 1.259 . S
C96 O93 1.252 . S
C96 O94 1.273 . S
O97 Mg84 2.010 . S
O97 C89 1.249 . S
Mg98 O99 2.028 . S
Mg98 O105 1.986 . S
Mg98 O107 2.114 . S
Mg98 O108 2.251 . S
Mg98 O111 2.010 . S
O99 Mg98 2.028 . S
O99 C102 1.250 . S
O100 Mg101 2.028 . S
O100 C102 1.248 . S
Mg101 O100 2.028 . S
Mg101 O106 2.032 . S
Mg101 O108 2.079 . S
C102 O99 1.250 . S
C102 O100 1.248 . S
C103 O104 1.264 . S
C103 O111 1.249 . S
O104 C103 1.264 . S
O105 Mg98 1.986 . S
O105 C109 1.246 1_565 S
O106 Mg101 2.032 . S
O106 C109 1.259 1_565 S
O107 Mg98 2.114 . S
O107 C110 1.252 . S
O108 Mg98 2.251 . S
O108 Mg101 2.079 . S
O108 C110 1.273 . S
C109 O105 1.246 1_545 S
C109 O106 1.259 1_545 S
C110 O107 1.252 . S
C110 O108 1.273 . S
O111 Mg98 2.010 . S
O111 C103 1.249 . S
Mg112 O113 2.028 . S
Mg112 O119 1.986 . S
Mg112 O121 2.114 . S
Mg112 O122 2.251 . S
Mg112 O125 2.010 . S
O113 Mg112 2.028 . S
O113 C116 1.250 . S
O114 Mg115 2.028 . S
O114 C116 1.248 . S
Mg115 O114 2.028 . S
Mg115 O120 2.032 . S
Mg115 O122 2.079 . S
C116 O113 1.250 . S
C116 O114 1.248 . S
C117 O118 1.264 . S
C117 O125 1.249 1_655 S
O118 C117 1.264 . S
O119 Mg112 1.986 . S
O119 C123 1.246 . S
O120 Mg115 2.032 . S
O120 C123 1.259 . S
O121 Mg112 2.114 . S
O121 C124 1.252 . S
O122 Mg112 2.251 . S
O122 Mg115 2.079 . S
O122 C124 1.273 . S
C123 O119 1.246 . S
C123 O120 1.259 . S
C124 O121 1.252 . S
C124 O122 1.273 . S
O125 Mg112 2.010 . S
O125 C117 1.249 1_455 S
Mg126 O127 2.028 . S
Mg126 O133 1.986 . S
Mg126 O135 2.114 . S
Mg126 O136 2.251 . S
Mg126 O139 2.010 . S
O127 Mg126 2.028 . S
O127 C130 1.250 . S
O128 Mg129 2.028 . S
O128 C130 1.248 . S
Mg129 O128 2.028 . S
Mg129 O134 2.032 . S
Mg129 O136 2.079 . S
C130 O127 1.250 . S
C130 O128 1.248 . S
C131 O132 1.264 . S
C131 O139 1.249 . S
O132 C131 1.264 . S
O133 Mg126 1.986 . S
O133 C137 1.242 . S
O134 Mg129 2.032 . S
O134 C137 1.284 . S
O135 Mg126 2.114 . S
O135 C138 1.252 . S
O136 Mg126 2.251 . S
O136 Mg129 2.079 . S
O136 C138 1.273 . S
C137 O133 1.242 . S
C137 O134 1.284 . S
C138 O135 1.252 . S
C138 O136 1.273 . S
O139 Mg126 2.010 . S
O139 C131 1.249 . S
Mg140 O141 2.028 . S
Mg140 O147 1.986 . S
Mg140 O149 2.114 . S
Mg140 O150 2.251 . S
Mg140 O153 2.010 . S
O141 Mg140 2.028 . S
O141 C144 1.250 . S
O142 Mg143 2.028 . S
O142 C144 1.248 . S
Mg143 O142 2.028 . S
Mg143 O148 2.032 . S
Mg143 O150 2.079 . S
C144 O141 1.250 . S
C144 O142 1.248 . S
C145 O146 1.264 . S
C145 O153 1.249 1_655 S
O146 C145 1.264 . S
O147 Mg140 1.986 . S
O147 C151 1.246 . S
O148 Mg143 2.032 . S
O148 C151 1.259 . S
O149 Mg140 2.114 . S
O149 C152 1.252 . S
O150 Mg140 2.251 . S
O150 Mg143 2.079 . S
O150 C152 1.273 . S
C151 O147 1.246 . S
C151 O148 1.259 . S
C152 O149 1.252 . S
C152 O150 1.273 . S
O153 Mg140 2.010 . S
O153 C145 1.249 1_455 S
Mg154 O155 2.028 . S
Mg154 O161 1.986 . S
Mg154 O163 2.114 . S
Mg154 O164 2.251 . S
Mg154 O167 2.010 . S
O155 Mg154 2.028 . S
O155 C158 1.250 . S
O156 Mg157 2.028 . S
O156 C158 1.248 . S
Mg157 O156 2.028 . S
Mg157 O162 2.032 . S
Mg157 O164 2.079 . S
C158 O155 1.250 . S
C158 O156 1.248 . S
C159 O160 1.264 . S
C159 O167 1.249 . S
O160 C159 1.264 . S
O161 Mg154 1.986 . S
O161 C165 1.246 . S
O162 Mg157 2.032 . S
O162 C165 1.259 . S
O163 Mg154 2.114 . S
O163 C166 1.252 . S
O164 Mg154 2.251 . S
O164 Mg157 2.079 . S
O164 C166 1.273 . S
C165 O161 1.246 . S
C165 O162 1.259 . S
C166 O163 1.252 . S
C166 O164 1.273 . S
O167 Mg154 2.010 . S
O167 C159 1.249 . S
Mg168 O169 2.028 . S
Mg168 O175 1.986 . S
Mg168 O177 2.114 . S
Mg168 O178 2.251 . S
Mg168 O181 2.010 . S
O169 Mg168 2.028 . S
O169 C172 1.250 . S
O170 Mg171 2.028 . S
O170 C172 1.248 . S
Mg171 O170 2.028 . S
Mg171 O176 2.032 . S
Mg171 O178 2.079 . S
C172 O169 1.250 . S
C172 O170 1.248 . S
C173 O174 1.264 . S
C173 O181 1.249 . S
O174 C173 1.264 . S
O175 Mg168 1.986 . S
O175 C179 1.246 . S
O176 Mg171 2.032 . S
O176 C179 1.259 . S
O177 Mg168 2.114 . S
O177 C180 1.252 . S
O178 Mg168 2.251 . S
O178 Mg171 2.079 . S
O178 C180 1.273 . S
C179 O175 1.246 . S
C179 O176 1.259 . S
C180 O177 1.252 . S
C180 O178 1.273 . S
O181 Mg168 2.010 . S
O181 C173 1.249 . S
Mg182 O183 2.028 . S
Mg182 O189 1.986 . S
Mg182 O191 2.114 . S
Mg182 O192 2.251 . S
Mg182 O195 2.076 . S
O183 Mg182 2.028 . S
O183 C186 1.250 . S
O184 Mg185 2.028 . S
O184 C186 1.248 . S
Mg185 O184 2.028 . S
Mg185 O190 2.032 . S
Mg185 O192 2.079 . S
C186 O183 1.250 . S
C186 O184 1.248 . S
C187 O188 1.264 . S
C187 O195 1.182 1_455 S
O188 C187 1.264 . S
O189 Mg182 1.986 . S
O189 C193 1.246 . S
O190 Mg185 2.032 . S
O190 C193 1.259 . S
O191 Mg182 2.114 . S
O191 C194 1.252 . S
O192 Mg182 2.251 . S
O192 Mg185 2.079 . S
O192 C194 1.273 . S
C193 O189 1.246 . S
C193 O190 1.259 . S
C194 O191 1.252 . S
C194 O192 1.273 . S
O195 Mg182 2.076 . S
O195 C187 1.182 1_655 S
Mg196 O197 2.028 . S
Mg196 O203 1.986 . S
Mg196 O205 2.114 . S
Mg196 O206 2.251 . S
Mg196 O209 2.010 . S
O197 Mg196 2.028 . S
O197 C200 1.250 . S
O198 Mg199 2.028 . S
O198 C200 1.248 . S
Mg199 O198 2.028 . S
Mg199 O204 2.032 . S
Mg199 O206 2.079 . S
C200 O197 1.250 . S
C200 O198 1.248 . S
C201 O202 1.264 . S
C201 O209 1.249 . S
O202 C201 1.264 . S
O203 Mg196 1.986 . S
O203 C207 1.246 . S
O204 Mg199 2.032 . S
O204 C207 1.259 . S
O205 Mg196 2.114 . S
O205 C208 1.252 . S
O206 Mg196 2.251 . S
O206 Mg199 2.079 . S
O206 C208 1.273 . S
C207 O203 1.246 . S
C207 O204 1.259 . S
C208 O205 1.252 . S
C208 O206 1.273 . S
O209 Mg196 2.010 . S
O209 C201 1.249 . S
Mg210 O211 2.028 . S
Mg210 O217 1.986 . S
Mg210 O219 2.114 . S
Mg210 O220 2.251 . S
Mg210 O223 2.010 . S
O211 Mg210 2.028 . S
O211 C214 1.250 . S
O212 Mg213 2.028 . S
O212 C214 1.248 . S
Mg213 O212 2.028 . S
Mg213 O218 2.032 . S
Mg213 O220 2.079 . S
C214 O211 1.250 . S
C214 O212 1.248 . S
C215 O216 1.264 . S
C215 O223 1.249 . S
O216 C215 1.264 . S
O217 Mg210 1.986 . S
O217 C221 1.246 . S
O218 Mg213 2.032 . S
O218 C221 1.259 . S
O219 Mg210 2.114 . S
O219 C222 1.252 . S
O220 Mg210 2.251 . S
O220 Mg213 2.079 . S
O220 C222 1.273 . S
C221 O217 1.246 . S
C221 O218 1.259 . S
C222 O219 1.252 . S
C222 O220 1.273 . S
O223 Mg210 2.010 . S
O223 C215 1.249 . S
Mg224 O225 2.028 . S
Mg224 O231 1.986 . S
Mg224 O233 2.114 . S
Mg224 O234 2.251 . S
Mg224 O237 2.010 . S
O225 Mg224 2.028 . S
O225 C228 1.250 . S
O226 Mg227 2.028 . S
O226 C228 1.248 . S
Mg227 O226 2.028 . S
Mg227 O232 2.032 . S
Mg227 O234 2.079 . S
C228 O225 1.250 . S
C228 O226 1.248 . S
C229 O230 1.264 . S
C229 O237 1.249 . S
O230 C229 1.264 . S
O231 Mg224 1.986 . S
O231 C235 1.277 . S
O232 Mg227 2.032 . S
O232 C235 1.263 . S
O233 Mg224 2.114 . S
O233 C236 1.252 . S
O234 Mg224 2.251 . S
O234 Mg227 2.079 . S
O234 C236 1.273 . S
C235 O231 1.277 . S
C235 O232 1.263 . S
C236 O233 1.252 . S
C236 O234 1.273 . S
O237 Mg224 2.010 . S
O237 C229 1.249 . S
Mg238 O239 2.028 . S
Mg238 O245 1.986 . S
Mg238 O247 2.114 . S
Mg238 O248 2.251 . S
Mg238 O251 2.010 1_655 S
O239 Mg238 2.028 . S
O239 C242 1.250 . S
O240 Mg241 2.028 . S
O240 C242 1.248 . S
Mg241 O240 2.028 . S
Mg241 O246 2.032 . S
Mg241 O248 2.079 . S
C242 O239 1.250 . S
C242 O240 1.248 . S
C243 O244 1.264 . S
C243 O251 1.249 . S
O244 C243 1.264 . S
O245 Mg238 1.986 . S
O245 C249 1.246 . S
O246 Mg241 2.032 . S
O246 C249 1.259 . S
O247 Mg238 2.114 . S
O247 C250 1.252 . S
O248 Mg238 2.251 . S
O248 Mg241 2.079 . S
O248 C250 1.273 . S
C249 O245 1.246 . S
C249 O246 1.259 . S
C250 O247 1.252 . S
C250 O248 1.273 . S
O251 Mg238 2.010 1_455 S
O251 C243 1.249 . S
H252 C279 0.929 . S
N253 C278 1.433 . S
N253 C284 1.435 . S
N253 C290 1.423 . S
H254 C280 0.930 . S
H255 C283 0.931 . S
H256 C282 0.929 . S
H257 C285 0.930 . S
H258 C286 0.932 . S
H259 C289 0.929 . S
H260 C288 0.931 . S
H261 C291 0.929 . S
H262 C295 0.932 . S
H263 C292 0.931 . S
H264 C294 0.929 . S
H265 C297 0.929 . S
H266 C298 0.930 . S
H267 C300 0.929 . S
H268 C301 0.931 . S
H269 C303 0.930 . S
H270 C304 0.932 . S
H271 C306 0.931 . S
H272 C307 0.929 . S
H273 C309 0.929 . S
H274 C310 0.931 . S
H275 C312 0.929 . S
N276 C296 1.433 . S
N276 C302 1.435 . S
N276 C308 1.423 . S
H277 C313 0.932 . S
C278 N253 1.433 . S
C278 C279 1.363 . S
C278 C283 1.370 . S
C279 H252 0.929 . S
C279 C278 1.363 . S
C279 C280 1.385 . S
C280 H254 0.930 . S
C280 C279 1.385 . S
C280 C281 1.357 . S
C281 C280 1.357 . S
C281 C282 1.406 . S
C282 H256 0.929 . S
C282 C281 1.406 . S
C282 C283 1.391 . S
C283 H255 0.931 . S
C283 C278 1.370 . S
C283 C282 1.391 . S
C284 N253 1.435 . S
C284 C285 1.358 . S
C284 C289 1.371 . S
C285 H257 0.930 . S
C285 C284 1.358 . S
C285 C286 1.405 . S
C286 H258 0.932 . S
C286 C285 1.405 . S
C286 C287 1.383 . S
C287 C286 1.383 . S
C287 C288 1.393 . S
C288 H260 0.931 . S
C288 C287 1.393 . S
C288 C289 1.382 . S
C289 H259 0.929 . S
C289 C284 1.371 . S
C289 C288 1.382 . S
C290 N253 1.423 . S
C290 C291 1.362 . S
C290 C295 1.388 . S
C291 H261 0.929 . S
C291 C290 1.362 . S
C291 C292 1.376 . S
C292 H263 0.931 . S
C292 C291 1.376 . S
C292 C293 1.396 . S
C293 C292 1.396 . S
C293 C294 1.348 . S
C293 C311 1.472 . S
C294 H264 0.929 . S
C294 C293 1.348 . S
C294 C295 1.443 . S
C295 H262 0.932 . S
C295 C290 1.388 . S
C295 C294 1.443 . S
C296 N276 1.433 . S
C296 C297 1.363 . S
C296 C301 1.370 . S
C297 H265 0.929 . S
C297 C296 1.363 . S
C297 C298 1.385 . S
C298 H266 0.930 . S
C298 C297 1.385 . S
C298 C299 1.357 . S
C299 C298 1.357 . S
C299 C300 1.406 . S
C300 H267 0.929 . S
C300 C299 1.406 . S
C300 C301 1.391 . S
C301 H268 0.931 . S
C301 C296 1.370 . S
C301 C300 1.391 . S
C302 N276 1.435 . S
C302 C303 1.358 . S
C302 C307 1.371 . S
C303 H269 0.930 . S
C303 C302 1.358 . S
C303 C304 1.405 . S
C304 H270 0.932 . S
C304 C303 1.405 . S
C304 C305 1.383 . S
C305 C304 1.383 . S
C305 C306 1.393 . S
C306 H271 0.931 . S
C306 C305 1.393 . S
C306 C307 1.382 . S
C307 H272 0.929 . S
C307 C302 1.371 . S
C307 C306 1.382 . S
C308 N276 1.423 . S
C308 C309 1.362 . S
C308 C313 1.388 . S
C309 H273 0.929 . S
C309 C308 1.362 . S
C309 C310 1.376 . S
C310 H274 0.931 . S
C310 C309 1.376 . S
C310 C311 1.396 . S
C311 C293 1.472 . S
C311 C310 1.396 . S
C311 C312 1.348 . S
C312 H275 0.929 . S
C312 C311 1.348 . S
C312 C313 1.443 . S
C313 H277 0.932 . S
C313 C308 1.388 . S
C313 C312 1.443 . S
H314 C341 0.929 . S
N315 C340 1.433 . S
N315 C346 1.435 . S
N315 C352 1.423 . S
H316 C342 0.930 . S
H317 C345 0.931 . S
H318 C344 0.929 . S
H319 C347 0.930 . S
H320 C348 0.932 . S
H321 C351 0.929 . S
H322 C350 0.931 . S
H323 C353 0.929 . S
H324 C357 0.932 . S
H325 C354 0.931 . S
H326 C356 0.929 . S
H327 C359 0.929 . S
H328 C360 0.930 . S
H329 C362 0.929 . S
H330 C363 0.931 . S
H331 C365 0.930 . S
H332 C366 0.932 . S
H333 C368 0.931 . S
H334 C369 0.929 . S
H335 C371 0.929 . S
H336 C372 0.931 . S
H337 C374 0.929 . S
N338 C358 1.433 . S
N338 C364 1.435 . S
N338 C370 1.423 . S
H339 C375 0.932 . S
C340 N315 1.433 . S
C340 C341 1.363 . S
C340 C345 1.370 . S
C341 H314 0.929 . S
C341 C340 1.363 . S
C341 C342 1.385 . S
C342 H316 0.930 . S
C342 C341 1.385 . S
C342 C343 1.357 . S
C343 C342 1.357 . S
C343 C344 1.406 . S
C344 H318 0.929 . S
C344 C343 1.406 . S
C344 C345 1.391 . S
C345 H317 0.931 . S
C345 C340 1.370 . S
C345 C344 1.391 . S
C346 N315 1.435 . S
C346 C347 1.358 . S
C346 C351 1.371 . S
C347 H319 0.930 . S
C347 C346 1.358 . S
C347 C348 1.405 . S
C348 H320 0.932 . S
C348 C347 1.405 . S
C348 C349 1.383 . S
C349 C348 1.383 . S
C349 C350 1.393 . S
C350 H322 0.931 . S
C350 C349 1.393 . S
C350 C351 1.382 . S
C351 H321 0.929 . S
C351 C346 1.371 . S
C351 C350 1.382 . S
C352 N315 1.423 . S
C352 C353 1.362 . S
C352 C357 1.388 . S
C353 H323 0.929 . S
C353 C352 1.362 . S
C353 C354 1.376 . S
C354 H325 0.931 . S
C354 C353 1.376 . S
C354 C355 1.396 . S
C355 C354 1.396 . S
C355 C356 1.348 . S
C355 C373 1.472 . S
C356 H326 0.929 . S
C356 C355 1.348 . S
C356 C357 1.443 . S
C357 H324 0.932 . S
C357 C352 1.388 . S
C357 C356 1.443 . S
C358 N338 1.433 . S
C358 C359 1.363 . S
C358 C363 1.370 . S
C359 H327 0.929 . S
C359 C358 1.363 . S
C359 C360 1.385 . S
C360 H328 0.930 . S
C360 C359 1.385 . S
C360 C361 1.357 . S
C361 C360 1.357 . S
C361 C362 1.406 . S
C362 H329 0.929 . S
C362 C361 1.406 . S
C362 C363 1.391 . S
C363 H330 0.931 . S
C363 C358 1.370 . S
C363 C362 1.391 . S
C364 N338 1.435 . S
C364 C365 1.358 . S
C364 C369 1.371 . S
C365 H331 0.930 . S
C365 C364 1.358 . S
C365 C366 1.405 . S
C366 H332 0.932 . S
C366 C365 1.405 . S
C366 C367 1.383 . S
C367 C366 1.383 . S
C367 C368 1.393 . S
C368 H333 0.931 . S
C368 C367 1.393 . S
C368 C369 1.382 . S
C369 H334 0.929 . S
C369 C364 1.371 . S
C369 C368 1.382 . S
C370 N338 1.423 . S
C370 C371 1.362 . S
C370 C375 1.388 . S
C371 H335 0.929 . S
C371 C370 1.362 . S
C371 C372 1.376 . S
C372 H336 0.931 . S
C372 C371 1.376 . S
C372 C373 1.396 . S
C373 C355 1.472 . S
C373 C372 1.396 . S
C373 C374 1.348 . S
C374 H337 0.929 . S
C374 C373 1.348 . S
C374 C375 1.443 . S
C375 H339 0.932 . S
C375 C370 1.388 . S
C375 C374 1.443 . S
H376 C403 0.929 . S
N377 C402 1.433 . S
N377 C408 1.435 . S
N377 C414 1.423 . S
H378 C404 0.930 . S
H379 C407 0.931 . S
H380 C406 0.929 . S
H381 C409 0.930 . S
H382 C410 0.932 . S
H383 C413 0.929 . S
H384 C412 0.931 . S
H385 C415 0.929 . S
H386 C419 0.932 . S
H387 C416 0.931 . S
H388 C418 0.929 . S
H389 C421 0.929 . S
H390 C422 0.930 . S
H391 C424 0.929 . S
H392 C425 0.931 . S
H393 C427 0.930 . S
H394 C428 0.932 . S
H395 C430 0.931 . S
H396 C431 0.929 . S
H397 C433 0.929 . S
H398 C434 0.931 . S
H399 C436 0.929 . S
N400 C420 1.433 . S
N400 C426 1.435 . S
N400 C432 1.423 . S
H401 C437 0.932 . S
C402 N377 1.433 . S
C402 C403 1.363 . S
C402 C407 1.370 . S
C403 H376 0.929 . S
C403 C402 1.363 . S
C403 C404 1.385 . S
C404 H378 0.930 . S
C404 C403 1.385 . S
C404 C405 1.357 . S
C405 C404 1.357 . S
C405 C406 1.406 . S
C406 H380 0.929 . S
C406 C405 1.406 . S
C406 C407 1.391 . S
C407 H379 0.931 . S
C407 C402 1.370 . S
C407 C406 1.391 . S
C408 N377 1.435 . S
C408 C409 1.358 . S
C408 C413 1.371 . S
C409 H381 0.930 . S
C409 C408 1.358 . S
C409 C410 1.405 . S
C410 H382 0.932 . S
C410 C409 1.405 . S
C410 C411 1.383 . S
C411 C410 1.383 . S
C411 C412 1.393 . S
C412 H384 0.931 . S
C412 C411 1.393 . S
C412 C413 1.382 . S
C413 H383 0.929 . S
C413 C408 1.371 . S
C413 C412 1.382 . S
C414 N377 1.423 . S
C414 C415 1.362 . S
C414 C419 1.388 . S
C415 H385 0.929 . S
C415 C414 1.362 . S
C415 C416 1.376 . S
C416 H387 0.931 . S
C416 C415 1.376 . S
C416 C417 1.396 . S
C417 C416 1.396 . S
C417 C418 1.348 . S
C417 C435 1.472 . S
C418 H388 0.929 . S
C418 C417 1.348 . S
C418 C419 1.443 . S
C419 H386 0.932 . S
C419 C414 1.388 . S
C419 C418 1.443 . S
C420 N400 1.433 . S
C420 C421 1.363 . S
C420 C425 1.370 . S
C421 H389 0.929 . S
C421 C420 1.363 . S
C421 C422 1.385 . S
C422 H390 0.930 . S
C422 C421 1.385 . S
C422 C423 1.357 . S
C423 C422 1.357 . S
C423 C424 1.406 . S
C424 H391 0.929 . S
C424 C423 1.406 . S
C424 C425 1.391 . S
C425 H392 0.931 . S
C425 C420 1.370 . S
C425 C424 1.391 . S
C426 N400 1.435 . S
C426 C427 1.358 . S
C426 C431 1.371 . S
C427 H393 0.930 . S
C427 C426 1.358 . S
C427 C428 1.405 . S
C428 H394 0.932 . S
C428 C427 1.405 . S
C428 C429 1.383 . S
C429 C428 1.383 . S
C429 C430 1.393 . S
C430 H395 0.931 . S
C430 C429 1.393 . S
C430 C431 1.382 . S
C431 H396 0.929 . S
C431 C426 1.371 . S
C431 C430 1.382 . S
C432 N400 1.423 . S
C432 C433 1.362 . S
C432 C437 1.388 . S
C433 H397 0.929 . S
C433 C432 1.362 . S
C433 C434 1.376 . S
C434 H398 0.931 . S
C434 C433 1.376 . S
C434 C435 1.396 . S
C435 C417 1.472 . S
C435 C434 1.396 . S
C435 C436 1.348 . S
C436 H399 0.929 . S
C436 C435 1.348 . S
C436 C437 1.443 . S
C437 H401 0.932 . S
C437 C432 1.388 . S
C437 C436 1.443 . S
H438 C465 0.929 . S
N439 C464 1.433 . S
N439 C470 1.435 . S
N439 C476 1.423 . S
H440 C466 0.930 . S
H441 C469 0.931 . S
H442 C468 0.929 . S
H443 C471 0.930 . S
H444 C472 0.932 . S
H445 C475 0.929 . S
H446 C474 0.931 . S
H447 C477 0.929 . S
H448 C481 0.932 . S
H449 C478 0.931 . S
H450 C480 0.929 . S
H451 C483 0.929 . S
H452 C484 0.930 . S
H453 C486 0.929 . S
H454 C487 0.931 . S
H455 C489 0.930 . S
H456 C490 0.932 . S
H457 C492 0.931 . S
H458 C493 0.929 . S
H459 C495 0.929 . S
H460 C496 0.931 . S
H461 C498 0.929 . S
N462 C482 1.433 . S
N462 C488 1.435 . S
N462 C494 1.423 . S
H463 C499 0.932 . S
C464 N439 1.433 . S
C464 C465 1.363 . S
C464 C469 1.370 . S
C465 H438 0.929 . S
C465 C464 1.363 . S
C465 C466 1.385 . S
C466 H440 0.930 . S
C466 C465 1.385 . S
C466 C467 1.357 . S
C467 C466 1.357 . S
C467 C468 1.406 . S
C468 H442 0.929 . S
C468 C467 1.406 . S
C468 C469 1.391 . S
C469 H441 0.931 . S
C469 C464 1.370 . S
C469 C468 1.391 . S
C470 N439 1.435 . S
C470 C471 1.358 . S
C470 C475 1.371 . S
C471 H443 0.930 . S
C471 C470 1.358 . S
C471 C472 1.405 . S
C472 H444 0.932 . S
C472 C471 1.405 . S
C472 C473 1.383 . S
C473 C472 1.383 . S
C473 C474 1.393 . S
C474 H446 0.931 . S
C474 C473 1.393 . S
C474 C475 1.382 . S
C475 H445 0.929 . S
C475 C470 1.371 . S
C475 C474 1.382 . S
C476 N439 1.423 . S
C476 C477 1.362 . S
C476 C481 1.388 . S
C477 H447 0.929 . S
C477 C476 1.362 . S
C477 C478 1.376 . S
C478 H449 0.931 . S
C478 C477 1.376 . S
C478 C479 1.396 . S
C479 C478 1.396 . S
C479 C480 1.348 . S
C479 C497 1.472 . S
C480 H450 0.929 . S
C480 C479 1.348 . S
C480 C481 1.443 . S
C481 H448 0.932 . S
C481 C476 1.388 . S
C481 C480 1.443 . S
C482 N462 1.433 . S
C482 C483 1.363 . S
C482 C487 1.370 . S
C483 H451 0.929 . S
C483 C482 1.363 . S
C483 C484 1.385 . S
C484 H452 0.930 . S
C484 C483 1.385 . S
C484 C485 1.357 . S
C485 C484 1.357 . S
C485 C486 1.406 . S
C486 H453 0.929 . S
C486 C485 1.406 . S
C486 C487 1.391 . S
C487 H454 0.931 . S
C487 C482 1.370 . S
C487 C486 1.391 . S
C488 N462 1.435 . S
C488 C489 1.358 . S
C488 C493 1.371 . S
C489 H455 0.930 . S
C489 C488 1.358 . S
C489 C490 1.405 . S
C490 H456 0.932 . S
C490 C489 1.405 . S
C490 C491 1.383 . S
C491 C490 1.383 . S
C491 C492 1.393 . S
C492 H457 0.931 . S
C492 C491 1.393 . S
C492 C493 1.382 . S
C493 H458 0.929 . S
C493 C488 1.371 . S
C493 C492 1.382 . S
C494 N462 1.423 . S
C494 C495 1.362 . S
C494 C499 1.388 . S
C495 H459 0.929 . S
C495 C494 1.362 . S
C495 C496 1.376 . S
C496 H460 0.931 . S
C496 C495 1.376 . S
C496 C497 1.396 . S
C497 C479 1.472 . S
C497 C496 1.396 . S
C497 C498 1.348 . S
C498 H461 0.929 . S
C498 C497 1.348 . S
C498 C499 1.443 . S
C499 H463 0.932 . S
C499 C494 1.388 . S
C499 C498 1.443 . S
H500 C527 0.929 . S
N501 C526 1.433 . S
N501 C532 1.435 . S
N501 C538 1.423 . S
H502 C528 0.930 . S
H503 C531 0.931 . S
H504 C530 0.929 . S
H505 C533 0.930 . S
H506 C534 0.932 . S
H507 C537 0.929 . S
H508 C536 0.931 . S
H509 C539 0.929 . S
H510 C543 0.932 . S
H511 C540 0.931 . S
H512 C542 0.929 . S
H513 C545 0.929 . S
H514 C546 0.930 . S
H515 C548 0.929 . S
H516 C549 0.931 . S
H517 C551 0.930 . S
H518 C552 0.932 . S
H519 C554 0.931 . S
H520 C555 0.929 . S
H521 C557 0.929 . S
H522 C558 0.931 . S
H523 C560 0.929 . S
N524 C544 1.433 . S
N524 C550 1.435 . S
N524 C556 1.423 . S
H525 C561 0.932 . S
C526 N501 1.433 . S
C526 C527 1.363 . S
C526 C531 1.370 . S
C527 H500 0.929 . S
C527 C526 1.363 . S
C527 C528 1.385 . S
C528 H502 0.930 . S
C528 C527 1.385 . S
C528 C529 1.357 . S
C529 C528 1.357 . S
C529 C530 1.406 . S
C530 H504 0.929 . S
C530 C529 1.406 . S
C530 C531 1.391 . S
C531 H503 0.931 . S
C531 C526 1.370 . S
C531 C530 1.391 . S
C532 N501 1.435 . S
C532 C533 1.358 . S
C532 C537 1.371 . S
C533 H505 0.930 . S
C533 C532 1.358 . S
C533 C534 1.405 . S
C534 H506 0.932 . S
C534 C533 1.405 . S
C534 C535 1.383 . S
C535 C534 1.383 . S
C535 C536 1.393 . S
C536 H508 0.931 . S
C536 C535 1.393 . S
C536 C537 1.382 . S
C537 H507 0.929 . S
C537 C532 1.371 . S
C537 C536 1.382 . S
C538 N501 1.423 . S
C538 C539 1.362 . S
C538 C543 1.388 . S
C539 H509 0.929 . S
C539 C538 1.362 . S
C539 C540 1.376 . S
C540 H511 0.931 . S
C540 C539 1.376 . S
C540 C541 1.396 . S
C541 C540 1.396 . S
C541 C542 1.348 . S
C541 C559 1.472 . S
C542 H512 0.929 . S
C542 C541 1.348 . S
C542 C543 1.443 . S
C543 H510 0.932 . S
C543 C538 1.388 . S
C543 C542 1.443 . S
C544 N524 1.433 . S
C544 C545 1.363 . S
C544 C549 1.370 . S
C545 H513 0.929 . S
C545 C544 1.363 . S
C545 C546 1.385 . S
C546 H514 0.930 . S
C546 C545 1.385 . S
C546 C547 1.357 . S
C547 C546 1.357 . S
C547 C548 1.406 . S
C548 H515 0.929 . S
C548 C547 1.406 . S
C548 C549 1.391 . S
C549 H516 0.931 . S
C549 C544 1.370 . S
C549 C548 1.391 . S
C550 N524 1.435 . S
C550 C551 1.358 . S
C550 C555 1.371 . S
C551 H517 0.930 . S
C551 C550 1.358 . S
C551 C552 1.405 . S
C552 H518 0.932 . S
C552 C551 1.405 . S
C552 C553 1.383 . S
C553 C552 1.383 . S
C553 C554 1.393 . S
C554 H519 0.931 . S
C554 C553 1.393 . S
C554 C555 1.382 . S
C555 H520 0.929 . S
C555 C550 1.371 . S
C555 C554 1.382 . S
C556 N524 1.423 . S
C556 C557 1.362 . S
C556 C561 1.388 . S
C557 H521 0.929 . S
C557 C556 1.362 . S
C557 C558 1.376 . S
C558 H522 0.931 . S
C558 C557 1.376 . S
C558 C559 1.396 . S
C559 C541 1.472 . S
C559 C558 1.396 . S
C559 C560 1.348 . S
C560 H523 0.929 . S
C560 C559 1.348 . S
C560 C561 1.443 . S
C561 H525 0.932 . S
C561 C556 1.388 . S
C561 C560 1.443 . S
H562 C589 0.929 . S
N563 C588 1.433 . S
N563 C594 1.435 . S
N563 C600 1.423 . S
H564 C590 0.930 . S
H565 C593 0.931 . S
H566 C592 0.929 . S
H567 C595 0.930 . S
H568 C596 0.932 . S
H569 C599 0.929 . S
H570 C598 0.931 . S
H571 C601 0.929 . S
H572 C605 0.932 . S
H573 C602 0.931 . S
H574 C604 0.929 . S
H575 C607 0.929 . S
H576 C608 0.930 . S
H577 C610 0.929 . S
H578 C611 0.931 . S
H579 C613 0.930 . S
H580 C614 0.932 . S
H581 C616 0.931 . S
H582 C617 0.929 . S
H583 C619 0.929 . S
H584 C620 0.931 . S
H585 C622 0.929 . S
N586 C606 1.433 . S
N586 C612 1.435 . S
N586 C618 1.423 . S
H587 C623 0.932 . S
C588 N563 1.433 . S
C588 C589 1.363 . S
C588 C593 1.370 . S
C589 H562 0.929 . S
C589 C588 1.363 . S
C589 C590 1.385 . S
C590 H564 0.930 . S
C590 C589 1.385 . S
C590 C591 1.357 . S
C591 C590 1.357 . S
C591 C592 1.406 . S
C592 H566 0.929 . S
C592 C591 1.406 . S
C592 C593 1.391 . S
C593 H565 0.931 . S
C593 C588 1.370 . S
C593 C592 1.391 . S
C594 N563 1.435 . S
C594 C595 1.358 . S
C594 C599 1.371 . S
C595 H567 0.930 . S
C595 C594 1.358 . S
C595 C596 1.405 . S
C596 H568 0.932 . S
C596 C595 1.405 . S
C596 C597 1.383 . S
C597 C596 1.383 . S
C597 C598 1.393 . S
C598 H570 0.931 . S
C598 C597 1.393 . S
C598 C599 1.382 . S
C599 H569 0.929 . S
C599 C594 1.371 . S
C599 C598 1.382 . S
C600 N563 1.423 . S
C600 C601 1.362 . S
C600 C605 1.388 . S
C601 H571 0.929 . S
C601 C600 1.362 . S
C601 C602 1.376 . S
C602 H573 0.931 . S
C602 C601 1.376 . S
C602 C603 1.396 . S
C603 C602 1.396 . S
C603 C604 1.348 . S
C603 C621 1.472 . S
C604 H574 0.929 . S
C604 C603 1.348 . S
C604 C605 1.443 . S
C605 H572 0.932 . S
C605 C600 1.388 . S
C605 C604 1.443 . S
C606 N586 1.433 . S
C606 C607 1.363 . S
C606 C611 1.370 . S
C607 H575 0.929 . S
C607 C606 1.363 . S
C607 C608 1.385 . S
C608 H576 0.930 . S
C608 C607 1.385 . S
C608 C609 1.357 . S
C609 C608 1.357 . S
C609 C610 1.406 . S
C610 H577 0.929 . S
C610 C609 1.406 . S
C610 C611 1.391 . S
C611 H578 0.931 . S
C611 C606 1.370 . S
C611 C610 1.391 . S
C612 N586 1.435 . S
C612 C613 1.358 . S
C612 C617 1.371 . S
C613 H579 0.930 . S
C613 C612 1.358 . S
C613 C614 1.405 . S
C614 H580 0.932 . S
C614 C613 1.405 . S
C614 C615 1.383 . S
C615 C614 1.383 . S
C615 C616 1.393 . S
C616 H581 0.931 . S
C616 C615 1.393 . S
C616 C617 1.382 . S
C617 H582 0.929 . S
C617 C612 1.371 . S
C617 C616 1.382 . S
C618 N586 1.423 . S
C618 C619 1.362 . S
C618 C623 1.388 . S
C619 H583 0.929 . S
C619 C618 1.362 . S
C619 C620 1.376 . S
C620 H584 0.931 . S
C620 C619 1.376 . S
C620 C621 1.396 . S
C621 C603 1.472 . S
C621 C620 1.396 . S
C621 C622 1.348 . S
C622 H585 0.929 . S
C622 C621 1.348 . S
C622 C623 1.443 . S
C623 H587 0.932 . S
C623 C618 1.388 . S
C623 C622 1.443 . S
H624 C651 0.929 . S
N625 C650 1.433 . S
N625 C656 1.435 . S
N625 C662 1.423 . S
H626 C652 0.930 . S
H627 C655 0.931 . S
H628 C654 0.929 . S
H629 C657 0.930 . S
H630 C658 0.932 . S
H631 C661 0.929 . S
H632 C660 0.931 . S
H633 C663 0.929 . S
H634 C667 0.932 . S
H635 C664 0.931 . S
H636 C666 0.929 . S
H637 C669 0.929 . S
H638 C670 0.930 . S
H639 C672 0.929 . S
H640 C673 0.931 . S
H641 C675 0.930 . S
H642 C676 0.932 . S
H643 C678 0.931 . S
H644 C679 0.929 . S
H645 C681 0.929 . S
H646 C682 0.931 . S
H647 C684 0.929 . S
N648 C668 1.433 . S
N648 C674 1.435 . S
N648 C680 1.423 . S
H649 C685 0.932 . S
C650 N625 1.433 . S
C650 C651 1.363 . S
C650 C655 1.370 . S
C651 H624 0.929 . S
C651 C650 1.363 . S
C651 C652 1.385 . S
C652 H626 0.930 . S
C652 C651 1.385 . S
C652 C653 1.357 . S
C653 C652 1.357 . S
C653 C654 1.406 . S
C654 H628 0.929 . S
C654 C653 1.406 . S
C654 C655 1.391 . S
C655 H627 0.931 . S
C655 C650 1.370 . S
C655 C654 1.391 . S
C656 N625 1.435 . S
C656 C657 1.358 . S
C656 C661 1.371 . S
C657 H629 0.930 . S
C657 C656 1.358 . S
C657 C658 1.405 . S
C658 H630 0.932 . S
C658 C657 1.405 . S
C658 C659 1.383 . S
C659 C658 1.383 . S
C659 C660 1.393 . S
C660 H632 0.931 . S
C660 C659 1.393 . S
C660 C661 1.382 . S
C661 H631 0.929 . S
C661 C656 1.371 . S
C661 C660 1.382 . S
C662 N625 1.423 . S
C662 C663 1.362 . S
C662 C667 1.388 . S
C663 H633 0.929 . S
C663 C662 1.362 . S
C663 C664 1.376 . S
C664 H635 0.931 . S
C664 C663 1.376 . S
C664 C665 1.396 . S
C665 C664 1.396 . S
C665 C666 1.348 . S
C665 C683 1.472 . S
C666 H636 0.929 . S
C666 C665 1.348 . S
C666 C667 1.443 . S
C667 H634 0.932 . S
C667 C662 1.388 . S
C667 C666 1.443 . S
C668 N648 1.433 . S
C668 C669 1.363 . S
C668 C673 1.370 . S
C669 H637 0.929 . S
C669 C668 1.363 . S
C669 C670 1.385 . S
C670 H638 0.930 . S
C670 C669 1.385 . S
C670 C671 1.357 . S
C671 C670 1.357 . S
C671 C672 1.406 . S
C672 H639 0.929 . S
C672 C671 1.406 . S
C672 C673 1.391 . S
C673 H640 0.931 . S
C673 C668 1.370 . S
C673 C672 1.391 . S
C674 N648 1.435 . S
C674 C675 1.358 . S
C674 C679 1.371 . S
C675 H641 0.930 . S
C675 C674 1.358 . S
C675 C676 1.405 . S
C676 H642 0.932 . S
C676 C675 1.405 . S
C676 C677 1.383 . S
C677 C676 1.383 . S
C677 C678 1.393 . S
C678 H643 0.931 . S
C678 C677 1.393 . S
C678 C679 1.382 . S
C679 H644 0.929 . S
C679 C674 1.371 . S
C679 C678 1.382 . S
C680 N648 1.423 . S
C680 C681 1.362 . S
C680 C685 1.388 . S
C681 H645 0.929 . S
C681 C680 1.362 . S
C681 C682 1.376 . S
C682 H646 0.931 . S
C682 C681 1.376 . S
C682 C683 1.396 . S
C683 C665 1.472 . S
C683 C682 1.396 . S
C683 C684 1.348 . S
C684 H647 0.929 . S
C684 C683 1.348 . S
C684 C685 1.443 . S
C685 H649 0.932 . S
C685 C680 1.388 . S
C685 C684 1.443 . S
H686 C713 0.929 . S
N687 C712 1.433 . S
N687 C718 1.435 . S
N687 C724 1.423 . S
H688 C714 0.930 . S
H689 C717 0.931 . S
H690 C716 0.929 . S
H691 C719 0.930 . S
H692 C720 0.932 . S
H693 C723 0.929 . S
H694 C722 0.931 . S
H695 C725 0.929 . S
H696 C729 0.932 . S
H697 C726 0.931 . S
H698 C728 0.929 . S
H699 C731 0.929 . S
H700 C732 0.930 . S
H701 C734 0.929 . S
H702 C735 0.931 . S
H703 C737 0.930 . S
H704 C738 0.932 . S
H705 C740 0.931 . S
H706 C741 0.929 . S
H707 C743 0.929 . S
H708 C744 0.931 . S
H709 C746 0.929 . S
N710 C730 1.433 . S
N710 C736 1.435 . S
N710 C742 1.423 . S
H711 C747 0.932 . S
C712 N687 1.433 . S
C712 C713 1.363 . S
C712 C717 1.370 . S
C713 H686 0.929 . S
C713 C712 1.363 . S
C713 C714 1.385 . S
C714 H688 0.930 . S
C714 C713 1.385 . S
C714 C715 1.357 . S
C715 C714 1.357 . S
C715 C716 1.406 . S
C716 H690 0.929 . S
C716 C715 1.406 . S
C716 C717 1.391 . S
C717 H689 0.931 . S
C717 C712 1.370 . S
C717 C716 1.391 . S
C718 N687 1.435 . S
C718 C719 1.358 . S
C718 C723 1.371 . S
C719 H691 0.930 . S
C719 C718 1.358 . S
C719 C720 1.405 . S
C720 H692 0.932 . S
C720 C719 1.405 . S
C720 C721 1.383 . S
C721 C720 1.383 . S
C721 C722 1.393 . S
C722 H694 0.931 . S
C722 C721 1.393 . S
C722 C723 1.382 . S
C723 H693 0.929 . S
C723 C718 1.371 . S
C723 C722 1.382 . S
C724 N687 1.423 . S
C724 C725 1.362 . S
C724 C729 1.388 . S
C725 H695 0.929 . S
C725 C724 1.362 . S
C725 C726 1.376 . S
C726 H697 0.931 . S
C726 C725 1.376 . S
C726 C727 1.396 . S
C727 C726 1.396 . S
C727 C728 1.348 . S
C727 C745 1.472 . S
C728 H698 0.929 . S
C728 C727 1.348 . S
C728 C729 1.443 . S
C729 H696 0.932 . S
C729 C724 1.388 . S
C729 C728 1.443 . S
C730 N710 1.433 . S
C730 C731 1.363 . S
C730 C735 1.370 . S
C731 H699 0.929 . S
C731 C730 1.363 . S
C731 C732 1.385 . S
C732 H700 0.930 . S
C732 C731 1.385 . S
C732 C733 1.357 . S
C733 C732 1.357 . S
C733 C734 1.406 . S
C734 H701 0.929 . S
C734 C733 1.406 . S
C734 C735 1.391 . S
C735 H702 0.931 . S
C735 C730 1.370 . S
C735 C734 1.391 . S
C736 N710 1.435 . S
C736 C737 1.358 . S
C736 C741 1.371 . S
C737 H703 0.930 . S
C737 C736 1.358 . S
C737 C738 1.405 . S
C738 H704 0.932 . S
C738 C737 1.405 . S
C738 C739 1.383 . S
C739 C738 1.383 . S
C739 C740 1.393 . S
C740 H705 0.931 . S
C740 C739 1.393 . S
C740 C741 1.382 . S
C741 H706 0.929 . S
C741 C736 1.371 . S
C741 C740 1.382 . S
C742 N710 1.423 . S
C742 C743 1.362 . S
C742 C747 1.388 . S
C743 H707 0.929 . S
C743 C742 1.362 . S
C743 C744 1.376 . S
C744 H708 0.931 . S
C744 C743 1.376 . S
C744 C745 1.396 . S
C745 C727 1.472 . S
C745 C744 1.396 . S
C745 C746 1.348 . S
C746 H709 0.929 . S
C746 C745 1.348 . S
C746 C747 1.443 . S
C747 H711 0.932 . S
C747 C742 1.388 . S
C747 C746 1.443 . S
H748 C775 0.929 . S
N749 C774 1.433 . S
N749 C780 1.435 . S
N749 C786 1.423 . S
H750 C776 0.930 . S
H751 C779 0.931 . S
H752 C778 0.929 . S
H753 C781 0.930 . S
H754 C782 0.932 . S
H755 C785 0.929 . S
H756 C784 0.931 . S
H757 C787 0.929 . S
H758 C791 0.932 . S
H759 C788 0.931 . S
H760 C790 0.929 . S
H761 C793 0.929 . S
H762 C794 0.930 . S
H763 C796 0.929 . S
H764 C797 0.931 . S
H765 C799 0.930 . S
H766 C800 0.932 . S
H767 C802 0.931 . S
H768 C803 0.929 . S
H769 C805 0.929 . S
H770 C806 0.931 . S
H771 C808 0.929 . S
N772 C792 1.433 . S
N772 C798 1.435 . S
N772 C804 1.423 . S
H773 C809 0.932 . S
C774 N749 1.433 . S
C774 C775 1.363 . S
C774 C779 1.370 . S
C775 H748 0.929 . S
C775 C774 1.363 . S
C775 C776 1.385 . S
C776 H750 0.930 . S
C776 C775 1.385 . S
C776 C777 1.357 . S
C777 C776 1.357 . S
C777 C778 1.406 . S
C778 H752 0.929 . S
C778 C777 1.406 . S
C778 C779 1.391 . S
C779 H751 0.931 . S
C779 C774 1.370 . S
C779 C778 1.391 . S
C780 N749 1.435 . S
C780 C781 1.358 . S
C780 C785 1.371 . S
C781 H753 0.930 . S
C781 C780 1.358 . S
C781 C782 1.405 . S
C782 H754 0.932 . S
C782 C781 1.405 . S
C782 C783 1.383 . S
C783 C782 1.383 . S
C783 C784 1.393 . S
C784 H756 0.931 . S
C784 C783 1.393 . S
C784 C785 1.382 . S
C785 H755 0.929 . S
C785 C780 1.371 . S
C785 C784 1.382 . S
C786 N749 1.423 . S
C786 C787 1.362 . S
C786 C791 1.388 . S
C787 H757 0.929 . S
C787 C786 1.362 . S
C787 C788 1.376 . S
C788 H759 0.931 . S
C788 C787 1.376 . S
C788 C789 1.396 . S
C789 C788 1.396 . S
C789 C790 1.348 . S
C789 C807 1.472 . S
C790 H760 0.929 . S
C790 C789 1.348 . S
C790 C791 1.443 . S
C791 H758 0.932 . S
C791 C786 1.388 . S
C791 C790 1.443 . S
C792 N772 1.433 . S
C792 C793 1.363 . S
C792 C797 1.370 . S
C793 H761 0.929 . S
C793 C792 1.363 . S
C793 C794 1.385 . S
C794 H762 0.930 . S
C794 C793 1.385 . S
C794 C795 1.357 . S
C795 C794 1.357 . S
C795 C796 1.406 . S
C796 H763 0.929 . S
C796 C795 1.406 . S
C796 C797 1.391 . S
C797 H764 0.931 . S
C797 C792 1.370 . S
C797 C796 1.391 . S
C798 N772 1.435 . S
C798 C799 1.358 . S
C798 C803 1.371 . S
C799 H765 0.930 . S
C799 C798 1.358 . S
C799 C800 1.405 . S
C800 H766 0.932 . S
C800 C799 1.405 . S
C800 C801 1.383 . S
C801 C800 1.383 . S
C801 C802 1.393 . S
C802 H767 0.931 . S
C802 C801 1.393 . S
C802 C803 1.382 . S
C803 H768 0.929 . S
C803 C798 1.371 . S
C803 C802 1.382 . S
C804 N772 1.423 . S
C804 C805 1.362 . S
C804 C809 1.388 . S
C805 H769 0.929 . S
C805 C804 1.362 . S
C805 C806 1.376 . S
C806 H770 0.931 . S
C806 C805 1.376 . S
C806 C807 1.396 . S
C807 C789 1.472 . S
C807 C806 1.396 . S
C807 C808 1.348 . S
C808 H771 0.929 . S
C808 C807 1.348 . S
C808 C809 1.443 . S
C809 H773 0.932 . S
C809 C804 1.388 . S
C809 C808 1.443 . S
H810 C837 0.929 . S
N811 C836 1.433 . S
N811 C842 1.435 . S
N811 C848 1.423 . S
H812 C838 0.930 . S
H813 C841 0.931 . S
H814 C840 0.929 . S
H815 C843 0.930 . S
H816 C844 0.932 . S
H817 C847 0.929 . S
H818 C846 0.931 . S
H819 C849 0.929 . S
H820 C853 0.932 1_655 S
H821 C850 0.931 . S
H822 C852 0.942 . S
H823 C855 0.929 . S
H824 C856 0.930 . S
H825 C858 0.929 . S
H826 C859 0.931 . S
H827 C861 0.930 . S
H828 C862 0.932 . S
H829 C864 0.931 . S
H830 C865 0.929 . S
H831 C867 0.929 . S
H832 C868 0.931 . S
H833 C870 0.929 . S
N834 C854 1.433 . S
N834 C860 1.435 . S
N834 C866 1.423 . S
H835 C871 0.932 1_655 S
C836 N811 1.433 . S
C836 C837 1.363 . S
C836 C841 1.370 1_455 S
C837 H810 0.929 . S
C837 C836 1.363 . S
C837 C838 1.385 . S
C838 H812 0.930 . S
C838 C837 1.385 . S
C838 C839 1.357 1_455 S
C839 C838 1.357 1_655 S
C839 C840 1.406 . S
C840 H814 0.929 . S
C840 C839 1.406 . S
C840 C841 1.391 . S
C841 H813 0.931 . S
C841 C836 1.370 1_655 S
C841 C840 1.391 . S
C842 N811 1.435 . S
C842 C843 1.358 1_455 S
C842 C847 1.371 . S
C843 H815 0.930 . S
C843 C842 1.358 1_655 S
C843 C844 1.405 . S
C844 H816 0.932 . S
C844 C843 1.405 . S
C844 C845 1.383 1_655 S
C845 C844 1.383 1_455 S
C845 C846 1.393 . S
C846 H818 0.931 . S
C846 C845 1.393 . S
C846 C847 1.382 . S
C847 H817 0.929 . S
C847 C842 1.371 . S
C847 C846 1.382 . S
C848 N811 1.423 . S
C848 C849 1.362 . S
C848 C853 1.388 . S
C849 H819 0.929 . S
C849 C848 1.362 . S
C849 C850 1.376 . S
C850 H821 0.931 . S
C850 C849 1.376 . S
C850 C851 1.396 . S
C851 C850 1.396 . S
C851 C852 1.348 . S
C851 C869 1.472 . S
C852 H822 0.942 . S
C852 C851 1.348 . S
C852 C853 1.443 . S
C853 H820 0.932 1_455 S
C853 C848 1.388 . S
C853 C852 1.443 . S
C854 N834 1.433 . S
C854 C855 1.363 . S
C854 C859 1.370 1_455 S
C855 H823 0.929 . S
C855 C854 1.363 . S
C855 C856 1.385 . S
C856 H824 0.930 . S
C856 C855 1.385 . S
C856 C857 1.357 1_455 S
C857 C856 1.357 1_655 S
C857 C858 1.406 . S
C858 H825 0.929 . S
C858 C857 1.406 . S
C858 C859 1.391 . S
C859 H826 0.931 . S
C859 C854 1.370 1_655 S
C859 C858 1.391 . S
C860 N834 1.435 . S
C860 C861 1.358 1_455 S
C860 C865 1.371 . S
C861 H827 0.930 . S
C861 C860 1.358 1_655 S
C861 C862 1.405 . S
C862 H828 0.932 . S
C862 C861 1.405 . S
C862 C863 1.383 1_655 S
C863 C862 1.383 1_455 S
C863 C864 1.393 . S
C864 H829 0.931 . S
C864 C863 1.393 . S
C864 C865 1.382 . S
C865 H830 0.929 . S
C865 C860 1.371 . S
C865 C864 1.382 . S
C866 N834 1.423 . S
C866 C867 1.362 . S
C866 C871 1.388 . S
C867 H831 0.929 . S
C867 C866 1.362 . S
C867 C868 1.376 . S
C868 H832 0.931 . S
C868 C867 1.376 . S
C868 C869 1.396 . S
C869 C851 1.472 . S
C869 C868 1.396 . S
C869 C870 1.348 . S
C870 H833 0.929 . S
C870 C869 1.348 . S
C870 C871 1.443 . S
C871 H835 0.932 1_455 S
C871 C866 1.388 . S
C871 C870 1.443 . S
H872 C899 0.929 . S
N873 C898 1.433 . S
N873 C904 1.435 . S
N873 C910 1.423 . S
H874 C900 0.930 . S
H875 C903 0.931 . S
H876 C902 0.929 . S
H877 C905 0.930 . S
H878 C906 0.932 . S
H879 C909 0.929 . S
H880 C908 0.931 . S
H881 C911 0.929 . S
H882 C915 0.932 . S
H883 C912 0.931 . S
H884 C914 0.929 . S
H885 C917 0.929 . S
H886 C918 0.930 . S
H887 C920 0.929 . S
H888 C921 0.931 . S
H889 C923 0.930 . S
H890 C924 0.932 . S
H891 C926 0.931 . S
H892 C927 0.929 . S
H893 C929 0.929 . S
H894 C930 0.931 . S
H895 C932 0.929 . S
N896 C916 1.433 . S
N896 C922 1.435 . S
N896 C928 1.423 . S
H897 C933 0.932 . S
C898 N873 1.433 . S
C898 C899 1.363 . S
C898 C903 1.370 . S
C899 H872 0.929 . S
C899 C898 1.363 . S
C899 C900 1.385 . S
C900 H874 0.930 . S
C900 C899 1.385 . S
C900 C901 1.357 . S
C901 C900 1.357 . S
C901 C902 1.406 . S
C902 H876 0.929 . S
C902 C901 1.406 . S
C902 C903 1.391 . S
C903 H875 0.931 . S
C903 C898 1.370 . S
C903 C902 1.391 . S
C904 N873 1.435 . S
C904 C905 1.358 . S
C904 C909 1.371 . S
C905 H877 0.930 . S
C905 C904 1.358 . S
C905 C906 1.405 . S
C906 H878 0.932 . S
C906 C905 1.405 . S
C906 C907 1.383 . S
C907 C906 1.383 . S
C907 C908 1.393 . S
C908 H880 0.931 . S
C908 C907 1.393 . S
C908 C909 1.382 . S
C909 H879 0.929 . S
C909 C904 1.371 . S
C909 C908 1.382 . S
C910 N873 1.423 . S
C910 C911 1.362 . S
C910 C915 1.388 . S
C911 H881 0.929 . S
C911 C910 1.362 . S
C911 C912 1.376 . S
C912 H883 0.931 . S
C912 C911 1.376 . S
C912 C913 1.396 . S
C913 C912 1.396 . S
C913 C914 1.348 . S
C913 C931 1.472 . S
C914 H884 0.929 . S
C914 C913 1.348 . S
C914 C915 1.443 . S
C915 H882 0.932 . S
C915 C910 1.388 . S
C915 C914 1.443 . S
C916 N896 1.433 . S
C916 C917 1.363 . S
C916 C921 1.370 . S
C917 H885 0.929 . S
C917 C916 1.363 . S
C917 C918 1.385 . S
C918 H886 0.930 . S
C918 C917 1.385 . S
C918 C919 1.357 . S
C919 C918 1.357 . S
C919 C920 1.406 . S
C920 H887 0.929 . S
C920 C919 1.406 . S
C920 C921 1.391 . S
C921 H888 0.931 . S
C921 C916 1.370 . S
C921 C920 1.391 . S
C922 N896 1.435 . S
C922 C923 1.358 . S
C922 C927 1.371 . S
C923 H889 0.930 . S
C923 C922 1.358 . S
C923 C924 1.405 . S
C924 H890 0.932 . S
C924 C923 1.405 . S
C924 C925 1.383 . S
C925 C924 1.383 . S
C925 C926 1.393 . S
C926 H891 0.931 . S
C926 C925 1.393 . S
C926 C927 1.382 . S
C927 H892 0.929 . S
C927 C922 1.371 . S
C927 C926 1.382 . S
C928 N896 1.423 . S
C928 C929 1.362 . S
C928 C933 1.388 . S
C929 H893 0.929 . S
C929 C928 1.362 . S
C929 C930 1.376 . S
C930 H894 0.931 . S
C930 C929 1.376 . S
C930 C931 1.396 . S
C931 C913 1.472 . S
C931 C930 1.396 . S
C931 C932 1.348 . S
C932 H895 0.929 . S
C932 C931 1.348 . S
C932 C933 1.443 . S
C933 H897 0.932 . S
C933 C928 1.388 . S
C933 C932 1.443 . S
H934 C961 0.929 . S
N935 C960 1.433 . S
N935 C966 1.435 . S
N935 C972 1.423 . S
H936 C962 0.930 . S
H937 C965 0.931 . S
H938 C964 0.929 . S
H939 C967 0.930 . S
H940 C968 0.932 . S
H941 C971 0.929 . S
H942 C970 0.931 . S
H943 C973 0.929 . S
H944 C977 0.932 1_545 S
H945 C974 0.931 . S
H946 C976 0.929 . S
H947 C979 0.929 . S
H948 C980 0.930 . S
H949 C982 0.929 . S
H950 C983 0.931 . S
H951 C985 0.930 . S
H952 C986 0.932 . S
H953 C988 0.931 . S
H954 C989 0.929 . S
H955 C991 0.929 . S
H956 C992 0.931 . S
H957 C994 0.929 . S
N958 C978 1.433 . S
N958 C984 1.435 . S
N958 C990 1.423 . S
H959 C995 0.932 1_545 S
C960 N935 1.433 . S
C960 C961 1.363 . S
C960 C965 1.370 1_565 S
C961 H934 0.929 . S
C961 C960 1.363 . S
C961 C962 1.385 . S
C962 H936 0.930 . S
C962 C961 1.385 . S
C962 C963 1.357 1_565 S
C963 C962 1.357 1_545 S
C963 C964 1.406 . S
C964 H938 0.929 . S
C964 C963 1.406 . S
C964 C965 1.391 . S
C965 H937 0.931 . S
C965 C960 1.370 1_545 S
C965 C964 1.391 . S
C966 N935 1.435 . S
C966 C967 1.358 1_565 S
C966 C971 1.371 . S
C967 H939 0.930 . S
C967 C966 1.358 1_545 S
C967 C968 1.405 . S
C968 H940 0.932 . S
C968 C967 1.405 . S
C968 C969 1.383 1_545 S
C969 C968 1.383 1_565 S
C969 C970 1.393 . S
C970 H942 0.931 . S
C970 C969 1.393 . S
C970 C971 1.382 . S
C971 H941 0.929 . S
C971 C966 1.371 . S
C971 C970 1.382 . S
C972 N935 1.423 . S
C972 C973 1.362 . S
C972 C977 1.388 . S
C973 H943 0.929 . S
C973 C972 1.362 . S
C973 C974 1.376 . S
C974 H945 0.931 . S
C974 C973 1.376 . S
C974 C975 1.396 . S
C975 C974 1.396 . S
C975 C976 1.348 . S
C975 C993 1.472 . S
C976 H946 0.929 . S
C976 C975 1.348 . S
C976 C977 1.443 . S
C977 H944 0.932 1_565 S
C977 C972 1.388 . S
C977 C976 1.443 . S
C978 N958 1.433 . S
C978 C979 1.363 . S
C978 C983 1.370 1_565 S
C979 H947 0.929 . S
C979 C978 1.363 . S
C979 C980 1.385 . S
C980 H948 0.930 . S
C980 C979 1.385 . S
C980 C981 1.357 1_565 S
C981 C980 1.357 1_545 S
C981 C982 1.406 . S
C982 H949 0.929 . S
C982 C981 1.406 . S
C982 C983 1.391 . S
C983 H950 0.931 . S
C983 C978 1.370 1_545 S
C983 C982 1.391 . S
C984 N958 1.435 . S
C984 C985 1.358 1_565 S
C984 C989 1.371 . S
C985 H951 0.930 . S
C985 C984 1.358 1_545 S
C985 C986 1.405 . S
C986 H952 0.932 . S
C986 C985 1.405 . S
C986 C987 1.383 1_545 S
C987 C986 1.383 1_565 S
C987 C988 1.393 . S
C988 H953 0.931 . S
C988 C987 1.393 . S
C988 C989 1.382 . S
C989 H954 0.929 . S
C989 C984 1.371 . S
C989 C988 1.382 . S
C990 N958 1.423 . S
C990 C991 1.362 . S
C990 C995 1.388 . S
C991 H955 0.929 . S
C991 C990 1.362 . S
C991 C992 1.376 . S
C992 H956 0.931 . S
C992 C991 1.376 . S
C992 C993 1.396 . S
C993 C975 1.472 . S
C993 C992 1.396 . S
C993 C994 1.348 . S
C994 H957 0.929 . S
C994 C993 1.348 . S
C994 C995 1.443 . S
C995 H959 0.932 1_565 S
C995 C990 1.388 . S
C995 C994 1.443 . S
H996 C1023 0.929 . S
N997 C1022 1.433 . S
N997 C1028 1.435 . S
N997 C1034 1.423 . S
H998 C1024 0.930 . S
H999 C1027 0.930 . S
H1000 C1026 0.945 . S
H1001 C1029 0.930 . S
H1002 C1030 0.932 . S
H1003 C1033 0.929 . S
H1004 C1032 0.931 . S
H1005 C1035 0.929 . S
H1006 C1039 1.009 . S
H1007 C1036 0.931 . S
H1008 C1038 0.918 1_545 S
H1009 C1041 0.929 . S
H1010 C1042 0.930 . S
H1011 C1044 0.929 . S
H1012 C1045 1.004 . S
H1013 C1047 0.930 . S
H1014 C1048 0.932 . S
H1015 C1050 0.931 . S
H1016 C1051 0.929 . S
H1017 C1053 0.929 . S
H1018 C1054 0.931 . S
H1019 C1056 0.897 1_545 S
N1020 C1040 1.433 . S
N1020 C1046 1.435 . S
N1020 C1052 1.423 . S
H1021 C1057 0.932 . S
C1022 N997 1.433 . S
C1022 C1023 1.363 . S
C1022 C1027 1.364 1_565 S
C1023 H996 0.929 . S
C1023 C1022 1.363 . S
C1023 C1024 1.385 . S
C1024 H998 0.930 . S
C1024 C1023 1.385 . S
C1024 C1025 1.357 . S
C1025 C1024 1.357 . S
C1025 C1026 1.412 1_565 S
C1026 H1000 0.945 . S
C1026 C1025 1.412 1_545 S
C1026 C1027 1.387 . S
C1027 H999 0.930 . S
C1027 C1022 1.364 1_545 S
C1027 C1026 1.387 . S
C1028 N997 1.435 . S
C1028 C1029 1.358 1_565 S
C1028 C1033 1.371 . S
C1029 H1001 0.930 . S
C1029 C1028 1.358 1_545 S
C1029 C1030 1.405 . S
C1030 H1002 0.932 . S
C1030 C1029 1.405 . S
C1030 C1031 1.383 . S
C1031 C1030 1.383 . S
C1031 C1032 1.393 1_545 S
C1032 H1004 0.931 . S
C1032 C1031 1.393 1_565 S
C1032 C1033 1.382 . S
C1033 H1003 0.929 . S
C1033 C1028 1.371 . S
C1033 C1032 1.382 . S
C1034 N997 1.423 . S
C1034 C1035 1.362 . S
C1034 C1039 1.365 1_565 S
C1035 H1005 0.929 . S
C1035 C1034 1.362 . S
C1035 C1036 1.376 . S
C1036 H1007 0.931 . S
C1036 C1035 1.376 . S
C1036 C1037 1.396 . S
C1037 C1036 1.396 . S
C1037 C1038 1.392 . S
C1037 C1055 1.472 . S
C1038 H1008 0.918 1_565 S
C1038 C1037 1.392 . S
C1038 C1039 1.364 1_565 S
C1039 H1006 1.009 . S
C1039 C1034 1.365 1_545 S
C1039 C1038 1.364 1_545 S
C1040 N1020 1.433 . S
C1040 C1041 1.363 . S
C1040 C1045 1.315 1_565 S
C1041 H1009 0.929 . S
C1041 C1040 1.363 . S
C1041 C1042 1.385 . S
C1042 H1010 0.930 . S
C1042 C1041 1.385 . S
C1042 C1043 1.357 . S
C1043 C1042 1.357 . S
C1043 C1044 1.406 1_565 S
C1044 H1011 0.929 . S
C1044 C1043 1.406 1_545 S
C1044 C1045 1.379 . S
C1045 H1012 1.004 . S
C1045 C1040 1.315 1_545 S
C1045 C1044 1.379 . S
C1046 N1020 1.435 . S
C1046 C1047 1.358 1_565 S
C1046 C1051 1.371 . S
C1047 H1013 0.930 . S
C1047 C1046 1.358 1_545 S
C1047 C1048 1.405 . S
C1048 H1014 0.932 . S
C1048 C1047 1.405 . S
C1048 C1049 1.383 . S
C1049 C1048 1.383 . S
C1049 C1050 1.393 1_545 S
C1050 H1015 0.931 . S
C1050 C1049 1.393 1_565 S
C1050 C1051 1.382 . S
C1051 H1016 0.929 . S
C1051 C1046 1.371 . S
C1051 C1050 1.382 . S
C1052 N1020 1.423 . S
C1052 C1053 1.362 . S
C1052 C1057 1.388 1_565 S
C1053 H1017 0.929 . S
C1053 C1052 1.362 . S
C1053 C1054 1.376 . S
C1054 H1018 0.931 . S
C1054 C1053 1.376 . S
C1054 C1055 1.396 . S
C1055 C1037 1.472 . S
C1055 C1054 1.396 . S
C1055 C1056 1.361 . S
C1056 H1019 0.897 1_565 S
C1056 C1055 1.361 . S
C1056 C1057 1.462 1_565 S
C1057 H1021 0.932 . S
C1057 C1052 1.388 1_545 S
C1057 C1056 1.462 1_545 S
H1058 C1085 0.929 . S
N1059 C1084 1.433 . S
N1059 C1090 1.435 . S
N1059 C1096 1.423 . S
H1060 C1086 0.930 . S
H1061 C1089 0.931 . S
H1062 C1088 0.929 . S
H1063 C1091 0.930 . S
H1064 C1092 0.932 . S
H1065 C1095 0.929 . S
H1066 C1094 0.931 . S
H1067 C1097 0.929 . S
H1068 C1101 0.932 1_455 S
H1069 C1098 0.931 . S
H1070 C1100 0.929 . S
H1071 C1103 0.929 . S
H1072 C1104 0.930 . S
H1073 C1106 0.929 . S
H1074 C1107 0.931 . S
H1075 C1109 0.930 . S
H1076 C1110 0.932 . S
H1077 C1112 0.931 . S
H1078 C1113 0.929 . S
H1079 C1115 0.929 . S
H1080 C1116 0.931 . S
H1081 C1118 0.929 . S
N1082 C1102 1.433 . S
N1082 C1108 1.435 . S
N1082 C1114 1.423 . S
H1083 C1119 0.932 1_455 S
C1084 N1059 1.433 . S
C1084 C1085 1.363 . S
C1084 C1089 1.370 1_655 S
C1085 H1058 0.929 . S
C1085 C1084 1.363 . S
C1085 C1086 1.385 . S
C1086 H1060 0.930 . S
C1086 C1085 1.385 . S
C1086 C1087 1.357 1_655 S
C1087 C1086 1.357 1_455 S
C1087 C1088 1.406 . S
C1088 H1062 0.929 . S
C1088 C1087 1.406 . S
C1088 C1089 1.391 . S
C1089 H1061 0.931 . S
C1089 C1084 1.370 1_455 S
C1089 C1088 1.391 . S
C1090 N1059 1.435 . S
C1090 C1091 1.358 1_655 S
C1090 C1095 1.371 . S
C1091 H1063 0.930 . S
C1091 C1090 1.358 1_455 S
C1091 C1092 1.405 . S
C1092 H1064 0.932 . S
C1092 C1091 1.405 . S
C1092 C1093 1.383 1_455 S
C1093 C1092 1.383 1_655 S
C1093 C1094 1.393 . S
C1094 H1066 0.931 . S
C1094 C1093 1.393 . S
C1094 C1095 1.382 . S
C1095 H1065 0.929 . S
C1095 C1090 1.371 . S
C1095 C1094 1.382 . S
C1096 N1059 1.423 . S
C1096 C1097 1.362 . S
C1096 C1101 1.388 . S
C1097 H1067 0.929 . S
C1097 C1096 1.362 . S
C1097 C1098 1.376 . S
C1098 H1069 0.931 . S
C1098 C1097 1.376 . S
C1098 C1099 1.396 . S
C1099 C1098 1.396 . S
C1099 C1100 1.348 . S
C1099 C1117 1.472 . S
C1100 H1070 0.929 . S
C1100 C1099 1.348 . S
C1100 C1101 1.443 . S
C1101 H1068 0.932 1_655 S
C1101 C1096 1.388 . S
C1101 C1100 1.443 . S
C1102 N1082 1.433 . S
C1102 C1103 1.363 . S
C1102 C1107 1.370 1_655 S
C1103 H1071 0.929 . S
C1103 C1102 1.363 . S
C1103 C1104 1.385 . S
C1104 H1072 0.930 . S
C1104 C1103 1.385 . S
C1104 C1105 1.357 1_655 S
C1105 C1104 1.357 1_455 S
C1105 C1106 1.406 . S
C1106 H1073 0.929 . S
C1106 C1105 1.406 . S
C1106 C1107 1.391 . S
C1107 H1074 0.931 . S
C1107 C1102 1.370 1_455 S
C1107 C1106 1.391 . S
C1108 N1082 1.435 . S
C1108 C1109 1.358 1_655 S
C1108 C1113 1.371 . S
C1109 H1075 0.930 . S
C1109 C1108 1.358 1_455 S
C1109 C1110 1.405 . S
C1110 H1076 0.932 . S
C1110 C1109 1.405 . S
C1110 C1111 1.383 1_455 S
C1111 C1110 1.383 1_655 S
C1111 C1112 1.393 . S
C1112 H1077 0.931 . S
C1112 C1111 1.393 . S
C1112 C1113 1.382 . S
C1113 H1078 0.929 . S
C1113 C1108 1.371 . S
C1113 C1112 1.382 . S
C1114 N1082 1.423 . S
C1114 C1115 1.362 . S
C1114 C1119 1.388 . S
C1115 H1079 0.929 . S
C1115 C1114 1.362 . S
C1115 C1116 1.376 . S
C1116 H1080 0.931 . S
C1116 C1115 1.376 . S
C1116 C1117 1.396 . S
C1117 C1099 1.472 . S
C1117 C1116 1.396 . S
C1117 C1118 1.348 . S
C1118 H1081 0.929 . S
C1118 C1117 1.348 . S
C1118 C1119 1.443 . S
C1119 H1083 0.932 1_655 S
C1119 C1114 1.388 . S
C1119 C1118 1.443 . S
H1120 C1147 0.929 . S
N1121 C1146 1.433 . S
N1121 C1152 1.435 . S
N1121 C1158 1.423 . S
H1122 C1148 0.930 . S
H1123 C1151 0.931 . S
H1124 C1150 0.929 . S
H1125 C1153 0.930 . S
H1126 C1154 0.932 . S
H1127 C1157 0.929 . S
H1128 C1156 0.931 . S
H1129 C1159 0.929 . S
H1130 C1163 0.932 . S
H1131 C1160 0.931 . S
H1132 C1162 0.929 . S
H1133 C1165 0.929 . S
H1134 C1166 0.930 . S
H1135 C1168 0.929 . S
H1136 C1169 0.931 . S
H1137 C1171 0.930 . S
H1138 C1172 0.932 . S
H1139 C1174 0.931 . S
H1140 C1175 0.929 . S
H1141 C1177 0.929 . S
H1142 C1178 0.931 . S
H1143 C1180 0.929 . S
N1144 C1164 1.433 . S
N1144 C1170 1.435 . S
N1144 C1176 1.423 . S
H1145 C1181 0.932 . S
C1146 N1121 1.433 . S
C1146 C1147 1.363 . S
C1146 C1151 1.370 . S
C1147 H1120 0.929 . S
C1147 C1146 1.363 . S
C1147 C1148 1.385 . S
C1148 H1122 0.930 . S
C1148 C1147 1.385 . S
C1148 C1149 1.357 . S
C1149 C1148 1.357 . S
C1149 C1150 1.406 . S
C1150 H1124 0.929 . S
C1150 C1149 1.406 . S
C1150 C1151 1.391 . S
C1151 H1123 0.931 . S
C1151 C1146 1.370 . S
C1151 C1150 1.391 . S
C1152 N1121 1.435 . S
C1152 C1153 1.358 . S
C1152 C1157 1.371 . S
C1153 H1125 0.930 . S
C1153 C1152 1.358 . S
C1153 C1154 1.405 . S
C1154 H1126 0.932 . S
C1154 C1153 1.405 . S
C1154 C1155 1.383 . S
C1155 C1154 1.383 . S
C1155 C1156 1.393 . S
C1156 H1128 0.931 . S
C1156 C1155 1.393 . S
C1156 C1157 1.382 . S
C1157 H1127 0.929 . S
C1157 C1152 1.371 . S
C1157 C1156 1.382 . S
C1158 N1121 1.423 . S
C1158 C1159 1.362 . S
C1158 C1163 1.388 . S
C1159 H1129 0.929 . S
C1159 C1158 1.362 . S
C1159 C1160 1.376 . S
C1160 H1131 0.931 . S
C1160 C1159 1.376 . S
C1160 C1161 1.396 . S
C1161 C1160 1.396 . S
C1161 C1162 1.348 . S
C1161 C1179 1.472 . S
C1162 H1132 0.929 . S
C1162 C1161 1.348 . S
C1162 C1163 1.443 . S
C1163 H1130 0.932 . S
C1163 C1158 1.388 . S
C1163 C1162 1.443 . S
C1164 N1144 1.433 . S
C1164 C1165 1.363 . S
C1164 C1169 1.370 . S
C1165 H1133 0.929 . S
C1165 C1164 1.363 . S
C1165 C1166 1.385 . S
C1166 H1134 0.930 . S
C1166 C1165 1.385 . S
C1166 C1167 1.357 . S
C1167 C1166 1.357 . S
C1167 C1168 1.406 . S
C1168 H1135 0.929 . S
C1168 C1167 1.406 . S
C1168 C1169 1.391 . S
C1169 H1136 0.931 . S
C1169 C1164 1.370 . S
C1169 C1168 1.391 . S
C1170 N1144 1.435 . S
C1170 C1171 1.358 . S
C1170 C1175 1.371 . S
C1171 H1137 0.930 . S
C1171 C1170 1.358 . S
C1171 C1172 1.405 . S
C1172 H1138 0.932 . S
C1172 C1171 1.405 . S
C1172 C1173 1.383 . S
C1173 C1172 1.383 . S
C1173 C1174 1.393 . S
C1174 H1139 0.931 . S
C1174 C1173 1.393 . S
C1174 C1175 1.382 . S
C1175 H1140 0.929 . S
C1175 C1170 1.371 . S
C1175 C1174 1.382 . S
C1176 N1144 1.423 . S
C1176 C1177 1.362 . S
C1176 C1181 1.388 . S
C1177 H1141 0.929 . S
C1177 C1176 1.362 . S
C1177 C1178 1.376 . S
C1178 H1142 0.931 . S
C1178 C1177 1.376 . S
C1178 C1179 1.396 . S
C1179 C1161 1.472 . S
C1179 C1178 1.396 . S
C1179 C1180 1.348 . S
C1180 H1143 0.929 . S
C1180 C1179 1.348 . S
C1180 C1181 1.443 . S
C1181 H1145 0.932 . S
C1181 C1176 1.388 . S
C1181 C1180 1.443 . S
H1182 C1209 0.929 . S
N1183 C1208 1.433 . S
N1183 C1214 1.435 . S
N1183 C1220 1.423 . S
H1184 C1210 0.930 . S
H1185 C1213 0.931 . S
H1186 C1212 0.929 . S
H1187 C1215 0.930 . S
H1188 C1216 0.932 . S
H1189 C1219 0.929 . S
H1190 C1218 0.931 . S
H1191 C1221 0.929 . S
H1192 C1225 0.932 . S
H1193 C1222 0.931 . S
H1194 C1224 0.929 . S
H1195 C1227 0.929 . S
H1196 C1228 0.930 . S
H1197 C1230 0.929 . S
H1198 C1231 0.931 . S
H1199 C1233 0.930 . S
H1200 C1234 0.932 . S
H1201 C1236 0.931 . S
H1202 C1237 0.929 . S
H1203 C1239 0.929 . S
H1204 C1240 0.931 . S
H1205 C1242 0.929 . S
N1206 C1226 1.433 . S
N1206 C1232 1.435 . S
N1206 C1238 1.423 . S
H1207 C1243 0.932 . S
C1208 N1183 1.433 . S
C1208 C1209 1.363 . S
C1208 C1213 1.370 . S
C1209 H1182 0.929 . S
C1209 C1208 1.363 . S
C1209 C1210 1.385 . S
C1210 H1184 0.930 . S
C1210 C1209 1.385 . S
C1210 C1211 1.357 . S
C1211 C1210 1.357 . S
C1211 C1212 1.406 . S
C1212 H1186 0.929 . S
C1212 C1211 1.406 . S
C1212 C1213 1.391 . S
C1213 H1185 0.931 . S
C1213 C1208 1.370 . S
C1213 C1212 1.391 . S
C1214 N1183 1.435 . S
C1214 C1215 1.358 . S
C1214 C1219 1.371 . S
C1215 H1187 0.930 . S
C1215 C1214 1.358 . S
C1215 C1216 1.405 . S
C1216 H1188 0.932 . S
C1216 C1215 1.405 . S
C1216 C1217 1.383 . S
C1217 C1216 1.383 . S
C1217 C1218 1.393 . S
C1218 H1190 0.931 . S
C1218 C1217 1.393 . S
C1218 C1219 1.382 . S
C1219 H1189 0.929 . S
C1219 C1214 1.371 . S
C1219 C1218 1.382 . S
C1220 N1183 1.423 . S
C1220 C1221 1.362 . S
C1220 C1225 1.388 . S
C1221 H1191 0.929 . S
C1221 C1220 1.362 . S
C1221 C1222 1.376 . S
C1222 H1193 0.931 . S
C1222 C1221 1.376 . S
C1222 C1223 1.396 . S
C1223 C1222 1.396 . S
C1223 C1224 1.348 . S
C1223 C1241 1.472 . S
C1224 H1194 0.929 . S
C1224 C1223 1.348 . S
C1224 C1225 1.443 . S
C1225 H1192 0.932 . S
C1225 C1220 1.388 . S
C1225 C1224 1.443 . S
C1226 N1206 1.433 . S
C1226 C1227 1.363 . S
C1226 C1231 1.370 . S
C1227 H1195 0.929 . S
C1227 C1226 1.363 . S
C1227 C1228 1.385 . S
C1228 H1196 0.930 . S
C1228 C1227 1.385 . S
C1228 C1229 1.357 . S
C1229 C1228 1.357 . S
C1229 C1230 1.406 . S
C1230 H1197 0.929 . S
C1230 C1229 1.406 . S
C1230 C1231 1.391 . S
C1231 H1198 0.931 . S
C1231 C1226 1.370 . S
C1231 C1230 1.391 . S
C1232 N1206 1.435 . S
C1232 C1233 1.358 . S
C1232 C1237 1.371 . S
C1233 H1199 0.930 . S
C1233 C1232 1.358 . S
C1233 C1234 1.405 . S
C1234 H1200 0.932 . S
C1234 C1233 1.405 . S
C1234 C1235 1.383 . S
C1235 C1234 1.383 . S
C1235 C1236 1.393 . S
C1236 H1201 0.931 . S
C1236 C1235 1.393 . S
C1236 C1237 1.382 . S
C1237 H1202 0.929 . S
C1237 C1232 1.371 . S
C1237 C1236 1.382 . S
C1238 N1206 1.423 . S
C1238 C1239 1.362 . S
C1238 C1243 1.388 . S
C1239 H1203 0.929 . S
C1239 C1238 1.362 . S
C1239 C1240 1.376 . S
C1240 H1204 0.931 . S
C1240 C1239 1.376 . S
C1240 C1241 1.396 . S
C1241 C1223 1.472 . S
C1241 C1240 1.396 . S
C1241 C1242 1.348 . S
C1242 H1205 0.929 . S
C1242 C1241 1.348 . S
C1242 C1243 1.443 . S
C1243 H1207 0.932 . S
C1243 C1238 1.388 . S
C1243 C1242 1.443 . S
H1244 C1271 0.929 . S
N1245 C1270 1.433 . S
N1245 C1276 1.435 . S
N1245 C1282 1.423 . S
H1246 C1272 0.930 . S
H1247 C1275 0.931 . S
H1248 C1274 0.929 . S
H1249 C1277 0.930 . S
H1250 C1278 0.932 . S
H1251 C1281 0.929 . S
H1252 C1280 0.931 . S
H1253 C1283 0.929 . S
H1254 C1287 0.932 . S
H1255 C1284 0.931 . S
H1256 C1286 0.929 . S
H1257 C1289 0.929 . S
H1258 C1290 0.930 . S
H1259 C1292 0.929 . S
H1260 C1293 0.931 . S
H1261 C1295 0.930 . S
H1262 C1296 0.932 . S
H1263 C1298 0.931 . S
H1264 C1299 0.929 . S
H1265 C1301 0.929 . S
H1266 C1302 0.931 . S
H1267 C1304 0.929 . S
N1268 C1288 1.433 . S
N1268 C1294 1.435 . S
N1268 C1300 1.423 . S
H1269 C1305 0.932 . S
C1270 N1245 1.433 . S
C1270 C1271 1.363 . S
C1270 C1275 1.370 . S
C1271 H1244 0.929 . S
C1271 C1270 1.363 . S
C1271 C1272 1.385 . S
C1272 H1246 0.930 . S
C1272 C1271 1.385 . S
C1272 C1273 1.357 . S
C1273 C1272 1.357 . S
C1273 C1274 1.406 . S
C1274 H1248 0.929 . S
C1274 C1273 1.406 . S
C1274 C1275 1.391 . S
C1275 H1247 0.931 . S
C1275 C1270 1.370 . S
C1275 C1274 1.391 . S
C1276 N1245 1.435 . S
C1276 C1277 1.358 . S
C1276 C1281 1.371 . S
C1277 H1249 0.930 . S
C1277 C1276 1.358 . S
C1277 C1278 1.405 . S
C1278 H1250 0.932 . S
C1278 C1277 1.405 . S
C1278 C1279 1.383 . S
C1279 C1278 1.383 . S
C1279 C1280 1.393 . S
C1280 H1252 0.931 . S
C1280 C1279 1.393 . S
C1280 C1281 1.382 . S
C1281 H1251 0.929 . S
C1281 C1276 1.371 . S
C1281 C1280 1.382 . S
C1282 N1245 1.423 . S
C1282 C1283 1.362 . S
C1282 C1287 1.388 . S
C1283 H1253 0.929 . S
C1283 C1282 1.362 . S
C1283 C1284 1.376 . S
C1284 H1255 0.931 . S
C1284 C1283 1.376 . S
C1284 C1285 1.396 . S
C1285 C1284 1.396 . S
C1285 C1286 1.348 . S
C1285 C1303 1.472 . S
C1286 H1256 0.929 . S
C1286 C1285 1.348 . S
C1286 C1287 1.443 . S
C1287 H1254 0.932 . S
C1287 C1282 1.388 . S
C1287 C1286 1.443 . S
C1288 N1268 1.433 . S
C1288 C1289 1.363 . S
C1288 C1293 1.370 . S
C1289 H1257 0.929 . S
C1289 C1288 1.363 . S
C1289 C1290 1.385 . S
C1290 H1258 0.930 . S
C1290 C1289 1.385 . S
C1290 C1291 1.357 . S
C1291 C1290 1.357 . S
C1291 C1292 1.406 . S
C1292 H1259 0.929 . S
C1292 C1291 1.406 . S
C1292 C1293 1.391 . S
C1293 H1260 0.931 . S
C1293 C1288 1.370 . S
C1293 C1292 1.391 . S
C1294 N1268 1.435 . S
C1294 C1295 1.358 . S
C1294 C1299 1.371 . S
C1295 H1261 0.930 . S
C1295 C1294 1.358 . S
C1295 C1296 1.405 . S
C1296 H1262 0.932 . S
C1296 C1295 1.405 . S
C1296 C1297 1.383 . S
C1297 C1296 1.383 . S
C1297 C1298 1.393 . S
C1298 H1263 0.931 . S
C1298 C1297 1.393 . S
C1298 C1299 1.382 . S
C1299 H1264 0.929 . S
C1299 C1294 1.371 . S
C1299 C1298 1.382 . S
C1300 N1268 1.423 . S
C1300 C1301 1.362 . S
C1300 C1305 1.388 . S
C1301 H1265 0.929 . S
C1301 C1300 1.362 . S
C1301 C1302 1.376 . S
C1302 H1266 0.931 . S
C1302 C1301 1.376 . S
C1302 C1303 1.396 . S
C1303 C1285 1.472 . S
C1303 C1302 1.396 . S
C1303 C1304 1.348 . S
C1304 H1267 0.929 . S
C1304 C1303 1.348 . S
C1304 C1305 1.443 . S
C1305 H1269 0.932 . S
C1305 C1300 1.388 . S
C1305 C1304 1.443 . S
H1306 C1333 0.929 . S
N1307 C1332 1.433 . S
N1307 C1338 1.435 . S
N1307 C1344 1.423 . S
H1308 C1334 0.930 . S
H1309 C1337 0.931 . S
H1310 C1336 0.929 . S
H1311 C1339 0.930 . S
H1312 C1340 0.932 . S
H1313 C1343 0.929 . S
H1314 C1342 0.931 . S
H1315 C1345 0.929 . S
H1316 C1349 0.932 . S
H1317 C1346 0.931 . S
H1318 C1348 0.929 . S
H1319 C1351 0.929 . S
H1320 C1352 0.930 . S
H1321 C1354 0.929 . S
H1322 C1355 0.931 . S
H1323 C1357 0.930 . S
H1324 C1358 0.932 . S
H1325 C1360 0.931 . S
H1326 C1361 0.929 . S
H1327 C1363 0.929 . S
H1328 C1364 0.931 . S
H1329 C1366 0.929 . S
N1330 C1350 1.433 . S
N1330 C1356 1.435 . S
N1330 C1362 1.423 . S
H1331 C1367 0.932 . S
C1332 N1307 1.433 . S
C1332 C1333 1.363 . S
C1332 C1337 1.370 . S
C1333 H1306 0.929 . S
C1333 C1332 1.363 . S
C1333 C1334 1.385 . S
C1334 H1308 0.930 . S
C1334 C1333 1.385 . S
C1334 C1335 1.357 . S
C1335 C1334 1.357 . S
C1335 C1336 1.406 . S
C1336 H1310 0.929 . S
C1336 C1335 1.406 . S
C1336 C1337 1.391 . S
C1337 H1309 0.931 . S
C1337 C1332 1.370 . S
C1337 C1336 1.391 . S
C1338 N1307 1.435 . S
C1338 C1339 1.358 . S
C1338 C1343 1.371 . S
C1339 H1311 0.930 . S
C1339 C1338 1.358 . S
C1339 C1340 1.405 . S
C1340 H1312 0.932 . S
C1340 C1339 1.405 . S
C1340 C1341 1.383 . S
C1341 C1340 1.383 . S
C1341 C1342 1.393 . S
C1342 H1314 0.931 . S
C1342 C1341 1.393 . S
C1342 C1343 1.382 . S
C1343 H1313 0.929 . S
C1343 C1338 1.371 . S
C1343 C1342 1.382 . S
C1344 N1307 1.423 . S
C1344 C1345 1.362 . S
C1344 C1349 1.388 . S
C1345 H1315 0.929 . S
C1345 C1344 1.362 . S
C1345 C1346 1.376 . S
C1346 H1317 0.931 . S
C1346 C1345 1.376 . S
C1346 C1347 1.396 . S
C1347 C1346 1.396 . S
C1347 C1348 1.348 . S
C1347 C1365 1.472 . S
C1348 H1318 0.929 . S
C1348 C1347 1.348 . S
C1348 C1349 1.443 . S
C1349 H1316 0.932 . S
C1349 C1344 1.388 . S
C1349 C1348 1.443 . S
C1350 N1330 1.433 . S
C1350 C1351 1.363 . S
C1350 C1355 1.370 . S
C1351 H1319 0.929 . S
C1351 C1350 1.363 . S
C1351 C1352 1.385 . S
C1352 H1320 0.930 . S
C1352 C1351 1.385 . S
C1352 C1353 1.357 . S
C1353 C1352 1.357 . S
C1353 C1354 1.406 . S
C1354 H1321 0.929 . S
C1354 C1353 1.406 . S
C1354 C1355 1.391 . S
C1355 H1322 0.931 . S
C1355 C1350 1.370 . S
C1355 C1354 1.391 . S
C1356 N1330 1.435 . S
C1356 C1357 1.358 . S
C1356 C1361 1.371 . S
C1357 H1323 0.930 . S
C1357 C1356 1.358 . S
C1357 C1358 1.405 . S
C1358 H1324 0.932 . S
C1358 C1357 1.405 . S
C1358 C1359 1.383 . S
C1359 C1358 1.383 . S
C1359 C1360 1.393 . S
C1360 H1325 0.931 . S
C1360 C1359 1.393 . S
C1360 C1361 1.382 . S
C1361 H1326 0.929 . S
C1361 C1356 1.371 . S
C1361 C1360 1.382 . S
C1362 N1330 1.423 . S
C1362 C1363 1.362 . S
C1362 C1367 1.388 . S
C1363 H1327 0.929 . S
C1363 C1362 1.362 . S
C1363 C1364 1.376 . S
C1364 H1328 0.931 . S
C1364 C1363 1.376 . S
C1364 C1365 1.396 . S
C1365 C1347 1.472 . S
C1365 C1364 1.396 . S
C1365 C1366 1.348 . S
C1366 H1329 0.929 . S
C1366 C1365 1.348 . S
C1366 C1367 1.443 . S
C1367 H1331 0.932 . S
C1367 C1362 1.388 . S
C1367 C1366 1.443 . S
H1368 C1380 0.930 . S
H1369 C1382 0.930 . S
H1370 C1383 0.930 . S
H1371 C1387 0.959 . S
H1372 C1387 0.959 . S
H1373 C1387 0.961 . S
H1374 C1388 0.960 . S
H1375 C1388 0.961 . S
H1376 C1388 0.959 . S
H1377 C1391 0.929 . S
H1378 C1392 0.931 . S
H1379 C1394 0.930 . S
C1380 H1368 0.930 . S
C1380 C1381 1.401 . S
C1380 C1385 1.399 . S
C1381 C1380 1.401 . S
C1381 C1382 1.375 1_655 S
C1382 H1369 0.930 . S
C1382 C1381 1.375 1_455 S
C1382 C1383 1.388 . S
C1383 H1370 0.930 . S
C1383 C1382 1.388 . S
C1383 C1384 1.390 . S
C1384 C1383 1.390 . S
C1384 C1385 1.394 1_455 S
C1384 C1390 1.465 . S
C1385 C1380 1.399 . S
C1385 C1384 1.394 1_655 S
C1385 C1386 1.516 . S
C1386 C1385 1.516 . S
C1386 C1387 1.502 . S
C1386 C1388 1.561 . S
C1386 C1389 1.526 . S
C1387 H1371 0.959 . S
C1387 H1372 0.959 . S
C1387 H1373 0.961 . S
C1387 C1386 1.502 . S
C1388 H1374 0.960 . S
C1388 H1375 0.961 . S
C1388 H1376 0.959 . S
C1388 C1386 1.561 . S
C1389 C1386 1.526 . S
C1389 C1390 1.396 1_655 S
C1389 C1394 1.390 . S
C1390 C1384 1.465 . S
C1390 C1389 1.396 1_455 S
C1390 C1391 1.399 . S
C1391 H1377 0.929 . S
C1391 C1390 1.399 . S
C1391 C1392 1.385 . S
C1392 H1378 0.931 . S
C1392 C1391 1.385 . S
C1392 C1393 1.389 1_455 S
C1393 C1392 1.389 1_655 S
C1393 C1394 1.387 . S
C1394 H1379 0.930 . S
C1394 C1389 1.390 . S
C1394 C1393 1.387 . S
H1395 C1407 0.930 . S
H1396 C1409 0.930 . S
H1397 C1410 0.930 . S
H1398 C1414 0.959 . S
H1399 C1414 0.959 . S
H1400 C1414 0.961 . S
H1401 C1415 0.960 . S
H1402 C1415 0.961 . S
H1403 C1415 0.959 . S
H1404 C1418 0.929 . S
H1405 C1419 0.931 . S
H1406 C1421 0.930 . S
C1407 H1395 0.930 . S
C1407 C1408 1.399 . S
C1407 C1412 1.399 . S
C1408 C1407 1.399 . S
C1408 C1409 1.376 . S
C1409 H1396 0.930 . S
C1409 C1408 1.376 . S
C1409 C1410 1.388 . S
C1410 H1397 0.930 . S
C1410 C1409 1.388 . S
C1410 C1411 1.390 . S
C1411 C1410 1.390 . S
C1411 C1412 1.394 . S
C1411 C1417 1.465 . S
C1412 C1407 1.399 . S
C1412 C1411 1.394 . S
C1412 C1413 1.516 . S
C1413 C1412 1.516 . S
C1413 C1414 1.502 . S
C1413 C1415 1.561 . S
C1413 C1416 1.526 . S
C1414 H1398 0.959 . S
C1414 H1399 0.959 . S
C1414 H1400 0.961 . S
C1414 C1413 1.502 . S
C1415 H1401 0.960 . S
C1415 H1402 0.961 . S
C1415 H1403 0.959 . S
C1415 C1413 1.561 . S
C1416 C1413 1.526 . S
C1416 C1417 1.396 . S
C1416 C1421 1.390 . S
C1417 C1411 1.465 . S
C1417 C1416 1.396 . S
C1417 C1418 1.399 . S
C1418 H1404 0.929 . S
C1418 C1417 1.399 . S
C1418 C1419 1.385 . S
C1419 H1405 0.931 . S
C1419 C1418 1.385 . S
C1419 C1420 1.389 . S
C1420 C1419 1.389 . S
C1420 C1421 1.387 . S
C1421 H1406 0.930 . S
C1421 C1416 1.390 . S
C1421 C1420 1.387 . S
H1422 C1434 0.930 . S
H1423 C1436 0.930 . S
H1424 C1437 0.930 . S
H1425 C1441 0.959 . S
H1426 C1441 0.959 . S
H1427 C1441 0.961 . S
H1428 C1442 0.960 . S
H1429 C1442 0.961 . S
H1430 C1442 0.959 . S
H1431 C1445 0.929 . S
H1432 C1446 0.931 . S
H1433 C1448 0.930 . S
C1434 H1422 0.930 . S
C1434 C1435 1.399 . S
C1434 C1439 1.399 . S
C1435 C1434 1.399 . S
C1435 C1436 1.376 1_545 S
C1436 H1423 0.930 . S
C1436 C1435 1.376 1_565 S
C1436 C1437 1.388 . S
C1437 H1424 0.930 . S
C1437 C1436 1.388 . S
C1437 C1438 1.408 . S
C1438 C1437 1.408 . S
C1438 C1439 1.348 1_565 S
C1438 C1444 1.454 . S
C1439 C1434 1.399 . S
C1439 C1438 1.348 1_545 S
C1439 C1440 1.516 . S
C1440 C1439 1.516 . S
C1440 C1441 1.502 . S
C1440 C1442 1.561 . S
C1440 C1443 1.526 . S
C1441 H1425 0.959 . S
C1441 H1426 0.959 . S
C1441 H1427 0.961 . S
C1441 C1440 1.502 . S
C1442 H1428 0.960 . S
C1442 H1429 0.961 . S
C1442 H1430 0.959 . S
C1442 C1440 1.561 . S
C1443 C1440 1.526 . S
C1443 C1444 1.349 1_545 S
C1443 C1448 1.390 . S
C1444 C1438 1.454 . S
C1444 C1443 1.349 1_565 S
C1444 C1445 1.470 . S
C1445 H1431 0.929 . S
C1445 C1444 1.470 . S
C1445 C1446 1.385 . S
C1446 H1432 0.931 . S
C1446 C1445 1.385 . S
C1446 C1447 1.389 1_565 S
C1447 C1446 1.389 1_545 S
C1447 C1448 1.387 . S
C1448 H1433 0.930 . S
C1448 C1443 1.390 . S
C1448 C1447 1.387 . S
H1449 C1461 0.930 . S
H1450 C1463 0.930 . S
H1451 C1464 0.930 . S
H1452 C1468 0.959 . S
H1453 C1468 0.959 . S
H1454 C1468 0.961 . S
H1455 C1469 0.960 . S
H1456 C1469 0.961 . S
H1457 C1469 0.959 . S
H1458 C1472 0.929 . S
H1459 C1473 0.931 . S
H1460 C1475 0.930 . S
C1461 H1449 0.930 . S
C1461 C1462 1.399 1_545 S
C1461 C1466 1.451 . S
C1462 C1461 1.399 1_565 S
C1462 C1463 1.376 . S
C1463 H1450 0.930 . S
C1463 C1462 1.376 . S
C1463 C1464 1.388 . S
C1464 H1451 0.930 . S
C1464 C1463 1.388 . S
C1464 C1465 1.390 . S
C1465 C1464 1.390 . S
C1465 C1466 1.302 1_565 S
C1465 C1471 1.465 . S
C1466 C1461 1.451 . S
C1466 C1465 1.302 1_545 S
C1466 C1467 1.546 . S
C1467 C1466 1.546 . S
C1467 C1468 1.502 . S
C1467 C1469 1.561 . S
C1467 C1470 1.526 . S
C1468 H1452 0.959 . S
C1468 H1453 0.959 . S
C1468 H1454 0.961 . S
C1468 C1467 1.502 . S
C1469 H1455 0.960 . S
C1469 H1456 0.961 . S
C1469 H1457 0.959 . S
C1469 C1467 1.561 . S
C1470 C1467 1.526 . S
C1470 C1471 1.396 1_545 S
C1470 C1475 1.390 . S
C1471 C1465 1.465 . S
C1471 C1470 1.396 1_565 S
C1471 C1472 1.399 . S
C1472 H1458 0.929 . S
C1472 C1471 1.399 . S
C1472 C1473 1.385 . S
C1473 H1459 0.931 . S
C1473 C1472 1.385 . S
C1473 C1474 1.389 . S
C1474 C1473 1.389 . S
C1474 C1475 1.387 1_565 S
C1475 H1460 0.930 . S
C1475 C1470 1.390 . S
C1475 C1474 1.387 1_545 S
H1476 C1488 0.980 . S
H1477 C1490 0.930 . S
H1478 C1491 0.930 . S
H1479 C1495 0.959 . S
H1480 C1495 0.959 . S
H1481 C1495 0.961 . S
H1482 C1496 0.960 . S
H1483 C1496 0.961 . S
H1484 C1496 0.959 . S
H1485 C1499 0.929 . S
H1486 C1500 0.931 . S
H1487 C1502 0.930 . S
C1488 H1476 0.980 . S
C1488 C1489 1.334 1_655 S
C1488 C1493 1.416 1_655 S
C1489 C1488 1.334 1_455 S
C1489 C1490 1.376 . S
C1490 H1477 0.930 . S
C1490 C1489 1.376 . S
C1490 C1491 1.388 . S
C1491 H1478 0.930 . S
C1491 C1490 1.388 . S
C1491 C1492 1.390 . S
C1492 C1491 1.390 . S
C1492 C1493 1.394 . S
C1492 C1498 1.465 . S
C1493 C1488 1.416 1_455 S
C1493 C1492 1.394 . S
C1493 C1494 1.516 1_455 S
C1494 C1493 1.516 1_655 S
C1494 C1495 1.502 . S
C1494 C1496 1.561 . S
C1494 C1497 1.510 1_655 S
C1495 H1479 0.959 . S
C1495 H1480 0.959 . S
C1495 H1481 0.961 . S
C1495 C1494 1.502 . S
C1496 H1482 0.960 . S
C1496 H1483 0.961 . S
C1496 H1484 0.959 . S
C1496 C1494 1.561 . S
C1497 C1494 1.510 1_455 S
C1497 C1498 1.460 . S
C1497 C1502 1.354 1_455 S
C1498 C1492 1.465 . S
C1498 C1497 1.460 . S
C1498 C1499 1.399 . S
C1499 H1485 0.929 . S
C1499 C1498 1.399 . S
C1499 C1500 1.385 . S
C1500 H1486 0.931 . S
C1500 C1499 1.385 . S
C1500 C1501 1.389 . S
C1501 C1500 1.389 . S
C1501 C1502 1.387 1_455 S
C1502 H1487 0.930 . S
C1502 C1497 1.354 1_655 S
C1502 C1501 1.387 1_655 S
H1503 C1515 0.930 . S
H1504 C1517 0.930 . S
H1505 C1518 0.930 . S
H1506 C1522 0.959 . S
H1507 C1522 0.959 . S
H1508 C1522 0.961 . S
H1509 C1523 0.960 . S
H1510 C1523 0.961 . S
H1511 C1523 0.959 . S
H1512 C1526 0.929 . S
H1513 C1527 0.931 . S
H1514 C1529 0.930 . S
C1515 H1503 0.930 . S
C1515 C1516 1.399 . S
C1515 C1520 1.399 . S
C1516 C1515 1.399 . S
C1516 C1517 1.376 . S
C1517 H1504 0.930 . S
C1517 C1516 1.376 . S
C1517 C1518 1.388 . S
C1518 H1505 0.930 . S
C1518 C1517 1.388 . S
C1518 C1519 1.390 . S
C1519 C1518 1.390 . S
C1519 C1520 1.394 . S
C1519 C1525 1.465 . S
C1520 C1515 1.399 . S
C1520 C1519 1.394 . S
C1520 C1521 1.516 . S
C1521 C1520 1.516 . S
C1521 C1522 1.502 . S
C1521 C1523 1.561 . S
C1521 C1524 1.526 . S
C1522 H1506 0.959 . S
C1522 H1507 0.959 . S
C1522 H1508 0.961 . S
C1522 C1521 1.502 . S
C1523 H1509 0.960 . S
C1523 H1510 0.961 . S
C1523 H1511 0.959 . S
C1523 C1521 1.561 . S
C1524 C1521 1.526 . S
C1524 C1525 1.396 . S
C1524 C1529 1.390 . S
C1525 C1519 1.465 . S
C1525 C1524 1.396 . S
C1525 C1526 1.399 . S
C1526 H1512 0.929 . S
C1526 C1525 1.399 . S
C1526 C1527 1.385 . S
C1527 H1513 0.931 . S
C1527 C1526 1.385 . S
C1527 C1528 1.389 . S
C1528 C1527 1.389 . S
C1528 C1529 1.387 . S
C1529 H1514 0.930 . S
C1529 C1524 1.390 . S
C1529 C1528 1.387 . S
H1530 C1542 0.930 . S
H1531 C1544 0.930 . S
H1532 C1545 0.930 . S
H1533 C1549 0.959 . S
H1534 C1549 0.959 . S
H1535 C1549 0.961 . S
H1536 C1550 0.960 . S
H1537 C1550 0.961 . S
H1538 C1550 0.959 1_655 S
H1539 C1553 0.929 . S
H1540 C1554 0.931 . S
H1541 C1556 0.930 . S
C1542 H1530 0.930 . S
C1542 C1543 1.399 . S
C1542 C1547 1.399 . S
C1543 C1542 1.399 . S
C1543 C1544 1.376 1_455 S
C1544 H1531 0.930 . S
C1544 C1543 1.376 1_655 S
C1544 C1545 1.388 . S
C1545 H1532 0.930 . S
C1545 C1544 1.388 . S
C1545 C1546 1.331 1_655 S
C1546 C1545 1.331 1_455 S
C1546 C1547 1.439 . S
C1546 C1552 1.496 . S
C1547 C1542 1.399 . S
C1547 C1546 1.439 . S
C1547 C1548 1.516 . S
C1548 C1547 1.516 . S
C1548 C1549 1.502 . S
C1548 C1550 1.561 . S
C1548 C1551 1.526 . S
C1549 H1533 0.959 . S
C1549 H1534 0.959 . S
C1549 H1535 0.961 . S
C1549 C1548 1.502 . S
C1550 H1536 0.960 . S
C1550 H1537 0.961 . S
C1550 H1538 0.959 1_455 S
C1550 C1548 1.561 . S
C1551 C1548 1.526 . S
C1551 C1552 1.396 . S
C1551 C1556 1.390 . S
C1552 C1546 1.496 . S
C1552 C1551 1.396 . S
C1552 C1553 1.399 1_455 S
C1553 H1539 0.929 . S
C1553 C1552 1.399 1_655 S
C1553 C1554 1.385 . S
C1554 H1540 0.931 . S
C1554 C1553 1.385 . S
C1554 C1555 1.389 1_655 S
C1555 C1554 1.389 1_455 S
C1555 C1556 1.387 . S
C1556 H1541 0.930 . S
C1556 C1551 1.390 . S
C1556 C1555 1.387 . S
H1557 C1569 0.930 . S
H1558 C1571 0.930 . S
H1559 C1572 0.930 . S
H1560 C1576 0.959 . S
H1561 C1576 0.959 . S
H1562 C1576 0.961 . S
H1563 C1577 0.960 . S
H1564 C1577 0.961 . S
H1565 C1577 0.959 . S
H1566 C1580 0.929 . S
H1567 C1581 0.931 . S
H1568 C1583 0.930 . S
C1569 H1557 0.930 . S
C1569 C1570 1.399 . S
C1569 C1574 1.399 . S
C1570 C1569 1.399 . S
C1570 C1571 1.376 . S
C1571 H1558 0.930 . S
C1571 C1570 1.376 . S
C1571 C1572 1.388 . S
C1572 H1559 0.930 . S
C1572 C1571 1.388 . S
C1572 C1573 1.390 . S
C1573 C1572 1.390 . S
C1573 C1574 1.394 . S
C1573 C1579 1.465 . S
C1574 C1569 1.399 . S
C1574 C1573 1.394 . S
C1574 C1575 1.516 . S
C1575 C1574 1.516 . S
C1575 C1576 1.502 . S
C1575 C1577 1.561 . S
C1575 C1578 1.526 . S
C1576 H1560 0.959 . S
C1576 H1561 0.959 . S
C1576 H1562 0.961 . S
C1576 C1575 1.502 . S
C1577 H1563 0.960 . S
C1577 H1564 0.961 . S
C1577 H1565 0.959 . S
C1577 C1575 1.561 . S
C1578 C1575 1.526 . S
C1578 C1579 1.396 . S
C1578 C1583 1.390 . S
C1579 C1573 1.465 . S
C1579 C1578 1.396 . S
C1579 C1580 1.399 . S
C1580 H1566 0.929 . S
C1580 C1579 1.399 . S
C1580 C1581 1.385 . S
C1581 H1567 0.931 . S
C1581 C1580 1.385 . S
C1581 C1582 1.389 . S
C1582 C1581 1.389 . S
C1582 C1583 1.387 . S
C1583 H1568 0.930 . S
C1583 C1578 1.390 . S
C1583 C1582 1.387 . S
H1584 C1596 0.930 . S
H1585 C1598 0.930 . S
H1586 C1599 0.930 . S
H1587 C1603 0.959 . S
H1588 C1603 0.959 . S
H1589 C1603 0.961 . S
H1590 C1604 0.960 . S
H1591 C1604 0.961 . S
H1592 C1604 0.959 . S
H1593 C1607 0.929 . S
H1594 C1608 0.931 . S
H1595 C1610 0.930 . S
C1596 H1584 0.930 . S
C1596 C1597 1.399 . S
C1596 C1601 1.399 . S
C1597 C1596 1.399 . S
C1597 C1598 1.376 1_565 S
C1598 H1585 0.930 . S
C1598 C1597 1.376 1_545 S
C1598 C1599 1.388 . S
C1599 H1586 0.930 . S
C1599 C1598 1.388 . S
C1599 C1600 1.390 . S
C1600 C1599 1.390 . S
C1600 C1601 1.394 1_545 S
C1600 C1606 1.465 . S
C1601 C1596 1.399 . S
C1601 C1600 1.394 1_565 S
C1601 C1602 1.516 . S
C1602 C1601 1.516 . S
C1602 C1603 1.502 . S
C1602 C1604 1.561 . S
C1602 C1605 1.526 . S
C1603 H1587 0.959 . S
C1603 H1588 0.959 . S
C1603 H1589 0.961 . S
C1603 C1602 1.502 . S
C1604 H1590 0.960 . S
C1604 H1591 0.961 . S
C1604 H1592 0.959 . S
C1604 C1602 1.561 . S
C1605 C1602 1.526 . S
C1605 C1606 1.396 1_565 S
C1605 C1610 1.390 . S
C1606 C1600 1.465 . S
C1606 C1605 1.396 1_545 S
C1606 C1607 1.399 . S
C1607 H1593 0.929 . S
C1607 C1606 1.399 . S
C1607 C1608 1.385 . S
C1608 H1594 0.931 . S
C1608 C1607 1.385 . S
C1608 C1609 1.389 1_545 S
C1609 C1608 1.389 1_565 S
C1609 C1610 1.387 . S
C1610 H1595 0.930 . S
C1610 C1605 1.390 . S
C1610 C1609 1.387 . S
H1611 C1623 0.927 . S
H1612 C1625 0.930 . S
H1613 C1626 0.930 . S
H1614 C1630 0.959 . S
H1615 C1630 0.959 . S
H1616 C1630 0.961 . S
H1617 C1631 0.960 . S
H1618 C1631 0.961 . S
H1619 C1631 0.959 . S
H1620 C1634 0.929 . S
H1621 C1635 0.931 . S
H1622 C1637 0.930 . S
C1623 H1611 0.927 . S
C1623 C1624 1.400 1_565 S
C1623 C1628 1.400 1_565 S
C1624 C1623 1.400 1_545 S
C1624 C1625 1.376 . S
C1625 H1612 0.930 . S
C1625 C1624 1.376 . S
C1625 C1626 1.388 . S
C1626 H1613 0.930 . S
C1626 C1625 1.388 . S
C1626 C1627 1.390 . S
C1627 C1626 1.390 . S
C1627 C1628 1.394 . S
C1627 C1633 1.465 . S
C1628 C1623 1.400 1_545 S
C1628 C1627 1.394 . S
C1628 C1629 1.516 1_545 S
C1629 C1628 1.516 1_565 S
C1629 C1630 1.502 . S
C1629 C1631 1.561 . S
C1629 C1632 1.475 1_565 S
C1630 H1614 0.959 . S
C1630 H1615 0.959 . S
C1630 H1616 0.961 . S
C1630 C1629 1.502 . S
C1631 H1617 0.960 . S
C1631 H1618 0.961 . S
C1631 H1619 0.959 . S
C1631 C1629 1.561 . S
C1632 C1629 1.475 1_545 S
C1632 C1633 1.437 . S
C1632 C1637 1.405 1_545 S
C1633 C1627 1.465 . S
C1633 C1632 1.437 . S
C1633 C1634 1.399 . S
C1634 H1620 0.929 . S
C1634 C1633 1.399 . S
C1634 C1635 1.385 . S
C1635 H1621 0.931 . S
C1635 C1634 1.385 . S
C1635 C1636 1.389 . S
C1636 C1635 1.389 . S
C1636 C1637 1.387 1_545 S
C1637 H1622 0.930 . S
C1637 C1632 1.405 1_565 S
C1637 C1636 1.387 1_565 S
H1638 C1650 0.930 . S
H1639 C1652 0.930 . S
H1640 C1653 0.930 . S
H1641 C1657 0.959 . S
H1642 C1657 0.959 . S
H1643 C1657 0.961 . S
H1644 C1658 0.960 . S
H1645 C1658 0.961 . S
H1646 C1658 0.959 . S
H1647 C1661 0.929 . S
H1648 C1662 0.931 . S
H1649 C1664 0.930 . S
C1650 H1638 0.930 . S
C1650 C1651 1.399 1_455 S
C1650 C1655 1.399 . S
C1651 C1650 1.399 1_655 S
C1651 C1652 1.376 . S
C1652 H1639 0.930 . S
C1652 C1651 1.376 . S
C1652 C1653 1.388 . S
C1653 H1640 0.930 . S
C1653 C1652 1.388 . S
C1653 C1654 1.390 . S
C1654 C1653 1.390 . S
C1654 C1655 1.394 1_655 S
C1654 C1660 1.465 . S
C1655 C1650 1.399 . S
C1655 C1654 1.394 1_455 S
C1655 C1656 1.516 . S
C1656 C1655 1.516 . S
C1656 C1657 1.502 . S
C1656 C1658 1.561 . S
C1656 C1659 1.526 . S
C1657 H1641 0.959 . S
C1657 H1642 0.959 . S
C1657 H1643 0.961 . S
C1657 C1656 1.502 . S
C1658 H1644 0.960 . S
C1658 H1645 0.961 . S
C1658 H1646 0.959 . S
C1658 C1656 1.561 . S
C1659 C1656 1.526 . S
C1659 C1660 1.396 1_455 S
C1659 C1664 1.390 . S
C1660 C1654 1.465 . S
C1660 C1659 1.396 1_655 S
C1660 C1661 1.399 . S
C1661 H1647 0.929 . S
C1661 C1660 1.399 . S
C1661 C1662 1.385 . S
C1662 H1648 0.931 . S
C1662 C1661 1.385 . S
C1662 C1663 1.389 . S
C1663 C1662 1.389 . S
C1663 C1664 1.387 1_655 S
C1664 H1649 0.930 . S
C1664 C1659 1.390 . S
C1664 C1663 1.387 1_455 S
H1665 C1677 0.930 . S
H1666 C1679 0.930 . S
H1667 C1680 0.930 . S
H1668 C1684 0.959 . S
H1669 C1684 0.959 . S
H1670 C1684 0.961 . S
H1671 C1685 0.960 . S
H1672 C1685 0.961 . S
H1673 C1685 0.959 . S
H1674 C1688 0.929 . S
H1675 C1689 0.931 . S
H1676 C1691 0.930 . S
C1677 H1665 0.930 . S
C1677 C1678 1.399 . S
C1677 C1682 1.399 . S
C1678 C1677 1.399 . S
C1678 C1679 1.376 . S
C1679 H1666 0.930 . S
C1679 C1678 1.376 . S
C1679 C1680 1.388 . S
C1680 H1667 0.930 . S
C1680 C1679 1.388 . S
C1680 C1681 1.390 . S
C1681 C1680 1.390 . S
C1681 C1682 1.394 . S
C1681 C1687 1.465 . S
C1682 C1677 1.399 . S
C1682 C1681 1.394 . S
C1682 C1683 1.516 . S
C1683 C1682 1.516 . S
C1683 C1684 1.502 . S
C1683 C1685 1.561 . S
C1683 C1686 1.526 . S
C1684 H1668 0.959 . S
C1684 H1669 0.959 . S
C1684 H1670 0.961 . S
C1684 C1683 1.502 . S
C1685 H1671 0.960 . S
C1685 H1672 0.961 . S
C1685 H1673 0.959 . S
C1685 C1683 1.561 . S
C1686 C1683 1.526 . S
C1686 C1687 1.396 . S
C1686 C1691 1.390 . S
C1687 C1681 1.465 . S
C1687 C1686 1.396 . S
C1687 C1688 1.399 . S
C1688 H1674 0.929 . S
C1688 C1687 1.399 . S
C1688 C1689 1.385 . S
C1689 H1675 0.931 . S
C1689 C1688 1.385 . S
C1689 C1690 1.389 . S
C1690 C1689 1.389 . S
C1690 C1691 1.387 . S
C1691 H1676 0.930 . S
C1691 C1686 1.390 . S
C1691 C1690 1.387 . S
H1692 C1704 0.930 . S
H1693 C1706 0.930 . S
H1694 C1707 0.930 . S
H1695 C1711 0.959 . S
H1696 C1711 0.959 . S
H1697 C1711 0.961 . S
H1698 C1712 0.960 . S
H1699 C1712 0.961 . S
H1700 C1712 0.959 . S
H1701 C1715 0.929 . S
H1702 C1716 0.931 . S
H1703 C1718 0.930 . S
C1704 H1692 0.930 . S
C1704 C1705 1.399 . S
C1704 C1709 1.399 . S
C1705 C1704 1.399 . S
C1705 C1706 1.376 . S
C1706 H1693 0.930 . S
C1706 C1705 1.376 . S
C1706 C1707 1.388 . S
C1707 H1694 0.930 . S
C1707 C1706 1.388 . S
C1707 C1708 1.390 . S
C1708 C1707 1.390 . S
C1708 C1709 1.394 . S
C1708 C1714 1.465 . S
C1709 C1704 1.399 . S
C1709 C1708 1.394 . S
C1709 C1710 1.516 . S
C1710 C1709 1.516 . S
C1710 C1711 1.502 . S
C1710 C1712 1.561 . S
C1710 C1713 1.526 . S
C1711 H1695 0.959 . S
C1711 H1696 0.959 . S
C1711 H1697 0.961 . S
C1711 C1710 1.502 . S
C1712 H1698 0.960 . S
C1712 H1699 0.961 . S
C1712 H1700 0.959 . S
C1712 C1710 1.561 . S
C1713 C1710 1.526 . S
C1713 C1714 1.396 . S
C1713 C1718 1.390 . S
C1714 C1708 1.465 . S
C1714 C1713 1.396 . S
C1714 C1715 1.399 . S
C1715 H1701 0.929 . S
C1715 C1714 1.399 . S
C1715 C1716 1.385 . S
C1716 H1702 0.931 . S
C1716 C1715 1.385 . S
C1716 C1717 1.389 . S
C1717 C1716 1.389 . S
C1717 C1718 1.387 . S
C1718 H1703 0.930 . S
C1718 C1713 1.390 . S
C1718 C1717 1.387 . S
H1719 C1731 0.930 . S
H1720 C1733 0.930 . S
H1721 C1734 0.930 . S
H1722 C1738 0.959 . S
H1723 C1738 0.959 . S
H1724 C1738 0.961 . S
H1725 C1739 0.960 . S
H1726 C1739 0.961 . S
H1727 C1739 0.959 . S
H1728 C1742 0.929 . S
H1729 C1743 0.931 . S
H1730 C1745 0.930 . S
C1731 H1719 0.930 . S
C1731 C1732 1.399 . S
C1731 C1736 1.399 . S
C1732 C1731 1.399 . S
C1732 C1733 1.376 . S
C1733 H1720 0.930 . S
C1733 C1732 1.376 . S
C1733 C1734 1.388 . S
C1734 H1721 0.930 . S
C1734 C1733 1.388 . S
C1734 C1735 1.390 . S
C1735 C1734 1.390 . S
C1735 C1736 1.394 . S
C1735 C1741 1.465 . S
C1736 C1731 1.399 . S
C1736 C1735 1.394 . S
C1736 C1737 1.516 . S
C1737 C1736 1.516 . S
C1737 C1738 1.502 . S
C1737 C1739 1.561 . S
C1737 C1740 1.526 . S
C1738 H1722 0.959 . S
C1738 H1723 0.959 . S
C1738 H1724 0.961 . S
C1738 C1737 1.502 . S
C1739 H1725 0.960 . S
C1739 H1726 0.961 . S
C1739 H1727 0.959 . S
C1739 C1737 1.561 . S
C1740 C1737 1.526 . S
C1740 C1741 1.396 . S
C1740 C1745 1.390 . S
C1741 C1735 1.465 . S
C1741 C1740 1.396 . S
C1741 C1742 1.399 . S
C1742 H1728 0.929 . S
C1742 C1741 1.399 . S
C1742 C1743 1.385 . S
C1743 H1729 0.931 . S
C1743 C1742 1.385 . S
C1743 C1744 1.389 . S
C1744 C1743 1.389 . S
C1744 C1745 1.387 . S
C1745 H1730 0.930 . S
C1745 C1740 1.390 . S
C1745 C1744 1.387 . S
H1746 C1758 0.930 . S
H1747 C1760 0.930 . S
H1748 C1761 0.930 . S
H1749 C1765 0.959 . S
H1750 C1765 0.959 . S
H1751 C1765 0.961 . S
H1752 C1766 0.960 . S
H1753 C1766 0.961 . S
H1754 C1766 0.959 . S
H1755 C1769 0.929 . S
H1756 C1770 0.931 . S
H1757 C1772 0.930 . S
C1758 H1746 0.930 . S
C1758 C1759 1.399 . S
C1758 C1763 1.399 . S
C1759 C1758 1.399 . S
C1759 C1760 1.376 . S
C1760 H1747 0.930 . S
C1760 C1759 1.376 . S
C1760 C1761 1.388 . S
C1761 H1748 0.930 . S
C1761 C1760 1.388 . S
C1761 C1762 1.390 . S
C1762 C1761 1.390 . S
C1762 C1763 1.394 . S
C1762 C1768 1.465 . S
C1763 C1758 1.399 . S
C1763 C1762 1.394 . S
C1763 C1764 1.516 . S
C1764 C1763 1.516 . S
C1764 C1765 1.502 . S
C1764 C1766 1.561 . S
C1764 C1767 1.526 . S
C1765 H1749 0.959 . S
C1765 H1750 0.959 . S
C1765 H1751 0.961 . S
C1765 C1764 1.502 . S
C1766 H1752 0.960 . S
C1766 H1753 0.961 . S
C1766 H1754 0.959 . S
C1766 C1764 1.561 . S
C1767 C1764 1.526 . S
C1767 C1768 1.396 . S
C1767 C1772 1.390 . S
C1768 C1762 1.465 . S
C1768 C1767 1.396 . S
C1768 C1769 1.399 . S
C1769 H1755 0.929 . S
C1769 C1768 1.399 . S
C1769 C1770 1.385 . S
C1770 H1756 0.931 . S
C1770 C1769 1.385 . S
C1770 C1771 1.389 . S
C1771 C1770 1.389 . S
C1771 C1772 1.387 . S
C1772 H1757 0.930 . S
C1772 C1767 1.390 . S
C1772 C1771 1.387 . S
H1773 C1785 0.930 . S
H1774 C1787 0.930 . S
H1775 C1788 0.930 . S
H1776 C1792 0.959 . S
H1777 C1792 0.959 . S
H1778 C1792 0.961 . S
H1779 C1793 0.960 . S
H1780 C1793 0.961 . S
H1781 C1793 0.959 . S
H1782 C1796 0.929 . S
H1783 C1797 0.931 . S
H1784 C1799 0.930 . S
C1785 H1773 0.930 . S
C1785 C1786 1.399 . S
C1785 C1790 1.399 . S
C1786 C1785 1.399 . S
C1786 C1787 1.376 . S
C1787 H1774 0.930 . S
C1787 C1786 1.376 . S
C1787 C1788 1.388 . S
C1788 H1775 0.930 . S
C1788 C1787 1.388 . S
C1788 C1789 1.390 . S
C1789 C1788 1.390 . S
C1789 C1790 1.394 . S
C1789 C1795 1.465 . S
C1790 C1785 1.399 . S
C1790 C1789 1.394 . S
C1790 C1791 1.516 . S
C1791 C1790 1.516 . S
C1791 C1792 1.502 . S
C1791 C1793 1.561 . S
C1791 C1794 1.526 . S
C1792 H1776 0.959 . S
C1792 H1777 0.959 . S
C1792 H1778 0.961 . S
C1792 C1791 1.502 . S
C1793 H1779 0.960 . S
C1793 H1780 0.961 . S
C1793 H1781 0.959 . S
C1793 C1791 1.561 . S
C1794 C1791 1.526 . S
C1794 C1795 1.396 . S
C1794 C1799 1.390 . S
C1795 C1789 1.465 . S
C1795 C1794 1.396 . S
C1795 C1796 1.399 . S
C1796 H1782 0.929 . S
C1796 C1795 1.399 . S
C1796 C1797 1.385 . S
C1797 H1783 0.931 . S
C1797 C1796 1.385 . S
C1797 C1798 1.389 . S
C1798 C1797 1.389 . S
C1798 C1799 1.387 . S
C1799 H1784 0.930 . S
C1799 C1794 1.390 . S
C1799 C1798 1.387 . S
H1800 C1812 0.930 . S
H1801 C1814 0.930 . S
H1802 C1815 0.930 . S
H1803 C1819 0.959 . S
H1804 C1819 0.959 . S
H1805 C1819 0.961 . S
H1806 C1820 0.960 . S
H1807 C1820 0.961 . S
H1808 C1820 0.959 . S
H1809 C1823 0.929 . S
H1810 C1824 0.931 . S
H1811 C1826 0.930 . S
C1812 H1800 0.930 . S
C1812 C1813 1.399 . S
C1812 C1817 1.399 . S
C1813 C1812 1.399 . S
C1813 C1814 1.376 . S
C1814 H1801 0.930 . S
C1814 C1813 1.376 . S
C1814 C1815 1.388 . S
C1815 H1802 0.930 . S
C1815 C1814 1.388 . S
C1815 C1816 1.390 . S
C1816 C1815 1.390 . S
C1816 C1817 1.394 . S
C1816 C1822 1.465 . S
C1817 C1812 1.399 . S
C1817 C1816 1.394 . S
C1817 C1818 1.516 . S
C1818 C1817 1.516 . S
C1818 C1819 1.502 . S
C1818 C1820 1.561 . S
C1818 C1821 1.526 . S
C1819 H1803 0.959 . S
C1819 H1804 0.959 . S
C1819 H1805 0.961 . S
C1819 C1818 1.502 . S
C1820 H1806 0.960 . S
C1820 H1807 0.961 . S
C1820 H1808 0.959 . S
C1820 C1818 1.561 . S
C1821 C1818 1.526 . S
C1821 C1822 1.396 . S
C1821 C1826 1.390 . S
C1822 C1816 1.465 . S
C1822 C1821 1.396 . S
C1822 C1823 1.399 . S
C1823 H1809 0.929 . S
C1823 C1822 1.399 . S
C1823 C1824 1.385 . S
C1824 H1810 0.931 . S
C1824 C1823 1.385 . S
C1824 C1825 1.389 . S
C1825 C1824 1.389 . S
C1825 C1826 1.387 . S
C1826 H1811 0.930 . S
C1826 C1821 1.390 . S
C1826 C1825 1.387 . S
H1827 C1839 0.930 . S
H1828 C1841 0.930 . S
H1829 C1842 0.930 . S
H1830 C1846 0.959 . S
H1831 C1846 0.959 . S
H1832 C1846 0.961 . S
H1833 C1847 0.960 . S
H1834 C1847 0.961 . S
H1835 C1847 0.959 . S
H1836 C1850 0.929 . S
H1837 C1851 0.931 . S
H1838 C1853 0.930 . S
C1839 H1827 0.930 . S
C1839 C1840 1.399 . S
C1839 C1844 1.399 . S
C1840 C1839 1.399 . S
C1840 C1841 1.376 . S
C1841 H1828 0.930 . S
C1841 C1840 1.376 . S
C1841 C1842 1.388 . S
C1842 H1829 0.930 . S
C1842 C1841 1.388 . S
C1842 C1843 1.390 . S
C1843 C1842 1.390 . S
C1843 C1844 1.394 . S
C1843 C1849 1.465 . S
C1844 C1839 1.399 . S
C1844 C1843 1.394 . S
C1844 C1845 1.516 . S
C1845 C1844 1.516 . S
C1845 C1846 1.502 . S
C1845 C1847 1.561 . S
C1845 C1848 1.526 . S
C1846 H1830 0.959 . S
C1846 H1831 0.959 . S
C1846 H1832 0.961 . S
C1846 C1845 1.502 . S
C1847 H1833 0.960 . S
C1847 H1834 0.961 . S
C1847 H1835 0.959 . S
C1847 C1845 1.561 . S
C1848 C1845 1.526 . S
C1848 C1849 1.396 . S
C1848 C1853 1.390 . S
C1849 C1843 1.465 . S
C1849 C1848 1.396 . S
C1849 C1850 1.399 . S
C1850 H1836 0.929 . S
C1850 C1849 1.399 . S
C1850 C1851 1.385 . S
C1851 H1837 0.931 . S
C1851 C1850 1.385 . S
C1851 C1852 1.389 . S
C1852 C1851 1.389 . S
C1852 C1853 1.387 . S
C1853 H1838 0.930 . S
C1853 C1848 1.390 . S
C1853 C1852 1.387 . S
H1854 C1866 0.930 . S
H1855 C1868 0.930 . S
H1856 C1869 0.930 . S
H1857 C1873 0.959 . S
H1858 C1873 0.959 . S
H1859 C1873 0.961 . S
H1860 C1874 0.960 . S
H1861 C1874 0.961 . S
H1862 C1874 0.959 . S
H1863 C1877 0.929 . S
H1864 C1878 0.931 . S
H1865 C1880 0.930 . S
C1866 H1854 0.930 . S
C1866 C1867 1.399 . S
C1866 C1871 1.399 . S
C1867 C1866 1.399 . S
C1867 C1868 1.376 . S
C1868 H1855 0.930 . S
C1868 C1867 1.376 . S
C1868 C1869 1.388 . S
C1869 H1856 0.930 . S
C1869 C1868 1.388 . S
C1869 C1870 1.390 . S
C1870 C1869 1.390 . S
C1870 C1871 1.394 . S
C1870 C1876 1.465 . S
C1871 C1866 1.399 . S
C1871 C1870 1.394 . S
C1871 C1872 1.516 . S
C1872 C1871 1.516 . S
C1872 C1873 1.502 . S
C1872 C1874 1.561 . S
C1872 C1875 1.526 . S
C1873 H1857 0.959 . S
C1873 H1858 0.959 . S
C1873 H1859 0.961 . S
C1873 C1872 1.502 . S
C1874 H1860 0.960 . S
C1874 H1861 0.961 . S
C1874 H1862 0.959 . S
C1874 C1872 1.561 . S
C1875 C1872 1.526 . S
C1875 C1876 1.396 . S
C1875 C1880 1.390 . S
C1876 C1870 1.465 . S
C1876 C1875 1.396 . S
C1876 C1877 1.399 . S
C1877 H1863 0.929 . S
C1877 C1876 1.399 . S
C1877 C1878 1.385 . S
C1878 H1864 0.931 . S
C1878 C1877 1.385 . S
C1878 C1879 1.389 . S
C1879 C1878 1.389 . S
C1879 C1880 1.387 . S
C1880 H1865 0.930 . S
C1880 C1875 1.390 . S
C1880 C1879 1.387 . S
H1881 C1893 0.930 . S
H1882 C1895 0.930 . S
H1883 C1896 0.930 . S
H1884 C1900 0.959 . S
H1885 C1900 0.959 . S
H1886 C1900 0.961 . S
H1887 C1901 0.960 . S
H1888 C1901 0.961 . S
H1889 C1901 0.959 . S
H1890 C1904 0.929 . S
H1891 C1905 0.931 . S
H1892 C1907 0.930 . S
C1893 H1881 0.930 . S
C1893 C1894 1.399 . S
C1893 C1898 1.399 . S
C1894 C1893 1.399 . S
C1894 C1895 1.376 . S
C1895 H1882 0.930 . S
C1895 C1894 1.376 . S
C1895 C1896 1.388 . S
C1896 H1883 0.930 . S
C1896 C1895 1.388 . S
C1896 C1897 1.390 . S
C1897 C1896 1.390 . S
C1897 C1898 1.394 . S
C1897 C1903 1.465 . S
C1898 C1893 1.399 . S
C1898 C1897 1.394 . S
C1898 C1899 1.516 . S
C1899 C1898 1.516 . S
C1899 C1900 1.502 . S
C1899 C1901 1.561 . S
C1899 C1902 1.526 . S
C1900 H1884 0.959 . S
C1900 H1885 0.959 . S
C1900 H1886 0.961 . S
C1900 C1899 1.502 . S
C1901 H1887 0.960 . S
C1901 H1888 0.961 . S
C1901 H1889 0.959 . S
C1901 C1899 1.561 . S
C1902 C1899 1.526 . S
C1902 C1903 1.396 . S
C1902 C1907 1.390 . S
C1903 C1897 1.465 . S
C1903 C1902 1.396 . S
C1903 C1904 1.399 . S
C1904 H1890 0.929 . S
C1904 C1903 1.399 . S
C1904 C1905 1.385 . S
C1905 H1891 0.931 . S
C1905 C1904 1.385 . S
C1905 C1906 1.389 . S
C1906 C1905 1.389 . S
C1906 C1907 1.387 . S
C1907 H1892 0.930 . S
C1907 C1902 1.390 . S
C1907 C1906 1.387 . S
H1908 C1920 0.930 . S
H1909 C1922 0.930 . S
H1910 C1923 0.930 . S
H1911 C1927 0.959 . S
H1912 C1927 0.959 . S
H1913 C1927 0.961 . S
H1914 C1928 0.960 . S
H1915 C1928 0.961 . S
H1916 C1928 0.959 . S
H1917 C1931 0.929 . S
H1918 C1932 0.931 . S
H1919 C1934 0.930 . S
C1920 H1908 0.930 . S
C1920 C1921 1.399 . S
C1920 C1925 1.399 . S
C1921 C1920 1.399 . S
C1921 C1922 1.376 . S
C1922 H1909 0.930 . S
C1922 C1921 1.376 . S
C1922 C1923 1.388 . S
C1923 H1910 0.930 . S
C1923 C1922 1.388 . S
C1923 C1924 1.390 . S
C1924 C1923 1.390 . S
C1924 C1925 1.394 . S
C1924 C1930 1.465 . S
C1925 C1920 1.399 . S
C1925 C1924 1.394 . S
C1925 C1926 1.516 . S
C1926 C1925 1.516 . S
C1926 C1927 1.502 . S
C1926 C1928 1.561 . S
C1926 C1929 1.526 . S
C1927 H1911 0.959 . S
C1927 H1912 0.959 . S
C1927 H1913 0.961 . S
C1927 C1926 1.502 . S
C1928 H1914 0.960 . S
C1928 H1915 0.961 . S
C1928 H1916 0.959 . S
C1928 C1926 1.561 . S
C1929 C1926 1.526 . S
C1929 C1930 1.396 . S
C1929 C1934 1.390 . S
C1930 C1924 1.465 . S
C1930 C1929 1.396 . S
C1930 C1931 1.399 . S
C1931 H1917 0.929 . S
C1931 C1930 1.399 . S
C1931 C1932 1.385 . S
C1932 H1918 0.931 . S
C1932 C1931 1.385 . S
C1932 C1933 1.389 . S
C1933 C1932 1.389 . S
C1933 C1934 1.387 . S
C1934 H1919 0.930 . S
C1934 C1929 1.390 . S
C1934 C1933 1.387 . S
H1935 C1947 0.930 . S
H1936 C1949 0.930 . S
H1937 C1950 0.930 . S
H1938 C1954 0.959 . S
H1939 C1954 0.959 . S
H1940 C1954 0.961 . S
H1941 C1955 0.960 . S
H1942 C1955 0.961 . S
H1943 C1955 0.959 . S
H1944 C1958 0.929 . S
H1945 C1959 0.931 . S
H1946 C1961 0.930 . S
C1947 H1935 0.930 . S
C1947 C1948 1.399 . S
C1947 C1952 1.399 . S
C1948 C1947 1.399 . S
C1948 C1949 1.376 . S
C1949 H1936 0.930 . S
C1949 C1948 1.376 . S
C1949 C1950 1.388 . S
C1950 H1937 0.930 . S
C1950 C1949 1.388 . S
C1950 C1951 1.390 . S
C1951 C1950 1.390 . S
C1951 C1952 1.394 . S
C1951 C1957 1.465 . S
C1952 C1947 1.399 . S
C1952 C1951 1.394 . S
C1952 C1953 1.516 . S
C1953 C1952 1.516 . S
C1953 C1954 1.502 . S
C1953 C1955 1.561 . S
C1953 C1956 1.526 . S
C1954 H1938 0.959 . S
C1954 H1939 0.959 . S
C1954 H1940 0.961 . S
C1954 C1953 1.502 . S
C1955 H1941 0.960 . S
C1955 H1942 0.961 . S
C1955 H1943 0.959 . S
C1955 C1953 1.561 . S
C1956 C1953 1.526 . S
C1956 C1957 1.396 . S
C1956 C1961 1.390 . S
C1957 C1951 1.465 . S
C1957 C1956 1.396 . S
C1957 C1958 1.399 . S
C1958 H1944 0.929 . S
C1958 C1957 1.399 . S
C1958 C1959 1.385 . S
C1959 H1945 0.931 . S
C1959 C1958 1.385 . S
C1959 C1960 1.389 . S
C1960 C1959 1.389 . S
C1960 C1961 1.387 . S
C1961 H1946 0.930 . S
C1961 C1956 1.390 . S
C1961 C1960 1.387 . S
H1962 C1974 0.930 . S
H1963 C1976 0.930 . S
H1964 C1977 0.930 . S
H1965 C1981 0.959 . S
H1966 C1981 0.959 . S
H1967 C1981 0.961 . S
H1968 C1982 0.960 . S
H1969 C1982 0.961 . S
H1970 C1982 0.959 . S
H1971 C1985 0.929 . S
H1972 C1986 0.931 . S
H1973 C1988 0.930 . S
C1974 H1962 0.930 . S
C1974 C1975 1.399 . S
C1974 C1979 1.399 . S
C1975 C1974 1.399 . S
C1975 C1976 1.376 . S
C1976 H1963 0.930 . S
C1976 C1975 1.376 . S
C1976 C1977 1.388 . S
C1977 H1964 0.930 . S
C1977 C1976 1.388 . S
C1977 C1978 1.390 . S
C1978 C1977 1.390 . S
C1978 C1979 1.394 . S
C1978 C1984 1.465 . S
C1979 C1974 1.399 . S
C1979 C1978 1.394 . S
C1979 C1980 1.516 . S
C1980 C1979 1.516 . S
C1980 C1981 1.502 . S
C1980 C1982 1.561 . S
C1980 C1983 1.526 . S
C1981 H1965 0.959 . S
C1981 H1966 0.959 . S
C1981 H1967 0.961 . S
C1981 C1980 1.502 . S
C1982 H1968 0.960 . S
C1982 H1969 0.961 . S
C1982 H1970 0.959 . S
C1982 C1980 1.561 . S
C1983 C1980 1.526 . S
C1983 C1984 1.396 . S
C1983 C1988 1.390 . S
C1984 C1978 1.465 . S
C1984 C1983 1.396 . S
C1984 C1985 1.399 . S
C1985 H1971 0.929 . S
C1985 C1984 1.399 . S
C1985 C1986 1.385 . S
C1986 H1972 0.931 . S
C1986 C1985 1.385 . S
C1986 C1987 1.389 . S
C1987 C1986 1.389 . S
C1987 C1988 1.387 . S
C1988 H1973 0.930 . S
C1988 C1983 1.390 . S
C1988 C1987 1.387 . S
H1989 C2001 0.930 . S
H1990 C2003 0.930 . S
H1991 C2004 0.930 . S
H1992 C2008 0.959 . S
H1993 C2008 0.959 . S
H1994 C2008 0.961 . S
H1995 C2009 0.960 . S
H1996 C2009 0.961 . S
H1997 C2009 0.959 . S
H1998 C2012 0.929 . S
H1999 C2013 0.931 . S
H2000 C2015 0.930 . S
C2001 H1989 0.930 . S
C2001 C2002 1.399 . S
C2001 C2006 1.399 . S
C2002 C2001 1.399 . S
C2002 C2003 1.376 . S
C2003 H1990 0.930 . S
C2003 C2002 1.376 . S
C2003 C2004 1.388 . S
C2004 H1991 0.930 . S
C2004 C2003 1.388 . S
C2004 C2005 1.390 . S
C2005 C2004 1.390 . S
C2005 C2006 1.394 . S
C2005 C2011 1.465 . S
C2006 C2001 1.399 . S
C2006 C2005 1.394 . S
C2006 C2007 1.516 . S
C2007 C2006 1.516 . S
C2007 C2008 1.502 . S
C2007 C2009 1.561 . S
C2007 C2010 1.526 . S
C2008 H1992 0.959 . S
C2008 H1993 0.959 . S
C2008 H1994 0.961 . S
C2008 C2007 1.502 . S
C2009 H1995 0.960 . S
C2009 H1996 0.961 . S
C2009 H1997 0.959 . S
C2009 C2007 1.561 . S
C2010 C2007 1.526 . S
C2010 C2011 1.396 . S
C2010 C2015 1.390 . S
C2011 C2005 1.465 . S
C2011 C2010 1.396 . S
C2011 C2012 1.399 . S
C2012 H1998 0.929 . S
C2012 C2011 1.399 . S
C2012 C2013 1.385 . S
C2013 H1999 0.931 . S
C2013 C2012 1.385 . S
C2013 C2014 1.389 . S
C2014 C2013 1.389 . S
C2014 C2015 1.387 . S
C2015 H2000 0.930 . S
C2015 C2010 1.390 . S
C2015 C2014 1.387 . S
H2016 C2028 0.930 . S
H2017 C2030 0.930 . S
H2018 C2031 0.930 . S
H2019 C2035 0.959 . S
H2020 C2035 0.959 . S
H2021 C2035 0.961 . S
H2022 C2036 0.960 . S
H2023 C2036 0.961 . S
H2024 C2036 0.959 . S
H2025 C2039 0.929 . S
H2026 C2040 0.931 . S
H2027 C2042 0.930 . S
C2028 H2016 0.930 . S
C2028 C2029 1.399 . S
C2028 C2033 1.399 . S
C2029 C2028 1.399 . S
C2029 C2030 1.376 . S
C2030 H2017 0.930 . S
C2030 C2029 1.376 . S
C2030 C2031 1.388 . S
C2031 H2018 0.930 . S
C2031 C2030 1.388 . S
C2031 C2032 1.390 . S
C2032 C2031 1.390 . S
C2032 C2033 1.394 . S
C2032 C2038 1.465 . S
C2033 C2028 1.399 . S
C2033 C2032 1.394 . S
C2033 C2034 1.516 . S
C2034 C2033 1.516 . S
C2034 C2035 1.502 . S
C2034 C2036 1.561 . S
C2034 C2037 1.526 . S
C2035 H2019 0.959 . S
C2035 H2020 0.959 . S
C2035 H2021 0.961 . S
C2035 C2034 1.502 . S
C2036 H2022 0.960 . S
C2036 H2023 0.961 . S
C2036 H2024 0.959 . S
C2036 C2034 1.561 . S
C2037 C2034 1.526 . S
C2037 C2038 1.396 . S
C2037 C2042 1.390 . S
C2038 C2032 1.465 . S
C2038 C2037 1.396 . S
C2038 C2039 1.399 . S
C2039 H2025 0.929 . S
C2039 C2038 1.399 . S
C2039 C2040 1.385 . S
C2040 H2026 0.931 . S
C2040 C2039 1.385 . S
C2040 C2041 1.389 . S
C2041 C2040 1.389 . S
C2041 C2042 1.387 . S
C2042 H2027 0.930 . S
C2042 C2037 1.390 . S
C2042 C2041 1.387 . S
H2043 C2055 0.930 . S
H2044 C2057 0.930 . S
H2045 C2058 0.930 . S
H2046 C2062 0.959 . S
H2047 C2062 0.959 . S
H2048 C2062 0.961 . S
H2049 C2063 0.960 . S
H2050 C2063 0.961 . S
H2051 C2063 0.959 . S
H2052 C2066 0.929 . S
H2053 C2067 0.931 . S
H2054 C2069 0.930 . S
C2055 H2043 0.930 . S
C2055 C2056 1.399 . S
C2055 C2060 1.399 . S
C2056 C2055 1.399 . S
C2056 C2057 1.376 . S
C2057 H2044 0.930 . S
C2057 C2056 1.376 . S
C2057 C2058 1.388 . S
C2058 H2045 0.930 . S
C2058 C2057 1.388 . S
C2058 C2059 1.390 . S
C2059 C2058 1.390 . S
C2059 C2060 1.394 . S
C2059 C2065 1.465 . S
C2060 C2055 1.399 . S
C2060 C2059 1.394 . S
C2060 C2061 1.516 . S
C2061 C2060 1.516 . S
C2061 C2062 1.502 . S
C2061 C2063 1.561 . S
C2061 C2064 1.526 . S
C2062 H2046 0.959 . S
C2062 H2047 0.959 . S
C2062 H2048 0.961 . S
C2062 C2061 1.502 . S
C2063 H2049 0.960 . S
C2063 H2050 0.961 . S
C2063 H2051 0.959 . S
C2063 C2061 1.561 . S
C2064 C2061 1.526 . S
C2064 C2065 1.396 . S
C2064 C2069 1.390 . S
C2065 C2059 1.465 . S
C2065 C2064 1.396 . S
C2065 C2066 1.399 . S
C2066 H2052 0.929 . S
C2066 C2065 1.399 . S
C2066 C2067 1.385 . S
C2067 H2053 0.931 . S
C2067 C2066 1.385 . S
C2067 C2068 1.389 . S
C2068 C2067 1.389 . S
C2068 C2069 1.387 . S
C2069 H2054 0.930 . S
C2069 C2064 1.390 . S
C2069 C2068 1.387 . S
H2070 C2082 0.930 . S
H2071 C2084 0.930 . S
H2072 C2085 0.930 . S
H2073 C2089 0.959 . S
H2074 C2089 0.959 . S
H2075 C2089 0.961 . S
H2076 C2090 0.960 . S
H2077 C2090 0.961 . S
H2078 C2090 0.959 . S
H2079 C2093 0.929 . S
H2080 C2094 0.931 . S
H2081 C2096 0.930 . S
C2082 H2070 0.930 . S
C2082 C2083 1.399 . S
C2082 C2087 1.399 . S
C2083 C2082 1.399 . S
C2083 C2084 1.376 . S
C2084 H2071 0.930 . S
C2084 C2083 1.376 . S
C2084 C2085 1.388 . S
C2085 H2072 0.930 . S
C2085 C2084 1.388 . S
C2085 C2086 1.390 . S
C2086 C2085 1.390 . S
C2086 C2087 1.394 . S
C2086 C2092 1.465 . S
C2087 C2082 1.399 . S
C2087 C2086 1.394 . S
C2087 C2088 1.516 . S
C2088 C2087 1.516 . S
C2088 C2089 1.502 . S
C2088 C2090 1.561 . S
C2088 C2091 1.526 . S
C2089 H2073 0.959 . S
C2089 H2074 0.959 . S
C2089 H2075 0.961 . S
C2089 C2088 1.502 . S
C2090 H2076 0.960 . S
C2090 H2077 0.961 . S
C2090 H2078 0.959 . S
C2090 C2088 1.561 . S
C2091 C2088 1.526 . S
C2091 C2092 1.396 . S
C2091 C2096 1.390 . S
C2092 C2086 1.465 . S
C2092 C2091 1.396 . S
C2092 C2093 1.399 . S
C2093 H2079 0.929 . S
C2093 C2092 1.399 . S
C2093 C2094 1.385 . S
C2094 H2080 0.931 . S
C2094 C2093 1.385 . S
C2094 C2095 1.389 . S
C2095 C2094 1.389 . S
C2095 C2096 1.387 . S
C2096 H2081 0.930 . S
C2096 C2091 1.390 . S
C2096 C2095 1.387 . S
H2097 C2109 0.930 . S
H2098 C2111 0.930 . S
H2099 C2112 0.930 . S
H2100 C2116 0.959 . S
H2101 C2116 0.959 . S
H2102 C2116 0.961 . S
H2103 C2117 0.960 . S
H2104 C2117 0.961 . S
H2105 C2117 0.959 . S
H2106 C2120 0.929 . S
H2107 C2121 0.931 . S
H2108 C2123 0.930 . S
C2109 H2097 0.930 . S
C2109 C2110 1.399 . S
C2109 C2114 1.399 . S
C2110 C2109 1.399 . S
C2110 C2111 1.376 . S
C2111 H2098 0.930 . S
C2111 C2110 1.376 . S
C2111 C2112 1.388 . S
C2112 H2099 0.930 . S
C2112 C2111 1.388 . S
C2112 C2113 1.390 . S
C2113 C2112 1.390 . S
C2113 C2114 1.394 . S
C2113 C2119 1.465 . S
C2114 C2109 1.399 . S
C2114 C2113 1.394 . S
C2114 C2115 1.516 . S
C2115 C2114 1.516 . S
C2115 C2116 1.502 . S
C2115 C2117 1.561 . S
C2115 C2118 1.526 . S
C2116 H2100 0.959 . S
C2116 H2101 0.959 . S
C2116 H2102 0.961 . S
C2116 C2115 1.502 . S
C2117 H2103 0.960 . S
C2117 H2104 0.961 . S
C2117 H2105 0.959 . S
C2117 C2115 1.561 . S
C2118 C2115 1.526 . S
C2118 C2119 1.396 . S
C2118 C2123 1.390 . S
C2119 C2113 1.465 . S
C2119 C2118 1.396 . S
C2119 C2120 1.399 . S
C2120 H2106 0.929 . S
C2120 C2119 1.399 . S
C2120 C2121 1.385 . S
C2121 H2107 0.931 . S
C2121 C2120 1.385 . S
C2121 C2122 1.389 . S
C2122 C2121 1.389 . S
C2122 C2123 1.387 . S
C2123 H2108 0.930 . S
C2123 C2118 1.390 . S
C2123 C2122 1.387 . S
H2124 C2136 0.930 . S
H2125 C2138 0.930 . S
H2126 C2139 0.930 . S
H2127 C2143 0.959 . S
H2128 C2143 0.959 . S
H2129 C2143 0.961 . S
H2130 C2144 0.960 . S
H2131 C2144 0.961 . S
H2132 C2144 0.959 . S
H2133 C2147 0.929 . S
H2134 C2148 0.931 . S
H2135 C2150 0.930 . S
C2136 H2124 0.930 . S
C2136 C2137 1.399 . S
C2136 C2141 1.399 . S
C2137 C2136 1.399 . S
C2137 C2138 1.376 . S
C2138 H2125 0.930 . S
C2138 C2137 1.376 . S
C2138 C2139 1.388 . S
C2139 H2126 0.930 . S
C2139 C2138 1.388 . S
C2139 C2140 1.390 . S
C2140 C2139 1.390 . S
C2140 C2141 1.394 . S
C2140 C2146 1.465 . S
C2141 C2136 1.399 . S
C2141 C2140 1.394 . S
C2141 C2142 1.516 . S
C2142 C2141 1.516 . S
C2142 C2143 1.502 . S
C2142 C2144 1.561 . S
C2142 C2145 1.526 . S
C2143 H2127 0.959 . S
C2143 H2128 0.959 . S
C2143 H2129 0.961 . S
C2143 C2142 1.502 . S
C2144 H2130 0.960 . S
C2144 H2131 0.961 . S
C2144 H2132 0.959 . S
C2144 C2142 1.561 . S
C2145 C2142 1.526 . S
C2145 C2146 1.396 . S
C2145 C2150 1.390 . S
C2146 C2140 1.465 . S
C2146 C2145 1.396 . S
C2146 C2147 1.399 . S
C2147 H2133 0.929 . S
C2147 C2146 1.399 . S
C2147 C2148 1.385 . S
C2148 H2134 0.931 . S
C2148 C2147 1.385 . S
C2148 C2149 1.389 . S
C2149 C2148 1.389 . S
C2149 C2150 1.387 . S
C2150 H2135 0.930 . S
C2150 C2145 1.390 . S
C2150 C2149 1.387 . S
H2151 C2163 0.930 . S
H2152 C2165 0.930 . S
H2153 C2166 0.930 . S
H2154 C2170 0.959 . S
H2155 C2170 0.959 . S
H2156 C2170 0.961 . S
H2157 C2171 0.960 . S
H2158 C2171 0.961 . S
H2159 C2171 0.959 . S
H2160 C2174 0.929 . S
H2161 C2175 0.931 . S
H2162 C2177 0.930 . S
C2163 H2151 0.930 . S
C2163 C2164 1.399 . S
C2163 C2168 1.399 . S
C2164 C2163 1.399 . S
C2164 C2165 1.376 . S
C2165 H2152 0.930 . S
C2165 C2164 1.376 . S
C2165 C2166 1.388 . S
C2166 H2153 0.930 . S
C2166 C2165 1.388 . S
C2166 C2167 1.390 . S
C2167 C2166 1.390 . S
C2167 C2168 1.394 . S
C2167 C2173 1.465 . S
C2168 C2163 1.399 . S
C2168 C2167 1.394 . S
C2168 C2169 1.516 . S
C2169 C2168 1.516 . S
C2169 C2170 1.502 . S
C2169 C2171 1.561 . S
C2169 C2172 1.526 . S
C2170 H2154 0.959 . S
C2170 H2155 0.959 . S
C2170 H2156 0.961 . S
C2170 C2169 1.502 . S
C2171 H2157 0.960 . S
C2171 H2158 0.961 . S
C2171 H2159 0.959 . S
C2171 C2169 1.561 . S
C2172 C2169 1.526 . S
C2172 C2173 1.396 . S
C2172 C2177 1.390 . S
C2173 C2167 1.465 . S
C2173 C2172 1.396 . S
C2173 C2174 1.399 . S
C2174 H2160 0.929 . S
C2174 C2173 1.399 . S
C2174 C2175 1.385 . S
C2175 H2161 0.931 . S
C2175 C2174 1.385 . S
C2175 C2176 1.389 . S
C2176 C2175 1.389 . S
C2176 C2177 1.387 . S
C2177 H2162 0.930 . S
C2177 C2172 1.390 . S
C2177 C2176 1.387 . S
H2178 C2190 0.930 . S
H2179 C2192 0.930 . S
H2180 C2193 0.930 . S
H2181 C2197 0.959 . S
H2182 C2197 0.959 . S
H2183 C2197 0.961 . S
H2184 C2198 0.960 . S
H2185 C2198 0.961 . S
H2186 C2198 0.959 . S
H2187 C2201 0.929 . S
H2188 C2202 0.931 . S
H2189 C2204 0.930 . S
C2190 H2178 0.930 . S
C2190 C2191 1.399 . S
C2190 C2195 1.399 . S
C2191 C2190 1.399 . S
C2191 C2192 1.376 . S
C2192 H2179 0.930 . S
C2192 C2191 1.376 . S
C2192 C2193 1.388 . S
C2193 H2180 0.930 . S
C2193 C2192 1.388 . S
C2193 C2194 1.390 . S
C2194 C2193 1.390 . S
C2194 C2195 1.394 . S
C2194 C2200 1.465 . S
C2195 C2190 1.399 . S
C2195 C2194 1.394 . S
C2195 C2196 1.516 . S
C2196 C2195 1.516 . S
C2196 C2197 1.502 . S
C2196 C2198 1.561 . S
C2196 C2199 1.526 . S
C2197 H2181 0.959 . S
C2197 H2182 0.959 . S
C2197 H2183 0.961 . S
C2197 C2196 1.502 . S
C2198 H2184 0.960 . S
C2198 H2185 0.961 . S
C2198 H2186 0.959 . S
C2198 C2196 1.561 . S
C2199 C2196 1.526 . S
C2199 C2200 1.396 . S
C2199 C2204 1.390 . S
C2200 C2194 1.465 . S
C2200 C2199 1.396 . S
C2200 C2201 1.399 . S
C2201 H2187 0.929 . S
C2201 C2200 1.399 . S
C2201 C2202 1.385 . S
C2202 H2188 0.931 . S
C2202 C2201 1.385 . S
C2202 C2203 1.389 . S
C2203 C2202 1.389 . S
C2203 C2204 1.387 . S
C2204 H2189 0.930 . S
C2204 C2199 1.390 . S
C2204 C2203 1.387 . S
H2205 C2217 0.930 . S
H2206 C2219 0.930 . S
H2207 C2220 0.930 . S
H2208 C2224 0.959 . S
H2209 C2224 0.959 . S
H2210 C2224 0.961 . S
H2211 C2225 0.960 . S
H2212 C2225 0.961 . S
H2213 C2225 0.959 . S
H2214 C2228 0.929 . S
H2215 C2229 0.931 . S
H2216 C2231 0.930 . S
C2217 H2205 0.930 . S
C2217 C2218 1.399 . S
C2217 C2222 1.399 . S
C2218 C2217 1.399 . S
C2218 C2219 1.376 . S
C2219 H2206 0.930 . S
C2219 C2218 1.376 . S
C2219 C2220 1.388 . S
C2220 H2207 0.930 . S
C2220 C2219 1.388 . S
C2220 C2221 1.390 . S
C2221 C2220 1.390 . S
C2221 C2222 1.394 . S
C2221 C2227 1.465 . S
C2222 C2217 1.399 . S
C2222 C2221 1.394 . S
C2222 C2223 1.516 . S
C2223 C2222 1.516 . S
C2223 C2224 1.502 . S
C2223 C2225 1.561 . S
C2223 C2226 1.526 . S
C2224 H2208 0.959 . S
C2224 H2209 0.959 . S
C2224 H2210 0.961 . S
C2224 C2223 1.502 . S
C2225 H2211 0.960 . S
C2225 H2212 0.961 . S
C2225 H2213 0.959 . S
C2225 C2223 1.561 . S
C2226 C2223 1.526 . S
C2226 C2227 1.396 . S
C2226 C2231 1.390 . S
C2227 C2221 1.465 . S
C2227 C2226 1.396 . S
C2227 C2228 1.399 . S
C2228 H2214 0.929 . S
C2228 C2227 1.399 . S
C2228 C2229 1.385 . S
C2229 H2215 0.931 . S
C2229 C2228 1.385 . S
C2229 C2230 1.389 . S
C2230 C2229 1.389 . S
C2230 C2231 1.387 . S
C2231 H2216 0.930 . S
C2231 C2226 1.390 . S
C2231 C2230 1.387 . S
H2232 C2244 0.930 . S
H2233 C2246 0.930 . S
H2234 C2247 0.930 . S
H2235 C2251 0.959 . S
H2236 C2251 0.959 . S
H2237 C2251 0.961 . S
H2238 C2252 0.960 . S
H2239 C2252 0.961 . S
H2240 C2252 0.959 . S
H2241 C2255 0.929 . S
H2242 C2256 0.931 . S
H2243 C2258 0.930 . S
C2244 H2232 0.930 . S
C2244 C2245 1.399 . S
C2244 C2249 1.399 . S
C2245 C2244 1.399 . S
C2245 C2246 1.376 . S
C2246 H2233 0.930 . S
C2246 C2245 1.376 . S
C2246 C2247 1.388 . S
C2247 H2234 0.930 . S
C2247 C2246 1.388 . S
C2247 C2248 1.390 . S
C2248 C2247 1.390 . S
C2248 C2249 1.394 . S
C2248 C2254 1.465 . S
C2249 C2244 1.399 . S
C2249 C2248 1.394 . S
C2249 C2250 1.516 . S
C2250 C2249 1.516 . S
C2250 C2251 1.502 . S
C2250 C2252 1.561 . S
C2250 C2253 1.526 . S
C2251 H2235 0.959 . S
C2251 H2236 0.959 . S
C2251 H2237 0.961 . S
C2251 C2250 1.502 . S
C2252 H2238 0.960 . S
C2252 H2239 0.961 . S
C2252 H2240 0.959 . S
C2252 C2250 1.561 . S
C2253 C2250 1.526 . S
C2253 C2254 1.396 . S
C2253 C2258 1.390 . S
C2254 C2248 1.465 . S
C2254 C2253 1.396 . S
C2254 C2255 1.399 . S
C2255 H2241 0.929 . S
C2255 C2254 1.399 . S
C2255 C2256 1.385 . S
C2256 H2242 0.931 . S
C2256 C2255 1.385 . S
C2256 C2257 1.389 . S
C2257 C2256 1.389 . S
C2257 C2258 1.387 . S
C2258 H2243 0.930 . S
C2258 C2253 1.390 . S
C2258 C2257 1.387 . S
H2259 C2271 0.930 . S
H2260 C2273 0.930 . S
H2261 C2274 0.930 . S
H2262 C2278 0.959 . S
H2263 C2278 0.959 . S
H2264 C2278 0.961 . S
H2265 C2279 0.960 . S
H2266 C2279 0.961 . S
H2267 C2279 0.959 . S
H2268 C2282 0.929 . S
H2269 C2283 0.931 . S
H2270 C2285 0.930 . S
C2271 H2259 0.930 . S
C2271 C2272 1.399 . S
C2271 C2276 1.399 . S
C2272 C2271 1.399 . S
C2272 C2273 1.376 . S
C2273 H2260 0.930 . S
C2273 C2272 1.376 . S
C2273 C2274 1.388 . S
C2274 H2261 0.930 . S
C2274 C2273 1.388 . S
C2274 C2275 1.390 . S
C2275 C2274 1.390 . S
C2275 C2276 1.394 . S
C2275 C2281 1.465 . S
C2276 C2271 1.399 . S
C2276 C2275 1.394 . S
C2276 C2277 1.516 . S
C2277 C2276 1.516 . S
C2277 C2278 1.502 . S
C2277 C2279 1.561 . S
C2277 C2280 1.526 . S
C2278 H2262 0.959 . S
C2278 H2263 0.959 . S
C2278 H2264 0.961 . S
C2278 C2277 1.502 . S
C2279 H2265 0.960 . S
C2279 H2266 0.961 . S
C2279 H2267 0.959 . S
C2279 C2277 1.561 . S
C2280 C2277 1.526 . S
C2280 C2281 1.396 . S
C2280 C2285 1.390 . S
C2281 C2275 1.465 . S
C2281 C2280 1.396 . S
C2281 C2282 1.399 . S
C2282 H2268 0.929 . S
C2282 C2281 1.399 . S
C2282 C2283 1.385 . S
C2283 H2269 0.931 . S
C2283 C2282 1.385 . S
C2283 C2284 1.389 . S
C2284 C2283 1.389 . S
C2284 C2285 1.387 . S
C2285 H2270 0.930 . S
C2285 C2280 1.390 . S
C2285 C2284 1.387 . S
H2286 C2298 0.930 . S
H2287 C2300 0.930 . S
H2288 C2301 0.930 . S
H2289 C2305 0.959 . S
H2290 C2305 0.959 . S
H2291 C2305 0.961 . S
H2292 C2306 0.960 . S
H2293 C2306 0.961 . S
H2294 C2306 0.959 . S
H2295 C2309 0.929 . S
H2296 C2310 0.931 . S
H2297 C2312 0.930 . S
C2298 H2286 0.930 . S
C2298 C2299 1.399 . S
C2298 C2303 1.399 . S
C2299 C2298 1.399 . S
C2299 C2300 1.376 . S
C2300 H2287 0.930 . S
C2300 C2299 1.376 . S
C2300 C2301 1.388 . S
C2301 H2288 0.930 . S
C2301 C2300 1.388 . S
C2301 C2302 1.390 . S
C2302 C2301 1.390 . S
C2302 C2303 1.394 . S
C2302 C2308 1.465 . S
C2303 C2298 1.399 . S
C2303 C2302 1.394 . S
C2303 C2304 1.516 . S
C2304 C2303 1.516 . S
C2304 C2305 1.502 . S
C2304 C2306 1.561 . S
C2304 C2307 1.526 . S
C2305 H2289 0.959 . S
C2305 H2290 0.959 . S
C2305 H2291 0.961 . S
C2305 C2304 1.502 . S
C2306 H2292 0.960 . S
C2306 H2293 0.961 . S
C2306 H2294 0.959 . S
C2306 C2304 1.561 . S
C2307 C2304 1.526 . S
C2307 C2308 1.396 . S
C2307 C2312 1.390 . S
C2308 C2302 1.465 . S
C2308 C2307 1.396 . S
C2308 C2309 1.399 . S
C2309 H2295 0.929 . S
C2309 C2308 1.399 . S
C2309 C2310 1.385 . S
C2310 H2296 0.931 . S
C2310 C2309 1.385 . S
C2310 C2311 1.389 . S
C2311 C2310 1.389 . S
C2311 C2312 1.387 . S
C2312 H2297 0.930 . S
C2312 C2307 1.390 . S
C2312 C2311 1.387 . S
H2313 C2325 0.930 . S
H2314 C2327 0.930 . S
H2315 C2328 0.930 . S
H2316 C2332 0.959 . S
H2317 C2332 0.959 . S
H2318 C2332 0.961 . S
H2319 C2333 0.960 . S
H2320 C2333 0.961 . S
H2321 C2333 0.959 . S
H2322 C2336 0.929 . S
H2323 C2337 0.931 . S
H2324 C2339 0.930 . S
C2325 H2313 0.930 . S
C2325 C2326 1.399 . S
C2325 C2330 1.399 . S
C2326 C2325 1.399 . S
C2326 C2327 1.376 . S
C2327 H2314 0.930 . S
C2327 C2326 1.376 . S
C2327 C2328 1.388 . S
C2328 H2315 0.930 . S
C2328 C2327 1.388 . S
C2328 C2329 1.390 . S
C2329 C2328 1.390 . S
C2329 C2330 1.394 . S
C2329 C2335 1.465 . S
C2330 C2325 1.399 . S
C2330 C2329 1.394 . S
C2330 C2331 1.516 . S
C2331 C2330 1.516 . S
C2331 C2332 1.502 . S
C2331 C2333 1.561 . S
C2331 C2334 1.526 . S
C2332 H2316 0.959 . S
C2332 H2317 0.959 . S
C2332 H2318 0.961 . S
C2332 C2331 1.502 . S
C2333 H2319 0.960 . S
C2333 H2320 0.961 . S
C2333 H2321 0.959 . S
C2333 C2331 1.561 . S
C2334 C2331 1.526 . S
C2334 C2335 1.396 . S
C2334 C2339 1.390 . S
C2335 C2329 1.465 . S
C2335 C2334 1.396 . S
C2335 C2336 1.399 . S
C2336 H2322 0.929 . S
C2336 C2335 1.399 . S
C2336 C2337 1.385 . S
C2337 H2323 0.931 . S
C2337 C2336 1.385 . S
C2337 C2338 1.389 . S
C2338 C2337 1.389 . S
C2338 C2339 1.387 . S
C2339 H2324 0.930 . S
C2339 C2334 1.390 . S
C2339 C2338 1.387 . S
H2340 C2352 0.930 . S
H2341 C2354 0.930 . S
H2342 C2355 0.930 . S
H2343 C2359 0.959 . S
H2344 C2359 0.959 . S
H2345 C2359 0.961 . S
H2346 C2360 0.960 . S
H2347 C2360 0.961 . S
H2348 C2360 0.959 . S
H2349 C2363 0.929 . S
H2350 C2364 0.931 . S
H2351 C2366 0.930 . S
C2352 H2340 0.930 . S
C2352 C2353 1.399 . S
C2352 C2357 1.399 . S
C2353 C2352 1.399 . S
C2353 C2354 1.376 . S
C2354 H2341 0.930 . S
C2354 C2353 1.376 . S
C2354 C2355 1.388 . S
C2355 H2342 0.930 . S
C2355 C2354 1.388 . S
C2355 C2356 1.390 . S
C2356 C2355 1.390 . S
C2356 C2357 1.394 . S
C2356 C2362 1.465 . S
C2357 C2352 1.399 . S
C2357 C2356 1.394 . S
C2357 C2358 1.516 . S
C2358 C2357 1.516 . S
C2358 C2359 1.502 . S
C2358 C2360 1.561 . S
C2358 C2361 1.526 . S
C2359 H2343 0.959 . S
C2359 H2344 0.959 . S
C2359 H2345 0.961 . S
C2359 C2358 1.502 . S
C2360 H2346 0.960 . S
C2360 H2347 0.961 . S
C2360 H2348 0.959 . S
C2360 C2358 1.561 . S
C2361 C2358 1.526 . S
C2361 C2362 1.396 . S
C2361 C2366 1.390 . S
C2362 C2356 1.465 . S
C2362 C2361 1.396 . S
C2362 C2363 1.399 . S
C2363 H2349 0.929 . S
C2363 C2362 1.399 . S
C2363 C2364 1.385 . S
C2364 H2350 0.931 . S
C2364 C2363 1.385 . S
C2364 C2365 1.389 . S
C2365 C2364 1.389 . S
C2365 C2366 1.387 . S
C2366 H2351 0.930 . S
C2366 C2361 1.390 . S
C2366 C2365 1.387 . S
H2367 C2379 0.930 . S
H2368 C2381 0.930 . S
H2369 C2382 0.930 . S
H2370 C2386 0.959 . S
H2371 C2386 0.959 . S
H2372 C2386 0.961 . S
H2373 C2387 0.946 1_556 S
H2374 C2387 0.953 1_556 S
H2375 C2387 0.961 . S
H2376 C2390 0.929 . S
H2377 C2391 0.931 . S
H2378 C2393 0.930 . S
C2379 H2367 0.930 . S
C2379 C2380 1.399 . S
C2379 C2384 1.399 . S
C2380 C2379 1.399 . S
C2380 C2381 1.376 . S
C2381 H2368 0.930 . S
C2381 C2380 1.376 . S
C2381 C2382 1.388 . S
C2382 H2369 0.930 . S
C2382 C2381 1.388 . S
C2382 C2383 1.390 . S
C2383 C2382 1.390 . S
C2383 C2384 1.394 . S
C2383 C2389 1.465 . S
C2384 C2379 1.399 . S
C2384 C2383 1.394 . S
C2384 C2385 1.516 . S
C2385 C2384 1.516 . S
C2385 C2386 1.502 . S
C2385 C2387 1.581 . S
C2385 C2388 1.526 . S
C2386 H2370 0.959 . S
C2386 H2371 0.959 . S
C2386 H2372 0.961 . S
C2386 C2385 1.502 . S
C2387 H2373 0.946 1_554 S
C2387 H2374 0.953 1_554 S
C2387 H2375 0.961 . S
C2387 C2385 1.581 . S
C2388 C2385 1.526 . S
C2388 C2389 1.396 . S
C2388 C2393 1.390 . S
C2389 C2383 1.465 . S
C2389 C2388 1.396 . S
C2389 C2390 1.399 . S
C2390 H2376 0.929 . S
C2390 C2389 1.399 . S
C2390 C2391 1.385 . S
C2391 H2377 0.931 . S
C2391 C2390 1.385 . S
C2391 C2392 1.389 . S
C2392 C2391 1.389 . S
C2392 C2393 1.387 . S
C2393 H2378 0.930 . S
C2393 C2388 1.390 . S
C2393 C2392 1.387 . S
H2394 C2406 0.930 . S
H2395 C2408 0.930 . S
H2396 C2409 0.930 . S
H2397 C2413 0.959 . S
H2398 C2413 0.960 . S
H2399 C2413 0.961 1_556 S
H2400 C2414 0.960 1_556 S
H2401 C2414 0.959 1_556 S
H2402 C2414 0.959 . S
H2403 C2417 0.929 . S
H2404 C2418 0.931 . S
H2405 C2420 0.930 . S
C2406 H2394 0.930 . S
C2406 C2407 1.399 . S
C2406 C2411 1.399 . S
C2407 C2406 1.399 . S
C2407 C2408 1.376 . S
C2408 H2395 0.930 . S
C2408 C2407 1.376 . S
C2408 C2409 1.388 . S
C2409 H2396 0.930 . S
C2409 C2408 1.388 . S
C2409 C2410 1.390 . S
C2410 C2409 1.390 . S
C2410 C2411 1.394 . S
C2410 C2416 1.465 . S
C2411 C2406 1.399 . S
C2411 C2410 1.394 . S
C2411 C2412 1.516 . S
C2412 C2411 1.516 . S
C2412 C2413 1.502 . S
C2412 C2414 1.561 . S
C2412 C2415 1.526 . S
C2413 H2397 0.959 . S
C2413 H2398 0.960 . S
C2413 H2399 0.961 1_554 S
C2413 C2412 1.502 . S
C2414 H2400 0.960 1_554 S
C2414 H2401 0.959 1_554 S
C2414 H2402 0.959 . S
C2414 C2412 1.561 . S
C2415 C2412 1.526 . S
C2415 C2416 1.396 . S
C2415 C2420 1.390 . S
C2416 C2410 1.465 . S
C2416 C2415 1.396 . S
C2416 C2417 1.399 . S
C2417 H2403 0.929 . S
C2417 C2416 1.399 . S
C2417 C2418 1.385 . S
C2418 H2404 0.931 . S
C2418 C2417 1.385 . S
C2418 C2419 1.389 . S
C2419 C2418 1.389 . S
C2419 C2420 1.387 . S
C2420 H2405 0.930 . S
C2420 C2415 1.390 . S
C2420 C2419 1.387 . S
H2421 C2433 0.930 . S
H2422 C2435 0.930 . S
H2423 C2436 0.930 . S
H2424 C2440 0.959 . S
H2425 C2440 0.959 . S
H2426 C2440 0.961 . S
H2427 C2441 0.960 . S
H2428 C2441 0.961 . S
H2429 C2441 0.959 1_556 S
H2430 C2444 0.929 . S
H2431 C2445 0.931 . S
H2432 C2447 0.930 . S
C2433 H2421 0.930 . S
C2433 C2434 1.399 1_554 S
C2433 C2438 1.399 1_554 S
C2434 C2433 1.399 1_556 S
C2434 C2435 1.376 . S
C2435 H2422 0.930 . S
C2435 C2434 1.376 . S
C2435 C2436 1.388 . S
C2436 H2423 0.930 . S
C2436 C2435 1.388 . S
C2436 C2437 1.390 . S
C2437 C2436 1.390 . S
C2437 C2438 1.394 . S
C2437 C2443 1.465 . S
C2438 C2433 1.399 1_556 S
C2438 C2437 1.394 . S
C2438 C2439 1.516 1_556 S
C2439 C2438 1.516 1_554 S
C2439 C2440 1.502 . S
C2439 C2441 1.561 . S
C2439 C2442 1.526 1_554 S
C2440 H2424 0.959 . S
C2440 H2425 0.959 . S
C2440 H2426 0.961 . S
C2440 C2439 1.502 . S
C2441 H2427 0.960 . S
C2441 H2428 0.961 . S
C2441 H2429 0.959 1_554 S
C2441 C2439 1.561 . S
C2442 C2439 1.526 1_556 S
C2442 C2443 1.396 . S
C2442 C2447 1.390 . S
C2443 C2437 1.465 . S
C2443 C2442 1.396 . S
C2443 C2444 1.399 . S
C2444 H2430 0.929 . S
C2444 C2443 1.399 . S
C2444 C2445 1.385 . S
C2445 H2431 0.931 . S
C2445 C2444 1.385 . S
C2445 C2446 1.389 . S
C2446 C2445 1.389 . S
C2446 C2447 1.387 . S
C2447 H2432 0.930 . S
C2447 C2442 1.390 . S
C2447 C2446 1.387 . S
H2448 C2460 0.930 . S
H2449 C2462 0.930 . S
H2450 C2463 0.930 . S
H2451 C2467 0.959 . S
H2452 C2467 0.959 . S
H2453 C2467 0.961 . S
H2454 C2468 0.960 . S
H2455 C2468 0.961 . S
H2456 C2468 0.959 . S
H2457 C2471 0.910 1_554 S
H2458 C2472 0.931 . S
H2459 C2474 0.930 . S
C2460 H2448 0.930 . S
C2460 C2461 1.399 . S
C2460 C2465 1.399 . S
C2461 C2460 1.399 . S
C2461 C2462 1.376 1_556 S
C2462 H2449 0.930 . S
C2462 C2461 1.376 1_554 S
C2462 C2463 1.388 . S
C2463 H2450 0.930 . S
C2463 C2462 1.388 . S
C2463 C2464 1.390 1_554 S
C2464 C2463 1.390 1_556 S
C2464 C2465 1.394 . S
C2464 C2470 1.465 . S
C2465 C2460 1.399 . S
C2465 C2464 1.394 . S
C2465 C2466 1.516 . S
C2466 C2465 1.516 . S
C2466 C2467 1.502 . S
C2466 C2468 1.561 . S
C2466 C2469 1.526 . S
C2467 H2451 0.959 . S
C2467 H2452 0.959 . S
C2467 H2453 0.961 . S
C2467 C2466 1.502 . S
C2468 H2454 0.960 . S
C2468 H2455 0.961 . S
C2468 H2456 0.959 . S
C2468 C2466 1.561 . S
C2469 C2466 1.526 . S
C2469 C2470 1.396 . S
C2469 C2474 1.390 . S
C2470 C2464 1.465 . S
C2470 C2469 1.396 . S
C2470 C2471 1.410 . S
C2471 H2457 0.910 1_556 S
C2471 C2470 1.410 . S
C2471 C2472 1.393 . S
C2472 H2458 0.931 . S
C2472 C2471 1.393 . S
C2472 C2473 1.389 . S
C2473 C2472 1.389 . S
C2473 C2474 1.387 . S
C2474 H2459 0.930 . S
C2474 C2469 1.390 . S
C2474 C2473 1.387 . S
H2475 C2487 0.930 . S
H2476 C2489 0.941 . S
H2477 C2490 0.932 . S
H2478 C2494 0.959 . S
H2479 C2494 0.959 . S
H2480 C2494 0.961 . S
H2481 C2495 0.960 . S
H2482 C2495 0.961 . S
H2483 C2495 0.959 . S
H2484 C2498 0.929 . S
H2485 C2499 0.931 . S
H2486 C2501 0.930 . S
C2487 H2475 0.930 . S
C2487 C2488 1.399 . S
C2487 C2492 1.399 . S
C2488 C2487 1.399 . S
C2488 C2489 1.371 1_556 S
C2489 H2476 0.941 . S
C2489 C2488 1.371 1_554 S
C2489 C2490 1.383 1_554 S
C2490 H2477 0.932 . S
C2490 C2489 1.383 1_556 S
C2490 C2491 1.390 . S
C2491 C2490 1.390 . S
C2491 C2492 1.394 . S
C2491 C2497 1.465 . S
C2492 C2487 1.399 . S
C2492 C2491 1.394 . S
C2492 C2493 1.516 . S
C2493 C2492 1.516 . S
C2493 C2494 1.502 . S
C2493 C2495 1.561 . S
C2493 C2496 1.526 . S
C2494 H2478 0.959 . S
C2494 H2479 0.959 . S
C2494 H2480 0.961 . S
C2494 C2493 1.502 . S
C2495 H2481 0.960 . S
C2495 H2482 0.961 . S
C2495 H2483 0.959 . S
C2495 C2493 1.561 . S
C2496 C2493 1.526 . S
C2496 C2497 1.396 . S
C2496 C2501 1.390 . S
C2497 C2491 1.465 . S
C2497 C2496 1.396 . S
C2497 C2498 1.399 . S
C2498 H2484 0.929 . S
C2498 C2497 1.399 . S
C2498 C2499 1.385 . S
C2499 H2485 0.931 . S
C2499 C2498 1.385 . S
C2499 C2500 1.389 . S
C2500 C2499 1.389 . S
C2500 C2501 1.387 . S
C2501 H2486 0.930 . S
C2501 C2496 1.390 . S
C2501 C2500 1.387 . S
H2502 C2514 0.930 . S
H2503 C2516 0.930 . S
H2504 C2517 0.930 . S
H2505 C2521 0.959 . S
H2506 C2521 0.959 . S
H2507 C2521 0.961 . S
H2508 C2522 0.960 . S
H2509 C2522 0.961 . S
H2510 C2522 0.959 . S
H2511 C2525 0.929 . S
H2512 C2526 0.931 . S
H2513 C2528 0.930 . S
C2514 H2502 0.930 . S
C2514 C2515 1.399 1_554 S
C2514 C2519 1.399 1_554 S
C2515 C2514 1.399 1_556 S
C2515 C2516 1.376 . S
C2516 H2503 0.930 . S
C2516 C2515 1.376 . S
C2516 C2517 1.388 . S
C2517 H2504 0.930 . S
C2517 C2516 1.388 . S
C2517 C2518 1.390 . S
C2518 C2517 1.390 . S
C2518 C2519 1.394 . S
C2518 C2524 1.465 . S
C2519 C2514 1.399 1_556 S
C2519 C2518 1.394 . S
C2519 C2520 1.516 1_556 S
C2520 C2519 1.516 1_554 S
C2520 C2521 1.502 . S
C2520 C2522 1.561 . S
C2520 C2523 1.526 1_554 S
C2521 H2505 0.959 . S
C2521 H2506 0.959 . S
C2521 H2507 0.961 . S
C2521 C2520 1.502 . S
C2522 H2508 0.960 . S
C2522 H2509 0.961 . S
C2522 H2510 0.959 . S
C2522 C2520 1.561 . S
C2523 C2520 1.526 1_556 S
C2523 C2524 1.396 . S
C2523 C2528 1.390 . S
C2524 C2518 1.465 . S
C2524 C2523 1.396 . S
C2524 C2525 1.399 . S
C2525 H2511 0.929 . S
C2525 C2524 1.399 . S
C2525 C2526 1.385 . S
C2526 H2512 0.931 . S
C2526 C2525 1.385 . S
C2526 C2527 1.389 . S
C2527 C2526 1.389 . S
C2527 C2528 1.387 . S
C2528 H2513 0.930 . S
C2528 C2523 1.390 . S
C2528 C2527 1.387 . S
H2529 C2541 0.930 . S
H2530 C2543 0.930 . S
H2531 C2544 0.930 . S
H2532 C2548 0.959 . S
H2533 C2548 0.959 . S
H2534 C2548 0.961 . S
H2535 C2549 0.960 . S
H2536 C2549 0.961 . S
H2537 C2549 0.959 . S
H2538 C2552 0.929 . S
H2539 C2553 0.931 . S
H2540 C2555 0.930 . S
C2541 H2529 0.930 . S
C2541 C2542 1.399 1_554 S
C2541 C2546 1.399 1_554 S
C2542 C2541 1.399 1_556 S
C2542 C2543 1.376 . S
C2543 H2530 0.930 . S
C2543 C2542 1.376 . S
C2543 C2544 1.388 . S
C2544 H2531 0.930 . S
C2544 C2543 1.388 . S
C2544 C2545 1.390 . S
C2545 C2544 1.390 . S
C2545 C2546 1.394 . S
C2545 C2551 1.465 . S
C2546 C2541 1.399 1_556 S
C2546 C2545 1.394 . S
C2546 C2547 1.516 1_556 S
C2547 C2546 1.516 1_554 S
C2547 C2548 1.502 . S
C2547 C2549 1.561 . S
C2547 C2550 1.526 1_554 S
C2548 H2532 0.959 . S
C2548 H2533 0.959 . S
C2548 H2534 0.961 . S
C2548 C2547 1.502 . S
C2549 H2535 0.960 . S
C2549 H2536 0.961 . S
C2549 H2537 0.959 . S
C2549 C2547 1.561 . S
C2550 C2547 1.526 1_556 S
C2550 C2551 1.396 . S
C2550 C2555 1.390 . S
C2551 C2545 1.465 . S
C2551 C2550 1.396 . S
C2551 C2552 1.399 . S
C2552 H2538 0.929 . S
C2552 C2551 1.399 . S
C2552 C2553 1.385 . S
C2553 H2539 0.931 . S
C2553 C2552 1.385 . S
C2553 C2554 1.389 . S
C2554 C2553 1.389 . S
C2554 C2555 1.387 . S
C2555 H2540 0.930 . S
C2555 C2550 1.390 . S
C2555 C2554 1.387 . S
H2556 C2568 0.930 . S
H2557 C2570 0.930 . S
H2558 C2571 0.930 . S
H2559 C2575 0.959 . S
H2560 C2575 0.959 . S
H2561 C2575 0.961 . S
H2562 C2576 0.960 . S
H2563 C2576 0.961 . S
H2564 C2576 0.959 . S
H2565 C2579 0.929 . S
H2566 C2580 0.931 . S
H2567 C2582 0.930 . S
C2568 H2556 0.930 . S
C2568 C2569 1.397 1_554 S
C2568 C2573 1.399 1_554 S
C2569 C2568 1.397 1_556 S
C2569 C2570 1.387 . S
C2570 H2557 0.930 . S
C2570 C2569 1.387 . S
C2570 C2571 1.388 . S
C2571 H2558 0.930 . S
C2571 C2570 1.388 . S
C2571 C2572 1.390 . S
C2572 C2571 1.390 . S
C2572 C2573 1.394 . S
C2572 C2578 1.465 . S
C2573 C2568 1.399 1_556 S
C2573 C2572 1.394 . S
C2573 C2574 1.516 . S
C2574 C2573 1.516 . S
C2574 C2575 1.502 . S
C2574 C2576 1.561 1_556 S
C2574 C2577 1.526 . S
C2575 H2559 0.959 . S
C2575 H2560 0.959 . S
C2575 H2561 0.961 . S
C2575 C2574 1.502 . S
C2576 H2562 0.960 . S
C2576 H2563 0.961 . S
C2576 H2564 0.959 . S
C2576 C2574 1.561 1_554 S
C2577 C2574 1.526 . S
C2577 C2578 1.396 . S
C2577 C2582 1.390 . S
C2578 C2572 1.465 . S
C2578 C2577 1.396 . S
C2578 C2579 1.399 . S
C2579 H2565 0.929 . S
C2579 C2578 1.399 . S
C2579 C2580 1.385 . S
C2580 H2566 0.931 . S
C2580 C2579 1.385 . S
C2580 C2581 1.389 . S
C2581 C2580 1.389 . S
C2581 C2582 1.387 . S
C2582 H2567 0.930 . S
C2582 C2577 1.390 . S
C2582 C2581 1.387 . S
H2583 C2595 0.930 . S
H2584 C2597 0.930 . S
H2585 C2598 0.930 . S
H2586 C2602 0.959 . S
H2587 C2602 0.959 . S
H2588 C2602 0.961 . S
H2589 C2603 0.960 . S
H2590 C2603 0.961 . S
H2591 C2603 0.959 . S
H2592 C2606 0.929 . S
H2593 C2607 0.931 . S
H2594 C2609 0.930 . S
C2595 H2583 0.930 . S
C2595 C2596 1.399 . S
C2595 C2600 1.399 . S
C2596 C2595 1.399 . S
C2596 C2597 1.376 . S
C2597 H2584 0.930 . S
C2597 C2596 1.376 . S
C2597 C2598 1.388 . S
C2598 H2585 0.930 . S
C2598 C2597 1.388 . S
C2598 C2599 1.390 . S
C2599 C2598 1.390 . S
C2599 C2600 1.394 . S
C2599 C2605 1.465 . S
C2600 C2595 1.399 . S
C2600 C2599 1.394 . S
C2600 C2601 1.516 . S
C2601 C2600 1.516 . S
C2601 C2602 1.502 . S
C2601 C2603 1.561 . S
C2601 C2604 1.526 . S
C2602 H2586 0.959 . S
C2602 H2587 0.959 . S
C2602 H2588 0.961 . S
C2602 C2601 1.502 . S
C2603 H2589 0.960 . S
C2603 H2590 0.961 . S
C2603 H2591 0.959 . S
C2603 C2601 1.561 . S
C2604 C2601 1.526 . S
C2604 C2605 1.396 . S
C2604 C2609 1.390 . S
C2605 C2599 1.465 . S
C2605 C2604 1.396 . S
C2605 C2606 1.399 . S
C2606 H2592 0.929 . S
C2606 C2605 1.399 . S
C2606 C2607 1.385 . S
C2607 H2593 0.931 . S
C2607 C2606 1.385 . S
C2607 C2608 1.389 . S
C2608 C2607 1.389 . S
C2608 C2609 1.387 . S
C2609 H2594 0.930 . S
C2609 C2604 1.390 . S
C2609 C2608 1.387 . S
H2610 C2622 0.930 . S
H2611 C2624 0.930 . S
H2612 C2625 0.930 . S
H2613 C2629 0.959 . S
H2614 C2629 0.959 . S
H2615 C2629 0.961 . S
H2616 C2630 0.960 . S
H2617 C2630 0.961 . S
H2618 C2630 0.959 . S
H2619 C2633 0.929 . S
H2620 C2634 0.931 . S
H2621 C2636 0.930 . S
C2622 H2610 0.930 . S
C2622 C2623 1.399 . S
C2622 C2627 1.399 . S
C2623 C2622 1.399 . S
C2623 C2624 1.376 . S
C2624 H2611 0.930 . S
C2624 C2623 1.376 . S
C2624 C2625 1.388 . S
C2625 H2612 0.930 . S
C2625 C2624 1.388 . S
C2625 C2626 1.390 . S
C2626 C2625 1.390 . S
C2626 C2627 1.394 . S
C2626 C2632 1.465 . S
C2627 C2622 1.399 . S
C2627 C2626 1.394 . S
C2627 C2628 1.516 . S
C2628 C2627 1.516 . S
C2628 C2629 1.502 . S
C2628 C2630 1.561 . S
C2628 C2631 1.526 . S
C2629 H2613 0.959 . S
C2629 H2614 0.959 . S
C2629 H2615 0.961 . S
C2629 C2628 1.502 . S
C2630 H2616 0.960 . S
C2630 H2617 0.961 . S
C2630 H2618 0.959 . S
C2630 C2628 1.561 . S
C2631 C2628 1.526 . S
C2631 C2632 1.396 . S
C2631 C2636 1.390 . S
C2632 C2626 1.465 . S
C2632 C2631 1.396 . S
C2632 C2633 1.399 . S
C2633 H2619 0.929 . S
C2633 C2632 1.399 . S
C2633 C2634 1.385 . S
C2634 H2620 0.931 . S
C2634 C2633 1.385 . S
C2634 C2635 1.389 . S
C2635 C2634 1.389 . S
C2635 C2636 1.387 . S
C2636 H2621 0.930 . S
C2636 C2631 1.390 . S
C2636 C2635 1.387 . S
H2637 C2649 0.930 . S
H2638 C2651 0.930 . S
H2639 C2652 0.930 . S
H2640 C2656 0.959 . S
H2641 C2656 0.959 . S
H2642 C2656 0.961 . S
H2643 C2657 0.960 . S
H2644 C2657 0.961 . S
H2645 C2657 0.959 . S
H2646 C2660 0.929 . S
H2647 C2661 0.931 . S
H2648 C2663 0.930 . S
C2649 H2637 0.930 . S
C2649 C2650 1.399 . S
C2649 C2654 1.399 . S
C2650 C2649 1.399 . S
C2650 C2651 1.376 . S
C2651 H2638 0.930 . S
C2651 C2650 1.376 . S
C2651 C2652 1.388 . S
C2652 H2639 0.930 . S
C2652 C2651 1.388 . S
C2652 C2653 1.390 . S
C2653 C2652 1.390 . S
C2653 C2654 1.394 . S
C2653 C2659 1.465 . S
C2654 C2649 1.399 . S
C2654 C2653 1.394 . S
C2654 C2655 1.516 . S
C2655 C2654 1.516 . S
C2655 C2656 1.502 . S
C2655 C2657 1.561 . S
C2655 C2658 1.526 . S
C2656 H2640 0.959 . S
C2656 H2641 0.959 . S
C2656 H2642 0.961 . S
C2656 C2655 1.502 . S
C2657 H2643 0.960 . S
C2657 H2644 0.961 . S
C2657 H2645 0.959 . S
C2657 C2655 1.561 . S
C2658 C2655 1.526 . S
C2658 C2659 1.396 . S
C2658 C2663 1.390 . S
C2659 C2653 1.465 . S
C2659 C2658 1.396 . S
C2659 C2660 1.399 . S
C2660 H2646 0.929 . S
C2660 C2659 1.399 . S
C2660 C2661 1.385 . S
C2661 H2647 0.931 . S
C2661 C2660 1.385 . S
C2661 C2662 1.389 . S
C2662 C2661 1.389 . S
C2662 C2663 1.387 . S
C2663 H2648 0.930 . S
C2663 C2658 1.390 . S
C2663 C2662 1.387 . S
H2664 C2676 0.930 . S
H2665 C2678 0.930 . S
H2666 C2679 0.930 . S
H2667 C2683 0.959 . S
H2668 C2683 0.959 . S
H2669 C2683 0.961 . S
H2670 C2684 0.960 . S
H2671 C2684 0.961 . S
H2672 C2684 0.959 . S
H2673 C2687 0.929 . S
H2674 C2688 0.931 . S
H2675 C2690 0.930 . S
C2676 H2664 0.930 . S
C2676 C2677 1.399 . S
C2676 C2681 1.399 . S
C2677 C2676 1.399 . S
C2677 C2678 1.376 . S
C2678 H2665 0.930 . S
C2678 C2677 1.376 . S
C2678 C2679 1.388 . S
C2679 H2666 0.930 . S
C2679 C2678 1.388 . S
C2679 C2680 1.390 . S
C2680 C2679 1.390 . S
C2680 C2681 1.394 . S
C2680 C2686 1.465 . S
C2681 C2676 1.399 . S
C2681 C2680 1.394 . S
C2681 C2682 1.516 . S
C2682 C2681 1.516 . S
C2682 C2683 1.502 . S
C2682 C2684 1.561 . S
C2682 C2685 1.526 . S
C2683 H2667 0.959 . S
C2683 H2668 0.959 . S
C2683 H2669 0.961 . S
C2683 C2682 1.502 . S
C2684 H2670 0.960 . S
C2684 H2671 0.961 . S
C2684 H2672 0.959 . S
C2684 C2682 1.561 . S
C2685 C2682 1.526 . S
C2685 C2686 1.396 . S
C2685 C2690 1.390 . S
C2686 C2680 1.465 . S
C2686 C2685 1.396 . S
C2686 C2687 1.399 . S
C2687 H2673 0.929 . S
C2687 C2686 1.399 . S
C2687 C2688 1.385 . S
C2688 H2674 0.931 . S
C2688 C2687 1.385 . S
C2688 C2689 1.389 . S
C2689 C2688 1.389 . S
C2689 C2690 1.387 . S
C2690 H2675 0.930 . S
C2690 C2685 1.390 . S
C2690 C2689 1.387 . S
H2691 C2703 0.930 . S
H2692 C2705 0.930 . S
H2693 C2706 0.930 . S
H2694 C2710 0.959 . S
H2695 C2710 0.959 . S
H2696 C2710 0.961 . S
H2697 C2711 0.960 . S
H2698 C2711 0.961 . S
H2699 C2711 0.959 . S
H2700 C2714 0.929 . S
H2701 C2715 0.931 . S
H2702 C2717 0.930 . S
C2703 H2691 0.930 . S
C2703 C2704 1.399 . S
C2703 C2708 1.399 . S
C2704 C2703 1.399 . S
C2704 C2705 1.376 . S
C2705 H2692 0.930 . S
C2705 C2704 1.376 . S
C2705 C2706 1.388 . S
C2706 H2693 0.930 . S
C2706 C2705 1.388 . S
C2706 C2707 1.390 . S
C2707 C2706 1.390 . S
C2707 C2708 1.394 . S
C2707 C2713 1.465 . S
C2708 C2703 1.399 . S
C2708 C2707 1.394 . S
C2708 C2709 1.516 . S
C2709 C2708 1.516 . S
C2709 C2710 1.502 . S
C2709 C2711 1.561 . S
C2709 C2712 1.526 . S
C2710 H2694 0.959 . S
C2710 H2695 0.959 . S
C2710 H2696 0.961 . S
C2710 C2709 1.502 . S
C2711 H2697 0.960 . S
C2711 H2698 0.961 . S
C2711 H2699 0.959 . S
C2711 C2709 1.561 . S
C2712 C2709 1.526 . S
C2712 C2713 1.396 . S
C2712 C2717 1.390 . S
C2713 C2707 1.465 . S
C2713 C2712 1.396 . S
C2713 C2714 1.399 . S
C2714 H2700 0.929 . S
C2714 C2713 1.399 . S
C2714 C2715 1.385 . S
C2715 H2701 0.931 . S
C2715 C2714 1.385 . S
C2715 C2716 1.389 . S
C2716 C2715 1.389 . S
C2716 C2717 1.387 . S
C2717 H2702 0.930 . S
C2717 C2712 1.390 . S
C2717 C2716 1.387 . S
H2718 C2730 0.930 . S
H2719 C2732 0.930 . S
H2720 C2733 0.930 . S
H2721 C2737 0.959 . S
H2722 C2737 0.959 . S
H2723 C2737 0.961 . S
H2724 C2738 0.960 . S
H2725 C2738 0.961 . S
H2726 C2738 0.959 . S
H2727 C2741 0.929 . S
H2728 C2742 0.931 . S
H2729 C2744 0.930 . S
C2730 H2718 0.930 . S
C2730 C2731 1.399 . S
C2730 C2735 1.399 . S
C2731 C2730 1.399 . S
C2731 C2732 1.376 . S
C2732 H2719 0.930 . S
C2732 C2731 1.376 . S
C2732 C2733 1.388 . S
C2733 H2720 0.930 . S
C2733 C2732 1.388 . S
C2733 C2734 1.390 . S
C2734 C2733 1.390 . S
C2734 C2735 1.394 . S
C2734 C2740 1.465 . S
C2735 C2730 1.399 . S
C2735 C2734 1.394 . S
C2735 C2736 1.516 . S
C2736 C2735 1.516 . S
C2736 C2737 1.502 . S
C2736 C2738 1.561 . S
C2736 C2739 1.526 . S
C2737 H2721 0.959 . S
C2737 H2722 0.959 . S
C2737 H2723 0.961 . S
C2737 C2736 1.502 . S
C2738 H2724 0.960 . S
C2738 H2725 0.961 . S
C2738 H2726 0.959 . S
C2738 C2736 1.561 . S
C2739 C2736 1.526 . S
C2739 C2740 1.396 . S
C2739 C2744 1.390 . S
C2740 C2734 1.465 . S
C2740 C2739 1.396 . S
C2740 C2741 1.399 . S
C2741 H2727 0.929 . S
C2741 C2740 1.399 . S
C2741 C2742 1.385 . S
C2742 H2728 0.931 . S
C2742 C2741 1.385 . S
C2742 C2743 1.389 . S
C2743 C2742 1.389 . S
C2743 C2744 1.387 . S
C2744 H2729 0.930 . S
C2744 C2739 1.390 . S
C2744 C2743 1.387 . S
H2745 C2757 0.930 . S
H2746 C2759 0.930 . S
H2747 C2760 0.930 . S
H2748 C2764 0.959 . S
H2749 C2764 0.959 . S
H2750 C2764 0.961 . S
H2751 C2765 0.966 . S
H2752 C2765 0.957 1_655 S
H2753 C2765 0.951 1_655 S
H2754 C2768 0.929 . S
H2755 C2769 0.931 . S
H2756 C2771 0.930 . S
C2757 H2745 0.930 . S
C2757 C2758 1.399 . S
C2757 C2762 1.399 . S
C2758 C2757 1.399 . S
C2758 C2759 1.376 . S
C2759 H2746 0.930 . S
C2759 C2758 1.376 . S
C2759 C2760 1.388 . S
C2760 H2747 0.930 . S
C2760 C2759 1.388 . S
C2760 C2761 1.390 . S
C2761 C2760 1.390 . S
C2761 C2762 1.394 . S
C2761 C2767 1.465 . S
C2762 C2757 1.399 . S
C2762 C2761 1.394 . S
C2762 C2763 1.516 . S
C2763 C2762 1.516 . S
C2763 C2764 1.502 . S
C2763 C2765 1.567 . S
C2763 C2766 1.526 . S
C2764 H2748 0.959 . S
C2764 H2749 0.959 . S
C2764 H2750 0.961 . S
C2764 C2763 1.502 . S
C2765 H2751 0.966 . S
C2765 H2752 0.957 1_455 S
C2765 H2753 0.951 1_455 S
C2765 C2763 1.567 . S
C2766 C2763 1.526 . S
C2766 C2767 1.396 . S
C2766 C2771 1.390 . S
C2767 C2761 1.465 . S
C2767 C2766 1.396 . S
C2767 C2768 1.399 . S
C2768 H2754 0.929 . S
C2768 C2767 1.399 . S
C2768 C2769 1.385 . S
C2769 H2755 0.931 . S
C2769 C2768 1.385 . S
C2769 C2770 1.389 . S
C2770 C2769 1.389 . S
C2770 C2771 1.387 . S
C2771 H2756 0.930 . S
C2771 C2766 1.390 . S
C2771 C2770 1.387 . S
H2772 C2784 0.930 . S
H2773 C2786 0.930 . S
H2774 C2787 0.930 . S
H2775 C2791 0.959 . S
H2776 C2791 0.959 . S
H2777 C2791 0.961 . S
H2778 C2792 0.960 . S
H2779 C2792 0.961 . S
H2780 C2792 0.959 . S
H2781 C2795 0.929 . S
H2782 C2796 0.931 . S
H2783 C2798 0.930 . S
C2784 H2772 0.930 . S
C2784 C2785 1.399 . S
C2784 C2789 1.399 . S
C2785 C2784 1.399 . S
C2785 C2786 1.376 . S
C2786 H2773 0.930 . S
C2786 C2785 1.376 . S
C2786 C2787 1.388 . S
C2787 H2774 0.930 . S
C2787 C2786 1.388 . S
C2787 C2788 1.390 . S
C2788 C2787 1.390 . S
C2788 C2789 1.394 . S
C2788 C2794 1.465 . S
C2789 C2784 1.399 . S
C2789 C2788 1.394 . S
C2789 C2790 1.516 . S
C2790 C2789 1.516 . S
C2790 C2791 1.502 . S
C2790 C2792 1.561 . S
C2790 C2793 1.526 . S
C2791 H2775 0.959 . S
C2791 H2776 0.959 . S
C2791 H2777 0.961 . S
C2791 C2790 1.502 . S
C2792 H2778 0.960 . S
C2792 H2779 0.961 . S
C2792 H2780 0.959 . S
C2792 C2790 1.561 . S
C2793 C2790 1.526 . S
C2793 C2794 1.396 . S
C2793 C2798 1.390 . S
C2794 C2788 1.465 . S
C2794 C2793 1.396 . S
C2794 C2795 1.399 . S
C2795 H2781 0.929 . S
C2795 C2794 1.399 . S
C2795 C2796 1.385 . S
C2796 H2782 0.931 . S
C2796 C2795 1.385 . S
C2796 C2797 1.389 . S
C2797 C2796 1.389 . S
C2797 C2798 1.387 . S
C2798 H2783 0.930 . S
C2798 C2793 1.390 . S
C2798 C2797 1.387 . S
H2799 C2811 0.930 . S
H2800 C2813 0.940 1_545 S
H2801 C2814 0.930 1_545 S
H2802 C2818 0.959 . S
H2803 C2818 0.959 . S
H2804 C2818 0.961 . S
H2805 C2819 0.960 . S
H2806 C2819 0.961 . S
H2807 C2819 0.959 . S
H2808 C2822 0.929 . S
H2809 C2823 0.931 . S
H2810 C2825 0.930 . S
C2811 H2799 0.930 . S
C2811 C2812 1.399 . S
C2811 C2816 1.399 . S
C2812 C2811 1.399 . S
C2812 C2813 1.376 . S
C2813 H2800 0.940 1_565 S
C2813 C2812 1.376 . S
C2813 C2814 1.388 . S
C2814 H2801 0.930 1_565 S
C2814 C2813 1.388 . S
C2814 C2815 1.390 . S
C2815 C2814 1.390 . S
C2815 C2816 1.394 . S
C2815 C2821 1.465 . S
C2816 C2811 1.399 . S
C2816 C2815 1.394 . S
C2816 C2817 1.516 . S
C2817 C2816 1.516 . S
C2817 C2818 1.502 . S
C2817 C2819 1.561 . S
C2817 C2820 1.526 . S
C2818 H2802 0.959 . S
C2818 H2803 0.959 . S
C2818 H2804 0.961 . S
C2818 C2817 1.502 . S
C2819 H2805 0.960 . S
C2819 H2806 0.961 . S
C2819 H2807 0.959 . S
C2819 C2817 1.561 . S
C2820 C2817 1.526 . S
C2820 C2821 1.396 . S
C2820 C2825 1.390 . S
C2821 C2815 1.465 . S
C2821 C2820 1.396 . S
C2821 C2822 1.399 1_565 S
C2822 H2808 0.929 . S
C2822 C2821 1.399 1_545 S
C2822 C2823 1.385 . S
C2823 H2809 0.931 . S
C2823 C2822 1.385 . S
C2823 C2824 1.389 1_545 S
C2824 C2823 1.389 1_565 S
C2824 C2825 1.387 . S
C2825 H2810 0.930 . S
C2825 C2820 1.390 . S
C2825 C2824 1.387 . S
H2826 C2838 0.930 . S
H2827 C2840 0.930 . S
H2828 C2841 0.930 1_545 S
H2829 C2845 0.959 . S
H2830 C2845 0.959 . S
H2831 C2845 0.961 . S
H2832 C2846 0.960 . S
H2833 C2846 0.961 . S
H2834 C2846 0.959 . S
H2835 C2849 0.929 . S
H2836 C2850 0.931 . S
H2837 C2852 0.930 . S
C2838 H2826 0.930 . S
C2838 C2839 1.399 . S
C2838 C2843 1.399 . S
C2839 C2838 1.399 . S
C2839 C2840 1.376 . S
C2840 H2827 0.930 . S
C2840 C2839 1.376 . S
C2840 C2841 1.388 . S
C2841 H2828 0.930 1_565 S
C2841 C2840 1.388 . S
C2841 C2842 1.390 . S
C2842 C2841 1.390 . S
C2842 C2843 1.394 . S
C2842 C2848 1.465 . S
C2843 C2838 1.399 . S
C2843 C2842 1.394 . S
C2843 C2844 1.516 . S
C2844 C2843 1.516 . S
C2844 C2845 1.502 . S
C2844 C2846 1.561 . S
C2844 C2847 1.526 . S
C2845 H2829 0.959 . S
C2845 H2830 0.959 . S
C2845 H2831 0.961 . S
C2845 C2844 1.502 . S
C2846 H2832 0.960 . S
C2846 H2833 0.961 . S
C2846 H2834 0.959 . S
C2846 C2844 1.561 . S
C2847 C2844 1.526 . S
C2847 C2848 1.396 . S
C2847 C2852 1.390 . S
C2848 C2842 1.465 . S
C2848 C2847 1.396 . S
C2848 C2849 1.399 1_565 S
C2849 H2835 0.929 . S
C2849 C2848 1.399 1_545 S
C2849 C2850 1.385 . S
C2850 H2836 0.931 . S
C2850 C2849 1.385 . S
C2850 C2851 1.389 1_545 S
C2851 C2850 1.389 1_565 S
C2851 C2852 1.387 . S
C2852 H2837 0.930 . S
C2852 C2847 1.390 . S
C2852 C2851 1.387 . S
H2853 C2865 0.930 . S
H2854 C2867 0.930 . S
H2855 C2868 0.930 . S
H2856 C2872 0.959 1_655 S
H2857 C2872 0.969 1_655 S
H2858 C2872 0.961 . S
H2859 C2873 0.960 . S
H2860 C2873 0.961 . S
H2861 C2873 0.959 . S
H2862 C2876 0.929 . S
H2863 C2877 0.931 . S
H2864 C2879 0.930 . S
C2865 H2853 0.930 . S
C2865 C2866 1.399 . S
C2865 C2870 1.399 . S
C2866 C2865 1.399 . S
C2866 C2867 1.376 . S
C2867 H2854 0.930 . S
C2867 C2866 1.376 . S
C2867 C2868 1.388 . S
C2868 H2855 0.930 . S
C2868 C2867 1.388 . S
C2868 C2869 1.390 . S
C2869 C2868 1.390 . S
C2869 C2870 1.394 . S
C2869 C2875 1.465 . S
C2870 C2865 1.399 . S
C2870 C2869 1.394 . S
C2870 C2871 1.516 . S
C2871 C2870 1.516 . S
C2871 C2872 1.502 . S
C2871 C2873 1.561 . S
C2871 C2874 1.526 . S
C2872 H2856 0.959 1_455 S
C2872 H2857 0.969 1_455 S
C2872 H2858 0.961 . S
C2872 C2871 1.502 . S
C2873 H2859 0.960 . S
C2873 H2860 0.961 . S
C2873 H2861 0.959 . S
C2873 C2871 1.561 . S
C2874 C2871 1.526 . S
C2874 C2875 1.396 . S
C2874 C2879 1.390 . S
C2875 C2869 1.465 . S
C2875 C2874 1.396 . S
C2875 C2876 1.399 . S
C2876 H2862 0.929 . S
C2876 C2875 1.399 . S
C2876 C2877 1.385 . S
C2877 H2863 0.931 . S
C2877 C2876 1.385 . S
C2877 C2878 1.389 . S
C2878 C2877 1.389 . S
C2878 C2879 1.387 . S
C2879 H2864 0.930 . S
C2879 C2874 1.390 . S
C2879 C2878 1.387 . S
H2880 C2892 0.930 . S
H2881 C2894 0.930 . S
H2882 C2895 0.930 . S
H2883 C2899 0.959 . S
H2884 C2899 0.959 . S
H2885 C2899 0.961 . S
H2886 C2900 0.960 . S
H2887 C2900 0.961 . S
H2888 C2900 0.959 . S
H2889 C2903 0.929 . S
H2890 C2904 0.931 . S
H2891 C2906 0.930 . S
C2892 H2880 0.930 . S
C2892 C2893 1.399 . S
C2892 C2897 1.399 . S
C2893 C2892 1.399 . S
C2893 C2894 1.376 . S
C2894 H2881 0.930 . S
C2894 C2893 1.376 . S
C2894 C2895 1.388 . S
C2895 H2882 0.930 . S
C2895 C2894 1.388 . S
C2895 C2896 1.390 . S
C2896 C2895 1.390 . S
C2896 C2897 1.394 . S
C2896 C2902 1.465 . S
C2897 C2892 1.399 . S
C2897 C2896 1.394 . S
C2897 C2898 1.516 . S
C2898 C2897 1.516 . S
C2898 C2899 1.502 . S
C2898 C2900 1.561 . S
C2898 C2901 1.526 . S
C2899 H2883 0.959 . S
C2899 H2884 0.959 . S
C2899 H2885 0.961 . S
C2899 C2898 1.502 . S
C2900 H2886 0.960 . S
C2900 H2887 0.961 . S
C2900 H2888 0.959 . S
C2900 C2898 1.561 . S
C2901 C2898 1.526 . S
C2901 C2902 1.396 . S
C2901 C2906 1.390 . S
C2902 C2896 1.465 . S
C2902 C2901 1.396 . S
C2902 C2903 1.399 . S
C2903 H2889 0.929 . S
C2903 C2902 1.399 . S
C2903 C2904 1.385 . S
C2904 H2890 0.931 . S
C2904 C2903 1.385 . S
C2904 C2905 1.389 . S
C2905 C2904 1.389 . S
C2905 C2906 1.387 . S
C2906 H2891 0.930 . S
C2906 C2901 1.390 . S
C2906 C2905 1.387 . S
H2907 C2919 0.930 . S
H2908 C2921 0.930 . S
H2909 C2922 0.930 . S
H2910 C2926 0.959 . S
H2911 C2926 0.959 . S
H2912 C2926 0.961 . S
H2913 C2927 0.960 . S
H2914 C2927 0.961 . S
H2915 C2927 0.959 . S
H2916 C2930 0.929 . S
H2917 C2931 0.931 . S
H2918 C2933 0.930 . S
C2919 H2907 0.930 . S
C2919 C2920 1.399 . S
C2919 C2924 1.399 . S
C2920 C2919 1.399 . S
C2920 C2921 1.376 . S
C2921 H2908 0.930 . S
C2921 C2920 1.376 . S
C2921 C2922 1.388 . S
C2922 H2909 0.930 . S
C2922 C2921 1.388 . S
C2922 C2923 1.390 . S
C2923 C2922 1.390 . S
C2923 C2924 1.394 . S
C2923 C2929 1.465 . S
C2924 C2919 1.399 . S
C2924 C2923 1.394 . S
C2924 C2925 1.516 . S
C2925 C2924 1.516 . S
C2925 C2926 1.502 . S
C2925 C2927 1.561 . S
C2925 C2928 1.526 . S
C2926 H2910 0.959 . S
C2926 H2911 0.959 . S
C2926 H2912 0.961 . S
C2926 C2925 1.502 . S
C2927 H2913 0.960 . S
C2927 H2914 0.961 . S
C2927 H2915 0.959 . S
C2927 C2925 1.561 . S
C2928 C2925 1.526 . S
C2928 C2929 1.396 . S
C2928 C2933 1.390 . S
C2929 C2923 1.465 . S
C2929 C2928 1.396 . S
C2929 C2930 1.399 . S
C2930 H2916 0.929 . S
C2930 C2929 1.399 . S
C2930 C2931 1.385 . S
C2931 H2917 0.931 . S
C2931 C2930 1.385 . S
C2931 C2932 1.389 . S
C2932 C2931 1.389 . S
C2932 C2933 1.387 . S
C2933 H2918 0.930 . S
C2933 C2928 1.390 . S
C2933 C2932 1.387 . S
H2934 C2946 0.930 . S
H2935 C2948 0.930 . S
H2936 C2949 0.930 . S
H2937 C2953 0.959 . S
H2938 C2953 0.959 . S
H2939 C2953 0.961 . S
H2940 C2954 0.960 . S
H2941 C2954 0.961 . S
H2942 C2954 0.959 . S
H2943 C2957 0.929 . S
H2944 C2958 0.931 . S
H2945 C2960 0.930 . S
C2946 H2934 0.930 . S
C2946 C2947 1.399 . S
C2946 C2951 1.399 . S
C2947 C2946 1.399 . S
C2947 C2948 1.376 . S
C2948 H2935 0.930 . S
C2948 C2947 1.376 . S
C2948 C2949 1.388 . S
C2949 H2936 0.930 . S
C2949 C2948 1.388 . S
C2949 C2950 1.390 . S
C2950 C2949 1.390 . S
C2950 C2951 1.394 . S
C2950 C2956 1.465 . S
C2951 C2946 1.399 . S
C2951 C2950 1.394 . S
C2951 C2952 1.516 . S
C2952 C2951 1.516 . S
C2952 C2953 1.502 . S
C2952 C2954 1.561 . S
C2952 C2955 1.526 . S
C2953 H2937 0.959 . S
C2953 H2938 0.959 . S
C2953 H2939 0.961 . S
C2953 C2952 1.502 . S
C2954 H2940 0.960 . S
C2954 H2941 0.961 . S
C2954 H2942 0.959 . S
C2954 C2952 1.561 . S
C2955 C2952 1.526 . S
C2955 C2956 1.396 . S
C2955 C2960 1.390 . S
C2956 C2950 1.465 . S
C2956 C2955 1.396 . S
C2956 C2957 1.399 . S
C2957 H2943 0.929 . S
C2957 C2956 1.399 . S
C2957 C2958 1.385 . S
C2958 H2944 0.931 . S
C2958 C2957 1.385 . S
C2958 C2959 1.389 . S
C2959 C2958 1.389 . S
C2959 C2960 1.387 . S
C2960 H2945 0.930 . S
C2960 C2955 1.390 . S
C2960 C2959 1.387 . S
H2961 C2973 0.930 . S
H2962 C2975 0.930 . S
H2963 C2976 0.930 . S
H2964 C2980 0.959 . S
H2965 C2980 0.959 . S
H2966 C2980 0.961 . S
H2967 C2981 0.960 . S
H2968 C2981 0.961 . S
H2969 C2981 0.959 . S
H2970 C2984 0.929 . S
H2971 C2985 0.931 . S
H2972 C2987 0.930 . S
C2973 H2961 0.930 . S
C2973 C2974 1.399 . S
C2973 C2978 1.399 . S
C2974 C2973 1.399 . S
C2974 C2975 1.376 . S
C2975 H2962 0.930 . S
C2975 C2974 1.376 . S
C2975 C2976 1.388 . S
C2976 H2963 0.930 . S
C2976 C2975 1.388 . S
C2976 C2977 1.390 . S
C2977 C2976 1.390 . S
C2977 C2978 1.394 . S
C2977 C2983 1.465 . S
C2978 C2973 1.399 . S
C2978 C2977 1.394 . S
C2978 C2979 1.516 . S
C2979 C2978 1.516 . S
C2979 C2980 1.502 . S
C2979 C2981 1.561 . S
C2979 C2982 1.526 . S
C2980 H2964 0.959 . S
C2980 H2965 0.959 . S
C2980 H2966 0.961 . S
C2980 C2979 1.502 . S
C2981 H2967 0.960 . S
C2981 H2968 0.961 . S
C2981 H2969 0.959 . S
C2981 C2979 1.561 . S
C2982 C2979 1.526 . S
C2982 C2983 1.396 . S
C2982 C2987 1.390 . S
C2983 C2977 1.465 . S
C2983 C2982 1.396 . S
C2983 C2984 1.399 . S
C2984 H2970 0.929 . S
C2984 C2983 1.399 . S
C2984 C2985 1.385 . S
C2985 H2971 0.931 . S
C2985 C2984 1.385 . S
C2985 C2986 1.389 . S
C2986 C2985 1.389 . S
C2986 C2987 1.387 . S
C2987 H2972 0.930 . S
C2987 C2982 1.390 . S
C2987 C2986 1.387 . S
H2988 C3000 0.930 . S
H2989 C3002 0.930 . S
H2990 C3003 0.930 1_565 S
H2991 C3007 0.959 . S
H2992 C3007 0.959 . S
H2993 C3007 0.961 . S
H2994 C3008 0.960 . S
H2995 C3008 0.961 . S
H2996 C3008 0.959 . S
H2997 C3011 0.929 . S
H2998 C3012 0.931 . S
H2999 C3014 0.930 . S
C3000 H2988 0.930 . S
C3000 C3001 1.399 . S
C3000 C3005 1.399 . S
C3001 C3000 1.399 . S
C3001 C3002 1.376 . S
C3002 H2989 0.930 . S
C3002 C3001 1.376 . S
C3002 C3003 1.388 . S
C3003 H2990 0.930 1_545 S
C3003 C3002 1.388 . S
C3003 C3004 1.390 . S
C3004 C3003 1.390 . S
C3004 C3005 1.394 . S
C3004 C3010 1.465 . S
C3005 C3000 1.399 . S
C3005 C3004 1.394 . S
C3005 C3006 1.516 . S
C3006 C3005 1.516 . S
C3006 C3007 1.502 . S
C3006 C3008 1.561 . S
C3006 C3009 1.526 . S
C3007 H2991 0.959 . S
C3007 H2992 0.959 . S
C3007 H2993 0.961 . S
C3007 C3006 1.502 . S
C3008 H2994 0.960 . S
C3008 H2995 0.961 . S
C3008 H2996 0.959 . S
C3008 C3006 1.561 . S
C3009 C3006 1.526 . S
C3009 C3010 1.396 . S
C3009 C3014 1.390 . S
C3010 C3004 1.465 . S
C3010 C3009 1.396 . S
C3010 C3011 1.399 1_545 S
C3011 H2997 0.929 . S
C3011 C3010 1.399 1_565 S
C3011 C3012 1.385 . S
C3012 H2998 0.931 . S
C3012 C3011 1.385 . S
C3012 C3013 1.389 1_565 S
C3013 C3012 1.389 1_545 S
C3013 C3014 1.387 . S
C3014 H2999 0.930 . S
C3014 C3009 1.390 . S
C3014 C3013 1.387 . S
H3015 C3027 0.930 . S
H3016 C3029 0.930 . S
H3017 C3030 0.930 . S
H3018 C3034 0.959 . S
H3019 C3034 0.959 . S
H3020 C3034 0.961 . S
H3021 C3035 0.960 . S
H3022 C3035 0.961 . S
H3023 C3035 0.959 . S
H3024 C3038 0.929 . S
H3025 C3039 0.931 . S
H3026 C3041 0.930 . S
C3027 H3015 0.930 . S
C3027 C3028 1.399 . S
C3027 C3032 1.399 . S
C3028 C3027 1.399 . S
C3028 C3029 1.376 . S
C3029 H3016 0.930 . S
C3029 C3028 1.376 . S
C3029 C3030 1.388 . S
C3030 H3017 0.930 . S
C3030 C3029 1.388 . S
C3030 C3031 1.390 . S
C3031 C3030 1.390 . S
C3031 C3032 1.394 . S
C3031 C3037 1.465 . S
C3032 C3027 1.399 . S
C3032 C3031 1.394 . S
C3032 C3033 1.516 . S
C3033 C3032 1.516 . S
C3033 C3034 1.502 1_655 S
C3033 C3035 1.561 . S
C3033 C3036 1.526 . S
C3034 H3018 0.959 . S
C3034 H3019 0.959 . S
C3034 H3020 0.961 . S
C3034 C3033 1.502 1_455 S
C3035 H3021 0.960 . S
C3035 H3022 0.961 . S
C3035 H3023 0.959 . S
C3035 C3033 1.561 . S
C3036 C3033 1.526 . S
C3036 C3037 1.396 . S
C3036 C3041 1.390 . S
C3037 C3031 1.465 . S
C3037 C3036 1.396 . S
C3037 C3038 1.399 . S
C3038 H3024 0.929 . S
C3038 C3037 1.399 . S
C3038 C3039 1.385 . S
C3039 H3025 0.931 . S
C3039 C3038 1.385 . S
C3039 C3040 1.389 . S
C3040 C3039 1.389 . S
C3040 C3041 1.387 . S
C3041 H3026 0.930 . S
C3041 C3036 1.390 . S
C3041 C3040 1.387 . S
H3042 C3054 0.930 . S
H3043 C3056 0.930 . S
H3044 C3057 0.930 . S
H3045 C3061 0.959 . S
H3046 C3061 0.959 . S
H3047 C3061 0.961 . S
H3048 C3062 0.960 . S
H3049 C3062 0.961 . S
H3050 C3062 0.959 . S
H3051 C3065 0.929 . S
H3052 C3066 0.931 . S
H3053 C3068 0.930 . S
C3054 H3042 0.930 . S
C3054 C3055 1.399 . S
C3054 C3059 1.399 . S
C3055 C3054 1.399 . S
C3055 C3056 1.376 . S
C3056 H3043 0.930 . S
C3056 C3055 1.376 . S
C3056 C3057 1.388 . S
C3057 H3044 0.930 . S
C3057 C3056 1.388 . S
C3057 C3058 1.390 . S
C3058 C3057 1.390 . S
C3058 C3059 1.394 . S
C3058 C3064 1.465 . S
C3059 C3054 1.399 . S
C3059 C3058 1.394 . S
C3059 C3060 1.516 . S
C3060 C3059 1.516 . S
C3060 C3061 1.502 . S
C3060 C3062 1.561 . S
C3060 C3063 1.526 . S
C3061 H3045 0.959 . S
C3061 H3046 0.959 . S
C3061 H3047 0.961 . S
C3061 C3060 1.502 . S
C3062 H3048 0.960 . S
C3062 H3049 0.961 . S
C3062 H3050 0.959 . S
C3062 C3060 1.561 . S
C3063 C3060 1.526 . S
C3063 C3064 1.396 . S
C3063 C3068 1.390 . S
C3064 C3058 1.465 . S
C3064 C3063 1.396 . S
C3064 C3065 1.399 . S
C3065 H3051 0.929 . S
C3065 C3064 1.399 . S
C3065 C3066 1.385 . S
C3066 H3052 0.931 . S
C3066 C3065 1.385 . S
C3066 C3067 1.389 . S
C3067 C3066 1.389 . S
C3067 C3068 1.387 . S
C3068 H3053 0.930 . S
C3068 C3063 1.390 . S
C3068 C3067 1.387 . S
H3069 C3081 0.930 . S
H3070 C3083 0.930 . S
H3071 C3084 0.930 . S
H3072 C3088 0.959 . S
H3073 C3088 0.959 . S
H3074 C3088 0.961 . S
H3075 C3089 0.960 . S
H3076 C3089 0.961 . S
H3077 C3089 0.959 . S
H3078 C3092 0.929 . S
H3079 C3093 0.931 . S
H3080 C3095 0.930 . S
C3081 H3069 0.930 . S
C3081 C3082 1.399 . S
C3081 C3086 1.399 . S
C3082 C3081 1.399 . S
C3082 C3083 1.376 . S
C3083 H3070 0.930 . S
C3083 C3082 1.376 . S
C3083 C3084 1.388 . S
C3084 H3071 0.930 . S
C3084 C3083 1.388 . S
C3084 C3085 1.390 . S
C3085 C3084 1.390 . S
C3085 C3086 1.394 . S
C3085 C3091 1.465 . S
C3086 C3081 1.399 . S
C3086 C3085 1.394 . S
C3086 C3087 1.516 . S
C3087 C3086 1.516 . S
C3087 C3088 1.502 . S
C3087 C3089 1.561 . S
C3087 C3090 1.526 . S
C3088 H3072 0.959 . S
C3088 H3073 0.959 . S
C3088 H3074 0.961 . S
C3088 C3087 1.502 . S
C3089 H3075 0.960 . S
C3089 H3076 0.961 . S
C3089 H3077 0.959 . S
C3089 C3087 1.561 . S
C3090 C3087 1.526 . S
C3090 C3091 1.396 . S
C3090 C3095 1.390 . S
C3091 C3085 1.465 . S
C3091 C3090 1.396 . S
C3091 C3092 1.399 . S
C3092 H3078 0.929 . S
C3092 C3091 1.399 . S
C3092 C3093 1.385 . S
C3093 H3079 0.931 . S
C3093 C3092 1.385 . S
C3093 C3094 1.389 . S
C3094 C3093 1.389 . S
C3094 C3095 1.387 . S
C3095 H3080 0.930 . S
C3095 C3090 1.390 . S
C3095 C3094 1.387 . S
H3096 C3108 0.930 . S
H3097 C3110 0.930 . S
H3098 C3111 0.930 . S
H3099 C3115 0.959 . S
H3100 C3115 0.959 . S
H3101 C3115 0.961 . S
H3102 C3116 0.960 . S
H3103 C3116 0.961 . S
H3104 C3116 0.959 . S
H3105 C3119 0.929 . S
H3106 C3120 0.931 . S
H3107 C3122 0.930 . S
C3108 H3096 0.930 . S
C3108 C3109 1.399 . S
C3108 C3113 1.399 . S
C3109 C3108 1.399 . S
C3109 C3110 1.376 . S
C3110 H3097 0.930 . S
C3110 C3109 1.376 . S
C3110 C3111 1.388 . S
C3111 H3098 0.930 . S
C3111 C3110 1.388 . S
C3111 C3112 1.390 . S
C3112 C3111 1.390 . S
C3112 C3113 1.394 . S
C3112 C3118 1.465 . S
C3113 C3108 1.399 . S
C3113 C3112 1.394 . S
C3113 C3114 1.516 . S
C3114 C3113 1.516 . S
C3114 C3115 1.502 . S
C3114 C3116 1.561 . S
C3114 C3117 1.526 . S
C3115 H3099 0.959 . S
C3115 H3100 0.959 . S
C3115 H3101 0.961 . S
C3115 C3114 1.502 . S
C3116 H3102 0.960 . S
C3116 H3103 0.961 . S
C3116 H3104 0.959 . S
C3116 C3114 1.561 . S
C3117 C3114 1.526 . S
C3117 C3118 1.396 . S
C3117 C3122 1.390 . S
C3118 C3112 1.465 . S
C3118 C3117 1.396 . S
C3118 C3119 1.399 . S
C3119 H3105 0.929 . S
C3119 C3118 1.399 . S
C3119 C3120 1.385 . S
C3120 H3106 0.931 . S
C3120 C3119 1.385 . S
C3120 C3121 1.389 . S
C3121 C3120 1.389 . S
C3121 C3122 1.387 . S
C3122 H3107 0.930 . S
C3122 C3117 1.390 . S
C3122 C3121 1.387 . S
H3123 C3135 0.930 . S
H3124 C3137 0.930 . S
H3125 C3138 0.930 . S
H3126 C3142 0.959 . S
H3127 C3142 0.959 . S
H3128 C3142 0.961 . S
H3129 C3143 0.960 . S
H3130 C3143 0.961 . S
H3131 C3143 0.959 . S
H3132 C3146 0.929 . S
H3133 C3147 0.931 . S
H3134 C3149 0.930 . S
C3135 H3123 0.930 . S
C3135 C3136 1.399 . S
C3135 C3140 1.399 . S
C3136 C3135 1.399 . S
C3136 C3137 1.376 . S
C3137 H3124 0.930 . S
C3137 C3136 1.376 . S
C3137 C3138 1.388 . S
C3138 H3125 0.930 . S
C3138 C3137 1.388 . S
C3138 C3139 1.390 . S
C3139 C3138 1.390 . S
C3139 C3140 1.394 . S
C3139 C3145 1.465 . S
C3140 C3135 1.399 . S
C3140 C3139 1.394 . S
C3140 C3141 1.516 . S
C3141 C3140 1.516 . S
C3141 C3142 1.502 . S
C3141 C3143 1.561 . S
C3141 C3144 1.526 . S
C3142 H3126 0.959 . S
C3142 H3127 0.959 . S
C3142 H3128 0.961 . S
C3142 C3141 1.502 . S
C3143 H3129 0.960 . S
C3143 H3130 0.961 . S
C3143 H3131 0.959 . S
C3143 C3141 1.561 . S
C3144 C3141 1.526 . S
C3144 C3145 1.396 . S
C3144 C3149 1.390 . S
C3145 C3139 1.465 . S
C3145 C3144 1.396 . S
C3145 C3146 1.399 . S
C3146 H3132 0.929 . S
C3146 C3145 1.399 . S
C3146 C3147 1.385 . S
C3147 H3133 0.931 . S
C3147 C3146 1.385 . S
C3147 C3148 1.389 . S
C3148 C3147 1.389 . S
C3148 C3149 1.387 . S
C3149 H3134 0.930 . S
C3149 C3144 1.390 . S
C3149 C3148 1.387 . S
H3150 C3162 0.930 . S
H3151 C3164 0.930 . S
H3152 C3165 0.930 . S
H3153 C3169 0.959 . S
H3154 C3169 0.959 . S
H3155 C3169 0.961 . S
H3156 C3170 0.960 . S
H3157 C3170 0.961 . S
H3158 C3170 0.959 . S
H3159 C3173 0.929 . S
H3160 C3174 0.931 . S
H3161 C3176 0.930 . S
C3162 H3150 0.930 . S
C3162 C3163 1.399 . S
C3162 C3167 1.399 . S
C3163 C3162 1.399 . S
C3163 C3164 1.376 . S
C3164 H3151 0.930 . S
C3164 C3163 1.376 . S
C3164 C3165 1.388 . S
C3165 H3152 0.930 . S
C3165 C3164 1.388 . S
C3165 C3166 1.390 . S
C3166 C3165 1.390 . S
C3166 C3167 1.394 . S
C3166 C3172 1.465 . S
C3167 C3162 1.399 . S
C3167 C3166 1.394 . S
C3167 C3168 1.516 . S
C3168 C3167 1.516 . S
C3168 C3169 1.502 . S
C3168 C3170 1.561 . S
C3168 C3171 1.526 . S
C3169 H3153 0.959 . S
C3169 H3154 0.959 . S
C3169 H3155 0.961 . S
C3169 C3168 1.502 . S
C3170 H3156 0.960 . S
C3170 H3157 0.961 . S
C3170 H3158 0.959 . S
C3170 C3168 1.561 . S
C3171 C3168 1.526 . S
C3171 C3172 1.396 . S
C3171 C3176 1.390 . S
C3172 C3166 1.465 . S
C3172 C3171 1.396 . S
C3172 C3173 1.399 . S
C3173 H3159 0.929 . S
C3173 C3172 1.399 . S
C3173 C3174 1.385 . S
C3174 H3160 0.931 . S
C3174 C3173 1.385 . S
C3174 C3175 1.389 . S
C3175 C3174 1.389 . S
C3175 C3176 1.387 . S
C3176 H3161 0.930 . S
C3176 C3171 1.390 . S
C3176 C3175 1.387 . S
H3177 C3189 0.930 . S
H3178 C3191 0.930 . S
H3179 C3192 0.930 . S
H3180 C3196 0.959 . S
H3181 C3196 0.959 . S
H3182 C3196 0.961 . S
H3183 C3197 0.960 . S
H3184 C3197 0.961 . S
H3185 C3197 0.959 . S
H3186 C3200 0.929 . S
H3187 C3201 0.931 . S
H3188 C3203 0.930 . S
C3189 H3177 0.930 . S
C3189 C3190 1.399 . S
C3189 C3194 1.399 . S
C3190 C3189 1.399 . S
C3190 C3191 1.376 . S
C3191 H3178 0.930 . S
C3191 C3190 1.376 . S
C3191 C3192 1.388 . S
C3192 H3179 0.930 . S
C3192 C3191 1.388 . S
C3192 C3193 1.390 . S
C3193 C3192 1.390 . S
C3193 C3194 1.394 . S
C3193 C3199 1.465 . S
C3194 C3189 1.399 . S
C3194 C3193 1.394 . S
C3194 C3195 1.516 . S
C3195 C3194 1.516 . S
C3195 C3196 1.502 . S
C3195 C3197 1.561 . S
C3195 C3198 1.526 . S
C3196 H3180 0.959 . S
C3196 H3181 0.959 . S
C3196 H3182 0.961 . S
C3196 C3195 1.502 . S
C3197 H3183 0.960 . S
C3197 H3184 0.961 . S
C3197 H3185 0.959 . S
C3197 C3195 1.561 . S
C3198 C3195 1.526 . S
C3198 C3199 1.396 . S
C3198 C3203 1.390 . S
C3199 C3193 1.465 . S
C3199 C3198 1.396 . S
C3199 C3200 1.399 . S
C3200 H3186 0.929 . S
C3200 C3199 1.399 . S
C3200 C3201 1.385 . S
C3201 H3187 0.931 . S
C3201 C3200 1.385 . S
C3201 C3202 1.389 . S
C3202 C3201 1.389 . S
C3202 C3203 1.387 . S
C3203 H3188 0.930 . S
C3203 C3198 1.390 . S
C3203 C3202 1.387 . S
H3204 C3216 0.930 . S
H3205 C3218 0.930 . S
H3206 C3219 0.930 . S
H3207 C3223 0.959 . S
H3208 C3223 0.959 . S
H3209 C3223 0.961 . S
H3210 C3224 0.960 . S
H3211 C3224 0.961 . S
H3212 C3224 0.959 . S
H3213 C3227 0.929 . S
H3214 C3228 0.931 . S
H3215 C3230 0.930 . S
C3216 H3204 0.930 . S
C3216 C3217 1.399 . S
C3216 C3221 1.399 . S
C3217 C3216 1.399 . S
C3217 C3218 1.376 . S
C3218 H3205 0.930 . S
C3218 C3217 1.376 . S
C3218 C3219 1.388 . S
C3219 H3206 0.930 . S
C3219 C3218 1.388 . S
C3219 C3220 1.390 . S
C3220 C3219 1.390 . S
C3220 C3221 1.394 . S
C3220 C3226 1.465 . S
C3221 C3216 1.399 . S
C3221 C3220 1.394 . S
C3221 C3222 1.516 . S
C3222 C3221 1.516 . S
C3222 C3223 1.502 . S
C3222 C3224 1.561 . S
C3222 C3225 1.526 . S
C3223 H3207 0.959 . S
C3223 H3208 0.959 . S
C3223 H3209 0.961 . S
C3223 C3222 1.502 . S
C3224 H3210 0.960 . S
C3224 H3211 0.961 . S
C3224 H3212 0.959 . S
C3224 C3222 1.561 . S
C3225 C3222 1.526 . S
C3225 C3226 1.396 . S
C3225 C3230 1.390 . S
C3226 C3220 1.465 . S
C3226 C3225 1.396 . S
C3226 C3227 1.399 . S
C3227 H3213 0.929 . S
C3227 C3226 1.399 . S
C3227 C3228 1.385 . S
C3228 H3214 0.931 . S
C3228 C3227 1.385 . S
C3228 C3229 1.389 . S
C3229 C3228 1.389 . S
C3229 C3230 1.387 . S
C3230 H3215 0.930 . S
C3230 C3225 1.390 . S
C3230 C3229 1.387 . S
H3231 C3243 0.930 . S
H3232 C3245 0.930 . S
H3233 C3246 0.930 . S
H3234 C3250 0.959 . S
H3235 C3250 0.959 . S
H3236 C3250 0.961 . S
H3237 C3251 0.960 . S
H3238 C3251 0.961 . S
H3239 C3251 0.959 1_455 S
H3240 C3254 0.929 . S
H3241 C3255 0.931 . S
H3242 C3257 0.930 . S
C3243 H3231 0.930 . S
C3243 C3244 1.399 . S
C3243 C3248 1.399 . S
C3244 C3243 1.399 . S
C3244 C3245 1.376 . S
C3245 H3232 0.930 . S
C3245 C3244 1.376 . S
C3245 C3246 1.388 . S
C3246 H3233 0.930 . S
C3246 C3245 1.388 . S
C3246 C3247 1.390 . S
C3247 C3246 1.390 . S
C3247 C3248 1.394 . S
C3247 C3253 1.465 . S
C3248 C3243 1.399 . S
C3248 C3247 1.394 . S
C3248 C3249 1.516 . S
C3249 C3248 1.516 . S
C3249 C3250 1.502 . S
C3249 C3251 1.561 . S
C3249 C3252 1.526 . S
C3250 H3234 0.959 . S
C3250 H3235 0.959 . S
C3250 H3236 0.961 . S
C3250 C3249 1.502 . S
C3251 H3237 0.960 . S
C3251 H3238 0.961 . S
C3251 H3239 0.959 1_655 S
C3251 C3249 1.561 . S
C3252 C3249 1.526 . S
C3252 C3253 1.396 . S
C3252 C3257 1.390 . S
C3253 C3247 1.465 . S
C3253 C3252 1.396 . S
C3253 C3254 1.399 . S
C3254 H3240 0.929 . S
C3254 C3253 1.399 . S
C3254 C3255 1.385 . S
C3255 H3241 0.931 . S
C3255 C3254 1.385 . S
C3255 C3256 1.389 . S
C3256 C3255 1.389 . S
C3256 C3257 1.387 . S
C3257 H3242 0.930 . S
C3257 C3252 1.390 . S
C3257 C3256 1.387 . S
H3258 C3270 0.930 . S
H3259 C3272 0.930 . S
H3260 C3273 0.930 . S
H3261 C3277 0.959 . S
H3262 C3277 0.959 . S
H3263 C3277 0.961 . S
H3264 C3278 0.960 . S
H3265 C3278 0.961 . S
H3266 C3278 0.959 . S
H3267 C3281 0.929 . S
H3268 C3282 0.931 . S
H3269 C3284 0.930 . S
C3270 H3258 0.930 . S
C3270 C3271 1.399 . S
C3270 C3275 1.399 . S
C3271 C3270 1.399 . S
C3271 C3272 1.376 . S
C3272 H3259 0.930 . S
C3272 C3271 1.376 . S
C3272 C3273 1.388 . S
C3273 H3260 0.930 . S
C3273 C3272 1.388 . S
C3273 C3274 1.390 . S
C3274 C3273 1.390 . S
C3274 C3275 1.394 . S
C3274 C3280 1.465 . S
C3275 C3270 1.399 . S
C3275 C3274 1.394 . S
C3275 C3276 1.516 . S
C3276 C3275 1.516 . S
C3276 C3277 1.502 . S
C3276 C3278 1.561 . S
C3276 C3279 1.526 . S
C3277 H3261 0.959 . S
C3277 H3262 0.959 . S
C3277 H3263 0.961 . S
C3277 C3276 1.502 . S
C3278 H3264 0.960 . S
C3278 H3265 0.961 . S
C3278 H3266 0.959 . S
C3278 C3276 1.561 . S
C3279 C3276 1.526 . S
C3279 C3280 1.396 . S
C3279 C3284 1.390 . S
C3280 C3274 1.465 . S
C3280 C3279 1.396 . S
C3280 C3281 1.399 . S
C3281 H3267 0.929 . S
C3281 C3280 1.399 . S
C3281 C3282 1.385 . S
C3282 H3268 0.931 . S
C3282 C3281 1.385 . S
C3282 C3283 1.389 . S
C3283 C3282 1.389 . S
C3283 C3284 1.387 . S
C3284 H3269 0.930 . S
C3284 C3279 1.390 . S
C3284 C3283 1.387 . S
H3285 C3297 0.930 . S
H3286 C3299 0.930 . S
H3287 C3300 0.930 . S
H3288 C3304 0.959 . S
H3289 C3304 0.959 . S
H3290 C3304 0.961 . S
H3291 C3305 0.960 . S
H3292 C3305 0.961 . S
H3293 C3305 0.959 . S
H3294 C3308 0.929 . S
H3295 C3309 0.931 . S
H3296 C3311 0.930 . S
C3297 H3285 0.930 . S
C3297 C3298 1.399 . S
C3297 C3302 1.399 . S
C3298 C3297 1.399 . S
C3298 C3299 1.376 . S
C3299 H3286 0.930 . S
C3299 C3298 1.376 . S
C3299 C3300 1.388 . S
C3300 H3287 0.930 . S
C3300 C3299 1.388 . S
C3300 C3301 1.390 . S
C3301 C3300 1.390 . S
C3301 C3302 1.394 . S
C3301 C3307 1.465 . S
C3302 C3297 1.399 . S
C3302 C3301 1.394 . S
C3302 C3303 1.516 . S
C3303 C3302 1.516 . S
C3303 C3304 1.502 1_545 S
C3303 C3305 1.561 . S
C3303 C3306 1.526 . S
C3304 H3288 0.959 . S
C3304 H3289 0.959 . S
C3304 H3290 0.961 . S
C3304 C3303 1.502 1_565 S
C3305 H3291 0.960 . S
C3305 H3292 0.961 . S
C3305 H3293 0.959 . S
C3305 C3303 1.561 . S
C3306 C3303 1.526 . S
C3306 C3307 1.396 . S
C3306 C3311 1.390 . S
C3307 C3301 1.465 . S
C3307 C3306 1.396 . S
C3307 C3308 1.399 . S
C3308 H3294 0.929 . S
C3308 C3307 1.399 . S
C3308 C3309 1.385 . S
C3309 H3295 0.931 . S
C3309 C3308 1.385 . S
C3309 C3310 1.389 . S
C3310 C3309 1.389 . S
C3310 C3311 1.387 . S
C3311 H3296 0.930 . S
C3311 C3306 1.390 . S
C3311 C3310 1.387 . S
C1381 C4 1.593 . S
C1393 C857 1.548 . S
C1408 C26 1.582 . S
C1420 C901 1.561 . S
C1447 C981 1.456 . S
C1435 C32 1.543 . S
C1462 C40 1.517 . S
C1474 C1025 1.474 . S
C1489 C12 1.563 . S
C1501 C1105 1.523 . S
C1516 C18 1.550 . S
C1528 C1167 1.524 . S
C1543 C46 1.590 . S
C1555 C1087 1.504 . S
C1582 C1149 1.525 . S
C1570 C68 1.574 . S
C1609 C1043 1.541 . S
C1597 C74 1.520 . S
C1624 C82 1.517 . S
C1636 C963 1.445 . S
C1663 C839 1.523 . S
C1651 C54 1.586 . S
C1678 C60 1.531 . S
C1690 C919 1.558 . S
C1705 C88 1.643 . S
C1717 C1229 1.566 . S
C1732 C110 1.600 . S
C1744 C1273 1.589 . S
C1771 C1353 1.572 . S
C1759 C116 1.574 . S
C1786 C124 1.538 . S
C1798 C299 1.490 . S
C1813 C96 1.586 . S
C1825 C343 1.491 . S
C1840 C102 1.528 . S
C1852 C423 1.552 . S
C1867 C130 1.569 . S
C1879 C361 1.631 . S
C1894 C152 1.625 . S
C1906 C405 1.587 . S
C1933 C281 1.565 . S
C1921 C158 1.592 . S
C1960 C1335 1.473 . S
C1948 C166 1.538 . S
C1987 C1211 1.538 . S
C1975 C138 1.563 . S
C2014 C1291 1.559 . S
C2002 C144 1.595 . S
C2029 C172 1.611 . S
C2041 C485 1.582 . S
C2056 C194 1.623 . S
C2068 C547 1.497 . S
C2083 C200 1.616 . S
C2095 C591 1.562 . S
C2110 C208 1.529 . S
C2122 C653 1.523 . S
C2149 C715 1.565 . S
C2137 C180 1.569 . S
C2176 C795 1.558 . S
C2164 C186 1.560 . S
C2203 C733 1.659 . S
C2191 C214 1.593 . S
C2230 C777 1.563 . S
C2218 C236 1.619 . S
C2245 C242 1.584 . S
C2257 C671 1.559 . S
C2284 C609 1.463 . S
C2272 C250 1.537 . S
C2299 C222 1.578 . S
C2311 C467 1.551 . S
C2338 C529 1.564 . S
C2326 C228 1.552 . S
C2365 C305 1.381 . S
C2353 C5 1.118 . S
C2380 C25 1.370 . S
C2392 C349 1.268 . S
C2419 C429 1.296 . S
C2407 C33 1.275 . S
C2446 C491 1.190 . S
C2434 C39 1.270 1_556 S
C2473 C553 1.346 . S
C2461 C11 1.390 . S
C2500 C597 1.329 . S
C2488 C19 1.105 1_556 S
C2515 C47 1.261 1_556 S
C2527 C615 1.353 . S
C2542 C67 1.372 1_556 S
C2554 C473 1.245 . S
C2569 C75 1.129 1_556 S
C2581 C535 1.336 . S
C2596 C81 1.324 . S
C2608 C367 1.308 . S
C2635 C411 1.293 . S
C2623 C53 1.350 . S
C2650 C61 1.221 . S
C2662 C287 1.248 . S
C2689 C659 1.319 . S
C2677 C89 1.239 . S
C2704 C109 1.431 . S
C2716 C721 1.392 . S
C2731 C117 1.243 . S
C2743 C801 1.294 . S
C2770 C863 1.284 . S
C2758 C123 1.303 . S
C2785 C95 1.371 . S
C2797 C907 1.341 . S
C2812 C103 1.115 . S
C2824 C987 1.228 . S
C2839 C131 1.101 . S
C2851 C969 1.225 . S
C2866 C151 1.339 . S
C2878 C845 1.309 . S
C2905 C925 1.342 . S
C2893 C159 1.178 . S
C2920 C165 1.336 . S
C2932 C739 1.320 . S
C2947 C137 1.380 1_545 S
C2959 C783 1.357 . S
C2986 C677 1.291 . S
C2974 C145 1.214 . S
C3013 C1031 1.297 . S
C3001 C173 1.101 . S
C3028 C193 1.297 . S
C3040 C1111 1.183 . S
C3055 C201 1.053 . S
C3067 C1173 1.356 . S
C3094 C1235 1.192 . S
C3082 C207 1.308 . S
C3121 C1279 1.384 . S
C3109 C179 1.428 1_565 S
C3136 C187 1.201 . S
C3148 C1359 1.292 . S
C3163 C215 1.264 . S
C3175 C1341 1.300 . S
C3190 C235 1.374 1_565 S
C3202 C1217 1.364 . S
C3229 C1297 1.340 . S
C3217 C243 1.136 . S
C3256 C1093 1.156 . S
C3244 C249 1.261 . S
C3283 C1155 1.331 . S
C3271 C221 1.365 . S
C3298 C229 1.078 . S
C3310 C1049 1.300 . S
