# Generated by pormake.
# Topology pyr, (3,6)-cn, num edge types: 1
# Building blocks:
#     Node 0, Type 0, BuildingBlock: VETTIZ_charged_linker_0, # of connection points: 3
#     Node 1, Type 0, BuildingBlock: VETTIZ_charged_linker_0, # of connection points: 3
#     Node 2, Type 0, BuildingBlock: VETTIZ_charged_linker_0, # of connection points: 3
#     Node 3, Type 0, BuildingBlock: VETTIZ_charged_linker_0, # of connection points: 3
#     Node 4, Type 0, BuildingBlock: VETTIZ_charged_linker_0, # of connection points: 3
#     Node 5, Type 0, BuildingBlock: VETTIZ_charged_linker_0, # of connection points: 3
#     Node 6, Type 0, BuildingBlock: VETTIZ_charged_linker_0, # of connection points: 3
#     Node 7, Type 0, BuildingBlock: VETTIZ_charged_linker_0, # of connection points: 3
#     Node 8, Type 1, BuildingBlock: MIDCAF_clean_sbu_0, # of connection points: 6
#     Node 9, Type 1, BuildingBlock: MIDCAF_clean_sbu_0, # of connection points: 6
#     Node 10, Type 1, BuildingBlock: MIDCAF_clean_sbu_0, # of connection points: 6
#     Node 11, Type 1, BuildingBlock: MIDCAF_clean_sbu_0, # of connection points: 6
#     Edge 12, Type (0, 1), BuildingBlock: XUDNAN_clean_linker_2, # of connection points: 2
#     Edge 13, Type (0, 1), BuildingBlock: XUDNAN_clean_linker_2, # of connection points: 2
#     Edge 14, Type (0, 1), BuildingBlock: XUDNAN_clean_linker_2, # of connection points: 2
#     Edge 15, Type (0, 1), BuildingBlock: XUDNAN_clean_linker_2, # of connection points: 2
#     Edge 16, Type (0, 1), BuildingBlock: XUDNAN_clean_linker_2, # of connection points: 2
#     Edge 17, Type (0, 1), BuildingBlock: XUDNAN_clean_linker_2, # of connection points: 2
#     Edge 18, Type (0, 1), BuildingBlock: XUDNAN_clean_linker_2, # of connection points: 2
#     Edge 19, Type (0, 1), BuildingBlock: XUDNAN_clean_linker_2, # of connection points: 2
#     Edge 20, Type (0, 1), BuildingBlock: XUDNAN_clean_linker_2, # of connection points: 2
#     Edge 21, Type (0, 1), BuildingBlock: XUDNAN_clean_linker_2, # of connection points: 2
#     Edge 22, Type (0, 1), BuildingBlock: XUDNAN_clean_linker_2, # of connection points: 2
#     Edge 23, Type (0, 1), BuildingBlock: XUDNAN_clean_linker_2, # of connection points: 2
#     Edge 24, Type (0, 1), BuildingBlock: XUDNAN_clean_linker_2, # of connection points: 2
#     Edge 25, Type (0, 1), BuildingBlock: XUDNAN_clean_linker_2, # of connection points: 2
#     Edge 26, Type (0, 1), BuildingBlock: XUDNAN_clean_linker_2, # of connection points: 2
#     Edge 27, Type (0, 1), BuildingBlock: XUDNAN_clean_linker_2, # of connection points: 2
#     Edge 28, Type (0, 1), BuildingBlock: XUDNAN_clean_linker_2, # of connection points: 2
#     Edge 29, Type (0, 1), BuildingBlock: XUDNAN_clean_linker_2, # of connection points: 2
#     Edge 30, Type (0, 1), BuildingBlock: XUDNAN_clean_linker_2, # of connection points: 2
#     Edge 31, Type (0, 1), BuildingBlock: XUDNAN_clean_linker_2, # of connection points: 2
#     Edge 32, Type (0, 1), BuildingBlock: XUDNAN_clean_linker_2, # of connection points: 2
#     Edge 33, Type (0, 1), BuildingBlock: XUDNAN_clean_linker_2, # of connection points: 2
#     Edge 34, Type (0, 1), BuildingBlock: XUDNAN_clean_linker_2, # of connection points: 2
#     Edge 35, Type (0, 1), BuildingBlock: XUDNAN_clean_linker_2, # of connection points: 2
# Relax obj value: 0.019
# Max RMSD: 0.063
# Mean RMSD: 0.021
data_MOF--net-pry--node1-MIDCAF_clean_sbu_0--node2-VETTIZ_charged_linker_0--edge1-XUDNAN_clean_linker_2
_symmetry_space_group_name_H-M    P1
_symmetry_Int_Tables_number       1
_symmetry_cell_setting            triclinic
loop_
_symmetry_equiv_pos_as_xyz
'x, y, z'
_cell_length_a     43.600287
_cell_length_b     43.67862
_cell_length_c     43.664638
_cell_angle_alpha  89.987018
_cell_angle_beta   89.967224
_cell_angle_gamma 90.101512
loop_
_atom_site_label
_atom_site_type_symbol
_atom_site_fract_x
_atom_site_fract_y
_atom_site_fract_z
_atom_type_partial_charge
C0 C 0.1741 0.18185 0.3203 0.0
C1 C 0.15017 0.19893 0.33384 0.0
C2 C 0.1439 0.22838 0.32199 0.0
C3 C 0.18176 0.22141 0.28196 0.0
C4 C 0.18978 0.19367 0.29482 0.0
C5 C 0.21642 0.17907 0.27836 0.0
H6 H 0.30769 0.17432 0.15324 0.0
C7 C 0.2004 0.22589 0.25404 0.0
C8 C 0.22105 0.20134 0.25195 0.0
H9 H 0.31542 0.12036 0.23629 0.0
H10 H 0.27237 0.1471 0.25774 0.0
H11 H 0.30153 0.23813 0.19045 0.0
H12 H 0.23534 0.17763 0.14913 0.0
H13 H 0.22275 0.2152 0.14239 0.0
H14 H 0.25896 0.20276 0.12667 0.0
H15 H 0.29789 0.23353 0.14975 0.0
H16 H 0.27481 0.26068 0.17049 0.0
C17 C 0.24438 0.17855 0.30036 0.0
C18 C 0.2065 0.14704 0.26695 0.0
C19 C 0.17493 0.31318 0.18131 0.0
C20 C 0.18412 0.32028 0.15116 0.0
C21 C 0.20628 0.3014 0.13699 0.0
C22 C 0.21897 0.27627 0.15244 0.0
C23 C 0.20926 0.26946 0.18236 0.0
C24 C 0.1873 0.28758 0.19613 0.0
C25 C 0.17789 0.27552 0.22702 0.0
C26 C 0.19849 0.24766 0.22991 0.0
C27 C 0.21702 0.2444 0.2038 0.0
C28 C 0.18546 0.30009 0.25147 0.0
C29 C 0.14348 0.26668 0.22517 0.0
C30 C 0.30077 0.16833 0.17626 0.0
C31 C 0.31538 0.14461 0.19266 0.0
C32 C 0.30451 0.13773 0.22243 0.0
C33 C 0.27965 0.15363 0.23522 0.0
C34 C 0.26567 0.17723 0.21851 0.0
C35 C 0.27667 0.18463 0.1898 0.0
C36 C 0.26061 0.212 0.17639 0.0
C37 C 0.23844 0.21999 0.20199 0.0
C38 C 0.24094 0.19904 0.22626 0.0
C39 C 0.2848 0.23751 0.17122 0.0
C40 C 0.24363 0.20165 0.14697 0.0
H41 H 0.15306 0.26186 0.28805 0.0
H42 H 0.18013 0.15935 0.32866 0.0
H43 H 0.18418 0.14844 0.2547 0.0
H44 H 0.22303 0.13692 0.25074 0.0
H45 H 0.20372 0.13092 0.28645 0.0
H46 H 0.24167 0.19496 0.31965 0.0
H47 H 0.24772 0.15547 0.31053 0.0
H48 H 0.26586 0.18572 0.28878 0.0
H49 H 0.15828 0.32707 0.1933 0.0
H50 H 0.2134 0.3055 0.1136 0.0
H51 H 0.23555 0.26283 0.14027 0.0
H52 H 0.20636 0.31328 0.24505 0.0
H53 H 0.16634 0.31666 0.25406 0.0
H54 H 0.19087 0.29005 0.27407 0.0
H55 H 0.13819 0.25569 0.20279 0.0
H56 H 0.13643 0.24976 0.2425 0.0
H57 H 0.12866 0.28723 0.22734 0.0
H58 H 0.1268 0.24293 0.33249 0.0
C59 C 0.15936 0.23956 0.29616 0.0
C60 C 0.22268 0.86817 0.67501 0.0
C61 C 0.20983 0.89322 0.69052 0.0
C62 C 0.22286 0.90289 0.71838 0.0
C63 C 0.26198 0.86359 0.71414 0.0
C64 C 0.24841 0.85354 0.68735 0.0
C65 C 0.26422 0.8259 0.67426 0.0
H66 H 0.38428 0.7283 0.67615 0.0
C67 C 0.28882 0.84382 0.72028 0.0
C68 C 0.28997 0.8214 0.69723 0.0
H69 H 0.3066 0.7289 0.61439 0.0
H70 H 0.2844 0.77077 0.64227 0.0
H71 H 0.39168 0.80254 0.68332 0.0
H72 H 0.34437 0.73385 0.73604 0.0
H73 H 0.35693 0.76161 0.76226 0.0
H74 H 0.38478 0.74023 0.74031 0.0
H75 H 0.41066 0.77255 0.7041 0.0
H76 H 0.40023 0.80785 0.72242 0.0
C77 C 0.27656 0.83454 0.64212 0.0
C78 C 0.24126 0.79873 0.67441 0.0
C79 C 0.36202 0.87024 0.80717 0.0
C80 C 0.38917 0.85656 0.81809 0.0
C81 C 0.39911 0.82901 0.80436 0.0
C82 C 0.38319 0.8161 0.77964 0.0
C83 C 0.35678 0.83061 0.76845 0.0
C84 C 0.34618 0.85681 0.78263 0.0
C85 C 0.31686 0.86823 0.7685 0.0
C86 C 0.3121 0.84498 0.74303 0.0
C87 C 0.33579 0.82321 0.74289 0.0
C88 C 0.32278 0.90078 0.75575 0.0
C89 C 0.29113 0.86652 0.79297 0.0
C90 C 0.36232 0.73712 0.66874 0.0
C91 C 0.3476 0.72536 0.64248 0.0
C92 C 0.31903 0.73788 0.63388 0.0
C93 C 0.30597 0.76215 0.65028 0.0
C94 C 0.32137 0.77413 0.67585 0.0
C95 C 0.34874 0.76122 0.68509 0.0
C96 C 0.36114 0.77616 0.71362 0.0
C97 C 0.33693 0.80048 0.7196 0.0
C98 C 0.31393 0.7994 0.69713 0.0
C99 C 0.39269 0.79047 0.70574 0.0
C100 C 0.36214 0.75183 0.73948 0.0
H101 H 0.25818 0.89697 0.75128 0.0
H102 H 0.2127 0.85999 0.65381 0.0
H103 H 0.22358 0.80146 0.69259 0.0
H104 H 0.25244 0.77663 0.67973 0.0
H105 H 0.22906 0.79679 0.65216 0.0
H106 H 0.28739 0.85762 0.64257 0.0
H107 H 0.2577 0.83509 0.62504 0.0
H108 H 0.29453 0.8189 0.63377 0.0
H109 H 0.35355 0.89137 0.81694 0.0
H110 H 0.41931 0.81729 0.81269 0.0
H111 H 0.39222 0.79538 0.77006 0.0
H112 H 0.34507 0.90165 0.74335 0.0
H113 H 0.32371 0.91787 0.77457 0.0
H114 H 0.30539 0.90821 0.73903 0.0
H115 H 0.29567 0.84809 0.80997 0.0
H116 H 0.26856 0.86057 0.78303 0.0
H117 H 0.28915 0.8884 0.80577 0.0
H118 H 0.21319 0.92215 0.73065 0.0
C119 C 0.24898 0.88831 0.73021 0.0
C120 C 0.69089 0.22114 0.87125 0.0
C121 C 0.66656 0.20304 0.86028 0.0
C122 C 0.65165 0.21151 0.83296 0.0
C123 C 0.68559 0.25502 0.82741 0.0
C124 C 0.70027 0.24678 0.85423 0.0
C125 C 0.72665 0.2679 0.86152 0.0
H126 H 0.81456 0.3894 0.82046 0.0
C127 C 0.70143 0.28197 0.81457 0.0
C128 C 0.72589 0.28939 0.83411 0.0
H129 H 0.81829 0.33722 0.90467 0.0
H130 H 0.7781 0.30412 0.88628 0.0
H131 H 0.73991 0.39299 0.82049 0.0
H132 H 0.80518 0.3352 0.77444 0.0
H133 H 0.77444 0.3402 0.74896 0.0
H134 H 0.79675 0.37302 0.76087 0.0
H135 H 0.76656 0.40658 0.79218 0.0
H136 H 0.73003 0.39095 0.78148 0.0
C137 C 0.71926 0.28473 0.89187 0.0
C138 C 0.75645 0.24871 0.86236 0.0
C139 C 0.65861 0.33494 0.72024 0.0
C140 C 0.66937 0.35922 0.70182 0.0
C141 C 0.69895 0.37115 0.70773 0.0
C142 C 0.71636 0.36071 0.73255 0.0
C143 C 0.70442 0.33778 0.75167 0.0
C144 C 0.67665 0.32435 0.74457 0.0
C145 C 0.66918 0.29804 0.76557 0.0
C146 C 0.69601 0.29949 0.78774 0.0
C147 C 0.71625 0.32317 0.77976 0.0
C148 C 0.63834 0.30491 0.78174 0.0
C149 C 0.6692 0.26809 0.74638 0.0
C150 C 0.80671 0.37099 0.83512 0.0
C151 C 0.81985 0.36615 0.86415 0.0
C152 C 0.80911 0.34137 0.88202 0.0
C153 C 0.78543 0.32232 0.87146 0.0
C154 C 0.77197 0.32817 0.84283 0.0
C155 C 0.78268 0.35219 0.82521 0.0
C156 C 0.76454 0.35627 0.79624 0.0
C157 C 0.74111 0.33072 0.79937 0.0
C158 C 0.7457 0.31416 0.82658 0.0
C159 C 0.74949 0.38837 0.79732 0.0
C160 C 0.78621 0.35116 0.76855 0.0
H161 H 0.6485 0.24274 0.79611 0.0
H162 H 0.70278 0.21504 0.89215 0.0
H163 H 0.75676 0.23187 0.84325 0.0
H164 H 0.77736 0.26264 0.85937 0.0
H165 H 0.7583 0.23575 0.88417 0.0
H166 H 0.69413 0.28829 0.89454 0.0
H167 H 0.72727 0.2714 0.91199 0.0
H168 H 0.72919 0.308 0.89282 0.0
H169 H 0.63629 0.32476 0.71651 0.0
H170 H 0.70875 0.38879 0.69332 0.0
H171 H 0.73836 0.37115 0.73611 0.0
H172 H 0.63791 0.32894 0.79018 0.0
H173 H 0.61877 0.30187 0.76574 0.0
H174 H 0.63431 0.29037 0.80201 0.0
H175 H 0.682 0.27081 0.72449 0.0
H176 H 0.68098 0.24906 0.75832 0.0
H177 H 0.64551 0.26082 0.74047 0.0
H178 H 0.63258 0.19809 0.82437 0.0
C179 C 0.66093 0.23742 0.81658 0.0
C180 C 0.86271 0.81434 0.36169 0.0
C181 C 0.85153 0.82462 0.39028 0.0
C182 C 0.82815 0.80727 0.40464 0.0
C183 C 0.82723 0.7714 0.3624 0.0
C184 C 0.85077 0.78746 0.34864 0.0
C185 C 0.86206 0.77176 0.32004 0.0
H186 H 0.85999 0.64684 0.22833 0.0
C187 C 0.82036 0.74425 0.34342 0.0
C188 C 0.84109 0.74388 0.31888 0.0
H189 H 0.91664 0.72811 0.22031 0.0
H190 H 0.89062 0.75063 0.26307 0.0
H191 H 0.85598 0.64139 0.30193 0.0
H192 H 0.79773 0.6878 0.23696 0.0
H193 H 0.77416 0.67141 0.26514 0.0
H194 H 0.79721 0.64693 0.24112 0.0
H195 H 0.8332 0.62141 0.27404 0.0
H196 H 0.81721 0.63305 0.31021 0.0
C197 C 0.89603 0.7628 0.32526 0.0
C198 C 0.85673 0.79346 0.29249 0.0
C199 C 0.72757 0.6791 0.36883 0.0
C200 C 0.71467 0.65274 0.35568 0.0
C201 C 0.73038 0.63798 0.33166 0.0
C202 C 0.75793 0.65022 0.32003 0.0
C203 C 0.76994 0.67735 0.33275 0.0
C204 C 0.75502 0.69089 0.35718 0.0
C205 C 0.77149 0.71875 0.36887 0.0
C206 C 0.79766 0.72107 0.3461 0.0
C207 C 0.79684 0.69675 0.32504 0.0
C208 C 0.78303 0.71193 0.40182 0.0
C209 C 0.74943 0.74642 0.36656 0.0
C210 C 0.86679 0.66957 0.23547 0.0
C211 C 0.89136 0.68508 0.22109 0.0
C212 C 0.89887 0.71483 0.23144 0.0
C213 C 0.88352 0.72812 0.25627 0.0
C214 C 0.85996 0.71185 0.27097 0.0
C215 C 0.85126 0.6835 0.25995 0.0
C216 C 0.82382 0.6709 0.27685 0.0
C217 C 0.81879 0.69554 0.30092 0.0
C218 C 0.84032 0.71932 0.29752 0.0
C219 C 0.83276 0.63993 0.29147 0.0
C220 C 0.79673 0.66886 0.25399 0.0
H221 H 0.79799 0.76937 0.40289 0.0
H222 H 0.88051 0.82663 0.34955 0.0
H223 H 0.83569 0.80745 0.29585 0.0
H224 H 0.85277 0.78099 0.27083 0.0
H225 H 0.87631 0.8095 0.28948 0.0
H226 H 0.89955 0.75442 0.34907 0.0
H227 H 0.91145 0.78277 0.32175 0.0
H228 H 0.90378 0.74388 0.31048 0.0
H229 H 0.71642 0.6904 0.3879 0.0
H230 H 0.72094 0.61745 0.32141 0.0
H231 H 0.76875 0.63823 0.30149 0.0
H232 H 0.78423 0.68692 0.40651 0.0
H233 H 0.76763 0.72212 0.41933 0.0
H234 H 0.80673 0.7203 0.40564 0.0
H235 H 0.73773 0.74664 0.34392 0.0
H236 H 0.76121 0.7687 0.36848 0.0
H237 H 0.73148 0.74528 0.38459 0.0
H238 H 0.8196 0.81325 0.4271 0.0
C239 C 0.8158 0.78116 0.39076 0.0
C240 C 0.93092 0.82736 0.96611 0.0
C241 C 0.95776 0.81083 0.95915 0.0
C242 C 0.98007 0.82478 0.94019 0.0
C243 C 0.94751 0.86902 0.93312 0.0
C244 C 0.92649 0.85642 0.95317 0.0
C245 C 0.89956 0.87726 0.9585 0.0
H246 H 0.82051 0.00464 0.91963 0.0
C247 C 0.93542 0.8987 0.9224 0.0
C248 C 0.90761 0.90401 0.93769 0.0
H249 H 0.79754 0.93669 0.98798 0.0
H250 H 0.84522 0.91062 0.97859 0.0
H251 H 0.84841 0.95615 0.86945 0.0
H252 H 0.88979 0.01246 0.93907 0.0
H253 H 0.91598 0.01105 0.90855 0.0
H254 H 0.87864 0.02798 0.9027 0.0
H255 H 0.84879 0.99726 0.86828 0.0
H256 H 0.88024 0.97523 0.85351 0.0
C257 C 0.87023 0.86036 0.94771 0.0
C258 C 0.89928 0.88665 0.99276 0.0
C259 C 0.98664 0.95297 0.83286 0.0
C260 C 0.97983 0.9802 0.81727 0.0
C261 C 0.95594 0.99902 0.82788 0.0
C262 C 0.9381 0.9902 0.85309 0.0
C263 C 0.94424 0.96224 0.86778 0.0
C264 C 0.96879 0.94462 0.85826 0.0
C265 C 0.97282 0.91647 0.87771 0.0
C266 C 0.94578 0.91943 0.89953 0.0
C267 C 0.92888 0.94605 0.89326 0.0
C268 C 0.96982 0.88807 0.8567 0.0
C269 C 0.00402 0.91887 0.89464 0.0
C270 C 0.82581 0.98412 0.93251 0.0
C271 C 0.8052 0.9727 0.95453 0.0
C272 C 0.81314 0.94617 0.97114 0.0
C273 C 0.84077 0.9309 0.96549 0.0
C274 C 0.86079 0.94213 0.94292 0.0
C275 C 0.85345 0.96861 0.92723 0.0
C276 C 0.87788 0.97741 0.90448 0.0
C277 C 0.90091 0.9517 0.90899 0.0
C278 C 0.89052 0.93092 0.93126 0.0
C279 C 0.86327 0.97672 0.87215 0.0
C280 C 0.89126 0.00894 0.91387 0.0
H281 H 0.99263 0.86259 0.91249 0.0
H282 H 0.91328 0.8177 0.98067 0.0
H283 H 0.92273 0.88606 0.00277 0.0
H284 H 0.89152 0.91051 0.99622 0.0
H285 H 0.88463 0.871 0.00652 0.0
H286 H 0.87445 0.8484 0.9256 0.0
H287 H 0.86295 0.84289 0.96473 0.0
H288 H 0.85078 0.87584 0.94332 0.0
H289 H 0.00514 0.93836 0.82513 0.0
H290 H 0.95047 0.02009 0.81598 0.0
H291 H 0.91982 0.00518 0.85976 0.0
H292 H 0.94942 0.89028 0.84156 0.0
H293 H 0.99037 0.8856 0.84187 0.0
H294 H 0.96665 0.86652 0.86943 0.0
H295 H 0.01202 0.94301 0.89644 0.0
H296 H 0.00253 0.91082 0.91866 0.0
H297 H 0.02218 0.90579 0.88254 0.0
H298 H 0.00155 0.8134 0.93528 0.0
C299 C 0.97503 0.85359 0.9271 0.0
C300 C 0.72437 0.08584 0.45428 0.0
C301 C 0.73576 0.05986 0.43921 0.0
C302 C 0.72359 0.05162 0.41053 0.0
C303 C 0.68808 0.09444 0.41306 0.0
C304 C 0.70089 0.10286 0.44077 0.0
C305 C 0.6873 0.13184 0.45334 0.0
H306 H 0.58578 0.24772 0.43956 0.0
C307 C 0.6637 0.11688 0.40576 0.0
C308 C 0.66339 0.13894 0.4292 0.0
H309 H 0.65523 0.23575 0.50916 0.0
H310 H 0.67092 0.18819 0.48563 0.0
H311 H 0.56307 0.17808 0.43857 0.0
H312 H 0.6277 0.22799 0.38322 0.0
H313 H 0.60546 0.20528 0.35848 0.0
H314 H 0.58704 0.23417 0.38143 0.0
H315 H 0.55096 0.20393 0.40906 0.0
H316 H 0.55902 0.16417 0.40109 0.0
C317 C 0.67246 0.12446 0.48473 0.0
C318 C 0.7129 0.15654 0.45456 0.0
C319 C 0.59737 0.10323 0.31076 0.0
C320 C 0.57224 0.11967 0.29888 0.0
C321 C 0.56154 0.14546 0.31508 0.0
C322 C 0.57574 0.15492 0.34227 0.0
C323 C 0.60096 0.13844 0.35361 0.0
C324 C 0.61118 0.11287 0.33809 0.0
C325 C 0.63792 0.09785 0.35393 0.0
C326 C 0.6421 0.11873 0.38144 0.0
C327 C 0.6205 0.14257 0.38096 0.0
C328 C 0.62803 0.06516 0.36346 0.0
C329 C 0.66596 0.09893 0.33216 0.0
C330 C 0.6041 0.23466 0.45001 0.0
C331 C 0.6192 0.24544 0.47636 0.0
C332 C 0.64338 0.22804 0.48877 0.0
C333 C 0.65241 0.20041 0.47507 0.0
C334 C 0.63729 0.19016 0.44851 0.0
C335 C 0.61352 0.20721 0.43649 0.0
C336 C 0.60047 0.19322 0.40784 0.0
C337 C 0.62066 0.16518 0.40433 0.0
C338 C 0.64204 0.16341 0.42827 0.0
C339 C 0.56655 0.18451 0.41415 0.0
C340 C 0.6051 0.21626 0.38123 0.0
H341 H 0.69101 0.06121 0.37565 0.0
H342 H 0.7339 0.09301 0.47606 0.0
H343 H 0.73076 0.15239 0.43683 0.0
H344 H 0.70428 0.17979 0.44948 0.0
H345 H 0.72452 0.15669 0.47719 0.0
H346 H 0.65995 0.10225 0.48378 0.0
H347 H 0.69015 0.12268 0.50294 0.0
H348 H 0.6552 0.14151 0.4918 0.0
H349 H 0.60654 0.08354 0.29881 0.0
H350 H 0.54198 0.15829 0.30684 0.0
H351 H 0.56653 0.17478 0.35337 0.0
H352 H 0.60415 0.06521 0.37247 0.0
H353 H 0.62875 0.04929 0.3436 0.0
H354 H 0.64213 0.05558 0.38208 0.0
H355 H 0.66594 0.12031 0.3183 0.0
H356 H 0.68804 0.09931 0.34454 0.0
H357 H 0.66577 0.07927 0.31602 0.0
H358 H 0.73235 0.03177 0.39852 0.0
C359 C 0.69962 0.06869 0.39743 0.0
C360 C 0.48412 0.59937 0.20439 0.0
C361 C 0.47557 0.57594 0.22476 0.0
C362 C 0.45072 0.5567 0.21697 0.0
C363 C 0.44178 0.58605 0.17079 0.0
C364 C 0.46693 0.60404 0.17772 0.0
C365 C 0.47156 0.62937 0.1549 0.0
H366 H 0.41528 0.71499 0.03947 0.0
C367 C 0.42724 0.59865 0.14296 0.0
C368 C 0.44476 0.62388 0.13337 0.0
H369 H 0.49854 0.7284 0.09142 0.0
H370 H 0.49113 0.67997 0.11671 0.0
H371 H 0.3749 0.69149 0.09438 0.0
H372 H 0.42638 0.64137 0.02694 0.0
H373 H 0.39297 0.62006 0.03418 0.0
H374 H 0.38987 0.65814 0.01829 0.0
H375 H 0.3642 0.68971 0.05471 0.0
H376 H 0.35192 0.66099 0.08158 0.0
C377 C 0.46872 0.66024 0.17226 0.0
C378 C 0.50283 0.62434 0.13875 0.0
C379 C 0.32502 0.5559 0.10646 0.0
C380 C 0.30496 0.56448 0.08276 0.0
C381 C 0.31375 0.58839 0.06282 0.0
C382 C 0.34162 0.60383 0.06672 0.0
C383 C 0.36094 0.59564 0.09105 0.0
C384 C 0.3528 0.5717 0.11012 0.0
C385 C 0.37628 0.56627 0.13475 0.0
C386 C 0.39972 0.59097 0.12733 0.0
C387 C 0.3904 0.60831 0.1019 0.0
C388 C 0.36055 0.57167 0.16615 0.0
C389 C 0.38965 0.53372 0.13041 0.0
C390 C 0.43209 0.70708 0.05592 0.0
C391 C 0.45726 0.72554 0.06389 0.0
C392 C 0.47873 0.71465 0.08535 0.0
C393 C 0.47433 0.68659 0.10007 0.0
C394 C 0.44792 0.66937 0.09364 0.0
C395 C 0.42781 0.67911 0.07119 0.0
C396 C 0.40103 0.65759 0.06764 0.0
C397 C 0.40803 0.63395 0.09224 0.0
C398 C 0.43534 0.64127 0.10758 0.0
C399 C 0.3713 0.6757 0.07471 0.0
C400 C 0.40229 0.6436 0.03506 0.0
H401 H 0.41491 0.54652 0.18581 0.0
H402 H 0.5033 0.61432 0.20947 0.0
H403 H 0.50859 0.59957 0.13739 0.0
H404 H 0.50276 0.63221 0.11466 0.0
H405 H 0.52172 0.63594 0.15128 0.0
H406 H 0.45047 0.65894 0.19005 0.0
H407 H 0.49054 0.66623 0.18395 0.0
H408 H 0.46189 0.67952 0.15749 0.0
H409 H 0.31915 0.53746 0.122 0.0
H410 H 0.29863 0.59588 0.04464 0.0
H411 H 0.3467 0.62204 0.05103 0.0
H412 H 0.34392 0.59092 0.16476 0.0
H413 H 0.34774 0.551 0.17369 0.0
H414 H 0.37671 0.57843 0.18436 0.0
H415 H 0.39109 0.52769 0.1057 0.0
H416 H 0.4134 0.53166 0.13896 0.0
H417 H 0.37505 0.51622 0.14179 0.0
H418 H 0.44332 0.53867 0.23232 0.0
C419 C 0.43394 0.56152 0.19006 0.0
C420 C 0.06521 0.32253 0.57103 0.0
C421 C 0.08019 0.3098 0.54556 0.0
C422 C 0.10893 0.32148 0.53662 0.0
C423 C 0.1073 0.35818 0.57839 0.0
C424 C 0.07925 0.34634 0.58725 0.0
C425 C 0.06743 0.36079 0.61621 0.0
H426 H 0.09151 0.45618 0.7359 0.0
C427 C 0.11593 0.38215 0.60075 0.0
C428 C 0.09279 0.38358 0.6231 0.0
H429 H 0.01398 0.39634 0.72068 0.0
H430 H 0.0349 0.38139 0.67155 0.0
H431 H 0.09301 0.48283 0.66749 0.0
H432 H 0.14362 0.41065 0.71151 0.0
H433 H 0.16961 0.43269 0.6899 0.0
H434 H 0.14867 0.45041 0.72068 0.0
H435 H 0.12424 0.4907 0.69305 0.0
H436 H 0.13039 0.48425 0.65265 0.0
C437 C 0.03672 0.37697 0.60886 0.0
C438 C 0.06506 0.33548 0.64102 0.0
C439 C 0.21509 0.44175 0.58647 0.0
C440 C 0.22976 0.46474 0.60371 0.0
C441 C 0.21541 0.47552 0.63058 0.0
C442 C 0.18725 0.46333 0.6403 0.0
C443 C 0.1732 0.44001 0.62306 0.0
C444 C 0.18706 0.42975 0.59654 0.0
C445 C 0.16905 0.40463 0.58126 0.0
C446 C 0.14181 0.40184 0.60273 0.0
C447 C 0.14443 0.42248 0.62725 0.0
C448 C 0.15936 0.41593 0.54909 0.0
C449 C 0.18894 0.37521 0.58107 0.0
C450 C 0.07914 0.43972 0.72202 0.0
C451 C 0.05132 0.42702 0.73231 0.0
C452 C 0.03548 0.40635 0.71324 0.0
C453 C 0.04778 0.39758 0.68484 0.0
C454 C 0.07619 0.40969 0.67536 0.0
C455 C 0.09103 0.43088 0.69361 0.0
C456 C 0.12049 0.44208 0.67954 0.0
C457 C 0.12146 0.42334 0.65031 0.0
C458 C 0.09558 0.40427 0.64805 0.0
C459 C 0.11718 0.4768 0.67294 0.0
C460 C 0.14714 0.43381 0.70147 0.0
H461 H 0.14433 0.35384 0.54481 0.0
H462 H 0.0434 0.31345 0.57878 0.0
H463 H 0.08401 0.31862 0.63859 0.0
H464 H 0.06739 0.34437 0.66455 0.0
H465 H 0.04307 0.32275 0.6391 0.0
H466 H 0.03745 0.3876 0.58571 0.0
H467 H 0.0173 0.36048 0.60921 0.0
H468 H 0.03165 0.39604 0.62466 0.0
H469 H 0.22518 0.43318 0.56549 0.0
H470 H 0.2263 0.49294 0.6445 0.0
H471 H 0.1777 0.47228 0.66109 0.0
H472 H 0.15151 0.44014 0.55011 0.0
H473 H 0.17888 0.4148 0.53277 0.0
H474 H 0.13989 0.40296 0.53947 0.0
H475 H 0.20515 0.37483 0.60074 0.0
H476 H 0.17517 0.3541 0.58378 0.0
H477 H 0.20277 0.37355 0.55976 0.0
H478 H 0.12084 0.31179 0.51713 0.0
C479 C 0.12246 0.34581 0.55275 0.0
Zn480 Zn 0.96668 0.07036 0.56853 0.0
Zn481 Zn 0.04087 0.00383 0.49783 0.0
Zn482 Zn 0.00236 0.03635 0.53422 0.0
C483 C 0.04831 0.06478 0.48152 0.0
C484 C 0.98003 0.98199 0.48884 0.0
O485 O 0.01383 0.02778 0.58329 0.0
O486 O 0.9852 0.0612 0.60859 0.0
C487 C 0.99677 0.11061 0.53043 0.0
O488 O 0.02809 0.06754 0.50295 0.0
O489 O 0.05837 0.0387 0.47421 0.0
O490 O 0.00736 0.97779 0.4801 0.0
O491 O 0.97382 0.00338 0.50827 0.0
O492 O 0.97521 0.11046 0.54967 0.0
O493 O 0.01008 0.08541 0.52267 0.0
O494 O 0.9538 0.02459 0.52361 0.0
O495 O 0.92735 0.0509 0.55801 0.0
C496 C 0.92801 0.03252 0.53575 0.0
O497 O 0.03363 0.00983 0.56455 0.0
O498 O 0.06559 0.98725 0.53219 0.0
C499 C 0.00514 0.04035 0.6086 0.0
C500 C 0.05712 0.99262 0.55933 0.0
Zn501 Zn 0.48642 0.04751 0.99743 0.0
Zn502 Zn 0.55884 0.97805 0.06877 0.0
Zn503 Zn 0.5249 0.01021 0.03081 0.0
C504 C 0.59842 0.00513 0.02587 0.0
C505 C 0.51765 0.93765 0.04039 0.0
O506 O 0.49442 0.03761 0.06114 0.0
O507 O 0.46324 0.06543 0.03234 0.0
C508 C 0.54849 0.0606 0.98239 0.0
O509 O 0.57314 0.01742 0.01681 0.0
O510 O 0.59839 0.98628 0.04781 0.0
O511 O 0.53687 0.93912 0.06195 0.0
O512 O 0.51132 0.96162 0.02442 0.0
O513 O 0.52154 0.07055 0.97874 0.0
O514 O 0.55388 0.03756 0.99998 0.0
O515 O 0.49773 0.98 0.00121 0.0
O516 O 0.4689 0.01181 0.97399 0.0
C517 C 0.47795 0.98494 0.97985 0.0
O518 O 0.51889 0.02669 0.07899 0.0
O519 O 0.55089 0.99964 0.10739 0.0
C520 C 0.47187 0.05656 0.05847 0.0
C521 C 0.53139 0.02079 0.10515 0.0
Zn522 Zn 0.54043 0.55193 0.54403 0.0
Zn523 Zn 0.47613 0.47523 0.47467 0.0
Zn524 Zn 0.50618 0.51438 0.50822 0.0
C525 C 0.52083 0.44134 0.50281 0.0
C526 C 0.50175 0.51707 0.43441 0.0
O527 O 0.47366 0.54379 0.53352 0.0
O528 O 0.50428 0.57539 0.55912 0.0
C529 C 0.55219 0.49229 0.56315 0.0
O530 O 0.52507 0.46752 0.51591 0.0
O531 O 0.50027 0.43827 0.48276 0.0
O532 O 0.48277 0.49522 0.43462 0.0
O533 O 0.51366 0.52672 0.45964 0.0
O534 O 0.55821 0.5196 0.57053 0.0
O535 O 0.53483 0.48663 0.53987 0.0
O536 O 0.53367 0.54411 0.47779 0.0
O537 O 0.56485 0.56918 0.50918 0.0
C538 C 0.55609 0.56282 0.48235 0.0
O539 O 0.45687 0.51811 0.52194 0.0
O540 O 0.4368 0.47914 0.49653 0.0
C541 C 0.47766 0.56712 0.55122 0.0
C542 C 0.43395 0.50035 0.51594 0.0
Zn543 Zn 0.05812 0.55221 0.97255 0.0
Zn544 Zn 0.98806 0.4912 0.04642 0.0
Zn545 Zn 0.02343 0.52583 0.00881 0.0
C546 C 0.04952 0.47312 0.05475 0.0
C547 C 0.96882 0.47966 0.98679 0.0
O548 O 0.01076 0.57512 0.01289 0.0
O549 O 0.03414 0.59043 0.97081 0.0
C550 C 0.09698 0.53321 0.01627 0.0
O551 O 0.05412 0.49567 0.03613 0.0
O552 O 0.02255 0.46623 0.06286 0.0
O553 O 0.96194 0.47274 0.01401 0.0
O554 O 0.99126 0.49808 0.98102 0.0
O555 O 0.09699 0.55263 0.99493 0.0
O556 O 0.07204 0.51883 0.02319 0.0
O557 O 0.01395 0.50924 0.96106 0.0
O558 O 0.05604 0.5244 0.93733 0.0
C559 C 0.03149 0.50917 0.93723 0.0
O560 O 0.99888 0.55838 0.03858 0.0
O561 O 0.97314 0.52759 0.06989 0.0
C562 C 0.01603 0.59603 0.99267 0.0
C563 C 0.9812 0.55425 0.06193 0.0
H564 H 0.1668 0.15657 0.37838 0.0
H565 H 0.08913 0.21015 0.34639 0.0
H566 H 0.05676 0.18671 0.3859 0.0
H567 H 0.12429 0.0888 0.38641 0.0
H568 H 0.14512 0.07535 0.41941 0.0
H569 H 0.16363 0.10016 0.39219 0.0
H570 H 0.17702 0.13752 0.43584 0.0
H571 H 0.15765 0.11377 0.46355 0.0
H572 H 0.14699 0.15339 0.4592 0.0
H573 H 0.03105 0.15394 0.42547 0.0
H574 H 0.01382 0.11181 0.45928 0.0
H575 H 0.10676 0.07711 0.46307 0.0
C576 C 0.14306 0.16362 0.37953 0.0
C577 C 0.13099 0.18581 0.35916 0.0
C578 C 0.09962 0.19413 0.36209 0.0
C579 C 0.0808 0.18073 0.38445 0.0
C580 C 0.09338 0.15867 0.40366 0.0
C581 C 0.12373 0.14997 0.40125 0.0
C582 C 0.13078 0.12335 0.42234 0.0
C583 C 0.14158 0.09526 0.40399 0.0
C584 C 0.1545 0.13256 0.44669 0.0
C585 C 0.09946 0.11801 0.43643 0.0
C586 C 0.07832 0.13901 0.42581 0.0
C587 C 0.04749 0.13764 0.43429 0.0
C588 C 0.03792 0.1138 0.45364 0.0
C589 C 0.0591 0.09174 0.46423 0.0
C590 C 0.09024 0.09404 0.45564 0.0
H591 H 0.36873 0.88999 0.86811 0.0
H592 H 0.45191 0.85773 0.82375 0.0
H593 H 0.48286 0.88299 0.86341 0.0
H594 H 0.39756 0.96398 0.88521 0.0
H595 H 0.37803 0.96718 0.92146 0.0
H596 H 0.36203 0.94376 0.89153 0.0
H597 H 0.36117 0.89719 0.92833 0.0
H598 H 0.37728 0.9205 0.95837 0.0
H599 H 0.39609 0.88555 0.94709 0.0
H600 H 0.50524 0.91418 0.90559 0.0
H601 H 0.51743 0.95115 0.9467 0.0
H602 H 0.42047 0.96566 0.96261 0.0
C603 C 0.39344 0.88815 0.86664 0.0
C604 C 0.40769 0.87134 0.8428 0.0
C605 C 0.44019 0.8696 0.84209 0.0
C606 C 0.45809 0.88408 0.86446 0.0
C607 C 0.44329 0.90048 0.88743 0.0
C608 C 0.41173 0.90277 0.88864 0.0
C609 C 0.40173 0.92351 0.91467 0.0
C610 C 0.38379 0.95125 0.90248 0.0
C611 C 0.38295 0.90561 0.93853 0.0
C612 C 0.43265 0.93298 0.92747 0.0
C613 C 0.45628 0.91902 0.91165 0.0
C614 C 0.48694 0.9249 0.91843 0.0
C615 C 0.49365 0.94579 0.94183 0.0
C616 C 0.46988 0.96035 0.95829 0.0
C617 C 0.43899 0.95405 0.95088 0.0
H618 H 0.66843 0.41917 0.68209 0.0
H619 H 0.62471 0.33099 0.66632 0.0
H620 H 0.58932 0.35536 0.62976 0.0
H621 H 0.60371 0.46578 0.67713 0.0
H622 H 0.6226 0.49619 0.65651 0.0
H623 H 0.64436 0.47189 0.68169 0.0
H624 H 0.68118 0.45795 0.63719 0.0
H625 H 0.65977 0.48253 0.61194 0.0
H626 H 0.66564 0.44292 0.60201 0.0
H627 H 0.55555 0.39097 0.59821 0.0
H628 H 0.5311 0.4332 0.56951 0.0
H629 H 0.60238 0.49529 0.60029 0.0
C630 C 0.65205 0.40455 0.67057 0.0
C631 C 0.64947 0.37301 0.67762 0.0
C632 C 0.62689 0.35531 0.66219 0.0
C633 C 0.60676 0.3689 0.6411 0.0
C634 C 0.60985 0.40008 0.63513 0.0
C635 C 0.63238 0.41748 0.64896 0.0
C636 C 0.6315 0.45036 0.63817 0.0
C637 C 0.62516 0.47233 0.66497 0.0
C638 C 0.66129 0.45893 0.62132 0.0
C639 C 0.6046 0.4489 0.61642 0.0
C640 C 0.59213 0.41982 0.61519 0.0
C641 C 0.56574 0.41359 0.59827 0.0
C642 C 0.5522 0.43761 0.58174 0.0
C643 C 0.56568 0.46712 0.58137 0.0
C644 C 0.59194 0.47278 0.59941 0.0
H645 H 0.87179 0.64289 0.17761 0.0
H646 H 0.95272 0.69288 0.20765 0.0
H647 H 0.98269 0.66902 0.16652 0.0
H648 H 0.91152 0.57319 0.1645 0.0
H649 H 0.88857 0.56233 0.13193 0.0
H650 H 0.87241 0.58617 0.1614 0.0
H651 H 0.85855 0.62702 0.12063 0.0
H652 H 0.8749 0.60335 0.09105 0.0
H653 H 0.88819 0.64212 0.09607 0.0
H654 H 0.00482 0.63835 0.12311 0.0
H655 H 0.01816 0.59929 0.08417 0.0
H656 H 0.9245 0.56595 0.08562 0.0
C657 C 0.8958 0.6489 0.17579 0.0
C658 C 0.90947 0.67043 0.19589 0.0
C659 C 0.94111 0.67741 0.19216 0.0
C660 C 0.95854 0.66376 0.16889 0.0
C661 C 0.94429 0.64275 0.14961 0.0
C662 C 0.91375 0.63503 0.15306 0.0
C663 C 0.9046 0.60991 0.13092 0.0
C664 C 0.89364 0.5812 0.14822 0.0
C665 C 0.88011 0.62129 0.10833 0.0
C666 C 0.93491 0.60438 0.11487 0.0
C667 C 0.95738 0.62401 0.12554 0.0
C668 C 0.98739 0.62295 0.11447 0.0
C669 C 0.99475 0.60084 0.09234 0.0
C670 C 0.97224 0.58001 0.08177 0.0
C671 C 0.94198 0.58193 0.09311 0.0
H672 H 0.35751 0.16452 0.14918 0.0
H673 H 0.33326 0.08472 0.20382 0.0
H674 H 0.37586 0.05635 0.18055 0.0
H675 H 0.36904 0.12242 0.08167 0.0
H676 H 0.39975 0.14638 0.06779 0.0
H677 H 0.37088 0.16218 0.09258 0.0
H678 H 0.41325 0.18013 0.13025 0.0
H679 H 0.44225 0.16413 0.10559 0.0
H680 H 0.44017 0.15263 0.14518 0.0
H681 H 0.42001 0.03544 0.14938 0.0
H682 H 0.45637 0.0218 0.10802 0.0
H683 H 0.44675 0.11271 0.06945 0.0
C684 C 0.36076 0.14107 0.15639 0.0
C685 C 0.34174 0.12732 0.17891 0.0
C686 C 0.34773 0.09651 0.18751 0.0
C687 C 0.37192 0.07998 0.17423 0.0
C688 C 0.38981 0.09423 0.15197 0.0
C689 C 0.38418 0.12394 0.14277 0.0
C690 C 0.40433 0.13289 0.11594 0.0
C691 C 0.38484 0.14146 0.08784 0.0
C692 C 0.4263 0.159 0.12478 0.0
C693 C 0.42159 0.10328 0.11092 0.0
C694 C 0.41364 0.08155 0.13255 0.0
C695 C 0.42641 0.05229 0.13236 0.0
C696 C 0.44711 0.04478 0.10889 0.0
C697 C 0.45422 0.06622 0.08564 0.0
C698 C 0.44165 0.09594 0.08701 0.0
H699 H 0.20645 0.9198 0.63432 0.0
H700 H 0.15367 0.9031 0.71675 0.0
H701 H 0.10845 0.92811 0.69293 0.0
H702 H 0.17395 0.99511 0.61846 0.0
H703 H 0.17492 0.98957 0.57757 0.0
H704 H 0.20281 0.9709 0.60155 0.0
H705 H 0.18707 0.91831 0.5789 0.0
H706 H 0.1591 0.93679 0.55492 0.0
H707 H 0.14745 0.90651 0.58049 0.0
H708 H 0.06773 0.95064 0.65743 0.0
H709 H 0.03683 0.97262 0.61514 0.0
H710 H 0.11813 0.97942 0.55893 0.0
C711 C 0.18536 0.92158 0.64734 0.0
C712 C 0.18327 0.90948 0.6772 0.0
C713 C 0.15555 0.91236 0.69381 0.0
C714 C 0.12984 0.92643 0.68045 0.0
C715 C 0.13255 0.93792 0.65074 0.0
C716 C 0.1598 0.93603 0.63461 0.0
C717 C 0.15697 0.95032 0.6032 0.0
C718 C 0.17844 0.97813 0.60002 0.0
C719 C 0.163 0.92656 0.57789 0.0
C720 C 0.1237 0.95999 0.60382 0.0
C721 C 0.10987 0.95258 0.63134 0.0
C722 C 0.07863 0.95749 0.63624 0.0
C723 C 0.06129 0.97058 0.61248 0.0
C724 C 0.07529 0.97932 0.58464 0.0
C725 C 0.10687 0.97364 0.58029 0.0
H726 H 0.86934 0.35343 0.90157 0.0
H727 H 0.82301 0.4284 0.85542 0.0
H728 H 0.86016 0.46469 0.87726 0.0
H729 H 0.88062 0.39274 0.97069 0.0
H730 H 0.91754 0.37607 0.97874 0.0
H731 H 0.89004 0.35531 0.95609 0.0
H732 H 0.92989 0.3504 0.91224 0.0
H733 H 0.95752 0.37124 0.93482 0.0
H734 H 0.9477 0.38442 0.89697 0.0
H735 H 0.89948 0.49362 0.90731 0.0
H736 H 0.93687 0.51295 0.94542 0.0
H737 H 0.95586 0.42 0.9741 0.0
C738 C 0.867 0.37743 0.89588 0.0
C739 C 0.84331 0.38782 0.87635 0.0
C740 C 0.84134 0.41954 0.86956 0.0
C741 C 0.86229 0.44047 0.88201 0.0
C742 C 0.88508 0.42946 0.90137 0.0
C743 C 0.88751 0.39871 0.90839 0.0
C744 C 0.91252 0.39316 0.9318 0.0
C745 C 0.89938 0.37847 0.96106 0.0
C746 C 0.93844 0.37365 0.91813 0.0
C747 C 0.92311 0.42569 0.93751 0.0
C748 C 0.90739 0.44624 0.91929 0.0
C749 C 0.91226 0.47773 0.92137 0.0
C750 C 0.93353 0.4885 0.94291 0.0
C751 C 0.94954 0.46784 0.96192 0.0
C752 C 0.94428 0.43611 0.95922 0.0
H753 H 0.69953 0.59482 0.37548 0.0
H754 H 0.66254 0.68595 0.36256 0.0
H755 H 0.61432 0.67007 0.3876 0.0
H756 H 0.62445 0.55225 0.36669 0.0
H757 H 0.63453 0.52518 0.39615 0.0
H758 H 0.66405 0.54199 0.37255 0.0
H759 H 0.6923 0.56081 0.42127 0.0
H760 H 0.66286 0.54424 0.44491 0.0
H761 H 0.67206 0.58433 0.44851 0.0
H762 H 0.57384 0.64731 0.42042 0.0
H763 H 0.54335 0.61852 0.45867 0.0
H764 H 0.60521 0.54158 0.4502 0.0
C765 C 0.68084 0.61103 0.37709 0.0
C766 C 0.68459 0.64154 0.36698 0.0
C767 C 0.66004 0.66248 0.37019 0.0
C768 C 0.63253 0.65362 0.38422 0.0
C769 C 0.62981 0.62366 0.3948 0.0
C770 C 0.65317 0.60255 0.39124 0.0
C771 C 0.64545 0.57277 0.40745 0.0
C772 C 0.64191 0.54649 0.38432 0.0
C773 C 0.6696 0.56511 0.43199 0.0
C774 C 0.61484 0.58097 0.42178 0.0
C775 C 0.60602 0.61028 0.41373 0.0
C776 C 0.58006 0.62407 0.42627 0.0
C777 C 0.56292 0.60765 0.44794 0.0
C778 C 0.57163 0.57774 0.45651 0.0
C779 C 0.59766 0.5641 0.44309 0.0
H780 H 0.12514 0.34272 0.15648 0.0
H781 H 0.21054 0.35757 0.10714 0.0
H782 H 0.1859 0.39871 0.07743 0.0
H783 H 0.0741 0.35628 0.09613 0.0
H784 H 0.04638 0.37645 0.11913 0.0
H785 H 0.07074 0.34811 0.13647 0.0
H786 H 0.08982 0.38815 0.17595 0.0
H787 H 0.06535 0.4166 0.15885 0.0
H788 H 0.10589 0.4238 0.16262 0.0
H789 H 0.15009 0.43556 0.05001 0.0
H790 H 0.10769 0.46757 0.0307 0.0
H791 H 0.0488 0.43347 0.10317 0.0
C792 C 0.13911 0.3549 0.13999 0.0
C793 C 0.16991 0.34643 0.13422 0.0
C794 C 0.18673 0.36287 0.11169 0.0
C795 C 0.17302 0.38656 0.09482 0.0
C796 C 0.14262 0.39405 0.10108 0.0
C797 C 0.12606 0.37899 0.12347 0.0
C798 C 0.09383 0.39153 0.12605 0.0
C799 C 0.06986 0.36661 0.11902 0.0
C800 C 0.08842 0.40588 0.15775 0.0
C801 C 0.09464 0.41568 0.10123 0.0
C802 C 0.12288 0.41669 0.08689 0.0
C803 C 0.12821 0.43564 0.06173 0.0
C804 C 0.10411 0.45414 0.05117 0.0
C805 C 0.07536 0.4543 0.06628 0.0
C806 C 0.07072 0.43458 0.09154 0.0
H807 H 0.65002 0.19792 0.92065 0.0
H808 H 0.65912 0.14599 0.83656 0.0
H809 H 0.63599 0.10093 0.86178 0.0
H810 H 0.66251 0.13188 0.97495 0.0
H811 H 0.6341 0.14611 0.00133 0.0
H812 H 0.65624 0.17252 0.97847 0.0
H813 H 0.60598 0.19623 0.95756 0.0
H814 H 0.58377 0.16985 0.98014 0.0
H815 H 0.57808 0.17179 0.9393 0.0
H816 H 0.60529 0.06472 0.89283 0.0
H817 H 0.56928 0.03918 0.92843 0.0
H818 H 0.58001 0.11354 0.99306 0.0
C819 C 0.648 0.1767 0.90797 0.0
C820 C 0.65647 0.17521 0.87678 0.0
C821 C 0.65274 0.14745 0.8605 0.0
C822 C 0.63981 0.12174 0.87467 0.0
C823 C 0.63083 0.12414 0.90519 0.0
C824 C 0.63489 0.15082 0.92177 0.0
C825 C 0.62028 0.14828 0.95321 0.0
C826 C 0.64475 0.14978 0.97848 0.0
C827 C 0.59556 0.173 0.95779 0.0
C828 C 0.60626 0.11656 0.95116 0.0
C829 C 0.61311 0.10287 0.92343 0.0
C830 C 0.6005 0.07478 0.91496 0.0
C831 C 0.58014 0.06045 0.93523 0.0
C832 C 0.57301 0.07398 0.96371 0.0
C833 C 0.58621 0.10231 0.97183 0.0
H834 H 0.90986 0.85017 0.384 0.0
H835 H 0.82321 0.86347 0.4318 0.0
H836 H 0.84655 0.90474 0.46182 0.0
H837 H 0.96015 0.86539 0.44335 0.0
H838 H 0.98716 0.88729 0.421 0.0
H839 H 0.96391 0.85849 0.40282 0.0
H840 H 0.94325 0.89867 0.36438 0.0
H841 H 0.96678 0.92758 0.38219 0.0
H842 H 0.92602 0.93337 0.37861 0.0
H843 H 0.88198 0.93848 0.49255 0.0
H844 H 0.92383 0.96971 0.5141 0.0
H845 H 0.98275 0.94408 0.43866 0.0
C846 C 0.89526 0.862 0.4001 0.0
C847 C 0.86468 0.85235 0.40583 0.0
C848 C 0.84704 0.86894 0.42763 0.0
C849 C 0.85996 0.89288 0.44468 0.0
C850 C 0.89027 0.90099 0.43898 0.0
C851 C 0.90738 0.88677 0.41653 0.0
C852 C 0.9392 0.90064 0.41434 0.0
C853 C 0.96406 0.87651 0.42077 0.0
C854 C 0.94409 0.91598 0.38302 0.0
C855 C 0.93758 0.92417 0.43978 0.0
C856 C 0.90928 0.92366 0.454 0.0
C857 C 0.9036 0.94043 0.48052 0.0
C858 C 0.92723 0.95879 0.49227 0.0
C859 C 0.95554 0.96168 0.47673 0.0
C860 C 0.96086 0.94358 0.45038 0.0
H861 H 0.38329 0.67668 0.66194 0.0
H862 H 0.34594 0.7188 0.57989 0.0
H863 H 0.37072 0.67928 0.54838 0.0
H864 H 0.45623 0.66113 0.63019 0.0
H865 H 0.46126 0.62534 0.65011 0.0
H866 H 0.43773 0.65486 0.6666 0.0
H867 H 0.39216 0.61677 0.67004 0.0
H868 H 0.41559 0.58715 0.65339 0.0
H869 H 0.37949 0.59713 0.63599 0.0
H870 H 0.40224 0.63739 0.52518 0.0
H871 H 0.44038 0.59748 0.51217 0.0
H872 H 0.45932 0.584 0.60859 0.0
C873 C 0.38023 0.67768 0.63736 0.0
C874 C 0.36219 0.70085 0.6236 0.0
C875 C 0.35884 0.70097 0.59126 0.0
C876 C 0.37301 0.67866 0.57305 0.0
C877 C 0.39065 0.65632 0.58737 0.0
C878 C 0.39446 0.65573 0.61877 0.0
C879 C 0.41634 0.6305 0.62823 0.0
C880 C 0.44456 0.64375 0.64475 0.0
C881 C 0.3999 0.60646 0.64809 0.0
C882 C 0.42476 0.61748 0.59718 0.0
C883 C 0.40929 0.63239 0.57394 0.0
C884 C 0.41415 0.62525 0.5432 0.0
C885 C 0.43571 0.60256 0.53601 0.0
C886 C 0.45195 0.58724 0.55945 0.0
C887 C 0.44645 0.59485 0.59037 0.0
H888 H 0.97011 0.95423 0.76202 0.0
H889 H 0.02267 0.02481 0.80766 0.0
H890 H 0.04335 0.04201 0.75756 0.0
H891 H 0.02498 0.93927 0.69698 0.0
H892 H 0.99413 0.93498 0.66986 0.0
H893 H 0.98866 0.9238 0.70926 0.0
H894 H 0.94146 0.95938 0.71361 0.0
H895 H 0.94622 0.97032 0.67426 0.0
H896 H 0.94532 0.99927 0.70367 0.0
H897 H 0.05223 0.05591 0.70242 0.0
H898 H 0.0454 0.06782 0.64732 0.0
H899 H 0.98461 0.99005 0.63799 0.0
C900 C 0.98688 0.97255 0.76137 0.0
C901 C 0.99552 0.98786 0.7884 0.0
C902 C 0.0164 0.01257 0.78701 0.0
C903 C 0.02828 0.02234 0.75874 0.0
C904 C 0.01883 0.00717 0.73221 0.0
C905 C 0.9985 0.98281 0.73333 0.0
C906 C 0.98836 0.97333 0.70157 0.0
C907 C 0.99972 0.94092 0.69397 0.0
C908 C 0.95328 0.97575 0.69809 0.0
C909 C 0.00487 0.99708 0.68247 0.0
C910 C 0.02314 0.01579 0.70039 0.0
C911 C 0.03865 0.04092 0.68806 0.0
C912 C 0.03476 0.04749 0.65682 0.0
C913 C 0.01548 0.02907 0.63847 0.0
C914 C 1.00054 0.00356 0.65142 0.0
H915 H 0.56165 0.0613 0.27782 0.0
H916 H 0.55059 0.15684 0.25285 0.0
H917 H 0.5299 0.14123 0.20265 0.0
H918 H 0.59055 0.03801 0.20823 0.0
H919 H 0.57222 0.00098 0.20829 0.0
H920 H 0.5808 0.01965 0.24393 0.0
H921 H 0.52362 0.01538 0.25985 0.0
H922 H 0.51485 0.99683 0.22402 0.0
H923 H 0.49438 0.03087 0.23516 0.0
H924 H 0.51683 0.11531 0.15261 0.0
H925 H 0.51594 0.08171 0.10704 0.0
H926 H 0.53608 0.00346 0.16465 0.0
C927 C 0.55459 0.079 0.26198 0.0
C928 C 0.55766 0.11032 0.26947 0.0
C929 C 0.54797 0.13267 0.24799 0.0
C930 C 0.53619 0.12403 0.21934 0.0
C931 C 0.53403 0.09293 0.21251 0.0
C932 C 0.54296 0.07078 0.23329 0.0
C933 C 0.54145 0.03911 0.21939 0.0
C934 C 0.57313 0.02355 0.21998 0.0
C935 C 0.51712 0.01939 0.23557 0.0
C936 C 0.53168 0.04699 0.1871 0.0
C937 C 0.52677 0.07805 0.18368 0.0
C938 C 0.52 0.09088 0.15518 0.0
C939 C 0.51928 0.0716 0.12942 0.0
C940 C 0.52546 0.03994 0.13241 0.0
C941 C 0.53084 0.02753 0.16177 0.0
H942 H 0.4904 0.52326 0.25549 0.0
H943 H 0.49318 0.62223 0.26338 0.0
H944 H 0.51024 0.61749 0.31697 0.0
H945 H 0.45592 0.51046 0.3234 0.0
H946 H 0.47598 0.47568 0.3329 0.0
H947 H 0.47146 0.48657 0.29353 0.0
H948 H 0.53039 0.48435 0.28578 0.0
H949 H 0.53509 0.47327 0.32529 0.0
H950 H 0.55513 0.50628 0.31057 0.0
H951 H 0.51706 0.6023 0.37195 0.0
H952 H 0.5124 0.57769 0.42282 0.0
H953 H 0.50511 0.48898 0.37928 0.0
C954 C 0.49531 0.54393 0.26826 0.0
C955 C 0.49058 0.57308 0.25515 0.0
C956 C 0.4972 0.59961 0.27268 0.0
C957 C 0.50686 0.59715 0.30322 0.0
C958 C 0.5101 0.56803 0.31582 0.0
C959 C 0.5048 0.54187 0.29875 0.0
C960 C 0.50598 0.51345 0.31848 0.0
C961 C 0.47553 0.49552 0.31699 0.0
C962 C 0.53328 0.49314 0.30949 0.0
C963 C 0.51084 0.52782 0.3496 0.0
C964 C 0.514 0.55925 0.3476 0.0
C965 C 0.5156 0.57763 0.37373 0.0
C966 C 0.51324 0.56352 0.40254 0.0
C967 C 0.50924 0.5315 0.40486 0.0
C968 C 0.50869 0.5135 0.37807 0.0
H969 H 0.08359 0.4278 0.78559 0.0
H970 H 0.99284 0.44404 0.74864 0.0
H971 H 0.97504 0.46087 0.79991 0.0
H972 H 0.05852 0.40121 0.86222 0.0
H973 H 0.09041 0.4198 0.88082 0.0
H974 H 0.09448 0.40559 0.84228 0.0
H975 H 0.11159 0.4595 0.82401 0.0
H976 H 0.10771 0.47376 0.86241 0.0
H977 H 0.08724 0.49196 0.83153 0.0
H978 H 0.96974 0.48283 0.8539 0.0
H979 H 0.97779 0.50713 0.9046 0.0
H980 H 0.07096 0.47357 0.90612 0.0
C981 C 0.05986 0.43456 0.78838 0.0
C982 C 0.03959 0.43477 0.76323 0.0
C983 C 0.00866 0.44355 0.76774 0.0
C984 C 0.99839 0.45311 0.79675 0.0
C985 C 0.01922 0.4532 0.82102 0.0
C986 C 0.04926 0.44383 0.81708 0.0
C987 C 0.0678 0.44786 0.84601 0.0
C988 C 0.07842 0.41676 0.85857 0.0
C989 C 0.09518 0.46957 0.84066 0.0
C990 C 0.04393 0.46216 0.86659 0.0
C991 C 0.01588 0.46476 0.85206 0.0
C992 C 0.99129 0.47996 0.86583 0.0
C993 C 0.99578 0.49325 0.89485 0.0
C994 C 0.02444 0.49098 0.90972 0.0
C995 C 0.04854 0.47486 0.89552 0.0
H996 H 0.77682 0.98468 0.00912 0.0
H997 H 0.76467 0.99243 0.91088 0.0
H998 H 0.71136 0.00988 0.91891 0.0
H999 H 0.7073 0.95242 0.0246 0.0
H1000 H 0.70083 0.97185 0.06044 0.0
H1001 H 0.73931 0.9656 0.04718 0.0
H1002 H 0.75041 0.02382 0.05075 0.0
H1003 H 0.71183 0.03026 0.06414 0.0
H1004 H 0.72587 0.05044 0.03094 0.0
H1005 H 0.65706 0.01711 0.93733 0.0
H1006 H 0.60749 0.01461 0.96482 0.0
H1007 H 0.65546 0.00485 0.05087 0.0
C1008 C 0.76313 0.99069 0.98933 0.0
C1009 C 0.77486 0.98727 0.95939 0.0
C1010 C 0.75627 0.9953 0.93404 0.0
C1011 C 0.72595 0.00518 0.93839 0.0
C1012 C 0.71476 0.00738 0.96824 0.0
C1013 C 0.73296 0.00072 0.99329 0.0
C1014 C 0.71483 0.00211 0.0228 0.0
C1015 C 0.71561 0.97116 0.03972 0.0
C1016 C 0.72643 0.02822 0.04337 0.0
C1017 C 0.68323 0.009 0.01036 0.0
C1018 C 0.68365 0.01248 0.97888 0.0
C1019 C 0.65662 0.01564 0.96207 0.0
C1020 C 0.62853 0.01474 0.97782 0.0
C1021 C 0.6277 0.01104 0.00994 0.0
C1022 C 0.65547 0.00858 0.02634 0.0
H1023 H 0.79397 0.05022 0.41796 0.0
H1024 H 0.73339 0.03161 0.49433 0.0
H1025 H 0.77688 0.011 0.52393 0.0
H1026 H 0.85053 0.98311 0.43377 0.0
H1027 H 0.88262 0.00667 0.42271 0.0
H1028 H 0.84596 0.01155 0.40419 0.0
H1029 H 0.84662 0.06917 0.41857 0.0
H1030 H 0.88299 0.0644 0.43718 0.0
H1031 H 0.85102 0.08001 0.45819 0.0
H1032 H 0.82654 0.00406 0.54892 0.0
H1033 H 0.8794 0.01114 0.56774 0.0
H1034 H 0.90961 0.03363 0.47596 0.0
C1035 C 0.78983 0.04038 0.44036 0.0
C1036 C 0.76044 0.04195 0.45384 0.0
C1037 C 0.75577 0.03017 0.48362 0.0
C1038 C 0.78029 0.01829 0.50049 0.0
C1039 C 0.80936 0.01821 0.48717 0.0
C1040 C 0.81428 0.02858 0.45761 0.0
C1041 C 0.84836 0.03041 0.45057 0.0
C1042 C 0.85739 0.00651 0.42636 0.0
C1043 C 0.85778 0.06293 0.44057 0.0
C1044 C 0.86168 0.02216 0.48155 0.0
C1045 C 0.83875 0.01418 0.50199 0.0
C1046 C 0.84479 0.0093 0.53294 0.0
C1047 C 0.8748 0.0135 0.54347 0.0
C1048 C 0.89841 0.02238 0.52313 0.0
C1049 C 0.89198 0.02591 0.49166 0.0
H1050 H 0.27569 0.54868 0.02968 0.0
H1051 H 0.26449 0.54849 0.12838 0.0
H1052 H 0.21079 0.53141 0.12223 0.0
H1053 H 0.20774 0.58282 0.01382 0.0
H1054 H 0.19982 0.5619 0.97913 0.0
H1055 H 0.23875 0.5672 0.99143 0.0
H1056 H 0.24721 0.50843 0.99074 0.0
H1057 H 0.20817 0.50295 0.97826 0.0
H1058 H 0.2218 0.4839 0.01223 0.0
H1059 H 0.15598 0.5222 0.10486 0.0
H1060 H 0.10588 0.52339 0.07782 0.0
H1061 H 0.15342 0.53177 0.99108 0.0
C1062 C 0.26215 0.54448 0.05005 0.0
C1063 C 0.27432 0.54989 0.07948 0.0
C1064 C 0.25584 0.54403 0.10557 0.0
C1065 C 0.22526 0.53437 0.1023 0.0
C1066 C 0.21362 0.53041 0.07282 0.0
C1067 C 0.23167 0.5351 0.04717 0.0
C1068 C 0.21308 0.53301 0.01806 0.0
C1069 C 0.21496 0.56302 0.99956 0.0
C1070 C 0.22317 0.50542 0.99869 0.0
C1071 C 0.18146 0.52807 0.03132 0.0
C1072 C 0.18217 0.52579 0.06289 0.0
C1073 C 0.15524 0.52341 0.08012 0.0
C1074 C 0.12694 0.52411 0.06467 0.0
C1075 C 0.12602 0.52756 0.03248 0.0
C1076 C 0.15361 0.52889 0.01573 0.0
H1077 H 0.27781 0.43227 0.5799 0.0
H1078 H 0.25073 0.52432 0.6056 0.0
H1079 H 0.30125 0.54381 0.58848 0.0
H1080 H 0.35743 0.43827 0.60133 0.0
H1081 H 0.37043 0.4158 0.56925 0.0
H1082 H 0.33288 0.40921 0.58518 0.0
H1083 H 0.30846 0.41799 0.53175 0.0
H1084 H 0.34591 0.42451 0.51566 0.0
H1085 H 0.3164 0.45304 0.51139 0.0
H1086 H 0.3548 0.55324 0.56608 0.0
H1087 H 0.40509 0.55123 0.5398 0.0
H1088 H 0.39558 0.45331 0.52897 0.0
C1089 C 0.28233 0.45657 0.58182 0.0
C1090 C 0.26022 0.47675 0.59405 0.0
C1091 C 0.26741 0.50833 0.59662 0.0
C1092 C 0.29601 0.51963 0.58684 0.0
C1093 C 0.31715 0.49906 0.57462 0.0
C1094 C 0.31055 0.46819 0.57212 0.0
C1095 C 0.33659 0.45083 0.55737 0.0
C1096 C 0.35013 0.42714 0.57962 0.0
C1097 C 0.32621 0.43572 0.52726 0.0
C1098 C 0.35881 0.47677 0.55156 0.0
C1099 C 0.34744 0.50442 0.56184 0.0
C1100 C 0.36397 0.5316 0.55826 0.0
C1101 C 0.3927 0.53034 0.54362 0.0
C1102 C 0.40451 0.50229 0.53275 0.0
C1103 C 0.38722 0.47524 0.53699 0.0
H1104 H 0.98654 0.76349 0.92954 0.0
H1105 H 0.93897 0.7852 0.01423 0.0
H1106 H 0.94598 0.73178 0.03157 0.0
H1107 H 0.95952 0.6872 0.92021 0.0
H1108 H 0.99576 0.67315 0.90624 0.0
H1109 H 0.98524 0.71251 0.90003 0.0
H1110 H 0.03545 0.73043 0.92643 0.0
H1111 H 0.04622 0.69114 0.93251 0.0
H1112 H 0.04415 0.7171 0.96452 0.0
H1113 H 0.95808 0.67435 0.03888 0.0
H1114 H 0.97773 0.62126 0.03683 0.0
H1115 H 0.02133 0.64096 0.94988 0.0
C1116 C 0.9779 0.75742 0.95197 0.0
C1117 C 0.96219 0.77886 0.97042 0.0
C1118 C 0.95067 0.76925 0.99931 0.0
C1119 C 0.95467 0.73893 0.00947 0.0
C1120 C 0.97047 0.71856 0.99064 0.0
C1121 C 0.98214 0.72764 0.96264 0.0
C1122 C 0.99938 0.70208 0.94706 0.0
C1123 C 0.98405 0.69322 0.91659 0.0
C1124 C 0.03331 0.71071 0.94237 0.0
C1125 C 0.99577 0.6771 0.97068 0.0
C1126 C 0.97871 0.68668 0.99553 0.0
C1127 C 0.97191 0.66687 0.01971 0.0
C1128 C 0.98336 0.63675 0.01856 0.0
C1129 C 0.00195 0.62699 0.99388 0.0
C1130 C 0.00769 0.64757 0.96952 0.0
H1131 H 0.46305 0.77634 0.09851 0.0
H1132 H 0.45758 0.74607 0.00422 0.0
H1133 H 0.46676 0.7995 0.98667 0.0
H1134 H 0.42675 0.8519 0.08708 0.0
H1135 H 0.45174 0.86978 0.11469 0.0
H1136 H 0.44117 0.83011 0.11903 0.0
H1137 H 0.49867 0.81502 0.12063 0.0
H1138 H 0.50939 0.85452 0.1163 0.0
H1139 H 0.5235 0.8264 0.0896 0.0
H1140 H 0.4837 0.85551 0.98041 0.0
H1141 H 0.50539 0.90769 0.98636 0.0
H1142 H 0.49659 0.90036 0.08464 0.0
C1143 C 0.4634 0.78107 0.07415 0.0
C1144 C 0.45988 0.75732 0.05263 0.0
C1145 C 0.46021 0.76418 0.02096 0.0
C1146 C 0.46536 0.79437 0.01088 0.0
C1147 C 0.4695 0.81727 0.03285 0.0
C1148 C 0.46817 0.81086 0.06384 0.0
C1149 C 0.47513 0.83871 0.08305 0.0
C1150 C 0.44702 0.84818 0.10208 0.0
C1151 C 0.50334 0.83333 0.10358 0.0
C1152 C 0.48179 0.86169 0.05814 0.0
C1153 C 0.47815 0.84921 0.02926 0.0
C1154 C 0.48567 0.86574 0.0029 0.0
C1155 C 0.49754 0.89553 0.00633 0.0
C1156 C 0.50157 0.90834 0.03574 0.0
C1157 C 0.49319 0.89126 0.0618 0.0
H1158 H 0.10495 0.25313 0.53682 0.0
H1159 H 0.02323 0.30689 0.52056 0.0
H1160 H 0.99605 0.2606 0.50277 0.0
H1161 H 0.09058 0.19321 0.47272 0.0
H1162 H 0.1047 0.16288 0.49682 0.0
H1163 H 0.12098 0.20079 0.49965 0.0
H1164 H 0.10911 0.20165 0.55778 0.0
H1165 H 0.09315 0.16386 0.55518 0.0
H1166 H 0.07041 0.19464 0.57065 0.0
H1167 H 0.97472 0.20897 0.49822 0.0
H1168 H 0.9603 0.15529 0.50825 0.0
H1169 H 0.05512 0.13326 0.52752 0.0
C1170 C 0.08181 0.2552 0.52809 0.0
C1171 C 0.06619 0.28346 0.52955 0.0
C1172 C 0.03554 0.2854 0.51926 0.0
C1173 C 0.02005 0.25928 0.50894 0.0
C1174 C 0.03558 0.2314 0.50893 0.0
C1175 C 0.06593 0.22915 0.51796 0.0
C1176 C 0.07563 0.19589 0.52065 0.0
C1177 C 0.09939 0.18774 0.49598 0.0
C1178 C 0.08775 0.18861 0.55298 0.0
C1179 C 0.04539 0.17995 0.51436 0.0
C1180 C 0.0229 0.20086 0.50655 0.0
C1181 C 0.99228 0.19227 0.50336 0.0
C1182 C 0.98427 0.16181 0.50921 0.0
C1183 C 0.00674 0.14031 0.51811 0.0
C1184 C 0.03779 0.14923 0.51981 0.0
H1185 H 0.5612 0.26691 0.48604 0.0
H1186 H 0.65699 0.29165 0.49636 0.0
H1187 H 0.64174 0.34375 0.51248 0.0
H1188 H 0.53851 0.33302 0.45148 0.0
H1189 H 0.50136 0.33518 0.46949 0.0
H1190 H 0.51961 0.29868 0.46459 0.0
H1191 H 0.51523 0.28839 0.52294 0.0
H1192 H 0.49681 0.32497 0.528 0.0
H1193 H 0.53076 0.31579 0.54966 0.0
H1194 H 0.61605 0.39535 0.51942 0.0
H1195 H 0.58233 0.44092 0.51649 0.0
H1196 H 0.50383 0.38175 0.50188 0.0
C1197 C 0.57897 0.28311 0.49227 0.0
C1198 C 0.61025 0.27526 0.48999 0.0
C1199 C 0.63284 0.29707 0.49835 0.0
C1200 C 0.62439 0.32673 0.50749 0.0
C1201 C 0.59328 0.33403 0.50855 0.0
C1202 C 0.57093 0.31266 0.50145 0.0
C1203 C 0.53932 0.32678 0.50137 0.0
C1204 C 0.52382 0.32322 0.46986 0.0
C1205 C 0.51936 0.31317 0.52703 0.0
C1206 C 0.54743 0.35977 0.50797 0.0
C1207 C 0.57856 0.36355 0.51266 0.0
C1208 C 0.59156 0.39255 0.51649 0.0
C1209 C 0.5723 0.41828 0.51485 0.0
C1210 C 0.5405 0.41471 0.50946 0.0
C1211 C 0.52801 0.38506 0.50655 0.0
loop_
_geom_bond_atom_site_label_1
_geom_bond_atom_site_label_2
_geom_bond_distance
_geom_bond_site_symmetry_2
_ccdc_geom_bond_type
C0 C1 1.391 . S
C0 C4 1.391 . S
C0 H42 0.948 . S
C1 C0 1.391 . S
C1 C2 1.391 . S
C2 C1 1.391 . S
C2 H58 0.947 . S
C2 C59 1.392 . S
C3 C4 1.391 . S
C3 C7 1.397 . S
C3 C59 1.419 . S
C4 C0 1.391 . S
C4 C3 1.391 . S
C4 C5 1.399 . S
C5 C4 1.399 . S
C5 C8 1.396 . S
C5 C17 1.453 . S
C5 C18 1.684 . S
H6 C30 0.948 . S
C7 C3 1.397 . S
C7 C8 1.394 . S
C7 C26 1.723 . S
C8 C5 1.396 . S
C8 C7 1.394 . S
C8 C38 1.723 . S
H9 C32 0.947 . S
H10 C33 0.948 . S
H11 C39 0.982 . S
H12 C40 0.979 . S
H13 C40 0.980 . S
H14 C40 0.983 . S
H15 C39 0.979 . S
H16 C39 0.977 . S
C17 C5 1.453 . S
C17 H46 0.982 . S
C17 H47 0.979 . S
C17 H48 0.977 . S
C18 C5 1.684 . S
C18 H43 0.979 . S
C18 H44 0.980 . S
C18 H45 0.983 . S
C19 C20 1.391 . S
C19 C24 1.391 . S
C19 H49 0.948 . S
C20 C19 1.391 . S
C20 C21 1.391 . S
C21 C20 1.391 . S
C21 C22 1.392 . S
C21 H50 0.947 . S
C22 C21 1.392 . S
C22 C23 1.419 . S
C22 H51 0.948 . S
C23 C22 1.419 . S
C23 C24 1.391 . S
C23 C27 1.397 . S
C24 C19 1.391 . S
C24 C23 1.391 . S
C24 C25 1.399 . S
C25 C24 1.399 . S
C25 C26 1.396 . S
C25 C28 1.453 . S
C25 C29 1.684 . S
C26 C7 1.723 . S
C26 C25 1.396 . S
C26 C27 1.394 . S
C27 C23 1.397 . S
C27 C26 1.394 . S
C27 C37 1.723 . S
C28 C25 1.453 . S
C28 H52 0.982 . S
C28 H53 0.979 . S
C28 H54 0.977 . S
C29 C25 1.684 . S
C29 H55 0.979 . S
C29 H56 0.980 . S
C29 H57 0.983 . S
C30 H6 0.948 . S
C30 C31 1.391 . S
C30 C35 1.391 . S
C31 C30 1.391 . S
C31 C32 1.391 . S
C32 H9 0.947 . S
C32 C31 1.391 . S
C32 C33 1.392 . S
C33 H10 0.948 . S
C33 C32 1.392 . S
C33 C34 1.419 . S
C34 C33 1.419 . S
C34 C35 1.391 . S
C34 C38 1.397 . S
C35 C30 1.391 . S
C35 C34 1.391 . S
C35 C36 1.399 . S
C36 C35 1.399 . S
C36 C37 1.396 . S
C36 C39 1.453 . S
C36 C40 1.684 . S
C37 C27 1.723 . S
C37 C36 1.396 . S
C37 C38 1.394 . S
C38 C8 1.723 . S
C38 C34 1.397 . S
C38 C37 1.394 . S
C39 H11 0.982 . S
C39 H15 0.979 . S
C39 H16 0.977 . S
C39 C36 1.453 . S
C40 H12 0.979 . S
C40 H13 0.980 . S
C40 H14 0.983 . S
C40 C36 1.684 . S
H41 C59 0.948 . S
H42 C0 0.948 . S
H43 C18 0.979 . S
H44 C18 0.980 . S
H45 C18 0.983 . S
H46 C17 0.982 . S
H47 C17 0.979 . S
H48 C17 0.977 . S
H49 C19 0.948 . S
H50 C21 0.947 . S
H51 C22 0.948 . S
H52 C28 0.982 . S
H53 C28 0.979 . S
H54 C28 0.977 . S
H55 C29 0.979 . S
H56 C29 0.980 . S
H57 C29 0.983 . S
H58 C2 0.947 . S
C59 C2 1.392 . S
C59 C3 1.419 . S
C59 H41 0.948 . S
C60 C61 1.391 . S
C60 C64 1.391 . S
C60 H102 0.948 . S
C61 C60 1.391 . S
C61 C62 1.391 . S
C62 C61 1.391 . S
C62 H118 0.947 . S
C62 C119 1.392 . S
C63 C64 1.391 . S
C63 C67 1.397 . S
C63 C119 1.419 . S
C64 C60 1.391 . S
C64 C63 1.391 . S
C64 C65 1.399 . S
C65 C64 1.399 . S
C65 C68 1.396 . S
C65 C77 1.453 . S
C65 C78 1.684 . S
H66 C90 0.948 . S
C67 C63 1.397 . S
C67 C68 1.394 . S
C67 C86 1.723 . S
C68 C65 1.396 . S
C68 C67 1.394 . S
C68 C98 1.723 . S
H69 C92 0.947 . S
H70 C93 0.948 . S
H71 C99 0.982 . S
H72 C100 0.979 . S
H73 C100 0.980 . S
H74 C100 0.983 . S
H75 C99 0.979 . S
H76 C99 0.977 . S
C77 C65 1.453 . S
C77 H106 0.982 . S
C77 H107 0.979 . S
C77 H108 0.977 . S
C78 C65 1.684 . S
C78 H103 0.979 . S
C78 H104 0.980 . S
C78 H105 0.983 . S
C79 C80 1.391 . S
C79 C84 1.391 . S
C79 H109 0.948 . S
C80 C79 1.391 . S
C80 C81 1.391 . S
C81 C80 1.391 . S
C81 C82 1.392 . S
C81 H110 0.947 . S
C82 C81 1.392 . S
C82 C83 1.419 . S
C82 H111 0.948 . S
C83 C82 1.419 . S
C83 C84 1.391 . S
C83 C87 1.397 . S
C84 C79 1.391 . S
C84 C83 1.391 . S
C84 C85 1.399 . S
C85 C84 1.399 . S
C85 C86 1.396 . S
C85 C88 1.453 . S
C85 C89 1.684 . S
C86 C67 1.723 . S
C86 C85 1.396 . S
C86 C87 1.394 . S
C87 C83 1.397 . S
C87 C86 1.394 . S
C87 C97 1.723 . S
C88 C85 1.453 . S
C88 H112 0.982 . S
C88 H113 0.979 . S
C88 H114 0.977 . S
C89 C85 1.684 . S
C89 H115 0.979 . S
C89 H116 0.980 . S
C89 H117 0.983 . S
C90 H66 0.948 . S
C90 C91 1.391 . S
C90 C95 1.391 . S
C91 C90 1.391 . S
C91 C92 1.391 . S
C92 H69 0.947 . S
C92 C91 1.391 . S
C92 C93 1.392 . S
C93 H70 0.948 . S
C93 C92 1.392 . S
C93 C94 1.419 . S
C94 C93 1.419 . S
C94 C95 1.391 . S
C94 C98 1.397 . S
C95 C90 1.391 . S
C95 C94 1.391 . S
C95 C96 1.399 . S
C96 C95 1.399 . S
C96 C97 1.396 . S
C96 C99 1.453 . S
C96 C100 1.684 . S
C97 C87 1.723 . S
C97 C96 1.396 . S
C97 C98 1.394 . S
C98 C68 1.723 . S
C98 C94 1.397 . S
C98 C97 1.394 . S
C99 H71 0.982 . S
C99 H75 0.979 . S
C99 H76 0.977 . S
C99 C96 1.453 . S
C100 H72 0.979 . S
C100 H73 0.980 . S
C100 H74 0.983 . S
C100 C96 1.684 . S
H101 C119 0.948 . S
H102 C60 0.948 . S
H103 C78 0.979 . S
H104 C78 0.980 . S
H105 C78 0.983 . S
H106 C77 0.982 . S
H107 C77 0.979 . S
H108 C77 0.977 . S
H109 C79 0.948 . S
H110 C81 0.947 . S
H111 C82 0.948 . S
H112 C88 0.982 . S
H113 C88 0.979 . S
H114 C88 0.977 . S
H115 C89 0.979 . S
H116 C89 0.980 . S
H117 C89 0.983 . S
H118 C62 0.947 . S
C119 C62 1.392 . S
C119 C63 1.419 . S
C119 H101 0.948 . S
C120 C121 1.391 . S
C120 C124 1.391 . S
C120 H162 0.948 . S
C121 C120 1.391 . S
C121 C122 1.391 . S
C122 C121 1.391 . S
C122 H178 0.947 . S
C122 C179 1.392 . S
C123 C124 1.391 . S
C123 C127 1.397 . S
C123 C179 1.419 . S
C124 C120 1.391 . S
C124 C123 1.391 . S
C124 C125 1.399 . S
C125 C124 1.399 . S
C125 C128 1.396 . S
C125 C137 1.453 . S
C125 C138 1.684 . S
H126 C150 0.948 . S
C127 C123 1.397 . S
C127 C128 1.394 . S
C127 C146 1.723 . S
C128 C125 1.396 . S
C128 C127 1.394 . S
C128 C158 1.723 . S
H129 C152 0.947 . S
H130 C153 0.948 . S
H131 C159 0.982 . S
H132 C160 0.979 . S
H133 C160 0.980 . S
H134 C160 0.983 . S
H135 C159 0.979 . S
H136 C159 0.977 . S
C137 C125 1.453 . S
C137 H166 0.982 . S
C137 H167 0.979 . S
C137 H168 0.977 . S
C138 C125 1.684 . S
C138 H163 0.979 . S
C138 H164 0.980 . S
C138 H165 0.983 . S
C139 C140 1.391 . S
C139 C144 1.391 . S
C139 H169 0.948 . S
C140 C139 1.391 . S
C140 C141 1.391 . S
C141 C140 1.391 . S
C141 C142 1.392 . S
C141 H170 0.947 . S
C142 C141 1.392 . S
C142 C143 1.419 . S
C142 H171 0.948 . S
C143 C142 1.419 . S
C143 C144 1.391 . S
C143 C147 1.397 . S
C144 C139 1.391 . S
C144 C143 1.391 . S
C144 C145 1.399 . S
C145 C144 1.399 . S
C145 C146 1.396 . S
C145 C148 1.453 . S
C145 C149 1.684 . S
C146 C127 1.723 . S
C146 C145 1.396 . S
C146 C147 1.394 . S
C147 C143 1.397 . S
C147 C146 1.394 . S
C147 C157 1.723 . S
C148 C145 1.453 . S
C148 H172 0.982 . S
C148 H173 0.979 . S
C148 H174 0.977 . S
C149 C145 1.684 . S
C149 H175 0.979 . S
C149 H176 0.980 . S
C149 H177 0.983 . S
C150 H126 0.948 . S
C150 C151 1.391 . S
C150 C155 1.391 . S
C151 C150 1.391 . S
C151 C152 1.391 . S
C152 H129 0.947 . S
C152 C151 1.391 . S
C152 C153 1.392 . S
C153 H130 0.948 . S
C153 C152 1.392 . S
C153 C154 1.419 . S
C154 C153 1.419 . S
C154 C155 1.391 . S
C154 C158 1.397 . S
C155 C150 1.391 . S
C155 C154 1.391 . S
C155 C156 1.399 . S
C156 C155 1.399 . S
C156 C157 1.396 . S
C156 C159 1.453 . S
C156 C160 1.684 . S
C157 C147 1.723 . S
C157 C156 1.396 . S
C157 C158 1.394 . S
C158 C128 1.723 . S
C158 C154 1.397 . S
C158 C157 1.394 . S
C159 H131 0.982 . S
C159 H135 0.979 . S
C159 H136 0.977 . S
C159 C156 1.453 . S
C160 H132 0.979 . S
C160 H133 0.980 . S
C160 H134 0.983 . S
C160 C156 1.684 . S
H161 C179 0.948 . S
H162 C120 0.948 . S
H163 C138 0.979 . S
H164 C138 0.980 . S
H165 C138 0.983 . S
H166 C137 0.982 . S
H167 C137 0.979 . S
H168 C137 0.977 . S
H169 C139 0.948 . S
H170 C141 0.947 . S
H171 C142 0.948 . S
H172 C148 0.982 . S
H173 C148 0.979 . S
H174 C148 0.977 . S
H175 C149 0.979 . S
H176 C149 0.980 . S
H177 C149 0.983 . S
H178 C122 0.947 . S
C179 C122 1.392 . S
C179 C123 1.419 . S
C179 H161 0.948 . S
C180 C181 1.391 . S
C180 C184 1.391 . S
C180 H222 0.948 . S
C181 C180 1.391 . S
C181 C182 1.391 . S
C182 C181 1.391 . S
C182 H238 0.947 . S
C182 C239 1.392 . S
C183 C184 1.391 . S
C183 C187 1.397 . S
C183 C239 1.419 . S
C184 C180 1.391 . S
C184 C183 1.391 . S
C184 C185 1.399 . S
C185 C184 1.399 . S
C185 C188 1.396 . S
C185 C197 1.453 . S
C185 C198 1.684 . S
H186 C210 0.948 . S
C187 C183 1.397 . S
C187 C188 1.394 . S
C187 C206 1.723 . S
C188 C185 1.396 . S
C188 C187 1.394 . S
C188 C218 1.723 . S
H189 C212 0.947 . S
H190 C213 0.948 . S
H191 C219 0.982 . S
H192 C220 0.979 . S
H193 C220 0.980 . S
H194 C220 0.983 . S
H195 C219 0.979 . S
H196 C219 0.977 . S
C197 C185 1.453 . S
C197 H226 0.982 . S
C197 H227 0.979 . S
C197 H228 0.977 . S
C198 C185 1.684 . S
C198 H223 0.979 . S
C198 H224 0.980 . S
C198 H225 0.983 . S
C199 C200 1.391 . S
C199 C204 1.391 . S
C199 H229 0.948 . S
C200 C199 1.391 . S
C200 C201 1.391 . S
C201 C200 1.391 . S
C201 C202 1.392 . S
C201 H230 0.947 . S
C202 C201 1.392 . S
C202 C203 1.419 . S
C202 H231 0.948 . S
C203 C202 1.419 . S
C203 C204 1.391 . S
C203 C207 1.397 . S
C204 C199 1.391 . S
C204 C203 1.391 . S
C204 C205 1.399 . S
C205 C204 1.399 . S
C205 C206 1.396 . S
C205 C208 1.453 . S
C205 C209 1.684 . S
C206 C187 1.723 . S
C206 C205 1.396 . S
C206 C207 1.394 . S
C207 C203 1.397 . S
C207 C206 1.394 . S
C207 C217 1.723 . S
C208 C205 1.453 . S
C208 H232 0.982 . S
C208 H233 0.979 . S
C208 H234 0.977 . S
C209 C205 1.684 . S
C209 H235 0.979 . S
C209 H236 0.980 . S
C209 H237 0.983 . S
C210 H186 0.948 . S
C210 C211 1.391 . S
C210 C215 1.391 . S
C211 C210 1.391 . S
C211 C212 1.391 . S
C212 H189 0.947 . S
C212 C211 1.391 . S
C212 C213 1.392 . S
C213 H190 0.948 . S
C213 C212 1.392 . S
C213 C214 1.419 . S
C214 C213 1.419 . S
C214 C215 1.391 . S
C214 C218 1.397 . S
C215 C210 1.391 . S
C215 C214 1.391 . S
C215 C216 1.399 . S
C216 C215 1.399 . S
C216 C217 1.396 . S
C216 C219 1.453 . S
C216 C220 1.684 . S
C217 C207 1.723 . S
C217 C216 1.396 . S
C217 C218 1.394 . S
C218 C188 1.723 . S
C218 C214 1.397 . S
C218 C217 1.394 . S
C219 H191 0.982 . S
C219 H195 0.979 . S
C219 H196 0.977 . S
C219 C216 1.453 . S
C220 H192 0.979 . S
C220 H193 0.980 . S
C220 H194 0.983 . S
C220 C216 1.684 . S
H221 C239 0.948 . S
H222 C180 0.948 . S
H223 C198 0.979 . S
H224 C198 0.980 . S
H225 C198 0.983 . S
H226 C197 0.982 . S
H227 C197 0.979 . S
H228 C197 0.977 . S
H229 C199 0.948 . S
H230 C201 0.947 . S
H231 C202 0.948 . S
H232 C208 0.982 . S
H233 C208 0.979 . S
H234 C208 0.977 . S
H235 C209 0.979 . S
H236 C209 0.980 . S
H237 C209 0.983 . S
H238 C182 0.947 . S
C239 C182 1.392 . S
C239 C183 1.419 . S
C239 H221 0.948 . S
C240 C241 1.391 . S
C240 C244 1.391 . S
C240 H282 0.948 1_556 S
C241 C240 1.391 . S
C241 C242 1.391 1_655 S
C242 C241 1.391 1_455 S
C242 H298 0.947 . S
C242 C299 1.392 1_455 S
C243 C244 1.391 . S
C243 C247 1.397 . S
C243 C299 1.419 . S
C244 C240 1.391 . S
C244 C243 1.391 . S
C244 C245 1.399 . S
C245 C244 1.399 . S
C245 C248 1.396 . S
C245 C257 1.453 . S
C245 C258 1.684 1_556 S
H246 C270 0.948 1_545 S
C247 C243 1.397 . S
C247 C248 1.394 . S
C247 C266 1.723 . S
C248 C245 1.396 . S
C248 C247 1.394 . S
C248 C278 1.723 . S
H249 C272 0.947 . S
H250 C273 0.948 1_554 S
H251 C279 0.982 . S
H252 C280 0.979 . S
H253 C280 0.980 . S
H254 C280 0.983 . S
H255 C279 0.979 1_545 S
H256 C279 0.977 . S
C257 C245 1.453 . S
C257 H286 0.982 . S
C257 H287 0.979 1_556 S
C257 H288 0.977 . S
C258 C245 1.684 1_554 S
C258 H283 0.979 . S
C258 H284 0.980 . S
C258 H285 0.983 . S
C259 C260 1.391 . S
C259 C264 1.391 . S
C259 H289 0.948 1_655 S
C260 C259 1.391 . S
C260 C261 1.391 1_565 S
C261 C260 1.391 1_545 S
C261 C262 1.392 1_545 S
C261 H290 0.947 . S
C262 C261 1.392 1_565 S
C262 C263 1.419 . S
C262 H291 0.948 1_565 S
C263 C262 1.419 . S
C263 C264 1.391 . S
C263 C267 1.397 . S
C264 C259 1.391 . S
C264 C263 1.391 . S
C264 C265 1.399 . S
C265 C264 1.399 . S
C265 C266 1.396 . S
C265 C268 1.453 . S
C265 C269 1.684 1_655 S
C266 C247 1.723 . S
C266 C265 1.396 . S
C266 C267 1.394 . S
C267 C263 1.397 . S
C267 C266 1.394 . S
C267 C277 1.723 . S
C268 C265 1.453 . S
C268 H292 0.982 . S
C268 H293 0.989 . S
C268 H294 0.977 . S
C269 C265 1.684 1_455 S
C269 H295 0.979 . S
C269 H296 0.980 . S
C269 H297 0.983 . S
C270 H246 0.948 1_565 S
C270 C271 1.391 . S
C270 C275 1.391 . S
C271 C270 1.391 . S
C271 C272 1.391 1_556 S
C272 H249 0.947 . S
C272 C271 1.391 1_554 S
C272 C273 1.392 1_554 S
C273 H250 0.948 1_556 S
C273 C272 1.392 1_556 S
C273 C274 1.419 . S
C274 C273 1.419 . S
C274 C275 1.391 . S
C274 C278 1.397 . S
C275 C270 1.391 . S
C275 C274 1.391 . S
C275 C276 1.399 . S
C276 C275 1.399 . S
C276 C277 1.396 . S
C276 C279 1.453 . S
C276 C280 1.684 1_565 S
C277 C267 1.723 . S
C277 C276 1.396 . S
C277 C278 1.394 . S
C278 C248 1.723 . S
C278 C274 1.397 . S
C278 C277 1.394 . S
C279 H251 0.982 . S
C279 H255 0.979 1_565 S
C279 H256 0.977 . S
C279 C276 1.453 . S
C280 H252 0.979 . S
C280 H253 0.980 . S
C280 H254 0.983 . S
C280 C276 1.684 1_545 S
H281 C299 0.948 1_455 S
H282 C240 0.948 1_554 S
H283 C258 0.979 . S
H284 C258 0.980 . S
H285 C258 0.983 . S
H286 C257 0.982 . S
H287 C257 0.979 1_554 S
H288 C257 0.977 . S
H289 C259 0.948 1_455 S
H290 C261 0.947 . S
H291 C262 0.948 1_545 S
H292 C268 0.982 . S
H293 C268 0.989 . S
H294 C268 0.977 . S
H295 C269 0.979 . S
H296 C269 0.980 . S
H297 C269 0.983 . S
H298 C242 0.947 . S
C299 C242 1.392 1_655 S
C299 C243 1.419 . S
C299 H281 0.948 1_655 S
C300 C301 1.391 . S
C300 C304 1.391 . S
C300 H342 0.948 . S
C301 C300 1.391 . S
C301 C302 1.391 . S
C302 C301 1.391 . S
C302 H358 0.947 . S
C302 C359 1.392 . S
C303 C304 1.391 . S
C303 C307 1.397 . S
C303 C359 1.419 . S
C304 C300 1.391 . S
C304 C303 1.391 . S
C304 C305 1.399 . S
C305 C304 1.399 . S
C305 C308 1.396 . S
C305 C317 1.453 . S
C305 C318 1.684 . S
H306 C330 0.948 . S
C307 C303 1.397 . S
C307 C308 1.394 . S
C307 C326 1.723 . S
C308 C305 1.396 . S
C308 C307 1.394 . S
C308 C338 1.723 . S
H309 C332 0.947 . S
H310 C333 0.948 . S
H311 C339 0.982 . S
H312 C340 0.979 . S
H313 C340 0.980 . S
H314 C340 0.983 . S
H315 C339 0.979 . S
H316 C339 0.977 . S
C317 C305 1.453 . S
C317 H346 0.982 . S
C317 H347 0.979 . S
C317 H348 0.977 . S
C318 C305 1.684 . S
C318 H343 0.979 . S
C318 H344 0.980 . S
C318 H345 0.983 . S
C319 C320 1.391 . S
C319 C324 1.391 . S
C319 H349 0.948 . S
C320 C319 1.391 . S
C320 C321 1.391 . S
C321 C320 1.391 . S
C321 C322 1.392 . S
C321 H350 0.947 . S
C322 C321 1.392 . S
C322 C323 1.419 . S
C322 H351 0.948 . S
C323 C322 1.419 . S
C323 C324 1.391 . S
C323 C327 1.397 . S
C324 C319 1.391 . S
C324 C323 1.391 . S
C324 C325 1.399 . S
C325 C324 1.399 . S
C325 C326 1.396 . S
C325 C328 1.453 . S
C325 C329 1.684 . S
C326 C307 1.723 . S
C326 C325 1.396 . S
C326 C327 1.394 . S
C327 C323 1.397 . S
C327 C326 1.394 . S
C327 C337 1.723 . S
C328 C325 1.453 . S
C328 H352 0.982 . S
C328 H353 0.979 . S
C328 H354 0.977 . S
C329 C325 1.684 . S
C329 H355 0.979 . S
C329 H356 0.980 . S
C329 H357 0.983 . S
C330 H306 0.948 . S
C330 C331 1.391 . S
C330 C335 1.391 . S
C331 C330 1.391 . S
C331 C332 1.391 . S
C332 H309 0.947 . S
C332 C331 1.391 . S
C332 C333 1.392 . S
C333 H310 0.948 . S
C333 C332 1.392 . S
C333 C334 1.419 . S
C334 C333 1.419 . S
C334 C335 1.391 . S
C334 C338 1.397 . S
C335 C330 1.391 . S
C335 C334 1.391 . S
C335 C336 1.399 . S
C336 C335 1.399 . S
C336 C337 1.396 . S
C336 C339 1.453 . S
C336 C340 1.684 . S
C337 C327 1.723 . S
C337 C336 1.396 . S
C337 C338 1.394 . S
C338 C308 1.723 . S
C338 C334 1.397 . S
C338 C337 1.394 . S
C339 H311 0.982 . S
C339 H315 0.979 . S
C339 H316 0.977 . S
C339 C336 1.453 . S
C340 H312 0.979 . S
C340 H313 0.980 . S
C340 H314 0.983 . S
C340 C336 1.684 . S
H341 C359 0.948 . S
H342 C300 0.948 . S
H343 C318 0.979 . S
H344 C318 0.980 . S
H345 C318 0.983 . S
H346 C317 0.982 . S
H347 C317 0.979 . S
H348 C317 0.977 . S
H349 C319 0.948 . S
H350 C321 0.947 . S
H351 C322 0.948 . S
H352 C328 0.982 . S
H353 C328 0.979 . S
H354 C328 0.977 . S
H355 C329 0.979 . S
H356 C329 0.980 . S
H357 C329 0.983 . S
H358 C302 0.947 . S
C359 C302 1.392 . S
C359 C303 1.419 . S
C359 H341 0.948 . S
C360 C361 1.391 . S
C360 C364 1.391 . S
C360 H402 0.948 . S
C361 C360 1.391 . S
C361 C362 1.391 . S
C362 C361 1.391 . S
C362 H418 0.947 . S
C362 C419 1.392 . S
C363 C364 1.391 . S
C363 C367 1.397 . S
C363 C419 1.419 . S
C364 C360 1.391 . S
C364 C363 1.391 . S
C364 C365 1.399 . S
C365 C364 1.399 . S
C365 C368 1.396 . S
C365 C377 1.453 . S
C365 C378 1.684 . S
H366 C390 0.948 . S
C367 C363 1.397 . S
C367 C368 1.394 . S
C367 C386 1.723 . S
C368 C365 1.396 . S
C368 C367 1.394 . S
C368 C398 1.723 . S
H369 C392 0.947 . S
H370 C393 0.948 . S
H371 C399 0.982 . S
H372 C400 0.979 . S
H373 C400 0.980 . S
H374 C400 0.983 . S
H375 C399 0.979 . S
H376 C399 0.977 . S
C377 C365 1.453 . S
C377 H406 0.982 . S
C377 H407 0.979 . S
C377 H408 0.977 . S
C378 C365 1.684 . S
C378 H403 0.979 . S
C378 H404 0.980 . S
C378 H405 0.983 . S
C379 C380 1.391 . S
C379 C384 1.391 . S
C379 H409 0.948 . S
C380 C379 1.391 . S
C380 C381 1.391 . S
C381 C380 1.391 . S
C381 C382 1.392 . S
C381 H410 0.947 . S
C382 C381 1.392 . S
C382 C383 1.419 . S
C382 H411 0.948 . S
C383 C382 1.419 . S
C383 C384 1.391 . S
C383 C387 1.397 . S
C384 C379 1.391 . S
C384 C383 1.391 . S
C384 C385 1.399 . S
C385 C384 1.399 . S
C385 C386 1.396 . S
C385 C388 1.453 . S
C385 C389 1.684 . S
C386 C367 1.723 . S
C386 C385 1.396 . S
C386 C387 1.394 . S
C387 C383 1.397 . S
C387 C386 1.394 . S
C387 C397 1.723 . S
C388 C385 1.453 . S
C388 H412 0.982 . S
C388 H413 0.979 . S
C388 H414 0.977 . S
C389 C385 1.684 . S
C389 H415 0.979 . S
C389 H416 0.980 . S
C389 H417 0.983 . S
C390 H366 0.948 . S
C390 C391 1.391 . S
C390 C395 1.391 . S
C391 C390 1.391 . S
C391 C392 1.391 . S
C392 H369 0.947 . S
C392 C391 1.391 . S
C392 C393 1.392 . S
C393 H370 0.948 . S
C393 C392 1.392 . S
C393 C394 1.419 . S
C394 C393 1.419 . S
C394 C395 1.391 . S
C394 C398 1.397 . S
C395 C390 1.391 . S
C395 C394 1.391 . S
C395 C396 1.399 . S
C396 C395 1.399 . S
C396 C397 1.396 . S
C396 C399 1.453 . S
C396 C400 1.684 . S
C397 C387 1.723 . S
C397 C396 1.396 . S
C397 C398 1.394 . S
C398 C368 1.723 . S
C398 C394 1.397 . S
C398 C397 1.394 . S
C399 H371 0.982 . S
C399 H375 0.979 . S
C399 H376 0.977 . S
C399 C396 1.453 . S
C400 H372 0.979 . S
C400 H373 0.980 . S
C400 H374 0.983 . S
C400 C396 1.684 . S
H401 C419 0.948 . S
H402 C360 0.948 . S
H403 C378 0.979 . S
H404 C378 0.980 . S
H405 C378 0.983 . S
H406 C377 0.982 . S
H407 C377 0.979 . S
H408 C377 0.977 . S
H409 C379 0.948 . S
H410 C381 0.947 . S
H411 C382 0.948 . S
H412 C388 0.982 . S
H413 C388 0.979 . S
H414 C388 0.977 . S
H415 C389 0.979 . S
H416 C389 0.980 . S
H417 C389 0.983 . S
H418 C362 0.947 . S
C419 C362 1.392 . S
C419 C363 1.419 . S
C419 H401 0.948 . S
C420 C421 1.391 . S
C420 C424 1.391 . S
C420 H462 0.948 . S
C421 C420 1.391 . S
C421 C422 1.391 . S
C422 C421 1.391 . S
C422 H478 0.947 . S
C422 C479 1.392 . S
C423 C424 1.391 . S
C423 C427 1.397 . S
C423 C479 1.419 . S
C424 C420 1.391 . S
C424 C423 1.391 . S
C424 C425 1.399 . S
C425 C424 1.399 . S
C425 C428 1.396 . S
C425 C437 1.453 . S
C425 C438 1.684 . S
H426 C450 0.948 . S
C427 C423 1.397 . S
C427 C428 1.394 . S
C427 C446 1.723 . S
C428 C425 1.396 . S
C428 C427 1.394 . S
C428 C458 1.723 . S
H429 C452 0.947 . S
H430 C453 0.948 . S
H431 C459 0.982 . S
H432 C460 0.979 . S
H433 C460 0.980 . S
H434 C460 0.983 . S
H435 C459 0.979 . S
H436 C459 0.977 . S
C437 C425 1.453 . S
C437 H466 0.982 . S
C437 H467 0.979 . S
C437 H468 0.977 . S
C438 C425 1.684 . S
C438 H463 0.979 . S
C438 H464 0.980 . S
C438 H465 0.983 . S
C439 C440 1.391 . S
C439 C444 1.391 . S
C439 H469 0.948 . S
C440 C439 1.391 . S
C440 C441 1.391 . S
C441 C440 1.391 . S
C441 C442 1.392 . S
C441 H470 0.947 . S
C442 C441 1.392 . S
C442 C443 1.419 . S
C442 H471 0.948 . S
C443 C442 1.419 . S
C443 C444 1.391 . S
C443 C447 1.397 . S
C444 C439 1.391 . S
C444 C443 1.391 . S
C444 C445 1.399 . S
C445 C444 1.399 . S
C445 C446 1.396 . S
C445 C448 1.453 . S
C445 C449 1.684 . S
C446 C427 1.723 . S
C446 C445 1.396 . S
C446 C447 1.394 . S
C447 C443 1.397 . S
C447 C446 1.394 . S
C447 C457 1.723 . S
C448 C445 1.453 . S
C448 H472 0.982 . S
C448 H473 0.979 . S
C448 H474 0.977 . S
C449 C445 1.684 . S
C449 H475 0.979 . S
C449 H476 0.980 . S
C449 H477 0.983 . S
C450 H426 0.948 . S
C450 C451 1.391 . S
C450 C455 1.391 . S
C451 C450 1.391 . S
C451 C452 1.391 . S
C452 H429 0.947 . S
C452 C451 1.391 . S
C452 C453 1.392 . S
C453 H430 0.948 . S
C453 C452 1.392 . S
C453 C454 1.419 . S
C454 C453 1.419 . S
C454 C455 1.391 . S
C454 C458 1.397 . S
C455 C450 1.391 . S
C455 C454 1.391 . S
C455 C456 1.399 . S
C456 C455 1.399 . S
C456 C457 1.396 . S
C456 C459 1.453 . S
C456 C460 1.684 . S
C457 C447 1.723 . S
C457 C456 1.396 . S
C457 C458 1.394 . S
C458 C428 1.723 . S
C458 C454 1.397 . S
C458 C457 1.394 . S
C459 H431 0.982 . S
C459 H435 0.979 . S
C459 H436 0.977 . S
C459 C456 1.453 . S
C460 H432 0.979 . S
C460 H433 0.980 . S
C460 H434 0.983 . S
C460 C456 1.684 . S
H461 C479 0.948 . S
H462 C420 0.948 . S
H463 C438 0.979 . S
H464 C438 0.980 . S
H465 C438 0.983 . S
H466 C437 0.982 . S
H467 C437 0.979 . S
H468 C437 0.977 . S
H469 C439 0.948 . S
H470 C441 0.947 . S
H471 C442 0.948 . S
H472 C448 0.982 . S
H473 C448 0.979 . S
H474 C448 0.977 . S
H475 C449 0.979 . S
H476 C449 0.980 . S
H477 C449 0.983 . S
H478 C422 0.947 . S
C479 C422 1.392 . S
C479 C423 1.419 . S
C479 H461 0.948 . S
Zn480 O486 1.920 . S
Zn480 O492 1.898 . S
Zn480 O495 1.905 . S
Zn481 O489 1.905 1_565 S
Zn481 O490 1.898 . S
Zn481 O498 1.920 . S
Zn482 O485 2.080 1_455 S
Zn482 O488 2.114 . S
Zn482 O491 2.120 1_445 S
Zn482 O493 2.120 . S
Zn482 O494 2.114 1_455 S
Zn482 O497 2.080 . S
C483 O488 1.166 . S
C483 O489 1.182 . S
C484 O490 1.167 1_655 S
C484 O491 1.299 . S
O485 Zn482 2.080 1_655 S
O485 C499 1.305 . S
O486 Zn480 1.920 . S
O486 C499 1.234 . S
C487 O492 1.167 1_455 S
C487 O493 1.299 . S
O488 Zn482 2.114 . S
O488 C483 1.166 . S
O489 Zn481 1.905 1_545 S
O489 C483 1.182 . S
O490 Zn481 1.898 . S
O490 C484 1.167 1_455 S
O491 Zn482 2.120 1_665 S
O491 C484 1.299 . S
O492 Zn480 1.898 . S
O492 C487 1.167 1_655 S
O493 Zn482 2.120 . S
O493 C487 1.299 . S
O494 Zn482 2.114 1_655 S
O494 C496 1.166 . S
O495 Zn480 1.905 . S
O495 C496 1.182 . S
C496 O494 1.166 . S
C496 O495 1.182 . S
O497 Zn482 2.080 . S
O497 C500 1.305 1_545 S
O498 Zn481 1.920 . S
O498 C500 1.234 . S
C499 O485 1.305 . S
C499 O486 1.234 . S
C500 O497 1.305 1_565 S
C500 O498 1.234 . S
Zn501 O507 1.920 1_556 S
Zn501 O513 1.898 . S
Zn501 O516 1.905 . S
Zn502 O510 1.905 . S
Zn502 O511 1.898 . S
Zn502 O519 1.920 . S
Zn503 O506 2.080 . S
Zn503 O509 2.114 1_545 S
Zn503 O512 2.120 1_545 S
Zn503 O514 2.120 . S
Zn503 O515 2.114 1_544 S
Zn503 O518 2.080 . S
C504 O509 1.166 . S
C504 O510 1.182 . S
C505 O511 1.167 . S
C505 O512 1.299 . S
O506 Zn503 2.080 . S
O506 C520 1.305 . S
O507 Zn501 1.920 1_554 S
O507 C520 1.234 . S
C508 O513 1.167 . S
C508 O514 1.299 1_556 S
O509 Zn503 2.114 1_565 S
O509 C504 1.166 . S
O510 Zn502 1.905 . S
O510 C504 1.182 . S
O511 Zn502 1.898 . S
O511 C505 1.167 . S
O512 Zn503 2.120 1_565 S
O512 C505 1.299 . S
O513 Zn501 1.898 . S
O513 C508 1.167 . S
O514 Zn503 2.120 . S
O514 C508 1.299 1_554 S
O515 Zn503 2.114 1_566 S
O515 C517 1.166 . S
O516 Zn501 1.905 . S
O516 C517 1.182 1_545 S
C517 O515 1.166 . S
C517 O516 1.182 1_565 S
O518 Zn503 2.080 . S
O518 C521 1.305 . S
O519 Zn502 1.920 . S
O519 C521 1.234 1_565 S
C520 O506 1.305 . S
C520 O507 1.234 . S
C521 O518 1.305 . S
C521 O519 1.234 1_545 S
Zn522 O528 1.920 . S
Zn522 O534 1.898 . S
Zn522 O537 1.905 . S
Zn523 O531 1.905 . S
Zn523 O532 1.898 . S
Zn523 O540 1.920 . S
Zn524 O527 2.080 . S
Zn524 O530 2.114 . S
Zn524 O533 2.120 . S
Zn524 O535 2.120 . S
Zn524 O536 2.114 . S
Zn524 O539 2.080 . S
C525 O530 1.166 . S
C525 O531 1.182 . S
C526 O532 1.167 . S
C526 O533 1.299 . S
O527 Zn524 2.080 . S
O527 C541 1.305 . S
O528 Zn522 1.920 . S
O528 C541 1.234 . S
C529 O534 1.167 . S
C529 O535 1.299 . S
O530 Zn524 2.114 . S
O530 C525 1.166 . S
O531 Zn523 1.905 . S
O531 C525 1.182 . S
O532 Zn523 1.898 . S
O532 C526 1.167 . S
O533 Zn524 2.120 . S
O533 C526 1.299 . S
O534 Zn522 1.898 . S
O534 C529 1.167 . S
O535 Zn524 2.120 . S
O535 C529 1.299 . S
O536 Zn524 2.114 . S
O536 C538 1.166 . S
O537 Zn522 1.905 . S
O537 C538 1.182 . S
C538 O536 1.166 . S
C538 O537 1.182 . S
O539 Zn524 2.080 . S
O539 C542 1.305 . S
O540 Zn523 1.920 . S
O540 C542 1.234 . S
C541 O527 1.305 . S
C541 O528 1.234 . S
C542 O539 1.305 . S
C542 O540 1.234 . S
Zn543 O549 1.920 . S
Zn543 O555 1.898 . S
Zn543 O558 1.905 . S
Zn544 O552 1.905 1_655 S
Zn544 O553 1.898 . S
Zn544 O561 1.920 . S
Zn545 O548 2.080 1_554 S
Zn545 O551 2.114 . S
Zn545 O554 2.120 1_454 S
Zn545 O556 2.120 . S
Zn545 O557 2.114 1_554 S
Zn545 O560 2.080 . S
C546 O551 1.166 . S
C546 O552 1.182 . S
C547 O553 1.167 1_556 S
C547 O554 1.299 . S
O548 Zn545 2.080 1_556 S
O548 C562 1.305 . S
O549 Zn543 1.920 . S
O549 C562 1.234 . S
C550 O555 1.167 1_554 S
C550 O556 1.299 . S
O551 Zn545 2.114 . S
O551 C546 1.166 . S
O552 Zn544 1.905 1_455 S
O552 C546 1.182 . S
O553 Zn544 1.898 . S
O553 C547 1.167 1_554 S
O554 Zn545 2.120 1_656 S
O554 C547 1.299 . S
O555 Zn543 1.898 . S
O555 C550 1.167 1_556 S
O556 Zn545 2.120 . S
O556 C550 1.299 . S
O557 Zn545 2.114 1_556 S
O557 C559 1.166 . S
O558 Zn543 1.905 . S
O558 C559 1.182 . S
C559 O557 1.166 . S
C559 O558 1.182 . S
O560 Zn545 2.080 . S
O560 C563 1.305 1_455 S
O561 Zn544 1.920 . S
O561 C563 1.234 . S
C562 O548 1.305 . S
C562 O549 1.234 . S
C563 O560 1.305 1_655 S
C563 O561 1.234 . S
H564 C576 0.930 . S
H565 C578 0.930 . S
H566 C579 0.930 . S
H567 C583 0.959 . S
H568 C583 0.959 . S
H569 C583 0.961 . S
H570 C584 0.960 . S
H571 C584 0.961 . S
H572 C584 0.959 . S
H573 C587 0.929 . S
H574 C588 0.931 . S
H575 C590 0.930 . S
C576 H564 0.930 . S
C576 C577 1.399 . S
C576 C581 1.399 . S
C577 C576 1.399 . S
C577 C578 1.376 . S
C578 H565 0.930 . S
C578 C577 1.376 . S
C578 C579 1.388 . S
C579 H566 0.930 . S
C579 C578 1.388 . S
C579 C580 1.390 . S
C580 C579 1.390 . S
C580 C581 1.394 . S
C580 C586 1.465 . S
C581 C576 1.399 . S
C581 C580 1.394 . S
C581 C582 1.516 . S
C582 C581 1.516 . S
C582 C583 1.502 . S
C582 C584 1.561 . S
C582 C585 1.526 . S
C583 H567 0.959 . S
C583 H568 0.959 . S
C583 H569 0.961 . S
C583 C582 1.502 . S
C584 H570 0.960 . S
C584 H571 0.961 . S
C584 H572 0.959 . S
C584 C582 1.561 . S
C585 C582 1.526 . S
C585 C586 1.396 . S
C585 C590 1.390 . S
C586 C580 1.465 . S
C586 C585 1.396 . S
C586 C587 1.399 . S
C587 H573 0.929 . S
C587 C586 1.399 . S
C587 C588 1.385 . S
C588 H574 0.931 . S
C588 C587 1.385 . S
C588 C589 1.389 . S
C589 C588 1.389 . S
C589 C590 1.387 . S
C590 H575 0.930 . S
C590 C585 1.390 . S
C590 C589 1.387 . S
H591 C603 0.930 . S
H592 C605 0.930 . S
H593 C606 0.930 . S
H594 C610 0.959 . S
H595 C610 0.959 . S
H596 C610 0.961 . S
H597 C611 0.960 . S
H598 C611 0.961 . S
H599 C611 0.959 . S
H600 C614 0.929 . S
H601 C615 0.931 1_545 S
H602 C617 0.930 . S
C603 H591 0.930 . S
C603 C604 1.399 . S
C603 C608 1.399 . S
C604 C603 1.399 . S
C604 C605 1.376 . S
C605 H592 0.930 . S
C605 C604 1.376 . S
C605 C606 1.388 . S
C606 H593 0.930 . S
C606 C605 1.388 . S
C606 C607 1.390 . S
C607 C606 1.390 . S
C607 C608 1.394 . S
C607 C613 1.465 . S
C608 C603 1.399 . S
C608 C607 1.394 . S
C608 C609 1.516 . S
C609 C608 1.516 . S
C609 C610 1.502 . S
C609 C611 1.561 . S
C609 C612 1.526 . S
C610 H594 0.959 . S
C610 H595 0.959 . S
C610 H596 0.961 . S
C610 C609 1.502 . S
C611 H597 0.960 . S
C611 H598 0.961 . S
C611 H599 0.959 . S
C611 C609 1.561 . S
C612 C609 1.526 . S
C612 C613 1.396 . S
C612 C617 1.390 . S
C613 C607 1.465 . S
C613 C612 1.396 . S
C613 C614 1.399 . S
C614 H600 0.929 . S
C614 C613 1.399 . S
C614 C615 1.385 . S
C615 H601 0.931 1_565 S
C615 C614 1.385 . S
C615 C616 1.389 . S
C616 C615 1.389 . S
C616 C617 1.387 . S
C617 H602 0.930 . S
C617 C612 1.390 . S
C617 C616 1.387 . S
H618 C630 0.930 . S
H619 C632 0.930 . S
H620 C633 0.930 . S
H621 C637 0.959 . S
H622 C637 0.959 . S
H623 C637 0.961 . S
H624 C638 0.960 . S
H625 C638 0.961 . S
H626 C638 0.959 . S
H627 C641 0.929 . S
H628 C642 0.931 . S
H629 C644 0.930 . S
C630 H618 0.930 . S
C630 C631 1.399 . S
C630 C635 1.399 . S
C631 C630 1.399 . S
C631 C632 1.376 . S
C632 H619 0.930 . S
C632 C631 1.376 . S
C632 C633 1.388 . S
C633 H620 0.930 . S
C633 C632 1.388 . S
C633 C634 1.390 . S
C634 C633 1.390 . S
C634 C635 1.394 . S
C634 C640 1.465 . S
C635 C630 1.399 . S
C635 C634 1.394 . S
C635 C636 1.516 . S
C636 C635 1.516 . S
C636 C637 1.502 . S
C636 C638 1.561 . S
C636 C639 1.526 . S
C637 H621 0.959 . S
C637 H622 0.959 . S
C637 H623 0.961 . S
C637 C636 1.502 . S
C638 H624 0.960 . S
C638 H625 0.961 . S
C638 H626 0.959 . S
C638 C636 1.561 . S
C639 C636 1.526 . S
C639 C640 1.396 . S
C639 C644 1.390 . S
C640 C634 1.465 . S
C640 C639 1.396 . S
C640 C641 1.399 . S
C641 H627 0.929 . S
C641 C640 1.399 . S
C641 C642 1.385 . S
C642 H628 0.931 . S
C642 C641 1.385 . S
C642 C643 1.389 . S
C643 C642 1.389 . S
C643 C644 1.387 . S
C644 H629 0.930 . S
C644 C639 1.390 . S
C644 C643 1.387 . S
H645 C657 0.930 . S
H646 C659 0.930 . S
H647 C660 0.930 . S
H648 C664 0.959 . S
H649 C664 0.959 . S
H650 C664 0.961 . S
H651 C665 0.960 . S
H652 C665 0.961 . S
H653 C665 0.959 . S
H654 C668 0.929 . S
H655 C669 0.931 1_455 S
H656 C671 0.930 . S
C657 H645 0.930 . S
C657 C658 1.399 . S
C657 C662 1.399 . S
C658 C657 1.399 . S
C658 C659 1.376 . S
C659 H646 0.930 . S
C659 C658 1.376 . S
C659 C660 1.388 . S
C660 H647 0.930 . S
C660 C659 1.388 . S
C660 C661 1.390 . S
C661 C660 1.390 . S
C661 C662 1.394 . S
C661 C667 1.465 . S
C662 C657 1.399 . S
C662 C661 1.394 . S
C662 C663 1.516 . S
C663 C662 1.516 . S
C663 C664 1.502 . S
C663 C665 1.561 . S
C663 C666 1.526 . S
C664 H648 0.959 . S
C664 H649 0.959 . S
C664 H650 0.961 . S
C664 C663 1.502 . S
C665 H651 0.960 . S
C665 H652 0.961 . S
C665 H653 0.959 . S
C665 C663 1.561 . S
C666 C663 1.526 . S
C666 C667 1.396 . S
C666 C671 1.390 . S
C667 C661 1.465 . S
C667 C666 1.396 . S
C667 C668 1.399 . S
C668 H654 0.929 . S
C668 C667 1.399 . S
C668 C669 1.385 . S
C669 H655 0.931 1_655 S
C669 C668 1.385 . S
C669 C670 1.389 . S
C670 C669 1.389 . S
C670 C671 1.387 . S
C671 H656 0.930 . S
C671 C666 1.390 . S
C671 C670 1.387 . S
H672 C684 0.930 . S
H673 C686 0.930 . S
H674 C687 0.930 . S
H675 C691 0.959 . S
H676 C691 0.959 . S
H677 C691 0.961 . S
H678 C692 0.960 . S
H679 C692 0.961 . S
H680 C692 0.959 . S
H681 C695 0.929 . S
H682 C696 0.931 . S
H683 C698 0.930 . S
C684 H672 0.930 . S
C684 C685 1.399 . S
C684 C689 1.399 . S
C685 C684 1.399 . S
C685 C686 1.376 . S
C686 H673 0.930 . S
C686 C685 1.376 . S
C686 C687 1.388 . S
C687 H674 0.930 . S
C687 C686 1.388 . S
C687 C688 1.390 . S
C688 C687 1.390 . S
C688 C689 1.394 . S
C688 C694 1.465 . S
C689 C684 1.399 . S
C689 C688 1.394 . S
C689 C690 1.516 . S
C690 C689 1.516 . S
C690 C691 1.502 . S
C690 C692 1.561 . S
C690 C693 1.526 . S
C691 H675 0.959 . S
C691 H676 0.959 . S
C691 H677 0.961 . S
C691 C690 1.502 . S
C692 H678 0.960 . S
C692 H679 0.961 . S
C692 H680 0.959 . S
C692 C690 1.561 . S
C693 C690 1.526 . S
C693 C694 1.396 . S
C693 C698 1.390 . S
C694 C688 1.465 . S
C694 C693 1.396 . S
C694 C695 1.399 . S
C695 H681 0.929 . S
C695 C694 1.399 . S
C695 C696 1.385 . S
C696 H682 0.931 . S
C696 C695 1.385 . S
C696 C697 1.389 . S
C697 C696 1.389 . S
C697 C698 1.387 . S
C698 H683 0.930 . S
C698 C693 1.390 . S
C698 C697 1.387 . S
H699 C711 0.930 . S
H700 C713 0.930 . S
H701 C714 0.930 . S
H702 C718 0.959 . S
H703 C718 0.959 1_545 S
H704 C718 0.961 . S
H705 C719 0.960 . S
H706 C719 0.961 . S
H707 C719 0.961 . S
H708 C722 0.929 . S
H709 C723 0.931 . S
H710 C725 0.930 1_545 S
C711 H699 0.930 . S
C711 C712 1.399 . S
C711 C716 1.399 . S
C712 C711 1.399 . S
C712 C713 1.376 . S
C713 H700 0.930 . S
C713 C712 1.376 . S
C713 C714 1.388 . S
C714 H701 0.930 . S
C714 C713 1.388 . S
C714 C715 1.390 . S
C715 C714 1.390 . S
C715 C716 1.394 . S
C715 C721 1.465 . S
C716 C711 1.399 . S
C716 C715 1.394 . S
C716 C717 1.516 . S
C717 C716 1.516 . S
C717 C718 1.502 . S
C717 C719 1.561 1_565 S
C717 C720 1.526 . S
C718 H702 0.959 . S
C718 H703 0.959 1_565 S
C718 H704 0.961 . S
C718 C717 1.502 . S
C719 H705 0.960 . S
C719 H706 0.961 . S
C719 H707 0.961 . S
C719 C717 1.561 1_545 S
C720 C717 1.526 . S
C720 C721 1.396 . S
C720 C725 1.390 . S
C721 C715 1.465 . S
C721 C720 1.396 . S
C721 C722 1.399 . S
C722 H708 0.929 . S
C722 C721 1.399 . S
C722 C723 1.385 . S
C723 H709 0.931 . S
C723 C722 1.385 . S
C723 C724 1.389 . S
C724 C723 1.389 . S
C724 C725 1.387 . S
C725 H710 0.930 1_565 S
C725 C720 1.390 . S
C725 C724 1.387 . S
H726 C738 0.930 . S
H727 C740 0.930 . S
H728 C741 0.930 . S
H729 C745 0.959 . S
H730 C745 0.959 . S
H731 C745 0.961 . S
H732 C746 0.960 . S
H733 C746 0.961 . S
H734 C746 0.959 . S
H735 C749 0.910 1_554 S
H736 C750 0.931 1_554 S
H737 C752 0.930 . S
C738 H726 0.930 . S
C738 C739 1.399 . S
C738 C743 1.399 . S
C739 C738 1.399 . S
C739 C740 1.376 . S
C740 H727 0.930 . S
C740 C739 1.376 . S
C740 C741 1.388 . S
C741 H728 0.930 . S
C741 C740 1.388 . S
C741 C742 1.390 . S
C742 C741 1.390 . S
C742 C743 1.394 . S
C742 C748 1.465 . S
C743 C738 1.399 . S
C743 C742 1.394 . S
C743 C744 1.516 . S
C744 C743 1.516 . S
C744 C745 1.502 . S
C744 C746 1.561 . S
C744 C747 1.526 . S
C745 H729 0.959 . S
C745 H730 0.959 . S
C745 H731 0.961 . S
C745 C744 1.502 . S
C746 H732 0.960 . S
C746 H733 0.961 . S
C746 H734 0.959 . S
C746 C744 1.561 . S
C747 C744 1.526 . S
C747 C748 1.396 . S
C747 C752 1.390 . S
C748 C742 1.465 . S
C748 C747 1.396 . S
C748 C749 1.399 . S
C749 H735 0.910 1_556 S
C749 C748 1.399 . S
C749 C750 1.385 . S
C750 H736 0.931 1_556 S
C750 C749 1.385 . S
C750 C751 1.389 . S
C751 C750 1.389 . S
C751 C752 1.387 . S
C752 H737 0.930 . S
C752 C747 1.390 . S
C752 C751 1.387 . S
H753 C765 0.930 . S
H754 C767 0.930 . S
H755 C768 0.930 . S
H756 C772 0.959 . S
H757 C772 0.959 . S
H758 C772 0.961 . S
H759 C773 0.960 . S
H760 C773 0.961 . S
H761 C773 0.959 . S
H762 C776 0.929 . S
H763 C777 0.931 . S
H764 C779 0.930 . S
C765 H753 0.930 . S
C765 C766 1.399 . S
C765 C770 1.399 . S
C766 C765 1.399 . S
C766 C767 1.376 . S
C767 H754 0.930 . S
C767 C766 1.376 . S
C767 C768 1.388 . S
C768 H755 0.930 . S
C768 C767 1.388 . S
C768 C769 1.390 . S
C769 C768 1.390 . S
C769 C770 1.394 . S
C769 C775 1.465 . S
C770 C765 1.399 . S
C770 C769 1.394 . S
C770 C771 1.516 . S
C771 C770 1.516 . S
C771 C772 1.502 . S
C771 C773 1.561 . S
C771 C774 1.526 . S
C772 H756 0.959 . S
C772 H757 0.959 . S
C772 H758 0.961 . S
C772 C771 1.502 . S
C773 H759 0.960 . S
C773 H760 0.961 . S
C773 H761 0.959 . S
C773 C771 1.561 . S
C774 C771 1.526 . S
C774 C775 1.396 . S
C774 C779 1.390 . S
C775 C769 1.465 . S
C775 C774 1.396 . S
C775 C776 1.399 . S
C776 H762 0.929 . S
C776 C775 1.399 . S
C776 C777 1.385 . S
C777 H763 0.931 . S
C777 C776 1.385 . S
C777 C778 1.389 . S
C778 C777 1.389 . S
C778 C779 1.387 . S
C779 H764 0.930 . S
C779 C774 1.390 . S
C779 C778 1.387 . S
H780 C792 0.930 . S
H781 C794 0.930 . S
H782 C795 0.930 . S
H783 C799 0.959 . S
H784 C799 0.959 . S
H785 C799 0.961 . S
H786 C800 0.960 . S
H787 C800 0.961 . S
H788 C800 0.959 . S
H789 C803 0.929 . S
H790 C804 0.931 . S
H791 C806 0.930 . S
C792 H780 0.930 . S
C792 C793 1.399 . S
C792 C797 1.399 . S
C793 C792 1.399 . S
C793 C794 1.376 . S
C794 H781 0.930 . S
C794 C793 1.376 . S
C794 C795 1.388 . S
C795 H782 0.930 . S
C795 C794 1.388 . S
C795 C796 1.390 . S
C796 C795 1.390 . S
C796 C797 1.394 . S
C796 C802 1.465 . S
C797 C792 1.399 . S
C797 C796 1.394 . S
C797 C798 1.516 . S
C798 C797 1.516 . S
C798 C799 1.502 . S
C798 C800 1.561 . S
C798 C801 1.526 . S
C799 H783 0.959 . S
C799 H784 0.959 . S
C799 H785 0.961 . S
C799 C798 1.502 . S
C800 H786 0.960 . S
C800 H787 0.961 . S
C800 H788 0.959 . S
C800 C798 1.561 . S
C801 C798 1.526 . S
C801 C802 1.396 . S
C801 C806 1.390 . S
C802 C796 1.465 . S
C802 C801 1.396 . S
C802 C803 1.399 . S
C803 H789 0.929 . S
C803 C802 1.399 . S
C803 C804 1.385 . S
C804 H790 0.931 . S
C804 C803 1.385 . S
C804 C805 1.389 . S
C805 C804 1.389 . S
C805 C806 1.387 . S
C806 H791 0.930 . S
C806 C801 1.390 . S
C806 C805 1.387 . S
H807 C819 0.930 . S
H808 C821 0.930 . S
H809 C822 0.930 . S
H810 C826 0.959 1_556 S
H811 C826 0.959 . S
H812 C826 0.961 . S
H813 C827 0.960 . S
H814 C827 0.961 1_554 S
H815 C827 0.959 . S
H816 C830 0.929 . S
H817 C831 0.931 . S
H818 C833 0.930 1_554 S
C819 H807 0.930 . S
C819 C820 1.399 . S
C819 C824 1.399 . S
C820 C819 1.399 . S
C820 C821 1.376 . S
C821 H808 0.930 . S
C821 C820 1.376 . S
C821 C822 1.388 . S
C822 H809 0.930 . S
C822 C821 1.388 . S
C822 C823 1.390 . S
C823 C822 1.390 . S
C823 C824 1.394 . S
C823 C829 1.465 . S
C824 C819 1.399 . S
C824 C823 1.394 . S
C824 C825 1.516 . S
C825 C824 1.516 . S
C825 C826 1.502 1_556 S
C825 C827 1.561 . S
C825 C828 1.526 . S
C826 H810 0.959 1_554 S
C826 H811 0.959 . S
C826 H812 0.961 . S
C826 C825 1.502 1_554 S
C827 H813 0.960 . S
C827 H814 0.961 1_556 S
C827 H815 0.959 . S
C827 C825 1.561 . S
C828 C825 1.526 . S
C828 C829 1.396 . S
C828 C833 1.390 . S
C829 C823 1.465 . S
C829 C828 1.396 . S
C829 C830 1.399 . S
C830 H816 0.929 . S
C830 C829 1.399 . S
C830 C831 1.385 . S
C831 H817 0.931 . S
C831 C830 1.385 . S
C831 C832 1.389 . S
C832 C831 1.389 . S
C832 C833 1.387 . S
C833 H818 0.930 1_556 S
C833 C828 1.390 . S
C833 C832 1.387 . S
H834 C846 0.930 . S
H835 C848 0.930 . S
H836 C849 0.930 . S
H837 C853 0.959 . S
H838 C853 0.959 1_455 S
H839 C853 0.966 . S
H840 C854 0.960 . S
H841 C854 0.961 . S
H842 C854 0.959 . S
H843 C857 0.929 . S
H844 C858 0.931 . S
H845 C860 0.930 . S
C846 H834 0.930 . S
C846 C847 1.399 . S
C846 C851 1.399 . S
C847 C846 1.399 . S
C847 C848 1.376 . S
C848 H835 0.930 . S
C848 C847 1.376 . S
C848 C849 1.388 . S
C849 H836 0.930 . S
C849 C848 1.388 . S
C849 C850 1.390 . S
C850 C849 1.390 . S
C850 C851 1.394 . S
C850 C856 1.465 . S
C851 C846 1.399 . S
C851 C850 1.394 . S
C851 C852 1.516 . S
C852 C851 1.516 . S
C852 C853 1.502 . S
C852 C854 1.561 . S
C852 C855 1.526 . S
C853 H837 0.959 . S
C853 H838 0.959 1_655 S
C853 H839 0.966 . S
C853 C852 1.502 . S
C854 H840 0.960 . S
C854 H841 0.961 . S
C854 H842 0.959 . S
C854 C852 1.561 . S
C855 C852 1.526 . S
C855 C856 1.396 . S
C855 C860 1.390 . S
C856 C850 1.465 . S
C856 C855 1.396 . S
C856 C857 1.399 . S
C857 H843 0.929 . S
C857 C856 1.399 . S
C857 C858 1.385 . S
C858 H844 0.931 . S
C858 C857 1.385 . S
C858 C859 1.389 . S
C859 C858 1.389 . S
C859 C860 1.387 . S
C860 H845 0.930 . S
C860 C855 1.390 . S
C860 C859 1.387 . S
H861 C873 0.930 . S
H862 C875 0.930 . S
H863 C876 0.930 . S
H864 C880 0.959 . S
H865 C880 0.959 . S
H866 C880 0.961 . S
H867 C881 0.960 . S
H868 C881 0.961 . S
H869 C881 0.959 . S
H870 C884 0.929 . S
H871 C885 0.931 . S
H872 C887 0.930 . S
C873 H861 0.930 . S
C873 C874 1.399 . S
C873 C878 1.399 . S
C874 C873 1.399 . S
C874 C875 1.376 . S
C875 H862 0.930 . S
C875 C874 1.376 . S
C875 C876 1.388 . S
C876 H863 0.930 . S
C876 C875 1.388 . S
C876 C877 1.390 . S
C877 C876 1.390 . S
C877 C878 1.394 . S
C877 C883 1.465 . S
C878 C873 1.399 . S
C878 C877 1.394 . S
C878 C879 1.516 . S
C879 C878 1.516 . S
C879 C880 1.502 . S
C879 C881 1.561 . S
C879 C882 1.526 . S
C880 H864 0.959 . S
C880 H865 0.959 . S
C880 H866 0.961 . S
C880 C879 1.502 . S
C881 H867 0.960 . S
C881 H868 0.961 . S
C881 H869 0.959 . S
C881 C879 1.561 . S
C882 C879 1.526 . S
C882 C883 1.396 . S
C882 C887 1.390 . S
C883 C877 1.465 . S
C883 C882 1.396 . S
C883 C884 1.399 . S
C884 H870 0.929 . S
C884 C883 1.399 . S
C884 C885 1.385 . S
C885 H871 0.931 . S
C885 C884 1.385 . S
C885 C886 1.389 . S
C886 C885 1.389 . S
C886 C887 1.387 . S
C887 H872 0.930 . S
C887 C882 1.390 . S
C887 C886 1.387 . S
H888 C900 0.930 . S
H889 C902 0.930 . S
H890 C903 0.930 . S
H891 C907 0.959 . S
H892 C907 0.959 . S
H893 C907 0.961 . S
H894 C908 0.960 . S
H895 C908 0.961 . S
H896 C908 0.959 . S
H897 C911 0.929 . S
H898 C912 0.931 . S
H899 C914 0.930 . S
C900 H888 0.930 . S
C900 C901 1.400 . S
C900 C905 1.399 . S
C901 C900 1.400 . S
C901 C902 1.376 1_565 S
C902 H889 0.930 . S
C902 C901 1.376 1_545 S
C902 C903 1.388 . S
C903 H890 0.930 . S
C903 C902 1.388 . S
C903 C904 1.390 . S
C904 C903 1.390 . S
C904 C905 1.394 1_545 S
C904 C910 1.465 . S
C905 C900 1.399 . S
C905 C904 1.394 1_565 S
C905 C906 1.516 . S
C906 C905 1.516 . S
C906 C907 1.502 1_655 S
C906 C908 1.561 . S
C906 C909 1.526 . S
C907 H891 0.959 . S
C907 H892 0.959 . S
C907 H893 0.961 . S
C907 C906 1.502 1_455 S
C908 H894 0.960 . S
C908 H895 0.961 . S
C908 H896 0.959 . S
C908 C906 1.561 . S
C909 C906 1.526 . S
C909 C910 1.396 1_565 S
C909 C914 1.390 . S
C910 C904 1.465 . S
C910 C909 1.396 1_545 S
C910 C911 1.399 . S
C911 H897 0.929 . S
C911 C910 1.399 . S
C911 C912 1.385 . S
C912 H898 0.931 . S
C912 C911 1.385 . S
C912 C913 1.389 . S
C913 C912 1.389 . S
C913 C914 1.387 1_545 S
C914 H899 0.930 . S
C914 C909 1.390 . S
C914 C913 1.387 1_565 S
H915 C927 0.930 . S
H916 C929 0.930 . S
H917 C930 0.930 . S
H918 C934 0.959 1_545 S
H919 C934 0.959 . S
H920 C934 0.961 . S
H921 C935 0.960 . S
H922 C935 0.961 . S
H923 C935 0.959 . S
H924 C938 0.929 . S
H925 C939 0.931 . S
H926 C941 0.930 1_565 S
C927 H915 0.930 . S
C927 C928 1.399 . S
C927 C932 1.399 . S
C928 C927 1.399 . S
C928 C929 1.376 . S
C929 H916 0.930 . S
C929 C928 1.376 . S
C929 C930 1.388 . S
C930 H917 0.930 . S
C930 C929 1.388 . S
C930 C931 1.390 . S
C931 C930 1.390 . S
C931 C932 1.394 . S
C931 C937 1.465 . S
C932 C927 1.399 . S
C932 C931 1.394 . S
C932 C933 1.507 1_545 S
C933 C932 1.507 1_565 S
C933 C934 1.506 . S
C933 C935 1.573 . S
C933 C936 1.519 1_565 S
C934 H918 0.959 1_565 S
C934 H919 0.959 . S
C934 H920 0.961 . S
C934 C933 1.506 . S
C935 H921 0.960 . S
C935 H922 0.961 . S
C935 H923 0.959 . S
C935 C933 1.573 . S
C936 C933 1.519 1_545 S
C936 C937 1.396 . S
C936 C941 1.390 . S
C937 C931 1.465 . S
C937 C936 1.396 . S
C937 C938 1.399 . S
C938 H924 0.929 . S
C938 C937 1.399 . S
C938 C939 1.385 . S
C939 H925 0.931 . S
C939 C938 1.385 . S
C939 C940 1.389 . S
C940 C939 1.389 . S
C940 C941 1.387 . S
C941 H926 0.930 1_545 S
C941 C936 1.390 . S
C941 C940 1.387 . S
H942 C954 0.930 . S
H943 C956 0.930 . S
H944 C957 0.930 . S
H945 C961 0.959 . S
H946 C961 0.959 . S
H947 C961 0.961 . S
H948 C962 0.960 . S
H949 C962 0.961 . S
H950 C962 0.959 . S
H951 C965 0.929 . S
H952 C966 0.931 . S
H953 C968 0.930 . S
C954 H942 0.930 . S
C954 C955 1.399 . S
C954 C959 1.399 . S
C955 C954 1.399 . S
C955 C956 1.376 . S
C956 H943 0.930 . S
C956 C955 1.376 . S
C956 C957 1.388 . S
C957 H944 0.930 . S
C957 C956 1.388 . S
C957 C958 1.390 . S
C958 C957 1.390 . S
C958 C959 1.394 . S
C958 C964 1.465 . S
C959 C954 1.399 . S
C959 C958 1.394 . S
C959 C960 1.516 . S
C960 C959 1.516 . S
C960 C961 1.502 . S
C960 C962 1.561 . S
C960 C963 1.526 . S
C961 H945 0.959 . S
C961 H946 0.959 . S
C961 H947 0.961 . S
C961 C960 1.502 . S
C962 H948 0.960 . S
C962 H949 0.961 . S
C962 H950 0.959 . S
C962 C960 1.561 . S
C963 C960 1.526 . S
C963 C964 1.396 . S
C963 C968 1.390 . S
C964 C958 1.465 . S
C964 C963 1.396 . S
C964 C965 1.399 . S
C965 H951 0.929 . S
C965 C964 1.399 . S
C965 C966 1.385 . S
C966 H952 0.931 . S
C966 C965 1.385 . S
C966 C967 1.389 . S
C967 C966 1.389 . S
C967 C968 1.387 . S
C968 H953 0.930 . S
C968 C963 1.390 . S
C968 C967 1.387 . S
H969 C981 0.930 . S
H970 C983 0.930 . S
H971 C984 0.930 . S
H972 C988 0.959 1_655 S
H973 C988 0.959 . S
H974 C988 0.967 . S
H975 C989 0.960 . S
H976 C989 0.961 . S
H977 C989 0.959 . S
H978 C992 0.929 . S
H979 C993 0.931 . S
H980 C995 0.930 . S
C981 H969 0.930 . S
C981 C982 1.399 . S
C981 C986 1.399 . S
C982 C981 1.399 . S
C982 C983 1.376 . S
C983 H970 0.930 . S
C983 C982 1.376 . S
C983 C984 1.388 . S
C984 H971 0.930 . S
C984 C983 1.388 . S
C984 C985 1.390 . S
C985 C984 1.390 . S
C985 C986 1.394 . S
C985 C991 1.465 . S
C986 C981 1.399 . S
C986 C985 1.394 . S
C986 C987 1.516 . S
C987 C986 1.516 . S
C987 C988 1.502 . S
C987 C989 1.561 . S
C987 C990 1.526 . S
C988 H972 0.959 1_455 S
C988 H973 0.959 . S
C988 H974 0.967 . S
C988 C987 1.502 . S
C989 H975 0.960 . S
C989 H976 0.961 . S
C989 H977 0.959 . S
C989 C987 1.561 . S
C990 C987 1.526 . S
C990 C991 1.396 . S
C990 C995 1.390 . S
C991 C985 1.465 . S
C991 C990 1.396 . S
C991 C992 1.399 . S
C992 H978 0.929 . S
C992 C991 1.399 . S
C992 C993 1.385 . S
C993 H979 0.931 . S
C993 C992 1.385 . S
C993 C994 1.389 . S
C994 C993 1.389 . S
C994 C995 1.387 . S
C995 H980 0.930 . S
C995 C990 1.390 . S
C995 C994 1.387 . S
H996 C1008 0.930 . S
H997 C1010 0.930 . S
H998 C1011 0.930 . S
H999 C1015 0.959 . S
H1000 C1015 0.968 . S
H1001 C1015 0.961 . S
H1002 C1016 0.960 . S
H1003 C1016 0.961 . S
H1004 C1016 0.959 . S
H1005 C1019 0.929 . S
H1006 C1020 0.931 . S
H1007 C1022 0.930 1_556 S
C1008 H996 0.930 . S
C1008 C1009 1.399 1_545 S
C1008 C1013 1.406 . S
C1009 C1008 1.399 1_565 S
C1009 C1010 1.376 1_556 S
C1010 H997 0.930 . S
C1010 C1009 1.376 1_554 S
C1010 C1011 1.388 . S
C1011 H998 0.930 . S
C1011 C1010 1.388 . S
C1011 C1012 1.390 . S
C1012 C1011 1.390 . S
C1012 C1013 1.360 1_564 S
C1012 C1018 1.465 . S
C1013 C1008 1.406 . S
C1013 C1012 1.360 1_546 S
C1013 C1014 1.539 . S
C1014 C1013 1.539 . S
C1014 C1015 1.502 1_556 S
C1014 C1016 1.561 . S
C1014 C1017 1.526 1_556 S
C1015 H999 0.959 . S
C1015 H1000 0.968 . S
C1015 H1001 0.961 . S
C1015 C1014 1.502 1_554 S
C1016 H1002 0.960 . S
C1016 H1003 0.961 . S
C1016 H1004 0.959 . S
C1016 C1014 1.561 . S
C1017 C1014 1.526 1_554 S
C1017 C1018 1.396 1_545 S
C1017 C1022 1.390 . S
C1018 C1012 1.465 . S
C1018 C1017 1.396 1_565 S
C1018 C1019 1.399 . S
C1019 H1005 0.929 . S
C1019 C1018 1.399 . S
C1019 C1020 1.385 . S
C1020 H1006 0.931 . S
C1020 C1019 1.385 . S
C1020 C1021 1.389 . S
C1021 C1020 1.389 . S
C1021 C1022 1.387 1_565 S
C1022 H1007 0.930 1_554 S
C1022 C1017 1.390 . S
C1022 C1021 1.387 1_545 S
H1023 C1035 0.930 . S
H1024 C1037 0.930 . S
H1025 C1038 0.930 . S
H1026 C1042 0.959 . S
H1027 C1042 0.959 . S
H1028 C1042 0.961 . S
H1029 C1043 0.960 . S
H1030 C1043 0.961 . S
H1031 C1043 0.959 . S
H1032 C1046 0.929 . S
H1033 C1047 0.931 . S
H1034 C1049 0.930 . S
C1035 H1023 0.930 . S
C1035 C1036 1.399 . S
C1035 C1040 1.399 . S
C1036 C1035 1.399 . S
C1036 C1037 1.376 . S
C1037 H1024 0.930 . S
C1037 C1036 1.376 . S
C1037 C1038 1.388 . S
C1038 H1025 0.930 . S
C1038 C1037 1.388 . S
C1038 C1039 1.390 . S
C1039 C1038 1.390 . S
C1039 C1040 1.394 . S
C1039 C1045 1.465 . S
C1040 C1035 1.399 . S
C1040 C1039 1.394 . S
C1040 C1041 1.516 . S
C1041 C1040 1.516 . S
C1041 C1042 1.502 . S
C1041 C1043 1.561 . S
C1041 C1044 1.526 . S
C1042 H1026 0.959 . S
C1042 H1027 0.959 . S
C1042 H1028 0.961 . S
C1042 C1041 1.502 . S
C1043 H1029 0.960 . S
C1043 H1030 0.961 . S
C1043 H1031 0.959 . S
C1043 C1041 1.561 . S
C1044 C1041 1.526 . S
C1044 C1045 1.396 . S
C1044 C1049 1.390 . S
C1045 C1039 1.465 . S
C1045 C1044 1.396 . S
C1045 C1046 1.399 . S
C1046 H1032 0.929 . S
C1046 C1045 1.399 . S
C1046 C1047 1.385 . S
C1047 H1033 0.931 . S
C1047 C1046 1.385 . S
C1047 C1048 1.389 . S
C1048 C1047 1.389 . S
C1048 C1049 1.387 . S
C1049 H1034 0.930 . S
C1049 C1044 1.390 . S
C1049 C1048 1.387 . S
H1050 C1062 0.930 . S
H1051 C1064 0.930 . S
H1052 C1065 0.930 . S
H1053 C1069 0.959 . S
H1054 C1069 0.959 . S
H1055 C1069 0.961 . S
H1056 C1070 0.960 . S
H1057 C1070 0.961 . S
H1058 C1070 0.959 . S
H1059 C1073 0.929 . S
H1060 C1074 0.931 . S
H1061 C1076 0.930 . S
C1062 H1050 0.930 . S
C1062 C1063 1.399 . S
C1062 C1067 1.399 . S
C1063 C1062 1.399 . S
C1063 C1064 1.376 . S
C1064 H1051 0.930 . S
C1064 C1063 1.376 . S
C1064 C1065 1.388 . S
C1065 H1052 0.930 . S
C1065 C1064 1.388 . S
C1065 C1066 1.390 . S
C1066 C1065 1.390 . S
C1066 C1067 1.394 . S
C1066 C1072 1.465 . S
C1067 C1062 1.399 . S
C1067 C1066 1.394 . S
C1067 C1068 1.516 . S
C1068 C1067 1.516 . S
C1068 C1069 1.502 . S
C1068 C1070 1.561 . S
C1068 C1071 1.526 . S
C1069 H1053 0.959 . S
C1069 H1054 0.959 . S
C1069 H1055 0.961 . S
C1069 C1068 1.502 . S
C1070 H1056 0.960 . S
C1070 H1057 0.961 . S
C1070 H1058 0.959 . S
C1070 C1068 1.561 . S
C1071 C1068 1.526 . S
C1071 C1072 1.396 . S
C1071 C1076 1.390 . S
C1072 C1066 1.465 . S
C1072 C1071 1.396 . S
C1072 C1073 1.399 . S
C1073 H1059 0.929 . S
C1073 C1072 1.399 . S
C1073 C1074 1.385 . S
C1074 H1060 0.931 . S
C1074 C1073 1.385 . S
C1074 C1075 1.389 . S
C1075 C1074 1.389 . S
C1075 C1076 1.387 . S
C1076 H1061 0.930 . S
C1076 C1071 1.390 . S
C1076 C1075 1.387 . S
H1077 C1089 0.930 . S
H1078 C1091 0.930 . S
H1079 C1092 0.930 . S
H1080 C1096 0.959 . S
H1081 C1096 0.959 . S
H1082 C1096 0.961 . S
H1083 C1097 0.960 . S
H1084 C1097 0.961 . S
H1085 C1097 0.959 . S
H1086 C1100 0.929 . S
H1087 C1101 0.931 . S
H1088 C1103 0.930 . S
C1089 H1077 0.930 . S
C1089 C1090 1.399 . S
C1089 C1094 1.399 . S
C1090 C1089 1.399 . S
C1090 C1091 1.376 . S
C1091 H1078 0.930 . S
C1091 C1090 1.376 . S
C1091 C1092 1.388 . S
C1092 H1079 0.930 . S
C1092 C1091 1.388 . S
C1092 C1093 1.390 . S
C1093 C1092 1.390 . S
C1093 C1094 1.394 . S
C1093 C1099 1.465 . S
C1094 C1089 1.399 . S
C1094 C1093 1.394 . S
C1094 C1095 1.516 . S
C1095 C1094 1.516 . S
C1095 C1096 1.502 . S
C1095 C1097 1.561 . S
C1095 C1098 1.526 . S
C1096 H1080 0.959 . S
C1096 H1081 0.959 . S
C1096 H1082 0.961 . S
C1096 C1095 1.502 . S
C1097 H1083 0.960 . S
C1097 H1084 0.961 . S
C1097 H1085 0.959 . S
C1097 C1095 1.561 . S
C1098 C1095 1.526 . S
C1098 C1099 1.396 . S
C1098 C1103 1.390 . S
C1099 C1093 1.465 . S
C1099 C1098 1.396 . S
C1099 C1100 1.399 . S
C1100 H1086 0.929 . S
C1100 C1099 1.399 . S
C1100 C1101 1.385 . S
C1101 H1087 0.931 . S
C1101 C1100 1.385 . S
C1101 C1102 1.389 . S
C1102 C1101 1.389 . S
C1102 C1103 1.387 . S
C1103 H1088 0.930 . S
C1103 C1098 1.390 . S
C1103 C1102 1.387 . S
H1104 C1116 0.930 . S
H1105 C1118 0.930 . S
H1106 C1119 0.930 . S
H1107 C1123 0.959 . S
H1108 C1123 0.959 . S
H1109 C1123 0.961 . S
H1110 C1124 0.960 . S
H1111 C1124 0.961 . S
H1112 C1124 0.959 . S
H1113 C1127 0.929 . S
H1114 C1128 0.931 . S
H1115 C1130 0.930 . S
C1116 H1104 0.930 . S
C1116 C1117 1.399 . S
C1116 C1121 1.399 1_655 S
C1117 C1116 1.399 . S
C1117 C1118 1.374 1_656 S
C1118 H1105 0.930 . S
C1118 C1117 1.374 1_454 S
C1118 C1119 1.391 . S
C1119 H1106 0.930 . S
C1119 C1118 1.391 . S
C1119 C1120 1.390 . S
C1120 C1119 1.390 . S
C1120 C1121 1.394 1_554 S
C1120 C1126 1.465 . S
C1121 C1116 1.399 1_455 S
C1121 C1120 1.394 1_556 S
C1121 C1122 1.516 . S
C1122 C1121 1.516 . S
C1122 C1123 1.502 1_455 S
C1122 C1124 1.561 . S
C1122 C1125 1.526 . S
C1123 H1107 0.959 . S
C1123 H1108 0.959 . S
C1123 H1109 0.961 . S
C1123 C1122 1.502 1_655 S
C1124 H1110 0.960 . S
C1124 H1111 0.961 . S
C1124 H1112 0.959 . S
C1124 C1122 1.561 . S
C1125 C1122 1.526 . S
C1125 C1126 1.396 1_556 S
C1125 C1130 1.390 . S
C1126 C1120 1.465 . S
C1126 C1125 1.396 1_554 S
C1126 C1127 1.399 . S
C1127 H1113 0.929 . S
C1127 C1126 1.399 . S
C1127 C1128 1.385 . S
C1128 H1114 0.931 . S
C1128 C1127 1.385 . S
C1128 C1129 1.389 1_554 S
C1129 C1128 1.389 1_556 S
C1129 C1130 1.387 . S
C1130 H1115 0.930 . S
C1130 C1125 1.390 . S
C1130 C1129 1.387 . S
H1131 C1143 0.930 . S
H1132 C1145 0.930 . S
H1133 C1146 0.930 1_556 S
H1134 C1150 0.959 . S
H1135 C1150 0.959 . S
H1136 C1150 0.961 . S
H1137 C1151 0.960 . S
H1138 C1151 0.961 . S
H1139 C1151 0.959 . S
H1140 C1154 0.929 1_556 S
H1141 C1155 0.931 1_556 S
H1142 C1157 0.930 . S
C1143 H1131 0.930 . S
C1143 C1144 1.399 . S
C1143 C1148 1.399 . S
C1144 C1143 1.399 . S
C1144 C1145 1.376 . S
C1145 H1132 0.930 . S
C1145 C1144 1.376 . S
C1145 C1146 1.388 . S
C1146 H1133 0.930 1_554 S
C1146 C1145 1.388 . S
C1146 C1147 1.390 . S
C1147 C1146 1.390 . S
C1147 C1148 1.394 . S
C1147 C1153 1.465 . S
C1148 C1143 1.399 . S
C1148 C1147 1.394 . S
C1148 C1149 1.516 . S
C1149 C1148 1.516 . S
C1149 C1150 1.502 . S
C1149 C1151 1.561 . S
C1149 C1152 1.526 . S
C1150 H1134 0.959 . S
C1150 H1135 0.959 . S
C1150 H1136 0.961 . S
C1150 C1149 1.502 . S
C1151 H1137 0.960 . S
C1151 H1138 0.961 . S
C1151 H1139 0.959 . S
C1151 C1149 1.561 . S
C1152 C1149 1.526 . S
C1152 C1153 1.396 . S
C1152 C1157 1.390 . S
C1153 C1147 1.465 . S
C1153 C1152 1.396 . S
C1153 C1154 1.399 . S
C1154 H1140 0.929 1_554 S
C1154 C1153 1.399 . S
C1154 C1155 1.385 . S
C1155 H1141 0.931 1_554 S
C1155 C1154 1.385 . S
C1155 C1156 1.389 . S
C1156 C1155 1.389 . S
C1156 C1157 1.387 . S
C1157 H1142 0.930 . S
C1157 C1152 1.390 . S
C1157 C1156 1.387 . S
H1158 C1170 0.930 . S
H1159 C1172 0.930 . S
H1160 C1173 0.930 1_655 S
H1161 C1177 0.959 . S
H1162 C1177 0.959 . S
H1163 C1177 0.961 . S
H1164 C1178 0.960 . S
H1165 C1178 0.961 . S
H1166 C1178 0.959 . S
H1167 C1181 0.929 . S
H1168 C1182 0.950 . S
H1169 C1184 0.930 . S
C1170 H1158 0.930 . S
C1170 C1171 1.399 . S
C1170 C1175 1.399 . S
C1171 C1170 1.399 . S
C1171 C1172 1.376 . S
C1172 H1159 0.930 . S
C1172 C1171 1.376 . S
C1172 C1173 1.388 . S
C1173 H1160 0.930 1_455 S
C1173 C1172 1.388 . S
C1173 C1174 1.390 . S
C1174 C1173 1.390 . S
C1174 C1175 1.394 . S
C1174 C1180 1.465 . S
C1175 C1170 1.399 . S
C1175 C1174 1.394 . S
C1175 C1176 1.516 . S
C1176 C1175 1.516 . S
C1176 C1177 1.502 . S
C1176 C1178 1.561 . S
C1176 C1179 1.526 . S
C1177 H1161 0.959 . S
C1177 H1162 0.959 . S
C1177 H1163 0.961 . S
C1177 C1176 1.502 . S
C1178 H1164 0.960 . S
C1178 H1165 0.961 . S
C1178 H1166 0.959 . S
C1178 C1176 1.561 . S
C1179 C1176 1.526 . S
C1179 C1180 1.396 . S
C1179 C1184 1.390 . S
C1180 C1174 1.465 . S
C1180 C1179 1.396 . S
C1180 C1181 1.399 1_455 S
C1181 H1167 0.929 . S
C1181 C1180 1.399 1_655 S
C1181 C1182 1.386 . S
C1182 H1168 0.950 . S
C1182 C1181 1.386 . S
C1182 C1183 1.370 1_655 S
C1183 C1182 1.370 1_455 S
C1183 C1184 1.387 . S
C1184 H1169 0.930 . S
C1184 C1179 1.390 . S
C1184 C1183 1.387 . S
H1185 C1197 0.930 . S
H1186 C1199 0.930 . S
H1187 C1200 0.930 . S
H1188 C1204 0.959 . S
H1189 C1204 0.959 . S
H1190 C1204 0.961 . S
H1191 C1205 0.960 . S
H1192 C1205 0.961 . S
H1193 C1205 0.959 . S
H1194 C1208 0.929 . S
H1195 C1209 0.931 . S
H1196 C1211 0.930 . S
C1197 H1185 0.930 . S
C1197 C1198 1.399 . S
C1197 C1202 1.399 . S
C1198 C1197 1.399 . S
C1198 C1199 1.376 . S
C1199 H1186 0.930 . S
C1199 C1198 1.376 . S
C1199 C1200 1.388 . S
C1200 H1187 0.930 . S
C1200 C1199 1.388 . S
C1200 C1201 1.390 . S
C1201 C1200 1.390 . S
C1201 C1202 1.394 . S
C1201 C1207 1.465 . S
C1202 C1197 1.399 . S
C1202 C1201 1.394 . S
C1202 C1203 1.516 . S
C1203 C1202 1.516 . S
C1203 C1204 1.502 . S
C1203 C1205 1.561 . S
C1203 C1206 1.526 . S
C1204 H1188 0.959 . S
C1204 H1189 0.959 . S
C1204 H1190 0.961 . S
C1204 C1203 1.502 . S
C1205 H1191 0.960 . S
C1205 H1192 0.961 . S
C1205 H1193 0.959 . S
C1205 C1203 1.561 . S
C1206 C1203 1.526 . S
C1206 C1207 1.396 . S
C1206 C1211 1.390 . S
C1207 C1201 1.465 . S
C1207 C1206 1.396 . S
C1207 C1208 1.399 . S
C1208 H1194 0.929 . S
C1208 C1207 1.399 . S
C1208 C1209 1.385 . S
C1209 H1195 0.931 . S
C1209 C1208 1.385 . S
C1209 C1210 1.389 . S
C1210 C1209 1.389 . S
C1210 C1211 1.387 . S
C1211 H1196 0.930 . S
C1211 C1206 1.390 . S
C1211 C1210 1.387 . S
C577 C1 1.492 . S
C589 C483 1.466 . S
C604 C80 1.497 . S
C616 C517 1.366 . S
C643 C529 1.439 . S
C631 C140 1.466 . S
C658 C211 1.492 . S
C670 C563 1.381 . S
C697 C520 1.452 . S
C685 C31 1.481 . S
C724 C500 1.359 . S
C712 C61 1.505 . S
C751 C547 1.331 . S
C739 C151 1.452 . S
C778 C538 1.436 . S
C766 C200 1.486 . S
C793 C20 1.498 . S
C805 C546 1.469 . S
C832 C508 1.378 . S
C820 C121 1.449 . S
C847 C181 1.462 . S
C859 C484 1.448 . S
C874 C91 1.466 . S
C886 C541 1.445 . S
C913 C499 1.566 . S
C901 C260 1.701 . S
C928 C320 1.620 . S
C940 C521 1.659 . S
C955 C361 1.762 . S
C967 C526 1.681 . S
C982 C451 1.681 . S
C994 C559 1.601 . S
C1009 C271 1.699 . S
C1021 C504 1.600 . S
C1048 C496 1.612 . S
C1036 C301 1.701 . S
C1075 C550 1.601 . S
C1063 C380 1.713 . S
C1102 C542 1.623 . S
C1090 C440 1.681 . S
C1117 C241 1.728 . S
C1129 C562 1.622 . S
C1156 C505 1.644 . S
C1144 C391 1.762 . S
C1183 C487 1.563 . S
C1171 C421 1.642 . S
C1198 C331 1.599 . S
C1210 C525 1.634 . S
