# Generated by pormake.
# Topology zzz, (3,6)-cn, num edge types: 1
# Building blocks:
#     Node 0, Type 0, BuildingBlock: VETTIZ_charged_linker_0, # of connection points: 3
#     Node 1, Type 0, BuildingBlock: VETTIZ_charged_linker_0, # of connection points: 3
#     Node 2, Type 0, BuildingBlock: VETTIZ_charged_linker_0, # of connection points: 3
#     Node 3, Type 0, BuildingBlock: VETTIZ_charged_linker_0, # of connection points: 3
#     Node 4, Type 0, BuildingBlock: VETTIZ_charged_linker_0, # of connection points: 3
#     Node 5, Type 0, BuildingBlock: VETTIZ_charged_linker_0, # of connection points: 3
#     Node 6, Type 0, BuildingBlock: VETTIZ_charged_linker_0, # of connection points: 3
#     Node 7, Type 0, BuildingBlock: VETTIZ_charged_linker_0, # of connection points: 3
#     Node 8, Type 1, BuildingBlock: KUMBOL_clean_sbu_1, # of connection points: 6
#     Node 9, Type 1, BuildingBlock: KUMBOL_clean_sbu_1, # of connection points: 6
#     Node 10, Type 1, BuildingBlock: KUMBOL_clean_sbu_1, # of connection points: 6
#     Node 11, Type 1, BuildingBlock: KUMBOL_clean_sbu_1, # of connection points: 6
#     Edge 12, Type (0, 1), BuildingBlock: AJUNOK_clean_linker_0, # of connection points: 2
#     Edge 13, Type (0, 1), BuildingBlock: AJUNOK_clean_linker_0, # of connection points: 2
#     Edge 14, Type (0, 1), BuildingBlock: AJUNOK_clean_linker_0, # of connection points: 2
#     Edge 15, Type (0, 1), BuildingBlock: AJUNOK_clean_linker_0, # of connection points: 2
#     Edge 16, Type (0, 1), BuildingBlock: AJUNOK_clean_linker_0, # of connection points: 2
#     Edge 17, Type (0, 1), BuildingBlock: AJUNOK_clean_linker_0, # of connection points: 2
#     Edge 18, Type (0, 1), BuildingBlock: AJUNOK_clean_linker_0, # of connection points: 2
#     Edge 19, Type (0, 1), BuildingBlock: AJUNOK_clean_linker_0, # of connection points: 2
#     Edge 20, Type (0, 1), BuildingBlock: AJUNOK_clean_linker_0, # of connection points: 2
#     Edge 21, Type (0, 1), BuildingBlock: AJUNOK_clean_linker_0, # of connection points: 2
#     Edge 22, Type (0, 1), BuildingBlock: AJUNOK_clean_linker_0, # of connection points: 2
#     Edge 23, Type (0, 1), BuildingBlock: AJUNOK_clean_linker_0, # of connection points: 2
#     Edge 24, Type (0, 1), BuildingBlock: AJUNOK_clean_linker_0, # of connection points: 2
#     Edge 25, Type (0, 1), BuildingBlock: AJUNOK_clean_linker_0, # of connection points: 2
#     Edge 26, Type (0, 1), BuildingBlock: AJUNOK_clean_linker_0, # of connection points: 2
#     Edge 27, Type (0, 1), BuildingBlock: AJUNOK_clean_linker_0, # of connection points: 2
#     Edge 28, Type (0, 1), BuildingBlock: AJUNOK_clean_linker_0, # of connection points: 2
#     Edge 29, Type (0, 1), BuildingBlock: AJUNOK_clean_linker_0, # of connection points: 2
#     Edge 30, Type (0, 1), BuildingBlock: AJUNOK_clean_linker_0, # of connection points: 2
#     Edge 31, Type (0, 1), BuildingBlock: AJUNOK_clean_linker_0, # of connection points: 2
#     Edge 32, Type (0, 1), BuildingBlock: AJUNOK_clean_linker_0, # of connection points: 2
#     Edge 33, Type (0, 1), BuildingBlock: AJUNOK_clean_linker_0, # of connection points: 2
#     Edge 34, Type (0, 1), BuildingBlock: AJUNOK_clean_linker_0, # of connection points: 2
#     Edge 35, Type (0, 1), BuildingBlock: AJUNOK_clean_linker_0, # of connection points: 2
# Relax obj value: 0.360
# Max RMSD: 0.208
# Mean RMSD: 0.188
data_MOF--net-zzz--node1-KUMBOL_clean_sbu_1--node2-VETTIZ_charged_linker_0--edge1-AJUNOK_clean_linker_0
_symmetry_space_group_name_H-M    P1
_symmetry_Int_Tables_number       1
_symmetry_cell_setting            triclinic
loop_
_symmetry_equiv_pos_as_xyz
'x, y, z'
_cell_length_a     43.228552
_cell_length_b     43.448221
_cell_length_c     16.118618
_cell_angle_alpha  90.162592
_cell_angle_beta   90.084004
_cell_angle_gamma 90.349844
loop_
_atom_site_label
_atom_site_type_symbol
_atom_site_fract_x
_atom_site_fract_y
_atom_site_fract_z
_atom_type_partial_charge
C0 C 0.83952 0.55221 0.37933 0.0
C1 C 0.86798 0.56632 0.4062 0.0
C2 C 0.87799 0.59288 0.36425 0.0
C3 C 0.8344 0.59059 0.27008 0.0
C4 C 0.82268 0.56528 0.31105 0.0
C5 C 0.79133 0.55602 0.2721 0.0
H6 H 0.68493 0.59024 0.95746 0.0
C7 C 0.81393 0.59882 0.20041 0.0
C8 C 0.7874 0.5797 0.20128 0.0
H9 H 0.67389 0.51621 0.1324 0.0
H10 H 0.72332 0.53101 0.19939 0.0
H11 H 0.71287 0.64244 0.08415 0.0
H12 H 0.74252 0.57723 0.90742 0.0
H13 H 0.77685 0.59833 0.91927 0.0
H14 H 0.74237 0.61679 0.88013 0.0
H15 H 0.70812 0.6437 0.9733 0.0
H16 H 0.74154 0.66049 1.02359 0.0
C17 C 0.7657 0.55923 0.33753 0.0
C18 C 0.79351 0.52302 0.23801 0.0
C19 C 0.86079 0.65279 0.95705 0.0
C20 C 0.84909 0.65183 0.87513 0.0
C21 C 0.81745 0.65913 0.86627 0.0
C22 C 0.79718 0.65459 0.93309 0.0
C23 C 0.80926 0.64388 1.00863 0.0
C24 C 0.84055 0.64641 1.02255 0.0
C25 C 0.84948 0.63501 0.10725 0.0
C26 C 0.81912 0.61998 0.13485 0.0
C27 C 0.79586 0.62518 0.07638 0.0
C28 C 0.85832 0.66355 0.16088 0.0
C29 C 0.87592 0.61121 0.09751 0.0
C30 C 0.69245 0.57732 1.01122 0.0
C31 C 0.67488 0.55234 0.03944 0.0
C32 C 0.68676 0.53566 0.10834 0.0
C33 C 0.71536 0.54428 0.14741 0.0
C34 C 0.73268 0.56951 0.11669 0.0
C35 C 0.7207 0.58506 0.04884 0.0
C36 C 0.74191 0.60933 1.01672 0.0
C37 C 0.76834 0.60734 0.07796 0.0
C38 C 0.76363 0.58413 0.13845 0.0
C39 C 0.7253 0.64074 1.02396 0.0
C40 C 0.75144 0.60026 0.92648 0.0
H41 H 0.87023 0.62574 0.27206 0.0
H42 H 0.83061 0.5321 0.41094 0.0
H43 H 0.81331 0.52104 0.19441 0.0
H44 H 0.77233 0.51629 0.20385 0.0
H45 H 0.79702 0.50636 0.28931 0.0
H46 H 0.7658 0.58286 0.36419 0.0
H47 H 0.76925 0.54262 0.38894 0.0
H48 H 0.74255 0.555 0.31043 0.0
H49 H 0.88525 0.65227 0.96936 0.0
H50 H 0.80771 0.66475 0.80651 0.0
H51 H 0.77293 0.65721 0.9216 0.0
H52 H 0.84407 0.66491 0.21807 0.0
H53 H 0.85455 0.68572 0.12806 0.0
H54 H 0.88314 0.66323 0.17883 0.0
H55 H 0.87047 0.59456 0.04689 0.0
H56 H 0.88018 0.59733 0.15322 0.0
H57 H 0.89804 0.62288 0.08236 0.0
H58 H 0.89937 0.60429 0.38174 0.0
C59 C 0.86116 0.6053 0.29913 0.0
C60 C 0.89908 0.81391 0.93318 0.0
C61 C 0.89431 0.84594 0.93452 0.0
C62 C 0.88222 0.85876 1.00832 0.0
C63 C 0.89916 0.81383 0.08269 0.0
C64 C 0.90204 0.79831 1.00857 0.0
C65 C 0.91429 0.76637 1.02034 0.0
H66 H 0.02362 0.68232 0.13447 0.0
C67 C 0.91617 0.79655 0.14671 0.0
C68 C 0.92294 0.7677 0.11284 0.0
H69 H 0.93753 0.65429 1.01639 0.0
H70 H 0.91195 0.69781 0.08051 0.0
H71 H 0.02076 0.76331 0.12175 0.0
H72 H 1.01601 0.70675 0.30057 0.0
H73 H 0.97515 0.71137 0.31778 0.0
H74 H 1.00155 0.74115 0.34844 0.0
H75 H 0.04288 0.73713 0.18454 0.0
H76 H 0.03 0.77311 0.22731 0.0
C77 C 0.94293 0.76134 0.96413 0.0
C78 C 0.88786 0.74341 0.99931 0.0
C79 C 0.96499 0.86272 0.37182 0.0
C80 C 0.99042 0.86046 0.42578 0.0
C81 C 1.00881 0.83348 0.4188 0.0
C82 C 1.00116 0.8093 0.36157 0.0
C83 C 0.97501 0.812 0.3095 0.0
C84 C 0.9579 0.83889 0.31522 0.0
C85 C 0.93189 0.83983 0.25391 0.0
C86 C 0.93448 0.80826 0.21348 0.0
C87 C 0.95999 0.79133 0.24482 0.0
C88 C 0.93805 0.86689 0.19255 0.0
C89 C 0.90109 0.84283 0.30199 0.0
C90 C 0.99958 0.6862 0.11918 0.0
C91 C 0.98303 0.66482 0.06652 0.0
C92 C 0.95119 0.66996 0.05387 0.0
C93 C 0.93658 0.69575 0.08634 0.0
C94 C 0.95407 0.71821 0.1266 0.0
C95 C 0.98383 0.71275 0.15128 0.0
C96 C 0.99346 0.73824 0.21385 0.0
C97 C 0.96569 0.76081 0.21074 0.0
C98 C 0.94438 0.74861 0.15339 0.0
C99 C 0.02356 0.75387 0.18535 0.0
C100 C 0.99681 0.72365 0.3002 0.0
H101 H 0.87854 0.85423 0.13987 0.0
H102 H 0.90572 0.80225 0.87695 0.0
H103 H 0.87182 0.75285 0.95185 0.0
H104 H 0.87389 0.73784 0.05517 0.0
H105 H 0.89677 0.72193 0.97107 0.0
H106 H 0.96089 0.77922 0.97645 0.0
H107 H 0.93658 0.76209 0.89745 0.0
H108 H 0.95349 0.73852 0.97368 0.0
H109 H 0.95093 0.88327 0.37205 0.0
H110 H 0.02887 0.83089 0.45837 0.0
H111 H 1.0158 0.7894 0.35875 0.0
H112 H 0.95764 0.88194 0.21216 0.0
H113 H 0.91792 0.88249 0.18763 0.0
H114 H 0.94431 0.85847 0.12969 0.0
H115 H 0.90083 0.82734 0.35684 0.0
H116 H 0.88088 0.83605 0.26386 0.0
H117 H 0.89776 0.8668 0.32439 0.0
H118 H 0.87546 0.88267 1.01009 0.0
C119 C 0.88513 0.84283 0.08353 0.0
C120 C 0.86302 1.00482 0.11986 0.0
C121 C 0.88245 0.98672 0.06617 0.0
C122 C 0.87521 0.95509 0.05777 0.0
C123 C 0.82882 0.96101 0.1383 0.0
C124 C 0.83635 0.99088 0.15758 0.0
C125 C 0.81269 1.00315 0.2215 0.0
H126 H 0.68159 0.96129 0.4554 0.0
C127 C 0.79999 0.95224 0.17811 0.0
C128 C 0.79056 0.97526 0.23366 0.0
H129 H 0.7211 0.05231 0.45088 0.0
H130 H 0.7623 0.03422 0.35583 0.0
H131 H 0.67161 0.95739 0.30369 0.0
H132 H 0.74132 0.91605 0.43646 0.0
H133 H 0.72891 0.88985 0.35881 0.0
H134 H 0.70071 0.90754 0.42568 0.0
H135 H 0.67423 0.91747 0.29168 0.0
H136 H 0.69077 0.94366 0.21532 0.0
C137 C 0.79562 0.03073 0.1838 0.0
C138 C 0.82938 1.01174 0.30262 0.0
C139 C 0.71744 0.9009 1.02024 0.0
C140 C 0.68678 0.89855 0.05023 0.0
C141 C 0.68283 0.8855 0.12997 0.0
C142 C 0.7076 0.88519 0.1857 0.0
C143 C 0.73498 0.89969 0.16174 0.0
C144 C 0.74159 0.90285 0.07873 0.0
C145 C 0.77352 0.91637 0.06708 0.0
C146 C 0.78017 0.92773 0.15598 0.0
C147 C 0.7557 0.92021 0.20875 0.0
C148 C 0.77315 0.94314 1.00398 0.0
C149 C 0.79505 0.89024 0.03791 0.0
C150 C 0.69958 0.97729 0.43647 0.0
C151 C 0.69835 1.00786 0.46284 0.0
C152 C 0.72153 0.02832 0.43256 0.0
C153 C 0.74525 1.01794 0.37725 0.0
C154 C 0.74502 0.98715 0.3487 0.0
C155 C 0.7216 0.96797 0.37761 0.0
C156 C 0.71919 0.93865 0.32983 0.0
C157 C 0.74715 0.94122 0.27289 0.0
C158 C 0.76311 0.96966 0.28352 0.0
C159 C 0.68758 0.93905 0.28251 0.0
C160 C 0.72253 0.91144 0.39076 0.0
H161 H 0.84591 0.91769 0.09387 0.0
H162 H 0.86854 0.0287 0.13239 0.0
H163 H 0.84606 0.03089 0.29209 0.0
H164 H 0.84238 0.99167 0.32693 0.0
H165 H 0.81273 1.01903 0.35084 0.0
H166 H 0.78491 0.02419 0.12345 0.0
H167 H 0.81193 0.05016 0.17283 0.0
H168 H 0.77696 0.03891 0.22499 0.0
H169 H 0.72171 0.90644 0.95594 0.0
H170 H 0.66018 0.88061 0.15514 0.0
H171 H 0.70354 0.87797 0.24846 0.0
H172 H 0.75729 0.96161 1.02494 0.0
H173 H 0.76582 0.93501 0.94158 0.0
H174 H 0.7965 0.95337 0.99631 0.0
H175 H 0.78268 0.87412 0.99539 0.0
H176 H 0.80383 0.87669 0.09131 0.0
H177 H 0.81481 0.89915 1.00121 0.0
H178 H 0.88943 0.94005 1.02048 0.0
C179 C 0.84927 0.94219 0.0957 0.0
C180 C 0.54916 0.70652 0.3555 0.0
C181 C 0.56667 0.68072 0.38622 0.0
C182 C 0.59693 0.67687 0.35484 0.0
C183 C 0.59015 0.71811 0.25783 0.0
C184 C 0.56208 0.72568 0.29135 0.0
C185 C 0.55107 0.75608 0.25074 0.0
H186 H 0.58929 0.86435 0.94209 0.0
C187 C 0.59784 0.7385 0.18972 0.0
C188 C 0.57685 0.76299 0.18607 0.0
H189 H 0.50781 0.8698 0.09513 0.0
H190 H 0.52418 0.82282 0.1698 0.0
H191 H 0.63976 0.83863 0.07666 0.0
H192 H 0.58217 0.81037 0.88468 0.0
H193 H 0.59586 0.77359 0.90971 0.0
H194 H 0.62186 0.80338 0.8717 0.0
H195 H 0.64234 0.84438 0.9661 0.0
H196 H 0.65992 0.81176 1.01594 0.0
C197 C 0.54943 0.78149 0.31702 0.0
C198 C 0.51965 0.75077 0.20827 0.0
C199 C 0.63701 0.69214 0.93003 0.0
C200 C 0.6405 0.70693 0.8529 0.0
C201 C 0.65327 0.73682 0.85183 0.0
C202 C 0.65437 0.7541 0.92527 0.0
C203 C 0.64127 0.74144 0.99712 0.0
C204 C 0.63663 0.71015 1.00194 0.0
C205 C 0.62481 0.70065 0.08572 0.0
C206 C 0.61842 0.7324 0.12417 0.0
C207 C 0.62522 0.75577 0.06775 0.0
C208 C 0.65066 0.68213 0.1286 0.0
C209 C 0.59482 0.68119 0.07693 0.0
C210 C 0.57451 0.85591 0.99135 0.0
C211 C 0.54711 0.8713 1.01092 0.0
C212 C 0.52931 0.85895 0.0777 0.0
C213 C 0.53864 0.83162 0.12082 0.0
C214 C 0.56588 0.81609 0.09681 0.0
C215 C 0.58279 0.82867 0.032 0.0
C216 C 0.6088 0.80875 1.00465 0.0
C217 C 0.60671 0.78276 0.06697 0.0
C218 C 0.58158 0.78647 0.12297 0.0
C219 C 0.63944 0.82683 1.01553 0.0
C220 C 0.60211 0.79837 0.91344 0.0
H221 H 0.63309 0.69471 0.27898 0.0
H222 H 0.52666 0.7117 0.38113 0.0
H223 H 0.52124 0.7317 0.16233 0.0
H224 H 0.512 0.77166 0.17506 0.0
H225 H 0.50172 0.74457 0.25476 0.0
H226 H 0.57216 0.78422 0.34867 0.0
H227 H 0.53176 0.77568 0.36458 0.0
H228 H 0.54334 0.80392 0.28923 0.0
H229 H 0.62897 0.66857 0.93323 0.0
H230 H 0.65791 0.74821 0.79342 0.0
H231 H 0.6622 0.77753 0.922 0.0
H232 H 0.66336 0.66778 0.08294 0.0
H233 H 0.64118 0.66533 0.17365 0.0
H234 H 0.66769 0.69763 0.15952 0.0
H235 H 0.57711 0.69382 0.04054 0.0
H236 H 0.58484 0.67554 0.13831 0.0
H237 H 0.59941 0.65885 0.04584 0.0
H238 H 0.61174 0.65861 0.37683 0.0
C239 C 0.60897 0.69622 0.29436 0.0
C240 C 0.36455 0.50126 0.28639 0.0
C241 C 0.38491 0.48411 0.33927 0.0
C242 C 0.37782 0.45286 0.35351 0.0
C243 C 0.32844 0.45859 0.28715 0.0
C244 C 0.33649 0.48706 0.25769 0.0
C245 C 0.31162 0.49729 0.1949 0.0
H246 H 0.1595 0.46714 0.06255 0.0
C247 C 0.29618 0.45202 0.26787 0.0
C248 C 0.28573 0.47287 0.20744 0.0
H249 H 0.22228 0.52894 0.93831 0.0
H250 H 0.2626 0.51769 0.04288 0.0
H251 H 0.20361 0.41121 0.11015 0.0
H252 H 0.17153 0.49293 0.22376 0.0
H253 H 0.18698 0.47388 0.31 0.0
H254 H 0.15517 0.45692 0.25222 0.0
H255 H 0.16504 0.41975 0.14457 0.0
H256 H 0.19269 0.40247 0.21341 0.0
C257 C 0.32572 0.49529 0.10745 0.0
C258 C 0.30028 0.52987 0.21523 0.0
C259 C 0.23511 0.42038 0.51579 0.0
C260 C 0.20419 0.42888 0.52952 0.0
C261 C 0.18324 0.4248 0.46291 0.0
C262 C 0.1942 0.42101 0.38193 0.0
C263 C 0.22612 0.42311 0.36774 0.0
C264 C 0.24625 0.4202 0.4339 0.0
C265 C 0.27942 0.42522 0.40835 0.0
C266 C 0.27494 0.43564 0.31806 0.0
C267 C 0.24367 0.43485 0.29571 0.0
C268 C 0.29685 0.3943 0.4163 0.0
C269 C 0.29391 0.45081 0.46376 0.0
C270 C 0.18213 0.47769 0.05571 0.0
C271 C 0.18774 0.49805 0.99009 0.0
C272 C 0.21727 0.51262 0.98721 0.0
C273 C 0.24077 0.50583 0.04694 0.0
C274 C 0.23474 0.48444 0.11082 0.0
C275 C 0.20535 0.47143 0.11433 0.0
C276 C 0.20069 0.45226 0.1901 0.0
C277 C 0.23324 0.45165 0.22544 0.0
C278 C 0.25369 0.47112 0.18093 0.0
C279 C 0.18976 0.41966 0.16359 0.0
C280 C 0.17744 0.46961 0.24712 0.0
H281 H 0.34553 0.41593 0.33642 0.0
H282 H 0.37022 0.52465 0.26896 0.0
H283 H 0.29121 0.53086 0.27969 0.0
H284 H 0.28147 0.53673 0.17237 0.0
H285 H 0.31947 0.54685 0.20953 0.0
H286 H 0.33474 0.47178 0.09542 0.0
H287 H 0.34524 0.51189 0.10112 0.0
H288 H 0.30862 0.50033 0.05867 0.0
H289 H 0.25111 0.41921 0.56722 0.0
H290 H 0.15872 0.42852 0.47072 0.0
H291 H 0.17748 0.41971 0.33293 0.0
H292 H 0.28506 0.37824 0.45978 0.0
H293 H 0.3204 0.39758 0.4424 0.0
H294 H 0.29863 0.38237 0.35541 0.0
H295 H 0.28042 0.47243 0.45877 0.0
H296 H 0.31806 0.45627 0.44808 0.0
H297 H 0.29481 0.44358 0.52963 0.0
H298 H 0.39311 0.43882 0.39029 0.0
C299 C 0.35014 0.43986 0.32558 0.0
C300 C 0.13156 0.24098 0.53845 0.0
C301 C 0.12371 0.21024 0.55541 0.0
C302 C 0.12847 0.18845 0.49159 0.0
C303 C 0.12992 0.2295 0.39128 0.0
C304 C 0.13231 0.2506 0.45533 0.0
C305 C 0.12806 0.28308 0.42572 0.0
H306 H 0.03257 0.37166 0.28157 0.0
C307 C 0.11947 0.24578 0.3159 0.0
C308 C 0.11933 0.27724 0.33445 0.0
H309 H 0.12044 0.39356 0.4008 0.0
H310 H 0.14222 0.34715 0.34202 0.0
H311 H 0.04455 0.34561 0.11252 0.0
H312 H 0.02516 0.2931 0.29433 0.0
H313 H 1.01858 0.28254 0.18758 0.0
H314 H 1.00913 0.32069 0.22303 0.0
H315 H 0.0537 0.30837 0.07192 0.0
H316 H 0.08422 0.33363 0.10452 0.0
C317 C 0.15905 0.30066 0.43719 0.0
C318 C 0.10136 0.2981 0.47557 0.0
C319 C 0.07734 0.1812 0.07813 0.0
C320 C 0.0572 0.18583 1.0109 0.0
C321 C 0.04329 0.21538 1.00448 0.0
C322 C 0.05015 0.23958 0.06237 0.0
C323 C 0.07095 0.23439 0.12839 0.0
C324 C 0.08351 0.20512 0.13538 0.0
C325 C 0.10215 0.20157 0.21307 0.0
C326 C 0.10298 0.23447 0.24541 0.0
C327 C 0.08409 0.25431 0.19765 0.0
C328 C 0.13496 0.19033 0.19006 0.0
C329 C 0.08409 0.17926 0.27139 0.0
C330 C 0.05617 0.36611 0.29786 0.0
C331 C 0.07403 0.38651 0.35048 0.0
C332 C 0.10553 0.37912 0.36324 0.0
C333 C 0.118 0.35173 0.33348 0.0
C334 C 0.0985 0.33015 0.29648 0.0
C335 C 0.06981 0.33804 0.26839 0.0
C336 C 0.05872 0.31258 0.20747 0.0
C337 C 0.08293 0.28669 0.22089 0.0
C338 C 0.10415 0.29775 0.28032 0.0
C339 C 0.06034 0.32566 0.11896 0.0
C340 C 0.02593 0.30159 0.22936 0.0
H341 H 0.13358 0.18065 0.36217 0.0
H342 H 0.13178 0.25779 0.58803 0.0
H343 H 0.07959 0.28461 0.46798 0.0
H344 H 0.09658 0.32194 0.45699 0.0
H345 H 0.10712 0.29976 0.54249 0.0
H346 H 0.17351 0.29039 0.48695 0.0
H347 H 0.15534 0.32479 0.45727 0.0
H348 H 0.17293 0.30047 0.37921 0.0
H349 H 0.08757 0.15878 0.08764 0.0
H350 H 0.02734 0.21988 0.95417 0.0
H351 H 0.03877 0.26134 0.05542 0.0
H352 H 0.14425 0.20363 0.13665 0.0
H353 H 0.13462 0.16559 0.17244 0.0
H354 H 0.15171 0.19354 0.24132 0.0
H355 H 0.06084 0.17285 0.24685 0.0
H356 H 0.07934 0.18974 0.33281 0.0
H357 H 0.09664 0.15729 0.28017 0.0
H358 H 0.12566 0.16417 0.50317 0.0
C359 C 0.13203 0.19804 0.40924 0.0
C360 C 0.32711 0.02565 0.98457 0.0
C361 C 0.3422 0.04091 0.91652 0.0
C362 C 0.32905 0.06864 0.88742 0.0
C363 C 0.29563 0.07041 1.00649 0.0
C364 C 0.30208 0.04058 1.02602 0.0
C365 C 0.2817 0.03117 0.10019 0.0
H366 H 0.18823 0.08807 0.41742 0.0
C367 C 0.27974 0.08485 0.07589 0.0
C368 C 0.26488 0.06167 0.12195 0.0
H369 H 0.1612 1.00885 0.27191 0.0
H370 H 0.2051 1.01844 0.17642 0.0
H371 H 0.25637 0.07607 0.42562 0.0
H372 H 0.20438 0.13387 0.26596 0.0
H373 H 0.23748 0.15387 0.30422 0.0
H374 H 0.21015 0.1378 0.37605 0.0
H375 H 0.256 0.11661 0.4425 0.0
H376 H 0.28549 0.09883 0.37957 0.0
C377 C 0.30211 0.02051 0.17283 0.0
C378 C 0.25907 1.00562 0.07356 0.0
C379 C 0.35286 0.15919 0.21033 0.0
C380 C 0.35795 0.16186 0.29617 0.0
C381 C 0.33152 0.16318 0.34752 0.0
C382 C 0.30265 0.15308 0.31737 0.0
C383 C 0.30064 0.1415 0.23601 0.0
C384 C 0.32499 0.14636 0.18217 0.0
C385 C 0.32145 0.1286 0.10241 0.0
C386 C 0.29099 0.11132 0.11866 0.0
C387 C 0.27972 0.1183 0.19829 0.0
C388 C 0.34957 0.10659 0.09327 0.0
C389 C 0.31945 0.15166 1.03007 0.0
C390 C 0.19173 0.07238 0.36598 0.0
C391 C 0.171 0.04771 0.35298 0.0
C392 C 0.17692 0.02777 0.28473 0.0
C393 C 0.20249 0.03281 0.23053 0.0
C394 C 0.22324 0.0572 0.24645 0.0
C395 C 0.21713 0.07684 0.31242 0.0
C396 C 0.23992 0.10312 0.31666 0.0
C397 C 0.25774 0.09842 0.23627 0.0
C398 C 0.24985 0.07027 0.19816 0.0
C399 C 0.26049 0.09863 0.39494 0.0
C400 C 0.22213 0.13392 0.31602 0.0
H401 H 0.29687 0.10536 0.91185 0.0
H402 H 0.33525 1.00357 1.00612 0.0
H403 H 0.24147 1.01463 1.02969 0.0
H404 H 0.24724 0.99557 0.12816 0.0
H405 H 0.27169 0.98661 0.04239 0.0
H406 H 0.31901 0.0388 0.1904 0.0
H407 H 0.31513 0.99946 0.15566 0.0
H408 H 0.28766 1.0152 0.22799 0.0
H409 H 0.37179 0.16066 0.16724 0.0
H410 H 0.33396 0.16772 0.41332 0.0
H411 H 0.28372 0.15211 0.36017 0.0
H412 H 0.35002 0.08963 0.14477 0.0
H413 H 0.37194 0.11916 0.09281 0.0
H414 H 0.3498 0.09398 0.03425 0.0
H415 H 0.33648 0.17072 0.03821 0.0
H416 H 0.29601 0.16193 1.02611 0.0
H417 H 0.32527 0.14089 0.97005 0.0
H418 H 0.33873 0.08035 0.83413 0.0
C419 C 0.30566 0.08344 0.93226 0.0
C420 C 0.49624 0.34659 1.02193 0.0
C421 C 0.48086 0.37365 0.99133 0.0
C422 C 0.45232 0.38131 1.02788 0.0
C423 C 0.45573 0.3392 0.12498 0.0
C424 C 0.48264 0.32914 0.08871 0.0
C425 C 0.49264 0.29884 0.13118 0.0
H426 H 0.45121 0.1914 0.43735 0.0
C427 C 0.44734 0.31928 0.19509 0.0
C428 C 0.46738 0.29385 0.19827 0.0
H429 H 0.53506 0.1867 0.29315 0.0
H430 H 0.51945 0.23342 0.21717 0.0
H431 H 0.46353 0.24705 0.49529 0.0
H432 H 0.40092 0.22108 0.30755 0.0
H433 H 0.3831 0.248 0.37297 0.0
H434 H 0.39972 0.2139 0.41751 0.0
H435 H 0.42365 0.25163 0.5144 0.0
H436 H 0.44734 0.28317 0.47621 0.0
C437 C 0.5247 0.3035 0.17079 0.0
C438 C 0.49255 0.27252 0.06732 0.0
C439 C 0.40248 0.36721 0.44527 0.0
C440 C 0.40269 0.35421 0.52559 0.0
C441 C 0.39098 0.32391 0.53211 0.0
C442 C 0.39106 0.30458 0.46223 0.0
C443 C 0.40237 0.3163 0.38698 0.0
C444 C 0.4037 0.34761 0.3763 0.0
C445 C 0.4136 0.35603 0.28968 0.0
C446 C 0.42584 0.32494 0.25953 0.0
C447 C 0.41958 0.30199 0.31783 0.0
C448 C 0.43918 0.38115 0.2936 0.0
C449 C 0.38432 0.36648 0.24153 0.0
C450 C 0.46676 0.19995 0.39003 0.0
C451 C 0.49452 0.18467 0.37312 0.0
C452 C 0.51324 0.19733 0.30858 0.0
C453 C 0.50438 0.22464 0.26476 0.0
C454 C 0.47693 0.2402 0.28669 0.0
C455 C 0.4593 0.22758 0.35009 0.0
C456 C 0.43444 0.24852 0.37944 0.0
C457 C 0.43749 0.27475 0.31831 0.0
C458 C 0.46222 0.27046 0.26157 0.0
C459 C 0.44233 0.25818 0.47062 0.0
C460 C 0.40281 0.232 0.36965 0.0
H461 H 0.41703 0.37006 0.11276 0.0
H462 H 0.51779 0.33922 0.99441 0.0
H463 H 0.46943 0.27035 0.03753 0.0
H464 H 0.49797 0.25023 0.09692 0.0
H465 H 0.50996 0.27693 1.01802 0.0
H466 H 0.52448 0.32352 0.21392 0.0
H467 H 0.54244 0.3079 0.12233 0.0
H468 H 0.53179 0.28308 0.20671 0.0
H469 H 0.40714 0.39124 0.43607 0.0
H470 H 0.38521 0.31408 0.59165 0.0
H471 H 0.38472 0.28092 0.47056 0.0
H472 H 0.45823 0.37405 0.33576 0.0
H473 H 0.42951 0.40312 0.31631 0.0
H474 H 0.44952 0.38642 0.23293 0.0
H475 H 0.36342 0.36768 0.28155 0.0
H476 H 0.37833 0.35017 0.19069 0.0
H477 H 0.38737 0.38987 0.21493 0.0
H478 H 0.43976 0.40153 1.0082 0.0
C479 C 0.43937 0.3637 0.09096 0.0
C480 C 0.11851 0.0324 0.85943 0.0
C481 C 0.1045 0.05695 0.98931 0.0
C482 C 0.09633 0.0399 0.91788 0.0
C483 C 0.13534 0.06639 1.00088 0.0
C484 C 0.14958 0.04158 0.87114 0.0
C485 C 0.15784 0.05869 0.94198 0.0
N486 N 0.10976 1.01591 0.7915 0.0
C487 C 0.13119 1.00681 0.73452 0.0
C488 C 0.17147 0.0331 0.81154 0.0
C489 C 0.16224 1.01547 0.74318 0.0
Gd490 Gd 0.99562 0.04317 0.64289 0.0
Gd491 Gd 0.05698 1.00289 0.78117 0.0
N492 N 0.06659 0.03091 0.90403 0.0
C493 C 0.0814 0.06402 0.04692 0.0
C494 C 0.04424 0.0367 0.96165 0.0
C495 C 0.05119 0.05365 0.03326 0.0
H496 H 0.021 0.02844 0.95263 0.0
H497 H 0.03324 0.05861 0.07801 0.0
H498 H 0.0379 0.04193 0.46491 0.0
H499 H 0.12453 0.99223 0.68326 0.0
H500 H 0.03759 1.01528 0.33104 0.0
H501 H 0.0867 0.07719 0.1024 0.0
H502 H 0.14206 0.07954 0.0553 0.0
H503 H 0.92662 0.02835 0.72916 0.0
H504 H 0.19556 0.03968 0.81827 0.0
H505 H 0.17908 1.0083 0.69753 0.0
H506 H 0.94012 0.96237 0.32603 0.0
H507 H 0.18159 0.06596 0.95198 0.0
H508 H 0.87265 0.97493 0.55881 0.0
H509 H 0.87823 1.00104 0.69462 0.0
N510 N 0.94873 1.01729 0.61561 0.0
C511 C 0.94599 1.00346 0.54013 0.0
C512 C 0.92476 1.01667 0.67054 0.0
C513 C 0.89403 0.98685 0.57386 0.0
C514 C 0.89714 1.00143 0.6507 0.0
C515 C 0.91862 0.98763 0.51753 0.0
H516 H 0.89609 0.96023 0.4222 0.0
N517 N 0.99675 0.02066 0.50904 0.0
C518 C 0.97089 1.0047 0.48598 0.0
C519 C 0.99373 0.99307 0.35277 0.0
C520 C 0.96889 0.99014 0.40766 0.0
C521 C 1.01967 0.0258 0.45249 0.0
C522 C 1.01898 1.01147 0.37475 0.0
O523 O 0.05893 0.05596 0.78479 0.0
O524 O 1.00894 0.07035 0.75939 0.0
O525 O 0.99807 0.08264 0.56117 0.0
O526 O 0.95694 0.07483 0.63378 0.0
O527 O 1.00596 0.99783 0.82118 0.0
O528 O 0.97991 0.04065 0.77692 0.0
O529 O 0.9926 0.99038 0.65274 0.0
O530 O 0.04331 0.97764 0.66202 0.0
O531 O 0.0859 0.9621 0.79271 0.0
O532 O 0.04751 0.96922 0.87624 0.0
O533 O 0.04726 0.05145 0.61087 0.0
O534 O 0.07098 1.00648 0.64631 0.0
C535 C 0.03623 0.07598 0.79279 0.0
C536 C 0.98282 1.01748 0.82864 0.0
C537 C 0.97753 0.12501 0.63451 0.0
C538 C 1.01298 0.16413 0.68995 0.0
C539 C 0.95873 0.16414 0.7295 0.0
C540 C 0.95321 0.1384 0.67929 0.0
C541 C 0.98852 0.17665 0.73613 0.0
C542 C 1.00713 0.13846 0.6391 0.0
C543 C 0.97329 0.09488 0.59294 0.0
C544 C 0.94194 0.97382 0.38568 0.0
C545 C 0.91682 0.97271 0.44028 0.0
H546 H 0.9931 0.98225 0.29212 0.0
C547 C 1.01504 0.9707 0.6383 0.0
C548 C 0.06998 0.03143 0.60067 0.0
C549 C 0.053 0.91968 0.81908 0.0
C550 C 1.00675 0.88797 0.79684 0.0
C551 C 0.05804 0.86636 0.77668 0.0
C552 C 0.07165 0.89449 0.799 0.0
C553 C 0.02582 0.86287 0.77705 0.0
C554 C 0.02068 0.91652 0.81371 0.0
C555 C 0.06675 0.94941 0.84472 0.0
H556 H 0.93998 0.17402 0.7649 0.0
H557 H 0.93022 0.12837 0.67753 0.0
H558 H 0.99234 0.19605 0.77726 0.0
H559 H 0.02587 0.12887 0.60293 0.0
H560 H 0.07254 0.84686 0.76203 0.0
H561 H 0.09663 0.89653 0.80109 0.0
H562 H 1.01606 0.84024 0.76586 0.0
H563 H 1.00601 0.93608 0.82643 0.0
C564 C 0.53113 0.93464 0.56104 0.0
C565 C 0.49873 0.8991 0.63861 0.0
C566 C 0.50671 0.92938 0.6153 0.0
C567 C 0.51574 0.87424 0.60713 0.0
C568 C 0.54797 0.90968 0.52839 0.0
C569 C 0.54028 0.87951 0.55218 0.0
N570 N 0.53806 0.96409 0.53909 0.0
C571 C 0.56063 0.97004 0.48195 0.0
C572 C 0.57188 0.91576 0.47216 0.0
C573 C 0.57807 0.94605 0.4484 0.0
Gd574 Gd 0.53607 0.05612 0.77943 0.0
Gd575 Gd 0.50806 1.00265 0.60169 0.0
N576 N 0.49116 0.95396 0.64657 0.0
C577 C 0.47395 0.89471 0.69318 0.0
C578 C 0.46623 0.94973 0.69722 0.0
C579 C 0.4575 0.92012 0.72207 0.0
H580 H 0.45305 0.96904 0.71901 0.0
H581 H 0.43802 0.91692 0.76333 0.0
H582 H 0.6024 0.0765 0.681 0.0
H583 H 0.56486 0.99322 0.46067 0.0
H584 H 0.62497 0.12234 0.61607 0.0
H585 H 0.46716 0.87181 0.71276 0.0
H586 H 0.51003 0.85083 0.62467 0.0
H587 H 0.47163 0.08018 0.87678 0.0
H588 H 0.58535 0.89721 0.44575 0.0
H589 H 0.59608 0.95092 0.40366 0.0
H590 H 0.55379 0.20286 0.68194 0.0
H591 H 0.55304 0.86008 0.52796 0.0
H592 H 0.46413 0.17729 0.84218 0.0
H593 H 0.44353 0.12853 0.89918 0.0
N594 N 0.50735 0.10087 0.80494 0.0
C595 C 0.51956 0.12755 0.77507 0.0
C596 C 0.48058 0.10105 0.84981 0.0
C597 C 0.47654 0.15603 0.83169 0.0
C598 C 0.46475 0.12854 0.8636 0.0
C599 C 0.50425 0.15582 0.78689 0.0
H600 H 0.50525 0.20473 0.76097 0.0
N601 N 0.56106 0.09876 0.7186 0.0
C602 C 0.54699 0.12643 0.73007 0.0
C603 C 0.58765 0.15191 0.65306 0.0
C604 C 0.55972 0.15367 0.69648 0.0
C605 C 0.58937 0.09741 0.68149 0.0
C606 C 0.60274 0.12372 0.6466 0.0
O607 O 0.52885 0.97684 0.71329 0.0
O608 O 0.52381 1.00833 0.82734 0.0
O609 O 0.57914 0.0592 0.84798 0.0
O610 O 0.53615 0.07027 0.90894 0.0
O611 O 0.46928 0.02256 0.68411 0.0
O612 O 0.49055 0.0331 0.81225 0.0
O613 O 0.50885 0.07735 0.67013 0.0
O614 O 0.52599 0.04938 0.56096 0.0
O615 O 0.46416 1.0155 0.54682 0.0
O616 O 0.49619 0.98734 0.47732 0.0
O617 O 0.57379 0.02818 0.71136 0.0
O618 O 0.55447 0.02575 0.57976 0.0
C619 C 0.52778 0.98086 0.79459 0.0
C620 C 0.46632 0.02739 0.76494 0.0
C621 C 0.57191 0.04126 0.98516 0.0
C622 C 0.59487 0.993 0.0311 0.0
C623 C 0.56504 0.02411 0.12729 0.0
C624 C 0.55994 0.04586 0.06514 0.0
C625 C 0.58249 0.99784 0.11059 0.0
C626 C 0.58892 1.01446 0.96834 0.0
C627 C 0.56515 0.06351 0.91863 0.0
C628 C 0.54439 0.18177 0.70769 0.0
C629 C 0.51678 0.18286 0.75287 0.0
H630 H 0.59814 0.17228 0.62625 0.0
C631 C 0.51551 0.07547 0.59034 0.0
C632 C 0.57819 0.02493 0.63062 0.0
C633 C 0.46875 0.02477 0.40165 0.0
C634 C 0.45181 0.07321 0.33884 0.0
C635 C 0.47415 0.03266 0.25337 0.0
C636 C 0.47783 1.01415 0.32311 0.0
C637 C 0.46065 0.06162 0.26064 0.0
C638 C 0.45662 0.05466 0.40933 0.0
C639 C 0.4715 1.00421 0.47434 0.0
H640 H 0.55567 0.02775 0.18876 0.0
H641 H 0.54642 0.06612 0.07928 0.0
H642 H 0.58696 0.9817 0.16024 0.0
H643 H 0.59787 1.01026 0.90656 0.0
H644 H 0.4809 0.0241 0.19296 0.0
H645 H 0.48745 0.99135 0.31545 0.0
H646 H 0.45604 0.07419 0.20421 0.0
H647 H 0.45024 0.06325 0.47003 0.0
C648 C 0.46041 0.51514 0.89347 0.0
C649 C 0.48584 0.52326 1.02564 0.0
C650 C 0.48423 0.52801 0.9392 0.0
C651 C 0.4643 0.50355 0.06398 0.0
C652 C 0.43748 0.49707 0.93234 0.0
C653 C 0.44011 0.4905 1.01737 0.0
N654 N 0.45866 0.52193 0.81151 0.0
C655 C 0.43318 0.51377 0.76618 0.0
C656 C 0.41206 0.48718 0.88519 0.0
C657 C 0.4096 0.49609 0.80215 0.0
Gd658 Gd 0.55965 0.5033 0.61668 0.0
Gd659 Gd 0.50005 0.55013 0.75451 0.0
N660 N 0.50404 0.54754 0.90036 0.0
C661 C 0.50803 0.53969 0.07138 0.0
C662 C 0.52338 0.56591 0.94584 0.0
C663 C 0.52637 0.5617 0.03151 0.0
H664 H 0.53607 0.58423 0.9161 0.0
H665 H 0.54242 0.57578 0.06686 0.0
H666 H 0.5371 0.51179 0.41959 0.0
H667 H 0.43139 0.52037 0.70187 0.0
H668 H 0.55032 0.54346 0.29716 0.0
H669 H 0.51005 0.53675 0.1379 0.0
H670 H 0.4654 0.49926 0.13013 0.0
H671 H 0.62579 0.50217 0.7306 0.0
H672 H 0.39386 0.47336 0.91276 0.0
H673 H 0.38973 0.4891 0.76563 0.0
H674 H 0.63998 0.60108 0.38407 0.0
H675 H 0.42298 0.47627 0.04821 0.0
H676 H 0.68563 0.57379 0.64469 0.0
H677 H 0.67319 0.53319 0.74697 0.0
N678 N 0.60868 0.52802 0.62878 0.0
C679 C 0.61671 0.5479 0.56759 0.0
C680 C 0.62976 0.52111 0.68908 0.0
C681 C 0.66419 0.5609 0.63911 0.0
C682 C 0.6572 0.5381 0.69705 0.0
C683 C 0.64439 0.56526 0.57153 0.0
H684 H 0.67295 0.59911 0.50868 0.0
N685 N 0.57326 0.53025 0.49443 0.0
C686 C 0.59861 0.54871 0.49736 0.0
C687 C 0.58899 0.56582 0.35722 0.0
C688 C 0.607 0.56731 0.42935 0.0
C689 C 0.5568 0.52714 0.42219 0.0
C690 C 0.56406 0.54524 0.35318 0.0
O691 O 0.49485 0.49722 0.75255 0.0
O692 O 0.54409 0.47911 0.73576 0.0
O693 O 0.55315 0.46729 0.52579 0.0
O694 O 0.59306 0.46586 0.60474 0.0
O695 O 0.55111 0.55492 0.79085 0.0
O696 O 0.57163 0.5083 0.75532 0.0
O697 O 0.53878 0.54826 0.56891 0.0
O698 O 0.53919 0.57505 0.68804 0.0
O699 O 0.4822 0.59121 0.81513 0.0
O700 O 0.46949 0.58105 0.68852 0.0
O701 O 0.50872 0.49454 0.58334 0.0
O702 O 0.48147 0.53745 0.62611 0.0
C703 C 0.51607 0.47612 0.76682 0.0
C704 C 0.57083 0.53249 0.80511 0.0
C705 C 0.56626 0.41936 0.57765 0.0
C706 C 0.52353 0.38501 0.6149 0.0
C707 C 0.57302 0.36429 0.56856 0.0
C708 C 0.58475 0.39407 0.55841 0.0
C709 C 0.5424 0.35974 0.59412 0.0
C710 C 0.53661 0.4146 0.61101 0.0
C711 C 0.57561 0.45062 0.55344 0.0
C712 C 0.63338 0.58625 0.43508 0.0
C713 C 0.65207 0.58522 0.50615 0.0
H714 H 0.59456 0.57986 0.30377 0.0
C715 C 0.53993 0.57487 0.60677 0.0
C716 C 0.48497 0.51353 0.57625 0.0
C717 C 0.48388 0.63176 0.71714 0.0
C718 C 0.52874 0.66591 0.70012 0.0
C719 C 0.48241 0.67301 0.6162 0.0
C720 C 0.46817 0.64808 0.65534 0.0
C721 C 0.51256 0.68167 0.63754 0.0
C722 C 0.51388 0.64126 0.74062 0.0
C723 C 0.47122 0.60205 0.74596 0.0
H724 H 0.5871 0.3447 0.55195 0.0
H725 H 0.60772 0.39734 0.53297 0.0
H726 H 0.53326 0.33652 0.59275 0.0
H727 H 0.52281 0.43434 0.62758 0.0
H728 H 0.47036 0.68515 0.56745 0.0
H729 H 0.44534 0.6408 0.6352 0.0
H730 H 0.52335 0.70045 0.60411 0.0
H731 H 0.5258 0.62905 0.78948 0.0
C732 C 0.03571 0.43288 0.84172 0.0
C733 C 0.06131 0.44673 0.97064 0.0
C734 C 0.04363 0.45488 0.90045 0.0
C735 C 0.07085 0.41612 0.98073 0.0
C736 C 0.04514 0.40207 0.85173 0.0
C737 C 0.06279 0.39384 0.92141 0.0
N738 N 1.0185 0.44152 0.77527 0.0
C739 C 1.0089 0.42022 0.71831 0.0
C740 C 0.03631 0.38038 0.79174 0.0
C741 C 1.01793 0.38948 0.725 0.0
Gd742 Gd 0.04231 0.5596 0.63751 0.0
Gd743 Gd 1.00471 0.49376 0.76786 0.0
N744 N 0.03438 0.48438 0.88824 0.0
C745 C 0.06886 0.46959 1.02861 0.0
C746 C 0.04058 0.50643 0.94655 0.0
C747 C 0.05824 0.49953 1.01676 0.0
H748 H 0.03219 0.52943 0.93924 0.0
H749 H 0.06353 0.51729 0.0619 0.0
H750 H 0.03654 0.51886 0.45682 0.0
H751 H 0.99344 0.42677 0.66905 0.0
H752 H 1.00765 0.52068 0.32665 0.0
H753 H 0.08256 0.46432 0.08306 0.0
H754 H 0.08447 0.40945 0.03417 0.0
H755 H 0.02909 0.627 0.73163 0.0
H756 H 0.04312 0.3565 0.79708 0.0
H757 H 1.01035 0.37275 0.67928 0.0
H758 H 0.95543 0.61742 0.3372 0.0
H759 H 0.07024 0.3703 0.93013 0.0
H760 H 0.97069 0.68116 0.57665 0.0
H761 H 0.99987 0.67461 0.70745 0.0
N762 N 1.01549 0.606 0.61846 0.0
C763 C 1.00012 0.60939 0.54545 0.0
C764 C 1.01578 0.62916 0.67575 0.0
C765 C 0.98327 0.66005 0.58749 0.0
C766 C 0.99957 0.65638 0.66153 0.0
C767 C 0.98344 0.63647 0.52821 0.0
H768 H 0.95421 0.65963 0.43892 0.0
N769 N 1.01725 0.55975 0.50658 0.0
C770 C 1.00074 0.58547 0.48828 0.0
C771 C 0.98648 0.56415 0.35477 0.0
C772 C 0.98468 0.5882 0.41226 0.0
C773 C 0.02079 0.53737 0.44781 0.0
C774 C 1.005 0.53883 0.37219 0.0
O775 O 0.05778 0.49406 0.76768 0.0
O776 O 0.07031 0.54498 0.75092 0.0
O777 O 0.08042 0.56071 0.55025 0.0
O778 O 0.07388 0.59882 0.63413 0.0
O779 O 0.99777 0.54372 0.81445 0.0
O780 O 0.03937 0.5731 0.77336 0.0
O781 O 0.98956 0.55885 0.65045 0.0
O782 O 0.97901 0.50763 0.65002 0.0
O783 O 0.97134 0.50032 0.86568 0.0
O784 O 0.96458 0.46331 0.77772 0.0
O785 O 0.05342 0.50951 0.59909 0.0
O786 O 1.01083 0.48023 0.63245 0.0
C787 C 0.07742 0.51719 0.77679 0.0
C788 C 1.01637 0.56784 0.82492 0.0
C789 C 0.12396 0.57832 0.62572 0.0
C790 C 0.16172 0.54013 0.67111 0.0
C791 C 0.16255 0.59175 0.72973 0.0
C792 C 0.1374 0.59995 0.68 0.0
C793 C 0.17439 0.56189 0.72641 0.0
C794 C 0.13699 0.54885 0.62003 0.0
C795 C 0.09341 0.58414 0.58751 0.0
C796 C 0.96784 0.61498 0.39526 0.0
C797 C 0.96725 0.63907 0.45302 0.0
H798 H 0.97447 0.56534 0.2958 0.0
C799 C 0.97107 0.53581 0.63056 0.0
C800 C 0.03583 0.48471 0.58727 0.0
C801 C 0.92078 0.49108 0.81992 0.0
C802 C 0.88642 0.53408 0.78941 0.0
C803 C 0.86535 0.48348 0.82403 0.0
C804 C 0.8952 0.47186 0.83292 0.0
C805 C 0.86092 0.51445 0.80414 0.0
C806 C 0.91628 0.52172 0.79512 0.0
C807 C 0.95218 0.47986 0.83593 0.0
H808 H 0.17233 0.60833 0.77274 0.0
H809 H 0.12765 0.62274 0.68647 0.0
H810 H 0.19303 0.55578 0.76801 0.0
H811 H 0.12734 0.5322 0.57692 0.0
H812 H 0.84556 0.46873 0.83559 0.0
H813 H 0.8983 0.44813 0.85143 0.0
H814 H 0.83752 0.52313 0.80407 0.0
H815 H 0.93619 0.53627 0.7835 0.0
C816 C 0.13862 1.01524 0.45259 0.0
C817 C 0.14362 0.04333 0.411 0.0
C818 C 0.11484 1.01168 0.5124 0.0
C819 C 0.09476 0.03604 0.53452 0.0
H820 H 0.15364 0.99592 0.44009 0.0
H821 H 0.11222 0.98938 0.54135 0.0
S822 S 0.09468 0.11284 0.43399 0.0
N823 N 0.12399 0.09496 0.38978 0.0
N824 N 0.08008 0.08852 0.50217 0.0
C825 C 0.09879 0.06388 0.49076 0.0
C826 C 0.12292 0.06746 0.42955 0.0
C827 C 0.49407 0.15637 0.51175 0.0
C828 C 0.50298 0.15695 0.42705 0.0
C829 C 0.49776 0.1302 0.5624 0.0
C830 C 0.51176 0.10309 0.53332 0.0
H831 H 0.48369 0.17642 0.54001 0.0
H832 H 0.48903 0.13127 0.62507 0.0
S833 S 0.54062 0.09165 0.31783 0.0
N834 N 0.52701 0.12709 0.31718 0.0
N835 N 0.53522 0.07866 0.41294 0.0
C836 C 0.52166 0.10334 0.44944 0.0
C837 C 0.51729 0.12998 0.39686 0.0
C838 C 0.40902 0.51886 0.44908 0.0
C839 C 0.41274 0.49699 0.38514 0.0
C840 C 0.43256 0.52452 0.50883 0.0
C841 C 0.4608 0.50807 0.50904 0.0
H842 H 0.38709 0.53053 0.4558 0.0
H843 H 0.428 0.54127 0.55705 0.0
S844 S 0.48345 0.45069 0.34897 0.0
N845 N 0.44837 0.46129 0.32076 0.0
N846 N 0.49144 0.47041 0.43406 0.0
C847 C 0.46518 0.48707 0.44314 0.0
C848 C 0.44159 0.48198 0.3813 0.0
C849 C 0.03365 0.41237 0.44371 0.0
C850 C 0.06133 0.41431 0.39759 0.0
C851 C 0.02517 0.43541 0.50217 0.0
C852 C 0.04433 0.46122 0.52022 0.0
H853 H 1.01889 0.39228 0.43701 0.0
H854 H 1.0034 0.4326 0.53401 0.0
S855 S 0.11666 0.48039 0.40629 0.0
N856 N 0.10517 0.44751 0.36466 0.0
N857 N 0.091 0.4885 0.47855 0.0
C858 C 0.07127 0.46416 0.47129 0.0
C859 C 0.07925 0.44144 0.40953 0.0
C860 C 0.9367 0.98004 1.00694 0.0
C861 C 0.91016 0.99874 1.01699 0.0
C862 C 0.96 0.98664 0.9481 0.0
C863 C 0.95864 1.01265 0.89614 0.0
H864 H 0.93914 0.95928 0.04335 0.0
H865 H 0.97902 0.97069 0.94237 0.0
S866 S 0.89711 0.07226 0.9057 0.0
N867 N 0.88582 0.04629 0.9741 0.0
N868 N 0.93016 0.0597 0.86758 0.0
C869 C 0.93355 0.03296 0.90997 0.0
C870 C 0.9094 0.02587 0.96922 0.0
C871 C 0.54437 0.89846 0.87097 0.0
C872 C 0.53811 0.8989 0.95734 0.0
C873 C 0.5409 0.92463 0.82004 0.0
C874 C 0.53044 0.95302 0.85145 0.0
H875 H 0.55264 0.87758 0.84188 0.0
H876 H 0.5472 0.92258 0.75535 0.0
S877 S 0.50792 0.96678 0.07141 0.0
N878 N 0.51912 0.9305 0.07058 0.0
N879 N 0.51199 0.97929 0.97534 0.0
C880 C 0.52288 0.95368 0.93708 0.0
C881 C 0.52656 0.92684 0.98936 0.0
C882 C 0.62496 0.56871 0.9699 0.0
C883 C 0.64511 0.54471 0.99309 0.0
C884 C 0.60049 0.56418 0.91301 0.0
C885 C 0.59467 0.5355 0.87466 0.0
H886 H 0.62883 0.59175 0.9938 0.0
H887 H 0.58688 0.58397 0.89662 0.0
S888 S 0.63708 0.46347 0.92403 0.0
N889 N 0.6552 0.49007 0.97953 0.0
N890 N 0.60884 0.48133 0.87504 0.0
C891 C 0.6131 0.51065 0.90234 0.0
C892 C 0.63826 0.5153 0.96052 0.0
C893 C 0.02125 0.64113 0.96377 0.0
C894 C 0.99681 0.63742 1.02076 0.0
C895 C 0.0284 0.61808 0.90408 0.0
C896 C 1.01073 0.59057 0.89582 0.0
H897 H 0.03401 0.66265 0.96238 0.0
H898 H 0.0475 0.62247 0.86244 0.0
S899 S 0.94826 0.56682 0.04105 0.0
N900 N 0.95859 0.60137 0.07413 0.0
N901 N 0.97042 0.55958 0.96015 0.0
C902 C 0.98774 0.58574 0.95662 0.0
C903 C 0.9812 0.60867 1.01894 0.0
C904 C 0.09883 0.17233 0.65253 0.0
C905 C 0.10094 0.2027 0.62265 0.0
C906 C 0.07084 0.16056 0.68321 0.0
C907 C 0.0441 0.17889 0.68697 0.0
H908 H 0.11792 0.15659 0.64436 0.0
H909 H 0.06947 0.13622 0.69695 0.0
S910 S 0.03942 0.26222 0.64067 0.0
N911 N 0.07521 0.25266 0.61756 0.0
N912 N 0.02313 0.23035 0.67496 0.0
C913 C 0.04717 0.21038 0.67011 0.0
C914 C 0.07557 0.2224 0.63844 0.0
C915 C 0.38593 0.12667 0.39215 0.0
C916 C 0.38775 0.14925 0.32953 0.0
C917 C 0.40821 0.10366 0.3993 0.0
C918 C 0.43372 0.10237 0.34532 0.0
H919 H 0.36536 0.1241 0.42974 0.0
H920 H 0.40346 0.08513 0.44228 0.0
S921 S 0.45513 0.16188 0.19031 0.0
N922 N 0.42162 0.17342 0.22759 0.0
N923 N 0.46342 0.13002 0.2409 0.0
C924 C 0.43841 0.12744 0.29143 0.0
C925 C 0.41565 0.15103 0.28419 0.0
C926 C 0.43797 0.39659 0.57514 0.0
C927 C 0.42608 0.36661 0.58707 0.0
C928 C 0.4692 0.40327 0.58929 0.0
C929 C 0.48924 0.38129 0.62414 0.0
H930 H 0.42424 0.41417 0.54557 0.0
H931 H 0.47775 0.42509 0.56648 0.0
S932 S 0.46496 0.30678 0.71531 0.0
N933 N 0.434 0.31921 0.66602 0.0
N934 N 0.4916 0.33364 0.70213 0.0
C935 C 0.47569 0.35434 0.65588 0.0
C936 C 0.44422 0.34672 0.63676 0.0
C937 C 0.16499 0.45514 0.61997 0.0
C938 C 0.19619 0.45139 0.59706 0.0
C939 C 0.15424 0.48332 0.65038 0.0
C940 C 0.1744 0.50853 0.66258 0.0
H941 H 0.14812 0.43725 0.60686 0.0
H942 H 0.12956 0.48604 0.65862 0.0
S943 S 0.25954 0.50834 0.63738 0.0
N944 N 0.24816 0.4738 0.60746 0.0
N945 N 0.22771 0.52615 0.66557 0.0
C946 C 0.20617 0.50369 0.65259 0.0
C947 C 0.21717 0.47515 0.62039 0.0
C948 C 0.9323 0.88861 0.9184 0.0
C949 C 0.91443 0.86535 0.87984 0.0
C950 C 0.96109 0.89724 0.88732 0.0
C951 C 0.97326 0.88359 0.81527 0.0
H952 H 0.92627 0.89766 0.9788 0.0
H953 H 0.97501 0.91261 0.92516 0.0
S954 S 0.93117 0.83016 0.67457 0.0
N955 N 0.90721 0.83551 0.75296 0.0
N956 N 0.96224 0.85111 0.6957 0.0
C957 C 0.95388 0.86377 0.76941 0.0
C958 C 0.92411 0.85518 0.80079 0.0
C959 C 0.63067 0.9136 0.03895 0.0
C960 C 0.66187 0.91943 1.01796 0.0
C961 C 0.60862 0.93712 0.03971 0.0
C962 C 0.61644 0.9672 1.01607 0.0
H963 H 0.62357 0.89132 0.0617 0.0
H964 H 0.58573 0.93205 0.06309 0.0
S965 S 0.69287 0.99474 0.94255 0.0
N966 N 0.69797 0.95802 0.96341 0.0
N967 N 0.65613 1.00133 0.96241 0.0
C968 C 0.6464 0.97289 0.9865 0.0
C969 C 0.66912 0.94919 0.98726 0.0
C970 C 0.59602 0.71795 0.76087 0.0
C971 C 0.61903 0.6971 0.78599 0.0
C972 C 0.56753 0.70756 0.73006 0.0
C973 C 0.56064 0.67592 0.72427 0.0
H974 H 0.59869 0.74239 0.77244 0.0
H975 H 0.55003 0.72456 0.71652 0.0
S976 S 0.61636 0.61264 0.76311 0.0
N977 N 0.63603 0.64422 0.78487 0.0
N978 N 0.5812 0.62401 0.73802 0.0
C979 C 0.58449 0.65499 0.74336 0.0
C980 C 0.61409 0.6658 0.77015 0.0
C981 C 0.89461 0.61947 0.83326 0.0
C982 C 0.86455 0.63012 0.81467 0.0
C983 C 0.90256 0.58866 0.8206 0.0
C984 C 0.88206 0.56801 0.78096 0.0
H985 H 0.91093 0.63369 0.86713 0.0
H986 H 0.92396 0.58079 0.84781 0.0
S987 S 0.81078 0.58994 0.66833 0.0
N988 N 0.82073 0.6211 0.72098 0.0
N989 N 0.83735 0.5641 0.69018 0.0
C990 C 0.85587 0.58052 0.74245 0.0
C991 C 0.847 0.61158 0.75912 0.0
C992 C 0.07573 0.14234 0.916 0.0
C993 C 0.05098 0.1593 0.95051 0.0
C994 C 0.07085 0.11596 0.86531 0.0
C995 C 0.04089 0.10478 0.8461 0.0
H996 H 0.09932 0.14947 0.92869 0.0
H997 H 0.09091 0.10425 0.84077 0.0
S998 S 0.96803 0.13807 0.92908 0.0
N999 N 0.99526 0.16118 0.96599 0.0
N1000 N 0.98603 0.11204 0.87234 0.0
C1001 C 1.01592 0.12125 0.88133 0.0
C1002 C 0.02094 0.14824 0.93268 0.0
C1003 C 0.3775 0.03132 0.79237 0.0
C1004 C 0.37296 0.03119 0.87937 0.0
C1005 C 0.40728 0.02897 0.75615 0.0
C1006 C 0.43438 0.02687 0.80481 0.0
H1007 H 0.35781 0.03431 0.75161 0.0
H1008 H 0.40907 0.02999 0.68921 0.0
S1009 S 0.43558 0.02406 0.03583 0.0
N1010 N 0.39853 0.02753 1.01289 0.0
N1011 N 0.45397 0.023 0.94617 0.0
C1012 C 0.43004 0.02553 0.89195 0.0
C1013 C 0.39965 0.02768 0.92867 0.0
C1014 C 0.52191 0.40941 0.92617 0.0
C1015 C 0.49247 0.39511 0.92285 0.0
C1016 C 0.52971 0.43477 0.87408 0.0
C1017 C 0.50826 0.44766 0.81753 0.0
H1018 H 0.53854 0.40198 0.97211 0.0
H1019 H 0.55236 0.44525 0.88089 0.0
S1020 S 0.42954 0.41665 0.77652 0.0
N1021 N 0.4433 0.39389 0.8493 0.0
N1022 N 0.45723 0.44195 0.75704 0.0
C1023 C 0.4794 0.43271 0.81111 0.0
C1024 C 0.4718 0.40645 0.86185 0.0
C1025 C 0.14957 0.53295 0.91392 0.0
C1026 C 0.16209 0.50346 0.92743 0.0
C1027 C 0.12271 0.53727 0.86442 0.0
C1028 C 0.10703 0.51234 0.82584 0.0
H1029 H 0.15999 0.55277 0.94403 0.0
H1030 H 0.11382 0.56038 0.85783 0.0
S1031 S 0.13238 0.43078 0.83408 0.0
N1032 N 0.1578 0.44923 0.89268 0.0
N1033 N 0.10805 0.45717 0.80078 0.0
C1034 C 0.11998 0.48289 0.83708 0.0
C1035 C 0.14723 0.47855 0.88713 0.0
C1036 C 0.02705 0.89993 0.49451 0.0
C1037 C 0.99721 0.88674 0.48658 0.0
C1038 C 0.0327 0.92647 0.54436 0.0
C1039 C 1.00887 0.94124 0.58939 0.0
H1040 H 0.04608 0.8903 0.45963 0.0
H1041 H 0.05592 0.93594 0.54587 0.0
S1042 S 0.92761 0.91333 0.60131 0.0
N1043 N 0.94411 0.88938 0.5354 0.0
N1044 N 0.95494 0.93786 0.62994 0.0
C1045 C 0.97934 0.92734 0.58531 0.0
C1046 C 0.97349 0.90064 0.53397 0.0
C1047 C 0.64571 0.03297 0.47531 0.0
C1048 C 0.67048 1.01745 0.51349 0.0
C1049 C 0.61647 0.03576 0.51427 0.0
C1050 C 0.61046 0.02345 0.59392 0.0
H1051 H 0.64844 0.04168 0.41284 0.0
H1052 H 0.59816 0.04726 0.48074 0.0
S1053 S 0.66747 0.98103 0.72164 0.0
N1054 N 0.68677 0.98965 0.63627 0.0
N1055 N 0.63259 0.99578 0.71006 0.0
C1056 C 0.63536 1.00885 0.63399 0.0
C1057 C 0.66498 1.00554 0.59367 0.0
C1058 C 0.57793 0.64631 0.50965 0.0
C1059 C 0.5561 0.65744 0.45142 0.0
C1060 C 0.5726 0.61974 0.55754 0.0
C1061 C 0.54421 0.60395 0.55644 0.0
H1062 H 0.60039 0.65727 0.51544 0.0
H1063 H 0.59168 0.61067 0.59271 0.0
S1064 S 0.47829 0.62274 0.41806 0.0
N1065 N 0.50451 0.64926 0.3952 0.0
N1066 N 0.49364 0.6011 0.49138 0.0
C1067 C 0.52161 0.61504 0.50083 0.0
C1068 C 0.52749 0.64155 0.44851 0.0
C1069 C 0.90325 0.52649 0.47466 0.0
C1070 C 0.88864 0.55547 0.4766 0.0
C1071 C 0.92891 0.51973 0.52689 0.0
C1072 C 0.94157 0.54183 0.58232 0.0
H1073 H 0.89601 0.50954 0.42913 0.0
H1074 H 0.9399 0.49752 0.52057 0.0
S1075 S 0.91017 0.62018 0.61715 0.0
N1076 N 0.88733 0.60528 0.54527 0.0
N1077 N 0.93549 0.59315 0.63957 0.0
C1078 C 0.92618 0.57025 0.58749 0.0
C1079 C 0.89984 0.57685 0.53603 0.0
loop_
_geom_bond_atom_site_label_1
_geom_bond_atom_site_label_2
_geom_bond_distance
_geom_bond_site_symmetry_2
_ccdc_geom_bond_type
C0 C1 1.391 . S
C0 C4 1.391 . S
C0 H42 0.948 . S
C1 C0 1.391 . S
C1 C2 1.391 . S
C2 C1 1.391 . S
C2 H58 0.947 . S
C2 C59 1.392 . S
C3 C4 1.391 . S
C3 C7 1.397 . S
C3 C59 1.419 . S
C4 C0 1.391 . S
C4 C3 1.391 . S
C4 C5 1.399 . S
C5 C4 1.399 . S
C5 C8 1.396 . S
C5 C17 1.453 . S
C5 C18 1.684 . S
H6 C30 0.948 . S
C7 C3 1.397 . S
C7 C8 1.394 . S
C7 C26 1.723 . S
C8 C5 1.396 . S
C8 C7 1.394 . S
C8 C38 1.723 . S
H9 C32 0.947 . S
H10 C33 0.948 . S
H11 C39 0.982 . S
H12 C40 0.979 . S
H13 C40 0.980 . S
H14 C40 0.983 . S
H15 C39 0.979 . S
H16 C39 0.977 . S
C17 C5 1.453 . S
C17 H46 0.982 . S
C17 H47 0.979 . S
C17 H48 0.977 . S
C18 C5 1.684 . S
C18 H43 0.979 . S
C18 H44 0.980 . S
C18 H45 0.983 . S
C19 C20 1.391 . S
C19 C24 1.391 . S
C19 H49 0.948 . S
C20 C19 1.391 . S
C20 C21 1.391 . S
C21 C20 1.391 . S
C21 C22 1.392 . S
C21 H50 0.947 1_554 S
C22 C21 1.392 . S
C22 C23 1.419 . S
C22 H51 0.948 . S
C23 C22 1.419 . S
C23 C24 1.391 . S
C23 C27 1.397 . S
C24 C19 1.391 . S
C24 C23 1.391 . S
C24 C25 1.399 . S
C25 C24 1.399 . S
C25 C26 1.396 . S
C25 C28 1.453 . S
C25 C29 1.684 . S
C26 C7 1.723 . S
C26 C25 1.396 . S
C26 C27 1.394 . S
C27 C23 1.397 . S
C27 C26 1.394 . S
C27 C37 1.723 . S
C28 C25 1.453 . S
C28 H52 0.982 . S
C28 H53 0.979 . S
C28 H54 0.977 . S
C29 C25 1.684 . S
C29 H55 0.979 . S
C29 H56 0.980 . S
C29 H57 0.983 . S
C30 H6 0.948 . S
C30 C31 1.391 . S
C30 C35 1.391 . S
C31 C30 1.391 . S
C31 C32 1.391 . S
C32 H9 0.947 . S
C32 C31 1.391 . S
C32 C33 1.392 . S
C33 H10 0.948 . S
C33 C32 1.392 . S
C33 C34 1.419 . S
C34 C33 1.419 . S
C34 C35 1.391 . S
C34 C38 1.397 . S
C35 C30 1.391 . S
C35 C34 1.391 . S
C35 C36 1.399 . S
C36 C35 1.399 . S
C36 C37 1.396 . S
C36 C39 1.453 . S
C36 C40 1.684 . S
C37 C27 1.723 . S
C37 C36 1.396 . S
C37 C38 1.394 . S
C38 C8 1.723 . S
C38 C34 1.397 . S
C38 C37 1.394 . S
C39 H11 0.982 . S
C39 H15 0.979 . S
C39 H16 0.977 . S
C39 C36 1.453 . S
C40 H12 0.979 . S
C40 H13 0.980 . S
C40 H14 0.983 . S
C40 C36 1.684 . S
H41 C59 0.948 . S
H42 C0 0.948 . S
H43 C18 0.979 . S
H44 C18 0.980 . S
H45 C18 0.983 . S
H46 C17 0.982 . S
H47 C17 0.979 . S
H48 C17 0.977 . S
H49 C19 0.948 . S
H50 C21 0.947 1_556 S
H51 C22 0.948 . S
H52 C28 0.982 . S
H53 C28 0.979 . S
H54 C28 0.977 . S
H55 C29 0.979 . S
H56 C29 0.980 . S
H57 C29 0.983 . S
H58 C2 0.947 . S
C59 C2 1.392 . S
C59 C3 1.419 . S
C59 H41 0.948 . S
C60 C61 1.391 . S
C60 C64 1.391 . S
C60 H102 0.948 . S
C61 C60 1.391 . S
C61 C62 1.391 . S
C62 C61 1.391 . S
C62 H118 0.947 . S
C62 C119 1.392 . S
C63 C64 1.391 . S
C63 C67 1.397 . S
C63 C119 1.419 . S
C64 C60 1.391 . S
C64 C63 1.391 . S
C64 C65 1.399 . S
C65 C64 1.399 . S
C65 C68 1.396 . S
C65 C77 1.453 . S
C65 C78 1.684 . S
H66 C90 0.948 . S
C67 C63 1.397 . S
C67 C68 1.394 . S
C67 C86 1.723 . S
C68 C65 1.396 . S
C68 C67 1.394 . S
C68 C98 1.723 . S
H69 C92 0.947 . S
H70 C93 0.948 . S
H71 C99 0.982 1_455 S
H72 C100 0.979 . S
H73 C100 0.980 . S
H74 C100 0.983 . S
H75 C99 0.979 . S
H76 C99 0.977 . S
C77 C65 1.453 . S
C77 H106 0.982 1_655 S
C77 H107 0.979 . S
C77 H108 0.977 . S
C78 C65 1.684 . S
C78 H103 0.979 . S
C78 H104 0.980 . S
C78 H105 0.983 . S
C79 C80 1.391 . S
C79 C84 1.391 . S
C79 H109 0.948 . S
C80 C79 1.391 . S
C80 C81 1.391 . S
C81 C80 1.391 . S
C81 C82 1.392 . S
C81 H110 0.947 . S
C82 C81 1.392 . S
C82 C83 1.419 . S
C82 H111 0.948 . S
C83 C82 1.419 . S
C83 C84 1.391 . S
C83 C87 1.397 . S
C84 C79 1.391 . S
C84 C83 1.391 . S
C84 C85 1.399 . S
C85 C84 1.399 . S
C85 C86 1.396 . S
C85 C88 1.453 . S
C85 C89 1.684 . S
C86 C67 1.723 . S
C86 C85 1.396 . S
C86 C87 1.394 . S
C87 C83 1.397 . S
C87 C86 1.394 . S
C87 C97 1.723 . S
C88 C85 1.453 . S
C88 H112 0.982 1_655 S
C88 H113 0.979 . S
C88 H114 0.977 . S
C89 C85 1.684 . S
C89 H115 0.979 . S
C89 H116 0.980 . S
C89 H117 0.983 . S
C90 H66 0.948 . S
C90 C91 1.391 . S
C90 C95 1.391 . S
C91 C90 1.391 . S
C91 C92 1.391 . S
C92 H69 0.947 . S
C92 C91 1.391 . S
C92 C93 1.392 . S
C93 H70 0.948 . S
C93 C92 1.392 . S
C93 C94 1.419 . S
C94 C93 1.419 . S
C94 C95 1.391 . S
C94 C98 1.397 . S
C95 C90 1.391 . S
C95 C94 1.391 . S
C95 C96 1.399 . S
C96 C95 1.399 . S
C96 C97 1.396 . S
C96 C99 1.453 . S
C96 C100 1.684 . S
C97 C87 1.723 . S
C97 C96 1.396 . S
C97 C98 1.394 . S
C98 C68 1.723 . S
C98 C94 1.397 . S
C98 C97 1.394 . S
C99 H71 0.982 1_655 S
C99 H75 0.979 . S
C99 H76 0.977 . S
C99 C96 1.453 . S
C100 H72 0.979 . S
C100 H73 0.980 . S
C100 H74 0.983 . S
C100 C96 1.684 . S
H101 C119 0.948 . S
H102 C60 0.948 . S
H103 C78 0.979 . S
H104 C78 0.980 . S
H105 C78 0.983 . S
H106 C77 0.982 1_455 S
H107 C77 0.979 . S
H108 C77 0.977 . S
H109 C79 0.948 . S
H110 C81 0.947 . S
H111 C82 0.948 . S
H112 C88 0.982 1_455 S
H113 C88 0.979 . S
H114 C88 0.977 . S
H115 C89 0.979 . S
H116 C89 0.980 . S
H117 C89 0.983 . S
H118 C62 0.947 . S
C119 C62 1.392 . S
C119 C63 1.419 . S
C119 H101 0.948 . S
C120 C121 1.391 . S
C120 C124 1.391 . S
C120 H162 0.948 . S
C121 C120 1.391 . S
C121 C122 1.391 . S
C122 C121 1.391 . S
C122 H178 0.947 . S
C122 C179 1.392 . S
C123 C124 1.391 . S
C123 C127 1.397 . S
C123 C179 1.419 . S
C124 C120 1.391 . S
C124 C123 1.391 . S
C124 C125 1.399 . S
C125 C124 1.399 . S
C125 C128 1.396 . S
C125 C137 1.453 . S
C125 C138 1.684 . S
H126 C150 0.948 . S
C127 C123 1.397 . S
C127 C128 1.394 . S
C127 C146 1.723 . S
C128 C125 1.396 . S
C128 C127 1.394 . S
C128 C158 1.723 . S
H129 C152 0.947 . S
H130 C153 0.948 . S
H131 C159 0.982 1_545 S
H132 C160 0.979 . S
H133 C160 0.980 . S
H134 C160 0.983 . S
H135 C159 0.979 . S
H136 C159 0.977 . S
C137 C125 1.453 . S
C137 H166 0.982 1_565 S
C137 H167 0.979 . S
C137 H168 0.977 . S
C138 C125 1.684 . S
C138 H163 0.979 . S
C138 H164 0.980 . S
C138 H165 0.983 . S
C139 C140 1.391 . S
C139 C144 1.391 . S
C139 H169 0.948 . S
C140 C139 1.391 . S
C140 C141 1.391 . S
C141 C140 1.391 . S
C141 C142 1.392 . S
C141 H170 0.947 . S
C142 C141 1.392 . S
C142 C143 1.419 . S
C142 H171 0.948 . S
C143 C142 1.419 . S
C143 C144 1.391 . S
C143 C147 1.397 . S
C144 C139 1.391 . S
C144 C143 1.391 . S
C144 C145 1.399 . S
C145 C144 1.399 . S
C145 C146 1.396 . S
C145 C148 1.453 . S
C145 C149 1.684 . S
C146 C127 1.723 . S
C146 C145 1.396 . S
C146 C147 1.394 . S
C147 C143 1.397 . S
C147 C146 1.394 . S
C147 C157 1.723 . S
C148 C145 1.453 . S
C148 H172 0.982 1_565 S
C148 H173 0.979 . S
C148 H174 0.977 . S
C149 C145 1.684 . S
C149 H175 0.979 . S
C149 H176 0.980 . S
C149 H177 0.983 . S
C150 H126 0.948 . S
C150 C151 1.391 . S
C150 C155 1.391 . S
C151 C150 1.391 . S
C151 C152 1.391 . S
C152 H129 0.947 . S
C152 C151 1.391 . S
C152 C153 1.392 . S
C153 H130 0.948 . S
C153 C152 1.392 . S
C153 C154 1.419 . S
C154 C153 1.419 . S
C154 C155 1.391 . S
C154 C158 1.397 . S
C155 C150 1.391 . S
C155 C154 1.391 . S
C155 C156 1.399 . S
C156 C155 1.399 . S
C156 C157 1.396 . S
C156 C159 1.453 . S
C156 C160 1.684 . S
C157 C147 1.723 . S
C157 C156 1.396 . S
C157 C158 1.394 . S
C158 C128 1.723 . S
C158 C154 1.397 . S
C158 C157 1.394 . S
C159 H131 0.982 1_565 S
C159 H135 0.979 . S
C159 H136 0.977 . S
C159 C156 1.453 . S
C160 H132 0.979 . S
C160 H133 0.980 . S
C160 H134 0.983 . S
C160 C156 1.684 . S
H161 C179 0.948 . S
H162 C120 0.948 . S
H163 C138 0.979 . S
H164 C138 0.980 . S
H165 C138 0.983 . S
H166 C137 0.982 1_545 S
H167 C137 0.979 . S
H168 C137 0.977 . S
H169 C139 0.948 . S
H170 C141 0.947 . S
H171 C142 0.948 . S
H172 C148 0.982 1_545 S
H173 C148 0.979 . S
H174 C148 0.977 . S
H175 C149 0.979 . S
H176 C149 0.980 . S
H177 C149 0.983 . S
H178 C122 0.947 . S
C179 C122 1.392 . S
C179 C123 1.419 . S
C179 H161 0.948 . S
C180 C181 1.391 . S
C180 C184 1.391 . S
C180 H222 0.948 . S
C181 C180 1.391 . S
C181 C182 1.391 . S
C182 C181 1.391 . S
C182 H238 0.947 . S
C182 C239 1.392 . S
C183 C184 1.391 . S
C183 C187 1.397 . S
C183 C239 1.419 . S
C184 C180 1.391 . S
C184 C183 1.391 . S
C184 C185 1.399 . S
C185 C184 1.399 . S
C185 C188 1.396 . S
C185 C197 1.453 . S
C185 C198 1.684 . S
H186 C210 0.948 . S
C187 C183 1.397 . S
C187 C188 1.394 . S
C187 C206 1.723 . S
C188 C185 1.396 . S
C188 C187 1.394 . S
C188 C218 1.723 . S
H189 C212 0.947 . S
H190 C213 0.948 . S
H191 C219 0.982 . S
H192 C220 0.979 . S
H193 C220 0.980 . S
H194 C220 0.983 . S
H195 C219 0.979 . S
H196 C219 0.977 . S
C197 C185 1.453 . S
C197 H226 0.982 . S
C197 H227 0.979 . S
C197 H228 0.977 . S
C198 C185 1.684 . S
C198 H223 0.979 . S
C198 H224 0.980 . S
C198 H225 0.983 . S
C199 C200 1.391 . S
C199 C204 1.391 . S
C199 H229 0.948 . S
C200 C199 1.391 . S
C200 C201 1.391 . S
C201 C200 1.391 . S
C201 C202 1.392 . S
C201 H230 0.947 1_554 S
C202 C201 1.392 . S
C202 C203 1.419 . S
C202 H231 0.948 . S
C203 C202 1.419 . S
C203 C204 1.391 . S
C203 C207 1.397 . S
C204 C199 1.391 . S
C204 C203 1.391 . S
C204 C205 1.399 . S
C205 C204 1.399 . S
C205 C206 1.396 . S
C205 C208 1.453 . S
C205 C209 1.684 . S
C206 C187 1.723 . S
C206 C205 1.396 . S
C206 C207 1.394 . S
C207 C203 1.397 . S
C207 C206 1.394 . S
C207 C217 1.723 . S
C208 C205 1.453 . S
C208 H232 0.982 . S
C208 H233 0.979 . S
C208 H234 0.977 . S
C209 C205 1.684 . S
C209 H235 0.979 . S
C209 H236 0.980 . S
C209 H237 0.983 . S
C210 H186 0.948 . S
C210 C211 1.391 . S
C210 C215 1.391 . S
C211 C210 1.391 . S
C211 C212 1.391 . S
C212 H189 0.947 . S
C212 C211 1.391 . S
C212 C213 1.392 . S
C213 H190 0.948 . S
C213 C212 1.392 . S
C213 C214 1.419 . S
C214 C213 1.419 . S
C214 C215 1.391 . S
C214 C218 1.397 . S
C215 C210 1.391 . S
C215 C214 1.391 . S
C215 C216 1.399 . S
C216 C215 1.399 . S
C216 C217 1.396 . S
C216 C219 1.453 . S
C216 C220 1.684 . S
C217 C207 1.723 . S
C217 C216 1.396 . S
C217 C218 1.394 . S
C218 C188 1.723 . S
C218 C214 1.397 . S
C218 C217 1.394 . S
C219 H191 0.982 . S
C219 H195 0.979 . S
C219 H196 0.977 . S
C219 C216 1.453 . S
C220 H192 0.979 . S
C220 H193 0.980 . S
C220 H194 0.983 . S
C220 C216 1.684 . S
H221 C239 0.948 . S
H222 C180 0.948 . S
H223 C198 0.979 . S
H224 C198 0.980 . S
H225 C198 0.983 . S
H226 C197 0.982 . S
H227 C197 0.979 . S
H228 C197 0.977 . S
H229 C199 0.948 . S
H230 C201 0.947 1_556 S
H231 C202 0.948 . S
H232 C208 0.982 . S
H233 C208 0.979 . S
H234 C208 0.977 . S
H235 C209 0.979 . S
H236 C209 0.980 . S
H237 C209 0.983 . S
H238 C182 0.947 . S
C239 C182 1.392 . S
C239 C183 1.419 . S
C239 H221 0.948 . S
C240 C241 1.391 . S
C240 C244 1.391 . S
C240 H282 0.948 . S
C241 C240 1.391 . S
C241 C242 1.391 . S
C242 C241 1.391 . S
C242 H298 0.947 . S
C242 C299 1.392 . S
C243 C244 1.391 . S
C243 C247 1.397 . S
C243 C299 1.419 . S
C244 C240 1.391 . S
C244 C243 1.391 . S
C244 C245 1.399 1_554 S
C245 C244 1.399 1_556 S
C245 C248 1.396 . S
C245 C257 1.453 . S
C245 C258 1.684 . S
H246 C270 0.948 . S
C247 C243 1.397 . S
C247 C248 1.394 1_554 S
C247 C266 1.723 . S
C248 C245 1.396 . S
C248 C247 1.394 1_556 S
C248 C278 1.723 . S
H249 C272 0.947 . S
H250 C273 0.948 . S
H251 C279 0.982 . S
H252 C280 0.979 . S
H253 C280 0.980 . S
H254 C280 0.983 . S
H255 C279 0.979 . S
H256 C279 0.973 1_554 S
C257 C245 1.453 . S
C257 H286 0.982 . S
C257 H287 0.979 . S
C257 H288 0.977 . S
C258 C245 1.684 . S
C258 H283 0.979 . S
C258 H284 0.980 . S
C258 H285 0.983 . S
C259 C260 1.391 . S
C259 C264 1.391 . S
C259 H289 0.948 . S
C260 C259 1.391 . S
C260 C261 1.391 . S
C261 C260 1.391 . S
C261 C262 1.392 . S
C261 H290 0.947 . S
C262 C261 1.392 . S
C262 C263 1.419 . S
C262 H291 0.948 . S
C263 C262 1.419 . S
C263 C264 1.391 . S
C263 C267 1.397 . S
C264 C259 1.391 . S
C264 C263 1.391 . S
C264 C265 1.399 . S
C265 C264 1.399 . S
C265 C266 1.396 . S
C265 C268 1.453 . S
C265 C269 1.684 . S
C266 C247 1.723 . S
C266 C265 1.396 . S
C266 C267 1.394 . S
C267 C263 1.397 . S
C267 C266 1.394 . S
C267 C277 1.723 1_554 S
C268 C265 1.453 . S
C268 H292 0.982 . S
C268 H293 0.979 . S
C268 H294 0.977 . S
C269 C265 1.684 . S
C269 H295 0.979 . S
C269 H296 0.980 . S
C269 H297 0.983 . S
C270 H246 0.948 . S
C270 C271 1.391 . S
C270 C275 1.391 . S
C271 C270 1.391 . S
C271 C272 1.391 . S
C272 H249 0.947 . S
C272 C271 1.391 . S
C272 C273 1.392 . S
C273 H250 0.948 . S
C273 C272 1.392 . S
C273 C274 1.419 . S
C274 C273 1.419 . S
C274 C275 1.391 . S
C274 C278 1.397 . S
C275 C270 1.391 . S
C275 C274 1.391 . S
C275 C276 1.399 . S
C276 C275 1.399 . S
C276 C277 1.396 . S
C276 C279 1.453 . S
C276 C280 1.684 . S
C277 C267 1.723 1_556 S
C277 C276 1.396 . S
C277 C278 1.394 . S
C278 C248 1.723 . S
C278 C274 1.397 . S
C278 C277 1.394 . S
C279 H251 0.982 . S
C279 H255 0.979 . S
C279 H256 0.973 1_556 S
C279 C276 1.453 . S
C280 H252 0.979 . S
C280 H253 0.980 . S
C280 H254 0.983 . S
C280 C276 1.684 . S
H281 C299 0.948 . S
H282 C240 0.948 . S
H283 C258 0.979 . S
H284 C258 0.980 . S
H285 C258 0.983 . S
H286 C257 0.982 . S
H287 C257 0.979 . S
H288 C257 0.977 . S
H289 C259 0.948 . S
H290 C261 0.947 . S
H291 C262 0.948 . S
H292 C268 0.982 . S
H293 C268 0.979 . S
H294 C268 0.977 . S
H295 C269 0.979 . S
H296 C269 0.980 . S
H297 C269 0.983 . S
H298 C242 0.947 . S
C299 C242 1.392 . S
C299 C243 1.419 . S
C299 H281 0.948 . S
C300 C301 1.391 . S
C300 C304 1.391 . S
C300 H342 0.948 . S
C301 C300 1.391 . S
C301 C302 1.391 . S
C302 C301 1.391 . S
C302 H358 0.947 . S
C302 C359 1.392 . S
C303 C304 1.391 . S
C303 C307 1.397 . S
C303 C359 1.419 . S
C304 C300 1.391 . S
C304 C303 1.391 . S
C304 C305 1.399 . S
C305 C304 1.399 . S
C305 C308 1.396 . S
C305 C317 1.453 . S
C305 C318 1.684 . S
H306 C330 0.948 . S
C307 C303 1.397 . S
C307 C308 1.394 . S
C307 C326 1.723 1_554 S
C308 C305 1.396 . S
C308 C307 1.394 . S
C308 C338 1.723 . S
H309 C332 0.947 . S
H310 C333 0.948 . S
H311 C339 0.982 . S
H312 C340 0.979 1_655 S
H313 C340 0.980 . S
H314 C340 0.983 . S
H315 C339 0.979 . S
H316 C339 0.977 . S
C317 C305 1.453 . S
C317 H346 0.982 . S
C317 H347 0.979 . S
C317 H348 0.977 . S
C318 C305 1.684 . S
C318 H343 0.979 1_455 S
C318 H344 0.980 . S
C318 H345 0.983 . S
C319 C320 1.391 . S
C319 C324 1.391 . S
C319 H349 0.948 . S
C320 C319 1.391 . S
C320 C321 1.391 . S
C321 C320 1.391 . S
C321 C322 1.392 . S
C321 H350 0.947 . S
C322 C321 1.392 . S
C322 C323 1.419 . S
C322 H351 0.948 . S
C323 C322 1.419 . S
C323 C324 1.391 . S
C323 C327 1.397 . S
C324 C319 1.391 . S
C324 C323 1.391 . S
C324 C325 1.399 . S
C325 C324 1.399 . S
C325 C326 1.396 . S
C325 C328 1.453 . S
C325 C329 1.684 . S
C326 C307 1.723 1_556 S
C326 C325 1.396 . S
C326 C327 1.394 . S
C327 C323 1.397 . S
C327 C326 1.394 . S
C327 C337 1.723 . S
C328 C325 1.453 . S
C328 H352 0.982 . S
C328 H353 0.979 . S
C328 H354 0.977 1_556 S
C329 C325 1.684 . S
C329 H355 0.979 1_455 S
C329 H356 0.987 . S
C329 H357 0.983 . S
C330 H306 0.948 . S
C330 C331 1.391 . S
C330 C335 1.391 . S
C331 C330 1.391 . S
C331 C332 1.391 . S
C332 H309 0.947 . S
C332 C331 1.391 . S
C332 C333 1.392 . S
C333 H310 0.948 . S
C333 C332 1.392 . S
C333 C334 1.419 . S
C334 C333 1.419 . S
C334 C335 1.391 . S
C334 C338 1.397 . S
C335 C330 1.391 . S
C335 C334 1.391 . S
C335 C336 1.399 1_554 S
C336 C335 1.399 1_556 S
C336 C337 1.396 . S
C336 C339 1.453 . S
C336 C340 1.684 . S
C337 C327 1.723 . S
C337 C336 1.396 . S
C337 C338 1.394 1_556 S
C338 C308 1.723 . S
C338 C334 1.397 . S
C338 C337 1.394 1_554 S
C339 H311 0.982 . S
C339 H315 0.979 . S
C339 H316 0.977 . S
C339 C336 1.453 . S
C340 H312 0.979 1_455 S
C340 H313 0.980 . S
C340 H314 0.983 . S
C340 C336 1.684 . S
H341 C359 0.948 . S
H342 C300 0.948 . S
H343 C318 0.979 1_655 S
H344 C318 0.980 . S
H345 C318 0.983 . S
H346 C317 0.982 . S
H347 C317 0.979 . S
H348 C317 0.977 . S
H349 C319 0.948 . S
H350 C321 0.947 . S
H351 C322 0.948 . S
H352 C328 0.982 . S
H353 C328 0.979 . S
H354 C328 0.977 1_554 S
H355 C329 0.979 1_655 S
H356 C329 0.987 . S
H357 C329 0.983 . S
H358 C302 0.947 . S
C359 C302 1.392 . S
C359 C303 1.419 . S
C359 H341 0.948 . S
C360 C361 1.391 . S
C360 C364 1.391 . S
C360 H402 0.948 . S
C361 C360 1.391 . S
C361 C362 1.391 . S
C362 C361 1.391 . S
C362 H418 0.947 . S
C362 C419 1.392 . S
C363 C364 1.391 . S
C363 C367 1.397 . S
C363 C419 1.419 . S
C364 C360 1.391 . S
C364 C363 1.391 . S
C364 C365 1.399 . S
C365 C364 1.399 . S
C365 C368 1.396 . S
C365 C377 1.453 . S
C365 C378 1.684 . S
H366 C390 0.948 . S
C367 C363 1.397 . S
C367 C368 1.394 . S
C367 C386 1.723 1_556 S
C368 C365 1.396 . S
C368 C367 1.394 . S
C368 C398 1.723 1_556 S
H369 C392 0.947 1_556 S
H370 C393 0.940 1_556 S
H371 C399 0.982 . S
H372 C400 0.979 . S
H373 C400 0.980 . S
H374 C400 0.983 . S
H375 C399 0.979 . S
H376 C399 0.977 . S
C377 C365 1.453 . S
C377 H406 0.982 . S
C377 H407 0.979 . S
C377 H408 0.977 . S
C378 C365 1.684 . S
C378 H403 0.979 . S
C378 H404 0.980 . S
C378 H405 0.983 . S
C379 C380 1.391 . S
C379 C384 1.391 . S
C379 H409 0.948 . S
C380 C379 1.391 . S
C380 C381 1.391 . S
C381 C380 1.391 . S
C381 C382 1.392 . S
C381 H410 0.947 . S
C382 C381 1.392 . S
C382 C383 1.419 . S
C382 H411 0.948 . S
C383 C382 1.419 . S
C383 C384 1.391 . S
C383 C387 1.397 . S
C384 C379 1.391 . S
C384 C383 1.391 . S
C384 C385 1.399 . S
C385 C384 1.399 . S
C385 C386 1.396 . S
C385 C388 1.453 . S
C385 C389 1.684 . S
C386 C367 1.723 1_554 S
C386 C385 1.396 . S
C386 C387 1.394 . S
C387 C383 1.397 . S
C387 C386 1.394 . S
C387 C397 1.723 . S
C388 C385 1.453 . S
C388 H412 0.982 . S
C388 H413 0.979 . S
C388 H414 0.977 1_554 S
C389 C385 1.684 . S
C389 H415 0.979 . S
C389 H416 0.980 1_554 S
C389 H417 0.983 . S
C390 H366 0.948 . S
C390 C391 1.391 . S
C390 C395 1.391 . S
C391 C390 1.391 . S
C391 C392 1.391 . S
C392 H369 0.947 1_554 S
C392 C391 1.391 . S
C392 C393 1.394 . S
C393 H370 0.940 1_554 S
C393 C392 1.394 . S
C393 C394 1.424 . S
C394 C393 1.424 . S
C394 C395 1.391 . S
C394 C398 1.397 . S
C395 C390 1.391 . S
C395 C394 1.391 . S
C395 C396 1.399 . S
C396 C395 1.399 . S
C396 C397 1.396 . S
C396 C399 1.453 . S
C396 C400 1.684 . S
C397 C387 1.723 . S
C397 C396 1.396 . S
C397 C398 1.394 . S
C398 C368 1.723 1_554 S
C398 C394 1.397 . S
C398 C397 1.394 . S
C399 H371 0.982 . S
C399 H375 0.979 . S
C399 H376 0.977 . S
C399 C396 1.453 . S
C400 H372 0.979 . S
C400 H373 0.980 . S
C400 H374 0.983 . S
C400 C396 1.684 . S
H401 C419 0.948 . S
H402 C360 0.948 . S
H403 C378 0.979 . S
H404 C378 0.980 . S
H405 C378 0.983 . S
H406 C377 0.982 . S
H407 C377 0.979 . S
H408 C377 0.977 . S
H409 C379 0.948 . S
H410 C381 0.947 . S
H411 C382 0.948 . S
H412 C388 0.982 . S
H413 C388 0.979 . S
H414 C388 0.977 1_556 S
H415 C389 0.979 . S
H416 C389 0.980 1_556 S
H417 C389 0.983 . S
H418 C362 0.947 . S
C419 C362 1.392 . S
C419 C363 1.419 . S
C419 H401 0.948 . S
C420 C421 1.391 . S
C420 C424 1.391 . S
C420 H462 0.948 . S
C421 C420 1.391 . S
C421 C422 1.391 . S
C422 C421 1.391 . S
C422 H478 0.947 . S
C422 C479 1.392 . S
C423 C424 1.391 . S
C423 C427 1.397 . S
C423 C479 1.419 . S
C424 C420 1.391 . S
C424 C423 1.391 . S
C424 C425 1.399 . S
C425 C424 1.399 . S
C425 C428 1.396 . S
C425 C437 1.453 . S
C425 C438 1.684 . S
H426 C450 0.948 . S
C427 C423 1.397 . S
C427 C428 1.394 . S
C427 C446 1.723 1_556 S
C428 C425 1.396 . S
C428 C427 1.394 . S
C428 C458 1.723 1_556 S
H429 C452 0.947 1_556 S
H430 C453 0.948 . S
H431 C459 0.982 . S
H432 C460 0.979 . S
H433 C460 0.980 . S
H434 C460 0.983 . S
H435 C459 0.979 . S
H436 C459 0.977 . S
C437 C425 1.453 . S
C437 H466 0.982 . S
C437 H467 0.979 . S
C437 H468 0.977 . S
C438 C425 1.684 . S
C438 H463 0.979 . S
C438 H464 0.980 . S
C438 H465 0.983 . S
C439 C440 1.391 . S
C439 C444 1.391 . S
C439 H469 0.948 . S
C440 C439 1.391 . S
C440 C441 1.391 . S
C441 C440 1.391 . S
C441 C442 1.392 . S
C441 H470 0.947 . S
C442 C441 1.392 . S
C442 C443 1.419 . S
C442 H471 0.948 . S
C443 C442 1.419 . S
C443 C444 1.391 . S
C443 C447 1.397 . S
C444 C439 1.391 . S
C444 C443 1.391 . S
C444 C445 1.399 . S
C445 C444 1.399 . S
C445 C446 1.396 . S
C445 C448 1.453 . S
C445 C449 1.684 . S
C446 C427 1.723 1_554 S
C446 C445 1.396 . S
C446 C447 1.394 . S
C447 C443 1.397 . S
C447 C446 1.394 . S
C447 C457 1.723 . S
C448 C445 1.453 . S
C448 H472 0.982 . S
C448 H473 0.979 . S
C448 H474 0.977 1_554 S
C449 C445 1.684 . S
C449 H475 0.979 . S
C449 H476 0.980 1_554 S
C449 H477 0.983 . S
C450 H426 0.948 . S
C450 C451 1.391 . S
C450 C455 1.391 . S
C451 C450 1.391 . S
C451 C452 1.391 . S
C452 H429 0.947 1_554 S
C452 C451 1.391 . S
C452 C453 1.392 1_554 S
C453 H430 0.948 . S
C453 C452 1.392 1_556 S
C453 C454 1.419 1_556 S
C454 C453 1.419 1_554 S
C454 C455 1.391 . S
C454 C458 1.397 . S
C455 C450 1.391 . S
C455 C454 1.391 . S
C455 C456 1.399 . S
C456 C455 1.399 . S
C456 C457 1.396 . S
C456 C459 1.453 . S
C456 C460 1.684 . S
C457 C447 1.723 . S
C457 C456 1.396 . S
C457 C458 1.394 . S
C458 C428 1.723 1_554 S
C458 C454 1.397 . S
C458 C457 1.394 . S
C459 H431 0.982 . S
C459 H435 0.979 . S
C459 H436 0.977 . S
C459 C456 1.453 . S
C460 H432 0.979 . S
C460 H433 0.980 . S
C460 H434 0.983 . S
C460 C456 1.684 . S
H461 C479 0.948 . S
H462 C420 0.948 . S
H463 C438 0.979 . S
H464 C438 0.980 . S
H465 C438 0.983 . S
H466 C437 0.982 . S
H467 C437 0.979 . S
H468 C437 0.977 . S
H469 C439 0.948 . S
H470 C441 0.947 . S
H471 C442 0.948 . S
H472 C448 0.982 . S
H473 C448 0.979 . S
H474 C448 0.977 1_556 S
H475 C449 0.979 . S
H476 C449 0.980 1_556 S
H477 C449 0.983 . S
H478 C422 0.947 . S
C479 C422 1.392 . S
C479 C423 1.419 . S
C479 H461 0.948 . S
C480 C482 1.422 . S
C480 C484 1.415 . S
C480 N486 1.369 . S
C481 C482 1.421 . S
C481 C483 1.415 1_556 S
C481 C493 1.422 1_556 S
C482 C480 1.422 . S
C482 C481 1.421 . S
C482 N492 1.359 . S
C483 C481 1.415 1_554 S
C483 C485 1.323 1_554 S
C483 H502 0.938 . S
C484 C480 1.415 . S
C484 C485 1.437 . S
C484 C488 1.413 . S
C485 C483 1.323 1_556 S
C485 C484 1.437 . S
C485 H507 0.929 . S
N486 C480 1.369 . S
N486 C487 1.338 1_545 S
N486 Gd491 2.622 1_545 S
C487 N486 1.338 1_565 S
C487 C489 1.378 1_565 S
C487 H499 0.929 . S
C488 C484 1.413 . S
C488 C489 1.348 . S
C488 H504 0.931 . S
C489 C487 1.378 1_545 S
C489 C488 1.348 . S
C489 H505 0.930 . S
Gd490 N510 2.622 . S
Gd490 N517 2.570 . S
Gd490 O524 2.353 1_655 S
Gd490 O525 2.468 . S
Gd490 O526 2.427 . S
Gd490 O528 2.388 . S
Gd490 O529 2.386 1_545 S
Gd490 O533 2.307 1_655 S
Gd490 C543 2.805 . S
Gd491 N486 2.622 1_565 S
Gd491 N492 2.570 1_565 S
Gd491 O523 2.386 1_565 S
Gd491 O527 2.306 1_465 S
Gd491 O530 2.353 . S
Gd491 O531 2.468 . S
Gd491 O532 2.427 . S
Gd491 O534 2.388 . S
Gd491 C555 2.805 . S
N492 C482 1.359 . S
N492 Gd491 2.570 1_545 S
N492 C494 1.343 . S
C493 C481 1.422 1_554 S
C493 C495 1.321 . S
C493 H501 0.931 . S
C494 N492 1.343 . S
C494 C495 1.390 1_556 S
C494 H496 0.931 . S
C495 C493 1.321 . S
C495 C494 1.390 1_554 S
C495 H497 0.930 . S
H496 C494 0.931 . S
H497 C495 0.930 . S
H498 C521 0.931 1_455 S
H499 C487 0.929 . S
H500 C522 0.930 1_455 S
H501 C493 0.931 . S
H502 C483 0.938 . S
H503 C512 0.929 . S
H504 C488 0.931 . S
H505 C489 0.930 . S
H506 C544 0.930 . S
H507 C485 0.929 . S
H508 C513 0.931 . S
H509 C514 0.930 . S
N510 Gd490 2.622 . S
N510 C511 1.356 1_545 S
N510 C512 1.338 . S
C511 N510 1.356 1_565 S
C511 C515 1.426 . S
C511 C518 1.426 . S
C512 H503 0.929 . S
C512 N510 1.338 . S
C512 C514 1.378 . S
C513 H508 0.931 . S
C513 C514 1.348 1_565 S
C513 C515 1.413 . S
C514 H509 0.930 . S
C514 C512 1.378 . S
C514 C513 1.348 1_545 S
C515 C511 1.426 . S
C515 C513 1.413 . S
C515 C545 1.437 . S
H516 C545 0.929 . S
N517 Gd490 2.570 . S
N517 C518 1.359 1_545 S
N517 C521 1.343 . S
C518 C511 1.426 . S
C518 N517 1.359 1_565 S
C518 C520 1.421 . S
C519 C520 1.422 . S
C519 C522 1.321 . S
C519 H546 0.931 . S
C520 C518 1.421 . S
C520 C519 1.422 . S
C520 C544 1.417 . S
C521 H498 0.931 1_655 S
C521 N517 1.343 . S
C521 C522 1.390 1_545 S
C522 H500 0.930 1_655 S
C522 C519 1.321 . S
C522 C521 1.390 1_565 S
O523 Gd491 2.386 1_545 S
O523 C535 1.265 . S
O524 Gd490 2.353 1_455 S
O524 C535 1.242 . S
O525 Gd490 2.468 . S
O525 C543 1.263 . S
O526 Gd490 2.427 . S
O526 C543 1.252 . S
O527 Gd491 2.306 1_645 S
O527 C536 1.262 . S
O528 Gd490 2.388 . S
O528 C536 1.252 . S
O529 Gd490 2.386 1_565 S
O529 C547 1.265 . S
O530 Gd491 2.353 . S
O530 C547 1.242 1_455 S
O531 Gd491 2.468 . S
O531 C555 1.263 . S
O532 Gd491 2.427 . S
O532 C555 1.252 . S
O533 Gd490 2.307 1_455 S
O533 C548 1.261 . S
O534 Gd491 2.388 . S
O534 C548 1.252 1_565 S
C535 O523 1.265 . S
C535 O524 1.242 . S
C536 O527 1.262 . S
C536 O528 1.252 . S
C537 C540 1.394 . S
C537 C542 1.370 . S
C537 C543 1.500 . S
C538 C541 1.383 . S
C538 C542 1.395 . S
C539 C540 1.396 . S
C539 C541 1.365 . S
C539 H556 0.929 . S
C540 C537 1.394 . S
C540 C539 1.396 . S
C540 H557 0.930 . S
C541 C538 1.383 . S
C541 C539 1.365 . S
C541 H558 0.931 . S
C542 C537 1.370 . S
C542 C538 1.395 . S
C542 H559 0.930 1_655 S
C543 Gd490 2.805 . S
C543 O525 1.263 . S
C543 O526 1.252 . S
C543 C537 1.500 . S
C544 H506 0.930 . S
C544 C520 1.417 . S
C544 C545 1.329 . S
C545 C515 1.437 . S
C545 H516 0.929 . S
C545 C544 1.329 . S
H546 C519 0.931 . S
C547 O529 1.265 . S
C547 O530 1.242 1_655 S
C548 O533 1.261 . S
C548 O534 1.252 1_545 S
C549 C552 1.394 . S
C549 C554 1.370 . S
C549 C555 1.500 . S
C550 C553 1.383 . S
C550 C554 1.395 . S
C551 C552 1.396 . S
C551 C553 1.365 . S
C551 H560 0.929 . S
C552 C549 1.394 . S
C552 C551 1.396 . S
C552 H561 0.930 . S
C553 C550 1.383 . S
C553 C551 1.365 . S
C553 H562 0.931 . S
C554 C549 1.370 . S
C554 C550 1.395 . S
C554 H563 0.930 . S
C555 Gd491 2.805 . S
C555 O531 1.263 . S
C555 O532 1.252 . S
C555 C549 1.500 . S
H556 C539 0.929 . S
H557 C540 0.930 . S
H558 C541 0.931 . S
H559 C542 0.930 1_455 S
H560 C551 0.929 . S
H561 C552 0.930 . S
H562 C553 0.931 . S
H563 C554 0.930 . S
C564 C566 1.422 . S
C564 C568 1.415 . S
C564 N570 1.369 . S
C565 C566 1.421 . S
C565 C567 1.417 . S
C565 C577 1.422 . S
C566 C564 1.422 . S
C566 C565 1.421 . S
C566 N576 1.359 . S
C567 C565 1.417 . S
C567 C569 1.329 . S
C567 H586 0.930 . S
C568 C564 1.415 . S
C568 C569 1.437 . S
C568 C572 1.413 . S
C569 C567 1.329 . S
C569 C568 1.437 . S
C569 H591 0.929 . S
N570 C564 1.369 . S
N570 C571 1.338 . S
N570 Gd575 2.622 . S
C571 N570 1.338 . S
C571 C573 1.378 . S
C571 H583 0.929 . S
C572 C568 1.413 . S
C572 C573 1.348 . S
C572 H588 0.931 . S
C573 C571 1.378 . S
C573 C572 1.348 . S
C573 H589 0.930 . S
Gd574 N594 2.622 . S
Gd574 N601 2.570 . S
Gd574 O608 2.353 1_545 S
Gd574 O609 2.468 . S
Gd574 O610 2.427 . S
Gd574 O612 2.388 . S
Gd574 O613 2.386 . S
Gd574 O617 2.307 . S
Gd574 C627 2.805 . S
Gd575 N570 2.622 . S
Gd575 N576 2.570 . S
Gd575 O607 2.386 . S
Gd575 O611 2.307 1_565 S
Gd575 O614 2.353 1_565 S
Gd575 O615 2.468 . S
Gd575 O616 2.427 . S
Gd575 O618 2.388 . S
Gd575 C639 2.805 . S
N576 C566 1.359 . S
N576 Gd575 2.570 . S
N576 C578 1.343 . S
C577 C565 1.422 . S
C577 C579 1.321 . S
C577 H585 0.931 . S
C578 N576 1.343 . S
C578 C579 1.390 . S
C578 H580 0.931 . S
C579 C577 1.321 . S
C579 C578 1.390 . S
C579 H581 0.930 . S
H580 C578 0.931 . S
H581 C579 0.930 . S
H582 C605 0.931 . S
H583 C571 0.929 . S
H584 C606 0.930 . S
H585 C577 0.931 . S
H586 C567 0.930 . S
H587 C596 0.929 . S
H588 C572 0.931 . S
H589 C573 0.930 . S
H590 C628 0.930 . S
H591 C569 0.929 . S
H592 C597 0.931 . S
H593 C598 0.930 . S
N594 Gd574 2.622 . S
N594 C595 1.369 . S
N594 C596 1.338 . S
C595 N594 1.369 . S
C595 C599 1.415 . S
C595 C602 1.422 . S
C596 H587 0.929 . S
C596 N594 1.338 . S
C596 C598 1.378 . S
C597 H592 0.931 . S
C597 C598 1.348 . S
C597 C599 1.413 . S
C598 H593 0.930 . S
C598 C596 1.378 . S
C598 C597 1.348 . S
C599 C595 1.415 . S
C599 C597 1.413 . S
C599 C629 1.437 . S
H600 C629 0.929 . S
N601 Gd574 2.570 . S
N601 C602 1.359 . S
N601 C605 1.343 . S
C602 C595 1.422 . S
C602 N601 1.359 . S
C602 C604 1.421 . S
C603 C604 1.422 . S
C603 C606 1.321 . S
C603 H630 0.931 . S
C604 C602 1.421 . S
C604 C603 1.422 . S
C604 C628 1.417 . S
C605 H582 0.931 . S
C605 N601 1.343 . S
C605 C606 1.390 . S
C606 H584 0.930 . S
C606 C603 1.321 . S
C606 C605 1.390 . S
O607 Gd575 2.386 . S
O607 C619 1.265 . S
O608 Gd574 2.353 1_565 S
O608 C619 1.242 . S
O609 Gd574 2.468 . S
O609 C627 1.263 . S
O610 Gd574 2.427 . S
O610 C627 1.252 . S
O611 Gd575 2.307 1_545 S
O611 C620 1.261 . S
O612 Gd574 2.388 . S
O612 C620 1.252 . S
O613 Gd574 2.386 . S
O613 C631 1.265 . S
O614 Gd575 2.353 1_545 S
O614 C631 1.242 . S
O615 Gd575 2.468 . S
O615 C639 1.263 . S
O616 Gd575 2.427 . S
O616 C639 1.252 . S
O617 Gd574 2.307 . S
O617 C632 1.261 1_545 S
O618 Gd575 2.388 . S
O618 C632 1.252 . S
C619 O607 1.265 . S
C619 O608 1.242 . S
C620 O611 1.261 . S
C620 O612 1.252 . S
C621 C624 1.394 1_556 S
C621 C626 1.370 . S
C621 C627 1.500 . S
C622 C625 1.383 1_556 S
C622 C626 1.395 . S
C623 C624 1.396 . S
C623 C625 1.365 . S
C623 H640 0.929 . S
C624 C621 1.394 1_554 S
C624 C623 1.396 . S
C624 H641 0.930 . S
C625 C622 1.383 1_554 S
C625 C623 1.365 . S
C625 H642 0.931 . S
C626 C621 1.370 . S
C626 C622 1.395 . S
C626 H643 0.930 . S
C627 Gd574 2.805 . S
C627 O609 1.263 . S
C627 O610 1.252 . S
C627 C621 1.500 . S
C628 H590 0.930 . S
C628 C604 1.417 . S
C628 C629 1.329 . S
C629 C599 1.437 . S
C629 H600 0.929 . S
C629 C628 1.329 . S
H630 C603 0.931 . S
C631 O613 1.265 . S
C631 O614 1.242 . S
C632 O617 1.261 1_565 S
C632 O618 1.252 . S
C633 C636 1.394 . S
C633 C638 1.370 . S
C633 C639 1.500 . S
C634 C637 1.383 . S
C634 C638 1.395 . S
C635 C636 1.396 . S
C635 C637 1.365 . S
C635 H644 0.929 . S
C636 C633 1.394 . S
C636 C635 1.396 . S
C636 H645 0.930 . S
C637 C634 1.383 . S
C637 C635 1.365 . S
C637 H646 0.931 . S
C638 C633 1.370 . S
C638 C634 1.395 . S
C638 H647 0.930 . S
C639 Gd575 2.805 . S
C639 O615 1.263 . S
C639 O616 1.252 . S
C639 C633 1.500 . S
H640 C623 0.929 . S
H641 C624 0.930 . S
H642 C625 0.931 . S
H643 C626 0.930 . S
H644 C635 0.929 . S
H645 C636 0.930 . S
H646 C637 0.931 . S
H647 C638 0.930 . S
C648 C650 1.422 . S
C648 C652 1.415 . S
C648 N654 1.369 . S
C649 C650 1.421 . S
C649 C651 1.417 1_556 S
C649 C661 1.422 1_556 S
C650 C648 1.422 . S
C650 C649 1.421 . S
C650 N660 1.359 . S
C651 C649 1.417 1_554 S
C651 C653 1.326 1_554 S
C651 H670 0.933 . S
C652 C648 1.415 . S
C652 C653 1.437 . S
C652 C656 1.413 . S
C653 C651 1.326 1_556 S
C653 C652 1.437 . S
C653 H675 0.929 . S
N654 C648 1.369 . S
N654 C655 1.338 . S
N654 Gd659 2.622 . S
C655 N654 1.338 . S
C655 C657 1.378 . S
C655 H667 0.929 . S
C656 C652 1.413 . S
C656 C657 1.348 . S
C656 H672 0.931 . S
C657 C655 1.378 . S
C657 C656 1.348 . S
C657 H673 0.930 . S
Gd658 N678 2.622 . S
Gd658 N685 2.570 . S
Gd658 O692 2.353 . S
Gd658 O693 2.468 . S
Gd658 O694 2.427 . S
Gd658 O696 2.388 . S
Gd658 O697 2.386 . S
Gd658 O701 2.307 . S
Gd658 C711 2.805 . S
Gd659 N654 2.622 . S
Gd659 N660 2.570 . S
Gd659 O691 2.386 . S
Gd659 O695 2.307 . S
Gd659 O698 2.353 . S
Gd659 O699 2.468 . S
Gd659 O700 2.427 . S
Gd659 O702 2.388 . S
Gd659 C723 2.805 . S
N660 C650 1.359 . S
N660 Gd659 2.570 . S
N660 C662 1.343 . S
C661 C649 1.422 1_554 S
C661 C663 1.321 . S
C661 H669 0.931 . S
C662 N660 1.343 . S
C662 C663 1.390 1_556 S
C662 H664 0.931 . S
C663 C661 1.321 . S
C663 C662 1.390 1_554 S
C663 H665 0.930 . S
H664 C662 0.931 . S
H665 C663 0.930 . S
H666 C689 0.931 . S
H667 C655 0.929 . S
H668 C690 0.930 . S
H669 C661 0.931 . S
H670 C651 0.933 . S
H671 C680 0.929 . S
H672 C656 0.931 . S
H673 C657 0.930 . S
H674 C712 0.930 . S
H675 C653 0.929 . S
H676 C681 0.931 . S
H677 C682 0.930 . S
N678 Gd658 2.622 . S
N678 C679 1.369 . S
N678 C680 1.338 . S
C679 N678 1.369 . S
C679 C683 1.415 . S
C679 C686 1.422 . S
C680 H671 0.929 . S
C680 N678 1.338 . S
C680 C682 1.378 . S
C681 H676 0.931 . S
C681 C682 1.348 . S
C681 C683 1.413 . S
C682 H677 0.930 . S
C682 C680 1.378 . S
C682 C681 1.348 . S
C683 C679 1.415 . S
C683 C681 1.413 . S
C683 C713 1.437 . S
H684 C713 0.929 . S
N685 Gd658 2.570 . S
N685 C686 1.359 . S
N685 C689 1.343 . S
C686 C679 1.422 . S
C686 N685 1.359 . S
C686 C688 1.421 . S
C687 C688 1.422 . S
C687 C690 1.321 . S
C687 H714 0.931 . S
C688 C686 1.421 . S
C688 C687 1.422 . S
C688 C712 1.417 . S
C689 H666 0.931 . S
C689 N685 1.343 . S
C689 C690 1.390 . S
C690 H668 0.930 . S
C690 C687 1.321 . S
C690 C689 1.390 . S
O691 Gd659 2.386 . S
O691 C703 1.265 . S
O692 Gd658 2.353 . S
O692 C703 1.242 . S
O693 Gd658 2.468 . S
O693 C711 1.263 . S
O694 Gd658 2.427 . S
O694 C711 1.252 . S
O695 Gd659 2.307 . S
O695 C704 1.261 . S
O696 Gd658 2.388 . S
O696 C704 1.252 . S
O697 Gd658 2.386 . S
O697 C715 1.265 . S
O698 Gd659 2.353 . S
O698 C715 1.242 . S
O699 Gd659 2.468 . S
O699 C723 1.263 . S
O700 Gd659 2.427 . S
O700 C723 1.252 . S
O701 Gd658 2.307 . S
O701 C716 1.261 . S
O702 Gd659 2.388 . S
O702 C716 1.252 . S
C703 O691 1.265 . S
C703 O692 1.242 . S
C704 O695 1.261 . S
C704 O696 1.252 . S
C705 C708 1.394 . S
C705 C710 1.370 . S
C705 C711 1.500 . S
C706 C709 1.383 . S
C706 C710 1.395 . S
C707 C708 1.396 . S
C707 C709 1.365 . S
C707 H724 0.929 . S
C708 C705 1.394 . S
C708 C707 1.396 . S
C708 H725 0.930 . S
C709 C706 1.383 . S
C709 C707 1.365 . S
C709 H726 0.931 . S
C710 C705 1.370 . S
C710 C706 1.395 . S
C710 H727 0.930 . S
C711 Gd658 2.805 . S
C711 O693 1.263 . S
C711 O694 1.252 . S
C711 C705 1.500 . S
C712 H674 0.930 . S
C712 C688 1.417 . S
C712 C713 1.329 . S
C713 C683 1.437 . S
C713 H684 0.929 . S
C713 C712 1.329 . S
H714 C687 0.931 . S
C715 O697 1.265 . S
C715 O698 1.242 . S
C716 O701 1.261 . S
C716 O702 1.252 . S
C717 C720 1.394 . S
C717 C722 1.370 . S
C717 C723 1.500 . S
C718 C721 1.383 . S
C718 C722 1.395 . S
C719 C720 1.396 . S
C719 C721 1.365 . S
C719 H728 0.929 . S
C720 C717 1.394 . S
C720 C719 1.396 . S
C720 H729 0.930 . S
C721 C718 1.383 . S
C721 C719 1.365 . S
C721 H730 0.931 . S
C722 C717 1.370 . S
C722 C718 1.395 . S
C722 H731 0.930 . S
C723 Gd659 2.805 . S
C723 O699 1.263 . S
C723 O700 1.252 . S
C723 C717 1.500 . S
H724 C707 0.929 . S
H725 C708 0.930 . S
H726 C709 0.931 . S
H727 C710 0.930 . S
H728 C719 0.929 . S
H729 C720 0.930 . S
H730 C721 0.931 . S
H731 C722 0.930 . S
C732 C734 1.422 . S
C732 C736 1.415 . S
C732 N738 1.369 1_455 S
C733 C734 1.421 . S
C733 C735 1.417 1_556 S
C733 C745 1.422 1_556 S
C734 C732 1.422 . S
C734 C733 1.421 . S
C734 N744 1.359 . S
C735 C733 1.417 1_554 S
C735 C737 1.328 1_554 S
C735 H754 0.930 . S
C736 C732 1.415 . S
C736 C737 1.437 . S
C736 C740 1.413 . S
C737 C735 1.328 1_556 S
C737 C736 1.437 . S
C737 H759 0.929 . S
N738 C732 1.369 1_655 S
N738 C739 1.338 . S
N738 Gd743 2.622 . S
C739 N738 1.338 . S
C739 C741 1.378 1_655 S
C739 H751 0.929 . S
C740 C736 1.413 . S
C740 C741 1.348 . S
C740 H756 0.931 . S
C741 C739 1.378 1_455 S
C741 C740 1.348 . S
C741 H757 0.930 . S
Gd742 N762 2.622 . S
Gd742 N769 2.570 . S
Gd742 O776 2.353 . S
Gd742 O777 2.468 . S
Gd742 O778 2.427 . S
Gd742 O780 2.388 . S
Gd742 O781 2.386 1_455 S
Gd742 O785 2.307 . S
Gd742 C795 2.805 . S
Gd743 N738 2.622 . S
Gd743 N744 2.570 1_655 S
Gd743 O775 2.386 1_655 S
Gd743 O779 2.307 . S
Gd743 O782 2.353 . S
Gd743 O783 2.468 . S
Gd743 O784 2.427 . S
Gd743 O786 2.388 . S
Gd743 C807 2.805 . S
N744 C734 1.359 . S
N744 Gd743 2.570 1_455 S
N744 C746 1.343 . S
C745 C733 1.422 1_554 S
C745 C747 1.321 . S
C745 H753 0.931 . S
C746 N744 1.343 . S
C746 C747 1.390 1_556 S
C746 H748 0.925 1_455 S
C747 C745 1.321 . S
C747 C746 1.390 1_554 S
C747 H749 0.930 . S
H748 C746 0.925 1_655 S
H749 C747 0.930 . S
H750 C773 0.931 . S
H751 C739 0.929 . S
H752 C774 0.930 . S
H753 C745 0.931 . S
H754 C735 0.930 . S
H755 C764 0.929 . S
H756 C740 0.931 . S
H757 C741 0.930 . S
H758 C796 0.930 . S
H759 C737 0.929 . S
H760 C765 0.931 . S
H761 C766 0.930 . S
N762 Gd742 2.622 . S
N762 C763 1.359 1_455 S
N762 C764 1.338 . S
C763 N762 1.359 1_655 S
C763 C767 1.424 . S
C763 C770 1.425 . S
C764 H755 0.929 . S
C764 N762 1.338 . S
C764 C766 1.378 . S
C765 H760 0.931 . S
C765 C766 1.348 1_655 S
C765 C767 1.413 . S
C766 H761 0.930 . S
C766 C764 1.378 . S
C766 C765 1.348 1_455 S
C767 C763 1.424 . S
C767 C765 1.413 . S
C767 C797 1.437 . S
H768 C797 0.929 . S
N769 Gd742 2.570 . S
N769 C770 1.359 1_455 S
N769 C773 1.343 . S
C770 C763 1.425 . S
C770 N769 1.359 1_655 S
C770 C772 1.421 . S
C771 C772 1.422 . S
C771 C774 1.321 . S
C771 H798 0.931 . S
C772 C770 1.421 . S
C772 C771 1.422 . S
C772 C796 1.417 . S
C773 H750 0.931 . S
C773 N769 1.343 . S
C773 C774 1.390 1_455 S
C774 H752 0.930 . S
C774 C771 1.321 . S
C774 C773 1.390 1_655 S
O775 Gd743 2.386 1_455 S
O775 C787 1.265 . S
O776 Gd742 2.353 . S
O776 C787 1.242 . S
O777 Gd742 2.468 . S
O777 C795 1.263 . S
O778 Gd742 2.427 . S
O778 C795 1.252 . S
O779 Gd743 2.307 . S
O779 C788 1.261 1_655 S
O780 Gd742 2.388 . S
O780 C788 1.252 . S
O781 Gd742 2.386 1_655 S
O781 C799 1.265 . S
O782 Gd743 2.353 . S
O782 C799 1.242 . S
O783 Gd743 2.468 . S
O783 C807 1.263 . S
O784 Gd743 2.427 . S
O784 C807 1.252 . S
O785 Gd742 2.307 . S
O785 C800 1.261 . S
O786 Gd743 2.388 . S
O786 C800 1.252 1_655 S
C787 O775 1.265 . S
C787 O776 1.242 . S
C788 O779 1.261 1_455 S
C788 O780 1.252 . S
C789 C792 1.394 . S
C789 C794 1.370 . S
C789 C795 1.500 . S
C790 C793 1.383 . S
C790 C794 1.395 . S
C791 C792 1.396 . S
C791 C793 1.365 . S
C791 H808 0.929 . S
C792 C789 1.394 . S
C792 C791 1.396 . S
C792 H809 0.930 . S
C793 C790 1.383 . S
C793 C791 1.365 . S
C793 H810 0.931 . S
C794 C789 1.370 . S
C794 C790 1.395 . S
C794 H811 0.930 . S
C795 Gd742 2.805 . S
C795 O777 1.263 . S
C795 O778 1.252 . S
C795 C789 1.500 . S
C796 H758 0.930 . S
C796 C772 1.417 . S
C796 C797 1.329 . S
C797 C767 1.437 . S
C797 H768 0.929 . S
C797 C796 1.329 . S
H798 C771 0.931 . S
C799 O781 1.265 . S
C799 O782 1.242 . S
C800 O785 1.261 . S
C800 O786 1.252 1_455 S
C801 C804 1.394 . S
C801 C806 1.370 . S
C801 C807 1.500 . S
C802 C805 1.383 . S
C802 C806 1.395 . S
C803 C804 1.396 . S
C803 C805 1.365 . S
C803 H812 0.929 . S
C804 C801 1.394 . S
C804 C803 1.396 . S
C804 H813 0.930 . S
C805 C802 1.383 . S
C805 C803 1.365 . S
C805 H814 0.931 . S
C806 C801 1.370 . S
C806 C802 1.395 . S
C806 H815 0.930 . S
C807 Gd743 2.805 . S
C807 O783 1.263 . S
C807 O784 1.252 . S
C807 C801 1.500 . S
H808 C791 0.929 . S
H809 C792 0.930 . S
H810 C793 0.931 . S
H811 C794 0.930 . S
H812 C803 0.929 . S
H813 C804 0.930 . S
H814 C805 0.931 . S
H815 C806 0.930 . S
C816 C817 1.369 . S
C816 C818 1.419 . S
C816 H820 0.930 1_545 S
C817 C816 1.369 . S
C817 C826 1.429 . S
C818 C816 1.419 . S
C818 C819 1.363 . S
C818 H821 0.929 1_545 S
C819 C818 1.363 . S
C819 C825 1.428 . S
H820 C816 0.930 1_565 S
H821 C818 0.929 1_565 S
S822 N823 1.613 . S
S822 N824 1.610 . S
N823 S822 1.613 . S
N823 C826 1.350 . S
N824 S822 1.610 . S
N824 C825 1.351 . S
C825 C819 1.428 . S
C825 N824 1.351 . S
C825 C826 1.434 . S
C826 C817 1.429 . S
C826 N823 1.350 . S
C826 C825 1.434 . S
C827 C828 1.369 . S
C827 C829 1.419 . S
C827 H831 0.930 . S
C828 C827 1.369 . S
C828 C837 1.429 . S
C829 C827 1.419 . S
C829 C830 1.363 . S
C829 H832 0.929 . S
C830 C829 1.363 . S
C830 C836 1.428 . S
H831 C827 0.930 . S
H832 C829 0.929 . S
S833 N834 1.613 . S
S833 N835 1.610 . S
N834 S833 1.613 . S
N834 C837 1.350 . S
N835 S833 1.610 . S
N835 C836 1.351 . S
C836 C830 1.428 . S
C836 N835 1.351 . S
C836 C837 1.434 . S
C837 C828 1.429 . S
C837 N834 1.350 . S
C837 C836 1.434 . S
C838 C839 1.369 . S
C838 C840 1.419 . S
C838 H842 0.930 . S
C839 C838 1.369 . S
C839 C848 1.429 . S
C840 C838 1.419 . S
C840 C841 1.363 . S
C840 H843 0.929 . S
C841 C840 1.363 . S
C841 C847 1.428 . S
H842 C838 0.930 . S
H843 C840 0.929 . S
S844 N845 1.613 . S
S844 N846 1.610 . S
N845 S844 1.613 . S
N845 C848 1.350 . S
N846 S844 1.610 . S
N846 C847 1.351 . S
C847 C841 1.428 . S
C847 N846 1.351 . S
C847 C848 1.434 . S
C848 C839 1.429 . S
C848 N845 1.350 . S
C848 C847 1.434 . S
C849 C850 1.369 . S
C849 C851 1.419 . S
C849 H853 0.930 . S
C850 C849 1.369 . S
C850 C859 1.429 . S
C851 C849 1.419 . S
C851 C852 1.363 . S
C851 H854 0.929 . S
C852 C851 1.363 . S
C852 C858 1.428 . S
H853 C849 0.930 . S
H854 C851 0.929 . S
S855 N856 1.613 . S
S855 N857 1.610 . S
N856 S855 1.613 . S
N856 C859 1.350 . S
N857 S855 1.610 . S
N857 C858 1.351 . S
C858 C852 1.428 . S
C858 N857 1.351 . S
C858 C859 1.434 . S
C859 C850 1.429 . S
C859 N856 1.350 . S
C859 C858 1.434 . S
C860 C861 1.369 . S
C860 C862 1.419 1_554 S
C860 H864 0.930 . S
C861 C860 1.369 . S
C861 C870 1.429 1_565 S
C862 C860 1.419 1_556 S
C862 C863 1.363 . S
C862 H865 0.929 . S
C863 C862 1.363 . S
C863 C869 1.428 1_565 S
H864 C860 0.930 . S
H865 C862 0.929 . S
S866 N867 1.613 . S
S866 N868 1.610 1_554 S
N867 S866 1.613 . S
N867 C870 1.350 . S
N868 S866 1.610 1_556 S
N868 C869 1.351 . S
C869 C863 1.428 1_545 S
C869 N868 1.351 . S
C869 C870 1.434 1_556 S
C870 C861 1.429 1_545 S
C870 N867 1.350 . S
C870 C869 1.434 1_554 S
C871 C872 1.369 . S
C871 C873 1.419 1_554 S
C871 H875 0.930 . S
C872 C871 1.369 . S
C872 C881 1.429 . S
C873 C871 1.419 1_556 S
C873 C874 1.363 . S
C873 H876 0.929 . S
C874 C873 1.363 . S
C874 C880 1.428 . S
H875 C871 0.930 . S
H876 C873 0.929 . S
S877 N878 1.613 1_545 S
S877 N879 1.610 1_544 S
N878 S877 1.613 1_565 S
N878 C881 1.350 . S
N879 S877 1.610 1_566 S
N879 C880 1.351 . S
C880 C874 1.428 . S
C880 N879 1.351 . S
C880 C881 1.434 1_556 S
C881 C872 1.429 . S
C881 N878 1.350 . S
C881 C880 1.434 1_554 S
C882 C883 1.369 . S
C882 C884 1.419 1_554 S
C882 H886 0.930 . S
C883 C882 1.369 . S
C883 C892 1.429 . S
C884 C882 1.419 1_556 S
C884 C885 1.363 . S
C884 H887 0.929 . S
C885 C884 1.363 . S
C885 C891 1.428 . S
H886 C882 0.930 . S
H887 C884 0.929 . S
S888 N889 1.613 . S
S888 N890 1.610 1_554 S
N889 S888 1.613 . S
N889 C892 1.350 . S
N890 S888 1.610 1_556 S
N890 C891 1.351 . S
C891 C885 1.428 . S
C891 N890 1.351 . S
C891 C892 1.434 1_556 S
C892 C883 1.429 . S
C892 N889 1.350 . S
C892 C891 1.434 1_554 S
C893 C894 1.369 . S
C893 C895 1.419 1_554 S
C893 H897 0.930 . S
C894 C893 1.369 . S
C894 C903 1.429 . S
C895 C893 1.419 1_556 S
C895 C896 1.363 . S
C895 H898 0.929 . S
C896 C895 1.363 . S
C896 C902 1.428 . S
H897 C893 0.930 . S
H898 C895 0.929 . S
S899 N900 1.613 . S
S899 N901 1.610 1_554 S
N900 S899 1.613 . S
N900 C903 1.350 . S
N901 S899 1.610 1_556 S
N901 C902 1.351 . S
C902 C896 1.428 . S
C902 N901 1.351 . S
C902 C903 1.434 1_556 S
C903 C894 1.429 . S
C903 N900 1.350 . S
C903 C902 1.434 1_554 S
C904 C905 1.369 . S
C904 C906 1.419 . S
C904 H908 0.930 . S
C905 C904 1.369 . S
C905 C914 1.429 . S
C906 C904 1.419 . S
C906 C907 1.363 1_455 S
C906 H909 0.929 . S
C907 C906 1.363 1_655 S
C907 C913 1.428 . S
H908 C904 0.930 . S
H909 C906 0.929 . S
S910 N911 1.613 . S
S910 N912 1.610 . S
N911 S910 1.613 . S
N911 C914 1.350 1_655 S
N912 S910 1.610 . S
N912 C913 1.351 . S
C913 C907 1.428 . S
C913 N912 1.351 . S
C913 C914 1.434 1_655 S
C914 C905 1.429 . S
C914 N911 1.350 1_455 S
C914 C913 1.434 1_455 S
C915 C916 1.369 . S
C915 C917 1.419 1_545 S
C915 H919 0.930 . S
C916 C915 1.369 . S
C916 C925 1.429 . S
C917 C915 1.419 1_565 S
C917 C918 1.363 . S
C917 H920 0.929 . S
C918 C917 1.363 . S
C918 C924 1.428 1_565 S
H919 C915 0.930 . S
H920 C917 0.929 . S
S921 N922 1.613 . S
S921 N923 1.610 . S
N922 S921 1.613 . S
N922 C925 1.350 . S
N923 S921 1.610 . S
N923 C924 1.351 . S
C924 C918 1.428 1_545 S
C924 N923 1.351 . S
C924 C925 1.434 . S
C925 C916 1.429 . S
C925 N922 1.350 . S
C925 C924 1.434 . S
C926 C927 1.369 . S
C926 C928 1.419 . S
C926 H930 0.930 . S
C927 C926 1.369 . S
C927 C936 1.429 . S
C928 C926 1.419 . S
C928 C929 1.363 . S
C928 H931 0.929 . S
C929 C928 1.363 . S
C929 C935 1.428 . S
H930 C926 0.930 . S
H931 C928 0.929 . S
S932 N933 1.613 . S
S932 N934 1.610 . S
N933 S932 1.613 . S
N933 C936 1.350 . S
N934 S932 1.610 . S
N934 C935 1.351 . S
C935 C929 1.428 . S
C935 N934 1.351 . S
C935 C936 1.434 . S
C936 C927 1.429 . S
C936 N933 1.350 . S
C936 C935 1.434 . S
C937 C938 1.369 . S
C937 C939 1.419 . S
C937 H941 0.930 . S
C938 C937 1.369 . S
C938 C947 1.429 . S
C939 C937 1.419 . S
C939 C940 1.363 . S
C939 H942 0.929 . S
C940 C939 1.363 . S
C940 C946 1.428 . S
H941 C937 0.930 . S
H942 C939 0.929 . S
S943 N944 1.613 . S
S943 N945 1.610 . S
N944 S943 1.613 . S
N944 C947 1.350 . S
N945 S943 1.610 . S
N945 C946 1.351 . S
C946 C940 1.428 . S
C946 N945 1.351 . S
C946 C947 1.434 . S
C947 C938 1.429 . S
C947 N944 1.350 . S
C947 C946 1.434 . S
C948 C949 1.369 . S
C948 C950 1.419 1_554 S
C948 H952 0.930 . S
C949 C948 1.369 . S
C949 C958 1.429 1_655 S
C950 C948 1.419 1_556 S
C950 C951 1.363 1_655 S
C950 H953 0.929 . S
C951 C950 1.363 1_455 S
C951 C957 1.428 . S
H952 C948 0.930 . S
H953 C950 0.929 . S
S954 N955 1.613 . S
S954 N956 1.610 1_554 S
N955 S954 1.613 . S
N955 C958 1.350 . S
N956 S954 1.610 1_556 S
N956 C957 1.351 . S
C957 C951 1.428 . S
C957 N956 1.351 . S
C957 C958 1.434 1_556 S
C958 C949 1.429 1_455 S
C958 N955 1.350 . S
C958 C957 1.434 1_554 S
C959 C960 1.369 1_556 S
C959 C961 1.419 . S
C959 H963 0.930 . S
C960 C959 1.369 1_554 S
C960 C969 1.429 1_565 S
C961 C959 1.419 . S
C961 C962 1.363 1_565 S
C961 H964 0.929 . S
C962 C961 1.363 1_545 S
C962 C968 1.428 1_556 S
H963 C959 0.930 . S
H964 C961 0.929 . S
S965 N966 1.613 . S
S965 N967 1.610 . S
N966 S965 1.613 . S
N966 C969 1.350 . S
N967 S965 1.610 . S
N967 C968 1.351 . S
C968 C962 1.428 1_554 S
C968 N967 1.351 . S
C968 C969 1.434 . S
C969 C960 1.429 1_545 S
C969 N966 1.350 . S
C969 C968 1.434 . S
C970 C971 1.369 . S
C970 C972 1.419 . S
C970 H974 0.930 . S
C971 C970 1.369 . S
C971 C980 1.429 1_554 S
C972 C970 1.419 . S
C972 C973 1.363 1_554 S
C972 H975 0.929 . S
C973 C972 1.363 1_556 S
C973 C979 1.428 . S
H974 C970 0.930 . S
H975 C972 0.929 . S
S976 N977 1.613 . S
S976 N978 1.610 . S
N977 S976 1.613 . S
N977 C980 1.350 . S
N978 S976 1.610 . S
N978 C979 1.351 . S
C979 C973 1.428 . S
C979 N978 1.351 . S
C979 C980 1.434 . S
C980 C971 1.429 1_556 S
C980 N977 1.350 . S
C980 C979 1.434 . S
C981 C982 1.369 . S
C981 C983 1.419 . S
C981 H985 0.930 . S
C982 C981 1.369 . S
C982 C991 1.429 1_554 S
C983 C981 1.419 . S
C983 C984 1.363 1_554 S
C983 H986 0.929 . S
C984 C983 1.363 1_556 S
C984 C990 1.428 . S
H985 C981 0.930 . S
H986 C983 0.929 . S
S987 N988 1.613 . S
S987 N989 1.610 . S
N988 S987 1.613 . S
N988 C991 1.350 . S
N989 S987 1.610 . S
N989 C990 1.351 . S
C990 C984 1.428 . S
C990 N989 1.351 . S
C990 C991 1.434 . S
C991 C982 1.429 1_556 S
C991 N988 1.350 . S
C991 C990 1.434 . S
C992 C993 1.369 . S
C992 C994 1.419 . S
C992 H996 0.930 . S
C993 C992 1.369 . S
C993 C1002 1.429 . S
C994 C992 1.419 . S
C994 C995 1.363 . S
C994 H997 0.929 . S
C995 C994 1.363 . S
C995 C1001 1.428 . S
H996 C992 0.930 . S
H997 C994 0.929 . S
S998 N999 1.614 . S
S998 N1000 1.610 . S
N999 S998 1.614 . S
N999 C1002 1.349 1_655 S
N1000 S998 1.610 . S
N1000 C1001 1.351 1_655 S
C1001 C995 1.428 . S
C1001 N1000 1.351 1_455 S
C1001 C1002 1.434 . S
C1002 C993 1.429 . S
C1002 N999 1.349 1_455 S
C1002 C1001 1.434 . S
C1003 C1004 1.369 . S
C1003 C1005 1.419 . S
C1003 H1007 0.930 . S
C1004 C1003 1.369 . S
C1004 C1013 1.429 . S
C1005 C1003 1.419 . S
C1005 C1006 1.363 . S
C1005 H1008 0.929 . S
C1006 C1005 1.363 . S
C1006 C1012 1.428 . S
H1007 C1003 0.930 . S
H1008 C1005 0.929 . S
S1009 N1010 1.613 . S
S1009 N1011 1.610 . S
N1010 S1009 1.613 . S
N1010 C1013 1.350 . S
N1011 S1009 1.610 . S
N1011 C1012 1.351 . S
C1012 C1006 1.428 . S
C1012 N1011 1.351 . S
C1012 C1013 1.434 . S
C1013 C1004 1.429 . S
C1013 N1010 1.350 . S
C1013 C1012 1.434 . S
C1014 C1015 1.369 . S
C1014 C1016 1.419 . S
C1014 H1018 0.930 . S
C1015 C1014 1.369 . S
C1015 C1024 1.429 . S
C1016 C1014 1.419 . S
C1016 C1017 1.363 . S
C1016 H1019 0.929 . S
C1017 C1016 1.363 . S
C1017 C1023 1.428 . S
H1018 C1014 0.930 . S
H1019 C1016 0.929 . S
S1020 N1021 1.613 . S
S1020 N1022 1.610 . S
N1021 S1020 1.613 . S
N1021 C1024 1.350 . S
N1022 S1020 1.610 . S
N1022 C1023 1.351 . S
C1023 C1017 1.428 . S
C1023 N1022 1.351 . S
C1023 C1024 1.434 . S
C1024 C1015 1.429 . S
C1024 N1021 1.350 . S
C1024 C1023 1.434 . S
C1025 C1026 1.369 . S
C1025 C1027 1.419 . S
C1025 H1029 0.930 . S
C1026 C1025 1.369 . S
C1026 C1035 1.429 . S
C1027 C1025 1.419 . S
C1027 C1028 1.363 . S
C1027 H1030 0.929 . S
C1028 C1027 1.363 . S
C1028 C1034 1.428 . S
H1029 C1025 0.930 . S
H1030 C1027 0.929 . S
S1031 N1032 1.613 . S
S1031 N1033 1.610 . S
N1032 S1031 1.613 . S
N1032 C1035 1.350 . S
N1033 S1031 1.610 . S
N1033 C1034 1.351 . S
C1034 C1028 1.428 . S
C1034 N1033 1.351 . S
C1034 C1035 1.434 . S
C1035 C1026 1.429 . S
C1035 N1032 1.350 . S
C1035 C1034 1.434 . S
C1036 C1037 1.369 1_455 S
C1036 C1038 1.419 . S
C1036 H1040 0.930 . S
C1037 C1036 1.369 1_655 S
C1037 C1046 1.429 . S
C1038 C1036 1.419 . S
C1038 C1039 1.363 1_455 S
C1038 H1041 0.929 . S
C1039 C1038 1.363 1_655 S
C1039 C1045 1.428 . S
H1040 C1036 0.930 . S
H1041 C1038 0.929 . S
S1042 N1043 1.613 . S
S1042 N1044 1.610 . S
N1043 S1042 1.613 . S
N1043 C1046 1.350 . S
N1044 S1042 1.610 . S
N1044 C1045 1.351 . S
C1045 C1039 1.428 . S
C1045 N1044 1.351 . S
C1045 C1046 1.434 . S
C1046 C1037 1.429 . S
C1046 N1043 1.350 . S
C1046 C1045 1.434 . S
C1047 C1048 1.369 . S
C1047 C1049 1.419 . S
C1047 H1051 0.930 . S
C1048 C1047 1.369 . S
C1048 C1057 1.429 . S
C1049 C1047 1.419 . S
C1049 C1050 1.363 . S
C1049 H1052 0.929 . S
C1050 C1049 1.363 . S
C1050 C1056 1.428 . S
H1051 C1047 0.930 . S
H1052 C1049 0.929 . S
S1053 N1054 1.613 . S
S1053 N1055 1.610 . S
N1054 S1053 1.613 . S
N1054 C1057 1.350 . S
N1055 S1053 1.610 . S
N1055 C1056 1.351 . S
C1056 C1050 1.428 . S
C1056 N1055 1.351 . S
C1056 C1057 1.434 . S
C1057 C1048 1.429 . S
C1057 N1054 1.350 . S
C1057 C1056 1.434 . S
C1058 C1059 1.369 . S
C1058 C1060 1.419 . S
C1058 H1062 0.930 . S
C1059 C1058 1.369 . S
C1059 C1068 1.429 . S
C1060 C1058 1.419 . S
C1060 C1061 1.363 . S
C1060 H1063 0.929 . S
C1061 C1060 1.363 . S
C1061 C1067 1.428 . S
H1062 C1058 0.930 . S
H1063 C1060 0.929 . S
S1064 N1065 1.613 . S
S1064 N1066 1.610 . S
N1065 S1064 1.613 . S
N1065 C1068 1.350 . S
N1066 S1064 1.610 . S
N1066 C1067 1.351 . S
C1067 C1061 1.428 . S
C1067 N1066 1.351 . S
C1067 C1068 1.434 . S
C1068 C1059 1.429 . S
C1068 N1065 1.350 . S
C1068 C1067 1.434 . S
C1069 C1070 1.369 . S
C1069 C1071 1.419 . S
C1069 H1073 0.930 . S
C1070 C1069 1.369 . S
C1070 C1079 1.429 . S
C1071 C1069 1.419 . S
C1071 C1072 1.363 . S
C1071 H1074 0.929 . S
C1072 C1071 1.363 . S
C1072 C1078 1.428 . S
H1073 C1069 0.930 . S
H1074 C1071 0.929 . S
S1075 N1076 1.613 . S
S1075 N1077 1.610 . S
N1076 S1075 1.613 . S
N1076 C1079 1.350 . S
N1077 S1075 1.610 . S
N1077 C1078 1.351 . S
C1078 C1072 1.428 . S
C1078 N1077 1.351 . S
C1078 C1079 1.434 . S
C1079 C1070 1.429 . S
C1079 N1076 1.350 . S
C1079 C1078 1.434 . S
C817 C391 2.736 . S
C819 C548 2.827 . S
C830 C631 2.822 . S
C828 C451 2.752 . S
C841 C716 2.834 . S
C839 C241 2.341 . S
C852 C800 2.806 . S
C850 C331 2.329 . S
C863 C536 2.824 1_565 S
C861 C121 2.380 . S
C872 C211 2.718 . S
C874 C619 2.822 . S
C883 C31 2.708 . S
C885 C704 2.831 . S
C894 C91 2.367 . S
C896 C788 2.806 1_655 S
C907 C538 0.760 . S
C905 C301 0.748 . S
C918 C634 0.746 . S
C916 C380 0.761 . S
C929 C706 0.779 . S
C927 C440 0.783 . S
C938 C260 0.742 . S
C940 C790 0.753 . S
C949 C61 0.752 . S
C951 C550 0.761 . S
C962 C622 0.754 . S
C960 C140 0.740 . S
C973 C718 0.782 . S
C971 C200 0.782 . S
C982 C20 0.757 . S
C984 C802 0.749 . S
C993 C320 3.054 . S
C995 C535 3.293 . S
C1004 C361 2.665 . S
C1006 C620 3.391 . S
C1017 C703 3.312 . S
C1015 C421 2.693 . S
C1028 C787 3.314 . S
C1026 C271 3.085 . S
C1037 C80 3.074 . S
C1039 C547 3.292 . S
C1050 C632 3.390 . S
C1048 C151 3.083 . S
C1061 C715 3.316 . S
C1059 C181 2.659 . S
C1070 C1 2.664 . S
C1072 C799 3.317 . S
