# Generated by pormake.
# Topology pyr, (3,6)-cn, num edge types: 1
# Building blocks:
#     Node 0, Type 0, BuildingBlock: PAMTOO_clean_linker_0, # of connection points: 3
#     Node 1, Type 0, BuildingBlock: PAMTOO_clean_linker_0, # of connection points: 3
#     Node 2, Type 0, BuildingBlock: PAMTOO_clean_linker_0, # of connection points: 3
#     Node 3, Type 0, BuildingBlock: PAMTOO_clean_linker_0, # of connection points: 3
#     Node 4, Type 0, BuildingBlock: PAMTOO_clean_linker_0, # of connection points: 3
#     Node 5, Type 0, BuildingBlock: PAMTOO_clean_linker_0, # of connection points: 3
#     Node 6, Type 0, BuildingBlock: PAMTOO_clean_linker_0, # of connection points: 3
#     Node 7, Type 0, BuildingBlock: PAMTOO_clean_linker_0, # of connection points: 3
#     Node 8, Type 1, BuildingBlock: JUFBIX_clean_sbu_0, # of connection points: 6
#     Node 9, Type 1, BuildingBlock: JUFBIX_clean_sbu_0, # of connection points: 6
#     Node 10, Type 1, BuildingBlock: JUFBIX_clean_sbu_0, # of connection points: 6
#     Node 11, Type 1, BuildingBlock: JUFBIX_clean_sbu_0, # of connection points: 6
#     Edge 12, Type (0, 1), BuildingBlock: EZIPEK_clean_linker_0, # of connection points: 2
#     Edge 13, Type (0, 1), BuildingBlock: EZIPEK_clean_linker_0, # of connection points: 2
#     Edge 14, Type (0, 1), BuildingBlock: EZIPEK_clean_linker_0, # of connection points: 2
#     Edge 15, Type (0, 1), BuildingBlock: EZIPEK_clean_linker_0, # of connection points: 2
#     Edge 16, Type (0, 1), BuildingBlock: EZIPEK_clean_linker_0, # of connection points: 2
#     Edge 17, Type (0, 1), BuildingBlock: EZIPEK_clean_linker_0, # of connection points: 2
#     Edge 18, Type (0, 1), BuildingBlock: EZIPEK_clean_linker_0, # of connection points: 2
#     Edge 19, Type (0, 1), BuildingBlock: EZIPEK_clean_linker_0, # of connection points: 2
#     Edge 20, Type (0, 1), BuildingBlock: EZIPEK_clean_linker_0, # of connection points: 2
#     Edge 21, Type (0, 1), BuildingBlock: EZIPEK_clean_linker_0, # of connection points: 2
#     Edge 22, Type (0, 1), BuildingBlock: EZIPEK_clean_linker_0, # of connection points: 2
#     Edge 23, Type (0, 1), BuildingBlock: EZIPEK_clean_linker_0, # of connection points: 2
#     Edge 24, Type (0, 1), BuildingBlock: EZIPEK_clean_linker_0, # of connection points: 2
#     Edge 25, Type (0, 1), BuildingBlock: EZIPEK_clean_linker_0, # of connection points: 2
#     Edge 26, Type (0, 1), BuildingBlock: EZIPEK_clean_linker_0, # of connection points: 2
#     Edge 27, Type (0, 1), BuildingBlock: EZIPEK_clean_linker_0, # of connection points: 2
#     Edge 28, Type (0, 1), BuildingBlock: EZIPEK_clean_linker_0, # of connection points: 2
#     Edge 29, Type (0, 1), BuildingBlock: EZIPEK_clean_linker_0, # of connection points: 2
#     Edge 30, Type (0, 1), BuildingBlock: EZIPEK_clean_linker_0, # of connection points: 2
#     Edge 31, Type (0, 1), BuildingBlock: EZIPEK_clean_linker_0, # of connection points: 2
#     Edge 32, Type (0, 1), BuildingBlock: EZIPEK_clean_linker_0, # of connection points: 2
#     Edge 33, Type (0, 1), BuildingBlock: EZIPEK_clean_linker_0, # of connection points: 2
#     Edge 34, Type (0, 1), BuildingBlock: EZIPEK_clean_linker_0, # of connection points: 2
#     Edge 35, Type (0, 1), BuildingBlock: EZIPEK_clean_linker_0, # of connection points: 2
# Relax obj value: 0.162
# Max RMSD: 0.207
# Mean RMSD: 0.140
data_MOF--net-pyr--node1-JUFBIX_clean_sbu_0--node2-PAMTOO_clean_linker_0--edge1-EZIPEK_clean_linker_0
_symmetry_space_group_name_H-M    P1
_symmetry_Int_Tables_number       1
_symmetry_cell_setting            triclinic
loop_
_symmetry_equiv_pos_as_xyz
'x, y, z'
_cell_length_a     26.416439
_cell_length_b     25.657484
_cell_length_c     26.984172
_cell_angle_alpha  81.625446
_cell_angle_beta   88.91458
_cell_angle_gamma 94.794575
loop_
_atom_site_label
_atom_site_type_symbol
_atom_site_fract_x
_atom_site_fract_y
_atom_site_fract_z
_atom_type_partial_charge
H0 H 0.13178 0.22775 0.26173 0.0
H1 H 0.24303 0.11341 0.28104 0.0
H2 H 0.24412 0.22346 0.14453 0.0
H3 H 0.27333 0.11791 0.13208 0.0
C4 C 0.29686 0.10998 0.1656 0.0
O5 O 0.29379 0.14969 0.19524 0.0
H6 H 0.27872 0.07212 0.18616 0.0
C7 C 0.16392 0.21036 0.24723 0.0
C8 C 0.18487 0.23101 0.19905 0.0
C9 C 0.18349 0.16697 0.27661 0.0
C10 C 0.22651 0.14556 0.25819 0.0
C11 C 0.24904 0.1664 0.21074 0.0
C12 C 0.2271 0.20794 0.1811 0.0
H13 H 0.41457 0.99399 0.65694 0.0
H14 H 0.41821 0.87134 0.56469 0.0
H15 H 0.51426 0.87007 0.69093 0.0
H16 H 0.56725 0.84606 0.5963 0.0
C17 C 0.53373 0.82457 0.58201 0.0
O18 O 0.49157 0.82475 0.6129 0.0
H19 H 0.52858 0.84782 0.54464 0.0
C20 C 0.43179 0.95983 0.64698 0.0
C21 C 0.46691 0.93549 0.67901 0.0
C22 C 0.41103 0.93451 0.60859 0.0
C23 C 0.43384 0.89115 0.59452 0.0
C24 C 0.47303 0.86963 0.62306 0.0
C25 C 0.48798 0.89045 0.66629 0.0
H26 H 0.78254 0.29265 1.00213 0.0
H27 H 0.69063 0.30688 0.87178 0.0
H28 H 0.80928 0.42801 0.88657 0.0
H29 H 0.69095 0.45326 0.8475 0.0
C30 C 0.69163 0.42194 0.82328 0.0
O31 O 0.73621 0.39742 0.8295 0.0
H32 H 0.65857 0.39344 0.83715 0.0
C33 C 0.77304 0.31447 0.96655 0.0
C34 C 0.80146 0.36239 0.9473 0.0
C35 C 0.73253 0.29469 0.93944 0.0
C36 C 0.72136 0.32241 0.89291 0.0
C37 C 0.74824 0.37084 0.87424 0.0
C38 C 0.78803 0.39091 0.90155 0.0
H39 H 0.93518 0.73282 0.51408 0.0
H40 H 0.98607 0.61334 0.4353 0.0
H41 H 0.09081 0.74129 0.45918 0.0
H42 H 0.12664 0.67829 0.35809 0.0
C43 C 0.08533 0.67292 0.36788 0.0
O44 O 0.07882 0.65725 0.41894 0.0
H45 H 0.07358 0.71335 0.35628 0.0
C46 C 0.96691 0.71587 0.4986 0.0
C47 C 1.01709 0.74036 0.49815 0.0
C48 C 0.95584 0.67011 0.47675 0.0
C49 C 0.99439 0.64861 0.45248 0.0
C50 C 0.04282 0.67506 0.44668 0.0
C51 C 0.05383 0.72088 0.46832 0.0
H52 H 0.82604 0.9678 0.83371 0.0
H53 H 0.83424 0.8561 0.96863 0.0
H54 H 0.94872 0.86593 0.85195 0.0
H55 H 0.88319 0.75399 0.91037 0.0
C56 C 0.89965 0.76377 0.94582 0.0
O57 O 0.91741 0.8168 0.94049 0.0
H58 H 0.86686 0.75649 0.97309 0.0
C59 C 0.84499 0.93685 0.8557 0.0
C60 C 0.89045 0.92021 0.83645 0.0
C61 C 0.82443 0.91411 0.9037 0.0
C62 C 0.84936 0.87378 0.93184 0.0
C63 C 0.89352 0.85568 0.9128 0.0
C64 C 0.91399 0.87933 0.8657 0.0
H65 H 0.69319 0.10059 0.40925 0.0
H66 H 0.53577 0.13025 0.39932 0.0
H67 H 0.62121 0.17046 0.52482 0.0
H68 H 0.47276 0.21565 0.47908 0.0
C69 C 0.51313 0.2175 0.46617 0.0
O70 O 0.53184 0.16981 0.48364 0.0
H71 H 0.51067 0.22282 0.42471 0.0
C72 C 0.65985 0.11545 0.42449 0.0
C73 C 0.6624 0.13531 0.47004 0.0
C74 C 0.6146 0.11389 0.3987 0.0
C75 C 0.57121 0.13195 0.41884 0.0
C76 C 0.57385 0.15321 0.4639 0.0
C77 C 0.61954 0.15511 0.48949 0.0
H78 H 0.342 0.728 0.09989 0.0
H79 H 0.31616 0.59986 0.22294 0.0
H80 H 0.44359 0.71426 0.22317 0.0
H81 H 0.46044 0.5987 0.2428 0.0
C82 C 0.4298 0.58805 0.27222 0.0
O83 O 0.39688 0.6273 0.27103 0.0
H84 H 0.40966 0.55179 0.26159 0.0
C85 C 0.35276 0.70757 0.13564 0.0
C86 C 0.39626 0.72704 0.15912 0.0
C87 C 0.32337 0.66146 0.1585 0.0
C88 C 0.33809 0.63537 0.20488 0.0
C89 C 0.38189 0.65377 0.22749 0.0
C90 C 0.41033 0.69963 0.20492 0.0
H91 H 0.05089 0.34005 0.71569 0.0
H92 H 0.13987 0.4843 0.65434 0.0
H93 H 0.09033 0.37256 0.55805 0.0
H94 H 0.18444 0.45368 0.49924 0.0
C95 C 0.18514 0.44102 0.54026 0.0
O96 O 0.14461 0.46083 0.5626 0.0
H97 H 0.18007 0.39729 0.54264 0.0
C98 C 0.0679 0.36645 0.68358 0.0
C99 C 0.06849 0.34987 0.63612 0.0
C100 C 0.09315 0.41531 0.69023 0.0
C101 C 0.11827 0.44781 0.64913 0.0
C102 C 0.11657 0.43255 0.60141 0.0
C103 C 0.08981 0.38482 0.59483 0.0
Co104 Co 0.99982 0.05289 0.54143 0.0
C105 C 1.03287 0.95487 0.53647 0.0
Co106 Co 0.07458 0.04329 0.57393 0.0
C107 C 0.89804 0.08411 0.53353 0.0
C108 C 0.92138 0.04896 0.47035 0.0
N109 N 0.93732 0.06218 0.51443 0.0
N110 N 0.85834 0.0848 0.50303 0.0
C111 C 0.87261 0.06285 0.46326 0.0
H112 H 0.89845 0.09923 0.56896 0.0
H113 H 0.94389 0.03061 0.44495 0.0
C114 C 0.04051 0.14031 0.58168 0.0
N115 N 0.13802 0.03402 0.59944 0.0
C116 C 0.17629 0.01356 0.57695 0.0
C117 C 0.15656 0.04524 0.64328 0.0
N118 N 0.21778 0.01159 0.60499 0.0
C119 C 0.20575 0.03116 0.64689 0.0
C120 C 0.08083 0.08516 0.47132 0.0
O121 O 1.00166 0.12104 0.56144 0.0
O122 O 0.07853 0.1132 0.58887 0.0
O123 O 0.10665 0.06902 0.50889 0.0
O124 O 1.03267 0.08298 0.47711 0.0
O125 O 0.07007 0.97336 0.55947 0.0
H126 H 0.1355 0.06187 0.67102 0.0
H127 H 0.17349 0.99926 0.5412 0.0
O128 O 0.9978 0.98411 0.52248 0.0
O129 O 0.96735 0.02289 0.60533 0.0
O130 O 0.04187 0.01739 0.63933 0.0
C131 C 0.99347 1.01087 0.64386 0.0
H132 H 0.84937 0.0575 0.43146 0.0
H133 H 0.23046 0.03403 0.67811 0.0
Co134 Co 0.5433 1.01028 1.01079 0.0
C135 C 0.52697 0.9177 0.08379 0.0
Co136 Co 0.58675 1.01084 0.07923 0.0
C137 C 0.51923 1.0097 0.90601 0.0
C138 C 0.45935 0.97512 0.95825 0.0
N139 N 0.5056 1.00214 0.95521 0.0
N140 N 0.48406 0.98615 0.87878 0.0
C141 C 0.44657 0.96441 0.91179 0.0
H142 H 0.55525 0.02948 0.89097 0.0
H143 H 0.43754 0.96118 0.99265 0.0
C144 C 0.60378 0.10233 1.00767 0.0
N145 N 0.62303 0.01732 0.1362 0.0
C146 C 0.6034 0.01991 0.18221 0.0
C147 C 0.67334 0.03056 0.13904 0.0
N148 N 0.63911 0.03553 0.21302 0.0
C149 C 0.6833 0.0421 0.18637 0.0
C150 C 0.6415 0.97342 1.00352 0.0
O151 O 0.57088 0.07973 0.98203 0.0
O152 O 0.61438 0.07949 0.0507 0.0
O153 O 0.64344 0.98151 0.04904 0.0
O154 O 0.60052 0.98163 0.98054 0.0
O155 O 0.55975 0.94161 0.10811 0.0
H156 H 0.70035 0.03555 0.10776 0.0
H157 H 0.56321 0.01462 0.19204 0.0
O158 O 0.51597 0.94046 0.04084 0.0
O159 O 0.48667 0.03972 0.03992 0.0
O160 O 0.52919 0.04117 0.10826 0.0
C161 C 0.48879 0.05005 0.08452 0.0
H162 H 0.41269 0.94119 0.90294 0.0
H163 H 0.71925 0.05791 0.19906 0.0
Co164 Co 0.61126 0.52297 0.52308 0.0
C165 C 0.52886 0.5348 0.46197 0.0
Co166 Co 0.53761 0.50241 0.56388 0.0
C167 C 0.71421 0.56914 0.50423 0.0
C168 C 0.68663 0.52961 0.44413 0.0
N169 N 0.67286 0.54188 0.4892 0.0
N170 N 0.75307 0.5739 0.47041 0.0
C171 C 0.73612 0.54933 0.43247 0.0
H172 H 0.71607 0.58469 0.53943 0.0
H173 H 0.66241 0.50737 0.42138 0.0
C174 C 0.61995 0.49021 0.62505 0.0
N175 N 0.47565 0.48167 0.59666 0.0
C176 C 0.43138 0.50361 0.58795 0.0
C177 C 0.46238 0.43271 0.6212 0.0
N178 N 0.39083 0.46868 0.60241 0.0
C179 C 0.41046 0.42433 0.62397 0.0
C180 C 0.57694 0.41834 0.5253 0.0
O181 O 0.64525 0.50813 0.58478 0.0
O182 O 0.57177 0.48376 0.62448 0.0
O183 O 0.53983 0.43316 0.54836 0.0
O184 O 0.61514 0.45121 0.51198 0.0
O185 O 0.50385 0.52097 0.50306 0.0
H186 H 0.48854 0.40304 0.63158 0.0
H187 H 0.42897 0.5425 0.56675 0.0
O188 O 0.57705 0.53749 0.46189 0.0
O189 O 0.60626 0.59495 0.53374 0.0
O190 O 0.53511 0.57196 0.57815 0.0
C191 C 0.56915 0.60754 0.55908 0.0
H192 H 0.75814 0.54568 0.3991 0.0
H193 H 0.38878 0.38707 0.63739 0.0
Co194 Co 0.08046 0.50523 1.02175 0.0
C195 C 0.9809 0.45548 0.03374 0.0
Co196 Co 0.04348 0.50625 0.0953 0.0
C197 C 0.09481 0.47254 0.92469 0.0
C198 C 0.14066 0.54367 0.93225 0.0
N199 N 0.10791 0.50551 0.95796 0.0
N200 N 0.11777 0.48904 0.8795 0.0
C201 C 0.14686 0.53353 0.88392 0.0
H202 H 0.06743 0.43836 0.93259 0.0
H203 H 0.15711 0.57808 0.94692 0.0
C204 C 0.14276 0.55756 0.08284 0.0
N205 N 1.01617 0.50813 0.15862 0.0
C206 C 1.02739 0.54667 0.18669 0.0
C207 C 0.98684 0.47054 0.18904 0.0
N208 N 1.00747 0.53427 0.23346 0.0
C209 C 0.98133 0.48665 0.23539 0.0
C210 C 0.09981 0.4179 0.09117 0.0
O211 O 0.14217 0.54103 0.04075 0.0
O212 O 0.10368 0.54735 0.11175 0.0
O213 O 0.07413 0.44193 0.11986 0.0
O214 O 0.10628 0.43784 0.0451 0.0
O215 O 0.98381 0.46583 0.07832 0.0
H216 H 0.97269 0.43278 0.17907 0.0
H217 H 0.05189 0.58228 0.17409 0.0
O218 O 1.0185 0.46956 1.0033 0.0
O219 O 0.05426 0.57236 0.99896 0.0
O220 O 1.01264 0.56971 0.07019 0.0
C221 C 1.02306 0.59255 1.02563 0.0
H222 H 0.16919 0.55792 0.8538 0.0
H223 H 0.96249 0.46401 0.2686 0.0
C224 C 0.17286 0.16631 0.37064 0.0
C225 C 0.15846 0.14453 0.32693 0.0
C226 C 0.09576 0.08119 0.37847 0.0
C227 C 0.10701 0.10606 0.4213 0.0
N228 N 0.15086 0.17797 0.45602 0.0
N229 N 0.10144 0.08576 0.28784 0.0
C230 C 0.14434 0.15002 0.41682 0.0
C231 C 0.11849 0.10326 0.33053 0.0
N232 N 0.21442 0.2022 0.36819 0.0
N233 N 0.06516 0.03491 0.38395 0.0
H234 H 0.11809 0.09952 0.25248 0.0
H235 H 0.06862 0.06051 0.2869 0.0
H236 H 0.04843 0.01709 0.41822 0.0
H237 H 0.0599 0.01164 0.35561 0.0
H238 H 0.2306 0.21521 0.39958 0.0
H239 H 0.23534 0.21592 0.335 0.0
H240 H 0.17333 0.21362 0.45362 0.0
H241 H 0.13014 0.16817 0.48986 0.0
C242 C 0.52317 0.95852 0.74985 0.0
C243 C 0.47418 0.95213 0.72945 0.0
C244 C 0.43873 0.98691 0.80053 0.0
C245 C 0.48459 0.9818 0.82605 0.0
N246 N 0.56861 0.95002 0.82701 0.0
N247 N 0.38307 0.94285 0.74794 0.0
C248 C 0.5268 0.9645 0.80133 0.0
C249 C 0.43108 0.96158 0.75817 0.0
N250 N 0.56598 0.95977 0.72047 0.0
N251 N 0.40205 0.01501 0.81731 0.0
H252 H 0.3758 0.91733 0.7217 0.0
H253 H 0.35149 0.94677 0.77047 0.0
H254 H 0.40787 0.03645 0.84707 0.0
H255 H 0.36888 0.02166 0.79784 0.0
H256 H 0.60229 0.96815 0.73338 0.0
H257 H 0.56477 0.95837 0.68207 0.0
H258 H 0.59819 0.93327 0.81068 0.0
H259 H 0.57116 0.94868 0.86558 0.0
C260 C 0.68048 0.49614 0.75124 0.0
C261 C 0.68382 0.44142 0.76801 0.0
C262 C 0.66113 0.42317 0.68391 0.0
C263 C 0.64629 0.47513 0.67221 0.0
N264 N 0.63742 0.5606 0.69679 0.0
N265 N 0.67502 0.35149 0.74931 0.0
C266 C 0.65483 0.51163 0.70639 0.0
C267 C 0.67402 0.40451 0.73387 0.0
N268 N 0.70328 0.53339 0.77682 0.0
N269 N 0.66358 0.3919 0.64722 0.0
H270 H 0.68567 0.33554 0.78484 0.0
H271 H 0.66195 0.32294 0.72769 0.0
H272 H 0.65541 0.40499 0.61004 0.0
H273 H 0.67863 0.35531 0.65257 0.0
H274 H 0.70469 0.57382 0.76395 0.0
H275 H 0.72684 0.5239 0.80677 0.0
H276 H 0.63841 0.5869 0.72285 0.0
H277 H 0.61794 0.57291 0.66453 0.0
C278 C 0.08327 0.58437 0.33555 0.0
C279 C 0.05933 0.63145 0.3396 0.0
C280 C 0.99507 0.60751 0.28038 0.0
C281 C 1.0206 0.56265 0.27416 0.0
N282 N 0.08371 0.5029 0.29917 0.0
N283 N 0.98331 0.6782 0.3286 0.0
C284 C 0.06289 0.54918 0.30327 0.0
C285 C 1.01229 0.64007 0.31605 0.0
N286 N 0.12616 0.57412 0.36165 0.0
N287 N 0.95538 0.6199 0.25044 0.0
H288 H 0.99344 0.70244 0.35515 0.0
H289 H 0.94648 0.68243 0.31653 0.0
H290 H 0.94075 0.59525 0.22563 0.0
H291 H 0.93892 0.65563 0.24798 0.0
H292 H 0.14908 0.54425 0.35644 0.0
H293 H 0.13991 0.59608 0.38888 0.0
H294 H 0.112 0.4876 0.32175 0.0
H295 H 0.07087 0.47775 0.27418 0.0
C296 C 0.37971 0.06449 0.17797 0.0
C297 C 0.35231 0.10318 0.14958 0.0
C298 C 0.42219 0.11668 0.085 0.0
C299 C 0.44384 0.0708 0.10881 0.0
N300 N 0.43899 0.99777 0.17657 0.0
N301 N 0.35084 0.17141 0.07826 0.0
C302 C 0.42186 0.04433 0.15531 0.0
C303 C 0.37486 0.13114 0.10387 0.0
N304 N 0.36603 0.04757 0.22712 0.0
N305 N 0.44801 0.14771 0.0455 0.0
H306 H 0.32008 0.18726 0.09356 0.0
H307 H 0.36062 0.18851 0.0416 0.0
H308 H 0.48291 0.13903 0.03153 0.0
H309 H 0.43741 0.18433 1.02923 0.0
H310 H 0.38731 0.02306 0.25113 0.0
H311 H 0.3369 0.06312 0.24538 0.0
H312 H 0.42086 0.97355 0.20723 0.0
H313 H 0.46838 0.98077 0.16056 0.0
C314 C 0.35264 0.9971 0.56563 0.0
C315 C 0.35905 0.94686 0.59333 0.0
C316 C 0.2677 0.93451 0.61483 0.0
C317 C 0.26365 0.98796 0.59518 0.0
N318 N 0.29963 0.07059 0.55017 0.0
N319 N 0.32279 0.86763 0.64647 0.0
C320 C 0.30526 0.01921 0.56928 0.0
C321 C 0.31636 0.91484 0.6175 0.0
N322 N 0.39233 0.02353 0.53666 0.0
N323 N 0.2248 0.90292 0.63158 0.0
H324 H 0.35733 0.85089 0.64954 0.0
H325 H 0.29446 0.84631 0.67029 0.0
H326 H 0.1889 0.91706 0.6313 0.0
H327 H 0.22407 0.8621 0.64155 0.0
H328 H 0.38977 0.05887 0.51282 0.0
H329 H 0.42708 1.00742 0.53357 0.0
H330 H 0.32944 0.09761 0.53497 0.0
H331 H 0.26481 0.08687 0.55163 0.0
C332 C 0.84239 0.42723 0.99935 0.0
C333 C 0.84617 0.3828 0.97417 0.0
C334 C 0.93589 0.38065 0.99652 0.0
C335 C 0.93364 0.42882 1.01626 0.0
N336 N 0.88645 0.50251 1.0296 0.0
N337 N 0.89786 0.32052 0.94336 0.0
C338 C 0.88722 0.45317 1.01626 0.0
C339 C 0.89326 0.36018 0.97151 0.0
N340 N 0.79571 0.44417 1.00775 0.0
N341 N 0.97837 0.35367 1.00289 0.0
H342 H 0.86752 0.30402 0.92497 0.0
H343 H 0.93252 0.30668 0.93506 0.0
H344 H 1.01014 0.36722 1.02124 0.0
H345 H 0.98042 0.31569 0.99413 0.0
H346 H 0.78974 0.47278 0.03043 0.0
H347 H 0.76216 0.42618 0.99576 0.0
H348 H 0.85526 0.52481 1.02475 0.0
H349 H 0.9184 0.52338 0.04146 0.0
C350 C 0.88772 0.59873 0.50934 0.0
C351 C 0.90281 0.64627 0.47674 0.0
C352 C 0.81663 0.64901 0.44519 0.0
C353 C 0.80307 0.59917 0.47413 0.0
N354 N 0.82564 0.52285 0.52896 0.0
N355 N 0.88422 0.71378 0.40904 0.0
C356 C 0.83858 0.57303 0.5051 0.0
C357 C 0.86791 0.67081 0.44344 0.0
N358 N 0.91994 0.57897 0.54502 0.0
N359 N 0.77988 0.67583 0.4204 0.0
H360 H 0.92144 0.73129 0.40687 0.0
H361 H 0.86202 0.7298 0.3802 0.0
H362 H 0.74199 0.66043 0.42123 0.0
H363 H 0.7859 0.71475 0.40259 0.0
H364 H 0.90936 0.54744 0.57316 0.0
H365 H 0.95632 0.59675 0.54901 0.0
H366 H 0.85131 0.4992 0.54798 0.0
H367 H 0.78973 0.50328 0.52651 0.0
C368 C 0.11003 0.27594 0.15813 0.0
C369 C 0.16295 0.27736 0.16782 0.0
C370 C 0.17474 0.3634 0.11295 0.0
C371 C 0.12134 0.36691 0.11208 0.0
N372 N 0.03729 0.32549 0.13606 0.0
N373 N 0.24359 0.33038 0.16245 0.0
C374 C 0.08874 0.32293 0.13566 0.0
C375 C 0.19483 0.32316 0.14717 0.0
N376 N 0.08043 0.22912 0.16781 0.0
N377 N 0.20673 0.39775 0.081 0.0
H378 H 0.25892 0.30431 0.19028 0.0
H379 H 0.26658 0.36544 0.15179 0.0
H380 H 0.19414 0.42735 0.05476 0.0
H381 H 0.24547 0.3934 0.07746 0.0
H382 H 0.04276 0.22465 0.15729 0.0
H383 H 0.09502 0.19339 0.18121 0.0
H384 H 1.01213 0.29748 0.15783 0.0
H385 H 1.01989 0.35697 0.11659 0.0
C386 C 0.66107 0.24543 0.99503 0.0
C387 C 0.70072 0.2449 0.95889 0.0
C388 C 0.67029 0.15418 0.94817 0.0
C389 C 0.63322 0.1531 0.9873 0.0
N390 N 0.59643 0.19527 0.05197 0.0
N391 N 0.74855 0.19686 0.90677 0.0
C392 C 0.62963 0.19805 1.01196 0.0
C393 C 0.70674 0.19871 0.93695 0.0
N394 N 0.65224 0.29176 1.01178 0.0
N395 N 0.67083 0.11265 0.92167 0.0
H396 H 0.77613 0.22862 0.89807 0.0
H397 H 0.75846 0.16261 0.89397 0.0
H398 H 0.64648 0.07827 0.92984 0.0
H399 H 0.69303 0.11357 0.88922 0.0
H400 H 0.62041 0.29636 0.03352 0.0
H401 H 0.67497 0.32699 1.00104 0.0
H402 H 0.59655 0.22393 0.07561 0.0
H403 H 0.57029 0.16276 0.06334 0.0
C404 C 0.99074 0.80792 0.55248 0.0
C405 C 1.0282 0.78984 0.52252 0.0
C406 C 0.07277 0.87812 0.50965 0.0
C407 C 1.02972 0.8985 0.52968 0.0
N408 N 0.94648 0.88132 0.57158 0.0
N409 N 0.1195 0.80111 0.51605 0.0
C410 C 0.98826 0.86306 0.55159 0.0
C411 C 0.07408 0.82273 0.5128 0.0
N412 N 0.96288 0.7725 0.58726 0.0
N413 N 0.11195 0.91133 0.48634 0.0
H414 H 0.12146 0.76097 0.52908 0.0
H415 H 0.15432 0.82386 0.51367 0.0
H416 H 0.11172 0.95241 0.48107 0.0
H417 H 0.1421 0.89756 0.46796 0.0
H418 H 0.93863 0.78358 0.61405 0.0
H419 H 0.96946 0.73251 0.59308 0.0
H420 H 0.91337 0.85701 0.58255 0.0
H421 H 0.9435 0.92084 0.57496 0.0
C422 C 0.51129 0.74014 0.5446 0.0
C423 C 0.54226 0.76759 0.5768 0.0
C424 C 0.59498 0.69271 0.5913 0.0
C425 C 0.56213 0.66381 0.56224 0.0
N426 N 0.48572 0.65756 0.51486 0.0
N427 N 0.60174 0.76104 0.64418 0.0
C428 C 0.5193 0.68685 0.53998 0.0
C429 C 0.58081 0.74143 0.60401 0.0
N430 N 0.47423 0.76496 0.5181 0.0
N431 N 0.63975 0.67384 0.60691 0.0
H432 H 0.58919 0.79358 0.65827 0.0
H433 H 0.62673 0.74084 0.66775 0.0
H434 H 0.65159 0.63833 0.59844 0.0
H435 H 0.66733 0.69597 0.62402 0.0
H436 H 0.45598 0.75037 0.48847 0.0
H437 H 0.46267 0.80142 0.52403 0.0
H438 H 0.45013 0.66892 0.5042 0.0
H439 H 0.49214 0.62027 0.50662 0.0
C440 C 0.92975 0.99999 0.7751 0.0
C441 C 0.9143 0.9448 0.78585 0.0
C442 C 0.95717 0.9328 0.70657 0.0
C443 C 0.96732 0.98833 0.69333 0.0
N444 N 0.95437 0.07554 0.71139 0.0
N445 N 0.90305 0.86132 0.75431 0.0
C446 C 0.95068 0.02215 0.72645 0.0
C447 C 0.9251 0.91198 0.74933 0.0
N448 N 0.92726 0.03101 0.81199 0.0
N449 N 0.97916 0.89963 0.67904 0.0
H450 H 0.8774 0.84542 0.78354 0.0
H451 H 0.9058 0.83726 0.72659 0.0
H452 H 1.00376 0.91345 0.64839 0.0
H453 H 0.97697 0.85877 0.68955 0.0
H454 H 0.94269 0.07018 0.80769 0.0
H455 H 0.91454 0.01632 0.84854 0.0
H456 H 0.93823 0.10182 0.73176 0.0
H457 H 0.96967 0.09305 0.6764 0.0
C458 C 0.61234 0.03807 0.34983 0.0
C459 C 0.61402 0.09346 0.35015 0.0
C460 C 0.62523 0.10955 0.25882 0.0
C461 C 0.62945 0.05485 0.25925 0.0
N462 N 0.62984 0.96682 0.30333 0.0
N463 N 0.62687 0.18275 0.30637 0.0
C464 C 0.62343 0.01893 0.30431 0.0
C465 C 0.62134 0.12952 0.30495 0.0
N466 N 0.59963 1.00407 0.39297 0.0
N467 N 0.62395 0.14206 0.21408 0.0
H468 H 0.6234 0.19896 0.33938 0.0
H469 H 0.63824 0.21078 0.27544 0.0
H470 H 0.62723 0.12856 0.17961 0.0
H471 H 0.61557 0.1813 0.2109 0.0
H472 H 0.5935 0.96327 0.39462 0.0
H473 H 0.59134 0.01709 0.42687 0.0
H474 H 0.63099 0.93886 0.33528 0.0
H475 H 0.6372 0.95211 0.27008 0.0
C476 C 0.49484 0.61075 0.33682 0.0
C477 C 0.4525 0.57778 0.32387 0.0
C478 C 0.46128 0.51617 0.40096 0.0
C479 C 0.50206 0.55 0.41494 0.0
N480 N 0.54764 0.63674 0.40299 0.0
N481 N 0.38447 0.51099 0.35416 0.0
C482 C 0.51607 0.59941 0.38483 0.0
C483 C 0.43218 0.53419 0.35923 0.0
N484 N 0.51536 0.65268 0.30338 0.0
N485 N 0.45155 0.46591 0.42592 0.0
H486 H 0.36021 0.52547 0.32638 0.0
H487 H 0.36667 0.48182 0.38131 0.0
H488 H 0.4732 0.45015 0.45545 0.0
H489 H 0.42524 0.43819 0.41393 0.0
H490 H 0.55023 0.67315 0.30824 0.0
H491 H 0.49926 0.66553 0.26943 0.0
H492 H 0.55452 0.67555 0.38506 0.0
H493 H 0.56281 0.63092 0.43854 0.0
C494 C 0.06118 0.46355 0.75742 0.0
C495 C 0.09691 0.43085 0.74107 0.0
C496 C 0.1416 0.43079 0.82003 0.0
C497 C 0.10888 0.46724 0.83407 0.0
N498 N 0.03966 0.52141 0.81705 0.0
N499 N 0.17288 0.38534 0.75461 0.0
C500 C 0.06898 0.48425 0.80311 0.0
C501 C 0.13748 0.4147 0.77196 0.0
N502 N 1.01953 0.47404 0.72954 0.0
N503 N 0.17614 0.41129 0.85333 0.0
H504 H 0.16991 0.37131 0.72043 0.0
H505 H 0.20648 0.37721 0.77245 0.0
H506 H 0.18028 0.42352 0.88836 0.0
H507 H 0.19814 0.38063 0.84802 0.0
H508 H 0.98947 0.49339 0.74142 0.0
H509 H 1.01322 0.46014 0.69554 0.0
H510 H 1.0132 0.53997 0.79421 0.0
H511 H 0.04387 0.53601 0.85101 0.0
C512 C 0.78091 0.97226 0.95716 0.0
C513 C 0.77704 0.93237 0.92568 0.0
C514 C 0.68479 0.9176 0.94614 0.0
C515 C 0.68807 0.95931 0.976 0.0
N516 N 0.73823 0.0354 0.99783 0.0
N517 N 0.72391 0.8737 0.88295 0.0
C518 C 0.73594 0.98904 0.97827 0.0
C519 C 0.72846 0.90724 0.9179 0.0
N520 N 0.82786 0.99383 0.96761 0.0
N521 N 0.64056 0.88594 0.94655 0.0
H522 H 0.75501 0.8642 0.86269 0.0
H523 H 0.68913 0.85879 0.87094 0.0
H524 H 0.60807 0.89178 0.96654 0.0
H525 H 0.63712 0.85131 0.93056 0.0
H526 H 0.83379 0.01804 0.99514 0.0
H527 H 0.86139 0.9846 0.95115 0.0
H528 H 0.77069 0.06172 0.99549 0.0
H529 H 0.70638 0.05078 1.01142 0.0
C530 C 0.719 0.08324 0.52665 0.0
C531 C 0.71041 0.13189 0.49711 0.0
C532 C 0.80174 0.15608 0.48622 0.0
C533 C 0.8101 0.10486 0.51013 0.0
N534 N 0.78061 0.02462 0.56339 0.0
N535 N 0.74069 0.22013 0.46059 0.0
C536 C 0.76979 0.07032 0.53443 0.0
C537 C 0.75111 0.17053 0.48139 0.0
N538 N 0.67842 0.04841 0.54415 0.0
N539 N 0.84238 0.1893 0.46602 0.0
H540 H 0.70349 0.23084 0.45717 0.0
H541 H 0.76816 0.25143 0.45003 0.0
H542 H 0.87973 0.17946 0.47063 0.0
H543 H 0.83951 0.22573 0.44413 0.0
H544 H 0.68128 1.01 0.56179 0.0
H545 H 0.64097 0.05813 0.54029 0.0
H546 H 0.75371 0.99842 0.58475 0.0
H547 H 0.81778 0.01442 0.56841 0.0
C548 C 0.23422 0.6655 0.12434 0.0
C549 C 0.27843 0.6379 0.13374 0.0
C550 C 0.23159 0.5572 0.11435 0.0
C551 C 0.18951 0.58581 0.09957 0.0
N552 N 0.15404 0.66974 0.08187 0.0
N553 N 0.32247 0.56102 0.12398 0.0
C554 C 0.19185 0.64087 0.10183 0.0
C555 C 0.27814 0.58487 0.12426 0.0
N556 N 0.23144 0.71389 0.13917 0.0
N557 N 0.22625 0.5033 0.12214 0.0
H558 H 0.35773 0.58069 0.12917 0.0
H559 H 0.32467 0.52386 0.11319 0.0
H560 H 0.1913 0.4821 0.11938 0.0
H561 H 0.25453 0.48036 0.1373 0.0
H562 H 0.19823 0.7332 0.13793 0.0
H563 H 0.26089 0.73266 0.15695 0.0
H564 H 0.1559 0.71084 0.07822 0.0
H565 H 0.12302 0.65284 0.06469 0.0
C566 C 0.25201 0.4311 0.60801 0.0
C567 C 0.23579 0.45752 0.56173 0.0
C568 C 0.32308 0.49418 0.54157 0.0
C569 C 0.33805 0.47224 0.59009 0.0
N570 N 0.31027 0.43784 0.675 0.0
N571 N 0.25407 0.53135 0.49521 0.0
C572 C 0.30015 0.44716 0.62529 0.0
C573 C 0.27053 0.49541 0.5324 0.0
N574 N 0.22432 0.38816 0.6339 0.0
N575 N 0.35751 0.50863 0.50267 0.0
H576 H 0.21559 0.53554 0.48945 0.0
H577 H 0.27868 0.5611 0.47483 0.0
H578 H 0.39531 0.50034 0.50458 0.0
H579 H 0.34665 0.52157 0.46629 0.0
H580 H 0.23882 0.36506 0.66453 0.0
H581 H 0.19016 0.37188 0.62207 0.0
H582 H 0.28239 0.42215 0.70224 0.0
H583 H 0.34471 0.45158 0.68889 0.0
C584 C 0.95457 0.72042 1.01563 0.0
C585 C 0.94064 0.72701 0.96452 0.0
C586 C 0.98043 0.64617 0.9536 0.0
C587 C 0.99682 0.64042 1.00402 0.0
N588 N 1.01095 0.68202 0.07808 0.0
N589 N 0.9601 0.70793 0.88168 0.0
C590 C 0.98728 0.68051 0.03365 0.0
C591 C 0.96017 0.69383 0.93245 0.0
N592 N 0.93595 0.75158 0.04741 0.0
N593 N 0.98038 0.60505 0.92659 0.0
H594 H 0.94915 0.74436 0.86493 0.0
H595 H 0.97736 0.68673 0.85688 0.0
H596 H 0.98954 0.56737 0.94148 0.0
H597 H 0.96474 0.60649 0.89128 0.0
H598 H 0.93908 0.74401 0.08617 0.0
H599 H 0.91502 0.78349 0.03536 0.0
H600 H 1.00936 0.71316 0.09873 0.0
H601 H 0.0367 0.65529 0.09179 0.0
C602 C 0.43461 0.81835 0.16592 0.0
C603 C 0.42807 0.77633 0.13727 0.0
C604 C 0.4894 0.8253 0.07407 0.0
C605 C 0.49912 0.86537 0.10517 0.0
N606 N 0.49301 0.88639 0.19007 0.0
N607 N 0.45772 0.73471 0.06893 0.0
C608 C 0.47559 0.8579 0.15395 0.0
C609 C 0.45765 0.77842 0.09249 0.0
N610 N 0.4009 0.82121 0.20428 0.0
N611 N 0.51144 0.83123 1.02722 0.0
H612 H 0.43572 0.69946 0.08152 0.0
H613 H 0.48281 0.73176 0.03944 0.0
H614 H 0.54011 0.86072 1.01481 0.0
H615 H 0.50019 0.80772 1.0003 0.0
H616 H 0.40109 0.8539 0.22318 0.0
H617 H 0.36945 0.79378 0.21332 0.0
H618 H 0.47934 0.87831 0.22713 0.0
H619 H 0.5248 0.91346 0.18554 0.0
C620 C 0.07816 0.25166 0.65473 0.0
C621 C 0.05318 0.29419 0.62914 0.0
C622 C 1.01932 0.23603 0.57103 0.0
C623 C 0.04086 0.19259 0.5994 0.0
N624 N 0.0734 0.15732 0.6796 0.0
N625 N 0.98747 0.32159 0.5728 0.0
C626 C 0.0646 0.19975 0.64497 0.0
C627 C 1.01925 0.28442 0.59076 0.0
N628 N 0.1174 0.26046 0.68553 0.0
N629 N 1.00232 0.23295 0.52394 0.0
H630 H 0.98606 0.35702 0.58732 0.0
H631 H 0.95913 0.31463 0.54761 0.0
H632 H 1.00542 0.2002 0.50576 0.0
H633 H 0.99054 0.26544 0.5006 0.0
H634 H 0.13935 0.23055 0.70089 0.0
H635 H 0.13196 0.29795 0.69113 0.0
H636 H 0.08713 0.16143 0.71494 0.0
H637 H 0.06105 0.11853 0.67568 0.0
C638 C 0.57215 0.30227 0.45111 0.0
C639 C 0.54267 0.26378 0.48525 0.0
C640 C 0.55517 0.321 0.55012 0.0
C641 C 0.5731 0.3637 0.51262 0.0
N642 N 0.5922 0.39564 0.42465 0.0
N643 N 0.50838 0.23486 0.5693 0.0
C644 C 0.58085 0.35449 0.46246 0.0
C645 C 0.53557 0.2723 0.53567 0.0
N646 N 0.59191 0.28917 0.40795 0.0
N647 N 0.55729 0.3269 0.59958 0.0
H648 H 0.49595 0.19744 0.56133 0.0
H649 H 0.49598 0.24177 0.60443 0.0
H650 H 0.57133 0.36201 0.61148 0.0
H651 H 0.54968 0.29577 0.62882 0.0
H652 H 0.61712 0.31491 0.38388 0.0
H653 H 0.58832 0.2507 0.39957 0.0
H654 H 0.59273 0.39089 0.38694 0.0
H655 H 0.59575 0.43508 0.43005 0.0
loop_
_geom_bond_atom_site_label_1
_geom_bond_atom_site_label_2
_geom_bond_distance
_geom_bond_site_symmetry_2
_ccdc_geom_bond_type
H0 C7 0.929 . S
H1 C10 0.930 . S
H2 C12 0.929 . S
H3 C4 0.969 . S
C4 H3 0.969 . S
C4 O5 1.550 . S
C4 H6 0.973 . S
O5 C4 1.550 . S
O5 C11 1.412 . S
H6 C4 0.973 . S
C7 H0 0.929 . S
C7 C8 1.400 . S
C7 C9 1.364 . S
C8 C7 1.400 . S
C8 C12 1.377 . S
C9 C7 1.364 . S
C9 C10 1.374 . S
C10 H1 0.930 . S
C10 C9 1.374 . S
C10 C11 1.383 . S
C11 O5 1.412 . S
C11 C10 1.383 . S
C11 C12 1.394 . S
C12 H2 0.929 . S
C12 C8 1.377 . S
C12 C11 1.394 . S
H13 C20 0.929 . S
H14 C23 0.930 . S
H15 C25 0.929 . S
H16 C17 0.969 . S
C17 H16 0.969 . S
C17 O18 1.550 . S
C17 H19 0.973 . S
O18 C17 1.550 . S
O18 C24 1.412 . S
H19 C17 0.973 . S
C20 H13 0.929 . S
C20 C21 1.400 . S
C20 C22 1.364 . S
C21 C20 1.400 . S
C21 C25 1.377 . S
C22 C20 1.364 . S
C22 C23 1.374 . S
C23 H14 0.930 . S
C23 C22 1.374 . S
C23 C24 1.383 . S
C24 O18 1.412 . S
C24 C23 1.383 . S
C24 C25 1.394 . S
C25 H15 0.929 . S
C25 C21 1.377 . S
C25 C24 1.394 . S
H26 C33 0.929 . S
H27 C36 0.930 . S
H28 C38 0.929 . S
H29 C30 0.969 . S
C30 H29 0.969 . S
C30 O31 1.550 . S
C30 H32 0.973 . S
O31 C30 1.550 . S
O31 C37 1.412 . S
H32 C30 0.973 . S
C33 H26 0.929 . S
C33 C34 1.400 . S
C33 C35 1.364 . S
C34 C33 1.400 . S
C34 C38 1.377 . S
C35 C33 1.364 . S
C35 C36 1.374 . S
C36 H27 0.930 . S
C36 C35 1.374 . S
C36 C37 1.383 . S
C37 O31 1.412 . S
C37 C36 1.383 . S
C37 C38 1.394 . S
C38 H28 0.929 . S
C38 C34 1.377 . S
C38 C37 1.394 . S
H39 C46 0.929 . S
H40 C49 0.930 . S
H41 C51 0.929 1_455 S
H42 C43 0.969 . S
C43 H42 0.969 . S
C43 O44 1.550 . S
C43 H45 0.973 . S
O44 C43 1.550 . S
O44 C50 1.412 . S
H45 C43 0.973 . S
C46 H39 0.929 . S
C46 C47 1.400 . S
C46 C48 1.364 . S
C47 C46 1.400 . S
C47 C51 1.377 . S
C48 C46 1.364 . S
C48 C49 1.374 . S
C49 H40 0.930 . S
C49 C48 1.374 . S
C49 C50 1.383 . S
C50 O44 1.412 . S
C50 C49 1.383 . S
C50 C51 1.394 . S
C51 H41 0.929 1_655 S
C51 C47 1.377 . S
C51 C50 1.394 . S
H52 C59 0.929 . S
H53 C62 0.930 . S
H54 C64 0.929 . S
H55 C56 0.969 . S
C56 H55 0.969 . S
C56 O57 1.550 . S
C56 H58 0.973 . S
O57 C56 1.550 . S
O57 C63 1.412 . S
H58 C56 0.973 . S
C59 H52 0.929 . S
C59 C60 1.400 . S
C59 C61 1.364 . S
C60 C59 1.400 . S
C60 C64 1.377 . S
C61 C59 1.364 . S
C61 C62 1.374 . S
C62 H53 0.930 . S
C62 C61 1.374 . S
C62 C63 1.383 . S
C63 O57 1.412 . S
C63 C62 1.383 . S
C63 C64 1.394 . S
C64 H54 0.929 . S
C64 C60 1.377 . S
C64 C63 1.394 . S
H65 C72 0.929 . S
H66 C75 0.930 . S
H67 C77 0.929 . S
H68 C69 0.969 . S
C69 H68 0.969 . S
C69 O70 1.550 . S
C69 H71 0.973 . S
O70 C69 1.550 . S
O70 C76 1.412 . S
H71 C69 0.973 . S
C72 H65 0.929 . S
C72 C73 1.400 . S
C72 C74 1.364 . S
C73 C72 1.400 . S
C73 C77 1.377 . S
C74 C72 1.364 . S
C74 C75 1.374 . S
C75 H66 0.930 . S
C75 C74 1.374 . S
C75 C76 1.383 . S
C76 O70 1.412 . S
C76 C75 1.383 . S
C76 C77 1.394 . S
C77 H67 0.929 . S
C77 C73 1.377 . S
C77 C76 1.394 . S
H78 C85 0.929 . S
H79 C88 0.930 . S
H80 C90 0.929 . S
H81 C82 0.969 . S
C82 H81 0.969 . S
C82 O83 1.550 . S
C82 H84 0.973 . S
O83 C82 1.550 . S
O83 C89 1.412 . S
H84 C82 0.973 . S
C85 H78 0.929 . S
C85 C86 1.400 . S
C85 C87 1.364 . S
C86 C85 1.400 . S
C86 C90 1.377 . S
C87 C85 1.364 . S
C87 C88 1.374 . S
C88 H79 0.930 . S
C88 C87 1.374 . S
C88 C89 1.383 . S
C89 O83 1.412 . S
C89 C88 1.383 . S
C89 C90 1.394 . S
C90 H80 0.929 . S
C90 C86 1.377 . S
C90 C89 1.394 . S
H91 C98 0.929 . S
H92 C101 0.930 . S
H93 C103 0.929 . S
H94 C95 0.969 . S
C95 H94 0.969 . S
C95 O96 1.550 . S
C95 H97 0.973 . S
O96 C95 1.550 . S
O96 C102 1.412 . S
H97 C95 0.973 . S
C98 H91 0.929 . S
C98 C99 1.400 . S
C98 C100 1.364 . S
C99 C98 1.400 . S
C99 C103 1.377 . S
C100 C98 1.364 . S
C100 C101 1.374 . S
C101 H92 0.930 . S
C101 C100 1.374 . S
C101 C102 1.383 . S
C102 O96 1.412 . S
C102 C101 1.383 . S
C102 C103 1.394 . S
C103 H93 0.929 . S
C103 C99 1.377 . S
C103 C102 1.394 . S
Co104 N109 2.057 . S
Co104 O121 2.021 . S
Co104 O124 2.062 . S
Co104 O128 2.117 1_545 S
Co104 O129 2.020 . S
C105 O125 1.259 1_655 S
C105 O128 1.258 . S
Co106 N115 2.057 . S
Co106 O122 2.117 1_565 S
Co106 O123 2.020 1_565 S
Co106 O125 2.021 . S
Co106 O130 2.062 . S
C107 N109 1.316 . S
C107 N110 1.347 . S
C107 H112 0.931 . S
C108 N109 1.375 1_565 S
C108 C111 1.350 1_565 S
C108 H113 0.930 . S
N109 Co104 2.057 . S
N109 C107 1.316 . S
N109 C108 1.375 1_545 S
N110 C107 1.347 . S
N110 C111 1.373 . S
C111 C108 1.350 1_545 S
C111 N110 1.373 . S
C111 H132 0.931 1_545 S
H112 C107 0.931 . S
H113 C108 0.930 . S
C114 O121 1.259 1_455 S
C114 O122 1.258 . S
N115 Co106 2.057 . S
N115 C116 1.316 . S
N115 C117 1.375 1_565 S
C116 N115 1.316 . S
C116 N118 1.347 . S
C116 H127 0.931 . S
C117 N115 1.375 1_545 S
C117 C119 1.350 . S
C117 H126 0.930 . S
N118 C116 1.347 . S
N118 C119 1.373 1_565 S
C119 C117 1.350 . S
C119 N118 1.373 1_545 S
C119 H133 0.931 . S
C120 O123 1.256 . S
C120 O124 1.255 1_455 S
O121 Co104 2.021 . S
O121 C114 1.259 1_655 S
O122 Co106 2.117 1_545 S
O122 C114 1.258 . S
O123 Co106 2.020 1_545 S
O123 C120 1.256 . S
O124 Co104 2.062 . S
O124 C120 1.255 1_655 S
O125 C105 1.259 1_455 S
O125 Co106 2.021 . S
H126 C117 0.930 . S
H127 C116 0.931 . S
O128 Co104 2.117 1_565 S
O128 C105 1.258 . S
O129 Co104 2.020 . S
O129 C131 1.256 1_545 S
O130 Co106 2.062 . S
O130 C131 1.255 1_455 S
C131 O129 1.256 1_565 S
C131 O130 1.255 1_655 S
H132 C111 0.931 1_565 S
H133 C119 0.931 . S
Co134 N139 2.057 1_545 S
Co134 O151 2.021 . S
Co134 O154 2.062 1_545 S
Co134 O158 2.117 1_546 S
Co134 O159 2.020 . S
C135 O155 1.259 . S
C135 O158 1.258 . S
Co136 N145 2.057 . S
Co136 O152 2.117 . S
Co136 O153 2.022 . S
Co136 O155 2.021 1_545 S
Co136 O160 2.062 . S
C137 N139 1.316 . S
C137 N140 1.347 . S
C137 H142 0.931 1_565 S
C138 N139 1.375 . S
C138 C141 1.350 . S
C138 H143 0.930 . S
N139 Co134 2.057 1_565 S
N139 C137 1.316 . S
N139 C138 1.375 . S
N140 C137 1.347 . S
N140 C141 1.373 . S
C141 C138 1.350 . S
C141 N140 1.373 . S
C141 H162 0.931 . S
H142 C137 0.931 1_545 S
H143 C138 0.930 . S
C144 O151 1.259 . S
C144 O152 1.258 1_556 S
N145 Co136 2.057 . S
N145 C146 1.316 . S
N145 C147 1.375 . S
C146 N145 1.316 . S
C146 N148 1.347 . S
C146 H157 0.931 . S
C147 N145 1.375 . S
C147 C149 1.350 . S
C147 H156 0.930 . S
N148 C146 1.347 . S
N148 C149 1.373 . S
C149 C147 1.350 . S
C149 N148 1.373 . S
C149 H163 0.931 . S
C150 O153 1.254 1_566 S
C150 O154 1.255 . S
O151 Co134 2.021 . S
O151 C144 1.259 . S
O152 Co136 2.117 . S
O152 C144 1.258 1_554 S
O153 Co136 2.022 . S
O153 C150 1.254 1_544 S
O154 Co134 2.062 1_565 S
O154 C150 1.255 . S
O155 C135 1.259 . S
O155 Co136 2.021 1_565 S
H156 C147 0.930 . S
H157 C146 0.931 . S
O158 Co134 2.117 1_564 S
O158 C135 1.258 . S
O159 Co134 2.020 . S
O159 C161 1.256 1_556 S
O160 Co136 2.062 . S
O160 C161 1.255 . S
C161 O159 1.256 1_554 S
C161 O160 1.255 . S
H162 C141 0.931 . S
H163 C149 0.931 . S
Co164 N169 2.057 . S
Co164 O181 2.021 . S
Co164 O184 2.062 . S
Co164 O188 2.117 . S
Co164 O189 2.020 . S
C165 O185 1.259 . S
C165 O188 1.258 . S
Co166 N175 2.057 . S
Co166 O182 2.117 . S
Co166 O183 2.020 . S
Co166 O185 2.021 . S
Co166 O190 2.062 . S
C167 N169 1.316 . S
C167 N170 1.347 . S
C167 H172 0.931 . S
C168 N169 1.375 . S
C168 C171 1.350 . S
C168 H173 0.930 . S
N169 Co164 2.057 . S
N169 C167 1.316 . S
N169 C168 1.375 . S
N170 C167 1.347 . S
N170 C171 1.373 . S
C171 C168 1.350 . S
C171 N170 1.373 . S
C171 H192 0.931 . S
H172 C167 0.931 . S
H173 C168 0.930 . S
C174 O181 1.259 . S
C174 O182 1.258 . S
N175 Co166 2.057 . S
N175 C176 1.316 . S
N175 C177 1.375 . S
C176 N175 1.316 . S
C176 N178 1.347 . S
C176 H187 0.931 . S
C177 N175 1.375 . S
C177 C179 1.350 . S
C177 H186 0.930 . S
N178 C176 1.347 . S
N178 C179 1.373 . S
C179 C177 1.350 . S
C179 N178 1.373 . S
C179 H193 0.931 . S
C180 O183 1.256 . S
C180 O184 1.255 . S
O181 Co164 2.021 . S
O181 C174 1.259 . S
O182 Co166 2.117 . S
O182 C174 1.258 . S
O183 Co166 2.020 . S
O183 C180 1.256 . S
O184 Co164 2.062 . S
O184 C180 1.255 . S
O185 C165 1.259 . S
O185 Co166 2.021 . S
H186 C177 0.930 . S
H187 C176 0.931 . S
O188 Co164 2.117 . S
O188 C165 1.258 . S
O189 Co164 2.020 . S
O189 C191 1.256 . S
O190 Co166 2.062 . S
O190 C191 1.255 . S
C191 O189 1.256 . S
C191 O190 1.255 . S
H192 C171 0.931 . S
H193 C179 0.931 . S
Co194 N199 2.057 . S
Co194 O211 2.021 . S
Co194 O214 2.062 1_556 S
Co194 O218 2.117 1_455 S
Co194 O219 2.020 . S
C195 O215 1.259 . S
C195 O218 1.258 1_554 S
Co196 N205 2.057 . S
Co196 O212 2.117 . S
Co196 O213 2.020 . S
Co196 O215 2.021 1_455 S
Co196 O220 2.062 1_455 S
C197 N199 1.316 . S
C197 N200 1.347 . S
C197 H202 0.931 . S
C198 N199 1.375 . S
C198 C201 1.350 . S
C198 H203 0.930 1_455 S
N199 Co194 2.057 . S
N199 C197 1.316 . S
N199 C198 1.375 . S
N200 C197 1.347 . S
N200 C201 1.373 . S
C201 C198 1.350 . S
C201 N200 1.373 . S
C201 H222 0.931 . S
H202 C197 0.931 . S
H203 C198 0.930 1_655 S
C204 O211 1.259 1_554 S
C204 O212 1.258 . S
N205 Co196 2.057 . S
N205 C206 1.316 1_455 S
N205 C207 1.375 . S
C206 N205 1.316 1_655 S
C206 N208 1.347 . S
C206 H217 0.931 . S
C207 N205 1.375 . S
C207 C209 1.350 . S
C207 H216 0.930 . S
N208 C206 1.347 . S
N208 C209 1.373 1_655 S
C209 C207 1.350 . S
C209 N208 1.373 1_455 S
C209 H223 0.931 . S
C210 O213 1.256 . S
C210 O214 1.255 . S
O211 Co194 2.021 . S
O211 C204 1.259 1_556 S
O212 Co196 2.117 . S
O212 C204 1.258 . S
O213 Co196 2.020 . S
O213 C210 1.256 . S
O214 Co194 2.062 1_554 S
O214 C210 1.255 . S
O215 C195 1.259 . S
O215 Co196 2.021 1_655 S
H216 C207 0.930 . S
H217 C206 0.931 . S
O218 Co194 2.117 1_655 S
O218 C195 1.258 1_556 S
O219 Co194 2.020 . S
O219 C221 1.256 . S
O220 Co196 2.062 1_655 S
O220 C221 1.255 1_654 S
C221 O219 1.256 . S
C221 O220 1.255 1_456 S
H222 C201 0.931 . S
H223 C209 0.931 . S
C224 C225 1.363 . S
C224 C230 1.379 . S
C224 N232 1.356 . S
C225 C224 1.363 . S
C225 C231 1.363 . S
C226 C227 1.363 . S
C226 C231 1.379 . S
C226 N233 1.368 . S
C227 C226 1.363 . S
C227 C230 1.363 . S
N228 C230 1.356 . S
N228 H240 0.984 . S
N228 H241 0.985 . S
N229 C231 1.356 . S
N229 H234 0.984 . S
N229 H235 0.985 1_545 S
C230 C224 1.379 . S
C230 C227 1.363 . S
C230 N228 1.356 . S
C231 C225 1.363 . S
C231 C226 1.379 . S
C231 N229 1.356 . S
N232 C224 1.356 . S
N232 H238 0.984 . S
N232 H239 0.984 . S
N233 C226 1.368 . S
N233 H236 0.981 1_455 S
N233 H237 0.977 1_445 S
H234 N229 0.984 . S
H235 N229 0.985 1_565 S
H236 N233 0.981 1_655 S
H237 N233 0.977 1_665 S
H238 N232 0.984 . S
H239 N232 0.984 . S
H240 N228 0.984 . S
H241 N228 0.985 . S
C242 C243 1.363 . S
C242 C248 1.379 . S
C242 N250 1.356 . S
C243 C242 1.363 . S
C243 C249 1.363 . S
C244 C245 1.363 . S
C244 C249 1.379 . S
C244 N251 1.356 . S
C245 C244 1.363 . S
C245 C248 1.363 . S
N246 C248 1.356 1_545 S
N246 H258 0.984 . S
N246 H259 0.985 . S
N247 C249 1.356 . S
N247 H252 0.984 . S
N247 H253 0.985 . S
C248 C242 1.379 . S
C248 C245 1.363 . S
C248 N246 1.356 1_565 S
C249 C243 1.363 . S
C249 C244 1.379 . S
C249 N247 1.356 . S
N250 C242 1.356 . S
N250 H256 0.984 1_565 S
N250 H257 0.984 . S
N251 C244 1.356 . S
N251 H254 0.984 . S
N251 H255 0.985 . S
H252 N247 0.984 . S
H253 N247 0.985 . S
H254 N251 0.984 . S
H255 N251 0.985 . S
H256 N250 0.984 1_545 S
H257 N250 0.984 . S
H258 N246 0.984 . S
H259 N246 0.985 . S
C260 C261 1.363 . S
C260 C266 1.379 . S
C260 N268 1.356 . S
C261 C260 1.363 . S
C261 C267 1.363 . S
C262 C263 1.363 . S
C262 C267 1.379 . S
C262 N269 1.356 . S
C263 C262 1.363 . S
C263 C266 1.363 . S
N264 C266 1.356 . S
N264 H276 0.984 . S
N264 H277 0.985 . S
N265 C267 1.356 . S
N265 H270 0.984 . S
N265 H271 0.985 . S
C266 C260 1.379 . S
C266 C263 1.363 . S
C266 N264 1.356 . S
C267 C261 1.363 . S
C267 C262 1.379 . S
C267 N265 1.356 . S
N268 C260 1.356 . S
N268 H274 0.984 . S
N268 H275 0.984 . S
N269 C262 1.356 . S
N269 H272 0.984 . S
N269 H273 0.985 . S
H270 N265 0.984 . S
H271 N265 0.985 . S
H272 N269 0.984 . S
H273 N269 0.985 . S
H274 N268 0.984 . S
H275 N268 0.984 . S
H276 N264 0.984 . S
H277 N264 0.985 . S
C278 C279 1.363 . S
C278 C284 1.379 . S
C278 N286 1.356 . S
C279 C278 1.363 . S
C279 C285 1.363 . S
C280 C281 1.363 . S
C280 C285 1.379 . S
C280 N287 1.356 . S
C281 C280 1.363 . S
C281 C284 1.363 . S
N282 C284 1.356 . S
N282 H294 0.984 . S
N282 H295 0.985 . S
N283 C285 1.350 1_455 S
N283 H288 0.984 . S
N283 H289 0.992 . S
C284 C278 1.379 . S
C284 C281 1.363 . S
C284 N282 1.356 . S
C285 C279 1.363 . S
C285 C280 1.379 . S
C285 N283 1.350 1_655 S
N286 C278 1.356 . S
N286 H292 0.984 . S
N286 H293 0.984 . S
N287 C280 1.356 . S
N287 H290 0.984 . S
N287 H291 0.985 . S
H288 N283 0.984 . S
H289 N283 0.992 . S
H290 N287 0.984 . S
H291 N287 0.985 . S
H292 N286 0.984 . S
H293 N286 0.984 . S
H294 N282 0.984 . S
H295 N282 0.985 . S
C296 C297 1.363 . S
C296 C302 1.379 . S
C296 N304 1.356 . S
C297 C296 1.363 . S
C297 C303 1.363 . S
C298 C299 1.363 . S
C298 C303 1.379 . S
C298 N305 1.356 1_554 S
C299 C298 1.363 . S
C299 C302 1.363 . S
N300 C302 1.347 1_565 S
N300 H312 0.993 . S
N300 H313 0.985 1_565 S
N301 C303 1.356 . S
N301 H306 0.984 . S
N301 H307 0.985 . S
C302 C296 1.379 . S
C302 C299 1.363 . S
C302 N300 1.347 1_545 S
C303 C297 1.363 . S
C303 C298 1.379 . S
C303 N301 1.356 . S
N304 C296 1.356 . S
N304 H310 0.984 1_545 S
N304 H311 0.984 . S
N305 C298 1.356 1_556 S
N305 H308 0.984 . S
N305 H309 0.985 . S
H306 N301 0.984 . S
H307 N301 0.985 . S
H308 N305 0.984 . S
H309 N305 0.985 . S
H310 N304 0.984 1_565 S
H311 N304 0.984 . S
H312 N300 0.993 . S
H313 N300 0.985 1_545 S
C314 C315 1.363 . S
C314 C320 1.379 . S
C314 N322 1.356 . S
C315 C314 1.363 . S
C315 C321 1.363 . S
C316 C317 1.363 . S
C316 C321 1.379 . S
C316 N323 1.356 . S
C317 C316 1.363 . S
C317 C320 1.363 . S
N318 C320 1.356 . S
N318 H330 0.984 1_565 S
N318 H331 0.985 . S
N319 C321 1.356 . S
N319 H324 0.984 . S
N319 H325 0.985 . S
C320 C314 1.379 . S
C320 C317 1.363 . S
C320 N318 1.356 . S
C321 C315 1.363 . S
C321 C316 1.379 . S
C321 N319 1.356 . S
N322 C314 1.356 . S
N322 H328 0.984 . S
N322 H329 0.984 . S
N323 C316 1.356 . S
N323 H326 0.984 . S
N323 H327 0.985 . S
H324 N319 0.984 . S
H325 N319 0.985 . S
H326 N323 0.984 . S
H327 N323 0.985 . S
H328 N322 0.984 . S
H329 N322 0.984 . S
H330 N318 0.984 1_545 S
H331 N318 0.985 . S
C332 C333 1.363 . S
C332 C338 1.379 . S
C332 N340 1.356 . S
C333 C332 1.363 . S
C333 C339 1.363 . S
C334 C335 1.363 . S
C334 C339 1.379 . S
C334 N341 1.356 1_556 S
C335 C334 1.363 . S
C335 C338 1.363 . S
N336 C338 1.356 . S
N336 H348 0.984 . S
N336 H349 0.985 . S
N337 C339 1.356 . S
N337 H342 0.984 . S
N337 H343 0.985 1_556 S
C338 C332 1.379 . S
C338 C335 1.363 . S
C338 N336 1.356 . S
C339 C333 1.363 . S
C339 C334 1.379 . S
C339 N337 1.356 . S
N340 C332 1.356 . S
N340 H346 0.984 . S
N340 H347 0.984 . S
N341 C334 1.356 1_554 S
N341 H344 0.984 . S
N341 H345 0.985 . S
H342 N337 0.984 . S
H343 N337 0.985 1_554 S
H344 N341 0.984 . S
H345 N341 0.985 . S
H346 N340 0.984 . S
H347 N340 0.984 . S
H348 N336 0.984 . S
H349 N336 0.985 . S
C350 C351 1.363 . S
C350 C356 1.379 . S
C350 N358 1.356 . S
C351 C350 1.363 . S
C351 C357 1.363 . S
C352 C353 1.363 . S
C352 C357 1.379 . S
C352 N359 1.356 . S
C353 C352 1.363 . S
C353 C356 1.363 . S
N354 C356 1.356 . S
N354 H366 0.984 . S
N354 H367 0.985 . S
N355 C357 1.356 . S
N355 H360 0.984 . S
N355 H361 0.985 . S
C356 C350 1.379 . S
C356 C353 1.363 . S
C356 N354 1.356 . S
C357 C351 1.363 . S
C357 C352 1.379 . S
C357 N355 1.356 . S
N358 C350 1.356 . S
N358 H364 0.984 . S
N358 H365 0.984 . S
N359 C352 1.356 . S
N359 H362 0.984 . S
N359 H363 0.985 . S
H360 N355 0.984 . S
H361 N355 0.985 . S
H362 N359 0.984 . S
H363 N359 0.985 . S
H364 N358 0.984 . S
H365 N358 0.984 . S
H366 N354 0.984 . S
H367 N354 0.985 . S
C368 C369 1.363 . S
C368 C374 1.379 . S
C368 N376 1.356 . S
C369 C368 1.363 . S
C369 C375 1.363 . S
C370 C371 1.363 . S
C370 C375 1.379 . S
C370 N377 1.356 . S
C371 C370 1.363 . S
C371 C374 1.363 . S
N372 C374 1.356 1_655 S
N372 H384 0.984 . S
N372 H385 0.985 . S
N373 C375 1.356 . S
N373 H378 0.984 . S
N373 H379 0.985 . S
C374 C368 1.379 . S
C374 C371 1.363 . S
C374 N372 1.356 1_455 S
C375 C369 1.363 . S
C375 C370 1.379 . S
C375 N373 1.356 . S
N376 C368 1.356 . S
N376 H382 0.984 1_455 S
N376 H383 0.984 . S
N377 C370 1.356 . S
N377 H380 0.984 . S
N377 H381 0.985 . S
H378 N373 0.984 . S
H379 N373 0.985 . S
H380 N377 0.984 . S
H381 N377 0.985 . S
H382 N376 0.984 1_655 S
H383 N376 0.984 . S
H384 N372 0.984 . S
H385 N372 0.985 . S
C386 C387 1.363 . S
C386 C392 1.379 . S
C386 N394 1.356 . S
C387 C386 1.363 . S
C387 C393 1.363 . S
C388 C389 1.363 . S
C388 C393 1.379 . S
C388 N395 1.356 . S
C389 C388 1.363 . S
C389 C392 1.363 . S
N390 C392 1.356 1_554 S
N390 H402 0.984 . S
N390 H403 0.985 . S
N391 C393 1.356 . S
N391 H396 0.984 . S
N391 H397 0.985 . S
C392 C386 1.379 . S
C392 C389 1.363 . S
C392 N390 1.356 1_556 S
C393 C387 1.363 . S
C393 C388 1.379 . S
C393 N391 1.356 . S
N394 C386 1.356 . S
N394 H400 0.984 1_556 S
N394 H401 0.984 . S
N395 C388 1.356 . S
N395 H398 0.984 . S
N395 H399 0.985 . S
H396 N391 0.984 . S
H397 N391 0.985 . S
H398 N395 0.984 . S
H399 N395 0.985 . S
H400 N394 0.984 1_554 S
H401 N394 0.984 . S
H402 N390 0.984 . S
H403 N390 0.985 . S
C404 C405 1.363 . S
C404 C410 1.379 . S
C404 N412 1.356 . S
C405 C404 1.363 . S
C405 C411 1.363 . S
C406 C407 1.361 1_455 S
C406 C411 1.379 1_455 S
C406 N413 1.358 . S
C407 C406 1.361 1_655 S
C407 C410 1.363 . S
N408 C410 1.356 . S
N408 H420 0.984 . S
N408 H421 0.985 . S
N409 C411 1.356 1_455 S
N409 H414 0.984 . S
N409 H415 0.985 . S
C410 C404 1.379 . S
C410 C407 1.363 . S
C410 N408 1.356 . S
C411 C405 1.363 . S
C411 C406 1.379 1_655 S
C411 N409 1.356 1_655 S
N412 C404 1.356 . S
N412 H418 0.984 . S
N412 H419 0.984 . S
N413 C406 1.358 . S
N413 H416 0.984 . S
N413 H417 0.985 . S
H414 N409 0.984 . S
H415 N409 0.985 . S
H416 N413 0.984 . S
H417 N413 0.985 . S
H418 N412 0.984 . S
H419 N412 0.984 . S
H420 N408 0.984 . S
H421 N408 0.985 . S
C422 C423 1.363 . S
C422 C428 1.379 . S
C422 N430 1.356 . S
C423 C422 1.363 . S
C423 C429 1.363 . S
C424 C425 1.363 . S
C424 C429 1.379 . S
C424 N431 1.356 . S
C425 C424 1.363 . S
C425 C428 1.363 . S
N426 C428 1.356 . S
N426 H438 0.984 . S
N426 H439 0.985 . S
N427 C429 1.356 . S
N427 H432 0.984 . S
N427 H433 0.985 . S
C428 C422 1.379 . S
C428 C425 1.363 . S
C428 N426 1.356 . S
C429 C423 1.363 . S
C429 C424 1.379 . S
C429 N427 1.356 . S
N430 C422 1.356 . S
N430 H436 0.984 . S
N430 H437 0.984 . S
N431 C424 1.356 . S
N431 H434 0.984 . S
N431 H435 0.985 . S
H432 N427 0.984 . S
H433 N427 0.985 . S
H434 N431 0.984 . S
H435 N431 0.985 . S
H436 N430 0.984 . S
H437 N430 0.984 . S
H438 N426 0.984 . S
H439 N426 0.985 . S
C440 C441 1.363 . S
C440 C446 1.379 . S
C440 N448 1.356 1_565 S
C441 C440 1.363 . S
C441 C447 1.363 . S
C442 C443 1.363 . S
C442 C447 1.379 . S
C442 N449 1.356 . S
C443 C442 1.363 . S
C443 C446 1.373 . S
N444 C446 1.348 1_545 S
N444 H456 0.984 . S
N444 H457 0.985 . S
N445 C447 1.356 . S
N445 H450 0.984 . S
N445 H451 0.985 . S
C446 C440 1.379 . S
C446 C443 1.373 . S
C446 N444 1.348 1_565 S
C447 C441 1.363 . S
C447 C442 1.379 . S
C447 N445 1.356 . S
N448 C440 1.356 1_545 S
N448 H454 0.984 . S
N448 H455 0.982 1_545 S
N449 C442 1.356 . S
N449 H452 0.984 1_655 S
N449 H453 0.985 1_655 S
H450 N445 0.984 . S
H451 N445 0.985 . S
H452 N449 0.984 1_455 S
H453 N449 0.985 1_455 S
H454 N448 0.984 . S
H455 N448 0.982 1_565 S
H456 N444 0.984 . S
H457 N444 0.985 . S
C458 C459 1.363 . S
C458 C464 1.379 . S
C458 N466 1.356 . S
C459 C458 1.363 . S
C459 C465 1.363 . S
C460 C461 1.363 . S
C460 C465 1.379 . S
C460 N467 1.356 . S
C461 C460 1.363 . S
C461 C464 1.363 . S
N462 C464 1.356 . S
N462 H474 0.984 1_545 S
N462 H475 0.985 . S
N463 C465 1.356 . S
N463 H468 0.984 . S
N463 H469 0.985 . S
C464 C458 1.379 . S
C464 C461 1.363 . S
C464 N462 1.356 . S
C465 C459 1.363 . S
C465 C460 1.379 . S
C465 N463 1.356 . S
N466 C458 1.356 . S
N466 H472 0.984 . S
N466 H473 0.984 . S
N467 C460 1.356 . S
N467 H470 0.984 . S
N467 H471 0.985 . S
H468 N463 0.984 . S
H469 N463 0.985 . S
H470 N467 0.984 . S
H471 N467 0.985 . S
H472 N466 0.984 . S
H473 N466 0.984 . S
H474 N462 0.984 1_565 S
H475 N462 0.985 . S
C476 C477 1.363 . S
C476 C482 1.379 . S
C476 N484 1.356 . S
C477 C476 1.363 . S
C477 C483 1.363 . S
C478 C479 1.363 . S
C478 C483 1.379 . S
C478 N485 1.356 . S
C479 C478 1.363 . S
C479 C482 1.363 . S
N480 C482 1.356 . S
N480 H492 0.984 . S
N480 H493 0.985 . S
N481 C483 1.356 . S
N481 H486 0.984 . S
N481 H487 0.985 . S
C482 C476 1.379 . S
C482 C479 1.363 . S
C482 N480 1.356 . S
C483 C477 1.363 . S
C483 C478 1.379 . S
C483 N481 1.356 . S
N484 C476 1.356 . S
N484 H490 0.984 . S
N484 H491 0.984 . S
N485 C478 1.356 . S
N485 H488 0.984 . S
N485 H489 0.985 . S
H486 N481 0.984 . S
H487 N481 0.985 . S
H488 N485 0.984 . S
H489 N485 0.985 . S
H490 N484 0.984 . S
H491 N484 0.984 . S
H492 N480 0.984 . S
H493 N480 0.985 . S
C494 C495 1.363 . S
C494 C500 1.379 . S
C494 N502 1.356 . S
C495 C494 1.363 . S
C495 C501 1.363 . S
C496 C497 1.363 . S
C496 C501 1.379 . S
C496 N503 1.356 . S
C497 C496 1.363 . S
C497 C500 1.363 . S
N498 C500 1.356 . S
N498 H510 0.984 . S
N498 H511 0.985 . S
N499 C501 1.356 . S
N499 H504 0.984 . S
N499 H505 0.985 . S
C500 C494 1.379 . S
C500 C497 1.363 . S
C500 N498 1.356 . S
C501 C495 1.363 . S
C501 C496 1.379 . S
C501 N499 1.356 . S
N502 C494 1.356 . S
N502 H508 0.984 1_455 S
N502 H509 0.984 . S
N503 C496 1.356 . S
N503 H506 0.984 . S
N503 H507 0.985 . S
H504 N499 0.984 . S
H505 N499 0.985 . S
H506 N503 0.984 . S
H507 N503 0.985 . S
H508 N502 0.984 1_655 S
H509 N502 0.984 . S
H510 N498 0.984 . S
H511 N498 0.985 . S
C512 C513 1.363 . S
C512 C518 1.379 . S
C512 N520 1.356 . S
C513 C512 1.363 . S
C513 C519 1.363 . S
C514 C515 1.363 . S
C514 C519 1.379 . S
C514 N521 1.356 1_556 S
C515 C514 1.363 . S
C515 C518 1.363 . S
N516 C518 1.356 1_545 S
N516 H528 0.984 . S
N516 H529 0.985 . S
N517 C519 1.356 . S
N517 H522 0.984 . S
N517 H523 0.985 1_556 S
C518 C512 1.379 . S
C518 C515 1.363 . S
C518 N516 1.356 1_565 S
C519 C513 1.363 . S
C519 C514 1.379 . S
C519 N517 1.356 . S
N520 C512 1.356 . S
N520 H526 0.984 1_565 S
N520 H527 0.984 . S
N521 C514 1.356 1_554 S
N521 H524 0.984 . S
N521 H525 0.985 . S
H522 N517 0.984 . S
H523 N517 0.985 1_554 S
H524 N521 0.984 . S
H525 N521 0.985 . S
H526 N520 0.984 1_545 S
H527 N520 0.984 . S
H528 N516 0.984 . S
H529 N516 0.985 . S
C530 C531 1.363 . S
C530 C536 1.379 . S
C530 N538 1.356 . S
C531 C530 1.363 . S
C531 C537 1.363 . S
C532 C533 1.363 . S
C532 C537 1.379 . S
C532 N539 1.356 . S
C533 C532 1.363 . S
C533 C536 1.363 . S
N534 C536 1.356 . S
N534 H546 0.984 1_545 S
N534 H547 0.985 . S
N535 C537 1.356 . S
N535 H540 0.984 . S
N535 H541 0.985 . S
C536 C530 1.379 . S
C536 C533 1.363 . S
C536 N534 1.356 . S
C537 C531 1.363 . S
C537 C532 1.379 . S
C537 N535 1.356 . S
N538 C530 1.356 . S
N538 H544 0.984 . S
N538 H545 0.984 . S
N539 C532 1.356 . S
N539 H542 0.984 . S
N539 H543 0.985 . S
H540 N535 0.984 . S
H541 N535 0.985 . S
H542 N539 0.984 . S
H543 N539 0.985 . S
H544 N538 0.984 . S
H545 N538 0.984 . S
H546 N534 0.984 1_565 S
H547 N534 0.985 . S
C548 C549 1.363 . S
C548 C554 1.379 . S
C548 N556 1.356 . S
C549 C548 1.363 . S
C549 C555 1.363 . S
C550 C551 1.363 . S
C550 C555 1.379 . S
C550 N557 1.356 . S
C551 C550 1.363 . S
C551 C554 1.363 . S
N552 C554 1.356 . S
N552 H564 0.984 . S
N552 H565 0.985 . S
N553 C555 1.356 . S
N553 H558 0.984 . S
N553 H559 0.985 . S
C554 C548 1.379 . S
C554 C551 1.363 . S
C554 N552 1.356 . S
C555 C549 1.363 . S
C555 C550 1.379 . S
C555 N553 1.356 . S
N556 C548 1.356 . S
N556 H562 0.984 . S
N556 H563 0.984 . S
N557 C550 1.356 . S
N557 H560 0.984 . S
N557 H561 0.985 . S
H558 N553 0.984 . S
H559 N553 0.985 . S
H560 N557 0.984 . S
H561 N557 0.985 . S
H562 N556 0.984 . S
H563 N556 0.984 . S
H564 N552 0.984 . S
H565 N552 0.985 . S
C566 C567 1.363 . S
C566 C572 1.379 . S
C566 N574 1.356 . S
C567 C566 1.363 . S
C567 C573 1.363 . S
C568 C569 1.363 . S
C568 C573 1.379 . S
C568 N575 1.356 . S
C569 C568 1.363 . S
C569 C572 1.363 . S
N570 C572 1.356 . S
N570 H582 0.984 . S
N570 H583 0.985 . S
N571 C573 1.356 . S
N571 H576 0.984 . S
N571 H577 0.985 . S
C572 C566 1.379 . S
C572 C569 1.363 . S
C572 N570 1.356 . S
C573 C567 1.363 . S
C573 C568 1.379 . S
C573 N571 1.356 . S
N574 C566 1.356 . S
N574 H580 0.984 . S
N574 H581 0.984 . S
N575 C568 1.356 . S
N575 H578 0.984 . S
N575 H579 0.985 . S
H576 N571 0.984 . S
H577 N571 0.985 . S
H578 N575 0.984 . S
H579 N575 0.985 . S
H580 N574 0.984 . S
H581 N574 0.984 . S
H582 N570 0.984 . S
H583 N570 0.985 . S
C584 C585 1.363 1_554 S
C584 C590 1.380 . S
C584 N592 1.356 . S
C585 C584 1.363 1_556 S
C585 C591 1.363 . S
C586 C587 1.363 . S
C586 C591 1.379 . S
C586 N593 1.356 . S
C587 C586 1.363 . S
C587 C590 1.364 1_556 S
N588 C590 1.354 1_455 S
N588 H600 0.984 . S
N588 H601 0.985 . S
N589 C591 1.356 . S
N589 H594 0.984 . S
N589 H595 0.985 . S
C590 C584 1.380 . S
C590 C587 1.364 1_554 S
C590 N588 1.354 1_655 S
C591 C585 1.363 . S
C591 C586 1.379 . S
C591 N589 1.356 . S
N592 C584 1.356 . S
N592 H598 0.984 1_655 S
N592 H599 0.984 . S
N593 C586 1.356 . S
N593 H596 0.984 . S
N593 H597 0.985 . S
H594 N589 0.984 . S
H595 N589 0.985 . S
H596 N593 0.984 . S
H597 N593 0.985 . S
H598 N592 0.984 1_455 S
H599 N592 0.984 . S
H600 N588 0.984 . S
H601 N588 0.985 . S
C602 C603 1.363 . S
C602 C608 1.379 . S
C602 N610 1.356 . S
C603 C602 1.363 . S
C603 C609 1.363 . S
C604 C605 1.363 . S
C604 C609 1.379 . S
C604 N611 1.356 . S
C605 C604 1.363 . S
C605 C608 1.363 . S
N606 C608 1.356 . S
N606 H618 0.984 . S
N606 H619 0.985 . S
N607 C609 1.356 . S
N607 H612 0.984 . S
N607 H613 0.985 1_554 S
C608 C602 1.379 . S
C608 C605 1.363 . S
C608 N606 1.356 . S
C609 C603 1.363 . S
C609 C604 1.379 . S
C609 N607 1.356 . S
N610 C602 1.356 . S
N610 H616 0.984 . S
N610 H617 0.984 . S
N611 C604 1.356 . S
N611 H614 0.984 . S
N611 H615 0.985 1_554 S
H612 N607 0.984 . S
H613 N607 0.985 1_556 S
H614 N611 0.984 . S
H615 N611 0.985 1_556 S
H616 N610 0.984 . S
H617 N610 0.984 . S
H618 N606 0.984 . S
H619 N606 0.985 . S
C620 C621 1.363 . S
C620 C626 1.379 . S
C620 N628 1.356 . S
C621 C620 1.363 . S
C621 C627 1.363 . S
C622 C623 1.363 . S
C622 C627 1.379 . S
C622 N629 1.356 1_455 S
C623 C622 1.363 . S
C623 C626 1.363 . S
N624 C626 1.356 . S
N624 H636 0.984 . S
N624 H637 0.985 . S
N625 C627 1.356 1_655 S
N625 H630 0.984 . S
N625 H631 0.985 . S
C626 C620 1.379 . S
C626 C623 1.363 . S
C626 N624 1.356 . S
C627 C621 1.363 . S
C627 C622 1.379 . S
C627 N625 1.356 1_455 S
N628 C620 1.356 . S
N628 H634 0.984 . S
N628 H635 0.984 . S
N629 C622 1.356 1_655 S
N629 H632 0.984 . S
N629 H633 0.985 . S
H630 N625 0.984 . S
H631 N625 0.985 . S
H632 N629 0.984 . S
H633 N629 0.985 . S
H634 N628 0.984 . S
H635 N628 0.984 . S
H636 N624 0.984 . S
H637 N624 0.985 . S
C638 C639 1.363 . S
C638 C644 1.379 . S
C638 N646 1.356 . S
C639 C638 1.363 . S
C639 C645 1.363 . S
C640 C641 1.363 . S
C640 C645 1.379 . S
C640 N647 1.356 . S
C641 C640 1.363 . S
C641 C644 1.363 . S
N642 C644 1.356 . S
N642 H654 0.984 . S
N642 H655 0.985 . S
N643 C645 1.356 . S
N643 H648 0.984 . S
N643 H649 0.985 . S
C644 C638 1.379 . S
C644 C641 1.363 . S
C644 N642 1.356 . S
C645 C639 1.363 . S
C645 C640 1.379 . S
C645 N643 1.356 . S
N646 C638 1.356 . S
N646 H652 0.984 . S
N646 H653 0.984 . S
N647 C640 1.356 . S
N647 H650 0.984 . S
N647 H651 0.985 . S
H648 N643 0.984 . S
H649 N643 0.985 . S
H650 N647 0.984 . S
H651 N647 0.985 . S
H652 N646 0.984 . S
H653 N646 0.984 . S
H654 N642 0.984 . S
H655 N642 0.985 . S
C225 C9 2.429 . S
C227 C120 2.449 . S
C243 C21 1.113 . S
C245 N140 1.101 . S
C263 C174 1.758 . S
C261 C30 1.732 . S
C279 C43 1.066 . S
C281 N208 1.128 . S
C299 C161 2.193 . S
C297 C4 2.186 . S
C317 N118 1.475 . S
C315 C22 1.514 . S
C335 C195 1.761 1_556 S
C333 C34 1.754 . S
C353 N170 1.017 . S
C351 C48 0.995 . S
C369 C8 1.835 . S
C371 C210 1.846 . S
C389 C144 1.792 . S
C387 C35 1.776 . S
C405 C47 1.443 . S
C407 C105 1.465 . S
C423 C17 1.265 . S
C425 C191 1.263 . S
C443 C131 2.163 . S
C441 C60 2.134 . S
C459 C74 1.322 . S
C461 N148 1.323 . S
C477 C82 1.608 . S
C479 C165 1.597 . S
C495 C100 1.536 . S
C497 N200 1.438 . S
C513 C61 2.511 . S
C515 C150 2.528 . S
C533 N110 1.152 . S
C531 C73 1.177 . S
C551 C204 2.082 . S
C549 C87 2.077 . S
C569 N178 0.818 . S
C567 C95 0.799 . S
C585 C56 1.797 . S
C587 C221 1.864 1_655 S
C605 C135 1.822 . S
C603 C86 1.784 . S
C623 C114 1.460 . S
C621 C99 1.424 . S
C639 C69 1.353 . S
C641 C180 1.358 . S
