# Generated by pormake.
# Topology zzz, (3,6)-cn, num edge types: 1
# Building blocks:
#     Node 0, Type 0, BuildingBlock: MIDCAF_clean_linker_0, # of connection points: 3
#     Node 1, Type 0, BuildingBlock: MIDCAF_clean_linker_0, # of connection points: 3
#     Node 2, Type 0, BuildingBlock: MIDCAF_clean_linker_0, # of connection points: 3
#     Node 3, Type 0, BuildingBlock: MIDCAF_clean_linker_0, # of connection points: 3
#     Node 4, Type 0, BuildingBlock: MIDCAF_clean_linker_0, # of connection points: 3
#     Node 5, Type 0, BuildingBlock: MIDCAF_clean_linker_0, # of connection points: 3
#     Node 6, Type 0, BuildingBlock: MIDCAF_clean_linker_0, # of connection points: 3
#     Node 7, Type 0, BuildingBlock: MIDCAF_clean_linker_0, # of connection points: 3
#     Node 8, Type 1, BuildingBlock: BETGAK_clean_sbu_0, # of connection points: 6
#     Node 9, Type 1, BuildingBlock: BETGAK_clean_sbu_0, # of connection points: 6
#     Node 10, Type 1, BuildingBlock: BETGAK_clean_sbu_0, # of connection points: 6
#     Node 11, Type 1, BuildingBlock: BETGAK_clean_sbu_0, # of connection points: 6
#     Edge 12, Type (0, 1), BuildingBlock: TEMPAE_clean_linker_10, # of connection points: 2
#     Edge 13, Type (0, 1), BuildingBlock: TEMPAE_clean_linker_10, # of connection points: 2
#     Edge 14, Type (0, 1), BuildingBlock: TEMPAE_clean_linker_10, # of connection points: 2
#     Edge 15, Type (0, 1), BuildingBlock: TEMPAE_clean_linker_10, # of connection points: 2
#     Edge 16, Type (0, 1), BuildingBlock: TEMPAE_clean_linker_10, # of connection points: 2
#     Edge 17, Type (0, 1), BuildingBlock: TEMPAE_clean_linker_10, # of connection points: 2
#     Edge 18, Type (0, 1), BuildingBlock: TEMPAE_clean_linker_10, # of connection points: 2
#     Edge 19, Type (0, 1), BuildingBlock: TEMPAE_clean_linker_10, # of connection points: 2
#     Edge 20, Type (0, 1), BuildingBlock: TEMPAE_clean_linker_10, # of connection points: 2
#     Edge 21, Type (0, 1), BuildingBlock: TEMPAE_clean_linker_10, # of connection points: 2
#     Edge 22, Type (0, 1), BuildingBlock: TEMPAE_clean_linker_10, # of connection points: 2
#     Edge 23, Type (0, 1), BuildingBlock: TEMPAE_clean_linker_10, # of connection points: 2
#     Edge 24, Type (0, 1), BuildingBlock: TEMPAE_clean_linker_10, # of connection points: 2
#     Edge 25, Type (0, 1), BuildingBlock: TEMPAE_clean_linker_10, # of connection points: 2
#     Edge 26, Type (0, 1), BuildingBlock: TEMPAE_clean_linker_10, # of connection points: 2
#     Edge 27, Type (0, 1), BuildingBlock: TEMPAE_clean_linker_10, # of connection points: 2
#     Edge 28, Type (0, 1), BuildingBlock: TEMPAE_clean_linker_10, # of connection points: 2
#     Edge 29, Type (0, 1), BuildingBlock: TEMPAE_clean_linker_10, # of connection points: 2
#     Edge 30, Type (0, 1), BuildingBlock: TEMPAE_clean_linker_10, # of connection points: 2
#     Edge 31, Type (0, 1), BuildingBlock: TEMPAE_clean_linker_10, # of connection points: 2
#     Edge 32, Type (0, 1), BuildingBlock: TEMPAE_clean_linker_10, # of connection points: 2
#     Edge 33, Type (0, 1), BuildingBlock: TEMPAE_clean_linker_10, # of connection points: 2
#     Edge 34, Type (0, 1), BuildingBlock: TEMPAE_clean_linker_10, # of connection points: 2
#     Edge 35, Type (0, 1), BuildingBlock: TEMPAE_clean_linker_10, # of connection points: 2
# Relax obj value: 0.454
# Max RMSD: 0.270
# Mean RMSD: 0.254
data_MOF--net-zzz--node1-BETGAK_clean_sbu_0--node2-MIDCAF_clean_linker_0--edge1-TEMPAE_clean_linker_10
_symmetry_space_group_name_H-M    P1
_symmetry_Int_Tables_number       1
_symmetry_cell_setting            triclinic
loop_
_symmetry_equiv_pos_as_xyz
'x, y, z'
_cell_length_a     60.353581
_cell_length_b     60.383557
_cell_length_c     18.634938
_cell_angle_alpha  89.737433
_cell_angle_beta   89.906625
_cell_angle_gamma 90.012253
loop_
_atom_site_label
_atom_site_type_symbol
_atom_site_fract_x
_atom_site_fract_y
_atom_site_fract_z
_atom_type_partial_charge
C0 C 0.79043 0.51584 0.40747 0.0
C1 C 0.7999 0.49932 0.45158 0.0
C2 C 0.78849 0.47917 0.45972 0.0
C3 C 0.76931 0.47487 0.42021 0.0
H4 H 0.67637 0.4594 0.23472 0.0
H5 H 0.64262 0.46863 0.16967 0.0
H6 H 0.66734 0.53477 0.13235 0.0
H7 H 0.70135 0.52542 0.19892 0.0
H8 H 0.73393 0.44968 0.07808 0.0
H9 H 0.75842 0.42965 0.9966 0.0
H10 H 0.79555 0.40482 0.1777 0.0
H11 H 0.77151 0.42526 0.25902 0.0
H12 H 0.76525 0.52373 0.32942 0.0
H13 H 0.79881 0.53154 0.39988 0.0
H14 H 0.79502 0.46624 0.49416 0.0
H15 H 0.76192 0.45854 0.4239 0.0
N16 N 0.72619 0.49226 0.29641 0.0
N17 N 0.72159 0.46586 0.20449 0.0
N18 N 0.75325 0.46491 0.27586 0.0
C19 C 0.71371 0.48341 0.24209 0.0
C20 C 0.74131 0.45657 0.22097 0.0
C21 C 0.74605 0.48262 0.31375 0.0
C22 C 0.69144 0.49172 0.22218 0.0
C23 C 0.67429 0.47616 0.21473 0.0
C24 C 0.65505 0.48138 0.17676 0.0
C25 C 0.65245 0.50228 0.14446 0.0
C26 C 0.66882 0.51851 0.15665 0.0
C27 C 0.68823 0.51324 0.19514 0.0
C28 C 0.75125 0.4395 0.17466 0.0
C29 C 0.74682 0.43929 0.10062 0.0
C30 C 0.76076 0.42773 0.05392 0.0
C31 C 0.77913 0.41612 0.08092 0.0
C32 C 0.78172 0.41401 0.15555 0.0
C33 C 0.768 0.42575 0.20202 0.0
C34 C 0.76082 0.4906 0.3717 0.0
C35 C 0.77107 0.51148 0.36762 0.0
C36 C 0.99879 0.79435 0.43054 0.0
C37 C 0.01635 0.80442 0.46834 0.0
C38 C 0.03715 0.79397 0.46744 0.0
C39 C 0.04082 0.77514 0.4257 0.0
H40 H 1.00129 0.71983 0.12153 0.0
H41 H 0.99042 0.68715 0.05356 0.0
H42 H 1.00532 0.64576 0.23668 0.0
H43 H 0.01604 0.67881 0.30501 0.0
H44 H 0.06702 0.72613 0.10012 0.0
H45 H 0.09096 0.74502 0.01404 0.0
H46 H 0.10985 0.79178 0.17778 0.0
H47 H 0.08651 0.77277 0.26373 0.0
H48 H 0.98908 0.76883 0.35629 0.0
H49 H 0.98253 0.80193 0.42996 0.0
H50 H 0.05093 0.80082 0.49719 0.0
H51 H 0.05742 0.76833 0.42355 0.0
N52 N 0.01638 0.73308 0.30446 0.0
N53 N 0.04192 0.7247 0.21249 0.0
N54 N 0.0491 0.75391 0.29032 0.0
C55 C 0.02278 0.72012 0.24783 0.0
C56 C 0.05524 0.74145 0.23347 0.0
C57 C 0.02988 0.75003 0.32622 0.0
C58 C 0.00909 0.70191 0.21897 0.0
C59 C 1.0013 0.70385 0.14827 0.0
C60 C 0.99543 0.68506 0.10898 0.0
C61 C 0.9974 0.66375 0.13912 0.0
C62 C 1.00354 0.66192 0.21187 0.0
C63 C 0.00946 0.68084 0.25133 0.0
C64 C 0.07422 0.74844 0.1882 0.0
C65 C 0.07688 0.73997 0.11847 0.0
C66 C 0.09062 0.75078 0.06899 0.0
C67 C 0.10191 0.77021 0.08843 0.0
C68 C 0.10145 0.77686 0.16068 0.0
C69 C 0.08776 0.76608 0.21003 0.0
C70 C 0.02378 0.76597 0.3838 0.0
C71 C 1.00247 0.77529 0.38863 0.0
C72 C 0.69776 0.008 0.3728 0.0
C73 C 0.69633 0.99442 0.4341 0.0
C74 C 0.71456 0.9806 0.45037 0.0
C75 C 0.7334 0.98005 0.40531 0.0
H76 H 0.81655 0.02153 0.26991 0.0
H77 H 0.85462 0.02325 0.22493 0.0
H78 H 0.85316 0.95278 0.18689 0.0
H79 H 0.81534 0.95124 0.23272 0.0
H80 H 0.78258 0.00876 0.05165 0.0
H81 H 0.76805 0.01788 0.93233 0.0
H82 H 0.70698 0.98427 0.9852 0.0
H83 H 0.72112 0.97577 0.10448 0.0
H84 H 0.71628 0.01745 0.27979 0.0
H85 H 0.68408 0.01863 0.35762 0.0
H86 H 0.71411 0.96998 0.49735 0.0
H87 H 0.74681 0.96876 0.41779 0.0
N88 N 0.77385 0.98836 0.3019 0.0
N89 N 0.78172 0.98776 0.17788 0.0
N90 N 0.74511 0.99078 0.21666 0.0
C91 C 0.78885 0.98699 0.24666 0.0
C92 C 0.75999 0.9895 0.16241 0.0
C93 C 0.75169 0.99025 0.28641 0.0
C94 C 0.81311 0.98617 0.25638 0.0
C95 C 0.8249 0.00623 0.25617 0.0
C96 C 0.84656 0.00726 0.22873 0.0
C97 C 0.85689 0.98823 0.20066 0.0
C98 C 0.8459 0.96778 0.20822 0.0
C99 C 0.82424 0.9668 0.23542 0.0
C100 C 0.75278 0.99182 0.08736 0.0
C101 C 0.76625 1.00288 0.03694 0.0
C102 C 0.75806 0.00801 0.96873 0.0
C103 C 0.73656 1.00157 0.94949 0.0
C104 C 0.72379 0.98909 0.99822 0.0
C105 C 0.73173 0.98447 0.0668 0.0
C106 C 0.7342 0.99301 0.34243 0.0
C107 C 0.71628 0.00723 0.32774 0.0
C108 C 0.48589 0.72059 0.99948 0.0
C109 C 0.47506 0.73318 0.94645 0.0
C110 C 0.47277 0.75611 0.95594 0.0
C111 C 0.48085 0.76616 0.01824 0.0
H112 H 0.47359 0.82404 0.20345 0.0
H113 H 0.47678 0.86053 0.14978 0.0
H114 H 0.54819 0.85556 0.15949 0.0
H115 H 0.54462 0.81827 0.21037 0.0
H116 H 0.47184 0.72886 0.29358 0.0
H117 H 0.4735 0.69704 0.37241 0.0
H118 H 0.53589 0.72029 0.45723 0.0
H119 H 0.5344 0.75226 0.37477 0.0
H120 H 0.50146 0.72018 0.10202 0.0
H121 H 0.48752 0.7028 0.99449 0.0
H122 H 0.4644 0.76614 0.91598 0.0
H123 H 0.47845 0.7838 0.02524 0.0
N124 N 0.50101 0.78504 0.14747 0.0
N125 N 0.50773 0.78099 0.27172 0.0
N126 N 0.49861 0.75016 0.20077 0.0
C127 C 0.50635 0.79413 0.21156 0.0
C128 C 0.50368 0.75871 0.26584 0.0
C129 C 0.49735 0.76308 0.14153 0.0
C130 C 0.50883 0.81846 0.21236 0.0
C131 C 0.48995 0.83123 0.1975 0.0
C132 C 0.49186 0.85224 0.16605 0.0
C133 C 0.51279 0.86114 0.14861 0.0
C134 C 0.53176 0.84917 0.17032 0.0
C135 C 0.52978 0.82797 0.20122 0.0
C136 C 0.50295 0.74316 0.32797 0.0
C137 C 0.4857 0.72752 0.33028 0.0
C138 C 0.48663 0.70919 0.37606 0.0
C139 C 0.50487 0.70578 0.42164 0.0
C140 C 0.52168 0.72212 0.42235 0.0
C141 C 0.5207 0.74067 0.37601 0.0
C142 C 0.49091 0.7533 0.07232 0.0
C143 C 0.49368 0.73051 0.06162 0.0
C144 C 0.19856 0.52004 0.03147 0.0
C145 C 0.19779 0.50646 0.97048 0.0
C146 C 0.21636 0.49293 0.9559 0.0
C147 C 0.23491 0.49272 1.00215 0.0
H148 H 0.31327 0.46242 0.18174 0.0
H149 H 0.35061 0.46198 0.2314 0.0
H150 H 0.35718 0.53172 0.18399 0.0
H151 H 0.3196 0.53202 0.13526 0.0
H152 H 0.2835 0.52698 0.35126 0.0
H153 H 0.26942 0.53729 0.4702 0.0
H154 H 0.20803 0.50347 0.42419 0.0
H155 H 0.22171 0.49384 0.30559 0.0
H156 H 0.21629 0.53005 0.12478 0.0
H157 H 0.18461 0.53045 0.04555 0.0
H158 H 0.21646 0.48233 0.9092 0.0
H159 H 0.24862 0.48171 0.99075 0.0
N160 N 0.27456 0.50038 0.10655 0.0
N161 N 0.28236 0.50277 0.23034 0.0
N162 N 0.24596 0.50641 0.19052 0.0
C163 C 0.28946 0.49981 0.16214 0.0
C164 C 0.26074 0.50592 0.24502 0.0
C165 C 0.2525 0.50379 0.12122 0.0
C166 C 0.31362 0.49715 0.15324 0.0
C167 C 0.32323 0.47732 0.17775 0.0
C168 C 0.34461 0.47716 0.2072 0.0
C169 C 0.35683 0.49694 0.21336 0.0
C170 C 0.34812 0.51626 0.18142 0.0
C171 C 0.32675 0.51636 0.1518 0.0
C172 C 0.25351 0.50985 0.31926 0.0
C173 C 0.26715 0.52145 0.3674 0.0
C174 C 0.2592 0.52728 0.43531 0.0
C175 C 0.2378 0.52097 0.45655 0.0
C176 C 0.22476 0.50824 0.40972 0.0
C177 C 0.23244 0.50295 0.34149 0.0
C178 C 0.23509 0.50578 0.06452 0.0
C179 C 0.2168 0.51968 0.07751 0.0
C180 C 0.9926 0.2013 0.05995 0.0
C181 C 0.00661 0.20031 0.9997 0.0
C182 C 0.02006 0.21892 0.98444 0.0
C183 C 0.01985 0.2377 0.02951 0.0
H184 H 0.97747 0.32119 0.16445 0.0
H185 H 0.97666 0.35905 0.21046 0.0
H186 H 0.04705 0.3557 0.24983 0.0
H187 H 0.04769 0.31804 0.20308 0.0
H188 H 0.98677 0.28583 0.38114 0.0
H189 H 0.97737 0.27114 0.5004 0.0
H190 H 0.0109 0.21008 0.44832 0.0
H191 H 0.01974 0.22442 0.32967 0.0
H192 H 0.98197 0.21941 0.15182 0.0
H193 H 0.98224 0.18734 0.07453 0.0
H194 H 0.03096 0.21886 0.93825 0.0
H195 H 0.03088 0.2514 0.01786 0.0
N196 N 0.01073 0.27767 0.13256 0.0
N197 N 0.00911 0.28531 0.25658 0.0
N198 N 0.0065 0.24884 0.21715 0.0
C199 C 0.0112 0.29256 0.18804 0.0
C200 C 0.00691 0.26357 0.2716 0.0
C201 C 0.0083 0.25551 0.14763 0.0
C202 C 0.01273 0.3168 0.17861 0.0
C203 C 0.99297 0.32908 0.1787 0.0
C204 C 0.99245 0.35063 0.20669 0.0
C205 C 0.0117 0.36035 0.23545 0.0
C206 C 0.0319 0.3489 0.22798 0.0
C207 C 0.03236 0.32734 0.20023 0.0
C208 C 1.00376 0.25609 0.34617 0.0
C209 C 0.99248 0.26944 0.39603 0.0
C210 C 0.98715 0.26113 0.46413 0.0
C211 C 0.99361 0.23963 0.48376 0.0
C212 C 1.00605 0.22688 0.43517 0.0
C213 C 0.01089 0.23495 0.36688 0.0
C214 C 0.00644 0.23806 0.09132 0.0
C215 C 0.99256 0.21977 0.10483 0.0
C216 C 0.2925 1.00304 1.00339 0.0
C217 C 0.29869 0.01664 0.94488 0.0
C218 C 0.28444 0.03418 0.92583 0.0
C219 C 0.26591 0.03931 0.96799 0.0
H220 H 0.17954 0.02358 0.12514 0.0
H221 H 0.14637 0.01407 0.19635 0.0
H222 H 0.1847 0.01972 0.39076 0.0
H223 H 0.21734 0.02945 0.32022 0.0
H224 H 0.24025 0.08202 0.30928 0.0
H225 H 0.26894 0.09945 0.38125 0.0
H226 H 0.30964 0.107 0.19174 0.0
H227 H 0.28082 0.09058 0.11983 0.0
H228 H 0.27058 0.99852 0.0935 0.0
H229 H 0.30302 0.98947 0.02026 0.0
H230 H 0.2882 0.04471 0.88024 0.0
H231 H 0.25647 0.05408 0.95533 0.0
N232 N 0.2296 0.02736 0.1192 0.0
N233 N 0.22882 0.05607 0.20465 0.0
N234 N 0.2555 0.05643 0.11405 0.0
C235 C 0.21997 0.03714 0.17776 0.0
C236 C 0.24645 0.06595 0.17276 0.0
C237 C 0.24743 0.03731 0.08689 0.0
C238 C 0.20105 0.02706 0.21713 0.0
C239 C 0.1809 0.02219 0.18294 0.0
C240 C 0.1619 0.017 0.22376 0.0
C241 C 0.16286 0.01615 0.29937 0.0
C242 C 0.18335 0.01998 0.3328 0.0
C243 C 0.20209 0.02556 0.29234 0.0
C244 C 0.25878 0.08384 0.20948 0.0
C245 C 0.25488 0.08832 0.28239 0.0
C246 C 0.27137 0.09831 0.32378 0.0
C247 C 0.29202 0.10363 0.29294 0.0
C248 C 0.29414 0.10282 0.21785 0.0
C249 C 0.27762 0.09306 0.17645 0.0
C250 C 0.26075 0.02679 0.02951 0.0
C251 C 0.27372 0.00806 0.04518 0.0
C252 C 0.50677 0.28404 0.41697 0.0
C253 C 0.51859 0.27002 0.46377 0.0
C254 C 0.5238 0.24846 0.44169 0.0
C255 C 0.51743 0.24118 0.3735 0.0
H256 H 0.45082 0.20108 0.19082 0.0
H257 H 0.44654 0.16399 0.24189 0.0
H258 H 0.51544 0.15055 0.19766 0.0
H259 H 0.51958 0.18775 0.14713 0.0
H260 H 0.47407 0.26112 0.99845 0.0
H261 H 0.47477 0.29289 0.91478 0.0
H262 H 0.52183 0.32588 0.05203 0.0
H263 H 0.52154 0.29462 0.13288 0.0
H264 H 0.49231 0.28838 0.31334 0.0
H265 H 0.50285 0.3009 0.43191 0.0
H266 H 0.5331 0.23748 0.47649 0.0
H267 H 0.52184 0.22458 0.35698 0.0
N268 N 0.49588 0.2275 0.23869 0.0
N269 N 0.49067 0.236 0.11606 0.0
N270 N 0.50102 0.26368 0.19812 0.0
C271 C 0.49058 0.22093 0.17151 0.0
C272 C 0.49614 0.25766 0.12973 0.0
C273 C 0.50096 0.24876 0.25249 0.0
C274 C 0.48542 0.19719 0.16354 0.0
C275 C 0.46465 0.18968 0.18776 0.0
C276 C 0.46231 0.16848 0.21807 0.0
C277 C 0.48078 0.15442 0.22544 0.0
C278 C 0.50095 0.16108 0.19397 0.0
C279 C 0.50323 0.18223 0.16341 0.0
C280 C 0.49764 0.27522 0.07282 0.0
C281 C 0.48482 0.27502 0.00978 0.0
C282 C 0.48509 0.29335 0.96222 0.0
C283 C 0.49842 0.3121 0.97622 0.0
C284 C 0.51163 0.31178 0.03821 0.0
C285 C 0.51127 0.29376 0.08535 0.0
C286 C 0.50641 0.25563 0.32599 0.0
C287 C 0.50095 0.277 0.34866 0.0
La288 La 0.02416 0.99547 0.79803 0.0
La289 La 0.99232 0.0071 0.6917 0.0
C290 C 0.04608 0.97776 0.89809 0.0
C291 C 0.05959 0.95774 0.90481 0.0
C292 C 0.06942 0.95263 0.97071 0.0
C293 C 0.08112 0.93287 0.97926 0.0
C294 C 0.083 0.91784 0.92205 0.0
C295 C 0.07385 0.92349 0.8551 0.0
C296 C 0.06227 0.94335 0.8465 0.0
C297 C 0.04259 0.00958 0.67661 0.0
C298 C 1.00583 0.95793 0.69028 0.0
C299 C 0.97038 0.02752 0.59798 0.0
C300 C 0.96458 0.05128 0.59376 0.0
C301 C 0.94775 0.06032 0.63717 0.0
C302 C 0.94452 0.08324 0.64001 0.0
C303 C 0.95802 0.09753 0.59944 0.0
C304 C 0.97446 0.08836 0.55485 0.0
C305 C 0.97753 0.06555 0.55151 0.0
C306 C 0.9743 0.99253 0.81304 0.0
C307 C 0.01086 0.04456 0.79547 0.0
O308 O 0.05395 0.99304 0.85537 0.0
O309 O 0.02488 0.97452 0.88818 0.0
O310 O 0.04946 0.01438 0.74026 0.0
O311 O 0.02613 0.99683 0.68244 0.0
O312 O 0.01558 0.96259 0.75229 0.0
O313 O 0.9972 0.97392 0.65081 0.0
O314 O 0.96129 0.0162 0.65016 0.0
O315 O 0.99145 0.02286 0.59112 0.0
O316 O 0.9677 0.9873 0.74931 0.0
O317 O 0.99047 1.00568 0.80733 0.0
O318 O 1.00354 0.03978 0.73058 0.0
O319 O 0.01678 0.02838 0.83913 0.0
H320 H 0.06767 0.9637 0.01597 0.0
H321 H 0.08826 0.92908 0.03118 0.0
H322 H 0.07482 0.91216 0.81028 0.0
H323 H 0.05498 0.94723 0.79492 0.0
H324 H 0.93742 0.04978 0.67042 0.0
H325 H 0.93159 0.08977 0.67427 0.0
H326 H 0.9855 0.09886 0.52394 0.0
H327 H 0.99066 0.05913 0.51777 0.0
La328 La 0.50257 0.02063 0.73237 0.0
La329 La 0.48857 0.98848 0.61246 0.0
C330 C 0.52354 0.04164 0.8258 0.0
C331 C 0.54763 0.04299 0.83823 0.0
C332 C 0.55931 0.06202 0.81627 0.0
C333 C 0.58245 0.06211 0.81527 0.0
C334 C 0.59424 0.04331 0.83748 0.0
C335 C 0.58259 0.02464 0.86237 0.0
C336 C 0.55951 0.02444 0.86266 0.0
C337 C 0.48388 0.03871 0.61721 0.0
C338 C 0.53937 0.99754 0.62939 0.0
C339 C 0.47092 0.97931 0.49531 0.0
C340 C 0.45283 0.99221 0.46239 0.0
C341 C 0.43348 0.99641 0.50224 0.0
C342 C 0.41934 0.01355 0.48263 0.0
C343 C 0.42392 0.02645 0.42183 0.0
C344 C 0.44211 0.02115 0.37819 0.0
C345 C 0.45665 1.00423 0.3988 0.0
C346 C 0.49924 0.96565 0.72951 0.0
C347 C 0.4539 1.00553 0.7313 0.0
O348 O 0.51703 0.05037 0.76501 0.0
O349 O 0.51387 0.02254 0.83878 0.0
O350 O 0.48099 0.04558 0.68234 0.0
O351 O 0.49728 0.0227 0.61902 0.0
O352 O 0.53457 0.0098 0.68654 0.0
O353 O 0.52392 0.9878 0.5901 0.0
O354 O 0.46605 0.96886 0.55516 0.0
O355 O 0.48977 0.98996 0.49992 0.0
O356 O 0.4933 0.95667 0.66924 0.0
O357 O 0.49952 0.98626 0.71939 0.0
O358 O 0.45742 1.00024 0.66289 0.0
O359 O 0.47039 0.01127 0.77405 0.0
H360 H 0.55054 0.07654 0.79712 0.0
H361 H 0.59112 0.07676 0.79662 0.0
H362 H 0.59135 0.00986 0.87931 0.0
H363 H 0.55108 0.00946 0.87945 0.0
H364 H 0.42986 0.98732 0.55104 0.0
H365 H 0.40503 0.01706 0.51591 0.0
H366 H 0.44565 0.03071 0.33023 0.0
H367 H 0.47152 1.00143 0.36749 0.0
La368 La 0.48687 0.51406 0.73638 0.0
La369 La 0.51916 0.50041 0.63434 0.0
C370 C 0.46346 0.53525 0.82468 0.0
C371 C 0.4532 0.55731 0.81843 0.0
C372 C 0.43105 0.5606 0.83907 0.0
C373 C 0.42101 0.58132 0.82927 0.0
C374 C 0.43284 0.59871 0.7967 0.0
C375 C 0.45483 0.59525 0.77527 0.0
C376 C 0.46497 0.5749 0.78694 0.0
C377 C 0.46939 0.49932 0.61478 0.0
C378 C 0.50817 0.5498 0.628 0.0
C379 C 0.54089 0.47822 0.545 0.0
C380 C 0.54774 0.45476 0.54809 0.0
C381 C 0.56305 0.44708 0.59953 0.0
C382 C 0.56699 0.42437 0.60802 0.0
C383 C 0.55563 0.40895 0.5655 0.0
C384 C 0.54062 0.4168 0.51344 0.0
C385 C 0.53694 0.43939 0.50433 0.0
C386 C 0.53695 0.51557 0.75457 0.0
C387 C 0.49873 0.46481 0.74452 0.0
O388 O 0.45552 0.52039 0.7812 0.0
O389 O 0.48513 0.53467 0.82677 0.0
O390 O 0.46198 0.49489 0.67827 0.0
O391 O 0.48601 0.51179 0.6208 0.0
O392 O 0.49914 0.54582 0.69151 0.0
O393 O 0.51489 0.53321 0.58772 0.0
O394 O 0.55008 0.49157 0.59118 0.0
O395 O 0.51952 0.48154 0.5401 0.0
O396 O 0.54417 0.51971 0.69051 0.0
O397 O 0.52026 0.50301 0.74997 0.0
O398 O 0.50737 0.46858 0.68026 0.0
O399 O 0.4921 0.48159 0.78418 0.0
H400 H 0.42164 0.54722 0.86321 0.0
H401 H 0.40419 0.58388 0.84785 0.0
H402 H 0.46457 0.60867 0.75255 0.0
H403 H 0.48215 0.57312 0.77224 0.0
H404 H 0.57158 0.45851 0.63454 0.0
H405 H 0.57876 0.41893 0.64817 0.0
H406 H 0.53108 0.40546 0.48091 0.0
H407 H 0.52491 0.4448 0.46484 0.0
La408 La 0.9946 0.4904 0.75429 0.0
La409 La 1.00532 0.52414 0.65489 0.0
C410 C 0.97674 0.46505 0.84524 0.0
C411 C 0.95742 0.45046 0.84025 0.0
C412 C 0.94538 0.44913 0.77598 0.0
C413 C 0.92569 0.43702 0.77331 0.0
C414 C 0.91803 0.42575 0.83456 0.0
C415 C 0.93084 0.42612 0.89761 0.0
C416 C 0.95036 0.43849 0.90048 0.0
C417 C 0.00939 0.47445 0.63029 0.0
C418 C 0.95647 0.5099 0.65109 0.0
C419 C 0.02552 0.54842 0.56658 0.0
C420 C 0.04955 0.55302 0.56126 0.0
C421 C 0.05906 0.57091 0.59845 0.0
C422 C 0.0821 0.57327 0.60213 0.0
C423 C 0.09599 0.55791 0.56815 0.0
C424 C 0.08642 0.54041 0.52945 0.0
C425 C 0.06352 0.53809 0.52556 0.0
C426 C 0.98977 0.53977 0.77796 0.0
C427 C 0.04295 0.50486 0.7572 0.0
O428 O 0.99362 0.45941 0.80558 0.0
O429 O 0.97248 0.48624 0.84039 0.0
O430 O 0.01446 0.46687 0.69297 0.0
O431 O 0.99612 0.49037 0.63837 0.0
O432 O 0.96154 0.49942 0.71149 0.0
O433 O 0.97215 0.51952 0.61267 0.0
O434 O 0.01564 0.556 0.62377 0.0
O435 O 0.01933 0.52814 0.55248 0.0
O436 O 0.98407 0.54672 0.71485 0.0
O437 O 1.00361 0.52424 0.77071 0.0
O438 O 0.03816 0.51245 0.69238 0.0
O439 O 0.02673 0.49842 0.79976 0.0
H440 H 0.95083 0.45797 0.7285 0.0
H441 H 0.9161 0.43703 0.72421 0.0
H442 H 0.9251 0.41791 0.94601 0.0
H443 H 0.95954 0.43929 0.95032 0.0
H444 H 0.04872 0.58273 0.62645 0.0
H445 H 0.08902 0.58703 0.63173 0.0
H446 H 0.09667 0.52804 0.50366 0.0
H447 H 0.05682 0.52409 0.49661 0.0
C448 C 0.12326 0.02514 0.33169 0.0
C449 C 0.14256 0.01274 0.34441 0.0
C450 C 0.10516 0.02435 0.37968 0.0
C451 C 0.10621 0.01066 0.44164 0.0
C452 C 0.12521 0.99726 0.45265 0.0
C453 C 0.14313 0.99857 0.40434 0.0
C454 C 0.08537 0.03903 0.36592 0.0
C455 C 0.12701 0.98216 0.51717 0.0
C456 C 0.07513 0.02604 0.61276 0.0
C457 C 0.05722 0.01124 0.61246 0.0
C458 C 0.09065 0.02652 0.55635 0.0
C459 C 0.08845 0.01165 0.49814 0.0
C460 C 0.07 0.99708 0.49649 0.0
C461 C 0.05452 0.99715 0.55343 0.0
C462 C 0.10981 0.04256 0.56021 0.0
C463 C 0.06704 0.98085 0.43595 0.0
H464 H 0.12272 0.03629 0.28599 0.0
H465 H 0.15786 0.98876 0.41423 0.0
H466 H 0.06981 0.02933 0.36992 0.0
H467 H 0.08462 0.05213 0.40742 0.0
H468 H 0.0861 0.04709 0.31226 0.0
H469 H 0.14191 0.97139 0.51474 0.0
H470 H 0.12789 0.99223 0.56675 0.0
H471 H 0.11208 0.97151 0.52152 0.0
H472 H 0.07725 0.03705 0.65804 0.0
H473 H 0.04076 0.98561 0.55293 0.0
H474 H 0.11081 0.0525 0.5101 0.0
H475 H 0.12558 0.03325 0.56532 0.0
H476 H 0.10836 0.05402 0.60644 0.0
H477 H 0.06772 0.98958 0.38349 0.0
H478 H 0.0511 0.97172 0.43985 0.0
H479 H 0.0808 0.96867 0.43667 0.0
C480 C 0.49666 0.13123 0.32509 0.0
C481 C 0.47983 0.13465 0.27424 0.0
C482 C 0.49529 0.11412 0.37641 0.0
C483 C 0.47677 0.09968 0.3769 0.0
C484 C 0.45999 0.10266 0.32438 0.0
C485 C 0.46159 0.12023 0.27444 0.0
C486 C 0.51344 0.11197 0.43175 0.0
C487 C 0.43993 0.08787 0.32165 0.0
C488 C 0.48799 0.04705 0.48523 0.0
C489 C 0.47901 0.05245 0.55241 0.0
C490 C 0.48588 0.0615 0.42596 0.0
C491 C 0.475 0.08215 0.43425 0.0
C492 C 0.46471 0.08701 0.50078 0.0
C493 C 0.46676 0.0721 0.55882 0.0
C494 C 0.49605 0.05505 0.35511 0.0
C495 C 0.45246 0.1085 0.51176 0.0
H496 H 0.5106 0.14253 0.32665 0.0
H497 H 0.44846 0.12271 0.23559 0.0
H498 H 0.50636 0.11397 0.48634 0.0
H499 H 0.52095 0.09523 0.42919 0.0
H500 H 0.52676 0.12447 0.4241 0.0
H501 H 0.433 0.08701 0.26653 0.0
H502 H 0.44386 0.07088 0.34013 0.0
H503 H 0.42691 0.09479 0.35707 0.0
H504 H 0.49742 0.03192 0.47948 0.0
H505 H 0.45949 0.07629 0.61022 0.0
H506 H 0.51066 0.06569 0.34392 0.0
H507 H 0.48398 0.05773 0.31102 0.0
H508 H 0.50144 0.03746 0.35466 0.0
H509 H 0.46413 0.12261 0.50597 0.0
H510 H 0.4445 0.10941 0.56545 0.0
H511 H 0.43949 0.11049 0.47013 0.0
C512 C 0.39221 0.48069 0.26441 0.0
C513 C 0.37666 0.498 0.26168 0.0
C514 C 0.40929 0.48042 0.31607 0.0
C515 C 0.4108 0.49774 0.367 0.0
C516 C 0.39563 0.51561 0.36292 0.0
C517 C 0.37886 0.51554 0.31051 0.0
C518 C 0.42524 0.46119 0.31775 0.0
C519 C 0.3964 0.53435 0.41624 0.0
C520 C 0.43499 0.48652 0.55267 0.0
C521 C 0.45559 0.49724 0.54899 0.0
C522 C 0.42061 0.48606 0.49334 0.0
C523 C 0.42696 0.49644 0.42809 0.0
C524 C 0.44812 0.50661 0.42323 0.0
C525 C 0.46216 0.50693 0.48375 0.0
C526 C 0.39825 0.47508 0.5014 0.0
C527 C 0.45567 0.51769 0.35471 0.0
H528 H 0.39082 0.46713 0.22678 0.0
H529 H 0.36678 0.52881 0.31011 0.0
H530 H 0.44257 0.46728 0.31947 0.0
H531 H 0.42244 0.45122 0.3671 0.0
H532 H 0.4233 0.45021 0.27049 0.0
H533 H 0.38445 0.54774 0.40296 0.0
H534 H 0.39249 0.52793 0.4707 0.0
H535 H 0.4133 0.54156 0.41829 0.0
H536 H 0.42981 0.47892 0.60277 0.0
H537 H 0.47807 0.51521 0.48042 0.0
H538 H 0.39593 0.46248 0.45894 0.0
H539 H 0.38495 0.48761 0.49477 0.0
H540 H 0.39618 0.46693 0.55455 0.0
H541 H 0.4539 0.50618 0.30885 0.0
H542 H 0.47318 0.52329 0.35767 0.0
H543 H 0.44505 0.53228 0.34338 0.0
C544 C 0.99324 0.38232 0.33312 0.0
C545 C 0.01029 0.38051 0.28202 0.0
C546 C 0.99305 0.39945 0.3841 0.0
C547 C 0.01027 0.4154 0.38429 0.0
C548 C 0.02701 0.41429 0.33089 0.0
C549 C 0.0269 0.39683 0.28081 0.0
C550 C 0.97497 0.39976 0.44021 0.0
C551 C 0.04551 0.43108 0.32832 0.0
C552 C 1.00046 0.46671 0.5005 0.0
C553 C 0.0113 0.46075 0.56431 0.0
C554 C 1.00062 0.45253 0.44041 0.0
C555 C 0.01175 0.43185 0.44433 0.0
C556 C 0.0233 0.42618 0.50797 0.0
C557 C 0.02301 0.44069 0.56679 0.0
C558 C 0.98831 0.45939 0.37351 0.0
C559 C 0.03533 0.40435 0.51504 0.0
H560 H 0.98052 0.36967 0.3357 0.0
H561 H 0.04007 0.39573 0.24136 0.0
H562 H 0.98223 0.39638 0.49383 0.0
H563 H 0.96712 0.41635 0.44242 0.0
H564 H 0.96191 0.38723 0.42971 0.0
H565 H 0.05581 0.42945 0.27916 0.0
H566 H 0.03869 0.44813 0.33046 0.0
H567 H 0.05636 0.4289 0.37582 0.0
H568 H 0.99142 0.48221 0.49809 0.0
H569 H 0.03152 0.43599 0.61572 0.0
H570 H 0.9739 0.44827 0.36542 0.0
H571 H 0.99918 0.45773 0.32576 0.0
H572 H 0.98223 0.47672 0.37645 0.0
H573 H 0.0233 0.39051 0.51102 0.0
H574 H 0.04429 0.40281 0.56686 0.0
H575 H 0.04743 0.40243 0.47065 0.0
C576 C 0.89383 0.97366 0.15652 0.0
C577 C 0.8773 0.99005 0.15487 0.0
C578 C 0.91156 0.97385 0.10704 0.0
C579 C 0.91277 0.99071 0.05395 0.0
C580 C 0.89661 0.00774 0.05375 0.0
C581 C 0.87918 0.00722 0.10402 0.0
C582 C 0.92852 0.95552 0.10989 0.0
C583 C 0.89708 0.02598 0.99805 0.0
C584 C 0.96507 1.00121 0.94192 0.0
C585 C 0.95981 0.99049 0.87748 0.0
C586 C 0.95028 1.00088 1.00072 0.0
C587 C 0.92971 0.98965 0.99491 0.0
C588 C 0.9247 0.97827 0.93057 0.0
C589 C 0.93979 0.97877 0.87298 0.0
C590 C 0.9564 0.01308 0.06832 0.0
C591 C 0.90301 0.96611 0.92158 0.0
H592 H 0.89271 0.96042 0.19581 0.0
H593 H 0.86638 0.01977 0.10108 0.0
H594 H 0.92685 0.94492 0.06173 0.0
H595 H 0.94552 0.96253 0.10921 0.0
H596 H 0.9266 0.94494 0.15843 0.0
H597 H 0.88434 0.03887 0.00829 0.0
H598 H 0.91361 0.034 0.99674 0.0
H599 H 0.8941 0.01885 0.94414 0.0
H600 H 0.98052 0.01027 0.94587 0.0
H601 H 0.93562 0.97038 0.8235 0.0
H602 H 0.95463 1.002 0.11564 0.0
H603 H 0.94493 0.02722 0.07622 0.0
H604 H 0.97364 0.01953 0.06654 0.0
H605 H 0.90079 0.95385 0.9655 0.0
H606 H 0.90199 0.95734 0.86942 0.0
H607 H 0.88904 0.97801 0.92496 0.0
C608 C 0.53096 0.88208 0.04641 0.0
C609 C 0.51449 0.88103 0.09989 0.0
C610 C 0.53055 0.89847 0.9924 0.0
C611 C 0.51301 0.91405 0.99037 0.0
C612 C 0.49716 0.91402 0.04654 0.0
C613 C 0.49823 0.89773 0.10083 0.0
C614 C 0.54809 0.8981 0.93458 0.0
C615 C 0.4781 0.9302 0.04664 0.0
C616 C 0.51453 0.96228 0.85538 0.0
C617 C 0.50289 0.95324 0.79743 0.0
C618 C 0.51809 0.94982 0.91874 0.0
C619 C 0.50943 0.928 0.92454 0.0
C620 C 0.49739 0.91906 0.86624 0.0
C621 C 0.49451 0.93166 0.80347 0.0
C622 C 0.53144 0.95981 0.9788 0.0
C623 C 0.4875 0.89609 0.87 0.0
H624 H 0.54355 0.86934 0.0439 0.0
H625 H 0.48572 0.89761 0.1426 0.0
H626 H 0.54087 0.89147 0.88435 0.0
H627 H 0.55412 0.9151 0.92291 0.0
H628 H 0.56244 0.88758 0.94982 0.0
H629 H 0.46878 0.92988 0.0981 0.0
H630 H 0.48411 0.94729 0.03668 0.0
H631 H 0.4665 0.926 1.00259 0.0
H632 H 0.52124 0.97885 0.85059 0.0
H633 H 0.48539 0.92462 0.75898 0.0
H634 H 0.54679 0.95002 0.98696 0.0
H635 H 0.52195 0.95913 0.02978 0.0
H636 H 0.53609 0.97729 0.96758 0.0
H637 H 0.50086 0.88363 0.87661 0.0
H638 H 0.47786 0.89192 0.82117 0.0
H639 H 0.47641 0.89467 0.91735 0.0
C640 C 0.62933 0.48988 0.04052 0.0
C641 C 0.63392 0.506 0.09252 0.0
C642 C 0.61236 0.49281 0.98985 0.0
C643 C 0.59934 0.51232 0.99107 0.0
C644 C 0.60368 0.52861 0.04391 0.0
C645 C 0.62106 0.52536 0.09356 0.0
C646 C 0.60869 0.47516 0.93391 0.0
C647 C 0.59003 0.5495 0.04773 0.0
C648 C 0.57261 0.52684 0.81192 0.0
C649 C 0.55154 0.5172 0.81864 0.0
C650 C 0.58794 0.5262 0.86861 0.0
C651 C 0.58205 0.51591 0.93441 0.0
C652 C 0.56035 0.5072 0.94286 0.0
C653 C 0.54538 0.50784 0.88476 0.0
C654 C 0.61089 0.5355 0.8566 0.0
C655 C 0.55323 0.49639 0.0123 0.0
H656 H 0.63941 0.47504 0.03838 0.0
H657 H 0.62443 0.53785 0.1337 0.0
H658 H 0.59135 0.46913 0.93632 0.0
H659 H 0.61136 0.48225 0.87953 0.0
H660 H 0.61999 0.46079 0.94097 0.0
H661 H 0.59467 0.56 0.09413 0.0
H662 H 0.59222 0.55931 0.99774 0.0
H663 H 0.57218 0.54528 0.05198 0.0
H664 H 0.57748 0.53421 0.76115 0.0
H665 H 0.5291 0.50045 0.89048 0.0
H666 H 0.62317 0.52183 0.85749 0.0
H667 H 0.61533 0.54707 0.90033 0.0
H668 H 0.61236 0.54439 0.80448 0.0
H669 H 0.56232 0.48057 0.01965 0.0
H670 H 0.53517 0.49282 0.01337 0.0
H671 H 0.55739 0.50715 0.05846 0.0
C672 C 0.9835 0.62488 0.11476 0.0
C673 C 0.99529 0.64375 0.0924 0.0
C674 C 0.98149 0.60621 0.06982 0.0
C675 C 0.9918 0.60623 1.00131 0.0
C676 C 1.00409 0.62507 0.97931 0.0
C677 C 1.0056 0.64352 0.02477 0.0
C678 C 0.96805 0.5866 0.09512 0.0
C679 C 0.01562 0.62583 0.90733 0.0
C680 C 1.00437 0.55344 0.89623 0.0
C681 C 0.98839 0.55443 0.84172 0.0
C682 C 1.00513 0.56962 0.95056 0.0
C683 C 0.98932 0.58703 0.95105 0.0
C684 C 0.97237 0.58724 0.8985 0.0
C685 C 0.97222 0.57109 0.84431 0.0
C686 C 0.02361 0.56878 0.00493 0.0
C687 C 0.95498 0.60521 0.8973 0.0
H688 H 0.97548 0.62489 0.16684 0.0
H689 H 0.01517 0.65779 0.00755 0.0
H690 H 0.95386 0.58395 0.05835 0.0
H691 H 0.9783 0.57136 0.09381 0.0
H692 H 0.96156 0.58885 0.15043 0.0
H693 H 0.02519 0.64136 0.89925 0.0
H694 H 0.0271 0.61157 0.90222 0.0
H695 H 1.00324 0.62446 0.86365 0.0
H696 H 0.01698 0.54066 0.89443 0.0
H697 H 0.95976 0.57187 0.80253 0.0
H698 H 0.0169 0.57055 0.06005 0.0
H699 H 0.03511 0.58284 0.99545 0.0
H700 H 0.0332 0.55311 1.00188 0.0
H701 H 0.94752 0.6072 0.95134 0.0
H702 H 0.94156 0.60168 0.85824 0.0
H703 H 0.96279 0.62123 0.8825 0.0
C704 C 0.99842 0.21483 0.58905 0.0
C705 C 0.98459 0.2286 0.5484 0.0
C706 C 0.98969 0.19633 0.62468 0.0
C707 C 0.96672 0.19185 0.61901 0.0
C708 C 0.9524 0.2085 0.59256 0.0
C709 C 0.96156 0.22677 0.55636 0.0
C710 C 1.00543 0.17986 0.65804 0.0
C711 C 0.92765 0.20523 0.59142 0.0
C712 C 0.95877 0.13483 0.54237 0.0
C713 C 0.95576 0.12196 0.60422 0.0
C714 C 0.96118 0.15776 0.54643 0.0
C715 C 0.9597 0.16834 0.61414 0.0
C716 C 0.95419 0.15577 0.67588 0.0
C717 C 0.95257 0.13259 0.67042 0.0
C718 C 0.96679 0.17036 0.47837 0.0
C719 C 0.95101 0.1665 0.74811 0.0
H720 H 0.01624 0.21687 0.58513 0.0
H721 H 0.95072 0.23779 0.52662 0.0
H722 H 0.99997 0.17592 0.71342 0.0
H723 H 1.00539 0.16426 0.62674 0.0
H724 H 0.02268 0.18622 0.66026 0.0
H725 H 0.91888 0.2214 0.59151 0.0
H726 H 0.92293 0.19632 0.54179 0.0
H727 H 0.92203 0.19523 0.63814 0.0
H728 H 0.96026 0.12679 0.49068 0.0
H729 H 0.94997 0.12279 0.71857 0.0
H730 H 0.98318 0.1785 0.48392 0.0
H731 H 0.9543 0.18346 0.46829 0.0
H732 H 0.96739 0.15948 0.4305 0.0
H733 H 0.96713 0.16741 0.77632 0.0
H734 H 0.93952 0.15664 0.78221 0.0
H735 H 0.94446 0.18359 0.74285 0.0
C736 C 0.31475 0.0863 0.38875 0.0
C737 C 0.31249 0.10319 0.33727 0.0
C738 C 0.33566 0.07915 0.41109 0.0
C739 C 0.35479 0.0894 0.38212 0.0
C740 C 0.3526 0.10862 0.33903 0.0
C741 C 0.33138 0.11527 0.31664 0.0
C742 C 0.33717 0.05865 0.45774 0.0
C743 C 0.37261 0.12073 0.31021 0.0
C744 C 0.40613 0.06203 0.45607 0.0
C745 C 0.40942 0.04534 0.4051 0.0
C746 C 0.38978 0.07823 0.4459 0.0
C747 C 0.37605 0.07709 0.38463 0.0
C748 C 0.38047 0.06117 0.33065 0.0
C749 C 0.39733 0.04558 0.34134 0.0
C750 C 0.38639 0.09567 0.50255 0.0
C751 C 0.3662 0.05934 0.26441 0.0
H752 H 0.30039 0.0768 0.40539 0.0
H753 H 0.32976 0.12873 0.2783 0.0
H754 H 0.34275 0.04446 0.42465 0.0
H755 H 0.34946 0.06095 0.50117 0.0
H756 H 0.32098 0.05429 0.48249 0.0
H757 H 0.3686 0.13827 0.29757 0.0
H758 H 0.38656 0.12024 0.34892 0.0
H759 H 0.37823 0.11269 0.25996 0.0
H760 H 0.41594 0.06199 0.5048 0.0
H761 H 0.40008 0.03266 0.30207 0.0
H762 H 0.38314 0.11204 0.47743 0.0
H763 H 0.40099 0.09708 0.53846 0.0
H764 H 0.37177 0.09135 0.53588 0.0
H765 H 0.34914 0.05438 0.2801 0.0
H766 H 0.37271 0.04696 0.22581 0.0
H767 H 0.36506 0.07558 0.23675 0.0
C768 C 0.55074 0.2802 0.54024 0.0
C769 C 0.52772 0.2796 0.53032 0.0
C770 C 0.56044 0.29782 0.5778 0.0
C771 C 0.54673 0.31527 0.60192 0.0
C772 C 0.52356 0.31179 0.60646 0.0
C773 C 0.51428 0.29366 0.57101 0.0
C774 C 0.58531 0.29963 0.58067 0.0
C775 C 0.50827 0.329 0.63758 0.0
C776 C 0.56019 0.37515 0.64461 0.0
C777 C 0.55851 0.38469 0.57585 0.0
C778 C 0.55879 0.35204 0.65413 0.0
C779 C 0.55471 0.33845 0.59389 0.0
C780 C 0.55495 0.34796 0.524 0.0
C781 C 0.55749 0.3708 0.5161 0.0
C782 C 0.56072 0.34252 0.72883 0.0
C783 C 0.55076 0.33443 0.4572 0.0
H784 H 0.56127 0.26878 0.51119 0.0
H785 H 0.49642 0.29241 0.56614 0.0
H786 H 0.59149 0.30767 0.53088 0.0
H787 H 0.59067 0.30977 0.6271 0.0
H788 H 0.59301 0.28296 0.58446 0.0
H789 H 0.49069 0.32354 0.63778 0.0
H790 H 0.51317 0.33257 0.69358 0.0
H791 H 0.50949 0.34458 0.60597 0.0
H792 H 0.56142 0.38568 0.69137 0.0
H793 H 0.55739 0.37797 0.46266 0.0
H794 H 0.56601 0.32493 0.7282 0.0
H795 H 0.54448 0.34355 0.75641 0.0
H796 H 0.57274 0.35222 0.76106 0.0
H797 H 0.56379 0.32166 0.4509 0.0
H798 H 0.55058 0.34472 0.40762 0.0
H799 H 0.53456 0.32588 0.46146 0.0
C800 C 0.2138 0.51684 0.56387 0.0
C801 C 0.22714 0.53044 0.52082 0.0
C802 C 0.19534 0.52566 0.59917 0.0
C803 C 0.19041 0.54844 0.59039 0.0
C804 C 0.20673 0.56274 0.56146 0.0
C805 C 0.22501 0.5535 0.52592 0.0
C806 C 0.17926 0.51004 0.63514 0.0
C807 C 0.20295 0.58736 0.5565 0.0
C808 C 0.13322 0.55496 0.51233 0.0
C809 C 0.12045 0.55952 0.57311 0.0
C810 C 0.15613 0.55233 0.51713 0.0
C811 C 0.16676 0.55496 0.58447 0.0
C812 C 0.15425 0.56164 0.64491 0.0
C813 C 0.13109 0.56365 0.6387 0.0
C814 C 0.16864 0.54541 0.45044 0.0
C815 C 0.16498 0.56563 0.71675 0.0
H816 H 0.21607 0.49903 0.56206 0.0
H817 H 0.23571 0.56416 0.49423 0.0
H818 H 0.17484 0.5164 0.68896 0.0
H819 H 0.16386 0.50893 0.60287 0.0
H820 H 0.18621 0.49311 0.64147 0.0
H821 H 0.21894 0.59646 0.55397 0.0
H822 H 0.19354 0.59118 0.50684 0.0
H823 H 0.19318 0.59341 0.60296 0.0
H824 H 0.12511 0.55253 0.46108 0.0
H825 H 0.12129 0.56732 0.68595 0.0
H826 H 0.17643 0.529 0.45928 0.0
H827 H 0.18198 0.55747 0.43817 0.0
H828 H 0.15775 0.54423 0.4026 0.0
H829 H 0.16586 0.54983 0.74708 0.0
H830 H 0.15514 0.57749 0.74922 0.0
H831 H 0.18209 0.57209 0.71075 0.0
C832 C 0.12739 0.80038 0.04605 0.0
C833 C 0.1093 0.78636 0.03298 0.0
C834 C 0.12897 0.82103 0.01157 0.0
C835 C 0.11201 0.82763 0.96372 0.0
C836 C 0.09611 0.81196 0.94106 0.0
C837 C 0.09493 0.79143 0.97608 0.0
C838 C 0.14695 0.83689 0.03395 0.0
C839 C 0.07818 0.81806 0.88817 0.0
C840 C 0.0862 0.88362 0.99586 0.0
C841 C 0.09245 0.8955 0.93441 0.0
C842 C 0.0932 0.86182 0.00675 0.0
C843 C 0.10693 0.85154 0.95486 0.0
C844 C 0.11403 0.86367 0.89383 0.0
C845 C 0.1065 0.88551 0.88393 0.0
C846 C 0.08509 0.84954 0.07269 0.0
C847 C 0.12884 0.85351 0.83761 0.0
H848 H 0.13902 0.79621 0.08828 0.0
H849 H 0.08103 0.78065 0.96466 0.0
H850 H 0.15243 0.84727 0.98793 0.0
H851 H 0.14039 0.84809 0.07599 0.0
H852 H 0.16149 0.82795 0.05635 0.0
H853 H 0.06982 0.80316 0.86626 0.0
H854 H 0.06553 0.82839 0.91551 0.0
H855 H 0.08508 0.82789 0.84299 0.0
H856 H 0.07503 0.89111 0.03439 0.0
H857 H 0.11148 0.8947 0.83647 0.0
H858 H 0.09936 0.84313 0.10397 0.0
H859 H 0.07489 0.83512 0.05647 0.0
H860 H 0.07494 0.86017 0.10846 0.0
H861 H 0.13863 0.8664 0.809 0.0
H862 H 0.11846 0.84492 0.79733 0.0
H863 H 0.1404 0.84119 0.8612 0.0
C864 C 0.712 0.99799 0.84332 0.0
C865 C 0.72538 0.01135 0.88656 0.0
C866 C 0.69351 0.00701 0.80852 0.0
C867 C 0.68832 0.02961 0.81938 0.0
C868 C 0.70433 0.04378 0.85008 0.0
C869 C 0.72287 0.03441 0.88364 0.0
C870 C 0.67762 0.99171 0.77086 0.0
C871 C 0.69995 0.06818 0.85943 0.0
C872 C 0.63004 0.04835 0.77096 0.0
C873 C 0.61865 0.04275 0.83423 0.0
C874 C 0.65302 0.04497 0.76524 0.0
C875 C 0.66463 0.0359 0.82437 0.0
C876 C 0.65325 0.03144 0.88961 0.0
C877 C 0.63043 0.0349 0.8935 0.0
C878 C 0.66445 0.05 0.69495 0.0
C879 C 0.6649 0.02205 0.95483 0.0
H880 H 0.7144 0.98019 0.84395 0.0
H881 H 0.7335 0.04485 0.91599 0.0
H882 H 0.66298 0.98865 0.80568 0.0
H883 H 0.67169 0.99945 0.72036 0.0
H884 H 0.6854 0.97553 0.75809 0.0
H885 H 0.71567 0.07759 0.86498 0.0
H886 H 0.69041 0.07502 0.81358 0.0
H887 H 0.69003 0.07068 0.90897 0.0
H888 H 0.62083 0.0543 0.72484 0.0
H889 H 0.62162 0.03096 0.9427 0.0
H890 H 0.66546 0.03465 0.66268 0.0
H891 H 0.68159 0.05608 0.70332 0.0
H892 H 0.65511 0.0625 0.66322 0.0
H893 H 0.67134 1.00528 0.94261 0.0
H894 H 0.65375 0.02069 1.00214 0.0
H895 H 0.67918 0.03264 0.96971 0.0
C896 C 0.47565 0.70384 0.85393 0.0
C897 C 0.46441 0.72144 0.88617 0.0
C898 C 0.46398 0.68708 0.81898 0.0
C899 C 0.44057 0.68856 0.81397 0.0
C900 C 0.42976 0.70833 0.8346 0.0
C901 C 0.44181 0.72452 0.8718 0.0
C902 C 0.47649 0.66649 0.7969 0.0
C903 C 0.40519 0.71154 0.82453 0.0
C904 C 0.42534 0.63441 0.73369 0.0
C905 C 0.42443 0.62159 0.79659 0.0
C906 C 0.42643 0.65759 0.73757 0.0
C907 C 0.42793 0.66766 0.80569 0.0
C908 C 0.4235 0.65496 0.86835 0.0
C909 C 0.42148 0.63196 0.86275 0.0
C910 C 0.42861 0.671 0.6695 0.0
C911 C 0.42427 0.66508 0.94232 0.0
H912 H 0.4933 0.70195 0.86293 0.0
H913 H 0.43308 0.73843 0.89519 0.0
H914 H 0.47167 0.65241 0.83215 0.0
H915 H 0.47234 0.66191 0.74108 0.0
H916 H 0.49473 0.66867 0.80049 0.0
H917 H 0.40169 0.7289 0.80816 0.0
H918 H 0.39825 0.70019 0.78364 0.0
H919 H 0.39654 0.70862 0.87628 0.0
H920 H 0.42719 0.62631 0.68222 0.0
H921 H 0.42056 0.62196 0.91116 0.0
H922 H 0.44637 0.67366 0.65681 0.0
H923 H 0.42077 0.68751 0.67571 0.0
H924 H 0.42089 0.66231 0.62346 0.0
H925 H 0.4414 0.67064 0.95429 0.0
H926 H 0.41905 0.65319 0.98478 0.0
H927 H 0.4133 0.67976 0.94487 0.0
C928 C 0.79483 0.40012 0.96691 0.0
C929 C 0.79792 0.41073 0.03297 0.0
C930 C 0.81261 0.39765 0.91858 0.0
C931 C 0.83365 0.4064 0.93664 0.0
C932 C 0.83681 0.41672 1.00397 0.0
C933 C 0.81898 0.4186 0.05121 0.0
C934 C 0.80889 0.38591 0.84834 0.0
C935 C 0.85885 0.42668 0.02529 0.0
C936 C 0.89114 0.39629 0.87113 0.0
C937 C 0.8953 0.41664 0.8373 0.0
C938 C 0.86971 0.39082 0.89435 0.0
C939 C 0.8524 0.40638 0.88508 0.0
C940 C 0.85599 0.42544 0.842 0.0
C941 C 0.87747 0.4303 0.81824 0.0
C942 C 0.86632 0.36984 0.93721 0.0
C943 C 0.83803 0.44246 0.83021 0.0
H944 H 0.77852 0.39403 0.95289 0.0
H945 H 0.82131 0.42728 0.10146 0.0
H946 H 0.81471 0.39624 0.80272 0.0
H947 H 0.81871 0.37038 0.84755 0.0
H948 H 0.79117 0.3817 0.83984 0.0
H949 H 0.85836 0.43427 0.07946 0.0
H950 H 0.87191 0.41376 0.0252 0.0
H951 H 0.86379 0.43964 0.986 0.0
H952 H 0.90489 0.38547 0.88437 0.0
H953 H 0.88063 0.44599 0.79162 0.0
H954 H 0.84964 0.36276 0.92746 0.0
H955 H 0.86762 0.37363 0.99527 0.0
H956 H 0.87906 0.35722 0.92397 0.0
H957 H 0.8419 0.45351 0.78398 0.0
H958 H 0.8365 0.45286 0.87896 0.0
H959 H 0.82176 0.43447 0.82082 0.0
C960 C 0.02813 0.17056 0.93388 0.0
C961 C 0.00772 0.17931 0.95657 0.0
C962 C 0.02955 0.14938 0.90223 0.0
C963 C 0.01012 0.13646 0.8931 0.0
C964 C 0.98938 0.14564 0.91272 0.0
C965 C 0.98843 0.16685 0.94371 0.0
C966 C 0.05197 0.14047 0.88121 0.0
C967 C 0.9682 0.13266 0.90366 0.0
C968 C 0.009 0.08559 0.77071 0.0
C969 C 0.01146 0.06808 0.81998 0.0
C970 C 0.00914 0.10785 0.79327 0.0
C971 C 0.01145 0.11291 0.86715 0.0
C972 C 0.01407 0.09528 0.91702 0.0
C973 C 0.01419 0.07318 0.89288 0.0
C974 C 0.00684 0.12595 0.73788 0.0
C975 C 0.01634 0.09974 0.99631 0.0
H976 H 0.04318 0.17985 0.94369 0.0
H977 H 0.97249 0.17352 0.95941 0.0
H978 H 0.0563 0.12624 0.91634 0.0
H979 H 0.0516 0.1343 0.82524 0.0
H980 H 0.06521 0.15317 0.88575 0.0
H981 H 0.95326 0.14278 0.91534 0.0
H982 H 0.96692 0.12622 0.84816 0.0
H983 H 0.9683 0.11815 0.94045 0.0
H984 H 0.00702 0.08191 0.71419 0.0
H985 H 0.01603 0.05984 0.93152 0.0
H986 H 0.02243 0.13565 0.73512 0.0
H987 H 0.99348 0.13749 0.75368 0.0
H988 H 1.00315 0.11939 0.68359 0.0
H989 H 0.03061 0.1109 0.00601 0.0
H990 H 0.01875 0.08431 0.02805 0.0
H991 H 1.00128 0.10827 0.01629 0.0
C992 C 0.33007 0.99299 0.89612 0.0
C993 C 0.32078 0.014 0.90828 0.0
C994 C 0.35132 0.99064 0.86517 0.0
C995 C 0.36372 0.00971 0.84569 0.0
C996 C 0.35433 0.03091 0.8569 0.0
C997 C 0.33316 0.03278 0.88812 0.0
C998 C 0.36064 0.96771 0.85421 0.0
C999 C 0.36686 0.05173 0.83728 0.0
C1000 C 0.42695 0.007 0.83453 0.0
C1001 C 0.43077 1.00597 0.7602 0.0
C1002 C 0.40531 0.00776 0.86289 0.0
C1003 C 0.38682 0.00766 0.81604 0.0
C1004 C 0.39054 0.00648 0.74096 0.0
C1005 C 0.41238 1.0056 0.71407 0.0
C1006 C 0.40225 0.00894 0.94322 0.0
C1007 C 0.37142 0.00655 0.68884 0.0
H1008 H 0.32073 0.97833 0.91073 0.0
H1009 H 0.32656 0.04914 0.89851 0.0
H1010 H 0.36517 0.96537 0.79701 0.0
H1011 H 0.37601 0.96569 0.88614 0.0
H1012 H 0.34875 0.95453 0.87018 0.0
H1013 H 0.3569 0.06694 0.84629 0.0
H1014 H 0.38221 0.05283 0.86976 0.0
H1015 H 0.37193 0.05124 0.78005 0.0
H1016 H 0.44095 0.00718 0.8709 0.0
H1017 H 0.41504 1.00503 0.65667 0.0
H1018 H 0.39152 0.99514 0.9619 0.0
H1019 H 0.39379 0.02462 0.95758 0.0
H1020 H 0.41824 0.0081 0.97255 0.0
H1021 H 0.37699 1.00469 0.63232 0.0
H1022 H 0.36208 0.0223 0.69357 0.0
H1023 H 0.35977 0.9929 0.70195 0.0
C1024 C 0.47824 0.34099 0.90161 0.0
C1025 C 0.49816 0.33251 0.92944 0.0
C1026 C 0.47755 0.3617 0.86602 0.0
C1027 C 0.49718 0.37444 0.85829 0.0
C1028 C 0.51747 0.36548 0.88321 0.0
C1029 C 0.51773 0.3447 0.91781 0.0
C1030 C 0.45561 0.37034 0.83913 0.0
C1031 C 0.53886 0.3783 0.87612 0.0
C1032 C 0.501 0.42352 0.72763 0.0
C1033 C 0.49751 0.44168 0.77306 0.0
C1034 C 0.50034 0.40162 0.75405 0.0
C1035 C 0.49646 0.3976 0.82806 0.0
C1036 C 0.49285 0.4159 0.87409 0.0
C1037 C 0.49326 0.43763 0.84606 0.0
C1038 C 0.50389 0.38277 0.70265 0.0
C1039 C 0.48898 0.41256 0.95346 0.0
H1040 H 0.46298 0.3319 0.91027 0.0
H1041 H 0.53334 0.33819 0.93732 0.0
H1042 H 0.45063 0.385 0.87096 0.0
H1043 H 0.45713 0.37578 0.78238 0.0
H1044 H 0.44228 0.35771 0.84309 0.0
H1045 H 0.5535 0.3683 0.89225 0.0
H1046 H 0.54126 0.38403 0.82001 0.0
H1047 H 0.53812 0.39324 0.91046 0.0
H1048 H 0.5042 0.42639 0.67108 0.0
H1049 H 0.49065 0.45149 0.88181 0.0
H1050 H 0.48875 0.37238 0.70056 0.0
H1051 H 0.51756 0.37212 0.72201 0.0
H1052 H 0.50791 0.38858 0.64747 0.0
H1053 H 0.47449 0.40158 0.96228 0.0
H1054 H 0.48604 0.42842 0.98192 0.0
H1055 H 0.50357 0.40427 0.97784 0.0
C1056 C 0.16815 0.48578 0.90149 0.0
C1057 C 0.17706 0.50591 0.92568 0.0
C1058 C 0.14713 0.48487 0.86827 0.0
C1059 C 0.13455 0.50453 0.85905 0.0
C1060 C 0.14394 0.52501 0.88007 0.0
C1061 C 0.16498 0.52545 0.91265 0.0
C1062 C 0.13799 0.46271 0.8458 0.0
C1063 C 0.13133 0.54643 0.87103 0.0
C1064 C 0.08409 0.50688 0.7343 0.0
C1065 C 0.0664 0.50423 0.78265 0.0
C1066 C 0.10628 0.50644 0.75793 0.0
C1067 C 0.11107 0.50367 0.83194 0.0
C1068 C 0.09324 0.50097 0.8809 0.0
C1069 C 0.07123 0.50112 0.85571 0.0
C1070 C 0.12461 0.5089 0.70355 0.0
C1071 C 0.09739 0.49824 0.96032 0.0
H1072 H 0.17715 0.47055 0.91137 0.0
H1073 H 0.1718 0.54119 0.92952 0.0
H1074 H 0.12361 0.45834 0.88019 0.0
H1075 H 0.13198 0.46352 0.78962 0.0
H1076 H 0.15052 0.4493 0.85019 0.0
H1077 H 0.14167 0.56114 0.88346 0.0
H1078 H 0.12505 0.54806 0.81534 0.0
H1079 H 0.11673 0.5464 0.9073 0.0
H1080 H 0.08062 0.50916 0.67769 0.0
H1081 H 0.05774 0.49915 0.89367 0.0
H1082 H 0.13445 0.4934 0.70162 0.0
H1083 H 0.13596 0.52235 0.71987 0.0
H1084 H 0.11827 0.51256 0.64882 0.0
H1085 H 0.10829 0.48375 0.97007 0.0
H1086 H 0.08181 0.49594 0.9913 0.0
H1087 H 0.10611 0.51305 0.98115 0.0
C1088 C 0.99497 0.83159 0.54564 0.0
C1089 C 0.01375 0.82648 0.50431 0.0
C1090 C 0.99279 0.85237 0.57958 0.0
C1091 C 0.00966 0.86859 0.57151 0.0
C1092 C 0.02856 0.86353 0.52953 0.0
C1093 C 0.03037 0.84266 0.49672 0.0
C1094 C 0.97241 0.85699 0.62406 0.0
C1095 C 0.04683 0.8803 0.5184 0.0
C1096 C 0.99662 0.93008 0.59471 0.0
C1097 C 1.00583 0.93475 0.66222 0.0
C1098 C 0.99729 0.90861 0.56557 0.0
C1099 C 0.00737 0.89114 0.60465 0.0
C1100 C 0.01633 0.89561 0.67345 0.0
C1101 C 0.01546 0.9173 0.70133 0.0
C1102 C 0.98766 0.90477 0.49193 0.0
C1103 C 0.02724 0.87756 0.71713 0.0
H1104 H 0.98209 0.81924 0.55225 0.0
H1105 H 0.04476 0.83915 0.46381 0.0
H1106 H 0.9773 0.86151 0.67947 0.0
H1107 H 0.96328 0.8713 0.60117 0.0
H1108 H 0.96104 0.84253 0.62663 0.0
H1109 H 0.06065 0.87369 0.48535 0.0
H1110 H 0.04011 0.89528 0.4915 0.0
H1111 H 0.05358 0.88557 0.57096 0.0
H1112 H 0.98911 0.94333 0.56379 0.0
H1113 H 0.02258 0.92059 0.75355 0.0
H1114 H 0.9753 0.89118 0.49401 0.0
H1115 H 1.00097 0.89958 0.45447 0.0
H1116 H 0.97954 0.91981 0.46971 0.0
H1117 H 0.01566 0.86345 0.72436 0.0
H1118 H 0.03257 0.88344 0.77082 0.0
H1119 H 0.04198 0.87121 0.68815 0.0
C1120 C 0.66361 0.01383 0.49051 0.0
C1121 C 0.67526 0.99408 0.4773 0.0
C1122 C 0.6423 0.01367 0.52145 0.0
C1123 C 0.63214 0.99328 0.54015 0.0
C1124 C 0.64428 0.97337 0.53088 0.0
C1125 C 0.66562 0.974 0.49959 0.0
C1126 C 0.63026 0.03536 0.53138 0.0
C1127 C 0.63437 0.95127 0.55114 0.0
C1128 C 0.58019 0.9969 0.65837 0.0
C1129 C 0.56308 0.99522 0.60763 0.0
C1130 C 0.60266 0.9954 0.6378 0.0
C1131 C 0.60832 0.99284 0.56438 0.0
C1132 C 0.59107 0.99097 0.51311 0.0
C1133 C 0.56875 0.9919 0.5354 0.0
C1134 C 0.62035 0.99645 0.6947 0.0
C1135 C 0.59618 0.98855 0.43421 0.0
H1136 H 0.671 0.0295 0.47501 0.0
H1137 H 0.67432 0.95862 0.48957 0.0
H1138 H 0.61565 0.03595 0.49533 0.0
H1139 H 0.62406 0.03678 0.58725 0.0
H1140 H 0.64099 0.04987 0.51944 0.0
H1141 H 0.64671 0.93766 0.54839 0.0
H1142 H 0.62742 0.95186 0.60624 0.0
H1143 H 0.62052 0.94736 0.51422 0.0
H1144 H 0.576 0.99919 0.71444 0.0
H1145 H 0.5557 0.9907 0.49571 0.0
H1146 H 0.63276 0.00925 0.68054 0.0
H1147 H 0.62921 0.98038 0.69739 0.0
H1148 H 0.61345 1.00011 0.74864 0.0
H1149 H 0.60551 1.00327 0.41496 0.0
H1150 H 0.58096 0.9868 0.40126 0.0
H1151 H 0.60685 0.97386 0.42535 0.0
C1152 C 0.48767 0.67381 0.49025 0.0
C1153 C 0.50674 0.68442 0.46326 0.0
C1154 C 0.48858 0.65231 0.51972 0.0
C1155 C 0.50915 0.64113 0.52452 0.0
C1156 C 0.52866 0.65218 0.5015 0.0
C1157 C 0.52722 0.67353 0.47065 0.0
C1158 C 0.46737 0.64135 0.54431 0.0
C1159 C 0.55103 0.64119 0.50767 0.0
C1160 C 0.51146 0.59072 0.64954 0.0
C1161 C 0.50961 0.57305 0.60123 0.0
C1162 C 0.51172 0.61288 0.62551 0.0
C1163 C 0.51003 0.61761 0.55112 0.0
C1164 C 0.50837 0.59978 0.50204 0.0
C1165 C 0.5084 0.57776 0.52758 0.0
C1166 C 0.51416 0.63116 0.6799 0.0
C1167 C 0.50592 0.60397 0.42254 0.0
H1168 H 0.47182 0.68216 0.48711 0.0
H1169 H 0.5421 0.68129 0.44988 0.0
H1170 H 0.4653 0.62514 0.51727 0.0
H1171 H 0.46811 0.63807 0.60291 0.0
H1172 H 0.45255 0.65167 0.53288 0.0
H1173 H 0.55371 0.63527 0.56345 0.0
H1174 H 0.55166 0.62649 0.47223 0.0
H1175 H 0.56478 0.65253 0.49263 0.0
H1176 H 0.51294 0.58723 0.70639 0.0
H1177 H 0.50683 0.56422 0.48993 0.0
H1178 H 0.53118 0.63803 0.67654 0.0
H1179 H 0.51127 0.62516 0.73559 0.0
H1180 H 0.5025 0.64491 0.66858 0.0
H1181 H 0.49071 0.61382 0.41239 0.0
H1182 H 0.50491 0.58837 0.39134 0.0
H1183 H 0.52017 0.61381 0.40236 0.0
C1184 C 0.82882 0.52143 0.51909 0.0
C1185 C 0.82251 0.50196 0.48362 0.0
C1186 C 0.85016 0.52366 0.54925 0.0
C1187 C 0.86577 0.50619 0.54274 0.0
C1188 C 0.85951 0.48662 0.50641 0.0
C1189 C 0.83805 0.48472 0.47775 0.0
C1190 C 0.856 0.54467 0.58843 0.0
C1191 C 0.87561 0.4677 0.49698 0.0
C1192 C 0.92786 0.51815 0.55633 0.0
C1193 C 0.93308 0.5099 0.62484 0.0
C1194 C 0.90604 0.5174 0.5296 0.0
C1195 C 0.8888 0.50839 0.5725 0.0
C1196 C 0.89387 0.50042 0.64231 0.0
C1197 C 0.91589 0.50115 0.66737 0.0
C1198 C 0.90155 0.52576 0.45455 0.0
C1199 C 0.87612 0.49072 0.69019 0.0
H1200 H 0.81694 0.53479 0.52419 0.0
H1201 H 0.83353 0.46977 0.44934 0.0
H1202 H 0.86112 0.54069 0.64418 0.0
H1203 H 0.87026 0.5529 0.5618 0.0
H1204 H 0.84192 0.55651 0.59033 0.0
H1205 H 0.86823 0.45363 0.46712 0.0
H1206 H 0.89052 0.47353 0.46753 0.0
H1207 H 0.88121 0.46158 0.55014 0.0
H1208 H 0.94093 0.52487 0.52276 0.0
H1209 H 0.91964 0.49471 0.72038 0.0
H1210 H 0.88844 0.53863 0.45559 0.0
H1211 H 0.89537 0.51199 0.42082 0.0
H1212 H 0.91657 0.53288 0.42874 0.0
H1213 H 0.88218 0.48762 0.74559 0.0
H1214 H 0.87029 0.47479 0.66759 0.0
H1215 H 0.86161 0.50198 0.69278 0.0
loop_
_geom_bond_atom_site_label_1
_geom_bond_atom_site_label_2
_geom_bond_distance
_geom_bond_site_symmetry_2
_ccdc_geom_bond_type
C0 C1 1.384 . S
C0 H13 0.947 . S
C0 C35 1.382 . S
C1 C0 1.384 . S
C1 C2 1.378 . S
C2 C1 1.378 . S
C2 C3 1.378 . S
C2 H14 0.952 . S
C3 C2 1.378 . S
C3 H15 0.950 . S
C3 C34 1.383 . S
H4 C23 0.947 . S
H5 C24 0.946 . S
H6 C26 0.953 . S
H7 C27 0.945 . S
H8 C29 0.952 . S
H9 C30 0.949 . S
H10 C32 0.950 . S
H11 C33 0.948 . S
H12 C35 0.951 . S
H13 C0 0.947 . S
H14 C2 0.952 . S
H15 C3 0.950 . S
N16 C19 1.382 . S
N16 C21 1.363 . S
N17 C19 1.371 . S
N17 C20 1.372 . S
N18 C20 1.361 . S
N18 C21 1.377 . S
C19 N16 1.382 . S
C19 N17 1.371 . S
C19 C22 1.480 . S
C20 N17 1.372 . S
C20 N18 1.361 . S
C20 C28 1.457 . S
C21 N16 1.363 . S
C21 N18 1.377 . S
C21 C34 1.479 . S
C22 C19 1.480 . S
C22 C23 1.383 . S
C22 C27 1.385 . S
C23 H4 0.947 . S
C23 C22 1.383 . S
C23 C24 1.388 . S
C24 H5 0.946 . S
C24 C23 1.388 . S
C24 C25 1.384 . S
C25 C24 1.384 . S
C25 C26 1.377 . S
C26 H6 0.953 . S
C26 C25 1.377 . S
C26 C27 1.369 . S
C27 H7 0.945 . S
C27 C22 1.385 . S
C27 C26 1.369 . S
C28 C20 1.457 . S
C28 C29 1.372 . S
C28 C33 1.364 . S
C29 H8 0.952 . S
C29 C28 1.372 . S
C29 C30 1.389 . S
C30 H9 0.949 . S
C30 C29 1.389 . S
C30 C31 1.387 . S
C31 C30 1.387 . S
C31 C32 1.372 . S
C32 H10 0.950 . S
C32 C31 1.372 . S
C32 C33 1.379 . S
C33 H11 0.948 . S
C33 C28 1.364 . S
C33 C32 1.379 . S
C34 C3 1.383 . S
C34 C21 1.479 . S
C34 C35 1.398 . S
C35 C0 1.382 . S
C35 H12 0.951 . S
C35 C34 1.398 . S
C36 C37 1.384 1_655 S
C36 H49 0.948 . S
C36 C71 1.382 1_655 S
C37 C36 1.384 1_455 S
C37 C38 1.378 . S
C38 C37 1.378 . S
C38 C39 1.378 . S
C38 H50 0.952 . S
C39 C38 1.378 . S
C39 H51 0.950 . S
C39 C70 1.383 . S
H40 C59 0.947 . S
H41 C60 0.952 . S
H42 C62 0.953 . S
H43 C63 0.945 . S
H44 C65 0.949 1_655 S
H45 C66 0.956 . S
H46 C68 0.950 . S
H47 C69 0.948 . S
H48 C71 0.951 1_655 S
H49 C36 0.948 . S
H50 C38 0.952 . S
H51 C39 0.950 . S
N52 C55 1.382 . S
N52 C57 1.363 . S
N53 C55 1.371 . S
N53 C56 1.372 . S
N54 C56 1.361 . S
N54 C57 1.377 . S
C55 N52 1.382 . S
C55 N53 1.371 . S
C55 C58 1.480 . S
C56 N53 1.372 . S
C56 N54 1.361 . S
C56 C64 1.457 . S
C57 N52 1.363 . S
C57 N54 1.377 . S
C57 C70 1.479 . S
C58 C55 1.480 . S
C58 C59 1.383 . S
C58 C63 1.385 . S
C59 H40 0.947 . S
C59 C58 1.383 . S
C59 C60 1.386 1_455 S
C60 H41 0.952 . S
C60 C59 1.386 1_655 S
C60 C61 1.381 1_655 S
C61 C60 1.381 1_455 S
C61 C62 1.377 . S
C62 H42 0.953 . S
C62 C61 1.377 . S
C62 C63 1.369 . S
C63 H43 0.945 . S
C63 C58 1.385 . S
C63 C62 1.369 . S
C64 C56 1.457 . S
C64 C65 1.376 . S
C64 C69 1.364 . S
C65 H44 0.949 1_455 S
C65 C64 1.376 . S
C65 C66 1.387 1_455 S
C66 H45 0.956 . S
C66 C65 1.387 1_655 S
C66 C67 1.383 1_655 S
C67 C66 1.383 1_455 S
C67 C68 1.372 . S
C68 H46 0.950 . S
C68 C67 1.372 . S
C68 C69 1.379 . S
C69 H47 0.948 . S
C69 C64 1.364 . S
C69 C68 1.379 . S
C70 C39 1.383 . S
C70 C57 1.479 . S
C70 C71 1.398 . S
C71 C36 1.382 1_455 S
C71 H48 0.951 1_455 S
C71 C70 1.398 . S
C72 C73 1.384 1_565 S
C72 H85 0.948 . S
C72 C107 1.382 1_565 S
C73 C72 1.384 1_545 S
C73 C74 1.378 . S
C74 C73 1.378 . S
C74 C75 1.378 . S
C74 H86 0.952 . S
C75 C74 1.378 . S
C75 H87 0.950 . S
C75 C106 1.383 . S
H76 C95 0.947 . S
H77 C96 0.952 . S
H78 C98 0.953 . S
H79 C99 0.945 . S
H80 C101 0.949 1_565 S
H81 C102 0.957 . S
H82 C104 0.950 . S
H83 C105 0.948 . S
H84 C107 0.951 1_565 S
H85 C72 0.948 . S
H86 C74 0.952 . S
H87 C75 0.950 . S
N88 C91 1.382 . S
N88 C93 1.363 . S
N89 C91 1.371 . S
N89 C92 1.372 . S
N90 C92 1.361 . S
N90 C93 1.377 . S
C91 N88 1.382 . S
C91 N89 1.371 . S
C91 C94 1.480 . S
C92 N89 1.372 . S
C92 N90 1.361 . S
C92 C100 1.457 . S
C93 N88 1.363 . S
C93 N90 1.377 . S
C93 C106 1.479 . S
C94 C91 1.480 . S
C94 C95 1.383 . S
C94 C99 1.385 . S
C95 H76 0.947 . S
C95 C94 1.383 . S
C95 C96 1.386 1_545 S
C96 H77 0.952 . S
C96 C95 1.386 1_565 S
C96 C97 1.381 1_565 S
C97 C96 1.381 1_545 S
C97 C98 1.377 . S
C98 H78 0.953 . S
C98 C97 1.377 . S
C98 C99 1.369 . S
C99 H79 0.945 . S
C99 C94 1.385 . S
C99 C98 1.369 . S
C100 C92 1.457 . S
C100 C101 1.376 . S
C100 C105 1.364 . S
C101 H80 0.949 1_545 S
C101 C100 1.376 . S
C101 C102 1.386 1_545 S
C102 H81 0.957 . S
C102 C101 1.386 1_565 S
C102 C103 1.383 1_565 S
C103 C102 1.383 1_545 S
C103 C104 1.372 . S
C104 H82 0.950 . S
C104 C103 1.372 . S
C104 C105 1.379 . S
C105 H83 0.948 . S
C105 C100 1.364 . S
C105 C104 1.379 . S
C106 C75 1.383 . S
C106 C93 1.479 . S
C106 C107 1.398 . S
C107 C72 1.382 1_545 S
C107 H84 0.951 1_545 S
C107 C106 1.398 . S
C108 C109 1.384 . S
C108 H121 0.947 . S
C108 C143 1.382 . S
C109 C108 1.384 . S
C109 C110 1.378 . S
C110 C109 1.378 . S
C110 C111 1.378 . S
C110 H122 0.952 . S
C111 C110 1.378 . S
C111 H123 0.950 . S
C111 C142 1.383 . S
H112 C131 0.947 . S
H113 C132 0.946 . S
H114 C134 0.953 . S
H115 C135 0.945 . S
H116 C137 0.952 . S
H117 C138 0.949 . S
H118 C140 0.950 . S
H119 C141 0.948 . S
H120 C143 0.951 . S
H121 C108 0.947 . S
H122 C110 0.952 . S
H123 C111 0.950 . S
N124 C127 1.382 . S
N124 C129 1.363 . S
N125 C127 1.371 . S
N125 C128 1.372 . S
N126 C128 1.361 . S
N126 C129 1.377 . S
C127 N124 1.382 . S
C127 N125 1.371 . S
C127 C130 1.480 . S
C128 N125 1.372 . S
C128 N126 1.361 . S
C128 C136 1.457 . S
C129 N124 1.363 . S
C129 N126 1.377 . S
C129 C142 1.479 . S
C130 C127 1.480 . S
C130 C131 1.383 . S
C130 C135 1.385 . S
C131 H112 0.947 . S
C131 C130 1.383 . S
C131 C132 1.388 . S
C132 H113 0.946 . S
C132 C131 1.388 . S
C132 C133 1.384 . S
C133 C132 1.384 . S
C133 C134 1.377 . S
C134 H114 0.953 . S
C134 C133 1.377 . S
C134 C135 1.369 . S
C135 H115 0.945 . S
C135 C130 1.385 . S
C135 C134 1.369 . S
C136 C128 1.457 . S
C136 C137 1.372 . S
C136 C141 1.364 . S
C137 H116 0.952 . S
C137 C136 1.372 . S
C137 C138 1.389 . S
C138 H117 0.949 . S
C138 C137 1.389 . S
C138 C139 1.387 . S
C139 C138 1.387 . S
C139 C140 1.372 . S
C140 H118 0.950 . S
C140 C139 1.372 . S
C140 C141 1.379 . S
C141 H119 0.948 . S
C141 C136 1.364 . S
C141 C140 1.379 . S
C142 C111 1.383 . S
C142 C129 1.479 . S
C142 C143 1.398 . S
C143 C108 1.382 . S
C143 H120 0.951 . S
C143 C142 1.398 . S
C144 C145 1.384 . S
C144 H157 0.947 . S
C144 C179 1.382 . S
C145 C144 1.384 . S
C145 C146 1.378 . S
C146 C145 1.378 . S
C146 C147 1.378 . S
C146 H158 0.952 . S
C147 C146 1.378 . S
C147 H159 0.950 . S
C147 C178 1.383 . S
H148 C167 0.947 1_556 S
H149 C168 0.946 . S
H150 C170 0.953 . S
H151 C171 0.945 . S
H152 C173 0.952 . S
H153 C174 0.949 . S
H154 C176 0.950 . S
H155 C177 0.948 . S
H156 C179 0.951 . S
H157 C144 0.947 . S
H158 C146 0.952 . S
H159 C147 0.950 . S
N160 C163 1.382 1_556 S
N160 C165 1.363 . S
N161 C163 1.371 . S
N161 C164 1.372 . S
N162 C164 1.361 . S
N162 C165 1.377 1_554 S
C163 N160 1.382 1_554 S
C163 N161 1.371 . S
C163 C166 1.480 . S
C164 N161 1.372 . S
C164 N162 1.361 . S
C164 C172 1.457 . S
C165 N160 1.363 . S
C165 N162 1.377 1_556 S
C165 C178 1.479 . S
C166 C163 1.480 . S
C166 C167 1.383 . S
C166 C171 1.385 . S
C167 H148 0.947 1_554 S
C167 C166 1.383 . S
C167 C168 1.388 . S
C168 H149 0.946 . S
C168 C167 1.388 . S
C168 C169 1.384 . S
C169 C168 1.384 . S
C169 C170 1.377 . S
C170 H150 0.953 . S
C170 C169 1.377 . S
C170 C171 1.369 . S
C171 H151 0.945 . S
C171 C166 1.385 . S
C171 C170 1.369 . S
C172 C164 1.457 . S
C172 C173 1.372 . S
C172 C177 1.364 . S
C173 H152 0.952 . S
C173 C172 1.372 . S
C173 C174 1.389 . S
C174 H153 0.949 . S
C174 C173 1.389 . S
C174 C175 1.387 . S
C175 C174 1.387 . S
C175 C176 1.372 . S
C176 H154 0.950 . S
C176 C175 1.372 . S
C176 C177 1.379 . S
C177 H155 0.948 . S
C177 C172 1.364 . S
C177 C176 1.379 . S
C178 C147 1.383 . S
C178 C165 1.479 . S
C178 C179 1.398 . S
C179 C144 1.382 . S
C179 H156 0.951 . S
C179 C178 1.398 . S
C180 C181 1.384 . S
C180 H193 0.948 1_455 S
C180 C215 1.382 . S
C181 C180 1.384 . S
C181 C182 1.378 . S
C182 C181 1.378 . S
C182 C183 1.378 . S
C182 H194 0.952 . S
C183 C182 1.378 . S
C183 H195 0.950 . S
C183 C214 1.383 . S
H184 C203 0.947 1_556 S
H185 C204 0.949 . S
H186 C206 0.953 . S
H187 C207 0.945 . S
H188 C209 0.947 1_655 S
H189 C210 0.954 . S
H190 C212 0.950 . S
H191 C213 0.948 . S
H192 C215 0.950 1_655 S
H193 C180 0.948 1_655 S
H194 C182 0.952 . S
H195 C183 0.950 . S
N196 C199 1.382 1_556 S
N196 C201 1.363 . S
N197 C199 1.371 . S
N197 C200 1.372 . S
N198 C200 1.361 . S
N198 C201 1.377 1_554 S
C199 N196 1.382 1_554 S
C199 N197 1.371 . S
C199 C202 1.480 . S
C200 N197 1.372 . S
C200 N198 1.361 . S
C200 C208 1.457 . S
C201 N196 1.363 . S
C201 N198 1.377 1_556 S
C201 C214 1.479 . S
C202 C199 1.480 . S
C202 C203 1.383 . S
C202 C207 1.385 . S
C203 H184 0.947 1_554 S
C203 C202 1.383 . S
C203 C204 1.387 1_455 S
C204 H185 0.949 . S
C204 C203 1.387 1_655 S
C204 C205 1.382 1_655 S
C205 C204 1.382 1_455 S
C205 C206 1.377 . S
C206 H186 0.953 . S
C206 C205 1.377 . S
C206 C207 1.369 . S
C207 H187 0.945 . S
C207 C202 1.385 . S
C207 C206 1.369 . S
C208 C200 1.457 . S
C208 C209 1.379 . S
C208 C213 1.364 . S
C209 H188 0.947 1_455 S
C209 C208 1.379 . S
C209 C210 1.387 1_455 S
C210 H189 0.954 . S
C210 C209 1.387 1_655 S
C210 C211 1.384 1_655 S
C211 C210 1.384 1_455 S
C211 C212 1.372 . S
C212 H190 0.950 . S
C212 C211 1.372 . S
C212 C213 1.379 . S
C213 H191 0.948 . S
C213 C208 1.364 . S
C213 C212 1.379 . S
C214 C183 1.383 . S
C214 C201 1.479 . S
C214 C215 1.399 . S
C215 C180 1.382 . S
C215 H192 0.950 1_455 S
C215 C214 1.399 . S
C216 C217 1.384 . S
C216 H229 0.948 1_545 S
C216 C251 1.382 . S
C217 C216 1.384 . S
C217 C218 1.378 . S
C218 C217 1.378 . S
C218 C219 1.378 . S
C218 H230 0.952 . S
C219 C218 1.378 . S
C219 H231 0.950 . S
C219 C250 1.383 . S
H220 C239 0.947 1_556 S
H221 C240 0.949 . S
H222 C242 0.953 . S
H223 C243 0.945 . S
H224 C245 0.947 1_565 S
H225 C246 0.954 . S
H226 C248 0.950 . S
H227 C249 0.948 . S
H228 C251 0.950 1_565 S
H229 C216 0.948 1_565 S
H230 C218 0.952 . S
H231 C219 0.950 . S
N232 C235 1.382 1_556 S
N232 C237 1.363 . S
N233 C235 1.371 . S
N233 C236 1.372 . S
N234 C236 1.361 . S
N234 C237 1.377 1_554 S
C235 N232 1.382 1_554 S
C235 N233 1.371 . S
C235 C238 1.480 . S
C236 N233 1.372 . S
C236 N234 1.361 . S
C236 C244 1.457 . S
C237 N232 1.363 . S
C237 N234 1.377 1_556 S
C237 C250 1.479 . S
C238 C235 1.480 . S
C238 C239 1.383 . S
C238 C243 1.385 . S
C239 H220 0.947 1_554 S
C239 C238 1.383 . S
C239 C240 1.387 1_545 S
C240 H221 0.949 . S
C240 C239 1.387 1_565 S
C240 C241 1.382 1_565 S
C241 C240 1.382 1_545 S
C241 C242 1.377 . S
C242 H222 0.953 . S
C242 C241 1.377 . S
C242 C243 1.369 . S
C243 H223 0.945 . S
C243 C238 1.385 . S
C243 C242 1.369 . S
C244 C236 1.457 . S
C244 C245 1.379 . S
C244 C249 1.364 . S
C245 H224 0.947 1_545 S
C245 C244 1.379 . S
C245 C246 1.387 1_545 S
C246 H225 0.954 . S
C246 C245 1.387 1_565 S
C246 C247 1.384 1_565 S
C247 C246 1.384 1_545 S
C247 C248 1.372 . S
C248 H226 0.950 . S
C248 C247 1.372 . S
C248 C249 1.379 . S
C249 H227 0.948 . S
C249 C244 1.364 . S
C249 C248 1.379 . S
C250 C219 1.383 . S
C250 C237 1.479 . S
C250 C251 1.399 . S
C251 C216 1.382 . S
C251 H228 0.950 1_545 S
C251 C250 1.399 . S
C252 C253 1.384 . S
C252 H265 0.947 . S
C252 C287 1.382 . S
C253 C252 1.384 . S
C253 C254 1.378 . S
C254 C253 1.378 . S
C254 C255 1.378 . S
C254 H266 0.952 . S
C255 C254 1.378 . S
C255 H267 0.950 . S
C255 C286 1.383 . S
H256 C275 0.947 . S
H257 C276 0.946 . S
H258 C278 0.953 1_556 S
H259 C279 0.945 1_556 S
H260 C281 0.952 . S
H261 C282 0.949 . S
H262 C284 0.950 . S
H263 C285 0.948 . S
H264 C287 0.951 . S
H265 C252 0.947 . S
H266 C254 0.952 . S
H267 C255 0.950 . S
N268 C271 1.382 . S
N268 C273 1.363 . S
N269 C271 1.371 1_556 S
N269 C272 1.372 . S
N270 C272 1.361 1_554 S
N270 C273 1.377 . S
C271 N268 1.382 . S
C271 N269 1.371 1_554 S
C271 C274 1.480 . S
C272 N269 1.372 . S
C272 N270 1.361 1_556 S
C272 C280 1.457 . S
C273 N268 1.363 . S
C273 N270 1.377 . S
C273 C286 1.479 . S
C274 C271 1.480 . S
C274 C275 1.383 . S
C274 C279 1.385 . S
C275 H256 0.947 . S
C275 C274 1.383 . S
C275 C276 1.388 . S
C276 H257 0.946 . S
C276 C275 1.388 . S
C276 C277 1.384 . S
C277 C276 1.384 . S
C277 C278 1.377 . S
C278 H258 0.953 1_554 S
C278 C277 1.377 . S
C278 C279 1.369 . S
C279 H259 0.945 1_554 S
C279 C274 1.385 . S
C279 C278 1.369 . S
C280 C272 1.457 . S
C280 C281 1.372 . S
C280 C285 1.364 . S
C281 H260 0.952 . S
C281 C280 1.372 . S
C281 C282 1.389 . S
C282 H261 0.949 . S
C282 C281 1.389 . S
C282 C283 1.387 . S
C283 C282 1.387 . S
C283 C284 1.372 . S
C284 H262 0.950 . S
C284 C283 1.372 . S
C284 C285 1.379 . S
C285 H263 0.948 . S
C285 C280 1.364 . S
C285 C284 1.379 . S
C286 C255 1.383 . S
C286 C273 1.479 . S
C286 C287 1.398 . S
C287 C252 1.382 . S
C287 H264 0.951 . S
C287 C286 1.398 . S
La288 C290 2.928 . S
La288 O308 2.521 . S
La288 O309 2.628 . S
La288 O310 2.554 . S
La288 O311 2.757 1_565 S
La288 O312 2.470 . S
La288 O317 2.482 1_455 S
La288 O319 2.503 1_565 S
La289 C299 2.928 . S
La289 O311 2.482 1_655 S
La289 O313 2.503 1_545 S
La289 O314 2.521 . S
La289 O315 2.628 . S
La289 O316 2.554 . S
La289 O317 2.757 1_545 S
La289 O318 2.470 . S
C290 La288 2.928 . S
C290 C291 1.503 . S
C290 O308 1.261 . S
C290 O309 1.243 . S
C291 C290 1.503 . S
C291 C292 1.394 . S
C291 C296 1.373 . S
C292 C291 1.394 . S
C292 C293 1.380 . S
C292 H320 0.930 . S
C293 C292 1.380 . S
C293 C294 1.376 . S
C293 H321 0.930 . S
C294 C293 1.376 . S
C294 C295 1.370 . S
C295 C294 1.370 . S
C295 C296 1.396 . S
C295 H322 0.928 . S
C296 C291 1.373 . S
C296 C295 1.396 . S
C296 H323 0.929 1_455 S
C297 O310 1.269 . S
C297 O311 1.272 1_565 S
C298 O312 1.258 1_655 S
C298 O313 1.256 . S
C299 La289 2.928 . S
C299 C300 1.503 . S
C299 O314 1.261 . S
C299 O315 1.243 . S
C300 C299 1.503 . S
C300 C301 1.394 . S
C300 C305 1.373 . S
C301 C300 1.394 . S
C301 C302 1.380 . S
C301 H324 0.930 . S
C302 C301 1.380 . S
C302 C303 1.376 . S
C302 H325 0.930 . S
C303 C302 1.376 . S
C303 C304 1.370 . S
C304 C303 1.370 . S
C304 C305 1.396 . S
C304 H326 0.928 1_655 S
C305 C300 1.373 . S
C305 C304 1.396 . S
C305 H327 0.929 1_655 S
C306 O316 1.240 . S
C306 O317 1.289 1_545 S
C307 O318 1.258 1_455 S
C307 O319 1.256 . S
O308 La288 2.521 . S
O308 C290 1.261 . S
O309 La288 2.628 . S
O309 C290 1.243 . S
O310 La288 2.554 . S
O310 C297 1.269 . S
O311 La288 2.757 1_545 S
O311 La289 2.482 1_455 S
O311 C297 1.272 1_545 S
O312 La288 2.470 . S
O312 C298 1.258 1_455 S
O313 La289 2.503 1_565 S
O313 C298 1.256 . S
O314 La289 2.521 . S
O314 C299 1.261 . S
O315 La289 2.628 . S
O315 C299 1.243 . S
O316 La289 2.554 . S
O316 C306 1.240 . S
O317 La288 2.482 1_655 S
O317 La289 2.757 1_565 S
O317 C306 1.289 1_565 S
O318 La289 2.470 . S
O318 C307 1.258 1_655 S
O319 La288 2.503 1_545 S
O319 C307 1.256 . S
H320 C292 0.930 . S
H321 C293 0.930 . S
H322 C295 0.928 . S
H323 C296 0.929 1_655 S
H324 C301 0.930 . S
H325 C302 0.930 . S
H326 C304 0.928 1_455 S
H327 C305 0.929 1_455 S
La328 C330 2.928 . S
La328 O348 2.521 . S
La328 O349 2.628 . S
La328 O350 2.554 . S
La328 O351 2.757 . S
La328 O352 2.470 . S
La328 O357 2.482 1_545 S
La328 O359 2.503 . S
La329 C339 2.928 . S
La329 O351 2.482 1_565 S
La329 O353 2.503 . S
La329 O354 2.521 . S
La329 O355 2.628 . S
La329 O356 2.554 . S
La329 O357 2.757 . S
La329 O358 2.470 . S
C330 La328 2.928 . S
C330 C331 1.503 . S
C330 O348 1.261 . S
C330 O349 1.243 . S
C331 C330 1.503 . S
C331 C332 1.394 . S
C331 C336 1.373 . S
C332 C331 1.394 . S
C332 C333 1.380 . S
C332 H360 0.930 . S
C333 C332 1.380 . S
C333 C334 1.376 . S
C333 H361 0.930 . S
C334 C333 1.376 . S
C334 C335 1.370 . S
C335 C334 1.370 . S
C335 C336 1.396 . S
C335 H362 0.916 1_545 S
C336 C331 1.373 . S
C336 C335 1.396 . S
C336 H363 0.929 1_545 S
C337 O350 1.240 . S
C337 O351 1.289 . S
C338 O352 1.258 1_565 S
C338 O353 1.256 . S
C339 La329 2.928 . S
C339 C340 1.503 . S
C339 O354 1.261 . S
C339 O355 1.243 . S
C340 C339 1.503 . S
C340 C341 1.394 . S
C340 C345 1.373 . S
C341 C340 1.394 . S
C341 C342 1.380 . S
C341 H364 0.930 . S
C342 C341 1.380 . S
C342 C343 1.376 . S
C342 H365 0.930 . S
C343 C342 1.376 . S
C343 C344 1.370 . S
C344 C343 1.370 . S
C344 C345 1.396 . S
C344 H366 0.906 1_565 S
C345 C340 1.373 . S
C345 C344 1.396 . S
C345 H367 0.929 1_565 S
C346 O356 1.240 . S
C346 O357 1.289 . S
C347 O358 1.258 1_545 S
C347 O359 1.256 . S
O348 La328 2.521 . S
O348 C330 1.261 . S
O349 La328 2.628 . S
O349 C330 1.243 . S
O350 La328 2.554 . S
O350 C337 1.240 . S
O351 La328 2.757 . S
O351 La329 2.482 1_545 S
O351 C337 1.289 . S
O352 La328 2.470 . S
O352 C338 1.258 1_545 S
O353 La329 2.503 . S
O353 C338 1.256 . S
O354 La329 2.521 . S
O354 C339 1.261 . S
O355 La329 2.628 . S
O355 C339 1.243 . S
O356 La329 2.554 . S
O356 C346 1.240 . S
O357 La328 2.482 1_565 S
O357 La329 2.757 . S
O357 C346 1.289 . S
O358 La329 2.470 . S
O358 C347 1.258 1_565 S
O359 La328 2.503 . S
O359 C347 1.256 . S
H360 C332 0.930 . S
H361 C333 0.930 . S
H362 C335 0.916 1_565 S
H363 C336 0.929 1_565 S
H364 C341 0.930 . S
H365 C342 0.930 . S
H366 C344 0.906 1_545 S
H367 C345 0.929 1_545 S
La368 C370 2.928 . S
La368 O388 2.521 . S
La368 O389 2.628 . S
La368 O390 2.554 . S
La368 O391 2.757 . S
La368 O392 2.470 . S
La368 O397 2.482 . S
La368 O399 2.503 . S
La369 C379 2.928 . S
La369 O391 2.482 . S
La369 O393 2.503 . S
La369 O394 2.521 . S
La369 O395 2.628 . S
La369 O396 2.554 . S
La369 O397 2.757 . S
La369 O398 2.470 . S
C370 La368 2.928 . S
C370 C371 1.503 . S
C370 O388 1.261 . S
C370 O389 1.243 . S
C371 C370 1.503 . S
C371 C372 1.394 . S
C371 C376 1.373 . S
C372 C371 1.394 . S
C372 C373 1.380 . S
C372 H400 0.930 . S
C373 C372 1.380 . S
C373 C374 1.376 . S
C373 H401 0.930 . S
C374 C373 1.376 . S
C374 C375 1.370 . S
C375 C374 1.370 . S
C375 C376 1.396 . S
C375 H402 0.929 . S
C376 C371 1.373 . S
C376 C375 1.396 . S
C376 H403 0.929 . S
C377 O390 1.240 . S
C377 O391 1.289 . S
C378 O392 1.258 . S
C378 O393 1.256 . S
C379 La369 2.928 . S
C379 C380 1.503 . S
C379 O394 1.261 . S
C379 O395 1.243 . S
C380 C379 1.503 . S
C380 C381 1.394 . S
C380 C385 1.373 . S
C381 C380 1.394 . S
C381 C382 1.380 . S
C381 H404 0.930 . S
C382 C381 1.380 . S
C382 C383 1.376 . S
C382 H405 0.930 . S
C383 C382 1.376 . S
C383 C384 1.370 . S
C384 C383 1.370 . S
C384 C385 1.396 . S
C384 H406 0.929 . S
C385 C380 1.373 . S
C385 C384 1.396 . S
C385 H407 0.929 . S
C386 O396 1.240 . S
C386 O397 1.289 . S
C387 O398 1.258 . S
C387 O399 1.256 . S
O388 La368 2.521 . S
O388 C370 1.261 . S
O389 La368 2.628 . S
O389 C370 1.243 . S
O390 La368 2.554 . S
O390 C377 1.240 . S
O391 La368 2.757 . S
O391 La369 2.482 . S
O391 C377 1.289 . S
O392 La368 2.470 . S
O392 C378 1.258 . S
O393 La369 2.503 . S
O393 C378 1.256 . S
O394 La369 2.521 . S
O394 C379 1.261 . S
O395 La369 2.628 . S
O395 C379 1.243 . S
O396 La369 2.554 . S
O396 C386 1.240 . S
O397 La368 2.482 . S
O397 La369 2.757 . S
O397 C386 1.289 . S
O398 La369 2.470 . S
O398 C387 1.258 . S
O399 La368 2.503 . S
O399 C387 1.256 . S
H400 C372 0.930 . S
H401 C373 0.930 . S
H402 C375 0.929 . S
H403 C376 0.929 . S
H404 C381 0.930 . S
H405 C382 0.930 . S
H406 C384 0.929 . S
H407 C385 0.929 . S
La408 C410 2.928 . S
La408 O428 2.521 . S
La408 O429 2.628 . S
La408 O430 2.554 . S
La408 O431 2.757 1_655 S
La408 O432 2.470 . S
La408 O437 2.482 . S
La408 O439 2.503 1_655 S
La409 C419 2.928 . S
La409 O431 2.482 . S
La409 O433 2.503 1_455 S
La409 O434 2.521 . S
La409 O435 2.628 . S
La409 O436 2.554 . S
La409 O437 2.757 1_455 S
La409 O438 2.470 . S
C410 La408 2.928 . S
C410 C411 1.503 . S
C410 O428 1.261 . S
C410 O429 1.243 . S
C411 C410 1.503 . S
C411 C412 1.394 . S
C411 C416 1.373 . S
C412 C411 1.394 . S
C412 C413 1.380 . S
C412 H440 0.930 . S
C413 C412 1.380 . S
C413 C414 1.376 . S
C413 H441 0.930 . S
C414 C413 1.376 . S
C414 C415 1.370 . S
C415 C414 1.370 . S
C415 C416 1.396 . S
C415 H442 0.929 . S
C416 C411 1.373 . S
C416 C415 1.396 . S
C416 H443 0.929 . S
C417 O430 1.257 . S
C417 O431 1.279 1_655 S
C418 O432 1.258 . S
C418 O433 1.256 . S
C419 La409 2.928 . S
C419 C420 1.503 . S
C419 O434 1.261 . S
C419 O435 1.243 . S
C420 C419 1.503 . S
C420 C421 1.394 . S
C420 C425 1.373 . S
C421 C420 1.394 . S
C421 C422 1.380 . S
C421 H444 0.930 . S
C422 C421 1.380 . S
C422 C423 1.376 . S
C422 H445 0.930 . S
C423 C422 1.376 . S
C423 C424 1.370 . S
C424 C423 1.370 . S
C424 C425 1.396 . S
C424 H446 0.929 . S
C425 C420 1.373 . S
C425 C424 1.396 . S
C425 H447 0.929 . S
C426 O436 1.263 . S
C426 O437 1.276 1_455 S
C427 O438 1.258 . S
C427 O439 1.256 . S
O428 La408 2.521 . S
O428 C410 1.261 . S
O429 La408 2.628 . S
O429 C410 1.243 . S
O430 La408 2.554 . S
O430 C417 1.257 . S
O431 La408 2.757 1_455 S
O431 La409 2.482 . S
O431 C417 1.279 1_455 S
O432 La408 2.470 . S
O432 C418 1.258 . S
O433 La409 2.503 1_655 S
O433 C418 1.256 . S
O434 La409 2.521 . S
O434 C419 1.261 . S
O435 La409 2.628 . S
O435 C419 1.243 . S
O436 La409 2.554 . S
O436 C426 1.263 . S
O437 La408 2.482 . S
O437 La409 2.757 1_655 S
O437 C426 1.276 1_655 S
O438 La409 2.470 . S
O438 C427 1.258 . S
O439 La408 2.503 1_455 S
O439 C427 1.256 . S
H440 C412 0.930 . S
H441 C413 0.930 . S
H442 C415 0.929 . S
H443 C416 0.929 . S
H444 C421 0.930 . S
H445 C422 0.930 . S
H446 C424 0.929 . S
H447 C425 0.929 . S
C448 C449 1.391 . S
C448 C450 1.394 . S
C448 H464 0.931 . S
C449 C448 1.391 . S
C449 C453 1.376 1_545 S
C450 C448 1.394 . S
C450 C451 1.369 . S
C450 C454 1.531 . S
C451 C450 1.369 . S
C451 C452 1.410 1_545 S
C451 C459 1.503 . S
C452 C451 1.410 1_565 S
C452 C453 1.392 . S
C452 C455 1.511 . S
C453 C449 1.376 1_565 S
C453 C452 1.392 . S
C453 H465 0.929 . S
C454 C450 1.531 . S
C454 H466 0.960 . S
C454 H467 0.962 . S
C454 H468 0.960 . S
C455 C452 1.511 . S
C455 H469 0.961 . S
C455 H470 0.961 . S
C455 H471 0.961 . S
C456 C457 1.370 1_565 S
C456 C458 1.363 . S
C456 H472 0.931 . S
C457 C456 1.370 1_545 S
C457 C461 1.408 . S
C458 C456 1.363 . S
C458 C459 1.370 1_565 S
C458 C462 1.524 . S
C459 C451 1.503 . S
C459 C458 1.370 1_545 S
C459 C460 1.403 . S
C460 C459 1.403 . S
C460 C461 1.404 . S
C460 C463 1.539 . S
C461 C457 1.408 . S
C461 C460 1.404 . S
C461 H473 0.930 . S
C462 C458 1.524 . S
C462 H474 0.956 . S
C462 H475 0.961 . S
C462 H476 0.961 . S
C463 C460 1.539 . S
C463 H477 0.958 . S
C463 H478 0.961 . S
C463 H479 0.960 . S
H464 C448 0.931 . S
H465 C453 0.929 . S
H466 C454 0.960 . S
H467 C454 0.962 . S
H468 C454 0.960 . S
H469 C455 0.961 . S
H470 C455 0.961 . S
H471 C455 0.961 . S
H472 C456 0.931 . S
H473 C461 0.930 . S
H474 C462 0.956 . S
H475 C462 0.961 . S
H476 C462 0.961 . S
H477 C463 0.958 . S
H478 C463 0.961 . S
H479 C463 0.960 . S
C480 C481 1.391 . S
C480 C482 1.394 . S
C480 H496 0.931 . S
C481 C480 1.391 . S
C481 C485 1.376 . S
C482 C480 1.394 . S
C482 C483 1.369 . S
C482 C486 1.531 . S
C483 C482 1.369 . S
C483 C484 1.410 . S
C483 C491 1.503 . S
C484 C483 1.410 . S
C484 C485 1.392 . S
C484 C487 1.511 . S
C485 C481 1.376 . S
C485 C484 1.392 . S
C485 H497 0.929 . S
C486 C482 1.531 . S
C486 H498 0.960 . S
C486 H499 0.962 . S
C486 H500 0.960 . S
C487 C484 1.511 . S
C487 H501 0.961 . S
C487 H502 0.961 . S
C487 H503 0.961 . S
C488 C489 1.370 . S
C488 C490 1.363 . S
C488 H504 0.931 . S
C489 C488 1.370 . S
C489 C493 1.408 . S
C490 C488 1.363 . S
C490 C491 1.370 . S
C490 C494 1.524 . S
C491 C483 1.503 . S
C491 C490 1.370 . S
C491 C492 1.403 . S
C492 C491 1.403 . S
C492 C493 1.404 . S
C492 C495 1.539 . S
C493 C489 1.408 . S
C493 C492 1.404 . S
C493 H505 0.930 . S
C494 C490 1.524 . S
C494 H506 0.956 . S
C494 H507 0.961 . S
C494 H508 0.961 . S
C495 C492 1.539 . S
C495 H509 0.958 . S
C495 H510 0.961 . S
C495 H511 0.960 . S
H496 C480 0.931 . S
H497 C485 0.929 . S
H498 C486 0.960 . S
H499 C486 0.962 . S
H500 C486 0.960 . S
H501 C487 0.961 . S
H502 C487 0.961 . S
H503 C487 0.961 . S
H504 C488 0.931 . S
H505 C493 0.930 . S
H506 C494 0.956 . S
H507 C494 0.961 . S
H508 C494 0.961 . S
H509 C495 0.958 . S
H510 C495 0.961 . S
H511 C495 0.960 . S
C512 C513 1.391 . S
C512 C514 1.394 . S
C512 H528 0.931 . S
C513 C512 1.391 . S
C513 C517 1.376 . S
C514 C512 1.394 . S
C514 C515 1.369 . S
C514 C518 1.531 . S
C515 C514 1.369 . S
C515 C516 1.410 . S
C515 C523 1.503 . S
C516 C515 1.410 . S
C516 C517 1.392 . S
C516 C519 1.511 . S
C517 C513 1.376 . S
C517 C516 1.392 . S
C517 H529 0.929 . S
C518 C514 1.531 . S
C518 H530 0.960 . S
C518 H531 0.962 . S
C518 H532 0.960 . S
C519 C516 1.511 . S
C519 H533 0.961 . S
C519 H534 0.961 . S
C519 H535 0.961 . S
C520 C521 1.370 . S
C520 C522 1.363 . S
C520 H536 0.931 . S
C521 C520 1.370 . S
C521 C525 1.408 . S
C522 C520 1.363 . S
C522 C523 1.370 . S
C522 C526 1.524 . S
C523 C515 1.503 . S
C523 C522 1.370 . S
C523 C524 1.403 . S
C524 C523 1.403 . S
C524 C525 1.404 . S
C524 C527 1.539 . S
C525 C521 1.408 . S
C525 C524 1.404 . S
C525 H537 0.930 . S
C526 C522 1.524 . S
C526 H538 0.956 . S
C526 H539 0.961 . S
C526 H540 0.961 . S
C527 C524 1.539 . S
C527 H541 0.958 . S
C527 H542 0.961 . S
C527 H543 0.960 . S
H528 C512 0.931 . S
H529 C517 0.929 . S
H530 C518 0.960 . S
H531 C518 0.962 . S
H532 C518 0.960 . S
H533 C519 0.961 . S
H534 C519 0.961 . S
H535 C519 0.961 . S
H536 C520 0.931 . S
H537 C525 0.930 . S
H538 C526 0.956 . S
H539 C526 0.961 . S
H540 C526 0.961 . S
H541 C527 0.958 . S
H542 C527 0.961 . S
H543 C527 0.960 . S
C544 C545 1.391 1_655 S
C544 C546 1.394 . S
C544 H560 0.931 . S
C545 C544 1.391 1_455 S
C545 C549 1.376 . S
C546 C544 1.394 . S
C546 C547 1.369 1_655 S
C546 C550 1.531 . S
C547 C546 1.369 1_455 S
C547 C548 1.410 . S
C547 C555 1.503 . S
C548 C547 1.410 . S
C548 C549 1.392 . S
C548 C551 1.511 . S
C549 C545 1.376 . S
C549 C548 1.392 . S
C549 H561 0.929 . S
C550 C546 1.531 . S
C550 H562 0.960 . S
C550 H563 0.962 . S
C550 H564 0.960 . S
C551 C548 1.511 . S
C551 H565 0.961 . S
C551 H566 0.961 . S
C551 H567 0.961 . S
C552 C553 1.370 1_655 S
C552 C554 1.363 . S
C552 H568 0.931 . S
C553 C552 1.370 1_455 S
C553 C557 1.408 . S
C554 C552 1.363 . S
C554 C555 1.370 1_655 S
C554 C558 1.524 . S
C555 C547 1.503 . S
C555 C554 1.370 1_455 S
C555 C556 1.403 . S
C556 C555 1.403 . S
C556 C557 1.404 . S
C556 C559 1.539 . S
C557 C553 1.408 . S
C557 C556 1.404 . S
C557 H569 0.930 . S
C558 C554 1.524 . S
C558 H570 0.956 . S
C558 H571 0.961 . S
C558 H572 0.961 . S
C559 C556 1.539 . S
C559 H573 0.958 . S
C559 H574 0.961 . S
C559 H575 0.960 . S
H560 C544 0.931 . S
H561 C549 0.929 . S
H562 C550 0.960 . S
H563 C550 0.962 . S
H564 C550 0.960 . S
H565 C551 0.961 . S
H566 C551 0.961 . S
H567 C551 0.961 . S
H568 C552 0.931 . S
H569 C557 0.930 . S
H570 C558 0.956 . S
H571 C558 0.961 . S
H572 C558 0.961 . S
H573 C559 0.958 . S
H574 C559 0.961 . S
H575 C559 0.960 . S
C576 C577 1.391 . S
C576 C578 1.394 . S
C576 H592 0.931 . S
C577 C576 1.391 . S
C577 C581 1.376 1_565 S
C578 C576 1.394 . S
C578 C579 1.369 . S
C578 C582 1.531 . S
C579 C578 1.369 . S
C579 C580 1.410 1_565 S
C579 C587 1.503 1_554 S
C580 C579 1.410 1_545 S
C580 C581 1.392 . S
C580 C583 1.511 . S
C581 C577 1.376 1_545 S
C581 C580 1.392 . S
C581 H593 0.929 . S
C582 C578 1.531 . S
C582 H594 0.960 . S
C582 H595 0.962 . S
C582 H596 0.960 . S
C583 C580 1.511 . S
C583 H597 0.961 . S
C583 H598 0.961 1_554 S
C583 H599 0.961 1_554 S
C584 C585 1.370 1_545 S
C584 C586 1.363 . S
C584 H600 0.931 . S
C585 C584 1.370 1_565 S
C585 C589 1.408 . S
C586 C584 1.363 . S
C586 C587 1.370 1_545 S
C586 C590 1.524 1_556 S
C587 C579 1.503 1_556 S
C587 C586 1.370 1_565 S
C587 C588 1.403 . S
C588 C587 1.403 . S
C588 C589 1.404 . S
C588 C591 1.539 . S
C589 C585 1.408 . S
C589 C588 1.404 . S
C589 H601 0.930 . S
C590 C586 1.524 1_554 S
C590 H602 0.956 . S
C590 H603 0.961 . S
C590 H604 0.961 . S
C591 C588 1.539 . S
C591 H605 0.958 . S
C591 H606 0.961 . S
C591 H607 0.960 . S
H592 C576 0.931 . S
H593 C581 0.929 . S
H594 C582 0.960 . S
H595 C582 0.962 . S
H596 C582 0.960 . S
H597 C583 0.961 . S
H598 C583 0.961 1_556 S
H599 C583 0.961 1_556 S
H600 C584 0.931 . S
H601 C589 0.930 . S
H602 C590 0.956 . S
H603 C590 0.961 . S
H604 C590 0.961 . S
H605 C591 0.958 . S
H606 C591 0.961 . S
H607 C591 0.960 . S
C608 C609 1.391 . S
C608 C610 1.394 . S
C608 H624 0.931 . S
C609 C608 1.391 . S
C609 C613 1.376 . S
C610 C608 1.394 . S
C610 C611 1.369 . S
C610 C614 1.531 . S
C611 C610 1.369 . S
C611 C612 1.410 . S
C611 C619 1.511 . S
C612 C611 1.410 . S
C612 C613 1.392 . S
C612 C615 1.511 . S
C613 C609 1.376 . S
C613 C612 1.392 . S
C613 H625 0.929 . S
C614 C610 1.531 . S
C614 H626 0.960 1_554 S
C614 H627 0.962 . S
C614 H628 0.960 . S
C615 C612 1.511 . S
C615 H629 0.961 . S
C615 H630 0.961 . S
C615 H631 0.961 . S
C616 C617 1.370 . S
C616 C618 1.363 . S
C616 H632 0.931 . S
C617 C616 1.370 . S
C617 C621 1.408 . S
C618 C616 1.363 . S
C618 C619 1.369 1_556 S
C618 C622 1.524 1_556 S
C619 C611 1.511 . S
C619 C618 1.369 1_554 S
C619 C620 1.397 1_554 S
C620 C619 1.397 1_556 S
C620 C621 1.404 . S
C620 C623 1.539 . S
C621 C617 1.408 . S
C621 C620 1.404 . S
C621 H633 0.930 . S
C622 C618 1.524 1_554 S
C622 H634 0.956 . S
C622 H635 0.961 . S
C622 H636 0.961 . S
C623 C620 1.539 . S
C623 H637 0.958 . S
C623 H638 0.961 . S
C623 H639 0.960 1_556 S
H624 C608 0.931 . S
H625 C613 0.929 . S
H626 C614 0.960 1_556 S
H627 C614 0.962 . S
H628 C614 0.960 . S
H629 C615 0.961 . S
H630 C615 0.961 . S
H631 C615 0.961 . S
H632 C616 0.931 . S
H633 C621 0.930 . S
H634 C622 0.956 . S
H635 C622 0.961 . S
H636 C622 0.961 . S
H637 C623 0.958 . S
H638 C623 0.961 . S
H639 C623 0.960 1_554 S
C640 C641 1.391 . S
C640 C642 1.394 . S
C640 H656 0.931 . S
C641 C640 1.391 . S
C641 C645 1.376 . S
C642 C640 1.394 . S
C642 C643 1.369 . S
C642 C646 1.531 . S
C643 C642 1.369 . S
C643 C644 1.410 . S
C643 C651 1.503 . S
C644 C643 1.410 . S
C644 C645 1.392 . S
C644 C647 1.511 . S
C645 C641 1.376 . S
C645 C644 1.392 . S
C645 H657 0.929 . S
C646 C642 1.531 . S
C646 H658 0.960 . S
C646 H659 0.962 . S
C646 H660 0.960 . S
C647 C644 1.511 . S
C647 H661 0.961 . S
C647 H662 0.961 . S
C647 H663 0.961 . S
C648 C649 1.370 . S
C648 C650 1.363 . S
C648 H664 0.931 . S
C649 C648 1.370 . S
C649 C653 1.408 . S
C650 C648 1.363 . S
C650 C651 1.370 1_556 S
C650 C654 1.524 . S
C651 C643 1.503 . S
C651 C650 1.370 1_554 S
C651 C652 1.403 1_554 S
C652 C651 1.403 1_556 S
C652 C653 1.404 . S
C652 C655 1.539 1_556 S
C653 C649 1.408 . S
C653 C652 1.404 . S
C653 H665 0.930 . S
C654 C650 1.524 . S
C654 H666 0.956 . S
C654 H667 0.961 1_556 S
C654 H668 0.961 . S
C655 C652 1.539 1_554 S
C655 H669 0.958 . S
C655 H670 0.961 . S
C655 H671 0.960 . S
H656 C640 0.931 . S
H657 C645 0.929 . S
H658 C646 0.960 . S
H659 C646 0.962 . S
H660 C646 0.960 . S
H661 C647 0.961 . S
H662 C647 0.961 . S
H663 C647 0.961 . S
H664 C648 0.931 . S
H665 C653 0.930 . S
H666 C654 0.956 . S
H667 C654 0.961 1_554 S
H668 C654 0.961 . S
H669 C655 0.958 . S
H670 C655 0.961 . S
H671 C655 0.960 . S
C672 C673 1.391 1_455 S
C672 C674 1.394 . S
C672 H688 0.931 . S
C673 C672 1.391 1_655 S
C673 C677 1.376 . S
C674 C672 1.394 . S
C674 C675 1.369 1_455 S
C674 C678 1.531 . S
C675 C674 1.369 1_655 S
C675 C676 1.410 . S
C675 C683 1.503 . S
C676 C675 1.410 . S
C676 C677 1.392 . S
C676 C679 1.511 . S
C677 C673 1.376 . S
C677 C676 1.392 . S
C677 H689 0.929 . S
C678 C674 1.531 . S
C678 H690 0.960 1_455 S
C678 H691 0.962 . S
C678 H692 0.960 . S
C679 C676 1.511 . S
C679 H693 0.961 . S
C679 H694 0.961 1_554 S
C679 H695 0.961 . S
C680 C681 1.370 1_455 S
C680 C682 1.363 . S
C680 H696 0.931 . S
C681 C680 1.370 1_655 S
C681 C685 1.408 . S
C682 C680 1.363 . S
C682 C683 1.370 1_456 S
C682 C686 1.524 . S
C683 C675 1.503 . S
C683 C682 1.370 1_654 S
C683 C684 1.403 1_554 S
C684 C683 1.403 1_556 S
C684 C685 1.404 . S
C684 C687 1.539 1_556 S
C685 C681 1.408 . S
C685 C684 1.404 . S
C685 H697 0.930 . S
C686 C682 1.524 . S
C686 H698 0.956 1_556 S
C686 H699 0.961 1_556 S
C686 H700 0.961 . S
C687 C684 1.539 1_554 S
C687 H701 0.958 . S
C687 H702 0.961 1_554 S
C687 H703 0.960 . S
H688 C672 0.931 . S
H689 C677 0.929 . S
H690 C678 0.960 1_655 S
H691 C678 0.962 . S
H692 C678 0.960 . S
H693 C679 0.961 . S
H694 C679 0.961 1_556 S
H695 C679 0.961 . S
H696 C680 0.931 . S
H697 C685 0.930 . S
H698 C686 0.956 1_554 S
H699 C686 0.961 1_554 S
H700 C686 0.961 . S
H701 C687 0.958 . S
H702 C687 0.961 1_556 S
H703 C687 0.960 . S
C704 C705 1.391 . S
C704 C706 1.394 . S
C704 H720 0.931 . S
C705 C704 1.391 . S
C705 C709 1.376 1_455 S
C706 C704 1.394 . S
C706 C707 1.369 1_455 S
C706 C710 1.531 . S
C707 C706 1.369 1_655 S
C707 C708 1.410 . S
C707 C715 1.503 . S
C708 C707 1.410 . S
C708 C709 1.392 . S
C708 C711 1.511 . S
C709 C705 1.376 1_655 S
C709 C708 1.392 . S
C709 H721 0.929 . S
C710 C706 1.531 . S
C710 H722 0.960 . S
C710 H723 0.962 . S
C710 H724 0.960 . S
C711 C708 1.511 . S
C711 H725 0.961 . S
C711 H726 0.961 . S
C711 H727 0.961 . S
C712 C713 1.370 . S
C712 C714 1.363 . S
C712 H728 0.931 . S
C713 C712 1.370 . S
C713 C717 1.408 . S
C714 C712 1.363 . S
C714 C715 1.370 . S
C714 C718 1.524 . S
C715 C707 1.503 . S
C715 C714 1.370 . S
C715 C716 1.403 . S
C716 C715 1.403 . S
C716 C717 1.404 . S
C716 C719 1.539 . S
C717 C713 1.408 . S
C717 C716 1.404 . S
C717 H729 0.930 . S
C718 C714 1.524 . S
C718 H730 0.956 1_655 S
C718 H731 0.961 . S
C718 H732 0.964 . S
C719 C716 1.539 . S
C719 H733 0.958 . S
C719 H734 0.961 . S
C719 H735 0.960 . S
H720 C704 0.931 . S
H721 C709 0.929 . S
H722 C710 0.960 . S
H723 C710 0.962 . S
H724 C710 0.960 . S
H725 C711 0.961 . S
H726 C711 0.961 . S
H727 C711 0.961 . S
H728 C712 0.931 . S
H729 C717 0.930 . S
H730 C718 0.956 1_455 S
H731 C718 0.961 . S
H732 C718 0.964 . S
H733 C719 0.958 . S
H734 C719 0.961 . S
H735 C719 0.960 . S
C736 C737 1.388 1_565 S
C736 C738 1.398 . S
C736 H752 0.928 1_565 S
C737 C736 1.388 1_545 S
C737 C741 1.376 . S
C738 C736 1.398 . S
C738 C739 1.369 . S
C738 C742 1.531 . S
C739 C738 1.369 . S
C739 C740 1.410 . S
C739 C747 1.503 . S
C740 C739 1.410 . S
C740 C741 1.392 1_565 S
C740 C743 1.511 . S
C741 C737 1.376 . S
C741 C740 1.392 1_545 S
C741 H753 0.929 . S
C742 C738 1.531 . S
C742 H754 0.960 . S
C742 H755 0.962 . S
C742 H756 0.960 . S
C743 C740 1.511 . S
C743 H757 0.961 . S
C743 H758 0.961 . S
C743 H759 0.961 1_565 S
C744 C745 1.370 . S
C744 C746 1.363 . S
C744 H760 0.931 . S
C745 C744 1.370 . S
C745 C749 1.408 . S
C746 C744 1.363 . S
C746 C747 1.370 . S
C746 C750 1.524 . S
C747 C739 1.503 . S
C747 C746 1.370 . S
C747 C748 1.403 . S
C748 C747 1.403 . S
C748 C749 1.404 . S
C748 C751 1.539 1_565 S
C749 C745 1.408 . S
C749 C748 1.404 . S
C749 H761 0.930 . S
C750 C746 1.524 . S
C750 H762 0.956 . S
C750 H763 0.961 . S
C750 H764 0.961 . S
C751 C748 1.539 1_545 S
C751 H765 0.958 . S
C751 H766 0.961 . S
C751 H767 0.960 . S
H752 C736 0.928 1_545 S
H753 C741 0.929 . S
H754 C742 0.960 . S
H755 C742 0.962 . S
H756 C742 0.960 . S
H757 C743 0.961 . S
H758 C743 0.961 . S
H759 C743 0.961 1_545 S
H760 C744 0.931 . S
H761 C749 0.930 . S
H762 C750 0.956 . S
H763 C750 0.961 . S
H764 C750 0.961 . S
H765 C751 0.958 . S
H766 C751 0.961 . S
H767 C751 0.960 . S
C768 C769 1.391 . S
C768 C770 1.394 . S
C768 H784 0.931 . S
C769 C768 1.391 . S
C769 C773 1.376 . S
C770 C768 1.394 . S
C770 C771 1.369 . S
C770 C774 1.531 . S
C771 C770 1.369 . S
C771 C772 1.410 . S
C771 C779 1.503 . S
C772 C771 1.410 . S
C772 C773 1.392 . S
C772 C775 1.511 . S
C773 C769 1.376 . S
C773 C772 1.392 . S
C773 H785 0.929 . S
C774 C770 1.531 . S
C774 H786 0.960 . S
C774 H787 0.962 . S
C774 H788 0.960 . S
C775 C772 1.511 . S
C775 H789 0.961 . S
C775 H790 0.961 . S
C775 H791 0.961 . S
C776 C777 1.370 . S
C776 C778 1.363 . S
C776 H792 0.931 . S
C777 C776 1.370 . S
C777 C781 1.408 . S
C778 C776 1.363 . S
C778 C779 1.370 . S
C778 C782 1.524 . S
C779 C771 1.503 . S
C779 C778 1.370 . S
C779 C780 1.403 . S
C780 C779 1.403 . S
C780 C781 1.404 . S
C780 C783 1.539 . S
C781 C777 1.408 . S
C781 C780 1.404 . S
C781 H793 0.930 . S
C782 C778 1.524 . S
C782 H794 0.956 . S
C782 H795 0.961 . S
C782 H796 0.961 . S
C783 C780 1.539 . S
C783 H797 0.958 . S
C783 H798 0.961 . S
C783 H799 0.960 . S
H784 C768 0.931 . S
H785 C773 0.929 . S
H786 C774 0.960 . S
H787 C774 0.962 . S
H788 C774 0.960 . S
H789 C775 0.961 . S
H790 C775 0.961 . S
H791 C775 0.961 . S
H792 C776 0.931 . S
H793 C781 0.930 . S
H794 C782 0.956 . S
H795 C782 0.961 . S
H796 C782 0.961 . S
H797 C783 0.958 . S
H798 C783 0.961 . S
H799 C783 0.960 . S
C800 C801 1.391 . S
C800 C802 1.394 . S
C800 H816 0.931 . S
C801 C800 1.391 . S
C801 C805 1.376 . S
C802 C800 1.394 . S
C802 C803 1.369 . S
C802 C806 1.531 . S
C803 C802 1.369 . S
C803 C804 1.410 . S
C803 C811 1.503 . S
C804 C803 1.410 . S
C804 C805 1.392 . S
C804 C807 1.511 . S
C805 C801 1.376 . S
C805 C804 1.392 . S
C805 H817 0.929 . S
C806 C802 1.531 . S
C806 H818 0.960 . S
C806 H819 0.962 . S
C806 H820 0.960 . S
C807 C804 1.511 . S
C807 H821 0.961 . S
C807 H822 0.961 . S
C807 H823 0.961 . S
C808 C809 1.370 . S
C808 C810 1.363 . S
C808 H824 0.931 . S
C809 C808 1.370 . S
C809 C813 1.408 . S
C810 C808 1.363 . S
C810 C811 1.370 . S
C810 C814 1.524 . S
C811 C803 1.503 . S
C811 C810 1.370 . S
C811 C812 1.403 . S
C812 C811 1.403 . S
C812 C813 1.404 . S
C812 C815 1.539 . S
C813 C809 1.408 . S
C813 C812 1.404 . S
C813 H825 0.930 . S
C814 C810 1.524 . S
C814 H826 0.956 . S
C814 H827 0.961 . S
C814 H828 0.961 . S
C815 C812 1.539 . S
C815 H829 0.958 . S
C815 H830 0.961 . S
C815 H831 0.960 . S
H816 C800 0.931 . S
H817 C805 0.929 . S
H818 C806 0.960 . S
H819 C806 0.962 . S
H820 C806 0.960 . S
H821 C807 0.961 . S
H822 C807 0.961 . S
H823 C807 0.961 . S
H824 C808 0.931 . S
H825 C813 0.930 . S
H826 C814 0.956 . S
H827 C814 0.961 . S
H828 C814 0.961 . S
H829 C815 0.958 . S
H830 C815 0.961 . S
H831 C815 0.960 . S
C832 C833 1.391 1_455 S
C832 C834 1.394 . S
C832 H848 0.931 . S
C833 C832 1.391 1_655 S
C833 C837 1.376 . S
C834 C832 1.394 . S
C834 C835 1.369 . S
C834 C838 1.531 1_554 S
C835 C834 1.369 . S
C835 C836 1.410 1_455 S
C835 C843 1.503 . S
C836 C835 1.410 1_655 S
C836 C837 1.392 . S
C836 C839 1.511 . S
C837 C833 1.376 . S
C837 C836 1.392 . S
C837 H849 0.929 . S
C838 C834 1.531 1_556 S
C838 H850 0.960 . S
C838 H851 0.962 1_556 S
C838 H852 0.960 . S
C839 C836 1.511 . S
C839 H853 0.961 . S
C839 H854 0.961 . S
C839 H855 0.961 . S
C840 C841 1.370 1_554 S
C840 C842 1.363 . S
C840 H856 0.931 . S
C841 C840 1.370 1_556 S
C841 C845 1.408 . S
C842 C840 1.363 . S
C842 C843 1.370 . S
C842 C846 1.524 . S
C843 C835 1.503 . S
C843 C842 1.370 . S
C843 C844 1.403 1_554 S
C844 C843 1.403 1_556 S
C844 C845 1.404 . S
C844 C847 1.539 1_455 S
C845 C841 1.408 . S
C845 C844 1.404 . S
C845 H857 0.930 . S
C846 C842 1.524 . S
C846 H858 0.956 . S
C846 H859 0.961 . S
C846 H860 0.961 . S
C847 C844 1.539 1_655 S
C847 H861 0.956 . S
C847 H862 0.961 . S
C847 H863 0.960 . S
H848 C832 0.931 . S
H849 C837 0.929 . S
H850 C838 0.960 . S
H851 C838 0.962 1_554 S
H852 C838 0.960 . S
H853 C839 0.961 . S
H854 C839 0.961 . S
H855 C839 0.961 . S
H856 C840 0.931 . S
H857 C845 0.930 . S
H858 C846 0.956 . S
H859 C846 0.961 . S
H860 C846 0.961 . S
H861 C847 0.956 . S
H862 C847 0.961 . S
H863 C847 0.960 . S
C864 C865 1.391 . S
C864 C866 1.394 . S
C864 H880 0.931 . S
C865 C864 1.391 . S
C865 C869 1.376 1_565 S
C866 C864 1.394 . S
C866 C867 1.369 1_565 S
C866 C870 1.531 1_554 S
C867 C866 1.369 1_545 S
C867 C868 1.410 . S
C867 C875 1.503 . S
C868 C867 1.410 . S
C868 C869 1.392 . S
C868 C871 1.511 . S
C869 C865 1.376 1_545 S
C869 C868 1.392 . S
C869 H881 0.929 . S
C870 C866 1.531 1_556 S
C870 H882 0.960 . S
C870 H883 0.962 . S
C870 H884 0.960 . S
C871 C868 1.511 . S
C871 H885 0.961 . S
C871 H886 0.961 . S
C871 H887 0.961 . S
C872 C873 1.370 . S
C872 C874 1.363 . S
C872 H888 0.931 . S
C873 C872 1.370 . S
C873 C877 1.408 1_556 S
C874 C872 1.363 . S
C874 C875 1.370 1_556 S
C874 C878 1.524 . S
C875 C867 1.503 . S
C875 C874 1.370 1_554 S
C875 C876 1.403 . S
C876 C875 1.403 . S
C876 C877 1.404 . S
C876 C879 1.539 1_545 S
C877 C873 1.408 1_554 S
C877 C876 1.404 . S
C877 H889 0.930 . S
C878 C874 1.524 . S
C878 H890 0.956 . S
C878 H891 0.961 1_556 S
C878 H892 0.961 . S
C879 C876 1.539 1_565 S
C879 H893 0.958 . S
C879 H894 0.961 . S
C879 H895 0.960 . S
H880 C864 0.931 . S
H881 C869 0.929 . S
H882 C870 0.960 . S
H883 C870 0.962 . S
H884 C870 0.960 . S
H885 C871 0.961 . S
H886 C871 0.961 . S
H887 C871 0.961 . S
H888 C872 0.931 . S
H889 C877 0.930 . S
H890 C878 0.956 . S
H891 C878 0.961 1_554 S
H892 C878 0.961 . S
H893 C879 0.958 . S
H894 C879 0.961 . S
H895 C879 0.960 . S
C896 C897 1.391 . S
C896 C898 1.394 . S
C896 H912 0.931 . S
C897 C896 1.391 . S
C897 C901 1.376 . S
C898 C896 1.394 . S
C898 C899 1.369 . S
C898 C902 1.531 . S
C899 C898 1.369 . S
C899 C900 1.410 . S
C899 C907 1.503 . S
C900 C899 1.410 . S
C900 C901 1.392 . S
C900 C903 1.511 . S
C901 C897 1.376 . S
C901 C900 1.392 . S
C901 H913 0.929 . S
C902 C898 1.531 . S
C902 H914 0.960 . S
C902 H915 0.962 . S
C902 H916 0.960 . S
C903 C900 1.511 . S
C903 H917 0.961 1_554 S
C903 H918 0.961 1_554 S
C903 H919 0.961 . S
C904 C905 1.370 . S
C904 C906 1.363 . S
C904 H920 0.931 . S
C905 C904 1.370 . S
C905 C909 1.408 1_556 S
C906 C904 1.363 . S
C906 C907 1.370 1_556 S
C906 C910 1.524 . S
C907 C899 1.503 . S
C907 C906 1.370 1_554 S
C907 C908 1.403 . S
C908 C907 1.403 . S
C908 C909 1.404 . S
C908 C911 1.539 . S
C909 C905 1.408 1_554 S
C909 C908 1.404 . S
C909 H921 0.930 . S
C910 C906 1.524 . S
C910 H922 0.956 . S
C910 H923 0.961 . S
C910 H924 0.961 . S
C911 C908 1.539 . S
C911 H925 0.958 . S
C911 H926 0.961 . S
C911 H927 0.960 . S
H912 C896 0.931 . S
H913 C901 0.929 . S
H914 C902 0.960 . S
H915 C902 0.962 . S
H916 C902 0.960 . S
H917 C903 0.961 1_556 S
H918 C903 0.961 1_556 S
H919 C903 0.961 . S
H920 C904 0.931 . S
H921 C909 0.930 . S
H922 C910 0.956 . S
H923 C910 0.961 . S
H924 C910 0.961 . S
H925 C911 0.958 . S
H926 C911 0.961 . S
H927 C911 0.960 . S
C928 C929 1.391 . S
C928 C930 1.394 . S
C928 H944 0.931 . S
C929 C928 1.391 . S
C929 C933 1.376 . S
C930 C928 1.394 . S
C930 C931 1.369 . S
C930 C934 1.537 . S
C931 C930 1.369 . S
C931 C932 1.410 . S
C931 C939 1.503 . S
C932 C931 1.410 . S
C932 C933 1.392 . S
C932 C935 1.511 . S
C933 C929 1.376 . S
C933 C932 1.392 . S
C933 H945 0.929 . S
C934 C930 1.537 . S
C934 H946 0.950 1_554 S
C934 H947 0.970 . S
C934 H948 0.956 1_554 S
C935 C932 1.511 . S
C935 H949 0.961 . S
C935 H950 0.961 . S
C935 H951 0.961 . S
C936 C937 1.370 1_554 S
C936 C938 1.363 . S
C936 H952 0.931 . S
C937 C936 1.370 1_556 S
C937 C941 1.408 . S
C938 C936 1.363 . S
C938 C939 1.370 . S
C938 C942 1.524 . S
C939 C931 1.503 . S
C939 C938 1.370 . S
C939 C940 1.403 1_554 S
C940 C939 1.403 1_556 S
C940 C941 1.404 . S
C940 C943 1.539 . S
C941 C937 1.408 . S
C941 C940 1.404 . S
C941 H953 0.930 . S
C942 C938 1.524 . S
C942 H954 0.956 . S
C942 H955 0.961 . S
C942 H956 0.961 . S
C943 C940 1.539 . S
C943 H957 0.958 . S
C943 H958 0.961 . S
C943 H959 0.960 . S
H944 C928 0.931 . S
H945 C933 0.929 . S
H946 C934 0.950 1_556 S
H947 C934 0.970 . S
H948 C934 0.956 1_556 S
H949 C935 0.961 . S
H950 C935 0.961 . S
H951 C935 0.961 . S
H952 C936 0.931 . S
H953 C941 0.930 . S
H954 C942 0.956 . S
H955 C942 0.961 . S
H956 C942 0.961 . S
H957 C943 0.958 . S
H958 C943 0.961 . S
H959 C943 0.960 . S
C960 C961 1.391 . S
C960 C962 1.394 . S
C960 H976 0.931 . S
C961 C960 1.391 . S
C961 C965 1.376 1_455 S
C962 C960 1.394 . S
C962 C963 1.369 . S
C962 C966 1.531 . S
C963 C962 1.369 . S
C963 C964 1.410 1_455 S
C963 C971 1.503 . S
C964 C963 1.410 1_655 S
C964 C965 1.392 . S
C964 C967 1.511 . S
C965 C961 1.376 1_655 S
C965 C964 1.392 . S
C965 H977 0.929 . S
C966 C962 1.531 . S
C966 H978 0.960 . S
C966 H979 0.962 . S
C966 H980 0.960 . S
C967 C964 1.511 . S
C967 H981 0.961 . S
C967 H982 0.961 . S
C967 H983 0.961 . S
C968 C969 1.370 . S
C968 C970 1.363 . S
C968 H984 0.931 . S
C969 C968 1.370 . S
C969 C973 1.408 1_455 S
C970 C968 1.363 . S
C970 C971 1.370 . S
C970 C974 1.524 . S
C971 C963 1.503 . S
C971 C970 1.370 . S
C971 C972 1.403 1_455 S
C972 C971 1.403 1_655 S
C972 C973 1.404 . S
C972 C975 1.539 . S
C973 C969 1.408 1_655 S
C973 C972 1.404 . S
C973 H985 0.930 . S
C974 C970 1.524 . S
C974 H986 0.956 . S
C974 H987 0.961 . S
C974 H988 0.961 . S
C975 C972 1.539 . S
C975 H989 0.958 . S
C975 H990 0.961 . S
C975 H991 0.960 . S
H976 C960 0.931 . S
H977 C965 0.929 . S
H978 C966 0.960 . S
H979 C966 0.962 . S
H980 C966 0.960 . S
H981 C967 0.961 . S
H982 C967 0.961 . S
H983 C967 0.961 . S
H984 C968 0.931 . S
H985 C973 0.930 . S
H986 C974 0.956 . S
H987 C974 0.961 . S
H988 C974 0.961 . S
H989 C975 0.958 . S
H990 C975 0.961 . S
H991 C975 0.960 . S
C992 C993 1.391 1_565 S
C992 C994 1.394 . S
C992 H1008 0.931 . S
C993 C992 1.391 1_545 S
C993 C997 1.376 . S
C994 C992 1.394 . S
C994 C995 1.369 1_565 S
C994 C998 1.531 . S
C995 C994 1.369 1_545 S
C995 C996 1.410 . S
C995 C1003 1.503 . S
C996 C995 1.410 . S
C996 C997 1.392 . S
C996 C999 1.511 . S
C997 C993 1.376 . S
C997 C996 1.392 . S
C997 H1009 0.929 . S
C998 C994 1.531 . S
C998 H1010 0.960 . S
C998 H1011 0.962 . S
C998 H1012 0.960 . S
C999 C996 1.511 . S
C999 H1013 0.961 . S
C999 H1014 0.961 . S
C999 H1015 0.961 . S
C1000 C1001 1.370 . S
C1000 C1002 1.364 . S
C1000 H1016 0.931 1_545 S
C1001 C1000 1.370 . S
C1001 C1005 1.408 . S
C1002 C1000 1.364 . S
C1002 C1003 1.382 . S
C1002 C1006 1.512 1_545 S
C1003 C995 1.503 . S
C1003 C1002 1.382 . S
C1003 C1004 1.403 . S
C1004 C1003 1.403 . S
C1004 C1005 1.404 . S
C1004 C1007 1.539 . S
C1005 C1001 1.408 . S
C1005 C1004 1.404 . S
C1005 H1017 0.930 . S
C1006 C1002 1.512 1_565 S
C1006 H1018 0.956 . S
C1006 H1019 0.961 1_565 S
C1006 H1020 0.961 . S
C1007 C1004 1.539 . S
C1007 H1021 0.958 . S
C1007 H1022 0.961 . S
C1007 H1023 0.960 . S
H1008 C992 0.931 . S
H1009 C997 0.929 . S
H1010 C998 0.960 . S
H1011 C998 0.962 . S
H1012 C998 0.960 . S
H1013 C999 0.961 . S
H1014 C999 0.961 . S
H1015 C999 0.961 . S
H1016 C1000 0.931 1_565 S
H1017 C1005 0.930 . S
H1018 C1006 0.956 . S
H1019 C1006 0.961 1_545 S
H1020 C1006 0.961 . S
H1021 C1007 0.958 . S
H1022 C1007 0.961 . S
H1023 C1007 0.960 . S
C1024 C1025 1.391 . S
C1024 C1026 1.394 . S
C1024 H1040 0.931 . S
C1025 C1024 1.391 . S
C1025 C1029 1.376 . S
C1026 C1024 1.394 . S
C1026 C1027 1.369 . S
C1026 C1030 1.531 . S
C1027 C1026 1.369 . S
C1027 C1028 1.410 . S
C1027 C1035 1.503 . S
C1028 C1027 1.410 . S
C1028 C1029 1.392 . S
C1028 C1031 1.511 . S
C1029 C1025 1.376 . S
C1029 C1028 1.392 . S
C1029 H1041 0.929 . S
C1030 C1026 1.531 . S
C1030 H1042 0.960 . S
C1030 H1043 0.962 . S
C1030 H1044 0.960 . S
C1031 C1028 1.511 . S
C1031 H1045 0.961 . S
C1031 H1046 0.961 . S
C1031 H1047 0.961 . S
C1032 C1033 1.370 . S
C1032 C1034 1.363 . S
C1032 H1048 0.931 . S
C1033 C1032 1.370 . S
C1033 C1037 1.408 . S
C1034 C1032 1.363 . S
C1034 C1035 1.370 . S
C1034 C1038 1.524 . S
C1035 C1027 1.503 . S
C1035 C1034 1.370 . S
C1035 C1036 1.403 . S
C1036 C1035 1.403 . S
C1036 C1037 1.404 . S
C1036 C1039 1.539 . S
C1037 C1033 1.408 . S
C1037 C1036 1.404 . S
C1037 H1049 0.930 . S
C1038 C1034 1.524 . S
C1038 H1050 0.956 . S
C1038 H1051 0.961 . S
C1038 H1052 0.961 . S
C1039 C1036 1.539 . S
C1039 H1053 0.958 . S
C1039 H1054 0.961 . S
C1039 H1055 0.960 . S
H1040 C1024 0.931 . S
H1041 C1029 0.929 . S
H1042 C1030 0.960 . S
H1043 C1030 0.962 . S
H1044 C1030 0.960 . S
H1045 C1031 0.961 . S
H1046 C1031 0.961 . S
H1047 C1031 0.961 . S
H1048 C1032 0.931 . S
H1049 C1037 0.930 . S
H1050 C1038 0.956 . S
H1051 C1038 0.961 . S
H1052 C1038 0.961 . S
H1053 C1039 0.958 . S
H1054 C1039 0.961 . S
H1055 C1039 0.960 . S
C1056 C1057 1.391 . S
C1056 C1058 1.394 . S
C1056 H1072 0.931 . S
C1057 C1056 1.391 . S
C1057 C1061 1.376 . S
C1058 C1056 1.394 . S
C1058 C1059 1.369 . S
C1058 C1062 1.531 . S
C1059 C1058 1.369 . S
C1059 C1060 1.410 . S
C1059 C1067 1.503 . S
C1060 C1059 1.410 . S
C1060 C1061 1.392 . S
C1060 C1063 1.511 . S
C1061 C1057 1.376 . S
C1061 C1060 1.392 . S
C1061 H1073 0.929 . S
C1062 C1058 1.531 . S
C1062 H1074 0.960 . S
C1062 H1075 0.962 . S
C1062 H1076 0.960 . S
C1063 C1060 1.511 . S
C1063 H1077 0.961 . S
C1063 H1078 0.961 . S
C1063 H1079 0.961 . S
C1064 C1065 1.370 . S
C1064 C1066 1.363 . S
C1064 H1080 0.931 . S
C1065 C1064 1.370 . S
C1065 C1069 1.408 . S
C1066 C1064 1.363 . S
C1066 C1067 1.370 . S
C1066 C1070 1.524 . S
C1067 C1059 1.503 . S
C1067 C1066 1.370 . S
C1067 C1068 1.403 . S
C1068 C1067 1.403 . S
C1068 C1069 1.404 . S
C1068 C1071 1.539 . S
C1069 C1065 1.408 . S
C1069 C1068 1.404 . S
C1069 H1081 0.930 . S
C1070 C1066 1.524 . S
C1070 H1082 0.956 . S
C1070 H1083 0.961 . S
C1070 H1084 0.961 . S
C1071 C1068 1.539 . S
C1071 H1085 0.958 . S
C1071 H1086 0.961 . S
C1071 H1087 0.960 . S
H1072 C1056 0.931 . S
H1073 C1061 0.929 . S
H1074 C1062 0.960 . S
H1075 C1062 0.962 . S
H1076 C1062 0.960 . S
H1077 C1063 0.961 . S
H1078 C1063 0.961 . S
H1079 C1063 0.961 . S
H1080 C1064 0.931 . S
H1081 C1069 0.930 . S
H1082 C1070 0.956 . S
H1083 C1070 0.961 . S
H1084 C1070 0.961 . S
H1085 C1071 0.958 . S
H1086 C1071 0.961 . S
H1087 C1071 0.960 . S
C1088 C1089 1.391 . S
C1088 C1090 1.394 . S
C1088 H1104 0.931 . S
C1089 C1088 1.391 . S
C1089 C1093 1.376 1_655 S
C1090 C1088 1.394 . S
C1090 C1091 1.369 . S
C1090 C1094 1.531 . S
C1091 C1090 1.369 . S
C1091 C1092 1.410 1_655 S
C1091 C1099 1.503 . S
C1092 C1091 1.410 1_455 S
C1092 C1093 1.392 . S
C1092 C1095 1.511 . S
C1093 C1089 1.376 1_455 S
C1093 C1092 1.392 . S
C1093 H1105 0.929 . S
C1094 C1090 1.531 . S
C1094 H1106 0.960 . S
C1094 H1107 0.962 . S
C1094 H1108 0.960 . S
C1095 C1092 1.511 . S
C1095 H1109 0.961 . S
C1095 H1110 0.961 . S
C1095 H1111 0.961 . S
C1096 C1097 1.370 . S
C1096 C1098 1.363 . S
C1096 H1112 0.931 . S
C1097 C1096 1.370 . S
C1097 C1101 1.408 . S
C1098 C1096 1.363 . S
C1098 C1099 1.370 . S
C1098 C1102 1.524 . S
C1099 C1091 1.503 . S
C1099 C1098 1.370 . S
C1099 C1100 1.408 . S
C1100 C1099 1.408 . S
C1100 C1101 1.406 . S
C1100 C1103 1.530 1_655 S
C1101 C1097 1.408 . S
C1101 C1100 1.406 . S
C1101 H1113 0.930 1_655 S
C1102 C1098 1.524 . S
C1102 H1114 0.956 . S
C1102 H1115 0.961 . S
C1102 H1116 0.961 . S
C1103 C1100 1.530 1_455 S
C1103 H1117 0.958 1_455 S
C1103 H1118 0.961 . S
C1103 H1119 0.960 . S
H1104 C1088 0.931 . S
H1105 C1093 0.929 . S
H1106 C1094 0.960 . S
H1107 C1094 0.962 . S
H1108 C1094 0.960 . S
H1109 C1095 0.961 . S
H1110 C1095 0.961 . S
H1111 C1095 0.961 . S
H1112 C1096 0.931 . S
H1113 C1101 0.930 1_455 S
H1114 C1102 0.956 . S
H1115 C1102 0.961 . S
H1116 C1102 0.961 . S
H1117 C1103 0.958 1_655 S
H1118 C1103 0.961 . S
H1119 C1103 0.960 . S
C1120 C1121 1.366 1_545 S
C1120 C1122 1.394 . S
C1120 H1136 0.931 . S
C1121 C1120 1.366 1_565 S
C1121 C1125 1.401 . S
C1122 C1120 1.394 . S
C1122 C1123 1.342 1_545 S
C1122 C1126 1.531 . S
C1123 C1122 1.342 1_565 S
C1123 C1124 1.437 . S
C1123 C1131 1.511 . S
C1124 C1123 1.437 . S
C1124 C1125 1.392 . S
C1124 C1127 1.511 . S
C1125 C1121 1.401 . S
C1125 C1124 1.392 . S
C1125 H1137 0.929 . S
C1126 C1122 1.531 . S
C1126 H1138 0.960 . S
C1126 H1139 0.962 . S
C1126 H1140 0.960 . S
C1127 C1124 1.511 . S
C1127 H1141 0.961 . S
C1127 H1142 0.961 . S
C1127 H1143 0.961 . S
C1128 C1129 1.370 . S
C1128 C1130 1.363 . S
C1128 H1144 0.931 . S
C1129 C1128 1.370 . S
C1129 C1133 1.408 1_565 S
C1130 C1128 1.363 . S
C1130 C1131 1.370 . S
C1130 C1134 1.524 . S
C1131 C1123 1.511 . S
C1131 C1130 1.370 . S
C1131 C1132 1.403 1_565 S
C1132 C1131 1.403 1_545 S
C1132 C1133 1.404 . S
C1132 C1135 1.539 . S
C1133 C1129 1.408 1_545 S
C1133 C1132 1.404 . S
C1133 H1145 0.930 . S
C1134 C1130 1.524 . S
C1134 H1146 0.956 . S
C1134 H1147 0.961 . S
C1134 H1148 0.961 . S
C1135 C1132 1.539 . S
C1135 H1149 0.958 . S
C1135 H1150 0.961 . S
C1135 H1151 0.960 . S
H1136 C1120 0.931 . S
H1137 C1125 0.929 . S
H1138 C1126 0.960 . S
H1139 C1126 0.962 . S
H1140 C1126 0.960 . S
H1141 C1127 0.961 . S
H1142 C1127 0.961 . S
H1143 C1127 0.961 . S
H1144 C1128 0.931 . S
H1145 C1133 0.930 . S
H1146 C1134 0.956 . S
H1147 C1134 0.961 . S
H1148 C1134 0.961 . S
H1149 C1135 0.958 . S
H1150 C1135 0.961 . S
H1151 C1135 0.960 . S
C1152 C1153 1.391 . S
C1152 C1154 1.394 . S
C1152 H1168 0.931 . S
C1153 C1152 1.391 . S
C1153 C1157 1.376 . S
C1154 C1152 1.394 . S
C1154 C1155 1.369 . S
C1154 C1158 1.531 . S
C1155 C1154 1.369 . S
C1155 C1156 1.410 . S
C1155 C1163 1.503 . S
C1156 C1155 1.410 . S
C1156 C1157 1.392 . S
C1156 C1159 1.511 . S
C1157 C1153 1.376 . S
C1157 C1156 1.392 . S
C1157 H1169 0.929 . S
C1158 C1154 1.531 . S
C1158 H1170 0.960 . S
C1158 H1171 0.962 . S
C1158 H1172 0.960 . S
C1159 C1156 1.511 . S
C1159 H1173 0.961 . S
C1159 H1174 0.961 . S
C1159 H1175 0.961 . S
C1160 C1161 1.370 . S
C1160 C1162 1.363 . S
C1160 H1176 0.931 . S
C1161 C1160 1.370 . S
C1161 C1165 1.408 . S
C1162 C1160 1.363 . S
C1162 C1163 1.370 . S
C1162 C1166 1.524 . S
C1163 C1155 1.503 . S
C1163 C1162 1.370 . S
C1163 C1164 1.403 . S
C1164 C1163 1.403 . S
C1164 C1165 1.404 . S
C1164 C1167 1.539 . S
C1165 C1161 1.408 . S
C1165 C1164 1.404 . S
C1165 H1177 0.930 . S
C1166 C1162 1.524 . S
C1166 H1178 0.956 . S
C1166 H1179 0.961 . S
C1166 H1180 0.961 . S
C1167 C1164 1.539 . S
C1167 H1181 0.958 . S
C1167 H1182 0.961 . S
C1167 H1183 0.960 . S
H1168 C1152 0.931 . S
H1169 C1157 0.929 . S
H1170 C1158 0.960 . S
H1171 C1158 0.962 . S
H1172 C1158 0.960 . S
H1173 C1159 0.961 . S
H1174 C1159 0.961 . S
H1175 C1159 0.961 . S
H1176 C1160 0.931 . S
H1177 C1165 0.930 . S
H1178 C1166 0.956 . S
H1179 C1166 0.961 . S
H1180 C1166 0.961 . S
H1181 C1167 0.958 . S
H1182 C1167 0.961 . S
H1183 C1167 0.960 . S
C1184 C1185 1.391 . S
C1184 C1186 1.394 . S
C1184 H1200 0.931 . S
C1185 C1184 1.391 . S
C1185 C1189 1.376 . S
C1186 C1184 1.394 . S
C1186 C1187 1.369 . S
C1186 C1190 1.531 . S
C1187 C1186 1.369 . S
C1187 C1188 1.410 . S
C1187 C1195 1.503 . S
C1188 C1187 1.410 . S
C1188 C1189 1.392 . S
C1188 C1191 1.511 . S
C1189 C1185 1.376 . S
C1189 C1188 1.392 . S
C1189 H1201 0.929 . S
C1190 C1186 1.531 . S
C1190 H1202 0.960 . S
C1190 H1203 0.962 . S
C1190 H1204 0.960 . S
C1191 C1188 1.511 . S
C1191 H1205 0.961 . S
C1191 H1206 0.961 . S
C1191 H1207 0.961 . S
C1192 C1193 1.370 . S
C1192 C1194 1.363 . S
C1192 H1208 0.931 . S
C1193 C1192 1.370 . S
C1193 C1197 1.408 . S
C1194 C1192 1.363 . S
C1194 C1195 1.370 . S
C1194 C1198 1.524 . S
C1195 C1187 1.503 . S
C1195 C1194 1.370 . S
C1195 C1196 1.403 . S
C1196 C1195 1.403 . S
C1196 C1197 1.404 . S
C1196 C1199 1.539 . S
C1197 C1193 1.408 . S
C1197 C1196 1.404 . S
C1197 H1209 0.930 . S
C1198 C1194 1.524 . S
C1198 H1210 0.956 . S
C1198 H1211 0.961 . S
C1198 H1212 0.961 . S
C1199 C1196 1.539 . S
C1199 H1213 0.958 . S
C1199 H1214 0.961 . S
C1199 H1215 0.960 . S
H1200 C1184 0.931 . S
H1201 C1189 0.929 . S
H1202 C1190 0.960 . S
H1203 C1190 0.962 . S
H1204 C1190 0.960 . S
H1205 C1191 0.961 . S
H1206 C1191 0.961 . S
H1207 C1191 0.961 . S
H1208 C1192 0.931 . S
H1209 C1197 0.930 . S
H1210 C1198 0.956 . S
H1211 C1198 0.961 . S
H1212 C1198 0.961 . S
H1213 C1199 0.958 . S
H1214 C1199 0.961 . S
H1215 C1199 0.960 . S
C449 C241 2.131 . S
C457 C297 2.336 1_545 S
C489 C337 2.368 . S
C481 C277 2.157 . S
C521 C377 2.348 . S
C513 C169 2.109 . S
C553 C417 2.355 1_455 S
C545 C205 2.082 . S
C585 C306 2.346 1_565 S
C577 C97 2.092 1_565 S
C609 C133 2.176 . S
C617 C346 2.366 . S
C641 C25 2.137 . S
C649 C386 2.347 . S
C673 C61 2.133 1_655 S
C681 C426 2.355 1_655 S
C713 C303 0.473 . S
C705 C211 0.464 . S
C745 C343 0.405 . S
C737 C247 0.455 . S
C777 C383 0.403 . S
C769 C253 0.461 . S
C801 C175 0.389 . S
C809 C423 0.480 . S
C833 C67 0.584 1_655 S
C841 C294 0.408 . S
C873 C334 0.424 . S
C865 C103 0.498 1_565 S
C905 C374 0.469 . S
C897 C109 0.300 . S
C929 C31 0.572 . S
C937 C414 0.418 . S
C961 C181 2.820 . S
C969 C307 3.192 . S
C993 C217 2.841 . S
C1001 C347 3.178 . S
C1033 C387 3.179 . S
C1025 C283 2.723 . S
C1065 C427 3.181 . S
C1057 C145 2.800 . S
C1089 C37 2.876 1_655 S
C1097 C298 3.204 . S
C1129 C338 3.173 . S
C1121 C73 2.804 1_565 S
C1161 C378 3.181 . S
C1153 C139 2.709 . S
C1185 C1 2.860 . S
C1193 C418 3.187 . S
