# Generated by pormake.
# Topology zzz, (3,6)-cn, num edge types: 1
# Building blocks:
#     Node 0, Type 0, BuildingBlock: BELTOD_clean_linker_0, # of connection points: 3
#     Node 1, Type 0, BuildingBlock: BELTOD_clean_linker_0, # of connection points: 3
#     Node 2, Type 0, BuildingBlock: BELTOD_clean_linker_0, # of connection points: 3
#     Node 3, Type 0, BuildingBlock: BELTOD_clean_linker_0, # of connection points: 3
#     Node 4, Type 0, BuildingBlock: BELTOD_clean_linker_0, # of connection points: 3
#     Node 5, Type 0, BuildingBlock: BELTOD_clean_linker_0, # of connection points: 3
#     Node 6, Type 0, BuildingBlock: BELTOD_clean_linker_0, # of connection points: 3
#     Node 7, Type 0, BuildingBlock: BELTOD_clean_linker_0, # of connection points: 3
#     Node 8, Type 1, BuildingBlock: BETFEN_clean_sbu_0, # of connection points: 6
#     Node 9, Type 1, BuildingBlock: BETFEN_clean_sbu_0, # of connection points: 6
#     Node 10, Type 1, BuildingBlock: BETFEN_clean_sbu_0, # of connection points: 6
#     Node 11, Type 1, BuildingBlock: BETFEN_clean_sbu_0, # of connection points: 6
#     Edge 12, Type (0, 1), BuildingBlock: TEMPAE_clean_linker_10, # of connection points: 2
#     Edge 13, Type (0, 1), BuildingBlock: TEMPAE_clean_linker_10, # of connection points: 2
#     Edge 14, Type (0, 1), BuildingBlock: TEMPAE_clean_linker_10, # of connection points: 2
#     Edge 15, Type (0, 1), BuildingBlock: TEMPAE_clean_linker_10, # of connection points: 2
#     Edge 16, Type (0, 1), BuildingBlock: TEMPAE_clean_linker_10, # of connection points: 2
#     Edge 17, Type (0, 1), BuildingBlock: TEMPAE_clean_linker_10, # of connection points: 2
#     Edge 18, Type (0, 1), BuildingBlock: TEMPAE_clean_linker_10, # of connection points: 2
#     Edge 19, Type (0, 1), BuildingBlock: TEMPAE_clean_linker_10, # of connection points: 2
#     Edge 20, Type (0, 1), BuildingBlock: TEMPAE_clean_linker_10, # of connection points: 2
#     Edge 21, Type (0, 1), BuildingBlock: TEMPAE_clean_linker_10, # of connection points: 2
#     Edge 22, Type (0, 1), BuildingBlock: TEMPAE_clean_linker_10, # of connection points: 2
#     Edge 23, Type (0, 1), BuildingBlock: TEMPAE_clean_linker_10, # of connection points: 2
#     Edge 24, Type (0, 1), BuildingBlock: TEMPAE_clean_linker_10, # of connection points: 2
#     Edge 25, Type (0, 1), BuildingBlock: TEMPAE_clean_linker_10, # of connection points: 2
#     Edge 26, Type (0, 1), BuildingBlock: TEMPAE_clean_linker_10, # of connection points: 2
#     Edge 27, Type (0, 1), BuildingBlock: TEMPAE_clean_linker_10, # of connection points: 2
#     Edge 28, Type (0, 1), BuildingBlock: TEMPAE_clean_linker_10, # of connection points: 2
#     Edge 29, Type (0, 1), BuildingBlock: TEMPAE_clean_linker_10, # of connection points: 2
#     Edge 30, Type (0, 1), BuildingBlock: TEMPAE_clean_linker_10, # of connection points: 2
#     Edge 31, Type (0, 1), BuildingBlock: TEMPAE_clean_linker_10, # of connection points: 2
#     Edge 32, Type (0, 1), BuildingBlock: TEMPAE_clean_linker_10, # of connection points: 2
#     Edge 33, Type (0, 1), BuildingBlock: TEMPAE_clean_linker_10, # of connection points: 2
#     Edge 34, Type (0, 1), BuildingBlock: TEMPAE_clean_linker_10, # of connection points: 2
#     Edge 35, Type (0, 1), BuildingBlock: TEMPAE_clean_linker_10, # of connection points: 2
# Relax obj value: 0.438
# Max RMSD: 0.257
# Mean RMSD: 0.245
data_MOF--net-zzz--node1-BETFEN_clean_sbu_0--node2-BELTOD_clean_linker_0--edge1-TEMPAE_clean_linker_10
_symmetry_space_group_name_H-M    P1
_symmetry_Int_Tables_number       1
_symmetry_cell_setting            triclinic
loop_
_symmetry_equiv_pos_as_xyz
'x, y, z'
_cell_length_a     56.776909
_cell_length_b     56.752041
_cell_length_c     17.272226
_cell_angle_alpha  89.754563
_cell_angle_beta   89.978995
_cell_angle_gamma 90.0004
loop_
_atom_site_label
_atom_site_type_symbol
_atom_site_fract_x
_atom_site_fract_y
_atom_site_fract_z
_atom_type_partial_charge
P0 P 0.72648 0.47263 0.38727 0.0
H1 H 0.74137 0.49387 0.53425 0.0
H2 H 0.78016 0.50723 0.57633 0.0
H3 H 0.80433 0.50633 0.3394 0.0
H4 H 0.7654 0.49307 0.29749 0.0
H5 H 0.67728 0.45964 0.37563 0.0
H6 H 0.64659 0.46848 0.28141 0.0
H7 H 0.69331 0.51724 0.16557 0.0
H8 H 0.72408 0.5085 0.26166 0.0
H9 H 0.76217 0.44002 0.44036 0.0
H10 H 0.72494 0.45396 0.22738 0.0
O11 O 0.71468 0.46192 0.46865 0.0
H12 H 0.7926 0.41936 0.36884 0.0
H13 H 0.7547 0.43226 0.15574 0.0
C14 C 0.75033 0.4924 0.41257 0.0
C15 C 0.75464 0.49748 0.49078 0.0
C16 C 0.77697 0.50502 0.51497 0.0
C17 C 0.79551 0.5074 0.46143 0.0
C18 C 0.79054 0.50431 0.38228 0.0
C19 C 0.76812 0.49708 0.35807 0.0
C20 C 0.70289 0.4837 0.32673 0.0
C21 C 0.6808 0.47273 0.33131 0.0
C22 C 0.6633 0.47759 0.2767 0.0
C23 C 0.66751 0.49341 0.21541 0.0
C24 C 0.6894 0.50512 0.21243 0.0
C25 C 0.70701 0.50018 0.26741 0.0
C26 C 0.74151 0.4489 0.3393 0.0
C27 C 0.7599 0.43757 0.37864 0.0
C28 C 0.77733 0.42566 0.33742 0.0
C29 C 0.77643 0.42465 0.2561 0.0
C30 C 0.75626 0.4333 0.21813 0.0
C31 C 0.73906 0.44561 0.25931 0.0
P32 P 0.04012 0.72517 0.39872 0.0
H33 H 0.01926 0.73959 0.54658 0.0
H34 H 0.00649 0.77816 0.59139 0.0
H35 H 0.00779 0.80412 0.35604 0.0
H36 H 0.02083 0.76541 0.31158 0.0
H37 H 0.054 0.6768 0.37411 0.0
H38 H 0.04535 0.648 0.27411 0.0
H39 H 0.99649 0.69673 0.16814 0.0
H40 H 0.00495 0.72553 0.2705 0.0
H41 H 0.07779 0.75155 0.47168 0.0
H42 H 0.05646 0.73371 0.23959 0.0
O43 O 0.04854 0.71111 0.47918 0.0
H44 H 0.10209 0.78356 0.42056 0.0
H45 H 0.08034 0.76566 0.18853 0.0
C46 C 0.02097 0.74939 0.42546 0.0
C47 C 0.01593 0.75323 0.50399 0.0
C48 C 0.0087 0.77547 0.52978 0.0
C49 C 0.00649 0.79447 0.47761 0.0
C50 C 0.00971 0.79004 0.3981 0.0
C51 C 0.01679 0.76772 0.37234 0.0
C52 C 0.02987 0.70323 0.33074 0.0
C53 C 0.04101 0.68118 0.33047 0.0
C54 C 0.03625 0.66477 0.27252 0.0
C55 C 0.02039 0.67007 0.21242 0.0
C56 C 0.00866 0.69198 0.21387 0.0
C57 C 0.01347 0.70849 0.27237 0.0
C58 C 0.06533 0.74021 0.35956 0.0
C59 C 0.07925 0.75373 0.40953 0.0
C60 C 0.093 0.77214 0.38031 0.0
C61 C 0.09286 0.77733 0.30068 0.0
C62 C 0.08102 0.76201 0.2501 0.0
C63 C 0.06724 0.74366 0.27941 0.0
P64 P 0.78328 0.03608 0.41273 0.0
H65 H 0.76703 0.01506 0.5591 0.0
H66 H 0.72784 1.00177 0.5978 0.0
H67 H 0.70594 1.00243 0.35854 0.0
H68 H 0.74525 0.01559 0.32001 0.0
H69 H 0.83257 0.04896 0.40288 0.0
H70 H 0.86365 0.03983 0.31052 0.0
H71 H 0.81732 0.99087 0.19531 0.0
H72 H 0.78621 0.99987 0.28954 0.0
H73 H 0.74754 0.06901 0.46252 0.0
H74 H 0.78566 0.0544 0.25205 0.0
O75 O 0.79459 0.04673 0.49463 0.0
H76 H 0.71749 0.08959 0.38841 0.0
H77 H 0.75626 0.07596 0.17783 0.0
C78 C 0.75922 0.01637 0.43653 0.0
C79 C 0.75418 0.01138 0.51448 0.0
C80 C 0.73163 1.00388 0.5367 0.0
C81 C 0.71361 1.00148 0.48139 0.0
C82 C 0.71933 1.00445 0.40267 0.0
C83 C 0.74196 0.01163 0.38045 0.0
C84 C 0.80714 0.02483 0.3541 0.0
C85 C 0.82923 0.03577 0.35914 0.0
C86 C 0.84695 0.03073 0.3056 0.0
C87 C 0.84296 0.01478 0.24497 0.0
C88 C 0.82107 1.00309 0.2417 0.0
C89 C 0.80325 0.00819 0.2956 0.0
C90 C 0.76864 0.05983 0.36293 0.0
C91 C 0.75009 0.0713 0.40078 0.0
C92 C 0.73288 0.08315 0.35809 0.0
C93 C 0.73414 0.08393 0.27677 0.0
C94 C 0.75445 0.0751 0.24021 0.0
C95 C 0.77144 0.06289 0.28287 0.0
P96 P 0.46051 0.78138 0.38675 0.0
H97 H 0.46775 0.76618 0.54641 0.0
H98 H 0.48127 0.72836 0.59675 0.0
H99 H 0.51009 0.71114 0.37321 0.0
H100 H 0.49592 0.74907 0.32177 0.0
H101 H 0.43462 0.81556 0.29863 0.0
H102 H 0.44527 0.84615 0.20687 0.0
H103 H 0.51896 0.82966 0.24041 0.0
H104 H 0.50774 0.79783 0.3307 0.0
H105 H 0.4278 0.74584 0.4419 0.0
H106 H 0.45172 0.77243 0.22109 0.0
O107 O 0.44521 0.79458 0.45677 0.0
H108 H 0.41097 0.71158 0.37816 0.0
H109 H 0.4333 0.73936 0.1564 0.0
C110 C 0.48103 0.76079 0.43024 0.0
C111 C 0.47794 0.75491 0.50869 0.0
C112 C 0.48544 0.73309 0.53747 0.0
C113 C 0.49652 0.71678 0.48872 0.0
C114 C 0.5017 0.7235 0.41211 0.0
C115 C 0.49388 0.74531 0.38294 0.0
C116 C 0.47034 0.80435 0.32129 0.0
C117 C 0.45312 0.81851 0.28644 0.0
C118 C 0.45931 0.83627 0.23429 0.0
C119 C 0.48307 0.84083 0.21644 0.0
C120 C 0.50047 0.82664 0.25211 0.0
C121 C 0.49413 0.8085 0.30412 0.0
C122 C 0.44094 0.76179 0.33648 0.0
C123 C 0.42842 0.7449 0.3793 0.0
C124 C 0.41869 0.72531 0.34258 0.0
C125 C 0.42111 0.72246 0.2621 0.0
C126 C 0.43162 0.74069 0.21869 0.0
C127 C 0.44189 0.75991 0.25568 0.0
P128 P 0.29498 0.45319 0.03782 0.0
H129 H 0.28184 0.46307 0.87699 0.0
H130 H 0.24499 0.47812 0.82428 0.0
H131 H 0.22534 0.5033 0.05069 0.0
H132 H 0.26257 0.48834 0.10319 0.0
H133 H 0.32888 0.42627 0.12401 0.0
H134 H 0.35911 0.43589 0.21697 0.0
H135 H 0.34578 0.51019 0.17903 0.0
H136 H 0.31379 0.4999 0.08945 0.0
H137 H 0.25532 0.42428 0.9917 0.0
H138 H 0.28868 0.44473 0.20568 0.0
O139 O 0.30647 0.43635 0.96843 0.0
H140 H 0.2195 0.41459 0.06241 0.0
H141 H 0.25384 0.43315 0.2769 0.0
C142 C 0.27523 0.47463 0.99425 0.0
C143 C 0.27021 0.47277 0.91492 0.0
C144 C 0.24882 0.48105 0.88491 0.0
C145 C 0.23187 0.49142 0.9335 0.0
C146 C 0.23794 0.49543 0.01145 0.0
C147 C 0.25942 0.48711 0.04148 0.0
C148 C 0.31899 0.46231 0.09997 0.0
C149 C 0.33252 0.44467 0.13537 0.0
C150 C 0.35015 0.45032 0.18837 0.0
C151 C 0.35546 0.47396 0.20597 0.0
C152 C 0.34218 0.49176 0.16842 0.0
C153 C 0.32397 0.48597 0.11636 0.0
C154 C 0.27466 0.4355 0.09291 0.0
C155 C 0.25547 0.42536 0.0543 0.0
C156 C 0.23495 0.41972 0.09497 0.0
C157 C 0.23361 0.42377 0.17509 0.0
C158 C 0.25413 0.43051 0.21482 0.0
C159 C 0.27431 0.43688 0.17391 0.0
P160 P 0.06004 0.29108 0.06595 0.0
H161 H 0.06264 0.2729 0.91012 0.0
H162 H 0.04799 0.23659 0.85851 0.0
H163 H 0.99792 0.23186 0.04726 0.0
H164 H 0.0148 0.2676 0.10258 0.0
H165 H 0.08196 0.3103 0.20249 0.0
H166 H 0.07152 0.34103 0.29304 0.0
H167 H 0.00664 0.3532 0.16812 0.0
H168 H 0.01695 0.32102 0.07884 0.0
H169 H 0.09638 0.25778 0.0181 0.0
H170 H 0.05368 0.27097 0.22006 0.0
O171 O 0.07909 0.30439 0.00659 0.0
H172 H 0.10134 0.21673 0.05933 0.0
H173 H 0.05954 0.23066 0.26263 0.0
C174 C 0.03968 0.27344 0.00989 0.0
C175 C 0.0478 0.26469 0.93895 0.0
C176 C 0.03929 0.24344 0.9093 0.0
C177 C 0.02175 0.23041 0.94851 0.0
C178 C 0.01192 0.2406 0.01587 0.0
C179 C 0.02104 0.26163 0.04674 0.0
C180 C 0.04996 0.31283 0.13505 0.0
C181 C 0.06523 0.3192 0.19518 0.0
C182 C 0.05937 0.33719 0.24647 0.0
C183 C 0.03832 0.35002 0.23787 0.0
C184 C 0.02291 0.34363 0.17723 0.0
C185 C 0.02875 0.32525 0.126 0.0
C186 C 0.07476 0.26755 0.11613 0.0
C187 C 0.08939 0.25235 0.07372 0.0
C188 C 0.09215 0.22887 0.097 0.0
C189 C 0.08042 0.22062 0.16318 0.0
C190 C 0.06855 0.23668 0.21087 0.0
C191 C 0.06548 0.2599 0.18704 0.0
P192 P 0.21171 0.0525 0.05329 0.0
H193 H 0.22541 0.04051 0.8946 0.0
H194 H 0.26317 0.02713 0.84378 0.0
H195 H 0.28552 0.00864 0.07482 0.0
H196 H 0.24787 0.02243 0.12577 0.0
H197 H 0.16104 0.06099 0.05873 0.0
H198 H 0.13056 0.05098 0.15208 0.0
H199 H 0.18099 0.00979 0.28229 0.0
H200 H 0.21121 0.01908 0.18619 0.0
H201 H 0.25032 0.082 1.00293 0.0
H202 H 0.21423 0.06768 0.21782 0.0
O203 O 0.19923 0.06713 0.97996 0.0
H204 H 0.28496 0.09434 0.07394 0.0
H205 H 0.24846 0.08123 0.28963 0.0
C206 C 0.23341 0.03227 0.01424 0.0
C207 C 0.23792 0.03265 0.93429 0.0
C208 C 0.25973 0.02528 0.9052 0.0
C209 C 0.2775 0.01717 0.95538 0.0
C210 C 0.27218 0.01467 0.03453 0.0
C211 C 0.25039 0.02224 0.0637 0.0
C212 C 0.18853 0.04068 0.11464 0.0
C213 C 0.1655 0.0493 0.10619 0.0
C214 C 0.14805 0.0438 0.16055 0.0
C215 C 0.15324 0.02984 0.2259 0.0
C216 C 0.17615 0.0204 0.23256 0.0
C217 C 0.19356 0.0257 0.17737 0.0
C218 C 0.23006 0.07298 0.10489 0.0
C219 C 0.24939 0.08268 0.06554 0.0
C220 C 0.26928 0.08984 0.10651 0.0
C221 C 0.26985 0.08788 0.18767 0.0
C222 C 0.2489 0.08203 0.22698 0.0
C223 C 0.2292 0.07433 0.18581 0.0
P224 P 0.45015 0.21924 0.05812 0.0
H225 H 0.44806 0.23513 0.89913 0.0
H226 H 0.46337 0.2704 0.84129 0.0
H227 H 0.51352 0.27675 0.02907 0.0
H228 H 0.49591 0.24219 0.09062 0.0
H229 H 0.4287 0.2039 0.20172 0.0
H230 H 0.43847 0.17427 0.2978 0.0
H231 H 0.50127 0.15648 0.16904 0.0
H232 H 0.49178 0.18759 0.07417 0.0
H233 H 0.41414 0.25181 1.00197 0.0
H234 H 0.45678 0.24247 0.20656 0.0
O235 O 0.4311 0.20515 1.00117 0.0
H236 H 0.40998 0.29377 0.03186 0.0
H237 H 0.45169 0.28372 0.23802 0.0
C238 C 0.47095 0.23556 0.999 0.0
C239 C 0.46305 0.24345 0.92651 0.0
C240 C 0.47195 0.26411 0.89321 0.0
C241 C 0.48972 0.27735 0.93012 0.0
C242 C 0.49935 0.26789 0.9992 0.0
C243 C 0.48981 0.24749 0.03375 0.0
C244 C 0.45987 0.19857 0.13187 0.0
C245 C 0.4449 0.19406 0.1948 0.0
C246 C 0.45033 0.17668 0.24932 0.0
C247 C 0.47057 0.16258 0.24133 0.0
C248 C 0.48566 0.16709 0.17789 0.0
C249 C 0.48029 0.18488 0.12344 0.0
C250 C 0.43566 0.2439 0.10222 0.0
C251 C 0.42126 0.25836 0.05591 0.0
C252 C 0.41897 0.28236 0.07265 0.0
C253 C 0.43092 0.29186 0.13625 0.0
C254 C 0.44252 0.27671 0.18815 0.0
C255 C 0.44513 0.25296 0.17076 0.0
Pr256 Pr 0.01445 1.00293 0.81515 0.0
Pr257 Pr 0.98259 0.01806 0.65884 0.0
C258 C 0.02794 0.98722 0.955 0.0
C259 C 0.04269 0.96778 0.98316 0.0
C260 C 0.05272 0.96874 0.05721 0.0
C261 C 0.06532 0.94945 0.08625 0.0
C262 C 0.06784 0.92895 0.04165 0.0
C263 C 0.05859 0.92847 0.96625 0.0
C264 C 0.04622 0.94779 0.93706 0.0
C265 C 0.04293 0.01137 0.68426 0.0
C266 C 0.99676 0.9611 0.68918 0.0
C267 C 0.97315 0.03152 0.51332 0.0
C268 C 0.98572 0.0472 0.45882 0.0
C269 C 0.98653 0.07158 0.47182 0.0
C270 C 1.00152 0.08582 0.4284 0.0
C271 C 0.01625 0.07603 0.37148 0.0
C272 C 0.01422 0.05193 0.35462 0.0
C273 C 0.99901 0.03764 0.39787 0.0
C274 C 0.95368 0.00921 0.78767 0.0
C275 C 1.0018 0.05952 0.78258 0.0
O276 O 0.00809 0.98099 0.92202 0.0
O277 O 0.03891 1.00429 0.91856 0.0
O278 O 0.02091 0.01276 0.68998 0.0
O279 O 0.05158 0.0054 0.7513 0.0
O280 O 0.9864 0.97716 0.64476 0.0
O281 O 0.00772 0.96625 0.75502 0.0
O282 O 0.9838 0.01164 0.52992 0.0
O283 O 0.96346 0.04151 0.57389 0.0
O284 O 0.97581 0.00808 0.78385 0.0
O285 O 0.94532 0.01447 0.7195 0.0
O286 O 0.00731 0.04319 0.83467 0.0
O287 O 0.99502 0.0545 0.71083 0.0
H288 H 0.05025 0.98412 0.09327 0.0
H289 H 0.07214 0.95014 0.14478 0.0
H290 H 0.06044 0.91291 0.93062 0.0
H291 H 0.03884 0.94687 0.8793 0.0
H292 H 0.97621 0.07965 0.51731 0.0
H293 H 1.0019 0.10452 0.44061 0.0
H294 H 0.02498 0.04397 0.31011 0.0
H295 H 0.99831 0.01896 0.38571 0.0
Pr296 Pr 0.50441 0.01485 0.80628 0.0
Pr297 Pr 0.48718 0.98659 0.64498 0.0
C298 C 0.5204 0.02553 0.94805 0.0
C299 C 0.53882 0.04059 0.98077 0.0
C300 C 0.538 0.04677 0.0591 0.0
C301 C 0.55655 0.05938 0.09225 0.0
C302 C 0.57625 0.06588 0.04748 0.0
C303 C 0.57643 0.0605 0.96802 0.0
C304 C 0.55783 0.04801 0.93492 0.0
C305 C 0.49613 0.04609 0.68132 0.0
C306 C 0.54478 0.99701 0.67463 0.0
C307 C 0.46968 0.9813 0.50252 0.0
C308 C 0.45214 0.99613 0.46287 0.0
C309 C 0.43342 0.00577 0.50538 0.0
C310 C 0.41763 0.02124 0.47058 0.0
C311 C 0.42025 0.02768 0.39247 0.0
C312 C 0.439 0.01803 0.34964 0.0
C313 C 0.45489 1.0024 0.38476 0.0
C314 C 0.4947 0.95519 0.76902 0.0
C315 C 0.44762 1.00419 0.77676 0.0
O316 O 0.52786 0.00733 0.90843 0.0
O317 O 0.50244 0.03638 0.91615 0.0
O318 O 0.4939 0.02406 0.68365 0.0
O319 O 0.50303 0.05323 0.74913 0.0
O320 O 0.52817 0.98858 0.62814 0.0
O321 O 0.54028 0.00674 0.74302 0.0
O322 O 0.49011 0.99132 0.51496 0.0
O323 O 0.4619 0.96922 0.56219 0.0
O324 O 0.4973 0.97722 0.76805 0.0
O325 O 0.48841 0.9482 0.70025 0.0
O326 O 0.46448 0.00678 0.82908 0.0
O327 O 0.45218 1.00045 0.70246 0.0
H328 H 0.52332 0.04132 0.09505 0.0
H329 H 0.55576 0.06353 0.15335 0.0
H330 H 0.59144 0.06495 0.9321 0.0
H331 H 0.55866 0.04346 0.8741 0.0
H332 H 0.43096 1.00145 0.56591 0.0
H333 H 0.4031 0.02787 0.50483 0.0
H334 H 0.44154 0.02278 0.28943 0.0
H335 H 0.46946 0.99547 0.35137 0.0
Pr336 Pr 0.49512 0.50299 0.79144 0.0
Pr337 Pr 0.52653 0.49076 0.63138 0.0
C338 C 0.48173 0.51391 0.93602 0.0
C339 C 0.46506 0.53017 0.97234 0.0
C340 C 0.45781 0.52644 0.04893 0.0
C341 C 0.4435 0.54301 0.08585 0.0
C342 C 0.43638 0.56361 0.04662 0.0
C343 C 0.44287 0.56661 0.96851 0.0
C344 C 0.457 0.54999 0.93166 0.0
C345 C 0.46633 0.49541 0.66061 0.0
C346 C 0.51009 0.5468 0.66921 0.0
C347 C 0.53644 0.48011 0.48385 0.0
C348 C 0.52474 0.4652 0.42551 0.0
C349 C 0.52669 0.44057 0.4297 0.0
C350 C 0.51267 0.42638 0.38324 0.0
C351 C 0.49642 0.43645 0.3315 0.0
C352 C 0.49578 0.46102 0.32253 0.0
C353 C 0.50982 0.47532 0.3694 0.0
C354 C 0.55586 0.49927 0.75963 0.0
C355 C 0.50918 0.44729 0.75066 0.0
O356 O 0.4998 0.52374 0.90121 0.0
O357 O 0.4725 0.49641 0.89722 0.0
O358 O 0.48835 0.49438 0.66588 0.0
O359 O 0.45773 0.5006 0.72831 0.0
O360 O 0.51936 0.5314 0.62025 0.0
O361 O 0.50134 0.54083 0.738 0.0
O362 O 0.5252 0.49934 0.5036 0.0
O363 O 0.54609 0.46916 0.54296 0.0
O364 O 0.5337 0.4996 0.75701 0.0
O365 O 0.56399 0.49512 0.69051 0.0
O366 O 0.50421 0.46291 0.80505 0.0
O367 O 0.51502 0.45328 0.67865 0.0
H368 H 0.46372 0.51105 0.0808 0.0
H369 H 0.43858 0.54004 0.1457 0.0
H370 H 0.43809 0.58241 0.93682 0.0
H371 H 0.46234 0.55304 0.87219 0.0
H372 H 0.53834 0.43215 0.47105 0.0
H373 H 0.51404 0.40742 0.38945 0.0
H374 H 0.48365 0.46916 0.2821 0.0
H375 H 0.50832 0.49427 0.36396 0.0
Pr376 Pr 0.00472 0.49891 0.79396 0.0
Pr377 Pr 0.02057 0.52787 0.63209 0.0
C378 C 0.98951 0.48789 0.93665 0.0
C379 C 0.97146 0.47236 0.96965 0.0
C380 C 0.97219 0.46637 0.04832 0.0
C381 C 0.95401 0.45309 0.08132 0.0
C382 C 0.93478 0.44573 0.03603 0.0
C383 C 0.93471 0.45098 0.95633 0.0
C384 C 0.95294 0.46413 0.9234 0.0
C385 C 0.01265 0.46804 0.66887 0.0
C386 C 0.96338 0.51575 0.66359 0.0
C387 C 0.03674 0.53413 0.48843 0.0
C388 C 0.05435 0.51989 0.44733 0.0
C389 C 0.07485 0.5126 0.48613 0.0
C390 C 0.09019 0.49667 0.45191 0.0
C391 C 0.08534 0.48744 0.37835 0.0
C392 C 0.06506 0.49503 0.3387 0.0
C393 C 0.04961 0.51111 0.37315 0.0
C394 C 0.01261 0.55881 0.75632 0.0
C395 C 0.06136 0.51005 0.7603 0.0
O396 O 0.98159 0.50604 0.89716 0.0
O397 O 0.00756 0.47744 0.9042 0.0
O398 O 0.01457 0.49012 0.67056 0.0
O399 O 0.00635 0.4607 0.73732 0.0
O400 O 0.97966 0.52471 0.61672 0.0
O401 O 0.9683 0.50606 0.73202 0.0
O402 O 0.01675 0.52341 0.50255 0.0
O403 O 0.04457 0.54639 0.54734 0.0
O404 O 0.01099 0.5367 0.7556 0.0
O405 O 0.01792 0.56617 0.68686 0.0
O406 O 0.0448 0.50703 0.8136 0.0
O407 O 0.05632 0.51443 0.68653 0.0
H408 H 0.98652 0.47243 0.08457 0.0
H409 H 0.95472 0.44908 0.14264 0.0
H410 H 0.92004 0.44589 0.92 0.0
H411 H 0.95221 0.46852 0.86231 0.0
H412 H 0.07888 0.51883 0.54377 0.0
H413 H 0.10596 0.49163 0.48318 0.0
H414 H 0.06087 0.48814 0.28196 0.0
H415 H 0.03369 0.5162 0.34286 0.0
C416 C 0.11999 0.04482 0.30928 0.0
C417 C 0.13527 0.02636 0.28864 0.0
C418 C 0.10367 0.04232 0.37004 0.0
C419 C 0.10265 0.02095 0.4125 0.0
C420 C 0.11767 1.00208 0.39131 0.0
C421 C 0.13371 0.00499 0.32971 0.0
C422 C 0.08796 0.06286 0.39019 0.0
C423 C 0.11718 0.97896 0.43483 0.0
C424 C 0.08063 0.02275 0.62086 0.0
C425 C 0.05731 0.01499 0.61354 0.0
C426 C 0.09537 0.02511 0.5559 0.0
C427 C 0.08685 0.01886 0.48171 0.0
C428 C 0.06333 0.01076 0.47405 0.0
C429 C 0.04868 0.0093 0.53993 0.0
C430 C 0.12017 0.03411 0.56686 0.0
C431 C 0.05394 1.00296 0.39661 0.0
H432 H 0.12118 0.06159 0.27932 0.0
H433 H 0.14508 0.99046 0.31383 0.0
H434 H 0.06934 0.05704 0.39381 0.0
H435 H 0.0929 0.06982 0.44787 0.0
H436 H 0.08927 0.07741 0.34712 0.0
H437 H 0.12879 0.96551 0.40805 0.0
H438 H 0.12299 0.98177 0.49541 0.0
H439 H 0.09896 0.97194 0.43717 0.0
H440 H 0.08736 0.02711 0.67778 0.0
H441 H 0.03081 1.00283 0.53432 0.0
H442 H 0.12304 0.05003 0.53056 0.0
H443 H 0.133 0.02059 0.5477 0.0
H444 H 0.12397 0.03862 0.62812 0.0
H445 H 0.06439 0.98782 0.37519 0.0
H446 H 0.05588 0.01734 0.35343 0.0
H447 H 0.03518 0.99754 0.39968 0.0
C448 C 0.45654 0.13041 0.33145 0.0
C449 C 0.47533 0.14321 0.29884 0.0
C450 C 0.4602 0.11367 0.39045 0.0
C451 C 0.48331 0.10899 0.41699 0.0
C452 C 0.50253 0.12094 0.38193 0.0
C453 C 0.49832 0.13798 0.32377 0.0
C454 C 0.43918 0.1015 0.42608 0.0
C455 C 0.52751 0.11616 0.40728 0.0
C456 C 0.49022 0.08616 0.62397 0.0
C457 C 0.49258 0.0618 0.61313 0.0
C458 C 0.48725 0.10163 0.5608 0.0
C459 C 0.4871 0.09264 0.48435 0.0
C460 C 0.48976 0.06804 0.47301 0.0
C461 C 0.49226 0.05294 0.53756 0.0
C462 C 0.48401 0.1276 0.57604 0.0
C463 C 0.49005 0.05767 0.39271 0.0
H464 H 0.43874 0.13362 0.31137 0.0
H465 H 0.51303 0.14769 0.29955 0.0
H466 H 0.44146 0.08212 0.42335 0.0
H467 H 0.43776 0.10629 0.48812 0.0
H468 H 0.42244 0.10632 0.39674 0.0
H469 H 0.54061 0.12528 0.36991 0.0
H470 H 0.52997 0.12218 0.46777 0.0
H471 H 0.53113 0.09695 0.40629 0.0
H472 H 0.49045 0.09317 0.68226 0.0
H473 H 0.49448 0.03427 0.52881 0.0
H474 H 0.46688 0.13358 0.55208 0.0
H475 H 0.49802 0.13784 0.54635 0.0
H476 H 0.48449 0.1318 0.63878 0.0
H477 H 0.47261 0.06018 0.36495 0.0
H478 H 0.49423 0.03855 0.39334 0.0
H479 H 0.50324 0.06691 0.35615 0.0
C480 C 0.39328 0.46403 0.2766 0.0
C481 C 0.37419 0.4795 0.26503 0.0
C482 C 0.40926 0.46707 0.33791 0.0
C483 C 0.40704 0.48673 0.38747 0.0
C484 C 0.38889 0.50335 0.3732 0.0
C485 C 0.37251 0.49937 0.31324 0.0
C486 C 0.42781 0.44851 0.35178 0.0
C487 C 0.38628 0.525 0.42294 0.0
C488 C 0.42973 0.48195 0.59487 0.0
C489 C 0.45203 0.4924 0.58953 0.0
C490 C 0.4152 0.47964 0.52943 0.0
C491 C 0.42267 0.48893 0.45716 0.0
C492 C 0.44511 0.49985 0.45173 0.0
C493 C 0.45974 0.50102 0.51768 0.0
C494 C 0.39184 0.46715 0.53769 0.0
C495 C 0.45333 0.51089 0.37684 0.0
H496 H 0.3956 0.44909 0.2386 0.0
H497 H 0.35796 0.51151 0.30609 0.0
H498 H 0.42856 0.43548 0.30407 0.0
H499 H 0.44537 0.45675 0.35839 0.0
H500 H 0.4239 0.43899 0.40654 0.0
H501 H 0.37342 0.53773 0.3983 0.0
H502 H 0.38021 0.51979 0.48159 0.0
H503 H 0.40352 0.53398 0.42965 0.0
H504 H 0.42376 0.47527 0.65042 0.0
H505 H 0.47681 0.5095 0.51377 0.0
H506 H 0.39078 0.45242 0.49578 0.0
H507 H 0.37724 0.47947 0.52418 0.0
H508 H 0.3891 0.45997 0.59696 0.0
H509 H 0.45326 0.49765 0.32984 0.0
H510 H 0.47128 0.51852 0.38171 0.0
H511 H 0.44096 0.5251 0.35944 0.0
C512 C 0.05142 0.38424 0.31976 0.0
C513 C 0.03304 0.36996 0.29211 0.0
C514 C 0.04756 0.40134 0.37698 0.0
C515 C 0.0246 0.40493 0.40651 0.0
C516 C 0.00567 0.39157 0.37589 0.0
C517 C 0.01012 0.37416 0.31956 0.0
C518 C 0.0683 0.41495 0.40793 0.0
C519 C 0.98082 0.39511 0.40456 0.0
C520 C 0.01976 0.42823 0.61277 0.0
C521 C 0.01601 0.4524 0.6009 0.0
C522 C 0.02247 0.41269 0.55017 0.0
C523 C 0.02089 0.42136 0.47327 0.0
C524 C 0.01679 0.44576 0.46088 0.0
C525 C 0.01463 0.461 0.52485 0.0
C526 C 0.02735 0.38699 0.56647 0.0
C527 C 0.01451 0.45571 0.38008 0.0
H528 H 0.0691 0.38183 0.29749 0.0
H529 H 0.99573 0.36332 0.29905 0.0
H530 H 0.06494 0.43414 0.40273 0.0
H531 H 0.07074 0.41095 0.47035 0.0
H532 H 0.08489 0.41065 0.37698 0.0
H533 H 0.96776 0.38529 0.36933 0.0
H534 H 0.97945 0.389 0.4655 0.0
H535 H 0.97619 0.4141 0.40352 0.0
H536 H 0.02084 0.42144 0.67143 0.0
H537 H 0.01128 0.47952 0.51538 0.0
H538 H 0.04438 0.38183 0.53995 0.0
H539 H 0.01347 0.37589 0.53994 0.0
H540 H 0.02808 0.38303 0.62946 0.0
H541 H 0.03125 0.45325 0.34806 0.0
H542 H 0.01005 0.47476 0.38019 0.0
H543 H 1.00064 0.44607 0.34787 0.0
C544 C 0.86649 0.98951 0.15296 0.0
C545 C 0.86096 0.01183 0.18265 0.0
C546 C 0.88298 0.98693 0.09254 0.0
C547 C 0.89397 0.00715 0.06028 0.0
C548 C 0.88867 0.02965 0.09084 0.0
C549 C 0.87233 0.03169 0.1515 0.0
C550 C 0.88831 0.96261 0.06222 0.0
C551 C 0.89967 0.05173 0.05769 0.0
C552 C 0.94875 1.00419 0.93187 0.0
C553 C 0.93885 0.0064 0.85787 0.0
C554 C 0.93435 1.00343 0.99843 0.0
C555 C 0.90953 0.00519 0.99066 0.0
C556 C 0.89952 0.00682 0.91575 0.0
C557 C 0.91427 0.00734 0.85053 0.0
C558 C 0.94574 1.0015 0.07711 0.0
C559 C 0.87322 0.00892 0.90448 0.0
H560 H 0.85796 0.97406 0.17713 0.0
H561 H 0.86792 0.04904 0.17312 0.0
H562 H 0.88213 0.96114 1.00152 0.0
H563 H 0.90761 0.95952 0.06195 0.0
H564 H 0.87973 0.94856 0.09721 0.0
H565 H 0.89463 0.06776 0.09046 0.0
H566 H 0.91915 0.0502 0.05791 0.0
H567 H 0.89408 0.05404 0.99656 0.0
H568 H 0.96771 1.0037 0.93794 0.0
H569 H 0.90648 0.00906 0.79348 0.0
H570 H 0.93729 0.98728 0.11152 0.0
H571 H 0.9432 0.0182 0.10918 0.0
H572 H 0.96494 0.99787 0.07307 0.0
H573 H 0.86403 0.99418 0.93409 0.0
H574 H 0.86815 0.00889 0.84236 0.0
H575 H 0.86683 0.02553 0.93087 0.0
C576 C 0.50747 0.85715 0.10554 0.0
C577 C 0.48909 0.85992 0.15928 0.0
C578 C 0.51127 0.87382 0.04601 0.0
C579 C 0.49605 0.89352 0.03878 0.0
C580 C 0.47823 0.897 0.0949 0.0
C581 C 0.47523 0.88044 0.15483 0.0
C582 C 0.53091 0.86975 0.98873 0.0
C583 C 0.46138 0.91754 0.08928 0.0
C584 C 0.50886 0.94572 0.904 0.0
C585 C 0.4961 0.93947 0.83776 0.0
C586 C 0.50974 0.93063 0.9691 0.0
C587 C 0.49703 0.9091 0.96857 0.0
C588 C 0.48414 0.9028 0.90152 0.0
C589 C 0.48412 0.91788 0.83681 0.0
C590 C 0.52424 0.93772 0.03838 0.0
C591 C 0.46983 0.88038 0.89873 0.0
H592 H 0.51834 0.84147 0.10784 0.0
H593 H 0.46148 0.88332 0.19724 0.0
H594 H 0.52337 0.86435 0.93228 0.0
H595 H 0.54097 0.88625 0.97884 0.0
H596 H 0.54326 0.85579 0.00858 0.0
H597 H 0.44938 0.91856 0.13998 0.0
H598 H 0.47121 0.93436 0.08454 0.0
H599 H 0.45054 0.91582 0.03613 0.0
H600 H 0.51837 0.96224 0.90454 0.0
H601 H 0.47414 0.91299 0.78584 0.0
H602 H 0.537 0.92356 0.05292 0.0
H603 H 0.51267 0.94007 0.0895 0.0
H604 H 0.53408 0.95438 0.0282 0.0
H605 H 0.48138 0.86491 0.90877 0.0
H606 H 0.4607 0.87809 0.8424 0.0
H607 H 0.45643 0.88048 0.94551 0.0
C608 C 0.6384 0.47635 0.12179 0.0
C609 C 0.64967 0.49627 0.15242 0.0
C610 C 0.62202 0.47832 0.06114 0.0
C611 C 0.61656 0.5008 0.03009 0.0
C612 C 0.62753 0.52106 0.06161 0.0
C613 C 0.64407 0.51855 0.12199 0.0
C614 C 0.61108 0.4562 0.02874 0.0
C615 C 0.62205 0.54536 0.03074 0.0
C616 C 0.5955 0.50089 0.82103 0.0
C617 C 0.57093 0.50178 0.82933 0.0
C618 C 0.61048 0.50126 0.88568 0.0
C619 C 0.60074 0.50273 0.961 0.0
C620 C 0.57593 0.5044 0.96973 0.0
C621 C 0.5613 0.50376 0.90375 0.0
C622 C 0.63674 0.49922 0.87335 0.0
C623 C 0.56482 0.50617 0.04885 0.0
H624 H 0.64286 0.45902 0.14398 0.0
H625 H 0.65253 0.53404 0.14571 0.0
H626 H 0.5916 0.45757 0.02981 0.0
H627 H 0.61645 0.45402 0.96739 0.0
H628 H 0.61638 0.44016 0.06149 0.0
H629 H 0.63079 0.55943 0.06478 0.0
H630 H 0.62793 0.54681 0.96965 0.0
H631 H 0.60275 0.54844 0.03145 0.0
H632 H 0.60309 0.49933 0.76368 0.0
H633 H 0.54236 0.50428 0.91055 0.0
H634 H 0.64327 0.48262 0.8999 0.0
H635 H 0.64599 0.51399 0.90221 0.0
H636 H 0.64158 0.49929 0.81102 0.0
H637 H 0.56774 0.48952 0.08134 0.0
H638 H 0.54556 0.50952 0.04559 0.0
H639 H 0.57321 0.52053 0.08242 0.0
C640 C 0.03693 0.64171 0.1152 0.0
C641 C 0.01726 0.65316 0.14697 0.0
C642 C 0.03462 0.62571 0.05379 0.0
C643 C 0.01205 0.62089 0.02279 0.0
C644 C 0.99205 0.63226 0.05472 0.0
C645 C 0.9949 0.64833 0.11613 0.0
C646 C 0.05648 0.61427 0.02115 0.0
C647 C 0.96768 0.62755 0.02367 0.0
C648 C 0.0119 0.59891 0.81481 0.0
C649 C 0.01023 0.57442 0.82467 0.0
C650 C 0.0117 0.61422 0.87854 0.0
C651 C 0.00974 0.60488 0.95446 0.0
C652 C 0.0073 0.58017 0.96468 0.0
C653 C 0.00767 0.56522 0.89965 0.0
C654 C 0.01445 0.64037 0.86466 0.0
C655 C 0.00509 0.56945 0.04444 0.0
H656 H 0.05433 0.64559 0.13753 0.0
H657 H 0.97957 0.65691 0.14062 0.0
H658 H 0.0547 0.59481 0.02309 0.0
H659 H 0.05868 0.61942 0.95954 0.0
H660 H 0.07265 0.61931 0.05325 0.0
H661 H 0.95384 0.63707 0.05658 0.0
H662 H 0.96667 0.63303 0.96203 0.0
H663 H 0.96385 0.60839 0.02604 0.0
H664 H 0.01389 0.60616 0.757 0.0
H665 H 0.00657 0.54632 0.90768 0.0
H666 H 0.03127 0.64652 0.89024 0.0
H667 H 1.00002 0.65016 0.89352 0.0
H668 H 0.0144 0.64495 0.80206 0.0
H669 H 0.02175 0.57205 0.07681 0.0
H670 H 1.0012 0.55028 0.04233 0.0
H671 H 0.99092 0.57838 0.07745 0.0
C672 C 0.09446 0.17893 0.18213 0.0
C673 C 0.07608 0.19523 0.17451 0.0
C674 C 0.08958 0.15531 0.20149 0.0
C675 C 0.06593 0.1483 0.21407 0.0
C676 C 0.04735 0.16437 0.19962 0.0
C677 C 0.0527 0.18757 0.17951 0.0
C678 C 0.10974 0.13832 0.2125 0.0
C679 C 0.02182 0.15768 0.2113 0.0
C680 C 0.03771 0.08948 0.25165 0.0
C681 C 0.03375 0.09121 0.33161 0.0
C682 C 0.0512 0.10654 0.21263 0.0
C683 C 0.06021 0.12595 0.25449 0.0
C684 C 0.05847 0.12623 0.3362 0.0
C685 C 0.04551 0.10867 0.37376 0.0
C686 C 0.05381 0.10487 0.12594 0.0
C687 C 0.06799 0.14645 0.38348 0.0
H688 H 0.11253 0.18482 0.17624 0.0
H689 H 0.0385 0.20008 0.1705 0.0
H690 H 0.11454 0.13751 0.27469 0.0
H691 H 0.10479 0.12028 0.19401 0.0
H692 H 0.12556 0.14405 0.17955 0.0
H693 H 0.00957 0.17188 0.19268 0.0
H694 H 0.01756 0.14153 0.17833 0.0
H695 H 0.01858 0.15385 0.27348 0.0
H696 H 0.02913 0.07573 0.21868 0.0
H697 H 0.04352 0.10937 0.43614 0.0
H698 H 0.06998 0.11388 0.10519 0.0
H699 H 0.03841 0.11331 0.09784 0.0
H700 H 0.05428 0.08617 0.1072 0.0
H701 H 0.08643 0.15039 0.36701 0.0
H702 H 0.06739 0.14271 0.44665 0.0
H703 H 0.05736 0.1625 0.37185 0.0
C704 C 0.29671 0.0686 0.28266 0.0
C705 C 0.29293 0.08664 0.22821 0.0
C706 C 0.31932 0.06331 0.30953 0.0
C707 C 0.33879 0.07626 0.28101 0.0
C708 C 0.33507 0.09552 0.2302 0.0
C709 C 0.31212 0.10051 0.20435 0.0
C710 C 0.32249 0.0427 0.36433 0.0
C711 C 0.35539 0.10994 0.19957 0.0
C712 C 0.3932 0.06247 0.39753 0.0
C713 C 0.40252 0.04341 0.35602 0.0
C714 C 0.37366 0.07501 0.36998 0.0
C715 C 0.36291 0.06799 0.30001 0.0
C716 C 0.37328 0.04995 0.25493 0.0
C717 C 0.39308 0.03793 0.28337 0.0
C718 C 0.36345 0.09446 0.41896 0.0
C719 C 0.36235 0.04203 0.17972 0.0
H720 H 0.28222 0.05741 0.30055 0.0
H721 H 0.30936 0.11466 0.16301 0.0
H722 H 0.33219 0.02837 0.33457 0.0
H723 H 0.3331 0.04803 0.41525 0.0
H724 H 0.30541 0.03554 0.38524 0.0
H725 H 0.34934 0.12674 0.17296 0.0
H726 H 0.36814 0.11397 0.24634 0.0
H727 H 0.36489 0.09969 0.15482 0.0
H728 H 0.40061 0.06702 0.4533 0.0
H729 H 0.40011 0.02317 0.25111 0.0
H730 H 0.34772 0.08775 0.45014 0.0
H731 H 0.35773 0.10952 0.38238 0.0
H732 H 0.37631 0.10091 0.46249 0.0
H733 H 0.34489 0.03395 0.19127 0.0
H734 H 0.37348 0.02891 0.14932 0.0
H735 H 0.35949 0.05735 0.14077 0.0
C736 C 0.45927 0.32461 0.14299 0.0
C737 C 0.43574 0.31732 0.14082 0.0
C738 C 0.46513 0.34788 0.15984 0.0
C739 C 0.44692 0.36438 0.17352 0.0
C740 C 0.42309 0.35773 0.16265 0.0
C741 C 0.4177 0.33403 0.14681 0.0
C742 C 0.4908 0.35409 0.17075 0.0
C743 C 0.40333 0.37519 0.173 0.0
C744 C 0.46826 0.40309 0.33308 0.0
C745 C 0.47948 0.42102 0.29113 0.0
C746 C 0.45513 0.38578 0.29555 0.0
C747 C 0.45312 0.3865 0.2139 0.0
C748 C 0.46209 0.40607 0.17213 0.0
C749 C 0.47537 0.42316 0.2114 0.0
C750 C 0.44559 0.36543 0.34279 0.0
C751 C 0.45963 0.40799 0.08541 0.0
H752 H 0.47319 0.31172 0.13544 0.0
H753 H 0.39949 0.32839 0.14311 0.0
H754 H 0.49518 0.37058 0.13935 0.0
H755 H 0.49434 0.35709 0.23314 0.0
H756 H 0.50272 0.33989 0.15031 0.0
H757 H 0.38702 0.36927 0.14333 0.0
H758 H 0.39935 0.37709 0.23554 0.0
H759 H 0.40838 0.39282 0.15036 0.0
H760 H 0.47062 0.40202 0.3953 0.0
H761 H 0.48365 0.43732 0.17901 0.0
H762 H 0.45604 0.34933 0.33051 0.0
H763 H 0.42705 0.36172 0.32693 0.0
H764 H 0.44641 0.36888 0.40601 0.0
H765 H 0.47532 0.40005 0.05757 0.0
H766 H 0.45874 0.42674 0.06689 0.0
H767 H 0.44373 0.39866 0.0641 0.0
C768 C 0.19143 0.41125 0.19521 0.0
C769 C 0.2103 0.42627 0.21302 0.0
C770 C 0.16851 0.41629 0.22122 0.0
C771 C 0.16453 0.4369 0.26517 0.0
C772 C 0.18367 0.45147 0.28619 0.0
C773 C 0.20623 0.446 0.25978 0.0
C774 C 0.14853 0.4002 0.19874 0.0
C775 C 0.18021 0.47366 0.3331 0.0
C776 C 0.10947 0.47372 0.26628 0.0
C777 C 0.10215 0.47068 0.34307 0.0
C778 C 0.12862 0.46095 0.23708 0.0
C779 C 0.14041 0.44462 0.28571 0.0
C780 C 0.13152 0.43976 0.36049 0.0
C781 C 0.11268 0.4531 0.3887 0.0
C782 C 0.1376 0.46661 0.1569 0.0
C783 C 0.14317 0.42202 0.41334 0.0
H784 H 0.19447 0.39594 0.15927 0.0
H785 H 0.22049 0.4581 0.27228 0.0
H786 H 0.13629 0.39742 0.24804 0.0
H787 H 0.13831 0.40844 0.15106 0.0
H788 H 0.15501 0.3828 0.17859 0.0
H789 H 0.19713 0.4825 0.34707 0.0
H790 H 0.16902 0.48627 0.30038 0.0
H791 H 0.17101 0.46952 0.38816 0.0
H792 H 0.10141 0.48731 0.23084 0.0
H793 H 0.10671 0.45032 0.44767 0.0
H794 H 0.1406 0.45019 0.12374 0.0
H795 H 0.15474 0.47594 0.16111 0.0
H796 H 0.12515 0.47798 0.12433 0.0
H797 H 0.14863 0.40612 0.38076 0.0
H798 H 0.13131 0.41656 0.46138 0.0
H799 H 0.15923 0.42996 0.43888 0.0
C800 C 0.09158 0.82095 0.31114 0.0
C801 C 0.1 0.80098 0.27237 0.0
C802 C 0.09173 0.84313 0.27541 0.0
C803 C 0.10065 0.84539 0.19923 0.0
C804 C 0.11166 0.82587 0.16345 0.0
C805 C 0.11102 0.80377 0.20026 0.0
C806 C 0.07972 0.86338 0.31579 0.0
C807 C 0.12204 0.82778 0.08327 0.0
C808 C 0.06465 0.88639 0.07338 0.0
C809 C 0.07774 0.90725 0.07642 0.0
C810 C 0.07236 0.86599 0.11134 0.0
C811 C 0.09397 0.86635 0.15235 0.0
C812 C 0.1078 0.88711 0.15301 0.0
C813 C 0.09933 0.90751 0.11581 0.0
C814 C 0.05683 0.84436 0.11019 0.0
C815 C 0.13112 0.88797 0.19472 0.0
H816 H 0.08279 0.81894 0.36653 0.0
H817 H 0.11782 0.78841 0.17053 0.0
H818 H 0.08957 0.88005 0.30727 0.0
H819 H 0.06188 0.86585 0.29076 0.0
H820 H 0.07783 0.86007 0.37893 0.0
H821 H 0.13426 0.81297 0.07091 0.0
H822 H 0.10765 0.82739 0.03986 0.0
H823 H 0.13164 0.84467 0.07585 0.0
H824 H 0.04781 0.88629 0.04375 0.0
H825 H 0.10949 0.92366 0.11776 0.0
H826 H 0.05124 0.83985 0.17004 0.0
H827 H 0.06675 0.82907 0.08729 0.0
H828 H 0.04081 0.8469 0.07419 0.0
H829 H 0.1281 0.88758 0.25815 0.0
H830 H 0.14124 0.90415 0.18021 0.0
H831 H 0.14195 0.87233 0.18006 0.0
C832 C 0.70633 0.07446 0.16968 0.0
C833 C 0.71262 0.08934 0.23098 0.0
C834 C 0.68387 0.07544 0.13659 0.0
C835 C 0.66715 0.09163 0.16568 0.0
C836 C 0.67389 0.10801 0.2231 0.0
C837 C 0.6966 0.10668 0.25517 0.0
C838 C 0.67744 0.05769 0.07509 0.0
C839 C 0.65665 0.12577 0.25468 0.0
C840 C 0.61106 0.09326 0.04702 0.0
C841 C 0.59761 0.07588 0.08457 0.0
C842 C 0.6332 0.09994 0.07576 0.0
C843 C 0.64204 0.0889 0.14333 0.0
C844 C 0.62785 0.07254 0.18428 0.0
C845 C 0.60583 0.06622 0.15436 0.0
C846 C 0.64769 0.11767 0.03109 0.0
C847 C 0.6366 0.06036 0.25674 0.0
H848 H 0.71833 0.06075 0.15111 0.0
H849 H 0.70143 0.11848 0.3017 0.0
H850 H 0.66499 0.04457 0.09968 0.0
H851 H 0.66849 0.06649 0.02577 0.0
H852 H 0.6931 0.04815 0.05276 0.0
H853 H 0.66566 0.13991 0.28769 0.0
H854 H 0.64625 0.13392 0.20727 0.0
H855 H 0.6441 0.11673 0.29407 0.0
H856 H 0.60461 0.10108 0.99372 0.0
H857 H 0.5957 0.05262 0.18338 0.0
H858 H 0.66189 0.10837 0.99934 0.0
H859 H 0.65623 0.13036 0.07089 0.0
H860 H 0.63688 0.1276 0.98842 0.0
H861 H 0.65135 0.04836 0.24185 0.0
H862 H 0.62258 0.04984 0.28554 0.0
H863 H 0.64344 0.07345 0.29859 0.0
C864 C 0.4322 0.69021 0.17147 0.0
C865 C 0.41625 0.69923 0.22587 0.0
C866 C 0.43022 0.66715 0.14424 0.0
C867 C 0.41202 0.65247 0.17286 0.0
C868 C 0.39518 0.66164 0.22506 0.0
C869 C 0.39747 0.68499 0.25092 0.0
C870 C 0.44849 0.65813 0.08794 0.0
C871 C 0.37551 0.64652 0.2566 0.0
C872 C 0.40822 0.59765 0.05139 0.0
C873 C 0.42493 0.58332 0.08862 0.0
C874 C 0.40183 0.61955 0.08231 0.0
C875 C 0.41229 0.62711 0.15223 0.0
C876 C 0.42701 0.61156 0.19442 0.0
C877 C 0.43325 0.58987 0.1619 0.0
C878 C 0.38579 0.63548 0.03615 0.0
C879 C 0.43824 0.61881 0.26992 0.0
H880 H 0.44709 0.70075 0.15288 0.0
H881 H 0.3849 0.69187 0.29231 0.0
H882 H 0.45935 0.64434 0.1164 0.0
H883 H 0.43982 0.64997 0.03714 0.0
H884 H 0.46041 0.67231 0.06695 0.0
H885 H 0.3617 0.65721 0.28545 0.0
H886 H 0.36725 0.63604 0.20984 0.0
H887 H 0.38279 0.63391 0.29963 0.0
H888 H 0.40121 0.59239 0.99571 0.0
H889 H 0.44617 0.57898 0.19126 0.0
H890 H 0.39657 0.6488 0.00497 0.0
H891 H 0.37348 0.6451 0.07464 0.0
H892 H 0.37541 0.62549 0.99274 0.0
H893 H 0.45264 0.63155 0.25804 0.0
H894 H 0.44581 0.6035 0.30163 0.0
H895 H 0.42524 0.62767 0.30787 0.0
C896 C 0.80464 0.434 0.14968 0.0
C897 C 0.79821 0.41926 0.21163 0.0
C898 C 0.82732 0.43324 0.11813 0.0
C899 C 0.8441 0.41745 0.14949 0.0
C900 C 0.83722 0.40112 0.20737 0.0
C901 C 0.8143 0.40221 0.23785 0.0
C902 C 0.83386 0.45089 0.05595 0.0
C903 C 0.85452 0.38374 0.24127 0.0
C904 C 0.90103 0.41708 0.03521 0.0
C905 C 0.91367 0.43498 0.07266 0.0
C906 C 0.87894 0.40975 0.06288 0.0
C907 C 0.86932 0.42067 0.12921 0.0
C908 C 0.88276 0.43749 0.17037 0.0
C909 C 0.90475 0.44445 0.14154 0.0
C910 C 0.86528 0.39151 0.01812 0.0
C911 C 0.87319 0.44954 0.24162 0.0
H912 H 0.79258 0.44748 0.12947 0.0
H913 H 0.80936 0.39048 0.28482 0.0
H914 H 0.84588 0.46434 0.0806 0.0
H915 H 0.84334 0.4421 0.00792 0.0
H916 H 0.81819 0.46005 0.03177 0.0
H917 H 0.84549 0.36942 0.27376 0.0
H918 H 0.86557 0.3758 0.19526 0.0
H919 H 0.86647 0.39305 0.28172 0.0
H920 H 0.90803 0.40938 0.98268 0.0
H921 H 0.91426 0.45842 0.1705 0.0
H922 H 0.85126 0.40037 0.98399 0.0
H923 H 0.85657 0.37884 0.05794 0.0
H924 H 0.87674 0.38161 0.97751 0.0
H925 H 0.85827 0.46116 0.22506 0.0
H926 H 0.88673 0.46043 0.27103 0.0
H927 H 0.86636 0.43634 0.2835 0.0
C928 C 0.00724 0.18864 0.97564 0.0
C929 C 0.01546 0.20572 0.92259 0.0
C930 C 1.00309 0.16512 0.95315 0.0
C931 C 0.00847 0.15786 0.87676 0.0
C932 C 0.01659 0.17485 0.82278 0.0
C933 C 0.01923 0.19852 0.8455 0.0
C934 C 0.99332 0.14793 0.01183 0.0
C935 C 0.0233 0.16792 0.74135 0.0
C936 C 0.02327 0.09278 0.84633 0.0
C937 C 1.00345 0.08463 0.80615 0.0
C938 C 0.02522 0.11653 0.86893 0.0
C939 C 0.00645 0.13241 0.85385 0.0
C940 C 0.98605 0.12402 0.81524 0.0
C941 C 0.98504 0.1004 0.7903 0.0
C942 C 0.04769 0.12477 0.90696 0.0
C943 C 0.96512 0.13988 0.80146 0.0
H944 H 0.00453 0.19328 0.03565 0.0
H945 H 0.02465 0.21125 0.80228 0.0
H946 H 0.97851 0.1378 0.98645 0.0
H947 H 0.00713 0.13509 0.02855 0.0
H948 H 0.98698 0.15688 0.06495 0.0
H949 H 0.03033 0.18299 0.70723 0.0
H950 H 0.03687 0.15384 0.74317 0.0
H951 H 0.0078 0.16067 0.71058 0.0
H952 H 0.03758 0.08065 0.85837 0.0
H953 H 0.96954 0.09406 0.76023 0.0
H954 H 0.04381 0.13344 0.96293 0.0
H955 H 0.05637 0.1381 0.86935 0.0
H956 H 0.06024 0.11009 0.91755 0.0
H957 H 0.95943 0.14793 0.85686 0.0
H958 H 0.94998 0.13027 0.77593 0.0
H959 H 0.97004 0.15449 0.76184 0.0
C960 C 0.31268 0.03159 0.88115 0.0
C961 C 0.30211 0.01395 0.92664 0.0
C962 C 0.33623 0.02974 0.85663 0.0
C963 C 0.3496 0.00956 0.87693 0.0
C964 C 0.33895 0.99153 0.92203 0.0
C965 C 0.31543 0.99405 0.94705 0.0
C966 C 0.34693 0.04963 0.81017 0.0
C967 C 0.35241 0.96957 0.94399 0.0
C968 C 0.40433 0.99716 0.75479 0.0
C969 C 0.42255 0.00544 0.80251 0.0
C970 C 0.38063 0.99796 0.77881 0.0
C971 C 0.37483 0.00763 0.85191 0.0
C972 C 0.39312 0.0161 0.9002 0.0
C973 C 0.4167 0.01473 0.87527 0.0
C974 C 0.36178 0.98845 0.72587 0.0
C975 C 0.38775 0.02686 0.97802 0.0
H976 H 0.30266 0.04723 0.8664 0.0
H977 H 0.30739 0.98037 0.98214 0.0
H978 H 0.36234 0.05695 0.84147 0.0
H979 H 0.3534 0.04298 0.75375 0.0
H980 H 0.3342 0.06412 0.7991 0.0
H981 H 0.34137 0.95676 0.97657 0.0
H982 H 0.35926 0.96086 0.89117 0.0
H983 H 0.36782 0.97429 0.98017 0.0
H984 H 0.40859 0.98977 0.69875 0.0
H985 H 0.43055 0.02127 0.9126 0.0
H986 H 0.3494 1.00275 0.70954 0.0
H987 H 0.3514 0.9747 0.75647 0.0
H988 H 0.36921 0.98074 0.67213 0.0
H989 H 0.3761 0.0424 0.97049 0.0
H990 H 0.40392 0.03247 0.00911 0.0
H991 H 0.37815 0.01397 0.01471 0.0
C992 C 0.49238 0.30802 0.82218 0.0
C993 C 0.4964 0.3016 0.90008 0.0
C994 C 0.49514 0.3314 0.79594 0.0
C995 C 0.50368 0.34886 0.847 0.0
C996 C 0.50953 0.34231 0.92388 0.0
C997 C 0.50521 0.31912 0.95002 0.0
C998 C 0.48795 0.33759 0.71415 0.0
C999 C 0.51983 0.36001 0.97938 0.0
C1000 C 0.52602 0.40631 0.75522 0.0
C1001 C 0.50766 0.42196 0.7723 0.0
C1002 C 0.52528 0.38265 0.78069 0.0
C1003 C 0.50523 0.37415 0.82127 0.0
C1004 C 0.48643 0.38988 0.83705 0.0
C1005 C 0.4881 0.41364 0.81378 0.0
C1006 C 0.54625 0.36693 0.76621 0.0
C1007 C 0.46433 0.38154 0.87744 0.0
H1008 H 0.48658 0.29493 0.7811 0.0
H1009 H 0.50821 0.31512 0.01049 0.0
H1010 H 0.47399 0.35129 0.71529 0.0
H1011 H 0.5031 0.34507 0.68191 0.0
H1012 H 0.48119 0.3221 0.68188 0.0
H1013 H 0.52714 0.35144 0.03205 0.0
H1014 H 0.53404 0.37031 0.95091 0.0
H1015 H 0.50599 0.37263 0.99731 0.0
H1016 H 0.54134 0.41281 0.72428 0.0
H1017 H 0.47385 0.4257 0.82694 0.0
H1018 H 0.54103 0.35165 0.73037 0.0
H1019 H 0.55292 0.35985 0.82205 0.0
H1020 H 0.56082 0.3764 0.73643 0.0
H1021 H 0.4559 0.36742 0.84285 0.0
H1022 H 0.45138 0.39598 0.88592 0.0
H1023 H 0.46868 0.37386 0.93479 0.0
C1024 C 0.19589 0.47836 0.86032 0.0
C1025 C 0.2073 0.49562 0.90481 0.0
C1026 C 0.17244 0.48119 0.83555 0.0
C1027 C 0.15989 0.50192 0.85495 0.0
C1028 C 0.17136 0.51957 0.89907 0.0
C1029 C 0.1948 0.51614 0.92395 0.0
C1030 C 0.16092 0.46169 0.78994 0.0
C1031 C 0.15877 0.54204 0.92046 0.0
C1032 C 0.1048 0.51607 0.73548 0.0
C1033 C 0.08659 0.50829 0.78446 0.0
C1034 C 0.12863 0.51452 0.75809 0.0
C1035 C 0.13458 0.50467 0.83111 0.0
C1036 C 0.11628 0.49672 0.88059 0.0
C1037 C 0.09262 0.49878 0.85704 0.0
C1038 C 0.14748 0.5234 0.70368 0.0
C1039 C 0.12172 0.48575 0.95828 0.0
H1040 H 0.20515 0.46221 0.84651 0.0
H1041 H 0.20342 0.52961 0.95805 0.0
H1042 H 0.14549 0.45477 0.82227 0.0
H1043 H 0.15433 0.46862 0.73385 0.0
H1044 H 0.17317 0.44686 0.77828 0.0
H1045 H 0.17039 0.5545 0.95198 0.0
H1046 H 0.15204 0.5509 0.86752 0.0
H1047 H 0.14334 0.53793 0.95752 0.0
H1048 H 0.10045 0.52356 0.67947 0.0
H1049 H 0.07881 0.49259 0.8954 0.0
H1050 H 0.15934 0.50872 0.68727 0.0
H1051 H 0.15843 0.53686 0.73309 0.0
H1052 H 0.14 0.53126 0.65005 0.0
H1053 H 0.13297 0.46995 0.95053 0.0
H1054 H 0.10553 0.48046 0.99008 0.0
H1055 H 0.13174 0.49837 0.99439 0.0
C1056 C 0.98768 0.8237 0.56876 0.0
C1057 C 1.00302 0.81905 0.50684 0.0
C1058 C 0.98564 0.84649 0.60013 0.0
C1059 C 0.99932 0.8652 0.56925 0.0
C1060 C 0.01452 0.86071 0.50587 0.0
C1061 C 0.01624 0.83777 0.47574 0.0
C1062 C 0.96894 0.85054 0.66678 0.0
C1063 C 0.02956 0.87998 0.47111 0.0
C1064 C 0.98142 0.92923 0.60182 0.0
C1065 C 0.99657 0.93616 0.66194 0.0
C1066 C 0.98177 0.90614 0.57248 0.0
C1067 C 0.99784 0.88944 0.60315 0.0
C1068 C 0.01299 0.8962 0.66443 0.0
C1069 C 0.01207 0.91937 0.69339 0.0
C1070 C 0.96526 0.89974 0.50735 0.0
C1071 C 0.03059 0.87909 0.69823 0.0
H1072 H 0.97724 0.80946 0.59285 0.0
H1073 H 0.02853 0.83438 0.42905 0.0
H1074 H 0.97887 0.8568 0.71802 0.0
H1075 H 0.95606 0.86449 0.65133 0.0
H1076 H 0.95914 0.83432 0.68314 0.0
H1077 H 0.03707 0.87477 0.41438 0.0
H1078 H 0.01927 0.89641 0.46285 0.0
H1079 H 0.04429 0.88401 0.51114 0.0
H1080 H 0.96928 0.94193 0.57714 0.0
H1081 H 0.02395 0.92448 0.73948 0.0
H1082 H 0.95476 0.88398 0.5234 0.0
H1083 H 0.97559 0.89518 0.45496 0.0
H1084 H 0.95301 0.91433 0.49247 0.0
H1085 H 0.04056 0.88676 0.74741 0.0
H1086 H 0.0433 0.8737 0.6528 0.0
H1087 H 0.02149 0.86292 0.71864 0.0
C1088 C 0.68237 0.9824 0.56457 0.0
C1089 C 0.6886 0.99858 0.5064 0.0
C1090 C 0.65905 0.98086 0.59202 0.0
C1091 C 0.64156 0.99616 0.56168 0.0
C1092 C 0.64775 0.01244 0.50264 0.0
C1093 C 0.67107 0.01331 0.47536 0.0
C1094 C 0.65316 0.96303 0.65416 0.0
C1095 C 0.62982 0.0293 0.4692 0.0
C1096 C 0.57618 0.98193 0.58446 0.0
C1097 C 0.56975 0.99602 0.64774 0.0
C1098 C 0.59952 0.98142 0.55694 0.0
C1099 C 0.61691 0.99558 0.5927 0.0
C1100 C 0.61059 0.00972 0.65688 0.0
C1101 C 0.58719 0.00965 0.68389 0.0
C1102 C 0.60553 0.96585 0.48909 0.0
C1103 C 0.62844 0.02537 0.69606 0.0
H1104 H 0.69579 0.97093 0.58865 0.0
H1105 H 0.67579 0.02614 0.43132 0.0
H1106 H 0.64718 0.97221 0.70721 0.0
H1107 H 0.63846 0.95161 0.63475 0.0
H1108 H 0.66846 0.95171 0.66924 0.0
H1109 H 0.6378 0.04188 0.42731 0.0
H1110 H 0.61577 0.01929 0.43924 0.0
H1111 H 0.62132 0.0395 0.51621 0.0
H1112 H 0.56295 0.97121 0.55624 0.0
H1113 H 0.58248 0.02072 0.73248 0.0
H1114 H 0.62029 0.95391 0.50456 0.0
H1115 H 0.61148 0.97683 0.43953 0.0
H1116 H 0.59031 0.95502 0.4701 0.0
H1117 H 0.64354 0.0147 0.71695 0.0
H1118 H 0.62084 0.03506 0.74592 0.0
H1119 H 0.63548 0.03838 0.65382 0.0
C1120 C 0.47959 0.67858 0.5342 0.0
C1121 C 0.49953 0.69197 0.51509 0.0
C1122 C 0.48161 0.65505 0.55911 0.0
C1123 C 0.50421 0.64471 0.567 0.0
C1124 C 0.52447 0.65826 0.54819 0.0
C1125 C 0.52187 0.68166 0.52145 0.0
C1126 C 0.45951 0.64118 0.57621 0.0
C1127 C 0.54888 0.6481 0.55689 0.0
C1128 C 0.50815 0.59029 0.69796 0.0
C1129 C 0.509 0.57193 0.6439 0.0
C1130 C 0.50722 0.61405 0.67382 0.0
C1131 C 0.5065 0.61962 0.59368 0.0
C1132 C 0.50712 0.60111 0.53895 0.0
C1133 C 0.50863 0.57759 0.56464 0.0
C1134 C 0.50696 0.63321 0.73413 0.0
C1135 C 0.50569 0.60609 0.45311 0.0
H1136 H 0.46229 0.68651 0.52851 0.0
H1137 H 0.53728 0.69202 0.50677 0.0
H1138 H 0.4589 0.62522 0.53938 0.0
H1139 H 0.45956 0.63515 0.63737 0.0
H1140 H 0.44327 0.65165 0.56583 0.0
H1141 H 0.56283 0.66109 0.54221 0.0
H1142 H 0.55158 0.64195 0.61733 0.0
H1143 H 0.55091 0.63255 0.51878 0.0
H1144 H 0.50853 0.58612 0.75924 0.0
H1145 H 0.509 0.56354 0.52233 0.0
H1146 H 0.49025 0.64327 0.73038 0.0
H1147 H 0.52154 0.64582 0.72316 0.0
H1148 H 0.50876 0.62609 0.79384 0.0
H1149 H 0.48899 0.61541 0.43965 0.0
H1150 H 0.50648 0.58975 0.418 0.0
H1151 H 0.52033 0.61784 0.43516 0.0
C1152 C 0.83831 0.49618 0.45955 0.0
C1153 C 0.82028 0.51056 0.48885 0.0
C1154 C 0.86141 0.49744 0.48867 0.0
C1155 C 0.86687 0.51374 0.54795 0.0
C1156 C 0.84885 0.52864 0.57677 0.0
C1157 C 0.82578 0.52673 0.5474 0.0
C1158 C 0.87992 0.48103 0.45667 0.0
C1159 C 0.85393 0.5465 0.63906 0.0
C1160 C 0.92127 0.50186 0.67252 0.0
C1161 C 0.93839 0.51606 0.63662 0.0
C1162 C 0.89795 0.50108 0.64473 0.0
C1163 C 0.89138 0.51505 0.57997 0.0
C1164 C 0.90843 0.52979 0.54456 0.0
C1165 C 0.93168 0.53001 0.57289 0.0
C1166 C 0.88046 0.48486 0.68364 0.0
C1167 C 0.90218 0.5452 0.47611 0.0
H1168 H 0.83418 0.48334 0.41526 0.0
H1169 H 0.81199 0.53796 0.57015 0.0
H1170 H 0.89398 0.4914 0.42776 0.0
H1171 H 0.88829 0.4709 0.50438 0.0
H1172 H 0.87251 0.46839 0.41422 0.0
H1173 H 0.83821 0.55726 0.65366 0.0
H1174 H 0.86008 0.5374 0.69231 0.0
H1175 H 0.86829 0.55846 0.62003 0.0
H1176 H 0.9262 0.4909 0.72144 0.0
H1177 H 0.94464 0.54116 0.5448 0.0
H1178 H 0.87404 0.47162 0.64152 0.0
H1179 H 0.86493 0.49503 0.70353 0.0
H1180 H 0.88818 0.47544 0.73413 0.0
H1181 H 0.89676 0.53405 0.4266 0.0
H1182 H 0.91712 0.55651 0.4574 0.0
H1183 H 0.887 0.55666 0.49073 0.0
loop_
_geom_bond_atom_site_label_1
_geom_bond_atom_site_label_2
_geom_bond_distance
_geom_bond_site_symmetry_2
_ccdc_geom_bond_type
P0 O11 1.490 . S
P0 C14 1.812 . S
P0 C20 1.803 . S
P0 C26 1.819 . S
H1 C15 0.941 . S
H2 C16 0.939 . S
H3 C18 0.940 . S
H4 C19 0.940 . S
H5 C21 0.939 . S
H6 C22 0.942 . S
H7 C24 0.940 . S
H8 C25 0.939 . S
H9 C27 0.941 . S
H10 C31 0.939 . S
O11 P0 1.490 . S
H12 C28 0.939 . S
H13 C30 0.940 . S
C14 P0 1.812 . S
C14 C15 1.389 . S
C14 C19 1.391 . S
C15 H1 0.941 . S
C15 C14 1.389 . S
C15 C16 1.397 . S
C16 H2 0.939 . S
C16 C15 1.397 . S
C16 C17 1.378 . S
C17 C16 1.378 . S
C17 C18 1.378 . S
C18 H3 0.940 . S
C18 C17 1.378 . S
C18 C19 1.396 . S
C19 H4 0.940 . S
C19 C14 1.391 . S
C19 C18 1.396 . S
C20 P0 1.803 . S
C20 C21 1.378 . S
C20 C25 1.400 . S
C21 H5 0.939 . S
C21 C20 1.378 . S
C21 C22 1.361 . S
C22 H6 0.942 . S
C22 C21 1.361 . S
C22 C23 1.369 . S
C23 C22 1.369 . S
C23 C24 1.404 . S
C24 H7 0.940 . S
C24 C23 1.404 . S
C24 C25 1.389 . S
C25 H8 0.939 . S
C25 C20 1.400 . S
C25 C24 1.389 . S
C26 P0 1.819 . S
C26 C27 1.391 . S
C26 C31 1.391 . S
C27 H9 0.941 . S
C27 C26 1.391 . S
C27 C28 1.396 . S
C28 H12 0.939 . S
C28 C27 1.396 . S
C28 C29 1.397 . S
C29 C28 1.397 . S
C29 C30 1.385 . S
C30 H13 0.940 . S
C30 C29 1.385 . S
C30 C31 1.388 . S
C31 H10 0.939 . S
C31 C26 1.391 . S
C31 C30 1.388 . S
P32 O43 1.490 . S
P32 C46 1.812 . S
P32 C52 1.803 . S
P32 C58 1.819 . S
H33 C47 0.941 . S
H34 C48 0.939 . S
H35 C50 0.940 . S
H36 C51 0.950 . S
H37 C53 0.939 . S
H38 C54 0.942 . S
H39 C56 0.940 . S
H40 C57 0.959 . S
H41 C59 0.941 . S
H42 C63 0.929 1_655 S
O43 P32 1.490 . S
H44 C60 0.939 . S
H45 C62 0.940 . S
C46 P32 1.812 . S
C46 C47 1.389 . S
C46 C51 1.375 1_455 S
C47 H33 0.941 . S
C47 C46 1.389 . S
C47 C48 1.397 . S
C48 H34 0.939 . S
C48 C47 1.397 . S
C48 C49 1.378 . S
C49 C48 1.378 . S
C49 C50 1.378 1_455 S
C50 H35 0.940 . S
C50 C49 1.378 1_655 S
C50 C51 1.403 . S
C51 H36 0.950 . S
C51 C46 1.375 1_655 S
C51 C50 1.403 . S
C52 P32 1.803 . S
C52 C53 1.378 . S
C52 C57 1.368 1_455 S
C53 H37 0.939 . S
C53 C52 1.378 . S
C53 C54 1.361 . S
C54 H38 0.942 . S
C54 C53 1.361 . S
C54 C55 1.369 . S
C55 C54 1.369 . S
C55 C56 1.404 1_455 S
C56 H39 0.940 . S
C56 C55 1.404 1_655 S
C56 C57 1.402 . S
C57 H40 0.959 . S
C57 C52 1.368 1_655 S
C57 C56 1.402 . S
C58 P32 1.819 . S
C58 C59 1.391 . S
C58 C63 1.391 . S
C59 H41 0.941 . S
C59 C58 1.391 . S
C59 C60 1.396 . S
C60 H44 0.939 . S
C60 C59 1.396 . S
C60 C61 1.397 . S
C61 C60 1.397 . S
C61 C62 1.385 1_455 S
C62 H45 0.940 . S
C62 C61 1.385 1_655 S
C62 C63 1.388 1_655 S
C63 H42 0.929 1_455 S
C63 C58 1.391 . S
C63 C62 1.388 1_455 S
P64 O75 1.490 . S
P64 C78 1.812 . S
P64 C84 1.803 . S
P64 C90 1.819 . S
H65 C79 0.941 . S
H66 C80 0.939 . S
H67 C82 0.940 . S
H68 C83 0.950 . S
H69 C85 0.939 . S
H70 C86 0.942 . S
H71 C88 0.940 . S
H72 C89 0.959 . S
H73 C91 0.941 . S
H74 C95 0.929 1_565 S
O75 P64 1.490 . S
H76 C92 0.939 . S
H77 C94 0.940 . S
C78 P64 1.812 . S
C78 C79 1.389 . S
C78 C83 1.375 1_545 S
C79 H65 0.941 . S
C79 C78 1.389 . S
C79 C80 1.397 . S
C80 H66 0.939 . S
C80 C79 1.397 . S
C80 C81 1.378 . S
C81 C80 1.378 . S
C81 C82 1.378 1_545 S
C82 H67 0.940 . S
C82 C81 1.378 1_565 S
C82 C83 1.403 . S
C83 H68 0.950 . S
C83 C78 1.375 1_565 S
C83 C82 1.403 . S
C84 P64 1.803 . S
C84 C85 1.378 . S
C84 C89 1.368 1_545 S
C85 H69 0.939 . S
C85 C84 1.378 . S
C85 C86 1.361 . S
C86 H70 0.942 . S
C86 C85 1.361 . S
C86 C87 1.369 . S
C87 C86 1.369 . S
C87 C88 1.404 1_545 S
C88 H71 0.940 . S
C88 C87 1.404 1_565 S
C88 C89 1.402 . S
C89 H72 0.959 . S
C89 C84 1.368 1_565 S
C89 C88 1.402 . S
C90 P64 1.819 . S
C90 C91 1.391 . S
C90 C95 1.391 . S
C91 H73 0.941 . S
C91 C90 1.391 . S
C91 C92 1.396 . S
C92 H76 0.939 . S
C92 C91 1.396 . S
C92 C93 1.397 . S
C93 C92 1.397 . S
C93 C94 1.385 1_545 S
C94 H77 0.940 . S
C94 C93 1.385 1_565 S
C94 C95 1.388 1_565 S
C95 H74 0.929 1_545 S
C95 C90 1.391 . S
C95 C94 1.388 1_545 S
P96 O107 1.490 . S
P96 C110 1.812 . S
P96 C116 1.803 . S
P96 C122 1.819 . S
H97 C111 0.941 . S
H98 C112 0.939 . S
H99 C114 0.940 . S
H100 C115 0.940 . S
H101 C117 0.939 . S
H102 C118 0.942 . S
H103 C120 0.940 . S
H104 C121 0.939 . S
H105 C123 0.941 . S
H106 C127 0.939 . S
O107 P96 1.490 . S
H108 C124 0.939 . S
H109 C126 0.940 . S
C110 P96 1.812 . S
C110 C111 1.389 . S
C110 C115 1.391 . S
C111 H97 0.941 . S
C111 C110 1.389 . S
C111 C112 1.397 . S
C112 H98 0.939 . S
C112 C111 1.397 . S
C112 C113 1.378 . S
C113 C112 1.378 . S
C113 C114 1.378 . S
C114 H99 0.940 . S
C114 C113 1.378 . S
C114 C115 1.396 . S
C115 H100 0.940 . S
C115 C110 1.391 . S
C115 C114 1.396 . S
C116 P96 1.803 . S
C116 C117 1.378 . S
C116 C121 1.400 . S
C117 H101 0.939 . S
C117 C116 1.378 . S
C117 C118 1.361 . S
C118 H102 0.942 . S
C118 C117 1.361 . S
C118 C119 1.369 . S
C119 C118 1.369 . S
C119 C120 1.404 . S
C120 H103 0.940 . S
C120 C119 1.404 . S
C120 C121 1.389 . S
C121 H104 0.939 . S
C121 C116 1.400 . S
C121 C120 1.389 . S
C122 P96 1.819 . S
C122 C123 1.391 . S
C122 C127 1.391 . S
C123 H105 0.941 . S
C123 C122 1.391 . S
C123 C124 1.396 . S
C124 H108 0.939 . S
C124 C123 1.396 . S
C124 C125 1.397 . S
C125 C124 1.397 . S
C125 C126 1.385 . S
C126 H109 0.940 . S
C126 C125 1.385 . S
C126 C127 1.388 . S
C127 H106 0.939 . S
C127 C122 1.391 . S
C127 C126 1.388 . S
P128 O139 1.490 . S
P128 C142 1.812 1_554 S
P128 C148 1.803 . S
P128 C154 1.819 . S
H129 C143 0.941 . S
H130 C144 0.939 . S
H131 C146 0.940 . S
H132 C147 0.940 . S
H133 C149 0.939 . S
H134 C150 0.942 . S
H135 C152 0.940 . S
H136 C153 0.939 . S
H137 C155 0.941 . S
H138 C159 0.939 . S
O139 P128 1.490 . S
H140 C156 0.939 . S
H141 C158 0.940 . S
C142 P128 1.812 1_556 S
C142 C143 1.389 . S
C142 C147 1.391 . S
C143 H129 0.941 . S
C143 C142 1.389 . S
C143 C144 1.397 . S
C144 H130 0.939 . S
C144 C143 1.397 . S
C144 C145 1.378 . S
C145 C144 1.378 . S
C145 C146 1.378 . S
C146 H131 0.940 . S
C146 C145 1.378 . S
C146 C147 1.396 . S
C147 H132 0.940 . S
C147 C142 1.391 . S
C147 C146 1.396 . S
C148 P128 1.803 . S
C148 C149 1.378 . S
C148 C153 1.400 . S
C149 H133 0.939 . S
C149 C148 1.378 . S
C149 C150 1.361 . S
C150 H134 0.942 . S
C150 C149 1.361 . S
C150 C151 1.369 . S
C151 C150 1.369 . S
C151 C152 1.404 . S
C152 H135 0.940 . S
C152 C151 1.404 . S
C152 C153 1.389 . S
C153 H136 0.939 . S
C153 C148 1.400 . S
C153 C152 1.389 . S
C154 P128 1.819 . S
C154 C155 1.391 . S
C154 C159 1.391 . S
C155 H137 0.941 . S
C155 C154 1.391 . S
C155 C156 1.396 . S
C156 H140 0.939 . S
C156 C155 1.396 . S
C156 C157 1.397 . S
C157 C156 1.397 . S
C157 C158 1.385 . S
C158 H141 0.940 . S
C158 C157 1.385 . S
C158 C159 1.388 . S
C159 H138 0.939 . S
C159 C154 1.391 . S
C159 C158 1.388 . S
P160 O171 1.490 . S
P160 C174 1.812 1_554 S
P160 C180 1.803 . S
P160 C186 1.819 . S
H161 C175 0.941 . S
H162 C176 0.939 . S
H163 C178 0.940 . S
H164 C179 0.944 . S
H165 C181 0.939 . S
H166 C182 0.942 . S
H167 C184 0.940 . S
H168 C185 0.952 . S
H169 C187 0.941 . S
H170 C191 0.933 1_655 S
O171 P160 1.490 . S
H172 C188 0.939 . S
H173 C190 0.940 . S
C174 P160 1.812 1_556 S
C174 C175 1.389 . S
C174 C179 1.385 1_455 S
C175 H161 0.941 . S
C175 C174 1.389 . S
C175 C176 1.397 . S
C176 H162 0.939 . S
C176 C175 1.397 . S
C176 C177 1.378 . S
C177 C176 1.378 . S
C177 C178 1.378 1_455 S
C178 H163 0.940 . S
C178 C177 1.378 1_655 S
C178 C179 1.399 . S
C179 H164 0.944 . S
C179 C174 1.385 1_655 S
C179 C178 1.399 . S
C180 P160 1.803 . S
C180 C181 1.378 . S
C180 C185 1.379 1_455 S
C181 H165 0.939 . S
C181 C180 1.378 . S
C181 C182 1.361 . S
C182 H166 0.942 . S
C182 C181 1.361 . S
C182 C183 1.369 . S
C183 C182 1.369 . S
C183 C184 1.404 1_455 S
C184 H167 0.940 . S
C184 C183 1.404 1_655 S
C184 C185 1.398 . S
C185 H168 0.952 . S
C185 C180 1.379 1_655 S
C185 C184 1.398 . S
C186 P160 1.819 . S
C186 C187 1.391 . S
C186 C191 1.391 . S
C187 H169 0.941 . S
C187 C186 1.391 . S
C187 C188 1.396 . S
C188 H172 0.939 . S
C188 C187 1.396 . S
C188 C189 1.397 . S
C189 C188 1.397 . S
C189 C190 1.385 1_455 S
C190 H173 0.940 . S
C190 C189 1.385 1_655 S
C190 C191 1.388 1_655 S
C191 H170 0.933 1_455 S
C191 C186 1.391 . S
C191 C190 1.388 1_455 S
P192 O203 1.490 . S
P192 C206 1.812 1_554 S
P192 C212 1.803 . S
P192 C218 1.819 . S
H193 C207 0.941 . S
H194 C208 0.939 . S
H195 C210 0.940 . S
H196 C211 0.944 . S
H197 C213 0.939 . S
H198 C214 0.942 . S
H199 C216 0.940 . S
H200 C217 0.953 . S
H201 C219 0.941 . S
H202 C223 0.933 1_565 S
O203 P192 1.490 . S
H204 C220 0.939 . S
H205 C222 0.940 . S
C206 P192 1.812 1_556 S
C206 C207 1.389 . S
C206 C211 1.385 1_545 S
C207 H193 0.941 . S
C207 C206 1.389 . S
C207 C208 1.397 . S
C208 H194 0.939 . S
C208 C207 1.397 . S
C208 C209 1.378 . S
C209 C208 1.378 . S
C209 C210 1.378 1_545 S
C210 H195 0.940 . S
C210 C209 1.378 1_565 S
C210 C211 1.399 . S
C211 H196 0.944 . S
C211 C206 1.385 1_565 S
C211 C210 1.399 . S
C212 P192 1.803 . S
C212 C213 1.378 . S
C212 C217 1.379 1_545 S
C213 H197 0.939 . S
C213 C212 1.378 . S
C213 C214 1.361 . S
C214 H198 0.942 . S
C214 C213 1.361 . S
C214 C215 1.369 . S
C215 C214 1.369 . S
C215 C216 1.404 1_545 S
C216 H199 0.940 . S
C216 C215 1.404 1_565 S
C216 C217 1.397 . S
C217 H200 0.953 . S
C217 C212 1.379 1_565 S
C217 C216 1.397 . S
C218 P192 1.819 . S
C218 C219 1.391 . S
C218 C223 1.391 . S
C219 H201 0.941 . S
C219 C218 1.391 . S
C219 C220 1.396 . S
C220 H204 0.939 . S
C220 C219 1.396 . S
C220 C221 1.397 . S
C221 C220 1.397 . S
C221 C222 1.385 1_545 S
C222 H205 0.940 . S
C222 C221 1.385 1_565 S
C222 C223 1.388 1_565 S
C223 H202 0.933 1_545 S
C223 C218 1.391 . S
C223 C222 1.388 1_545 S
P224 O235 1.490 . S
P224 C238 1.812 1_554 S
P224 C244 1.803 . S
P224 C250 1.819 . S
H225 C239 0.941 . S
H226 C240 0.939 . S
H227 C242 0.940 . S
H228 C243 0.940 . S
H229 C245 0.939 . S
H230 C246 0.942 . S
H231 C248 0.940 . S
H232 C249 0.939 . S
H233 C251 0.941 . S
H234 C255 0.939 . S
O235 P224 1.490 . S
H236 C252 0.939 . S
H237 C254 0.940 . S
C238 P224 1.812 1_556 S
C238 C239 1.389 . S
C238 C243 1.391 . S
C239 H225 0.941 . S
C239 C238 1.389 . S
C239 C240 1.397 . S
C240 H226 0.939 . S
C240 C239 1.397 . S
C240 C241 1.378 . S
C241 C240 1.378 . S
C241 C242 1.378 . S
C242 H227 0.940 . S
C242 C241 1.378 . S
C242 C243 1.396 . S
C243 H228 0.940 . S
C243 C238 1.391 . S
C243 C242 1.396 . S
C244 P224 1.803 . S
C244 C245 1.378 . S
C244 C249 1.400 . S
C245 H229 0.939 . S
C245 C244 1.378 . S
C245 C246 1.361 . S
C246 H230 0.942 . S
C246 C245 1.361 . S
C246 C247 1.369 . S
C247 C246 1.369 . S
C247 C248 1.404 . S
C248 H231 0.940 . S
C248 C247 1.404 . S
C248 C249 1.389 . S
C249 H232 0.939 . S
C249 C244 1.400 . S
C249 C248 1.389 . S
C250 P224 1.819 . S
C250 C251 1.391 . S
C250 C255 1.391 . S
C251 H233 0.941 . S
C251 C250 1.391 . S
C251 C252 1.396 . S
C252 H236 0.939 . S
C252 C251 1.396 . S
C252 C253 1.397 . S
C253 C252 1.397 . S
C253 C254 1.385 . S
C254 H237 0.940 . S
C254 C253 1.385 . S
C254 C255 1.388 . S
C255 H234 0.939 . S
C255 C250 1.391 . S
C255 C254 1.388 . S
Pr256 C258 2.880 . S
Pr256 O276 2.562 . S
Pr256 O277 2.490 . S
Pr256 O278 2.695 1_565 S
Pr256 O279 2.512 . S
Pr256 O281 2.437 . S
Pr256 O284 2.436 1_455 S
Pr256 O286 2.438 1_565 S
Pr257 C267 2.880 . S
Pr257 O278 2.436 1_655 S
Pr257 O280 2.438 1_545 S
Pr257 O282 2.562 . S
Pr257 O283 2.490 . S
Pr257 O284 2.695 1_545 S
Pr257 O285 2.512 . S
Pr257 O287 2.437 . S
C258 Pr256 2.880 . S
C258 C259 1.491 . S
C258 O276 1.254 . S
C258 O277 1.225 . S
C259 C258 1.491 . S
C259 C260 1.392 . S
C259 C264 1.356 . S
C260 C259 1.392 . S
C260 C261 1.368 . S
C260 H288 0.929 . S
C261 C260 1.368 . S
C261 C262 1.386 . S
C261 H289 0.929 . S
C262 C261 1.386 . S
C262 C263 1.373 . S
C263 C262 1.373 . S
C263 C264 1.409 . S
C263 H290 0.926 . S
C264 C259 1.356 . S
C264 C263 1.409 . S
C264 H291 0.930 1_455 S
C265 O278 1.270 1_565 S
C265 O279 1.248 . S
C266 O280 1.267 . S
C266 O281 1.278 1_655 S
C267 Pr257 2.880 . S
C267 C268 1.491 . S
C267 O282 1.254 . S
C267 O283 1.225 . S
C268 C267 1.491 . S
C268 C269 1.392 . S
C268 C273 1.356 . S
C269 C268 1.392 . S
C269 C270 1.368 . S
C269 H292 0.929 . S
C270 C269 1.368 . S
C270 C271 1.386 . S
C270 H293 0.929 . S
C271 C270 1.386 . S
C271 C272 1.373 . S
C272 C271 1.373 . S
C272 C273 1.409 . S
C272 H294 0.926 1_655 S
C273 C268 1.356 . S
C273 C272 1.409 . S
C273 H295 0.930 1_655 S
C274 O284 1.270 1_545 S
C274 O285 1.248 . S
C275 O286 1.267 . S
C275 O287 1.278 1_455 S
O276 Pr256 2.562 . S
O276 C258 1.254 . S
O277 Pr256 2.490 . S
O277 C258 1.225 . S
O278 Pr256 2.695 1_545 S
O278 Pr257 2.436 1_455 S
O278 C265 1.270 1_545 S
O279 Pr256 2.512 . S
O279 C265 1.248 . S
O280 Pr257 2.438 1_565 S
O280 C266 1.267 . S
O281 Pr256 2.437 . S
O281 C266 1.278 1_455 S
O282 Pr257 2.562 . S
O282 C267 1.254 . S
O283 Pr257 2.490 . S
O283 C267 1.225 . S
O284 Pr256 2.436 1_655 S
O284 Pr257 2.695 1_565 S
O284 C274 1.270 1_565 S
O285 Pr257 2.512 . S
O285 C274 1.248 . S
O286 Pr256 2.438 1_545 S
O286 C275 1.267 . S
O287 Pr257 2.437 . S
O287 C275 1.278 1_655 S
H288 C260 0.929 . S
H289 C261 0.929 . S
H290 C263 0.926 . S
H291 C264 0.930 1_655 S
H292 C269 0.929 . S
H293 C270 0.929 . S
H294 C272 0.926 1_455 S
H295 C273 0.930 1_455 S
Pr296 C298 2.880 . S
Pr296 O316 2.562 . S
Pr296 O317 2.490 . S
Pr296 O318 2.695 . S
Pr296 O319 2.512 . S
Pr296 O321 2.437 . S
Pr296 O324 2.436 1_545 S
Pr296 O326 2.438 . S
Pr297 C307 2.880 . S
Pr297 O318 2.436 1_565 S
Pr297 O320 2.438 . S
Pr297 O322 2.562 . S
Pr297 O323 2.490 . S
Pr297 O324 2.695 . S
Pr297 O325 2.512 . S
Pr297 O327 2.437 . S
C298 Pr296 2.880 . S
C298 C299 1.491 . S
C298 O316 1.254 . S
C298 O317 1.225 . S
C299 C298 1.491 . S
C299 C300 1.392 . S
C299 C304 1.356 . S
C300 C299 1.392 . S
C300 C301 1.368 . S
C300 H328 0.929 . S
C301 C300 1.368 . S
C301 C302 1.386 . S
C301 H329 0.929 . S
C302 C301 1.386 . S
C302 C303 1.373 . S
C303 C302 1.373 . S
C303 C304 1.409 . S
C303 H330 0.904 1_545 S
C304 C299 1.356 . S
C304 C303 1.409 . S
C304 H331 0.930 1_545 S
C305 O318 1.270 . S
C305 O319 1.248 . S
C306 O320 1.267 . S
C306 O321 1.278 1_565 S
C307 Pr297 2.880 . S
C307 C308 1.491 . S
C307 O322 1.254 . S
C307 O323 1.225 . S
C308 C307 1.491 . S
C308 C309 1.392 . S
C308 C313 1.356 . S
C309 C308 1.392 . S
C309 C310 1.368 . S
C309 H332 0.929 . S
C310 C309 1.368 . S
C310 C311 1.386 . S
C310 H333 0.929 . S
C311 C310 1.386 . S
C311 C312 1.373 . S
C312 C311 1.373 . S
C312 C313 1.409 . S
C312 H334 0.895 1_565 S
C313 C308 1.356 . S
C313 C312 1.409 . S
C313 H335 0.930 1_565 S
C314 O324 1.270 . S
C314 O325 1.248 . S
C315 O326 1.267 . S
C315 O327 1.278 1_545 S
O316 Pr296 2.562 . S
O316 C298 1.254 . S
O317 Pr296 2.490 . S
O317 C298 1.225 . S
O318 Pr296 2.695 . S
O318 Pr297 2.436 1_545 S
O318 C305 1.270 . S
O319 Pr296 2.512 . S
O319 C305 1.248 . S
O320 Pr297 2.438 . S
O320 C306 1.267 . S
O321 Pr296 2.437 . S
O321 C306 1.278 1_545 S
O322 Pr297 2.562 . S
O322 C307 1.254 . S
O323 Pr297 2.490 . S
O323 C307 1.225 . S
O324 Pr296 2.436 1_565 S
O324 Pr297 2.695 . S
O324 C314 1.270 . S
O325 Pr297 2.512 . S
O325 C314 1.248 . S
O326 Pr296 2.438 . S
O326 C315 1.267 . S
O327 Pr297 2.437 . S
O327 C315 1.278 1_565 S
H328 C300 0.929 . S
H329 C301 0.929 . S
H330 C303 0.904 1_565 S
H331 C304 0.930 1_565 S
H332 C309 0.929 . S
H333 C310 0.929 . S
H334 C312 0.895 1_545 S
H335 C313 0.930 1_545 S
Pr336 C338 2.880 . S
Pr336 O356 2.562 . S
Pr336 O357 2.490 . S
Pr336 O358 2.695 . S
Pr336 O359 2.512 . S
Pr336 O361 2.437 . S
Pr336 O364 2.436 . S
Pr336 O366 2.438 . S
Pr337 C347 2.880 . S
Pr337 O358 2.436 . S
Pr337 O360 2.438 . S
Pr337 O362 2.562 . S
Pr337 O363 2.490 . S
Pr337 O364 2.695 . S
Pr337 O365 2.512 . S
Pr337 O367 2.437 . S
C338 Pr336 2.880 . S
C338 C339 1.491 . S
C338 O356 1.254 . S
C338 O357 1.225 . S
C339 C338 1.491 . S
C339 C340 1.392 . S
C339 C344 1.356 . S
C340 C339 1.392 . S
C340 C341 1.368 . S
C340 H368 0.929 . S
C341 C340 1.368 . S
C341 C342 1.386 . S
C341 H369 0.929 . S
C342 C341 1.386 . S
C342 C343 1.373 . S
C343 C342 1.373 . S
C343 C344 1.409 . S
C343 H370 0.931 . S
C344 C339 1.356 . S
C344 C343 1.409 . S
C344 H371 0.930 . S
C345 O358 1.270 . S
C345 O359 1.248 . S
C346 O360 1.267 . S
C346 O361 1.278 . S
C347 Pr337 2.880 . S
C347 C348 1.491 . S
C347 O362 1.254 . S
C347 O363 1.225 . S
C348 C347 1.491 . S
C348 C349 1.392 . S
C348 C353 1.356 . S
C349 C348 1.392 . S
C349 C350 1.368 . S
C349 H372 0.929 . S
C350 C349 1.368 . S
C350 C351 1.386 . S
C350 H373 0.929 . S
C351 C350 1.386 . S
C351 C352 1.373 . S
C352 C351 1.373 . S
C352 C353 1.409 . S
C352 H374 0.931 . S
C353 C348 1.356 . S
C353 C352 1.409 . S
C353 H375 0.930 . S
C354 O364 1.270 . S
C354 O365 1.248 . S
C355 O366 1.267 . S
C355 O367 1.278 . S
O356 Pr336 2.562 . S
O356 C338 1.254 . S
O357 Pr336 2.490 . S
O357 C338 1.225 . S
O358 Pr336 2.695 . S
O358 Pr337 2.436 . S
O358 C345 1.270 . S
O359 Pr336 2.512 . S
O359 C345 1.248 . S
O360 Pr337 2.438 . S
O360 C346 1.267 . S
O361 Pr336 2.437 . S
O361 C346 1.278 . S
O362 Pr337 2.562 . S
O362 C347 1.254 . S
O363 Pr337 2.490 . S
O363 C347 1.225 . S
O364 Pr336 2.436 . S
O364 Pr337 2.695 . S
O364 C354 1.270 . S
O365 Pr337 2.512 . S
O365 C354 1.248 . S
O366 Pr336 2.438 . S
O366 C355 1.267 . S
O367 Pr337 2.437 . S
O367 C355 1.278 . S
H368 C340 0.929 . S
H369 C341 0.929 . S
H370 C343 0.931 . S
H371 C344 0.930 . S
H372 C349 0.929 . S
H373 C350 0.929 . S
H374 C352 0.931 . S
H375 C353 0.930 . S
Pr376 C378 2.880 . S
Pr376 O396 2.562 . S
Pr376 O397 2.490 . S
Pr376 O398 2.695 1_655 S
Pr376 O399 2.512 . S
Pr376 O401 2.437 . S
Pr376 O404 2.436 . S
Pr376 O406 2.438 1_655 S
Pr377 C387 2.880 . S
Pr377 O398 2.436 . S
Pr377 O400 2.438 1_455 S
Pr377 O402 2.562 . S
Pr377 O403 2.490 . S
Pr377 O404 2.695 1_455 S
Pr377 O405 2.512 . S
Pr377 O407 2.437 . S
C378 Pr376 2.880 . S
C378 C379 1.491 . S
C378 O396 1.254 . S
C378 O397 1.225 . S
C379 C378 1.491 . S
C379 C380 1.392 . S
C379 C384 1.356 . S
C380 C379 1.392 . S
C380 C381 1.368 . S
C380 H408 0.929 . S
C381 C380 1.368 . S
C381 C382 1.386 . S
C381 H409 0.929 . S
C382 C381 1.386 . S
C382 C383 1.373 . S
C383 C382 1.373 . S
C383 C384 1.409 . S
C383 H410 0.931 . S
C384 C379 1.356 . S
C384 C383 1.409 . S
C384 H411 0.930 . S
C385 O398 1.260 1_655 S
C385 O399 1.265 . S
C386 O400 1.267 . S
C386 O401 1.278 . S
C387 Pr377 2.880 . S
C387 C388 1.491 . S
C387 O402 1.254 . S
C387 O403 1.225 . S
C388 C387 1.491 . S
C388 C389 1.392 . S
C388 C393 1.356 . S
C389 C388 1.392 . S
C389 C390 1.368 . S
C389 H412 0.929 . S
C390 C389 1.368 . S
C390 C391 1.386 . S
C390 H413 0.929 . S
C391 C390 1.386 . S
C391 C392 1.373 . S
C392 C391 1.373 . S
C392 C393 1.409 . S
C392 H414 0.931 . S
C393 C388 1.356 . S
C393 C392 1.409 . S
C393 H415 0.930 . S
C394 O404 1.257 1_455 S
C394 O405 1.271 . S
C395 O406 1.267 . S
C395 O407 1.278 . S
O396 Pr376 2.562 . S
O396 C378 1.254 . S
O397 Pr376 2.490 . S
O397 C378 1.225 . S
O398 Pr376 2.695 1_455 S
O398 Pr377 2.436 . S
O398 C385 1.260 1_455 S
O399 Pr376 2.512 . S
O399 C385 1.265 . S
O400 Pr377 2.438 1_655 S
O400 C386 1.267 . S
O401 Pr376 2.437 . S
O401 C386 1.278 . S
O402 Pr377 2.562 . S
O402 C387 1.254 . S
O403 Pr377 2.490 . S
O403 C387 1.225 . S
O404 Pr376 2.436 . S
O404 Pr377 2.695 1_655 S
O404 C394 1.257 1_655 S
O405 Pr377 2.512 . S
O405 C394 1.271 . S
O406 Pr376 2.438 1_455 S
O406 C395 1.267 . S
O407 Pr377 2.437 . S
O407 C395 1.278 . S
H408 C380 0.929 . S
H409 C381 0.929 . S
H410 C383 0.931 . S
H411 C384 0.930 . S
H412 C389 0.929 . S
H413 C390 0.929 . S
H414 C392 0.931 . S
H415 C393 0.930 . S
C416 C417 1.391 . S
C416 C418 1.394 . S
C416 H432 0.931 . S
C417 C416 1.391 . S
C417 C421 1.373 1_545 S
C418 C416 1.394 . S
C418 C419 1.369 . S
C418 C422 1.531 . S
C419 C418 1.369 . S
C419 C420 1.410 . S
C419 C427 1.503 . S
C420 C419 1.410 . S
C420 C421 1.391 1_545 S
C420 C423 1.511 1_545 S
C421 C417 1.373 1_565 S
C421 C420 1.391 1_565 S
C421 H433 0.934 . S
C422 C418 1.531 . S
C422 H434 0.960 . S
C422 H435 1.000 . S
C422 H436 0.960 . S
C423 C420 1.511 1_565 S
C423 H437 0.961 . S
C423 H438 0.961 . S
C423 H439 0.961 1_565 S
C424 C425 1.370 1_565 S
C424 C426 1.363 . S
C424 H440 0.931 . S
C425 C424 1.370 1_545 S
C425 C429 1.408 . S
C426 C424 1.363 . S
C426 C427 1.370 1_565 S
C426 C430 1.524 . S
C427 C419 1.503 . S
C427 C426 1.370 1_545 S
C427 C428 1.403 . S
C428 C427 1.403 . S
C428 C429 1.404 . S
C428 C431 1.539 . S
C429 C425 1.408 . S
C429 C428 1.404 . S
C429 H441 0.930 . S
C430 C426 1.524 . S
C430 H442 0.956 . S
C430 H443 0.961 . S
C430 H444 0.961 . S
C431 C428 1.539 . S
C431 H445 0.958 . S
C431 H446 0.961 . S
C431 H447 0.960 . S
H432 C416 0.931 . S
H433 C421 0.934 . S
H434 C422 0.960 . S
H435 C422 1.000 . S
H436 C422 0.960 . S
H437 C423 0.961 . S
H438 C423 0.961 . S
H439 C423 0.961 1_545 S
H440 C424 0.931 . S
H441 C429 0.930 . S
H442 C430 0.956 . S
H443 C430 0.961 . S
H444 C430 0.961 . S
H445 C431 0.958 . S
H446 C431 0.961 . S
H447 C431 0.960 . S
C448 C449 1.391 . S
C448 C450 1.394 . S
C448 H464 0.931 . S
C449 C448 1.391 . S
C449 C453 1.376 . S
C450 C448 1.394 . S
C450 C451 1.369 . S
C450 C454 1.531 . S
C451 C450 1.369 . S
C451 C452 1.410 . S
C451 C459 1.503 . S
C452 C451 1.410 . S
C452 C453 1.392 . S
C452 C455 1.511 . S
C453 C449 1.376 . S
C453 C452 1.392 . S
C453 H465 0.929 . S
C454 C450 1.531 . S
C454 H466 0.960 . S
C454 H467 0.962 . S
C454 H468 0.960 . S
C455 C452 1.511 . S
C455 H469 0.961 . S
C455 H470 0.961 . S
C455 H471 0.961 . S
C456 C457 1.370 . S
C456 C458 1.363 . S
C456 H472 0.931 . S
C457 C456 1.370 . S
C457 C461 1.408 . S
C458 C456 1.363 . S
C458 C459 1.370 . S
C458 C462 1.524 . S
C459 C451 1.503 . S
C459 C458 1.370 . S
C459 C460 1.403 . S
C460 C459 1.403 . S
C460 C461 1.404 . S
C460 C463 1.539 . S
C461 C457 1.408 . S
C461 C460 1.404 . S
C461 H473 0.930 . S
C462 C458 1.524 . S
C462 H474 0.956 . S
C462 H475 0.961 . S
C462 H476 0.961 . S
C463 C460 1.539 . S
C463 H477 0.958 . S
C463 H478 0.961 . S
C463 H479 0.960 . S
H464 C448 0.931 . S
H465 C453 0.929 . S
H466 C454 0.960 . S
H467 C454 0.962 . S
H468 C454 0.960 . S
H469 C455 0.961 . S
H470 C455 0.961 . S
H471 C455 0.961 . S
H472 C456 0.931 . S
H473 C461 0.930 . S
H474 C462 0.956 . S
H475 C462 0.961 . S
H476 C462 0.961 . S
H477 C463 0.958 . S
H478 C463 0.961 . S
H479 C463 0.960 . S
C480 C481 1.391 . S
C480 C482 1.394 . S
C480 H496 0.931 . S
C481 C480 1.391 . S
C481 C485 1.376 . S
C482 C480 1.394 . S
C482 C483 1.369 . S
C482 C486 1.531 . S
C483 C482 1.369 . S
C483 C484 1.410 . S
C483 C491 1.503 . S
C484 C483 1.410 . S
C484 C485 1.392 . S
C484 C487 1.511 . S
C485 C481 1.376 . S
C485 C484 1.392 . S
C485 H497 0.929 . S
C486 C482 1.531 . S
C486 H498 0.960 . S
C486 H499 0.962 . S
C486 H500 0.960 . S
C487 C484 1.511 . S
C487 H501 0.961 . S
C487 H502 0.961 . S
C487 H503 0.961 . S
C488 C489 1.370 . S
C488 C490 1.363 . S
C488 H504 0.931 . S
C489 C488 1.370 . S
C489 C493 1.408 . S
C490 C488 1.363 . S
C490 C491 1.370 . S
C490 C494 1.524 . S
C491 C483 1.503 . S
C491 C490 1.370 . S
C491 C492 1.403 . S
C492 C491 1.403 . S
C492 C493 1.404 . S
C492 C495 1.539 . S
C493 C489 1.408 . S
C493 C492 1.404 . S
C493 H505 0.930 . S
C494 C490 1.524 . S
C494 H506 0.956 . S
C494 H507 0.961 . S
C494 H508 0.961 . S
C495 C492 1.539 . S
C495 H509 0.958 . S
C495 H510 0.961 . S
C495 H511 0.960 . S
H496 C480 0.931 . S
H497 C485 0.929 . S
H498 C486 0.960 . S
H499 C486 0.962 . S
H500 C486 0.960 . S
H501 C487 0.961 . S
H502 C487 0.961 . S
H503 C487 0.961 . S
H504 C488 0.931 . S
H505 C493 0.930 . S
H506 C494 0.956 . S
H507 C494 0.961 . S
H508 C494 0.961 . S
H509 C495 0.958 . S
H510 C495 0.961 . S
H511 C495 0.960 . S
C512 C513 1.360 1_455 S
C512 C514 1.394 . S
C512 H528 0.931 . S
C513 C512 1.360 1_655 S
C513 C517 1.410 . S
C514 C512 1.394 . S
C514 C515 1.369 1_455 S
C514 C518 1.531 . S
C515 C514 1.369 1_655 S
C515 C516 1.410 . S
C515 C523 1.503 . S
C516 C515 1.410 . S
C516 C517 1.392 . S
C516 C519 1.511 . S
C517 C513 1.410 . S
C517 C516 1.392 . S
C517 H529 0.929 . S
C518 C514 1.531 . S
C518 H530 0.960 . S
C518 H531 0.962 . S
C518 H532 0.960 . S
C519 C516 1.511 . S
C519 H533 0.961 . S
C519 H534 0.961 . S
C519 H535 0.961 . S
C520 C521 1.396 . S
C520 C522 1.363 . S
C520 H536 0.931 . S
C521 C520 1.396 . S
C521 C525 1.382 1_455 S
C522 C520 1.363 . S
C522 C523 1.370 1_455 S
C522 C526 1.524 . S
C523 C515 1.503 . S
C523 C522 1.370 1_655 S
C523 C524 1.403 . S
C524 C523 1.403 . S
C524 C525 1.404 . S
C524 C527 1.539 . S
C525 C521 1.382 1_655 S
C525 C524 1.404 . S
C525 H537 0.930 . S
C526 C522 1.524 . S
C526 H538 0.956 . S
C526 H539 0.961 . S
C526 H540 0.961 . S
C527 C524 1.539 . S
C527 H541 0.958 . S
C527 H542 0.961 . S
C527 H543 0.960 . S
H528 C512 0.931 . S
H529 C517 0.929 . S
H530 C518 0.960 . S
H531 C518 0.962 . S
H532 C518 0.960 . S
H533 C519 0.961 . S
H534 C519 0.961 . S
H535 C519 0.961 . S
H536 C520 0.931 . S
H537 C525 0.930 . S
H538 C526 0.956 . S
H539 C526 0.961 . S
H540 C526 0.961 . S
H541 C527 0.958 . S
H542 C527 0.961 . S
H543 C527 0.960 . S
C544 C545 1.391 . S
C544 C546 1.394 . S
C544 H560 0.931 . S
C545 C544 1.391 . S
C545 C549 1.376 1_565 S
C546 C544 1.394 . S
C546 C547 1.369 . S
C546 C550 1.531 . S
C547 C546 1.369 . S
C547 C548 1.410 1_565 S
C547 C555 1.503 . S
C548 C547 1.410 1_545 S
C548 C549 1.392 . S
C548 C551 1.511 . S
C549 C545 1.376 1_545 S
C549 C548 1.392 . S
C549 H561 0.929 . S
C550 C546 1.531 . S
C550 H562 0.960 . S
C550 H563 0.962 . S
C550 H564 0.960 . S
C551 C548 1.511 . S
C551 H565 0.961 . S
C551 H566 0.961 1_554 S
C551 H567 0.961 . S
C552 C553 1.370 1_545 S
C552 C554 1.363 1_556 S
C552 H568 0.931 . S
C553 C552 1.370 1_565 S
C553 C557 1.408 . S
C554 C552 1.363 1_554 S
C554 C555 1.370 1_545 S
C554 C558 1.524 . S
C555 C547 1.503 . S
C555 C554 1.370 1_565 S
C555 C556 1.403 1_554 S
C556 C555 1.403 1_556 S
C556 C557 1.404 . S
C556 C559 1.539 . S
C557 C553 1.408 . S
C557 C556 1.404 . S
C557 H569 0.930 . S
C558 C554 1.524 . S
C558 H570 0.956 . S
C558 H571 0.961 . S
C558 H572 0.961 . S
C559 C556 1.539 . S
C559 H573 0.958 . S
C559 H574 0.961 . S
C559 H575 0.960 1_556 S
H560 C544 0.931 . S
H561 C549 0.929 . S
H562 C550 0.960 . S
H563 C550 0.962 . S
H564 C550 0.960 . S
H565 C551 0.961 . S
H566 C551 0.961 1_556 S
H567 C551 0.961 . S
H568 C552 0.931 . S
H569 C557 0.930 . S
H570 C558 0.956 . S
H571 C558 0.961 . S
H572 C558 0.961 . S
H573 C559 0.958 . S
H574 C559 0.961 . S
H575 C559 0.960 1_554 S
C576 C577 1.391 . S
C576 C578 1.394 . S
C576 H592 0.931 . S
C577 C576 1.391 . S
C577 C581 1.376 . S
C578 C576 1.394 . S
C578 C579 1.369 . S
C578 C582 1.531 . S
C579 C578 1.369 . S
C579 C580 1.410 . S
C579 C587 1.503 . S
C580 C579 1.410 . S
C580 C581 1.392 . S
C580 C583 1.511 . S
C581 C577 1.376 . S
C581 C580 1.392 . S
C581 H593 0.929 . S
C582 C578 1.531 . S
C582 H594 0.960 . S
C582 H595 0.962 . S
C582 H596 0.960 . S
C583 C580 1.511 . S
C583 H597 0.961 . S
C583 H598 0.961 . S
C583 H599 0.961 . S
C584 C585 1.370 . S
C584 C586 1.363 1_556 S
C584 H600 0.931 . S
C585 C584 1.370 . S
C585 C589 1.408 . S
C586 C584 1.363 1_554 S
C586 C587 1.370 . S
C586 C590 1.524 . S
C587 C579 1.503 . S
C587 C586 1.370 . S
C587 C588 1.403 1_554 S
C588 C587 1.403 1_556 S
C588 C589 1.404 . S
C588 C591 1.539 . S
C589 C585 1.408 . S
C589 C588 1.404 . S
C589 H601 0.930 . S
C590 C586 1.524 . S
C590 H602 0.956 . S
C590 H603 0.961 . S
C590 H604 0.961 . S
C591 C588 1.539 . S
C591 H605 0.958 . S
C591 H606 0.961 . S
C591 H607 0.960 . S
H592 C576 0.931 . S
H593 C581 0.929 . S
H594 C582 0.960 . S
H595 C582 0.962 . S
H596 C582 0.960 . S
H597 C583 0.961 . S
H598 C583 0.961 . S
H599 C583 0.961 . S
H600 C584 0.931 . S
H601 C589 0.930 . S
H602 C590 0.956 . S
H603 C590 0.961 . S
H604 C590 0.961 . S
H605 C591 0.958 . S
H606 C591 0.961 . S
H607 C591 0.960 . S
C608 C609 1.391 . S
C608 C610 1.394 . S
C608 H624 0.931 . S
C609 C608 1.391 . S
C609 C613 1.376 . S
C610 C608 1.394 . S
C610 C611 1.369 . S
C610 C614 1.531 . S
C611 C610 1.369 . S
C611 C612 1.410 . S
C611 C619 1.503 . S
C612 C611 1.410 . S
C612 C613 1.392 . S
C612 C615 1.511 . S
C613 C609 1.376 . S
C613 C612 1.392 . S
C613 H625 0.929 . S
C614 C610 1.531 . S
C614 H626 0.960 . S
C614 H627 0.962 . S
C614 H628 0.960 . S
C615 C612 1.511 . S
C615 H629 0.961 . S
C615 H630 0.961 . S
C615 H631 0.961 . S
C616 C617 1.370 . S
C616 C618 1.363 . S
C616 H632 0.931 . S
C617 C616 1.370 . S
C617 C621 1.408 . S
C618 C616 1.363 . S
C618 C619 1.370 1_556 S
C618 C622 1.524 . S
C619 C611 1.503 . S
C619 C618 1.370 1_554 S
C619 C620 1.403 . S
C620 C619 1.403 . S
C620 C621 1.404 1_554 S
C620 C623 1.539 . S
C621 C617 1.408 . S
C621 C620 1.404 1_556 S
C621 H633 0.930 . S
C622 C618 1.524 . S
C622 H634 0.955 1_556 S
C622 H635 0.961 1_556 S
C622 H636 0.961 . S
C623 C620 1.539 . S
C623 H637 0.958 . S
C623 H638 0.961 . S
C623 H639 0.960 . S
H624 C608 0.931 . S
H625 C613 0.929 . S
H626 C614 0.960 . S
H627 C614 0.962 . S
H628 C614 0.960 . S
H629 C615 0.961 . S
H630 C615 0.961 . S
H631 C615 0.961 . S
H632 C616 0.931 . S
H633 C621 0.930 . S
H634 C622 0.955 1_554 S
H635 C622 0.961 1_554 S
H636 C622 0.961 . S
H637 C623 0.958 . S
H638 C623 0.961 . S
H639 C623 0.960 . S
C640 C641 1.387 . S
C640 C642 1.394 . S
C640 H656 0.931 . S
C641 C640 1.387 . S
C641 C645 1.379 1_455 S
C642 C640 1.394 . S
C642 C643 1.390 . S
C642 C646 1.531 . S
C643 C642 1.390 . S
C643 C644 1.388 1_455 S
C643 C651 1.503 1_455 S
C644 C643 1.388 1_655 S
C644 C645 1.392 . S
C644 C647 1.511 . S
C645 C641 1.379 1_655 S
C645 C644 1.392 . S
C645 H657 0.929 . S
C646 C642 1.531 . S
C646 H658 0.960 . S
C646 H659 0.962 . S
C646 H660 0.960 . S
C647 C644 1.511 . S
C647 H661 0.961 . S
C647 H662 0.961 . S
C647 H663 0.961 . S
C648 C649 1.370 . S
C648 C650 1.363 . S
C648 H664 0.931 . S
C649 C648 1.370 . S
C649 C653 1.408 1_655 S
C650 C648 1.363 . S
C650 C651 1.371 1_556 S
C650 C654 1.524 . S
C651 C643 1.503 1_655 S
C651 C650 1.371 1_554 S
C651 C652 1.402 1_655 S
C652 C651 1.402 1_455 S
C652 C653 1.404 1_554 S
C652 C655 1.539 . S
C653 C649 1.408 1_455 S
C653 C652 1.404 1_556 S
C653 H665 0.930 . S
C654 C650 1.524 . S
C654 H666 0.956 1_655 S
C654 H667 0.961 1_556 S
C654 H668 0.961 . S
C655 C652 1.539 . S
C655 H669 0.958 . S
C655 H670 0.971 . S
C655 H671 0.953 1_455 S
H656 C640 0.931 . S
H657 C645 0.929 . S
H658 C646 0.960 . S
H659 C646 0.962 . S
H660 C646 0.960 . S
H661 C647 0.961 . S
H662 C647 0.961 . S
H663 C647 0.961 . S
H664 C648 0.931 . S
H665 C653 0.930 . S
H666 C654 0.956 1_455 S
H667 C654 0.961 1_554 S
H668 C654 0.961 . S
H669 C655 0.958 . S
H670 C655 0.971 . S
H671 C655 0.953 1_655 S
C672 C673 1.399 . S
C672 C674 1.394 1_455 S
C672 H688 0.931 . S
C673 C672 1.399 . S
C673 C677 1.354 1_455 S
C674 C672 1.394 1_655 S
C674 C675 1.369 . S
C674 C678 1.531 1_655 S
C675 C674 1.369 . S
C675 C676 1.410 . S
C675 C683 1.503 . S
C676 C675 1.410 . S
C676 C677 1.392 . S
C676 C679 1.511 . S
C677 C673 1.354 1_655 S
C677 C676 1.392 . S
C677 H689 0.929 . S
C678 C674 1.531 1_455 S
C678 H690 0.960 1_455 S
C678 H691 0.962 . S
C678 H692 0.960 . S
C679 C676 1.511 . S
C679 H693 0.961 . S
C679 H694 0.961 . S
C679 H695 0.961 . S
C680 C681 1.370 . S
C680 C682 1.363 . S
C680 H696 0.931 . S
C681 C680 1.370 . S
C681 C685 1.408 . S
C682 C680 1.363 . S
C682 C683 1.370 . S
C682 C686 1.524 1_655 S
C683 C675 1.503 . S
C683 C682 1.370 . S
C683 C684 1.403 . S
C684 C683 1.403 . S
C684 C685 1.404 . S
C684 C687 1.539 . S
C685 C681 1.408 . S
C685 C684 1.404 . S
C685 H697 0.930 . S
C686 C682 1.524 1_455 S
C686 H698 0.956 . S
C686 H699 0.961 . S
C686 H700 0.961 . S
C687 C684 1.539 . S
C687 H701 0.958 . S
C687 H702 0.961 . S
C687 H703 0.960 . S
H688 C672 0.931 . S
H689 C677 0.929 . S
H690 C678 0.960 1_655 S
H691 C678 0.962 . S
H692 C678 0.960 . S
H693 C679 0.961 . S
H694 C679 0.961 . S
H695 C679 0.961 . S
H696 C680 0.931 . S
H697 C685 0.930 . S
H698 C686 0.956 . S
H699 C686 0.961 . S
H700 C686 0.961 . S
H701 C687 0.958 . S
H702 C687 0.961 . S
H703 C687 0.960 . S
C704 C705 1.391 1_565 S
C704 C706 1.394 . S
C704 H720 0.931 . S
C705 C704 1.391 1_545 S
C705 C709 1.376 . S
C706 C704 1.394 . S
C706 C707 1.369 . S
C706 C710 1.531 . S
C707 C706 1.369 . S
C707 C708 1.410 1_565 S
C707 C715 1.503 . S
C708 C707 1.410 1_545 S
C708 C709 1.392 . S
C708 C711 1.511 . S
C709 C705 1.376 . S
C709 C708 1.392 . S
C709 H721 0.929 . S
C710 C706 1.531 . S
C710 H722 0.960 . S
C710 H723 0.962 . S
C710 H724 0.960 . S
C711 C708 1.511 . S
C711 H725 0.961 . S
C711 H726 0.961 . S
C711 H727 0.961 . S
C712 C713 1.370 . S
C712 C714 1.363 . S
C712 H728 0.931 . S
C713 C712 1.370 . S
C713 C717 1.408 . S
C714 C712 1.363 . S
C714 C715 1.370 . S
C714 C718 1.524 . S
C715 C707 1.503 . S
C715 C714 1.370 . S
C715 C716 1.403 . S
C716 C715 1.403 . S
C716 C717 1.404 . S
C716 C719 1.539 1_565 S
C717 C713 1.408 . S
C717 C716 1.404 . S
C717 H729 0.930 . S
C718 C714 1.524 . S
C718 H730 0.956 . S
C718 H731 0.961 . S
C718 H732 0.961 . S
C719 C716 1.539 1_545 S
C719 H733 0.958 . S
C719 H734 0.961 . S
C719 H735 0.960 . S
H720 C704 0.931 . S
H721 C709 0.929 . S
H722 C710 0.960 . S
H723 C710 0.962 . S
H724 C710 0.960 . S
H725 C711 0.961 . S
H726 C711 0.961 . S
H727 C711 0.961 . S
H728 C712 0.931 . S
H729 C717 0.930 . S
H730 C718 0.956 . S
H731 C718 0.961 . S
H732 C718 0.961 . S
H733 C719 0.958 . S
H734 C719 0.961 . S
H735 C719 0.960 . S
C736 C737 1.391 . S
C736 C738 1.394 . S
C736 H752 0.931 . S
C737 C736 1.391 . S
C737 C741 1.376 . S
C738 C736 1.394 . S
C738 C739 1.369 . S
C738 C742 1.531 . S
C739 C738 1.369 . S
C739 C740 1.410 . S
C739 C747 1.503 . S
C740 C739 1.410 . S
C740 C741 1.392 . S
C740 C743 1.511 . S
C741 C737 1.376 . S
C741 C740 1.392 . S
C741 H753 0.929 . S
C742 C738 1.531 . S
C742 H754 0.960 . S
C742 H755 0.962 . S
C742 H756 0.960 . S
C743 C740 1.511 . S
C743 H757 0.961 . S
C743 H758 0.961 . S
C743 H759 0.961 . S
C744 C745 1.370 . S
C744 C746 1.363 . S
C744 H760 0.931 . S
C745 C744 1.370 . S
C745 C749 1.408 . S
C746 C744 1.363 . S
C746 C747 1.370 . S
C746 C750 1.524 . S
C747 C739 1.503 . S
C747 C746 1.370 . S
C747 C748 1.403 . S
C748 C747 1.403 . S
C748 C749 1.404 . S
C748 C751 1.539 . S
C749 C745 1.408 . S
C749 C748 1.404 . S
C749 H761 0.930 . S
C750 C746 1.524 . S
C750 H762 0.956 . S
C750 H763 0.961 . S
C750 H764 0.961 . S
C751 C748 1.539 . S
C751 H765 0.958 . S
C751 H766 0.961 . S
C751 H767 0.960 . S
H752 C736 0.931 . S
H753 C741 0.929 . S
H754 C742 0.960 . S
H755 C742 0.962 . S
H756 C742 0.960 . S
H757 C743 0.961 . S
H758 C743 0.961 . S
H759 C743 0.961 . S
H760 C744 0.931 . S
H761 C749 0.930 . S
H762 C750 0.956 . S
H763 C750 0.961 . S
H764 C750 0.961 . S
H765 C751 0.958 . S
H766 C751 0.961 . S
H767 C751 0.960 . S
C768 C769 1.391 . S
C768 C770 1.394 . S
C768 H784 0.931 . S
C769 C768 1.391 . S
C769 C773 1.376 . S
C770 C768 1.394 . S
C770 C771 1.369 . S
C770 C774 1.531 . S
C771 C770 1.369 . S
C771 C772 1.410 . S
C771 C779 1.503 . S
C772 C771 1.410 . S
C772 C773 1.392 . S
C772 C775 1.511 . S
C773 C769 1.376 . S
C773 C772 1.392 . S
C773 H785 0.929 . S
C774 C770 1.531 . S
C774 H786 0.960 . S
C774 H787 0.962 . S
C774 H788 0.960 . S
C775 C772 1.511 . S
C775 H789 0.961 . S
C775 H790 0.961 . S
C775 H791 0.961 . S
C776 C777 1.370 . S
C776 C778 1.363 . S
C776 H792 0.931 . S
C777 C776 1.370 . S
C777 C781 1.408 . S
C778 C776 1.363 . S
C778 C779 1.370 . S
C778 C782 1.524 . S
C779 C771 1.503 . S
C779 C778 1.370 . S
C779 C780 1.403 . S
C780 C779 1.403 . S
C780 C781 1.404 . S
C780 C783 1.539 . S
C781 C777 1.408 . S
C781 C780 1.404 . S
C781 H793 0.930 . S
C782 C778 1.524 . S
C782 H794 0.956 . S
C782 H795 0.961 . S
C782 H796 0.961 . S
C783 C780 1.539 . S
C783 H797 0.958 . S
C783 H798 0.961 . S
C783 H799 0.960 . S
H784 C768 0.931 . S
H785 C773 0.929 . S
H786 C774 0.960 . S
H787 C774 0.962 . S
H788 C774 0.960 . S
H789 C775 0.961 . S
H790 C775 0.961 . S
H791 C775 0.961 . S
H792 C776 0.931 . S
H793 C781 0.930 . S
H794 C782 0.956 . S
H795 C782 0.961 . S
H796 C782 0.961 . S
H797 C783 0.958 . S
H798 C783 0.961 . S
H799 C783 0.960 . S
C800 C801 1.359 1_455 S
C800 C802 1.394 . S
C800 H816 0.931 . S
C801 C800 1.359 1_655 S
C801 C805 1.390 . S
C802 C800 1.394 . S
C802 C803 1.369 . S
C802 C806 1.531 . S
C803 C802 1.369 . S
C803 C804 1.410 . S
C803 C811 1.503 . S
C804 C803 1.410 . S
C804 C805 1.392 1_455 S
C804 C807 1.511 1_454 S
C805 C801 1.390 . S
C805 C804 1.392 1_655 S
C805 H817 0.929 . S
C806 C802 1.531 . S
C806 H818 0.960 . S
C806 H819 0.962 . S
C806 H820 0.960 . S
C807 C804 1.511 1_656 S
C807 H821 0.961 . S
C807 H822 0.961 . S
C807 H823 0.961 1_655 S
C808 C809 1.370 1_554 S
C808 C810 1.363 . S
C808 H824 0.931 . S
C809 C808 1.370 1_556 S
C809 C813 1.408 . S
C810 C808 1.363 . S
C810 C811 1.370 . S
C810 C814 1.524 1_455 S
C811 C803 1.503 . S
C811 C810 1.370 . S
C811 C812 1.403 . S
C812 C811 1.403 . S
C812 C813 1.404 1_554 S
C812 C815 1.539 1_554 S
C813 C809 1.408 . S
C813 C812 1.404 1_556 S
C813 H825 0.930 . S
C814 C810 1.524 1_655 S
C814 H826 0.956 . S
C814 H827 0.961 . S
C814 H828 0.961 . S
C815 C812 1.539 1_556 S
C815 H829 0.958 1_556 S
C815 H830 0.961 . S
C815 H831 0.960 . S
H816 C800 0.931 . S
H817 C805 0.929 . S
H818 C806 0.960 . S
H819 C806 0.962 . S
H820 C806 0.960 . S
H821 C807 0.961 . S
H822 C807 0.961 . S
H823 C807 0.961 1_455 S
H824 C808 0.931 . S
H825 C813 0.930 . S
H826 C814 0.956 . S
H827 C814 0.961 . S
H828 C814 0.961 . S
H829 C815 0.958 1_554 S
H830 C815 0.961 . S
H831 C815 0.960 . S
C832 C833 1.391 . S
C832 C834 1.394 . S
C832 H848 0.931 . S
C833 C832 1.391 . S
C833 C837 1.376 1_565 S
C834 C832 1.394 . S
C834 C835 1.369 1_565 S
C834 C838 1.531 . S
C835 C834 1.369 1_545 S
C835 C836 1.410 . S
C835 C843 1.503 . S
C836 C835 1.410 . S
C836 C837 1.392 . S
C836 C839 1.511 . S
C837 C833 1.376 1_545 S
C837 C836 1.392 . S
C837 H849 0.929 . S
C838 C834 1.531 . S
C838 H850 0.960 . S
C838 H851 0.962 . S
C838 H852 0.960 . S
C839 C836 1.511 . S
C839 H853 0.961 . S
C839 H854 0.961 . S
C839 H855 0.961 . S
C840 C841 1.370 . S
C840 C842 1.363 . S
C840 H856 0.931 . S
C841 C840 1.370 . S
C841 C845 1.408 1_556 S
C842 C840 1.363 . S
C842 C843 1.370 1_556 S
C842 C846 1.524 . S
C843 C835 1.503 . S
C843 C842 1.370 1_554 S
C843 C844 1.403 . S
C844 C843 1.403 . S
C844 C845 1.404 . S
C844 C847 1.539 . S
C845 C841 1.408 1_554 S
C845 C844 1.404 . S
C845 H857 0.930 . S
C846 C842 1.524 . S
C846 H858 0.956 . S
C846 H859 0.961 . S
C846 H860 0.961 . S
C847 C844 1.539 . S
C847 H861 0.958 . S
C847 H862 0.961 . S
C847 H863 0.960 . S
H848 C832 0.931 . S
H849 C837 0.929 . S
H850 C838 0.960 . S
H851 C838 0.962 . S
H852 C838 0.960 . S
H853 C839 0.961 . S
H854 C839 0.961 . S
H855 C839 0.961 . S
H856 C840 0.931 . S
H857 C845 0.930 . S
H858 C846 0.956 . S
H859 C846 0.961 . S
H860 C846 0.961 . S
H861 C847 0.958 . S
H862 C847 0.961 . S
H863 C847 0.960 . S
C864 C865 1.391 . S
C864 C866 1.394 . S
C864 H880 0.931 . S
C865 C864 1.391 . S
C865 C869 1.376 . S
C866 C864 1.394 . S
C866 C867 1.369 . S
C866 C870 1.531 . S
C867 C866 1.369 . S
C867 C868 1.410 . S
C867 C875 1.503 . S
C868 C867 1.410 . S
C868 C869 1.392 . S
C868 C871 1.511 . S
C869 C865 1.376 . S
C869 C868 1.392 . S
C869 H881 0.929 . S
C870 C866 1.531 . S
C870 H882 0.960 . S
C870 H883 0.962 . S
C870 H884 0.960 . S
C871 C868 1.511 . S
C871 H885 0.961 . S
C871 H886 0.961 . S
C871 H887 0.961 . S
C872 C873 1.370 . S
C872 C874 1.363 . S
C872 H888 0.931 . S
C873 C872 1.370 . S
C873 C877 1.408 1_556 S
C874 C872 1.363 . S
C874 C875 1.370 1_556 S
C874 C878 1.524 . S
C875 C867 1.503 . S
C875 C874 1.370 1_554 S
C875 C876 1.403 . S
C876 C875 1.403 . S
C876 C877 1.404 . S
C876 C879 1.539 . S
C877 C873 1.408 1_554 S
C877 C876 1.404 . S
C877 H889 0.930 . S
C878 C874 1.524 . S
C878 H890 0.956 . S
C878 H891 0.961 . S
C878 H892 0.961 . S
C879 C876 1.539 . S
C879 H893 0.958 . S
C879 H894 0.961 . S
C879 H895 0.960 . S
H880 C864 0.931 . S
H881 C869 0.929 . S
H882 C870 0.960 . S
H883 C870 0.962 . S
H884 C870 0.960 . S
H885 C871 0.961 . S
H886 C871 0.961 . S
H887 C871 0.961 . S
H888 C872 0.931 . S
H889 C877 0.930 . S
H890 C878 0.956 . S
H891 C878 0.961 . S
H892 C878 0.961 . S
H893 C879 0.958 . S
H894 C879 0.961 . S
H895 C879 0.960 . S
C896 C897 1.391 . S
C896 C898 1.394 . S
C896 H912 0.931 . S
C897 C896 1.391 . S
C897 C901 1.376 . S
C898 C896 1.394 . S
C898 C899 1.369 . S
C898 C902 1.531 . S
C899 C898 1.369 . S
C899 C900 1.410 . S
C899 C907 1.503 . S
C900 C899 1.410 . S
C900 C901 1.392 . S
C900 C903 1.511 . S
C901 C897 1.376 . S
C901 C900 1.392 . S
C901 H913 0.929 . S
C902 C898 1.531 . S
C902 H914 0.960 . S
C902 H915 0.962 . S
C902 H916 0.960 . S
C903 C900 1.511 . S
C903 H917 0.961 . S
C903 H918 0.961 . S
C903 H919 0.961 . S
C904 C905 1.370 . S
C904 C906 1.363 . S
C904 H920 0.931 . S
C905 C904 1.370 . S
C905 C909 1.408 1_556 S
C906 C904 1.363 . S
C906 C907 1.370 1_556 S
C906 C910 1.524 . S
C907 C899 1.503 . S
C907 C906 1.370 1_554 S
C907 C908 1.403 . S
C908 C907 1.403 . S
C908 C909 1.404 . S
C908 C911 1.539 . S
C909 C905 1.408 1_554 S
C909 C908 1.404 . S
C909 H921 0.930 . S
C910 C906 1.524 . S
C910 H922 0.956 . S
C910 H923 0.961 . S
C910 H924 0.961 . S
C911 C908 1.539 . S
C911 H925 0.958 . S
C911 H926 0.961 . S
C911 H927 0.960 . S
H912 C896 0.931 . S
H913 C901 0.929 . S
H914 C902 0.960 . S
H915 C902 0.962 . S
H916 C902 0.960 . S
H917 C903 0.961 . S
H918 C903 0.961 . S
H919 C903 0.961 . S
H920 C904 0.931 . S
H921 C909 0.930 . S
H922 C910 0.956 . S
H923 C910 0.961 . S
H924 C910 0.961 . S
H925 C911 0.958 . S
H926 C911 0.961 . S
H927 C911 0.960 . S
C928 C929 1.417 . S
C928 C930 1.394 . S
C928 H944 0.931 . S
C929 C928 1.417 . S
C929 C933 1.350 1_455 S
C930 C928 1.394 . S
C930 C931 1.369 . S
C930 C934 1.531 . S
C931 C930 1.369 . S
C931 C932 1.410 1_455 S
C931 C939 1.503 . S
C932 C931 1.410 1_655 S
C932 C933 1.392 . S
C932 C935 1.511 . S
C933 C929 1.350 1_655 S
C933 C932 1.392 . S
C933 H945 0.929 . S
C934 C930 1.531 . S
C934 H946 0.960 . S
C934 H947 0.962 . S
C934 H948 0.960 . S
C935 C932 1.511 . S
C935 H949 0.961 . S
C935 H950 0.961 . S
C935 H951 0.961 . S
C936 C937 1.370 . S
C936 C938 1.363 . S
C936 H952 0.931 . S
C937 C936 1.370 . S
C937 C941 1.408 1_455 S
C938 C936 1.363 . S
C938 C939 1.370 . S
C938 C942 1.524 . S
C939 C931 1.503 . S
C939 C938 1.370 . S
C939 C940 1.403 1_455 S
C940 C939 1.403 1_655 S
C940 C941 1.404 . S
C940 C943 1.539 . S
C941 C937 1.408 1_655 S
C941 C940 1.404 . S
C941 H953 0.930 . S
C942 C938 1.524 . S
C942 H954 0.956 . S
C942 H955 0.961 . S
C942 H956 0.961 . S
C943 C940 1.539 . S
C943 H957 0.958 . S
C943 H958 0.961 . S
C943 H959 0.960 . S
H944 C928 0.931 . S
H945 C933 0.929 . S
H946 C934 0.960 . S
H947 C934 0.962 . S
H948 C934 0.960 . S
H949 C935 0.961 . S
H950 C935 0.961 . S
H951 C935 0.961 . S
H952 C936 0.931 . S
H953 C941 0.930 . S
H954 C942 0.956 . S
H955 C942 0.961 . S
H956 C942 0.961 . S
H957 C943 0.958 . S
H958 C943 0.961 . S
H959 C943 0.960 . S
C960 C961 1.391 . S
C960 C962 1.394 . S
C960 H976 0.931 . S
C961 C960 1.391 . S
C961 C965 1.376 1_545 S
C962 C960 1.394 . S
C962 C963 1.369 . S
C962 C966 1.531 . S
C963 C962 1.369 . S
C963 C964 1.410 1_545 S
C963 C971 1.503 . S
C964 C963 1.410 1_565 S
C964 C965 1.392 . S
C964 C967 1.511 . S
C965 C961 1.376 1_565 S
C965 C964 1.392 . S
C965 H977 0.929 . S
C966 C962 1.531 . S
C966 H978 0.960 . S
C966 H979 0.962 . S
C966 H980 0.960 . S
C967 C964 1.511 . S
C967 H981 0.961 . S
C967 H982 0.961 . S
C967 H983 0.961 . S
C968 C969 1.370 . S
C968 C970 1.363 . S
C968 H984 0.931 . S
C969 C968 1.370 . S
C969 C973 1.414 . S
C970 C968 1.363 . S
C970 C971 1.370 . S
C970 C974 1.524 . S
C971 C963 1.503 . S
C971 C970 1.370 . S
C971 C972 1.403 1_545 S
C972 C971 1.403 1_565 S
C972 C973 1.403 1_565 S
C972 C975 1.539 . S
C973 C969 1.414 . S
C973 C972 1.403 1_545 S
C973 H985 0.926 1_545 S
C974 C970 1.524 . S
C974 H986 0.956 . S
C974 H987 0.961 . S
C974 H988 0.961 . S
C975 C972 1.539 . S
C975 H989 0.958 . S
C975 H990 0.961 . S
C975 H991 0.960 . S
H976 C960 0.931 . S
H977 C965 0.929 . S
H978 C966 0.960 . S
H979 C966 0.962 . S
H980 C966 0.960 . S
H981 C967 0.961 . S
H982 C967 0.961 . S
H983 C967 0.961 . S
H984 C968 0.931 . S
H985 C973 0.926 1_565 S
H986 C974 0.956 . S
H987 C974 0.961 . S
H988 C974 0.961 . S
H989 C975 0.958 . S
H990 C975 0.961 . S
H991 C975 0.960 . S
C992 C993 1.391 . S
C992 C994 1.394 . S
C992 H1008 0.931 . S
C993 C992 1.391 . S
C993 C997 1.376 . S
C994 C992 1.394 . S
C994 C995 1.369 . S
C994 C998 1.531 . S
C995 C994 1.369 . S
C995 C996 1.410 . S
C995 C1003 1.503 . S
C996 C995 1.410 . S
C996 C997 1.392 . S
C996 C999 1.511 . S
C997 C993 1.376 . S
C997 C996 1.392 . S
C997 H1009 0.929 . S
C998 C994 1.531 . S
C998 H1010 0.960 . S
C998 H1011 0.962 . S
C998 H1012 0.960 . S
C999 C996 1.511 . S
C999 H1013 0.961 . S
C999 H1014 0.961 . S
C999 H1015 0.961 . S
C1000 C1001 1.370 . S
C1000 C1002 1.363 . S
C1000 H1016 0.931 . S
C1001 C1000 1.370 . S
C1001 C1005 1.408 . S
C1002 C1000 1.363 . S
C1002 C1003 1.370 . S
C1002 C1006 1.524 . S
C1003 C995 1.503 . S
C1003 C1002 1.370 . S
C1003 C1004 1.403 . S
C1004 C1003 1.403 . S
C1004 C1005 1.404 . S
C1004 C1007 1.539 . S
C1005 C1001 1.408 . S
C1005 C1004 1.404 . S
C1005 H1017 0.930 . S
C1006 C1002 1.524 . S
C1006 H1018 0.956 . S
C1006 H1019 0.961 . S
C1006 H1020 0.961 . S
C1007 C1004 1.539 . S
C1007 H1021 0.958 . S
C1007 H1022 0.961 . S
C1007 H1023 0.960 . S
H1008 C992 0.931 . S
H1009 C997 0.929 . S
H1010 C998 0.960 . S
H1011 C998 0.962 . S
H1012 C998 0.960 . S
H1013 C999 0.961 . S
H1014 C999 0.961 . S
H1015 C999 0.961 . S
H1016 C1000 0.931 . S
H1017 C1005 0.930 . S
H1018 C1006 0.956 . S
H1019 C1006 0.961 . S
H1020 C1006 0.961 . S
H1021 C1007 0.958 . S
H1022 C1007 0.961 . S
H1023 C1007 0.960 . S
C1024 C1025 1.391 . S
C1024 C1026 1.394 . S
C1024 H1040 0.931 . S
C1025 C1024 1.391 . S
C1025 C1029 1.376 . S
C1026 C1024 1.394 . S
C1026 C1027 1.369 . S
C1026 C1030 1.531 . S
C1027 C1026 1.369 . S
C1027 C1028 1.410 . S
C1027 C1035 1.503 . S
C1028 C1027 1.410 . S
C1028 C1029 1.392 . S
C1028 C1031 1.511 . S
C1029 C1025 1.376 . S
C1029 C1028 1.392 . S
C1029 H1041 0.929 . S
C1030 C1026 1.531 . S
C1030 H1042 0.960 . S
C1030 H1043 0.962 . S
C1030 H1044 0.960 . S
C1031 C1028 1.511 . S
C1031 H1045 0.961 . S
C1031 H1046 0.961 . S
C1031 H1047 0.961 . S
C1032 C1033 1.370 . S
C1032 C1034 1.363 . S
C1032 H1048 0.931 . S
C1033 C1032 1.370 . S
C1033 C1037 1.408 . S
C1034 C1032 1.363 . S
C1034 C1035 1.370 . S
C1034 C1038 1.524 . S
C1035 C1027 1.503 . S
C1035 C1034 1.370 . S
C1035 C1036 1.403 . S
C1036 C1035 1.403 . S
C1036 C1037 1.404 . S
C1036 C1039 1.539 . S
C1037 C1033 1.408 . S
C1037 C1036 1.404 . S
C1037 H1049 0.930 . S
C1038 C1034 1.524 . S
C1038 H1050 0.956 . S
C1038 H1051 0.961 . S
C1038 H1052 0.961 . S
C1039 C1036 1.539 . S
C1039 H1053 0.958 . S
C1039 H1054 0.961 . S
C1039 H1055 0.960 . S
H1040 C1024 0.931 . S
H1041 C1029 0.929 . S
H1042 C1030 0.960 . S
H1043 C1030 0.962 . S
H1044 C1030 0.960 . S
H1045 C1031 0.961 . S
H1046 C1031 0.961 . S
H1047 C1031 0.961 . S
H1048 C1032 0.931 . S
H1049 C1037 0.930 . S
H1050 C1038 0.956 . S
H1051 C1038 0.961 . S
H1052 C1038 0.961 . S
H1053 C1039 0.958 . S
H1054 C1039 0.961 . S
H1055 C1039 0.960 . S
C1056 C1057 1.391 . S
C1056 C1058 1.394 . S
C1056 H1072 0.931 . S
C1057 C1056 1.391 . S
C1057 C1061 1.376 1_655 S
C1058 C1056 1.394 . S
C1058 C1059 1.369 . S
C1058 C1062 1.531 . S
C1059 C1058 1.369 . S
C1059 C1060 1.410 1_655 S
C1059 C1067 1.503 . S
C1060 C1059 1.410 1_455 S
C1060 C1061 1.392 . S
C1060 C1063 1.511 . S
C1061 C1057 1.376 1_455 S
C1061 C1060 1.392 . S
C1061 H1073 0.929 . S
C1062 C1058 1.531 . S
C1062 H1074 0.960 . S
C1062 H1075 0.962 . S
C1062 H1076 0.960 . S
C1063 C1060 1.511 . S
C1063 H1077 0.961 . S
C1063 H1078 0.961 . S
C1063 H1079 0.961 . S
C1064 C1065 1.370 . S
C1064 C1066 1.363 . S
C1064 H1080 0.931 . S
C1065 C1064 1.370 . S
C1065 C1069 1.408 . S
C1066 C1064 1.363 . S
C1066 C1067 1.370 . S
C1066 C1070 1.524 . S
C1067 C1059 1.503 . S
C1067 C1066 1.370 . S
C1067 C1068 1.403 . S
C1068 C1067 1.403 . S
C1068 C1069 1.404 . S
C1068 C1071 1.539 . S
C1069 C1065 1.408 . S
C1069 C1068 1.404 . S
C1069 H1081 0.930 . S
C1070 C1066 1.524 . S
C1070 H1082 0.956 . S
C1070 H1083 0.961 1_655 S
C1070 H1084 0.961 . S
C1071 C1068 1.539 . S
C1071 H1085 0.958 . S
C1071 H1086 0.961 1_655 S
C1071 H1087 0.960 1_655 S
H1072 C1056 0.931 . S
H1073 C1061 0.929 . S
H1074 C1062 0.960 . S
H1075 C1062 0.962 . S
H1076 C1062 0.960 . S
H1077 C1063 0.961 . S
H1078 C1063 0.961 . S
H1079 C1063 0.961 . S
H1080 C1064 0.931 . S
H1081 C1069 0.930 . S
H1082 C1070 0.956 . S
H1083 C1070 0.961 1_455 S
H1084 C1070 0.961 . S
H1085 C1071 0.958 . S
H1086 C1071 0.961 1_455 S
H1087 C1071 0.960 1_455 S
C1088 C1089 1.391 . S
C1088 C1090 1.394 . S
C1088 H1104 0.931 . S
C1089 C1088 1.391 . S
C1089 C1093 1.376 1_565 S
C1090 C1088 1.394 . S
C1090 C1091 1.369 . S
C1090 C1094 1.531 . S
C1091 C1090 1.369 . S
C1091 C1092 1.410 1_565 S
C1091 C1099 1.503 . S
C1092 C1091 1.410 1_545 S
C1092 C1093 1.392 . S
C1092 C1095 1.511 . S
C1093 C1089 1.376 1_545 S
C1093 C1092 1.392 . S
C1093 H1105 0.929 . S
C1094 C1090 1.531 . S
C1094 H1106 0.960 . S
C1094 H1107 0.962 . S
C1094 H1108 0.960 . S
C1095 C1092 1.511 . S
C1095 H1109 0.961 . S
C1095 H1110 0.961 . S
C1095 H1111 0.961 . S
C1096 C1097 1.370 . S
C1096 C1098 1.363 . S
C1096 H1112 0.931 . S
C1097 C1096 1.370 . S
C1097 C1101 1.408 . S
C1098 C1096 1.363 . S
C1098 C1099 1.370 . S
C1098 C1102 1.524 1_565 S
C1099 C1091 1.503 . S
C1099 C1098 1.370 . S
C1099 C1100 1.403 . S
C1100 C1099 1.403 . S
C1100 C1101 1.404 . S
C1100 C1103 1.539 . S
C1101 C1097 1.408 . S
C1101 C1100 1.404 . S
C1101 H1113 0.930 . S
C1102 C1098 1.524 1_545 S
C1102 H1114 0.956 1_545 S
C1102 H1115 0.961 . S
C1102 H1116 0.961 . S
C1103 C1100 1.539 . S
C1103 H1117 0.958 . S
C1103 H1118 0.961 . S
C1103 H1119 0.960 . S
H1104 C1088 0.931 . S
H1105 C1093 0.929 . S
H1106 C1094 0.960 . S
H1107 C1094 0.962 . S
H1108 C1094 0.960 . S
H1109 C1095 0.961 . S
H1110 C1095 0.961 . S
H1111 C1095 0.961 . S
H1112 C1096 0.931 . S
H1113 C1101 0.930 . S
H1114 C1102 0.956 1_565 S
H1115 C1102 0.961 . S
H1116 C1102 0.961 . S
H1117 C1103 0.958 . S
H1118 C1103 0.961 . S
H1119 C1103 0.960 . S
C1120 C1121 1.391 . S
C1120 C1122 1.394 . S
C1120 H1136 0.931 . S
C1121 C1120 1.391 . S
C1121 C1125 1.376 . S
C1122 C1120 1.394 . S
C1122 C1123 1.369 . S
C1122 C1126 1.531 . S
C1123 C1122 1.369 . S
C1123 C1124 1.410 . S
C1123 C1131 1.503 . S
C1124 C1123 1.410 . S
C1124 C1125 1.392 . S
C1124 C1127 1.511 . S
C1125 C1121 1.376 . S
C1125 C1124 1.392 . S
C1125 H1137 0.929 . S
C1126 C1122 1.531 . S
C1126 H1138 0.960 . S
C1126 H1139 0.962 . S
C1126 H1140 0.960 . S
C1127 C1124 1.511 . S
C1127 H1141 0.961 . S
C1127 H1142 0.961 . S
C1127 H1143 0.961 . S
C1128 C1129 1.370 . S
C1128 C1130 1.363 . S
C1128 H1144 0.931 . S
C1129 C1128 1.370 . S
C1129 C1133 1.408 . S
C1130 C1128 1.363 . S
C1130 C1131 1.370 . S
C1130 C1134 1.524 . S
C1131 C1123 1.503 . S
C1131 C1130 1.370 . S
C1131 C1132 1.403 . S
C1132 C1131 1.403 . S
C1132 C1133 1.404 . S
C1132 C1135 1.539 . S
C1133 C1129 1.408 . S
C1133 C1132 1.404 . S
C1133 H1145 0.930 . S
C1134 C1130 1.524 . S
C1134 H1146 0.956 . S
C1134 H1147 0.961 . S
C1134 H1148 0.961 . S
C1135 C1132 1.539 . S
C1135 H1149 0.958 . S
C1135 H1150 0.961 . S
C1135 H1151 0.960 . S
H1136 C1120 0.931 . S
H1137 C1125 0.929 . S
H1138 C1126 0.960 . S
H1139 C1126 0.962 . S
H1140 C1126 0.960 . S
H1141 C1127 0.961 . S
H1142 C1127 0.961 . S
H1143 C1127 0.961 . S
H1144 C1128 0.931 . S
H1145 C1133 0.930 . S
H1146 C1134 0.956 . S
H1147 C1134 0.961 . S
H1148 C1134 0.961 . S
H1149 C1135 0.958 . S
H1150 C1135 0.961 . S
H1151 C1135 0.960 . S
C1152 C1153 1.391 . S
C1152 C1154 1.394 . S
C1152 H1168 0.931 . S
C1153 C1152 1.391 . S
C1153 C1157 1.376 . S
C1154 C1152 1.394 . S
C1154 C1155 1.369 . S
C1154 C1158 1.531 . S
C1155 C1154 1.369 . S
C1155 C1156 1.410 . S
C1155 C1163 1.503 . S
C1156 C1155 1.410 . S
C1156 C1157 1.392 . S
C1156 C1159 1.511 . S
C1157 C1153 1.376 . S
C1157 C1156 1.392 . S
C1157 H1169 0.929 . S
C1158 C1154 1.531 . S
C1158 H1170 0.960 . S
C1158 H1171 0.962 . S
C1158 H1172 0.960 . S
C1159 C1156 1.511 . S
C1159 H1173 0.961 . S
C1159 H1174 0.961 . S
C1159 H1175 0.961 . S
C1160 C1161 1.370 . S
C1160 C1162 1.363 . S
C1160 H1176 0.931 . S
C1161 C1160 1.370 . S
C1161 C1165 1.408 . S
C1162 C1160 1.363 . S
C1162 C1163 1.370 . S
C1162 C1166 1.524 . S
C1163 C1155 1.503 . S
C1163 C1162 1.370 . S
C1163 C1164 1.403 . S
C1164 C1163 1.403 . S
C1164 C1165 1.404 . S
C1164 C1167 1.539 . S
C1165 C1161 1.408 . S
C1165 C1164 1.404 . S
C1165 H1177 0.930 . S
C1166 C1162 1.524 . S
C1166 H1178 0.956 . S
C1166 H1179 0.961 . S
C1166 H1180 0.961 . S
C1167 C1164 1.539 . S
C1167 H1181 0.958 . S
C1167 H1182 0.961 . S
C1167 H1183 0.960 . S
H1168 C1152 0.931 . S
H1169 C1157 0.929 . S
H1170 C1158 0.960 . S
H1171 C1158 0.962 . S
H1172 C1158 0.960 . S
H1173 C1159 0.961 . S
H1174 C1159 0.961 . S
H1175 C1159 0.961 . S
H1176 C1160 0.931 . S
H1177 C1165 0.930 . S
H1178 C1166 0.956 . S
H1179 C1166 0.961 . S
H1180 C1166 0.961 . S
H1181 C1167 0.958 . S
H1182 C1167 0.961 . S
H1183 C1167 0.960 . S
C417 C215 1.984 . S
C425 C265 2.165 1_545 S
C457 C305 2.171 . S
C449 C247 2.028 . S
C489 C345 2.175 . S
C481 C151 2.020 . S
C521 C385 2.163 1_455 S
C513 C183 2.024 1_655 S
C553 C274 2.168 1_565 S
C545 C87 1.992 1_565 S
C577 C119 1.985 . S
C585 C314 2.178 . S
C609 C23 2.025 . S
C617 C354 2.175 . S
C641 C55 2.027 . S
C649 C394 2.165 1_655 S
C681 C271 0.505 . S
C673 C189 0.453 . S
C713 C311 0.438 . S
C705 C221 0.366 . S
C745 C351 0.457 . S
C737 C253 0.368 . S
C769 C157 0.445 . S
C777 C391 0.485 . S
C801 C61 0.463 1_655 S
C809 C262 0.492 . S
C841 C302 0.471 . S
C833 C93 0.537 1_565 S
C873 C342 0.486 . S
C865 C125 0.472 . S
C897 C29 0.465 . S
C905 C382 0.490 . S
C929 C177 2.491 . S
C937 C275 2.806 . S
C961 C209 2.450 . S
C969 C315 2.789 . S
C1001 C355 2.786 . S
C993 C241 2.438 . S
C1033 C395 2.807 . S
C1025 C145 2.441 . S
C1057 C49 2.551 1_655 S
C1065 C266 2.819 . S
C1097 C306 2.791 . S
C1089 C81 2.531 1_565 S
C1129 C346 2.785 . S
C1121 C113 2.474 . S
C1153 C17 2.488 . S
C1161 C386 2.811 . S
