# Generated by pormake.
# Topology zzz, (3,6)-cn, num edge types: 1
# Building blocks:
#     Node 0, Type 0, BuildingBlock: PAMTOO_clean_linker_0, # of connection points: 3
#     Node 1, Type 0, BuildingBlock: PAMTOO_clean_linker_0, # of connection points: 3
#     Node 2, Type 0, BuildingBlock: PAMTOO_clean_linker_0, # of connection points: 3
#     Node 3, Type 0, BuildingBlock: PAMTOO_clean_linker_0, # of connection points: 3
#     Node 4, Type 0, BuildingBlock: PAMTOO_clean_linker_0, # of connection points: 3
#     Node 5, Type 0, BuildingBlock: PAMTOO_clean_linker_0, # of connection points: 3
#     Node 6, Type 0, BuildingBlock: PAMTOO_clean_linker_0, # of connection points: 3
#     Node 7, Type 0, BuildingBlock: PAMTOO_clean_linker_0, # of connection points: 3
#     Node 8, Type 1, BuildingBlock: KUMBOL_clean_sbu_0, # of connection points: 6
#     Node 9, Type 1, BuildingBlock: KUMBOL_clean_sbu_0, # of connection points: 6
#     Node 10, Type 1, BuildingBlock: KUMBOL_clean_sbu_0, # of connection points: 6
#     Node 11, Type 1, BuildingBlock: KUMBOL_clean_sbu_0, # of connection points: 6
#     Edge 12, Type (0, 1), BuildingBlock: OJICUG_clean_linker_0, # of connection points: 2
#     Edge 13, Type (0, 1), BuildingBlock: OJICUG_clean_linker_0, # of connection points: 2
#     Edge 14, Type (0, 1), BuildingBlock: OJICUG_clean_linker_0, # of connection points: 2
#     Edge 15, Type (0, 1), BuildingBlock: OJICUG_clean_linker_0, # of connection points: 2
#     Edge 16, Type (0, 1), BuildingBlock: OJICUG_clean_linker_0, # of connection points: 2
#     Edge 17, Type (0, 1), BuildingBlock: OJICUG_clean_linker_0, # of connection points: 2
#     Edge 18, Type (0, 1), BuildingBlock: OJICUG_clean_linker_0, # of connection points: 2
#     Edge 19, Type (0, 1), BuildingBlock: OJICUG_clean_linker_0, # of connection points: 2
#     Edge 20, Type (0, 1), BuildingBlock: OJICUG_clean_linker_0, # of connection points: 2
#     Edge 21, Type (0, 1), BuildingBlock: OJICUG_clean_linker_0, # of connection points: 2
#     Edge 22, Type (0, 1), BuildingBlock: OJICUG_clean_linker_0, # of connection points: 2
#     Edge 23, Type (0, 1), BuildingBlock: OJICUG_clean_linker_0, # of connection points: 2
#     Edge 24, Type (0, 1), BuildingBlock: OJICUG_clean_linker_0, # of connection points: 2
#     Edge 25, Type (0, 1), BuildingBlock: OJICUG_clean_linker_0, # of connection points: 2
#     Edge 26, Type (0, 1), BuildingBlock: OJICUG_clean_linker_0, # of connection points: 2
#     Edge 27, Type (0, 1), BuildingBlock: OJICUG_clean_linker_0, # of connection points: 2
#     Edge 28, Type (0, 1), BuildingBlock: OJICUG_clean_linker_0, # of connection points: 2
#     Edge 29, Type (0, 1), BuildingBlock: OJICUG_clean_linker_0, # of connection points: 2
#     Edge 30, Type (0, 1), BuildingBlock: OJICUG_clean_linker_0, # of connection points: 2
#     Edge 31, Type (0, 1), BuildingBlock: OJICUG_clean_linker_0, # of connection points: 2
#     Edge 32, Type (0, 1), BuildingBlock: OJICUG_clean_linker_0, # of connection points: 2
#     Edge 33, Type (0, 1), BuildingBlock: OJICUG_clean_linker_0, # of connection points: 2
#     Edge 34, Type (0, 1), BuildingBlock: OJICUG_clean_linker_0, # of connection points: 2
#     Edge 35, Type (0, 1), BuildingBlock: OJICUG_clean_linker_0, # of connection points: 2
# Relax obj value: 0.230
# Max RMSD: 0.183
# Mean RMSD: 0.118
data_MOF--net-zzz--node1-KUMBOL_clean_sbu_0--node2-PAMTOO_clean_linker_0--edge1-OJICUG_clean_linker_0
_symmetry_space_group_name_H-M    P1
_symmetry_Int_Tables_number       1
_symmetry_cell_setting            triclinic
loop_
_symmetry_equiv_pos_as_xyz
'x, y, z'
_cell_length_a     36.592468
_cell_length_b     36.508276
_cell_length_c     10.969496
_cell_angle_alpha  92.15937
_cell_angle_beta   89.649239
_cell_angle_gamma 89.982817
loop_
_atom_site_label
_atom_site_type_symbol
_atom_site_fract_x
_atom_site_fract_y
_atom_site_fract_z
_atom_type_partial_charge
H0 H 0.8571 0.61398 0.30646 0.0
H1 H 0.7543 0.60119 0.12669 0.0
H2 H 0.78662 0.52452 0.39666 0.0
H3 H 0.72686 0.49685 0.14161 0.0
C4 C 0.72239 0.52663 0.13042 0.0
O5 O 0.73196 0.5452 0.24029 0.0
H6 H 0.74129 0.53437 0.05572 0.0
C7 C 0.83141 0.59976 0.29774 0.0
C8 C 0.82581 0.56877 0.36795 0.0
C9 C 0.80722 0.61018 0.20567 0.0
C10 C 0.77337 0.59276 0.19554 0.0
C11 C 0.76545 0.56164 0.26124 0.0
C12 C 0.79226 0.54884 0.34638 0.0
H13 H 0.97673 0.85763 0.2291 0.0
H14 H 0.97172 0.74181 0.14637 0.0
H15 H 0.04627 0.78441 0.41867 0.0
H16 H 0.07647 0.71205 0.18976 0.0
C17 C 0.04708 0.71074 0.16519 0.0
O18 O 0.02676 0.72386 0.26804 0.0
H19 H 0.04425 0.72983 0.08912 0.0
C20 C 0.98426 0.82999 0.24994 0.0
C21 C 1.00888 0.82524 0.34622 0.0
C22 C 0.97295 0.80039 0.17182 0.0
C23 C 0.98195 0.76473 0.20193 0.0
C24 C 1.01133 0.75854 0.27787 0.0
C25 C 0.02446 0.78892 0.35474 0.0
H26 H 0.70829 0.11909 0.42631 0.0
H27 H 0.80431 0.09782 0.20998 0.0
H28 H 0.76346 1.01505 0.44545 0.0
H29 H 0.86508 1.01875 0.35933 0.0
C30 C 0.8547 0.03957 0.29681 0.0
O31 O 0.81709 0.03328 0.27926 0.0
H32 H 0.85899 0.0665 0.34568 0.0
C33 C 0.73053 0.10087 0.40043 0.0
C34 C 0.7311 0.0656 0.44782 0.0
C35 C 0.75536 0.11199 0.31083 0.0
C36 C 0.78506 0.08945 0.27908 0.0
C37 C 0.78938 0.05506 0.32835 0.0
C38 C 0.76189 0.04262 0.41295 0.0
H39 H 0.61645 0.70968 0.34288 0.0
H40 H 0.60829 0.81735 0.19773 0.0
H41 H 0.52673 0.78006 0.44787 0.0
H42 H 0.49922 0.85268 0.27832 0.0
C43 C 0.52534 0.84643 0.22987 0.0
O44 O 0.5513 0.83756 0.31713 0.0
H45 H 0.51991 0.82196 0.16886 0.0
C46 C 0.60261 0.73571 0.33674 0.0
C47 C 0.56987 0.74047 0.40299 0.0
C48 C 0.6149 0.76126 0.25206 0.0
C49 C 0.59847 0.79617 0.25603 0.0
C50 C 0.56698 0.80353 0.32548 0.0
C51 C 0.55207 0.77527 0.39839 0.0
H52 H 0.21281 0.44439 0.12121 0.0
H53 H 0.31553 0.4505 0.30908 0.0
H54 H 0.27926 0.54111 0.10113 0.0
H55 H 0.32452 0.51425 0.42486 0.0
C56 C 0.34253 0.52753 0.35728 0.0
O57 O 0.33487 0.51356 0.23897 0.0
H58 H 0.33514 0.55707 0.36219 0.0
C59 C 0.23761 0.459 0.14515 0.0
C60 C 0.24206 0.49425 0.1002 0.0
C61 C 0.2612 0.44488 0.23329 0.0
C62 C 0.29535 0.46209 0.24999 0.0
C63 C 0.30228 0.49695 0.20615 0.0
C64 C 0.275 0.51364 0.13213 0.0
H65 H 0.97094 0.20174 0.13217 0.0
H66 H 0.98401 0.30904 0.29598 0.0
H67 H 0.05642 0.27248 1.00309 0.0
H68 H 0.0896 0.33776 0.25212 0.0
C69 C 0.06027 0.33939 0.2783 0.0
O70 O 0.03956 0.32902 0.17416 0.0
H71 H 0.05628 0.31891 0.34986 0.0
C72 C 0.98478 0.22798 0.13205 0.0
C73 C 1.01337 0.23315 0.04806 0.0
C74 C 0.97404 0.25498 0.21943 0.0
C75 C 0.99257 0.28829 0.2284 0.0
C76 C 0.023 0.29506 0.15563 0.0
C77 C 0.03367 0.26723 0.06337 0.0
H78 H 0.36383 0.99973 0.21722 0.0
H79 H 0.25657 1.02068 0.35318 0.0
H80 H 0.28448 0.05195 0.98787 0.0
H81 H 0.20727 0.99972 0.19522 0.0
C82 C 0.19918 0.02787 0.17068 0.0
O83 O 0.23015 0.0508 0.16722 0.0
H84 H 0.1884 0.02488 0.07669 0.0
C85 C 0.33686 1.01023 0.19871 0.0
C86 C 0.32913 0.0258 0.08594 0.0
C87 C 0.31064 1.0077 0.29137 0.0
C88 C 0.2762 0.02263 0.27926 0.0
C89 C 0.26565 0.03799 0.17087 0.0
C90 C 0.29229 0.03984 0.07238 0.0
H91 H 0.44647 0.35508 0.11141 0.0
H92 H 0.44978 0.25207 0.29017 0.0
H93 H 0.54102 0.28587 0.07342 0.0
H94 H 0.51913 0.24825 0.39252 0.0
C95 C 0.53088 0.2286 0.32272 0.0
O96 O 0.51278 0.23189 0.21167 0.0
H97 H 0.55979 0.23685 0.30855 0.0
C98 C 0.45998 0.32959 0.13063 0.0
C99 C 0.4951 0.32399 0.08148 0.0
C100 C 0.44508 0.30642 0.21828 0.0
C101 C 0.46153 0.27179 0.23005 0.0
C102 C 0.49607 0.26389 0.17986 0.0
C103 C 0.51347 0.29062 0.10689 0.0
Gd104 Gd 0.98568 0.0417 0.59682 0.0
Gd105 Gd 0.0524 1.01907 0.8054 0.0
C106 C 0.10878 0.108 0.04625 0.0
C107 C 0.17221 0.10143 0.98342 0.0
C108 C 0.12546 0.06203 0.89106 0.0
C109 C 0.09883 0.07964 0.96133 0.0
C110 C 0.16252 0.07248 0.90233 0.0
C111 C 0.14543 0.119 0.05575 0.0
C112 C 0.08173 0.12428 0.12042 0.0
C113 C 0.04572 0.11268 0.10803 0.0
N114 N 0.06349 0.06851 0.94946 0.0
C115 C 0.03704 0.08502 0.0216 0.0
H116 H 1.00876 0.07805 0.01286 0.0
C117 C 0.14165 1.01277 0.75541 0.0
N118 N 0.11547 0.03354 0.81577 0.0
C119 C 0.17857 0.02225 0.76309 0.0
C120 C 0.18902 0.05259 0.83546 0.0
H121 H 0.13388 0.98928 0.69874 0.0
H122 H 0.15341 0.14078 0.11997 0.0
H123 H 1.01169 0.05814 0.30641 0.0
H124 H 0.08831 0.14595 0.18687 0.0
H125 H 0.02442 0.12543 0.16387 0.0
H126 H 0.20049 0.10977 0.99331 0.0
H127 H 0.93638 0.9843 0.7787 0.0
H128 H 0.9921 0.9607 0.08928 0.0
H129 H 0.02153 1.02152 0.11734 0.0
H130 H 0.91469 0.8905 0.33909 0.0
H131 H 0.19892 1.00616 0.71304 0.0
H132 H 0.2177 0.05973 0.84213 0.0
H133 H 0.94941 0.91466 0.16731 0.0
H134 H 0.90052 0.92881 0.75791 0.0
N135 N 0.98699 1.01401 0.39883 0.0
C136 C 0.98997 0.97585 0.17534 0.0
C137 C 1.00563 1.01041 0.18958 0.0
C138 C 0.96979 0.96185 0.27067 0.0
C139 C 0.96953 0.98127 0.38421 0.0
C140 C 1.00123 0.03043 0.29918 0.0
N141 N 0.95371 0.98481 0.59299 0.0
C142 C 0.95106 0.96715 0.48214 0.0
C143 C 0.91458 0.93921 0.6793 0.0
C144 C 0.91211 0.92069 0.56663 0.0
C145 C 0.93547 0.97116 0.69081 0.0
C146 C 0.93065 0.93435 0.46651 0.0
H147 H 0.89625 0.89567 0.55826 0.0
O148 O 0.92715 0.04997 0.60392 0.0
O149 O 1.01647 0.06578 0.75813 0.0
O150 O 0.99727 1.0216 0.91269 0.0
O151 O 0.95655 0.04846 0.78235 0.0
O152 O 1.0137 0.09784 0.61128 0.0
O153 O 0.96008 0.0816 0.48213 0.0
O154 O 0.08851 0.98436 0.91022 0.0
O155 O 1.01387 0.99251 0.66692 0.0
O156 O 0.04114 0.0429 0.49189 0.0
O157 O 0.08443 0.04166 0.6441 0.0
O158 O 0.06747 0.97774 0.65062 0.0
O159 O 0.03061 0.97659 0.91541 0.0
C160 C 0.02575 0.09743 0.72198 0.0
C161 C 0.93001 0.91572 0.35243 0.0
C162 C 0.94991 0.92927 0.25505 0.0
C163 C 0.92803 0.07757 0.53274 0.0
C164 C 0.90934 0.11129 0.57799 0.0
C165 C 0.89286 0.11423 0.69442 0.0
C166 C 0.90986 0.14188 0.50556 0.0
C167 C 0.89631 0.17574 0.55011 0.0
C168 C 0.87854 0.14781 0.73818 0.0
C169 C 0.88085 0.17876 0.6672 0.0
C170 C 0.96444 0.03581 0.89073 0.0
C171 C 0.03562 0.97086 0.6067 0.0
C172 C 0.06225 0.9619 0.93367 0.0
C173 C 0.06545 0.92385 0.88504 0.0
C174 C 0.09311 0.91289 0.80197 0.0
C175 C 0.03585 0.90057 0.90279 0.0
C176 C 0.03139 0.86811 0.83152 0.0
C177 C 0.08998 0.8798 0.73441 0.0
C178 C 0.05915 0.85766 0.74782 0.0
C179 C 0.07584 0.04466 0.52786 0.0
H180 H 0.89176 0.09098 0.7528 0.0
H181 H 0.92296 0.13989 0.41646 0.0
H182 H 0.86654 0.15004 0.82859 0.0
H183 H 0.87113 0.20498 0.70386 0.0
H184 H 0.1163 0.93043 0.78539 0.0
H185 H 1.01563 0.90876 0.9709 0.0
H186 H 0.11103 0.87178 0.669 0.0
H187 H 0.05695 0.83273 0.69174 0.0
Gd188 Gd 0.5236 1.00611 0.64096 0.0
Gd189 Gd 0.5385 0.06664 0.89329 0.0
C190 C 0.43572 0.07419 0.14025 0.0
C191 C 0.40511 0.1277 0.06725 0.0
C192 C 0.46218 0.10636 0.97085 0.0
C193 C 0.46405 0.07795 0.05222 0.0
C194 C 0.43261 0.13159 0.97941 0.0
C195 C 0.40665 0.09913 0.14728 0.0
C196 C 0.43676 0.0451 0.21854 0.0
C197 C 0.46566 1.02075 0.21047 0.0
N198 N 0.49269 0.05382 0.04508 0.0
C199 C 0.49378 0.02617 0.12681 0.0
H200 H 0.51675 1.00868 0.1366 0.0
C201 C 0.48931 0.14087 0.81686 0.0
N202 N 0.48929 0.11014 0.88604 0.0
C203 C 0.46024 0.16555 0.82031 0.0
C204 C 0.43151 0.16064 0.90071 0.0
H205 H 0.5125 0.1487 0.76397 0.0
H206 H 0.38495 0.09634 0.21402 0.0
H207 H 0.51357 0.05208 0.37457 0.0
H208 H 0.41552 0.04133 0.2862 0.0
H209 H 0.46716 0.99844 0.27246 0.0
H210 H 0.38241 0.14676 0.0741 0.0
H211 H 0.57627 0.94073 0.77868 0.0
H212 H 0.61327 0.04476 0.17544 0.0
H213 H 0.55198 0.07242 0.21095 0.0
H214 H 0.68202 0.95569 0.38056 0.0
H215 H 0.46075 0.1892 0.76369 0.0
H216 H 0.40927 0.18028 0.90461 0.0
H217 H 0.65982 0.99954 0.23412 0.0
H218 H 0.63478 0.9111 0.75266 0.0
N219 N 0.55503 1.02002 0.45709 0.0
C220 C 0.59691 0.03721 0.25308 0.0
C221 C 0.56272 0.05291 0.27282 0.0
C222 C 0.60939 1.0112 0.33266 0.0
C223 C 0.5879 1.00342 0.43641 0.0
C224 C 0.54124 0.04213 0.37035 0.0
N225 N 0.58082 0.9742 0.62327 0.0
C226 C 0.60086 0.97948 0.52057 0.0
C227 C 0.62595 0.93076 0.68748 0.0
C228 C 0.64744 0.93746 0.58609 0.0
C229 C 0.59259 0.94889 0.70372 0.0
C230 C 0.63495 0.96173 0.50051 0.0
H231 H 0.67335 0.92337 0.57385 0.0
O232 O 0.51734 0.9473 0.62239 0.0
O233 O 0.49677 0.02726 0.81535 0.0
O234 O 0.55073 1.01022 0.96894 0.0
O235 O 0.5229 0.97427 0.81774 0.0
O236 O 0.46488 0.02673 0.66064 0.0
O237 O 0.48802 0.98212 0.50164 0.0
O238 O 0.54049 0.1203 0.98539 0.0
O239 O 0.56444 0.04594 0.71819 0.0
O240 O 0.50772 0.06313 0.57711 0.0
O241 O 0.54369 0.09645 0.71193 0.0
O242 O 0.59801 0.04789 0.86769 0.0
O243 O 0.58443 0.08283 1.00989 0.0
C244 C 0.46448 0.03421 0.77702 0.0
C245 C 0.6558 0.96889 0.3965 0.0
C246 C 0.64314 0.99374 0.31306 0.0
C247 C 0.49122 0.94923 0.54362 0.0
C248 C 0.45756 0.92989 0.57795 0.0
C249 C 0.45922 0.89527 0.6298 0.0
C250 C 0.42365 0.94674 0.56573 0.0
C251 C 0.39148 0.92949 0.60277 0.0
C252 C 0.42719 0.87799 0.6679 0.0
C253 C 0.39325 0.89485 0.65332 0.0
C254 C 0.53812 0.97796 0.92737 0.0
C255 C 0.59739 0.04059 0.75137 0.0
C256 C 0.57349 0.11657 0.02342 0.0
C257 C 0.5995 0.14553 0.99 0.0
C258 C 0.59314 0.16784 0.89024 0.0
C259 C 0.63185 0.15013 0.05567 0.0
C260 C 0.65809 0.17589 0.02076 0.0
C261 C 0.61896 0.19391 0.85671 0.0
C262 C 0.65166 0.19769 0.92091 0.0
C263 C 0.5248 0.09396 0.60856 0.0
H264 H 0.48525 0.88171 0.64138 0.0
H265 H 0.42199 0.97299 0.52295 0.0
H266 H 0.42866 0.85128 0.70718 0.0
H267 H 0.36851 0.88072 0.679 0.0
H268 H 0.56855 0.16491 0.83701 0.0
H269 H 0.63739 0.13254 0.13104 0.0
H270 H 0.61391 0.21063 0.77913 0.0
H271 H 0.67209 0.21701 0.89167 0.0
Gd272 Gd 0.50241 0.54916 0.85656 0.0
Gd273 Gd 0.56377 0.51295 0.62355 0.0
C274 C 0.6868 0.53101 0.66442 0.0
C275 C 0.69962 0.57316 0.50348 0.0
C276 C 0.63829 0.54907 0.53047 0.0
C277 C 0.64959 0.53075 0.63138 0.0
C278 C 0.66349 0.56938 0.46249 0.0
C279 C 0.71142 0.5536 0.60347 0.0
C280 C 0.69848 0.50698 0.75266 0.0
C281 C 0.67353 0.48255 0.80178 0.0
N282 N 0.62502 0.5093 0.68821 0.0
C283 C 0.63679 0.48383 0.7674 0.0
H284 H 0.6177 0.46497 0.80657 0.0
C285 C 0.5935 0.55424 0.37819 0.0
N286 N 0.60346 0.54397 0.49197 0.0
C287 C 0.61721 0.57517 0.3084 0.0
C288 C 0.65209 0.58357 0.35219 0.0
H289 H 0.56668 0.54767 0.34322 0.0
H290 H 0.73992 0.55492 0.62954 0.0
H291 H 0.44876 0.5974 0.67298 0.0
H292 H 0.72685 0.50613 0.78008 0.0
H293 H 0.68246 0.46305 0.86729 0.0
H294 H 0.71908 0.58965 0.45496 0.0
H295 H 0.49878 0.51366 0.13673 0.0
H296 H 0.33997 0.55493 0.69344 0.0
H297 H 0.38422 0.59876 0.60949 0.0
H298 H 0.34752 0.47 0.01456 0.0
H299 H 0.60864 0.58463 0.22069 0.0
H300 H 0.67058 0.59935 0.29724 0.0
H301 H 0.32692 0.50535 0.84112 0.0
H302 H 0.45677 0.47551 0.25503 0.0
N303 N 0.44144 0.55269 0.78976 0.0
C304 C 0.36824 0.55436 0.72221 0.0
C305 C 0.39311 0.5792 0.67486 0.0
C306 C 0.37983 0.5302 0.81019 0.0
C307 C 0.4169 0.5308 0.84499 0.0
C308 C 0.42973 0.57825 0.71081 0.0
N309 N 0.46264 0.51746 0.98616 0.0
C310 C 0.42801 0.51218 0.94572 0.0
C311 C 0.44847 0.48527 0.16741 0.0
C312 C 0.41391 0.4766 0.12136 0.0
C313 C 0.47221 0.50687 0.10005 0.0
C314 C 0.4028 0.49121 1.01133 0.0
H315 H 0.3954 0.46027 0.17443 0.0
O316 O 0.52343 0.58511 1.00272 0.0
O317 O 0.56204 0.54138 0.80917 0.0
O318 O 0.55129 0.46806 0.76183 0.0
O319 O 0.50151 0.48752 0.88138 0.0
O320 O 0.54579 0.53057 0.98589 0.0
O321 O 0.47144 0.5967 0.92247 0.0
O322 O 0.54422 0.47871 0.47054 0.0
O323 O 0.50427 0.52043 0.67193 0.0
O324 O 0.51481 0.59409 0.71799 0.0
O325 O 0.56496 0.57476 0.59976 0.0
O326 O 0.51983 0.53113 0.49506 0.0
O327 O 0.59241 0.46304 0.56706 0.0
C328 C 0.5737 0.53153 0.91357 0.0
C329 C 0.36692 0.4871 0.96822 0.0
C330 C 0.35527 0.50699 0.86878 0.0
C331 C 0.49746 0.60897 0.99252 0.0
C332 C 0.50809 0.64748 0.97738 0.0
C333 C 0.48065 0.6739 0.9658 0.0
C334 C 0.54507 0.65818 0.97336 0.0
C335 C 0.55476 0.69527 0.96068 0.0
C336 C 0.48979 0.71039 0.95037 0.0
C337 C 0.52631 0.72113 0.94889 0.0
C338 C 0.52532 0.46196 0.8443 0.0
C339 C 0.49213 0.52997 0.56802 0.0
C340 C 0.56766 0.45284 0.48885 0.0
C341 C 0.55353 0.41532 0.50048 0.0
C342 C 0.57852 0.38666 0.51372 0.0
C343 C 0.51575 0.40774 0.50024 0.0
C344 C 0.50295 0.37151 0.51016 0.0
C345 C 0.56623 0.35097 0.52661 0.0
C346 C 0.52896 0.34331 0.52392 0.0
C347 C 0.54099 0.60033 0.63622 0.0
H348 H 0.45205 0.66627 0.9686 0.0
H349 H 0.56608 0.63754 0.98004 0.0
H350 H 0.46842 0.73065 0.94215 0.0
H351 H 0.53173 0.75012 0.94325 0.0
H352 H 0.60767 0.39191 0.51433 0.0
H353 H 0.4965 0.42998 0.49158 0.0
H354 H 0.58572 0.32897 0.53615 0.0
H355 H 0.52095 0.31486 0.52764 0.0
Gd356 Gd 1.01837 0.4923 0.81867 0.0
Gd357 Gd 0.05391 0.55903 0.61677 0.0
C358 C 0.03759 0.68194 0.69648 0.0
C359 C 0.99626 0.69822 0.53492 0.0
C360 C 1.01841 0.6356 0.54674 0.0
C361 C 0.03712 0.64508 0.65231 0.0
C362 C 0.99906 0.66245 0.48409 0.0
C363 C 1.01571 0.70803 0.6407 0.0
C364 C 0.06177 0.69195 0.79012 0.0
C365 C 0.08574 0.66584 0.83375 0.0
N366 N 0.05831 0.61926 0.70307 0.0
C367 C 0.08388 0.62956 0.78827 0.0
H368 H 0.10259 0.60983 0.82355 0.0
C369 C 1.01207 0.59293 0.38109 0.0
N370 N 0.02236 0.601 0.49847 0.0
C371 C 0.99353 0.61895 0.31456 0.0
C372 C 0.98549 0.65326 0.36812 0.0
H373 H 1.01815 0.56644 0.3387 0.0
H374 H 1.0151 0.73625 0.6749 0.0
H375 H 0.96335 0.44856 0.61104 0.0
H376 H 0.06312 0.71998 0.82602 0.0
H377 H 0.10539 0.67352 0.90346 0.0
H378 H 0.98085 0.719 0.48949 0.0
H379 H 0.06134 0.47577 0.08113 0.0
H380 H 0.99655 0.33689 0.57035 0.0
H381 H 0.95629 0.38777 0.51348 0.0
H382 H 0.08553 0.32505 0.88452 0.0
H383 H 0.98628 0.61291 0.22074 0.0
H384 H 0.97103 0.67323 0.31588 0.0
H385 H 0.04561 0.31395 0.70715 0.0
H386 H 0.09936 0.42731 0.16766 0.0
N387 N 1.00858 0.43386 0.72131 0.0
C388 C 0.9999 0.36378 0.61412 0.0
C389 C 0.97712 0.39241 0.58199 0.0
C390 C 0.02573 0.3699 0.70596 0.0
C391 C 0.02897 0.40551 0.75985 0.0
C392 C 0.98146 0.42722 0.63792 0.0
N393 N 0.0496 0.44492 0.91759 0.0
C394 C 0.05074 0.41146 0.86036 0.0
C395 C 0.08608 0.4225 0.08062 0.0
C396 C 0.08974 0.38874 0.01782 0.0
C397 C 0.06471 0.44991 0.03108 0.0
C398 C 0.07079 0.38238 0.90871 0.0
H399 H 0.1059 0.36732 0.05685 0.0
O400 O 0.99286 0.47841 0.98965 0.0
O401 O 0.02693 0.5528 0.79875 0.0
O402 O 0.09921 0.54674 0.75544 0.0
O403 O 0.07988 0.49554 0.85724 0.0
O404 O 0.03302 0.53395 0.97104 0.0
O405 O 0.95949 0.49513 0.84004 0.0
O406 O 0.0881 0.54222 0.46098 0.0
O407 O 0.04859 0.4979 0.64291 0.0
O408 O 0.97388 0.50846 0.67901 0.0
O409 O 0.9916 0.56422 0.60163 0.0
O410 O 0.03584 0.51596 0.47268 0.0
O411 O 0.10247 0.58986 0.57193 0.0
C412 C 0.03388 0.56325 0.90936 0.0
C413 C 0.06995 0.34759 0.84972 0.0
C414 C 0.04726 0.34129 0.74876 0.0
C415 C 0.9612 0.49066 0.95688 0.0
C416 C 0.94579 0.52015 0.03603 0.0
C417 C 0.95145 0.51937 0.16203 0.0
C418 C 0.92832 0.55064 0.98664 0.0
C419 C 0.91645 0.58008 0.06294 0.0
C420 C 0.94072 0.54878 0.23735 0.0
C421 C 0.92334 0.5788 0.18899 0.0
C422 C 0.10522 0.52027 0.83274 0.0
C423 C 0.03889 0.48685 0.53544 0.0
C424 C 0.11329 0.56613 0.4886 0.0
C425 C 0.15097 0.55277 0.50221 0.0
C426 C 0.17913 0.57853 0.51719 0.0
C427 C 0.1591 0.51507 0.50486 0.0
C428 C 0.19545 0.50305 0.51845 0.0
C429 C 0.21491 0.56705 0.53426 0.0
C430 C 0.22315 0.5298 0.53395 0.0
C431 C 0.96629 0.53878 0.61956 0.0
H432 H 0.9651 0.49643 0.20193 0.0
H433 H 0.92347 0.55137 0.8894 0.0
H434 H 0.94629 0.54848 0.33353 0.0
H435 H 0.91498 0.60073 0.2518 0.0
H436 H 0.17337 0.60763 0.5163 0.0
H437 H 0.13721 0.49526 0.49532 0.0
H438 H 0.23653 0.58712 0.5452 0.0
H439 H 0.25165 0.52233 0.54069 0.0
C440 C 0.13099 0.03302 0.22551 0.0
C441 C 0.16761 0.04 0.25985 0.0
H442 H 0.07466 0.02914 0.27786 0.0
C443 C 0.17327 0.05095 0.38321 0.0
H444 H 0.12507 0.02325 0.13332 0.0
C445 C 0.14362 0.05429 0.46789 0.0
C446 C 0.10706 0.04623 0.43376 0.0
H447 H 0.20078 0.05581 0.4156 0.0
H448 H 0.14959 0.06249 0.56138 0.0
C449 C 0.10157 0.03631 0.3097 0.0
C450 C 0.55749 0.18218 0.46335 0.0
C451 C 0.53007 0.19031 0.37878 0.0
H452 H 0.5775 0.14653 0.59854 0.0
C453 C 0.50078 0.16518 0.36634 0.0
H454 H 0.58005 0.201 0.47826 0.0
C455 C 0.49936 0.13312 0.4364 0.0
C456 C 0.52657 0.12585 0.52351 0.0
H457 H 0.4786 0.17069 0.30476 0.0
H458 H 0.47626 0.11476 0.42554 0.0
C459 C 0.55582 0.15084 0.53381 0.0
C460 C 0.39303 0.49901 0.48965 0.0
C461 C 0.38289 0.52364 0.39868 0.0
H462 H 0.43433 0.48159 0.61609 0.0
C463 C 0.40971 0.54876 0.3626 0.0
H464 H 0.3733 0.47932 0.52105 0.0
C465 C 0.44452 0.55023 0.41806 0.0
C466 C 0.45395 0.52723 0.51401 0.0
H467 H 0.40331 0.56824 0.29382 0.0
H468 H 0.464 0.57033 0.38765 0.0
C469 C 0.42794 0.50069 0.54614 0.0
C470 C 0.07474 0.38913 0.44359 0.0
C471 C 0.05334 0.37822 0.3409 0.0
H472 H 0.08744 0.4302 0.5844 0.0
C473 C 0.0271 0.40383 0.30382 0.0
H474 H 0.09542 0.37064 0.4757 0.0
C475 C 0.02272 0.43854 0.36682 0.0
C476 C 0.04353 0.44887 0.47166 0.0
H477 H 1.0101 0.39727 0.2256 0.0
H478 H 1.00243 0.45731 0.33418 0.0
C479 C 0.07005 0.42348 0.50722 0.0
C480 C 0.89379 1.00488 0.13141 0.0
C481 C 0.87876 0.03818 0.17864 0.0
H482 H 0.93152 0.97788 1.00531 0.0
C483 C 0.89127 0.07062 0.12518 0.0
H484 H 0.88539 0.97928 0.16966 0.0
C485 C 0.91843 0.06984 0.03178 0.0
C486 C 0.93467 0.03664 0.98903 0.0
H487 H 0.88093 0.09692 0.15877 0.0
H488 H 0.92749 0.09547 0.99523 0.0
C489 C 0.92096 1.00415 0.03825 0.0
C490 C 0.55144 0.91209 0.19597 0.0
C491 C 0.53461 0.87952 0.15064 0.0
H492 H 0.56713 0.96786 0.16187 0.0
C493 C 0.52029 0.87996 0.03166 0.0
H494 H 0.56203 0.91347 0.28799 0.0
C495 C 0.52223 0.91132 0.96105 0.0
C496 C 0.53857 0.94416 1.00554 0.0
H497 H 0.5063 0.85604 0.99372 0.0
H498 H 0.51002 0.90981 0.87135 0.0
C499 C 0.55392 0.94363 0.12378 0.0
C500 C 0.65442 0.50861 0.12082 0.0
C501 C 0.68249 0.53267 0.08702 0.0
H502 H 0.59945 0.48937 0.09243 0.0
C503 C 0.67384 0.55812 0.99691 0.0
H504 H 0.6596 0.48861 0.18909 0.0
C505 C 0.63909 0.55815 0.93887 0.0
C506 C 0.61183 0.53254 0.96855 0.0
H507 H 0.69457 0.57703 0.96731 0.0
H508 H 0.63381 0.5778 0.86959 0.0
C509 C 0.61988 0.50878 0.06372 0.0
C510 C 1.01201 0.66428 0.0201 0.0
C511 C 0.03833 0.67111 0.11293 0.0
H512 H 0.98993 0.62632 0.88195 0.0
C513 C 0.06156 0.64147 0.13842 0.0
H514 H 0.99379 0.68612 0.99549 0.0
C515 C 0.05955 0.60734 0.0724 0.0
C516 C 0.03496 0.60116 0.97469 0.0
H517 H 0.08235 0.64503 0.20768 0.0
H518 H 0.0783 0.5858 0.09597 0.0
C519 C 1.01026 0.63 0.95263 0.0
C520 C 0.95284 0.25074 0.43493 0.0
C521 C 0.94549 0.24619 0.30965 0.0
H522 H 0.94116 0.23188 0.61339 0.0
C523 C 0.91405 0.22695 0.27197 0.0
H524 H 0.97685 0.26557 0.46644 0.0
C525 C 0.89362 0.20783 0.35618 0.0
C526 C 0.90439 0.20798 0.4787 0.0
H527 H 0.90742 0.22373 0.17602 0.0
H528 H 0.87217 0.18958 0.32342 0.0
C529 C 0.93226 0.23171 0.5193 0.0
C530 C 0.33274 1.00401 0.50377 0.0
C531 C 0.31902 0.9865 0.39808 0.0
H532 H 0.36576 0.99784 0.66184 0.0
C533 C 0.31933 0.94817 0.38563 0.0
H534 H 0.33236 0.03364 0.51448 0.0
C535 C 0.33795 0.92773 0.46996 0.0
C536 C 0.35686 0.94577 0.56532 0.0
H537 H 0.30842 0.93442 0.30446 0.0
H538 H 0.34198 0.89869 0.45033 0.0
C539 C 0.35132 0.98354 0.58843 0.0
C540 C 0.42717 0.30814 0.43629 0.0
C541 C 0.42177 0.32298 0.321 0.0
H542 H 0.4616 0.31272 0.59356 0.0
C543 C 0.4188 0.36154 0.32558 0.0
H544 H 0.42171 0.27952 0.45112 0.0
C545 C 0.44344 0.38103 0.40074 0.0
C546 C 0.46391 0.36171 0.48617 0.0
H547 H 0.40648 0.37562 0.25101 0.0
H548 H 0.44957 0.40906 0.37957 0.0
C549 C 0.4504 0.32709 0.51769 0.0
C550 C 0.20719 0.41733 0.3322 0.0
C551 C 0.24553 0.42137 0.33193 0.0
H552 H 0.159 0.44728 0.38327 0.0
C553 C 0.26014 0.42786 0.4494 0.0
H554 H 0.19355 0.40411 0.25507 0.0
C555 C 0.24067 0.45133 0.53021 0.0
C556 C 0.20584 0.46377 0.49561 0.0
H557 H 0.28883 0.42332 0.4669 0.0
H558 H 0.25473 0.46365 0.60806 0.0
C559 C 0.18709 0.442 0.4071 0.0
C560 C 0.98739 0.78742 0.95355 0.0
C561 C 0.96569 0.80704 0.0409 0.0
H562 H 0.02783 0.79275 0.81583 0.0
C563 C 0.95129 0.84082 1.00766 0.0
H564 H 0.99688 0.7599 0.9684 0.0
C565 C 0.96796 0.85925 0.9129 0.0
C566 C 0.99963 0.84413 0.85671 0.0
H567 H 0.93204 0.85548 0.06686 0.0
H568 H 0.96037 0.88753 0.89997 0.0
C569 C 1.00536 0.80636 0.86345 0.0
C570 C 0.74566 0.13519 0.10292 0.0
C571 C 0.74432 0.14191 0.23022 0.0
H572 H 0.71858 0.1425 0.93346 0.0
C573 C 0.72265 0.17116 0.27681 0.0
H574 H 0.76218 0.11328 0.06253 0.0
C575 C 0.69675 0.18709 0.20238 0.0
C576 C 0.69382 0.1752 0.07996 0.0
H577 H 0.72211 0.17814 0.37365 0.0
H578 H 0.67637 0.20531 0.24348 0.0
C579 C 0.72052 0.15192 0.02812 0.0
C580 C 0.6419 0.70976 0.12756 0.0
C581 C 0.63594 0.74786 0.13984 0.0
H582 H 0.61434 0.66059 0.07202 0.0
C583 C 0.62623 0.76405 0.03002 0.0
H584 H 0.65703 0.6957 0.19631 0.0
C585 C 0.60311 0.74428 0.95056 0.0
C586 C 0.59327 0.70816 0.97862 0.0
H587 H 0.62866 0.79329 0.01952 0.0
H588 H 0.58934 0.7587 0.87964 0.0
C589 C 0.61733 0.68939 0.05494 0.0
C590 C 0.85211 0.65341 0.12134 0.0
C591 C 0.82259 0.6294 0.09906 0.0
H592 H 0.91064 0.65462 0.12584 0.0
C593 C 0.82502 0.60692 0.99224 0.0
H594 H 0.85019 0.67422 0.19415 0.0
C595 C 0.85962 0.59473 0.95436 0.0
C596 C 0.89044 0.60786 0.01847 0.0
H597 H 0.80163 0.5911 0.9608 0.0
H598 H 0.86116 0.57037 0.89511 0.0
C599 C 0.887 0.64179 0.08318 0.0
C600 C 0.05312 0.18682 0.91226 0.0
C601 C 1.01883 0.20155 0.95009 0.0
H602 H 0.08261 0.14353 0.8115 0.0
C603 C 0.98776 0.18212 0.90416 0.0
H604 H 0.07797 0.20011 0.94349 0.0
C605 C 0.99046 0.14886 0.83387 0.0
C606 C 0.0244 0.13315 0.80123 0.0
H607 H 0.96054 0.19226 0.92516 0.0
H608 H 0.96553 0.13522 0.80491 0.0
C609 C 0.05579 0.15365 0.8378 0.0
C610 C 0.36645 0.05443 0.90781 0.0
C611 C 0.36088 0.02618 0.99095 0.0
H612 H 0.40241 0.07898 0.77563 0.0
C613 C 0.38901 0.99912 0.99201 0.0
H614 H 0.34609 0.07574 0.90069 0.0
C615 C 0.42212 1.00216 0.9256 0.0
C616 C 0.42865 0.03156 0.84944 0.0
H617 H 0.38602 0.97528 0.04675 0.0
H618 H 0.44278 0.98115 0.93387 0.0
C619 C 0.3993 0.0566 0.83685 0.0
C620 C 0.51929 0.35774 0.89574 0.0
C621 C 0.51218 0.35685 0.02215 0.0
H622 H 0.53 0.3913 0.74166 0.0
C623 C 0.51352 0.39059 0.08951 0.0
H624 H 0.51798 0.33267 0.83991 0.0
C625 C 0.51912 0.42403 0.03227 0.0
C626 C 0.5239 0.42537 0.90518 0.0
H627 H 0.50817 0.39132 0.18689 0.0
H628 H 0.5193 0.44904 0.08809 0.0
C629 C 0.5256 0.3915 0.83871 0.0
C630 C 0.174 0.50704 0.0922 0.0
C631 C 0.20873 0.50969 0.03558 0.0
H632 H 0.11564 0.50837 0.0756 0.0
C633 C 0.209 0.51975 0.91236 0.0
H634 H 0.17212 0.49969 0.18685 0.0
C635 C 0.17575 0.52504 0.84786 0.0
C636 C 0.14117 0.51924 0.90265 0.0
H637 H 0.23477 0.5218 0.86403 0.0
H638 H 0.17713 0.53216 0.75349 0.0
C639 C 0.1412 0.51139 0.02731 0.0
C640 C 0.04349 0.88666 0.3771 0.0
C641 C 1.01932 0.86011 0.42311 0.0
H642 H 0.06727 0.94089 0.39604 0.0
C643 C 0.99938 0.87137 0.52932 0.0
H644 H 0.0585 0.88033 0.29357 0.0
C645 C 1.00399 0.90683 0.5875 0.0
C646 C 0.02784 0.93347 0.54058 0.0
H647 H 0.97959 0.85283 0.56703 0.0
H648 H 0.98887 0.9133 0.6705 0.0
C649 C 0.04805 0.92203 0.43528 0.0
C650 C 0.69807 0.03444 0.62987 0.0
C651 C 0.69698 0.05472 0.52252 0.0
H652 H 0.66834 1.01414 0.78529 0.0
C653 C 0.66209 0.06879 0.49171 0.0
H654 H 0.72381 0.02325 0.65932 0.0
C655 C 0.63077 0.06468 0.56574 0.0
C656 C 0.63166 0.04445 0.67197 0.0
H657 H 0.65863 0.08359 0.40889 0.0
H658 H 0.60546 0.07722 0.53826 0.0
C659 C 0.66609 0.02957 0.70331 0.0
C660 C 0.55545 0.67249 0.39454 0.0
C661 C 0.55463 0.70636 0.46182 0.0
H662 H 0.55131 0.61398 0.39439 0.0
C663 C 0.54458 0.70513 0.58605 0.0
H664 H 0.56194 0.67185 0.29794 0.0
C665 C 0.5381 0.67103 0.64138 0.0
C666 C 0.54264 0.63718 0.57606 0.0
H667 H 0.54331 0.73023 0.64173 0.0
H668 H 0.53083 0.67105 0.73637 0.0
C669 C 0.54992 0.63885 0.45047 0.0
C670 C 0.87154 0.52257 0.46197 0.0
C671 C 0.8576 0.55857 0.45316 0.0
H672 H 0.9156 0.48781 0.52118 0.0
C673 C 0.87861 0.58678 0.51186 0.0
H674 H 0.8571 0.49982 0.41832 0.0
C675 C 0.9129 0.58014 0.56578 0.0
C676 C 0.92769 0.5446 0.56978 0.0
H677 H 0.86921 0.6149 0.51185 0.0
H678 H 0.92818 0.60325 0.60359 0.0
C679 C 0.9056 0.5157 0.52063 0.0
loop_
_geom_bond_atom_site_label_1
_geom_bond_atom_site_label_2
_geom_bond_distance
_geom_bond_site_symmetry_2
_ccdc_geom_bond_type
H0 C7 0.929 . S
H1 C10 0.930 . S
H2 C12 0.929 . S
H3 C4 0.969 . S
C4 H3 0.969 . S
C4 O5 1.550 . S
C4 H6 0.973 . S
O5 C4 1.550 . S
O5 C11 1.412 . S
H6 C4 0.973 . S
C7 H0 0.929 . S
C7 C8 1.400 . S
C7 C9 1.364 . S
C8 C7 1.400 . S
C8 C12 1.377 . S
C9 C7 1.364 . S
C9 C10 1.374 . S
C10 H1 0.930 . S
C10 C9 1.374 . S
C10 C11 1.383 . S
C11 O5 1.412 . S
C11 C10 1.383 . S
C11 C12 1.394 . S
C12 H2 0.929 . S
C12 C8 1.377 . S
C12 C11 1.394 . S
H13 C20 0.929 . S
H14 C23 0.930 . S
H15 C25 0.929 . S
H16 C17 0.969 . S
C17 H16 0.969 . S
C17 O18 1.550 . S
C17 H19 0.973 . S
O18 C17 1.550 . S
O18 C24 1.412 . S
H19 C17 0.973 . S
C20 H13 0.929 . S
C20 C21 1.400 . S
C20 C22 1.364 . S
C21 C20 1.400 . S
C21 C25 1.377 . S
C22 C20 1.364 . S
C22 C23 1.374 . S
C23 H14 0.930 . S
C23 C22 1.374 . S
C23 C24 1.383 . S
C24 O18 1.412 . S
C24 C23 1.383 . S
C24 C25 1.394 . S
C25 H15 0.929 . S
C25 C21 1.377 . S
C25 C24 1.394 . S
H26 C33 0.929 . S
H27 C36 0.930 . S
H28 C38 0.929 . S
H29 C30 0.951 1_545 S
C30 H29 0.951 1_565 S
C30 O31 1.550 . S
C30 H32 0.973 . S
O31 C30 1.550 . S
O31 C37 1.412 . S
H32 C30 0.973 . S
C33 H26 0.929 . S
C33 C34 1.400 . S
C33 C35 1.364 . S
C34 C33 1.400 . S
C34 C38 1.377 . S
C35 C33 1.364 . S
C35 C36 1.374 . S
C36 H27 0.930 . S
C36 C35 1.374 . S
C36 C37 1.383 . S
C37 O31 1.412 . S
C37 C36 1.383 . S
C37 C38 1.394 . S
C38 H28 0.929 . S
C38 C34 1.377 . S
C38 C37 1.394 . S
H39 C46 0.929 . S
H40 C49 0.930 . S
H41 C51 0.929 . S
H42 C43 0.969 . S
C43 H42 0.969 . S
C43 O44 1.550 . S
C43 H45 0.973 . S
O44 C43 1.550 . S
O44 C50 1.412 . S
H45 C43 0.973 . S
C46 H39 0.929 . S
C46 C47 1.400 . S
C46 C48 1.364 . S
C47 C46 1.400 . S
C47 C51 1.377 . S
C48 C46 1.364 . S
C48 C49 1.374 . S
C49 H40 0.930 . S
C49 C48 1.374 . S
C49 C50 1.383 . S
C50 O44 1.412 . S
C50 C49 1.383 . S
C50 C51 1.394 . S
C51 H41 0.929 . S
C51 C47 1.377 . S
C51 C50 1.394 . S
H52 C59 0.929 . S
H53 C62 0.930 . S
H54 C64 0.929 . S
H55 C56 0.969 . S
C56 H55 0.969 . S
C56 O57 1.550 . S
C56 H58 0.973 . S
O57 C56 1.550 . S
O57 C63 1.412 . S
H58 C56 0.973 . S
C59 H52 0.929 . S
C59 C60 1.400 . S
C59 C61 1.364 1_556 S
C60 C59 1.400 . S
C60 C64 1.377 . S
C61 C59 1.364 1_554 S
C61 C62 1.374 . S
C62 H53 0.930 . S
C62 C61 1.374 . S
C62 C63 1.383 . S
C63 O57 1.412 . S
C63 C62 1.383 . S
C63 C64 1.394 1_554 S
C64 H54 0.929 . S
C64 C60 1.377 . S
C64 C63 1.394 1_556 S
H65 C72 0.929 . S
H66 C75 0.930 . S
H67 C77 0.929 . S
H68 C69 0.969 . S
C69 H68 0.969 . S
C69 O70 1.550 . S
C69 H71 0.973 . S
O70 C69 1.550 . S
O70 C76 1.412 . S
H71 C69 0.973 . S
C72 H65 0.929 . S
C72 C73 1.400 . S
C72 C74 1.364 1_556 S
C73 C72 1.400 . S
C73 C77 1.377 . S
C74 C72 1.364 1_554 S
C74 C75 1.374 . S
C75 H66 0.930 . S
C75 C74 1.374 . S
C75 C76 1.383 . S
C76 O70 1.412 . S
C76 C75 1.383 . S
C76 C77 1.394 1_554 S
C77 H67 0.929 . S
C77 C73 1.377 . S
C77 C76 1.394 1_556 S
H78 C85 0.929 . S
H79 C88 0.930 . S
H80 C90 0.929 . S
H81 C82 0.969 . S
C82 H81 0.969 . S
C82 O83 1.550 . S
C82 H84 0.973 . S
O83 C82 1.550 . S
O83 C89 1.412 . S
H84 C82 0.973 . S
C85 H78 0.929 . S
C85 C86 1.400 . S
C85 C87 1.364 1_556 S
C86 C85 1.400 . S
C86 C90 1.377 . S
C87 C85 1.364 1_554 S
C87 C88 1.374 . S
C88 H79 0.930 . S
C88 C87 1.374 . S
C88 C89 1.383 . S
C89 O83 1.412 . S
C89 C88 1.383 . S
C89 C90 1.394 1_554 S
C90 H80 0.929 . S
C90 C86 1.377 . S
C90 C89 1.394 1_556 S
H91 C98 0.929 . S
H92 C101 0.930 . S
H93 C103 0.929 . S
H94 C95 0.969 . S
C95 H94 0.969 . S
C95 O96 1.550 . S
C95 H97 0.973 . S
O96 C95 1.550 . S
O96 C102 1.412 . S
H97 C95 0.973 . S
C98 H91 0.929 . S
C98 C99 1.400 . S
C98 C100 1.364 1_556 S
C99 C98 1.400 . S
C99 C103 1.377 . S
C100 C98 1.364 1_554 S
C100 C101 1.374 . S
C101 H92 0.930 . S
C101 C100 1.374 . S
C101 C102 1.383 . S
C102 O96 1.412 . S
C102 C101 1.383 . S
C102 C103 1.394 1_554 S
C103 H93 0.929 . S
C103 C99 1.377 . S
C103 C102 1.394 1_556 S
Gd104 N135 2.661 1_545 S
Gd104 N141 2.601 . S
Gd104 O148 2.545 . S
Gd104 O149 2.606 1_655 S
Gd104 O151 2.429 . S
Gd104 O152 2.545 1_655 S
Gd104 O153 2.412 . S
Gd104 O155 2.362 1_545 S
Gd104 O156 2.324 1_655 S
Gd104 C163 2.828 . S
Gd105 N114 2.661 1_566 S
Gd105 N118 2.601 1_565 S
Gd105 O149 2.362 1_565 S
Gd105 O150 2.324 1_455 S
Gd105 O154 2.545 . S
Gd105 O155 2.606 1_455 S
Gd105 O157 2.429 . S
Gd105 O158 2.545 . S
Gd105 O159 2.412 1_556 S
Gd105 C172 2.828 . S
C106 C109 1.417 . S
C106 C111 1.431 . S
C106 C112 1.412 . S
C107 C110 1.437 . S
C107 C111 1.317 . S
C107 H126 0.929 . S
C108 C109 1.426 . S
C108 C110 1.413 . S
C108 N118 1.359 1_554 S
C109 C106 1.417 . S
C109 C108 1.426 . S
C109 N114 1.350 . S
C110 C107 1.437 . S
C110 C108 1.413 . S
C110 C120 1.391 . S
C111 C106 1.431 . S
C111 C107 1.317 . S
C111 H122 0.930 . S
C112 C106 1.412 . S
C112 C113 1.355 . S
C112 H124 0.930 . S
C113 C112 1.355 . S
C113 C115 1.402 . S
C113 H125 0.930 1_455 S
N114 Gd105 2.661 1_544 S
N114 C109 1.350 . S
N114 C115 1.307 . S
C115 C113 1.402 . S
C115 N114 1.307 . S
C115 H116 0.930 1_455 S
H116 C115 0.930 1_655 S
C117 N118 1.334 1_565 S
C117 C119 1.394 . S
C117 H121 0.930 . S
N118 Gd105 2.601 1_545 S
N118 C108 1.359 1_556 S
N118 C117 1.334 1_545 S
C119 C117 1.394 . S
C119 C120 1.359 1_566 S
C119 H131 0.930 . S
C120 C110 1.391 . S
C120 C119 1.359 1_544 S
C120 H132 0.929 . S
H121 C117 0.930 . S
H122 C111 0.930 . S
H123 C140 0.930 . S
H124 C112 0.930 . S
H125 C113 0.930 1_655 S
H126 C107 0.929 . S
H127 C145 0.930 . S
H128 C136 0.930 . S
H129 C137 0.930 . S
H130 C161 0.929 . S
H131 C119 0.930 . S
H132 C120 0.929 . S
H133 C162 0.930 . S
H134 C143 0.930 . S
N135 Gd104 2.661 1_565 S
N135 C139 1.350 . S
N135 C140 1.307 1_655 S
C136 H128 0.930 . S
C136 C137 1.355 1_655 S
C136 C138 1.412 . S
C137 H129 0.930 . S
C137 C136 1.355 1_455 S
C137 C140 1.402 . S
C138 C136 1.412 . S
C138 C139 1.417 . S
C138 C162 1.431 . S
C139 N135 1.350 . S
C139 C138 1.417 . S
C139 C142 1.426 . S
C140 H123 0.930 . S
C140 N135 1.307 1_455 S
C140 C137 1.402 . S
N141 Gd104 2.601 . S
N141 C142 1.359 1_545 S
N141 C145 1.334 . S
C142 C139 1.426 . S
C142 N141 1.359 1_565 S
C142 C146 1.413 . S
C143 H134 0.930 . S
C143 C144 1.359 . S
C143 C145 1.394 . S
C144 C143 1.359 . S
C144 C146 1.391 1_545 S
C144 H147 0.929 . S
C145 H127 0.930 . S
C145 N141 1.334 . S
C145 C143 1.394 . S
C146 C142 1.413 . S
C146 C144 1.391 1_565 S
C146 C161 1.437 . S
H147 C144 0.929 . S
O148 Gd104 2.545 . S
O148 C163 1.258 . S
O149 Gd104 2.606 1_455 S
O149 Gd105 2.362 1_545 S
O149 C160 1.284 . S
O150 Gd105 2.324 1_655 S
O150 C170 1.254 1_565 S
O151 Gd104 2.429 . S
O151 C170 1.268 . S
O152 Gd104 2.545 1_455 S
O152 C160 1.250 . S
O153 Gd104 2.412 . S
O153 C163 1.252 . S
O154 Gd105 2.545 . S
O154 C172 1.258 . S
O155 Gd104 2.362 1_565 S
O155 Gd105 2.606 1_655 S
O155 C171 1.284 . S
O156 Gd104 2.324 1_455 S
O156 C179 1.254 . S
O157 Gd105 2.429 . S
O157 C179 1.268 1_565 S
O158 Gd105 2.545 . S
O158 C171 1.250 1_455 S
O159 Gd105 2.412 1_554 S
O159 C172 1.252 1_554 S
C160 O149 1.284 . S
C160 O152 1.250 . S
C161 H130 0.929 . S
C161 C146 1.437 . S
C161 C162 1.317 . S
C162 H133 0.930 . S
C162 C138 1.431 . S
C162 C161 1.317 . S
C163 Gd104 2.828 . S
C163 O148 1.258 . S
C163 O153 1.252 . S
C163 C164 1.497 . S
C164 C163 1.497 . S
C164 C165 1.395 . S
C164 C166 1.380 . S
C165 C164 1.395 . S
C165 C168 1.398 . S
C165 H180 0.930 . S
C166 C164 1.380 . S
C166 C167 1.391 . S
C166 H181 0.930 1_655 S
C167 C166 1.391 . S
C167 C169 1.387 . S
C168 C165 1.398 . S
C168 C169 1.380 . S
C168 H182 0.930 . S
C169 C167 1.387 . S
C169 C168 1.380 . S
C169 H183 0.930 . S
C170 O150 1.254 1_545 S
C170 O151 1.268 . S
C171 O155 1.284 . S
C171 O158 1.250 1_655 S
C172 Gd105 2.828 . S
C172 O154 1.258 . S
C172 O159 1.252 1_556 S
C172 C173 1.497 1_556 S
C173 C172 1.497 1_554 S
C173 C174 1.395 . S
C173 C175 1.380 . S
C174 C173 1.395 . S
C174 C177 1.398 . S
C174 H184 0.930 . S
C175 C173 1.380 . S
C175 C176 1.391 . S
C175 H185 0.930 . S
C176 C175 1.391 . S
C176 C178 1.387 . S
C177 C174 1.398 . S
C177 C178 1.380 . S
C177 H186 0.930 . S
C178 C176 1.387 . S
C178 C177 1.380 . S
C178 H187 0.930 . S
C179 O156 1.254 . S
C179 O157 1.268 1_545 S
H180 C165 0.930 . S
H181 C166 0.930 1_455 S
H182 C168 0.930 . S
H183 C169 0.930 . S
H184 C174 0.930 . S
H185 C175 0.930 . S
H186 C177 0.930 . S
H187 C178 0.930 . S
Gd188 N219 2.661 . S
Gd188 N225 2.601 . S
Gd188 O232 2.545 . S
Gd188 O233 2.606 1_565 S
Gd188 O235 2.429 . S
Gd188 O236 2.545 1_565 S
Gd188 O237 2.412 . S
Gd188 O239 2.362 . S
Gd188 O240 2.324 1_565 S
Gd188 C247 2.828 . S
Gd189 N198 2.661 1_556 S
Gd189 N202 2.601 . S
Gd189 O233 2.362 . S
Gd189 O234 2.324 1_545 S
Gd189 O238 2.545 . S
Gd189 O239 2.606 1_545 S
Gd189 O241 2.429 . S
Gd189 O242 2.545 . S
Gd189 O243 2.412 1_556 S
Gd189 C256 2.828 . S
C190 C193 1.417 . S
C190 C195 1.431 . S
C190 C196 1.412 . S
C191 C194 1.437 . S
C191 C195 1.317 . S
C191 H210 0.929 . S
C192 C193 1.426 . S
C192 C194 1.413 . S
C192 N202 1.359 1_554 S
C193 C190 1.417 . S
C193 C192 1.426 . S
C193 N198 1.350 . S
C194 C191 1.437 . S
C194 C192 1.413 . S
C194 C204 1.391 . S
C195 C190 1.431 . S
C195 C191 1.317 . S
C195 H206 0.930 . S
C196 C190 1.412 . S
C196 C197 1.355 . S
C196 H208 0.930 . S
C197 C196 1.355 . S
C197 C199 1.402 . S
C197 H209 0.930 1_545 S
N198 Gd189 2.661 1_554 S
N198 C193 1.350 . S
N198 C199 1.307 . S
C199 C197 1.402 . S
C199 N198 1.307 . S
C199 H200 0.930 1_545 S
H200 C199 0.930 1_565 S
C201 N202 1.334 . S
C201 C203 1.394 . S
C201 H205 0.930 . S
N202 Gd189 2.601 . S
N202 C192 1.359 1_556 S
N202 C201 1.334 . S
C203 C201 1.394 . S
C203 C204 1.359 1_556 S
C203 H215 0.930 . S
C204 C194 1.391 . S
C204 C203 1.359 1_554 S
C204 H216 0.929 . S
H205 C201 0.930 . S
H206 C195 0.930 . S
H207 C224 0.930 . S
H208 C196 0.930 . S
H209 C197 0.930 1_565 S
H210 C191 0.929 . S
H211 C229 0.930 . S
H212 C220 0.930 . S
H213 C221 0.930 . S
H214 C245 0.929 . S
H215 C203 0.930 . S
H216 C204 0.929 . S
H217 C246 0.930 . S
H218 C227 0.930 . S
N219 Gd188 2.661 . S
N219 C223 1.350 . S
N219 C224 1.307 1_565 S
C220 H212 0.930 . S
C220 C221 1.355 1_565 S
C220 C222 1.412 . S
C221 H213 0.930 . S
C221 C220 1.355 1_545 S
C221 C224 1.402 . S
C222 C220 1.412 . S
C222 C223 1.417 . S
C222 C246 1.431 . S
C223 N219 1.350 . S
C223 C222 1.417 . S
C223 C226 1.426 . S
C224 H207 0.930 . S
C224 N219 1.307 1_545 S
C224 C221 1.402 . S
N225 Gd188 2.601 . S
N225 C226 1.359 . S
N225 C229 1.334 . S
C226 C223 1.426 . S
C226 N225 1.359 . S
C226 C230 1.413 . S
C227 H218 0.930 . S
C227 C228 1.359 . S
C227 C229 1.394 . S
C228 C227 1.359 . S
C228 C230 1.391 . S
C228 H231 0.929 . S
C229 H211 0.930 . S
C229 N225 1.334 . S
C229 C227 1.394 . S
C230 C226 1.413 . S
C230 C228 1.391 . S
C230 C245 1.437 . S
H231 C228 0.929 . S
O232 Gd188 2.545 . S
O232 C247 1.258 . S
O233 Gd188 2.606 1_545 S
O233 Gd189 2.362 . S
O233 C244 1.284 . S
O234 Gd189 2.324 1_565 S
O234 C254 1.254 . S
O235 Gd188 2.429 . S
O235 C254 1.268 . S
O236 Gd188 2.545 1_545 S
O236 C244 1.250 . S
O237 Gd188 2.412 . S
O237 C247 1.252 . S
O238 Gd189 2.545 . S
O238 C256 1.258 . S
O239 Gd188 2.362 . S
O239 Gd189 2.606 1_565 S
O239 C255 1.284 . S
O240 Gd188 2.324 1_545 S
O240 C263 1.254 . S
O241 Gd189 2.429 . S
O241 C263 1.268 . S
O242 Gd189 2.545 . S
O242 C255 1.250 1_545 S
O243 Gd189 2.412 1_554 S
O243 C256 1.252 1_554 S
C244 O233 1.284 . S
C244 O236 1.250 . S
C245 H214 0.929 . S
C245 C230 1.437 . S
C245 C246 1.317 . S
C246 H217 0.930 . S
C246 C222 1.431 . S
C246 C245 1.317 . S
C247 Gd188 2.828 . S
C247 O232 1.258 . S
C247 O237 1.252 . S
C247 C248 1.497 . S
C248 C247 1.497 . S
C248 C249 1.395 . S
C248 C250 1.380 . S
C249 C248 1.395 . S
C249 C252 1.398 . S
C249 H264 0.930 . S
C250 C248 1.380 . S
C250 C251 1.391 . S
C250 H265 0.930 1_565 S
C251 C250 1.391 . S
C251 C253 1.387 . S
C252 C249 1.398 . S
C252 C253 1.380 . S
C252 H266 0.930 . S
C253 C251 1.387 . S
C253 C252 1.380 . S
C253 H267 0.930 . S
C254 O234 1.254 . S
C254 O235 1.268 . S
C255 O239 1.284 . S
C255 O242 1.250 1_565 S
C256 Gd189 2.828 . S
C256 O238 1.258 . S
C256 O243 1.252 1_556 S
C256 C257 1.497 1_556 S
C257 C256 1.497 1_554 S
C257 C258 1.395 . S
C257 C259 1.380 . S
C258 C257 1.395 . S
C258 C261 1.398 . S
C258 H268 0.930 . S
C259 C257 1.380 . S
C259 C260 1.391 . S
C259 H269 0.930 . S
C260 C259 1.391 . S
C260 C262 1.387 . S
C261 C258 1.398 . S
C261 C262 1.380 . S
C261 H270 0.930 . S
C262 C260 1.387 . S
C262 C261 1.380 . S
C262 H271 0.930 . S
C263 O240 1.254 . S
C263 O241 1.268 . S
H264 C249 0.930 . S
H265 C250 0.930 1_545 S
H266 C252 0.930 . S
H267 C253 0.930 . S
H268 C258 0.930 . S
H269 C259 0.930 . S
H270 C261 0.930 . S
H271 C262 0.930 . S
Gd272 N303 2.661 . S
Gd272 N309 2.601 . S
Gd272 O316 2.545 1_556 S
Gd272 O317 2.606 . S
Gd272 O319 2.429 . S
Gd272 O320 2.545 . S
Gd272 O321 2.412 . S
Gd272 O323 2.362 . S
Gd272 O324 2.324 . S
Gd272 C331 2.828 1_556 S
Gd273 N282 2.661 . S
Gd273 N286 2.601 . S
Gd273 O317 2.362 . S
Gd273 O318 2.324 . S
Gd273 O322 2.545 . S
Gd273 O323 2.606 . S
Gd273 O325 2.429 . S
Gd273 O326 2.545 . S
Gd273 O327 2.412 . S
Gd273 C340 2.828 . S
C274 C277 1.417 . S
C274 C279 1.431 . S
C274 C280 1.412 . S
C275 C278 1.437 . S
C275 C279 1.317 . S
C275 H294 0.929 . S
C276 C277 1.426 . S
C276 C278 1.413 . S
C276 N286 1.359 . S
C277 C274 1.417 . S
C277 C276 1.426 . S
C277 N282 1.350 . S
C278 C275 1.437 . S
C278 C276 1.413 . S
C278 C288 1.391 . S
C279 C274 1.431 . S
C279 C275 1.317 . S
C279 H290 0.930 . S
C280 C274 1.412 . S
C280 C281 1.355 . S
C280 H292 0.930 . S
C281 C280 1.355 . S
C281 C283 1.402 . S
C281 H293 0.930 . S
N282 Gd273 2.661 . S
N282 C277 1.350 . S
N282 C283 1.307 . S
C283 C281 1.402 . S
C283 N282 1.307 . S
C283 H284 0.930 . S
H284 C283 0.930 . S
C285 N286 1.334 . S
C285 C287 1.394 . S
C285 H289 0.930 . S
N286 Gd273 2.601 . S
N286 C276 1.359 . S
N286 C285 1.334 . S
C287 C285 1.394 . S
C287 C288 1.359 . S
C287 H299 0.930 . S
C288 C278 1.391 . S
C288 C287 1.359 . S
C288 H300 0.929 . S
H289 C285 0.930 . S
H290 C279 0.930 . S
H291 C308 0.930 . S
H292 C280 0.930 . S
H293 C281 0.930 . S
H294 C275 0.929 . S
H295 C313 0.930 . S
H296 C304 0.930 . S
H297 C305 0.930 . S
H298 C329 0.929 . S
H299 C287 0.930 . S
H300 C288 0.929 . S
H301 C330 0.930 . S
H302 C311 0.930 . S
N303 Gd272 2.661 . S
N303 C307 1.350 . S
N303 C308 1.307 . S
C304 H296 0.930 . S
C304 C305 1.355 . S
C304 C306 1.412 . S
C305 H297 0.930 . S
C305 C304 1.355 . S
C305 C308 1.402 . S
C306 C304 1.412 . S
C306 C307 1.417 . S
C306 C330 1.431 . S
C307 N303 1.350 . S
C307 C306 1.417 . S
C307 C310 1.426 . S
C308 H291 0.930 . S
C308 N303 1.307 . S
C308 C305 1.402 . S
N309 Gd272 2.601 . S
N309 C310 1.359 . S
N309 C313 1.334 1_556 S
C310 C307 1.426 . S
C310 N309 1.359 . S
C310 C314 1.413 . S
C311 H302 0.930 . S
C311 C312 1.359 . S
C311 C313 1.394 . S
C312 C311 1.359 . S
C312 C314 1.391 1_554 S
C312 H315 0.929 . S
C313 H295 0.930 . S
C313 N309 1.334 1_554 S
C313 C311 1.394 . S
C314 C310 1.413 . S
C314 C312 1.391 1_556 S
C314 C329 1.437 . S
H315 C312 0.929 . S
O316 Gd272 2.545 1_554 S
O316 C331 1.258 . S
O317 Gd272 2.606 . S
O317 Gd273 2.362 . S
O317 C328 1.284 . S
O318 Gd273 2.324 . S
O318 C338 1.254 . S
O319 Gd272 2.429 . S
O319 C338 1.268 . S
O320 Gd272 2.545 . S
O320 C328 1.250 . S
O321 Gd272 2.412 . S
O321 C331 1.252 1_556 S
O322 Gd273 2.545 . S
O322 C340 1.258 . S
O323 Gd272 2.362 . S
O323 Gd273 2.606 . S
O323 C339 1.284 . S
O324 Gd272 2.324 . S
O324 C347 1.254 . S
O325 Gd273 2.429 . S
O325 C347 1.268 . S
O326 Gd273 2.545 . S
O326 C339 1.250 . S
O327 Gd273 2.412 . S
O327 C340 1.252 . S
C328 O317 1.284 . S
C328 O320 1.250 . S
C329 H298 0.929 . S
C329 C314 1.437 . S
C329 C330 1.317 . S
C330 H301 0.930 . S
C330 C306 1.431 . S
C330 C329 1.317 . S
C331 Gd272 2.828 1_554 S
C331 O316 1.258 . S
C331 O321 1.252 1_554 S
C331 C332 1.497 . S
C332 C331 1.497 . S
C332 C333 1.395 . S
C332 C334 1.380 . S
C333 C332 1.395 . S
C333 C336 1.398 . S
C333 H348 0.930 . S
C334 C332 1.380 . S
C334 C335 1.391 . S
C334 H349 0.930 . S
C335 C334 1.391 . S
C335 C337 1.387 . S
C336 C333 1.398 . S
C336 C337 1.380 . S
C336 H350 0.930 . S
C337 C335 1.387 . S
C337 C336 1.380 . S
C337 H351 0.930 . S
C338 O318 1.254 . S
C338 O319 1.268 . S
C339 O323 1.284 . S
C339 O326 1.250 . S
C340 Gd273 2.828 . S
C340 O322 1.258 . S
C340 O327 1.252 . S
C340 C341 1.497 . S
C341 C340 1.497 . S
C341 C342 1.395 . S
C341 C343 1.380 . S
C342 C341 1.395 . S
C342 C345 1.398 . S
C342 H352 0.930 . S
C343 C341 1.380 . S
C343 C344 1.391 . S
C343 H353 0.930 . S
C344 C343 1.391 . S
C344 C346 1.387 . S
C345 C342 1.398 . S
C345 C346 1.380 . S
C345 H354 0.930 . S
C346 C344 1.387 . S
C346 C345 1.380 . S
C346 H355 0.930 . S
C347 O324 1.254 . S
C347 O325 1.268 . S
H348 C333 0.930 . S
H349 C334 0.930 . S
H350 C336 0.930 . S
H351 C337 0.930 . S
H352 C342 0.930 . S
H353 C343 0.930 . S
H354 C345 0.930 . S
H355 C346 0.930 . S
Gd356 N387 2.661 . S
Gd356 N393 2.608 . S
Gd356 O400 2.545 1_556 S
Gd356 O401 2.606 1_655 S
Gd356 O403 2.429 1_655 S
Gd356 O404 2.545 . S
Gd356 O405 2.412 . S
Gd356 O407 2.362 1_655 S
Gd356 O408 2.324 . S
Gd356 C415 2.828 1_556 S
Gd357 N366 2.661 . S
Gd357 N370 2.601 . S
Gd357 O401 2.362 . S
Gd357 O402 2.324 . S
Gd357 O406 2.545 . S
Gd357 O407 2.606 . S
Gd357 O409 2.429 1_455 S
Gd357 O410 2.545 . S
Gd357 O411 2.412 . S
Gd357 C424 2.828 . S
C358 C361 1.417 . S
C358 C363 1.431 . S
C358 C364 1.412 . S
C359 C362 1.437 . S
C359 C363 1.317 . S
C359 H378 0.929 . S
C360 C361 1.426 . S
C360 C362 1.413 . S
C360 N370 1.359 . S
C361 C358 1.417 . S
C361 C360 1.426 . S
C361 N366 1.350 . S
C362 C359 1.437 . S
C362 C360 1.413 . S
C362 C372 1.391 . S
C363 C358 1.431 . S
C363 C359 1.317 . S
C363 H374 0.930 . S
C364 C358 1.412 . S
C364 C365 1.355 . S
C364 H376 0.930 . S
C365 C364 1.355 . S
C365 C367 1.402 . S
C365 H377 0.930 . S
N366 Gd357 2.661 . S
N366 C361 1.350 . S
N366 C367 1.307 . S
C367 C365 1.402 . S
C367 N366 1.307 . S
C367 H368 0.930 . S
H368 C367 0.930 . S
C369 N370 1.334 1_655 S
C369 C371 1.394 . S
C369 H373 0.930 . S
N370 Gd357 2.601 . S
N370 C360 1.359 . S
N370 C369 1.334 1_455 S
C371 C369 1.394 . S
C371 C372 1.359 1_655 S
C371 H383 0.930 . S
C372 C362 1.391 . S
C372 C371 1.359 1_455 S
C372 H384 0.929 1_455 S
H373 C369 0.930 . S
H374 C363 0.930 . S
H375 C392 0.930 . S
H376 C364 0.930 . S
H377 C365 0.930 . S
H378 C359 0.929 . S
H379 C397 0.930 . S
H380 C388 0.930 . S
H381 C389 0.930 . S
H382 C413 0.929 . S
H383 C371 0.930 . S
H384 C372 0.929 1_655 S
H385 C414 0.930 . S
H386 C395 0.930 . S
N387 Gd356 2.661 . S
N387 C391 1.350 . S
N387 C392 1.307 . S
C388 H380 0.930 . S
C388 C389 1.355 . S
C388 C390 1.412 . S
C389 H381 0.930 . S
C389 C388 1.355 . S
C389 C392 1.402 . S
C390 C388 1.412 . S
C390 C391 1.417 . S
C390 C414 1.431 . S
C391 N387 1.350 . S
C391 C390 1.417 . S
C391 C394 1.426 . S
C392 H375 0.930 . S
C392 N387 1.307 . S
C392 C389 1.402 . S
N393 Gd356 2.608 . S
N393 C394 1.372 . S
N393 C397 1.318 1_656 S
C394 C391 1.426 . S
C394 N393 1.372 . S
C394 C398 1.413 . S
C395 H386 0.930 . S
C395 C396 1.359 . S
C395 C397 1.394 . S
C396 C395 1.359 . S
C396 C398 1.391 1_454 S
C396 H399 0.929 . S
C397 H379 0.930 . S
C397 N393 1.318 1_454 S
C397 C395 1.394 . S
C398 C394 1.413 . S
C398 C396 1.391 1_656 S
C398 C413 1.437 . S
H399 C396 0.929 . S
O400 Gd356 2.545 1_554 S
O400 C415 1.258 . S
O401 Gd356 2.606 1_455 S
O401 Gd357 2.362 . S
O401 C412 1.284 1_455 S
O402 Gd357 2.324 . S
O402 C422 1.254 . S
O403 Gd356 2.429 1_455 S
O403 C422 1.268 . S
O404 Gd356 2.545 . S
O404 C412 1.250 . S
O405 Gd356 2.412 . S
O405 C415 1.252 1_556 S
O406 Gd357 2.545 . S
O406 C424 1.258 . S
O407 Gd356 2.362 1_455 S
O407 Gd357 2.606 . S
O407 C423 1.284 . S
O408 Gd356 2.324 . S
O408 C431 1.254 . S
O409 Gd357 2.429 1_655 S
O409 C431 1.268 . S
O410 Gd357 2.545 . S
O410 C423 1.250 . S
O411 Gd357 2.412 . S
O411 C424 1.252 . S
C412 O401 1.284 1_655 S
C412 O404 1.250 . S
C413 H382 0.929 . S
C413 C398 1.437 . S
C413 C414 1.317 . S
C414 H385 0.930 . S
C414 C390 1.431 . S
C414 C413 1.317 . S
C415 Gd356 2.828 1_554 S
C415 O400 1.258 . S
C415 O405 1.252 1_554 S
C415 C416 1.497 . S
C416 C415 1.497 . S
C416 C417 1.395 . S
C416 C418 1.380 . S
C417 C416 1.395 . S
C417 C420 1.398 . S
C417 H432 0.930 . S
C418 C416 1.380 . S
C418 C419 1.391 . S
C418 H433 0.930 . S
C419 C418 1.391 . S
C419 C421 1.387 . S
C420 C417 1.398 . S
C420 C421 1.380 . S
C420 H434 0.930 . S
C421 C419 1.387 . S
C421 C420 1.380 . S
C421 H435 0.930 . S
C422 O402 1.254 . S
C422 O403 1.268 . S
C423 O407 1.284 . S
C423 O410 1.250 . S
C424 Gd357 2.828 . S
C424 O406 1.258 . S
C424 O411 1.252 . S
C424 C425 1.497 . S
C425 C424 1.497 . S
C425 C426 1.395 . S
C425 C427 1.380 . S
C426 C425 1.395 . S
C426 C429 1.398 . S
C426 H436 0.930 . S
C427 C425 1.380 . S
C427 C428 1.391 . S
C427 H437 0.930 . S
C428 C427 1.391 . S
C428 C430 1.387 . S
C429 C426 1.398 . S
C429 C430 1.380 . S
C429 H438 0.930 . S
C430 C428 1.387 . S
C430 C429 1.380 . S
C430 H439 0.930 . S
C431 O408 1.254 . S
C431 O409 1.268 . S
H432 C417 0.930 . S
H433 C418 0.930 . S
H434 C420 0.930 . S
H435 C421 0.930 . S
H436 C426 0.930 . S
H437 C427 0.930 . S
H438 C429 0.930 . S
H439 C430 0.930 . S
C440 C441 1.387 . S
C440 H444 0.950 . S
C440 C449 1.390 . S
C441 C440 1.387 . S
C441 C443 1.387 . S
H442 C449 0.950 1_565 S
C443 C441 1.387 . S
C443 C445 1.390 . S
C443 H447 0.950 . S
H444 C440 0.950 . S
C445 C443 1.390 . S
C445 C446 1.387 . S
C445 H448 0.950 . S
C446 C445 1.387 . S
C446 C449 1.387 . S
H447 C443 0.950 . S
H448 C445 0.950 . S
C449 C440 1.390 . S
C449 H442 0.950 1_545 S
C449 C446 1.387 . S
C450 C451 1.387 . S
C450 H454 0.950 . S
C450 C459 1.390 . S
C451 C450 1.387 . S
C451 C453 1.387 . S
H452 C459 0.950 . S
C453 C451 1.387 . S
C453 C455 1.390 . S
C453 H457 0.950 . S
H454 C450 0.950 . S
C455 C453 1.390 . S
C455 C456 1.387 . S
C455 H458 0.950 . S
C456 C455 1.387 . S
C456 C459 1.387 . S
H457 C453 0.950 . S
H458 C455 0.950 . S
C459 C450 1.390 . S
C459 H452 0.950 . S
C459 C456 1.387 . S
C460 C461 1.387 . S
C460 H464 0.950 . S
C460 C469 1.390 . S
C461 C460 1.387 . S
C461 C463 1.387 . S
H462 C469 0.950 . S
C463 C461 1.387 . S
C463 C465 1.390 . S
C463 H467 0.950 . S
H464 C460 0.950 . S
C465 C463 1.390 . S
C465 C466 1.387 . S
C465 H468 0.950 . S
C466 C465 1.387 . S
C466 C469 1.387 . S
H467 C463 0.950 . S
H468 C465 0.950 . S
C469 C460 1.390 . S
C469 H462 0.950 . S
C469 C466 1.387 . S
C470 C471 1.387 . S
C470 H474 0.950 . S
C470 C479 1.390 . S
C471 C470 1.387 . S
C471 C473 1.387 . S
H472 C479 0.950 1_655 S
C473 C471 1.387 . S
C473 C475 1.390 . S
C473 H477 0.950 . S
H474 C470 0.950 . S
C475 C473 1.390 . S
C475 C476 1.387 . S
C475 H478 0.950 . S
C476 C475 1.387 . S
C476 C479 1.387 . S
H477 C473 0.950 . S
H478 C475 0.950 . S
C479 C470 1.390 . S
C479 H472 0.950 1_455 S
C479 C476 1.387 . S
C480 C481 1.387 . S
C480 H484 0.950 . S
C480 C489 1.390 . S
C481 C480 1.387 . S
C481 C483 1.387 1_565 S
H482 C489 0.950 1_556 S
C483 C481 1.387 1_545 S
C483 C485 1.390 . S
C483 H487 0.950 . S
H484 C480 0.950 . S
C485 C483 1.390 . S
C485 C486 1.386 1_544 S
C485 H488 0.950 . S
C486 C485 1.386 1_566 S
C486 C489 1.387 1_556 S
H487 C483 0.950 . S
H488 C485 0.950 . S
C489 C480 1.390 . S
C489 H482 0.950 1_554 S
C489 C486 1.387 1_554 S
C490 C491 1.387 . S
C490 H494 0.950 . S
C490 C499 1.390 . S
C491 C490 1.387 . S
C491 C493 1.387 . S
H492 C499 0.950 . S
C493 C491 1.387 . S
C493 C495 1.390 . S
C493 H497 0.950 . S
H494 C490 0.950 . S
C495 C493 1.390 . S
C495 C496 1.387 1_554 S
C495 H498 0.950 1_554 S
C496 C495 1.387 1_556 S
C496 C499 1.387 1_556 S
H497 C493 0.950 . S
H498 C495 0.950 1_556 S
C499 C490 1.390 . S
C499 H492 0.950 . S
C499 C496 1.387 1_554 S
C500 C501 1.387 . S
C500 H504 0.950 . S
C500 C509 1.390 . S
C501 C500 1.387 . S
C501 C503 1.387 . S
H502 C509 0.950 . S
C503 C501 1.387 . S
C503 C505 1.390 . S
C503 H507 0.950 . S
H504 C500 0.950 . S
C505 C503 1.390 . S
C505 C506 1.387 1_554 S
C505 H508 0.950 1_554 S
C506 C505 1.387 1_556 S
C506 C509 1.387 1_556 S
H507 C503 0.950 . S
H508 C505 0.950 1_556 S
C509 C500 1.390 . S
C509 H502 0.950 . S
C509 C506 1.387 1_554 S
C510 C511 1.387 . S
C510 H514 0.950 . S
C510 C519 1.390 . S
C511 C510 1.387 . S
C511 C513 1.387 1_655 S
H512 C519 0.950 . S
C513 C511 1.387 1_455 S
C513 C515 1.390 . S
C513 H517 0.950 . S
H514 C510 0.950 . S
C515 C513 1.390 . S
C515 C516 1.387 1_454 S
C515 H518 0.950 . S
C516 C515 1.387 1_656 S
C516 C519 1.387 1_556 S
H517 C513 0.950 . S
H518 C515 0.950 . S
C519 C510 1.390 . S
C519 H512 0.950 . S
C519 C516 1.387 1_554 S
C520 C521 1.387 . S
C520 H524 0.950 . S
C520 C529 1.390 . S
C521 C520 1.387 . S
C521 C523 1.387 . S
H522 C529 0.950 . S
C523 C521 1.387 . S
C523 C525 1.390 . S
C523 H527 0.950 1_554 S
H524 C520 0.950 . S
C525 C523 1.390 . S
C525 C526 1.383 1_455 S
C525 H528 0.950 1_455 S
C526 C525 1.383 1_655 S
C526 C529 1.380 1_655 S
H527 C523 0.950 1_556 S
H528 C525 0.950 1_655 S
C529 C520 1.390 . S
C529 H522 0.950 . S
C529 C526 1.380 1_455 S
C530 C531 1.387 . S
C530 H534 0.950 . S
C530 C539 1.390 . S
C531 C530 1.387 . S
C531 C533 1.387 . S
H532 C539 0.950 . S
C533 C531 1.387 . S
C533 C535 1.390 . S
C533 H537 0.950 1_554 S
H534 C530 0.950 . S
C535 C533 1.390 . S
C535 C536 1.386 1_545 S
C535 H538 0.950 1_545 S
C536 C535 1.386 1_565 S
C536 C539 1.377 1_565 S
H537 C533 0.950 1_556 S
H538 C535 0.950 1_565 S
C539 C530 1.390 . S
C539 H532 0.950 . S
C539 C536 1.377 1_545 S
C540 C541 1.387 . S
C540 H544 0.950 . S
C540 C549 1.390 . S
C541 C540 1.387 . S
C541 C543 1.387 . S
H542 C549 0.950 . S
C543 C541 1.387 . S
C543 C545 1.390 . S
C543 H547 0.950 1_554 S
H544 C540 0.950 . S
C545 C543 1.390 . S
C545 C546 1.387 . S
C545 H548 0.950 . S
C546 C545 1.387 . S
C546 C549 1.387 . S
H547 C543 0.950 1_556 S
H548 C545 0.950 . S
C549 C540 1.390 . S
C549 H542 0.950 . S
C549 C546 1.387 . S
C550 C551 1.387 . S
C550 H554 0.950 . S
C550 C559 1.390 . S
C551 C550 1.387 . S
C551 C553 1.387 . S
H552 C559 0.950 . S
C553 C551 1.387 . S
C553 C555 1.390 . S
C553 H557 0.952 . S
H554 C550 0.950 . S
C555 C553 1.390 . S
C555 C556 1.387 . S
C555 H558 0.950 . S
C556 C555 1.387 . S
C556 C559 1.387 . S
H557 C553 0.952 . S
H558 C555 0.950 . S
C559 C550 1.390 . S
C559 H552 0.950 . S
C559 C556 1.387 . S
C560 C561 1.387 . S
C560 H564 0.950 . S
C560 C569 1.390 1_655 S
C561 C560 1.387 . S
C561 C563 1.387 . S
H562 C569 0.950 . S
C563 C561 1.387 . S
C563 C565 1.390 . S
C563 H567 0.950 . S
H564 C560 0.950 . S
C565 C563 1.390 . S
C565 C566 1.387 1_655 S
C565 H568 0.950 . S
C566 C565 1.387 1_455 S
C566 C569 1.387 . S
H567 C563 0.950 . S
H568 C565 0.950 . S
C569 C560 1.390 1_455 S
C569 H562 0.950 . S
C569 C566 1.387 . S
C570 C571 1.387 . S
C570 H574 0.950 . S
C570 C579 1.390 . S
C571 C570 1.387 . S
C571 C573 1.387 1_565 S
H572 C579 0.950 . S
C573 C571 1.387 1_545 S
C573 C575 1.390 . S
C573 H577 0.950 . S
H574 C570 0.950 . S
C575 C573 1.390 . S
C575 C576 1.387 . S
C575 H578 0.950 . S
C576 C575 1.387 . S
C576 C579 1.387 1_545 S
H577 C573 0.950 . S
H578 C575 0.950 . S
C579 C570 1.390 . S
C579 H572 0.950 . S
C579 C576 1.387 1_565 S
C580 C581 1.387 . S
C580 H584 0.950 . S
C580 C589 1.390 . S
C581 C580 1.387 . S
C581 C583 1.387 . S
H582 C589 0.950 . S
C583 C581 1.387 . S
C583 C585 1.390 . S
C583 H587 0.950 . S
H584 C580 0.950 . S
C585 C583 1.390 . S
C585 C586 1.387 . S
C585 H588 0.950 . S
C586 C585 1.387 . S
C586 C589 1.387 . S
H587 C583 0.950 . S
H588 C585 0.950 . S
C589 C580 1.390 . S
C589 H582 0.950 . S
C589 C586 1.387 . S
C590 C591 1.387 . S
C590 H594 0.950 . S
C590 C599 1.390 . S
C591 C590 1.387 . S
C591 C593 1.387 . S
H592 C599 0.950 . S
C593 C591 1.387 . S
C593 C595 1.390 . S
C593 H597 0.950 . S
H594 C590 0.950 . S
C595 C593 1.390 . S
C595 C596 1.387 . S
C595 H598 0.950 . S
C596 C595 1.387 . S
C596 C599 1.387 . S
H597 C593 0.950 . S
H598 C595 0.950 . S
C599 C590 1.390 . S
C599 H592 0.950 . S
C599 C596 1.387 . S
C600 C601 1.387 . S
C600 H604 0.950 . S
C600 C609 1.390 . S
C601 C600 1.387 . S
C601 C603 1.387 . S
H602 C609 0.950 . S
C603 C601 1.387 . S
C603 C605 1.390 . S
C603 H607 0.950 . S
H604 C600 0.950 . S
C605 C603 1.390 . S
C605 C606 1.387 . S
C605 H608 0.950 . S
C606 C605 1.387 . S
C606 C609 1.387 . S
H607 C603 0.950 . S
H608 C605 0.950 . S
C609 C600 1.390 . S
C609 H602 0.950 . S
C609 C606 1.387 . S
C610 C611 1.387 . S
C610 H614 0.950 . S
C610 C619 1.390 . S
C611 C610 1.387 . S
C611 C613 1.387 . S
H612 C619 0.950 . S
C613 C611 1.387 . S
C613 C615 1.390 . S
C613 H617 0.950 . S
H614 C610 0.950 . S
C615 C613 1.390 . S
C615 C616 1.387 . S
C615 H618 0.950 . S
C616 C615 1.387 . S
C616 C619 1.387 . S
H617 C613 0.950 . S
H618 C615 0.950 . S
C619 C610 1.390 . S
C619 H612 0.950 . S
C619 C616 1.387 . S
C620 C621 1.387 . S
C620 H624 0.950 . S
C620 C629 1.390 . S
C621 C620 1.387 . S
C621 C623 1.387 . S
H622 C629 0.950 . S
C623 C621 1.387 . S
C623 C625 1.390 . S
C623 H627 0.950 1_556 S
H624 C620 0.950 . S
C625 C623 1.390 . S
C625 C626 1.387 . S
C625 H628 0.950 1_556 S
C626 C625 1.387 . S
C626 C629 1.387 . S
H627 C623 0.950 1_554 S
H628 C625 0.950 1_554 S
C629 C620 1.390 . S
C629 H622 0.950 . S
C629 C626 1.387 . S
C630 C631 1.387 . S
C630 H634 0.950 . S
C630 C639 1.390 . S
C631 C630 1.387 . S
C631 C633 1.387 . S
H632 C639 0.950 . S
C633 C631 1.387 . S
C633 C635 1.390 . S
C633 H637 0.950 . S
H634 C630 0.950 . S
C635 C633 1.390 . S
C635 C636 1.387 . S
C635 H638 0.950 . S
C636 C635 1.387 . S
C636 C639 1.387 . S
H637 C633 0.950 . S
H638 C635 0.950 . S
C639 C630 1.390 . S
C639 H632 0.950 . S
C639 C636 1.387 . S
C640 C641 1.387 . S
C640 H644 0.950 . S
C640 C649 1.390 . S
C641 C640 1.387 . S
C641 C643 1.387 . S
H642 C649 0.950 . S
C643 C641 1.387 . S
C643 C645 1.390 . S
C643 H647 0.950 . S
H644 C640 0.950 . S
C645 C643 1.390 . S
C645 C646 1.387 . S
C645 H648 0.950 . S
C646 C645 1.387 . S
C646 C649 1.387 . S
H647 C643 0.950 . S
H648 C645 0.950 . S
C649 C640 1.390 . S
C649 H642 0.950 . S
C649 C646 1.387 . S
C650 C651 1.387 . S
C650 H654 0.950 . S
C650 C659 1.390 . S
C651 C650 1.387 . S
C651 C653 1.387 . S
H652 C659 0.950 . S
C653 C651 1.387 . S
C653 C655 1.390 . S
C653 H657 0.950 . S
H654 C650 0.950 . S
C655 C653 1.390 . S
C655 C656 1.387 . S
C655 H658 0.950 . S
C656 C655 1.387 . S
C656 C659 1.387 . S
H657 C653 0.950 . S
H658 C655 0.950 . S
C659 C650 1.390 . S
C659 H652 0.950 . S
C659 C656 1.387 . S
C660 C661 1.387 . S
C660 H664 0.950 . S
C660 C669 1.390 . S
C661 C660 1.387 . S
C661 C663 1.387 . S
H662 C669 0.950 . S
C663 C661 1.387 . S
C663 C665 1.390 . S
C663 H667 0.950 . S
H664 C660 0.950 . S
C665 C663 1.390 . S
C665 C666 1.387 . S
C665 H668 0.950 . S
C666 C665 1.387 . S
C666 C669 1.387 . S
H667 C663 0.950 . S
H668 C665 0.950 . S
C669 C660 1.390 . S
C669 H662 0.950 . S
C669 C666 1.387 . S
C670 C671 1.387 . S
C670 H674 0.950 . S
C670 C679 1.390 . S
C671 C670 1.387 . S
C671 C673 1.387 . S
H672 C679 0.950 . S
C673 C671 1.387 . S
C673 C675 1.390 . S
C673 H677 0.950 . S
H674 C670 0.950 . S
C675 C673 1.390 . S
C675 C676 1.387 . S
C675 H678 0.950 . S
C676 C675 1.387 . S
C676 C679 1.387 . S
H677 C673 0.950 . S
H678 C675 0.950 . S
C679 C670 1.390 . S
C679 H672 0.950 . S
C679 C676 1.387 . S
C441 C82 1.804 . S
C446 C179 2.084 . S
C456 C263 2.096 . S
C451 C95 1.819 . S
C466 C339 1.991 . S
C461 C56 1.888 . S
C476 C423 1.988 . S
C471 C69 1.879 . S
C486 C170 2.087 1_565 S
C481 C30 1.750 . S
C491 C43 1.752 . S
C496 C254 2.095 . S
C501 C4 1.817 . S
C506 C328 1.991 . S
C511 C17 1.816 . S
C516 C412 1.988 . S
C526 C167 0.965 . S
C521 C74 0.900 . S
C536 C251 0.931 . S
C531 C87 0.876 . S
C546 C344 0.893 . S
C541 C100 0.854 . S
C551 C61 0.873 . S
C556 C428 0.926 . S
C561 C22 0.895 . S
C566 C176 0.951 . S
C576 C260 0.919 . S
C571 C35 0.872 . S
C586 C335 0.893 . S
C581 C48 0.846 . S
C591 C9 0.869 . S
C596 C419 0.924 . S
C601 C73 2.103 . S
C606 C160 2.200 . S
C611 C86 2.084 . S
C616 C244 2.181 . S
C626 C338 2.280 . S
C621 C99 2.007 . S
C636 C422 2.296 . S
C631 C60 2.026 . S
C641 C21 2.099 . S
C646 C171 2.200 . S
C656 C255 2.179 . S
C651 C34 2.080 . S
C666 C347 2.280 . S
C661 C47 2.003 . S
C671 C8 2.023 . S
C676 C431 2.297 . S
