# Generated by pormake.
# Topology anh, (6,3)-cn, num edge types: 1
# Building blocks:
#     Node 0, Type 0, BuildingBlock: MIFKUJ_clean_sbu_0, # of connection points: 6
#     Node 1, Type 0, BuildingBlock: MIFKUJ_clean_sbu_0, # of connection points: 6
#     Node 2, Type 0, BuildingBlock: MIFKUJ_clean_sbu_0, # of connection points: 6
#     Node 3, Type 1, BuildingBlock: BETDAH_clean_linker_0, # of connection points: 3
#     Node 4, Type 1, BuildingBlock: BETDAH_clean_linker_0, # of connection points: 3
#     Node 5, Type 1, BuildingBlock: BETDAH_clean_linker_0, # of connection points: 3
#     Node 6, Type 1, BuildingBlock: BETDAH_clean_linker_0, # of connection points: 3
#     Node 7, Type 1, BuildingBlock: BETDAH_clean_linker_0, # of connection points: 3
#     Node 8, Type 1, BuildingBlock: BETDAH_clean_linker_0, # of connection points: 3
#     Edge 9, Type (0, 1), BuildingBlock: XUDNAN_clean_linker_2, # of connection points: 2
#     Edge 10, Type (0, 1), BuildingBlock: XUDNAN_clean_linker_2, # of connection points: 2
#     Edge 11, Type (0, 1), BuildingBlock: XUDNAN_clean_linker_2, # of connection points: 2
#     Edge 12, Type (0, 1), BuildingBlock: XUDNAN_clean_linker_2, # of connection points: 2
#     Edge 13, Type (0, 1), BuildingBlock: XUDNAN_clean_linker_2, # of connection points: 2
#     Edge 14, Type (0, 1), BuildingBlock: XUDNAN_clean_linker_2, # of connection points: 2
#     Edge 15, Type (0, 1), BuildingBlock: XUDNAN_clean_linker_2, # of connection points: 2
#     Edge 16, Type (0, 1), BuildingBlock: XUDNAN_clean_linker_2, # of connection points: 2
#     Edge 17, Type (0, 1), BuildingBlock: XUDNAN_clean_linker_2, # of connection points: 2
#     Edge 18, Type (0, 1), BuildingBlock: XUDNAN_clean_linker_2, # of connection points: 2
#     Edge 19, Type (0, 1), BuildingBlock: XUDNAN_clean_linker_2, # of connection points: 2
#     Edge 20, Type (0, 1), BuildingBlock: XUDNAN_clean_linker_2, # of connection points: 2
#     Edge 21, Type (0, 1), BuildingBlock: XUDNAN_clean_linker_2, # of connection points: 2
#     Edge 22, Type (0, 1), BuildingBlock: XUDNAN_clean_linker_2, # of connection points: 2
#     Edge 23, Type (0, 1), BuildingBlock: XUDNAN_clean_linker_2, # of connection points: 2
#     Edge 24, Type (0, 1), BuildingBlock: XUDNAN_clean_linker_2, # of connection points: 2
#     Edge 25, Type (0, 1), BuildingBlock: XUDNAN_clean_linker_2, # of connection points: 2
#     Edge 26, Type (0, 1), BuildingBlock: XUDNAN_clean_linker_2, # of connection points: 2
# Relax obj value: 0.069
# Max RMSD: 0.135
# Mean RMSD: 0.096
data_MOF--net-anh--node1-MIFKUJ_clean_sbu_0--node2-BETDAH_clean_linker_0--edge1-XUDNAN_clean_linker_2
_symmetry_space_group_name_H-M    P1
_symmetry_Int_Tables_number       1
_symmetry_cell_setting            triclinic
loop_
_symmetry_equiv_pos_as_xyz
'x, y, z'
_cell_length_a     31.989361
_cell_length_b     31.954812
_cell_length_c     46.670414
_cell_angle_alpha  96.526318
_cell_angle_beta   93.438477
_cell_angle_gamma 119.98527
loop_
_atom_site_label
_atom_site_type_symbol
_atom_site_fract_x
_atom_site_fract_y
_atom_site_fract_z
_atom_type_partial_charge
Zn0 Zn 0.07577 0.60113 0.16473 0.0
Zn1 Zn 0.93603 0.50432 0.16029 0.0
C2 C 0.15058 0.57865 0.17057 0.0
O3 O 0.15003 0.59436 0.1977 0.0
C4 C 0.86279 0.52575 0.14422 0.0
O5 O 0.84339 0.48058 0.13056 0.0
O6 O 0.113 0.67428 0.1709 0.0
O7 O 0.01735 0.57866 0.13606 0.0
O8 O 0.96787 0.5 0.12515 0.0
C9 C 0.13621 0.69361 0.15037 0.0
O10 O 0.13394 0.66513 0.12695 0.0
O11 O 0.12101 0.57764 0.1506 0.0
C12 C 0.85841 0.4202 0.18032 0.0
O13 O 0.87374 0.44816 0.20603 0.0
O14 O 0.88057 0.43627 0.15884 0.0
O15 O 0.97763 0.52134 0.19899 0.0
O16 O 0.05705 0.57654 0.20275 0.0
O17 O 0.90574 0.54712 0.15796 0.0
C18 C 0.00309 0.53875 0.1193 0.0
C19 C 0.01997 0.54662 0.21358 0.0
Zn20 Zn 0.54351 0.09798 0.50255 0.0
Zn21 Zn 0.49993 0.96278 0.50058 0.0
C22 C 0.64185 0.16007 0.50597 0.0
O23 O 0.62952 0.17278 0.53038 0.0
C24 C 0.39432 0.90486 0.48247 0.0
O25 O 0.40504 0.91082 0.45594 0.0
O26 O 0.53129 0.15411 0.50117 0.0
O27 O 0.48829 0.03982 0.47679 0.0
O28 O 0.51274 0.98933 0.46279 0.0
C29 C 0.54453 0.17581 0.47927 0.0
O30 O 0.56379 0.16024 0.45981 0.0
O31 O 0.60938 0.12236 0.48847 0.0
C32 C 0.5237 0.89312 0.51911 0.0
O33 O 0.51923 0.90988 0.54508 0.0
O34 O 0.51853 0.91146 0.49738 0.0
O35 O 0.53294 0.00855 0.5393 0.0
O36 O 0.55185 0.08654 0.54346 0.0
O37 O 0.42836 0.92545 0.50377 0.0
C38 C 0.5007 0.01984 0.45682 0.0
C39 C 0.54945 0.05079 0.55442 0.0
Zn40 Zn 0.60334 0.50049 0.84056 0.0
Zn41 Zn 0.50656 0.55129 0.83277 0.0
C42 C 0.58862 0.41895 0.86408 0.0
O43 O 0.62123 0.45464 0.88429 0.0
C44 C 0.5439 0.64895 0.82206 0.0
O45 O 0.53837 0.62785 0.79516 0.0
O46 O 0.67069 0.51966 0.83254 0.0
O47 O 0.56776 0.51263 0.80696 0.0
O48 O 0.51516 0.53362 0.79161 0.0
C49 C 0.67407 0.48867 0.81468 0.0
O50 O 0.63409 0.44947 0.80118 0.0
O51 O 0.57168 0.4294 0.84245 0.0
C52 C 0.43053 0.5281 0.86578 0.0
O53 O 0.46872 0.55811 0.88504 0.0
O54 O 0.43719 0.51582 0.84039 0.0
O55 O 0.55079 0.5394 0.85598 0.0
O56 O 0.60401 0.53181 0.88128 0.0
O57 O 0.53214 0.62308 0.84209 0.0
C58 C 0.54571 0.52015 0.78625 0.0
C59 C 0.57236 0.54429 0.88061 0.0
H60 H 0.42152 0.00375 0.25087 0.0
H61 H 0.57371 0.06903 0.24321 0.0
H62 H 0.46802 0.99214 0.16694 0.0
C63 C 0.44999 0.0128 0.23712 0.0
C64 C 0.43799 0.99496 0.20705 0.0
C65 C 0.49864 0.03951 0.25021 0.0
C66 C 0.53604 0.04911 0.23316 0.0
C67 C 0.52455 0.03184 0.2031 0.0
C68 C 0.47592 0.00495 0.1902 0.0
N69 N 0.56152 0.03988 0.1856 0.0
C70 C 0.59646 0.08696 0.18269 0.0
H71 H 0.57271 0.45865 0.57167 0.0
H72 H 0.63841 0.61493 0.58764 0.0
H73 H 0.60486 0.53916 0.49992 0.0
C74 C 0.58541 0.49254 0.56317 0.0
C75 C 0.58487 0.49246 0.533 0.0
C76 C 0.60399 0.53619 0.58297 0.0
C77 C 0.62262 0.58076 0.57254 0.0
C78 C 0.62327 0.58148 0.54261 0.0
C79 C 0.60402 0.5376 0.52295 0.0
N80 N 0.64749 0.62657 0.53235 0.0
C81 C 0.62425 0.65227 0.52727 0.0
H82 H 0.97199 0.53332 0.91673 0.0
H83 H 0.11983 0.57097 0.91082 0.0
H84 H 0.02797 0.55758 0.83489 0.0
C85 C 0.00207 0.54344 0.90411 0.0
C86 C 0.99509 0.54466 0.87438 0.0
C87 C 0.04721 0.55302 0.91726 0.0
C88 C 0.08526 0.56401 0.90054 0.0
C89 C 0.0785 0.56619 0.87076 0.0
C90 C 0.03354 0.55699 0.85796 0.0
N91 N 0.1155 0.57563 0.85291 0.0
C92 C 0.15236 0.56615 0.85973 0.0
H93 H 0.10482 0.60135 0.4178 0.0
H94 H 0.97038 0.47416 0.42743 0.0
H95 H 0.04741 0.5931 0.49941 0.0
C96 C 0.07707 0.58205 0.43131 0.0
C97 C 0.08117 0.60378 0.45999 0.0
C98 C 0.03711 0.53587 0.4194 0.0
C99 C 0.00131 0.50978 0.43671 0.0
C100 C 0.00586 0.53014 0.46595 0.0
C101 C 0.04522 0.57723 0.47719 0.0
N102 N 0.97148 0.50496 0.48472 0.0
C103 C 0.93482 0.45591 0.47857 0.0
H104 H 0.59329 0.13785 0.7696 0.0
H105 H 0.55886 0.98827 0.76573 0.0
H106 H 0.53396 0.061 0.84016 0.0
C107 C 0.58061 0.10516 0.77943 0.0
C108 C 0.56522 0.10487 0.80694 0.0
C109 C 0.57853 0.0634 0.7642 0.0
C110 C 0.56135 0.02103 0.77722 0.0
C111 C 0.54561 0.0206 0.80478 0.0
C112 C 0.54727 0.06222 0.81926 0.0
N113 N 0.52441 0.97783 0.81763 0.0
C114 C 0.54417 0.94811 0.8194 0.0
H115 H 0.61636 0.61099 0.07871 0.0
H116 H 0.46715 0.56328 0.08916 0.0
H117 H 0.56201 0.56012 0.15738 0.0
C118 C 0.58724 0.59819 0.09217 0.0
C119 C 0.59503 0.58742 0.11953 0.0
C120 C 0.54122 0.5891 0.08103 0.0
C121 C 0.50279 0.57077 0.09793 0.0
C122 C 0.51066 0.56133 0.12591 0.0
C123 C 0.55645 0.56879 0.13621 0.0
N124 N 0.47349 0.54285 0.14411 0.0
C125 C 0.42842 0.5396 0.13989 0.0
H126 H 0.21813 0.60544 0.13213 0.0
H127 H 0.15847 0.51162 0.19682 0.0
H128 H 0.21853 0.48515 0.19158 0.0
H129 H 0.25345 0.52781 0.08634 0.0
H130 H 0.30956 0.57977 0.08025 0.0
H131 H 0.25748 0.58601 0.0857 0.0
H132 H 0.30922 0.65764 0.12823 0.0
H133 H 0.36136 0.65159 0.123 0.0
H134 H 0.34036 0.6483 0.15812 0.0
H135 H 0.28752 0.47308 0.18229 0.0
H136 H 0.36533 0.48 0.17182 0.0
H137 H 0.38533 0.58529 0.11522 0.0
C138 C 0.21702 0.57823 0.14446 0.0
C139 C 0.18312 0.55951 0.16438 0.0
C140 C 0.18377 0.52562 0.18113 0.0
C141 C 0.21765 0.51037 0.17826 0.0
C142 C 0.25121 0.52995 0.15883 0.0
C143 C 0.25153 0.5634 0.14232 0.0
C144 C 0.29487 0.58252 0.12541 0.0
C145 C 0.27781 0.56816 0.09247 0.0
C146 C 0.32843 0.63831 0.13423 0.0
C147 C 0.31922 0.55527 0.13543 0.0
C148 C 0.29274 0.5245 0.15431 0.0
C149 C 0.30832 0.49663 0.16733 0.0
C150 C 0.35244 0.50073 0.16125 0.0
C151 C 0.38064 0.53268 0.14257 0.0
C152 C 0.3638 0.56005 0.12926 0.0
H153 H 0.71302 0.24623 0.53788 0.0
H154 H 0.67778 0.1529 0.45436 0.0
H155 H 0.75308 0.21706 0.4387 0.0
H156 H 0.75203 0.35438 0.51036 0.0
H157 H 0.7994 0.39264 0.54029 0.0
H158 H 0.74664 0.33715 0.54601 0.0
H159 H 0.80184 0.3065 0.56635 0.0
H160 H 0.85495 0.36219 0.561 0.0
H161 H 0.84565 0.30366 0.54488 0.0
H162 H 0.82966 0.29605 0.43108 0.0
H163 H 0.89971 0.38059 0.43286 0.0
H164 H 0.88108 0.4203 0.52096 0.0
C165 C 0.72145 0.23859 0.51648 0.0
C166 C 0.68961 0.19436 0.4974 0.0
C167 C 0.70187 0.18636 0.46945 0.0
C168 C 0.7445 0.22265 0.46036 0.0
C169 C 0.77432 0.26656 0.47952 0.0
C170 C 0.76328 0.27433 0.50708 0.0
C171 C 0.79877 0.32557 0.52296 0.0
C172 C 0.77264 0.35409 0.53032 0.0
C173 C 0.82698 0.32438 0.55042 0.0
C174 C 0.83149 0.34591 0.5 0.0
C175 C 0.81721 0.31146 0.47509 0.0
C176 C 0.84131 0.32303 0.4506 0.0
C177 C 0.88082 0.37095 0.45171 0.0
C178 C 0.8953 0.40626 0.47706 0.0
C179 C 0.87058 0.39353 0.50142 0.0
H180 H 0.55688 0.70979 0.78288 0.0
H181 H 0.56362 0.70531 0.87556 0.0
H182 H 0.57834 0.78954 0.88527 0.0
H183 H 0.64731 0.84431 0.78835 0.0
H184 H 0.61218 0.84879 0.75844 0.0
H185 H 0.61245 0.7927 0.75955 0.0
H186 H 0.51824 0.74473 0.75493 0.0
H187 H 0.51742 0.80036 0.75415 0.0
H188 H 0.48859 0.76278 0.7811 0.0
H189 H 0.57934 0.86804 0.88422 0.0
H190 H 0.56507 0.93391 0.87252 0.0
H191 H 0.55551 0.88604 0.78055 0.0
C192 C 0.56284 0.727 0.80528 0.0
C193 C 0.55912 0.70116 0.82844 0.0
C194 C 0.56635 0.72458 0.85746 0.0
C195 C 0.57501 0.77249 0.86319 0.0
C196 C 0.57667 0.79636 0.83969 0.0
C197 C 0.57111 0.77447 0.81132 0.0
C198 C 0.56848 0.8052 0.78972 0.0
C199 C 0.61275 0.82387 0.77303 0.0
C200 C 0.52032 0.77656 0.76877 0.0
C201 C 0.57062 0.8466 0.81023 0.0
C202 C 0.57666 0.8415 0.83902 0.0
C203 C 0.57574 0.87305 0.86185 0.0
C204 C 0.56758 0.91019 0.85504 0.0
C205 C 0.56003 0.91491 0.82576 0.0
C206 C 0.56235 0.88346 0.80311 0.0
H207 H 0.76626 0.47972 0.14771 0.0
H208 H 0.89061 0.62238 0.14395 0.0
H209 H 0.8361 0.65682 0.1419 0.0
H210 H 0.68239 0.48252 0.09925 0.0
H211 H 0.63145 0.45243 0.11905 0.0
H212 H 0.68097 0.44104 0.12286 0.0
H213 H 0.69312 0.46728 0.17875 0.0
H214 H 0.64342 0.47869 0.17513 0.0
H215 H 0.70241 0.52644 0.1934 0.0
H216 H 0.76538 0.67178 0.13347 0.0
H217 H 0.68638 0.66768 0.12306 0.0
H218 H 0.61001 0.51632 0.13603 0.0
C219 C 0.7821 0.51839 0.1468 0.0
C220 C 0.83241 0.54846 0.14571 0.0
C221 C 0.85207 0.5989 0.14484 0.0
C222 C 0.82139 0.61864 0.14368 0.0
C223 C 0.77157 0.5876 0.14422 0.0
C224 C 0.75233 0.53873 0.14634 0.0
C225 C 0.69763 0.51257 0.14583 0.0
C226 C 0.67161 0.46963 0.12022 0.0
C227 C 0.68332 0.49524 0.17502 0.0
C228 C 0.68846 0.55366 0.14159 0.0
C229 C 0.73152 0.5968 0.14089 0.0
C230 C 0.73164 0.63854 0.13466 0.0
C231 C 0.6867 0.63588 0.12872 0.0
C232 C 0.64233 0.59197 0.12928 0.0
C233 C 0.64346 0.55073 0.13629 0.0
H234 H 0.31136 0.85603 0.4427 0.0
H235 H 0.3653 0.86948 0.53286 0.0
H236 H 0.28624 0.79922 0.53888 0.0
H237 H 0.18197 0.81496 0.45488 0.0
H238 H 0.15825 0.77388 0.42053 0.0
H239 H 0.21643 0.82982 0.42463 0.0
H240 H 0.25647 0.77978 0.4075 0.0
H241 H 0.19873 0.72378 0.40366 0.0
H242 H 0.25027 0.73132 0.42652 0.0
H243 H 0.20714 0.71914 0.53262 0.0
H244 H 0.13232 0.63927 0.51537 0.0
H245 H 0.12679 0.68162 0.43063 0.0
C246 C 0.3061 0.84506 0.46393 0.0
C247 C 0.34458 0.86823 0.48726 0.0
C248 C 0.33635 0.85247 0.51465 0.0
C249 C 0.29149 0.81255 0.51832 0.0
C250 C 0.25486 0.78936 0.49458 0.0
C251 C 0.26133 0.80563 0.46807 0.0
C252 C 0.21744 0.77226 0.44547 0.0
C253 C 0.19201 0.79935 0.43582 0.0
C254 C 0.2316 0.75051 0.41926 0.0
C255 C 0.18643 0.7334 0.463 0.0
C256 C 0.20839 0.74404 0.49134 0.0
C257 C 0.18888 0.71102 0.5107 0.0
C258 C 0.14617 0.66571 0.50071 0.0
C259 C 0.12334 0.65379 0.47159 0.0
C260 C 0.14335 0.689 0.45292 0.0
H261 H 0.54477 0.34329 0.81857 0.0
H262 H 0.61383 0.38263 0.90809 0.0
H263 H 0.60937 0.30271 0.90451 0.0
H264 H 0.46435 0.21074 0.81827 0.0
H265 H 0.47316 0.19543 0.78162 0.0
H266 H 0.47561 0.25255 0.79287 0.0
H267 H 0.56135 0.29961 0.77692 0.0
H268 H 0.55971 0.24293 0.766 0.0
H269 H 0.60916 0.29094 0.79201 0.0
H270 H 0.60454 0.22199 0.88943 0.0
H271 H 0.59926 0.14675 0.86416 0.0
H272 H 0.535 0.16214 0.78444 0.0
C273 C 0.55764 0.33458 0.83772 0.0
C274 C 0.57921 0.36886 0.86368 0.0
C275 C 0.59681 0.35662 0.88803 0.0
C276 C 0.59443 0.31136 0.88621 0.0
C277 C 0.57432 0.27898 0.85992 0.0
C278 C 0.55599 0.28997 0.83618 0.0
C279 C 0.54016 0.25102 0.80968 0.0
C280 C 0.48504 0.22594 0.80005 0.0
C281 C 0.56935 0.27241 0.7847 0.0
C282 C 0.55329 0.21674 0.822 0.0
C283 C 0.57246 0.23315 0.85108 0.0
C284 C 0.58898 0.20843 0.86677 0.0
C285 C 0.5858 0.16579 0.85229 0.0
C286 C 0.56673 0.14877 0.82241 0.0
C287 C 0.55001 0.1745 0.80725 0.0
H288 H 0.55836 0.85964 0.56053 0.0
H289 H 0.5102 0.83431 0.46797 0.0
H290 H 0.52607 0.76606 0.46055 0.0
H291 H 0.65659 0.83888 0.55287 0.0
H292 H 0.64932 0.80958 0.58451 0.0
H293 H 0.63092 0.85416 0.58282 0.0
H294 H 0.54414 0.7908 0.59207 0.0
H295 H 0.5622 0.74591 0.59374 0.0
H296 H 0.51046 0.73225 0.56845 0.0
H297 H 0.54966 0.70242 0.46288 0.0
H298 H 0.58292 0.65011 0.47478 0.0
H299 H 0.61727 0.71796 0.56537 0.0
C300 C 0.55075 0.83943 0.53875 0.0
C301 C 0.53297 0.85215 0.51484 0.0
C302 C 0.52403 0.82527 0.4866 0.0
C303 C 0.53267 0.7863 0.48218 0.0
C304 C 0.55047 0.77486 0.50619 0.0
C305 C 0.55966 0.80076 0.5339 0.0
C306 C 0.58125 0.78278 0.55573 0.0
C307 C 0.63256 0.82379 0.5698 0.0
C308 C 0.54748 0.76167 0.57886 0.0
C309 C 0.5831 0.74295 0.53595 0.0
C310 C 0.56476 0.73867 0.50748 0.0
C311 C 0.56384 0.70523 0.4851 0.0
C312 C 0.58269 0.67577 0.49199 0.0
C313 C 0.6021 0.68029 0.52089 0.0
C314 C 0.60207 0.71387 0.54315 0.0
H315 H 0.76456 0.56801 0.83419 0.0
H316 H 0.68956 0.41482 0.79423 0.0
H317 H 0.76652 0.41487 0.80129 0.0
H318 H 0.88418 0.60215 0.80576 0.0
H319 H 0.9183 0.64407 0.83894 0.0
H320 H 0.85934 0.6342 0.82591 0.0
H321 H 0.8309 0.61137 0.87559 0.0
H322 H 0.88917 0.62001 0.88858 0.0
H323 H 0.83445 0.56226 0.8889 0.0
H324 H 0.84761 0.42776 0.81938 0.0
H325 H 0.93002 0.45509 0.84407 0.0
H326 H 0.95211 0.59942 0.87228 0.0
C327 C 0.7647 0.53493 0.82615 0.0
C328 C 0.72126 0.49147 0.81371 0.0
C329 C 0.72259 0.44869 0.80362 0.0
C330 C 0.7661 0.44832 0.80756 0.0
C331 C 0.80795 0.49124 0.82108 0.0
C332 C 0.80789 0.53407 0.82968 0.0
C333 C 0.85691 0.57414 0.84562 0.0
C334 C 0.88111 0.61612 0.828 0.0
C335 C 0.85255 0.593 0.8765 0.0
C336 C 0.88352 0.54623 0.8463 0.0
C337 C 0.85495 0.49873 0.83154 0.0
C338 C 0.87069 0.46511 0.83048 0.0
C339 C 0.91715 0.48072 0.84462 0.0
C340 C 0.94663 0.52911 0.85977 0.0
C341 C 0.92984 0.56229 0.86062 0.0
H342 H 0.22142 0.73973 0.12829 0.0
H343 H 0.12995 0.76615 0.1834 0.0
H344 H 0.19398 0.85373 0.19578 0.0
H345 H 0.32324 0.8038 0.17619 0.0
H346 H 0.36548 0.82769 0.15024 0.0
H347 H 0.30839 0.7716 0.13935 0.0
H348 H 0.28783 0.80804 0.09753 0.0
H349 H 0.34519 0.86455 0.10839 0.0
H350 H 0.28908 0.8652 0.10566 0.0
H351 H 0.27149 0.93469 0.20744 0.0
H352 H 0.35761 -0.0011 0.22188 0.0
H353 H 0.40024 0.91544 0.1633 0.0
C354 C 0.21418 0.76444 0.14202 0.0
C355 C 0.17069 0.7467 0.15456 0.0
C356 C 0.16303 0.77942 0.1734 0.0
C357 C 0.19899 0.8292 0.18033 0.0
C358 C 0.2424 0.84536 0.16839 0.0
C359 C 0.25016 0.8138 0.14971 0.0
C360 C 0.30261 0.83767 0.14403 0.0
C361 C 0.32629 0.80847 0.15302 0.0
C362 C 0.30638 0.84426 0.112 0.0
C363 C 0.32382 0.88652 0.16379 0.0
C364 C 0.28822 0.89106 0.17672 0.0
C365 C 0.29961 0.93166 0.19728 0.0
C366 C 0.34877 0.96769 0.2056 0.0
C367 C 0.38609 0.96212 0.19408 0.0
C368 C 0.37298 0.92164 0.1722 0.0
H369 H 0.49778 0.21352 0.5111 0.0
H370 H 0.5885 0.23979 0.44198 0.0
H371 H 0.59486 0.3196 0.44139 0.0
H372 H 0.43559 0.28065 0.48529 0.0
H373 H 0.43512 0.30373 0.52229 0.0
H374 H 0.42972 0.24464 0.51349 0.0
H375 H 0.50386 0.27225 0.55233 0.0
H376 H 0.50949 0.33115 0.56118 0.0
H377 H 0.56071 0.32707 0.55047 0.0
H378 H 0.60703 0.40219 0.45577 0.0
H379 H 0.6212 0.47961 0.48269 0.0
H380 H 0.51397 0.39866 0.53824 0.0
C381 C 0.51781 0.23552 0.49531 0.0
C382 C 0.54273 0.22053 0.47669 0.0
C383 C 0.56895 0.25042 0.45644 0.0
C384 C 0.5726 0.29579 0.45581 0.0
C385 C 0.54884 0.31028 0.47504 0.0
C386 C 0.52113 0.28066 0.49405 0.0
C387 C 0.50331 0.30692 0.51439 0.0
C388 C 0.44762 0.28253 0.5085 0.0
C389 C 0.52039 0.3095 0.54647 0.0
C390 C 0.52839 0.35699 0.5053 0.0
C391 C 0.55387 0.35796 0.48228 0.0
C392 C 0.58588 0.40168 0.47311 0.0
C393 C 0.59351 0.44572 0.48856 0.0
C394 C 0.56896 0.44581 0.51287 0.0
C395 C 0.53402 0.40037 0.52011 0.0
H396 H 0.34992 0.49687 0.82617 0.0
H397 H 0.40317 0.5411 0.91858 0.0
H398 H 0.32972 0.54429 0.92772 0.0
H399 H 0.31183 0.57609 0.8208 0.0
H400 H 0.2575 0.53705 0.7952 0.0
H401 H 0.30722 0.52584 0.79608 0.0
H402 H 0.25002 0.43688 0.8043 0.0
H403 H 0.19968 0.4475 0.80291 0.0
H404 H 0.2142 0.42604 0.83395 0.0
H405 H 0.26139 0.55972 0.92589 0.0
H406 H 0.198 0.57981 0.91336 0.0
H407 H 0.18801 0.52548 0.82235 0.0
C408 C 0.34506 0.50508 0.84845 0.0
C409 C 0.38204 0.51849 0.87171 0.0
C410 C 0.37511 0.53043 0.90049 0.0
C411 C 0.33346 0.53226 0.90589 0.0
C412 C 0.29894 0.52156 0.88232 0.0
C413 C 0.30374 0.5073 0.85418 0.0
C414 C 0.26451 0.50368 0.83239 0.0
C415 C 0.28662 0.53771 0.80982 0.0
C416 C 0.23005 0.45034 0.81751 0.0
C417 C 0.23903 0.52118 0.85251 0.0
C418 C 0.25886 0.5304 0.88128 0.0
C419 C 0.24457 0.55131 0.90358 0.0
C420 C 0.20887 0.56287 0.89629 0.0
C421 C 0.18837 0.55357 0.86704 0.0
C422 C 0.20312 0.53219 0.84493 0.0
H423 H 0.81585 0.36212 0.22125 0.0
H424 H 0.80208 0.36745 0.12879 0.0
H425 H 0.73023 0.2841 0.12008 0.0
H426 H 0.78712 0.2392 0.21332 0.0
H427 H 0.75346 0.22475 0.24392 0.0
H428 H 0.80117 0.28671 0.24354 0.0
H429 H 0.74059 0.31711 0.25112 0.0
H430 H 0.69261 0.25524 0.25166 0.0
H431 H 0.68492 0.29016 0.22627 0.0
H432 H 0.66327 0.19928 0.12069 0.0
H433 H 0.6051 0.11669 0.13087 0.0
H434 H 0.66255 0.16489 0.22251 0.0
C435 C 0.79728 0.3459 0.19926 0.0
C436 C 0.81447 0.37108 0.17569 0.0
C437 C 0.78966 0.34859 0.14714 0.0
C438 C 0.74867 0.3014 0.14198 0.0
C439 C 0.73308 0.27718 0.16558 0.0
C440 C 0.7565 0.29851 0.19365 0.0
C441 C 0.73384 0.26326 0.21483 0.0
C442 C 0.77112 0.25287 0.22977 0.0
C443 C 0.71167 0.2826 0.23729 0.0
C444 C 0.69467 0.21857 0.19416 0.0
C445 C 0.69461 0.22766 0.16589 0.0
C446 C 0.66271 0.19173 0.14274 0.0
C447 C 0.63006 0.1451 0.14864 0.0
C448 C 0.63 0.13518 0.17732 0.0
C449 C 0.66229 0.17215 0.2004 0.0
H450 H 0.03326 0.60878 0.08478 0.0
H451 H 0.01398 0.46605 0.09094 0.0
H452 H 0.03654 0.46049 0.04144 0.0
H453 H 0.97486 0.57664 0.01542 0.0
H454 H 0.01279 0.63438 0.00367 0.0
H455 H 0.00645 0.63252 0.04156 0.0
H456 H 0.10011 0.67557 0.05466 0.0
H457 H 0.10686 0.67802 0.0167 0.0
H458 H 0.13277 0.64984 0.03708 0.0
H459 H 0.05165 0.46616 0.98966 0.0
H460 H 0.05195 0.47968 0.93839 0.0
H461 H 0.05432 0.61527 0.96476 0.0
C462 C 0.03549 0.57719 0.07603 0.0
C463 C 0.02271 0.53813 0.09165 0.0
C464 C 0.02413 0.49646 0.07925 0.0
C465 C 0.03714 0.49316 0.05128 0.0
C466 C 0.04808 0.53166 0.03598 0.0
C467 C 0.0472 0.57284 0.04788 0.0
C468 C 0.05336 0.60569 0.02556 0.0
C469 C 0.00923 0.61266 0.02131 0.0
C470 C 0.10113 0.65521 0.034 0.0
C471 C 0.05573 0.57557 0.99892 0.0
C472 C 0.05416 0.53375 0.00559 0.0
C473 C 0.05352 0.49905 0.98425 0.0
C474 C 0.05364 0.50689 0.95529 0.0
C475 C 0.05333 0.54848 0.94803 0.0
C476 C 0.05501 0.58348 0.97007 0.0
H477 H 0.52864 0.98582 0.40931 0.0
H478 H 0.47535 0.08275 0.43742 0.0
H479 H 0.48037 0.10698 0.38891 0.0
H480 H 0.61025 0.05761 0.36026 0.0
H481 H 0.59323 0.00484 0.3332 0.0
H482 H 0.59065 -0.00115 0.37108 0.0
H483 H 0.49978 0.93043 0.35904 0.0
H484 H 0.5023 0.93582 0.32114 0.0
H485 H 0.45738 0.94223 0.33956 0.0
H486 H 0.48583 0.1168 0.33681 0.0
H487 H 0.48426 0.10554 0.28329 0.0
H488 H 0.53173 0.00091 0.28832 0.0
C489 C 0.51873 0.0127 0.4054 0.0
C490 C 0.50321 0.03369 0.42751 0.0
C491 C 0.48886 0.06737 0.42115 0.0
C492 C 0.49152 0.08134 0.39363 0.0
C493 C 0.50765 0.06053 0.37247 0.0
C494 C 0.52029 0.02637 0.37786 0.0
C495 C 0.53158 0.0058 0.35049 0.0
C496 C 0.58459 0.01751 0.35398 0.0
C497 C 0.49562 0.9503 0.34207 0.0
C498 C 0.52345 0.03389 0.32891 0.0
C499 C 0.50998 0.06553 0.34211 0.0
C500 C 0.49701 0.09273 0.32628 0.0
C501 C 0.49638 0.08633 0.29603 0.0
C502 C 0.50893 0.0533 0.28211 0.0
C503 C 0.52356 0.02754 0.29876 0.0
H504 H 0.53075 0.56207 0.74158 0.0
H505 H 0.5894 0.47158 0.7637 0.0
H506 H 0.61534 0.47049 0.71503 0.0
H507 H 0.48424 0.50449 0.66728 0.0
H508 H 0.50032 0.5608 0.65403 0.0
H509 H 0.48709 0.55493 0.69081 0.0
H510 H 0.57101 0.63254 0.71 0.0
H511 H 0.5847 0.63836 0.67327 0.0
H512 H 0.62561 0.63497 0.69992 0.0
H513 H 0.63343 0.47783 0.66418 0.0
H514 H 0.63978 0.49021 0.61303 0.0
H515 H 0.57021 0.57676 0.62362 0.0
C516 C 0.54874 0.54173 0.73611 0.0
C517 C 0.55822 0.5169 0.75645 0.0
C518 C 0.58224 0.49114 0.74856 0.0
C519 C 0.59707 0.49035 0.72098 0.0
C520 C 0.58786 0.5158 0.70163 0.0
C521 C 0.56416 0.54093 0.70874 0.0
C522 C 0.55841 0.5649 0.68375 0.0
C523 C 0.5043 0.54507 0.67335 0.0
C524 C 0.58662 0.62102 0.69225 0.0
C525 C 0.58167 0.54837 0.66126 0.0
C526 C 0.59874 0.52043 0.67218 0.0
C527 C 0.62038 0.49975 0.65538 0.0
C528 C 0.62374 0.5069 0.6264 0.0
C529 C 0.6054 0.53434 0.61451 0.0
C530 C 0.585 0.55614 0.63234 0.0
H531 H 0.51025 0.98612 0.59241 0.0
H532 H 0.62564 0.13315 0.58704 0.0
H533 H 0.65328 0.14694 0.63967 0.0
H534 H 0.47921 0.01942 0.65843 0.0
H535 H 0.46454 0.96397 0.67236 0.0
H536 H 0.45858 0.96314 0.63371 0.0
H537 H 0.51568 0.92785 0.62856 0.0
H538 H 0.52216 0.92903 0.66734 0.0
H539 H 0.57543 0.96013 0.64951 0.0
H540 H 0.6659 0.14644 0.69277 0.0
H541 H 0.65571 0.13681 0.74397 0.0
H542 H 0.528 0.99246 0.71587 0.0
C543 C 0.54189 0.02083 0.60229 0.0
C544 C 0.56627 0.05844 0.58573 0.0
C545 C 0.60663 0.10391 0.59942 0.0
C546 C 0.62281 0.11187 0.6292 0.0
C547 C 0.59788 0.07417 0.64501 0.0
C548 C 0.55784 0.02978 0.63216 0.0
C549 C 0.53403 0.99766 0.65471 0.0
C550 C 0.48097 0.98536 0.65481 0.0
C551 C 0.53702 0.9509 0.64972 0.0
C552 C 0.56621 0.03145 0.68232 0.0
C553 C 0.60357 0.07482 0.67608 0.0
C554 C 0.63684 0.11264 0.69793 0.0
C555 C 0.63064 0.10688 0.72695 0.0
C556 C 0.59082 0.06407 0.73395 0.0
C557 C 0.55921 0.02526 0.71127 0.0
H558 H 0.51321 0.48946 0.91652 0.0
H559 H 0.60793 0.63946 0.90495 0.0
H560 H 0.59625 0.66881 0.95373 0.0
H561 H 0.42904 0.51251 0.96153 0.0
H562 H 0.42383 0.46735 0.9832 0.0
H563 H 0.43194 0.46018 0.94541 0.0
H564 H 0.50745 0.45339 0.96071 0.0
H565 H 0.50001 0.46165 0.99835 0.0
H566 H 0.557 0.50229 0.98627 0.0
H567 H 0.58673 0.68028 0.00627 0.0
H568 H 0.58087 0.67342 0.05833 0.0
H569 H 0.48972 0.51592 0.03532 0.0
C570 C 0.53014 0.52847 0.92407 0.0
C571 C 0.56102 0.5625 0.90737 0.0
C572 C 0.58372 0.61321 0.91766 0.0
C573 C 0.57701 0.63001 0.94515 0.0
C574 C 0.54695 0.59544 0.96158 0.0
C575 C 0.52339 0.54566 0.95123 0.0
C576 C 0.49791 0.51588 0.97427 0.0
C577 C 0.44238 0.4873 0.96557 0.0
C578 C 0.51676 0.48132 0.98026 0.0
C579 C 0.51321 0.5565 0.99984 0.0
C580 C 0.54065 0.60218 0.99193 0.0
C581 C 0.56397 0.64493 0.01254 0.0
C582 C 0.56038 0.64079 0.04201 0.0
C583 C 0.53357 0.59433 0.05049 0.0
C584 C 0.50857 0.55191 0.02912 0.0
H585 H 0.9589 0.53022 0.25507 0.0
H586 H 0.09674 0.54329 0.23902 0.0
H587 H 0.10806 0.5264 0.28833 0.0
H588 H 0.00094 0.59445 0.32696 0.0
H589 H 0.94421 0.55829 0.34067 0.0
H590 H 0.94415 0.56478 0.30291 0.0
H591 H 0.89668 0.47017 0.28838 0.0
H592 H 0.89745 0.46355 0.32623 0.0
H593 H 0.92148 0.43537 0.30196 0.0
H594 H 0.10746 0.5138 0.33975 0.0
H595 H 0.10143 0.51918 0.3924 0.0
H596 H 0.96565 0.51725 0.37642 0.0
C597 C 0.9911 0.52886 0.26191 0.0
C598 C 0.02691 0.53781 0.24333 0.0
C599 C 0.0691 0.53682 0.25307 0.0
C600 C 0.0755 0.52663 0.28086 0.0
C601 C 0.03955 0.51791 0.29871 0.0
C602 C -0.00145 0.51974 0.28986 0.0
C603 C 0.96851 0.515 0.31451 0.0
C604 C 0.96424 0.56086 0.32169 0.0
C605 C 0.91803 0.46823 0.30733 0.0
C606 C -0.00039 0.51134 0.33879 0.0
C607 C 0.03979 0.51187 0.32895 0.0
C608 C 0.07587 0.51269 0.34767 0.0
C609 C 0.07207 0.51548 0.37746 0.0
C610 C 0.03275 0.51784 0.38819 0.0
C611 C 0.9952 0.51392 0.36854 0.0
loop_
_geom_bond_atom_site_label_1
_geom_bond_atom_site_label_2
_geom_bond_distance
_geom_bond_site_symmetry_2
_ccdc_geom_bond_type
Zn0 O6 1.969 . S
Zn0 O7 1.965 . S
Zn0 O11 2.024 . S
Zn0 O16 1.969 . S
Zn1 O8 1.969 . S
Zn1 O14 1.969 . S
Zn1 O15 1.965 . S
Zn1 O17 2.024 . S
C2 O3 1.229 . S
C2 O11 1.058 . S
O3 C2 1.229 . S
C4 O5 1.229 . S
C4 O17 1.058 . S
O5 C4 1.229 . S
O6 Zn0 1.969 . S
O6 C9 1.267 . S
O7 Zn0 1.965 . S
O7 C18 1.260 . S
O8 Zn1 1.969 . S
O8 C18 1.258 1_655 S
C9 O6 1.267 . S
C9 O10 1.228 . S
O10 C9 1.228 . S
O11 Zn0 2.024 . S
O11 C2 1.058 . S
C12 O13 1.228 . S
C12 O14 1.267 . S
O13 C12 1.228 . S
O14 Zn1 1.969 . S
O14 C12 1.267 . S
O15 Zn1 1.965 . S
O15 C19 1.260 1_655 S
O16 Zn0 1.969 . S
O16 C19 1.258 . S
O17 Zn1 2.024 . S
O17 C4 1.058 . S
C18 O7 1.260 . S
C18 O8 1.258 1_455 S
C19 O15 1.260 1_455 S
C19 O16 1.258 . S
Zn20 O26 1.969 . S
Zn20 O27 1.965 . S
Zn20 O31 2.024 . S
Zn20 O36 1.969 . S
Zn21 O28 1.969 . S
Zn21 O34 1.969 . S
Zn21 O35 1.965 1_565 S
Zn21 O37 2.024 . S
C22 O23 1.229 . S
C22 O31 1.058 . S
O23 C22 1.229 . S
C24 O25 1.229 . S
C24 O37 1.058 . S
O25 C24 1.229 . S
O26 Zn20 1.969 . S
O26 C29 1.267 . S
O27 Zn20 1.965 . S
O27 C38 1.260 . S
O28 Zn21 1.969 . S
O28 C38 1.258 1_565 S
C29 O26 1.267 . S
C29 O30 1.228 . S
O30 C29 1.228 . S
O31 Zn20 2.024 . S
O31 C22 1.058 . S
C32 O33 1.228 . S
C32 O34 1.267 . S
O33 C32 1.228 . S
O34 Zn21 1.969 . S
O34 C32 1.267 . S
O35 Zn21 1.965 1_545 S
O35 C39 1.260 . S
O36 Zn20 1.969 . S
O36 C39 1.258 . S
O37 Zn21 2.024 . S
O37 C24 1.058 . S
C38 O27 1.260 . S
C38 O28 1.258 1_545 S
C39 O35 1.260 . S
C39 O36 1.258 . S
Zn40 O46 1.969 . S
Zn40 O47 1.965 . S
Zn40 O51 2.024 . S
Zn40 O56 1.969 . S
Zn41 O48 1.969 . S
Zn41 O54 1.969 . S
Zn41 O55 1.965 . S
Zn41 O57 2.024 . S
C42 O43 1.229 . S
C42 O51 1.058 . S
O43 C42 1.229 . S
C44 O45 1.229 . S
C44 O57 1.058 . S
O45 C44 1.229 . S
O46 Zn40 1.969 . S
O46 C49 1.267 . S
O47 Zn40 1.965 . S
O47 C58 1.260 . S
O48 Zn41 1.969 . S
O48 C58 1.258 . S
C49 O46 1.267 . S
C49 O50 1.228 . S
O50 C49 1.228 . S
O51 Zn40 2.024 . S
O51 C42 1.058 . S
C52 O53 1.228 . S
C52 O54 1.267 . S
O53 C52 1.228 . S
O54 Zn41 1.969 . S
O54 C52 1.267 . S
O55 Zn41 1.965 . S
O55 C59 1.260 . S
O56 Zn40 1.969 . S
O56 C59 1.258 . S
O57 Zn41 2.024 . S
O57 C44 1.058 . S
C58 O47 1.260 . S
C58 O48 1.258 . S
C59 O55 1.260 . S
C59 O56 1.258 . S
H60 C63 0.929 1_565 S
H61 C66 0.929 . S
H62 C68 0.930 . S
C63 H60 0.929 1_545 S
C63 C64 1.398 1_545 S
C63 C65 1.396 . S
C64 C63 1.398 1_565 S
C64 C68 1.407 1_565 S
C65 C63 1.396 . S
C65 C66 1.394 . S
C66 H61 0.929 . S
C66 C65 1.394 . S
C66 C67 1.382 . S
C67 C66 1.382 . S
C67 C68 1.392 . S
C67 N69 1.420 . S
C68 H62 0.930 . S
C68 C64 1.407 1_545 S
C68 C67 1.392 . S
N69 C67 1.420 . S
N69 C70 1.244 . S
C70 N69 1.244 . S
H71 C74 0.929 . S
H72 C77 0.929 . S
H73 C79 0.930 . S
C74 H71 0.929 . S
C74 C75 1.398 . S
C74 C76 1.396 . S
C75 C74 1.398 . S
C75 C79 1.407 . S
C76 C74 1.396 . S
C76 C77 1.394 . S
C77 H72 0.929 . S
C77 C76 1.394 . S
C77 C78 1.382 . S
C78 C77 1.382 . S
C78 C79 1.392 . S
C78 N80 1.420 . S
C79 H73 0.930 . S
C79 C75 1.407 . S
C79 C78 1.392 . S
N80 C78 1.420 . S
N80 C81 1.244 . S
C81 N80 1.244 . S
H82 C85 0.929 1_655 S
H83 C88 0.929 . S
H84 C90 0.930 . S
C85 H82 0.929 1_455 S
C85 C86 1.398 1_455 S
C85 C87 1.396 . S
C86 C85 1.398 1_655 S
C86 C90 1.407 1_655 S
C87 C85 1.396 . S
C87 C88 1.394 . S
C88 H83 0.929 . S
C88 C87 1.394 . S
C88 C89 1.382 . S
C89 C88 1.382 . S
C89 C90 1.392 . S
C89 N91 1.420 . S
C90 H84 0.930 . S
C90 C86 1.407 1_455 S
C90 C89 1.392 . S
N91 C89 1.420 . S
N91 C92 1.244 . S
C92 N91 1.244 . S
H93 C96 0.929 . S
H94 C99 0.929 1_655 S
H95 C101 0.930 . S
C96 H93 0.929 . S
C96 C97 1.398 . S
C96 C98 1.396 . S
C97 C96 1.398 . S
C97 C101 1.407 . S
C98 C96 1.396 . S
C98 C99 1.394 . S
C99 H94 0.929 1_455 S
C99 C98 1.394 . S
C99 C100 1.382 . S
C100 C99 1.382 . S
C100 C101 1.392 . S
C100 N102 1.420 1_455 S
C101 H95 0.930 . S
C101 C97 1.407 . S
C101 C100 1.392 . S
N102 C100 1.420 1_655 S
N102 C103 1.244 . S
C103 N102 1.244 . S
H104 C107 0.929 . S
H105 C110 0.929 1_565 S
H106 C112 0.930 . S
C107 H104 0.929 . S
C107 C108 1.398 . S
C107 C109 1.396 . S
C108 C107 1.398 . S
C108 C112 1.407 . S
C109 C107 1.396 . S
C109 C110 1.394 . S
C110 H105 0.929 1_545 S
C110 C109 1.394 . S
C110 C111 1.382 . S
C111 C110 1.382 . S
C111 C112 1.392 . S
C111 N113 1.415 1_545 S
C112 H106 0.930 . S
C112 C108 1.407 . S
C112 C111 1.392 . S
N113 C111 1.415 1_565 S
N113 C114 1.249 . S
C114 N113 1.249 . S
H115 C118 0.929 . S
H116 C121 0.929 . S
H117 C123 0.930 . S
C118 H115 0.929 . S
C118 C119 1.398 . S
C118 C120 1.396 . S
C119 C118 1.398 . S
C119 C123 1.407 . S
C120 C118 1.396 . S
C120 C121 1.394 . S
C121 H116 0.929 . S
C121 C120 1.394 . S
C121 C122 1.382 . S
C122 C121 1.382 . S
C122 C123 1.392 . S
C122 N124 1.420 . S
C123 H117 0.930 . S
C123 C119 1.407 . S
C123 C122 1.392 . S
N124 C122 1.420 . S
N124 C125 1.244 . S
C125 N124 1.244 . S
H126 C138 0.930 . S
H127 C140 0.930 . S
H128 C141 0.930 . S
H129 C145 0.959 . S
H130 C145 0.959 . S
H131 C145 0.961 . S
H132 C146 0.960 . S
H133 C146 0.961 . S
H134 C146 0.959 . S
H135 C149 0.929 . S
H136 C150 0.931 . S
H137 C152 0.930 . S
C138 H126 0.930 . S
C138 C139 1.399 . S
C138 C143 1.399 . S
C139 C138 1.399 . S
C139 C140 1.376 . S
C140 H127 0.930 . S
C140 C139 1.376 . S
C140 C141 1.388 . S
C141 H128 0.930 . S
C141 C140 1.388 . S
C141 C142 1.390 . S
C142 C141 1.390 . S
C142 C143 1.394 . S
C142 C148 1.465 . S
C143 C138 1.399 . S
C143 C142 1.394 . S
C143 C144 1.516 . S
C144 C143 1.516 . S
C144 C145 1.502 . S
C144 C146 1.561 . S
C144 C147 1.526 . S
C145 H129 0.959 . S
C145 H130 0.959 . S
C145 H131 0.961 . S
C145 C144 1.502 . S
C146 H132 0.960 . S
C146 H133 0.961 . S
C146 H134 0.959 . S
C146 C144 1.561 . S
C147 C144 1.526 . S
C147 C148 1.396 . S
C147 C152 1.390 . S
C148 C142 1.465 . S
C148 C147 1.396 . S
C148 C149 1.399 . S
C149 H135 0.929 . S
C149 C148 1.399 . S
C149 C150 1.385 . S
C150 H136 0.931 . S
C150 C149 1.385 . S
C150 C151 1.389 . S
C151 C150 1.389 . S
C151 C152 1.387 . S
C152 H137 0.930 . S
C152 C147 1.390 . S
C152 C151 1.387 . S
H153 C165 0.930 . S
H154 C167 0.930 . S
H155 C168 0.930 . S
H156 C172 0.959 . S
H157 C172 0.959 . S
H158 C172 0.961 . S
H159 C173 0.960 . S
H160 C173 0.961 . S
H161 C173 0.959 . S
H162 C176 0.929 . S
H163 C177 0.931 . S
H164 C179 0.930 . S
C165 H153 0.930 . S
C165 C166 1.399 . S
C165 C170 1.399 . S
C166 C165 1.399 . S
C166 C167 1.376 . S
C167 H154 0.930 . S
C167 C166 1.376 . S
C167 C168 1.388 . S
C168 H155 0.930 . S
C168 C167 1.388 . S
C168 C169 1.390 . S
C169 C168 1.390 . S
C169 C170 1.394 . S
C169 C175 1.465 . S
C170 C165 1.399 . S
C170 C169 1.394 . S
C170 C171 1.516 . S
C171 C170 1.516 . S
C171 C172 1.502 . S
C171 C173 1.561 . S
C171 C174 1.526 . S
C172 H156 0.959 . S
C172 H157 0.959 . S
C172 H158 0.961 . S
C172 C171 1.502 . S
C173 H159 0.960 . S
C173 H160 0.961 . S
C173 H161 0.959 . S
C173 C171 1.561 . S
C174 C171 1.526 . S
C174 C175 1.396 . S
C174 C179 1.390 . S
C175 C169 1.465 . S
C175 C174 1.396 . S
C175 C176 1.399 . S
C176 H162 0.929 . S
C176 C175 1.399 . S
C176 C177 1.385 . S
C177 H163 0.931 . S
C177 C176 1.385 . S
C177 C178 1.389 . S
C178 C177 1.389 . S
C178 C179 1.387 . S
C179 H164 0.930 . S
C179 C174 1.390 . S
C179 C178 1.387 . S
H180 C192 0.930 . S
H181 C194 0.930 . S
H182 C195 0.930 . S
H183 C199 0.959 . S
H184 C199 0.959 . S
H185 C199 0.961 . S
H186 C200 0.960 . S
H187 C200 0.961 . S
H188 C200 0.959 . S
H189 C203 0.929 . S
H190 C204 0.931 . S
H191 C206 0.930 . S
C192 H180 0.930 . S
C192 C193 1.399 . S
C192 C197 1.399 . S
C193 C192 1.399 . S
C193 C194 1.376 . S
C194 H181 0.930 . S
C194 C193 1.376 . S
C194 C195 1.388 . S
C195 H182 0.930 . S
C195 C194 1.388 . S
C195 C196 1.390 . S
C196 C195 1.390 . S
C196 C197 1.394 . S
C196 C202 1.465 . S
C197 C192 1.399 . S
C197 C196 1.394 . S
C197 C198 1.516 . S
C198 C197 1.516 . S
C198 C199 1.502 . S
C198 C200 1.561 . S
C198 C201 1.526 . S
C199 H183 0.959 . S
C199 H184 0.959 . S
C199 H185 0.961 . S
C199 C198 1.502 . S
C200 H186 0.960 . S
C200 H187 0.961 . S
C200 H188 0.959 . S
C200 C198 1.561 . S
C201 C198 1.526 . S
C201 C202 1.396 . S
C201 C206 1.390 . S
C202 C196 1.465 . S
C202 C201 1.396 . S
C202 C203 1.399 . S
C203 H189 0.929 . S
C203 C202 1.399 . S
C203 C204 1.385 . S
C204 H190 0.931 . S
C204 C203 1.385 . S
C204 C205 1.389 . S
C205 C204 1.389 . S
C205 C206 1.387 . S
C206 H191 0.930 . S
C206 C201 1.390 . S
C206 C205 1.387 . S
H207 C219 0.930 . S
H208 C221 0.930 . S
H209 C222 0.930 . S
H210 C226 0.959 . S
H211 C226 0.959 . S
H212 C226 0.961 . S
H213 C227 0.960 . S
H214 C227 0.961 . S
H215 C227 0.959 . S
H216 C230 0.929 . S
H217 C231 0.931 . S
H218 C233 0.930 . S
C219 H207 0.930 . S
C219 C220 1.399 . S
C219 C224 1.399 . S
C220 C219 1.399 . S
C220 C221 1.376 . S
C221 H208 0.930 . S
C221 C220 1.376 . S
C221 C222 1.388 . S
C222 H209 0.930 . S
C222 C221 1.388 . S
C222 C223 1.390 . S
C223 C222 1.390 . S
C223 C224 1.394 . S
C223 C229 1.465 . S
C224 C219 1.399 . S
C224 C223 1.394 . S
C224 C225 1.516 . S
C225 C224 1.516 . S
C225 C226 1.502 . S
C225 C227 1.561 . S
C225 C228 1.526 . S
C226 H210 0.959 . S
C226 H211 0.959 . S
C226 H212 0.961 . S
C226 C225 1.502 . S
C227 H213 0.960 . S
C227 H214 0.961 . S
C227 H215 0.959 . S
C227 C225 1.561 . S
C228 C225 1.526 . S
C228 C229 1.396 . S
C228 C233 1.390 . S
C229 C223 1.465 . S
C229 C228 1.396 . S
C229 C230 1.399 . S
C230 H216 0.929 . S
C230 C229 1.399 . S
C230 C231 1.385 . S
C231 H217 0.931 . S
C231 C230 1.385 . S
C231 C232 1.389 . S
C232 C231 1.389 . S
C232 C233 1.387 . S
C233 H218 0.930 . S
C233 C228 1.390 . S
C233 C232 1.387 . S
H234 C246 0.930 . S
H235 C248 0.930 . S
H236 C249 0.930 . S
H237 C253 0.959 . S
H238 C253 0.959 . S
H239 C253 0.961 . S
H240 C254 0.960 . S
H241 C254 0.961 . S
H242 C254 0.959 . S
H243 C257 0.929 . S
H244 C258 0.931 . S
H245 C260 0.930 . S
C246 H234 0.930 . S
C246 C247 1.399 . S
C246 C251 1.399 . S
C247 C246 1.399 . S
C247 C248 1.376 . S
C248 H235 0.930 . S
C248 C247 1.376 . S
C248 C249 1.388 . S
C249 H236 0.930 . S
C249 C248 1.388 . S
C249 C250 1.390 . S
C250 C249 1.390 . S
C250 C251 1.394 . S
C250 C256 1.465 . S
C251 C246 1.399 . S
C251 C250 1.394 . S
C251 C252 1.516 . S
C252 C251 1.516 . S
C252 C253 1.502 . S
C252 C254 1.561 . S
C252 C255 1.526 . S
C253 H237 0.959 . S
C253 H238 0.959 . S
C253 H239 0.961 . S
C253 C252 1.502 . S
C254 H240 0.960 . S
C254 H241 0.961 . S
C254 H242 0.959 . S
C254 C252 1.561 . S
C255 C252 1.526 . S
C255 C256 1.396 . S
C255 C260 1.390 . S
C256 C250 1.465 . S
C256 C255 1.396 . S
C256 C257 1.399 . S
C257 H243 0.929 . S
C257 C256 1.399 . S
C257 C258 1.385 . S
C258 H244 0.931 . S
C258 C257 1.385 . S
C258 C259 1.389 . S
C259 C258 1.389 . S
C259 C260 1.387 . S
C260 H245 0.930 . S
C260 C255 1.390 . S
C260 C259 1.387 . S
H261 C273 0.930 . S
H262 C275 0.930 . S
H263 C276 0.930 . S
H264 C280 0.959 . S
H265 C280 0.959 . S
H266 C280 0.961 . S
H267 C281 0.960 . S
H268 C281 0.961 . S
H269 C281 0.959 . S
H270 C284 0.929 . S
H271 C285 0.931 . S
H272 C287 0.930 . S
C273 H261 0.930 . S
C273 C274 1.399 . S
C273 C278 1.399 . S
C274 C273 1.399 . S
C274 C275 1.376 . S
C275 H262 0.930 . S
C275 C274 1.376 . S
C275 C276 1.388 . S
C276 H263 0.930 . S
C276 C275 1.388 . S
C276 C277 1.390 . S
C277 C276 1.390 . S
C277 C278 1.394 . S
C277 C283 1.465 . S
C278 C273 1.399 . S
C278 C277 1.394 . S
C278 C279 1.516 . S
C279 C278 1.516 . S
C279 C280 1.502 . S
C279 C281 1.561 . S
C279 C282 1.526 . S
C280 H264 0.959 . S
C280 H265 0.959 . S
C280 H266 0.961 . S
C280 C279 1.502 . S
C281 H267 0.960 . S
C281 H268 0.961 . S
C281 H269 0.959 . S
C281 C279 1.561 . S
C282 C279 1.526 . S
C282 C283 1.396 . S
C282 C287 1.390 . S
C283 C277 1.465 . S
C283 C282 1.396 . S
C283 C284 1.399 . S
C284 H270 0.929 . S
C284 C283 1.399 . S
C284 C285 1.385 . S
C285 H271 0.931 . S
C285 C284 1.385 . S
C285 C286 1.389 . S
C286 C285 1.389 . S
C286 C287 1.387 . S
C287 H272 0.930 . S
C287 C282 1.390 . S
C287 C286 1.387 . S
H288 C300 0.930 . S
H289 C302 0.930 . S
H290 C303 0.930 . S
H291 C307 0.959 . S
H292 C307 0.959 . S
H293 C307 0.961 . S
H294 C308 0.960 . S
H295 C308 0.961 . S
H296 C308 0.959 . S
H297 C311 0.929 . S
H298 C312 0.931 . S
H299 C314 0.930 . S
C300 H288 0.930 . S
C300 C301 1.399 . S
C300 C305 1.399 . S
C301 C300 1.399 . S
C301 C302 1.376 . S
C302 H289 0.930 . S
C302 C301 1.376 . S
C302 C303 1.388 . S
C303 H290 0.930 . S
C303 C302 1.388 . S
C303 C304 1.390 . S
C304 C303 1.390 . S
C304 C305 1.394 . S
C304 C310 1.465 . S
C305 C300 1.399 . S
C305 C304 1.394 . S
C305 C306 1.516 . S
C306 C305 1.516 . S
C306 C307 1.502 . S
C306 C308 1.561 . S
C306 C309 1.526 . S
C307 H291 0.959 . S
C307 H292 0.959 . S
C307 H293 0.961 . S
C307 C306 1.502 . S
C308 H294 0.960 . S
C308 H295 0.961 . S
C308 H296 0.959 . S
C308 C306 1.561 . S
C309 C306 1.526 . S
C309 C310 1.396 . S
C309 C314 1.390 . S
C310 C304 1.465 . S
C310 C309 1.396 . S
C310 C311 1.399 . S
C311 H297 0.929 . S
C311 C310 1.399 . S
C311 C312 1.385 . S
C312 H298 0.931 . S
C312 C311 1.385 . S
C312 C313 1.389 . S
C313 C312 1.389 . S
C313 C314 1.387 . S
C314 H299 0.930 . S
C314 C309 1.390 . S
C314 C313 1.387 . S
H315 C327 0.930 . S
H316 C329 0.930 . S
H317 C330 0.930 . S
H318 C334 0.959 . S
H319 C334 0.959 . S
H320 C334 0.961 . S
H321 C335 0.960 . S
H322 C335 0.961 . S
H323 C335 0.959 . S
H324 C338 0.929 . S
H325 C339 0.931 . S
H326 C341 0.930 . S
C327 H315 0.930 . S
C327 C328 1.399 . S
C327 C332 1.399 . S
C328 C327 1.399 . S
C328 C329 1.376 . S
C329 H316 0.930 . S
C329 C328 1.376 . S
C329 C330 1.388 . S
C330 H317 0.930 . S
C330 C329 1.388 . S
C330 C331 1.390 . S
C331 C330 1.390 . S
C331 C332 1.394 . S
C331 C337 1.465 . S
C332 C327 1.399 . S
C332 C331 1.394 . S
C332 C333 1.516 . S
C333 C332 1.516 . S
C333 C334 1.502 . S
C333 C335 1.561 . S
C333 C336 1.526 . S
C334 H318 0.959 . S
C334 H319 0.959 . S
C334 H320 0.961 . S
C334 C333 1.502 . S
C335 H321 0.960 . S
C335 H322 0.961 . S
C335 H323 0.959 . S
C335 C333 1.561 . S
C336 C333 1.526 . S
C336 C337 1.396 . S
C336 C341 1.390 . S
C337 C331 1.465 . S
C337 C336 1.396 . S
C337 C338 1.399 . S
C338 H324 0.929 . S
C338 C337 1.399 . S
C338 C339 1.385 . S
C339 H325 0.931 . S
C339 C338 1.385 . S
C339 C340 1.389 . S
C340 C339 1.389 . S
C340 C341 1.387 . S
C341 H326 0.930 . S
C341 C336 1.390 . S
C341 C340 1.387 . S
H342 C354 0.930 . S
H343 C356 0.930 . S
H344 C357 0.930 . S
H345 C361 0.959 . S
H346 C361 0.959 . S
H347 C361 0.961 . S
H348 C362 0.960 . S
H349 C362 0.961 . S
H350 C362 0.959 . S
H351 C365 0.929 . S
H352 C366 0.931 . S
H353 C368 0.930 . S
C354 H342 0.930 . S
C354 C355 1.399 . S
C354 C359 1.399 . S
C355 C354 1.399 . S
C355 C356 1.376 . S
C356 H343 0.930 . S
C356 C355 1.376 . S
C356 C357 1.388 . S
C357 H344 0.930 . S
C357 C356 1.388 . S
C357 C358 1.390 . S
C358 C357 1.390 . S
C358 C359 1.394 . S
C358 C364 1.465 . S
C359 C354 1.399 . S
C359 C358 1.394 . S
C359 C360 1.516 . S
C360 C359 1.516 . S
C360 C361 1.502 . S
C360 C362 1.561 . S
C360 C363 1.526 . S
C361 H345 0.959 . S
C361 H346 0.959 . S
C361 H347 0.961 . S
C361 C360 1.502 . S
C362 H348 0.960 . S
C362 H349 0.961 . S
C362 H350 0.959 . S
C362 C360 1.561 . S
C363 C360 1.526 . S
C363 C364 1.396 . S
C363 C368 1.390 . S
C364 C358 1.465 . S
C364 C363 1.396 . S
C364 C365 1.399 . S
C365 H351 0.929 . S
C365 C364 1.399 . S
C365 C366 1.385 . S
C366 H352 0.931 . S
C366 C365 1.385 . S
C366 C367 1.389 . S
C367 C366 1.389 . S
C367 C368 1.387 . S
C368 H353 0.930 . S
C368 C363 1.390 . S
C368 C367 1.387 . S
H369 C381 0.930 . S
H370 C383 0.930 . S
H371 C384 0.930 . S
H372 C388 0.959 . S
H373 C388 0.959 . S
H374 C388 0.961 . S
H375 C389 0.960 . S
H376 C389 0.961 . S
H377 C389 0.959 . S
H378 C392 0.929 . S
H379 C393 0.931 . S
H380 C395 0.930 . S
C381 H369 0.930 . S
C381 C382 1.399 . S
C381 C386 1.399 . S
C382 C381 1.399 . S
C382 C383 1.376 . S
C383 H370 0.930 . S
C383 C382 1.376 . S
C383 C384 1.388 . S
C384 H371 0.930 . S
C384 C383 1.388 . S
C384 C385 1.390 . S
C385 C384 1.390 . S
C385 C386 1.394 . S
C385 C391 1.465 . S
C386 C381 1.399 . S
C386 C385 1.394 . S
C386 C387 1.516 . S
C387 C386 1.516 . S
C387 C388 1.502 . S
C387 C389 1.561 . S
C387 C390 1.526 . S
C388 H372 0.959 . S
C388 H373 0.959 . S
C388 H374 0.961 . S
C388 C387 1.502 . S
C389 H375 0.960 . S
C389 H376 0.961 . S
C389 H377 0.959 . S
C389 C387 1.561 . S
C390 C387 1.526 . S
C390 C391 1.396 . S
C390 C395 1.390 . S
C391 C385 1.465 . S
C391 C390 1.396 . S
C391 C392 1.399 . S
C392 H378 0.929 . S
C392 C391 1.399 . S
C392 C393 1.385 . S
C393 H379 0.931 . S
C393 C392 1.385 . S
C393 C394 1.389 . S
C394 C393 1.389 . S
C394 C395 1.387 . S
C395 H380 0.930 . S
C395 C390 1.390 . S
C395 C394 1.387 . S
H396 C408 0.930 . S
H397 C410 0.930 . S
H398 C411 0.930 . S
H399 C415 0.959 . S
H400 C415 0.959 . S
H401 C415 0.961 . S
H402 C416 0.960 . S
H403 C416 0.961 . S
H404 C416 0.959 . S
H405 C419 0.929 . S
H406 C420 0.931 . S
H407 C422 0.930 . S
C408 H396 0.930 . S
C408 C409 1.399 . S
C408 C413 1.399 . S
C409 C408 1.399 . S
C409 C410 1.376 . S
C410 H397 0.930 . S
C410 C409 1.376 . S
C410 C411 1.388 . S
C411 H398 0.930 . S
C411 C410 1.388 . S
C411 C412 1.390 . S
C412 C411 1.390 . S
C412 C413 1.394 . S
C412 C418 1.465 . S
C413 C408 1.399 . S
C413 C412 1.394 . S
C413 C414 1.516 . S
C414 C413 1.516 . S
C414 C415 1.502 . S
C414 C416 1.561 . S
C414 C417 1.526 . S
C415 H399 0.959 . S
C415 H400 0.959 . S
C415 H401 0.961 . S
C415 C414 1.502 . S
C416 H402 0.960 . S
C416 H403 0.961 . S
C416 H404 0.959 . S
C416 C414 1.561 . S
C417 C414 1.526 . S
C417 C418 1.396 . S
C417 C422 1.390 . S
C418 C412 1.465 . S
C418 C417 1.396 . S
C418 C419 1.399 . S
C419 H405 0.929 . S
C419 C418 1.399 . S
C419 C420 1.385 . S
C420 H406 0.931 . S
C420 C419 1.385 . S
C420 C421 1.389 . S
C421 C420 1.389 . S
C421 C422 1.387 . S
C422 H407 0.930 . S
C422 C417 1.390 . S
C422 C421 1.387 . S
H423 C435 0.930 . S
H424 C437 0.930 . S
H425 C438 0.930 . S
H426 C442 0.959 . S
H427 C442 0.959 . S
H428 C442 0.961 . S
H429 C443 0.960 . S
H430 C443 0.961 . S
H431 C443 0.959 . S
H432 C446 0.929 . S
H433 C447 0.931 . S
H434 C449 0.930 . S
C435 H423 0.930 . S
C435 C436 1.399 . S
C435 C440 1.399 . S
C436 C435 1.399 . S
C436 C437 1.376 . S
C437 H424 0.930 . S
C437 C436 1.376 . S
C437 C438 1.388 . S
C438 H425 0.930 . S
C438 C437 1.388 . S
C438 C439 1.390 . S
C439 C438 1.390 . S
C439 C440 1.394 . S
C439 C445 1.465 . S
C440 C435 1.399 . S
C440 C439 1.394 . S
C440 C441 1.516 . S
C441 C440 1.516 . S
C441 C442 1.502 . S
C441 C443 1.561 . S
C441 C444 1.526 . S
C442 H426 0.959 . S
C442 H427 0.959 . S
C442 H428 0.961 . S
C442 C441 1.502 . S
C443 H429 0.960 . S
C443 H430 0.961 . S
C443 H431 0.959 . S
C443 C441 1.561 . S
C444 C441 1.526 . S
C444 C445 1.396 . S
C444 C449 1.390 . S
C445 C439 1.465 . S
C445 C444 1.396 . S
C445 C446 1.399 . S
C446 H432 0.929 . S
C446 C445 1.399 . S
C446 C447 1.385 . S
C447 H433 0.931 . S
C447 C446 1.385 . S
C447 C448 1.389 . S
C448 C447 1.389 . S
C448 C449 1.387 . S
C449 H434 0.930 . S
C449 C444 1.390 . S
C449 C448 1.387 . S
H450 C462 0.930 . S
H451 C464 0.930 . S
H452 C465 0.930 . S
H453 C469 0.959 1_655 S
H454 C469 0.959 1_556 S
H455 C469 0.961 . S
H456 C470 0.960 . S
H457 C470 0.961 . S
H458 C470 0.959 . S
H459 C473 0.929 . S
H460 C474 0.931 . S
H461 C476 0.930 . S
C462 H450 0.930 . S
C462 C463 1.399 . S
C462 C467 1.399 . S
C463 C462 1.399 . S
C463 C464 1.376 . S
C464 H451 0.930 . S
C464 C463 1.376 . S
C464 C465 1.388 . S
C465 H452 0.930 . S
C465 C464 1.388 . S
C465 C466 1.390 . S
C466 C465 1.390 . S
C466 C467 1.394 . S
C466 C472 1.465 . S
C467 C462 1.399 . S
C467 C466 1.394 . S
C467 C468 1.516 . S
C468 C467 1.516 . S
C468 C469 1.502 . S
C468 C470 1.561 . S
C468 C471 1.526 1_554 S
C469 H453 0.959 1_455 S
C469 H454 0.959 1_554 S
C469 H455 0.961 . S
C469 C468 1.502 . S
C470 H456 0.960 . S
C470 H457 0.961 . S
C470 H458 0.959 . S
C470 C468 1.561 . S
C471 C468 1.526 1_556 S
C471 C472 1.396 1_556 S
C471 C476 1.390 . S
C472 C466 1.465 . S
C472 C471 1.396 1_554 S
C472 C473 1.399 1_554 S
C473 H459 0.929 . S
C473 C472 1.399 1_556 S
C473 C474 1.385 . S
C474 H460 0.931 . S
C474 C473 1.385 . S
C474 C475 1.389 . S
C475 C474 1.389 . S
C475 C476 1.387 . S
C476 H461 0.930 . S
C476 C471 1.390 . S
C476 C475 1.387 . S
H477 C489 0.930 1_565 S
H478 C491 0.930 . S
H479 C492 0.930 . S
H480 C496 0.959 . S
H481 C496 0.959 . S
H482 C496 0.961 . S
H483 C497 0.960 . S
H484 C497 0.961 . S
H485 C497 0.959 . S
H486 C500 0.929 . S
H487 C501 0.931 . S
H488 C503 0.930 1_565 S
C489 H477 0.930 1_545 S
C489 C490 1.399 . S
C489 C494 1.399 . S
C490 C489 1.399 . S
C490 C491 1.376 . S
C491 H478 0.930 . S
C491 C490 1.376 . S
C491 C492 1.388 . S
C492 H479 0.930 . S
C492 C491 1.388 . S
C492 C493 1.390 . S
C493 C492 1.390 . S
C493 C494 1.394 . S
C493 C499 1.465 . S
C494 C489 1.399 . S
C494 C493 1.394 . S
C494 C495 1.516 1_545 S
C495 C494 1.516 1_565 S
C495 C496 1.502 . S
C495 C497 1.561 . S
C495 C498 1.526 1_565 S
C496 H480 0.959 . S
C496 H481 0.959 . S
C496 H482 0.961 . S
C496 C495 1.502 . S
C497 H483 0.960 . S
C497 H484 0.961 . S
C497 H485 0.959 . S
C497 C495 1.561 . S
C498 C495 1.526 1_545 S
C498 C499 1.396 . S
C498 C503 1.390 . S
C499 C493 1.465 . S
C499 C498 1.396 . S
C499 C500 1.399 . S
C500 H486 0.929 . S
C500 C499 1.399 . S
C500 C501 1.385 . S
C501 H487 0.931 . S
C501 C500 1.385 . S
C501 C502 1.389 . S
C502 C501 1.389 . S
C502 C503 1.387 . S
C503 H488 0.930 1_545 S
C503 C498 1.390 . S
C503 C502 1.387 . S
H504 C516 0.930 . S
H505 C518 0.930 . S
H506 C519 0.930 . S
H507 C523 0.959 . S
H508 C523 0.959 . S
H509 C523 0.961 . S
H510 C524 0.960 . S
H511 C524 0.961 . S
H512 C524 0.959 . S
H513 C527 0.929 . S
H514 C528 0.931 . S
H515 C530 0.930 . S
C516 H504 0.930 . S
C516 C517 1.399 . S
C516 C521 1.399 . S
C517 C516 1.399 . S
C517 C518 1.376 . S
C518 H505 0.930 . S
C518 C517 1.376 . S
C518 C519 1.388 . S
C519 H506 0.930 . S
C519 C518 1.388 . S
C519 C520 1.390 . S
C520 C519 1.390 . S
C520 C521 1.394 . S
C520 C526 1.465 . S
C521 C516 1.399 . S
C521 C520 1.394 . S
C521 C522 1.516 . S
C522 C521 1.516 . S
C522 C523 1.502 . S
C522 C524 1.561 . S
C522 C525 1.526 . S
C523 H507 0.959 . S
C523 H508 0.959 . S
C523 H509 0.961 . S
C523 C522 1.502 . S
C524 H510 0.960 . S
C524 H511 0.961 . S
C524 H512 0.959 . S
C524 C522 1.561 . S
C525 C522 1.526 . S
C525 C526 1.396 . S
C525 C530 1.390 . S
C526 C520 1.465 . S
C526 C525 1.396 . S
C526 C527 1.399 . S
C527 H513 0.929 . S
C527 C526 1.399 . S
C527 C528 1.385 . S
C528 H514 0.931 . S
C528 C527 1.385 . S
C528 C529 1.389 . S
C529 C528 1.389 . S
C529 C530 1.387 . S
C530 H515 0.930 . S
C530 C525 1.390 . S
C530 C529 1.387 . S
H531 C543 0.930 1_565 S
H532 C545 0.930 . S
H533 C546 0.930 . S
H534 C550 0.959 . S
H535 C550 0.959 . S
H536 C550 0.961 . S
H537 C551 0.960 . S
H538 C551 0.961 . S
H539 C551 0.959 . S
H540 C554 0.929 . S
H541 C555 0.931 . S
H542 C557 0.930 1_565 S
C543 H531 0.930 1_545 S
C543 C544 1.399 . S
C543 C548 1.399 . S
C544 C543 1.399 . S
C544 C545 1.376 . S
C545 H532 0.930 . S
C545 C544 1.376 . S
C545 C546 1.388 . S
C546 H533 0.930 . S
C546 C545 1.388 . S
C546 C547 1.390 . S
C547 C546 1.390 . S
C547 C548 1.394 . S
C547 C553 1.465 . S
C548 C543 1.399 . S
C548 C547 1.394 . S
C548 C549 1.516 1_545 S
C549 C548 1.516 1_565 S
C549 C550 1.502 . S
C549 C551 1.561 . S
C549 C552 1.526 1_565 S
C550 H534 0.959 . S
C550 H535 0.959 . S
C550 H536 0.961 . S
C550 C549 1.502 . S
C551 H537 0.960 . S
C551 H538 0.961 . S
C551 H539 0.959 . S
C551 C549 1.561 . S
C552 C549 1.526 1_545 S
C552 C553 1.396 . S
C552 C557 1.390 . S
C553 C547 1.465 . S
C553 C552 1.396 . S
C553 C554 1.399 . S
C554 H540 0.929 . S
C554 C553 1.399 . S
C554 C555 1.385 . S
C555 H541 0.931 . S
C555 C554 1.385 . S
C555 C556 1.389 . S
C556 C555 1.389 . S
C556 C557 1.387 . S
C557 H542 0.930 1_545 S
C557 C552 1.390 . S
C557 C556 1.387 . S
H558 C570 0.930 . S
H559 C572 0.930 . S
H560 C573 0.930 . S
H561 C577 0.959 . S
H562 C577 0.959 . S
H563 C577 0.961 . S
H564 C578 0.960 . S
H565 C578 0.961 . S
H566 C578 0.959 . S
H567 C581 0.929 . S
H568 C582 0.931 . S
H569 C584 0.930 . S
C570 H558 0.930 . S
C570 C571 1.399 . S
C570 C575 1.399 . S
C571 C570 1.399 . S
C571 C572 1.376 . S
C572 H559 0.930 . S
C572 C571 1.376 . S
C572 C573 1.388 . S
C573 H560 0.930 . S
C573 C572 1.388 . S
C573 C574 1.390 . S
C574 C573 1.390 . S
C574 C575 1.394 . S
C574 C580 1.502 . S
C575 C570 1.399 . S
C575 C574 1.394 . S
C575 C576 1.516 . S
C576 C575 1.516 . S
C576 C577 1.502 . S
C576 C578 1.561 . S
C576 C579 1.526 1_556 S
C577 H561 0.959 . S
C577 H562 0.959 . S
C577 H563 0.961 . S
C577 C576 1.502 . S
C578 H564 0.960 . S
C578 H565 0.961 . S
C578 H566 0.959 . S
C578 C576 1.561 . S
C579 C576 1.526 1_554 S
C579 C580 1.384 1_554 S
C579 C584 1.390 . S
C580 C574 1.502 . S
C580 C579 1.384 1_556 S
C580 C581 1.376 1_556 S
C581 H567 0.929 . S
C581 C580 1.376 1_554 S
C581 C582 1.385 . S
C582 H568 0.931 . S
C582 C581 1.385 . S
C582 C583 1.389 . S
C583 C582 1.389 . S
C583 C584 1.387 . S
C584 H569 0.930 . S
C584 C579 1.390 . S
C584 C583 1.387 . S
H585 C597 0.930 . S
H586 C599 0.930 . S
H587 C600 0.930 . S
H588 C604 0.959 . S
H589 C604 0.959 . S
H590 C604 0.961 . S
H591 C605 0.960 . S
H592 C605 0.961 . S
H593 C605 0.959 . S
H594 C608 0.929 . S
H595 C609 0.931 . S
H596 C611 0.930 . S
C597 H585 0.930 . S
C597 C598 1.399 1_655 S
C597 C602 1.397 1_655 S
C598 C597 1.399 1_455 S
C598 C599 1.376 . S
C599 H586 0.930 . S
C599 C598 1.376 . S
C599 C600 1.388 . S
C600 H587 0.930 . S
C600 C599 1.388 . S
C600 C601 1.390 . S
C601 C600 1.390 . S
C601 C602 1.401 . S
C601 C607 1.465 . S
C602 C597 1.397 1_455 S
C602 C601 1.401 . S
C602 C603 1.512 1_455 S
C603 C602 1.512 1_655 S
C603 C604 1.502 . S
C603 C605 1.561 . S
C603 C606 1.526 1_655 S
C604 H588 0.959 . S
C604 H589 0.959 . S
C604 H590 0.961 . S
C604 C603 1.502 . S
C605 H591 0.960 . S
C605 H592 0.961 . S
C605 H593 0.959 . S
C605 C603 1.561 . S
C606 C603 1.526 1_455 S
C606 C607 1.396 . S
C606 C611 1.390 1_455 S
C607 C601 1.465 . S
C607 C606 1.396 . S
C607 C608 1.399 . S
C608 H594 0.929 . S
C608 C607 1.399 . S
C608 C609 1.385 . S
C609 H595 0.931 . S
C609 C608 1.385 . S
C609 C610 1.389 . S
C610 C609 1.389 . S
C610 C611 1.387 1_455 S
C611 H596 0.930 . S
C611 C606 1.390 1_655 S
C611 C610 1.387 1_655 S
C139 C2 1.457 . S
C151 C125 1.530 . S
C166 C22 1.483 . S
C178 C103 1.486 . S
C193 C44 1.421 . S
C205 C114 1.533 . S
C220 C4 1.470 . S
C232 C119 1.499 . S
C259 C97 1.533 . S
C247 C24 1.400 . S
C286 C108 1.497 . S
C274 C42 1.343 . S
C301 C32 1.388 . S
C313 C81 1.408 . S
C328 C49 1.130 . S
C340 C86 1.161 . S
C355 C9 1.187 . S
C367 C64 1.144 . S
C394 C75 1.219 . S
C382 C29 1.099 . S
C421 C92 1.291 . S
C409 C52 1.285 . S
C436 C12 1.299 . S
C448 C70 1.360 . S
C475 C87 1.493 . S
C463 C18 1.498 . S
C490 C38 1.472 . S
C502 C65 1.474 . S
C517 C58 1.488 . S
C529 C76 1.474 . S
C556 C109 1.500 . S
C544 C39 1.476 . S
C583 C120 1.512 . S
C571 C59 1.521 . S
C598 C19 1.474 . S
C610 C98 1.523 . S
