# Generated by pormake.
# Topology rtl, (3,6)-cn, num edge types: 1
# Building blocks:
#     Node 0, Type 0, BuildingBlock: BETDAH_clean_linker_0, # of connection points: 3
#     Node 1, Type 0, BuildingBlock: BETDAH_clean_linker_0, # of connection points: 3
#     Node 2, Type 0, BuildingBlock: BETDAH_clean_linker_0, # of connection points: 3
#     Node 3, Type 0, BuildingBlock: BETDAH_clean_linker_0, # of connection points: 3
#     Node 4, Type 1, BuildingBlock: KUMBOL_clean_sbu_1, # of connection points: 6
#     Node 5, Type 1, BuildingBlock: KUMBOL_clean_sbu_1, # of connection points: 6
#     Edge 6, Type (0, 1), BuildingBlock: XUDNAN_clean_linker_2, # of connection points: 2
#     Edge 7, Type (0, 1), BuildingBlock: XUDNAN_clean_linker_2, # of connection points: 2
#     Edge 8, Type (0, 1), BuildingBlock: XUDNAN_clean_linker_2, # of connection points: 2
#     Edge 9, Type (0, 1), BuildingBlock: XUDNAN_clean_linker_2, # of connection points: 2
#     Edge 10, Type (0, 1), BuildingBlock: XUDNAN_clean_linker_2, # of connection points: 2
#     Edge 11, Type (0, 1), BuildingBlock: XUDNAN_clean_linker_2, # of connection points: 2
#     Edge 12, Type (0, 1), BuildingBlock: XUDNAN_clean_linker_2, # of connection points: 2
#     Edge 13, Type (0, 1), BuildingBlock: XUDNAN_clean_linker_2, # of connection points: 2
#     Edge 14, Type (0, 1), BuildingBlock: XUDNAN_clean_linker_2, # of connection points: 2
#     Edge 15, Type (0, 1), BuildingBlock: XUDNAN_clean_linker_2, # of connection points: 2
#     Edge 16, Type (0, 1), BuildingBlock: XUDNAN_clean_linker_2, # of connection points: 2
#     Edge 17, Type (0, 1), BuildingBlock: XUDNAN_clean_linker_2, # of connection points: 2
# Relax obj value: 0.049
# Max RMSD: 0.219
# Mean RMSD: 0.157
data_MOF--net-rtl--node1-KUMBOL_clean_sbu_1--node2-BETDAH_clean_linker_0--edge1-XUDNAN_clean_linker_2
_symmetry_space_group_name_H-M    P1
_symmetry_Int_Tables_number       1
_symmetry_cell_setting            triclinic
loop_
_symmetry_equiv_pos_as_xyz
'x, y, z'
_cell_length_a     35.353433
_cell_length_b     35.532225
_cell_length_c     27.104273
_cell_angle_alpha  78.46563
_cell_angle_beta   100.48433
_cell_angle_gamma 91.085301
loop_
_atom_site_label
_atom_site_type_symbol
_atom_site_fract_x
_atom_site_fract_y
_atom_site_fract_z
_atom_type_partial_charge
H0 H 0.16848 0.88718 1.00152 0.0
H1 H 0.21375 0.78383 0.1072 0.0
H2 H 0.22756 0.80133 0.95065 0.0
C3 C 0.18352 0.85973 0.00994 0.0
C4 C 0.19629 0.84659 0.96993 0.0
C5 C 0.19029 0.83794 0.0603 0.0
C6 C 0.20982 0.80232 0.06962 0.0
C7 C 0.2244 0.78973 0.0309 0.0
C8 C 0.21791 0.81204 0.98108 0.0
N9 N 0.24208 0.75272 0.04226 0.0
C10 C 0.27642 0.74443 0.02809 0.0
H11 H 0.64414 0.65638 0.65176 0.0
H12 H 0.70749 0.75058 0.58088 0.0
H13 H 0.70685 0.73168 0.74224 0.0
C14 C 0.66245 0.68096 0.65464 0.0
C15 C 0.67444 0.69105 0.7025 0.0
C16 C 0.67413 0.70232 0.61049 0.0
C17 C 0.69842 0.73388 0.61463 0.0
C18 C 0.71032 0.74434 0.66229 0.0
C19 C 0.69792 0.72315 0.70569 0.0
N20 N 0.73253 0.77751 0.66739 0.0
C21 C 0.7647 0.78773 0.645 0.0
H22 H 0.89371 0.14429 0.10994 0.0
H23 H 0.80159 0.20658 0.14362 0.0
H24 H 0.80069 0.19307 0.9893 0.0
C25 C 0.8667 0.16024 0.09694 0.0
C26 C 0.84996 0.16766 0.04474 0.0
C27 C 0.8494 0.17401 0.1327 0.0
C28 C 0.81522 0.19615 0.11608 0.0
C29 C 0.79759 0.20278 0.06414 0.0
C30 C 0.81486 0.18823 0.02906 0.0
N31 N 0.76118 0.22149 0.04633 0.0
C32 C 0.74967 0.25377 0.06188 0.0
H33 H 0.37544 0.39027 0.43626 0.0
H34 H 0.29201 0.31516 0.50165 0.0
H35 H 0.30073 0.32526 0.34333 0.0
C36 C 0.35299 0.36922 0.43301 0.0
C37 C 0.34064 0.35899 0.38556 0.0
C38 C 0.33501 0.35459 0.47504 0.0
C39 C 0.30647 0.32649 0.47 0.0
C40 C 0.29454 0.31538 0.42249 0.0
C41 C 0.31112 0.33248 0.38041 0.0
N42 N 0.26387 0.28967 0.41392 0.0
C43 C 0.2515 0.26147 0.45084 0.0
C44 C 0.92841 0.09676 0.52635 0.0
C45 C 0.86948 0.06103 0.52348 0.0
C46 C 0.90947 0.06318 0.54052 0.0
C47 C 0.8498 0.09204 0.48826 0.0
C48 C 0.90837 0.12905 0.49413 0.0
C49 C 0.86925 0.12605 0.47358 0.0
N50 N 0.96606 0.09863 0.54709 0.0
C51 C 0.98489 0.13265 0.54068 0.0
C52 C 0.92797 0.16368 0.48518 0.0
C53 C 0.96622 0.16566 0.50938 0.0
Gd54 Gd 0.03849 0.97483 0.50742 0.0
Gd55 Gd 0.99682 0.04166 0.59541 0.0
N56 N 0.92936 0.03427 0.57544 0.0
C57 C 0.85016 0.02889 0.54488 0.0
C58 C 0.90983 0.00524 0.60062 0.0
C59 C 0.87026 1.00153 0.58485 0.0
H60 H 0.9246 0.98478 0.63309 0.0
H61 H 0.85524 0.97792 0.60417 0.0
H62 H 0.12659 0.93952 0.56762 0.0
H63 H 0.01471 0.13383 0.55836 0.0
H64 H 0.15479 0.87998 0.62569 0.0
H65 H 0.81943 0.02615 0.53308 0.0
H66 H 0.81921 0.09067 0.47403 0.0
H67 H 0.96115 0.948 0.43249 0.0
H68 H 0.91361 0.18919 0.46072 0.0
H69 H 0.98147 0.19241 0.50339 0.0
H70 H 0.05067 0.79119 0.62104 0.0
H71 H 0.85344 0.1503 0.44801 0.0
H72 H 0.93859 0.83041 0.49263 0.0
H73 H 0.92062 0.89062 0.42901 0.0
N74 N 1.00131 0.92031 0.49709 0.0
C75 C 0.01272 0.88706 0.53037 0.0
C76 C 0.96956 0.92151 0.45953 0.0
C77 C 0.95655 0.85536 0.49396 0.0
C78 C 0.94642 0.88923 0.45781 0.0
C79 C 0.99052 0.8537 0.53018 0.0
H80 H 0.98676 0.79379 0.56592 0.0
N81 N 0.06986 0.91777 0.55685 0.0
C82 C 0.04821 0.88581 0.56172 0.0
C83 C 0.10149 0.84937 0.61842 0.0
C84 C 0.06312 0.85087 0.5933 0.0
C85 C 0.10844 0.91512 0.57618 0.0
C86 C 0.12457 0.88137 0.60862 0.0
O87 O 1.00093 0.06463 0.51217 0.0
O88 O 0.98551 0.01227 0.47611 0.0
O89 O 0.04709 0.00759 0.43337 0.0
O90 O 0.06765 0.94909 0.45792 0.0
O91 O 0.98508 0.97789 0.60624 0.0
O92 O 0.97765 0.97211 0.52324 0.0
O93 O 0.07523 0.98006 0.58397 0.0
O94 O 0.02954 0.98623 0.63212 0.0
O95 O 0.97254 0.05467 0.65827 0.0
O96 O 0.03243 0.06551 0.6557 0.0
O97 O 0.07764 0.02385 0.52643 0.0
O98 O 0.05193 0.0652 0.57067 0.0
C99 C 0.98578 0.04955 0.47278 0.0
C100 C 0.97114 0.9596 0.56959 0.0
C101 C 0.0471 0.97052 0.36943 0.0
C102 C 0.05778 0.94378 0.29612 0.0
C103 C 0.99366 0.96509 0.30134 0.0
C104 C 1.00797 0.97598 0.34778 0.0
C105 C 0.01812 0.94881 0.27594 0.0
C106 C 0.07192 0.95509 0.34314 0.0
C107 C 0.06227 0.97873 0.42056 0.0
C108 C 0.04002 0.81814 0.59628 0.0
C109 C 1.00369 0.81958 0.56477 0.0
H110 H 0.1141 0.8231 0.64307 0.0
C111 C 0.06497 0.97841 0.62869 0.0
C112 C 0.07837 0.05513 0.5466 0.0
C113 C 1.00042 0.10383 0.69897 0.0
C114 C 0.97856 0.13452 0.76228 0.0
C115 C 0.01128 0.17164 0.6973 0.0
C116 C 0.01515 0.13893 0.67721 0.0
C117 C 0.9932 0.16954 0.73956 0.0
C118 C 0.98206 0.10188 0.7412 0.0
C119 C 1.00419 0.06845 0.67957 0.0
H120 H 0.96331 0.96873 0.28524 0.0
H121 H 0.98842 0.98822 0.36701 0.0
H122 H 1.0056 0.93958 0.24093 0.0
H123 H 0.10224 0.95198 0.3597 0.0
H124 H 0.02275 0.19865 0.68044 0.0
H125 H 0.02985 0.14107 0.64511 0.0
H126 H 0.99148 0.19515 0.75506 0.0
H127 H 0.97044 0.07474 0.75755 0.0
C128 C 0.65369 0.5161 0.11729 0.0
C129 C 0.67344 0.58025 0.08291 0.0
C130 C 0.64466 0.55436 0.09662 0.0
C131 C 0.71142 0.5667 0.08917 0.0
C132 C 0.69204 0.50265 0.12576 0.0
C133 C 0.72071 0.52795 0.11053 0.0
N134 N 0.62544 0.49279 0.13275 0.0
C135 C 0.63408 0.45653 0.16048 0.0
C136 C 0.70061 0.4646 0.15109 0.0
C137 C 0.6716 0.44167 0.16931 0.0
Gd138 Gd 0.48237 0.48761 0.99878 0.0
Gd139 Gd 0.56305 0.51979 0.11511 0.0
N140 N 0.6076 0.56635 0.09053 0.0
C141 C 0.66313 0.61899 0.06371 0.0
C142 C 0.59761 0.60431 0.07399 0.0
C143 C 0.6251 0.63112 0.05966 0.0
H144 H 0.56821 0.6136 0.07084 0.0
H145 H 0.61696 0.66108 0.04555 0.0
H146 H 0.52778 0.4007 0.01323 0.0
H147 H 0.6118 0.43885 0.17522 0.0
H148 H 0.52548 0.33541 0.06331 0.0
H149 H 0.68437 0.63981 0.05258 0.0
H150 H 0.73393 0.58605 0.07845 0.0
H151 H 0.39625 0.52744 0.98979 0.0
H152 H 0.7297 0.4531 0.1583 0.0
H153 H 0.67816 0.41264 0.1904 0.0
H154 H 0.41115 0.33578 0.13439 0.0
H155 H 0.75029 0.51808 0.11631 0.0
H156 H 0.32911 0.4476 0.07687 0.0
H157 H 0.33549 0.51111 0.0218 0.0
N158 N 0.42354 0.4739 0.02652 0.0
C159 C 0.42005 0.43825 0.05475 0.0
C160 C 0.39341 0.49963 0.01345 0.0
C161 C 0.35561 0.45454 0.06257 0.0
C162 C 0.3591 0.49043 0.03152 0.0
C163 C 0.38618 0.42784 0.07433 0.0
H164 H 0.35824 0.38283 0.1206 0.0
N165 N 0.48162 0.42243 0.04113 0.0
C166 C 0.45027 0.41203 0.06314 0.0
C167 C 0.47539 0.34707 0.0929 0.0
C168 C 0.44679 0.37432 0.09061 0.0
C169 C 0.50667 0.39457 0.03774 0.0
C170 C 0.50479 0.35696 0.06496 0.0
O171 O 0.57503 0.53995 0.03471 0.0
O172 O 0.52551 0.52991 0.96811 0.0
O173 O 0.47766 0.45816 0.93508 0.0
O174 O 0.43962 0.50584 0.9291 0.0
O175 O 0.51257 0.56133 0.07925 0.0
O176 O 0.47782 0.55089 1.00013 0.0
O177 O 0.46617 0.4993 0.07168 0.0
O178 O 0.51882 0.47472 0.12943 0.0
O179 O 0.55377 0.55871 0.16535 0.0
O180 O 0.58113 0.50341 0.19727 0.0
O181 O 0.54396 0.46661 0.0123 0.0
O182 O 0.55674 0.46037 0.09873 0.0
C183 C 0.55911 0.54388 0.98582 0.0
C184 C 0.48727 0.57176 0.03597 0.0
C185 C 0.41628 0.45598 0.88528 0.0
C186 C 0.38437 0.42836 0.81299 0.0
C187 C 0.36191 0.41396 0.89423 0.0
C188 C 0.39049 0.43687 0.915 0.0
C189 C 0.35885 0.40961 0.84364 0.0
C190 C 0.41307 0.45168 0.83422 0.0
C191 C 0.44818 0.47827 0.90777 0.0
C192 C 0.41399 0.36444 0.11256 0.0
C193 C 0.38375 0.39114 0.10445 0.0
H194 H 0.47374 0.31779 0.11345 0.0
C195 C 0.48231 0.48401 0.11875 0.0
C196 C 0.56636 0.45437 0.05656 0.0
C197 C 0.60456 0.55414 0.23758 0.0
C198 C 0.62787 0.58876 0.30621 0.0
C199 C 0.67328 0.56186 0.26498 0.0
C200 C 0.64296 0.54774 0.23376 0.0
C201 C 0.66586 0.58206 0.30123 0.0
C202 C 0.59705 0.5752 0.27379 0.0
C203 C 0.573 0.53665 0.20613 0.0
H204 H 0.34212 0.39941 0.91752 0.0
H205 H 0.39251 0.43922 0.95433 0.0
H206 H 0.33615 0.39198 0.82828 0.0
H207 H 0.4334 0.46585 0.81142 0.0
H208 H 0.70267 0.55657 0.2616 0.0
H209 H 0.6498 0.53096 0.20758 0.0
H210 H 0.68985 0.59243 0.32565 0.0
H211 H 0.56767 0.57998 0.27781 0.0
H212 H 0.18086 0.25584 0.47737 0.0
H213 H 0.28496 0.19141 0.48375 0.0
H214 H 0.25338 0.13107 0.51643 0.0
H215 H 0.15091 0.19466 0.59351 0.0
H216 H 0.10068 0.19943 0.56453 0.0
H217 H 0.13311 0.23782 0.54838 0.0
H218 H 0.1123 0.2355 0.45234 0.0
H219 H 0.0802 0.1969 0.46823 0.0
H220 H 0.11662 0.19085 0.43163 0.0
H221 H 0.20762 0.07735 0.53588 0.0
H222 H 0.15269 0.03444 0.54806 0.0
H223 H 0.07874 0.13365 0.5326 0.0
C224 C 0.19729 0.22911 0.48752 0.0
C225 C 0.23549 0.22802 0.47924 0.0
C226 C 0.25591 0.19264 0.49101 0.0
C227 C 0.23813 0.1583 0.50933 0.0
C228 C 0.20001 0.16 0.51593 0.0
C229 C 0.17998 0.19458 0.50621 0.0
C230 C 0.13858 0.1882 0.51339 0.0
C231 C 0.13035 0.20609 0.55759 0.0
C232 C 0.11028 0.20378 0.46342 0.0
C233 C 0.13815 0.14469 0.52707 0.0
C234 C 0.17387 0.12897 0.52837 0.0
C235 C 0.17975 0.08934 0.53604 0.0
C236 C 0.14837 0.0652 0.54261 0.0
C237 C 0.11164 0.0807 0.54196 0.0
C238 C 0.1067 0.12096 0.53457 0.0
H239 H 0.29047 0.69135 0.97382 0.0
H240 H 0.34532 0.76413 0.0754 0.0
H241 H 0.40814 0.73236 0.08086 0.0
H242 H 0.34041 0.60744 0.03672 0.0
H243 H 0.34478 0.58954 0.98029 0.0
H244 H 0.30544 0.62138 0.97868 0.0
H245 H 0.32515 0.66808 0.90137 0.0
H246 H 0.36452 0.63614 0.90276 0.0
H247 H 0.37358 0.68569 0.90639 0.0
H248 H 0.46231 0.68618 0.08575 0.0
H249 H 0.50462 0.63175 0.08581 0.0
H250 H 0.41598 0.59127 0.97642 0.0
C251 C 0.31606 0.70138 0.99568 0.0
C252 C 0.31356 0.73057 0.02345 0.0
C253 C 0.34709 0.74227 0.05313 0.0
C254 C 0.38278 0.72433 0.05652 0.0
C255 C 0.38437 0.69494 0.02961 0.0
C256 C 0.35199 0.68387 0.99914 0.0
C257 C 0.36101 0.64975 0.97708 0.0
C258 C 0.33646 0.615 0.99424 0.0
C259 C 0.35576 0.66057 0.91841 0.0
C260 C 0.4031 0.64258 1.00123 0.0
C261 C 0.41605 0.66898 0.03131 0.0
C262 C 0.45277 0.6659 0.06134 0.0
C263 C 0.47664 0.63479 0.06115 0.0
C264 C 0.46393 0.60722 0.03079 0.0
C265 C 0.42693 0.61194 0.99956 0.0
H266 H 0.77753 0.84099 0.56216 0.0
H267 H 0.83377 0.76725 0.70251 0.0
H268 H 0.89565 0.79873 0.69246 0.0
H269 H 0.86422 0.84717 0.49438 0.0
H270 H 0.85292 0.89663 0.46425 0.0
H271 H 0.81482 0.86378 0.47742 0.0
H272 H 0.79016 0.91003 0.52663 0.0
H273 H 0.82887 0.94264 0.51694 0.0
H274 H 0.82122 0.92275 0.58097 0.0
H275 H 0.94783 0.8449 0.67582 0.0
H276 H 0.98851 0.90012 0.65006 0.0
H277 H 0.90067 0.94292 0.51774 0.0
C278 C 0.8033 0.8306 0.5895 0.0
C279 C 0.80136 0.80136 0.63267 0.0
C280 C 0.83509 0.78918 0.66878 0.0
C281 C 0.87029 0.80692 0.66337 0.0
C282 C 0.8713 0.83649 0.62121 0.0
C283 C 0.83891 0.84779 0.58422 0.0
C284 C 0.84731 0.88237 0.54492 0.0
C285 C 0.84466 0.87185 0.49211 0.0
C286 C 0.82032 0.91649 0.54223 0.0
C287 C 0.88861 0.89011 0.56735 0.0
C288 C 0.90201 0.86293 0.61099 0.0
C289 C 0.93802 0.86578 0.64104 0.0
C290 C 0.96083 0.89728 0.62635 0.0
C291 C 0.94785 0.9252 0.58165 0.0
C292 C 0.91153 0.92129 0.55139 0.0
H293 H 0.69493 0.2633 0.11717 0.0
H294 H 0.76596 0.32404 0.01382 0.0
H295 H 0.73003 0.38445 0.00753 0.0
H296 H 0.60813 0.30795 0.05545 0.0
H297 H 0.58988 0.31021 0.11276 0.0
H298 H 0.62443 0.27349 0.11381 0.0
H299 H 0.66785 0.29585 0.18969 0.0
H300 H 0.63428 0.334 0.18751 0.0
H301 H 0.68365 0.3448 0.18252 0.0
H302 H 0.68028 0.43499 1.00147 0.0
H303 H 0.62324 0.4741 1.00218 0.0
H304 H 0.58605 0.38232 0.11313 0.0
C305 C 0.70363 0.28971 0.09475 0.0
C306 C 0.73346 0.28957 0.06661 0.0
C307 C 0.74356 0.32407 0.03631 0.0
C308 C 0.72326 0.35838 0.03243 0.0
C309 C 0.69319 0.3576 0.05951 0.0
C310 C 0.68377 0.32433 0.09081 0.0
C311 C 0.64868 0.33084 0.11321 0.0
C312 C 0.61585 0.30404 0.09783 0.0
C313 C 0.65924 0.32611 0.17171 0.0
C314 C 0.63883 0.37237 0.08776 0.0
C315 C 0.66502 0.38731 0.05715 0.0
C316 C 0.6601 0.42393 0.02621 0.0
C317 C 0.6276 0.44582 0.02656 0.0
C318 C 0.60084 0.43126 0.05814 0.0
C319 C 0.60665 0.39423 0.0894 0.0
H320 H 0.12537 0.88234 0.05609 0.0
H321 H 0.22478 0.82591 0.16207 0.0
H322 H 0.20161 0.84613 0.23309 0.0
H323 H 0.12614 0.96551 0.11617 0.0
H324 H 0.07442 0.97025 0.10377 0.0
H325 H 0.09824 0.95035 0.06117 0.0
H326 H 0.05695 0.88938 0.07429 0.0
H327 H 0.03322 0.90895 0.11722 0.0
H328 H 0.05697 0.86257 0.13823 0.0
H329 H 0.16588 0.86959 0.29372 0.0
H330 H 0.12312 0.89866 0.33829 0.0
H331 H 0.05172 0.94725 0.19159 0.0
C332 C 0.14276 0.8746 0.09395 0.0
C333 C 0.17681 0.85184 0.10301 0.0
C334 C 0.19805 0.84223 0.15377 0.0
C335 C 0.18532 0.85392 0.19454 0.0
C336 C 0.15161 0.87593 0.18417 0.0
C337 C 0.13092 0.88669 0.13504 0.0
C338 C 0.09611 0.91129 0.13419 0.0
C339 C 0.09891 0.95175 0.10192 0.0
C340 C 0.0586 0.89188 0.11484 0.0
C341 C 0.10025 0.91224 0.19063 0.0
C342 C 0.13227 0.8914 0.21881 0.0
C343 C 0.14111 0.88662 0.27192 0.0
C344 C 0.11667 0.9037 0.29692 0.0
C345 C 0.08392 0.92599 0.2689 0.0
C346 C 0.07603 0.93025 0.21479 0.0
H347 H 0.60214 0.66785 0.71956 0.0
H348 H 0.72254 0.66124 0.79156 0.0
H349 H 0.70584 0.62201 0.87047 0.0
H350 H 0.56535 0.67711 0.83259 0.0
H351 H 0.5234 0.64869 0.8189 0.0
H352 H 0.5447 0.67522 0.76723 0.0
H353 H 0.55149 0.61262 0.73407 0.0
H354 H 0.53024 0.58591 0.78568 0.0
H355 H 0.57681 0.57172 0.77674 0.0
H356 H 0.67695 0.582 0.93996 0.0
H357 H 0.63713 0.54708 0.99872 0.0
H358 H 0.5341 0.58296 0.88596 0.0
C359 C 0.62491 0.65789 0.75193 0.0
C360 C 0.66369 0.66747 0.74954 0.0
C361 C 0.69269 0.65439 0.79277 0.0
C362 C 0.6835 0.63198 0.83761 0.0
C363 C 0.64507 0.62315 0.83887 0.0
C364 C 0.61613 0.63588 0.79745 0.0
C365 C 0.57703 0.62322 0.80987 0.0
C366 C 0.55109 0.65814 0.80698 0.0
C367 C 0.55776 0.5968 0.77448 0.0
C368 C 0.58861 0.60128 0.86464 0.0
C369 C 0.62806 0.60145 0.88024 0.0
C370 C 0.64597 0.58239 0.92854 0.0
C371 C 0.62298 0.56311 0.96211 0.0
C372 C 0.58236 0.5636 0.9481 0.0
C373 C 0.56503 0.5825 0.8982 0.0
H374 H 0.85427 0.10333 0.19484 0.0
H375 H 0.886 0.22193 0.19229 0.0
H376 H 0.9237 0.20327 0.28044 0.0
H377 H 0.84495 0.08061 0.33169 0.0
H378 H 0.86344 0.03233 0.34062 0.0
H379 H 0.83731 0.05573 0.27898 0.0
H380 H 0.89518 0.04322 0.23708 0.0
H381 H 0.92103 0.02 0.29884 0.0
H382 H 0.94215 0.05974 0.26129 0.0
H383 H 0.96372 0.17006 0.36444 0.0
H384 H 0.99694 0.12643 0.44223 0.0
H385 H 0.93471 0.03014 0.39293 0.0
C386 C 0.86859 0.12536 0.21345 0.0
C387 C 0.86726 0.16405 0.1874 0.0
C388 C 0.8865 0.19225 0.21221 0.0
C389 C 0.90804 0.18185 0.262 0.0
C390 C 0.90945 0.14324 0.28642 0.0
C391 C 0.88962 0.11555 0.26335 0.0
C392 C 0.89603 0.07608 0.29767 0.0
C393 C 0.85818 0.06027 0.31316 0.0
C394 C 0.91472 0.04815 0.27215 0.0
C395 C 0.92354 0.08563 0.34301 0.0
C396 C 0.93099 0.1245 0.33575 0.0
C397 C 0.95727 0.13977 0.37109 0.0
C398 C 0.97581 0.1148 0.41537 0.0
C399 C 0.96746 0.07514 0.42456 0.0
C400 C 0.9413 0.06041 0.38744 0.0
H401 H 0.34129 0.31878 0.57737 0.0
H402 H 0.34704 0.43033 0.47821 0.0
H403 H 0.36321 0.46006 0.55346 0.0
H404 H 0.29586 0.35416 0.66864 0.0
H405 H 0.32153 0.32134 0.72348 0.0
H406 H 0.31201 0.30797 0.66176 0.0
H407 H 0.38484 0.29522 0.66826 0.0
H408 H 0.39459 0.3087 0.72993 0.0
H409 H 0.41846 0.33274 0.67932 0.0
H410 H 0.37866 0.47846 0.6386 0.0
H411 H 0.38845 0.48469 0.72912 0.0
H412 H 0.37082 0.36228 0.77428 0.0
C413 C 0.34585 0.34945 0.57149 0.0
C414 C 0.34372 0.37192 0.52161 0.0
C415 C 0.34972 0.41209 0.51584 0.0
C416 C 0.35867 0.42943 0.55842 0.0
C417 C 0.36112 0.40647 0.60686 0.0
C418 C 0.35458 0.36744 0.6138 0.0
C419 C 0.3579 0.34979 0.67026 0.0
C420 C 0.31954 0.33229 0.68169 0.0
C421 C 0.39092 0.31984 0.68798 0.0
C422 C 0.3671 0.38506 0.69365 0.0
C423 C 0.36912 0.41736 0.65633 0.0
C424 C 0.37721 0.45338 0.66828 0.0
C425 C 0.38297 0.4566 0.71982 0.0
C426 C 0.38042 0.42405 0.75882 0.0
C427 C 0.37261 0.38779 0.74533 0.0
H428 H 0.67904 0.63175 0.58625 0.0
H429 H 0.63924 0.74885 0.52137 0.0
H430 H 0.61584 0.73059 0.4376 0.0
H431 H 0.71495 0.61673 0.47789 0.0
H432 H 0.70168 0.56696 0.48515 0.0
H433 H 0.71192 0.58887 0.54037 0.0
H434 H 0.64502 0.56877 0.56203 0.0
H435 H 0.63441 0.54716 0.50641 0.0
H436 H 0.60234 0.58332 0.51468 0.0
H437 H 0.59835 0.69943 0.3601 0.0
H438 H 0.59558 0.66007 0.29347 0.0
H439 H 0.64925 0.56453 0.40885 0.0
C440 C 0.66497 0.65339 0.55449 0.0
C441 C 0.6606 0.69161 0.56015 0.0
C442 C 0.64285 0.71941 0.5176 0.0
C443 C 0.62922 0.70922 0.47011 0.0
C444 C 0.63383 0.67117 0.46579 0.0
C445 C 0.65173 0.64382 0.50675 0.0
C446 C 0.65597 0.60572 0.49124 0.0
C447 C 0.69866 0.5939 0.49911 0.0
C448 C 0.63306 0.5744 0.52032 0.0
C449 C 0.63818 0.61597 0.43499 0.0
C450 C 0.62486 0.65363 0.42113 0.0
C451 C 0.60841 0.66983 0.37062 0.0
C452 C 0.60666 0.6473 0.33313 0.0
C453 C 0.62173 0.60933 0.34644 0.0
C454 C 0.63697 0.59335 0.39808 0.0
H455 H 0.85679 0.20671 0.94843 0.0
H456 H 0.88732 0.09863 0.0551 0.0
H457 H 0.92252 0.07811 0.99398 0.0
H458 H 0.84227 0.16673 0.83239 0.0
H459 H 0.86201 0.20789 0.79567 0.0
H460 H 0.83834 0.21356 0.84732 0.0
H461 H 0.89931 0.24515 0.88904 0.0
H462 H 0.92326 0.23934 0.83775 0.0
H463 H 0.94487 0.21971 0.9032 0.0
H464 H 0.95659 0.07044 0.92288 0.0
H465 H 0.98598 0.07544 0.84612 0.0
H466 H 0.9309 0.18736 0.78389 0.0
C467 C 0.87032 0.17845 0.95866 0.0
C468 C 0.86934 0.15434 1.00675 0.0
C469 C 0.88809 0.11786 0.01888 0.0
C470 C 0.90796 0.10584 0.98427 0.0
C471 C 0.9087 0.1305 0.93752 0.0
C472 C 0.89019 0.16594 0.92451 0.0
C473 C 0.89596 0.18723 0.87215 0.0
C474 C 0.85734 0.19425 0.83467 0.0
C475 C 0.91712 0.22509 0.87579 0.0
C476 C 0.921 0.1584 0.85801 0.0
C477 C 0.92792 0.12585 0.8962 0.0
C478 C 0.95101 0.0956 0.89245 0.0
C479 C 0.9674 0.09864 0.84846 0.0
C480 C 0.96058 0.13165 0.80854 0.0
C481 C 0.93697 0.16184 0.81369 0.0
H482 H 0.41123 0.35117 0.35946 0.0
H483 H 0.30301 0.41466 0.31088 0.0
H484 H 0.3284 0.45484 0.23881 0.0
H485 H 0.47357 0.42901 0.3301 0.0
H486 H 0.50627 0.40219 0.30578 0.0
H487 H 0.47967 0.37787 0.35316 0.0
H488 H 0.45228 0.33164 0.29347 0.0
H489 H 0.4785 0.3557 0.24546 0.0
H490 H 0.4271 0.35098 0.22961 0.0
H491 H 0.36677 0.49068 0.17623 0.0
H492 H 0.41279 0.51503 0.11952 0.0
H493 H 0.49512 0.42571 0.20431 0.0
C494 C 0.39293 0.3733 0.33316 0.0
C495 C 0.3552 0.38 0.34021 0.0
C496 C 0.33187 0.40914 0.30552 0.0
C497 C 0.34611 0.43213 0.2648 0.0
C498 C 0.3836 0.42523 0.25907 0.0
C499 C 0.4065 0.39611 0.29164 0.0
C500 C 0.44542 0.39431 0.27596 0.0
C501 C 0.47816 0.40127 0.31881 0.0
C502 C 0.45116 0.35587 0.26018 0.0
C503 C 0.44106 0.42744 0.23022 0.0
C504 C 0.40524 0.445 0.22145 0.0
C505 C 0.39469 0.47684 0.18228 0.0
C506 C 0.42101 0.49044 0.15026 0.0
C507 C 0.45722 0.4719 0.157 0.0
C508 C 0.46761 0.44044 0.19819 0.0
H509 H 0.12452 0.87379 0.92162 0.0
H510 H 0.24165 0.86651 0.89669 0.0
H511 H 0.22146 0.90119 0.80691 0.0
H512 H 0.07892 0.85754 0.79881 0.0
H513 H 0.03909 0.89 0.79307 0.0
H514 H 0.06326 0.86596 0.85543 0.0
H515 H 0.07619 0.93174 0.88236 0.0
H516 H 0.05207 0.95597 0.82002 0.0
H517 H 0.10069 0.96822 0.84415 0.0
H518 H 0.18788 0.93778 0.71968 0.0
H519 H 0.1435 0.96951 0.64162 0.0
H520 H 0.04811 0.94967 0.72373 0.0
C521 C 0.14603 0.8799 0.89744 0.0
C522 C 0.18476 0.86784 0.91621 0.0
C523 C 0.21186 0.87553 0.88303 0.0
C524 C 0.20066 0.89531 0.83212 0.0
C525 C 0.1622 0.90685 0.81488 0.0
C526 C 0.13528 0.89916 0.84654 0.0
C527 C 0.09551 0.9133 0.8184 0.0
C528 C 0.06756 0.87969 0.81631 0.0
C529 C 0.08023 0.94414 0.84268 0.0
C530 C 0.10418 0.93033 0.76593 0.0
C531 C 0.14281 0.92657 0.76464 0.0
C532 C 0.15753 0.94049 0.72022 0.0
C533 C 0.13204 0.95826 0.67594 0.0
C534 C 0.09217 0.9614 0.6761 0.0
C535 C 0.07836 0.94761 0.72207 0.0
loop_
_geom_bond_atom_site_label_1
_geom_bond_atom_site_label_2
_geom_bond_distance
_geom_bond_site_symmetry_2
_ccdc_geom_bond_type
H0 C3 0.929 . S
H1 C6 0.929 . S
H2 C8 0.930 . S
C3 H0 0.929 . S
C3 C4 1.398 1_554 S
C3 C5 1.396 . S
C4 C3 1.398 1_556 S
C4 C8 1.407 . S
C5 C3 1.396 . S
C5 C6 1.394 . S
C6 H1 0.929 . S
C6 C5 1.394 . S
C6 C7 1.382 . S
C7 C6 1.382 . S
C7 C8 1.392 1_554 S
C7 N9 1.420 . S
C8 H2 0.930 . S
C8 C4 1.407 . S
C8 C7 1.392 1_556 S
N9 C7 1.420 . S
N9 C10 1.244 . S
C10 N9 1.244 . S
H11 C14 0.929 . S
H12 C17 0.929 . S
H13 C19 0.930 . S
C14 H11 0.929 . S
C14 C15 1.398 . S
C14 C16 1.396 . S
C15 C14 1.398 . S
C15 C19 1.407 . S
C16 C14 1.396 . S
C16 C17 1.394 . S
C17 H12 0.929 . S
C17 C16 1.394 . S
C17 C18 1.382 . S
C18 C17 1.382 . S
C18 C19 1.392 . S
C18 N20 1.420 . S
C19 H13 0.930 . S
C19 C15 1.407 . S
C19 C18 1.392 . S
N20 C18 1.420 . S
N20 C21 1.244 . S
C21 N20 1.244 . S
H22 C25 0.929 . S
H23 C28 0.929 . S
H24 C30 0.930 1_556 S
C25 H22 0.929 . S
C25 C26 1.398 . S
C25 C27 1.396 . S
C26 C25 1.398 . S
C26 C30 1.407 . S
C27 C25 1.396 . S
C27 C28 1.394 . S
C28 H23 0.929 . S
C28 C27 1.394 . S
C28 C29 1.382 . S
C29 C28 1.382 . S
C29 C30 1.392 . S
C29 N31 1.420 . S
C30 H24 0.930 1_554 S
C30 C26 1.407 . S
C30 C29 1.392 . S
N31 C29 1.420 . S
N31 C32 1.244 . S
C32 N31 1.244 . S
H33 C36 0.929 . S
H34 C39 0.929 . S
H35 C41 0.930 . S
C36 H33 0.929 . S
C36 C37 1.398 . S
C36 C38 1.396 . S
C37 C36 1.398 . S
C37 C41 1.407 . S
C38 C36 1.396 . S
C38 C39 1.394 . S
C39 H34 0.929 . S
C39 C38 1.394 . S
C39 C40 1.382 . S
C40 C39 1.382 . S
C40 C41 1.392 . S
C40 N42 1.420 . S
C41 H35 0.930 . S
C41 C37 1.407 . S
C41 C40 1.392 . S
N42 C40 1.420 . S
N42 C43 1.244 . S
C43 N42 1.244 . S
C44 C46 1.422 . S
C44 C48 1.415 . S
C44 N50 1.369 . S
C45 C46 1.421 . S
C45 C47 1.417 . S
C45 C57 1.422 . S
C46 C44 1.422 . S
C46 C45 1.421 . S
C46 N56 1.359 . S
C47 C45 1.417 . S
C47 C49 1.329 . S
C47 H66 0.930 . S
C48 C44 1.415 . S
C48 C49 1.437 . S
C48 C52 1.413 . S
C49 C47 1.329 . S
C49 C48 1.437 . S
C49 H71 0.929 . S
N50 C44 1.369 . S
N50 C51 1.338 1_655 S
N50 Gd55 2.622 . S
C51 N50 1.338 1_455 S
C51 C53 1.378 . S
C51 H63 0.929 . S
C52 C48 1.413 . S
C52 C53 1.348 1_655 S
C52 H68 0.931 . S
C53 C51 1.378 . S
C53 C52 1.348 1_455 S
C53 H69 0.930 . S
Gd54 N74 2.622 . S
Gd54 N81 2.570 . S
Gd54 O88 2.353 1_465 S
Gd54 O89 2.468 . S
Gd54 O90 2.427 . S
Gd54 O92 2.388 1_455 S
Gd54 O93 2.386 . S
Gd54 O97 2.307 1_565 S
Gd54 C107 2.805 . S
Gd55 N50 2.622 . S
Gd55 N56 2.570 . S
Gd55 O87 2.386 . S
Gd55 O91 2.307 1_545 S
Gd55 O94 2.353 1_655 S
Gd55 O95 2.468 . S
Gd55 O96 2.427 . S
Gd55 O98 2.388 1_655 S
Gd55 C119 2.805 . S
N56 C46 1.359 . S
N56 Gd55 2.570 . S
N56 C58 1.343 . S
C57 C45 1.422 . S
C57 C59 1.321 . S
C57 H65 0.931 . S
C58 N56 1.343 . S
C58 C59 1.390 . S
C58 H60 0.931 . S
C59 C57 1.321 . S
C59 C58 1.390 . S
C59 H61 0.930 . S
H60 C58 0.931 . S
H61 C59 0.930 . S
H62 C85 0.931 . S
H63 C51 0.929 . S
H64 C86 0.930 . S
H65 C57 0.931 . S
H66 C47 0.930 . S
H67 C76 0.929 1_655 S
H68 C52 0.931 . S
H69 C53 0.930 . S
H70 C108 0.930 . S
H71 C49 0.929 . S
H72 C77 0.931 . S
H73 C78 0.930 1_655 S
N74 Gd54 2.622 . S
N74 C75 1.369 . S
N74 C76 1.338 . S
C75 N74 1.369 . S
C75 C79 1.415 . S
C75 C82 1.422 . S
C76 H67 0.929 1_455 S
C76 N74 1.338 . S
C76 C78 1.378 . S
C77 H72 0.931 . S
C77 C78 1.348 . S
C77 C79 1.413 . S
C78 H73 0.930 1_455 S
C78 C76 1.378 . S
C78 C77 1.348 . S
C79 C75 1.415 . S
C79 C77 1.413 . S
C79 C109 1.437 . S
H80 C109 0.929 . S
N81 Gd54 2.570 . S
N81 C82 1.359 . S
N81 C85 1.343 . S
C82 C75 1.422 . S
C82 N81 1.359 . S
C82 C84 1.421 . S
C83 C84 1.422 . S
C83 C86 1.321 . S
C83 H110 0.931 . S
C84 C82 1.421 . S
C84 C83 1.422 . S
C84 C108 1.417 . S
C85 H62 0.931 . S
C85 N81 1.343 . S
C85 C86 1.390 . S
C86 H64 0.930 . S
C86 C83 1.321 . S
C86 C85 1.390 . S
O87 Gd55 2.386 . S
O87 C99 1.265 . S
O88 Gd54 2.353 1_645 S
O88 C99 1.242 . S
O89 Gd54 2.468 . S
O89 C107 1.263 . S
O90 Gd54 2.427 . S
O90 C107 1.252 . S
O91 Gd55 2.307 1_565 S
O91 C100 1.261 . S
O92 Gd54 2.388 1_655 S
O92 C100 1.252 . S
O93 Gd54 2.386 . S
O93 C111 1.265 . S
O94 Gd55 2.353 1_455 S
O94 C111 1.242 1_545 S
O95 Gd55 2.468 . S
O95 C119 1.263 . S
O96 Gd55 2.427 . S
O96 C119 1.252 . S
O97 Gd54 2.307 1_545 S
O97 C112 1.261 . S
O98 Gd55 2.388 1_455 S
O98 C112 1.252 . S
C99 O87 1.265 . S
C99 O88 1.242 . S
C100 O91 1.261 . S
C100 O92 1.252 . S
C101 C104 1.394 . S
C101 C106 1.370 . S
C101 C107 1.500 . S
C102 C105 1.383 . S
C102 C106 1.395 . S
C103 C104 1.396 . S
C103 C105 1.365 . S
C103 H120 0.929 . S
C104 C101 1.394 . S
C104 C103 1.396 . S
C104 H121 0.930 . S
C105 C102 1.383 . S
C105 C103 1.365 . S
C105 H122 0.931 . S
C106 C101 1.370 . S
C106 C102 1.395 . S
C106 H123 0.930 . S
C107 Gd54 2.805 . S
C107 O89 1.263 . S
C107 O90 1.252 . S
C107 C101 1.500 . S
C108 H70 0.930 . S
C108 C84 1.417 . S
C108 C109 1.329 . S
C109 C79 1.437 . S
C109 H80 0.929 . S
C109 C108 1.329 . S
H110 C83 0.931 . S
C111 O93 1.265 . S
C111 O94 1.242 1_565 S
C112 O97 1.261 . S
C112 O98 1.252 . S
C113 C116 1.394 . S
C113 C118 1.370 . S
C113 C119 1.500 . S
C114 C117 1.383 . S
C114 C118 1.395 . S
C115 C116 1.396 . S
C115 C117 1.365 . S
C115 H124 0.929 . S
C116 C113 1.394 . S
C116 C115 1.396 . S
C116 H125 0.930 . S
C117 C114 1.383 . S
C117 C115 1.365 . S
C117 H126 0.931 . S
C118 C113 1.370 . S
C118 C114 1.395 . S
C118 H127 0.930 . S
C119 Gd55 2.805 . S
C119 O95 1.263 . S
C119 O96 1.252 . S
C119 C113 1.500 . S
H120 C103 0.929 . S
H121 C104 0.930 . S
H122 C105 0.931 . S
H123 C106 0.930 . S
H124 C115 0.929 . S
H125 C116 0.930 . S
H126 C117 0.931 . S
H127 C118 0.930 . S
C128 C130 1.422 . S
C128 C132 1.415 . S
C128 N134 1.369 . S
C129 C130 1.421 . S
C129 C131 1.417 . S
C129 C141 1.422 . S
C130 C128 1.422 . S
C130 C129 1.421 . S
C130 N140 1.359 . S
C131 C129 1.417 . S
C131 C133 1.329 . S
C131 H150 0.930 . S
C132 C128 1.415 . S
C132 C133 1.437 . S
C132 C136 1.413 . S
C133 C131 1.329 . S
C133 C132 1.437 . S
C133 H155 0.929 . S
N134 C128 1.369 . S
N134 C135 1.338 . S
N134 Gd139 2.622 . S
C135 N134 1.338 . S
C135 C137 1.378 . S
C135 H147 0.929 . S
C136 C132 1.413 . S
C136 C137 1.348 . S
C136 H152 0.931 . S
C137 C135 1.378 . S
C137 C136 1.348 . S
C137 H153 0.930 . S
Gd138 N158 2.622 . S
Gd138 N165 2.570 . S
Gd138 O172 2.351 1_554 S
Gd138 O173 2.465 1_554 S
Gd138 O174 2.424 1_554 S
Gd138 O176 2.389 . S
Gd138 O177 2.389 . S
Gd138 O181 2.307 . S
Gd138 C191 2.802 1_554 S
Gd139 N134 2.622 . S
Gd139 N140 2.570 . S
Gd139 O171 2.386 . S
Gd139 O175 2.307 . S
Gd139 O178 2.353 . S
Gd139 O179 2.468 . S
Gd139 O180 2.427 . S
Gd139 O182 2.388 . S
Gd139 C203 2.805 . S
N140 C130 1.359 . S
N140 Gd139 2.570 . S
N140 C142 1.343 . S
C141 C129 1.422 . S
C141 C143 1.321 . S
C141 H149 0.931 . S
C142 N140 1.343 . S
C142 C143 1.390 . S
C142 H144 0.931 . S
C143 C141 1.321 . S
C143 C142 1.390 . S
C143 H145 0.930 . S
H144 C142 0.931 . S
H145 C143 0.930 . S
H146 C169 0.931 . S
H147 C135 0.929 . S
H148 C170 0.930 . S
H149 C141 0.931 . S
H150 C131 0.930 . S
H151 C160 0.929 . S
H152 C136 0.931 . S
H153 C137 0.930 . S
H154 C192 0.930 . S
H155 C133 0.929 . S
H156 C161 0.931 . S
H157 C162 0.930 . S
N158 Gd138 2.622 . S
N158 C159 1.369 . S
N158 C160 1.338 1_554 S
C159 N158 1.369 . S
C159 C163 1.415 . S
C159 C166 1.422 . S
C160 H151 0.929 . S
C160 N158 1.338 1_556 S
C160 C162 1.380 . S
C161 H156 0.931 . S
C161 C162 1.346 1_554 S
C161 C163 1.413 . S
C162 H157 0.930 . S
C162 C160 1.380 . S
C162 C161 1.346 1_556 S
C163 C159 1.415 . S
C163 C161 1.413 . S
C163 C193 1.437 . S
H164 C193 0.929 . S
N165 Gd138 2.570 . S
N165 C166 1.359 . S
N165 C169 1.343 . S
C166 C159 1.422 . S
C166 N165 1.359 . S
C166 C168 1.421 . S
C167 C168 1.422 . S
C167 C170 1.321 . S
C167 H194 0.931 . S
C168 C166 1.421 . S
C168 C167 1.422 . S
C168 C192 1.417 . S
C169 H146 0.931 . S
C169 N165 1.343 . S
C169 C170 1.390 . S
C170 H148 0.930 . S
C170 C167 1.321 . S
C170 C169 1.390 . S
O171 Gd139 2.386 . S
O171 C183 1.265 1_554 S
O172 Gd138 2.351 1_556 S
O172 C183 1.242 . S
O173 Gd138 2.465 1_556 S
O173 C191 1.263 . S
O174 Gd138 2.424 1_556 S
O174 C191 1.252 . S
O175 Gd139 2.307 . S
O175 C184 1.261 . S
O176 Gd138 2.389 . S
O176 C184 1.252 . S
O177 Gd138 2.389 . S
O177 C195 1.265 . S
O178 Gd139 2.353 . S
O178 C195 1.242 . S
O179 Gd139 2.468 . S
O179 C203 1.263 . S
O180 Gd139 2.427 . S
O180 C203 1.252 . S
O181 Gd138 2.307 . S
O181 C196 1.261 . S
O182 Gd139 2.388 . S
O182 C196 1.252 . S
C183 O171 1.265 1_556 S
C183 O172 1.242 . S
C184 O175 1.261 . S
C184 O176 1.252 . S
C185 C188 1.394 . S
C185 C190 1.370 . S
C185 C191 1.500 . S
C186 C189 1.383 . S
C186 C190 1.395 . S
C187 C188 1.396 . S
C187 C189 1.365 . S
C187 H204 0.929 . S
C188 C185 1.394 . S
C188 C187 1.396 . S
C188 H205 0.930 . S
C189 C186 1.383 . S
C189 C187 1.365 . S
C189 H206 0.931 . S
C190 C185 1.370 . S
C190 C186 1.395 . S
C190 H207 0.930 . S
C191 Gd138 2.802 1_556 S
C191 O173 1.263 . S
C191 O174 1.252 . S
C191 C185 1.500 . S
C192 H154 0.930 . S
C192 C168 1.417 . S
C192 C193 1.329 . S
C193 C163 1.437 . S
C193 H164 0.929 . S
C193 C192 1.329 . S
H194 C167 0.931 . S
C195 O177 1.265 . S
C195 O178 1.242 . S
C196 O181 1.261 . S
C196 O182 1.252 . S
C197 C200 1.394 . S
C197 C202 1.370 . S
C197 C203 1.500 . S
C198 C201 1.383 . S
C198 C202 1.395 . S
C199 C200 1.396 . S
C199 C201 1.365 . S
C199 H208 0.929 . S
C200 C197 1.394 . S
C200 C199 1.396 . S
C200 H209 0.930 . S
C201 C198 1.383 . S
C201 C199 1.365 . S
C201 H210 0.931 . S
C202 C197 1.370 . S
C202 C198 1.395 . S
C202 H211 0.930 . S
C203 Gd139 2.805 . S
C203 O179 1.263 . S
C203 O180 1.252 . S
C203 C197 1.500 . S
H204 C187 0.929 . S
H205 C188 0.930 . S
H206 C189 0.931 . S
H207 C190 0.930 . S
H208 C199 0.929 . S
H209 C200 0.930 . S
H210 C201 0.931 . S
H211 C202 0.930 . S
H212 C224 0.930 . S
H213 C226 0.930 . S
H214 C227 0.930 . S
H215 C231 0.959 . S
H216 C231 0.959 . S
H217 C231 0.961 . S
H218 C232 0.960 . S
H219 C232 0.961 . S
H220 C232 0.959 . S
H221 C235 0.929 . S
H222 C236 0.931 . S
H223 C238 0.930 . S
C224 H212 0.930 . S
C224 C225 1.399 . S
C224 C229 1.399 . S
C225 C224 1.399 . S
C225 C226 1.376 . S
C226 H213 0.930 . S
C226 C225 1.376 . S
C226 C227 1.388 . S
C227 H214 0.930 . S
C227 C226 1.388 . S
C227 C228 1.390 . S
C228 C227 1.390 . S
C228 C229 1.394 . S
C228 C234 1.465 . S
C229 C224 1.399 . S
C229 C228 1.394 . S
C229 C230 1.516 . S
C230 C229 1.516 . S
C230 C231 1.502 . S
C230 C232 1.561 . S
C230 C233 1.526 . S
C231 H215 0.959 . S
C231 H216 0.959 . S
C231 H217 0.961 . S
C231 C230 1.502 . S
C232 H218 0.960 . S
C232 H219 0.961 . S
C232 H220 0.959 . S
C232 C230 1.561 . S
C233 C230 1.526 . S
C233 C234 1.396 . S
C233 C238 1.390 . S
C234 C228 1.465 . S
C234 C233 1.396 . S
C234 C235 1.399 . S
C235 H221 0.929 . S
C235 C234 1.399 . S
C235 C236 1.385 . S
C236 H222 0.931 . S
C236 C235 1.385 . S
C236 C237 1.389 . S
C237 C236 1.389 . S
C237 C238 1.387 . S
C238 H223 0.930 . S
C238 C233 1.390 . S
C238 C237 1.387 . S
H239 C251 0.930 1_556 S
H240 C253 0.930 . S
H241 C254 0.930 . S
H242 C258 0.959 . S
H243 C258 0.959 . S
H244 C258 0.961 . S
H245 C259 0.960 . S
H246 C259 0.961 . S
H247 C259 0.959 . S
H248 C262 0.929 . S
H249 C263 0.931 . S
H250 C265 0.930 1_556 S
C251 H239 0.930 1_554 S
C251 C252 1.399 . S
C251 C256 1.399 . S
C252 C251 1.399 . S
C252 C253 1.376 . S
C253 H240 0.930 . S
C253 C252 1.376 . S
C253 C254 1.388 . S
C254 H241 0.930 . S
C254 C253 1.388 . S
C254 C255 1.390 . S
C255 C254 1.390 . S
C255 C256 1.394 . S
C255 C261 1.465 . S
C256 C251 1.399 . S
C256 C255 1.394 . S
C256 C257 1.516 1_554 S
C257 C256 1.516 1_556 S
C257 C258 1.502 . S
C257 C259 1.561 . S
C257 C260 1.526 1_556 S
C258 H242 0.959 . S
C258 H243 0.959 . S
C258 H244 0.961 . S
C258 C257 1.502 . S
C259 H245 0.960 . S
C259 H246 0.961 . S
C259 H247 0.959 . S
C259 C257 1.561 . S
C260 C257 1.526 1_554 S
C260 C261 1.396 . S
C260 C265 1.390 . S
C261 C255 1.465 . S
C261 C260 1.396 . S
C261 C262 1.399 . S
C262 H248 0.929 . S
C262 C261 1.399 . S
C262 C263 1.385 . S
C263 H249 0.931 . S
C263 C262 1.385 . S
C263 C264 1.389 . S
C264 C263 1.389 . S
C264 C265 1.387 . S
C265 H250 0.930 1_554 S
C265 C260 1.390 . S
C265 C264 1.387 . S
H266 C278 0.930 . S
H267 C280 0.930 . S
H268 C281 0.930 . S
H269 C285 0.959 . S
H270 C285 0.959 . S
H271 C285 0.961 . S
H272 C286 0.960 . S
H273 C286 0.961 . S
H274 C286 0.959 . S
H275 C289 0.929 . S
H276 C290 0.931 . S
H277 C292 0.930 . S
C278 H266 0.930 . S
C278 C279 1.399 . S
C278 C283 1.399 . S
C279 C278 1.399 . S
C279 C280 1.376 . S
C280 H267 0.930 . S
C280 C279 1.376 . S
C280 C281 1.388 . S
C281 H268 0.930 . S
C281 C280 1.388 . S
C281 C282 1.390 . S
C282 C281 1.390 . S
C282 C283 1.394 . S
C282 C288 1.465 . S
C283 C278 1.399 . S
C283 C282 1.394 . S
C283 C284 1.516 . S
C284 C283 1.516 . S
C284 C285 1.502 . S
C284 C286 1.561 . S
C284 C287 1.526 . S
C285 H269 0.959 . S
C285 H270 0.959 . S
C285 H271 0.961 . S
C285 C284 1.502 . S
C286 H272 0.960 . S
C286 H273 0.961 . S
C286 H274 0.959 . S
C286 C284 1.561 . S
C287 C284 1.526 . S
C287 C288 1.396 . S
C287 C292 1.390 . S
C288 C282 1.465 . S
C288 C287 1.396 . S
C288 C289 1.399 . S
C289 H275 0.929 . S
C289 C288 1.399 . S
C289 C290 1.385 . S
C290 H276 0.931 . S
C290 C289 1.385 . S
C290 C291 1.389 . S
C291 C290 1.389 . S
C291 C292 1.387 . S
C292 H277 0.930 . S
C292 C287 1.390 . S
C292 C291 1.387 . S
H293 C305 0.930 . S
H294 C307 0.930 . S
H295 C308 0.930 . S
H296 C312 0.959 . S
H297 C312 0.959 . S
H298 C312 0.961 . S
H299 C313 0.960 . S
H300 C313 0.961 . S
H301 C313 0.959 . S
H302 C316 0.929 . S
H303 C317 0.931 . S
H304 C319 0.930 . S
C305 H293 0.930 . S
C305 C306 1.399 . S
C305 C310 1.399 . S
C306 C305 1.399 . S
C306 C307 1.376 1_554 S
C307 H294 0.930 . S
C307 C306 1.376 1_556 S
C307 C308 1.388 . S
C308 H295 0.930 . S
C308 C307 1.388 . S
C308 C309 1.390 1_556 S
C309 C308 1.390 1_554 S
C309 C310 1.394 . S
C309 C315 1.465 . S
C310 C305 1.399 . S
C310 C309 1.394 . S
C310 C311 1.516 . S
C311 C310 1.516 . S
C311 C312 1.502 . S
C311 C313 1.561 . S
C311 C314 1.526 . S
C312 H296 0.959 . S
C312 H297 0.959 . S
C312 H298 0.961 . S
C312 C311 1.502 . S
C313 H299 0.960 . S
C313 H300 0.961 . S
C313 H301 0.959 . S
C313 C311 1.561 . S
C314 C311 1.526 . S
C314 C315 1.396 . S
C314 C319 1.390 . S
C315 C309 1.465 . S
C315 C314 1.396 . S
C315 C316 1.399 1_554 S
C316 H302 0.929 . S
C316 C315 1.399 1_556 S
C316 C317 1.385 . S
C317 H303 0.931 . S
C317 C316 1.385 . S
C317 C318 1.389 1_556 S
C318 C317 1.389 1_554 S
C318 C319 1.387 . S
C319 H304 0.930 . S
C319 C314 1.390 . S
C319 C318 1.387 . S
H320 C332 0.930 . S
H321 C334 0.930 . S
H322 C335 0.930 . S
H323 C339 0.959 . S
H324 C339 0.959 . S
H325 C339 0.961 . S
H326 C340 0.960 . S
H327 C340 0.961 . S
H328 C340 0.959 . S
H329 C343 0.929 . S
H330 C344 0.931 . S
H331 C346 0.930 . S
C332 H320 0.930 . S
C332 C333 1.399 . S
C332 C337 1.399 . S
C333 C332 1.399 . S
C333 C334 1.376 . S
C334 H321 0.930 . S
C334 C333 1.376 . S
C334 C335 1.388 . S
C335 H322 0.930 . S
C335 C334 1.388 . S
C335 C336 1.390 . S
C336 C335 1.390 . S
C336 C337 1.394 . S
C336 C342 1.465 . S
C337 C332 1.399 . S
C337 C336 1.394 . S
C337 C338 1.516 . S
C338 C337 1.516 . S
C338 C339 1.502 . S
C338 C340 1.561 . S
C338 C341 1.526 . S
C339 H323 0.959 . S
C339 H324 0.959 . S
C339 H325 0.961 . S
C339 C338 1.502 . S
C340 H326 0.960 . S
C340 H327 0.961 . S
C340 H328 0.959 . S
C340 C338 1.561 . S
C341 C338 1.526 . S
C341 C342 1.396 . S
C341 C346 1.390 . S
C342 C336 1.465 . S
C342 C341 1.396 . S
C342 C343 1.399 . S
C343 H329 0.929 . S
C343 C342 1.399 . S
C343 C344 1.385 . S
C344 H330 0.931 . S
C344 C343 1.385 . S
C344 C345 1.389 . S
C345 C344 1.389 . S
C345 C346 1.387 . S
C346 H331 0.930 . S
C346 C341 1.390 . S
C346 C345 1.387 . S
H347 C359 0.930 . S
H348 C361 0.930 . S
H349 C362 0.930 . S
H350 C366 0.959 . S
H351 C366 0.959 . S
H352 C366 0.961 . S
H353 C367 0.960 . S
H354 C367 0.961 . S
H355 C367 0.959 . S
H356 C370 0.929 . S
H357 C371 0.931 . S
H358 C373 0.930 . S
C359 H347 0.930 . S
C359 C360 1.399 . S
C359 C364 1.399 . S
C360 C359 1.399 . S
C360 C361 1.376 . S
C361 H348 0.930 . S
C361 C360 1.376 . S
C361 C362 1.388 . S
C362 H349 0.930 . S
C362 C361 1.388 . S
C362 C363 1.390 . S
C363 C362 1.390 . S
C363 C364 1.394 . S
C363 C369 1.465 . S
C364 C359 1.399 . S
C364 C363 1.394 . S
C364 C365 1.516 . S
C365 C364 1.516 . S
C365 C366 1.502 . S
C365 C367 1.561 . S
C365 C368 1.526 . S
C366 H350 0.959 . S
C366 H351 0.959 . S
C366 H352 0.961 . S
C366 C365 1.502 . S
C367 H353 0.960 . S
C367 H354 0.961 . S
C367 H355 0.959 . S
C367 C365 1.561 . S
C368 C365 1.526 . S
C368 C369 1.396 . S
C368 C373 1.390 . S
C369 C363 1.465 . S
C369 C368 1.396 . S
C369 C370 1.399 . S
C370 H356 0.929 . S
C370 C369 1.399 . S
C370 C371 1.385 . S
C371 H357 0.931 . S
C371 C370 1.385 . S
C371 C372 1.389 . S
C372 C371 1.389 . S
C372 C373 1.387 . S
C373 H358 0.930 . S
C373 C368 1.390 . S
C373 C372 1.387 . S
H374 C386 0.930 . S
H375 C388 0.930 . S
H376 C389 0.930 . S
H377 C393 0.959 . S
H378 C393 0.959 . S
H379 C393 0.961 . S
H380 C394 0.960 . S
H381 C394 0.961 1_565 S
H382 C394 0.959 . S
H383 C397 0.929 . S
H384 C398 0.931 . S
H385 C400 0.930 . S
C386 H374 0.930 . S
C386 C387 1.399 . S
C386 C391 1.399 . S
C387 C386 1.399 . S
C387 C388 1.376 . S
C388 H375 0.930 . S
C388 C387 1.376 . S
C388 C389 1.388 . S
C389 H376 0.930 . S
C389 C388 1.388 . S
C389 C390 1.390 . S
C390 C389 1.390 . S
C390 C391 1.394 . S
C390 C396 1.465 . S
C391 C386 1.399 . S
C391 C390 1.394 . S
C391 C392 1.516 . S
C392 C391 1.516 . S
C392 C393 1.502 . S
C392 C394 1.561 . S
C392 C395 1.526 . S
C393 H377 0.959 . S
C393 H378 0.959 . S
C393 H379 0.961 . S
C393 C392 1.502 . S
C394 H380 0.960 . S
C394 H381 0.961 1_545 S
C394 H382 0.959 . S
C394 C392 1.561 . S
C395 C392 1.526 . S
C395 C396 1.396 . S
C395 C400 1.390 . S
C396 C390 1.465 . S
C396 C395 1.396 . S
C396 C397 1.399 . S
C397 H383 0.929 . S
C397 C396 1.399 . S
C397 C398 1.385 . S
C398 H384 0.931 . S
C398 C397 1.385 . S
C398 C399 1.389 . S
C399 C398 1.389 . S
C399 C400 1.387 . S
C400 H385 0.930 . S
C400 C395 1.390 . S
C400 C399 1.387 . S
H401 C413 0.930 . S
H402 C415 0.930 . S
H403 C416 0.930 . S
H404 C420 0.959 . S
H405 C420 0.959 . S
H406 C420 0.961 . S
H407 C421 0.960 . S
H408 C421 0.961 . S
H409 C421 0.959 . S
H410 C424 0.929 . S
H411 C425 0.931 . S
H412 C427 0.930 . S
C413 H401 0.930 . S
C413 C414 1.399 . S
C413 C418 1.399 . S
C414 C413 1.399 . S
C414 C415 1.376 . S
C415 H402 0.930 . S
C415 C414 1.376 . S
C415 C416 1.388 . S
C416 H403 0.930 . S
C416 C415 1.388 . S
C416 C417 1.390 . S
C417 C416 1.390 . S
C417 C418 1.394 . S
C417 C423 1.465 . S
C418 C413 1.399 . S
C418 C417 1.394 . S
C418 C419 1.516 . S
C419 C418 1.516 . S
C419 C420 1.502 . S
C419 C421 1.561 . S
C419 C422 1.526 . S
C420 H404 0.959 . S
C420 H405 0.959 . S
C420 H406 0.961 . S
C420 C419 1.502 . S
C421 H407 0.960 . S
C421 H408 0.961 . S
C421 H409 0.959 . S
C421 C419 1.561 . S
C422 C419 1.526 . S
C422 C423 1.396 . S
C422 C427 1.390 . S
C423 C417 1.465 . S
C423 C422 1.396 . S
C423 C424 1.399 . S
C424 H410 0.929 . S
C424 C423 1.399 . S
C424 C425 1.385 . S
C425 H411 0.931 . S
C425 C424 1.385 . S
C425 C426 1.389 . S
C426 C425 1.389 . S
C426 C427 1.387 . S
C427 H412 0.930 . S
C427 C422 1.390 . S
C427 C426 1.387 . S
H428 C440 0.930 . S
H429 C442 0.930 . S
H430 C443 0.930 . S
H431 C447 0.959 . S
H432 C447 0.959 . S
H433 C447 0.961 . S
H434 C448 0.960 . S
H435 C448 0.961 . S
H436 C448 0.959 . S
H437 C451 0.929 . S
H438 C452 0.931 . S
H439 C454 0.930 . S
C440 H428 0.930 . S
C440 C441 1.399 . S
C440 C445 1.399 . S
C441 C440 1.399 . S
C441 C442 1.376 . S
C442 H429 0.930 . S
C442 C441 1.376 . S
C442 C443 1.388 . S
C443 H430 0.930 . S
C443 C442 1.388 . S
C443 C444 1.390 . S
C444 C443 1.390 . S
C444 C445 1.394 . S
C444 C450 1.465 . S
C445 C440 1.399 . S
C445 C444 1.394 . S
C445 C446 1.516 . S
C446 C445 1.516 . S
C446 C447 1.502 . S
C446 C448 1.561 . S
C446 C449 1.526 . S
C447 H431 0.959 . S
C447 H432 0.959 . S
C447 H433 0.961 . S
C447 C446 1.502 . S
C448 H434 0.960 . S
C448 H435 0.961 . S
C448 H436 0.959 . S
C448 C446 1.561 . S
C449 C446 1.526 . S
C449 C450 1.396 . S
C449 C454 1.390 . S
C450 C444 1.465 . S
C450 C449 1.396 . S
C450 C451 1.399 . S
C451 H437 0.929 . S
C451 C450 1.399 . S
C451 C452 1.385 . S
C452 H438 0.931 . S
C452 C451 1.385 . S
C452 C453 1.389 . S
C453 C452 1.389 . S
C453 C454 1.387 . S
C454 H439 0.930 . S
C454 C449 1.390 . S
C454 C453 1.387 . S
H455 C467 0.930 . S
H456 C469 0.930 . S
H457 C470 0.930 . S
H458 C474 0.959 . S
H459 C474 0.959 . S
H460 C474 0.961 . S
H461 C475 0.960 . S
H462 C475 0.961 . S
H463 C475 0.959 . S
H464 C478 0.929 . S
H465 C479 0.931 . S
H466 C481 0.930 . S
C467 H455 0.930 . S
C467 C468 1.399 . S
C467 C472 1.399 . S
C468 C467 1.399 . S
C468 C469 1.376 1_556 S
C469 H456 0.930 . S
C469 C468 1.376 1_554 S
C469 C470 1.388 1_554 S
C470 H457 0.930 . S
C470 C469 1.388 1_556 S
C470 C471 1.390 . S
C471 C470 1.390 . S
C471 C472 1.394 . S
C471 C477 1.465 . S
C472 C467 1.399 . S
C472 C471 1.394 . S
C472 C473 1.516 . S
C473 C472 1.516 . S
C473 C474 1.502 . S
C473 C475 1.561 . S
C473 C476 1.526 . S
C474 H458 0.959 . S
C474 H459 0.959 . S
C474 H460 0.961 . S
C474 C473 1.502 . S
C475 H461 0.960 . S
C475 H462 0.961 . S
C475 H463 0.959 . S
C475 C473 1.561 . S
C476 C473 1.526 . S
C476 C477 1.396 . S
C476 C481 1.390 . S
C477 C471 1.465 . S
C477 C476 1.396 . S
C477 C478 1.399 . S
C478 H464 0.929 . S
C478 C477 1.399 . S
C478 C479 1.385 . S
C479 H465 0.931 . S
C479 C478 1.385 . S
C479 C480 1.389 . S
C480 C479 1.389 . S
C480 C481 1.387 . S
C481 H466 0.930 . S
C481 C476 1.390 . S
C481 C480 1.387 . S
H482 C494 0.930 . S
H483 C496 0.930 . S
H484 C497 0.930 . S
H485 C501 0.959 . S
H486 C501 0.959 . S
H487 C501 0.961 . S
H488 C502 0.960 . S
H489 C502 0.961 . S
H490 C502 0.959 . S
H491 C505 0.929 . S
H492 C506 0.931 . S
H493 C508 0.930 . S
C494 H482 0.930 . S
C494 C495 1.399 . S
C494 C499 1.399 . S
C495 C494 1.399 . S
C495 C496 1.376 . S
C496 H483 0.930 . S
C496 C495 1.376 . S
C496 C497 1.388 . S
C497 H484 0.930 . S
C497 C496 1.388 . S
C497 C498 1.390 . S
C498 C497 1.390 . S
C498 C499 1.394 . S
C498 C504 1.465 . S
C499 C494 1.399 . S
C499 C498 1.394 . S
C499 C500 1.516 . S
C500 C499 1.516 . S
C500 C501 1.502 . S
C500 C502 1.561 . S
C500 C503 1.526 . S
C501 H485 0.959 . S
C501 H486 0.959 . S
C501 H487 0.961 . S
C501 C500 1.502 . S
C502 H488 0.960 . S
C502 H489 0.961 . S
C502 H490 0.959 . S
C502 C500 1.561 . S
C503 C500 1.526 . S
C503 C504 1.396 . S
C503 C508 1.390 . S
C504 C498 1.465 . S
C504 C503 1.396 . S
C504 C505 1.399 . S
C505 H491 0.929 . S
C505 C504 1.399 . S
C505 C506 1.385 . S
C506 H492 0.931 . S
C506 C505 1.385 . S
C506 C507 1.389 . S
C507 C506 1.389 . S
C507 C508 1.387 . S
C508 H493 0.930 . S
C508 C503 1.390 . S
C508 C507 1.387 . S
H509 C521 0.930 . S
H510 C523 0.930 . S
H511 C524 0.930 . S
H512 C528 0.959 . S
H513 C528 0.959 . S
H514 C528 0.961 . S
H515 C529 0.960 . S
H516 C529 0.961 . S
H517 C529 0.959 . S
H518 C532 0.929 1_545 S
H519 C533 0.931 1_545 S
H520 C535 0.930 . S
C521 H509 0.930 . S
C521 C522 1.399 . S
C521 C526 1.399 . S
C522 C521 1.399 . S
C522 C523 1.376 . S
C523 H510 0.930 . S
C523 C522 1.376 . S
C523 C524 1.388 . S
C524 H511 0.930 . S
C524 C523 1.388 . S
C524 C525 1.390 . S
C525 C524 1.390 . S
C525 C526 1.394 . S
C525 C531 1.465 . S
C526 C521 1.399 . S
C526 C525 1.394 . S
C526 C527 1.516 . S
C527 C526 1.516 . S
C527 C528 1.502 . S
C527 C529 1.561 . S
C527 C530 1.526 . S
C528 H512 0.959 . S
C528 H513 0.959 . S
C528 H514 0.961 . S
C528 C527 1.502 . S
C529 H515 0.960 . S
C529 H516 0.961 . S
C529 H517 0.959 . S
C529 C527 1.561 . S
C530 C527 1.526 . S
C530 C531 1.396 . S
C530 C535 1.390 . S
C531 C525 1.465 . S
C531 C530 1.396 . S
C531 C532 1.399 . S
C532 H518 0.929 1_565 S
C532 C531 1.399 . S
C532 C533 1.385 . S
C533 H519 0.931 1_565 S
C533 C532 1.385 . S
C533 C534 1.389 . S
C534 C533 1.389 . S
C534 C535 1.387 . S
C535 H520 0.930 . S
C535 C530 1.390 . S
C535 C534 1.387 . S
C237 C112 1.662 . S
C225 C43 1.662 . S
C252 C10 1.658 . S
C264 C184 1.656 . S
C279 C21 1.671 . S
C291 C100 1.673 . S
C306 C32 1.627 . S
C318 C196 1.635 . S
C345 C102 1.420 . S
C333 C5 1.617 . S
C372 C183 1.693 . S
C360 C15 1.695 . S
C387 C27 1.612 . S
C399 C99 1.643 . S
C414 C38 1.583 . S
C426 C186 1.414 . S
C453 C198 1.440 . S
C441 C16 1.556 . S
C480 C114 1.373 . S
C468 C26 1.537 1_556 S
C507 C195 1.616 . S
C495 C37 1.621 . S
C522 C4 1.567 . S
C534 C111 1.580 . S
