# Generated by pormake.
# Topology pyr, (3,6)-cn, num edge types: 1
# Building blocks:
#     Node 0, Type 0, BuildingBlock: VETTIZ_charged_linker_0, # of connection points: 3
#     Node 1, Type 0, BuildingBlock: VETTIZ_charged_linker_0, # of connection points: 3
#     Node 2, Type 0, BuildingBlock: VETTIZ_charged_linker_0, # of connection points: 3
#     Node 3, Type 0, BuildingBlock: VETTIZ_charged_linker_0, # of connection points: 3
#     Node 4, Type 0, BuildingBlock: VETTIZ_charged_linker_0, # of connection points: 3
#     Node 5, Type 0, BuildingBlock: VETTIZ_charged_linker_0, # of connection points: 3
#     Node 6, Type 0, BuildingBlock: VETTIZ_charged_linker_0, # of connection points: 3
#     Node 7, Type 0, BuildingBlock: VETTIZ_charged_linker_0, # of connection points: 3
#     Node 8, Type 1, BuildingBlock: BETDEL_clean_sbu_0, # of connection points: 6
#     Node 9, Type 1, BuildingBlock: BETDEL_clean_sbu_0, # of connection points: 6
#     Node 10, Type 1, BuildingBlock: BETDEL_clean_sbu_0, # of connection points: 6
#     Node 11, Type 1, BuildingBlock: BETDEL_clean_sbu_0, # of connection points: 6
#     Edge 12, Type (0, 1), BuildingBlock: UVAHIK_clean_linker_0, # of connection points: 2
#     Edge 13, Type (0, 1), BuildingBlock: UVAHIK_clean_linker_0, # of connection points: 2
#     Edge 14, Type (0, 1), BuildingBlock: UVAHIK_clean_linker_0, # of connection points: 2
#     Edge 15, Type (0, 1), BuildingBlock: UVAHIK_clean_linker_0, # of connection points: 2
#     Edge 16, Type (0, 1), BuildingBlock: UVAHIK_clean_linker_0, # of connection points: 2
#     Edge 17, Type (0, 1), BuildingBlock: UVAHIK_clean_linker_0, # of connection points: 2
#     Edge 18, Type (0, 1), BuildingBlock: UVAHIK_clean_linker_0, # of connection points: 2
#     Edge 19, Type (0, 1), BuildingBlock: UVAHIK_clean_linker_0, # of connection points: 2
#     Edge 20, Type (0, 1), BuildingBlock: UVAHIK_clean_linker_0, # of connection points: 2
#     Edge 21, Type (0, 1), BuildingBlock: UVAHIK_clean_linker_0, # of connection points: 2
#     Edge 22, Type (0, 1), BuildingBlock: UVAHIK_clean_linker_0, # of connection points: 2
#     Edge 23, Type (0, 1), BuildingBlock: UVAHIK_clean_linker_0, # of connection points: 2
#     Edge 24, Type (0, 1), BuildingBlock: UVAHIK_clean_linker_0, # of connection points: 2
#     Edge 25, Type (0, 1), BuildingBlock: UVAHIK_clean_linker_0, # of connection points: 2
#     Edge 26, Type (0, 1), BuildingBlock: UVAHIK_clean_linker_0, # of connection points: 2
#     Edge 27, Type (0, 1), BuildingBlock: UVAHIK_clean_linker_0, # of connection points: 2
#     Edge 28, Type (0, 1), BuildingBlock: UVAHIK_clean_linker_0, # of connection points: 2
#     Edge 29, Type (0, 1), BuildingBlock: UVAHIK_clean_linker_0, # of connection points: 2
#     Edge 30, Type (0, 1), BuildingBlock: UVAHIK_clean_linker_0, # of connection points: 2
#     Edge 31, Type (0, 1), BuildingBlock: UVAHIK_clean_linker_0, # of connection points: 2
#     Edge 32, Type (0, 1), BuildingBlock: UVAHIK_clean_linker_0, # of connection points: 2
#     Edge 33, Type (0, 1), BuildingBlock: UVAHIK_clean_linker_0, # of connection points: 2
#     Edge 34, Type (0, 1), BuildingBlock: UVAHIK_clean_linker_0, # of connection points: 2
#     Edge 35, Type (0, 1), BuildingBlock: UVAHIK_clean_linker_0, # of connection points: 2
# Relax obj value: 0.025
# Max RMSD: 0.089
# Mean RMSD: 0.038
data_MOF--net-pyr--node1-BETDEL_clean_sbu_0--node2-VETTIZ_charged_linker_0--edge1-UVAHIK_clean_linker_0
_symmetry_space_group_name_H-M    P1
_symmetry_Int_Tables_number       1
_symmetry_cell_setting            triclinic
loop_
_symmetry_equiv_pos_as_xyz
'x, y, z'
_cell_length_a     55.978495
_cell_length_b     57.956879
_cell_length_c     53.433627
_cell_angle_alpha  91.761598
_cell_angle_beta   89.387922
_cell_angle_gamma 94.254226
loop_
_atom_site_label
_atom_site_type_symbol
_atom_site_fract_x
_atom_site_fract_y
_atom_site_fract_z
_atom_type_partial_charge
C0 C 0.15743 0.15277 0.23538 0.0
C1 C 0.13465 0.16016 0.24151 0.0
C2 C 0.12657 0.17928 0.22923 0.0
C3 C 0.16314 0.18255 0.20451 0.0
C4 C 0.17127 0.16413 0.21689 0.0
C5 C 0.1954 0.15782 0.20739 0.0
H6 H 0.28577 0.17288 0.12307 0.0
C7 C 0.1814 0.18986 0.18564 0.0
C8 C 0.20041 0.17554 0.18729 0.0
H9 H 0.27655 0.12183 0.18035 0.0
H10 H 0.24085 0.13879 0.19533 0.0
H11 H 0.27046 0.21692 0.15848 0.0
H12 H 0.23073 0.17025 0.107 0.0
H13 H 0.22358 0.19869 0.10145 0.0
H14 H 0.25393 0.1911 0.09698 0.0
H15 H 0.27415 0.21882 0.12518 0.0
H16 H 0.25097 0.23316 0.14189 0.0
C17 C 0.21342 0.16146 0.22922 0.0
C18 C 0.19258 0.13272 0.19629 0.0
C19 C 0.16451 0.25315 0.12654 0.0
C20 C 0.17752 0.2637 0.10685 0.0
C21 C 0.20087 0.25731 0.10147 0.0
C22 C 0.21077 0.24002 0.11506 0.0
C23 C 0.19719 0.22913 0.13427 0.0
C24 C 0.17465 0.23613 0.13999 0.0
C25 C 0.16298 0.22335 0.16142 0.0
C26 C 0.18201 0.20714 0.16739 0.0
C27 C 0.20192 0.21038 0.15132 0.0
C28 C 0.1592 0.24105 0.18321 0.0
C29 C 0.13967 0.21007 0.15168 0.0
C30 C 0.2762 0.16562 0.13906 0.0
C31 C 0.28384 0.14593 0.15048 0.0
C32 C 0.27081 0.13682 0.17109 0.0
C33 C 0.25009 0.1467 0.17975 0.0
C34 C 0.2421 0.16578 0.16753 0.0
C35 C 0.25525 0.17515 0.14777 0.0
C36 C 0.24363 0.1951 0.13675 0.0
C37 C 0.22119 0.19587 0.15291 0.0
C38 C 0.22044 0.17862 0.17088 0.0
C39 C 0.26063 0.21723 0.14052 0.0
C40 C 0.23771 0.18869 0.10904 0.0
H41 H 0.13338 0.20477 0.20202 0.0
H42 H 0.16435 0.13834 0.24467 0.0
H43 H 0.17452 0.12882 0.18802 0.0
H44 H 0.20514 0.12965 0.18068 0.0
H45 H 0.19483 0.11987 0.21093 0.0
H46 H 0.20963 0.17699 0.24096 0.0
H47 H 0.21228 0.14633 0.24156 0.0
H48 H 0.23212 0.16482 0.22276 0.0
H49 H 0.14673 0.25811 0.13146 0.0
H50 H 0.21124 0.26538 0.08644 0.0
H51 H 0.22849 0.23562 0.10993 0.0
H52 H 0.17349 0.25547 0.18326 0.0
H53 H 0.14173 0.24878 0.18162 0.0
H54 H 0.16034 0.23345 0.20185 0.0
H55 H 0.14218 0.20329 0.13219 0.0
H56 H 0.13418 0.19465 0.16253 0.0
H57 H 0.12465 0.22155 0.15157 0.0
H58 H 0.10902 0.1852 0.23335 0.0
C59 C 0.1407 0.19053 0.21087 0.0
C60 C 0.25385 0.86881 0.58634 0.0
C61 C 0.23951 0.88499 0.59812 0.0
C62 C 0.24406 0.89173 0.62333 0.0
C63 C 0.2765 0.86648 0.62453 0.0
C64 C 0.27206 0.85971 0.59991 0.0
C65 C 0.28816 0.84151 0.5907 0.0
H66 H 0.37624 0.77175 0.61548 0.0
C67 C 0.29623 0.8535 0.63348 0.0
C68 C 0.30314 0.83877 0.6138 0.0
H69 H 0.33552 0.77352 0.5474 0.0
H70 H 0.31404 0.80506 0.56499 0.0
H71 H 0.38386 0.82827 0.62505 0.0
H72 H 0.33351 0.77454 0.65137 0.0
H73 H 0.33924 0.79388 0.67683 0.0
H74 H 0.36344 0.77873 0.66319 0.0
H75 H 0.39169 0.80717 0.64683 0.0
H76 H 0.37935 0.83374 0.65722 0.0
C77 C 0.30351 0.85142 0.56871 0.0
C78 C 0.27231 0.81917 0.58387 0.0
C79 C 0.32616 0.86763 0.72234 0.0
C80 C 0.34426 0.85831 0.73604 0.0
C81 C 0.35777 0.84129 0.72453 0.0
C82 C 0.35345 0.83382 0.6997 0.0
C83 C 0.33537 0.84341 0.68621 0.0
C84 C 0.32207 0.85999 0.69758 0.0
C85 C 0.30356 0.86819 0.68046 0.0
C86 C 0.30799 0.85383 0.65688 0.0
C87 C 0.32662 0.8394 0.66036 0.0
C88 C 0.30947 0.89439 0.67653 0.0
C89 C 0.27844 0.86196 0.69202 0.0
C90 C 0.36305 0.77925 0.60415 0.0
C91 C 0.35766 0.77034 0.57998 0.0
C92 C 0.33989 0.78013 0.5661 0.0
C93 C 0.32746 0.79838 0.57636 0.0
C94 C 0.33266 0.80669 0.60087 0.0
C95 C 0.35031 0.79719 0.61423 0.0
C96 C 0.35283 0.80738 0.64032 0.0
C97 C 0.33363 0.82446 0.64056 0.0
C98 C 0.32196 0.82412 0.61739 0.0
C99 C 0.37827 0.8197 0.64274 0.0
C100 C 0.34716 0.78773 0.65906 0.0
H101 H 0.26488 0.88847 0.65561 0.0
H102 H 0.25099 0.86327 0.567 0.0
H103 H 0.25593 0.81762 0.59587 0.0
H104 H 0.28133 0.80322 0.58713 0.0
H105 H 0.26643 0.81906 0.56408 0.0
H106 H 0.30985 0.86978 0.57284 0.0
H107 H 0.29295 0.85088 0.55119 0.0
H108 H 0.31988 0.84229 0.56523 0.0
H109 H 0.31528 0.88054 0.73074 0.0
H110 H 0.37202 0.83406 0.73459 0.0
H111 H 0.36443 0.82093 0.69197 0.0
H112 H 0.32917 0.89845 0.67508 0.0
H113 H 0.30275 0.90492 0.69246 0.0
H114 H 0.30224 0.9004 0.65894 0.0
H115 H 0.27839 0.84613 0.7033 0.0
H116 H 0.26455 0.8577 0.67773 0.0
H117 H 0.27271 0.87619 0.70457 0.0
H118 H 0.23302 0.90369 0.63316 0.0
C119 C 0.26248 0.88268 0.6365 0.0
C120 C 0.6276 0.25857 0.87874 0.0
C121 C 0.60645 0.24681 0.86945 0.0
C122 C 0.59508 0.25604 0.84893 0.0
C123 C 0.62541 0.2882 0.84773 0.0
C124 C 0.63668 0.27907 0.86766 0.0
C125 C 0.65889 0.29364 0.87541 0.0
H126 H 0.73515 0.38844 0.85934 0.0
C127 C 0.63928 0.30993 0.84087 0.0
C128 C 0.65894 0.31316 0.85708 0.0
H129 H 0.73952 0.33465 0.91313 0.0
H130 H 0.70314 0.31515 0.8971 0.0
H131 H 0.67945 0.39356 0.86649 0.0
H132 H 0.71849 0.35424 0.8124 0.0
H133 H 0.69642 0.3679 0.79638 0.0
H134 H 0.71938 0.38529 0.81312 0.0
H135 H 0.69494 0.40693 0.84053 0.0
H136 H 0.66442 0.39466 0.83796 0.0
C137 C 0.65534 0.3024 0.9028 0.0
C138 C 0.68068 0.2789 0.87129 0.0
C139 C 0.61153 0.35785 0.76961 0.0
C140 C 0.62007 0.37933 0.76006 0.0
C141 C 0.64061 0.39107 0.7708 0.0
C142 C 0.65253 0.3816 0.79055 0.0
C143 C 0.64381 0.36016 0.79993 0.0
C144 C 0.62352 0.34873 0.78962 0.0
C145 C 0.61633 0.32659 0.80274 0.0
C146 C 0.63583 0.32649 0.82235 0.0
C147 C 0.65197 0.34614 0.82047 0.0
C148 C 0.59127 0.32882 0.81476 0.0
C149 C 0.61753 0.3062 0.78347 0.0
C150 C 0.72819 0.37255 0.8678 0.0
C151 C 0.74043 0.36308 0.8875 0.0
C152 C 0.73077 0.34219 0.8977 0.0
C153 C 0.7095 0.33092 0.88844 0.0
C154 C 0.69758 0.34054 0.86869 0.0
C155 C 0.70694 0.36103 0.85873 0.0
C156 C 0.69179 0.36869 0.83784 0.0
C157 C 0.67195 0.34931 0.83677 0.0
C158 C 0.67543 0.33289 0.85492 0.0
C159 C 0.6822 0.39225 0.84585 0.0
C160 C 0.70721 0.36927 0.81359 0.0
H161 H 0.5949 0.28263 0.82251 0.0
H162 H 0.63673 0.2522 0.8946 0.0
H163 H 0.67799 0.26694 0.85469 0.0
H164 H 0.69743 0.28942 0.86717 0.0
H165 H 0.68346 0.26819 0.88775 0.0
H166 H 0.63645 0.3065 0.90624 0.0
H167 H 0.65957 0.2891 0.91627 0.0
H168 H 0.66613 0.31867 0.90738 0.0
H169 H 0.59561 0.34856 0.76198 0.0
H170 H 0.64765 0.40753 0.76367 0.0
H171 H 0.66811 0.39137 0.79776 0.0
H172 H 0.58922 0.34688 0.82168 0.0
H173 H 0.57684 0.32419 0.80101 0.0
H174 H 0.58815 0.31816 0.83142 0.0
H175 H 0.6333 0.30905 0.77078 0.0
H176 H 0.61988 0.28954 0.79227 0.0
H177 H 0.60123 0.30434 0.77169 0.0
H178 H 0.57902 0.24723 0.84105 0.0
C179 C 0.60441 0.27659 0.83806 0.0
C180 C 0.87373 0.73112 0.36317 0.0
C181 C 0.86496 0.74168 0.38515 0.0
C182 C 0.84596 0.73011 0.39838 0.0
C183 C 0.84526 0.69786 0.36838 0.0
C184 C 0.86372 0.70927 0.35522 0.0
C185 C 0.87124 0.69537 0.33259 0.0
H186 H 0.86143 0.5948 0.26398 0.0
C187 C 0.83936 0.67521 0.35562 0.0
C188 C 0.85458 0.67357 0.33468 0.0
H189 H 0.90629 0.65671 0.24874 0.0
H190 H 0.89048 0.67595 0.28556 0.0
H191 H 0.86744 0.59598 0.3245 0.0
H192 H 0.81533 0.62129 0.27565 0.0
H193 H 0.79951 0.611 0.30202 0.0
H194 H 0.81546 0.5912 0.28253 0.0
H195 H 0.84616 0.57724 0.30719 0.0
H196 H 0.83894 0.5892 0.33766 0.0
C197 C 0.89782 0.6904 0.33574 0.0
C198 C 0.86619 0.70892 0.30888 0.0
C199 C 0.77221 0.62071 0.38954 0.0
C200 C 0.76278 0.59843 0.38194 0.0
C201 C 0.7737 0.587 0.36164 0.0
C202 C 0.79324 0.59775 0.3488 0.0
C203 C 0.80207 0.62021 0.35627 0.0
C204 C 0.79177 0.63118 0.37653 0.0
C205 C 0.80375 0.65487 0.38204 0.0
C206 C 0.82246 0.65655 0.36127 0.0
C207 C 0.82136 0.63623 0.34623 0.0
C208 C 0.81525 0.65479 0.40831 0.0
C209 C 0.78487 0.67287 0.37939 0.0
C210 C 0.86796 0.61243 0.26879 0.0
C211 C 0.88526 0.62425 0.25378 0.0
C212 C 0.89296 0.64735 0.26016 0.0
C213 C 0.8838 0.65842 0.28153 0.0
C214 C 0.86654 0.64634 0.29648 0.0
C215 C 0.85867 0.62384 0.28978 0.0
C216 C 0.83913 0.6142 0.30683 0.0
C217 C 0.83689 0.63443 0.3252 0.0
C218 C 0.85318 0.65311 0.31925 0.0
C219 C 0.84814 0.59292 0.3197 0.0
C220 C 0.81612 0.60894 0.2911 0.0
H221 H 0.82169 0.70047 0.40107 0.0
H222 H 0.88843 0.73945 0.35266 0.0
H223 H 0.85066 0.71964 0.31189 0.0
H224 H 0.8611 0.6974 0.29262 0.0
H225 H 0.88188 0.72073 0.30373 0.0
H226 H 0.90122 0.68548 0.35528 0.0
H227 H 0.90988 0.70594 0.33166 0.0
H228 H 0.90318 0.67579 0.32378 0.0
H229 H 0.7642 0.63011 0.4049 0.0
H230 H 0.76714 0.56968 0.35565 0.0
H231 H 0.80063 0.58817 0.33345 0.0
H232 H 0.82091 0.63733 0.41255 0.0
H233 H 0.80245 0.65972 0.42322 0.0
H234 H 0.83186 0.66629 0.40985 0.0
H235 H 0.7729 0.6681 0.36325 0.0
H236 H 0.79288 0.69038 0.37549 0.0
H237 H 0.77345 0.67382 0.39646 0.0
H238 H 0.83859 0.73798 0.41512 0.0
C239 C 0.83609 0.70832 0.39013 0.0
C240 C 0.81322 0.73399 0.87396 0.0
C241 C 0.83543 0.7254 0.8675 0.0
C242 C 0.84835 0.73469 0.84687 0.0
C243 C 0.81749 0.76071 0.83979 0.0
C244 C 0.80462 0.75159 0.85985 0.0
C245 C 0.78174 0.76328 0.86441 0.0
H246 H 0.70988 0.84706 0.83373 0.0
C247 C 0.80412 0.77915 0.82947 0.0
C248 C 0.78304 0.78072 0.84365 0.0
H249 H 0.70127 0.80029 0.89511 0.0
H250 H 0.73638 0.78136 0.88125 0.0
H251 H 0.72674 0.80869 0.79078 0.0
H252 H 0.76414 0.85807 0.84103 0.0
H253 H 0.78001 0.85866 0.81258 0.0
H254 H 0.74951 0.8667 0.81348 0.0
H255 H 0.72747 0.83937 0.78674 0.0
H256 H 0.75074 0.82238 0.77404 0.0
C257 C 0.76044 0.74491 0.86088 0.0
C258 C 0.78304 0.77523 0.89078 0.0
C259 C 0.8411 0.82661 0.75893 0.0
C260 C 0.83376 0.84562 0.74607 0.0
C261 C 0.81089 0.85341 0.75125 0.0
C262 C 0.79588 0.84283 0.76942 0.0
C263 C 0.80385 0.82434 0.78269 0.0
C264 C 0.82595 0.81631 0.77702 0.0
C265 C 0.8316 0.79658 0.79299 0.0
C266 C 0.80943 0.79435 0.80954 0.0
C267 C 0.79329 0.81068 0.80353 0.0
C268 C 0.83376 0.77487 0.77563 0.0
C269 C 0.85446 0.80421 0.80819 0.0
C270 C 0.71529 0.8324 0.84381 0.0
C271 C 0.70281 0.82499 0.86539 0.0
C272 C 0.71071 0.80626 0.87845 0.0
C273 C 0.7311 0.79537 0.8704 0.0
C274 C 0.74395 0.80355 0.84931 0.0
C275 C 0.73586 0.82164 0.83628 0.0
C276 C 0.75248 0.82897 0.81524 0.0
C277 C 0.77187 0.81227 0.81773 0.0
C278 C 0.76676 0.79737 0.83767 0.0
C279 C 0.73875 0.82485 0.7903 0.0
C280 C 0.76201 0.85445 0.82057 0.0
H281 H 0.85034 0.75848 0.81767 0.0
H282 H 0.80277 0.72721 0.88963 0.0
H283 H 0.80178 0.78142 0.89552 0.0
H284 H 0.77301 0.79093 0.89217 0.0
H285 H 0.77642 0.76311 0.90545 0.0
H286 H 0.76375 0.73305 0.84464 0.0
H287 H 0.75777 0.73422 0.87772 0.0
H288 H 0.7435 0.75252 0.85666 0.0
H289 H 0.85864 0.82032 0.75565 0.0
H290 H 0.80464 0.8678 0.74132 0.0
H291 H 0.77881 0.8497 0.77268 0.0
H292 H 0.82173 0.77512 0.7592 0.0
H293 H 0.85234 0.77395 0.76835 0.0
H294 H 0.82809 0.75856 0.78491 0.0
H295 H 0.85498 0.82296 0.81351 0.0
H296 H 0.85533 0.79543 0.82616 0.0
H297 H 0.87093 0.80133 0.79711 0.0
H298 H 0.86573 0.72886 0.84174 0.0
C299 C 0.83948 0.75212 0.83296 0.0
C300 C 0.75272 0.14541 0.40883 0.0
C301 C 0.7677 0.12975 0.39736 0.0
C302 C 0.76198 0.12012 0.3735 0.0
C303 C 0.72667 0.14173 0.37269 0.0
C304 C 0.73245 0.15134 0.39605 0.0
C305 C 0.7154 0.16893 0.40459 0.0
H306 H 0.6217 0.23079 0.37749 0.0
C307 C 0.7047 0.15161 0.36436 0.0
C308 C 0.69799 0.16761 0.38291 0.0
H309 H 0.66883 0.24008 0.44111 0.0
H310 H 0.68862 0.20591 0.42796 0.0
H311 H 0.61354 0.17551 0.37932 0.0
H312 H 0.66185 0.22137 0.33775 0.0
H313 H 0.64966 0.1997 0.31686 0.0
H314 H 0.63004 0.21835 0.33304 0.0
H315 H 0.60429 0.18873 0.35147 0.0
H316 H 0.61784 0.16135 0.35027 0.0
C317 C 0.70308 0.16069 0.42913 0.0
C318 C 0.72966 0.19289 0.40703 0.0
C319 C 0.6695 0.12721 0.2796 0.0
C320 C 0.64871 0.13273 0.26734 0.0
C321 C 0.63299 0.14738 0.27949 0.0
C322 C 0.63826 0.15697 0.30332 0.0
C323 C 0.65945 0.15182 0.31512 0.0
C324 C 0.67435 0.13672 0.30354 0.0
C325 C 0.69532 0.13223 0.31955 0.0
C326 C 0.69084 0.1476 0.34238 0.0
C327 C 0.67005 0.15927 0.33946 0.0
C328 C 0.69333 0.10622 0.32585 0.0
C329 C 0.71859 0.14044 0.30538 0.0
C330 C 0.63627 0.22543 0.38861 0.0
C331 C 0.64404 0.23831 0.41006 0.0
C332 C 0.6626 0.23046 0.42444 0.0
C333 C 0.67421 0.21078 0.41663 0.0
C334 C 0.66722 0.199 0.39418 0.0
C335 C 0.64816 0.20608 0.38093 0.0
C336 C 0.64347 0.192 0.35721 0.0
C337 C 0.66352 0.17586 0.35783 0.0
C338 C 0.67734 0.17995 0.37951 0.0
C339 C 0.61846 0.17877 0.35944 0.0
C340 C 0.64622 0.20857 0.33493 0.0
H341 H 0.73804 0.11796 0.34305 0.0
H342 H 0.75702 0.15325 0.42706 0.0
H343 H 0.74531 0.19402 0.39399 0.0
H344 H 0.71903 0.2073 0.40186 0.0
H345 H 0.73659 0.19622 0.42631 0.0
H346 H 0.69781 0.1418 0.42776 0.0
H347 H 0.71534 0.16381 0.44529 0.0
H348 H 0.68637 0.1691 0.43328 0.0
H349 H 0.6816 0.11559 0.27082 0.0
H350 H 0.61683 0.15175 0.2703 0.0
H351 H 0.62578 0.16826 0.31149 0.0
H352 H 0.67426 0.0996 0.32797 0.0
H353 H 0.70144 0.09563 0.31079 0.0
H354 H 0.70161 0.10279 0.3439 0.0
H355 H 0.71587 0.15604 0.29442 0.0
H356 H 0.73358 0.14588 0.31802 0.0
H357 H 0.72428 0.12677 0.29207 0.0
H358 H 0.77335 0.10793 0.3645 0.0
C359 C 0.74146 0.1259 0.36117 0.0
C360 C 0.39337 0.65017 0.23614 0.0
C361 C 0.38344 0.63036 0.24817 0.0
C362 C 0.36172 0.61939 0.23931 0.0
C363 C 0.36026 0.64755 0.2068 0.0
C364 C 0.38137 0.65858 0.21571 0.0
C365 C 0.38867 0.68009 0.20149 0.0
H366 H 0.36865 0.75034 0.10553 0.0
C367 C 0.35237 0.66051 0.1853 0.0
C368 C 0.36887 0.67972 0.18215 0.0
H369 H 0.42382 0.7599 0.16157 0.0
H370 H 0.40874 0.72453 0.18117 0.0
H371 H 0.32711 0.73714 0.14356 0.0
H372 H 0.37058 0.69451 0.09737 0.0
H373 H 0.3409 0.68236 0.09562 0.0
H374 H 0.34803 0.71128 0.08489 0.0
H375 H 0.32233 0.73305 0.11052 0.0
H376 H 0.30821 0.7135 0.13282 0.0
C377 C 0.3882 0.70129 0.21986 0.0
C378 C 0.41341 0.67704 0.18916 0.0
C379 C 0.27774 0.63078 0.137 0.0
C380 C 0.26629 0.63874 0.1159 0.0
C381 C 0.27623 0.65894 0.1045 0.0
C382 C 0.29707 0.67094 0.11383 0.0
C383 C 0.30826 0.66279 0.13491 0.0
C384 C 0.29859 0.64301 0.14611 0.0
C385 C 0.31294 0.63692 0.16834 0.0
C386 C 0.33273 0.65638 0.16868 0.0
C387 C 0.32988 0.67146 0.14904 0.0
C388 C 0.29667 0.63788 0.19196 0.0
C389 C 0.32282 0.61303 0.16266 0.0
C390 C 0.37759 0.74466 0.12189 0.0
C391 C 0.39753 0.75778 0.13194 0.0
C392 C 0.40838 0.7501 0.15356 0.0
C393 C 0.39961 0.72955 0.16487 0.0
C394 C 0.37957 0.71665 0.15466 0.0
C395 C 0.3688 0.72441 0.13364 0.0
C396 C 0.34699 0.7092 0.12607 0.0
C397 C 0.34648 0.69094 0.14588 0.0
C398 C 0.36575 0.69519 0.16245 0.0
C399 C 0.32493 0.72385 0.12811 0.0
C400 C 0.35161 0.69882 0.09954 0.0
H401 H 0.33377 0.61855 0.21283 0.0
H402 H 0.40983 0.65917 0.24282 0.0
H403 H 0.4139 0.65941 0.1804 0.0
H404 H 0.41767 0.68917 0.17396 0.0
H405 H 0.4279 0.67925 0.20326 0.0
H406 H 0.37454 0.6982 0.2349 0.0
H407 H 0.40582 0.70514 0.22902 0.0
H408 H 0.38297 0.71698 0.2107 0.0
H409 H 0.2708 0.61522 0.14611 0.0
H410 H 0.26767 0.66572 0.08849 0.0
H411 H 0.30361 0.68619 0.1043 0.0
H412 H 0.28361 0.65133 0.1904 0.0
H413 H 0.28629 0.62105 0.19468 0.0
H414 H 0.30678 0.6429 0.20918 0.0
H415 H 0.32852 0.61145 0.1427 0.0
H416 H 0.33895 0.6102 0.17351 0.0
H417 H 0.30895 0.59875 0.16617 0.0
H418 H 0.35379 0.60409 0.24824 0.0
C419 C 0.35017 0.62779 0.21869 0.0
C420 C 0.12407 0.26974 0.63603 0.0
C421 C 0.13335 0.25844 0.61478 0.0
C422 C 0.15332 0.26909 0.60221 0.0
C423 C 0.15438 0.30165 0.63185 0.0
C424 C 0.13478 0.29125 0.64416 0.0
C425 C 0.12699 0.30572 0.66622 0.0
H426 H 0.14546 0.40203 0.74051 0.0
C427 C 0.1612 0.32394 0.64499 0.0
C428 C 0.14517 0.32647 0.66512 0.0
H429 H 0.089 0.3472 0.74644 0.0
H430 H 0.10464 0.32767 0.71003 0.0
H431 H 0.14049 0.40709 0.68262 0.0
H432 H 0.18838 0.36948 0.72554 0.0
H433 H 0.20532 0.38397 0.70208 0.0
H434 H 0.18964 0.40052 0.72517 0.0
H435 H 0.16627 0.42125 0.69773 0.0
H436 H 0.16795 0.40875 0.66643 0.0
C437 C 0.10118 0.31245 0.66144 0.0
C438 C 0.12969 0.29179 0.69018 0.0
C439 C 0.23317 0.37451 0.61465 0.0
C440 C 0.24358 0.39624 0.62277 0.0
C441 C 0.23323 0.40788 0.64323 0.0
C442 C 0.21305 0.39788 0.65567 0.0
C443 C 0.20298 0.37603 0.6475 0.0
C444 C 0.21289 0.36484 0.62714 0.0
C445 C 0.19937 0.34207 0.62065 0.0
C446 C 0.17988 0.34134 0.64066 0.0
C447 C 0.18221 0.36118 0.65642 0.0
C448 C 0.18899 0.3435 0.594 0.0
C449 C 0.2166 0.32262 0.62359 0.0
C450 C 0.13626 0.38593 0.73391 0.0
C451 C 0.11596 0.37618 0.74661 0.0
C452 C 0.1049 0.35497 0.7374 0.0
C453 C 0.11391 0.3437 0.71609 0.0
C454 C 0.13419 0.35372 0.70368 0.0
C455 C 0.14489 0.37458 0.71256 0.0
C456 C 0.16585 0.38305 0.69665 0.0
C457 C 0.16616 0.36369 0.6769 0.0
C458 C 0.14768 0.34649 0.68118 0.0
C459 C 0.1601 0.40631 0.68532 0.0
C460 C 0.18858 0.38454 0.71308 0.0
H461 H 0.17904 0.29769 0.60026 0.0
H462 H 0.10856 0.26218 0.64593 0.0
H463 H 0.14624 0.28229 0.68916 0.0
H464 H 0.13158 0.30284 0.70733 0.0
H465 H 0.11425 0.27884 0.69258 0.0
H466 H 0.09829 0.31491 0.64115 0.0
H467 H 0.08767 0.29877 0.66769 0.0
H468 H 0.09735 0.32913 0.67059 0.0
H469 H 0.24054 0.3653 0.59875 0.0
H470 H 0.24104 0.42456 0.64992 0.0
H471 H 0.20617 0.4075 0.67127 0.0
H472 H 0.18428 0.36139 0.59027 0.0
H473 H 0.20213 0.33857 0.57944 0.0
H474 H 0.17207 0.33267 0.59135 0.0
H475 H 0.22845 0.32639 0.64002 0.0
H476 H 0.20719 0.30562 0.6272 0.0
H477 H 0.22825 0.32097 0.60677 0.0
H478 H 0.16102 0.26065 0.58599 0.0
C479 C 0.16386 0.29057 0.61062 0.0
Dy480 Dy 0.00363 0.00708 0.47464 0.0
C481 C 0.98195 0.97256 0.5719 0.0
C482 C 0.01062 0.02937 0.43066 0.0
Dy483 Dy 0.99064 0.99412 0.52771 0.0
O484 O 0.01898 0.00977 0.43575 0.0
O485 O 0.99816 0.0367 0.44952 0.0
O486 O 0.02859 0.97861 0.47176 0.0
O487 O 0.0239 0.99593 0.5063 0.0
C488 C 0.03346 0.97933 0.49546 0.0
C489 C 0.96131 0.02216 0.5067 0.0
O490 O 0.01804 0.02305 0.53661 0.0
O491 O 0.01771 0.03869 0.49723 0.0
O492 O 0.97473 0.99252 0.56639 0.0
O493 O 0.99435 0.96448 0.55338 0.0
O494 O 0.96618 0.02309 0.53038 0.0
O495 O 0.97052 0.00528 0.49608 0.0
O496 O 0.97673 0.97774 0.46572 0.0
O497 O 0.97699 0.96232 0.5052 0.0
C498 C 0.02339 0.0403 0.52132 0.0
C499 C 0.97146 0.96055 0.48108 0.0
Dy500 Dy 0.52266 0.01068 0.01649 0.0
C501 C 0.44673 0.96792 0.95147 0.0
C502 C 0.55883 0.03676 0.03945 0.0
Dy503 Dy 0.48015 0.99226 0.98027 0.0
O504 O 0.55869 0.01468 0.03446 0.0
O505 O 0.5392 0.04474 0.0316 0.0
O506 O 0.51782 0.98198 0.04475 0.0
O507 O 0.49516 0.98316 0.0149 0.0
C508 C 0.49935 0.97158 0.03355 0.0
C509 C 0.50044 0.03495 0.97236 0.0
O510 O 0.45982 0.00638 0.01267 0.0
O511 O 0.4914 0.03008 0.02997 0.0
O512 O 0.45709 0.98799 0.94624 0.0
O513 O 0.45463 0.961 0.97255 0.0
O514 O 0.47796 0.02882 0.9684 0.0
O515 O 0.51122 0.01768 0.97869 0.0
O516 O 0.54277 0.99219 0.98675 0.0
O517 O 0.51071 0.97277 0.96523 0.0
C518 C 0.46821 0.02345 0.02806 0.0
C519 C 0.53396 0.97652 0.96998 0.0
Dy520 Dy 0.50779 0.48313 0.48729 0.0
C521 C 0.47132 0.55935 0.54105 0.0
C522 C 0.53166 0.44875 0.46488 0.0
Dy523 Dy 0.4951 0.52449 0.51936 0.0
O524 O 0.50854 0.44947 0.46545 0.0
O525 O 0.54176 0.46703 0.47615 0.0
O526 O 0.46884 0.47166 0.48347 0.0
O527 O 0.48126 0.48853 0.51671 0.0
C528 C 0.46287 0.48052 0.50506 0.0
C529 C 0.54002 0.5269 0.50146 0.0
O530 O 0.5051 0.50238 0.55058 0.0
O531 O 0.52325 0.47562 0.52492 0.0
O532 O 0.49444 0.55918 0.53919 0.0
O533 O 0.46121 0.54021 0.53162 0.0
O534 O 0.53417 0.53596 0.523 0.0
O535 O 0.52153 0.51903 0.48997 0.0
O536 O 0.49874 0.50603 0.4563 0.0
O537 O 0.47852 0.53108 0.48206 0.0
C538 C 0.5185 0.48454 0.54749 0.0
C539 C 0.48421 0.52297 0.45943 0.0
Dy540 Dy 0.01127 0.47704 0.01219 0.0
C541 C 0.97345 0.5607 0.98121 0.0
C542 C 0.03563 0.43924 0.02166 0.0
Dy543 Dy 0.99638 0.5225 0.99252 0.0
O544 O 0.02293 0.45014 0.03799 0.0
O545 O 0.03471 0.44875 1.00006 0.0
O546 O 0.98292 0.47847 0.04211 0.0
O547 O 0.00079 0.5093 0.02959 0.0
C548 C 0.98423 0.50097 0.04352 0.0
C549 C 0.02331 0.49848 0.96097 0.0
O550 O 0.02899 0.53655 0.01316 0.0
O551 O 0.04482 0.50096 0.01691 0.0
O552 O 0.98895 0.55099 0.96696 0.0
O553 O 0.97059 0.5497 0.00197 0.0
O554 O 0.02438 0.52094 0.96232 0.0
O555 O 0.00686 0.49023 0.97509 0.0
O556 O 0.97797 0.46295 0.9927 0.0
O557 O 0.96284 0.49871 0.98719 0.0
C558 C 0.04694 0.52394 0.01862 0.0
C559 C 0.96036 0.4757 0.98641 0.0
C560 C 0.11784 0.12325 0.26033 0.0
C561 C 0.11902 0.14755 0.25998 0.0
C562 C 0.10295 0.11128 0.27742 0.0
C563 C 0.0717 0.11882 0.33788 0.0
H564 H 0.03862 0.05998 0.31818 0.0
C565 C 0.01178 0.06588 0.40698 0.0
C566 C 0.01716 0.04268 0.4083 0.0
C567 C 0.02073 0.07934 0.38723 0.0
C568 C 0.04776 0.07639 0.32392 0.0
H569 H 0.10554 0.17833 0.27747 0.0
H570 H 0.07909 0.15739 0.30693 0.0
H571 H 0.06132 0.08261 0.28698 0.0
H572 H 0.03504 0.01497 0.38964 0.0
H573 H 0.05054 0.03838 0.35508 0.0
H574 H 0.05832 0.11244 0.37488 0.0
C575 C 0.08991 0.14761 0.29415 0.0
C576 C 0.06084 0.0893 0.30611 0.0
C577 C 0.10489 0.1596 0.27709 0.0
C578 C 0.03064 0.03283 0.38902 0.0
C579 C 0.03941 0.0462 0.36919 0.0
C580 C 0.0585 0.10596 0.35565 0.0
C581 C 0.08877 0.1233 0.29451 0.0
C582 C 0.07333 0.11047 0.31298 0.0
C583 C 0.035 0.06973 0.36839 0.0
C584 C 0.04675 0.08443 0.34894 0.0
H585 H 0.12823 0.11341 0.24718 0.0
H586 H 0.10279 0.09259 0.27742 0.0
H587 H 0.08133 0.1349 0.34388 0.0
H588 H 0.0014 0.07385 0.42165 0.0
H589 H 0.01686 0.09736 0.38693 0.0
C590 C 0.3503 0.89066 0.76787 0.0
C591 C 0.34952 0.86685 0.76195 0.0
C592 C 0.35604 0.89895 0.79198 0.0
C593 C 0.3883 0.8839 0.84778 0.0
H594 H 0.35993 0.93794 0.87631 0.0
C595 C 0.42407 0.93085 0.93825 0.0
C596 C 0.4298 0.95454 0.93483 0.0
C597 C 0.40987 0.91785 0.92075 0.0
C598 C 0.3679 0.92275 0.86864 0.0
H599 H 0.35349 0.83296 0.7768 0.0
H600 H 0.36356 0.84749 0.8191 0.0
H601 H 0.34297 0.91887 0.83849 0.0
H602 H 0.42447 0.98352 0.91137 0.0
H603 H 0.39956 0.96097 0.88103 0.0
H604 H 0.41364 0.88824 0.87759 0.0
C605 C 0.35998 0.85974 0.80496 0.0
C606 C 0.35828 0.9119 0.84696 0.0
C607 C 0.35426 0.85144 0.78076 0.0
C608 C 0.42033 0.96525 0.91437 0.0
C609 C 0.40593 0.95238 0.89712 0.0
C610 C 0.39784 0.8947 0.86956 0.0
C611 C 0.36109 0.88362 0.81078 0.0
C612 C 0.36887 0.89283 0.83582 0.0
C613 C 0.40094 0.92848 0.89986 0.0
C614 C 0.3882 0.91466 0.87971 0.0
H615 H 0.34712 0.903 0.75367 0.0
H616 H 0.35727 0.91748 0.79567 0.0
H617 H 0.397 0.86937 0.83957 0.0
H618 H 0.43121 0.92223 0.95394 0.0
H619 H 0.4062 0.89945 0.9233 0.0
C620 C 0.60288 0.4131 0.74022 0.0
C621 C 0.60775 0.38965 0.73903 0.0
C622 C 0.59212 0.42312 0.72013 0.0
C623 C 0.55887 0.40852 0.66056 0.0
H624 H 0.57824 0.47242 0.6462 0.0
C625 C 0.53654 0.45148 0.56781 0.0
C626 C 0.52783 0.47363 0.56984 0.0
C627 C 0.54538 0.44112 0.5888 0.0
C628 C 0.5725 0.45462 0.6501 0.0
H629 H 0.60515 0.35832 0.71579 0.0
H630 H 0.58707 0.37587 0.68037 0.0
H631 H 0.59549 0.45448 0.68175 0.0
H632 H 0.52175 0.50228 0.59561 0.0
H633 H 0.5376 0.48433 0.63217 0.0
H634 H 0.53643 0.40864 0.62826 0.0
C635 C 0.59093 0.38649 0.69707 0.0
C636 C 0.5823 0.4443 0.67059 0.0
C637 C 0.6014 0.37638 0.71735 0.0
C638 C 0.52827 0.4852 0.59338 0.0
C639 C 0.53745 0.47497 0.6143 0.0
C640 C 0.54932 0.41878 0.63986 0.0
C641 C 0.58623 0.41007 0.69808 0.0
C642 C 0.57562 0.42109 0.6762 0.0
C643 C 0.54606 0.45279 0.61225 0.0
C644 C 0.556 0.44195 0.63441 0.0
H645 H 0.60727 0.42369 0.75683 0.0
H646 H 0.58831 0.44114 0.722 0.0
H647 H 0.55286 0.39079 0.66442 0.0
H648 H 0.53643 0.44203 0.55 0.0
H649 H 0.55207 0.42411 0.58658 0.0
C650 C 0.9054 0.59135 0.23368 0.0
C651 C 0.89506 0.61248 0.23143 0.0
C652 C 0.91426 0.57989 0.21255 0.0
C653 C 0.93145 0.58859 0.14548 0.0
H654 H 0.92889 0.52158 0.14431 0.0
C655 C 0.98105 0.53706 0.06963 0.0
C656 C 0.97189 0.5146 0.06274 0.0
C657 C 0.97045 0.54938 0.08914 0.0
C658 C 0.92942 0.54028 0.144 0.0
H659 H 0.8855 0.63819 0.20556 0.0
H660 H 0.89988 0.61776 0.16839 0.0
H661 H 0.91225 0.54202 0.17977 0.0
H662 H 0.9439 0.48776 0.06983 0.0
H663 H 0.92454 0.50962 0.10299 0.0
H664 H 0.94742 0.58676 0.10907 0.0
C665 C 0.90202 0.61029 0.18648 0.0
C666 C 0.92026 0.5521 0.16472 0.0
C667 C 0.89364 0.62198 0.20772 0.0
C668 C 0.95143 0.50498 0.07501 0.0
C669 C 0.9405 0.51748 0.09418 0.0
C670 C 0.94017 0.57673 0.12452 0.0
C671 C 0.91247 0.58905 0.18857 0.0
C672 C 0.92143 0.57645 0.16595 0.0
C673 C 0.95012 0.53971 0.10187 0.0
C674 C 0.93957 0.5524 0.12359 0.0
H675 H 0.90686 0.58381 0.25186 0.0
H676 H 0.92269 0.56394 0.21516 0.0
H677 H 0.93299 0.60732 0.14572 0.0
H678 H 0.9969 0.54485 0.06049 0.0
H679 H 0.97873 0.56621 0.09466 0.0
C680 C 0.3023 0.10994 0.13583 0.0
C681 C 0.30443 0.13402 0.14012 0.0
C682 C 0.32131 0.09856 0.12544 0.0
C683 C 0.37762 0.10899 0.08894 0.0
H684 H 0.38775 0.04664 0.10871 0.0
C685 C 0.45732 0.05842 0.0531 0.0
C686 C 0.45089 0.03609 0.0432 0.0
C687 C 0.44058 0.07081 0.06642 0.0
C688 C 0.38507 0.06402 0.10299 0.0
H689 H 0.32817 0.16508 0.13725 0.0
H690 H 0.36178 0.14513 0.11968 0.0
H691 H 0.35689 0.06782 0.12974 0.0
H692 H 0.42207 0.00902 0.04002 0.0
H693 H 0.39298 0.03056 0.06366 0.0
H694 H 0.40615 0.10513 0.06241 0.0
C695 C 0.34522 0.13507 0.12382 0.0
C696 C 0.36732 0.07615 0.11493 0.0
C697 C 0.32604 0.14651 0.13396 0.0
C698 C 0.42755 0.02622 0.04734 0.0
C699 C 0.41094 0.03847 0.06098 0.0
C700 C 0.39559 0.09695 0.07724 0.0
C701 C 0.34306 0.11093 0.11932 0.0
C702 C 0.36309 0.09866 0.10779 0.0
C703 C 0.41723 0.06096 0.07043 0.0
C704 C 0.39924 0.07424 0.08392 0.0
H705 H 0.28569 0.09994 0.14 0.0
H706 H 0.31872 0.08008 0.12172 0.0
H707 H 0.37469 0.12613 0.08266 0.0
H708 H 0.47515 0.06654 0.05015 0.0
H709 H 0.4459 0.08808 0.07364 0.0
C710 C 0.20527 0.88034 0.56783 0.0
C711 C 0.21946 0.89441 0.58464 0.0
C712 C 0.18557 0.88891 0.55634 0.0
C713 C 0.15732 0.94386 0.54456 0.0
H714 H 0.09984 0.90281 0.53595 0.0
C715 C 0.06423 0.97619 0.52825 0.0
C716 C 0.0531 0.96745 0.50616 0.0
C717 C 0.08439 0.96634 0.53708 0.0
C718 C 0.11585 0.91436 0.53816 0.0
H719 H 0.22455 0.92889 0.60171 0.0
H720 H 0.18963 0.94332 0.58296 0.0
H721 H 0.13604 0.88774 0.55215 0.0
H722 H 0.0534 0.94104 0.4766 0.0
H723 H 0.0884 0.92327 0.4926 0.0
H724 H 0.1366 0.97066 0.53158 0.0
C725 C 0.1939 0.92581 0.57811 0.0
C726 C 0.13665 0.90576 0.54725 0.0
C727 C 0.21377 0.91738 0.58926 0.0
C728 C 0.06178 0.9481 0.49363 0.0
C729 C 0.08168 0.93794 0.50276 0.0
C730 C 0.13642 0.95251 0.53596 0.0
C731 C 0.17942 0.91165 0.56164 0.0
C732 C 0.15763 0.92045 0.55072 0.0
C733 C 0.0934 0.94731 0.52425 0.0
C734 C 0.11552 0.93786 0.53284 0.0
H735 H 0.20895 0.8625 0.56397 0.0
H736 H 0.17511 0.87761 0.54343 0.0
H737 H 0.17323 0.95558 0.54638 0.0
H738 H 0.05785 0.9911 0.53826 0.0
H739 H 0.09309 0.97369 0.55383 0.0
C740 C 0.78223 0.36179 0.90411 0.0
C741 C 0.76316 0.3748 0.89744 0.0
C742 C 0.80342 0.37269 0.91382 0.0
C743 C 0.83877 0.42929 0.91784 0.0
H744 H 0.86975 0.40185 0.97303 0.0
C745 C 0.91844 0.47708 0.97047 0.0
C746 C 0.93746 0.46402 0.97716 0.0
C747 C 0.89711 0.4662 0.96106 0.0
C748 C 0.8615 0.40962 0.95743 0.0
H749 H 0.7515 0.40959 0.89594 0.0
H750 H 0.78848 0.42861 0.91282 0.0
H751 H 0.83286 0.383 0.95584 0.0
H752 H 0.94875 0.42913 0.97931 0.0
H753 H 0.91167 0.41019 0.96272 0.0
H754 H 0.86742 0.45589 0.91938 0.0
C755 C 0.78714 0.40995 0.91024 0.0
C756 C 0.84032 0.3988 0.94756 0.0
C757 C 0.76592 0.39904 0.90055 0.0
C758 C 0.9345 0.43976 0.97443 0.0
C759 C 0.91315 0.42887 0.96501 0.0
C760 C 0.85996 0.4401 0.92769 0.0
C761 C 0.80614 0.39691 0.91708 0.0
C762 C 0.82868 0.40849 0.92763 0.0
C763 C 0.89421 0.44196 0.95809 0.0
C764 C 0.87161 0.43042 0.94763 0.0
H765 H 0.78092 0.34313 0.90155 0.0
H766 H 0.81782 0.36213 0.91845 0.0
H767 H 0.83052 0.43706 0.90224 0.0
H768 H 0.91999 0.4958 0.9724 0.0
H769 H 0.8828 0.47681 0.95631 0.0
C770 C 0.72316 0.57507 0.38047 0.0
C771 C 0.74117 0.58751 0.39455 0.0
C772 C 0.70227 0.56582 0.39207 0.0
C773 C 0.67569 0.55062 0.45396 0.0
H774 H 0.61574 0.55745 0.42023 0.0
C775 C 0.58319 0.54111 0.50337 0.0
C776 C 0.56397 0.53017 0.48982 0.0
C777 C 0.6055 0.54562 0.49183 0.0
C778 C 0.63234 0.55509 0.42974 0.0
H779 H 0.7516 0.5993 0.43207 0.0
H780 H 0.71486 0.58374 0.45219 0.0
H781 H 0.65339 0.57003 0.39995 0.0
H782 H 0.55312 0.5146 0.45393 0.0
H783 H 0.59213 0.52243 0.43376 0.0
H784 H 0.65445 0.53613 0.48401 0.0
C785 C 0.71701 0.58089 0.4322 0.0
C786 C 0.65395 0.56229 0.4181 0.0
C787 C 0.73796 0.59008 0.4206 0.0
C788 C 0.56761 0.5232 0.46476 0.0
C789 C 0.5899 0.52778 0.4532 0.0
C790 C 0.65403 0.54349 0.46565 0.0
C791 C 0.69879 0.56885 0.41803 0.0
C792 C 0.6759 0.56027 0.43011 0.0
C793 C 0.609 0.53932 0.4665 0.0
C794 C 0.63211 0.54578 0.45372 0.0
H795 H 0.72489 0.57295 0.36035 0.0
H796 H 0.68875 0.55638 0.38063 0.0
H797 H 0.69228 0.54849 0.46358 0.0
H798 H 0.58085 0.54661 0.52274 0.0
H799 H 0.6198 0.55472 0.50253 0.0
C800 C 0.14294 0.27668 0.08334 0.0
C801 C 0.16641 0.28122 0.09217 0.0
C802 C 0.13125 0.29388 0.07182 0.0
C803 C 0.1297 0.35639 0.07268 0.0
H804 H 0.08727 0.34446 0.01605 0.0
C805 C 0.05348 0.41406 0.05227 0.0
C806 C 0.05079 0.42043 0.0274 0.0
C807 C 0.06915 0.39738 0.05803 0.0
C808 C 0.09921 0.3481 0.03173 0.0
H809 H 0.19642 0.30694 0.09515 0.0
H810 H 0.17582 0.33728 0.07506 0.0
H811 H 0.11323 0.31472 0.02846 0.0
H812 H 0.06189 0.4142 0.98896 0.0
H813 H 0.08915 0.38471 0.99902 0.0
H814 H 0.11537 0.38958 0.07628 0.0
C815 C 0.16652 0.32037 0.07711 0.0
C816 C 0.11395 0.33107 0.03891 0.0
C817 C 0.17834 0.30302 0.08842 0.0
C818 C 0.06363 0.40951 0.00829 0.0
C819 C 0.07917 0.39266 0.01403 0.0
C820 C 0.11482 0.37333 0.06565 0.0
C821 C 0.14271 0.31605 0.06908 0.0
C822 C 0.12909 0.33493 0.05967 0.0
C823 C 0.08229 0.38664 0.03901 0.0
C824 C 0.09917 0.36922 0.04535 0.0
H825 H 0.13343 0.25993 0.08584 0.0
H826 H 0.11285 0.2901 0.06604 0.0
H827 H 0.14102 0.35978 0.0889 0.0
H828 H 0.04378 0.42223 0.06734 0.0
H829 H 0.07093 0.39282 0.0774 0.0
C830 C 0.57126 0.22094 0.88417 0.0
C831 C 0.59618 0.22516 0.88118 0.0
C832 C 0.56155 0.20063 0.89502 0.0
C833 C 0.57642 0.15279 0.93529 0.0
H834 H 0.5194 0.1215 0.90585 0.0
C835 C 0.53727 0.06147 0.96474 0.0
C836 C 0.5122 0.05751 0.96513 0.0
C837 C 0.5481 0.08223 0.9557 0.0
C838 C 0.53514 0.13015 0.91456 0.0
H839 H 0.6304 0.21104 0.88727 0.0
H840 H 0.61346 0.17565 0.90628 0.0
H841 H 0.53705 0.15683 0.88766 0.0
H842 H 0.47882 0.07252 0.95751 0.0
H843 H 0.49756 0.10872 0.94226 0.0
H844 H 0.57442 0.12602 0.96224 0.0
C845 C 0.60143 0.18823 0.90047 0.0
C846 C 0.54529 0.15044 0.90408 0.0
C847 C 0.61115 0.20855 0.88955 0.0
C848 C 0.49819 0.07498 0.9572 0.0
C849 C 0.50897 0.09568 0.94827 0.0
C850 C 0.56621 0.13246 0.94584 0.0
C851 C 0.57649 0.18396 0.90324 0.0
C852 C 0.56599 0.16212 0.91435 0.0
C853 C 0.53406 0.09945 0.94693 0.0
C854 C 0.54533 0.12094 0.93569 0.0
H855 H 0.55918 0.23351 0.87843 0.0
H856 H 0.54229 0.19813 0.89726 0.0
H857 H 0.59223 0.16146 0.94385 0.0
H858 H 0.5485 0.0483 0.97078 0.0
H859 H 0.56747 0.08446 0.95486 0.0
C860 C 0.8819 0.78241 0.37804 0.0
C861 C 0.87576 0.76447 0.39457 0.0
C862 C 0.89196 0.80384 0.38706 0.0
C863 C 0.92458 0.83145 0.44115 0.0
H864 H 0.90321 0.88834 0.41575 0.0
C865 C 0.95289 0.92037 0.4871 0.0
C866 C 0.95911 0.93873 0.47112 0.0
C867 C 0.94225 0.89939 0.47757 0.0
C868 C 0.90956 0.87262 0.42285 0.0
H869 H 0.87574 0.75487 0.43349 0.0
H870 H 0.89293 0.79229 0.44923 0.0
H871 H 0.88593 0.85113 0.39923 0.0
H872 H 0.95872 0.94946 0.43258 0.0
H873 H 0.94038 0.91279 0.41596 0.0
H874 H 0.94826 0.85285 0.46469 0.0
C875 C 0.89012 0.78978 0.42928 0.0
C876 C 0.89966 0.85129 0.41337 0.0
C877 C 0.88 0.76841 0.42028 0.0
C878 C 0.95411 0.93572 0.44545 0.0
C879 C 0.94348 0.91471 0.43592 0.0
C880 C 0.9345 0.85275 0.45059 0.0
C881 C 0.89622 0.80776 0.41279 0.0
C882 C 0.907 0.83046 0.42248 0.0
C883 C 0.9376 0.89623 0.45184 0.0
C884 C 0.92705 0.8736 0.44163 0.0
H885 H 0.87869 0.77998 0.35815 0.0
H886 H 0.89666 0.81727 0.37384 0.0
H887 H 0.93093 0.81574 0.44827 0.0
H888 H 0.95638 0.92208 0.507 0.0
H889 H 0.93759 0.88565 0.49043 0.0
C890 C 0.39419 0.74852 0.57352 0.0
C891 C 0.36946 0.74982 0.57037 0.0
C892 C 0.4048 0.72791 0.56811 0.0
C893 C 0.38974 0.66552 0.56627 0.0
H894 H 0.45283 0.66287 0.53614 0.0
C895 C 0.43378 0.57981 0.5445 0.0
C896 C 0.45859 0.57991 0.54805 0.0
C897 C 0.42225 0.6003 0.54739 0.0
C898 C 0.43531 0.66338 0.54487 0.0
H899 H 0.33658 0.73096 0.55807 0.0
H900 H 0.35521 0.69487 0.54831 0.0
H901 H 0.43394 0.69947 0.53813 0.0
H902 H 0.49067 0.60102 0.5586 0.0
H903 H 0.47048 0.63674 0.56421 0.0
H904 H 0.39123 0.6295 0.57332 0.0
C905 C 0.36632 0.70977 0.55521 0.0
C906 C 0.42447 0.68431 0.54587 0.0
C907 C 0.35572 0.73046 0.56051 0.0
C908 C 0.47151 0.60053 0.55569 0.0
C909 C 0.45999 0.621 0.55864 0.0
C910 C 0.40061 0.64458 0.56532 0.0
C911 C 0.39085 0.70815 0.55953 0.0
C912 C 0.40165 0.68563 0.55675 0.0
C913 C 0.43535 0.62122 0.55391 0.0
C914 C 0.42361 0.64334 0.55481 0.0
H915 H 0.4052 0.76327 0.58095 0.0
H916 H 0.42372 0.72716 0.57175 0.0
H917 H 0.37229 0.6661 0.57513 0.0
H918 H 0.42344 0.56411 0.53849 0.0
H919 H 0.40327 0.59991 0.54349 0.0
C920 C 0.86509 0.84537 0.71209 0.0
C921 C 0.85043 0.85785 0.72826 0.0
C922 C 0.88191 0.85695 0.69654 0.0
C923 C 0.91575 0.9137 0.68945 0.0
H924 H 0.9241 0.89203 0.62076 0.0
C925 C 0.95955 0.96998 0.61225 0.0
C926 C 0.97339 0.95942 0.59377 0.0
C927 C 0.94803 0.95682 0.63086 0.0
C928 C 0.92231 0.89806 0.64003 0.0
H929 H 0.84187 0.89228 0.74066 0.0
H930 H 0.87069 0.91247 0.713 0.0
H931 H 0.89606 0.87055 0.64816 0.0
H932 H 0.98721 0.92716 0.58086 0.0
H933 H 0.96706 0.90404 0.61353 0.0
H934 H 0.94158 0.94157 0.68104 0.0
C935 C 0.86948 0.89373 0.71265 0.0
C936 C 0.90619 0.88578 0.65572 0.0
C937 C 0.85269 0.88215 0.72822 0.0
C938 C 0.97661 0.93569 0.59493 0.0
C939 C 0.96495 0.92246 0.61348 0.0
C940 C 0.93182 0.92602 0.67372 0.0
C941 C 0.88443 0.88126 0.69679 0.0
C942 C 0.90248 0.89364 0.68051 0.0
C943 C 0.95005 0.93281 0.63124 0.0
C944 C 0.93503 0.9185 0.64875 0.0
H945 H 0.86363 0.82663 0.7115 0.0
H946 H 0.89324 0.84683 0.68466 0.0
H947 H 0.91367 0.91994 0.7086 0.0
H948 H 0.95679 0.98827 0.61174 0.0
H949 H 0.93653 0.96527 0.64414 0.0
C950 C 0.62089 0.11207 0.23659 0.0
C951 C 0.6434 0.1233 0.2419 0.0
C952 C 0.61582 0.10316 0.21254 0.0
C953 C 0.63019 0.11041 0.1471 0.0
H954 H 0.60355 0.04692 0.13919 0.0
C955 C 0.5729 0.07238 0.06402 0.0
C956 C 0.5762 0.0495 0.05616 0.0
C957 C 0.58631 0.08271 0.08383 0.0
C958 C 0.61129 0.06458 0.14104 0.0
H959 H 0.67817 0.13442 0.22646 0.0
H960 H 0.66905 0.11914 0.18401 0.0
H961 H 0.61608 0.06196 0.18051 0.0
H962 H 0.59736 0.02015 0.06113 0.0
H963 H 0.62065 0.03815 0.09582 0.0
H964 H 0.62446 0.11323 0.10768 0.0
C965 C 0.6555 0.1171 0.19856 0.0
C966 C 0.61823 0.07321 0.16468 0.0
C967 C 0.66073 0.12567 0.22276 0.0
C968 C 0.59435 0.03777 0.06699 0.0
C969 C 0.60762 0.04801 0.08685 0.0
C970 C 0.62287 0.10186 0.12343 0.0
C971 C 0.63306 0.10567 0.19334 0.0
C972 C 0.62744 0.09625 0.16796 0.0
C973 C 0.60305 0.07021 0.09607 0.0
C974 C 0.61317 0.07892 0.12028 0.0
H975 H 0.60731 0.10998 0.25112 0.0
H976 H 0.59833 0.09452 0.20885 0.0
H977 H 0.63719 0.12829 0.14929 0.0
H978 H 0.55902 0.08179 0.05589 0.0
H979 H 0.58239 0.09983 0.09066 0.0
C980 C 0.41954 0.61607 0.26868 0.0
C981 C 0.39537 0.62108 0.27002 0.0
C982 C 0.43027 0.60601 0.28885 0.0
C983 C 0.42632 0.59963 0.35669 0.0
H984 H 0.45781 0.54284 0.34529 0.0
C985 C 0.4541 0.54633 0.43951 0.0
C986 C 0.47468 0.53392 0.43724 0.0
C987 C 0.44518 0.55708 0.41885 0.0
C988 C 0.44951 0.55891 0.34887 0.0
H989 H 0.36369 0.62015 0.29369 0.0
H990 H 0.3826 0.60319 0.32917 0.0
H991 H 0.44176 0.56221 0.30993 0.0
H992 H 0.50215 0.5232 0.41145 0.0
H993 H 0.48723 0.54271 0.37562 0.0
H994 H 0.43451 0.59696 0.39538 0.0
C995 C 0.39316 0.60677 0.31244 0.0
C996 C 0.44021 0.56994 0.32854 0.0
C997 C 0.38232 0.61637 0.29213 0.0
C998 C 0.48614 0.53249 0.41378 0.0
C999 C 0.47746 0.54362 0.39316 0.0
C1000 C 0.43598 0.58887 0.37696 0.0
C1001 C 0.41717 0.60126 0.31093 0.0
C1002 C 0.42827 0.59026 0.33228 0.0
C1003 C 0.45683 0.55613 0.39538 0.0
C1004 C 0.44744 0.56814 0.37346 0.0
H1005 H 0.42996 0.61941 0.2518 0.0
H1006 H 0.44884 0.60203 0.28724 0.0
H1007 H 0.41745 0.61543 0.36009 0.0
H1008 H 0.44468 0.54756 0.45726 0.0
H1009 H 0.42893 0.56595 0.42135 0.0
C1010 C 0.0968 0.37557 0.78952 0.0
C1011 C 0.10634 0.3882 0.76919 0.0
C1012 C 0.08796 0.38695 0.81074 0.0
C1013 C 0.06744 0.44389 0.83252 0.0
H1014 H 0.0768 0.4202 0.89853 0.0
C1015 C 0.04921 0.49661 0.92281 0.0
C1016 C 0.03471 0.48511 0.94081 0.0
C1017 C 0.05851 0.4843 0.90253 0.0
C1018 C 0.07397 0.42691 0.88018 0.0
H1019 H 0.11366 0.42284 0.75528 0.0
H1020 H 0.09938 0.44261 0.79255 0.0
H1021 H 0.09181 0.39973 0.86164 0.0
H1022 H 0.019 0.45168 0.95211 0.0
H1023 H 0.03578 0.43003 0.91687 0.0
H1024 H 0.05011 0.47136 0.8512 0.0
C1025 C 0.09822 0.42387 0.79197 0.0
C1026 C 0.08244 0.41515 0.85902 0.0
C1027 C 0.10681 0.4125 0.77067 0.0
C1028 C 0.03028 0.46096 0.9386 0.0
C1029 C 0.03986 0.44858 0.91846 0.0
C1030 C 0.05927 0.45577 0.85367 0.0
C1031 C 0.08861 0.41127 0.81228 0.0
C1032 C 0.07933 0.42352 0.83489 0.0
C1033 C 0.05373 0.4602 0.90001 0.0
C1034 C 0.06248 0.44744 0.8777 0.0
H1035 H 0.0964 0.35685 0.78921 0.0
H1036 H 0.08043 0.37663 0.82585 0.0
H1037 H 0.0642 0.4506 0.81427 0.0
H1038 H 0.05296 0.51522 0.92409 0.0
H1039 H 0.06937 0.49364 0.88871 0.0
C1040 C 0.68366 0.84662 0.90031 0.0
C1041 C 0.68303 0.83818 0.8754 0.0
C1042 C 0.66661 0.86132 0.90916 0.0
C1043 C 0.60664 0.87912 0.90093 0.0
H1044 H 0.63185 0.93808 0.92968 0.0
C1045 C 0.54425 0.94928 0.93471 0.0
C1046 C 0.55095 0.96204 0.95662 0.0
C1047 C 0.5601 0.93472 0.92299 0.0
C1048 C 0.62444 0.9216 0.92206 0.0
H1049 H 0.66371 0.83768 0.84045 0.0
H1050 H 0.63331 0.86302 0.85626 0.0
H1051 H 0.65931 0.91035 0.91377 0.0
H1052 H 0.57946 0.96938 0.98355 0.0
H1053 H 0.60659 0.94356 0.96381 0.0
H1054 H 0.57178 0.88982 0.9101 0.0
C1055 C 0.64717 0.85839 0.86875 0.0
C1056 C 0.64021 0.90579 0.91284 0.0
C1057 C 0.66453 0.844 0.85974 0.0
C1058 C 0.57383 0.96004 0.96649 0.0
C1059 C 0.58948 0.94526 0.95504 0.0
C1060 C 0.5908 0.89478 0.91058 0.0
C1061 C 0.6484 0.86753 0.89338 0.0
C1062 C 0.63146 0.88436 0.90239 0.0
C1063 C 0.58286 0.93236 0.93315 0.0
C1064 C 0.59952 0.91616 0.9215 0.0
H1065 H 0.6979 0.84258 0.91266 0.0
H1066 H 0.6678 0.86809 0.92827 0.0
H1067 H 0.59953 0.86264 0.89298 0.0
H1068 H 0.52676 0.95053 0.92659 0.0
H1069 H 0.55449 0.92536 0.90595 0.0
C1070 C 0.81176 0.12638 0.39818 0.0
C1071 C 0.78934 0.12331 0.41004 0.0
C1072 C 0.83208 0.11878 0.4093 0.0
C1073 C 0.85448 0.09666 0.46898 0.0
H1074 H 0.90035 0.06955 0.42418 0.0
C1075 C 0.93742 0.05669 0.50706 0.0
C1076 C 0.94421 0.03639 0.49491 0.0
C1077 C 0.92038 0.06972 0.49641 0.0
C1078 C 0.88762 0.07684 0.43701 0.0
H1079 H 0.77032 0.1103 0.44273 0.0
H1080 H 0.80554 0.09597 0.46178 0.0
H1081 H 0.86661 0.08736 0.40693 0.0
H1082 H 0.93899 0.0138 0.46207 0.0
H1083 H 0.90848 0.03584 0.44397 0.0
H1084 H 0.87458 0.08468 0.49906 0.0
C1085 C 0.80777 0.10491 0.44432 0.0
C1086 C 0.86843 0.08748 0.42708 0.0
C1087 C 0.78754 0.11296 0.4334 0.0
C1088 C 0.93405 0.02946 0.47177 0.0
C1089 C 0.9167 0.04224 0.46132 0.0
C1090 C 0.87344 0.08564 0.47891 0.0
C1091 C 0.83028 0.10747 0.43226 0.0
C1092 C 0.85148 0.09737 0.44293 0.0
C1093 C 0.9095 0.06247 0.47359 0.0
C1094 C 0.89014 0.0754 0.46305 0.0
H1095 H 0.8135 0.13456 0.38022 0.0
H1096 H 0.84914 0.1216 0.39974 0.0
H1097 H 0.84206 0.10442 0.48179 0.0
H1098 H 0.94525 0.06248 0.52483 0.0
H1099 H 0.91572 0.08545 0.50614 0.0
C1100 C 0.24036 0.62377 0.07986 0.0
C1101 C 0.24402 0.62624 0.10584 0.0
C1102 C 0.21923 0.61256 0.07037 0.0
C1103 C 0.16813 0.57156 0.08714 0.0
H1104 H 0.13779 0.5973 0.03048 0.0
C1105 C 0.07273 0.55998 0.03027 0.0
C1106 C 0.06976 0.5357 0.02793 0.0
C1107 C 0.09406 0.57099 0.03957 0.0
C1108 C 0.14593 0.58996 0.04641 0.0
H1109 H 0.22815 0.61883 0.14219 0.0
H1110 H 0.19134 0.59919 0.12564 0.0
H1111 H 0.17459 0.61658 0.04744 0.0
H1112 H 0.08714 0.504 0.03342 0.0
H1113 H 0.12429 0.52318 0.04944 0.0
H1114 H 0.13928 0.54514 0.08636 0.0
C1115 C 0.20496 0.60572 0.11259 0.0
C1116 C 0.16719 0.60088 0.05596 0.0
C1117 C 0.2261 0.61697 0.12209 0.0
C1118 C 0.08872 0.52272 0.035 0.0
C1119 C 0.11001 0.53372 0.04436 0.0
C1120 C 0.14692 0.56061 0.07753 0.0
C1121 C 0.20121 0.60347 0.08661 0.0
C1122 C 0.17857 0.59182 0.07645 0.0
C1123 C 0.11293 0.55799 0.04683 0.0
C1124 C 0.13554 0.56967 0.05705 0.0
H1125 H 0.25394 0.63031 0.06678 0.0
H1126 H 0.21713 0.61078 0.05027 0.0
H1127 H 0.17651 0.564 0.10279 0.0
H1128 H 0.05851 0.57056 0.02507 0.0
H1129 H 0.0956 0.58969 0.04148 0.0
C1130 C 0.28486 0.39312 0.60512 0.0
C1131 C 0.26542 0.40656 0.61029 0.0
C1132 C 0.30572 0.40293 0.59397 0.0
C1133 C 0.35217 0.43283 0.5859 0.0
H1134 H 0.3488 0.46915 0.52642 0.0
C1135 C 0.43597 0.48042 0.54266 0.0
C1136 C 0.43914 0.47604 0.51689 0.0
C1137 C 0.41408 0.47412 0.55431 0.0
C1138 C 0.34997 0.45908 0.54305 0.0
H1139 H 0.25235 0.44065 0.6074 0.0
H1140 H 0.28886 0.45778 0.58761 0.0
H1141 H 0.3118 0.45322 0.54631 0.0
H1142 H 0.42174 0.46269 0.48285 0.0
H1143 H 0.38336 0.45187 0.50318 0.0
H1144 H 0.39028 0.43848 0.58259 0.0
C1145 C 0.28792 0.43969 0.59232 0.0
C1146 C 0.32884 0.4501 0.55449 0.0
C1147 C 0.26714 0.42995 0.60378 0.0
C1148 C 0.41977 0.46617 0.50277 0.0
C1149 C 0.3978 0.46009 0.51437 0.0
C1150 C 0.37325 0.44203 0.57466 0.0
C1151 C 0.30748 0.42631 0.58749 0.0
C1152 C 0.32976 0.43667 0.57587 0.0
C1153 C 0.39489 0.46358 0.54034 0.0
C1154 C 0.37238 0.45506 0.55299 0.0
H1155 H 0.28407 0.3751 0.6101 0.0
H1156 H 0.32046 0.39217 0.59025 0.0
H1157 H 0.35338 0.42271 0.60249 0.0
H1158 H 0.45059 0.48812 0.55396 0.0
H1159 H 0.41224 0.47724 0.5743 0.0
C1160 C 0.85889 0.69046 0.87038 0.0
C1161 C 0.84583 0.70746 0.88243 0.0
C1162 C 0.87156 0.67557 0.88427 0.0
C1163 C 0.87715 0.64735 0.94253 0.0
H1164 H 0.945 0.65051 0.92625 0.0
C1165 C 0.94297 0.58956 0.98987 0.0
C1166 C 0.95974 0.57999 0.97363 0.0
C1167 C 0.92911 0.60698 0.98171 0.0
C1168 C 0.92608 0.64924 0.93091 0.0
H1169 H 0.83465 0.72111 0.91864 0.0
H1170 H 0.85633 0.6943 0.94297 0.0
H1171 H 0.91908 0.67609 0.90598 0.0
H1172 H 0.97533 0.58103 0.93636 0.0
H1173 H 0.95096 0.61077 0.92196 0.0
H1174 H 0.88388 0.61966 0.96655 0.0
C1175 C 0.85689 0.69294 0.92271 0.0
C1176 C 0.91131 0.66397 0.91939 0.0
C1177 C 0.84444 0.70816 0.90877 0.0
C1178 C 0.96266 0.58824 0.94933 0.0
C1179 C 0.94876 0.60544 0.94114 0.0
C1180 C 0.89191 0.63227 0.95384 0.0
C1181 C 0.8711 0.67703 0.9105 0.0
C1182 C 0.88669 0.66283 0.92472 0.0
C1183 C 0.93176 0.61502 0.95717 0.0
C1184 C 0.91647 0.6327 0.94769 0.0
H1185 H 0.85982 0.68901 0.85014 0.0
H1186 H 0.88211 0.66314 0.87449 0.0
H1187 H 0.85816 0.64623 0.94688 0.0
H1188 H 0.94042 0.58344 0.00873 0.0
H1189 H 0.91634 0.61413 0.9946 0.0
C1190 C 0.41158 0.77988 0.09418 0.0
C1191 C 0.40678 0.77954 0.12005 0.0
C1192 C 0.4204 0.80036 0.08299 0.0
C1193 C 0.42257 0.86344 0.08948 0.0
H1194 H 0.48122 0.86333 0.05016 0.0
C1195 C 0.4637 0.94249 0.03386 0.0
C1196 C 0.48748 0.94907 0.04057 0.0
C1197 C 0.45255 0.92144 0.0418 0.0
C1198 C 0.46473 0.86355 0.06094 0.0
H1199 H 0.40695 0.80041 0.15438 0.0
H1200 H 0.42189 0.83639 0.13468 0.0
H1201 H 0.46386 0.82719 0.06767 0.0
H1202 H 0.51837 0.93884 0.06039 0.0
H1203 H 0.49921 0.90187 0.07351 0.0
H1204 H 0.42348 0.89984 0.08268 0.0
C1205 C 0.41902 0.82075 0.12315 0.0
C1206 C 0.45478 0.8429 0.07087 0.0
C1207 C 0.41066 0.80016 0.13444 0.0
C1208 C 0.50002 0.93416 0.05493 0.0
C1209 C 0.48911 0.91298 0.06236 0.0
C1210 C 0.43227 0.88402 0.07909 0.0
C1211 C 0.42411 0.82102 0.09734 0.0
C1212 C 0.4338 0.8427 0.08557 0.0
C1213 C 0.46522 0.90647 0.05607 0.0
C1214 C 0.45365 0.88433 0.06505 0.0
H1215 H 0.40882 0.76421 0.08268 0.0
H1216 H 0.42413 0.80011 0.06305 0.0
H1217 H 0.40632 0.86373 0.10064 0.0
H1218 H 0.45359 0.95384 0.02305 0.0
H1219 H 0.43409 0.9168 0.03674 0.0
C1220 C 0.11523 0.2183 0.62255 0.0
C1221 C 0.12232 0.23567 0.60565 0.0
C1222 C 0.10518 0.19676 0.61387 0.0
C1223 C 0.10018 0.15873 0.55684 0.0
H1224 H 0.0466 0.12827 0.59249 0.0
C1225 C 0.04325 0.07995 0.51516 0.0
C1226 C 0.03622 0.06188 0.53125 0.0
C1227 C 0.05459 0.10064 0.5246 0.0
C1228 C 0.06174 0.13642 0.58249 0.0
H1229 H 0.12388 0.24423 0.56642 0.0
H1230 H 0.10619 0.20679 0.55129 0.0
H1231 H 0.06447 0.16547 0.60828 0.0
H1232 H 0.03585 0.05136 0.5699 0.0
H1233 H 0.05572 0.08748 0.58631 0.0
H1234 H 0.09724 0.12978 0.53091 0.0
C1235 C 0.10886 0.2096 0.57122 0.0
C1236 C 0.072 0.15775 0.59154 0.0
C1237 C 0.11897 0.23108 0.5799 0.0
C1238 C 0.041 0.06491 0.55697 0.0
C1239 C 0.05225 0.08567 0.56642 0.0
C1240 C 0.08987 0.13745 0.54776 0.0
C1241 C 0.10191 0.19213 0.58809 0.0
C1242 C 0.09128 0.16921 0.57877 0.0
C1243 C 0.05908 0.1038 0.55035 0.0
C1244 C 0.07047 0.1261 0.56041 0.0
H1245 H 0.11786 0.22121 0.64249 0.0
H1246 H 0.10034 0.18361 0.62736 0.0
H1247 H 0.11528 0.16686 0.54678 0.0
H1248 H 0.03982 0.07824 0.49526 0.0
H1249 H 0.05938 0.11437 0.51177 0.0
C1250 C 0.63067 0.27608 0.39673 0.0
C1251 C 0.63392 0.26072 0.41603 0.0
C1252 C 0.62053 0.29696 0.40173 0.0
C1253 C 0.60773 0.33907 0.4521 0.0
H1254 H 0.56068 0.35729 0.40517 0.0
C1255 C 0.56917 0.42856 0.45889 0.0
C1256 C 0.54428 0.42865 0.45607 0.0
C1257 C 0.58079 0.40855 0.45309 0.0
C1258 C 0.5737 0.3524 0.41851 0.0
H1259 H 0.62964 0.25538 0.45583 0.0
H1260 H 0.61163 0.29207 0.46466 0.0
H1261 H 0.5793 0.32099 0.39803 0.0
H1262 H 0.51205 0.40833 0.44443 0.0
H1263 H 0.53228 0.37333 0.43437 0.0
H1264 H 0.60165 0.37028 0.47288 0.0
C1265 C 0.61712 0.28792 0.44565 0.0
C1266 C 0.58454 0.33172 0.4143 0.0
C1267 C 0.62737 0.26694 0.44063 0.0
C1268 C 0.53129 0.40871 0.44664 0.0
C1269 C 0.54289 0.38871 0.44084 0.0
C1270 C 0.59687 0.35979 0.45631 0.0
C1271 C 0.61338 0.303 0.42616 0.0
C1272 C 0.6017 0.32485 0.43101 0.0
C1273 C 0.56771 0.38831 0.44435 0.0
C1274 C 0.57972 0.36665 0.43956 0.0
H1275 H 0.63611 0.27199 0.37768 0.0
H1276 H 0.61841 0.30845 0.38642 0.0
H1277 H 0.62103 0.33432 0.46519 0.0
H1278 H 0.57958 0.44377 0.46612 0.0
H1279 H 0.59999 0.40887 0.45561 0.0
loop_
_geom_bond_atom_site_label_1
_geom_bond_atom_site_label_2
_geom_bond_distance
_geom_bond_site_symmetry_2
_ccdc_geom_bond_type
C0 C1 1.391 . S
C0 C4 1.391 . S
C0 H42 0.948 . S
C1 C0 1.391 . S
C1 C2 1.391 . S
C2 C1 1.391 . S
C2 H58 0.947 . S
C2 C59 1.392 . S
C3 C4 1.391 . S
C3 C7 1.397 . S
C3 C59 1.419 . S
C4 C0 1.391 . S
C4 C3 1.391 . S
C4 C5 1.399 . S
C5 C4 1.399 . S
C5 C8 1.396 . S
C5 C17 1.453 . S
C5 C18 1.684 . S
H6 C30 0.948 . S
C7 C3 1.397 . S
C7 C8 1.394 . S
C7 C26 1.723 . S
C8 C5 1.396 . S
C8 C7 1.394 . S
C8 C38 1.723 . S
H9 C32 0.947 . S
H10 C33 0.948 . S
H11 C39 0.982 . S
H12 C40 0.979 . S
H13 C40 0.980 . S
H14 C40 0.983 . S
H15 C39 0.979 . S
H16 C39 0.977 . S
C17 C5 1.453 . S
C17 H46 0.982 . S
C17 H47 0.979 . S
C17 H48 0.977 . S
C18 C5 1.684 . S
C18 H43 0.979 . S
C18 H44 0.980 . S
C18 H45 0.983 . S
C19 C20 1.391 . S
C19 C24 1.391 . S
C19 H49 0.948 . S
C20 C19 1.391 . S
C20 C21 1.391 . S
C21 C20 1.391 . S
C21 C22 1.392 . S
C21 H50 0.947 . S
C22 C21 1.392 . S
C22 C23 1.419 . S
C22 H51 0.948 . S
C23 C22 1.419 . S
C23 C24 1.391 . S
C23 C27 1.397 . S
C24 C19 1.391 . S
C24 C23 1.391 . S
C24 C25 1.399 . S
C25 C24 1.399 . S
C25 C26 1.396 . S
C25 C28 1.453 . S
C25 C29 1.684 . S
C26 C7 1.723 . S
C26 C25 1.396 . S
C26 C27 1.394 . S
C27 C23 1.397 . S
C27 C26 1.394 . S
C27 C37 1.723 . S
C28 C25 1.453 . S
C28 H52 0.982 . S
C28 H53 0.979 . S
C28 H54 0.977 . S
C29 C25 1.684 . S
C29 H55 0.979 . S
C29 H56 0.980 . S
C29 H57 0.983 . S
C30 H6 0.948 . S
C30 C31 1.391 . S
C30 C35 1.391 . S
C31 C30 1.391 . S
C31 C32 1.391 . S
C32 H9 0.947 . S
C32 C31 1.391 . S
C32 C33 1.392 . S
C33 H10 0.948 . S
C33 C32 1.392 . S
C33 C34 1.419 . S
C34 C33 1.419 . S
C34 C35 1.391 . S
C34 C38 1.397 . S
C35 C30 1.391 . S
C35 C34 1.391 . S
C35 C36 1.399 . S
C36 C35 1.399 . S
C36 C37 1.396 . S
C36 C39 1.453 . S
C36 C40 1.684 . S
C37 C27 1.723 . S
C37 C36 1.396 . S
C37 C38 1.394 . S
C38 C8 1.723 . S
C38 C34 1.397 . S
C38 C37 1.394 . S
C39 H11 0.982 . S
C39 H15 0.979 . S
C39 H16 0.977 . S
C39 C36 1.453 . S
C40 H12 0.979 . S
C40 H13 0.980 . S
C40 H14 0.983 . S
C40 C36 1.684 . S
H41 C59 0.948 . S
H42 C0 0.948 . S
H43 C18 0.979 . S
H44 C18 0.980 . S
H45 C18 0.983 . S
H46 C17 0.982 . S
H47 C17 0.979 . S
H48 C17 0.977 . S
H49 C19 0.948 . S
H50 C21 0.947 . S
H51 C22 0.948 . S
H52 C28 0.982 . S
H53 C28 0.979 . S
H54 C28 0.977 . S
H55 C29 0.979 . S
H56 C29 0.980 . S
H57 C29 0.983 . S
H58 C2 0.947 . S
C59 C2 1.392 . S
C59 C3 1.419 . S
C59 H41 0.948 . S
C60 C61 1.391 . S
C60 C64 1.391 . S
C60 H102 0.948 . S
C61 C60 1.391 . S
C61 C62 1.391 . S
C62 C61 1.391 . S
C62 H118 0.947 . S
C62 C119 1.392 . S
C63 C64 1.391 . S
C63 C67 1.397 . S
C63 C119 1.419 . S
C64 C60 1.391 . S
C64 C63 1.391 . S
C64 C65 1.399 . S
C65 C64 1.399 . S
C65 C68 1.396 . S
C65 C77 1.453 . S
C65 C78 1.684 . S
H66 C90 0.948 . S
C67 C63 1.397 . S
C67 C68 1.394 . S
C67 C86 1.723 . S
C68 C65 1.396 . S
C68 C67 1.394 . S
C68 C98 1.723 . S
H69 C92 0.947 . S
H70 C93 0.948 . S
H71 C99 0.982 . S
H72 C100 0.979 . S
H73 C100 0.980 . S
H74 C100 0.983 . S
H75 C99 0.979 . S
H76 C99 0.977 . S
C77 C65 1.453 . S
C77 H106 0.982 . S
C77 H107 0.979 . S
C77 H108 0.977 . S
C78 C65 1.684 . S
C78 H103 0.979 . S
C78 H104 0.980 . S
C78 H105 0.983 . S
C79 C80 1.391 . S
C79 C84 1.391 . S
C79 H109 0.948 . S
C80 C79 1.391 . S
C80 C81 1.391 . S
C81 C80 1.391 . S
C81 C82 1.392 . S
C81 H110 0.947 . S
C82 C81 1.392 . S
C82 C83 1.419 . S
C82 H111 0.948 . S
C83 C82 1.419 . S
C83 C84 1.391 . S
C83 C87 1.397 . S
C84 C79 1.391 . S
C84 C83 1.391 . S
C84 C85 1.399 . S
C85 C84 1.399 . S
C85 C86 1.396 . S
C85 C88 1.453 . S
C85 C89 1.684 . S
C86 C67 1.723 . S
C86 C85 1.396 . S
C86 C87 1.394 . S
C87 C83 1.397 . S
C87 C86 1.394 . S
C87 C97 1.723 . S
C88 C85 1.453 . S
C88 H112 0.982 . S
C88 H113 0.979 . S
C88 H114 0.977 . S
C89 C85 1.684 . S
C89 H115 0.979 . S
C89 H116 0.980 . S
C89 H117 0.983 . S
C90 H66 0.948 . S
C90 C91 1.391 . S
C90 C95 1.391 . S
C91 C90 1.391 . S
C91 C92 1.391 . S
C92 H69 0.947 . S
C92 C91 1.391 . S
C92 C93 1.392 . S
C93 H70 0.948 . S
C93 C92 1.392 . S
C93 C94 1.419 . S
C94 C93 1.419 . S
C94 C95 1.391 . S
C94 C98 1.397 . S
C95 C90 1.391 . S
C95 C94 1.391 . S
C95 C96 1.399 . S
C96 C95 1.399 . S
C96 C97 1.396 . S
C96 C99 1.453 . S
C96 C100 1.684 . S
C97 C87 1.723 . S
C97 C96 1.396 . S
C97 C98 1.394 . S
C98 C68 1.723 . S
C98 C94 1.397 . S
C98 C97 1.394 . S
C99 H71 0.982 . S
C99 H75 0.979 . S
C99 H76 0.977 . S
C99 C96 1.453 . S
C100 H72 0.979 . S
C100 H73 0.980 . S
C100 H74 0.983 . S
C100 C96 1.684 . S
H101 C119 0.948 . S
H102 C60 0.948 . S
H103 C78 0.979 . S
H104 C78 0.980 . S
H105 C78 0.983 . S
H106 C77 0.982 . S
H107 C77 0.979 . S
H108 C77 0.977 . S
H109 C79 0.948 . S
H110 C81 0.947 . S
H111 C82 0.948 . S
H112 C88 0.982 . S
H113 C88 0.979 . S
H114 C88 0.977 . S
H115 C89 0.979 . S
H116 C89 0.980 . S
H117 C89 0.983 . S
H118 C62 0.947 . S
C119 C62 1.392 . S
C119 C63 1.419 . S
C119 H101 0.948 . S
C120 C121 1.391 . S
C120 C124 1.391 . S
C120 H162 0.948 . S
C121 C120 1.391 . S
C121 C122 1.391 . S
C122 C121 1.391 . S
C122 H178 0.947 . S
C122 C179 1.392 . S
C123 C124 1.391 . S
C123 C127 1.397 . S
C123 C179 1.419 . S
C124 C120 1.391 . S
C124 C123 1.391 . S
C124 C125 1.399 . S
C125 C124 1.399 . S
C125 C128 1.396 . S
C125 C137 1.453 . S
C125 C138 1.684 . S
H126 C150 0.948 . S
C127 C123 1.397 . S
C127 C128 1.394 . S
C127 C146 1.723 . S
C128 C125 1.396 . S
C128 C127 1.394 . S
C128 C158 1.723 . S
H129 C152 0.947 . S
H130 C153 0.948 . S
H131 C159 0.982 . S
H132 C160 0.979 . S
H133 C160 0.980 . S
H134 C160 0.983 . S
H135 C159 0.979 . S
H136 C159 0.977 . S
C137 C125 1.453 . S
C137 H166 0.982 . S
C137 H167 0.979 . S
C137 H168 0.977 . S
C138 C125 1.684 . S
C138 H163 0.979 . S
C138 H164 0.980 . S
C138 H165 0.983 . S
C139 C140 1.391 . S
C139 C144 1.391 . S
C139 H169 0.948 . S
C140 C139 1.391 . S
C140 C141 1.391 . S
C141 C140 1.391 . S
C141 C142 1.392 . S
C141 H170 0.947 . S
C142 C141 1.392 . S
C142 C143 1.419 . S
C142 H171 0.948 . S
C143 C142 1.419 . S
C143 C144 1.391 . S
C143 C147 1.397 . S
C144 C139 1.391 . S
C144 C143 1.391 . S
C144 C145 1.399 . S
C145 C144 1.399 . S
C145 C146 1.396 . S
C145 C148 1.453 . S
C145 C149 1.684 . S
C146 C127 1.723 . S
C146 C145 1.396 . S
C146 C147 1.394 . S
C147 C143 1.397 . S
C147 C146 1.394 . S
C147 C157 1.723 . S
C148 C145 1.453 . S
C148 H172 0.982 . S
C148 H173 0.979 . S
C148 H174 0.977 . S
C149 C145 1.684 . S
C149 H175 0.979 . S
C149 H176 0.980 . S
C149 H177 0.983 . S
C150 H126 0.948 . S
C150 C151 1.391 . S
C150 C155 1.391 . S
C151 C150 1.391 . S
C151 C152 1.391 . S
C152 H129 0.947 . S
C152 C151 1.391 . S
C152 C153 1.392 . S
C153 H130 0.948 . S
C153 C152 1.392 . S
C153 C154 1.419 . S
C154 C153 1.419 . S
C154 C155 1.391 . S
C154 C158 1.397 . S
C155 C150 1.391 . S
C155 C154 1.391 . S
C155 C156 1.399 . S
C156 C155 1.399 . S
C156 C157 1.396 . S
C156 C159 1.453 . S
C156 C160 1.684 . S
C157 C147 1.723 . S
C157 C156 1.396 . S
C157 C158 1.394 . S
C158 C128 1.723 . S
C158 C154 1.397 . S
C158 C157 1.394 . S
C159 H131 0.982 . S
C159 H135 0.979 . S
C159 H136 0.977 . S
C159 C156 1.453 . S
C160 H132 0.979 . S
C160 H133 0.980 . S
C160 H134 0.983 . S
C160 C156 1.684 . S
H161 C179 0.948 . S
H162 C120 0.948 . S
H163 C138 0.979 . S
H164 C138 0.980 . S
H165 C138 0.983 . S
H166 C137 0.982 . S
H167 C137 0.979 . S
H168 C137 0.977 . S
H169 C139 0.948 . S
H170 C141 0.947 . S
H171 C142 0.948 . S
H172 C148 0.982 . S
H173 C148 0.979 . S
H174 C148 0.977 . S
H175 C149 0.979 . S
H176 C149 0.980 . S
H177 C149 0.983 . S
H178 C122 0.947 . S
C179 C122 1.392 . S
C179 C123 1.419 . S
C179 H161 0.948 . S
C180 C181 1.391 . S
C180 C184 1.391 . S
C180 H222 0.948 . S
C181 C180 1.391 . S
C181 C182 1.391 . S
C182 C181 1.391 . S
C182 H238 0.947 . S
C182 C239 1.392 . S
C183 C184 1.391 . S
C183 C187 1.397 . S
C183 C239 1.419 . S
C184 C180 1.391 . S
C184 C183 1.391 . S
C184 C185 1.399 . S
C185 C184 1.399 . S
C185 C188 1.396 . S
C185 C197 1.453 . S
C185 C198 1.684 . S
H186 C210 0.948 . S
C187 C183 1.397 . S
C187 C188 1.394 . S
C187 C206 1.723 . S
C188 C185 1.396 . S
C188 C187 1.394 . S
C188 C218 1.723 . S
H189 C212 0.947 . S
H190 C213 0.948 . S
H191 C219 0.982 . S
H192 C220 0.979 . S
H193 C220 0.980 . S
H194 C220 0.983 . S
H195 C219 0.979 . S
H196 C219 0.977 . S
C197 C185 1.453 . S
C197 H226 0.982 . S
C197 H227 0.979 . S
C197 H228 0.977 . S
C198 C185 1.684 . S
C198 H223 0.979 . S
C198 H224 0.980 . S
C198 H225 0.983 . S
C199 C200 1.391 . S
C199 C204 1.391 . S
C199 H229 0.948 . S
C200 C199 1.391 . S
C200 C201 1.391 . S
C201 C200 1.391 . S
C201 C202 1.392 . S
C201 H230 0.947 . S
C202 C201 1.392 . S
C202 C203 1.419 . S
C202 H231 0.948 . S
C203 C202 1.419 . S
C203 C204 1.391 . S
C203 C207 1.397 . S
C204 C199 1.391 . S
C204 C203 1.391 . S
C204 C205 1.399 . S
C205 C204 1.399 . S
C205 C206 1.396 . S
C205 C208 1.453 . S
C205 C209 1.684 . S
C206 C187 1.723 . S
C206 C205 1.396 . S
C206 C207 1.394 . S
C207 C203 1.397 . S
C207 C206 1.394 . S
C207 C217 1.723 . S
C208 C205 1.453 . S
C208 H232 0.982 . S
C208 H233 0.979 . S
C208 H234 0.977 . S
C209 C205 1.684 . S
C209 H235 0.979 . S
C209 H236 0.980 . S
C209 H237 0.983 . S
C210 H186 0.948 . S
C210 C211 1.391 . S
C210 C215 1.391 . S
C211 C210 1.391 . S
C211 C212 1.391 . S
C212 H189 0.947 . S
C212 C211 1.391 . S
C212 C213 1.392 . S
C213 H190 0.948 . S
C213 C212 1.392 . S
C213 C214 1.419 . S
C214 C213 1.419 . S
C214 C215 1.391 . S
C214 C218 1.397 . S
C215 C210 1.391 . S
C215 C214 1.391 . S
C215 C216 1.399 . S
C216 C215 1.399 . S
C216 C217 1.396 . S
C216 C219 1.453 . S
C216 C220 1.684 . S
C217 C207 1.723 . S
C217 C216 1.396 . S
C217 C218 1.394 . S
C218 C188 1.723 . S
C218 C214 1.397 . S
C218 C217 1.394 . S
C219 H191 0.982 . S
C219 H195 0.979 . S
C219 H196 0.977 . S
C219 C216 1.453 . S
C220 H192 0.979 . S
C220 H193 0.980 . S
C220 H194 0.983 . S
C220 C216 1.684 . S
H221 C239 0.948 . S
H222 C180 0.948 . S
H223 C198 0.979 . S
H224 C198 0.980 . S
H225 C198 0.983 . S
H226 C197 0.982 . S
H227 C197 0.979 . S
H228 C197 0.977 . S
H229 C199 0.948 . S
H230 C201 0.947 . S
H231 C202 0.948 . S
H232 C208 0.982 . S
H233 C208 0.979 . S
H234 C208 0.977 . S
H235 C209 0.979 . S
H236 C209 0.980 . S
H237 C209 0.983 . S
H238 C182 0.947 . S
C239 C182 1.392 . S
C239 C183 1.419 . S
C239 H221 0.948 . S
C240 C241 1.391 . S
C240 C244 1.391 . S
C240 H282 0.948 . S
C241 C240 1.391 . S
C241 C242 1.391 . S
C242 C241 1.391 . S
C242 H298 0.947 . S
C242 C299 1.392 . S
C243 C244 1.391 . S
C243 C247 1.397 . S
C243 C299 1.419 . S
C244 C240 1.391 . S
C244 C243 1.391 . S
C244 C245 1.399 . S
C245 C244 1.399 . S
C245 C248 1.396 . S
C245 C257 1.453 . S
C245 C258 1.684 . S
H246 C270 0.948 . S
C247 C243 1.397 . S
C247 C248 1.394 . S
C247 C266 1.723 . S
C248 C245 1.396 . S
C248 C247 1.394 . S
C248 C278 1.723 . S
H249 C272 0.947 . S
H250 C273 0.948 . S
H251 C279 0.982 . S
H252 C280 0.979 . S
H253 C280 0.980 . S
H254 C280 0.983 . S
H255 C279 0.979 . S
H256 C279 0.977 . S
C257 C245 1.453 . S
C257 H286 0.982 . S
C257 H287 0.979 . S
C257 H288 0.977 . S
C258 C245 1.684 . S
C258 H283 0.979 . S
C258 H284 0.980 . S
C258 H285 0.983 . S
C259 C260 1.391 . S
C259 C264 1.391 . S
C259 H289 0.948 . S
C260 C259 1.391 . S
C260 C261 1.391 . S
C261 C260 1.391 . S
C261 C262 1.392 . S
C261 H290 0.947 . S
C262 C261 1.392 . S
C262 C263 1.419 . S
C262 H291 0.948 . S
C263 C262 1.419 . S
C263 C264 1.391 . S
C263 C267 1.397 . S
C264 C259 1.391 . S
C264 C263 1.391 . S
C264 C265 1.399 . S
C265 C264 1.399 . S
C265 C266 1.396 . S
C265 C268 1.453 . S
C265 C269 1.684 . S
C266 C247 1.723 . S
C266 C265 1.396 . S
C266 C267 1.394 . S
C267 C263 1.397 . S
C267 C266 1.394 . S
C267 C277 1.723 . S
C268 C265 1.453 . S
C268 H292 0.982 . S
C268 H293 0.979 . S
C268 H294 0.977 . S
C269 C265 1.684 . S
C269 H295 0.979 . S
C269 H296 0.980 . S
C269 H297 0.983 . S
C270 H246 0.948 . S
C270 C271 1.391 . S
C270 C275 1.391 . S
C271 C270 1.391 . S
C271 C272 1.391 . S
C272 H249 0.947 . S
C272 C271 1.391 . S
C272 C273 1.392 . S
C273 H250 0.948 . S
C273 C272 1.392 . S
C273 C274 1.419 . S
C274 C273 1.419 . S
C274 C275 1.391 . S
C274 C278 1.397 . S
C275 C270 1.391 . S
C275 C274 1.391 . S
C275 C276 1.399 . S
C276 C275 1.399 . S
C276 C277 1.396 . S
C276 C279 1.453 . S
C276 C280 1.684 . S
C277 C267 1.723 . S
C277 C276 1.396 . S
C277 C278 1.394 . S
C278 C248 1.723 . S
C278 C274 1.397 . S
C278 C277 1.394 . S
C279 H251 0.982 . S
C279 H255 0.979 . S
C279 H256 0.977 . S
C279 C276 1.453 . S
C280 H252 0.979 . S
C280 H253 0.980 . S
C280 H254 0.983 . S
C280 C276 1.684 . S
H281 C299 0.948 . S
H282 C240 0.948 . S
H283 C258 0.979 . S
H284 C258 0.980 . S
H285 C258 0.983 . S
H286 C257 0.982 . S
H287 C257 0.979 . S
H288 C257 0.977 . S
H289 C259 0.948 . S
H290 C261 0.947 . S
H291 C262 0.948 . S
H292 C268 0.982 . S
H293 C268 0.979 . S
H294 C268 0.977 . S
H295 C269 0.979 . S
H296 C269 0.980 . S
H297 C269 0.983 . S
H298 C242 0.947 . S
C299 C242 1.392 . S
C299 C243 1.419 . S
C299 H281 0.948 . S
C300 C301 1.391 . S
C300 C304 1.391 . S
C300 H342 0.948 . S
C301 C300 1.391 . S
C301 C302 1.391 . S
C302 C301 1.391 . S
C302 H358 0.947 . S
C302 C359 1.392 . S
C303 C304 1.391 . S
C303 C307 1.397 . S
C303 C359 1.419 . S
C304 C300 1.391 . S
C304 C303 1.391 . S
C304 C305 1.399 . S
C305 C304 1.399 . S
C305 C308 1.396 . S
C305 C317 1.453 . S
C305 C318 1.684 . S
H306 C330 0.948 . S
C307 C303 1.397 . S
C307 C308 1.394 . S
C307 C326 1.723 . S
C308 C305 1.396 . S
C308 C307 1.394 . S
C308 C338 1.723 . S
H309 C332 0.947 . S
H310 C333 0.948 . S
H311 C339 0.982 . S
H312 C340 0.979 . S
H313 C340 0.980 . S
H314 C340 0.983 . S
H315 C339 0.979 . S
H316 C339 0.977 . S
C317 C305 1.453 . S
C317 H346 0.982 . S
C317 H347 0.979 . S
C317 H348 0.977 . S
C318 C305 1.684 . S
C318 H343 0.979 . S
C318 H344 0.980 . S
C318 H345 0.983 . S
C319 C320 1.391 . S
C319 C324 1.391 . S
C319 H349 0.948 . S
C320 C319 1.391 . S
C320 C321 1.391 . S
C321 C320 1.391 . S
C321 C322 1.392 . S
C321 H350 0.947 . S
C322 C321 1.392 . S
C322 C323 1.419 . S
C322 H351 0.948 . S
C323 C322 1.419 . S
C323 C324 1.391 . S
C323 C327 1.397 . S
C324 C319 1.391 . S
C324 C323 1.391 . S
C324 C325 1.399 . S
C325 C324 1.399 . S
C325 C326 1.396 . S
C325 C328 1.453 . S
C325 C329 1.684 . S
C326 C307 1.723 . S
C326 C325 1.396 . S
C326 C327 1.394 . S
C327 C323 1.397 . S
C327 C326 1.394 . S
C327 C337 1.723 . S
C328 C325 1.453 . S
C328 H352 0.982 . S
C328 H353 0.979 . S
C328 H354 0.977 . S
C329 C325 1.684 . S
C329 H355 0.979 . S
C329 H356 0.980 . S
C329 H357 0.983 . S
C330 H306 0.948 . S
C330 C331 1.391 . S
C330 C335 1.391 . S
C331 C330 1.391 . S
C331 C332 1.391 . S
C332 H309 0.947 . S
C332 C331 1.391 . S
C332 C333 1.392 . S
C333 H310 0.948 . S
C333 C332 1.392 . S
C333 C334 1.419 . S
C334 C333 1.419 . S
C334 C335 1.391 . S
C334 C338 1.397 . S
C335 C330 1.391 . S
C335 C334 1.391 . S
C335 C336 1.399 . S
C336 C335 1.399 . S
C336 C337 1.396 . S
C336 C339 1.453 . S
C336 C340 1.684 . S
C337 C327 1.723 . S
C337 C336 1.396 . S
C337 C338 1.394 . S
C338 C308 1.723 . S
C338 C334 1.397 . S
C338 C337 1.394 . S
C339 H311 0.982 . S
C339 H315 0.979 . S
C339 H316 0.977 . S
C339 C336 1.453 . S
C340 H312 0.979 . S
C340 H313 0.980 . S
C340 H314 0.983 . S
C340 C336 1.684 . S
H341 C359 0.948 . S
H342 C300 0.948 . S
H343 C318 0.979 . S
H344 C318 0.980 . S
H345 C318 0.983 . S
H346 C317 0.982 . S
H347 C317 0.979 . S
H348 C317 0.977 . S
H349 C319 0.948 . S
H350 C321 0.947 . S
H351 C322 0.948 . S
H352 C328 0.982 . S
H353 C328 0.979 . S
H354 C328 0.977 . S
H355 C329 0.979 . S
H356 C329 0.980 . S
H357 C329 0.983 . S
H358 C302 0.947 . S
C359 C302 1.392 . S
C359 C303 1.419 . S
C359 H341 0.948 . S
C360 C361 1.391 . S
C360 C364 1.391 . S
C360 H402 0.948 . S
C361 C360 1.391 . S
C361 C362 1.391 . S
C362 C361 1.391 . S
C362 H418 0.947 . S
C362 C419 1.392 . S
C363 C364 1.391 . S
C363 C367 1.397 . S
C363 C419 1.419 . S
C364 C360 1.391 . S
C364 C363 1.391 . S
C364 C365 1.399 . S
C365 C364 1.399 . S
C365 C368 1.396 . S
C365 C377 1.453 . S
C365 C378 1.684 . S
H366 C390 0.948 . S
C367 C363 1.397 . S
C367 C368 1.394 . S
C367 C386 1.723 . S
C368 C365 1.396 . S
C368 C367 1.394 . S
C368 C398 1.723 . S
H369 C392 0.947 . S
H370 C393 0.948 . S
H371 C399 0.982 . S
H372 C400 0.979 . S
H373 C400 0.980 . S
H374 C400 0.983 . S
H375 C399 0.979 . S
H376 C399 0.977 . S
C377 C365 1.453 . S
C377 H406 0.982 . S
C377 H407 0.979 . S
C377 H408 0.977 . S
C378 C365 1.684 . S
C378 H403 0.979 . S
C378 H404 0.980 . S
C378 H405 0.983 . S
C379 C380 1.391 . S
C379 C384 1.391 . S
C379 H409 0.948 . S
C380 C379 1.391 . S
C380 C381 1.391 . S
C381 C380 1.391 . S
C381 C382 1.392 . S
C381 H410 0.947 . S
C382 C381 1.392 . S
C382 C383 1.419 . S
C382 H411 0.948 . S
C383 C382 1.419 . S
C383 C384 1.391 . S
C383 C387 1.397 . S
C384 C379 1.391 . S
C384 C383 1.391 . S
C384 C385 1.399 . S
C385 C384 1.399 . S
C385 C386 1.396 . S
C385 C388 1.453 . S
C385 C389 1.684 . S
C386 C367 1.723 . S
C386 C385 1.396 . S
C386 C387 1.394 . S
C387 C383 1.397 . S
C387 C386 1.394 . S
C387 C397 1.723 . S
C388 C385 1.453 . S
C388 H412 0.982 . S
C388 H413 0.979 . S
C388 H414 0.977 . S
C389 C385 1.684 . S
C389 H415 0.979 . S
C389 H416 0.980 . S
C389 H417 0.983 . S
C390 H366 0.948 . S
C390 C391 1.391 . S
C390 C395 1.391 . S
C391 C390 1.391 . S
C391 C392 1.391 . S
C392 H369 0.947 . S
C392 C391 1.391 . S
C392 C393 1.392 . S
C393 H370 0.948 . S
C393 C392 1.392 . S
C393 C394 1.419 . S
C394 C393 1.419 . S
C394 C395 1.391 . S
C394 C398 1.397 . S
C395 C390 1.391 . S
C395 C394 1.391 . S
C395 C396 1.399 . S
C396 C395 1.399 . S
C396 C397 1.396 . S
C396 C399 1.453 . S
C396 C400 1.684 . S
C397 C387 1.723 . S
C397 C396 1.396 . S
C397 C398 1.394 . S
C398 C368 1.723 . S
C398 C394 1.397 . S
C398 C397 1.394 . S
C399 H371 0.982 . S
C399 H375 0.979 . S
C399 H376 0.977 . S
C399 C396 1.453 . S
C400 H372 0.979 . S
C400 H373 0.980 . S
C400 H374 0.983 . S
C400 C396 1.684 . S
H401 C419 0.948 . S
H402 C360 0.948 . S
H403 C378 0.979 . S
H404 C378 0.980 . S
H405 C378 0.983 . S
H406 C377 0.982 . S
H407 C377 0.979 . S
H408 C377 0.977 . S
H409 C379 0.948 . S
H410 C381 0.947 . S
H411 C382 0.948 . S
H412 C388 0.982 . S
H413 C388 0.979 . S
H414 C388 0.977 . S
H415 C389 0.979 . S
H416 C389 0.980 . S
H417 C389 0.983 . S
H418 C362 0.947 . S
C419 C362 1.392 . S
C419 C363 1.419 . S
C419 H401 0.948 . S
C420 C421 1.391 . S
C420 C424 1.391 . S
C420 H462 0.948 . S
C421 C420 1.391 . S
C421 C422 1.391 . S
C422 C421 1.391 . S
C422 H478 0.947 . S
C422 C479 1.392 . S
C423 C424 1.391 . S
C423 C427 1.397 . S
C423 C479 1.419 . S
C424 C420 1.391 . S
C424 C423 1.391 . S
C424 C425 1.399 . S
C425 C424 1.399 . S
C425 C428 1.396 . S
C425 C437 1.453 . S
C425 C438 1.684 . S
H426 C450 0.948 . S
C427 C423 1.397 . S
C427 C428 1.394 . S
C427 C446 1.723 . S
C428 C425 1.396 . S
C428 C427 1.394 . S
C428 C458 1.723 . S
H429 C452 0.947 . S
H430 C453 0.948 . S
H431 C459 0.982 . S
H432 C460 0.979 . S
H433 C460 0.980 . S
H434 C460 0.983 . S
H435 C459 0.979 . S
H436 C459 0.977 . S
C437 C425 1.453 . S
C437 H466 0.982 . S
C437 H467 0.979 . S
C437 H468 0.977 . S
C438 C425 1.684 . S
C438 H463 0.979 . S
C438 H464 0.980 . S
C438 H465 0.983 . S
C439 C440 1.391 . S
C439 C444 1.391 . S
C439 H469 0.948 . S
C440 C439 1.391 . S
C440 C441 1.391 . S
C441 C440 1.391 . S
C441 C442 1.392 . S
C441 H470 0.947 . S
C442 C441 1.392 . S
C442 C443 1.419 . S
C442 H471 0.948 . S
C443 C442 1.419 . S
C443 C444 1.391 . S
C443 C447 1.397 . S
C444 C439 1.391 . S
C444 C443 1.391 . S
C444 C445 1.399 . S
C445 C444 1.399 . S
C445 C446 1.396 . S
C445 C448 1.453 . S
C445 C449 1.684 . S
C446 C427 1.723 . S
C446 C445 1.396 . S
C446 C447 1.394 . S
C447 C443 1.397 . S
C447 C446 1.394 . S
C447 C457 1.723 . S
C448 C445 1.453 . S
C448 H472 0.982 . S
C448 H473 0.979 . S
C448 H474 0.977 . S
C449 C445 1.684 . S
C449 H475 0.979 . S
C449 H476 0.980 . S
C449 H477 0.983 . S
C450 H426 0.948 . S
C450 C451 1.391 . S
C450 C455 1.391 . S
C451 C450 1.391 . S
C451 C452 1.391 . S
C452 H429 0.947 . S
C452 C451 1.391 . S
C452 C453 1.392 . S
C453 H430 0.948 . S
C453 C452 1.392 . S
C453 C454 1.419 . S
C454 C453 1.419 . S
C454 C455 1.391 . S
C454 C458 1.397 . S
C455 C450 1.391 . S
C455 C454 1.391 . S
C455 C456 1.399 . S
C456 C455 1.399 . S
C456 C457 1.396 . S
C456 C459 1.453 . S
C456 C460 1.684 . S
C457 C447 1.723 . S
C457 C456 1.396 . S
C457 C458 1.394 . S
C458 C428 1.723 . S
C458 C454 1.397 . S
C458 C457 1.394 . S
C459 H431 0.982 . S
C459 H435 0.979 . S
C459 H436 0.977 . S
C459 C456 1.453 . S
C460 H432 0.979 . S
C460 H433 0.980 . S
C460 H434 0.983 . S
C460 C456 1.684 . S
H461 C479 0.948 . S
H462 C420 0.948 . S
H463 C438 0.979 . S
H464 C438 0.980 . S
H465 C438 0.983 . S
H466 C437 0.982 . S
H467 C437 0.979 . S
H468 C437 0.977 . S
H469 C439 0.948 . S
H470 C441 0.947 . S
H471 C442 0.948 . S
H472 C448 0.982 . S
H473 C448 0.979 . S
H474 C448 0.977 . S
H475 C449 0.979 . S
H476 C449 0.980 . S
H477 C449 0.983 . S
H478 C422 0.947 . S
C479 C422 1.392 . S
C479 C423 1.419 . S
C479 H461 0.948 . S
Dy480 O484 2.398 . S
Dy480 O485 2.491 . S
Dy480 O486 2.403 1_545 S
Dy480 O487 2.664 1_545 S
Dy480 O491 2.326 . S
Dy480 O495 2.310 1_455 S
Dy480 O496 2.351 1_445 S
C481 O492 1.185 . S
C481 O493 1.355 . S
C482 O484 1.185 . S
C482 O485 1.355 . S
Dy483 O487 2.310 1_655 S
Dy483 O490 2.351 1_665 S
Dy483 O492 2.398 . S
Dy483 O493 2.491 . S
Dy483 O494 2.403 1_565 S
Dy483 O495 2.664 1_565 S
Dy483 O497 2.326 . S
O484 Dy480 2.398 . S
O484 C482 1.185 . S
O485 Dy480 2.491 . S
O485 C482 1.355 . S
O486 Dy480 2.403 1_565 S
O486 C488 1.254 . S
O487 Dy480 2.664 1_565 S
O487 Dy483 2.310 1_455 S
O487 C488 1.268 . S
C488 O486 1.254 . S
C488 O487 1.268 . S
C489 O494 1.254 . S
C489 O495 1.268 . S
O490 Dy483 2.351 1_445 S
O490 C498 1.249 . S
O491 Dy480 2.326 . S
O491 C498 1.267 . S
O492 C481 1.185 . S
O492 Dy483 2.398 . S
O493 C481 1.355 . S
O493 Dy483 2.491 . S
O494 Dy483 2.403 1_545 S
O494 C489 1.254 . S
O495 Dy480 2.310 1_655 S
O495 Dy483 2.664 1_545 S
O495 C489 1.268 . S
O496 Dy480 2.351 1_665 S
O496 C499 1.249 . S
O497 Dy483 2.326 . S
O497 C499 1.267 . S
C498 O490 1.249 . S
C498 O491 1.267 . S
C499 O496 1.249 . S
C499 O497 1.267 . S
Dy500 O504 2.398 . S
Dy500 O505 2.491 . S
Dy500 O506 2.403 1_545 S
Dy500 O507 2.664 1_545 S
Dy500 O511 2.326 . S
Dy500 O515 2.310 1_554 S
Dy500 O516 2.351 1_544 S
C501 O512 1.185 . S
C501 O513 1.355 . S
C502 O504 1.185 . S
C502 O505 1.355 . S
Dy503 O507 2.336 1_556 S
Dy503 O510 2.329 1_566 S
Dy503 O512 2.403 . S
Dy503 O513 2.527 . S
Dy503 O514 2.370 1_565 S
Dy503 O515 2.645 1_565 S
Dy503 O517 2.343 . S
O504 Dy500 2.398 . S
O504 C502 1.185 . S
O505 Dy500 2.491 . S
O505 C502 1.355 . S
O506 Dy500 2.403 1_565 S
O506 C508 1.254 . S
O507 Dy500 2.664 1_565 S
O507 Dy503 2.336 1_554 S
O507 C508 1.268 . S
C508 O506 1.254 . S
C508 O507 1.268 . S
C509 O514 1.254 . S
C509 O515 1.268 . S
O510 Dy503 2.329 1_544 S
O510 C518 1.249 . S
O511 Dy500 2.326 . S
O511 C518 1.267 . S
O512 C501 1.185 . S
O512 Dy503 2.403 . S
O513 C501 1.355 . S
O513 Dy503 2.527 . S
O514 Dy503 2.370 1_545 S
O514 C509 1.254 . S
O515 Dy500 2.310 1_556 S
O515 Dy503 2.645 1_545 S
O515 C509 1.268 . S
O516 Dy500 2.351 1_566 S
O516 C519 1.249 . S
O517 Dy503 2.343 . S
O517 C519 1.267 . S
C518 O510 1.249 . S
C518 O511 1.267 . S
C519 O516 1.249 . S
C519 O517 1.267 . S
Dy520 O524 2.398 . S
Dy520 O525 2.491 . S
Dy520 O526 2.403 . S
Dy520 O527 2.664 . S
Dy520 O531 2.326 . S
Dy520 O535 2.310 . S
Dy520 O536 2.351 . S
C521 O532 1.185 . S
C521 O533 1.355 . S
C522 O524 1.185 . S
C522 O525 1.355 . S
Dy523 O527 2.310 . S
Dy523 O530 2.351 . S
Dy523 O532 2.398 . S
Dy523 O533 2.491 . S
Dy523 O534 2.403 . S
Dy523 O535 2.664 . S
Dy523 O537 2.326 . S
O524 Dy520 2.398 . S
O524 C522 1.185 . S
O525 Dy520 2.491 . S
O525 C522 1.355 . S
O526 Dy520 2.403 . S
O526 C528 1.254 . S
O527 Dy520 2.664 . S
O527 Dy523 2.310 . S
O527 C528 1.268 . S
C528 O526 1.254 . S
C528 O527 1.268 . S
C529 O534 1.254 . S
C529 O535 1.268 . S
O530 Dy523 2.351 . S
O530 C538 1.249 . S
O531 Dy520 2.326 . S
O531 C538 1.267 . S
O532 C521 1.185 . S
O532 Dy523 2.398 . S
O533 C521 1.355 . S
O533 Dy523 2.491 . S
O534 Dy523 2.403 . S
O534 C529 1.254 . S
O535 Dy520 2.310 . S
O535 Dy523 2.664 . S
O535 C529 1.268 . S
O536 Dy520 2.351 . S
O536 C539 1.249 . S
O537 Dy523 2.326 . S
O537 C539 1.267 . S
C538 O530 1.249 . S
C538 O531 1.267 . S
C539 O536 1.249 . S
C539 O537 1.267 . S
Dy540 O544 2.398 . S
Dy540 O545 2.491 . S
Dy540 O546 2.403 1_455 S
Dy540 O547 2.664 1_455 S
Dy540 O551 2.326 . S
Dy540 O555 2.310 1_554 S
Dy540 O556 2.351 1_454 S
C541 O552 1.185 . S
C541 O553 1.355 . S
C542 O544 1.185 . S
C542 O545 1.355 . S
Dy543 O547 2.310 1_556 S
Dy543 O550 2.351 1_656 S
Dy543 O552 2.398 . S
Dy543 O553 2.491 . S
Dy543 O554 2.403 1_655 S
Dy543 O555 2.664 1_655 S
Dy543 O557 2.326 . S
O544 Dy540 2.398 . S
O544 C542 1.185 . S
O545 Dy540 2.491 . S
O545 C542 1.355 . S
O546 Dy540 2.403 1_655 S
O546 C548 1.254 . S
O547 Dy540 2.664 1_655 S
O547 Dy543 2.310 1_554 S
O547 C548 1.268 . S
C548 O546 1.254 . S
C548 O547 1.268 . S
C549 O554 1.254 . S
C549 O555 1.268 . S
O550 Dy543 2.351 1_454 S
O550 C558 1.249 . S
O551 Dy540 2.326 . S
O551 C558 1.267 . S
O552 C541 1.185 . S
O552 Dy543 2.398 . S
O553 C541 1.355 . S
O553 Dy543 2.491 . S
O554 Dy543 2.403 1_455 S
O554 C549 1.254 . S
O555 Dy540 2.310 1_556 S
O555 Dy543 2.664 1_455 S
O555 C549 1.268 . S
O556 Dy540 2.351 1_656 S
O556 C559 1.249 . S
O557 Dy543 2.326 . S
O557 C559 1.267 . S
C558 O550 1.249 . S
C558 O551 1.267 . S
C559 O556 1.249 . S
C559 O557 1.267 . S
C560 C561 1.349 . S
C560 C562 1.327 . S
C560 H585 0.950 . S
C561 C560 1.349 . S
C561 C577 1.349 . S
C562 C560 1.327 . S
C562 C581 1.429 . S
C562 H586 0.950 . S
C563 C580 1.574 . S
C563 C582 1.368 . S
C563 H587 0.949 . S
H564 C568 0.949 . S
C565 C566 1.349 . S
C565 C567 1.327 . S
C565 H588 0.950 . S
C566 C565 1.349 . S
C566 C578 1.349 . S
C567 C565 1.327 . S
C567 C583 1.429 . S
C567 H589 0.950 . S
C568 H564 0.949 . S
C568 C576 1.574 . S
C568 C584 1.368 . S
H569 C577 0.950 . S
H570 C575 0.950 . S
H571 C576 0.949 . S
H572 C578 0.950 . S
H573 C579 0.950 . S
H574 C580 0.949 . S
C575 H570 0.950 . S
C575 C577 1.327 . S
C575 C581 1.429 . S
C576 C568 1.574 . S
C576 H571 0.949 . S
C576 C582 1.368 . S
C577 C561 1.349 . S
C577 H569 0.950 . S
C577 C575 1.327 . S
C578 C566 1.349 . S
C578 H572 0.950 . S
C578 C579 1.327 . S
C579 H573 0.950 . S
C579 C578 1.327 . S
C579 C583 1.429 . S
C580 C563 1.574 . S
C580 H574 0.949 . S
C580 C584 1.368 . S
C581 C562 1.429 . S
C581 C575 1.429 . S
C581 C582 1.523 . S
C582 C563 1.368 . S
C582 C576 1.368 . S
C582 C581 1.523 . S
C583 C567 1.429 . S
C583 C579 1.429 . S
C583 C584 1.523 . S
C584 C568 1.368 . S
C584 C580 1.368 . S
C584 C583 1.523 . S
H585 C560 0.950 . S
H586 C562 0.950 . S
H587 C563 0.949 . S
H588 C565 0.950 . S
H589 C567 0.950 . S
C590 C591 1.349 . S
C590 C592 1.327 . S
C590 H615 0.950 . S
C591 C590 1.349 . S
C591 C607 1.349 . S
C592 C590 1.327 . S
C592 C611 1.429 . S
C592 H616 0.950 . S
C593 C610 1.574 . S
C593 C612 1.368 . S
C593 H617 0.949 . S
H594 C598 0.949 . S
C595 C596 1.349 . S
C595 C597 1.327 . S
C595 H618 0.950 . S
C596 C595 1.349 . S
C596 C608 1.349 . S
C597 C595 1.327 . S
C597 C613 1.429 . S
C597 H619 0.950 . S
C598 H594 0.949 . S
C598 C606 1.574 . S
C598 C614 1.368 . S
H599 C607 0.950 . S
H600 C605 0.950 . S
H601 C606 0.949 . S
H602 C608 0.950 . S
H603 C609 0.950 . S
H604 C610 0.949 . S
C605 H600 0.950 . S
C605 C607 1.327 . S
C605 C611 1.429 . S
C606 C598 1.574 . S
C606 H601 0.949 . S
C606 C612 1.368 . S
C607 C591 1.349 . S
C607 H599 0.950 . S
C607 C605 1.327 . S
C608 C596 1.349 . S
C608 H602 0.950 . S
C608 C609 1.327 . S
C609 H603 0.950 . S
C609 C608 1.327 . S
C609 C613 1.429 . S
C610 C593 1.574 . S
C610 H604 0.949 . S
C610 C614 1.368 . S
C611 C592 1.429 . S
C611 C605 1.429 . S
C611 C612 1.523 . S
C612 C593 1.368 . S
C612 C606 1.368 . S
C612 C611 1.523 . S
C613 C597 1.429 . S
C613 C609 1.429 . S
C613 C614 1.523 . S
C614 C598 1.368 . S
C614 C610 1.368 . S
C614 C613 1.523 . S
H615 C590 0.950 . S
H616 C592 0.950 . S
H617 C593 0.949 . S
H618 C595 0.950 . S
H619 C597 0.950 . S
C620 C621 1.349 . S
C620 C622 1.327 . S
C620 H645 0.950 . S
C621 C620 1.349 . S
C621 C637 1.349 . S
C622 C620 1.327 . S
C622 C641 1.429 . S
C622 H646 0.950 . S
C623 C640 1.574 . S
C623 C642 1.368 . S
C623 H647 0.949 . S
H624 C628 0.949 . S
C625 C626 1.349 . S
C625 C627 1.327 . S
C625 H648 0.950 . S
C626 C625 1.349 . S
C626 C638 1.349 . S
C627 C625 1.327 . S
C627 C643 1.429 . S
C627 H649 0.950 . S
C628 H624 0.949 . S
C628 C636 1.574 . S
C628 C644 1.368 . S
H629 C637 0.950 . S
H630 C635 0.950 . S
H631 C636 0.949 . S
H632 C638 0.950 . S
H633 C639 0.950 . S
H634 C640 0.949 . S
C635 H630 0.950 . S
C635 C637 1.327 . S
C635 C641 1.429 . S
C636 C628 1.574 . S
C636 H631 0.949 . S
C636 C642 1.368 . S
C637 C621 1.349 . S
C637 H629 0.950 . S
C637 C635 1.327 . S
C638 C626 1.349 . S
C638 H632 0.950 . S
C638 C639 1.327 . S
C639 H633 0.950 . S
C639 C638 1.327 . S
C639 C643 1.429 . S
C640 C623 1.574 . S
C640 H634 0.949 . S
C640 C644 1.368 . S
C641 C622 1.429 . S
C641 C635 1.429 . S
C641 C642 1.523 . S
C642 C623 1.368 . S
C642 C636 1.368 . S
C642 C641 1.523 . S
C643 C627 1.429 . S
C643 C639 1.429 . S
C643 C644 1.523 . S
C644 C628 1.368 . S
C644 C640 1.368 . S
C644 C643 1.523 . S
H645 C620 0.950 . S
H646 C622 0.950 . S
H647 C623 0.949 . S
H648 C625 0.950 . S
H649 C627 0.950 . S
C650 C651 1.349 . S
C650 C652 1.327 . S
C650 H675 0.950 . S
C651 C650 1.349 . S
C651 C667 1.349 . S
C652 C650 1.327 . S
C652 C671 1.429 . S
C652 H676 0.950 . S
C653 C670 1.574 . S
C653 C672 1.368 . S
C653 H677 0.949 . S
H654 C658 0.949 . S
C655 C656 1.349 . S
C655 C657 1.327 . S
C655 H678 0.950 . S
C656 C655 1.349 . S
C656 C668 1.349 . S
C657 C655 1.327 . S
C657 C673 1.429 . S
C657 H679 0.950 . S
C658 H654 0.949 . S
C658 C666 1.574 . S
C658 C674 1.368 . S
H659 C667 0.950 . S
H660 C665 0.950 . S
H661 C666 0.949 . S
H662 C668 0.950 . S
H663 C669 0.950 . S
H664 C670 0.949 . S
C665 H660 0.950 . S
C665 C667 1.327 . S
C665 C671 1.429 . S
C666 C658 1.574 . S
C666 H661 0.949 . S
C666 C672 1.368 . S
C667 C651 1.349 . S
C667 H659 0.950 . S
C667 C665 1.327 . S
C668 C656 1.349 . S
C668 H662 0.950 . S
C668 C669 1.327 . S
C669 H663 0.950 . S
C669 C668 1.327 . S
C669 C673 1.429 . S
C670 C653 1.574 . S
C670 H664 0.949 . S
C670 C674 1.368 . S
C671 C652 1.429 . S
C671 C665 1.429 . S
C671 C672 1.523 . S
C672 C653 1.368 . S
C672 C666 1.368 . S
C672 C671 1.523 . S
C673 C657 1.429 . S
C673 C669 1.429 . S
C673 C674 1.523 . S
C674 C658 1.368 . S
C674 C670 1.368 . S
C674 C673 1.523 . S
H675 C650 0.950 . S
H676 C652 0.950 . S
H677 C653 0.949 . S
H678 C655 0.950 . S
H679 C657 0.950 . S
C680 C681 1.349 . S
C680 C682 1.327 . S
C680 H705 0.950 . S
C681 C680 1.349 . S
C681 C697 1.349 . S
C682 C680 1.327 . S
C682 C701 1.429 . S
C682 H706 0.950 . S
C683 C700 1.574 . S
C683 C702 1.368 . S
C683 H707 0.949 . S
H684 C688 0.949 . S
C685 C686 1.349 . S
C685 C687 1.327 . S
C685 H708 0.950 . S
C686 C685 1.349 . S
C686 C698 1.349 . S
C687 C685 1.327 . S
C687 C703 1.429 . S
C687 H709 0.950 . S
C688 H684 0.949 . S
C688 C696 1.574 . S
C688 C704 1.368 . S
H689 C697 0.950 . S
H690 C695 0.950 . S
H691 C696 0.949 . S
H692 C698 0.950 . S
H693 C699 0.950 . S
H694 C700 0.949 . S
C695 H690 0.950 . S
C695 C697 1.327 . S
C695 C701 1.429 . S
C696 C688 1.574 . S
C696 H691 0.949 . S
C696 C702 1.368 . S
C697 C681 1.349 . S
C697 H689 0.950 . S
C697 C695 1.327 . S
C698 C686 1.349 . S
C698 H692 0.950 . S
C698 C699 1.327 . S
C699 H693 0.950 . S
C699 C698 1.327 . S
C699 C703 1.429 . S
C700 C683 1.574 . S
C700 H694 0.949 . S
C700 C704 1.368 . S
C701 C682 1.429 . S
C701 C695 1.429 . S
C701 C702 1.523 . S
C702 C683 1.368 . S
C702 C696 1.368 . S
C702 C701 1.523 . S
C703 C687 1.429 . S
C703 C699 1.429 . S
C703 C704 1.523 . S
C704 C688 1.368 . S
C704 C700 1.368 . S
C704 C703 1.523 . S
H705 C680 0.950 . S
H706 C682 0.950 . S
H707 C683 0.949 . S
H708 C685 0.950 . S
H709 C687 0.950 . S
C710 C711 1.349 . S
C710 C712 1.327 . S
C710 H735 0.950 . S
C711 C710 1.349 . S
C711 C727 1.349 . S
C712 C710 1.327 . S
C712 C731 1.429 . S
C712 H736 0.950 . S
C713 C730 1.574 . S
C713 C732 1.368 . S
C713 H737 0.949 . S
H714 C718 0.949 . S
C715 C716 1.349 . S
C715 C717 1.327 . S
C715 H738 0.950 . S
C716 C715 1.349 . S
C716 C728 1.349 . S
C717 C715 1.327 . S
C717 C733 1.429 . S
C717 H739 0.950 . S
C718 H714 0.949 . S
C718 C726 1.574 . S
C718 C734 1.368 . S
H719 C727 0.950 . S
H720 C725 0.950 . S
H721 C726 0.949 . S
H722 C728 0.950 . S
H723 C729 0.950 . S
H724 C730 0.949 . S
C725 H720 0.950 . S
C725 C727 1.327 . S
C725 C731 1.429 . S
C726 C718 1.574 . S
C726 H721 0.949 . S
C726 C732 1.368 . S
C727 C711 1.349 . S
C727 H719 0.950 . S
C727 C725 1.327 . S
C728 C716 1.349 . S
C728 H722 0.950 . S
C728 C729 1.327 . S
C729 H723 0.950 . S
C729 C728 1.327 . S
C729 C733 1.429 . S
C730 C713 1.574 . S
C730 H724 0.949 . S
C730 C734 1.368 . S
C731 C712 1.429 . S
C731 C725 1.429 . S
C731 C732 1.523 . S
C732 C713 1.368 . S
C732 C726 1.368 . S
C732 C731 1.523 . S
C733 C717 1.429 . S
C733 C729 1.429 . S
C733 C734 1.523 . S
C734 C718 1.368 . S
C734 C730 1.368 . S
C734 C733 1.523 . S
H735 C710 0.950 . S
H736 C712 0.950 . S
H737 C713 0.949 . S
H738 C715 0.950 . S
H739 C717 0.950 . S
C740 C741 1.349 . S
C740 C742 1.327 . S
C740 H765 0.950 . S
C741 C740 1.349 . S
C741 C757 1.349 . S
C742 C740 1.327 . S
C742 C761 1.429 . S
C742 H766 0.950 . S
C743 C760 1.574 . S
C743 C762 1.368 . S
C743 H767 0.949 . S
H744 C748 0.949 . S
C745 C746 1.349 . S
C745 C747 1.327 . S
C745 H768 0.950 . S
C746 C745 1.349 . S
C746 C758 1.349 . S
C747 C745 1.327 . S
C747 C763 1.429 . S
C747 H769 0.950 . S
C748 H744 0.949 . S
C748 C756 1.574 . S
C748 C764 1.368 . S
H749 C757 0.950 . S
H750 C755 0.950 . S
H751 C756 0.949 . S
H752 C758 0.950 . S
H753 C759 0.950 . S
H754 C760 0.949 . S
C755 H750 0.950 . S
C755 C757 1.327 . S
C755 C761 1.429 . S
C756 C748 1.574 . S
C756 H751 0.949 . S
C756 C762 1.368 . S
C757 C741 1.349 . S
C757 H749 0.950 . S
C757 C755 1.327 . S
C758 C746 1.349 . S
C758 H752 0.950 . S
C758 C759 1.327 . S
C759 H753 0.950 . S
C759 C758 1.327 . S
C759 C763 1.429 . S
C760 C743 1.574 . S
C760 H754 0.949 . S
C760 C764 1.368 . S
C761 C742 1.429 . S
C761 C755 1.429 . S
C761 C762 1.523 . S
C762 C743 1.368 . S
C762 C756 1.368 . S
C762 C761 1.523 . S
C763 C747 1.429 . S
C763 C759 1.429 . S
C763 C764 1.523 . S
C764 C748 1.368 . S
C764 C760 1.368 . S
C764 C763 1.523 . S
H765 C740 0.950 . S
H766 C742 0.950 . S
H767 C743 0.949 . S
H768 C745 0.950 . S
H769 C747 0.950 . S
C770 C771 1.349 . S
C770 C772 1.327 . S
C770 H795 0.950 . S
C771 C770 1.349 . S
C771 C787 1.349 . S
C772 C770 1.327 . S
C772 C791 1.429 . S
C772 H796 0.950 . S
C773 C790 1.574 . S
C773 C792 1.368 . S
C773 H797 0.949 . S
H774 C778 0.949 . S
C775 C776 1.349 . S
C775 C777 1.327 . S
C775 H798 0.950 . S
C776 C775 1.349 . S
C776 C788 1.349 . S
C777 C775 1.327 . S
C777 C793 1.429 . S
C777 H799 0.950 . S
C778 H774 0.949 . S
C778 C786 1.574 . S
C778 C794 1.368 . S
H779 C787 0.950 . S
H780 C785 0.950 . S
H781 C786 0.949 . S
H782 C788 0.950 . S
H783 C789 0.950 . S
H784 C790 0.949 . S
C785 H780 0.950 . S
C785 C787 1.327 . S
C785 C791 1.429 . S
C786 C778 1.574 . S
C786 H781 0.949 . S
C786 C792 1.368 . S
C787 C771 1.349 . S
C787 H779 0.950 . S
C787 C785 1.327 . S
C788 C776 1.349 . S
C788 H782 0.950 . S
C788 C789 1.327 . S
C789 H783 0.950 . S
C789 C788 1.327 . S
C789 C793 1.429 . S
C790 C773 1.574 . S
C790 H784 0.949 . S
C790 C794 1.368 . S
C791 C772 1.429 . S
C791 C785 1.429 . S
C791 C792 1.523 . S
C792 C773 1.368 . S
C792 C786 1.368 . S
C792 C791 1.523 . S
C793 C777 1.429 . S
C793 C789 1.429 . S
C793 C794 1.523 . S
C794 C778 1.368 . S
C794 C790 1.368 . S
C794 C793 1.523 . S
H795 C770 0.950 . S
H796 C772 0.950 . S
H797 C773 0.949 . S
H798 C775 0.950 . S
H799 C777 0.950 . S
C800 C801 1.349 . S
C800 C802 1.327 . S
C800 H825 0.950 . S
C801 C800 1.349 . S
C801 C817 1.349 . S
C802 C800 1.327 . S
C802 C821 1.429 . S
C802 H826 0.950 . S
C803 C820 1.574 . S
C803 C822 1.368 . S
C803 H827 0.949 . S
H804 C808 0.949 . S
C805 C806 1.349 . S
C805 C807 1.327 . S
C805 H828 0.950 . S
C806 C805 1.349 . S
C806 C818 1.349 . S
C807 C805 1.327 . S
C807 C823 1.429 . S
C807 H829 0.950 . S
C808 H804 0.949 . S
C808 C816 1.574 . S
C808 C824 1.368 . S
H809 C817 0.950 . S
H810 C815 0.950 . S
H811 C816 0.949 . S
H812 C818 0.950 . S
H813 C819 0.950 . S
H814 C820 0.949 . S
C815 H810 0.950 . S
C815 C817 1.327 . S
C815 C821 1.429 . S
C816 C808 1.574 . S
C816 H811 0.949 . S
C816 C822 1.368 . S
C817 C801 1.349 . S
C817 H809 0.950 . S
C817 C815 1.327 . S
C818 C806 1.349 . S
C818 H812 0.950 . S
C818 C819 1.327 . S
C819 H813 0.950 . S
C819 C818 1.327 . S
C819 C823 1.429 . S
C820 C803 1.574 . S
C820 H814 0.949 . S
C820 C824 1.368 . S
C821 C802 1.429 . S
C821 C815 1.429 . S
C821 C822 1.523 . S
C822 C803 1.368 . S
C822 C816 1.368 . S
C822 C821 1.523 . S
C823 C807 1.429 . S
C823 C819 1.429 . S
C823 C824 1.523 . S
C824 C808 1.368 . S
C824 C820 1.368 . S
C824 C823 1.523 . S
H825 C800 0.950 . S
H826 C802 0.950 . S
H827 C803 0.949 . S
H828 C805 0.950 . S
H829 C807 0.950 . S
C830 C831 1.349 . S
C830 C832 1.327 . S
C830 H855 0.950 . S
C831 C830 1.349 . S
C831 C847 1.349 . S
C832 C830 1.327 . S
C832 C851 1.429 . S
C832 H856 0.950 . S
C833 C850 1.574 . S
C833 C852 1.368 . S
C833 H857 0.949 . S
H834 C838 0.949 . S
C835 C836 1.349 . S
C835 C837 1.327 . S
C835 H858 0.950 . S
C836 C835 1.349 . S
C836 C848 1.349 . S
C837 C835 1.327 . S
C837 C853 1.429 . S
C837 H859 0.950 . S
C838 H834 0.949 . S
C838 C846 1.574 . S
C838 C854 1.368 . S
H839 C847 0.950 . S
H840 C845 0.950 . S
H841 C846 0.949 . S
H842 C848 0.950 . S
H843 C849 0.950 . S
H844 C850 0.949 . S
C845 H840 0.950 . S
C845 C847 1.327 . S
C845 C851 1.429 . S
C846 C838 1.574 . S
C846 H841 0.949 . S
C846 C852 1.368 . S
C847 C831 1.349 . S
C847 H839 0.950 . S
C847 C845 1.327 . S
C848 C836 1.349 . S
C848 H842 0.950 . S
C848 C849 1.327 . S
C849 H843 0.950 . S
C849 C848 1.327 . S
C849 C853 1.429 . S
C850 C833 1.574 . S
C850 H844 0.949 . S
C850 C854 1.368 . S
C851 C832 1.429 . S
C851 C845 1.429 . S
C851 C852 1.523 . S
C852 C833 1.368 . S
C852 C846 1.368 . S
C852 C851 1.523 . S
C853 C837 1.429 . S
C853 C849 1.429 . S
C853 C854 1.523 . S
C854 C838 1.368 . S
C854 C850 1.368 . S
C854 C853 1.523 . S
H855 C830 0.950 . S
H856 C832 0.950 . S
H857 C833 0.949 . S
H858 C835 0.950 . S
H859 C837 0.950 . S
C860 C861 1.349 . S
C860 C862 1.327 . S
C860 H885 0.950 . S
C861 C860 1.349 . S
C861 C877 1.349 . S
C862 C860 1.327 . S
C862 C881 1.429 . S
C862 H886 0.950 . S
C863 C880 1.574 . S
C863 C882 1.368 . S
C863 H887 0.949 . S
H864 C868 0.949 . S
C865 C866 1.349 . S
C865 C867 1.327 . S
C865 H888 0.950 . S
C866 C865 1.349 . S
C866 C878 1.349 . S
C867 C865 1.327 . S
C867 C883 1.429 . S
C867 H889 0.950 . S
C868 H864 0.949 . S
C868 C876 1.574 . S
C868 C884 1.368 . S
H869 C877 0.950 . S
H870 C875 0.950 . S
H871 C876 0.949 . S
H872 C878 0.950 . S
H873 C879 0.950 . S
H874 C880 0.949 . S
C875 H870 0.950 . S
C875 C877 1.327 . S
C875 C881 1.429 . S
C876 C868 1.574 . S
C876 H871 0.949 . S
C876 C882 1.368 . S
C877 C861 1.349 . S
C877 H869 0.950 . S
C877 C875 1.327 . S
C878 C866 1.349 . S
C878 H872 0.950 . S
C878 C879 1.327 . S
C879 H873 0.950 . S
C879 C878 1.327 . S
C879 C883 1.429 . S
C880 C863 1.574 . S
C880 H874 0.949 . S
C880 C884 1.368 . S
C881 C862 1.429 . S
C881 C875 1.429 . S
C881 C882 1.523 . S
C882 C863 1.368 . S
C882 C876 1.368 . S
C882 C881 1.523 . S
C883 C867 1.429 . S
C883 C879 1.429 . S
C883 C884 1.523 . S
C884 C868 1.368 . S
C884 C880 1.368 . S
C884 C883 1.523 . S
H885 C860 0.950 . S
H886 C862 0.950 . S
H887 C863 0.949 . S
H888 C865 0.950 . S
H889 C867 0.950 . S
C890 C891 1.349 . S
C890 C892 1.327 . S
C890 H915 0.950 . S
C891 C890 1.349 . S
C891 C907 1.349 . S
C892 C890 1.327 . S
C892 C911 1.429 . S
C892 H916 0.950 . S
C893 C910 1.574 . S
C893 C912 1.368 . S
C893 H917 0.949 . S
H894 C898 0.949 . S
C895 C896 1.349 . S
C895 C897 1.327 . S
C895 H918 0.950 . S
C896 C895 1.349 . S
C896 C908 1.349 . S
C897 C895 1.327 . S
C897 C913 1.429 . S
C897 H919 0.950 . S
C898 H894 0.949 . S
C898 C906 1.574 . S
C898 C914 1.368 . S
H899 C907 0.950 . S
H900 C905 0.950 . S
H901 C906 0.949 . S
H902 C908 0.950 . S
H903 C909 0.950 . S
H904 C910 0.949 . S
C905 H900 0.950 . S
C905 C907 1.327 . S
C905 C911 1.429 . S
C906 C898 1.574 . S
C906 H901 0.949 . S
C906 C912 1.368 . S
C907 C891 1.349 . S
C907 H899 0.950 . S
C907 C905 1.327 . S
C908 C896 1.349 . S
C908 H902 0.950 . S
C908 C909 1.327 . S
C909 H903 0.950 . S
C909 C908 1.327 . S
C909 C913 1.429 . S
C910 C893 1.574 . S
C910 H904 0.949 . S
C910 C914 1.368 . S
C911 C892 1.429 . S
C911 C905 1.429 . S
C911 C912 1.523 . S
C912 C893 1.368 . S
C912 C906 1.368 . S
C912 C911 1.523 . S
C913 C897 1.429 . S
C913 C909 1.429 . S
C913 C914 1.523 . S
C914 C898 1.368 . S
C914 C910 1.368 . S
C914 C913 1.523 . S
H915 C890 0.950 . S
H916 C892 0.950 . S
H917 C893 0.949 . S
H918 C895 0.950 . S
H919 C897 0.950 . S
C920 C921 1.349 . S
C920 C922 1.327 . S
C920 H945 0.950 . S
C921 C920 1.349 . S
C921 C937 1.349 . S
C922 C920 1.327 . S
C922 C941 1.429 . S
C922 H946 0.950 . S
C923 C940 1.574 . S
C923 C942 1.368 . S
C923 H947 0.949 . S
H924 C928 0.949 . S
C925 C926 1.349 . S
C925 C927 1.327 . S
C925 H948 0.950 . S
C926 C925 1.349 . S
C926 C938 1.349 . S
C927 C925 1.327 . S
C927 C943 1.429 . S
C927 H949 0.950 . S
C928 H924 0.949 . S
C928 C936 1.574 . S
C928 C944 1.368 . S
H929 C937 0.950 . S
H930 C935 0.950 . S
H931 C936 0.949 . S
H932 C938 0.950 . S
H933 C939 0.950 . S
H934 C940 0.949 . S
C935 H930 0.950 . S
C935 C937 1.327 . S
C935 C941 1.429 . S
C936 C928 1.574 . S
C936 H931 0.949 . S
C936 C942 1.368 . S
C937 C921 1.349 . S
C937 H929 0.950 . S
C937 C935 1.327 . S
C938 C926 1.349 . S
C938 H932 0.950 . S
C938 C939 1.327 . S
C939 H933 0.950 . S
C939 C938 1.327 . S
C939 C943 1.429 . S
C940 C923 1.574 . S
C940 H934 0.949 . S
C940 C944 1.368 . S
C941 C922 1.429 . S
C941 C935 1.429 . S
C941 C942 1.523 . S
C942 C923 1.368 . S
C942 C936 1.368 . S
C942 C941 1.523 . S
C943 C927 1.429 . S
C943 C939 1.429 . S
C943 C944 1.523 . S
C944 C928 1.368 . S
C944 C940 1.368 . S
C944 C943 1.523 . S
H945 C920 0.950 . S
H946 C922 0.950 . S
H947 C923 0.949 . S
H948 C925 0.950 . S
H949 C927 0.950 . S
C950 C951 1.349 . S
C950 C952 1.327 . S
C950 H975 0.950 . S
C951 C950 1.349 . S
C951 C967 1.349 . S
C952 C950 1.327 . S
C952 C971 1.429 . S
C952 H976 0.950 . S
C953 C970 1.574 . S
C953 C972 1.368 . S
C953 H977 0.949 . S
H954 C958 0.949 . S
C955 C956 1.349 . S
C955 C957 1.327 . S
C955 H978 0.950 . S
C956 C955 1.349 . S
C956 C968 1.349 . S
C957 C955 1.327 . S
C957 C973 1.429 . S
C957 H979 0.950 . S
C958 H954 0.949 . S
C958 C966 1.574 . S
C958 C974 1.368 . S
H959 C967 0.950 . S
H960 C965 0.950 . S
H961 C966 0.949 . S
H962 C968 0.950 . S
H963 C969 0.950 . S
H964 C970 0.949 . S
C965 H960 0.950 . S
C965 C967 1.327 . S
C965 C971 1.429 . S
C966 C958 1.574 . S
C966 H961 0.949 . S
C966 C972 1.368 . S
C967 C951 1.349 . S
C967 H959 0.950 . S
C967 C965 1.327 . S
C968 C956 1.349 . S
C968 H962 0.950 . S
C968 C969 1.327 . S
C969 H963 0.950 . S
C969 C968 1.327 . S
C969 C973 1.429 . S
C970 C953 1.574 . S
C970 H964 0.949 . S
C970 C974 1.368 . S
C971 C952 1.429 . S
C971 C965 1.429 . S
C971 C972 1.523 . S
C972 C953 1.368 . S
C972 C966 1.368 . S
C972 C971 1.523 . S
C973 C957 1.429 . S
C973 C969 1.429 . S
C973 C974 1.523 . S
C974 C958 1.368 . S
C974 C970 1.368 . S
C974 C973 1.523 . S
H975 C950 0.950 . S
H976 C952 0.950 . S
H977 C953 0.949 . S
H978 C955 0.950 . S
H979 C957 0.950 . S
C980 C981 1.349 . S
C980 C982 1.327 . S
C980 H1005 0.950 . S
C981 C980 1.349 . S
C981 C997 1.349 . S
C982 C980 1.327 . S
C982 C1001 1.429 . S
C982 H1006 0.950 . S
C983 C1000 1.574 . S
C983 C1002 1.368 . S
C983 H1007 0.949 . S
H984 C988 0.949 . S
C985 C986 1.349 . S
C985 C987 1.327 . S
C985 H1008 0.950 . S
C986 C985 1.349 . S
C986 C998 1.349 . S
C987 C985 1.327 . S
C987 C1003 1.429 . S
C987 H1009 0.950 . S
C988 H984 0.949 . S
C988 C996 1.574 . S
C988 C1004 1.368 . S
H989 C997 0.950 . S
H990 C995 0.950 . S
H991 C996 0.949 . S
H992 C998 0.950 . S
H993 C999 0.950 . S
H994 C1000 0.949 . S
C995 H990 0.950 . S
C995 C997 1.327 . S
C995 C1001 1.429 . S
C996 C988 1.574 . S
C996 H991 0.949 . S
C996 C1002 1.368 . S
C997 C981 1.349 . S
C997 H989 0.950 . S
C997 C995 1.327 . S
C998 C986 1.349 . S
C998 H992 0.950 . S
C998 C999 1.327 . S
C999 H993 0.950 . S
C999 C998 1.327 . S
C999 C1003 1.429 . S
C1000 C983 1.574 . S
C1000 H994 0.949 . S
C1000 C1004 1.368 . S
C1001 C982 1.429 . S
C1001 C995 1.429 . S
C1001 C1002 1.523 . S
C1002 C983 1.368 . S
C1002 C996 1.368 . S
C1002 C1001 1.523 . S
C1003 C987 1.429 . S
C1003 C999 1.429 . S
C1003 C1004 1.523 . S
C1004 C988 1.368 . S
C1004 C1000 1.368 . S
C1004 C1003 1.523 . S
H1005 C980 0.950 . S
H1006 C982 0.950 . S
H1007 C983 0.949 . S
H1008 C985 0.950 . S
H1009 C987 0.950 . S
C1010 C1011 1.349 . S
C1010 C1012 1.327 . S
C1010 H1035 0.950 . S
C1011 C1010 1.349 . S
C1011 C1027 1.349 . S
C1012 C1010 1.327 . S
C1012 C1031 1.429 . S
C1012 H1036 0.950 . S
C1013 C1030 1.574 . S
C1013 C1032 1.368 . S
C1013 H1037 0.949 . S
H1014 C1018 0.949 . S
C1015 C1016 1.349 . S
C1015 C1017 1.327 . S
C1015 H1038 0.950 . S
C1016 C1015 1.349 . S
C1016 C1028 1.349 . S
C1017 C1015 1.327 . S
C1017 C1033 1.429 . S
C1017 H1039 0.950 . S
C1018 H1014 0.949 . S
C1018 C1026 1.574 . S
C1018 C1034 1.368 . S
H1019 C1027 0.950 . S
H1020 C1025 0.950 . S
H1021 C1026 0.949 . S
H1022 C1028 0.950 . S
H1023 C1029 0.950 . S
H1024 C1030 0.949 . S
C1025 H1020 0.950 . S
C1025 C1027 1.327 . S
C1025 C1031 1.429 . S
C1026 C1018 1.574 . S
C1026 H1021 0.949 . S
C1026 C1032 1.368 . S
C1027 C1011 1.349 . S
C1027 H1019 0.950 . S
C1027 C1025 1.327 . S
C1028 C1016 1.349 . S
C1028 H1022 0.950 . S
C1028 C1029 1.327 . S
C1029 H1023 0.950 . S
C1029 C1028 1.327 . S
C1029 C1033 1.429 . S
C1030 C1013 1.574 . S
C1030 H1024 0.949 . S
C1030 C1034 1.368 . S
C1031 C1012 1.429 . S
C1031 C1025 1.429 . S
C1031 C1032 1.523 . S
C1032 C1013 1.368 . S
C1032 C1026 1.368 . S
C1032 C1031 1.523 . S
C1033 C1017 1.429 . S
C1033 C1029 1.429 . S
C1033 C1034 1.523 . S
C1034 C1018 1.368 . S
C1034 C1030 1.368 . S
C1034 C1033 1.523 . S
H1035 C1010 0.950 . S
H1036 C1012 0.950 . S
H1037 C1013 0.949 . S
H1038 C1015 0.950 . S
H1039 C1017 0.950 . S
C1040 C1041 1.349 . S
C1040 C1042 1.327 . S
C1040 H1065 0.950 . S
C1041 C1040 1.349 . S
C1041 C1057 1.349 . S
C1042 C1040 1.327 . S
C1042 C1061 1.429 . S
C1042 H1066 0.950 . S
C1043 C1060 1.574 . S
C1043 C1062 1.368 . S
C1043 H1067 0.949 . S
H1044 C1048 0.949 . S
C1045 C1046 1.349 . S
C1045 C1047 1.327 . S
C1045 H1068 0.950 . S
C1046 C1045 1.349 . S
C1046 C1058 1.349 . S
C1047 C1045 1.327 . S
C1047 C1063 1.429 . S
C1047 H1069 0.950 . S
C1048 H1044 0.949 . S
C1048 C1056 1.574 . S
C1048 C1064 1.368 . S
H1049 C1057 0.950 . S
H1050 C1055 0.950 . S
H1051 C1056 0.949 . S
H1052 C1058 0.950 . S
H1053 C1059 0.950 . S
H1054 C1060 0.949 . S
C1055 H1050 0.950 . S
C1055 C1057 1.327 . S
C1055 C1061 1.429 . S
C1056 C1048 1.574 . S
C1056 H1051 0.949 . S
C1056 C1062 1.368 . S
C1057 C1041 1.349 . S
C1057 H1049 0.950 . S
C1057 C1055 1.327 . S
C1058 C1046 1.349 . S
C1058 H1052 0.950 . S
C1058 C1059 1.327 . S
C1059 H1053 0.950 . S
C1059 C1058 1.327 . S
C1059 C1063 1.429 . S
C1060 C1043 1.574 . S
C1060 H1054 0.949 . S
C1060 C1064 1.368 . S
C1061 C1042 1.429 . S
C1061 C1055 1.429 . S
C1061 C1062 1.523 . S
C1062 C1043 1.368 . S
C1062 C1056 1.368 . S
C1062 C1061 1.523 . S
C1063 C1047 1.429 . S
C1063 C1059 1.429 . S
C1063 C1064 1.523 . S
C1064 C1048 1.368 . S
C1064 C1060 1.368 . S
C1064 C1063 1.523 . S
H1065 C1040 0.950 . S
H1066 C1042 0.950 . S
H1067 C1043 0.949 . S
H1068 C1045 0.950 . S
H1069 C1047 0.950 . S
C1070 C1071 1.349 . S
C1070 C1072 1.327 . S
C1070 H1095 0.950 . S
C1071 C1070 1.349 . S
C1071 C1087 1.349 . S
C1072 C1070 1.327 . S
C1072 C1091 1.429 . S
C1072 H1096 0.950 . S
C1073 C1090 1.574 . S
C1073 C1092 1.368 . S
C1073 H1097 0.949 . S
H1074 C1078 0.949 . S
C1075 C1076 1.349 . S
C1075 C1077 1.327 . S
C1075 H1098 0.950 . S
C1076 C1075 1.349 . S
C1076 C1088 1.349 . S
C1077 C1075 1.327 . S
C1077 C1093 1.429 . S
C1077 H1099 0.950 . S
C1078 H1074 0.949 . S
C1078 C1086 1.574 . S
C1078 C1094 1.368 . S
H1079 C1087 0.950 . S
H1080 C1085 0.950 . S
H1081 C1086 0.949 . S
H1082 C1088 0.950 . S
H1083 C1089 0.950 . S
H1084 C1090 0.949 . S
C1085 H1080 0.950 . S
C1085 C1087 1.327 . S
C1085 C1091 1.429 . S
C1086 C1078 1.574 . S
C1086 H1081 0.949 . S
C1086 C1092 1.368 . S
C1087 C1071 1.349 . S
C1087 H1079 0.950 . S
C1087 C1085 1.327 . S
C1088 C1076 1.349 . S
C1088 H1082 0.950 . S
C1088 C1089 1.327 . S
C1089 H1083 0.950 . S
C1089 C1088 1.327 . S
C1089 C1093 1.429 . S
C1090 C1073 1.574 . S
C1090 H1084 0.949 . S
C1090 C1094 1.368 . S
C1091 C1072 1.429 . S
C1091 C1085 1.429 . S
C1091 C1092 1.523 . S
C1092 C1073 1.368 . S
C1092 C1086 1.368 . S
C1092 C1091 1.523 . S
C1093 C1077 1.429 . S
C1093 C1089 1.429 . S
C1093 C1094 1.523 . S
C1094 C1078 1.368 . S
C1094 C1090 1.368 . S
C1094 C1093 1.523 . S
H1095 C1070 0.950 . S
H1096 C1072 0.950 . S
H1097 C1073 0.949 . S
H1098 C1075 0.950 . S
H1099 C1077 0.950 . S
C1100 C1101 1.349 . S
C1100 C1102 1.327 . S
C1100 H1125 0.950 . S
C1101 C1100 1.349 . S
C1101 C1117 1.349 . S
C1102 C1100 1.327 . S
C1102 C1121 1.429 . S
C1102 H1126 0.950 . S
C1103 C1120 1.574 . S
C1103 C1122 1.368 . S
C1103 H1127 0.949 . S
H1104 C1108 0.949 . S
C1105 C1106 1.349 . S
C1105 C1107 1.327 . S
C1105 H1128 0.950 . S
C1106 C1105 1.349 . S
C1106 C1118 1.349 . S
C1107 C1105 1.327 . S
C1107 C1123 1.429 . S
C1107 H1129 0.950 . S
C1108 H1104 0.949 . S
C1108 C1116 1.574 . S
C1108 C1124 1.368 . S
H1109 C1117 0.950 . S
H1110 C1115 0.950 . S
H1111 C1116 0.949 . S
H1112 C1118 0.950 1_556 S
H1113 C1119 0.950 . S
H1114 C1120 0.949 . S
C1115 H1110 0.950 . S
C1115 C1117 1.327 . S
C1115 C1121 1.429 . S
C1116 C1108 1.574 . S
C1116 H1111 0.949 . S
C1116 C1122 1.368 . S
C1117 C1101 1.349 . S
C1117 H1109 0.950 . S
C1117 C1115 1.327 . S
C1118 C1106 1.349 . S
C1118 H1112 0.950 1_554 S
C1118 C1119 1.327 . S
C1119 H1113 0.950 . S
C1119 C1118 1.327 . S
C1119 C1123 1.429 . S
C1120 C1103 1.574 . S
C1120 H1114 0.949 . S
C1120 C1124 1.368 . S
C1121 C1102 1.429 . S
C1121 C1115 1.429 . S
C1121 C1122 1.523 . S
C1122 C1103 1.368 . S
C1122 C1116 1.368 . S
C1122 C1121 1.523 . S
C1123 C1107 1.429 . S
C1123 C1119 1.429 . S
C1123 C1124 1.523 . S
C1124 C1108 1.368 . S
C1124 C1120 1.368 . S
C1124 C1123 1.523 . S
H1125 C1100 0.950 . S
H1126 C1102 0.950 . S
H1127 C1103 0.949 . S
H1128 C1105 0.950 . S
H1129 C1107 0.950 . S
C1130 C1131 1.349 . S
C1130 C1132 1.327 . S
C1130 H1155 0.950 . S
C1131 C1130 1.349 . S
C1131 C1147 1.349 . S
C1132 C1130 1.327 . S
C1132 C1151 1.429 . S
C1132 H1156 0.950 . S
C1133 C1150 1.574 . S
C1133 C1152 1.368 . S
C1133 H1157 0.949 . S
H1134 C1138 0.949 . S
C1135 C1136 1.349 . S
C1135 C1137 1.327 . S
C1135 H1158 0.950 . S
C1136 C1135 1.349 . S
C1136 C1148 1.349 . S
C1137 C1135 1.327 . S
C1137 C1153 1.429 . S
C1137 H1159 0.950 . S
C1138 H1134 0.949 . S
C1138 C1146 1.574 . S
C1138 C1154 1.368 . S
H1139 C1147 0.950 . S
H1140 C1145 0.950 . S
H1141 C1146 0.949 . S
H1142 C1148 0.950 . S
H1143 C1149 0.950 . S
H1144 C1150 0.949 . S
C1145 H1140 0.950 . S
C1145 C1147 1.327 . S
C1145 C1151 1.429 . S
C1146 C1138 1.574 . S
C1146 H1141 0.949 . S
C1146 C1152 1.368 . S
C1147 C1131 1.349 . S
C1147 H1139 0.950 . S
C1147 C1145 1.327 . S
C1148 C1136 1.349 . S
C1148 H1142 0.950 . S
C1148 C1149 1.327 . S
C1149 H1143 0.950 . S
C1149 C1148 1.327 . S
C1149 C1153 1.429 . S
C1150 C1133 1.574 . S
C1150 H1144 0.949 . S
C1150 C1154 1.368 . S
C1151 C1132 1.429 . S
C1151 C1145 1.429 . S
C1151 C1152 1.523 . S
C1152 C1133 1.368 . S
C1152 C1146 1.368 . S
C1152 C1151 1.523 . S
C1153 C1137 1.429 . S
C1153 C1149 1.429 . S
C1153 C1154 1.523 . S
C1154 C1138 1.368 . S
C1154 C1150 1.368 . S
C1154 C1153 1.523 . S
H1155 C1130 0.950 . S
H1156 C1132 0.950 . S
H1157 C1133 0.949 . S
H1158 C1135 0.950 . S
H1159 C1137 0.950 . S
C1160 C1161 1.349 . S
C1160 C1162 1.327 . S
C1160 H1185 0.950 . S
C1161 C1160 1.349 . S
C1161 C1177 1.349 . S
C1162 C1160 1.327 . S
C1162 C1181 1.429 . S
C1162 H1186 0.950 . S
C1163 C1180 1.574 . S
C1163 C1182 1.368 . S
C1163 H1187 0.949 . S
H1164 C1168 0.949 . S
C1165 C1166 1.349 . S
C1165 C1167 1.327 . S
C1165 H1188 0.950 . S
C1166 C1165 1.349 . S
C1166 C1178 1.349 . S
C1167 C1165 1.327 . S
C1167 C1183 1.429 . S
C1167 H1189 0.950 . S
C1168 H1164 0.949 . S
C1168 C1176 1.574 . S
C1168 C1184 1.368 . S
H1169 C1177 0.950 . S
H1170 C1175 0.950 . S
H1171 C1176 0.949 . S
H1172 C1178 0.950 . S
H1173 C1179 0.950 . S
H1174 C1180 0.949 . S
C1175 H1170 0.950 . S
C1175 C1177 1.327 . S
C1175 C1181 1.429 . S
C1176 C1168 1.574 . S
C1176 H1171 0.949 . S
C1176 C1182 1.368 . S
C1177 C1161 1.349 . S
C1177 H1169 0.950 . S
C1177 C1175 1.327 . S
C1178 C1166 1.349 . S
C1178 H1172 0.950 . S
C1178 C1179 1.327 . S
C1179 H1173 0.950 . S
C1179 C1178 1.327 . S
C1179 C1183 1.429 . S
C1180 C1163 1.574 . S
C1180 H1174 0.949 . S
C1180 C1184 1.368 . S
C1181 C1162 1.429 . S
C1181 C1175 1.429 . S
C1181 C1182 1.523 . S
C1182 C1163 1.368 . S
C1182 C1176 1.368 . S
C1182 C1181 1.523 . S
C1183 C1167 1.429 . S
C1183 C1179 1.429 . S
C1183 C1184 1.523 . S
C1184 C1168 1.368 . S
C1184 C1180 1.368 . S
C1184 C1183 1.523 . S
H1185 C1160 0.950 . S
H1186 C1162 0.950 . S
H1187 C1163 0.949 . S
H1188 C1165 0.950 . S
H1189 C1167 0.950 . S
C1190 C1191 1.349 . S
C1190 C1192 1.327 . S
C1190 H1215 0.950 . S
C1191 C1190 1.349 . S
C1191 C1207 1.349 . S
C1192 C1190 1.327 . S
C1192 C1211 1.429 . S
C1192 H1216 0.950 . S
C1193 C1210 1.574 . S
C1193 C1212 1.368 . S
C1193 H1217 0.949 . S
H1194 C1198 0.949 . S
C1195 C1196 1.349 . S
C1195 C1197 1.327 . S
C1195 H1218 0.950 . S
C1196 C1195 1.349 . S
C1196 C1208 1.349 . S
C1197 C1195 1.327 . S
C1197 C1213 1.429 . S
C1197 H1219 0.950 . S
C1198 H1194 0.949 . S
C1198 C1206 1.574 . S
C1198 C1214 1.368 . S
H1199 C1207 0.950 . S
H1200 C1205 0.950 . S
H1201 C1206 0.949 . S
H1202 C1208 0.980 . S
H1203 C1209 0.950 . S
H1204 C1210 0.949 . S
C1205 H1200 0.950 . S
C1205 C1207 1.327 . S
C1205 C1211 1.429 . S
C1206 C1198 1.574 . S
C1206 H1201 0.949 . S
C1206 C1212 1.368 . S
C1207 C1191 1.349 . S
C1207 H1199 0.950 . S
C1207 C1205 1.327 . S
C1208 C1196 1.349 . S
C1208 H1202 0.980 . S
C1208 C1209 1.327 . S
C1209 H1203 0.950 . S
C1209 C1208 1.327 . S
C1209 C1213 1.429 . S
C1210 C1193 1.574 . S
C1210 H1204 0.949 . S
C1210 C1214 1.368 . S
C1211 C1192 1.429 . S
C1211 C1205 1.429 . S
C1211 C1212 1.523 . S
C1212 C1193 1.368 . S
C1212 C1206 1.368 . S
C1212 C1211 1.523 . S
C1213 C1197 1.429 . S
C1213 C1209 1.429 . S
C1213 C1214 1.523 . S
C1214 C1198 1.368 . S
C1214 C1210 1.368 . S
C1214 C1213 1.523 . S
H1215 C1190 0.950 . S
H1216 C1192 0.950 . S
H1217 C1193 0.949 . S
H1218 C1195 0.950 . S
H1219 C1197 0.950 . S
C1220 C1221 1.349 . S
C1220 C1222 1.327 . S
C1220 H1245 0.950 . S
C1221 C1220 1.349 . S
C1221 C1237 1.349 . S
C1222 C1220 1.327 . S
C1222 C1241 1.429 . S
C1222 H1246 0.950 . S
C1223 C1240 1.574 . S
C1223 C1242 1.368 . S
C1223 H1247 0.949 . S
H1224 C1228 0.949 . S
C1225 C1226 1.349 . S
C1225 C1227 1.327 . S
C1225 H1248 0.950 . S
C1226 C1225 1.349 . S
C1226 C1238 1.349 . S
C1227 C1225 1.327 . S
C1227 C1243 1.429 . S
C1227 H1249 0.950 . S
C1228 H1224 0.949 . S
C1228 C1236 1.574 . S
C1228 C1244 1.368 . S
H1229 C1237 0.950 . S
H1230 C1235 0.950 . S
H1231 C1236 0.949 . S
H1232 C1238 0.950 . S
H1233 C1239 0.950 . S
H1234 C1240 0.949 . S
C1235 H1230 0.950 . S
C1235 C1237 1.327 . S
C1235 C1241 1.429 . S
C1236 C1228 1.574 . S
C1236 H1231 0.949 . S
C1236 C1242 1.368 . S
C1237 C1221 1.349 . S
C1237 H1229 0.950 . S
C1237 C1235 1.327 . S
C1238 C1226 1.349 . S
C1238 H1232 0.950 . S
C1238 C1239 1.327 . S
C1239 H1233 0.950 . S
C1239 C1238 1.327 . S
C1239 C1243 1.429 . S
C1240 C1223 1.574 . S
C1240 H1234 0.949 . S
C1240 C1244 1.368 . S
C1241 C1222 1.429 . S
C1241 C1235 1.429 . S
C1241 C1242 1.523 . S
C1242 C1223 1.368 . S
C1242 C1236 1.368 . S
C1242 C1241 1.523 . S
C1243 C1227 1.429 . S
C1243 C1239 1.429 . S
C1243 C1244 1.523 . S
C1244 C1228 1.368 . S
C1244 C1240 1.368 . S
C1244 C1243 1.523 . S
H1245 C1220 0.950 . S
H1246 C1222 0.950 . S
H1247 C1223 0.949 . S
H1248 C1225 0.950 . S
H1249 C1227 0.950 . S
C1250 C1251 1.349 . S
C1250 C1252 1.327 . S
C1250 H1275 0.950 . S
C1251 C1250 1.349 . S
C1251 C1267 1.349 . S
C1252 C1250 1.327 . S
C1252 C1271 1.429 . S
C1252 H1276 0.950 . S
C1253 C1270 1.574 . S
C1253 C1272 1.368 . S
C1253 H1277 0.949 . S
H1254 C1258 0.949 . S
C1255 C1256 1.349 . S
C1255 C1257 1.327 . S
C1255 H1278 0.950 . S
C1256 C1255 1.349 . S
C1256 C1268 1.349 . S
C1257 C1255 1.327 . S
C1257 C1273 1.429 . S
C1257 H1279 0.950 . S
C1258 H1254 0.949 . S
C1258 C1266 1.574 . S
C1258 C1274 1.368 . S
H1259 C1267 0.950 . S
H1260 C1265 0.950 . S
H1261 C1266 0.949 . S
H1262 C1268 0.950 . S
H1263 C1269 0.950 . S
H1264 C1270 0.949 . S
C1265 H1260 0.950 . S
C1265 C1267 1.327 . S
C1265 C1271 1.429 . S
C1266 C1258 1.574 . S
C1266 H1261 0.949 . S
C1266 C1272 1.368 . S
C1267 C1251 1.349 . S
C1267 H1259 0.950 . S
C1267 C1265 1.327 . S
C1268 C1256 1.349 . S
C1268 H1262 0.950 . S
C1268 C1269 1.327 . S
C1269 H1263 0.950 . S
C1269 C1268 1.327 . S
C1269 C1273 1.429 . S
C1270 C1253 1.574 . S
C1270 H1264 0.949 . S
C1270 C1274 1.368 . S
C1271 C1252 1.429 . S
C1271 C1265 1.429 . S
C1271 C1272 1.523 . S
C1272 C1253 1.368 . S
C1272 C1266 1.368 . S
C1272 C1271 1.523 . S
C1273 C1257 1.429 . S
C1273 C1269 1.429 . S
C1273 C1274 1.523 . S
C1274 C1258 1.368 . S
C1274 C1270 1.368 . S
C1274 C1273 1.523 . S
H1275 C1250 0.950 . S
H1276 C1252 0.950 . S
H1277 C1253 0.949 . S
H1278 C1255 0.950 . S
H1279 C1257 0.950 . S
C561 C1 1.489 . S
C566 C482 1.548 . S
C591 C80 1.345 . S
C596 C501 1.365 . S
C626 C538 1.728 . S
C621 C140 1.716 . S
C651 C211 1.640 . S
C656 C548 1.626 . S
C686 C518 2.047 . S
C681 C31 1.931 . S
C716 C488 1.443 . S
C711 C61 1.449 . S
C746 C559 1.480 . S
C741 C151 1.484 . S
C776 C529 1.351 . S
C771 C200 1.347 . S
C801 C20 1.758 . S
C806 C542 1.809 . S
C836 C509 1.697 . S
C831 C121 1.723 . S
C861 C181 1.700 . S
C866 C499 1.736 . S
C891 C91 1.209 . S
C896 C521 1.211 . S
C926 C481 1.552 . S
C921 C260 1.495 . S
C951 C320 1.345 . S
C956 C502 1.354 . S
C981 C361 1.724 . S
C986 C539 1.729 . S
C1011 C451 1.640 . S
C1016 C549 1.629 . S
C1041 C271 1.973 . S
C1046 C519 2.052 . S
C1076 C489 1.443 . S
C1071 C301 1.453 . S
C1106 C558 1.480 . S
C1101 C380 1.475 . S
C1136 C528 1.351 . S
C1131 C440 1.347 . S
C1161 C241 1.732 . S
C1166 C541 1.819 . S
C1196 C508 1.697 . S
C1191 C391 1.731 . S
C1226 C498 1.731 . S
C1221 C421 1.695 . S
C1251 C331 1.209 . S
C1256 C522 1.211 . S
