# Generated by pormake.
# Topology tsx, (6,3)-cn, num edge types: 1
# Building blocks:
#     Node 0, Type 0, BuildingBlock: LEVNOQ01_clean_sbu_1, # of connection points: 6
#     Node 1, Type 0, BuildingBlock: LEVNOQ01_clean_sbu_1, # of connection points: 6
#     Node 2, Type 1, BuildingBlock: VETTIZ_charged_linker_0, # of connection points: 3
#     Node 3, Type 1, BuildingBlock: VETTIZ_charged_linker_0, # of connection points: 3
#     Node 4, Type 1, BuildingBlock: VETTIZ_charged_linker_0, # of connection points: 3
#     Node 5, Type 1, BuildingBlock: VETTIZ_charged_linker_0, # of connection points: 3
#     Edge 6, Type (0, 1), BuildingBlock: EZIPEK_clean_linker_0, # of connection points: 2
#     Edge 7, Type (0, 1), BuildingBlock: EZIPEK_clean_linker_0, # of connection points: 2
#     Edge 8, Type (0, 1), BuildingBlock: EZIPEK_clean_linker_0, # of connection points: 2
#     Edge 9, Type (0, 1), BuildingBlock: EZIPEK_clean_linker_0, # of connection points: 2
#     Edge 10, Type (0, 1), BuildingBlock: EZIPEK_clean_linker_0, # of connection points: 2
#     Edge 11, Type (0, 1), BuildingBlock: EZIPEK_clean_linker_0, # of connection points: 2
#     Edge 12, Type (0, 1), BuildingBlock: EZIPEK_clean_linker_0, # of connection points: 2
#     Edge 13, Type (0, 1), BuildingBlock: EZIPEK_clean_linker_0, # of connection points: 2
#     Edge 14, Type (0, 1), BuildingBlock: EZIPEK_clean_linker_0, # of connection points: 2
#     Edge 15, Type (0, 1), BuildingBlock: EZIPEK_clean_linker_0, # of connection points: 2
#     Edge 16, Type (0, 1), BuildingBlock: EZIPEK_clean_linker_0, # of connection points: 2
#     Edge 17, Type (0, 1), BuildingBlock: EZIPEK_clean_linker_0, # of connection points: 2
# Relax obj value: 0.135
# Max RMSD: 0.160
# Mean RMSD: 0.123
data_MOF--net-tsx--node1-LEVNOQ01_clean_sbu_1--node2-VETTIZ_charged_linker_0--edge1-EZIPEK_clean_linker_0
_symmetry_space_group_name_H-M    P1
_symmetry_Int_Tables_number       1
_symmetry_cell_setting            triclinic
loop_
_symmetry_equiv_pos_as_xyz
'x, y, z'
_cell_length_a     17.14014
_cell_length_b     20.599406
_cell_length_c     36.156508
_cell_angle_alpha  97.505445
_cell_angle_beta   90.169061
_cell_angle_gamma 90.573288
loop_
_atom_site_label
_atom_site_type_symbol
_atom_site_fract_x
_atom_site_fract_y
_atom_site_fract_z
_atom_type_partial_charge
O0 O 0.20859 0.02285 0.05573 0.0
Mg1 Mg 0.25102 0.0453 0.00349 0.0
O2 O 0.08027 0.03357 0.04659 0.0
Mg3 Mg 0.07246 0.0446 -0.0148 0.0
O4 O 0.17812 0.11781 -0.00927 0.0
O5 O 0.30493 0.13608 -0.00014 0.0
O6 O 0.07826 0.05339 0.92437 0.0
O7 O 1.00201 0.15046 -0.00072 0.0
Mg8 Mg 0.94014 0.05558 0.9697 0.0
O9 O 0.96606 0.96379 0.97958 0.0
O10 O 0.97075 0.10709 0.92409 0.0
O11 O 0.8936 0.11053 0.01664 0.0
O12 O 0.85859 0.99019 0.95019 0.0
C13 C 0.20834 0.9209 0.96057 0.0
C14 C 0.1383 0.02273 0.06704 0.0
C15 C 0.2369 0.15876 -0.0062 0.0
C16 C 0.03594 0.09239 0.90945 0.0
C17 C 0.93389 0.16073 0.01345 0.0
C18 C 0.89771 0.94718 0.96499 0.0
O19 O 0.26652 0.95977 0.96361 0.0
O20 O 0.14051 0.94261 0.97018 0.0
O21 O 0.7015 0.51784 0.56436 0.0
Mg22 Mg 0.75362 0.54316 0.51459 0.0
O23 O 0.57396 0.52005 0.54993 0.0
Mg24 Mg 0.56809 0.54332 0.49041 0.0
O25 O 0.67452 0.60875 0.49989 0.0
O26 O 0.79579 0.63999 0.51241 0.0
O27 O 0.58521 0.57829 0.43344 0.0
O28 O 0.48762 0.63276 0.50543 0.0
Mg29 Mg 0.46725 0.51329 0.43842 0.0
O30 O 0.45797 0.47094 0.48558 0.0
O31 O 0.55639 0.48852 0.3984 0.0
O32 O 0.42716 0.61123 0.4507 0.0
O33 O 0.37914 0.44669 0.43554 0.0
C34 C 0.7049 0.42368 0.46474 0.0
C35 C 0.62963 0.51156 0.57232 0.0
C36 C 0.72557 0.6555 0.50466 0.0
C37 C 0.59238 0.54258 0.4027 0.0
C38 C 0.43858 0.64812 0.48132 0.0
C39 C 0.39818 0.43958 0.4693 0.0
O40 O 0.76591 0.45784 0.47365 0.0
O41 O 0.6375 0.44793 0.47139 0.0
C42 C 0.1549 0.85356 0.4515 0.0
C43 C 0.2295 0.83023 0.44065 0.0
C44 C 0.26138 0.84686 0.40734 0.0
C45 C 0.14504 0.90715 0.39594 0.0
C46 C 0.11375 0.89264 0.42875 0.0
C47 C 0.045 0.93632 0.4401 0.0
H48 H 0.7809 0.15035 0.36893 0.0
C49 C 0.0922 0.95179 0.37981 0.0
C50 C 0.03512 0.97557 0.40632 0.0
H51 H 0.82415 0.1485 0.48583 0.0
H52 H 0.92602 0.07524 0.47023 0.0
H53 H 0.93587 0.16388 0.35116 0.0
H54 H 0.79362 0.99111 0.34442 0.0
H55 H 0.85469 0.97655 0.30559 0.0
H56 H 0.79046 0.0463 0.31004 0.0
H57 H 0.87037 0.14034 0.31288 0.0
H58 H 0.97113 0.11574 0.31162 0.0
C59 C 0.07313 0.97544 0.47693 0.0
C60 C 0.97251 0.8937 0.44452 0.0
C61 C 0.10865 0.94644 0.23964 0.0
C62 C 0.06242 0.97533 0.2145 0.0
C63 C 0.99256 0.00598 0.22613 0.0
C64 C 0.9709 0.0115 0.26338 0.0
C65 C 0.02051 0.98707 0.28923 0.0
C66 C 0.08692 0.95366 0.2771 0.0
C67 C 0.13324 0.93248 0.30855 0.0
C68 C 0.08331 0.95932 0.34177 0.0
C69 C 0.01836 0.99137 0.33007 0.0
C70 C 0.21506 0.96596 0.30947 0.0
C71 C 0.13511 0.85669 0.30223 0.0
C72 C 0.8049 0.12991 0.39235 0.0
C73 C 0.78588 0.15457 0.42945 0.0
C74 C 0.8303 0.12929 0.45714 0.0
C75 C 0.88986 0.08343 0.44844 0.0
C76 C 0.90562 0.05691 0.41195 0.0
C77 C 0.86299 0.08198 0.38462 0.0
C78 C 0.89421 0.0605 0.34694 0.0
C79 C 0.96422 0.02105 0.35598 0.0
C80 C 0.97182 0.01562 0.39432 0.0
C81 C 0.91877 0.12286 0.32938 0.0
C82 C 0.8302 0.01674 0.32531 0.0
H83 H 0.24981 0.89989 0.36168 0.0
H84 H 0.13086 0.84351 0.47785 0.0
H85 H 0.91948 0.92285 0.44227 0.0
H86 H 0.97284 0.87371 0.47163 0.0
H87 H 0.96891 0.85197 0.4217 0.0
H88 H 0.12855 0.00174 0.47253 0.0
H89 H 0.08359 0.94344 0.49887 0.0
H90 H 0.03157 0.00935 0.48955 0.0
H91 H 0.16306 0.9231 0.23078 0.0
H92 H 0.95652 0.02805 0.20658 0.0
H93 H 0.918 0.03715 0.27047 0.0
H94 H 0.21792 0.00618 0.29174 0.0
H95 H 0.26099 0.93032 0.29943 0.0
H96 H 0.23075 0.98989 0.33785 0.0
H97 H 0.07477 0.83609 0.30095 0.0
H98 H 0.16629 0.83493 0.3241 0.0
H99 H 0.1645 0.83907 0.2755 0.0
H100 H 0.31915 0.8305 0.39859 0.0
C101 C 0.22056 0.88643 0.38562 0.0
C102 C 0.12756 0.25256 0.53748 0.0
C103 C 0.20247 0.27498 0.54957 0.0
C104 C 0.23645 0.25054 0.58017 0.0
C105 C 0.1256 0.17757 0.58353 0.0
C106 C 0.09114 0.20152 0.55403 0.0
C107 C 0.03027 0.15318 0.53605 0.0
H108 H 0.75871 0.92119 0.59006 0.0
C109 C 0.07747 0.12336 0.59368 0.0
C110 C 0.02165 0.10325 0.56533 0.0
H111 H 0.81358 0.93491 0.47542 0.0
H112 H 0.91949 -0.00079 0.49666 0.0
H113 H 0.9162 0.89962 0.60511 0.0
H114 H 0.78401 0.07596 0.6257 0.0
H115 H 0.845 0.07762 0.6647 0.0
H116 H 0.77593 0.01091 0.65394 0.0
H117 H 0.85155 0.91515 0.64413 0.0
H118 H 0.95336 0.93844 0.64739 0.0
C119 C 0.07064 0.1288 0.49833 0.0
C120 C 0.95344 0.18866 0.53154 0.0
C121 C 0.08803 0.10937 0.73137 0.0
C122 C 0.03686 0.08291 0.75536 0.0
C123 C 0.97265 0.04475 0.74126 0.0
C124 C 0.9583 0.03461 0.70294 0.0
C125 C 0.00889 0.06307 0.67881 0.0
C126 C 0.07289 0.09885 0.69329 0.0
C127 C 0.11766 0.12896 0.6645 0.0
C128 C 0.06931 0.10579 0.62988 0.0
C129 C 0.00649 0.06717 0.63841 0.0
C130 C 0.20053 0.09863 0.66217 0.0
C131 C 0.11585 0.20453 0.67616 0.0
C132 C 0.78545 0.94468 0.56826 0.0
C133 C 0.76875 0.92368 0.53021 0.0
C134 C 0.81644 0.95166 0.5047 0.0
C135 C 0.87761 0.99551 0.51648 0.0
C136 C 0.8906 0.01997 0.55374 0.0
C137 C 0.84553 0.99108 0.57895 0.0
C138 C 0.87908 0.00333 0.61709 0.0
C139 C 0.95134 0.04345 0.61085 0.0
C140 C 0.95888 0.05766 0.57375 0.0
C141 C 0.90078 0.93602 0.62945 0.0
C142 C 0.81815 0.04358 0.64194 0.0
H143 H 0.23003 0.18255 0.6186 0.0
H144 H 0.10181 0.26988 0.51323 0.0
H145 H 0.90477 0.153 0.53056 0.0
H146 H 0.95325 0.21337 0.50599 0.0
H147 H 0.94252 0.22598 0.55604 0.0
H148 H 0.12477 0.10206 0.50334 0.0
H149 H 0.08826 0.16951 0.4828 0.0
H150 H 0.03587 0.102 0.47672 0.0
H151 H 0.13751 0.13919 0.74222 0.0
H152 H 0.9329 0.0242 0.75999 0.0
H153 H 0.90741 0.00624 0.69398 0.0
H154 H 0.20281 0.05203 0.67463 0.0
H155 H 0.24452 0.13245 0.67707 0.0
H156 H 0.21949 0.08484 0.6329 0.0
H157 H 0.05881 0.21989 0.68893 0.0
H158 H 0.12193 0.23403 0.65316 0.0
H159 H 0.16205 0.22043 0.69709 0.0
H160 H 0.29395 0.2672 0.59 0.0
C161 C 0.19939 0.20104 0.59652 0.0
C162 C 0.65945 0.3596 0.96003 0.0
C163 C 0.73369 0.33389 0.94926 0.0
C164 C 0.75924 0.33839 0.9126 0.0
C165 C 0.63861 0.39057 0.89811 0.0
C166 C 0.61222 0.38601 0.93369 0.0
C167 C 0.53085 0.41377 0.93881 0.0
H168 H 0.24319 0.60425 0.87802 0.0
C169 C 0.57802 0.42382 0.87831 0.0
C170 C 0.5215 0.44837 0.90409 0.0
H171 H 0.41654 0.68787 0.95603 0.0
H172 H 0.49353 0.58665 0.94132 0.0
H173 H 0.40194 0.61007 0.83949 0.0
H174 H 0.27719 0.43361 0.85764 0.0
H175 H 0.30955 0.42749 0.8109 0.0
H176 H 0.2405 0.48986 0.82786 0.0
H177 H 0.31557 0.58341 0.81305 0.0
H178 H 0.41122 0.55521 0.79958 0.0
C179 C 0.52472 0.45846 0.97532 0.0
C180 C 0.47119 0.35718 0.93749 0.0
C181 C 0.59024 0.41856 0.73879 0.0
C182 C 0.53766 0.44028 0.71353 0.0
C183 C 0.45991 0.45333 0.72393 0.0
C184 C 0.43633 0.45006 0.76054 0.0
C185 C 0.49256 0.43796 0.78693 0.0
C186 C 0.56673 0.41873 0.77562 0.0
C187 C 0.61728 0.40434 0.80735 0.0
C188 C 0.56312 0.42341 0.83983 0.0
C189 C 0.49047 0.44446 0.8277 0.0
C190 C 0.6909 0.44916 0.8094 0.0
C191 C 0.63461 0.33011 0.80134 0.0
C192 C 0.29345 0.59885 0.89554 0.0
C193 C 0.31838 0.65207 0.92185 0.0
C194 C 0.39071 0.64566 0.93963 0.0
C195 C 0.43341 0.58703 0.93352 0.0
C196 C 0.4047 0.53282 0.91037 0.0
C197 C 0.34259 0.54356 0.8873 0.0
C198 C 0.36023 0.51131 0.84806 0.0
C199 C 0.43613 0.47512 0.8538 0.0
C200 C 0.4548 0.48085 0.8915 0.0
C201 C 0.37225 0.56707 0.82338 0.0
C202 C 0.29322 0.46314 0.83508 0.0
H203 H 0.73787 0.37217 0.86062 0.0
H204 H 0.63829 0.35784 -0.01193 0.0
H205 H 0.41156 0.37722 0.93975 0.0
H206 H 0.4808 0.32796 0.96084 0.0
H207 H 0.47516 0.32378 0.91079 0.0
H208 H 0.57438 0.49335 0.97745 0.0
H209 H 0.52678 0.43054 -0.00038 0.0
H210 H 0.46834 0.48361 0.97575 0.0
H211 H 0.64991 0.40715 0.73074 0.0
H212 H 0.41861 0.46861 0.70411 0.0
H213 H 0.37677 0.46123 0.76759 0.0
H214 H 0.67734 0.49738 0.80031 0.0
H215 H 0.73799 0.42657 0.79116 0.0
H216 H 0.71385 0.46121 0.83812 0.0
H217 H 0.58143 0.30144 0.79152 0.0
H218 H 0.65254 0.31059 0.82693 0.0
H219 H 0.68062 0.31888 0.77995 0.0
H220 H 0.81564 0.31933 0.90341 0.0
C221 C 0.71345 0.36816 0.88754 0.0
C222 C 0.64447 0.74022 0.02635 0.0
C223 C 0.71263 0.77384 0.04003 0.0
C224 C 0.73323 0.77343 0.07769 0.0
C225 C 0.62106 0.70373 0.0864 0.0
C226 C 0.59876 0.707 0.05026 0.0
C227 C 0.5279 0.66503 0.0396 0.0
H228 H 0.3227 0.39352 0.07737 0.0
C229 C 0.56692 0.65737 0.10166 0.0
C230 C 0.51193 0.63278 0.07425 0.0
H231 H 0.28843 0.49434 0.98078 0.0
H232 H 0.37431 0.58044 0.00743 0.0
H233 H 0.48834 0.41466 0.09967 0.0
H234 H 0.29173 0.53938 0.12695 0.0
H235 H 0.35181 0.54932 0.16658 0.0
H236 H 0.31018 0.46957 0.15038 0.0
H237 H 0.41294 0.39674 0.13132 0.0
H238 H 0.49682 0.44544 0.14724 0.0
C239 C 0.55156 0.61474 0.00756 0.0
C240 C 0.4606 0.70941 0.03077 0.0
C241 C 0.61368 0.61341 0.23298 0.0
C242 C 0.57431 0.57493 0.25591 0.0
C243 C 0.51109 0.5349 0.24219 0.0
C244 C 0.48683 0.53361 0.20517 0.0
C245 C 0.52659 0.57286 0.18221 0.0
C246 C 0.58827 0.6122 0.19645 0.0
C247 C 0.62153 0.65274 0.16896 0.0
C248 C 0.56741 0.63354 0.1363 0.0
C249 C 0.51382 0.58516 0.14356 0.0
C250 C 0.70639 0.62962 0.16042 0.0
C251 C 0.61363 0.72604 0.18509 0.0
C252 C 0.33367 0.43302 0.06099 0.0
C253 C 0.30072 0.43137 0.02497 0.0
C254 C 0.31586 0.4875 0.00662 0.0
C255 C 0.36591 0.53938 0.02245 0.0
C256 C 0.40233 0.53647 0.05705 0.0
C257 C 0.38064 0.48597 0.07664 0.0
C258 C 0.4092 0.49708 0.11618 0.0
C259 C 0.46202 0.55639 0.11537 0.0
C260 C 0.45872 0.5806 0.08077 0.0
C261 C 0.45394 0.43543 0.12439 0.0
C262 C 0.33742 0.51422 0.1416 0.0
H263 H 0.70923 0.73805 0.12876 0.0
H264 H 0.62749 0.73979 -0.00255 0.0
H265 H 0.40645 0.68142 0.02321 0.0
H266 H 0.47688 0.73749 0.0077 0.0
H267 H 0.44742 0.74548 0.05554 0.0
H268 H 0.6017 0.58577 0.01582 0.0
H269 H 0.56932 0.63824 -0.01704 0.0
H270 H 0.50207 0.58204 0.00069 0.0
H271 H 0.66214 0.64472 0.24355 0.0
H272 H 0.48054 0.50514 0.2602 0.0
H273 H 0.43874 0.50192 0.19584 0.0
H274 H 0.71324 0.57689 0.16348 0.0
H275 H 0.74881 0.65775 0.17969 0.0
H276 H 0.72385 0.63292 0.1313 0.0
H277 H 0.56035 0.73418 0.20253 0.0
H278 H 0.60652 0.75851 0.16331 0.0
H279 H 0.66458 0.7432 0.20291 0.0
H280 H 0.785 0.79948 0.08903 0.0
C281 C 0.68858 0.73794 0.10075 0.0
C282 C 0.2585 0.2658 0.96758 0.0
C283 C 0.22753 0.2317 -0.00398 0.0
C284 C 0.20697 0.33805 0.03468 0.0
C285 C 0.25205 0.37037 0.00943 0.0
N286 N 0.26448 0.3689 0.94279 0.0
N287 N 0.16784 0.23588 0.05653 0.0
C288 C 0.26259 0.33583 0.97302 0.0
C289 C 0.19853 0.26819 0.02916 0.0
N290 N 0.28494 0.23131 0.93532 0.0
N291 N 0.17003 0.37524 0.06326 0.0
H292 H 0.15814 0.18541 0.05304 0.0
H293 H 0.15529 0.25849 0.08327 0.0
H294 H 0.17323 0.42634 0.06644 0.0
H295 H 0.13056 0.35647 0.08106 0.0
H296 H 0.31686 0.25285 0.91556 0.0
H297 H 0.27835 0.18059 0.92937 0.0
H298 H 0.26692 0.34578 0.91542 0.0
H299 H 0.2487 0.41757 0.94434 0.0
C300 C 0.23769 0.82497 0.91101 0.0
C301 C 0.22148 0.84864 0.94889 0.0
C302 C 0.24816 0.7384 0.96598 0.0
C303 C 0.27512 0.71697 0.92922 0.0
N304 N 0.28522 0.7372 0.86508 0.0
N305 N 0.21363 0.82894 0.01297 0.0
C306 C 0.266 0.75935 0.90113 0.0
C307 C 0.22618 0.80525 0.97638 0.0
N308 N 0.2285 0.86664 0.8848 0.0
N309 N 0.24118 0.69383 -0.00928 0.0
H310 H 0.19632 0.87687 0.02163 0.0
H311 H 0.22523 0.80278 0.03508 0.0
H312 H 0.25481 0.6445 -0.01622 0.0
H313 H 0.21487 0.70382 0.01671 0.0
H314 H 0.24304 0.85617 0.85682 0.0
H315 H 0.20528 0.9134 0.89117 0.0
H316 H 0.27419 0.7618 0.84235 0.0
H317 H 0.31216 0.69271 0.85726 0.0
C318 C 0.89165 0.83795 -0.00829 0.0
C319 C 0.85587 0.88558 0.97234 0.0
C320 C 0.72789 0.85525 -0.00598 0.0
C321 C 0.76223 0.80945 0.01504 0.0
N322 N 0.87337 0.74101 0.0227 0.0
N323 N 0.73955 0.9039 0.93731 0.0
C324 C 0.84343 0.79576 0.0106 0.0
C325 C 0.77376 0.88259 0.96757 0.0
N326 N 0.97082 0.83175 -0.00885 0.0
N327 N 0.65306 0.87583 0.0004 0.0
H328 H 0.77235 0.91666 0.91502 0.0
H329 H 0.67972 0.89926 0.93208 0.0
H330 H 0.61869 0.8617 0.02176 0.0
H331 H 0.62881 0.91294 -0.01287 0.0
H332 H 1.00135 0.80471 0.00874 0.0
H333 H 0.00575 0.85338 0.97249 0.0
H334 H 0.93039 0.72545 0.01761 0.0
H335 H 0.83885 0.70736 0.03462 0.0
C336 C 0.80822 0.22216 0.0188 0.0
C337 C 0.88964 0.22368 0.01201 0.0
C338 C 0.86645 0.31923 0.97917 0.0
C339 C 0.78564 0.30161 0.97528 0.0
N340 N 0.68302 0.22638 -0.01081 0.0
N341 N 0.99828 0.28595 -0.00734 0.0
C342 C 0.75683 0.25119 -0.00492 0.0
C343 C 0.91967 0.27638 -0.00554 0.0
N344 N 0.78002 0.19168 0.04734 0.0
N345 N 0.89157 0.37787 0.9696 0.0
H346 H 0.03717 0.26245 0.00854 0.0
H347 H 0.02429 0.31728 0.9758 0.0
H348 H 0.8533 0.4117 0.96059 0.0
H349 H 0.94821 0.39585 0.97434 0.0
H350 H 0.72111 0.1924 0.05456 0.0
H351 H 0.81732 0.17319 0.06625 0.0
H352 H 0.66305 0.18598 0.0012 0.0
H353 H 0.6453 0.24038 0.96912 0.0
C354 C 0.67594 0.76048 0.53967 0.0
C355 C 0.70468 0.72565 0.50603 0.0
C356 C 0.71954 0.82975 0.48099 0.0
C357 C 0.71741 0.86315 0.51791 0.0
N358 N 0.63425 0.86581 0.57124 0.0
N359 N 0.74248 0.7269 0.44198 0.0
C360 C 0.67723 0.83029 0.54429 0.0
C361 C 0.72208 0.76015 0.47561 0.0
N362 N 0.65092 0.72715 0.5677 0.0
N363 N 0.70743 0.86356 0.45157 0.0
H364 H 0.74132 0.67582 0.43681 0.0
H365 H 0.76312 0.75038 0.42003 0.0
H366 H 0.69315 0.91317 0.45577 0.0
H367 H 0.70147 0.84092 0.42417 0.0
H368 H 0.63823 0.74994 0.59441 0.0
H369 H 0.64546 0.67625 0.56434 0.0
H370 H 0.59791 0.84479 0.58953 0.0
H371 H 0.62896 0.91648 0.57208 0.0
C372 C 0.69512 0.31881 0.41908 0.0
C373 C 0.71103 0.35108 0.45559 0.0
C374 C 0.7245 0.24344 0.47677 0.0
C375 C 0.73387 0.2145 0.43933 0.0
N376 N 0.66376 0.21517 0.38188 0.0
N377 N 0.73316 0.34183 0.52088 0.0
C378 C 0.70096 0.24922 0.4118 0.0
C379 C 0.723 0.3127 0.48502 0.0
N380 N 0.67506 0.35433 0.39136 0.0
N381 N 0.70501 0.20496 0.50334 0.0
H382 H 0.72989 0.39228 0.52864 0.0
H383 H 0.74946 0.31568 0.54245 0.0
H384 H 0.69494 0.15472 0.4964 0.0
H385 H 0.68957 0.22382 0.53047 0.0
H386 H 0.67194 0.33463 0.36334 0.0
H387 H 0.66474 0.40426 0.39664 0.0
H388 H 0.63242 0.23726 0.36227 0.0
H389 H 0.65553 0.16452 0.37997 0.0
C390 C 0.27184 0.41886 0.50075 0.0
C391 C 0.34831 0.39805 0.49009 0.0
C392 C 0.3228 0.29293 0.51233 0.0
C393 C 0.25048 0.3169 0.52757 0.0
N394 N 0.16141 0.40679 0.54107 0.0
N395 N 0.45136 0.31922 0.49051 0.0
C396 C 0.22613 0.38094 0.52293 0.0
C397 C 0.3755 0.33647 0.4976 0.0
N398 N 0.24262 0.47472 0.48961 0.0
N399 N 0.33929 0.22771 0.50997 0.0
H400 H 0.491 0.34857 0.47822 0.0
H401 H 0.47649 0.27814 0.49951 0.0
H402 H 0.30012 0.19328 0.51815 0.0
H403 H 0.38782 0.20666 0.49607 0.0
H404 H 0.18431 0.48804 0.49274 0.0
H405 H 0.27511 0.5055 0.47472 0.0
H406 H 0.14545 0.45559 0.54184 0.0
H407 H 0.1273 0.3812 0.55824 0.0
C408 C 0.41149 0.76763 0.48284 0.0
C409 C 0.38601 0.70458 0.48896 0.0
C410 C 0.25224 0.72934 0.47267 0.0
C411 C 0.27785 0.79162 0.46431 0.0
N412 N 0.37413 0.87844 0.47537 0.0
N413 N 0.28085 0.63641 0.50516 0.0
C414 C 0.35508 0.81373 0.47432 0.0
C415 C 0.30544 0.68992 0.48967 0.0
N416 N 0.48942 0.7819 0.4829 0.0
N417 N 0.18037 0.70489 0.46144 0.0
H418 H 0.32007 0.60717 0.51755 0.0
H419 H 0.22218 0.62558 0.50912 0.0
H420 H 0.14054 0.73 0.44699 0.0
H421 H 0.16291 0.65693 0.46356 0.0
H422 H 0.51235 0.8245 0.47432 0.0
H423 H 0.53119 0.74921 0.49014 0.0
H424 H 0.42786 0.89808 0.48493 0.0
H425 H 0.33303 0.9133 0.47026 0.0
C426 C 0.07948 0.95062 0.10968 0.0
C427 C 0.12352 0.00757 0.10478 0.0
C428 C 0.14185 0.03369 0.17199 0.0
C429 C 0.09053 0.98111 0.17692 0.0
N430 N 0.00642 0.8914 0.15207 0.0
N431 N 0.19014 0.10741 0.13026 0.0
C432 C 0.05844 0.93979 0.1462 0.0
C433 C 0.15393 0.04986 0.13563 0.0
N434 N 0.06 0.90604 0.07953 0.0
N435 N 0.17826 0.06854 0.20212 0.0
H436 H 0.19959 0.12154 0.10398 0.0
H437 H 0.20545 0.14391 0.1518 0.0
H438 H 0.16759 0.06102 0.22961 0.0
H439 H 0.22343 0.10194 0.1999 0.0
H440 H 0.03516 0.86036 0.08163 0.0
H441 H 0.07413 0.91234 0.0522 0.0
H442 H 0.97327 0.86503 0.13096 0.0
H443 H 0.99319 0.87976 0.1786 0.0
C444 C 0.11731 0.07842 0.85183 0.0
C445 C 0.05682 0.11164 0.87272 0.0
C446 C 1.00169 0.1457 0.81637 0.0
C447 C 0.04897 0.09795 0.79555 0.0
N448 N 0.1537 0.01957 0.79242 0.0
N449 N 0.97206 0.20444 0.87743 0.0
C450 C 0.10852 0.06534 0.81284 0.0
C451 C 0.00801 0.15422 0.85578 0.0
N452 N 0.18438 0.06292 0.869 0.0
N453 N 0.94966 0.18087 0.79847 0.0
H454 H 0.98354 0.21491 0.90598 0.0
H455 H 0.93839 0.23974 0.86702 0.0
H456 H 0.94673 0.17804 0.76948 0.0
H457 H 0.90782 0.21141 0.81207 0.0
H458 H 0.2325 0.04228 0.85455 0.0
H459 H 0.19599 0.07969 0.89698 0.0
H460 H 0.19165 0.98917 0.80456 0.0
H461 H 0.14918 0.00843 0.76351 0.0
C462 C 0.6274 0.53482 0.64142 0.0
C463 C 0.61007 0.49175 0.60853 0.0
C464 C 0.54682 0.41385 0.64454 0.0
C465 C 0.56578 0.45612 0.67748 0.0
N466 N 0.6322 0.55223 0.70884 0.0
N467 N 0.56697 0.38611 0.57808 0.0
C468 C 0.60903 0.51506 0.67641 0.0
C469 C 0.57345 0.43003 0.60983 0.0
N470 N 0.65752 0.59595 0.63904 0.0
N471 N 0.5025 0.35881 0.64652 0.0
H472 H 0.58589 0.39622 0.55203 0.0
H473 H 0.54844 0.33778 0.57777 0.0
H474 H 0.48613 0.34319 0.67171 0.0
H475 H 0.47827 0.33035 0.62334 0.0
H476 H 0.66284 0.63263 0.66161 0.0
H477 H 0.67252 0.61219 0.61387 0.0
H478 H 0.67287 0.59031 0.70993 0.0
H479 H 0.61438 0.54308 0.73521 0.0
C480 C 0.58494 0.62654 0.35955 0.0
C481 C 0.62107 0.57018 0.36981 0.0
C482 C 0.65057 0.53079 0.30527 0.0
C483 C 0.59844 0.57823 0.29482 0.0
N484 N 0.51996 0.67476 0.31041 0.0
N485 N 0.72064 0.49085 0.35618 0.0
C486 C 0.56813 0.62826 0.32143 0.0
C487 C 0.6646 0.52917 0.34364 0.0
N488 N 0.56885 0.67835 0.38592 0.0
N489 N 0.68303 0.48588 0.27871 0.0
H490 H 0.73388 0.49434 0.38461 0.0
H491 H 0.75829 0.46151 0.33893 0.0
H492 H 0.67538 0.48719 0.25017 0.0
H493 H 0.71513 0.44598 0.28481 0.0
H494 H 0.54698 0.72264 0.3797 0.0
H495 H 0.5872 0.6805 0.41353 0.0
H496 H 0.48868 0.70759 0.32891 0.0
H497 H 0.50752 0.67828 0.28248 0.0
loop_
_geom_bond_atom_site_label_1
_geom_bond_atom_site_label_2
_geom_bond_distance
_geom_bond_site_symmetry_2
_ccdc_geom_bond_type
O0 Mg1 1.990 . S
O0 C14 1.253 . S
Mg1 O0 1.990 . S
Mg1 O4 2.180 . S
Mg1 O5 2.117 . S
Mg1 O19 2.030 1_545 S
O2 Mg3 2.072 1_554 S
O2 C14 1.260 . S
Mg3 O2 2.072 1_556 S
Mg3 O4 2.099 1_556 S
Mg3 O6 2.079 . S
Mg3 O7 2.072 1_456 S
Mg3 O9 2.099 1_445 S
Mg3 O20 2.079 1_545 S
O4 Mg1 2.180 . S
O4 Mg3 2.099 1_554 S
O4 C15 1.279 . S
O5 Mg1 2.117 . S
O5 C15 1.250 . S
O6 Mg3 2.079 . S
O6 C16 1.264 . S
O7 Mg3 2.072 1_654 S
O7 C17 1.260 1_554 S
Mg8 O9 2.180 1_545 S
Mg8 O10 2.030 . S
Mg8 O11 1.990 . S
Mg8 O12 2.117 1_545 S
O9 Mg3 2.099 1_665 S
O9 Mg8 2.180 1_565 S
O9 C18 1.280 . S
O10 Mg8 2.030 . S
O10 C16 1.248 1_655 S
O11 Mg8 1.990 . S
O11 C17 1.253 . S
O12 Mg8 2.117 1_565 S
O12 C18 1.251 . S
C13 O19 1.248 . S
C13 O20 1.264 1_554 S
C14 O0 1.253 . S
C14 O2 1.260 . S
C15 O4 1.279 . S
C15 O5 1.250 . S
C16 O6 1.264 . S
C16 O10 1.248 1_455 S
C17 O7 1.260 1_556 S
C17 O11 1.253 . S
C18 O9 1.280 . S
C18 O12 1.251 . S
O19 Mg1 2.030 1_565 S
O19 C13 1.248 . S
O20 Mg3 2.079 1_565 S
O20 C13 1.264 1_556 S
O21 Mg22 1.990 . S
O21 C35 1.253 . S
Mg22 O21 1.990 . S
Mg22 O25 2.180 . S
Mg22 O26 2.117 . S
Mg22 O40 2.030 . S
O23 Mg24 2.072 . S
O23 C35 1.260 . S
Mg24 O23 2.072 . S
Mg24 O25 2.099 . S
Mg24 O27 2.079 . S
Mg24 O28 2.072 . S
Mg24 O30 2.099 . S
Mg24 O41 2.079 . S
O25 Mg22 2.180 . S
O25 Mg24 2.099 . S
O25 C36 1.279 . S
O26 Mg22 2.117 . S
O26 C36 1.250 . S
O27 Mg24 2.079 . S
O27 C37 1.264 . S
O28 Mg24 2.072 . S
O28 C38 1.260 . S
Mg29 O30 2.180 . S
Mg29 O31 2.030 . S
Mg29 O32 1.990 . S
Mg29 O33 2.117 . S
O30 Mg24 2.099 . S
O30 Mg29 2.180 . S
O30 C39 1.279 . S
O31 Mg29 2.030 . S
O31 C37 1.248 . S
O32 Mg29 1.990 . S
O32 C38 1.253 . S
O33 Mg29 2.117 . S
O33 C39 1.250 . S
C34 O40 1.248 . S
C34 O41 1.264 . S
C35 O21 1.253 . S
C35 O23 1.260 . S
C36 O25 1.279 . S
C36 O26 1.250 . S
C37 O27 1.264 . S
C37 O31 1.248 . S
C38 O28 1.260 . S
C38 O32 1.253 . S
C39 O30 1.279 . S
C39 O33 1.250 . S
O40 Mg22 2.030 . S
O40 C34 1.248 . S
O41 Mg24 2.079 . S
O41 C34 1.264 . S
C42 C43 1.391 . S
C42 C46 1.391 . S
C42 H84 0.948 . S
C43 C42 1.391 . S
C43 C44 1.391 . S
C44 C43 1.391 . S
C44 H100 0.947 . S
C44 C101 1.392 . S
C45 C46 1.391 . S
C45 C49 1.397 . S
C45 C101 1.419 . S
C46 C42 1.391 . S
C46 C45 1.391 . S
C46 C47 1.399 . S
C47 C46 1.399 . S
C47 C50 1.396 . S
C47 C59 1.453 1_565 S
C47 C60 1.684 . S
H48 C72 0.948 . S
C49 C45 1.397 . S
C49 C50 1.394 . S
C49 C68 1.723 . S
C50 C47 1.396 . S
C50 C49 1.394 . S
C50 C80 1.723 1_565 S
H51 C74 0.947 . S
H52 C75 0.948 . S
H53 C81 0.982 1_455 S
H54 C82 0.979 . S
H55 C82 0.980 . S
H56 C82 0.983 . S
H57 C81 0.979 . S
H58 C81 0.977 . S
C59 C47 1.453 1_545 S
C59 H88 0.982 . S
C59 H89 0.979 1_545 S
C59 H90 0.977 . S
C60 C47 1.684 . S
C60 H85 0.979 1_455 S
C60 H86 0.980 1_455 S
C60 H87 0.983 . S
C61 C62 1.391 . S
C61 C66 1.391 . S
C61 H91 0.948 . S
C62 C61 1.391 . S
C62 C63 1.391 1_465 S
C63 C62 1.391 1_645 S
C63 C64 1.392 . S
C63 H92 0.947 . S
C64 C63 1.392 . S
C64 C65 1.419 1_655 S
C64 H93 0.948 . S
C65 C64 1.419 1_455 S
C65 C66 1.391 1_545 S
C65 C69 1.397 . S
C66 C61 1.391 . S
C66 C65 1.391 1_565 S
C66 C67 1.399 . S
C67 C66 1.399 . S
C67 C68 1.396 . S
C67 C70 1.453 . S
C67 C71 1.684 . S
C68 C49 1.723 . S
C68 C67 1.396 . S
C68 C69 1.394 1_565 S
C69 C65 1.397 . S
C69 C68 1.394 1_545 S
C69 C79 1.723 1_455 S
C70 C67 1.453 . S
C70 H94 0.982 . S
C70 H95 0.979 . S
C70 H96 0.977 . S
C71 C67 1.684 . S
C71 H97 0.979 . S
C71 H98 0.980 . S
C71 H99 0.983 . S
C72 H48 0.948 . S
C72 C73 1.391 . S
C72 C77 1.391 . S
C73 C72 1.391 . S
C73 C74 1.391 . S
C74 H51 0.947 . S
C74 C73 1.391 . S
C74 C75 1.392 . S
C75 H52 0.948 . S
C75 C74 1.392 . S
C75 C76 1.419 . S
C76 C75 1.419 . S
C76 C77 1.391 . S
C76 C80 1.397 1_655 S
C77 C72 1.391 . S
C77 C76 1.391 . S
C77 C78 1.399 . S
C78 C77 1.399 . S
C78 C79 1.396 . S
C78 C81 1.453 . S
C78 C82 1.684 . S
C79 C69 1.723 1_655 S
C79 C78 1.396 . S
C79 C80 1.394 1_655 S
C80 C50 1.723 1_545 S
C80 C76 1.397 1_455 S
C80 C79 1.394 1_455 S
C81 H53 0.982 1_655 S
C81 H57 0.979 . S
C81 H58 0.977 . S
C81 C78 1.453 . S
C82 H54 0.979 . S
C82 H55 0.980 . S
C82 H56 0.983 . S
C82 C78 1.684 . S
H83 C101 0.948 . S
H84 C42 0.948 . S
H85 C60 0.979 1_655 S
H86 C60 0.980 1_655 S
H87 C60 0.983 . S
H88 C59 0.982 . S
H89 C59 0.979 1_565 S
H90 C59 0.977 . S
H91 C61 0.948 . S
H92 C63 0.947 . S
H93 C64 0.948 . S
H94 C70 0.982 . S
H95 C70 0.979 . S
H96 C70 0.977 . S
H97 C71 0.979 . S
H98 C71 0.980 . S
H99 C71 0.983 . S
H100 C44 0.947 . S
C101 C44 1.392 . S
C101 C45 1.419 . S
C101 H83 0.948 . S
C102 C103 1.391 . S
C102 C106 1.391 . S
C102 H144 0.948 . S
C103 C102 1.391 . S
C103 C104 1.391 . S
C104 C103 1.391 . S
C104 H160 0.947 . S
C104 C161 1.392 . S
C105 C106 1.391 . S
C105 C109 1.397 . S
C105 C161 1.419 . S
C106 C102 1.391 . S
C106 C105 1.391 . S
C106 C107 1.399 . S
C107 C106 1.399 . S
C107 C110 1.396 . S
C107 C119 1.453 . S
C107 C120 1.684 1_455 S
H108 C132 0.948 . S
C109 C105 1.397 . S
C109 C110 1.394 . S
C109 C128 1.723 . S
C110 C107 1.396 . S
C110 C109 1.394 . S
C110 C140 1.723 1_455 S
H111 C134 0.947 . S
H112 C135 0.948 1_545 S
H113 C141 0.982 . S
H114 C142 0.979 1_545 S
H115 C142 0.980 . S
H116 C142 0.983 . S
H117 C141 0.979 . S
H118 C141 0.977 . S
C119 C107 1.453 . S
C119 H148 0.982 . S
C119 H149 0.979 . S
C119 H150 0.977 . S
C120 C107 1.684 1_655 S
C120 H145 0.979 . S
C120 H146 0.980 . S
C120 H147 0.983 . S
C121 C122 1.391 1_455 S
C121 C126 1.391 . S
C121 H151 0.948 . S
C122 C121 1.391 1_655 S
C122 C123 1.391 . S
C123 C122 1.391 . S
C123 C124 1.392 . S
C123 H152 0.947 . S
C124 C123 1.392 . S
C124 C125 1.419 . S
C124 H153 0.948 . S
C125 C124 1.419 . S
C125 C126 1.391 1_655 S
C125 C129 1.397 . S
C126 C121 1.391 . S
C126 C125 1.391 1_455 S
C126 C127 1.399 . S
C127 C126 1.399 . S
C127 C128 1.396 . S
C127 C130 1.453 . S
C127 C131 1.684 . S
C128 C109 1.723 . S
C128 C127 1.396 . S
C128 C129 1.394 1_455 S
C129 C125 1.397 . S
C129 C128 1.394 1_655 S
C129 C139 1.723 . S
C130 C127 1.453 . S
C130 H154 0.982 . S
C130 H155 0.979 . S
C130 H156 0.977 . S
C131 C127 1.684 . S
C131 H157 0.979 . S
C131 H158 0.980 . S
C131 H159 0.983 . S
C132 H108 0.948 . S
C132 C133 1.391 . S
C132 C137 1.391 . S
C133 C132 1.391 . S
C133 C134 1.391 . S
C134 H111 0.947 . S
C134 C133 1.391 . S
C134 C135 1.392 . S
C135 H112 0.948 1_565 S
C135 C134 1.392 . S
C135 C136 1.419 . S
C136 C135 1.419 . S
C136 C137 1.391 . S
C136 C140 1.397 1_565 S
C137 C132 1.391 . S
C137 C136 1.391 . S
C137 C138 1.399 . S
C138 C137 1.399 . S
C138 C139 1.396 1_565 S
C138 C141 1.453 . S
C138 C142 1.684 . S
C139 C129 1.723 . S
C139 C138 1.396 1_545 S
C139 C140 1.394 . S
C140 C110 1.723 1_655 S
C140 C136 1.397 1_545 S
C140 C139 1.394 . S
C141 H113 0.982 . S
C141 H117 0.979 . S
C141 H118 0.977 . S
C141 C138 1.453 . S
C142 H114 0.979 1_565 S
C142 H115 0.980 . S
C142 H116 0.983 . S
C142 C138 1.684 . S
H143 C161 0.948 . S
H144 C102 0.948 . S
H145 C120 0.979 . S
H146 C120 0.980 . S
H147 C120 0.983 . S
H148 C119 0.982 . S
H149 C119 0.979 . S
H150 C119 0.977 . S
H151 C121 0.948 . S
H152 C123 0.947 . S
H153 C124 0.948 . S
H154 C130 0.982 . S
H155 C130 0.979 . S
H156 C130 0.977 . S
H157 C131 0.979 . S
H158 C131 0.980 . S
H159 C131 0.983 . S
H160 C104 0.947 . S
C161 C104 1.392 . S
C161 C105 1.419 . S
C161 H143 0.948 . S
C162 C163 1.390 1_554 S
C162 C166 1.390 1_554 S
C162 H204 0.950 . S
C163 C162 1.390 1_556 S
C163 C164 1.391 . S
C164 C163 1.391 . S
C164 H220 0.947 . S
C164 C221 1.392 . S
C165 C166 1.391 . S
C165 C169 1.397 . S
C165 C221 1.419 . S
C166 C162 1.390 1_556 S
C166 C165 1.391 . S
C166 C167 1.399 . S
C167 C166 1.399 . S
C167 C170 1.396 . S
C167 C179 1.453 1_556 S
C167 C180 1.684 1_556 S
H168 C192 0.948 . S
C169 C165 1.397 . S
C169 C170 1.394 . S
C169 C188 1.723 . S
C170 C167 1.396 . S
C170 C169 1.394 . S
C170 C200 1.723 . S
H171 C194 0.947 . S
H172 C195 0.948 . S
H173 C201 0.982 . S
H174 C202 0.979 . S
H175 C202 0.980 . S
H176 C202 0.983 . S
H177 C201 0.979 . S
H178 C201 0.977 . S
C179 C167 1.453 1_554 S
C179 H208 0.982 . S
C179 H209 0.979 . S
C179 H210 0.977 . S
C180 C167 1.684 1_554 S
C180 H205 0.979 . S
C180 H206 0.980 . S
C180 H207 0.983 . S
C181 C182 1.391 . S
C181 C186 1.391 . S
C181 H211 0.948 . S
C182 C181 1.391 . S
C182 C183 1.391 . S
C183 C182 1.391 . S
C183 C184 1.392 . S
C183 H212 0.947 . S
C184 C183 1.392 . S
C184 C185 1.419 . S
C184 H213 0.948 . S
C185 C184 1.419 . S
C185 C186 1.391 . S
C185 C189 1.397 . S
C186 C181 1.391 . S
C186 C185 1.391 . S
C186 C187 1.399 . S
C187 C186 1.399 . S
C187 C188 1.396 . S
C187 C190 1.453 . S
C187 C191 1.684 . S
C188 C169 1.723 . S
C188 C187 1.396 . S
C188 C189 1.394 . S
C189 C185 1.397 . S
C189 C188 1.394 . S
C189 C199 1.723 . S
C190 C187 1.453 . S
C190 H214 0.982 . S
C190 H215 0.979 . S
C190 H216 0.977 . S
C191 C187 1.684 . S
C191 H217 0.979 . S
C191 H218 0.980 . S
C191 H219 0.983 . S
C192 H168 0.948 . S
C192 C193 1.391 1_556 S
C192 C197 1.391 . S
C193 C192 1.391 1_554 S
C193 C194 1.391 . S
C194 H171 0.947 . S
C194 C193 1.391 . S
C194 C195 1.392 . S
C195 H172 0.948 . S
C195 C194 1.392 . S
C195 C196 1.419 1_554 S
C196 C195 1.419 1_556 S
C196 C197 1.391 . S
C196 C200 1.397 . S
C197 C192 1.391 . S
C197 C196 1.391 . S
C197 C198 1.399 . S
C198 C197 1.399 . S
C198 C199 1.396 . S
C198 C201 1.453 . S
C198 C202 1.684 . S
C199 C189 1.723 . S
C199 C198 1.396 . S
C199 C200 1.394 . S
C200 C170 1.723 . S
C200 C196 1.397 . S
C200 C199 1.394 . S
C201 H173 0.982 . S
C201 H177 0.979 . S
C201 H178 0.977 . S
C201 C198 1.453 . S
C202 H174 0.979 . S
C202 H175 0.980 . S
C202 H176 0.983 . S
C202 C198 1.684 . S
H203 C221 0.948 . S
H204 C162 0.950 . S
H205 C180 0.979 . S
H206 C180 0.980 . S
H207 C180 0.983 . S
H208 C179 0.982 . S
H209 C179 0.979 . S
H210 C179 0.977 . S
H211 C181 0.948 . S
H212 C183 0.947 . S
H213 C184 0.948 . S
H214 C190 0.982 . S
H215 C190 0.979 . S
H216 C190 0.977 . S
H217 C191 0.979 . S
H218 C191 0.980 . S
H219 C191 0.983 . S
H220 C164 0.947 . S
C221 C164 1.392 . S
C221 C165 1.419 . S
C221 H203 0.948 . S
C222 C223 1.391 . S
C222 C226 1.391 . S
C222 H264 0.948 1_554 S
C223 C222 1.391 . S
C223 C224 1.391 . S
C224 C223 1.391 . S
C224 H280 0.947 . S
C224 C281 1.392 . S
C225 C226 1.391 . S
C225 C229 1.397 . S
C225 C281 1.419 . S
C226 C222 1.391 . S
C226 C225 1.391 . S
C226 C227 1.399 . S
C227 C226 1.399 . S
C227 C230 1.396 . S
C227 C239 1.453 1_554 S
C227 C240 1.684 1_554 S
H228 C252 0.948 . S
C229 C225 1.397 . S
C229 C230 1.394 . S
C229 C248 1.723 . S
C230 C227 1.396 . S
C230 C229 1.394 . S
C230 C260 1.723 . S
H231 C254 0.947 . S
H232 C255 0.948 1_556 S
H233 C261 0.982 . S
H234 C262 0.979 . S
H235 C262 0.980 . S
H236 C262 0.983 . S
H237 C261 0.979 . S
H238 C261 0.977 . S
C239 C227 1.453 1_556 S
C239 H268 0.982 1_556 S
C239 H269 0.979 . S
C239 H270 0.977 . S
C240 C227 1.684 1_556 S
C240 H265 0.979 . S
C240 H266 0.980 . S
C240 H267 0.983 . S
C241 C242 1.391 . S
C241 C246 1.391 . S
C241 H271 0.948 . S
C242 C241 1.391 . S
C242 C243 1.391 . S
C243 C242 1.391 . S
C243 C244 1.392 . S
C243 H272 0.947 . S
C244 C243 1.392 . S
C244 C245 1.419 . S
C244 H273 0.948 . S
C245 C244 1.419 . S
C245 C246 1.391 . S
C245 C249 1.397 . S
C246 C241 1.391 . S
C246 C245 1.391 . S
C246 C247 1.399 . S
C247 C246 1.399 . S
C247 C248 1.396 . S
C247 C250 1.453 . S
C247 C251 1.684 . S
C248 C229 1.723 . S
C248 C247 1.396 . S
C248 C249 1.394 . S
C249 C245 1.397 . S
C249 C248 1.394 . S
C249 C259 1.723 . S
C250 C247 1.453 . S
C250 H274 0.982 . S
C250 H275 0.979 . S
C250 H276 0.977 . S
C251 C247 1.684 . S
C251 H277 0.979 . S
C251 H278 0.980 . S
C251 H279 0.983 . S
C252 H228 0.948 . S
C252 C253 1.391 . S
C252 C257 1.391 . S
C253 C252 1.391 . S
C253 C254 1.391 1_554 S
C254 H231 0.947 . S
C254 C253 1.391 1_556 S
C254 C255 1.392 1_556 S
C255 H232 0.948 1_554 S
C255 C254 1.392 1_554 S
C255 C256 1.419 . S
C256 C255 1.419 . S
C256 C257 1.391 . S
C256 C260 1.397 . S
C257 C252 1.391 . S
C257 C256 1.391 . S
C257 C258 1.399 . S
C258 C257 1.399 . S
C258 C259 1.396 . S
C258 C261 1.453 . S
C258 C262 1.684 . S
C259 C249 1.723 . S
C259 C258 1.396 . S
C259 C260 1.394 . S
C260 C230 1.723 . S
C260 C256 1.397 . S
C260 C259 1.394 . S
C261 H233 0.982 . S
C261 H237 0.979 . S
C261 H238 0.977 . S
C261 C258 1.453 . S
C262 H234 0.979 . S
C262 H235 0.980 . S
C262 H236 0.983 . S
C262 C258 1.684 . S
H263 C281 0.948 . S
H264 C222 0.948 1_556 S
H265 C240 0.979 . S
H266 C240 0.980 . S
H267 C240 0.983 . S
H268 C239 0.982 1_554 S
H269 C239 0.979 . S
H270 C239 0.977 . S
H271 C241 0.948 . S
H272 C243 0.947 . S
H273 C244 0.948 . S
H274 C250 0.982 . S
H275 C250 0.979 . S
H276 C250 0.977 . S
H277 C251 0.979 . S
H278 C251 0.980 . S
H279 C251 0.983 . S
H280 C224 0.947 . S
C281 C224 1.392 . S
C281 C225 1.419 . S
C281 H263 0.948 . S
C282 C283 1.363 1_556 S
C282 C288 1.379 . S
C282 N290 1.356 . S
C283 C282 1.363 1_554 S
C283 C289 1.363 . S
C284 C285 1.370 . S
C284 C289 1.379 . S
C284 N291 1.356 . S
C285 C284 1.370 . S
C285 C288 1.357 1_554 S
N286 C288 1.356 . S
N286 H298 0.984 . S
N286 H299 0.985 . S
N287 C289 1.356 . S
N287 H292 0.984 . S
N287 H293 0.985 . S
C288 C282 1.379 . S
C288 C285 1.357 1_556 S
C288 N286 1.356 . S
C289 C283 1.363 . S
C289 C284 1.379 . S
C289 N287 1.356 . S
N290 C282 1.356 . S
N290 H296 0.984 . S
N290 H297 0.984 . S
N291 C284 1.356 . S
N291 H294 0.984 . S
N291 H295 0.985 . S
H292 N287 0.984 . S
H293 N287 0.985 . S
H294 N291 0.984 . S
H295 N291 0.985 . S
H296 N290 0.984 . S
H297 N290 0.984 . S
H298 N286 0.984 . S
H299 N286 0.985 . S
C300 C301 1.363 1_556 S
C300 C306 1.379 . S
C300 N308 1.356 . S
C301 C300 1.363 1_554 S
C301 C307 1.363 . S
C302 C303 1.363 . S
C302 C307 1.379 . S
C302 N309 1.356 . S
C303 C302 1.363 . S
C303 C306 1.363 1_554 S
N304 C306 1.356 . S
N304 H316 0.984 . S
N304 H317 0.985 . S
N305 C307 1.356 . S
N305 H310 0.984 . S
N305 H311 0.985 . S
C306 C300 1.379 . S
C306 C303 1.363 1_556 S
C306 N304 1.356 . S
C307 C301 1.363 . S
C307 C302 1.379 . S
C307 N305 1.356 . S
N308 C300 1.356 . S
N308 H314 0.984 . S
N308 H315 0.984 . S
N309 C302 1.356 . S
N309 H312 0.984 . S
N309 H313 0.985 . S
H310 N305 0.984 . S
H311 N305 0.985 . S
H312 N309 0.984 . S
H313 N309 0.985 . S
H314 N308 0.984 . S
H315 N308 0.984 . S
H316 N304 0.984 . S
H317 N304 0.985 . S
C318 C319 1.363 . S
C318 C324 1.379 . S
C318 N326 1.356 . S
C319 C318 1.363 . S
C319 C325 1.363 1_554 S
C320 C321 1.363 1_556 S
C320 C325 1.379 . S
C320 N327 1.356 . S
C321 C320 1.363 1_554 S
C321 C324 1.363 . S
N322 C324 1.356 . S
N322 H334 0.984 . S
N322 H335 0.985 . S
N323 C325 1.356 . S
N323 H328 0.984 . S
N323 H329 0.985 . S
C324 C318 1.379 . S
C324 C321 1.363 . S
C324 N322 1.356 . S
C325 C319 1.363 1_556 S
C325 C320 1.379 . S
C325 N323 1.356 . S
N326 C318 1.356 . S
N326 H332 0.984 . S
N326 H333 0.984 . S
N327 C320 1.356 . S
N327 H330 0.984 . S
N327 H331 0.985 . S
H328 N323 0.984 . S
H329 N323 0.985 . S
H330 N327 0.984 . S
H331 N327 0.985 . S
H332 N326 0.984 . S
H333 N326 0.984 . S
H334 N322 0.984 . S
H335 N322 0.985 . S
C336 C337 1.344 1_554 S
C336 C342 1.379 . S
C336 N344 1.356 . S
C337 C336 1.344 1_556 S
C337 C343 1.386 . S
C338 C339 1.363 . S
C338 C343 1.379 . S
C338 N345 1.356 . S
C339 C338 1.363 . S
C339 C342 1.363 1_556 S
N340 C342 1.356 . S
N340 H352 0.984 . S
N340 H353 0.985 . S
N341 C343 1.356 . S
N341 H346 0.984 . S
N341 H347 0.985 . S
C342 C336 1.379 . S
C342 C339 1.363 1_554 S
C342 N340 1.356 . S
C343 C337 1.386 . S
C343 C338 1.379 . S
C343 N341 1.356 . S
N344 C336 1.356 . S
N344 H350 0.984 . S
N344 H351 0.984 . S
N345 C338 1.356 . S
N345 H348 0.984 . S
N345 H349 0.985 . S
H346 N341 0.984 . S
H347 N341 0.985 . S
H348 N345 0.984 . S
H349 N345 0.985 . S
H350 N344 0.984 . S
H351 N344 0.984 . S
H352 N340 0.984 . S
H353 N340 0.985 . S
C354 C355 1.363 . S
C354 C360 1.379 . S
C354 N362 1.356 . S
C355 C354 1.363 . S
C355 C361 1.363 . S
C356 C357 1.363 . S
C356 C361 1.379 . S
C356 N363 1.356 . S
C357 C356 1.363 . S
C357 C360 1.363 . S
N358 C360 1.356 . S
N358 H370 0.984 . S
N358 H371 0.985 . S
N359 C361 1.356 . S
N359 H364 0.984 . S
N359 H365 0.985 . S
C360 C354 1.379 . S
C360 C357 1.363 . S
C360 N358 1.356 . S
C361 C355 1.363 . S
C361 C356 1.379 . S
C361 N359 1.356 . S
N362 C354 1.356 . S
N362 H368 0.984 . S
N362 H369 0.984 . S
N363 C356 1.356 . S
N363 H366 0.984 . S
N363 H367 0.985 . S
H364 N359 0.984 . S
H365 N359 0.985 . S
H366 N363 0.984 . S
H367 N363 0.985 . S
H368 N362 0.984 . S
H369 N362 0.984 . S
H370 N358 0.984 . S
H371 N358 0.985 . S
C372 C373 1.363 . S
C372 C378 1.379 . S
C372 N380 1.356 . S
C373 C372 1.363 . S
C373 C379 1.363 . S
C374 C375 1.363 . S
C374 C379 1.379 . S
C374 N381 1.356 . S
C375 C374 1.363 . S
C375 C378 1.363 . S
N376 C378 1.356 . S
N376 H388 0.984 . S
N376 H389 0.985 . S
N377 C379 1.356 . S
N377 H382 0.984 . S
N377 H383 0.985 . S
C378 C372 1.379 . S
C378 C375 1.363 . S
C378 N376 1.356 . S
C379 C373 1.363 . S
C379 C374 1.379 . S
C379 N377 1.356 . S
N380 C372 1.356 . S
N380 H386 0.984 . S
N380 H387 0.984 . S
N381 C374 1.356 . S
N381 H384 0.984 . S
N381 H385 0.985 . S
H382 N377 0.984 . S
H383 N377 0.985 . S
H384 N381 0.984 . S
H385 N381 0.985 . S
H386 N380 0.984 . S
H387 N380 0.984 . S
H388 N376 0.984 . S
H389 N376 0.985 . S
C390 C391 1.363 . S
C390 C396 1.379 . S
C390 N398 1.356 . S
C391 C390 1.363 . S
C391 C397 1.363 . S
C392 C393 1.363 . S
C392 C397 1.379 . S
C392 N399 1.356 . S
C393 C392 1.363 . S
C393 C396 1.363 . S
N394 C396 1.356 . S
N394 H406 0.984 . S
N394 H407 0.985 . S
N395 C397 1.356 . S
N395 H400 0.984 . S
N395 H401 0.985 . S
C396 C390 1.379 . S
C396 C393 1.363 . S
C396 N394 1.356 . S
C397 C391 1.363 . S
C397 C392 1.379 . S
C397 N395 1.356 . S
N398 C390 1.356 . S
N398 H404 0.984 . S
N398 H405 0.984 . S
N399 C392 1.356 . S
N399 H402 0.984 . S
N399 H403 0.985 . S
H400 N395 0.984 . S
H401 N395 0.985 . S
H402 N399 0.984 . S
H403 N399 0.985 . S
H404 N398 0.984 . S
H405 N398 0.984 . S
H406 N394 0.984 . S
H407 N394 0.985 . S
C408 C409 1.363 . S
C408 C414 1.379 . S
C408 N416 1.356 . S
C409 C408 1.363 . S
C409 C415 1.363 . S
C410 C411 1.363 . S
C410 C415 1.379 . S
C410 N417 1.356 . S
C411 C410 1.363 . S
C411 C414 1.363 . S
N412 C414 1.356 . S
N412 H424 0.984 . S
N412 H425 0.985 . S
N413 C415 1.356 . S
N413 H418 0.984 . S
N413 H419 0.985 . S
C414 C408 1.379 . S
C414 C411 1.363 . S
C414 N412 1.356 . S
C415 C409 1.363 . S
C415 C410 1.379 . S
C415 N413 1.356 . S
N416 C408 1.356 . S
N416 H422 0.984 . S
N416 H423 0.984 . S
N417 C410 1.356 . S
N417 H420 0.984 . S
N417 H421 0.985 . S
H418 N413 0.984 . S
H419 N413 0.985 . S
H420 N417 0.984 . S
H421 N417 0.985 . S
H422 N416 0.984 . S
H423 N416 0.984 . S
H424 N412 0.984 . S
H425 N412 0.985 . S
C426 C427 1.363 1_565 S
C426 C432 1.379 . S
C426 N434 1.356 1_455 S
C427 C426 1.363 1_545 S
C427 C433 1.363 . S
C428 C429 1.363 1_545 S
C428 C433 1.379 . S
C428 N435 1.356 . S
C429 C428 1.363 1_565 S
C429 C432 1.363 . S
N430 C432 1.356 1_655 S
N430 H442 0.984 . S
N430 H443 0.983 1_655 S
N431 C433 1.356 . S
N431 H436 0.984 . S
N431 H437 0.985 . S
C432 C426 1.379 . S
C432 C429 1.363 . S
C432 N430 1.356 1_455 S
C433 C427 1.363 . S
C433 C428 1.379 . S
C433 N431 1.356 . S
N434 C426 1.356 1_655 S
N434 H440 0.984 . S
N434 H441 0.984 . S
N435 C428 1.356 . S
N435 H438 0.984 . S
N435 H439 0.985 . S
H436 N431 0.984 . S
H437 N431 0.985 . S
H438 N435 0.984 . S
H439 N435 0.985 . S
H440 N434 0.984 . S
H441 N434 0.984 . S
H442 N430 0.984 . S
H443 N430 0.983 1_455 S
C444 C445 1.363 . S
C444 C450 1.379 . S
C444 N452 1.356 . S
C445 C444 1.363 . S
C445 C451 1.363 1_455 S
C446 C447 1.363 1_655 S
C446 C451 1.379 . S
C446 N453 1.356 . S
C447 C446 1.363 1_455 S
C447 C450 1.363 . S
N448 C450 1.356 . S
N448 H460 0.984 . S
N448 H461 0.985 . S
N449 C451 1.356 . S
N449 H454 0.984 . S
N449 H455 0.985 . S
C450 C444 1.379 . S
C450 C447 1.363 . S
C450 N448 1.356 . S
C451 C445 1.363 1_655 S
C451 C446 1.379 . S
C451 N449 1.356 . S
N452 C444 1.356 . S
N452 H458 0.984 1_545 S
N452 H459 0.982 1_545 S
N453 C446 1.356 . S
N453 H456 0.984 . S
N453 H457 0.985 . S
H454 N449 0.984 . S
H455 N449 0.985 . S
H456 N453 0.984 . S
H457 N453 0.985 . S
H458 N452 0.984 1_565 S
H459 N452 0.982 1_565 S
H460 N448 0.984 . S
H461 N448 0.985 . S
C462 C463 1.363 . S
C462 C468 1.379 . S
C462 N470 1.356 . S
C463 C462 1.363 . S
C463 C469 1.363 . S
C464 C465 1.363 . S
C464 C469 1.379 . S
C464 N471 1.356 . S
C465 C464 1.363 . S
C465 C468 1.363 . S
N466 C468 1.356 . S
N466 H478 0.984 . S
N466 H479 0.985 . S
N467 C469 1.356 . S
N467 H472 0.984 . S
N467 H473 0.985 . S
C468 C462 1.379 . S
C468 C465 1.363 . S
C468 N466 1.356 . S
C469 C463 1.363 . S
C469 C464 1.379 . S
C469 N467 1.356 . S
N470 C462 1.356 . S
N470 H476 0.984 . S
N470 H477 0.984 . S
N471 C464 1.356 . S
N471 H474 0.984 . S
N471 H475 0.985 . S
H472 N467 0.984 . S
H473 N467 0.985 . S
H474 N471 0.984 . S
H475 N471 0.985 . S
H476 N470 0.984 . S
H477 N470 0.984 . S
H478 N466 0.984 . S
H479 N466 0.985 . S
C480 C481 1.363 . S
C480 C486 1.379 . S
C480 N488 1.356 . S
C481 C480 1.363 . S
C481 C487 1.363 . S
C482 C483 1.363 . S
C482 C487 1.379 . S
C482 N489 1.356 . S
C483 C482 1.363 . S
C483 C486 1.363 . S
N484 C486 1.356 . S
N484 H496 0.984 . S
N484 H497 0.985 . S
N485 C487 1.356 . S
N485 H490 0.984 . S
N485 H491 0.985 . S
C486 C480 1.379 . S
C486 C483 1.363 . S
C486 N484 1.356 . S
C487 C481 1.363 . S
C487 C482 1.379 . S
C487 N485 1.356 . S
N488 C480 1.356 . S
N488 H494 0.984 . S
N488 H495 0.984 . S
N489 C482 1.356 . S
N489 H492 0.984 . S
N489 H493 0.985 . S
H490 N485 0.984 . S
H491 N485 0.985 . S
H492 N489 0.984 . S
H493 N489 0.985 . S
H494 N488 0.984 . S
H495 N488 0.984 . S
H496 N484 0.984 . S
H497 N484 0.985 . S
C285 C253 1.627 . S
C283 C15 1.520 . S
C301 C13 1.616 . S
C303 C193 1.635 . S
C319 C18 1.309 1_554 S
C321 C223 1.474 . S
C337 C17 1.418 . S
C339 C163 1.383 . S
C355 C36 1.521 . S
C357 C133 1.628 . S
C373 C34 1.616 . S
C375 C73 1.635 . S
C393 C103 1.474 . S
C391 C39 1.309 . S
C411 C43 1.382 . S
C409 C38 1.419 . S
C427 C14 1.517 . S
C429 C62 1.524 . S
C445 C16 1.406 . S
C447 C122 1.434 1_455 S
C465 C182 1.524 . S
C463 C35 1.517 . S
C481 C37 1.406 . S
C483 C242 1.434 . S
