# Generated by pormake.
# Topology rtl, (3,6)-cn, num edge types: 1
# Building blocks:
#     Node 0, Type 0, BuildingBlock: QEWDON_clean_linker_0, # of connection points: 3
#     Node 1, Type 0, BuildingBlock: QEWDON_clean_linker_0, # of connection points: 3
#     Node 2, Type 0, BuildingBlock: QEWDON_clean_linker_0, # of connection points: 3
#     Node 3, Type 0, BuildingBlock: QEWDON_clean_linker_0, # of connection points: 3
#     Node 4, Type 1, BuildingBlock: KUMBOL_clean_sbu_1, # of connection points: 6
#     Node 5, Type 1, BuildingBlock: KUMBOL_clean_sbu_1, # of connection points: 6
#     Edge 6, Type (0, 1), BuildingBlock: ZUJKAS_clean_linker_0, # of connection points: 2
#     Edge 7, Type (0, 1), BuildingBlock: ZUJKAS_clean_linker_0, # of connection points: 2
#     Edge 8, Type (0, 1), BuildingBlock: ZUJKAS_clean_linker_0, # of connection points: 2
#     Edge 9, Type (0, 1), BuildingBlock: ZUJKAS_clean_linker_0, # of connection points: 2
#     Edge 10, Type (0, 1), BuildingBlock: ZUJKAS_clean_linker_0, # of connection points: 2
#     Edge 11, Type (0, 1), BuildingBlock: ZUJKAS_clean_linker_0, # of connection points: 2
#     Edge 12, Type (0, 1), BuildingBlock: ZUJKAS_clean_linker_0, # of connection points: 2
#     Edge 13, Type (0, 1), BuildingBlock: ZUJKAS_clean_linker_0, # of connection points: 2
#     Edge 14, Type (0, 1), BuildingBlock: ZUJKAS_clean_linker_0, # of connection points: 2
#     Edge 15, Type (0, 1), BuildingBlock: ZUJKAS_clean_linker_0, # of connection points: 2
#     Edge 16, Type (0, 1), BuildingBlock: ZUJKAS_clean_linker_0, # of connection points: 2
#     Edge 17, Type (0, 1), BuildingBlock: ZUJKAS_clean_linker_0, # of connection points: 2
# Relax obj value: 0.084
# Max RMSD: 0.265
# Mean RMSD: 0.205
data_MOF--net-rtl--node1-KUMBOL_clean_sbu_1--node2-QEWDON_clean_linker_0--edge1-ZUJKAS_clean_linker_0
_symmetry_space_group_name_H-M    P1
_symmetry_Int_Tables_number       1
_symmetry_cell_setting            triclinic
loop_
_symmetry_equiv_pos_as_xyz
'x, y, z'
_cell_length_a     48.153349
_cell_length_b     47.857712
_cell_length_c     33.615124
_cell_angle_alpha  81.169114
_cell_angle_beta   100.39054
_cell_angle_gamma 91.135025
loop_
_atom_site_label
_atom_site_type_symbol
_atom_site_fract_x
_atom_site_fract_y
_atom_site_fract_z
_atom_type_partial_charge
H0 H 0.24718 0.83176 0.09537 0.0
C1 C 0.23712 0.8392 0.0641 0.0
C2 C 0.21073 0.85293 0.05631 0.0
C3 C 0.25114 0.8356 0.03192 0.0
H4 H 0.1784 0.87407 0.00919 0.0
C5 C 0.19844 0.86289 0.01556 0.0
C6 C 0.21217 0.85982 0.98291 0.0
C7 C 0.2384 0.84557 0.99127 0.0
C8 C 0.28084 0.82544 0.04193 0.0
H9 H 0.24968 0.84386 0.9666 0.0
C10 C 0.2892 0.79985 0.03128 0.0
C11 C 0.31726 0.78989 0.0448 0.0
C12 C 0.30091 0.8413 0.06459 0.0
H13 H 0.29494 0.86103 0.07294 0.0
C14 C 0.32875 0.83185 0.07693 0.0
H15 H 0.27381 0.78729 0.01424 0.0
C16 C 0.33685 0.80626 0.06742 0.0
H17 H 0.35854 0.79915 0.07781 0.0
H18 H 0.34403 0.84425 0.09439 0.0
H19 H 0.73681 0.71237 0.58144 0.0
C20 C 0.7239 0.70524 0.60425 0.0
C21 C 0.69885 0.69023 0.5934 0.0
C22 C 0.73287 0.71008 0.64488 0.0
H23 H 0.66402 0.66795 0.61591 0.0
C24 C 0.68288 0.68016 0.62373 0.0
C25 C 0.69136 0.68476 0.66436 0.0
C26 C 0.71607 0.7002 0.67445 0.0
C27 C 0.76104 0.72272 0.65793 0.0
H28 H 0.72288 0.70354 0.70588 0.0
C29 C 0.77088 0.74725 0.63541 0.0
C30 C 0.79718 0.75913 0.65013 0.0
C31 C 0.77841 0.70983 0.69409 0.0
H32 H 0.77192 0.69064 0.7115 0.0
C33 C 0.80449 0.72124 0.70817 0.0
H34 H 0.75783 0.75753 0.60752 0.0
C35 C 0.81374 0.74576 0.6866 0.0
H36 H 0.83412 0.75419 0.6983 0.0
H37 H 0.81758 0.71105 0.73604 0.0
H38 H 0.80104 0.18665 0.09568 0.0
C39 C 0.81205 0.18443 0.0709 0.0
C40 C 0.83794 0.1697 0.07928 0.0
C41 C 0.79922 0.19395 0.03018 0.0
H42 H 0.87089 0.15341 0.05367 0.0
C43 C 0.85135 0.16551 0.0469 0.0
C44 C 0.83924 0.17547 1.00608 0.0
C45 C 0.81309 0.1897 0.99807 0.0
C46 C 0.76937 0.2036 0.02028 0.0
H47 H 0.80299 0.19689 0.96674 0.0
C48 C 0.76052 0.22907 0.0307 0.0
C49 C 0.73202 0.23802 0.01844 0.0
C50 C 0.74948 0.18687 0.99893 0.0
H51 H 0.75582 0.16717 0.99087 0.0
C52 C 0.72128 0.19521 0.98792 0.0
H53 H 0.77582 0.24224 0.04677 0.0
C54 C 0.7126 0.22057 0.99744 0.0
H55 H 0.69051 0.22655 0.98839 0.0
H56 H 0.7061 0.18206 0.97169 0.0
H57 H 0.33221 0.30087 0.49495 0.0
C58 C 0.33959 0.31304 0.469 0.0
C59 C 0.35261 0.33939 0.47286 0.0
C60 C 0.33718 0.30184 0.43218 0.0
H61 H 0.3743 0.37398 0.44281 0.0
C62 C 0.36296 0.35448 0.4393 0.0
C63 C 0.36057 0.34386 0.40217 0.0
C64 C 0.34737 0.31764 0.39885 0.0
C65 C 0.32685 0.27249 0.42922 0.0
H66 H 0.34532 0.30926 0.37029 0.0
C67 C 0.30148 0.26236 0.44185 0.0
C68 C 0.29187 0.23486 0.43616 0.0
C69 C 0.34281 0.25437 0.41268 0.0
H70 H 0.3626 0.26127 0.40353 0.0
C71 C 0.33365 0.22713 0.40791 0.0
H72 H 0.28885 0.27602 0.45454 0.0
C73 C 0.30833 0.21749 0.41926 0.0
H74 H 0.30163 0.19623 0.41503 0.0
H75 H 0.34617 0.21345 0.39514 0.0
C76 C 0.98255 0.10174 0.50834 0.0
C77 C 0.93451 0.09389 0.4752 0.0
C78 C 0.95999 0.08353 0.50046 0.0
C79 C 0.9321 0.12256 0.45787 0.0
C80 C 0.98021 0.13051 0.49075 0.0
C81 C 0.9549 0.14078 0.46547 0.0
N82 N 1.00695 0.09119 0.53249 0.0
C83 C 0.02944 0.10836 0.54139 0.0
C84 C 1.00346 0.1481 0.49898 0.0
C85 C 0.02813 0.13699 0.52455 0.0
Gd86 Gd 0.04378 0.98703 0.50569 0.0
Gd87 Gd 1.0072 0.04289 0.55867 0.0
N88 N 0.96316 0.05566 0.51689 0.0
C89 C 0.91215 0.07515 0.46818 0.0
C90 C 0.94086 0.03772 0.51186 0.0
C91 C 0.91526 0.04701 0.48692 0.0
H92 H 0.94221 0.01641 0.52766 0.0
H93 H 0.89779 0.03255 0.48266 0.0
H94 H 0.1081 0.01868 0.52042 0.0
H95 H 0.04815 0.10014 0.5623 0.0
H96 H 0.15428 0.0096 0.56476 0.0
H97 H 0.89224 0.08229 0.449 0.0
H98 H 0.91263 0.13088 0.43859 0.0
H99 H 1.00748 0.92719 0.51911 0.0
H100 H 1.00249 0.1703 0.486 0.0
H101 H 0.04608 0.1505 0.53156 0.0
H102 H 0.14746 0.91513 0.63398 0.0
H103 H 0.95272 0.16282 0.45173 0.0
H104 H 0.06048 0.86592 0.60368 0.0
H105 H 0.01445 0.87931 0.55922 0.0
N106 N 0.04864 0.94097 0.54181 0.0
C107 C 0.07433 0.93389 0.56523 0.0
C108 C 0.02739 0.92171 0.53902 0.0
C109 C 0.05746 0.88699 0.58628 0.0
C110 C 0.03141 0.8945 0.56136 0.0
C111 C 0.07934 0.90672 0.58841 0.0
H112 H 0.10999 0.87951 0.63144 0.0
N113 N 0.08974 0.98051 0.54483 0.0
C114 C 0.09535 0.95429 0.56713 0.0
C115 C 0.14311 0.96816 0.59189 0.0
C116 C 0.12206 0.94762 0.59176 0.0
C117 C 0.11101 0.99961 0.5422 0.0
C118 C 0.1377 0.99408 0.56644 0.0
O119 O 1.00612 0.05246 0.49025 0.0
O120 O 1.00491 0.00951 0.46713 0.0
O121 O 0.06864 0.99159 0.4571 0.0
O122 O 0.04165 0.95549 0.46518 0.0
O123 O 0.9893 0.99824 0.56119 0.0
O124 O 0.99703 0.98035 0.50366 0.0
O125 O 0.04106 0.97784 0.57318 0.0
O126 O 0.04687 0.02086 0.595 0.0
O127 O 0.98264 0.03278 0.60722 0.0
O128 O 1.00657 0.07141 0.60286 0.0
O129 O 0.05869 0.03278 0.49879 0.0
O130 O 0.05392 0.04845 0.55888 0.0
C131 C 0.99853 0.03657 0.46166 0.0
C132 C 0.98333 0.98052 0.53428 0.0
C133 C 0.04981 0.97125 0.39847 0.0
C134 C 0.05845 0.96107 0.33255 0.0
C135 C 0.01579 0.98627 0.33675 0.0
C136 C 0.02432 0.98467 0.37895 0.0
C137 C 0.03259 0.97449 0.31368 0.0
C138 C 0.06688 0.95963 0.37526 0.0
C139 C 0.05869 0.96884 0.44307 0.0
C140 C 0.12708 0.92059 0.61493 0.0
C141 C 0.10579 0.90023 0.61331 0.0
H142 H 0.16388 0.96388 0.61043 0.0
C143 C 0.05106 0.99342 0.60129 0.0
C144 C 0.06549 0.05016 0.52595 0.0
C145 C 0.99886 0.05148 0.66829 0.0
C146 C 0.99013 0.06129 0.73432 0.0
C147 C 0.03162 0.03412 0.73037 0.0
C148 C 0.02358 0.03667 0.68794 0.0
C149 C 0.01515 0.0464 0.75344 0.0
C150 C 0.98216 0.06357 0.69147 0.0
C151 C 0.99047 0.0553 0.62357 0.0
H152 H 0.99597 0.99651 0.32188 0.0
H153 H 0.01099 0.9937 0.3964 0.0
H154 H 0.02506 0.97555 0.28113 0.0
H155 H 0.08679 0.94971 0.39056 0.0
H156 H 0.05083 0.0228 0.74541 0.0
H157 H 0.03669 0.02729 0.67048 0.0
H158 H 0.02231 0.04458 0.78618 0.0
H159 H 0.96286 0.07462 0.67598 0.0
C160 C 0.59563 0.57547 0.02759 0.0
C161 C 0.57442 0.62219 0.0086 0.0
C162 C 0.57351 0.59372 0.02701 0.0
C163 C 0.59708 0.6315 0.98895 0.0
C164 C 0.61907 0.58502 0.00966 0.0
C165 C 0.61938 0.61297 0.98955 0.0
N166 N 0.59429 0.54831 0.04607 0.0
C167 C 0.61659 0.53019 0.05086 0.0
C168 C 0.64152 0.56618 0.01271 0.0
C169 C 0.64043 0.53876 0.03388 0.0
Gd170 Gd 0.49852 0.4959 0.99331 0.0
Gd171 Gd 0.55329 0.53527 0.07242 0.0
N172 N 0.55197 0.58406 0.04648 0.0
C173 C 0.55303 0.64068 0.01173 0.0
C174 C 0.53276 0.60267 0.05308 0.0
C175 C 0.53246 0.631 0.03485 0.0
H176 H 0.51788 0.59597 0.07298 0.0
H177 H 0.51665 0.64544 0.03923 0.0
H178 H 0.51916 0.42883 0.02013 0.0
H179 H 0.61569 0.50899 0.06717 0.0
H180 H 0.50097 0.3835 0.0514 0.0
H181 H 0.55294 0.6627 0.99799 0.0
H182 H 0.59793 0.6532 0.97418 0.0
H183 H 0.44164 0.53962 0.9644 0.0
H184 H 0.65991 0.5727 0.99931 0.0
H185 H 0.65787 0.5242 0.03697 0.0
H186 H 0.40864 0.40724 0.07157 0.0
H187 H 0.637 0.6206 0.97501 0.0
H188 H 0.3743 0.5014 0.01987 0.0
H189 H 0.39357 0.54215 0.97901 0.0
N190 N 0.45137 0.49985 1.00213 0.0
C191 C 0.44051 0.47648 0.02213 0.0
C192 C 0.43431 0.52257 0.98473 0.0
C193 C 0.39589 0.50067 0.01499 0.0
C194 C 0.4067 0.52374 0.992 0.0
C195 C 0.41249 0.47628 0.02917 0.0
H196 H 0.38004 0.45088 0.05401 0.0
N197 N 0.48318 0.45253 0.024 0.0
C198 C 0.45669 0.45193 0.03262 0.0
C199 C 0.46171 0.40182 0.05755 0.0
C200 C 0.44532 0.42656 0.05003 0.0
C201 C 0.4987 0.42826 0.02911 0.0
C202 C 0.4884 0.40262 0.04657 0.0
O203 O 0.56093 0.53026 0.00917 0.0
O204 O 0.51753 0.53708 0.96896 0.0
O205 O 0.51287 0.47837 0.94455 0.0
O206 O 0.46858 0.48717 0.94013 0.0
O207 O 0.50704 0.54833 0.06117 0.0
O208 O 0.49068 0.54255 0.99405 0.0
O209 O 0.50883 0.47826 0.06114 0.0
O210 O 0.51359 0.5173 0.09312 0.0
O211 O 0.57026 0.56027 0.11995 0.0
O212 O 0.57673 0.51511 0.13084 0.0
O213 O 0.54327 0.47849 0.00847 0.0
O214 O 0.56448 0.48927 0.07241 0.0
C215 C 0.54484 0.54127 0.97481 0.0
C216 C 0.48948 0.55494 0.02612 0.0
C217 C 0.48554 0.48966 0.87832 0.0
C218 C 0.46971 0.48298 0.80706 0.0
C219 C 0.49289 0.52663 0.82341 0.0
C220 C 0.49562 0.51654 0.86518 0.0
C221 C 0.48 0.51006 0.79451 0.0
C222 C 0.47271 0.47297 0.84931 0.0
C223 C 0.48783 0.47869 0.92208 0.0
C224 C 0.41777 0.42653 0.05827 0.0
C225 C 0.40147 0.45139 0.04822 0.0
H226 H 0.45372 0.38192 0.07094 0.0
C227 C 0.5045 0.49144 0.09098 0.0
C228 C 0.56246 0.47395 0.04237 0.0
C229 C 0.57143 0.53745 0.18729 0.0
C230 C 0.57799 0.55448 0.25339 0.0
C231 C 0.54068 0.52103 0.2357 0.0
C232 C 0.54868 0.52094 0.19784 0.0
C233 C 0.55515 0.53766 0.26329 0.0
C234 C 0.58608 0.55411 0.21519 0.0
C235 C 0.57936 0.5384 0.14674 0.0
H236 H 0.50065 0.54743 0.81337 0.0
H237 H 0.50548 0.5297 0.88715 0.0
H238 H 0.47773 0.51868 0.76236 0.0
H239 H 0.46533 0.45206 0.8598 0.0
H240 H 0.52315 0.50819 0.24366 0.0
H241 H 0.53703 0.50808 0.17679 0.0
H242 H 0.54863 0.53714 0.29259 0.0
H243 H 0.60335 0.56721 0.20674 0.0
H244 H 0.27421 0.22911 0.51039 0.0
H245 H 0.2339 0.20101 0.52975 0.0
H246 H 0.20859 0.18637 0.40501 0.0
H247 H 0.24871 0.21395 0.38583 0.0
H248 H 0.17264 0.20213 0.49949 0.0
H249 H 0.22486 0.10646 0.47184 0.0
H250 H 0.24325 0.13936 0.47647 0.0
H251 H 0.2206 0.13466 0.42927 0.0
C252 C 0.25958 0.22046 0.48702 0.0
C253 C 0.26468 0.2235 0.44669 0.0
C254 C 0.23667 0.20431 0.49811 0.0
C255 C 0.21858 0.19105 0.46899 0.0
C256 C 0.22255 0.19589 0.42817 0.0
H257 H 0.08387 0.06983 0.45456 0.0
H258 H 0.12048 0.1048 0.44344 0.0
C259 C 0.2454 0.21178 0.41719 0.0
C260 C 0.1968 0.17055 0.48122 0.0
H261 H 0.17722 0.10147 0.48129 0.0
C262 C 0.17373 0.18007 0.49592 0.0
C263 C 0.19829 0.14169 0.47673 0.0
C264 C 0.2232 0.1298 0.4631 0.0
C265 C 0.15158 0.16172 0.50466 0.0
C266 C 0.15276 0.13304 0.49908 0.0
C267 C 0.17618 0.12346 0.48531 0.0
C268 C 0.12969 0.11265 0.50615 0.0
C269 C 0.12662 0.17336 0.51843 0.0
C270 C 0.12277 0.10513 0.54523 0.0
C271 C 0.10187 0.08497 0.55175 0.0
C272 C 0.08742 0.07192 0.51929 0.0
C273 C 0.0945 0.07945 0.48025 0.0
C274 C 0.11541 0.09952 0.47381 0.0
H275 H 0.1259 0.19685 0.51249 0.0
H276 H 0.10652 0.16517 0.50272 0.0
H277 H 0.12815 0.16653 0.55182 0.0
H278 H 0.13392 0.11444 0.5709 0.0
H279 H 0.09731 0.07931 0.58234 0.0
H280 H 0.31703 0.77176 0.97117 0.0
H281 H 0.34038 0.729 0.95986 0.0
H282 H 0.36311 0.70372 0.09035 0.0
H283 H 0.34011 0.7462 0.10161 0.0
H284 H 0.39983 0.71672 0.99113 0.0
H285 H 0.33182 0.63038 0.04779 0.0
H286 H 0.31949 0.6665 0.03212 0.0
H287 H 0.34088 0.65606 0.08167 0.0
C288 C 0.3264 0.75664 0.99729 0.0
C289 C 0.32671 0.76215 0.03724 0.0
C290 C 0.33985 0.73236 0.99086 0.0
C291 C 0.35329 0.71303 0.02428 0.0
C292 C 0.35253 0.71804 0.06411 0.0
H293 H 0.46726 0.57169 0.08786 0.0
H294 H 0.43316 0.60978 0.0832 0.0
C295 C 0.33945 0.74235 0.07052 0.0
C296 C 0.37035 0.68897 0.0182 0.0
H297 H 0.37846 0.61724 0.04222 0.0
C298 C 0.39495 0.6949 1.0016 0.0
C299 C 0.36406 0.66057 0.03224 0.0
C300 C 0.3375 0.65288 0.04914 0.0
C301 C 0.41412 0.67334 1.00046 0.0
C302 C 0.40817 0.64495 0.01543 0.0
C303 C 0.38308 0.63896 0.03082 0.0
C304 C 0.4284 0.62138 0.01751 0.0
C305 C 0.44125 0.68136 0.98519 0.0
C306 C 0.4369 0.61492 0.98208 0.0
C307 C 0.45665 0.59328 0.98474 0.0
C308 C 0.46803 0.57746 0.02282 0.0
C309 C 0.45905 0.58361 0.0581 0.0
C310 C 0.43944 0.60529 0.05545 0.0
H311 H 0.4457 0.70429 0.98429 0.0
H312 H 0.45943 0.66922 1.00482 0.0
H313 H 0.43954 0.67643 0.95365 0.0
H314 H 0.42831 0.62663 0.95235 0.0
H315 H 0.46321 0.58911 0.95702 0.0
H316 H 0.81495 0.80636 0.6825 0.0
H317 H 0.84094 0.84609 0.6526 0.0
H318 H 0.83146 0.81101 0.54021 0.0
H319 H 0.80539 0.7708 0.57045 0.0
H320 H 0.88741 0.82414 0.57132 0.0
H321 H 0.81763 0.91538 0.56699 0.0
H322 H 0.82387 0.89342 0.61608 0.0
H323 H 0.80523 0.87936 0.57218 0.0
C324 C 0.81784 0.80743 0.65107 0.0
C325 C 0.80807 0.78552 0.62876 0.0
C326 C 0.83261 0.83024 0.63392 0.0
C327 C 0.83798 0.83178 0.59396 0.0
C328 C 0.82742 0.8104 0.571 0.0
H329 H 0.95781 0.94612 0.48003 0.0
H330 H 0.92146 0.91051 0.49011 0.0
C331 C 0.81236 0.78756 0.58814 0.0
C332 C 0.85675 0.85436 0.57812 0.0
H333 H 0.86638 0.92596 0.56473 0.0
C334 C 0.8826 0.84643 0.56913 0.0
C335 C 0.85059 0.88347 0.57547 0.0
C336 C 0.8227 0.89346 0.5828 0.0
C337 C 0.90297 0.86668 0.55957 0.0
C338 C 0.89716 0.89574 0.55824 0.0
C339 C 0.87093 0.90371 0.56591 0.0
C340 C 0.91855 0.91805 0.55107 0.0
C341 C 0.93108 0.85669 0.55294 0.0
C342 C 0.92851 0.93478 0.58143 0.0
C343 C 0.94926 0.95519 0.57576 0.0
C344 C 0.96052 0.95946 0.53946 0.0
C345 C 0.94996 0.94317 0.50861 0.0
C346 C 0.92921 0.9227 0.51436 0.0
H347 H 0.93453 0.83369 0.56386 0.0
H348 H 0.93183 0.86063 0.51975 0.0
H349 H 0.9487 0.86842 0.56895 0.0
H350 H 0.92056 0.93171 0.60995 0.0
H351 H 0.95673 0.96735 0.60017 0.0
H352 H 0.69936 0.27733 0.96402 0.0
H353 H 0.67586 0.31854 0.97803 0.0
H354 H 0.71752 0.30249 0.10413 0.0
H355 H 0.74112 0.26066 0.09031 0.0
H356 H 0.64003 0.31081 0.04443 0.0
H357 H 0.7244 0.39181 0.06133 0.0
H358 H 0.7262 0.36417 0.03076 0.0
H359 H 0.73172 0.3557 0.08539 0.0
C360 C 0.70382 0.2827 0.99468 0.0
C361 C 0.72184 0.26553 0.02619 0.0
C362 C 0.69043 0.30632 1.00259 0.0
C363 C 0.69488 0.31353 0.04209 0.0
C364 C 0.71396 0.29737 0.07334 0.0
H365 H 0.60494 0.45481 0.10721 0.0
H366 H 0.63802 0.41544 0.11249 0.0
C367 C 0.72747 0.27356 0.0654 0.0
C368 C 0.67737 0.33637 0.05057 0.0
H369 H 0.67797 0.4061 0.06228 0.0
C370 C 0.64838 0.33155 0.04885 0.0
C371 C 0.68836 0.36329 0.05669 0.0
C372 C 0.71936 0.36935 0.05863 0.0
C373 C 0.6299 0.35317 0.05174 0.0
C374 C 0.64056 0.3806 0.05548 0.0
C375 C 0.66979 0.38513 0.05916 0.0
C376 C 0.62129 0.40508 0.0524 0.0
C377 C 0.59899 0.34648 0.05021 0.0
C378 C 0.6013 0.4127 0.01662 0.0
C379 C 0.58241 0.43503 0.01352 0.0
C380 C 0.58311 0.45053 0.04606 0.0
C381 C 0.60363 0.44329 0.08163 0.0
C382 C 0.62261 0.42082 0.08469 0.0
H383 H 0.59574 0.3236 0.06012 0.0
H384 H 0.5895 0.3588 0.06989 0.0
H385 H 0.58757 0.35202 0.01826 0.0
H386 H 0.60026 0.40128 0.99096 0.0
H387 H 0.5672 0.44004 0.98544 0.0
H388 H 0.15421 0.85154 0.06014 0.0
H389 H 0.13115 0.86782 0.11147 0.0
H390 H 0.21247 0.88303 0.18236 0.0
H391 H 0.2357 0.86849 0.12988 0.0
H392 H 0.13145 0.85123 0.19082 0.0
H393 H 0.1758 0.95924 0.16929 0.0
H394 H 0.17913 0.93401 0.13572 0.0
H395 H 0.20226 0.93194 0.18456 0.0
C396 C 0.16725 0.85853 0.08648 0.0
C397 C 0.19686 0.8591 0.09038 0.0
C398 C 0.15401 0.86762 0.11604 0.0
C399 C 0.17002 0.87733 0.15036 0.0
C400 C 0.19961 0.87639 0.1556 0.0
H401 H 0.09047 0.91217 0.35369 0.0
H402 H 0.1191 0.8916 0.31233 0.0
C403 C 0.2129 0.8676 0.1258 0.0
C404 C 0.15555 0.8891 0.17982 0.0
H405 H 0.14907 0.94867 0.22208 0.0
C406 C 0.13534 0.87252 0.19773 0.0
C407 C 0.1603 0.91706 0.18838 0.0
C408 C 0.18033 0.93672 0.1682 0.0
C409 C 0.11965 0.88312 0.22368 0.0
C410 C 0.12486 0.91086 0.23296 0.0
C411 C 0.14523 0.92734 0.21529 0.0
C412 C 0.10846 0.92378 0.25915 0.0
C413 C 0.09693 0.86484 0.23959 0.0
C414 C 0.09386 0.94939 0.24382 0.0
C415 C 0.07805 0.96162 0.26777 0.0
C416 C 0.07629 0.94848 0.30769 0.0
C417 C 0.0914 0.92306 0.32326 0.0
C418 C 0.10747 0.91098 0.29937 0.0
H419 H 0.09038 0.84784 0.22083 0.0
H420 H 0.10515 0.85461 0.27134 0.0
H421 H 0.078 0.87761 0.23994 0.0
H422 H 0.09448 0.95985 0.21303 0.0
H423 H 0.0673 0.9815 0.25496 0.0
H424 H 0.67549 0.70898 0.72604 0.0
H425 H 0.64904 0.6871 0.77853 0.0
H426 H 0.64512 0.60913 0.72831 0.0
H427 H 0.67109 0.63092 0.67567 0.0
H428 H 0.5948 0.62175 0.74494 0.0
H429 H 0.67808 0.63138 0.87956 0.0
H430 H 0.66776 0.66448 0.84772 0.0
H431 H 0.68481 0.6379 0.82788 0.0
C432 C 0.66911 0.68712 0.72639 0.0
C433 C 0.67536 0.67174 0.69658 0.0
C434 C 0.65407 0.67459 0.7565 0.0
C435 C 0.64537 0.64628 0.75784 0.0
C436 C 0.65152 0.63098 0.72799 0.0
H437 H 0.59666 0.53185 0.95784 0.0
H438 H 0.61975 0.55853 0.90498 0.0
C439 C 0.66632 0.64352 0.69778 0.0
C440 C 0.62959 0.63245 0.78984 0.0
H441 H 0.63383 0.61411 0.89319 0.0
C442 C 0.60333 0.62014 0.77737 0.0
C443 C 0.6408 0.63003 0.8322 0.0
C444 C 0.66952 0.6414 0.84775 0.0
C445 C 0.58811 0.6054 0.8059 0.0
C446 C 0.59911 0.6034 0.84824 0.0
C447 C 0.62528 0.61584 0.86076 0.0
C448 C 0.5846 0.58727 0.88002 0.0
C449 C 0.56085 0.59128 0.79033 0.0
C450 C 0.55712 0.5945 0.88379 0.0
C451 C 0.54385 0.57916 0.91401 0.0
C452 C 0.558 0.5566 0.94136 0.0
C453 C 0.58538 0.54933 0.93744 0.0
C454 C 0.59858 0.56456 0.90722 0.0
H455 H 0.55907 0.58865 0.7577 0.0
H456 H 0.55903 0.57016 0.80867 0.0
H457 H 0.54279 0.60453 0.79287 0.0
H458 H 0.54608 0.61226 0.86374 0.0
H459 H 0.52281 0.58534 0.91662 0.0
H460 H 0.85685 0.19496 0.14683 0.0
H461 H 0.88313 0.17217 0.21326 0.0
H462 H 0.87205 0.09095 0.17203 0.0
H463 H 0.84684 0.11375 0.10555 0.0
H464 H 0.87148 0.13148 0.27335 0.0
H465 H 0.95643 0.09305 0.20366 0.0
H466 H 0.92979 0.11799 0.17523 0.0
H467 H 0.92233 0.08071 0.18274 0.0
C468 C 0.85986 0.17223 0.15232 0.0
C469 C 0.85017 0.15607 0.12118 0.0
C470 C 0.8749 0.15923 0.19011 0.0
C471 C 0.88027 0.12993 0.19723 0.0
C472 C 0.86902 0.11367 0.16684 0.0
H473 H 0.96404 0.01067 0.40419 0.0
H474 H 0.93503 0.03337 0.34014 0.0
C475 C 0.85441 0.12665 0.12904 0.0
C476 C 0.89805 0.1163 0.23597 0.0
H477 H 0.9566 0.07456 0.27367 0.0
C478 C 0.89015 0.11916 0.27339 0.0
C479 C 0.92261 0.10038 0.23611 0.0
C480 C 0.93348 0.09807 0.19732 0.0
C481 C 0.90579 0.10603 0.31079 0.0
C482 C 0.92989 0.08966 0.31073 0.0
C483 C 0.93789 0.08689 0.27347 0.0
C484 C 0.94757 0.07591 0.34919 0.0
C485 C 0.89643 0.10957 0.35018 0.0
C486 C 0.96458 0.09232 0.37491 0.0
C487 C 0.98158 0.07942 0.41094 0.0
C488 C 0.98161 0.04986 0.42225 0.0
C489 C 0.9647 0.03344 0.39618 0.0
C490 C 0.94796 0.04637 0.35978 0.0
H491 H 0.87462 0.11824 0.34485 0.0
H492 H 0.89746 0.08904 0.37093 0.0
H493 H 0.91092 0.1244 0.36585 0.0
H494 H 0.96485 0.11513 0.36697 0.0
H495 H 0.99472 0.09265 0.42992 0.0
H496 H 0.37106 0.31049 0.55004 0.0
H497 H 0.38603 0.33052 0.61331 0.0
H498 H 0.36288 0.4139 0.54786 0.0
H499 H 0.34678 0.39395 0.48525 0.0
H500 H 0.42827 0.36645 0.62679 0.0
H501 H 0.33111 0.41646 0.64932 0.0
H502 H 0.33054 0.3914 0.61417 0.0
H503 H 0.33815 0.4281 0.59887 0.0
C504 C 0.36831 0.33296 0.54944 0.0
C505 C 0.35776 0.35062 0.51253 0.0
C506 C 0.37711 0.34443 0.58557 0.0
C507 C 0.37537 0.37372 0.58556 0.0
C508 C 0.36391 0.3912 0.54903 0.0
H509 H 0.4842 0.4775 0.73324 0.0
H510 H 0.46088 0.44944 0.68226 0.0
C511 C 0.355 0.37978 0.51306 0.0
C512 C 0.3879 0.38644 0.62243 0.0
H513 H 0.37503 0.43427 0.68279 0.0
C514 C 0.41648 0.38097 0.63939 0.0
C515 C 0.37253 0.4051 0.63941 0.0
C516 C 0.34131 0.41036 0.62475 0.0
C517 C 0.43038 0.39451 0.67157 0.0
C518 C 0.41551 0.41467 0.68656 0.0
C519 C 0.38661 0.41919 0.67088 0.0
C520 C 0.42966 0.43176 0.71776 0.0
C521 C 0.46087 0.38698 0.68918 0.0
C522 C 0.41936 0.43199 0.75421 0.0
C523 C 0.43233 0.44853 0.78316 0.0
C524 C 0.45588 0.46528 0.77627 0.0
C525 C 0.466 0.46511 0.73954 0.0
C526 C 0.45293 0.4487 0.71055 0.0
H527 H 0.46616 0.36543 0.68419 0.0
H528 H 0.47467 0.40216 0.67366 0.0
H529 H 0.46572 0.38794 0.72251 0.0
H530 H 0.40127 0.41933 0.76031 0.0
H531 H 0.42359 0.44848 0.81068 0.0
H532 H 0.64564 0.69232 0.54767 0.0
H533 H 0.62983 0.67308 0.48422 0.0
H534 H 0.71598 0.65286 0.47982 0.0
H535 H 0.7319 0.67115 0.54432 0.0
H536 H 0.64142 0.68473 0.40608 0.0
H537 H 0.67792 0.57626 0.47872 0.0
H538 H 0.67638 0.60456 0.50805 0.0
H539 H 0.70486 0.60275 0.48053 0.0
C540 C 0.66127 0.68386 0.53316 0.0
C541 C 0.69 0.6829 0.55144 0.0
C542 C 0.6522 0.673 0.49674 0.0
C543 C 0.67162 0.66092 0.4777 0.0
C544 C 0.70053 0.66148 0.49446 0.0
H545 H 0.63512 0.56208 0.27462 0.0
H546 H 0.6597 0.58996 0.32555 0.0
C547 C 0.70964 0.6723 0.53106 0.0
C548 C 0.66121 0.64668 0.44153 0.0
H549 H 0.65624 0.58205 0.4094 0.0
C550 C 0.64483 0.66232 0.40671 0.0
C551 C 0.66559 0.61739 0.44234 0.0
C552 C 0.68192 0.59913 0.47948 0.0
C553 C 0.6325 0.64944 0.37294 0.0
C554 C 0.63634 0.62006 0.3742 0.0
C555 C 0.65337 0.60458 0.40847 0.0
C556 C 0.62152 0.60462 0.34148 0.0
C557 C 0.61539 0.66739 0.33623 0.0
C558 C 0.59192 0.60349 0.33364 0.0
C559 C 0.57785 0.5876 0.30465 0.0
C560 C 0.59308 0.57237 0.28291 0.0
C561 C 0.62275 0.57379 0.2905 0.0
C562 C 0.63683 0.5896 0.31971 0.0
H563 H 0.6211 0.69008 0.33494 0.0
H564 H 0.61842 0.6603 0.30734 0.0
H565 H 0.59267 0.66548 0.33824 0.0
H566 H 0.57966 0.61447 0.35056 0.0
H567 H 0.555 0.58719 0.29932 0.0
H568 H 0.89578 0.17552 1.00284 0.0
H569 H 0.9186 0.15909 0.95151 0.0
H570 H 0.83711 0.14481 0.88032 0.0
H571 H 0.81407 0.15958 0.93285 0.0
H572 H 0.87009 0.10068 0.88711 0.0
H573 H 0.93047 0.19578 0.84117 0.0
H574 H 0.93861 0.18466 0.89538 0.0
H575 H 0.90335 0.19647 0.87169 0.0
C576 C 0.88264 0.16893 0.97625 0.0
C577 C 0.85302 0.16883 0.97219 0.0
C578 C 0.89577 0.15992 0.94654 0.0
C579 C 0.87964 0.15112 0.91158 0.0
C580 C 0.85005 0.15167 0.90686 0.0
H581 H 0.96117 0.11196 0.71364 0.0
H582 H 0.93218 0.1333 0.7537 0.0
C583 C 0.83687 0.16042 0.9368 0.0
C584 C 0.89367 0.1394 0.88164 0.0
H585 H 0.94574 0.15213 0.82445 0.0
C586 C 0.8864 0.1121 0.87304 0.0
C587 C 0.91465 0.15437 0.86264 0.0
C588 C 0.922 0.18455 0.86784 0.0
C589 C 0.90013 0.09904 0.84719 0.0
C590 C 0.92242 0.11328 0.83041 0.0
C591 C 0.929 0.14097 0.8378 0.0
C592 C 0.93939 0.09975 0.80557 0.0
C593 C 0.89034 0.07021 0.83785 0.0
C594 C 0.95336 0.07386 0.8214 0.0
C595 C 0.96953 0.06129 0.79823 0.0
C596 C 0.97258 0.07456 0.75889 0.0
C597 C 0.95891 0.10076 0.74339 0.0
C598 C 0.94249 0.11317 0.76645 0.0
H599 H 0.86797 0.0666 0.84132 0.0
H600 H 0.8924 0.06751 0.80629 0.0
H601 H 0.90338 0.05374 0.85972 0.0
H602 H 0.95194 0.0634 0.85189 0.0
H603 H 0.97948 0.04103 0.81114 0.0
H604 H 0.39016 0.32203 0.35109 0.0
H605 H 0.41382 0.34792 0.29823 0.0
H606 H 0.38482 0.42684 0.32362 0.0
H607 H 0.36066 0.40117 0.37605 0.0
H608 H 0.39117 0.38699 0.2273 0.0
H609 H 0.47113 0.43723 0.33443 0.0
H610 H 0.45035 0.40743 0.35141 0.0
H611 H 0.43506 0.44231 0.33916 0.0
C612 C 0.38842 0.34487 0.3451 0.0
C613 C 0.37353 0.35947 0.36808 0.0
C614 C 0.40218 0.35965 0.31504 0.0
C615 C 0.40155 0.38934 0.30749 0.0
C616 C 0.38615 0.40397 0.32957 0.0
H617 H 0.47545 0.5151 0.14045 0.0
H618 H 0.45014 0.4906 0.19266 0.0
C619 C 0.37232 0.38922 0.35953 0.0
C620 C 0.41679 0.40494 0.27623 0.0
H621 H 0.47028 0.45174 0.26361 0.0
C622 C 0.40854 0.40105 0.23525 0.0
C623 C 0.43935 0.42345 0.2866 0.0
C624 C 0.44974 0.42777 0.33031 0.0
C625 C 0.42198 0.41539 0.20432 0.0
C626 C 0.44473 0.43368 0.21468 0.0
C627 C 0.45288 0.43771 0.25566 0.0
C628 C 0.46047 0.44854 0.18344 0.0
C629 C 0.41118 0.41154 0.16058 0.0
C630 C 0.47525 0.4331 0.16153 0.0
C631 C 0.48984 0.44705 0.13192 0.0
C632 C 0.48987 0.47672 0.12341 0.0
C633 C 0.47568 0.49219 0.14611 0.0
C634 C 0.46117 0.47823 0.17589 0.0
H635 H 0.38982 0.40202 0.15661 0.0
H636 H 0.41029 0.43219 0.14017 0.0
H637 H 0.42575 0.39732 0.15089 0.0
H638 H 0.4757 0.41021 0.16754 0.0
H639 H 0.50132 0.43456 0.11594 0.0
H640 H 0.18913 0.91269 0.9597 0.0
H641 H 0.16377 0.93352 0.89245 0.0
H642 H 0.1817 0.85941 0.8428 0.0
H643 H 0.20684 0.83793 0.91073 0.0
H644 H 0.18926 0.92121 0.79491 0.0
H645 H 0.08514 0.89601 0.84096 0.0
H646 H 0.11134 0.91105 0.87678 0.0
H647 H 0.11695 0.87642 0.86537 0.0
C648 C 0.18767 0.9007 0.93457 0.0
C649 C 0.19954 0.87338 0.94076 0.0
C650 C 0.17331 0.91275 0.89612 0.0
C651 C 0.17063 0.89787 0.86288 0.0
C652 C 0.18352 0.87116 0.86823 0.0
H653 H 0.04804 0.93886 0.63781 0.0
H654 H 0.07835 0.91493 0.69943 0.0
C655 C 0.19791 0.85897 0.90695 0.0
C656 C 0.15314 0.90998 0.82328 0.0
H657 H 0.08482 0.92581 0.77796 0.0
C658 C 0.16642 0.92204 0.79094 0.0
C659 C 0.12339 0.91095 0.81832 0.0
C660 C 0.10819 0.89779 0.85201 0.0
C661 C 0.15063 0.93562 0.7539 0.0
C662 C 0.12085 0.93735 0.74938 0.0
C663 C 0.10763 0.92464 0.78149 0.0
C664 C 0.10289 0.95205 0.71159 0.0
C665 C 0.16599 0.94791 0.71997 0.0
C666 C 0.10626 0.98101 0.69823 0.0
C667 C 0.08905 0.99469 0.66278 0.0
C668 C 0.06813 0.97964 0.64018 0.0
C669 C 0.06431 0.95087 0.65423 0.0
C670 C 0.08154 0.93721 0.68953 0.0
H671 H 0.18691 0.93759 0.72319 0.0
H672 H 0.15348 0.94574 0.68951 0.0
H673 H 0.16956 0.97077 0.7212 0.0
H674 H 0.12215 0.99306 0.71529 0.0
H675 H 0.09242 0.01691 0.65271 0.0
loop_
_geom_bond_atom_site_label_1
_geom_bond_atom_site_label_2
_geom_bond_distance
_geom_bond_site_symmetry_2
_ccdc_geom_bond_type
H0 C1 0.949 . S
C1 H0 0.949 . S
C1 C2 1.395 . S
C1 C3 1.391 . S
C2 C1 1.395 . S
C2 C5 1.390 . S
C3 C1 1.391 . S
C3 C7 1.387 1_554 S
C3 C8 1.491 . S
H4 C5 0.950 . S
C5 C2 1.390 . S
C5 H4 0.950 . S
C5 C6 1.378 1_554 S
C6 C5 1.378 1_556 S
C6 C7 1.409 . S
C7 C3 1.387 1_556 S
C7 C6 1.409 . S
C7 H9 0.951 . S
C8 C3 1.491 . S
C8 C10 1.382 . S
C8 C12 1.404 1_554 S
H9 C7 0.951 . S
C10 C8 1.382 . S
C10 C11 1.390 . S
C10 H15 0.949 . S
C11 C10 1.390 . S
C11 C16 1.399 . S
C12 C8 1.404 1_556 S
C12 H13 0.950 . S
C12 C14 1.375 . S
H13 C12 0.950 . S
C14 C12 1.375 . S
C14 C16 1.382 1_556 S
C14 H18 0.950 . S
H15 C10 0.949 . S
C16 C11 1.399 . S
C16 C14 1.382 1_554 S
C16 H17 0.952 . S
H17 C16 0.952 . S
H18 C14 0.950 . S
H19 C20 0.949 . S
C20 H19 0.949 . S
C20 C21 1.395 . S
C20 C22 1.391 . S
C21 C20 1.395 . S
C21 C24 1.390 . S
C22 C20 1.391 . S
C22 C26 1.387 . S
C22 C27 1.491 . S
H23 C24 0.950 . S
C24 C21 1.390 . S
C24 H23 0.950 . S
C24 C25 1.378 . S
C25 C24 1.378 . S
C25 C26 1.409 . S
C26 C22 1.387 . S
C26 C25 1.409 . S
C26 H28 0.951 . S
C27 C22 1.491 . S
C27 C29 1.382 . S
C27 C31 1.404 . S
H28 C26 0.951 . S
C29 C27 1.382 . S
C29 C30 1.390 . S
C29 H34 0.949 . S
C30 C29 1.390 . S
C30 C35 1.399 . S
C31 C27 1.404 . S
C31 H32 0.950 . S
C31 C33 1.375 . S
H32 C31 0.950 . S
C33 C31 1.375 . S
C33 C35 1.382 . S
C33 H37 0.950 . S
H34 C29 0.949 . S
C35 C30 1.399 . S
C35 C33 1.382 . S
C35 H36 0.952 . S
H36 C35 0.952 . S
H37 C33 0.950 . S
H38 C39 0.949 . S
C39 H38 0.949 . S
C39 C40 1.395 . S
C39 C41 1.391 . S
C40 C39 1.395 . S
C40 C43 1.390 . S
C41 C39 1.391 . S
C41 C45 1.387 1_554 S
C41 C46 1.491 1_554 S
H42 C43 0.950 . S
C43 C40 1.390 . S
C43 H42 0.950 . S
C43 C44 1.378 1_554 S
C44 C43 1.378 1_556 S
C44 C45 1.409 . S
C45 C41 1.387 1_556 S
C45 C44 1.409 . S
C45 H47 0.951 . S
C46 C41 1.491 1_556 S
C46 C48 1.382 1_556 S
C46 C50 1.404 . S
H47 C45 0.951 . S
C48 C46 1.382 1_554 S
C48 C49 1.390 . S
C48 H53 0.949 . S
C49 C48 1.390 . S
C49 C54 1.399 1_554 S
C50 C46 1.404 . S
C50 H51 0.950 . S
C50 C52 1.375 . S
H51 C50 0.950 . S
C52 C50 1.375 . S
C52 C54 1.382 . S
C52 H56 0.950 . S
H53 C48 0.949 . S
C54 C49 1.399 1_556 S
C54 C52 1.382 . S
C54 H55 0.952 . S
H55 C54 0.952 . S
H56 C52 0.950 . S
H57 C58 0.949 . S
C58 H57 0.949 . S
C58 C59 1.395 . S
C58 C60 1.391 . S
C59 C58 1.395 . S
C59 C62 1.390 . S
C60 C58 1.391 . S
C60 C64 1.387 . S
C60 C65 1.491 . S
H61 C62 0.950 . S
C62 C59 1.390 . S
C62 H61 0.950 . S
C62 C63 1.378 . S
C63 C62 1.378 . S
C63 C64 1.409 . S
C64 C60 1.387 . S
C64 C63 1.409 . S
C64 H66 0.951 . S
C65 C60 1.491 . S
C65 C67 1.382 . S
C65 C69 1.404 . S
H66 C64 0.951 . S
C67 C65 1.382 . S
C67 C68 1.390 . S
C67 H72 0.949 . S
C68 C67 1.390 . S
C68 C73 1.399 . S
C69 C65 1.404 . S
C69 H70 0.950 . S
C69 C71 1.375 . S
H70 C69 0.950 . S
C71 C69 1.375 . S
C71 C73 1.382 . S
C71 H75 0.950 . S
H72 C67 0.949 . S
C73 C68 1.399 . S
C73 C71 1.382 . S
C73 H74 0.952 . S
H74 C73 0.952 . S
H75 C71 0.950 . S
C76 C78 1.422 . S
C76 C80 1.415 . S
C76 N82 1.369 . S
C77 C78 1.421 . S
C77 C79 1.417 . S
C77 C89 1.422 . S
C78 C76 1.422 . S
C78 C77 1.421 . S
C78 N88 1.359 . S
C79 C77 1.417 . S
C79 C81 1.329 . S
C79 H98 0.930 . S
C80 C76 1.415 . S
C80 C81 1.437 . S
C80 C84 1.413 . S
C81 C79 1.329 . S
C81 C80 1.437 . S
C81 H103 0.929 . S
N82 C76 1.369 . S
N82 C83 1.338 1_655 S
N82 Gd87 2.622 . S
C83 N82 1.338 1_455 S
C83 C85 1.378 . S
C83 H95 0.929 . S
C84 C80 1.413 . S
C84 C85 1.348 1_655 S
C84 H100 0.931 . S
C85 C83 1.378 . S
C85 C84 1.348 1_455 S
C85 H101 0.930 . S
Gd86 N106 2.622 . S
Gd86 N113 2.570 . S
Gd86 O120 2.353 1_565 S
Gd86 O121 2.468 . S
Gd86 O122 2.427 . S
Gd86 O124 2.388 1_455 S
Gd86 O125 2.386 . S
Gd86 O129 2.307 1_565 S
Gd86 C139 2.805 . S
Gd87 N82 2.622 . S
Gd87 N88 2.570 . S
Gd87 O119 2.386 . S
Gd87 O123 2.307 1_545 S
Gd87 O126 2.353 1_655 S
Gd87 O127 2.468 . S
Gd87 O128 2.427 1_655 S
Gd87 O130 2.388 1_655 S
Gd87 C151 2.805 . S
N88 C78 1.359 . S
N88 Gd87 2.570 . S
N88 C90 1.343 . S
C89 C77 1.422 . S
C89 C91 1.321 . S
C89 H97 0.931 . S
C90 N88 1.343 . S
C90 C91 1.390 . S
C90 H92 0.931 . S
C91 C89 1.321 . S
C91 C90 1.390 . S
C91 H93 0.930 . S
H92 C90 0.931 . S
H93 C91 0.930 . S
H94 C117 0.931 . S
H95 C83 0.929 . S
H96 C118 0.930 . S
H97 C89 0.931 . S
H98 C79 0.930 . S
H99 C108 0.929 1_655 S
H100 C84 0.931 . S
H101 C85 0.930 . S
H102 C140 0.930 . S
H103 C81 0.929 . S
H104 C109 0.931 . S
H105 C110 0.930 1_655 S
N106 Gd86 2.622 . S
N106 C107 1.369 . S
N106 C108 1.338 . S
C107 N106 1.369 . S
C107 C111 1.415 . S
C107 C114 1.422 . S
C108 H99 0.929 1_455 S
C108 N106 1.338 . S
C108 C110 1.378 . S
C109 H104 0.931 . S
C109 C110 1.348 . S
C109 C111 1.413 . S
C110 H105 0.930 1_455 S
C110 C108 1.378 . S
C110 C109 1.348 . S
C111 C107 1.415 . S
C111 C109 1.413 . S
C111 C141 1.437 . S
H112 C141 0.929 . S
N113 Gd86 2.570 . S
N113 C114 1.359 . S
N113 C117 1.343 . S
C114 C107 1.422 . S
C114 N113 1.359 . S
C114 C116 1.421 . S
C115 C116 1.422 . S
C115 C118 1.321 . S
C115 H142 0.931 . S
C116 C114 1.421 . S
C116 C115 1.422 . S
C116 C140 1.417 . S
C117 H94 0.931 . S
C117 N113 1.343 . S
C117 C118 1.390 . S
C118 H96 0.930 . S
C118 C115 1.321 . S
C118 C117 1.390 . S
O119 Gd87 2.386 . S
O119 C131 1.265 . S
O120 Gd86 2.353 1_545 S
O120 C131 1.242 1_455 S
O121 Gd86 2.468 . S
O121 C139 1.263 . S
O122 Gd86 2.427 . S
O122 C139 1.252 . S
O123 Gd87 2.307 1_565 S
O123 C132 1.261 . S
O124 Gd86 2.388 1_655 S
O124 C132 1.252 . S
O125 Gd86 2.386 . S
O125 C143 1.265 . S
O126 Gd87 2.353 1_455 S
O126 C143 1.242 1_545 S
O127 Gd87 2.468 . S
O127 C151 1.263 . S
O128 Gd87 2.427 1_455 S
O128 C151 1.252 1_455 S
O129 Gd86 2.307 1_545 S
O129 C144 1.261 . S
O130 Gd87 2.388 1_455 S
O130 C144 1.252 . S
C131 O119 1.265 . S
C131 O120 1.242 1_655 S
C132 O123 1.261 . S
C132 O124 1.252 . S
C133 C136 1.394 . S
C133 C138 1.370 . S
C133 C139 1.500 . S
C134 C137 1.383 . S
C134 C138 1.395 . S
C135 C136 1.396 . S
C135 C137 1.365 . S
C135 H152 0.929 . S
C136 C133 1.394 . S
C136 C135 1.396 . S
C136 H153 0.930 . S
C137 C134 1.383 . S
C137 C135 1.365 . S
C137 H154 0.931 . S
C138 C133 1.370 . S
C138 C134 1.395 . S
C138 H155 0.930 . S
C139 Gd86 2.805 . S
C139 O121 1.263 . S
C139 O122 1.252 . S
C139 C133 1.500 . S
C140 H102 0.930 . S
C140 C116 1.417 . S
C140 C141 1.329 . S
C141 C111 1.437 . S
C141 H112 0.929 . S
C141 C140 1.329 . S
H142 C115 0.931 . S
C143 O125 1.265 . S
C143 O126 1.242 1_565 S
C144 O129 1.261 . S
C144 O130 1.252 . S
C145 C148 1.394 . S
C145 C150 1.370 . S
C145 C151 1.500 . S
C146 C149 1.383 . S
C146 C150 1.395 . S
C147 C148 1.396 . S
C147 C149 1.365 . S
C147 H156 0.929 . S
C148 C145 1.394 . S
C148 C147 1.396 . S
C148 H157 0.930 1_655 S
C149 C146 1.383 . S
C149 C147 1.365 . S
C149 H158 0.931 . S
C150 C145 1.370 . S
C150 C146 1.395 . S
C150 H159 0.930 . S
C151 Gd87 2.805 . S
C151 O127 1.263 . S
C151 O128 1.252 1_655 S
C151 C145 1.500 . S
H152 C135 0.929 . S
H153 C136 0.930 . S
H154 C137 0.931 . S
H155 C138 0.930 . S
H156 C147 0.929 . S
H157 C148 0.930 1_455 S
H158 C149 0.931 . S
H159 C150 0.930 . S
C160 C162 1.422 . S
C160 C164 1.415 . S
C160 N166 1.369 . S
C161 C162 1.421 . S
C161 C163 1.417 . S
C161 C173 1.422 . S
C162 C160 1.422 . S
C162 C161 1.421 . S
C162 N172 1.359 . S
C163 C161 1.417 . S
C163 C165 1.329 . S
C163 H182 0.930 . S
C164 C160 1.415 . S
C164 C165 1.437 . S
C164 C168 1.413 . S
C165 C163 1.329 . S
C165 C164 1.437 . S
C165 H187 0.929 . S
N166 C160 1.369 . S
N166 C167 1.338 . S
N166 Gd171 2.622 . S
C167 N166 1.338 . S
C167 C169 1.378 . S
C167 H179 0.929 . S
C168 C164 1.413 . S
C168 C169 1.348 . S
C168 H184 0.931 . S
C169 C167 1.378 . S
C169 C168 1.348 . S
C169 H185 0.930 . S
Gd170 N190 2.622 . S
Gd170 N197 2.570 1_556 S
Gd170 O204 2.353 . S
Gd170 O205 2.468 . S
Gd170 O206 2.427 . S
Gd170 O208 2.388 1_556 S
Gd170 O209 2.386 1_556 S
Gd170 O213 2.307 1_556 S
Gd170 C223 2.805 . S
Gd171 N166 2.622 . S
Gd171 N172 2.570 . S
Gd171 O203 2.386 . S
Gd171 O207 2.307 . S
Gd171 O210 2.353 . S
Gd171 O211 2.468 . S
Gd171 O212 2.427 . S
Gd171 O214 2.388 . S
Gd171 C235 2.805 . S
N172 C162 1.359 . S
N172 Gd171 2.570 . S
N172 C174 1.343 . S
C173 C161 1.422 . S
C173 C175 1.321 . S
C173 H181 0.931 . S
C174 N172 1.343 . S
C174 C175 1.390 . S
C174 H176 0.931 . S
C175 C173 1.321 . S
C175 C174 1.390 . S
C175 H177 0.930 . S
H176 C174 0.931 . S
H177 C175 0.930 . S
H178 C201 0.931 . S
H179 C167 0.929 . S
H180 C202 0.930 . S
H181 C173 0.931 . S
H182 C163 0.930 . S
H183 C192 0.929 . S
H184 C168 0.931 . S
H185 C169 0.930 . S
H186 C224 0.930 . S
H187 C165 0.929 . S
H188 C193 0.931 . S
H189 C194 0.930 . S
N190 Gd170 2.622 . S
N190 C191 1.369 1_556 S
N190 C192 1.338 . S
C191 N190 1.369 1_554 S
C191 C195 1.415 . S
C191 C198 1.422 . S
C192 H183 0.929 . S
C192 N190 1.338 . S
C192 C194 1.378 . S
C193 H188 0.931 . S
C193 C194 1.348 1_554 S
C193 C195 1.413 . S
C194 H189 0.930 . S
C194 C192 1.378 . S
C194 C193 1.348 1_556 S
C195 C191 1.415 . S
C195 C193 1.413 . S
C195 C225 1.437 . S
H196 C225 0.929 . S
N197 Gd170 2.570 1_554 S
N197 C198 1.359 . S
N197 C201 1.343 . S
C198 C191 1.422 . S
C198 N197 1.359 . S
C198 C200 1.421 . S
C199 C200 1.422 . S
C199 C202 1.321 . S
C199 H226 0.931 . S
C200 C198 1.421 . S
C200 C199 1.422 . S
C200 C224 1.417 . S
C201 H178 0.931 . S
C201 N197 1.343 . S
C201 C202 1.390 . S
C202 H180 0.930 . S
C202 C199 1.321 . S
C202 C201 1.390 . S
O203 Gd171 2.386 . S
O203 C215 1.265 1_554 S
O204 Gd170 2.353 . S
O204 C215 1.242 . S
O205 Gd170 2.468 . S
O205 C223 1.263 . S
O206 Gd170 2.427 . S
O206 C223 1.252 . S
O207 Gd171 2.307 . S
O207 C216 1.261 . S
O208 Gd170 2.388 1_554 S
O208 C216 1.252 . S
O209 Gd170 2.386 1_554 S
O209 C227 1.265 . S
O210 Gd171 2.353 . S
O210 C227 1.242 . S
O211 Gd171 2.468 . S
O211 C235 1.263 . S
O212 Gd171 2.427 . S
O212 C235 1.252 . S
O213 Gd170 2.307 1_554 S
O213 C228 1.261 . S
O214 Gd171 2.388 . S
O214 C228 1.252 . S
C215 O203 1.265 1_556 S
C215 O204 1.242 . S
C216 O207 1.261 . S
C216 O208 1.252 . S
C217 C220 1.394 . S
C217 C222 1.370 . S
C217 C223 1.500 . S
C218 C221 1.383 . S
C218 C222 1.395 . S
C219 C220 1.396 . S
C219 C221 1.365 . S
C219 H236 0.929 . S
C220 C217 1.394 . S
C220 C219 1.396 . S
C220 H237 0.930 . S
C221 C218 1.383 . S
C221 C219 1.365 . S
C221 H238 0.931 . S
C222 C217 1.370 . S
C222 C218 1.395 . S
C222 H239 0.930 . S
C223 Gd170 2.805 . S
C223 O205 1.263 . S
C223 O206 1.252 . S
C223 C217 1.500 . S
C224 H186 0.930 . S
C224 C200 1.417 . S
C224 C225 1.329 . S
C225 C195 1.437 . S
C225 H196 0.929 . S
C225 C224 1.329 . S
H226 C199 0.931 . S
C227 O209 1.265 . S
C227 O210 1.242 . S
C228 O213 1.261 . S
C228 O214 1.252 . S
C229 C232 1.394 . S
C229 C234 1.370 . S
C229 C235 1.500 . S
C230 C233 1.383 . S
C230 C234 1.395 . S
C231 C232 1.396 . S
C231 C233 1.365 . S
C231 H240 0.929 . S
C232 C229 1.394 . S
C232 C231 1.396 . S
C232 H241 0.930 . S
C233 C230 1.383 . S
C233 C231 1.365 . S
C233 H242 0.931 . S
C234 C229 1.370 . S
C234 C230 1.395 . S
C234 H243 0.930 . S
C235 Gd171 2.805 . S
C235 O211 1.263 . S
C235 O212 1.252 . S
C235 C229 1.500 . S
H236 C219 0.929 . S
H237 C220 0.930 . S
H238 C221 0.931 . S
H239 C222 0.930 . S
H240 C231 0.929 . S
H241 C232 0.930 . S
H242 C233 0.931 . S
H243 C234 0.930 . S
H244 C252 0.929 . S
H245 C254 0.930 . S
H246 C256 0.930 . S
H247 C259 0.929 . S
H248 C262 0.930 . S
H249 C264 0.960 . S
H250 C264 0.960 . S
H251 C264 0.960 . S
C252 H244 0.929 . S
C252 C253 1.377 . S
C252 C254 1.384 . S
C253 C252 1.377 . S
C253 C259 1.390 . S
C254 H245 0.930 . S
C254 C252 1.384 . S
C254 C255 1.372 . S
C255 C254 1.372 . S
C255 C256 1.400 . S
C255 C260 1.490 . S
C256 H246 0.930 . S
C256 C255 1.400 . S
C256 C259 1.386 . S
H257 C273 0.930 . S
H258 C274 0.931 . S
C259 H247 0.929 . S
C259 C253 1.390 . S
C259 C256 1.386 . S
C260 C255 1.490 . S
C260 C262 1.395 . S
C260 C263 1.403 . S
H261 C267 0.930 . S
C262 H248 0.930 . S
C262 C260 1.395 . S
C262 C265 1.403 . S
C263 C260 1.403 . S
C263 C264 1.524 . S
C263 C267 1.400 . S
C264 H249 0.960 . S
C264 H250 0.960 . S
C264 H251 0.960 . S
C264 C263 1.524 . S
C265 C262 1.403 . S
C265 C266 1.392 . S
C265 C269 1.495 . S
C266 C265 1.392 . S
C266 C267 1.385 . S
C266 C268 1.478 . S
C267 H261 0.930 . S
C267 C263 1.400 . S
C267 C266 1.385 . S
C268 C266 1.478 . S
C268 C270 1.381 . S
C268 C274 1.383 . S
C269 C265 1.495 . S
C269 H275 0.959 . S
C269 H276 0.961 . S
C269 H277 0.960 . S
C270 C268 1.381 . S
C270 C271 1.394 . S
C270 H278 0.930 . S
C271 C270 1.394 . S
C271 C272 1.383 . S
C271 H279 0.929 . S
C272 C271 1.383 . S
C272 C273 1.377 . S
C273 H257 0.930 . S
C273 C272 1.377 . S
C273 C274 1.379 . S
C274 H258 0.931 . S
C274 C268 1.383 . S
C274 C273 1.379 . S
H275 C269 0.959 . S
H276 C269 0.961 . S
H277 C269 0.960 . S
H278 C270 0.930 . S
H279 C271 0.929 . S
H280 C288 0.929 1_556 S
H281 C290 0.930 1_556 S
H282 C292 0.930 . S
H283 C295 0.929 . S
H284 C298 0.930 . S
H285 C300 0.960 . S
H286 C300 0.960 . S
H287 C300 0.960 . S
C288 H280 0.929 1_554 S
C288 C289 1.377 . S
C288 C290 1.384 . S
C289 C288 1.377 . S
C289 C295 1.390 . S
C290 H281 0.930 1_554 S
C290 C288 1.384 . S
C290 C291 1.372 . S
C291 C290 1.372 . S
C291 C292 1.400 . S
C291 C296 1.490 . S
C292 H282 0.930 . S
C292 C291 1.400 . S
C292 C295 1.386 . S
H293 C309 0.930 . S
H294 C310 0.931 . S
C295 H283 0.929 . S
C295 C289 1.390 . S
C295 C292 1.386 . S
C296 C291 1.490 . S
C296 C298 1.395 . S
C296 C299 1.403 . S
H297 C303 0.930 . S
C298 H284 0.930 . S
C298 C296 1.395 . S
C298 C301 1.403 . S
C299 C296 1.403 . S
C299 C300 1.524 . S
C299 C303 1.400 . S
C300 H285 0.960 . S
C300 H286 0.960 . S
C300 H287 0.960 . S
C300 C299 1.524 . S
C301 C298 1.403 . S
C301 C302 1.392 . S
C301 C305 1.495 . S
C302 C301 1.392 . S
C302 C303 1.385 . S
C302 C304 1.478 . S
C303 H297 0.930 . S
C303 C299 1.400 . S
C303 C302 1.385 . S
C304 C302 1.478 . S
C304 C306 1.381 . S
C304 C310 1.383 . S
C305 C301 1.495 . S
C305 H311 0.959 1_554 S
C305 H312 0.961 . S
C305 H313 0.960 1_554 S
C306 C304 1.381 . S
C306 C307 1.394 . S
C306 H314 0.930 1_554 S
C307 C306 1.394 . S
C307 C308 1.383 . S
C307 H315 0.929 1_554 S
C308 C307 1.383 . S
C308 C309 1.377 . S
C309 H293 0.930 . S
C309 C308 1.377 . S
C309 C310 1.379 . S
C310 H294 0.931 . S
C310 C304 1.383 . S
C310 C309 1.379 . S
H311 C305 0.959 1_556 S
H312 C305 0.961 . S
H313 C305 0.960 1_556 S
H314 C306 0.930 1_556 S
H315 C307 0.929 1_556 S
H316 C324 0.929 . S
H317 C326 0.930 . S
H318 C328 0.930 . S
H319 C331 0.929 . S
H320 C334 0.930 . S
H321 C336 0.960 . S
H322 C336 0.960 . S
H323 C336 0.960 . S
C324 H316 0.929 . S
C324 C325 1.377 . S
C324 C326 1.384 . S
C325 C324 1.377 . S
C325 C331 1.390 . S
C326 H317 0.930 . S
C326 C324 1.384 . S
C326 C327 1.372 . S
C327 C326 1.372 . S
C327 C328 1.400 . S
C327 C332 1.490 . S
C328 H318 0.930 . S
C328 C327 1.400 . S
C328 C331 1.386 . S
H329 C345 0.930 . S
H330 C346 0.931 . S
C331 H319 0.929 . S
C331 C325 1.390 . S
C331 C328 1.386 . S
C332 C327 1.490 . S
C332 C334 1.395 . S
C332 C335 1.403 . S
H333 C339 0.930 . S
C334 H320 0.930 . S
C334 C332 1.395 . S
C334 C337 1.403 . S
C335 C332 1.403 . S
C335 C336 1.524 . S
C335 C339 1.400 . S
C336 H321 0.960 . S
C336 H322 0.960 . S
C336 H323 0.960 . S
C336 C335 1.524 . S
C337 C334 1.403 . S
C337 C338 1.392 . S
C337 C341 1.495 . S
C338 C337 1.392 . S
C338 C339 1.385 . S
C338 C340 1.478 . S
C339 H333 0.930 . S
C339 C335 1.400 . S
C339 C338 1.385 . S
C340 C338 1.478 . S
C340 C342 1.381 . S
C340 C346 1.383 . S
C341 C337 1.495 . S
C341 H347 0.959 . S
C341 H348 0.961 . S
C341 H349 0.960 . S
C342 C340 1.381 . S
C342 C343 1.394 . S
C342 H350 0.930 . S
C343 C342 1.394 . S
C343 C344 1.383 . S
C343 H351 0.929 . S
C344 C343 1.383 . S
C344 C345 1.377 . S
C345 H329 0.930 . S
C345 C344 1.377 . S
C345 C346 1.379 . S
C346 H330 0.931 . S
C346 C340 1.383 . S
C346 C345 1.379 . S
H347 C341 0.959 . S
H348 C341 0.961 . S
H349 C341 0.960 . S
H350 C342 0.930 . S
H351 C343 0.929 . S
H352 C360 0.929 . S
H353 C362 0.930 . S
H354 C364 0.930 . S
H355 C367 0.929 . S
H356 C370 0.930 . S
H357 C372 0.960 . S
H358 C372 0.960 . S
H359 C372 0.960 . S
C360 H352 0.929 . S
C360 C361 1.377 1_556 S
C360 C362 1.384 . S
C361 C360 1.377 1_554 S
C361 C367 1.390 . S
C362 H353 0.930 . S
C362 C360 1.384 . S
C362 C363 1.372 1_556 S
C363 C362 1.372 1_554 S
C363 C364 1.400 . S
C363 C368 1.490 . S
C364 H354 0.930 . S
C364 C363 1.400 . S
C364 C367 1.386 . S
H365 C381 0.930 . S
H366 C382 0.931 . S
C367 H355 0.929 . S
C367 C361 1.390 . S
C367 C364 1.386 . S
C368 C363 1.490 . S
C368 C370 1.395 . S
C368 C371 1.403 . S
H369 C375 0.930 . S
C370 H356 0.930 . S
C370 C368 1.395 . S
C370 C373 1.403 . S
C371 C368 1.403 . S
C371 C372 1.524 . S
C371 C375 1.400 . S
C372 H357 0.960 . S
C372 H358 0.960 . S
C372 H359 0.960 . S
C372 C371 1.524 . S
C373 C370 1.403 . S
C373 C374 1.392 . S
C373 C377 1.495 . S
C374 C373 1.392 . S
C374 C375 1.385 . S
C374 C376 1.478 . S
C375 H369 0.930 . S
C375 C371 1.400 . S
C375 C374 1.385 . S
C376 C374 1.478 . S
C376 C378 1.381 1_554 S
C376 C382 1.383 . S
C377 C373 1.495 . S
C377 H383 0.959 . S
C377 H384 0.961 . S
C377 H385 0.960 1_554 S
C378 C376 1.381 1_556 S
C378 C379 1.394 . S
C378 H386 0.930 . S
C379 C378 1.394 . S
C379 C380 1.383 1_556 S
C379 H387 0.929 . S
C380 C379 1.383 1_554 S
C380 C381 1.377 . S
C381 H365 0.930 . S
C381 C380 1.377 . S
C381 C382 1.379 . S
C382 H366 0.931 . S
C382 C376 1.383 . S
C382 C381 1.379 . S
H383 C377 0.959 . S
H384 C377 0.961 . S
H385 C377 0.960 1_556 S
H386 C378 0.930 . S
H387 C379 0.929 . S
H388 C396 0.929 . S
H389 C398 0.930 . S
H390 C400 0.930 . S
H391 C403 0.929 . S
H392 C406 0.930 . S
H393 C408 0.960 . S
H394 C408 0.960 . S
H395 C408 0.960 . S
C396 H388 0.929 . S
C396 C397 1.377 . S
C396 C398 1.384 . S
C397 C396 1.377 . S
C397 C403 1.390 . S
C398 H389 0.930 . S
C398 C396 1.384 . S
C398 C399 1.372 . S
C399 C398 1.372 . S
C399 C400 1.400 . S
C399 C404 1.490 . S
C400 H390 0.930 . S
C400 C399 1.400 . S
C400 C403 1.386 . S
H401 C417 0.930 . S
H402 C418 0.931 . S
C403 H391 0.929 . S
C403 C397 1.390 . S
C403 C400 1.386 . S
C404 C399 1.490 . S
C404 C406 1.395 . S
C404 C407 1.403 . S
H405 C411 0.930 . S
C406 H392 0.930 . S
C406 C404 1.395 . S
C406 C409 1.403 . S
C407 C404 1.403 . S
C407 C408 1.524 . S
C407 C411 1.400 . S
C408 H393 0.960 . S
C408 H394 0.960 . S
C408 H395 0.960 . S
C408 C407 1.524 . S
C409 C406 1.403 . S
C409 C410 1.392 . S
C409 C413 1.495 . S
C410 C409 1.392 . S
C410 C411 1.385 . S
C410 C412 1.478 . S
C411 H405 0.930 . S
C411 C407 1.400 . S
C411 C410 1.385 . S
C412 C410 1.478 . S
C412 C414 1.381 . S
C412 C418 1.383 . S
C413 C409 1.495 . S
C413 H419 0.959 . S
C413 H420 0.961 . S
C413 H421 0.960 . S
C414 C412 1.381 . S
C414 C415 1.394 . S
C414 H422 0.930 . S
C415 C414 1.394 . S
C415 C416 1.383 . S
C415 H423 0.929 . S
C416 C415 1.383 . S
C416 C417 1.377 . S
C417 H401 0.930 . S
C417 C416 1.377 . S
C417 C418 1.379 . S
C418 H402 0.931 . S
C418 C412 1.383 . S
C418 C417 1.379 . S
H419 C413 0.959 . S
H420 C413 0.961 . S
H421 C413 0.960 . S
H422 C414 0.930 . S
H423 C415 0.929 . S
H424 C432 0.929 . S
H425 C434 0.930 . S
H426 C436 0.930 . S
H427 C439 0.929 . S
H428 C442 0.930 . S
H429 C444 0.960 . S
H430 C444 0.960 . S
H431 C444 0.960 . S
C432 H424 0.929 . S
C432 C433 1.377 . S
C432 C434 1.384 . S
C433 C432 1.377 . S
C433 C439 1.390 . S
C434 H425 0.930 . S
C434 C432 1.384 . S
C434 C435 1.372 . S
C435 C434 1.372 . S
C435 C436 1.400 . S
C435 C440 1.490 . S
C436 H426 0.930 . S
C436 C435 1.400 . S
C436 C439 1.386 . S
H437 C453 0.930 . S
H438 C454 0.931 . S
C439 H427 0.929 . S
C439 C433 1.390 . S
C439 C436 1.386 . S
C440 C435 1.490 . S
C440 C442 1.395 . S
C440 C443 1.403 . S
H441 C447 0.930 . S
C442 H428 0.930 . S
C442 C440 1.395 . S
C442 C445 1.403 . S
C443 C440 1.403 . S
C443 C444 1.524 . S
C443 C447 1.400 . S
C444 H429 0.960 . S
C444 H430 0.960 . S
C444 H431 0.960 . S
C444 C443 1.524 . S
C445 C442 1.403 . S
C445 C446 1.392 . S
C445 C449 1.495 . S
C446 C445 1.392 . S
C446 C447 1.385 . S
C446 C448 1.478 . S
C447 H441 0.930 . S
C447 C443 1.400 . S
C447 C446 1.385 . S
C448 C446 1.478 . S
C448 C450 1.381 . S
C448 C454 1.383 . S
C449 C445 1.495 . S
C449 H455 0.959 . S
C449 H456 0.961 . S
C449 H457 0.960 . S
C450 C448 1.381 . S
C450 C451 1.394 . S
C450 H458 0.930 . S
C451 C450 1.394 . S
C451 C452 1.383 . S
C451 H459 0.929 . S
C452 C451 1.383 . S
C452 C453 1.377 . S
C453 H437 0.930 . S
C453 C452 1.377 . S
C453 C454 1.379 . S
C454 H438 0.931 . S
C454 C448 1.383 . S
C454 C453 1.379 . S
H455 C449 0.959 . S
H456 C449 0.961 . S
H457 C449 0.960 . S
H458 C450 0.930 . S
H459 C451 0.929 . S
H460 C468 0.929 . S
H461 C470 0.930 . S
H462 C472 0.930 . S
H463 C475 0.929 . S
H464 C478 0.930 . S
H465 C480 0.960 . S
H466 C480 0.960 . S
H467 C480 0.960 . S
C468 H460 0.929 . S
C468 C469 1.377 . S
C468 C470 1.384 . S
C469 C468 1.377 . S
C469 C475 1.390 . S
C470 H461 0.930 . S
C470 C468 1.384 . S
C470 C471 1.372 . S
C471 C470 1.372 . S
C471 C472 1.400 . S
C471 C476 1.490 . S
C472 H462 0.930 . S
C472 C471 1.400 . S
C472 C475 1.386 . S
H473 C489 0.930 . S
H474 C490 0.931 . S
C475 H463 0.929 . S
C475 C469 1.390 . S
C475 C472 1.386 . S
C476 C471 1.490 . S
C476 C478 1.395 . S
C476 C479 1.403 . S
H477 C483 0.930 . S
C478 H464 0.930 . S
C478 C476 1.395 . S
C478 C481 1.403 . S
C479 C476 1.403 . S
C479 C480 1.524 . S
C479 C483 1.400 . S
C480 H465 0.960 . S
C480 H466 0.960 . S
C480 H467 0.960 . S
C480 C479 1.524 . S
C481 C478 1.403 . S
C481 C482 1.392 . S
C481 C485 1.495 . S
C482 C481 1.392 . S
C482 C483 1.385 . S
C482 C484 1.478 . S
C483 H477 0.930 . S
C483 C479 1.400 . S
C483 C482 1.385 . S
C484 C482 1.478 . S
C484 C486 1.381 . S
C484 C490 1.383 . S
C485 C481 1.495 . S
C485 H491 0.959 . S
C485 H492 0.961 . S
C485 H493 0.960 . S
C486 C484 1.381 . S
C486 C487 1.394 . S
C486 H494 0.930 . S
C487 C486 1.394 . S
C487 C488 1.383 . S
C487 H495 0.929 . S
C488 C487 1.383 . S
C488 C489 1.377 . S
C489 H473 0.930 . S
C489 C488 1.377 . S
C489 C490 1.379 . S
C490 H474 0.931 . S
C490 C484 1.383 . S
C490 C489 1.379 . S
H491 C485 0.959 . S
H492 C485 0.961 . S
H493 C485 0.960 . S
H494 C486 0.930 . S
H495 C487 0.929 . S
H496 C504 0.929 . S
H497 C506 0.930 . S
H498 C508 0.930 . S
H499 C511 0.929 . S
H500 C514 0.930 . S
H501 C516 0.960 . S
H502 C516 0.960 . S
H503 C516 0.960 . S
C504 H496 0.929 . S
C504 C505 1.377 . S
C504 C506 1.384 . S
C505 C504 1.377 . S
C505 C511 1.390 . S
C506 H497 0.930 . S
C506 C504 1.384 . S
C506 C507 1.372 . S
C507 C506 1.372 . S
C507 C508 1.400 . S
C507 C512 1.490 . S
C508 H498 0.930 . S
C508 C507 1.400 . S
C508 C511 1.386 . S
H509 C525 0.930 . S
H510 C526 0.931 . S
C511 H499 0.929 . S
C511 C505 1.390 . S
C511 C508 1.386 . S
C512 C507 1.490 . S
C512 C514 1.395 . S
C512 C515 1.403 . S
H513 C519 0.930 . S
C514 H500 0.930 . S
C514 C512 1.395 . S
C514 C517 1.403 . S
C515 C512 1.403 . S
C515 C516 1.524 . S
C515 C519 1.400 . S
C516 H501 0.960 . S
C516 H502 0.960 . S
C516 H503 0.960 . S
C516 C515 1.524 . S
C517 C514 1.403 . S
C517 C518 1.392 . S
C517 C521 1.495 . S
C518 C517 1.392 . S
C518 C519 1.385 . S
C518 C520 1.478 . S
C519 H513 0.930 . S
C519 C515 1.400 . S
C519 C518 1.385 . S
C520 C518 1.478 . S
C520 C522 1.381 . S
C520 C526 1.383 . S
C521 C517 1.495 . S
C521 H527 0.959 . S
C521 H528 0.961 . S
C521 H529 0.960 . S
C522 C520 1.381 . S
C522 C523 1.394 . S
C522 H530 0.930 . S
C523 C522 1.394 . S
C523 C524 1.383 . S
C523 H531 0.929 . S
C524 C523 1.383 . S
C524 C525 1.377 . S
C525 H509 0.930 . S
C525 C524 1.377 . S
C525 C526 1.379 . S
C526 H510 0.931 . S
C526 C520 1.383 . S
C526 C525 1.379 . S
H527 C521 0.959 . S
H528 C521 0.961 . S
H529 C521 0.960 . S
H530 C522 0.930 . S
H531 C523 0.929 . S
H532 C540 0.929 . S
H533 C542 0.930 . S
H534 C544 0.930 . S
H535 C547 0.929 . S
H536 C550 0.930 . S
H537 C552 0.960 . S
H538 C552 0.960 . S
H539 C552 0.960 . S
C540 H532 0.929 . S
C540 C541 1.377 . S
C540 C542 1.384 . S
C541 C540 1.377 . S
C541 C547 1.390 . S
C542 H533 0.930 . S
C542 C540 1.384 . S
C542 C543 1.372 . S
C543 C542 1.372 . S
C543 C544 1.400 . S
C543 C548 1.490 . S
C544 H534 0.930 . S
C544 C543 1.400 . S
C544 C547 1.386 . S
H545 C561 0.930 . S
H546 C562 0.931 . S
C547 H535 0.929 . S
C547 C541 1.390 . S
C547 C544 1.386 . S
C548 C543 1.490 . S
C548 C550 1.395 . S
C548 C551 1.403 . S
H549 C555 0.930 . S
C550 H536 0.930 . S
C550 C548 1.395 . S
C550 C553 1.403 . S
C551 C548 1.403 . S
C551 C552 1.524 . S
C551 C555 1.400 . S
C552 H537 0.960 . S
C552 H538 0.960 . S
C552 H539 0.960 . S
C552 C551 1.524 . S
C553 C550 1.403 . S
C553 C554 1.392 . S
C553 C557 1.495 . S
C554 C553 1.392 . S
C554 C555 1.385 . S
C554 C556 1.478 . S
C555 H549 0.930 . S
C555 C551 1.400 . S
C555 C554 1.385 . S
C556 C554 1.478 . S
C556 C558 1.381 . S
C556 C562 1.383 . S
C557 C553 1.495 . S
C557 H563 0.959 . S
C557 H564 0.961 . S
C557 H565 0.960 . S
C558 C556 1.381 . S
C558 C559 1.394 . S
C558 H566 0.930 . S
C559 C558 1.394 . S
C559 C560 1.383 . S
C559 H567 0.929 . S
C560 C559 1.383 . S
C560 C561 1.377 . S
C561 H545 0.930 . S
C561 C560 1.377 . S
C561 C562 1.379 . S
C562 H546 0.931 . S
C562 C556 1.383 . S
C562 C561 1.379 . S
H563 C557 0.959 . S
H564 C557 0.961 . S
H565 C557 0.960 . S
H566 C558 0.930 . S
H567 C559 0.929 . S
H568 C576 0.929 . S
H569 C578 0.930 . S
H570 C580 0.930 . S
H571 C583 0.929 . S
H572 C586 0.930 . S
H573 C588 0.960 . S
H574 C588 0.960 . S
H575 C588 0.960 . S
C576 H568 0.929 . S
C576 C577 1.377 . S
C576 C578 1.384 . S
C577 C576 1.377 . S
C577 C583 1.390 . S
C578 H569 0.930 . S
C578 C576 1.384 . S
C578 C579 1.372 . S
C579 C578 1.372 . S
C579 C580 1.400 . S
C579 C584 1.490 . S
C580 H570 0.930 . S
C580 C579 1.400 . S
C580 C583 1.386 . S
H581 C597 0.930 . S
H582 C598 0.931 . S
C583 H571 0.929 . S
C583 C577 1.390 . S
C583 C580 1.386 . S
C584 C579 1.490 . S
C584 C586 1.395 . S
C584 C587 1.403 . S
H585 C591 0.930 . S
C586 H572 0.930 . S
C586 C584 1.395 . S
C586 C589 1.403 . S
C587 C584 1.403 . S
C587 C588 1.524 . S
C587 C591 1.400 . S
C588 H573 0.960 . S
C588 H574 0.960 . S
C588 H575 0.960 . S
C588 C587 1.524 . S
C589 C586 1.403 . S
C589 C590 1.392 . S
C589 C593 1.495 . S
C590 C589 1.392 . S
C590 C591 1.385 . S
C590 C592 1.478 . S
C591 H585 0.930 . S
C591 C587 1.400 . S
C591 C590 1.385 . S
C592 C590 1.478 . S
C592 C594 1.381 . S
C592 C598 1.383 . S
C593 C589 1.495 . S
C593 H599 0.959 . S
C593 H600 0.961 . S
C593 H601 0.960 . S
C594 C592 1.381 . S
C594 C595 1.394 . S
C594 H602 0.930 . S
C595 C594 1.394 . S
C595 C596 1.383 . S
C595 H603 0.929 . S
C596 C595 1.383 . S
C596 C597 1.377 . S
C597 H581 0.930 . S
C597 C596 1.377 . S
C597 C598 1.379 . S
C598 H582 0.931 . S
C598 C592 1.383 . S
C598 C597 1.379 . S
H599 C593 0.959 . S
H600 C593 0.961 . S
H601 C593 0.960 . S
H602 C594 0.930 . S
H603 C595 0.929 . S
H604 C612 0.929 . S
H605 C614 0.930 . S
H606 C616 0.930 . S
H607 C619 0.929 . S
H608 C622 0.930 . S
H609 C624 0.960 . S
H610 C624 0.960 . S
H611 C624 0.960 . S
C612 H604 0.929 . S
C612 C613 1.377 . S
C612 C614 1.384 . S
C613 C612 1.377 . S
C613 C619 1.390 . S
C614 H605 0.930 . S
C614 C612 1.384 . S
C614 C615 1.372 . S
C615 C614 1.372 . S
C615 C616 1.400 . S
C615 C620 1.490 . S
C616 H606 0.930 . S
C616 C615 1.400 . S
C616 C619 1.386 . S
H617 C633 0.930 . S
H618 C634 0.931 . S
C619 H607 0.929 . S
C619 C613 1.390 . S
C619 C616 1.386 . S
C620 C615 1.490 . S
C620 C622 1.395 . S
C620 C623 1.403 . S
H621 C627 0.930 . S
C622 H608 0.930 . S
C622 C620 1.395 . S
C622 C625 1.403 . S
C623 C620 1.403 . S
C623 C624 1.524 . S
C623 C627 1.400 . S
C624 H609 0.960 . S
C624 H610 0.960 . S
C624 H611 0.960 . S
C624 C623 1.524 . S
C625 C622 1.403 . S
C625 C626 1.392 . S
C625 C629 1.495 . S
C626 C625 1.392 . S
C626 C627 1.385 . S
C626 C628 1.478 . S
C627 H621 0.930 . S
C627 C623 1.400 . S
C627 C626 1.385 . S
C628 C626 1.478 . S
C628 C630 1.381 . S
C628 C634 1.383 . S
C629 C625 1.495 . S
C629 H635 0.959 . S
C629 H636 0.961 . S
C629 H637 0.960 . S
C630 C628 1.381 . S
C630 C631 1.394 . S
C630 H638 0.930 . S
C631 C630 1.394 . S
C631 C632 1.383 . S
C631 H639 0.929 . S
C632 C631 1.383 . S
C632 C633 1.377 . S
C633 H617 0.930 . S
C633 C632 1.377 . S
C633 C634 1.379 . S
C634 H618 0.931 . S
C634 C628 1.383 . S
C634 C633 1.379 . S
H635 C629 0.959 . S
H636 C629 0.961 . S
H637 C629 0.960 . S
H638 C630 0.930 . S
H639 C631 0.929 . S
H640 C648 0.929 . S
H641 C650 0.930 . S
H642 C652 0.930 . S
H643 C655 0.929 . S
H644 C658 0.930 . S
H645 C660 0.960 . S
H646 C660 0.960 . S
H647 C660 0.960 . S
C648 H640 0.929 . S
C648 C649 1.377 . S
C648 C650 1.384 . S
C649 C648 1.377 . S
C649 C655 1.390 . S
C650 H641 0.930 . S
C650 C648 1.384 . S
C650 C651 1.372 . S
C651 C650 1.372 . S
C651 C652 1.400 . S
C651 C656 1.490 . S
C652 H642 0.930 . S
C652 C651 1.400 . S
C652 C655 1.386 . S
H653 C669 0.930 . S
H654 C670 0.931 . S
C655 H643 0.929 . S
C655 C649 1.390 . S
C655 C652 1.386 . S
C656 C651 1.490 . S
C656 C658 1.395 . S
C656 C659 1.403 . S
H657 C663 0.930 . S
C658 H644 0.930 . S
C658 C656 1.395 . S
C658 C661 1.403 . S
C659 C656 1.403 . S
C659 C660 1.524 . S
C659 C663 1.400 . S
C660 H645 0.960 . S
C660 H646 0.960 . S
C660 H647 0.960 . S
C660 C659 1.524 . S
C661 C658 1.403 . S
C661 C662 1.392 . S
C661 C665 1.495 . S
C662 C661 1.392 . S
C662 C663 1.385 . S
C662 C664 1.478 . S
C663 H657 0.930 . S
C663 C659 1.400 . S
C663 C662 1.385 . S
C664 C662 1.478 . S
C664 C666 1.381 . S
C664 C670 1.383 . S
C665 C661 1.495 . S
C665 H671 0.959 . S
C665 H672 0.961 . S
C665 H673 0.960 . S
C666 C664 1.381 . S
C666 C667 1.394 . S
C666 H674 0.930 . S
C667 C666 1.394 . S
C667 C668 1.383 . S
C667 H675 0.929 1_565 S
C668 C667 1.383 . S
C668 C669 1.377 . S
C669 H653 0.930 . S
C669 C668 1.377 . S
C669 C670 1.379 . S
C670 H654 0.931 . S
C670 C664 1.383 . S
C670 C669 1.379 . S
H671 C665 0.959 . S
H672 C665 0.961 . S
H673 C665 0.960 . S
H674 C666 0.930 . S
H675 C667 0.929 1_545 S
C272 C144 1.721 . S
C253 C68 1.688 . S
C289 C11 1.608 . S
C308 C216 1.735 . S
C325 C30 1.658 . S
C344 C132 1.749 . S
C361 C49 1.651 . S
C380 C228 1.709 . S
C416 C134 1.492 . S
C397 C2 1.700 . S
C452 C215 1.826 . S
C433 C25 1.822 . S
C469 C40 1.712 . S
C488 C131 1.724 . S
C505 C59 1.694 . S
C524 C218 1.555 . S
C560 C230 1.485 . S
C541 C21 1.612 . S
C596 C146 1.471 . S
C577 C44 1.638 . S
C632 C227 1.695 . S
C613 C63 1.707 . S
C649 C6 1.646 . S
C668 C143 1.645 . S
