# Generated by pormake.
# Topology ssb, (4,4)-cn, num edge types: 1
# Building blocks:
#     Node 0, Type 0, BuildingBlock: KUFVIS_clean_linker_0, # of connection points: 4
#     Node 1, Type 0, BuildingBlock: KUFVIS_clean_linker_0, # of connection points: 4
#     Node 2, Type 0, BuildingBlock: KUFVIS_clean_linker_0, # of connection points: 4
#     Node 3, Type 0, BuildingBlock: KUFVIS_clean_linker_0, # of connection points: 4
#     Node 4, Type 0, BuildingBlock: KUFVIS_clean_linker_0, # of connection points: 4
#     Node 5, Type 0, BuildingBlock: KUFVIS_clean_linker_0, # of connection points: 4
#     Node 6, Type 0, BuildingBlock: KUFVIS_clean_linker_0, # of connection points: 4
#     Node 7, Type 0, BuildingBlock: KUFVIS_clean_linker_0, # of connection points: 4
#     Node 8, Type 1, BuildingBlock: KOZSID_clean_sbu_0, # of connection points: 4
#     Node 9, Type 1, BuildingBlock: KOZSID_clean_sbu_0, # of connection points: 4
#     Node 10, Type 1, BuildingBlock: KOZSID_clean_sbu_0, # of connection points: 4
#     Node 11, Type 1, BuildingBlock: KOZSID_clean_sbu_0, # of connection points: 4
#     Node 12, Type 1, BuildingBlock: KOZSID_clean_sbu_0, # of connection points: 4
#     Node 13, Type 1, BuildingBlock: KOZSID_clean_sbu_0, # of connection points: 4
#     Node 14, Type 1, BuildingBlock: KOZSID_clean_sbu_0, # of connection points: 4
#     Node 15, Type 1, BuildingBlock: KOZSID_clean_sbu_0, # of connection points: 4
#     Edge 16, Type (0, 1), BuildingBlock: UVAHIK_clean_linker_0, # of connection points: 2
#     Edge 17, Type (0, 1), BuildingBlock: UVAHIK_clean_linker_0, # of connection points: 2
#     Edge 18, Type (0, 1), BuildingBlock: UVAHIK_clean_linker_0, # of connection points: 2
#     Edge 19, Type (0, 1), BuildingBlock: UVAHIK_clean_linker_0, # of connection points: 2
#     Edge 20, Type (0, 1), BuildingBlock: UVAHIK_clean_linker_0, # of connection points: 2
#     Edge 21, Type (0, 1), BuildingBlock: UVAHIK_clean_linker_0, # of connection points: 2
#     Edge 22, Type (0, 1), BuildingBlock: UVAHIK_clean_linker_0, # of connection points: 2
#     Edge 23, Type (0, 1), BuildingBlock: UVAHIK_clean_linker_0, # of connection points: 2
#     Edge 24, Type (0, 1), BuildingBlock: UVAHIK_clean_linker_0, # of connection points: 2
#     Edge 25, Type (0, 1), BuildingBlock: UVAHIK_clean_linker_0, # of connection points: 2
#     Edge 26, Type (0, 1), BuildingBlock: UVAHIK_clean_linker_0, # of connection points: 2
#     Edge 27, Type (0, 1), BuildingBlock: UVAHIK_clean_linker_0, # of connection points: 2
#     Edge 28, Type (0, 1), BuildingBlock: UVAHIK_clean_linker_0, # of connection points: 2
#     Edge 29, Type (0, 1), BuildingBlock: UVAHIK_clean_linker_0, # of connection points: 2
#     Edge 30, Type (0, 1), BuildingBlock: UVAHIK_clean_linker_0, # of connection points: 2
#     Edge 31, Type (0, 1), BuildingBlock: UVAHIK_clean_linker_0, # of connection points: 2
#     Edge 32, Type (0, 1), BuildingBlock: UVAHIK_clean_linker_0, # of connection points: 2
#     Edge 33, Type (0, 1), BuildingBlock: UVAHIK_clean_linker_0, # of connection points: 2
#     Edge 34, Type (0, 1), BuildingBlock: UVAHIK_clean_linker_0, # of connection points: 2
#     Edge 35, Type (0, 1), BuildingBlock: UVAHIK_clean_linker_0, # of connection points: 2
#     Edge 36, Type (0, 1), BuildingBlock: UVAHIK_clean_linker_0, # of connection points: 2
#     Edge 37, Type (0, 1), BuildingBlock: UVAHIK_clean_linker_0, # of connection points: 2
#     Edge 38, Type (0, 1), BuildingBlock: UVAHIK_clean_linker_0, # of connection points: 2
#     Edge 39, Type (0, 1), BuildingBlock: UVAHIK_clean_linker_0, # of connection points: 2
#     Edge 40, Type (0, 1), BuildingBlock: UVAHIK_clean_linker_0, # of connection points: 2
#     Edge 41, Type (0, 1), BuildingBlock: UVAHIK_clean_linker_0, # of connection points: 2
#     Edge 42, Type (0, 1), BuildingBlock: UVAHIK_clean_linker_0, # of connection points: 2
#     Edge 43, Type (0, 1), BuildingBlock: UVAHIK_clean_linker_0, # of connection points: 2
#     Edge 44, Type (0, 1), BuildingBlock: UVAHIK_clean_linker_0, # of connection points: 2
#     Edge 45, Type (0, 1), BuildingBlock: UVAHIK_clean_linker_0, # of connection points: 2
#     Edge 46, Type (0, 1), BuildingBlock: UVAHIK_clean_linker_0, # of connection points: 2
#     Edge 47, Type (0, 1), BuildingBlock: UVAHIK_clean_linker_0, # of connection points: 2
# Relax obj value: 0.002
# Max RMSD: 0.063
# Mean RMSD: 0.031
data_MOF--net-ssb--node1-KOZSID_clean_sbu_0--node2-KUFVIS_clean_linker_0--edge1-UVAHIK_clean_linker_0
_symmetry_space_group_name_H-M    P1
_symmetry_Int_Tables_number       1
_symmetry_cell_setting            triclinic
loop_
_symmetry_equiv_pos_as_xyz
'x, y, z'
_cell_length_a     68.648108
_cell_length_b     68.496591
_cell_length_c     50.46603
_cell_angle_alpha  92.049965
_cell_angle_beta   94.091913
_cell_angle_gamma 89.997583
loop_
_atom_site_label
_atom_site_type_symbol
_atom_site_fract_x
_atom_site_fract_y
_atom_site_fract_z
_atom_type_partial_charge
H0 H 0.22785 0.21987 0.34774 0.0
H1 H 0.26787 0.21936 0.28696 0.0
H2 H 0.23086 0.26991 0.29975 0.0
H3 H 0.23768 0.27882 0.26058 0.0
H4 H 0.2887 0.28673 0.21809 0.0
H5 H 0.28718 0.2395 0.2707 0.0
C6 C 0.23416 0.22727 0.33171 0.0
C7 C 0.22734 0.24575 0.32462 0.0
C8 C 0.24896 0.21801 0.31857 0.0
C9 C 0.25687 0.22723 0.29724 0.0
C10 C 0.25078 0.24634 0.28983 0.0
C11 C 0.23574 0.25527 0.30391 0.0
C12 C 0.26076 0.2573 0.26878 0.0
C13 C 0.25217 0.27401 0.25644 0.0
C14 C 0.26251 0.28501 0.23882 0.0
C15 C 0.28099 0.2787 0.23229 0.0
C16 C 0.28954 0.26202 0.24319 0.0
C17 C 0.27961 0.25163 0.26159 0.0
H18 H 0.71292 0.29876 0.22888 0.0
H19 H 0.76971 0.28426 0.26256 0.0
H20 H 0.72076 0.24536 0.26983 0.0
H21 H 0.74354 0.22311 0.27147 0.0
H22 H 0.79466 0.21306 0.32289 0.0
H23 H 0.78116 0.27125 0.29986 0.0
C24 C 0.7222 0.28899 0.24056 0.0
C25 C 0.71468 0.27123 0.24827 0.0
C26 C 0.74189 0.29383 0.24622 0.0
C27 C 0.75436 0.28063 0.25953 0.0
C28 C 0.74711 0.26296 0.26859 0.0
C29 C 0.72704 0.25855 0.2629 0.0
C30 C 0.76049 0.24911 0.28345 0.0
C31 C 0.75619 0.22895 0.28309 0.0
C32 C 0.76807 0.21596 0.29782 0.0
C33 C 0.7854 0.2229 0.31131 0.0
C34 C 0.79031 0.24274 0.3115 0.0
C35 C 0.77758 0.25585 0.29833 0.0
H36 H 0.7757 0.78043 0.34306 0.0
H37 H 0.77266 0.73312 0.28546 0.0
H38 H 0.7353 0.78391 0.27501 0.0
H39 H 0.7165 0.76446 0.25018 0.0
H40 H 0.71884 0.72295 0.1854 0.0
H41 H 0.76718 0.72707 0.24366 0.0
C42 C 0.76908 0.77378 0.32475 0.0
C43 C 0.75411 0.78366 0.31063 0.0
C44 C 0.77616 0.75594 0.31518 0.0
C45 C 0.76758 0.74741 0.29146 0.0
C46 C 0.75251 0.75696 0.27628 0.0
C47 C 0.74627 0.77557 0.28605 0.0
C48 C 0.74331 0.74738 0.25078 0.0
C49 C 0.7247 0.75333 0.24015 0.0
C50 C 0.71628 0.74504 0.21617 0.0
C51 C 0.72588 0.72985 0.20327 0.0
C52 C 0.74396 0.72294 0.2135 0.0
C53 C 0.75279 0.73199 0.23691 0.0
H54 H 0.20578 0.79175 0.29423 0.0
H55 H 0.26023 0.78181 0.25984 0.0
H56 H 0.21583 0.7366 0.25503 0.0
H57 H 0.24118 0.71728 0.25246 0.0
H58 H 0.28657 0.71044 0.19915 0.0
H59 H 0.26841 0.76808 0.22178 0.0
C60 C 0.215 0.78232 0.28279 0.0
C61 C 0.20891 0.76324 0.27571 0.0
C62 C 0.23335 0.78906 0.27676 0.0
C63 C 0.24582 0.77655 0.26337 0.0
C64 C 0.23981 0.75751 0.25484 0.0
C65 C 0.22115 0.75101 0.26132 0.0
C66 C 0.25306 0.74452 0.23958 0.0
C67 C 0.2515 0.724 0.24035 0.0
C68 C 0.26338 0.71175 0.22562 0.0
C69 C 0.27743 0.71996 0.21059 0.0
C70 C 0.27946 0.74023 0.20938 0.0
C71 C 0.26722 0.75246 0.22378 0.0
H72 H 0.2828 0.73367 0.82894 0.0
H73 H 0.23324 0.73643 0.77272 0.0
H74 H 0.28447 0.77248 0.76494 0.0
H75 H 0.26541 0.79183 0.74231 0.0
H76 H 0.2246 0.7864 0.67446 0.0
H77 H 0.22711 0.74125 0.73087 0.0
C78 C 0.27547 0.73999 0.81152 0.0
C79 C 0.28507 0.75441 0.79848 0.0
C80 C 0.25702 0.73308 0.80201 0.0
C81 C 0.24783 0.74136 0.77908 0.0
C82 C 0.25727 0.75609 0.76521 0.0
C83 C 0.27626 0.76198 0.77512 0.0
C84 C 0.24778 0.76505 0.74037 0.0
C85 C 0.25422 0.78328 0.73112 0.0
C86 C 0.24637 0.79063 0.70686 0.0
C87 C 0.23119 0.7804 0.69258 0.0
C88 C 0.2239 0.76299 0.70169 0.0
C89 C 0.2324 0.75522 0.72515 0.0
H90 H 0.27573 0.28104 0.87172 0.0
H91 H 0.27033 0.23187 0.81721 0.0
H92 H 0.23446 0.28335 0.80456 0.0
H93 H 0.21461 0.26442 0.78111 0.0
H94 H 0.21553 0.22069 0.71866 0.0
H95 H 0.26436 0.2257 0.77573 0.0
C96 C 0.26862 0.27389 0.85409 0.0
C97 C 0.25367 0.2836 0.83966 0.0
C98 C 0.27509 0.25555 0.84544 0.0
C99 C 0.26581 0.24651 0.82248 0.0
C100 C 0.25081 0.25612 0.80713 0.0
C101 C 0.24531 0.27505 0.81587 0.0
C102 C 0.24099 0.24651 0.78228 0.0
C103 C 0.22242 0.25274 0.77159 0.0
C104 C 0.21364 0.24404 0.74805 0.0
C105 C 0.2226 0.22795 0.73624 0.0
C106 C 0.24054 0.22105 0.74685 0.0
C107 C 0.25004 0.23081 0.76897 0.0
H108 H 0.71893 0.2862 0.83635 0.0
H109 H 0.76771 0.27903 0.78876 0.0
H110 H 0.71648 0.24175 0.77465 0.0
H111 H 0.7354 0.2214 0.75493 0.0
H112 H 0.77492 0.22278 0.69349 0.0
H113 H 0.77251 0.27209 0.74759 0.0
C114 C 0.72583 0.27856 0.8203 0.0
C115 C 0.71605 0.26301 0.80652 0.0
C116 C 0.74428 0.28452 0.81371 0.0
C117 C 0.75318 0.27452 0.79287 0.0
C118 C 0.74356 0.25868 0.77819 0.0
C119 C 0.7248 0.2532 0.78553 0.0
C120 C 0.75269 0.2483 0.75502 0.0
C121 C 0.74633 0.22937 0.74532 0.0
C122 C 0.75393 0.22053 0.72263 0.0
C123 C 0.76868 0.23 0.71039 0.0
C124 C 0.77571 0.24834 0.71971 0.0
C125 C 0.76752 0.25751 0.74168 0.0
H126 H 0.72247 0.72218 0.82286 0.0
H127 H 0.77632 0.73206 0.78738 0.0
H128 H 0.72575 0.76829 0.76856 0.0
H129 H 0.74842 0.7901 0.76301 0.0
H130 H 0.79526 0.79421 0.71196 0.0
H131 H 0.78407 0.73954 0.74674 0.0
C132 C 0.73088 0.73032 0.80956 0.0
C133 C 0.72221 0.74609 0.79653 0.0
C134 C 0.75031 0.72516 0.80615 0.0
C135 C 0.76111 0.73578 0.78898 0.0
C136 C 0.75264 0.75155 0.77503 0.0
C137 C 0.73297 0.75652 0.77906 0.0
C138 C 0.76451 0.76317 0.75725 0.0
C139 C 0.76012 0.78298 0.75314 0.0
C140 C 0.77088 0.79409 0.73652 0.0
C141 C 0.787 0.7857 0.72501 0.0
C142 C 0.79205 0.76616 0.72906 0.0
C143 C 0.78046 0.7548 0.74456 0.0
C144 C 0.03194 0.29266 0.57271 0.0
C145 C 0.03879 0.31082 0.5823 0.0
C146 C 0.0293 0.32438 0.56702 0.0
C147 C 0.01728 0.31377 0.54904 0.0
N148 N 0.01828 0.29425 0.55211 0.0
Co149 Co 0.00416 0.27347 0.52917 0.0
N150 N 0.98999 0.29343 0.50694 0.0
C151 C 0.99147 0.31308 0.5101 0.0
C152 C 0.97934 0.32305 0.49261 0.0
C153 C 0.96918 0.30894 0.4777 0.0
C154 C 0.9757 0.2911 0.48708 0.0
N155 N 0.9907 0.25267 0.5055 0.0
C156 C 0.97669 0.25417 0.48529 0.0
C157 C 0.97099 0.2359 0.47461 0.0
C158 C 0.98174 0.22245 0.48851 0.0
C159 C 0.9933 0.23314 0.50691 0.0
N160 N 0.01754 0.2535 0.55224 0.0
C161 C 0.01531 0.23388 0.54984 0.0
C162 C 0.0262 0.22391 0.56871 0.0
C163 C 0.03604 0.23798 0.58409 0.0
C164 C 0.03058 0.2558 0.57361 0.0
N165 N 0.98207 0.27389 0.55261 0.0
C166 C 0.94898 0.27463 0.58267 0.0
C167 C 0.95559 0.25715 0.57146 0.0
C168 C 0.97213 0.25707 0.55689 0.0
C169 C 0.95954 0.29168 0.57931 0.0
C170 C 0.97586 0.29101 0.56415 0.0
N171 N 0.02629 0.27307 0.5056 0.0
C172 C 0.05263 0.25573 0.48565 0.0
C173 C 0.05864 0.27266 0.47396 0.0
C174 C 0.048 0.28975 0.47795 0.0
C175 C 0.0321 0.28967 0.49386 0.0
C176 C 0.03648 0.2562 0.50103 0.0
H177 H 0.02491 0.30328 0.49654 0.0
H178 H 0.03264 0.24272 0.50911 0.0
H179 H 0.97644 0.24323 0.54902 0.0
H180 H 0.98302 0.30457 0.56168 0.0
C181 C 0.00447 0.3217 0.52959 0.0
C182 C 0.03904 0.27437 0.5837 0.0
C183 C 0.96753 0.27241 0.47685 0.0
C184 C 0.00441 0.22524 0.52814 0.0
H185 H 0.04958 0.31392 0.59861 0.0
H186 H 0.03098 0.34009 0.56878 0.0
H187 H 0.97792 0.33872 0.49106 0.0
H188 H 0.95807 0.31149 0.4619 0.0
H189 H 0.95972 0.23249 0.45908 0.0
H190 H 0.98051 0.2067 0.48639 0.0
H191 H 0.02733 0.20824 0.57054 0.0
H192 H 0.04645 0.23538 0.60072 0.0
H193 H 0.94802 0.24353 0.57394 0.0
H194 H 0.9549 0.30556 0.58766 0.0
H195 H 0.06028 0.24206 0.4828 0.0
H196 H 0.0522 0.30326 0.46937 0.0
C197 C 0.71828 0.03686 0.54439 0.0
C198 C 0.70019 0.04441 0.55 0.0
C199 C 0.68645 0.0331 0.53591 0.0
C200 C 0.69682 0.01931 0.52258 0.0
N201 N 0.7164 0.02101 0.52737 0.0
Co202 Co 0.73674 0.00397 0.51153 0.0
N203 N 0.71641 0.9866 0.49213 0.0
C204 C 0.69684 0.98808 0.49331 0.0
C205 C 0.68649 0.97394 0.47844 0.0
C206 C 0.70026 0.96264 0.46717 0.0
C207 C 0.71831 0.97055 0.47587 0.0
N208 N 0.75709 0.98749 0.49471 0.0
C209 C 0.7552 0.97184 0.47735 0.0
C210 C 0.77326 0.9651 0.4703 0.0
C211 C 0.78701 0.97693 0.48344 0.0
C212 C 0.77665 0.99018 0.49776 0.0
N213 N 0.75709 0.02075 0.53197 0.0
C214 C 0.77668 0.01846 0.53218 0.0
C215 C 0.78705 0.03182 0.54839 0.0
C216 C 0.7733 0.04326 0.55942 0.0
C217 C 0.75521 0.03619 0.54931 0.0
N218 N 0.73698 0.98656 0.54211 0.0
C219 C 0.73729 0.96127 0.58501 0.0
C220 C 0.75442 0.96543 0.57288 0.0
C221 C 0.75397 0.97809 0.55181 0.0
C222 C 0.72003 0.97024 0.57544 0.0
C223 C 0.72018 0.98262 0.55407 0.0
N224 N 0.73649 0.02139 0.48092 0.0
C225 C 0.75343 0.04277 0.45313 0.0
C226 C 0.73612 0.04667 0.43798 0.0
C227 C 0.71904 0.03746 0.44453 0.0
C228 C 0.71953 0.02507 0.46594 0.0
C229 C 0.7533 0.03013 0.47418 0.0
H230 H 0.70596 0.01873 0.47002 0.0
H231 H 0.76699 0.02784 0.48483 0.0
H232 H 0.76754 0.98063 0.54357 0.0
H233 H 0.7065 0.98875 0.54756 0.0
C234 C 0.68861 0.00364 0.50718 0.0
C235 C 0.73674 0.04496 0.55633 0.0
C236 C 0.73676 0.96251 0.46759 0.0
C237 C 0.7849 0.0044 0.51566 0.0
H238 H 0.6972 0.05664 0.56325 0.0
H239 H 0.67074 0.0345 0.53589 0.0
H240 H 0.67079 0.97226 0.47575 0.0
H241 H 0.69732 0.95012 0.4538 0.0
H242 H 0.77623 0.95273 0.45727 0.0
H243 H 0.80271 0.97577 0.48302 0.0
H244 H 0.80276 0.03325 0.55149 0.0
H245 H 0.77629 0.05558 0.57313 0.0
H246 H 0.76815 0.95863 0.57915 0.0
H247 H 0.7064 0.96777 0.58435 0.0
H248 H 0.76703 0.04976 0.44925 0.0
H249 H 0.70527 0.03975 0.43321 0.0
C250 C 0.03234 0.74995 0.54359 0.0
C251 C 0.03912 0.76805 0.55352 0.0
C252 C 0.02777 0.78173 0.54093 0.0
C253 C 0.01478 0.77126 0.52413 0.0
N254 N 0.01696 0.75167 0.52543 0.0
Co255 Co 0.00162 0.73097 0.50384 0.0
N256 N 0.9856 0.75114 0.48434 0.0
C257 C 0.98726 0.77079 0.48741 0.0
C258 C 0.97382 0.78081 0.47179 0.0
C259 C 0.96271 0.76674 0.45819 0.0
C260 C 0.97004 0.74889 0.46639 0.0
N261 N 0.98635 0.71028 0.48214 0.0
C262 C 0.97084 0.71197 0.4642 0.0
C263 C 0.96419 0.69387 0.45412 0.0
C264 C 0.97579 0.68022 0.46633 0.0
C265 C 0.98878 0.69071 0.48311 0.0
N266 N 0.01755 0.7108 0.52348 0.0
C267 C 0.01585 0.69116 0.52041 0.0
C268 C 0.02904 0.6811 0.53635 0.0
C269 C 0.03998 0.69514 0.55029 0.0
C270 C 0.03279 0.71301 0.54196 0.0
N271 N 0.98202 0.73057 0.5311 0.0
C272 C 0.95279 0.73036 0.56793 0.0
C273 C 0.96018 0.71291 0.55746 0.0
C274 C 0.97469 0.71335 0.53931 0.0
C275 C 0.96049 0.74787 0.55978 0.0
C276 C 0.97493 0.74765 0.54162 0.0
N277 N 0.02119 0.73141 0.47648 0.0
C278 C 0.04279 0.71462 0.44725 0.0
C279 C 0.0493 0.73235 0.4381 0.0
C280 C 0.04148 0.74955 0.44862 0.0
C281 C 0.02763 0.74876 0.46753 0.0
C282 C 0.02884 0.71449 0.46624 0.0
H283 H 0.02246 0.76243 0.47471 0.0
H284 H 0.02451 0.70051 0.47233 0.0
H285 H 0.97968 0.69956 0.53207 0.0
H286 H 0.97995 0.76152 0.53616 0.0
C287 C 0.0009 0.77939 0.50616 0.0
C288 C 0.04147 0.73161 0.55135 0.0
C289 C 0.96127 0.73025 0.45728 0.0
C290 C 0.00246 0.68261 0.50132 0.0
H291 H 0.05122 0.77103 0.56803 0.0
H292 H 0.0291 0.79746 0.54334 0.0
H293 H 0.97201 0.79648 0.47091 0.0
H294 H 0.95035 0.76929 0.4442 0.0
H295 H 0.95192 0.69083 0.43989 0.0
H296 H 0.97452 0.66449 0.46389 0.0
H297 H 0.0308 0.66543 0.53727 0.0
H298 H 0.05213 0.69254 0.5646 0.0
H299 H 0.95492 0.69892 0.56337 0.0
H300 H 0.95513 0.76182 0.56694 0.0
H301 H 0.04823 0.70085 0.43961 0.0
H302 H 0.04625 0.76371 0.44264 0.0
C303 C 0.28848 0.97264 0.55012 0.0
C304 C 0.30645 0.96477 0.55832 0.0
C305 C 0.32028 0.97527 0.54686 0.0
C306 C 0.31006 0.98895 0.53242 0.0
N307 N 0.2905 0.98793 0.53402 0.0
Co308 Co 0.2703 0.00504 0.51563 0.0
N309 N 0.2907 0.02046 0.49866 0.0
C310 C 0.31027 0.01788 0.50173 0.0
C311 C 0.32068 0.03053 0.48773 0.0
C312 C 0.30699 0.04199 0.47502 0.0
C313 C 0.2889 0.03572 0.48211 0.0
N314 N 0.25004 0.02189 0.49689 0.0
C315 C 0.25198 0.03691 0.48033 0.0
C316 C 0.23396 0.04471 0.47213 0.0
C317 C 0.22017 0.03417 0.48357 0.0
C318 C 0.23046 0.02065 0.49818 0.0
N319 N 0.24989 0.98984 0.53296 0.0
C320 C 0.23036 0.99275 0.53045 0.0
C321 C 0.21993 0.98011 0.54444 0.0
C322 C 0.23358 0.96837 0.5567 0.0
C323 C 0.25166 0.97459 0.54952 0.0
N324 N 0.27214 0.02386 0.54654 0.0
C325 C 0.27487 0.05223 0.58851 0.0
C326 C 0.25674 0.04639 0.57647 0.0
C327 C 0.25572 0.03225 0.55582 0.0
C328 C 0.29158 0.04326 0.57959 0.0
C329 C 0.28989 0.02924 0.55879 0.0
N330 N 0.26853 0.98628 0.48468 0.0
C331 C 0.24928 0.96621 0.45228 0.0
C332 C 0.26612 0.95924 0.44118 0.0
C333 C 0.28417 0.9662 0.45206 0.0
C334 C 0.28503 0.97958 0.4736 0.0
C335 C 0.25081 0.97961 0.47382 0.0
H336 H 0.29923 0.98423 0.48095 0.0
H337 H 0.23745 0.98424 0.48143 0.0
H338 H 0.24149 0.02857 0.54748 0.0
H339 H 0.30318 0.0231 0.55287 0.0
C340 C 0.3184 0.00309 0.51739 0.0
C341 C 0.26998 0.96515 0.55846 0.0
C342 C 0.27049 0.04462 0.47226 0.0
C343 C 0.22218 0.00704 0.51405 0.0
H344 H 0.30927 0.95271 0.57132 0.0
H345 H 0.33595 0.97321 0.54888 0.0
H346 H 0.33636 0.03124 0.48673 0.0
H347 H 0.31 0.05359 0.46188 0.0
H348 H 0.23103 0.05691 0.45942 0.0
H349 H 0.20452 0.03628 0.48173 0.0
H350 H 0.20424 0.97935 0.54534 0.0
H351 H 0.23051 0.95644 0.56926 0.0
H352 H 0.24334 0.05302 0.58244 0.0
H353 H 0.30595 0.04701 0.58859 0.0
H354 H 0.23495 0.96105 0.44479 0.0
H355 H 0.29763 0.96143 0.44393 0.0
C356 C 0.52974 0.7882 0.05002 0.0
C357 C 0.53633 0.80598 0.06133 0.0
C358 C 0.52674 0.82016 0.04734 0.0
C359 C 0.51487 0.81028 0.02841 0.0
N360 N 0.5161 0.79062 0.02962 0.0
Co361 Co 0.50188 0.77069 0.00532 0.0
N362 N 0.48835 0.7916 0.98411 0.0
C363 C 0.49021 0.81115 0.9883 0.0
C364 C 0.47875 0.82183 0.97086 0.0
C365 C 0.46875 0.80831 0.95471 0.0
C366 C 0.47471 0.7901 0.96336 0.0
N367 N 0.48796 0.75075 0.98068 0.0
C368 C 0.47459 0.75316 0.95996 0.0
C369 C 0.4684 0.73536 0.94824 0.0
C370 C 0.47815 0.7212 0.96211 0.0
C371 C 0.48966 0.73109 0.98143 0.0
N372 N 0.51515 0.74978 0.02688 0.0
C373 C 0.51283 0.73022 0.02318 0.0
C374 C 0.524 0.71955 0.04098 0.0
C375 C 0.5342 0.73306 0.05692 0.0
C376 C 0.52861 0.75127 0.04788 0.0
N377 N 0.47972 0.77063 0.02879 0.0
C378 C 0.4466 0.7704 0.05907 0.0
C379 C 0.45428 0.75305 0.04883 0.0
C380 C 0.47069 0.75349 0.03403 0.0
C381 C 0.45616 0.78786 0.05454 0.0
C382 C 0.47253 0.78766 0.03941 0.0
N383 N 0.52393 0.77071 0.98166 0.0
C384 C 0.5471 0.75302 0.95596 0.0
C385 C 0.55422 0.77034 0.94639 0.0
C386 C 0.54614 0.78793 0.95532 0.0
C387 C 0.5312 0.78778 0.97285 0.0
C388 C 0.53214 0.75353 0.97333 0.0
H389 H 0.52567 0.80166 0.97886 0.0
H390 H 0.52746 0.73978 0.9797 0.0
H391 H 0.47567 0.73974 0.02682 0.0
H392 H 0.47895 0.80147 0.03628 0.0
C393 C 0.50267 0.81903 0.00899 0.0
C394 C 0.53722 0.76949 0.05904 0.0
C395 C 0.46662 0.77186 0.95155 0.0
C396 C 0.50112 0.72232 1.00167 0.0
H397 H 0.54713 0.80842 0.07782 0.0
H398 H 0.52839 0.83582 0.05039 0.0
H399 H 0.47764 0.83757 0.97015 0.0
H400 H 0.45812 0.81148 0.93856 0.0
H401 H 0.45764 0.73285 0.93174 0.0
H402 H 0.47662 0.70555 0.95894 0.0
H403 H 0.52501 0.70381 0.0418 0.0
H404 H 0.54485 0.72985 0.07302 0.0
H405 H 0.44768 0.73908 0.05225 0.0
H406 H 0.45076 0.8017 0.06202 0.0
H407 H 0.55314 0.739 0.95027 0.0
H408 H 0.55104 0.80178 0.9485 0.0
C409 C 0.21977 0.53313 0.06065 0.0
C410 C 0.20247 0.54003 0.07016 0.0
C411 C 0.18764 0.53193 0.05398 0.0
C412 C 0.19667 0.52068 0.03553 0.0
N413 N 0.2164 0.52101 0.03897 0.0
Co414 Co 0.23524 0.50728 0.0161 0.0
N415 N 0.21336 0.4948 0.99301 0.0
C416 C 0.19397 0.49717 0.99518 0.0
C417 C 0.18254 0.48601 0.97712 0.0
C418 C 0.19539 0.4756 0.96282 0.0
C419 C 0.21395 0.48109 0.97308 0.0
N420 N 0.25405 0.49381 0.99297 0.0
C421 C 0.25068 0.48058 0.97256 0.0
C422 C 0.26789 0.47455 0.96197 0.0
C423 C 0.28271 0.48418 0.97641 0.0
C424 C 0.27374 0.49545 0.9949 0.0
N425 N 0.25715 0.51934 0.03955 0.0
C426 C 0.27653 0.51695 0.0372 0.0
C427 C 0.28806 0.52652 0.05679 0.0
C428 C 0.27531 0.53562 0.07262 0.0
C429 C 0.25665 0.53117 0.06158 0.0
N430 N 0.23558 0.48427 0.03943 0.0
C431 C 0.2362 0.45192 0.07325 0.0
C432 C 0.25336 0.4591 0.06366 0.0
C433 C 0.25273 0.47503 0.0469 0.0
C434 C 0.21868 0.4612 0.06524 0.0
C435 C 0.2187 0.47719 0.04856 0.0
N436 N 0.23491 0.5304 0.99266 0.0
C437 C 0.25207 0.55527 0.97009 0.0
C438 C 0.23456 0.56308 0.95917 0.0
C439 C 0.21721 0.55416 0.96555 0.0
C440 C 0.21772 0.53812 0.98217 0.0
C441 C 0.25192 0.53914 0.98648 0.0
H442 H 0.20394 0.53223 0.98616 0.0
H443 H 0.26582 0.53409 0.99398 0.0
H444 H 0.26632 0.47963 0.04019 0.0
H445 H 0.20488 0.48367 0.04338 0.0
C446 C 0.18701 0.50936 0.01511 0.0
C447 C 0.239 0.53893 0.07243 0.0
C448 C 0.23165 0.47229 0.96394 0.0
C449 C 0.28345 0.50604 0.01597 0.0
H450 H 0.20072 0.54999 0.08694 0.0
H451 H 0.17212 0.53402 0.05548 0.0
H452 H 0.16675 0.48518 0.97504 0.0
H453 H 0.1916 0.46492 0.94697 0.0
H454 H 0.26963 0.46386 0.94602 0.0
H455 H 0.29822 0.48253 0.97438 0.0
H456 H 0.30386 0.52692 0.05918 0.0
H457 H 0.2793 0.54465 0.09022 0.0
H458 H 0.26731 0.45231 0.06878 0.0
H459 H 0.20496 0.45642 0.07219 0.0
H460 H 0.26599 0.56169 0.96638 0.0
H461 H 0.20318 0.5593 0.95751 0.0
C462 C 0.47158 0.25097 0.98834 0.0
C463 C 0.46403 0.26818 0.97822 0.0
C464 C 0.47497 0.28303 0.99031 0.0
C465 C 0.48857 0.27406 0.00696 0.0
N466 N 0.48713 0.25435 0.00599 0.0
Co467 Co 0.50377 0.23554 0.02709 0.0
N468 N 0.51777 0.25743 0.04805 0.0
C469 C 0.51436 0.27679 0.04586 0.0
C470 C 0.52564 0.28831 0.06362 0.0
C471 C 0.53695 0.27558 0.07805 0.0
C472 C 0.53204 0.25693 0.06803 0.0
N473 N 0.52077 0.21672 0.04773 0.0
C474 C 0.5353 0.22007 0.06704 0.0
C475 C 0.54402 0.20278 0.07517 0.0
C476 C 0.53459 0.188 0.06066 0.0
C477 C 0.52081 0.19703 0.04443 0.0
N478 N 0.48925 0.21367 0.00676 0.0
C479 C 0.49236 0.1943 0.00912 0.0
C480 C 0.47932 0.1828 0.99378 0.0
C481 C 0.46687 0.19558 0.9812 0.0
C482 C 0.47315 0.21419 0.98958 0.0
N483 N 0.52344 0.23609 0.9998 0.0
C484 C 0.55179 0.2371 0.96171 0.0
C485 C 0.54391 0.2194 0.96896 0.0
C486 C 0.52993 0.21923 0.98785 0.0
C487 C 0.54516 0.25425 0.9739 0.0
C488 C 0.53113 0.25342 0.99257 0.0
N489 N 0.4842 0.23502 0.0542 0.0
C490 C 0.46539 0.21731 0.08432 0.0
C491 C 0.45564 0.23436 0.0918 0.0
C492 C 0.46056 0.25173 0.08012 0.0
C493 C 0.47477 0.25174 0.06165 0.0
C494 C 0.47948 0.21796 0.06564 0.0
H495 H 0.47775 0.26546 0.05347 0.0
H496 H 0.48635 0.20447 0.06066 0.0
H497 H 0.52463 0.20525 0.99241 0.0
H498 H 0.52689 0.26707 1.00097 0.0
C499 C 0.50106 0.28374 0.02617 0.0
C500 C 0.46285 0.23188 0.98164 0.0
C501 C 0.54159 0.23929 0.07791 0.0
C502 C 0.50725 0.1874 0.0266 0.0
H503 H 0.45153 0.26983 0.96415 0.0
H504 H 0.47272 0.29855 0.98813 0.0
H505 H 0.52574 0.3041 0.06568 0.0
H506 H 0.54771 0.2796 0.09404 0.0
H507 H 0.55602 0.201 0.08998 0.0
H508 H 0.53742 0.1725 0.06186 0.0
H509 H 0.47865 0.167 0.99242 0.0
H510 H 0.45436 0.19165 0.96781 0.0
H511 H 0.54834 0.20568 0.95994 0.0
H512 H 0.55099 0.26836 0.96944 0.0
H513 H 0.46231 0.2035 0.09297 0.0
H514 H 0.45325 0.2653 0.0848 0.0
C515 C 0.75494 0.53534 0.05177 0.0
C516 C 0.73691 0.54257 0.0582 0.0
C517 C 0.72308 0.53132 0.0442 0.0
C518 C 0.73337 0.51787 0.03013 0.0
N519 N 0.75299 0.51969 0.03444 0.0
Co520 Co 0.77335 0.50321 0.01762 0.0
N521 N 0.75292 0.4874 0.9958 0.0
C522 C 0.73333 0.48969 0.99555 0.0
C523 C 0.72297 0.47655 0.97898 0.0
C524 C 0.73673 0.46503 0.96807 0.0
C525 C 0.75478 0.47185 0.97866 0.0
N526 N 0.79367 0.48668 1.00086 0.0
C527 C 0.79168 0.47107 0.98346 0.0
C528 C 0.80968 0.46359 0.97737 0.0
C529 C 0.82353 0.47472 0.99156 0.0
C530 C 0.81327 0.48832 0.00545 0.0
N531 N 0.79373 0.51912 0.03936 0.0
C532 C 0.81333 0.51691 0.03945 0.0
C533 C 0.82368 0.53027 0.05568 0.0
C534 C 0.80992 0.54186 0.06648 0.0
C535 C 0.79186 0.53484 0.05624 0.0
N536 N 0.77263 0.48442 0.04655 0.0
C537 C 0.77147 0.45589 0.08523 0.0
C538 C 0.78927 0.46318 0.07805 0.0
C539 C 0.7895 0.47736 0.05885 0.0
C540 C 0.75429 0.46358 0.07336 0.0
C541 C 0.7552 0.4777 0.05428 0.0
N542 N 0.77411 0.52204 0.98876 0.0
C543 C 0.79228 0.54356 0.96255 0.0
C544 C 0.77502 0.55222 0.9526 0.0
C545 C 0.7573 0.54477 0.95974 0.0
C546 C 0.75719 0.5297 0.97752 0.0
C547 C 0.7915 0.52857 0.98052 0.0
H548 H 0.74322 0.52482 0.98231 0.0
H549 H 0.80514 0.52288 0.98797 0.0
H550 H 0.80351 0.48215 0.05404 0.0
H551 H 0.74158 0.48278 0.04592 0.0
C552 C 0.72506 0.50388 0.01187 0.0
C553 C 0.77343 0.54407 0.06242 0.0
C554 C 0.77317 0.46264 0.97241 0.0
C555 C 0.82156 0.50251 0.02343 0.0
H556 H 0.73406 0.55484 0.07147 0.0
H557 H 0.70739 0.53296 0.04397 0.0
H558 H 0.70727 0.47527 0.97557 0.0
H559 H 0.7338 0.4528 0.95417 0.0
H560 H 0.81247 0.45126 0.96418 0.0
H561 H 0.83922 0.47297 0.99195 0.0
H562 H 0.83939 0.53164 0.05891 0.0
H563 H 0.81287 0.55428 0.08003 0.0
H564 H 0.80299 0.45764 0.08666 0.0
H565 H 0.74013 0.45871 0.07871 0.0
H566 H 0.80634 0.54885 0.95738 0.0
H567 H 0.74354 0.55078 0.95197 0.0
C568 C 0.21215 0.25363 0.36732 0.0
C569 C 0.21143 0.25472 0.3395 0.0
C570 C 0.19581 0.25821 0.38121 0.0
C571 C 0.14828 0.28257 0.38015 0.0
H572 H 0.13493 0.24034 0.42478 0.0
C573 C 0.07566 0.28094 0.43319 0.0
C574 C 0.07613 0.27247 0.4582 0.0
C575 C 0.09203 0.28005 0.41809 0.0
C576 C 0.13854 0.25247 0.41283 0.0
H577 H 0.19347 0.26299 0.30467 0.0
H578 H 0.16478 0.27143 0.32923 0.0
H579 H 0.16396 0.23787 0.40007 0.0
H580 H 0.09436 0.25724 0.48749 0.0
H581 H 0.12301 0.25623 0.46179 0.0
H582 H 0.12306 0.2974 0.39343 0.0
C583 C 0.17804 0.2668 0.34013 0.0
C584 C 0.15517 0.25098 0.39853 0.0
C585 C 0.19446 0.26205 0.32611 0.0
C586 C 0.09345 0.26357 0.46808 0.0
C587 C 0.10986 0.26293 0.45321 0.0
C588 C 0.13169 0.28421 0.39481 0.0
C589 C 0.17837 0.26421 0.36769 0.0
C590 C 0.16033 0.26604 0.38221 0.0
C591 C 0.10933 0.27089 0.42781 0.0
C592 C 0.12668 0.26922 0.41155 0.0
H593 H 0.22515 0.2484 0.37827 0.0
H594 H 0.1966 0.25646 0.40251 0.0
H595 H 0.15194 0.29441 0.36771 0.0
H596 H 0.06245 0.2878 0.42502 0.0
H597 H 0.09093 0.28616 0.39855 0.0
C598 C 0.74196 0.19226 0.30725 0.0
C599 C 0.76141 0.19569 0.30161 0.0
C600 C 0.73631 0.17404 0.31559 0.0
C601 C 0.75112 0.12241 0.32307 0.0
H602 H 0.7253 0.12791 0.3888 0.0
C603 C 0.75178 0.06239 0.40048 0.0
C604 C 0.73584 0.06088 0.41633 0.0
C605 C 0.75237 0.07705 0.38201 0.0
C606 C 0.73209 0.12596 0.37017 0.0
H607 H 0.78975 0.18224 0.29816 0.0
H608 H 0.77992 0.15043 0.31314 0.0
H609 H 0.73057 0.1565 0.36329 0.0
H610 H 0.70758 0.07317 0.42418 0.0
H611 H 0.70825 0.09812 0.39127 0.0
H612 H 0.75292 0.09181 0.3303 0.0
C613 C 0.76905 0.16184 0.31104 0.0
C614 C 0.73515 0.14241 0.35554 0.0
C615 C 0.77473 0.1801 0.30272 0.0
C616 C 0.72005 0.07377 0.41226 0.0
C617 C 0.72055 0.08829 0.3936 0.0
C618 C 0.74792 0.10585 0.33765 0.0
C619 C 0.74996 0.15886 0.31848 0.0
C620 C 0.74496 0.14089 0.33207 0.0
C621 C 0.73695 0.09044 0.37875 0.0
C622 C 0.73865 0.1075 0.36163 0.0
H623 H 0.73135 0.20397 0.30677 0.0
H624 H 0.72143 0.17207 0.32085 0.0
H625 H 0.7586 0.1208 0.30494 0.0
H626 H 0.76402 0.05246 0.40268 0.0
H627 H 0.7653 0.07832 0.37109 0.0
C628 C 0.79432 0.74624 0.35749 0.0
C629 C 0.7933 0.74697 0.32964 0.0
C630 C 0.81173 0.7412 0.37158 0.0
C631 C 0.86121 0.7203 0.36541 0.0
H632 H 0.87494 0.75568 0.42556 0.0
C633 C 0.93978 0.72723 0.41511 0.0
C634 C 0.94171 0.72992 0.44282 0.0
C635 C 0.92128 0.72741 0.40156 0.0
C636 C 0.87125 0.74546 0.40909 0.0
H637 H 0.80933 0.74189 0.29461 0.0
H638 H 0.83983 0.73312 0.31923 0.0
H639 H 0.84312 0.75826 0.40165 0.0
H640 H 0.92632 0.73466 0.47837 0.0
H641 H 0.89388 0.73478 0.45487 0.0
H642 H 0.88957 0.70769 0.37276 0.0
C643 C 0.82714 0.73632 0.33018 0.0
C644 C 0.85296 0.74693 0.39537 0.0
C645 C 0.80967 0.74131 0.31606 0.0
C646 C 0.92502 0.73262 0.45692 0.0
C647 C 0.90653 0.73278 0.44344 0.0
C648 C 0.87955 0.71881 0.3792 0.0
C649 C 0.82853 0.73683 0.35815 0.0
C650 C 0.84771 0.73441 0.37332 0.0
C651 C 0.90444 0.73032 0.41556 0.0
C652 C 0.88481 0.73143 0.40116 0.0
H653 H 0.78182 0.75025 0.36845 0.0
H654 H 0.81218 0.74128 0.39309 0.0
H655 H 0.85755 0.71035 0.34863 0.0
H656 H 0.95259 0.7252 0.40398 0.0
H657 H 0.92021 0.72573 0.38008 0.0
C658 C 0.25717 0.81199 0.30144 0.0
C659 C 0.2396 0.80899 0.28585 0.0
C660 C 0.2616 0.83036 0.3133 0.0
C661 C 0.23597 0.87418 0.33639 0.0
H662 H 0.28835 0.89482 0.35127 0.0
C663 C 0.25004 0.94542 0.39834 0.0
C664 C 0.26487 0.94442 0.41894 0.0
C665 C 0.24813 0.93077 0.37835 0.0
C666 C 0.27365 0.8892 0.34726 0.0
H667 H 0.2136 0.82295 0.2687 0.0
H668 H 0.22151 0.85515 0.2888 0.0
H669 H 0.28311 0.86582 0.32195 0.0
H670 H 0.28954 0.92742 0.43441 0.0
H671 H 0.28621 0.90191 0.39951 0.0
H672 H 0.22653 0.89725 0.36201 0.0
C673 C 0.23162 0.84326 0.29257 0.0
C674 C 0.27064 0.8726 0.33052 0.0
C675 C 0.22712 0.82489 0.28096 0.0
C676 C 0.27811 0.92876 0.41865 0.0
C677 C 0.27622 0.91415 0.39863 0.0
C678 C 0.23895 0.89078 0.35297 0.0
C679 C 0.24859 0.84608 0.30958 0.0
C680 C 0.25179 0.86474 0.3252 0.0
C681 C 0.26103 0.91484 0.37851 0.0
C682 C 0.25785 0.8983 0.35892 0.0
H683 H 0.26696 0.7999 0.30563 0.0
H684 H 0.2747 0.83195 0.32648 0.0
H685 H 0.2213 0.86832 0.33321 0.0
H686 H 0.23984 0.95748 0.39773 0.0
H687 H 0.23644 0.93182 0.36288 0.0
C688 C 0.20624 0.75127 0.65898 0.0
C689 C 0.20678 0.75358 0.68679 0.0
C690 C 0.18897 0.74577 0.64434 0.0
C691 C 0.13876 0.72639 0.64895 0.0
H692 H 0.12738 0.75765 0.58718 0.0
C693 C 0.06158 0.73141 0.59472 0.0
C694 C 0.06059 0.73193 0.56693 0.0
C695 C 0.07969 0.73222 0.60933 0.0
C696 C 0.13041 0.74858 0.60413 0.0
H697 H 0.19 0.75088 0.72122 0.0
H698 H 0.15967 0.74139 0.69563 0.0
H699 H 0.15865 0.76133 0.61258 0.0
H700 H 0.07726 0.73336 0.53232 0.0
H701 H 0.10903 0.7346 0.55768 0.0
H702 H 0.11025 0.71388 0.64057 0.0
C703 C 0.17265 0.74367 0.68512 0.0
C704 C 0.14839 0.75066 0.6187 0.0
C705 C 0.19001 0.74908 0.69981 0.0
C706 C 0.07783 0.73303 0.55381 0.0
C707 C 0.09593 0.73383 0.56835 0.0
C708 C 0.12071 0.72431 0.63433 0.0
C709 C 0.17178 0.74257 0.65715 0.0
C710 C 0.15282 0.73961 0.64129 0.0
C711 C 0.09709 0.73359 0.5963 0.0
C712 C 0.11633 0.73541 0.61175 0.0
H713 H 0.21904 0.7544 0.64847 0.0
H714 H 0.18895 0.74457 0.62288 0.0
H715 H 0.14176 0.71755 0.66613 0.0
H716 H 0.04833 0.7306 0.60509 0.0
H717 H 0.08005 0.73223 0.63081 0.0
C718 C 0.23721 0.18604 0.73251 0.0
C719 C 0.24875 0.20298 0.73534 0.0
C720 C 0.24433 0.16903 0.72075 0.0
C721 C 0.27684 0.15263 0.67152 0.0
H722 H 0.26766 0.10154 0.69904 0.0
C723 C 0.29112 0.08218 0.61016 0.0
C724 C 0.27629 0.06797 0.60959 0.0
C725 C 0.29158 0.09781 0.62877 0.0
C726 C 0.27027 0.11569 0.69103 0.0
H727 H 0.27686 0.21551 0.72866 0.0
H728 H 0.28931 0.18563 0.70736 0.0
H729 H 0.26153 0.13085 0.72609 0.0
H730 H 0.25087 0.05857 0.62898 0.0
H731 H 0.25123 0.08611 0.66069 0.0
H732 H 0.28455 0.13765 0.63592 0.0
C733 C 0.27479 0.18557 0.71447 0.0
C734 C 0.26685 0.13244 0.70657 0.0
C735 C 0.26773 0.20257 0.72666 0.0
C736 C 0.26231 0.06942 0.62859 0.0
C737 C 0.26271 0.08508 0.64707 0.0
C738 C 0.28008 0.13588 0.65585 0.0
C739 C 0.26308 0.16869 0.71131 0.0
C740 C 0.26963 0.15106 0.69669 0.0
C741 C 0.27717 0.09963 0.64715 0.0
C742 C 0.27633 0.11722 0.66515 0.0
H743 H 0.22257 0.186 0.73925 0.0
H744 H 0.23491 0.15631 0.71827 0.0
H745 H 0.27892 0.16683 0.66333 0.0
H746 H 0.30203 0.08161 0.59569 0.0
H747 H 0.30306 0.10863 0.62848 0.0
C748 C 0.8086 0.26489 0.72104 0.0
C749 C 0.79194 0.25735 0.70629 0.0
C750 C 0.82531 0.26982 0.70821 0.0
C751 C 0.84981 0.25388 0.64996 0.0
H752 H 0.88145 0.30077 0.66024 0.0
C753 C 0.91388 0.26585 0.5855 0.0
C754 C 0.93086 0.27498 0.59707 0.0
C755 C 0.89689 0.26546 0.59913 0.0
C756 C 0.87294 0.28746 0.65741 0.0
H757 H 0.7791 0.25087 0.66642 0.0
H758 H 0.80823 0.25914 0.64424 0.0
H759 H 0.85174 0.29776 0.68402 0.0
H760 H 0.94339 0.29109 0.63185 0.0
H761 H 0.91388 0.28986 0.65625 0.0
H762 H 0.871 0.24311 0.62427 0.0
C763 C 0.80851 0.26096 0.66568 0.0
C764 C 0.85589 0.28581 0.67096 0.0
C765 C 0.79185 0.25622 0.6784 0.0
C766 C 0.93044 0.28402 0.62245 0.0
C767 C 0.91349 0.28337 0.63634 0.0
C768 C 0.86691 0.25538 0.6368 0.0
C769 C 0.82562 0.26717 0.68048 0.0
C770 C 0.84403 0.2691 0.66703 0.0
C771 C 0.89652 0.27389 0.62496 0.0
C772 C 0.87861 0.27228 0.63997 0.0
H773 H 0.80913 0.26587 0.74255 0.0
H774 H 0.83832 0.2746 0.72008 0.0
H775 H 0.84116 0.24065 0.647 0.0
H776 H 0.9137 0.25907 0.56575 0.0
H777 H 0.88403 0.25854 0.5893 0.0
C778 C 0.77822 0.8292 0.72852 0.0
C779 C 0.76452 0.81405 0.72953 0.0
C780 C 0.77253 0.84719 0.71835 0.0
C781 C 0.73727 0.86618 0.66916 0.0
H782 H 0.75611 0.91702 0.69589 0.0
C783 C 0.72164 0.93415 0.60825 0.0
C784 C 0.73737 0.94712 0.60669 0.0
C785 C 0.72241 0.91977 0.62722 0.0
C786 C 0.75083 0.90291 0.68808 0.0
H787 H 0.73401 0.8061 0.72188 0.0
H788 H 0.72409 0.83755 0.70409 0.0
H789 H 0.76231 0.88837 0.72275 0.0
H790 H 0.76578 0.95577 0.62502 0.0
H791 H 0.76756 0.93012 0.65708 0.0
H792 H 0.7267 0.88025 0.634 0.0
C793 C 0.7392 0.83547 0.71111 0.0
C794 C 0.75431 0.88656 0.70353 0.0
C795 C 0.74486 0.81755 0.72146 0.0
C796 C 0.75357 0.94578 0.62524 0.0
C797 C 0.75445 0.93124 0.64398 0.0
C798 C 0.73399 0.88244 0.65362 0.0
C799 C 0.75308 0.85027 0.70882 0.0
C800 C 0.74776 0.86801 0.69404 0.0
C801 C 0.73904 0.91781 0.64487 0.0
C802 C 0.74095 0.90098 0.66269 0.0
H803 H 0.79343 0.82692 0.73484 0.0
H804 H 0.78354 0.85831 0.71667 0.0
H805 H 0.73235 0.852 0.66114 0.0
H806 H 0.70897 0.9346 0.59423 0.0
H807 H 0.71011 0.90992 0.62764 0.0
C808 C 0.8271 0.76849 0.71893 0.0
C809 C 0.80944 0.75799 0.71662 0.0
C810 C 0.843 0.76223 0.70509 0.0
C811 C 0.85466 0.73438 0.64489 0.0
H812 H 0.9079 0.73978 0.67552 0.0
C813 C 0.92136 0.71717 0.58348 0.0
C814 C 0.93706 0.73045 0.58691 0.0
C815 C 0.90615 0.71797 0.6006 0.0
C816 C 0.89313 0.73832 0.66657 0.0
H817 H 0.79476 0.73235 0.69853 0.0
H818 H 0.82268 0.72131 0.67413 0.0
H819 H 0.88078 0.74534 0.70351 0.0
H820 H 0.94927 0.75458 0.61173 0.0
H821 H 0.92268 0.75627 0.64105 0.0
H822 H 0.86699 0.72791 0.60778 0.0
C823 C 0.82414 0.73447 0.68666 0.0
C824 C 0.87757 0.74145 0.68266 0.0
C825 C 0.80823 0.74067 0.70079 0.0
C826 C 0.93732 0.74428 0.60823 0.0
C827 C 0.92215 0.74508 0.62531 0.0
C828 C 0.87024 0.73132 0.62874 0.0
C829 C 0.84164 0.74534 0.6884 0.0
C830 C 0.85814 0.73987 0.67194 0.0
C831 C 0.90627 0.73203 0.62165 0.0
C832 C 0.8897 0.7336 0.63926 0.0
H833 H 0.82848 0.78185 0.73109 0.0
H834 H 0.85614 0.77107 0.70672 0.0
H835 H 0.83988 0.73325 0.63591 0.0
H836 H 0.92058 0.70643 0.56716 0.0
H837 H 0.89428 0.70755 0.59732 0.0
C838 C 0.25247 0.82715 0.70851 0.0
C839 C 0.25369 0.80881 0.69534 0.0
C840 C 0.25594 0.84443 0.6952 0.0
C841 C 0.25581 0.86216 0.62595 0.0
H842 H 0.27918 0.90904 0.65973 0.0
C843 C 0.27352 0.92894 0.5646 0.0
C844 C 0.2697 0.94761 0.57538 0.0
C845 C 0.27254 0.91238 0.58005 0.0
C846 C 0.27245 0.89613 0.65001 0.0
H847 H 0.26061 0.79415 0.65851 0.0
H848 H 0.26728 0.8239 0.63573 0.0
H849 H 0.27631 0.87972 0.6855 0.0
H850 H 0.26213 0.96368 0.61082 0.0
H851 H 0.26028 0.93479 0.63792 0.0
H852 H 0.25188 0.87844 0.59056 0.0
C853 C 0.26306 0.82521 0.65598 0.0
C854 C 0.2708 0.87926 0.66485 0.0
C855 C 0.25946 0.80808 0.66915 0.0
C856 C 0.26516 0.94943 0.60207 0.0
C857 C 0.26421 0.93287 0.61759 0.0
C858 C 0.25751 0.87893 0.61117 0.0
C859 C 0.26077 0.84371 0.66844 0.0
C860 C 0.26255 0.86195 0.65299 0.0
C861 C 0.26772 0.91404 0.60675 0.0
C862 C 0.26593 0.89618 0.62288 0.0
H863 H 0.24783 0.82819 0.72859 0.0
H864 H 0.25396 0.85833 0.70552 0.0
H865 H 0.24887 0.84938 0.61615 0.0
H866 H 0.2771 0.92717 0.54409 0.0
H867 H 0.27563 0.89824 0.57105 0.0
C868 C 0.17835 0.25402 0.74884 0.0
C869 C 0.1953 0.25172 0.73502 0.0
C870 C 0.16068 0.25938 0.73536 0.0
C871 C 0.14002 0.28133 0.67341 0.0
H872 H 0.09478 0.24893 0.68212 0.0
C873 C 0.07499 0.27654 0.59494 0.0
C874 C 0.05615 0.2745 0.60343 0.0
C875 C 0.09126 0.27599 0.6132 0.0
C876 C 0.10714 0.25837 0.67974 0.0
H877 H 0.20736 0.25406 0.69676 0.0
H878 H 0.17675 0.26354 0.67336 0.0
H879 H 0.1245 0.24474 0.71086 0.0
H880 H 0.03919 0.27057 0.63732 0.0
H881 H 0.06764 0.26984 0.66959 0.0
H882 H 0.12284 0.29481 0.64211 0.0
C883 C 0.17696 0.2612 0.6945 0.0
C884 C 0.12418 0.25596 0.69625 0.0
C885 C 0.19447 0.25564 0.70784 0.0
C886 C 0.05369 0.27214 0.63047 0.0
C887 C 0.06996 0.27161 0.64881 0.0
C888 C 0.12298 0.28381 0.65701 0.0
C889 C 0.15978 0.26285 0.70796 0.0
C890 C 0.14095 0.26711 0.69286 0.0
C891 C 0.08898 0.27343 0.64038 0.0
C892 C 0.10645 0.27207 0.65955 0.0
H893 H 0.17861 0.251 0.76979 0.0
H894 H 0.14769 0.26065 0.74629 0.0
H895 H 0.1526 0.29036 0.67058 0.0
H896 H 0.07712 0.27828 0.57408 0.0
H897 H 0.10565 0.27709 0.60588 0.0
C898 C 0.75148 0.18377 0.72126 0.0
C899 C 0.74644 0.20175 0.71011 0.0
C900 C 0.74848 0.16619 0.7062 0.0
C901 C 0.74446 0.14885 0.63554 0.0
H902 H 0.72897 0.09944 0.66273 0.0
C903 C 0.73088 0.08078 0.56557 0.0
C904 C 0.73676 0.0625 0.57495 0.0
C905 C 0.73112 0.0973 0.58282 0.0
C906 C 0.73353 0.11306 0.65485 0.0
H907 H 0.73355 0.21541 0.67511 0.0
H908 H 0.7278 0.18495 0.64919 0.0
H909 H 0.73036 0.12878 0.69192 0.0
H910 H 0.74739 0.04708 0.60969 0.0
H911 H 0.74823 0.07595 0.63988 0.0
H912 H 0.74797 0.1333 0.59871 0.0
C913 C 0.73439 0.18428 0.66928 0.0
C914 C 0.73429 0.12993 0.67163 0.0
C915 C 0.73742 0.20174 0.68424 0.0
C916 C 0.74278 0.06103 0.602 0.0
C917 C 0.74311 0.07757 0.61929 0.0
C918 C 0.74379 0.13205 0.61886 0.0
C919 C 0.74048 0.16629 0.67966 0.0
C920 C 0.73963 0.14811 0.66214 0.0
C921 C 0.73737 0.09601 0.60995 0.0
C922 C 0.73821 0.11388 0.62814 0.0
H923 H 0.7588 0.18342 0.74098 0.0
H924 H 0.75342 0.15266 0.71485 0.0
H925 H 0.74913 0.16243 0.62763 0.0
H926 H 0.72613 0.08227 0.5448 0.0
H927 H 0.72626 0.11108 0.57487 0.0
C928 C 0.82648 0.24089 0.32078 0.0
C929 C 0.80861 0.24957 0.32628 0.0
C930 C 0.84363 0.24608 0.33597 0.0
C931 C 0.86093 0.26251 0.40239 0.0
H932 H 0.90927 0.27447 0.37102 0.0
C933 C 0.93177 0.27887 0.46815 0.0
C934 C 0.94937 0.27202 0.45884 0.0
C935 C 0.91458 0.27827 0.45151 0.0
C936 C 0.896 0.27089 0.38016 0.0
H937 H 0.79458 0.27058 0.35169 0.0
H938 H 0.82465 0.27937 0.37884 0.0
H939 H 0.87933 0.26954 0.34252 0.0
H940 H 0.96311 0.25971 0.42484 0.0
H941 H 0.93301 0.25764 0.39606 0.0
H942 H 0.87753 0.26282 0.43983 0.0
C943 C 0.82535 0.26871 0.36256 0.0
C944 C 0.87881 0.26823 0.36379 0.0
C945 C 0.80823 0.26379 0.34699 0.0
C946 C 0.94961 0.26489 0.43248 0.0
C947 C 0.93237 0.26395 0.41595 0.0
C948 C 0.87816 0.26483 0.41874 0.0
C949 C 0.84319 0.25978 0.3573 0.0
C950 C 0.86114 0.26391 0.37473 0.0
C951 C 0.91455 0.27056 0.42524 0.0
C952 C 0.896 0.26893 0.40787 0.0
H953 H 0.82711 0.22989 0.3049 0.0
H954 H 0.85715 0.23887 0.33162 0.0
H955 H 0.84755 0.25894 0.4113 0.0
H956 H 0.93134 0.28463 0.48838 0.0
H957 H 0.90133 0.28392 0.4593 0.0
C958 C 0.74949 0.82027 0.31049 0.0
C959 C 0.74707 0.80235 0.32259 0.0
C960 C 0.74659 0.83802 0.32459 0.0
C961 C 0.74696 0.85736 0.39458 0.0
H962 H 0.72601 0.90449 0.36336 0.0
C963 C 0.73221 0.92628 0.45959 0.0
C964 C 0.73681 0.94452 0.44986 0.0
C965 C 0.73258 0.90932 0.44323 0.0
C966 C 0.73208 0.8915 0.37236 0.0
H967 H 0.73864 0.78893 0.35822 0.0
H968 H 0.73296 0.81959 0.38238 0.0
H969 H 0.72749 0.87441 0.33591 0.0
H970 H 0.74521 0.95947 0.41542 0.0
H971 H 0.74607 0.92984 0.38673 0.0
H972 H 0.75167 0.87431 0.43091 0.0
C973 C 0.73764 0.82015 0.36238 0.0
C974 C 0.73292 0.87422 0.35657 0.0
C975 C 0.74064 0.80253 0.34841 0.0
C976 C 0.74161 0.94554 0.42335 0.0
C977 C 0.74196 0.92857 0.40691 0.0
C978 C 0.7461 0.87456 0.4103 0.0
C979 C 0.74118 0.83819 0.35107 0.0
C980 C 0.74026 0.85684 0.36751 0.0
C981 C 0.73758 0.91017 0.41666 0.0
C982 C 0.73856 0.89189 0.39952 0.0
H983 H 0.75468 0.82055 0.29073 0.0
H984 H 0.74953 0.85157 0.31519 0.0
H985 H 0.75321 0.84448 0.40366 0.0
H986 H 0.72841 0.92515 0.47995 0.0
H987 H 0.72881 0.89553 0.45139 0.0
C988 C 0.18992 0.73933 0.30039 0.0
C989 C 0.19025 0.75611 0.28521 0.0
C990 C 0.1734 0.73486 0.31389 0.0
C991 C 0.13107 0.76008 0.34121 0.0
H992 H 0.11401 0.70773 0.3552 0.0
C993 C 0.06276 0.74704 0.39816 0.0
C994 C 0.0642 0.73308 0.41799 0.0
C995 C 0.07723 0.74854 0.38018 0.0
C996 C 0.1187 0.72244 0.35161 0.0
H997 H 0.17311 0.7805 0.27056 0.0
H998 H 0.14414 0.77242 0.29327 0.0
H999 H 0.14044 0.71228 0.32593 0.0
H1000 H 0.08197 0.70948 0.43398 0.0
H1001 H 0.10719 0.71206 0.40249 0.0
H1002 H 0.1095 0.77027 0.36691 0.0
C1003 C 0.15679 0.76303 0.29559 0.0
C1004 C 0.13386 0.72505 0.33482 0.0
C1005 C 0.17332 0.76757 0.28234 0.0
C1006 C 0.08026 0.72027 0.41884 0.0
C1007 C 0.09474 0.72175 0.40077 0.0
C1008 C 0.11592 0.75747 0.35783 0.0
C1009 C 0.15683 0.74701 0.31232 0.0
C1010 C 0.14025 0.74394 0.3294 0.0
C1011 C 0.09354 0.73609 0.38144 0.0
C1012 C 0.10953 0.73863 0.3633 0.0
H1013 H 0.20284 0.73035 0.30316 0.0
H1014 H 0.17405 0.72247 0.32665 0.0
H1015 H 0.13587 0.77483 0.33814 0.0
H1016 H 0.05041 0.75686 0.39649 0.0
H1017 H 0.07562 0.75949 0.36523 0.0
C1018 C 0.26764 0.19953 0.35364 0.0
C1019 C 0.25654 0.19925 0.32915 0.0
C1020 C 0.27113 0.18231 0.36736 0.0
C1021 C 0.26872 0.12784 0.36193 0.0
H1022 H 0.26204 0.133 0.43749 0.0
C1023 C 0.26268 0.06031 0.42818 0.0
C1024 C 0.27053 0.06183 0.45467 0.0
C1025 C 0.26201 0.07663 0.41207 0.0
C1026 C 0.26429 0.13123 0.41653 0.0
H1027 H 0.24069 0.18067 0.29953 0.0
H1028 H 0.24692 0.15036 0.32334 0.0
H1029 H 0.25979 0.16172 0.41058 0.0
H1030 H 0.28419 0.0815 0.4849 0.0
H1031 H 0.28356 0.10988 0.45679 0.0
H1032 H 0.27323 0.09727 0.36796 0.0
C1033 C 0.25317 0.16389 0.33184 0.0
C1034 C 0.26297 0.1478 0.40099 0.0
C1035 C 0.24966 0.18121 0.31809 0.0
C1036 C 0.27802 0.07994 0.46457 0.0
C1037 C 0.27747 0.09624 0.44845 0.0
C1038 C 0.27015 0.11121 0.37753 0.0
C1039 C 0.26346 0.1643 0.35708 0.0
C1040 C 0.2652 0.14641 0.37346 0.0
C1041 C 0.26928 0.09493 0.42199 0.0
C1042 C 0.26797 0.11264 0.40513 0.0
H1043 H 0.27285 0.21329 0.36279 0.0
H1044 H 0.27941 0.18322 0.38645 0.0
H1045 H 0.27067 0.12617 0.34086 0.0
H1046 H 0.2568 0.0465 0.42008 0.0
H1047 H 0.25538 0.07497 0.392 0.0
C1048 C 0.68697 0.73828 0.80002 0.0
C1049 C 0.70226 0.75195 0.80303 0.0
C1050 C 0.66937 0.74193 0.81157 0.0
C1051 C 0.64067 0.77998 0.84712 0.0
H1052 H 0.62038 0.73461 0.87993 0.0
C1053 C 0.58479 0.7841 0.92887 0.0
C1054 C 0.56988 0.7699 0.92726 0.0
C1055 C 0.59988 0.78307 0.91155 0.0
C1056 C 0.62568 0.7474 0.87064 0.0
H1057 H 0.71093 0.78049 0.81945 0.0
H1058 H 0.68032 0.78683 0.84019 0.0
H1059 H 0.64804 0.73102 0.85278 0.0
H1060 H 0.5588 0.74398 0.90515 0.0
H1061 H 0.58517 0.74205 0.87539 0.0
H1062 H 0.61848 0.79639 0.8659 0.0
C1063 C 0.68168 0.77342 0.82846 0.0
C1064 C 0.64155 0.74534 0.8549 0.0
C1065 C 0.69924 0.76984 0.81654 0.0
C1066 C 0.57025 0.75492 0.90747 0.0
C1067 C 0.58535 0.75383 0.8903 0.0
C1068 C 0.62484 0.78206 0.8631 0.0
C1069 C 0.66675 0.7592 0.8269 0.0
C1070 C 0.64928 0.76157 0.84284 0.0
C1071 C 0.60047 0.76775 0.8923 0.0
C1072 C 0.61715 0.76577 0.87502 0.0
H1073 H 0.68899 0.72437 0.78968 0.0
H1074 H 0.65805 0.73087 0.80924 0.0
H1075 H 0.64607 0.79279 0.838 0.0
H1076 H 0.58513 0.79574 0.944 0.0
H1077 H 0.6114 0.79392 0.91378 0.0
C1078 C 0.24901 0.7174 0.84423 0.0
C1079 C 0.24823 0.71678 0.81626 0.0
C1080 C 0.24464 0.70087 0.85826 0.0
C1081 C 0.24292 0.6466 0.8506 0.0
H1082 H 0.22236 0.65094 0.9201 0.0
C1083 C 0.24931 0.58307 0.92414 0.0
C1084 C 0.23439 0.58035 0.94147 0.0
C1085 C 0.24931 0.5993 0.90791 0.0
C1086 C 0.22792 0.64929 0.90061 0.0
H1087 H 0.24116 0.69839 0.78114 0.0
H1088 H 0.23294 0.66955 0.80559 0.0
H1089 H 0.22354 0.67963 0.89331 0.0
H1090 H 0.20772 0.59308 0.95496 0.0
H1091 H 0.20737 0.62082 0.92619 0.0
H1092 H 0.24692 0.61615 0.8577 0.0
C1093 C 0.23739 0.68279 0.81674 0.0
C1094 C 0.22884 0.66593 0.88528 0.0
C1095 C 0.2418 0.69943 0.80265 0.0
C1096 C 0.21938 0.59438 0.94177 0.0
C1097 C 0.21933 0.61056 0.92543 0.0
C1098 C 0.24191 0.62993 0.86589 0.0
C1099 C 0.23922 0.68311 0.84481 0.0
C1100 C 0.23661 0.66495 0.86015 0.0
C1101 C 0.23434 0.61337 0.90829 0.0
C1102 C 0.23461 0.63102 0.89132 0.0
H1103 H 0.25385 0.73054 0.85538 0.0
H1104 H 0.24645 0.70185 0.87975 0.0
H1105 H 0.24919 0.64515 0.83154 0.0
H1106 H 0.26101 0.57255 0.92289 0.0
H1107 H 0.26131 0.60094 0.89535 0.0
C1108 C 0.30821 0.23997 0.84591 0.0
C1109 C 0.29235 0.24667 0.85983 0.0
C1110 C 0.3259 0.23511 0.85965 0.0
C1111 C 0.35358 0.2477 0.92307 0.0
H1112 H 0.38867 0.20661 0.90182 0.0
C1113 C 0.42667 0.23447 0.98277 0.0
C1114 C 0.44294 0.23065 0.96818 0.0
C1115 C 0.40789 0.23433 0.97008 0.0
C1116 C 0.37909 0.21826 0.90786 0.0
H1117 H 0.28204 0.25198 0.89903 0.0
H1118 H 0.31274 0.24326 0.92299 0.0
H1119 H 0.35626 0.20923 0.87875 0.0
H1120 H 0.45272 0.22361 0.92923 0.0
H1121 H 0.41985 0.2236 0.9067 0.0
H1122 H 0.37637 0.25702 0.95176 0.0
C1123 C 0.31173 0.24225 0.90147 0.0
C1124 C 0.3605 0.21972 0.89467 0.0
C1125 C 0.29411 0.24715 0.88777 0.0
C1126 C 0.44025 0.22646 0.94078 0.0
C1127 C 0.42146 0.22636 0.928 0.0
C1128 C 0.3721 0.24626 0.93618 0.0
C1129 C 0.32805 0.23682 0.88759 0.0
C1130 C 0.34753 0.23449 0.90212 0.0
C1131 C 0.40505 0.23049 0.94246 0.0
C1132 C 0.38513 0.23156 0.92875 0.0
H1133 H 0.30733 0.2396 0.82438 0.0
H1134 H 0.33819 0.23106 0.84832 0.0
H1135 H 0.34416 0.25954 0.92894 0.0
H1136 H 0.42853 0.23773 0.00398 0.0
H1137 H 0.3956 0.23728 0.98191 0.0
C1138 C 0.75613 0.3013 0.85671 0.0
C1139 C 0.75354 0.30157 0.82887 0.0
C1140 C 0.76086 0.31839 0.87183 0.0
C1141 C 0.77676 0.3706 0.86821 0.0
H1142 H 0.74998 0.37633 0.93313 0.0
C1143 C 0.77128 0.44477 0.9278 0.0
C1144 C 0.77296 0.44421 0.95564 0.0
C1145 C 0.77039 0.42739 0.91213 0.0
C1146 C 0.75779 0.37494 0.91526 0.0
H1147 H 0.75451 0.31985 0.79494 0.0
H1148 H 0.76254 0.3499 0.82128 0.0
H1149 H 0.74646 0.34622 0.90632 0.0
H1150 H 0.77526 0.4253 0.98906 0.0
H1151 H 0.77377 0.39488 0.96187 0.0
H1152 H 0.78771 0.39965 0.87709 0.0
C1153 C 0.76126 0.3364 0.83153 0.0
C1154 C 0.75582 0.35755 0.89982 0.0
C1155 C 0.75671 0.31917 0.81636 0.0
C1156 C 0.77393 0.42604 0.9676 0.0
C1157 C 0.77295 0.40867 0.95199 0.0
C1158 C 0.77864 0.38808 0.88363 0.0
C1159 C 0.76283 0.33638 0.85958 0.0
C1160 C 0.76533 0.35503 0.87608 0.0
C1161 C 0.77104 0.40907 0.92401 0.0
C1162 C 0.76921 0.39047 0.90744 0.0
H1163 H 0.75375 0.28792 0.86688 0.0
H1164 H 0.76248 0.31755 0.89326 0.0
H1165 H 0.78447 0.36923 0.85026 0.0
H1166 H 0.77044 0.45867 0.9182 0.0
H1167 H 0.76872 0.42832 0.89071 0.0
C1168 C 0.6793 0.27947 0.23876 0.0
C1169 C 0.69437 0.26556 0.23884 0.0
C1170 C 0.66123 0.27553 0.2251 0.0
C1171 C 0.62962 0.23678 0.19156 0.0
H1172 H 0.61276 0.2785 0.14527 0.0
C1173 C 0.5572 0.23473 0.12383 0.0
C1174 C 0.55857 0.24105 0.09788 0.0
C1175 C 0.57308 0.23693 0.14272 0.0
C1176 C 0.61729 0.26669 0.15802 0.0
H1177 H 0.7018 0.2361 0.22612 0.0
H1178 H 0.67016 0.22914 0.20238 0.0
H1179 H 0.64105 0.28341 0.17672 0.0
H1180 H 0.5774 0.25432 0.07101 0.0
H1181 H 0.60516 0.25835 0.10399 0.0
H1182 H 0.60594 0.21996 0.17232 0.0
C1183 C 0.67233 0.24311 0.21293 0.0
C1184 C 0.63337 0.26958 0.17629 0.0
C1185 C 0.69045 0.24708 0.2266 0.0
C1186 C 0.57605 0.24945 0.09099 0.0
C1187 C 0.59185 0.2518 0.10988 0.0
C1188 C 0.61338 0.23394 0.17336 0.0
C1189 C 0.65777 0.25756 0.21123 0.0
C1190 C 0.63984 0.25463 0.19315 0.0
C1191 C 0.59052 0.24568 0.13601 0.0
C1192 C 0.6072 0.2488 0.15618 0.0
H1193 H 0.68175 0.29374 0.2484 0.0
H1194 H 0.65017 0.2868 0.22466 0.0
H1195 H 0.63421 0.22501 0.20433 0.0
H1196 H 0.54378 0.22826 0.12951 0.0
H1197 H 0.57158 0.23219 0.16273 0.0
C1198 C 0.75945 0.68943 0.21381 0.0
C1199 C 0.75286 0.70578 0.19968 0.0
C1200 C 0.76458 0.6721 0.20024 0.0
C1201 C 0.7758 0.6515 0.13307 0.0
H1202 H 0.75688 0.60305 0.15934 0.0
C1203 C 0.76869 0.58039 0.06722 0.0
C1204 C 0.77338 0.5626 0.07903 0.0
C1205 C 0.76807 0.59774 0.08277 0.0
C1206 C 0.76251 0.61638 0.15186 0.0
H1207 H 0.74769 0.71705 0.16022 0.0
H1208 H 0.75639 0.68706 0.13672 0.0
H1209 H 0.75339 0.63347 0.18514 0.0
H1210 H 0.78108 0.54885 0.11621 0.0
H1211 H 0.7801 0.57916 0.14354 0.0
H1212 H 0.78457 0.63446 0.09953 0.0
C1213 C 0.7577 0.68746 0.15824 0.0
C1214 C 0.76055 0.6339 0.16674 0.0
C1215 C 0.75256 0.7047 0.17175 0.0
C1216 C 0.77747 0.56244 0.10668 0.0
C1217 C 0.77677 0.57978 0.12229 0.0
C1218 C 0.7777 0.63402 0.11817 0.0
C1219 C 0.76337 0.67072 0.17221 0.0
C1220 C 0.76695 0.65179 0.15743 0.0
C1221 C 0.77203 0.5977 0.11056 0.0
C1222 C 0.77088 0.61622 0.12717 0.0
H1223 H 0.75975 0.68972 0.23531 0.0
H1224 H 0.76916 0.65965 0.21175 0.0
H1225 H 0.78125 0.66486 0.1254 0.0
H1226 H 0.76536 0.58083 0.04594 0.0
H1227 H 0.76408 0.61114 0.07302 0.0
C1228 C 0.29561 0.74025 0.16649 0.0
C1229 C 0.29425 0.74812 0.19239 0.0
C1230 C 0.31129 0.745 0.15176 0.0
C1231 C 0.35258 0.77915 0.14646 0.0
H1232 H 0.37539 0.73404 0.11192 0.0
C1233 C 0.42703 0.78156 0.09735 0.0
C1234 C 0.42859 0.77008 0.07391 0.0
C1235 C 0.41037 0.78036 0.11181 0.0
C1236 C 0.3691 0.74688 0.12109 0.0
H1237 H 0.30765 0.76809 0.22255 0.0
H1238 H 0.33526 0.77649 0.19668 0.0
H1239 H 0.34665 0.72996 0.13655 0.0
H1240 H 0.41338 0.74915 0.04659 0.0
H1241 H 0.38442 0.74721 0.07145 0.0
H1242 H 0.37517 0.79606 0.13082 0.0
C1243 C 0.32411 0.76662 0.18781 0.0
C1244 C 0.35257 0.74452 0.13527 0.0
C1245 C 0.30831 0.76185 0.20261 0.0
C1246 C 0.41287 0.75786 0.06488 0.0
C1247 C 0.39624 0.75673 0.07919 0.0
C1248 C 0.36916 0.78153 0.13211 0.0
C1249 C 0.32608 0.75774 0.16253 0.0
C1250 C 0.34396 0.76062 0.14793 0.0
C1251 C 0.39486 0.76771 0.10309 0.0
C1252 C 0.37752 0.76543 0.11902 0.0
H1253 H 0.28481 0.72989 0.1579 0.0
H1254 H 0.31205 0.7383 0.1321 0.0
H1255 H 0.34627 0.79186 0.15592 0.0
H1256 H 0.43892 0.79104 0.10494 0.0
H1257 H 0.4099 0.78892 0.13021 0.0
C1258 C 0.26664 0.32041 0.22986 0.0
C1259 C 0.25492 0.30351 0.22711 0.0
C1260 C 0.26195 0.3369 0.21513 0.0
C1261 C 0.23502 0.35138 0.15249 0.0
H1262 H 0.24801 0.40364 0.18018 0.0
C1263 C 0.22193 0.42063 0.08927 0.0
C1264 C 0.23663 0.43508 0.09157 0.0
C1265 C 0.22246 0.40487 0.1064 0.0
C1266 C 0.24445 0.38915 0.17199 0.0
H1267 H 0.22866 0.29096 0.20725 0.0
H1268 H 0.22015 0.32001 0.1816 0.0
H1269 H 0.25089 0.37623 0.20962 0.0
H1270 H 0.2633 0.44417 0.11429 0.0
H1271 H 0.26433 0.41675 0.1438 0.0
H1272 H 0.22872 0.36437 0.11476 0.0
C1273 C 0.23316 0.3204 0.19506 0.0
C1274 C 0.24608 0.37335 0.18895 0.0
C1275 C 0.23785 0.30383 0.21002 0.0
C1276 C 0.25181 0.4333 0.11163 0.0
C1277 C 0.25227 0.41763 0.12884 0.0
C1278 C 0.23333 0.36722 0.1355 0.0
C1279 C 0.24538 0.33706 0.19701 0.0
C1280 C 0.24171 0.35415 0.17942 0.0
C1281 C 0.23762 0.40314 0.12651 0.0
C1282 C 0.23831 0.38632 0.1449 0.0
H1283 H 0.27997 0.32057 0.24273 0.0
H1284 H 0.27191 0.34921 0.21708 0.0
H1285 H 0.23175 0.33685 0.14421 0.0
H1286 H 0.2101 0.42135 0.07396 0.0
H1287 H 0.21083 0.39414 0.10405 0.0
C1288 C 0.31139 0.23649 0.22429 0.0
C1289 C 0.30884 0.25555 0.23466 0.0
C1290 C 0.32858 0.23137 0.21238 0.0
C1291 C 0.37975 0.24671 0.20555 0.0
H1292 H 0.37204 0.22274 0.13482 0.0
C1293 C 0.43845 0.24986 0.12962 0.0
C1294 C 0.44029 0.23412 0.1113 0.0
C1295 C 0.42345 0.2502 0.14698 0.0
C1296 C 0.37458 0.22909 0.15472 0.0
H1297 H 0.32264 0.28384 0.24215 0.0
H1298 H 0.35268 0.2749 0.22167 0.0
H1299 H 0.34433 0.22683 0.16204 0.0
H1300 H 0.42785 0.20617 0.09734 0.0
H1301 H 0.40207 0.20649 0.12815 0.0
H1302 H 0.40996 0.24915 0.19823 0.0
C1303 C 0.34145 0.26389 0.22261 0.0
C1304 C 0.35865 0.23144 0.17034 0.0
C1305 C 0.32421 0.26906 0.23421 0.0
C1306 C 0.42701 0.21847 0.11129 0.0
C1307 C 0.41204 0.21877 0.12877 0.0
C1308 C 0.39572 0.24423 0.19003 0.0
C1309 C 0.34365 0.24515 0.21095 0.0
C1310 C 0.36098 0.24062 0.19573 0.0
C1311 C 0.40993 0.23474 0.14666 0.0
C1312 C 0.39329 0.23574 0.16418 0.0
H1313 H 0.29972 0.22584 0.22426 0.0
H1314 H 0.32993 0.21676 0.20378 0.0
H1315 H 0.38206 0.25361 0.22518 0.0
H1316 H 0.44856 0.26203 0.13053 0.0
H1317 H 0.42221 0.26287 0.1602 0.0
C1318 C 0.76507 0.31266 0.22066 0.0
C1319 C 0.74929 0.31244 0.23686 0.0
C1320 C 0.76987 0.32979 0.20829 0.0
C1321 C 0.74537 0.37391 0.18436 0.0
H1322 H 0.79728 0.38972 0.16798 0.0
C1323 C 0.75704 0.42485 0.09971 0.0
C1324 C 0.7707 0.44007 0.10443 0.0
C1325 C 0.75581 0.41015 0.1179 0.0
C1326 C 0.78272 0.38558 0.17263 0.0
H1327 H 0.72719 0.33009 0.2547 0.0
H1328 H 0.7358 0.36008 0.23363 0.0
H1329 H 0.79343 0.36309 0.19832 0.0
H1330 H 0.79403 0.45162 0.13182 0.0
H1331 H 0.7919 0.42575 0.16372 0.0
H1332 H 0.7346 0.39624 0.15876 0.0
C1333 C 0.74414 0.34698 0.22983 0.0
C1334 C 0.78051 0.37025 0.1898 0.0
C1335 C 0.73926 0.32987 0.24197 0.0
C1336 C 0.78343 0.44001 0.12754 0.0
C1337 C 0.78222 0.42523 0.14579 0.0
C1338 C 0.74757 0.38913 0.16724 0.0
C1339 C 0.75902 0.34697 0.21208 0.0
C1340 C 0.76178 0.36415 0.19564 0.0
C1341 C 0.76824 0.41028 0.14126 0.0
C1342 C 0.76623 0.39494 0.16086 0.0
H1343 H 0.77294 0.29935 0.21634 0.0
H1344 H 0.78133 0.32927 0.19461 0.0
H1345 H 0.73072 0.36941 0.18809 0.0
H1346 H 0.74734 0.42421 0.08179 0.0
H1347 H 0.74517 0.39859 0.11357 0.0
C1348 C 0.69583 0.7568 0.17714 0.0
C1349 C 0.69738 0.75206 0.20404 0.0
C1350 C 0.67778 0.76152 0.16456 0.0
C1351 C 0.6257 0.75213 0.16744 0.0
H1352 H 0.62043 0.79243 0.11537 0.0
C1353 C 0.55303 0.76554 0.10486 0.0
C1354 C 0.55476 0.76903 0.07793 0.0
C1355 C 0.56967 0.76529 0.12257 0.0
C1356 C 0.62168 0.78101 0.1297 0.0
H1357 H 0.68141 0.749 0.23914 0.0
H1358 H 0.64957 0.75719 0.217 0.0
H1359 H 0.65092 0.78947 0.14279 0.0
H1360 H 0.57479 0.77503 0.04809 0.0
H1361 H 0.60398 0.77429 0.07876 0.0
H1362 H 0.59669 0.74326 0.15379 0.0
C1363 C 0.6624 0.75723 0.2057 0.0
C1364 C 0.63913 0.77938 0.14548 0.0
C1365 C 0.68058 0.75271 0.21841 0.0
C1366 C 0.57324 0.77234 0.06887 0.0
C1367 C 0.58987 0.77207 0.08649 0.0
C1368 C 0.60825 0.7537 0.15155 0.0
C1369 C 0.6608 0.76146 0.17854 0.0
C1370 C 0.64148 0.76469 0.16417 0.0
C1371 C 0.58832 0.76855 0.11358 0.0
C1372 C 0.60617 0.76792 0.13211 0.0
H1373 H 0.70859 0.75648 0.16566 0.0
H1374 H 0.67703 0.7645 0.14357 0.0
H1375 H 0.62714 0.74052 0.18146 0.0
H1376 H 0.5388 0.76306 0.11216 0.0
H1377 H 0.56792 0.76273 0.14332 0.0
C1378 C 0.24149 0.68308 0.21482 0.0
C1379 C 0.26006 0.6904 0.2234 0.0
C1380 C 0.23921 0.66359 0.20599 0.0
C1381 C 0.2374 0.62025 0.19022 0.0
H1382 H 0.27776 0.60772 0.1424 0.0
C1383 C 0.2363 0.5509 0.11958 0.0
C1384 C 0.24078 0.55456 0.09352 0.0
C1385 C 0.23882 0.56559 0.13953 0.0
C1386 C 0.2664 0.61098 0.15571 0.0
H1387 H 0.29036 0.6828 0.23238 0.0
H1388 H 0.28635 0.64861 0.21761 0.0
H1389 H 0.28167 0.63603 0.17259 0.0
H1390 H 0.25104 0.57608 0.06744 0.0
H1391 H 0.25547 0.60181 0.10216 0.0
H1392 H 0.22174 0.59554 0.1721 0.0
C1393 C 0.27364 0.658 0.21692 0.0
C1394 C 0.26875 0.62706 0.17333 0.0
C1395 C 0.27594 0.67751 0.22551 0.0
C1396 C 0.2476 0.57303 0.08751 0.0
C1397 C 0.25023 0.58763 0.10738 0.0
C1398 C 0.23506 0.60406 0.17253 0.0
C1399 C 0.25547 0.65109 0.20576 0.0
C1400 C 0.25409 0.63218 0.19038 0.0
C1401 C 0.24604 0.58403 0.13365 0.0
C1402 C 0.24932 0.59963 0.1546 0.0
H1403 H 0.22904 0.69278 0.21288 0.0
H1404 H 0.22503 0.65881 0.1974 0.0
H1405 H 0.22591 0.62373 0.20324 0.0
H1406 H 0.23107 0.53665 0.12449 0.0
H1407 H 0.23554 0.56242 0.1596 0.0
C1408 C 0.32083 0.76061 0.79464 0.0
C1409 C 0.30445 0.76133 0.80981 0.0
C1410 C 0.33947 0.76478 0.80666 0.0
C1411 C 0.36535 0.78755 0.86704 0.0
H1412 H 0.40499 0.7484 0.85565 0.0
C1413 C 0.43087 0.77697 0.9423 0.0
C1414 C 0.44904 0.77239 0.93275 0.0
C1415 C 0.41422 0.77769 0.92479 0.0
C1416 C 0.39423 0.75967 0.85874 0.0
H1417 H 0.29444 0.76791 0.84886 0.0
H1418 H 0.3268 0.77528 0.86977 0.0
H1419 H 0.37407 0.74697 0.82861 0.0
H1420 H 0.46444 0.76523 0.89781 0.0
H1421 H 0.43523 0.76653 0.86687 0.0
H1422 H 0.38529 0.80002 0.89753 0.0
C1423 C 0.32539 0.77153 0.84868 0.0
C1424 C 0.37652 0.75886 0.8432 0.0
C1425 C 0.30687 0.76719 0.83678 0.0
C1426 C 0.45044 0.76866 0.90546 0.0
C1427 C 0.43376 0.76936 0.88788 0.0
C1428 C 0.38305 0.78839 0.88251 0.0
C1429 C 0.34195 0.77 0.83392 0.0
C1430 C 0.36171 0.77251 0.84764 0.0
C1431 C 0.41544 0.77389 0.89736 0.0
C1432 C 0.39752 0.77418 0.879 0.0
H1433 H 0.31931 0.75604 0.77382 0.0
H1434 H 0.35197 0.76361 0.79476 0.0
H1435 H 0.35433 0.79846 0.87064 0.0
H1436 H 0.42958 0.77988 0.96335 0.0
H1437 H 0.40031 0.78088 0.93284 0.0
C1438 C 0.24253 0.30499 0.8765 0.0
C1439 C 0.24705 0.3028 0.84988 0.0
C1440 C 0.23833 0.32335 0.88736 0.0
C1441 C 0.22568 0.37439 0.8715 0.0
H1442 H 0.25104 0.3852 0.94165 0.0
C1443 C 0.23304 0.4519 0.92194 0.0
C1444 C 0.23052 0.45322 0.94926 0.0
C1445 C 0.2332 0.43363 0.90869 0.0
C1446 C 0.24365 0.38235 0.92221 0.0
H1447 H 0.24997 0.31785 0.81336 0.0
H1448 H 0.24289 0.35025 0.83251 0.0
H1449 H 0.25445 0.35317 0.92032 0.0
H1450 H 0.22546 0.43709 0.98417 0.0
H1451 H 0.22556 0.40506 0.96107 0.0
H1452 H 0.21517 0.40387 0.87344 0.0
C1453 C 0.24237 0.33769 0.84489 0.0
C1454 C 0.24557 0.36397 0.90998 0.0
C1455 C 0.24645 0.3192 0.83393 0.0
C1456 C 0.22753 0.43623 0.96307 0.0
C1457 C 0.2277 0.418 0.94989 0.0
C1458 C 0.22379 0.39288 0.88377 0.0
C1459 C 0.23873 0.34 0.87192 0.0
C1460 C 0.23652 0.3597 0.88457 0.0
C1461 C 0.23086 0.41647 0.92265 0.0
C1462 C 0.23268 0.39698 0.90934 0.0
H1463 H 0.2426 0.29249 0.88907 0.0
H1464 H 0.23509 0.32456 0.90806 0.0
H1465 H 0.21844 0.37151 0.85197 0.0
H1466 H 0.23532 0.46496 0.91107 0.0
H1467 H 0.23579 0.43289 0.88776 0.0
C1468 C 0.69385 0.23936 0.82631 0.0
C1469 C 0.69659 0.25737 0.81468 0.0
C1470 C 0.67672 0.23572 0.83892 0.0
C1471 C 0.63756 0.26337 0.87073 0.0
H1472 H 0.61401 0.21229 0.87547 0.0
C1473 C 0.56705 0.25306 0.924 0.0
C1474 C 0.56693 0.23778 0.94192 0.0
C1475 C 0.58183 0.2544 0.90647 0.0
C1476 C 0.62051 0.22663 0.87442 0.0
H1477 H 0.68331 0.28518 0.8055 0.0
H1478 H 0.65311 0.27861 0.82632 0.0
H1479 H 0.64119 0.21631 0.84727 0.0
H1480 H 0.58224 0.2117 0.95487 0.0
H1481 H 0.60789 0.21395 0.92398 0.0
H1482 H 0.61693 0.2737 0.89776 0.0
C1483 C 0.66432 0.26748 0.82665 0.0
C1484 C 0.63611 0.22894 0.85829 0.0
C1485 C 0.6815 0.27119 0.81441 0.0
C1486 C 0.5817 0.22354 0.9412 0.0
C1487 C 0.59644 0.22483 0.9235 0.0
C1488 C 0.62192 0.26109 0.88661 0.0
C1489 C 0.66196 0.25 0.83993 0.0
C1490 C 0.64487 0.24737 0.85625 0.0
C1491 C 0.59683 0.24045 0.9062 0.0
C1492 C 0.61322 0.2427 0.88872 0.0
H1493 H 0.70541 0.22859 0.82702 0.0
H1494 H 0.67554 0.22215 0.84905 0.0
H1495 H 0.64419 0.27769 0.87033 0.0
H1496 H 0.55571 0.26405 0.9235 0.0
H1497 H 0.58152 0.26643 0.89307 0.0
C1498 C 0.7689 0.69358 0.80802 0.0
C1499 C 0.759 0.70867 0.82103 0.0
C1500 C 0.77392 0.67644 0.82123 0.0
C1501 C 0.75397 0.64695 0.86966 0.0
H1502 H 0.80413 0.62142 0.88109 0.0
C1503 C 0.76387 0.58589 0.9427 0.0
C1504 C 0.77531 0.56968 0.93625 0.0
C1505 C 0.76361 0.60238 0.92736 0.0
C1506 C 0.78998 0.62823 0.87766 0.0
H1507 H 0.74835 0.71858 0.85864 0.0
H1508 H 0.75677 0.68863 0.88141 0.0
H1509 H 0.80168 0.65167 0.85631 0.0
H1510 H 0.79582 0.55807 0.90908 0.0
H1511 H 0.79505 0.58693 0.88162 0.0
H1512 H 0.74202 0.62371 0.89036 0.0
C1513 C 0.76043 0.68992 0.861 0.0
C1514 C 0.78863 0.64552 0.86361 0.0
C1515 C 0.75557 0.70698 0.84796 0.0
C1516 C 0.78686 0.57042 0.91441 0.0
C1517 C 0.78646 0.58693 0.8988 0.0
C1518 C 0.75524 0.62967 0.88331 0.0
C1519 C 0.76901 0.67427 0.84749 0.0
C1520 C 0.77067 0.65521 0.86013 0.0
C1521 C 0.77463 0.603 0.90496 0.0
C1522 C 0.77332 0.62036 0.88813 0.0
H1523 H 0.77171 0.69454 0.78725 0.0
H1524 H 0.78055 0.6645 0.81049 0.0
H1525 H 0.73988 0.65401 0.86671 0.0
H1526 H 0.75519 0.58588 0.95982 0.0
H1527 H 0.75478 0.6147 0.93316 0.0
loop_
_geom_bond_atom_site_label_1
_geom_bond_atom_site_label_2
_geom_bond_distance
_geom_bond_site_symmetry_2
_ccdc_geom_bond_type
H0 C6 0.930 . S
H1 C9 0.931 . S
H2 C11 0.931 . S
H3 C13 0.930 . S
H4 C15 0.930 . S
H5 C17 0.931 . S
C6 H0 0.930 . S
C6 C7 1.380 . S
C6 C8 1.394 . S
C7 C6 1.380 . S
C7 C11 1.382 . S
C8 C6 1.394 . S
C8 C9 1.400 . S
C9 H1 0.931 . S
C9 C8 1.400 . S
C9 C10 1.375 . S
C10 C9 1.375 . S
C10 C11 1.415 . S
C10 C12 1.501 . S
C11 H2 0.931 . S
C11 C7 1.382 . S
C11 C10 1.415 . S
C12 C10 1.501 . S
C12 C13 1.384 . S
C12 C17 1.408 . S
C13 H3 0.930 . S
C13 C12 1.384 . S
C13 C14 1.389 . S
C14 C13 1.389 . S
C14 C15 1.405 . S
C15 H4 0.930 . S
C15 C14 1.405 . S
C15 C16 1.364 . S
C16 C15 1.364 . S
C16 C17 1.400 . S
C17 H5 0.931 . S
C17 C12 1.408 . S
C17 C16 1.400 . S
H18 C24 0.930 . S
H19 C27 0.931 . S
H20 C29 0.931 . S
H21 C31 0.930 . S
H22 C33 0.930 . S
H23 C35 0.931 . S
C24 H18 0.930 . S
C24 C25 1.380 . S
C24 C26 1.394 . S
C25 C24 1.380 . S
C25 C29 1.382 . S
C26 C24 1.394 . S
C26 C27 1.400 . S
C27 H19 0.931 . S
C27 C26 1.400 . S
C27 C28 1.375 . S
C28 C27 1.375 . S
C28 C29 1.415 . S
C28 C30 1.501 . S
C29 H20 0.931 . S
C29 C25 1.382 . S
C29 C28 1.415 . S
C30 C28 1.501 . S
C30 C31 1.384 . S
C30 C35 1.408 . S
C31 H21 0.930 . S
C31 C30 1.384 . S
C31 C32 1.389 . S
C32 C31 1.389 . S
C32 C33 1.405 . S
C33 H22 0.930 . S
C33 C32 1.405 . S
C33 C34 1.364 . S
C34 C33 1.364 . S
C34 C35 1.400 . S
C35 H23 0.931 . S
C35 C30 1.408 . S
C35 C34 1.400 . S
H36 C42 0.930 . S
H37 C45 0.931 . S
H38 C47 0.931 . S
H39 C49 0.930 . S
H40 C51 0.930 . S
H41 C53 0.931 . S
C42 H36 0.930 . S
C42 C43 1.380 . S
C42 C44 1.394 . S
C43 C42 1.380 . S
C43 C47 1.382 . S
C44 C42 1.394 . S
C44 C45 1.400 . S
C45 H37 0.931 . S
C45 C44 1.400 . S
C45 C46 1.375 . S
C46 C45 1.375 . S
C46 C47 1.415 . S
C46 C48 1.501 . S
C47 H38 0.931 . S
C47 C43 1.382 . S
C47 C46 1.415 . S
C48 C46 1.501 . S
C48 C49 1.384 . S
C48 C53 1.408 . S
C49 H39 0.930 . S
C49 C48 1.384 . S
C49 C50 1.389 . S
C50 C49 1.389 . S
C50 C51 1.405 . S
C51 H40 0.930 . S
C51 C50 1.405 . S
C51 C52 1.364 . S
C52 C51 1.364 . S
C52 C53 1.400 . S
C53 H41 0.931 . S
C53 C48 1.408 . S
C53 C52 1.400 . S
H54 C60 0.930 . S
H55 C63 0.931 . S
H56 C65 0.931 . S
H57 C67 0.930 . S
H58 C69 0.930 . S
H59 C71 0.931 . S
C60 H54 0.930 . S
C60 C61 1.380 . S
C60 C62 1.394 . S
C61 C60 1.380 . S
C61 C65 1.382 . S
C62 C60 1.394 . S
C62 C63 1.400 . S
C63 H55 0.931 . S
C63 C62 1.400 . S
C63 C64 1.375 . S
C64 C63 1.375 . S
C64 C65 1.415 . S
C64 C66 1.501 . S
C65 H56 0.931 . S
C65 C61 1.382 . S
C65 C64 1.415 . S
C66 C64 1.501 . S
C66 C67 1.384 . S
C66 C71 1.408 . S
C67 H57 0.930 . S
C67 C66 1.384 . S
C67 C68 1.389 . S
C68 C67 1.389 . S
C68 C69 1.405 . S
C69 H58 0.930 . S
C69 C68 1.405 . S
C69 C70 1.364 . S
C70 C69 1.364 . S
C70 C71 1.400 . S
C71 H59 0.931 . S
C71 C66 1.408 . S
C71 C70 1.400 . S
H72 C78 0.930 . S
H73 C81 0.931 . S
H74 C83 0.931 . S
H75 C85 0.930 . S
H76 C87 0.930 . S
H77 C89 0.931 . S
C78 H72 0.930 . S
C78 C79 1.380 . S
C78 C80 1.394 . S
C79 C78 1.380 . S
C79 C83 1.382 . S
C80 C78 1.394 . S
C80 C81 1.400 . S
C81 H73 0.931 . S
C81 C80 1.400 . S
C81 C82 1.375 . S
C82 C81 1.375 . S
C82 C83 1.415 . S
C82 C84 1.501 . S
C83 H74 0.931 . S
C83 C79 1.382 . S
C83 C82 1.415 . S
C84 C82 1.501 . S
C84 C85 1.384 . S
C84 C89 1.408 . S
C85 H75 0.930 . S
C85 C84 1.384 . S
C85 C86 1.389 . S
C86 C85 1.389 . S
C86 C87 1.405 . S
C87 H76 0.930 . S
C87 C86 1.405 . S
C87 C88 1.364 . S
C88 C87 1.364 . S
C88 C89 1.400 . S
C89 H77 0.931 . S
C89 C84 1.408 . S
C89 C88 1.400 . S
H90 C96 0.930 . S
H91 C99 0.931 . S
H92 C101 0.931 . S
H93 C103 0.930 . S
H94 C105 0.930 . S
H95 C107 0.931 . S
C96 H90 0.930 . S
C96 C97 1.380 . S
C96 C98 1.394 . S
C97 C96 1.380 . S
C97 C101 1.382 . S
C98 C96 1.394 . S
C98 C99 1.400 . S
C99 H91 0.931 . S
C99 C98 1.400 . S
C99 C100 1.375 . S
C100 C99 1.375 . S
C100 C101 1.415 . S
C100 C102 1.501 . S
C101 H92 0.931 . S
C101 C97 1.382 . S
C101 C100 1.415 . S
C102 C100 1.501 . S
C102 C103 1.384 . S
C102 C107 1.408 . S
C103 H93 0.930 . S
C103 C102 1.384 . S
C103 C104 1.389 . S
C104 C103 1.389 . S
C104 C105 1.405 . S
C105 H94 0.930 . S
C105 C104 1.405 . S
C105 C106 1.364 . S
C106 C105 1.364 . S
C106 C107 1.400 . S
C107 H95 0.931 . S
C107 C102 1.408 . S
C107 C106 1.400 . S
H108 C114 0.930 . S
H109 C117 0.931 . S
H110 C119 0.931 . S
H111 C121 0.930 . S
H112 C123 0.930 . S
H113 C125 0.931 . S
C114 H108 0.930 . S
C114 C115 1.380 . S
C114 C116 1.394 . S
C115 C114 1.380 . S
C115 C119 1.382 . S
C116 C114 1.394 . S
C116 C117 1.400 . S
C117 H109 0.931 . S
C117 C116 1.400 . S
C117 C118 1.375 . S
C118 C117 1.375 . S
C118 C119 1.415 . S
C118 C120 1.501 . S
C119 H110 0.931 . S
C119 C115 1.382 . S
C119 C118 1.415 . S
C120 C118 1.501 . S
C120 C121 1.384 . S
C120 C125 1.408 . S
C121 H111 0.930 . S
C121 C120 1.384 . S
C121 C122 1.389 . S
C122 C121 1.389 . S
C122 C123 1.405 . S
C123 H112 0.930 . S
C123 C122 1.405 . S
C123 C124 1.364 . S
C124 C123 1.364 . S
C124 C125 1.400 . S
C125 H113 0.931 . S
C125 C120 1.408 . S
C125 C124 1.400 . S
H126 C132 0.930 . S
H127 C135 0.931 . S
H128 C137 0.931 . S
H129 C139 0.930 . S
H130 C141 0.930 . S
H131 C143 0.931 . S
C132 H126 0.930 . S
C132 C133 1.380 . S
C132 C134 1.394 . S
C133 C132 1.380 . S
C133 C137 1.382 . S
C134 C132 1.394 . S
C134 C135 1.400 . S
C135 H127 0.931 . S
C135 C134 1.400 . S
C135 C136 1.375 . S
C136 C135 1.375 . S
C136 C137 1.415 . S
C136 C138 1.501 . S
C137 H128 0.931 . S
C137 C133 1.382 . S
C137 C136 1.415 . S
C138 C136 1.501 . S
C138 C139 1.384 . S
C138 C143 1.408 . S
C139 H129 0.930 . S
C139 C138 1.384 . S
C139 C140 1.389 . S
C140 C139 1.389 . S
C140 C141 1.405 . S
C141 H130 0.930 . S
C141 C140 1.405 . S
C141 C142 1.364 . S
C142 C141 1.364 . S
C142 C143 1.400 . S
C143 H131 0.931 . S
C143 C138 1.408 . S
C143 C142 1.400 . S
C144 C145 1.443 . S
C144 N148 1.376 . S
C144 C182 1.389 . S
C145 C144 1.443 . S
C145 C146 1.340 . S
C145 H185 0.951 . S
C146 C145 1.340 . S
C146 C147 1.439 . S
C146 H186 0.950 . S
C147 C146 1.439 . S
C147 N148 1.374 . S
C147 C181 1.395 . S
N148 C144 1.376 . S
N148 C147 1.374 . S
N148 Co149 2.008 . S
Co149 N148 2.008 . S
Co149 N150 1.995 1_455 S
Co149 N155 2.008 1_455 S
Co149 N160 1.995 . S
Co149 N165 2.282 1_455 S
Co149 N171 2.282 . S
N150 Co149 1.995 1_655 S
N150 C151 1.376 . S
N150 C154 1.383 . S
C151 N150 1.376 . S
C151 C152 1.446 . S
C151 C181 1.391 1_655 S
C152 C151 1.446 . S
C152 C153 1.339 . S
C152 H187 0.949 . S
C153 C152 1.339 . S
C153 C154 1.439 . S
C153 H188 0.950 . S
C154 N150 1.383 . S
C154 C153 1.439 . S
C154 C183 1.392 . S
N155 Co149 2.008 1_655 S
N155 C156 1.376 . S
N155 C159 1.374 . S
C156 N155 1.376 . S
C156 C157 1.443 . S
C156 C183 1.389 . S
C157 C156 1.443 . S
C157 C158 1.340 . S
C157 H189 0.951 . S
C158 C157 1.340 . S
C158 C159 1.439 . S
C158 H190 0.950 . S
C159 N155 1.374 . S
C159 C158 1.439 . S
C159 C184 1.424 . S
N160 Co149 1.995 . S
N160 C161 1.376 . S
N160 C164 1.383 . S
C161 N160 1.376 . S
C161 C162 1.446 . S
C161 C184 1.361 1_455 S
C162 C161 1.446 . S
C162 C163 1.339 . S
C162 H191 0.949 . S
C163 C162 1.339 . S
C163 C164 1.439 . S
C163 H192 0.950 . S
C164 N160 1.383 . S
C164 C163 1.439 . S
C164 C182 1.392 . S
N165 Co149 2.282 1_655 S
N165 C168 1.332 . S
N165 C170 1.332 . S
C166 C167 1.386 . S
C166 C169 1.388 . S
C167 C166 1.386 . S
C167 C168 1.382 . S
C167 H193 0.950 . S
C168 N165 1.332 . S
C168 C167 1.382 . S
C168 H179 0.952 . S
C169 C166 1.388 . S
C169 C170 1.382 . S
C169 H194 0.950 . S
C170 N165 1.332 . S
C170 C169 1.382 . S
C170 H180 0.948 . S
N171 Co149 2.282 . S
N171 C175 1.332 . S
N171 C176 1.332 . S
C172 C173 1.388 . S
C172 C176 1.382 . S
C172 H195 0.950 . S
C173 C172 1.388 . S
C173 C174 1.386 . S
C174 C173 1.386 . S
C174 C175 1.382 . S
C174 H196 0.950 . S
C175 N171 1.332 . S
C175 C174 1.382 . S
C175 H177 0.952 . S
C176 N171 1.332 . S
C176 C172 1.382 . S
C176 H178 0.948 . S
H177 C175 0.952 . S
H178 C176 0.948 . S
H179 C168 0.952 . S
H180 C170 0.948 . S
C181 C147 1.395 . S
C181 C151 1.391 1_455 S
C182 C144 1.389 . S
C182 C164 1.392 . S
C183 C154 1.392 . S
C183 C156 1.389 . S
C184 C159 1.424 . S
C184 C161 1.361 1_655 S
H185 C145 0.951 . S
H186 C146 0.950 . S
H187 C152 0.949 . S
H188 C153 0.950 . S
H189 C157 0.951 . S
H190 C158 0.950 . S
H191 C162 0.949 . S
H192 C163 0.950 . S
H193 C167 0.950 . S
H194 C169 0.950 . S
H195 C172 0.950 . S
H196 C174 0.950 . S
C197 C198 1.443 . S
C197 N201 1.376 . S
C197 C235 1.389 . S
C198 C197 1.443 . S
C198 C199 1.340 . S
C198 H238 0.951 . S
C199 C198 1.340 . S
C199 C200 1.439 . S
C199 H239 0.950 . S
C200 C199 1.439 . S
C200 N201 1.374 . S
C200 C234 1.395 . S
N201 C197 1.376 . S
N201 C200 1.374 . S
N201 Co202 2.008 . S
Co202 N201 2.008 . S
Co202 N203 1.995 1_545 S
Co202 N208 2.008 1_545 S
Co202 N213 1.995 . S
Co202 N218 2.282 1_545 S
Co202 N224 2.282 . S
N203 Co202 1.995 1_565 S
N203 C204 1.376 . S
N203 C207 1.383 . S
C204 N203 1.376 . S
C204 C205 1.446 . S
C204 C234 1.391 1_565 S
C205 C204 1.446 . S
C205 C206 1.339 . S
C205 H240 0.949 . S
C206 C205 1.339 . S
C206 C207 1.439 . S
C206 H241 0.950 . S
C207 N203 1.383 . S
C207 C206 1.439 . S
C207 C236 1.392 . S
N208 Co202 2.008 1_565 S
N208 C209 1.376 . S
N208 C212 1.374 . S
C209 N208 1.376 . S
C209 C210 1.443 . S
C209 C236 1.389 . S
C210 C209 1.443 . S
C210 C211 1.340 . S
C210 H242 0.951 . S
C211 C210 1.340 . S
C211 C212 1.439 . S
C211 H243 0.950 . S
C212 N208 1.374 . S
C212 C211 1.439 . S
C212 C237 1.393 . S
N213 Co202 1.995 . S
N213 C214 1.376 . S
N213 C217 1.383 . S
C214 N213 1.376 . S
C214 C215 1.446 . S
C214 C237 1.394 1_545 S
C215 C214 1.446 . S
C215 C216 1.339 . S
C215 H244 0.949 . S
C216 C215 1.339 . S
C216 C217 1.439 . S
C216 H245 0.950 . S
C217 N213 1.383 . S
C217 C216 1.439 . S
C217 C235 1.392 . S
N218 Co202 2.282 1_565 S
N218 C221 1.332 . S
N218 C223 1.332 . S
C219 C220 1.386 . S
C219 C222 1.388 . S
C220 C219 1.386 . S
C220 C221 1.382 . S
C220 H246 0.950 . S
C221 N218 1.332 . S
C221 C220 1.382 . S
C221 H232 0.952 . S
C222 C219 1.388 . S
C222 C223 1.382 . S
C222 H247 0.950 . S
C223 N218 1.332 . S
C223 C222 1.382 . S
C223 H233 0.948 . S
N224 Co202 2.282 . S
N224 C228 1.332 . S
N224 C229 1.332 . S
C225 C226 1.388 . S
C225 C229 1.382 . S
C225 H248 0.950 . S
C226 C225 1.388 . S
C226 C227 1.386 . S
C227 C226 1.386 . S
C227 C228 1.382 . S
C227 H249 0.950 . S
C228 N224 1.332 . S
C228 C227 1.382 . S
C228 H230 0.952 . S
C229 N224 1.332 . S
C229 C225 1.382 . S
C229 H231 0.948 . S
H230 C228 0.952 . S
H231 C229 0.948 . S
H232 C221 0.952 . S
H233 C223 0.948 . S
C234 C200 1.395 . S
C234 C204 1.391 1_545 S
C235 C197 1.389 . S
C235 C217 1.392 . S
C236 C207 1.392 . S
C236 C209 1.389 . S
C237 C212 1.393 . S
C237 C214 1.394 1_565 S
H238 C198 0.951 . S
H239 C199 0.950 . S
H240 C205 0.949 . S
H241 C206 0.950 . S
H242 C210 0.951 . S
H243 C211 0.950 . S
H244 C215 0.949 . S
H245 C216 0.950 . S
H246 C220 0.950 . S
H247 C222 0.950 . S
H248 C225 0.950 . S
H249 C227 0.950 . S
C250 C251 1.443 . S
C250 N254 1.376 . S
C250 C288 1.389 . S
C251 C250 1.443 . S
C251 C252 1.340 . S
C251 H291 0.951 . S
C252 C251 1.340 . S
C252 C253 1.439 . S
C252 H292 0.950 . S
C253 C252 1.439 . S
C253 N254 1.374 . S
C253 C287 1.395 . S
N254 C250 1.376 . S
N254 C253 1.374 . S
N254 Co255 2.008 . S
Co255 N254 2.008 . S
Co255 N256 1.995 1_455 S
Co255 N261 2.008 1_455 S
Co255 N266 1.995 . S
Co255 N271 2.282 1_455 S
Co255 N277 2.282 . S
N256 Co255 1.995 1_655 S
N256 C257 1.376 . S
N256 C260 1.383 . S
C257 N256 1.376 . S
C257 C258 1.446 . S
C257 C287 1.391 1_655 S
C258 C257 1.446 . S
C258 C259 1.339 . S
C258 H293 0.949 . S
C259 C258 1.339 . S
C259 C260 1.439 . S
C259 H294 0.950 . S
C260 N256 1.383 . S
C260 C259 1.439 . S
C260 C289 1.392 . S
N261 Co255 2.008 1_655 S
N261 C262 1.376 . S
N261 C265 1.374 . S
C262 N261 1.376 . S
C262 C263 1.443 . S
C262 C289 1.389 . S
C263 C262 1.443 . S
C263 C264 1.340 . S
C263 H295 0.951 . S
C264 C263 1.340 . S
C264 C265 1.439 . S
C264 H296 0.950 . S
C265 N261 1.374 . S
C265 C264 1.439 . S
C265 C290 1.395 . S
N266 Co255 1.995 . S
N266 C267 1.376 . S
N266 C270 1.383 . S
C267 N266 1.376 . S
C267 C268 1.446 . S
C267 C290 1.391 1_455 S
C268 C267 1.446 . S
C268 C269 1.339 . S
C268 H297 0.949 . S
C269 C268 1.339 . S
C269 C270 1.439 . S
C269 H298 0.950 . S
C270 N266 1.383 . S
C270 C269 1.439 . S
C270 C288 1.392 . S
N271 Co255 2.282 1_655 S
N271 C274 1.332 . S
N271 C276 1.332 . S
C272 C273 1.386 . S
C272 C275 1.388 . S
C273 C272 1.386 . S
C273 C274 1.382 . S
C273 H299 0.950 . S
C274 N271 1.332 . S
C274 C273 1.382 . S
C274 H285 0.952 . S
C275 C272 1.388 . S
C275 C276 1.382 . S
C275 H300 0.950 . S
C276 N271 1.332 . S
C276 C275 1.382 . S
C276 H286 0.948 . S
N277 Co255 2.282 . S
N277 C281 1.332 . S
N277 C282 1.332 . S
C278 C279 1.388 . S
C278 C282 1.382 . S
C278 H301 0.950 . S
C279 C278 1.388 . S
C279 C280 1.386 . S
C280 C279 1.386 . S
C280 C281 1.382 . S
C280 H302 0.950 . S
C281 N277 1.332 . S
C281 C280 1.382 . S
C281 H283 0.952 . S
C282 N277 1.332 . S
C282 C278 1.382 . S
C282 H284 0.948 . S
H283 C281 0.952 . S
H284 C282 0.948 . S
H285 C274 0.952 . S
H286 C276 0.948 . S
C287 C253 1.395 . S
C287 C257 1.391 1_455 S
C288 C250 1.389 . S
C288 C270 1.392 . S
C289 C260 1.392 . S
C289 C262 1.389 . S
C290 C265 1.395 . S
C290 C267 1.391 1_655 S
H291 C251 0.951 . S
H292 C252 0.950 . S
H293 C258 0.949 . S
H294 C259 0.950 . S
H295 C263 0.951 . S
H296 C264 0.950 . S
H297 C268 0.949 . S
H298 C269 0.950 . S
H299 C273 0.950 . S
H300 C275 0.950 . S
H301 C278 0.950 . S
H302 C280 0.950 . S
C303 C304 1.443 . S
C303 N307 1.376 . S
C303 C341 1.389 . S
C304 C303 1.443 . S
C304 C305 1.340 . S
C304 H344 0.951 . S
C305 C304 1.340 . S
C305 C306 1.439 . S
C305 H345 0.950 . S
C306 C305 1.439 . S
C306 N307 1.374 . S
C306 C340 1.427 . S
N307 C303 1.376 . S
N307 C306 1.374 . S
N307 Co308 2.008 1_565 S
Co308 N307 2.008 1_545 S
Co308 N309 1.995 . S
Co308 N314 2.008 . S
Co308 N319 1.995 1_545 S
Co308 N324 2.282 . S
Co308 N330 2.282 1_545 S
N309 Co308 1.995 . S
N309 C310 1.376 . S
N309 C313 1.383 . S
C310 N309 1.376 . S
C310 C311 1.446 . S
C310 C340 1.358 1_545 S
C311 C310 1.446 . S
C311 C312 1.339 . S
C311 H346 0.949 . S
C312 C311 1.339 . S
C312 C313 1.439 . S
C312 H347 0.950 . S
C313 N309 1.383 . S
C313 C312 1.439 . S
C313 C342 1.392 . S
N314 Co308 2.008 . S
N314 C315 1.376 . S
N314 C318 1.374 . S
C315 N314 1.376 . S
C315 C316 1.443 . S
C315 C342 1.389 . S
C316 C315 1.443 . S
C316 C317 1.340 . S
C316 H348 0.951 . S
C317 C316 1.340 . S
C317 C318 1.439 . S
C317 H349 0.950 . S
C318 N314 1.374 . S
C318 C317 1.439 . S
C318 C343 1.395 . S
N319 Co308 1.995 1_565 S
N319 C320 1.376 . S
N319 C323 1.383 . S
C320 N319 1.376 . S
C320 C321 1.446 . S
C320 C343 1.391 1_565 S
C321 C320 1.446 . S
C321 C322 1.339 . S
C321 H350 0.949 . S
C322 C321 1.339 . S
C322 C323 1.439 . S
C322 H351 0.950 . S
C323 N319 1.383 . S
C323 C322 1.439 . S
C323 C341 1.392 . S
N324 Co308 2.282 . S
N324 C327 1.332 . S
N324 C329 1.332 . S
C325 C326 1.386 . S
C325 C328 1.388 . S
C326 C325 1.386 . S
C326 C327 1.382 . S
C326 H352 0.950 . S
C327 N324 1.332 . S
C327 C326 1.382 . S
C327 H338 0.952 . S
C328 C325 1.388 . S
C328 C329 1.382 . S
C328 H353 0.950 . S
C329 N324 1.332 . S
C329 C328 1.382 . S
C329 H339 0.948 . S
N330 Co308 2.282 1_565 S
N330 C334 1.332 . S
N330 C335 1.332 . S
C331 C332 1.388 . S
C331 C335 1.382 . S
C331 H354 0.950 . S
C332 C331 1.388 . S
C332 C333 1.386 . S
C333 C332 1.386 . S
C333 C334 1.382 . S
C333 H355 0.950 . S
C334 N330 1.332 . S
C334 C333 1.382 . S
C334 H336 0.952 . S
C335 N330 1.332 . S
C335 C331 1.382 . S
C335 H337 0.948 . S
H336 C334 0.952 . S
H337 C335 0.948 . S
H338 C327 0.952 . S
H339 C329 0.948 . S
C340 C306 1.427 . S
C340 C310 1.358 1_565 S
C341 C303 1.389 . S
C341 C323 1.392 . S
C342 C313 1.392 . S
C342 C315 1.389 . S
C343 C318 1.395 . S
C343 C320 1.391 1_545 S
H344 C304 0.951 . S
H345 C305 0.950 . S
H346 C311 0.949 . S
H347 C312 0.950 . S
H348 C316 0.951 . S
H349 C317 0.950 . S
H350 C321 0.949 . S
H351 C322 0.950 . S
H352 C326 0.950 . S
H353 C328 0.950 . S
H354 C331 0.950 . S
H355 C333 0.950 . S
C356 C357 1.443 . S
C356 N360 1.376 . S
C356 C394 1.389 . S
C357 C356 1.443 . S
C357 C358 1.340 . S
C357 H397 0.951 . S
C358 C357 1.340 . S
C358 C359 1.439 . S
C358 H398 0.950 . S
C359 C358 1.439 . S
C359 N360 1.374 . S
C359 C393 1.385 1_554 S
N360 C356 1.376 . S
N360 C359 1.374 . S
N360 Co361 2.008 . S
Co361 N360 2.008 . S
Co361 N362 1.995 1_554 S
Co361 N367 2.008 1_554 S
Co361 N372 1.995 . S
Co361 N377 2.282 . S
Co361 N383 2.282 1_554 S
N362 Co361 1.995 1_556 S
N362 C363 1.376 . S
N362 C366 1.383 . S
C363 N362 1.376 . S
C363 C364 1.446 . S
C363 C393 1.400 . S
C364 C363 1.446 . S
C364 C365 1.339 . S
C364 H399 0.949 . S
C365 C364 1.339 . S
C365 C366 1.439 . S
C365 H400 0.950 . S
C366 N362 1.383 . S
C366 C365 1.439 . S
C366 C395 1.392 . S
N367 Co361 2.008 1_556 S
N367 C368 1.376 . S
N367 C371 1.374 . S
C368 N367 1.376 . S
C368 C369 1.443 . S
C368 C395 1.389 . S
C369 C368 1.443 . S
C369 C370 1.340 . S
C369 H401 0.951 . S
C370 C369 1.340 . S
C370 C371 1.439 . S
C370 H402 0.950 . S
C371 N367 1.374 . S
C371 C370 1.439 . S
C371 C396 1.395 1_556 S
N372 Co361 1.995 . S
N372 C373 1.376 . S
N372 C376 1.383 . S
C373 N372 1.376 . S
C373 C374 1.446 . S
C373 C396 1.391 . S
C374 C373 1.446 . S
C374 C375 1.339 . S
C374 H403 0.949 . S
C375 C374 1.339 . S
C375 C376 1.439 . S
C375 H404 0.950 . S
C376 N372 1.383 . S
C376 C375 1.439 . S
C376 C394 1.392 . S
N377 Co361 2.282 . S
N377 C380 1.332 . S
N377 C382 1.332 . S
C378 C379 1.386 . S
C378 C381 1.388 . S
C379 C378 1.386 . S
C379 C380 1.382 . S
C379 H405 0.950 . S
C380 N377 1.332 . S
C380 C379 1.382 . S
C380 H391 0.952 . S
C381 C378 1.388 . S
C381 C382 1.382 . S
C381 H406 0.950 . S
C382 N377 1.332 . S
C382 C381 1.382 . S
C382 H392 0.948 . S
N383 Co361 2.282 1_556 S
N383 C387 1.332 . S
N383 C388 1.332 . S
C384 C385 1.388 . S
C384 C388 1.382 . S
C384 H407 0.950 . S
C385 C384 1.388 . S
C385 C386 1.386 . S
C386 C385 1.386 . S
C386 C387 1.382 . S
C386 H408 0.950 . S
C387 N383 1.332 . S
C387 C386 1.382 . S
C387 H389 0.952 . S
C388 N383 1.332 . S
C388 C384 1.382 . S
C388 H390 0.948 . S
H389 C387 0.952 . S
H390 C388 0.948 . S
H391 C380 0.952 . S
H392 C382 0.948 . S
C393 C359 1.385 1_556 S
C393 C363 1.400 . S
C394 C356 1.389 . S
C394 C376 1.392 . S
C395 C366 1.392 . S
C395 C368 1.389 . S
C396 C371 1.395 1_554 S
C396 C373 1.391 . S
H397 C357 0.951 . S
H398 C358 0.950 . S
H399 C364 0.949 . S
H400 C365 0.950 . S
H401 C369 0.951 . S
H402 C370 0.950 . S
H403 C374 0.949 . S
H404 C375 0.950 . S
H405 C379 0.950 . S
H406 C381 0.950 . S
H407 C384 0.950 . S
H408 C386 0.950 . S
C409 C410 1.443 . S
C409 N413 1.376 . S
C409 C447 1.389 . S
C410 C409 1.443 . S
C410 C411 1.340 . S
C410 H450 0.951 . S
C411 C410 1.340 . S
C411 C412 1.439 . S
C411 H451 0.950 . S
C412 C411 1.439 . S
C412 N413 1.374 . S
C412 C446 1.395 . S
N413 C409 1.376 . S
N413 C412 1.374 . S
N413 Co414 2.008 . S
Co414 N413 2.008 . S
Co414 N415 1.995 1_554 S
Co414 N420 2.008 . S
Co414 N425 1.995 . S
Co414 N430 2.282 . S
Co414 N436 2.282 1_554 S
N415 Co414 1.995 1_556 S
N415 C416 1.376 . S
N415 C419 1.383 . S
C416 N415 1.376 . S
C416 C417 1.446 . S
C416 C446 1.391 1_556 S
C417 C416 1.446 . S
C417 C418 1.339 . S
C417 H452 0.949 . S
C418 C417 1.339 . S
C418 C419 1.439 . S
C418 H453 0.950 . S
C419 N415 1.383 . S
C419 C418 1.439 . S
C419 C448 1.392 . S
N420 Co414 2.008 . S
N420 C421 1.376 1_554 S
N420 C424 1.374 . S
C421 N420 1.376 1_556 S
C421 C422 1.443 . S
C421 C448 1.389 . S
C422 C421 1.443 . S
C422 C423 1.340 1_556 S
C422 H454 0.951 . S
C423 C422 1.340 1_554 S
C423 C424 1.439 . S
C423 H455 0.950 . S
C424 N420 1.374 . S
C424 C423 1.439 . S
C424 C449 1.395 . S
N425 Co414 1.995 . S
N425 C426 1.376 . S
N425 C429 1.383 . S
C426 N425 1.376 . S
C426 C427 1.446 . S
C426 C449 1.391 . S
C427 C426 1.446 . S
C427 C428 1.339 . S
C427 H456 0.949 . S
C428 C427 1.339 . S
C428 C429 1.439 . S
C428 H457 0.950 . S
C429 N425 1.383 . S
C429 C428 1.439 . S
C429 C447 1.392 . S
N430 Co414 2.282 . S
N430 C433 1.332 . S
N430 C435 1.332 . S
C431 C432 1.386 . S
C431 C434 1.388 . S
C432 C431 1.386 . S
C432 C433 1.382 . S
C432 H458 0.950 . S
C433 N430 1.332 . S
C433 C432 1.382 . S
C433 H444 0.952 . S
C434 C431 1.388 . S
C434 C435 1.382 . S
C434 H459 0.950 . S
C435 N430 1.332 . S
C435 C434 1.382 . S
C435 H445 0.948 . S
N436 Co414 2.282 1_556 S
N436 C440 1.332 . S
N436 C441 1.332 . S
C437 C438 1.388 . S
C437 C441 1.382 . S
C437 H460 0.950 . S
C438 C437 1.388 . S
C438 C439 1.386 . S
C439 C438 1.386 . S
C439 C440 1.382 . S
C439 H461 0.950 . S
C440 N436 1.332 . S
C440 C439 1.382 . S
C440 H442 0.952 . S
C441 N436 1.332 . S
C441 C437 1.382 . S
C441 H443 0.948 . S
H442 C440 0.952 . S
H443 C441 0.948 . S
H444 C433 0.952 . S
H445 C435 0.948 . S
C446 C412 1.395 . S
C446 C416 1.391 1_554 S
C447 C409 1.389 . S
C447 C429 1.392 . S
C448 C419 1.392 . S
C448 C421 1.389 . S
C449 C424 1.395 . S
C449 C426 1.391 . S
H450 C410 0.951 . S
H451 C411 0.950 . S
H452 C417 0.949 . S
H453 C418 0.950 . S
H454 C422 0.951 . S
H455 C423 0.950 . S
H456 C427 0.949 . S
H457 C428 0.950 . S
H458 C432 0.950 . S
H459 C434 0.950 . S
H460 C437 0.950 . S
H461 C439 0.950 . S
C462 C463 1.443 . S
C462 N466 1.376 1_556 S
C462 C500 1.389 . S
C463 C462 1.443 . S
C463 C464 1.340 1_556 S
C463 H503 0.951 . S
C464 C463 1.340 1_554 S
C464 C465 1.439 . S
C464 H504 0.950 . S
C465 C464 1.439 . S
C465 N466 1.374 . S
C465 C499 1.395 . S
N466 C462 1.376 1_554 S
N466 C465 1.374 . S
N466 Co467 2.008 . S
Co467 N466 2.008 . S
Co467 N468 1.995 . S
Co467 N473 2.008 . S
Co467 N478 1.995 . S
Co467 N483 2.282 1_554 S
Co467 N489 2.282 . S
N468 Co467 1.995 . S
N468 C469 1.376 . S
N468 C472 1.383 . S
C469 N468 1.376 . S
C469 C470 1.446 . S
C469 C499 1.391 . S
C470 C469 1.446 . S
C470 C471 1.339 . S
C470 H505 0.949 . S
C471 C470 1.339 . S
C471 C472 1.439 . S
C471 H506 0.950 . S
C472 N468 1.383 . S
C472 C471 1.439 . S
C472 C501 1.392 . S
N473 Co467 2.008 . S
N473 C474 1.376 . S
N473 C477 1.374 . S
C474 N473 1.376 . S
C474 C475 1.443 . S
C474 C501 1.389 . S
C475 C474 1.443 . S
C475 C476 1.340 . S
C475 H507 0.951 . S
C476 C475 1.340 . S
C476 C477 1.439 . S
C476 H508 0.950 . S
C477 N473 1.374 . S
C477 C476 1.439 . S
C477 C502 1.395 . S
N478 Co467 1.995 . S
N478 C479 1.376 . S
N478 C482 1.383 1_554 S
C479 N478 1.376 . S
C479 C480 1.446 1_554 S
C479 C502 1.391 . S
C480 C479 1.446 1_556 S
C480 C481 1.339 . S
C480 H509 0.949 . S
C481 C480 1.339 . S
C481 C482 1.439 . S
C481 H510 0.950 . S
C482 N478 1.383 1_556 S
C482 C481 1.439 . S
C482 C500 1.392 . S
N483 Co467 2.282 1_556 S
N483 C486 1.332 . S
N483 C488 1.332 . S
C484 C485 1.386 . S
C484 C487 1.388 . S
C485 C484 1.386 . S
C485 C486 1.382 . S
C485 H511 0.950 . S
C486 N483 1.332 . S
C486 C485 1.382 . S
C486 H497 0.952 . S
C487 C484 1.388 . S
C487 C488 1.382 . S
C487 H512 0.950 . S
C488 N483 1.332 . S
C488 C487 1.382 . S
C488 H498 0.948 1_556 S
N489 Co467 2.282 . S
N489 C493 1.332 . S
N489 C494 1.332 . S
C490 C491 1.388 . S
C490 C494 1.382 . S
C490 H513 0.950 . S
C491 C490 1.388 . S
C491 C492 1.386 . S
C492 C491 1.386 . S
C492 C493 1.382 . S
C492 H514 0.950 . S
C493 N489 1.332 . S
C493 C492 1.382 . S
C493 H495 0.952 . S
C494 N489 1.332 . S
C494 C490 1.382 . S
C494 H496 0.948 . S
H495 C493 0.952 . S
H496 C494 0.948 . S
H497 C486 0.952 . S
H498 C488 0.948 1_554 S
C499 C465 1.395 . S
C499 C469 1.391 . S
C500 C462 1.389 . S
C500 C482 1.392 . S
C501 C472 1.392 . S
C501 C474 1.389 . S
C502 C477 1.395 . S
C502 C479 1.391 . S
H503 C463 0.951 . S
H504 C464 0.950 . S
H505 C470 0.949 . S
H506 C471 0.950 . S
H507 C475 0.951 . S
H508 C476 0.950 . S
H509 C480 0.949 . S
H510 C481 0.950 . S
H511 C485 0.950 . S
H512 C487 0.950 . S
H513 C490 0.950 . S
H514 C492 0.950 . S
C515 C516 1.443 . S
C515 N519 1.376 . S
C515 C553 1.389 . S
C516 C515 1.443 . S
C516 C517 1.340 . S
C516 H556 0.951 . S
C517 C516 1.340 . S
C517 C518 1.439 . S
C517 H557 0.950 . S
C518 C517 1.439 . S
C518 N519 1.374 . S
C518 C552 1.386 1_554 S
N519 C515 1.376 . S
N519 C518 1.374 . S
N519 Co520 2.008 . S
Co520 N519 2.008 . S
Co520 N521 1.995 1_554 S
Co520 N526 2.008 1_554 S
Co520 N531 1.995 . S
Co520 N536 2.282 . S
Co520 N542 2.282 1_554 S
N521 Co520 1.995 1_556 S
N521 C522 1.376 . S
N521 C525 1.383 . S
C522 N521 1.376 . S
C522 C523 1.446 . S
C522 C552 1.399 . S
C523 C522 1.446 . S
C523 C524 1.339 . S
C523 H558 0.949 . S
C524 C523 1.339 . S
C524 C525 1.439 . S
C524 H559 0.950 . S
C525 N521 1.383 . S
C525 C524 1.439 . S
C525 C554 1.392 . S
N526 Co520 2.008 1_556 S
N526 C527 1.376 . S
N526 C530 1.374 1_556 S
C527 N526 1.376 . S
C527 C528 1.443 . S
C527 C554 1.389 . S
C528 C527 1.443 . S
C528 C529 1.340 . S
C528 H560 0.951 . S
C529 C528 1.340 . S
C529 C530 1.439 1_556 S
C529 H561 0.950 . S
C530 N526 1.374 1_554 S
C530 C529 1.439 1_554 S
C530 C555 1.395 . S
N531 Co520 1.995 . S
N531 C532 1.376 . S
N531 C535 1.383 . S
C532 N531 1.376 . S
C532 C533 1.446 . S
C532 C555 1.391 . S
C533 C532 1.446 . S
C533 C534 1.339 . S
C533 H562 0.949 . S
C534 C533 1.339 . S
C534 C535 1.439 . S
C534 H563 0.950 . S
C535 N531 1.383 . S
C535 C534 1.439 . S
C535 C553 1.392 . S
N536 Co520 2.282 . S
N536 C539 1.332 . S
N536 C541 1.332 . S
C537 C538 1.386 . S
C537 C540 1.388 . S
C538 C537 1.386 . S
C538 C539 1.382 . S
C538 H564 0.950 . S
C539 N536 1.332 . S
C539 C538 1.382 . S
C539 H550 0.952 . S
C540 C537 1.388 . S
C540 C541 1.382 . S
C540 H565 0.950 . S
C541 N536 1.332 . S
C541 C540 1.382 . S
C541 H551 0.948 . S
N542 Co520 2.282 1_556 S
N542 C546 1.332 . S
N542 C547 1.332 . S
C543 C544 1.388 . S
C543 C547 1.382 . S
C543 H566 0.950 . S
C544 C543 1.388 . S
C544 C545 1.386 . S
C545 C544 1.386 . S
C545 C546 1.382 . S
C545 H567 0.950 . S
C546 N542 1.332 . S
C546 C545 1.382 . S
C546 H548 0.952 . S
C547 N542 1.332 . S
C547 C543 1.382 . S
C547 H549 0.948 . S
H548 C546 0.952 . S
H549 C547 0.948 . S
H550 C539 0.952 . S
H551 C541 0.948 . S
C552 C518 1.386 1_556 S
C552 C522 1.399 . S
C553 C515 1.389 . S
C553 C535 1.392 . S
C554 C525 1.392 . S
C554 C527 1.389 . S
C555 C530 1.395 . S
C555 C532 1.391 . S
H556 C516 0.951 . S
H557 C517 0.950 . S
H558 C523 0.949 . S
H559 C524 0.950 . S
H560 C528 0.951 . S
H561 C529 0.950 . S
H562 C533 0.949 . S
H563 C534 0.950 . S
H564 C538 0.950 . S
H565 C540 0.950 . S
H566 C543 0.950 . S
H567 C545 0.950 . S
C568 C569 1.349 . S
C568 C570 1.327 . S
C568 H593 0.950 . S
C569 C568 1.349 . S
C569 C585 1.349 . S
C570 C568 1.327 . S
C570 C589 1.429 . S
C570 H594 0.950 . S
C571 C588 1.574 . S
C571 C590 1.368 . S
C571 H595 0.949 . S
H572 C576 0.949 . S
C573 C574 1.349 . S
C573 C575 1.327 . S
C573 H596 0.950 . S
C574 C573 1.349 . S
C574 C586 1.349 . S
C575 C573 1.327 . S
C575 C591 1.429 . S
C575 H597 0.950 . S
C576 H572 0.949 . S
C576 C584 1.574 . S
C576 C592 1.368 . S
H577 C585 0.950 . S
H578 C583 0.950 . S
H579 C584 0.949 . S
H580 C586 0.950 . S
H581 C587 0.950 . S
H582 C588 0.949 . S
C583 H578 0.950 . S
C583 C585 1.327 . S
C583 C589 1.429 . S
C584 C576 1.574 . S
C584 H579 0.949 . S
C584 C590 1.368 . S
C585 C569 1.349 . S
C585 H577 0.950 . S
C585 C583 1.327 . S
C586 C574 1.349 . S
C586 H580 0.950 . S
C586 C587 1.327 . S
C587 H581 0.950 . S
C587 C586 1.327 . S
C587 C591 1.429 . S
C588 C571 1.574 . S
C588 H582 0.949 . S
C588 C592 1.368 . S
C589 C570 1.429 . S
C589 C583 1.429 . S
C589 C590 1.523 . S
C590 C571 1.368 . S
C590 C584 1.368 . S
C590 C589 1.523 . S
C591 C575 1.429 . S
C591 C587 1.429 . S
C591 C592 1.523 . S
C592 C576 1.368 . S
C592 C588 1.368 . S
C592 C591 1.523 . S
H593 C568 0.950 . S
H594 C570 0.950 . S
H595 C571 0.949 . S
H596 C573 0.950 . S
H597 C575 0.950 . S
C598 C599 1.349 . S
C598 C600 1.327 . S
C598 H623 0.950 . S
C599 C598 1.349 . S
C599 C615 1.349 . S
C600 C598 1.327 . S
C600 C619 1.429 . S
C600 H624 0.950 . S
C601 C618 1.574 . S
C601 C620 1.368 . S
C601 H625 0.949 . S
H602 C606 0.949 . S
C603 C604 1.349 . S
C603 C605 1.327 . S
C603 H626 0.950 . S
C604 C603 1.349 . S
C604 C616 1.349 . S
C605 C603 1.327 . S
C605 C621 1.429 . S
C605 H627 0.950 . S
C606 H602 0.949 . S
C606 C614 1.574 . S
C606 C622 1.368 . S
H607 C615 0.950 . S
H608 C613 0.950 . S
H609 C614 0.949 . S
H610 C616 0.950 . S
H611 C617 0.950 . S
H612 C618 0.949 . S
C613 H608 0.950 . S
C613 C615 1.327 . S
C613 C619 1.429 . S
C614 C606 1.574 . S
C614 H609 0.949 . S
C614 C620 1.368 . S
C615 C599 1.349 . S
C615 H607 0.950 . S
C615 C613 1.327 . S
C616 C604 1.349 . S
C616 H610 0.950 . S
C616 C617 1.327 . S
C617 H611 0.950 . S
C617 C616 1.327 . S
C617 C621 1.429 . S
C618 C601 1.574 . S
C618 H612 0.949 . S
C618 C622 1.368 . S
C619 C600 1.429 . S
C619 C613 1.429 . S
C619 C620 1.523 . S
C620 C601 1.368 . S
C620 C614 1.368 . S
C620 C619 1.523 . S
C621 C605 1.429 . S
C621 C617 1.429 . S
C621 C622 1.523 . S
C622 C606 1.368 . S
C622 C618 1.368 . S
C622 C621 1.523 . S
H623 C598 0.950 . S
H624 C600 0.950 . S
H625 C601 0.949 . S
H626 C603 0.950 . S
H627 C605 0.950 . S
C628 C629 1.349 . S
C628 C630 1.327 . S
C628 H653 0.950 . S
C629 C628 1.349 . S
C629 C645 1.349 . S
C630 C628 1.327 . S
C630 C649 1.429 . S
C630 H654 0.950 . S
C631 C648 1.574 . S
C631 C650 1.368 . S
C631 H655 0.949 . S
H632 C636 0.949 . S
C633 C634 1.349 . S
C633 C635 1.327 . S
C633 H656 0.950 . S
C634 C633 1.349 . S
C634 C646 1.349 . S
C635 C633 1.327 . S
C635 C651 1.429 . S
C635 H657 0.950 . S
C636 H632 0.949 . S
C636 C644 1.574 . S
C636 C652 1.368 . S
H637 C645 0.950 . S
H638 C643 0.950 . S
H639 C644 0.949 . S
H640 C646 0.950 . S
H641 C647 0.950 . S
H642 C648 0.949 . S
C643 H638 0.950 . S
C643 C645 1.327 . S
C643 C649 1.429 . S
C644 C636 1.574 . S
C644 H639 0.949 . S
C644 C650 1.368 . S
C645 C629 1.349 . S
C645 H637 0.950 . S
C645 C643 1.327 . S
C646 C634 1.349 . S
C646 H640 0.950 . S
C646 C647 1.327 . S
C647 H641 0.950 . S
C647 C646 1.327 . S
C647 C651 1.429 . S
C648 C631 1.574 . S
C648 H642 0.949 . S
C648 C652 1.368 . S
C649 C630 1.429 . S
C649 C643 1.429 . S
C649 C650 1.523 . S
C650 C631 1.368 . S
C650 C644 1.368 . S
C650 C649 1.523 . S
C651 C635 1.429 . S
C651 C647 1.429 . S
C651 C652 1.523 . S
C652 C636 1.368 . S
C652 C648 1.368 . S
C652 C651 1.523 . S
H653 C628 0.950 . S
H654 C630 0.950 . S
H655 C631 0.949 . S
H656 C633 0.950 . S
H657 C635 0.950 . S
C658 C659 1.349 . S
C658 C660 1.327 . S
C658 H683 0.950 . S
C659 C658 1.349 . S
C659 C675 1.349 . S
C660 C658 1.327 . S
C660 C679 1.429 . S
C660 H684 0.950 . S
C661 C678 1.574 . S
C661 C680 1.368 . S
C661 H685 0.949 . S
H662 C666 0.949 . S
C663 C664 1.349 . S
C663 C665 1.327 . S
C663 H686 0.950 . S
C664 C663 1.349 . S
C664 C676 1.349 . S
C665 C663 1.327 . S
C665 C681 1.429 . S
C665 H687 0.950 . S
C666 H662 0.949 . S
C666 C674 1.574 . S
C666 C682 1.368 . S
H667 C675 0.950 . S
H668 C673 0.950 . S
H669 C674 0.949 . S
H670 C676 0.950 . S
H671 C677 0.950 . S
H672 C678 0.949 . S
C673 H668 0.950 . S
C673 C675 1.327 . S
C673 C679 1.429 . S
C674 C666 1.574 . S
C674 H669 0.949 . S
C674 C680 1.368 . S
C675 C659 1.349 . S
C675 H667 0.950 . S
C675 C673 1.327 . S
C676 C664 1.349 . S
C676 H670 0.950 . S
C676 C677 1.327 . S
C677 H671 0.950 . S
C677 C676 1.327 . S
C677 C681 1.429 . S
C678 C661 1.574 . S
C678 H672 0.949 . S
C678 C682 1.368 . S
C679 C660 1.429 . S
C679 C673 1.429 . S
C679 C680 1.523 . S
C680 C661 1.368 . S
C680 C674 1.368 . S
C680 C679 1.523 . S
C681 C665 1.429 . S
C681 C677 1.429 . S
C681 C682 1.523 . S
C682 C666 1.368 . S
C682 C678 1.368 . S
C682 C681 1.523 . S
H683 C658 0.950 . S
H684 C660 0.950 . S
H685 C661 0.949 . S
H686 C663 0.950 . S
H687 C665 0.950 . S
C688 C689 1.349 . S
C688 C690 1.327 . S
C688 H713 0.950 . S
C689 C688 1.349 . S
C689 C705 1.349 . S
C690 C688 1.327 . S
C690 C709 1.429 . S
C690 H714 0.950 . S
C691 C708 1.574 . S
C691 C710 1.368 . S
C691 H715 0.949 . S
H692 C696 0.949 . S
C693 C694 1.349 . S
C693 C695 1.327 . S
C693 H716 0.950 . S
C694 C693 1.349 . S
C694 C706 1.349 . S
C695 C693 1.327 . S
C695 C711 1.429 . S
C695 H717 0.950 . S
C696 H692 0.949 . S
C696 C704 1.574 . S
C696 C712 1.368 . S
H697 C705 0.950 . S
H698 C703 0.950 . S
H699 C704 0.949 . S
H700 C706 0.950 . S
H701 C707 0.950 . S
H702 C708 0.949 . S
C703 H698 0.950 . S
C703 C705 1.327 . S
C703 C709 1.429 . S
C704 C696 1.574 . S
C704 H699 0.949 . S
C704 C710 1.368 . S
C705 C689 1.349 . S
C705 H697 0.950 . S
C705 C703 1.327 . S
C706 C694 1.349 . S
C706 H700 0.950 . S
C706 C707 1.327 . S
C707 H701 0.950 . S
C707 C706 1.327 . S
C707 C711 1.429 . S
C708 C691 1.574 . S
C708 H702 0.949 . S
C708 C712 1.368 . S
C709 C690 1.429 . S
C709 C703 1.429 . S
C709 C710 1.523 . S
C710 C691 1.368 . S
C710 C704 1.368 . S
C710 C709 1.523 . S
C711 C695 1.429 . S
C711 C707 1.429 . S
C711 C712 1.523 . S
C712 C696 1.368 . S
C712 C708 1.368 . S
C712 C711 1.523 . S
H713 C688 0.950 . S
H714 C690 0.950 . S
H715 C691 0.949 . S
H716 C693 0.950 . S
H717 C695 0.950 . S
C718 C719 1.349 . S
C718 C720 1.327 . S
C718 H743 0.950 . S
C719 C718 1.349 . S
C719 C735 1.349 . S
C720 C718 1.327 . S
C720 C739 1.429 . S
C720 H744 0.950 . S
C721 C738 1.574 . S
C721 C740 1.368 . S
C721 H745 0.949 . S
H722 C726 0.949 . S
C723 C724 1.349 . S
C723 C725 1.327 . S
C723 H746 0.950 . S
C724 C723 1.349 . S
C724 C736 1.349 . S
C725 C723 1.327 . S
C725 C741 1.429 . S
C725 H747 0.950 . S
C726 H722 0.949 . S
C726 C734 1.574 . S
C726 C742 1.368 . S
H727 C735 0.950 . S
H728 C733 0.950 . S
H729 C734 0.949 . S
H730 C736 0.950 . S
H731 C737 0.950 . S
H732 C738 0.949 . S
C733 H728 0.950 . S
C733 C735 1.327 . S
C733 C739 1.429 . S
C734 C726 1.574 . S
C734 H729 0.949 . S
C734 C740 1.368 . S
C735 C719 1.349 . S
C735 H727 0.950 . S
C735 C733 1.327 . S
C736 C724 1.349 . S
C736 H730 0.950 . S
C736 C737 1.327 . S
C737 H731 0.950 . S
C737 C736 1.327 . S
C737 C741 1.429 . S
C738 C721 1.574 . S
C738 H732 0.949 . S
C738 C742 1.368 . S
C739 C720 1.429 . S
C739 C733 1.429 . S
C739 C740 1.523 . S
C740 C721 1.368 . S
C740 C734 1.368 . S
C740 C739 1.523 . S
C741 C725 1.429 . S
C741 C737 1.429 . S
C741 C742 1.523 . S
C742 C726 1.368 . S
C742 C738 1.368 . S
C742 C741 1.523 . S
H743 C718 0.950 . S
H744 C720 0.950 . S
H745 C721 0.949 . S
H746 C723 0.950 . S
H747 C725 0.950 . S
C748 C749 1.349 . S
C748 C750 1.327 . S
C748 H773 0.950 . S
C749 C748 1.349 . S
C749 C765 1.349 . S
C750 C748 1.327 . S
C750 C769 1.429 . S
C750 H774 0.950 . S
C751 C768 1.574 . S
C751 C770 1.368 . S
C751 H775 0.949 . S
H752 C756 0.949 . S
C753 C754 1.349 . S
C753 C755 1.327 . S
C753 H776 0.950 . S
C754 C753 1.349 . S
C754 C766 1.349 . S
C755 C753 1.327 . S
C755 C771 1.429 . S
C755 H777 0.950 . S
C756 H752 0.949 . S
C756 C764 1.574 . S
C756 C772 1.368 . S
H757 C765 0.950 . S
H758 C763 0.950 . S
H759 C764 0.949 . S
H760 C766 0.950 . S
H761 C767 0.950 . S
H762 C768 0.949 . S
C763 H758 0.950 . S
C763 C765 1.327 . S
C763 C769 1.429 . S
C764 C756 1.574 . S
C764 H759 0.949 . S
C764 C770 1.368 . S
C765 C749 1.349 . S
C765 H757 0.950 . S
C765 C763 1.327 . S
C766 C754 1.349 . S
C766 H760 0.950 . S
C766 C767 1.327 . S
C767 H761 0.950 . S
C767 C766 1.327 . S
C767 C771 1.429 . S
C768 C751 1.574 . S
C768 H762 0.949 . S
C768 C772 1.368 . S
C769 C750 1.429 . S
C769 C763 1.429 . S
C769 C770 1.523 . S
C770 C751 1.368 . S
C770 C764 1.368 . S
C770 C769 1.523 . S
C771 C755 1.429 . S
C771 C767 1.429 . S
C771 C772 1.523 . S
C772 C756 1.368 . S
C772 C768 1.368 . S
C772 C771 1.523 . S
H773 C748 0.950 . S
H774 C750 0.950 . S
H775 C751 0.949 . S
H776 C753 0.950 . S
H777 C755 0.950 . S
C778 C779 1.349 . S
C778 C780 1.327 . S
C778 H803 0.950 . S
C779 C778 1.349 . S
C779 C795 1.349 . S
C780 C778 1.327 . S
C780 C799 1.429 . S
C780 H804 0.950 . S
C781 C798 1.574 . S
C781 C800 1.368 . S
C781 H805 0.949 . S
H782 C786 0.949 . S
C783 C784 1.349 . S
C783 C785 1.327 . S
C783 H806 0.950 . S
C784 C783 1.349 . S
C784 C796 1.349 . S
C785 C783 1.327 . S
C785 C801 1.429 . S
C785 H807 0.950 . S
C786 H782 0.949 . S
C786 C794 1.574 . S
C786 C802 1.368 . S
H787 C795 0.950 . S
H788 C793 0.950 . S
H789 C794 0.949 . S
H790 C796 0.950 . S
H791 C797 0.950 . S
H792 C798 0.949 . S
C793 H788 0.950 . S
C793 C795 1.327 . S
C793 C799 1.429 . S
C794 C786 1.574 . S
C794 H789 0.949 . S
C794 C800 1.368 . S
C795 C779 1.349 . S
C795 H787 0.950 . S
C795 C793 1.327 . S
C796 C784 1.349 . S
C796 H790 0.950 . S
C796 C797 1.327 . S
C797 H791 0.950 . S
C797 C796 1.327 . S
C797 C801 1.429 . S
C798 C781 1.574 . S
C798 H792 0.949 . S
C798 C802 1.368 . S
C799 C780 1.429 . S
C799 C793 1.429 . S
C799 C800 1.523 . S
C800 C781 1.368 . S
C800 C794 1.368 . S
C800 C799 1.523 . S
C801 C785 1.429 . S
C801 C797 1.429 . S
C801 C802 1.523 . S
C802 C786 1.368 . S
C802 C798 1.368 . S
C802 C801 1.523 . S
H803 C778 0.950 . S
H804 C780 0.950 . S
H805 C781 0.949 . S
H806 C783 0.950 . S
H807 C785 0.950 . S
C808 C809 1.349 . S
C808 C810 1.327 . S
C808 H833 0.950 . S
C809 C808 1.349 . S
C809 C825 1.349 . S
C810 C808 1.327 . S
C810 C829 1.429 . S
C810 H834 0.950 . S
C811 C828 1.574 . S
C811 C830 1.368 . S
C811 H835 0.949 . S
H812 C816 0.949 . S
C813 C814 1.349 . S
C813 C815 1.327 . S
C813 H836 0.950 . S
C814 C813 1.349 . S
C814 C826 1.349 . S
C815 C813 1.327 . S
C815 C831 1.429 . S
C815 H837 0.950 . S
C816 H812 0.949 . S
C816 C824 1.574 . S
C816 C832 1.368 . S
H817 C825 0.950 . S
H818 C823 0.950 . S
H819 C824 0.949 . S
H820 C826 0.950 . S
H821 C827 0.950 . S
H822 C828 0.949 . S
C823 H818 0.950 . S
C823 C825 1.327 . S
C823 C829 1.429 . S
C824 C816 1.574 . S
C824 H819 0.949 . S
C824 C830 1.368 . S
C825 C809 1.349 . S
C825 H817 0.950 . S
C825 C823 1.327 . S
C826 C814 1.349 . S
C826 H820 0.950 . S
C826 C827 1.327 . S
C827 H821 0.950 . S
C827 C826 1.327 . S
C827 C831 1.429 . S
C828 C811 1.574 . S
C828 H822 0.949 . S
C828 C832 1.368 . S
C829 C810 1.429 . S
C829 C823 1.429 . S
C829 C830 1.523 . S
C830 C811 1.368 . S
C830 C824 1.368 . S
C830 C829 1.523 . S
C831 C815 1.429 . S
C831 C827 1.429 . S
C831 C832 1.523 . S
C832 C816 1.368 . S
C832 C828 1.368 . S
C832 C831 1.523 . S
H833 C808 0.950 . S
H834 C810 0.950 . S
H835 C811 0.949 . S
H836 C813 0.950 . S
H837 C815 0.950 . S
C838 C839 1.349 . S
C838 C840 1.327 . S
C838 H863 0.950 . S
C839 C838 1.349 . S
C839 C855 1.349 . S
C840 C838 1.327 . S
C840 C859 1.429 . S
C840 H864 0.950 . S
C841 C858 1.574 . S
C841 C860 1.368 . S
C841 H865 0.949 . S
H842 C846 0.949 . S
C843 C844 1.349 . S
C843 C845 1.327 . S
C843 H866 0.950 . S
C844 C843 1.349 . S
C844 C856 1.349 . S
C845 C843 1.327 . S
C845 C861 1.429 . S
C845 H867 0.950 . S
C846 H842 0.949 . S
C846 C854 1.574 . S
C846 C862 1.368 . S
H847 C855 0.950 . S
H848 C853 0.950 . S
H849 C854 0.949 . S
H850 C856 0.950 . S
H851 C857 0.950 . S
H852 C858 0.949 . S
C853 H848 0.950 . S
C853 C855 1.327 . S
C853 C859 1.429 . S
C854 C846 1.574 . S
C854 H849 0.949 . S
C854 C860 1.368 . S
C855 C839 1.349 . S
C855 H847 0.950 . S
C855 C853 1.327 . S
C856 C844 1.349 . S
C856 H850 0.950 . S
C856 C857 1.327 . S
C857 H851 0.950 . S
C857 C856 1.327 . S
C857 C861 1.429 . S
C858 C841 1.574 . S
C858 H852 0.949 . S
C858 C862 1.368 . S
C859 C840 1.429 . S
C859 C853 1.429 . S
C859 C860 1.523 . S
C860 C841 1.368 . S
C860 C854 1.368 . S
C860 C859 1.523 . S
C861 C845 1.429 . S
C861 C857 1.429 . S
C861 C862 1.523 . S
C862 C846 1.368 . S
C862 C858 1.368 . S
C862 C861 1.523 . S
H863 C838 0.950 . S
H864 C840 0.950 . S
H865 C841 0.949 . S
H866 C843 0.950 . S
H867 C845 0.950 . S
C868 C869 1.349 . S
C868 C870 1.327 . S
C868 H893 0.950 . S
C869 C868 1.349 . S
C869 C885 1.349 . S
C870 C868 1.327 . S
C870 C889 1.429 . S
C870 H894 0.950 . S
C871 C888 1.574 . S
C871 C890 1.368 . S
C871 H895 0.949 . S
H872 C876 0.949 . S
C873 C874 1.349 . S
C873 C875 1.327 . S
C873 H896 0.950 . S
C874 C873 1.349 . S
C874 C886 1.349 . S
C875 C873 1.327 . S
C875 C891 1.429 . S
C875 H897 0.950 . S
C876 H872 0.949 . S
C876 C884 1.574 . S
C876 C892 1.368 . S
H877 C885 0.950 . S
H878 C883 0.950 . S
H879 C884 0.949 . S
H880 C886 0.950 . S
H881 C887 0.950 . S
H882 C888 0.949 . S
C883 H878 0.950 . S
C883 C885 1.327 . S
C883 C889 1.429 . S
C884 C876 1.574 . S
C884 H879 0.949 . S
C884 C890 1.368 . S
C885 C869 1.349 . S
C885 H877 0.950 . S
C885 C883 1.327 . S
C886 C874 1.349 . S
C886 H880 0.950 . S
C886 C887 1.327 . S
C887 H881 0.950 . S
C887 C886 1.327 . S
C887 C891 1.429 . S
C888 C871 1.574 . S
C888 H882 0.949 . S
C888 C892 1.368 . S
C889 C870 1.429 . S
C889 C883 1.429 . S
C889 C890 1.523 . S
C890 C871 1.368 . S
C890 C884 1.368 . S
C890 C889 1.523 . S
C891 C875 1.429 . S
C891 C887 1.429 . S
C891 C892 1.523 . S
C892 C876 1.368 . S
C892 C888 1.368 . S
C892 C891 1.523 . S
H893 C868 0.950 . S
H894 C870 0.950 . S
H895 C871 0.949 . S
H896 C873 0.950 . S
H897 C875 0.950 . S
C898 C899 1.349 . S
C898 C900 1.327 . S
C898 H923 0.950 . S
C899 C898 1.349 . S
C899 C915 1.349 . S
C900 C898 1.327 . S
C900 C919 1.429 . S
C900 H924 0.950 . S
C901 C918 1.574 . S
C901 C920 1.368 . S
C901 H925 0.949 . S
H902 C906 0.949 . S
C903 C904 1.349 . S
C903 C905 1.327 . S
C903 H926 0.950 . S
C904 C903 1.349 . S
C904 C916 1.349 . S
C905 C903 1.327 . S
C905 C921 1.429 . S
C905 H927 0.950 . S
C906 H902 0.949 . S
C906 C914 1.574 . S
C906 C922 1.368 . S
H907 C915 0.950 . S
H908 C913 0.950 . S
H909 C914 0.949 . S
H910 C916 0.950 . S
H911 C917 0.950 . S
H912 C918 0.949 . S
C913 H908 0.950 . S
C913 C915 1.327 . S
C913 C919 1.429 . S
C914 C906 1.574 . S
C914 H909 0.949 . S
C914 C920 1.368 . S
C915 C899 1.349 . S
C915 H907 0.950 . S
C915 C913 1.327 . S
C916 C904 1.349 . S
C916 H910 0.950 . S
C916 C917 1.327 . S
C917 H911 0.950 . S
C917 C916 1.327 . S
C917 C921 1.429 . S
C918 C901 1.574 . S
C918 H912 0.949 . S
C918 C922 1.368 . S
C919 C900 1.429 . S
C919 C913 1.429 . S
C919 C920 1.523 . S
C920 C901 1.368 . S
C920 C914 1.368 . S
C920 C919 1.523 . S
C921 C905 1.429 . S
C921 C917 1.429 . S
C921 C922 1.523 . S
C922 C906 1.368 . S
C922 C918 1.368 . S
C922 C921 1.523 . S
H923 C898 0.950 . S
H924 C900 0.950 . S
H925 C901 0.949 . S
H926 C903 0.950 . S
H927 C905 0.950 . S
C928 C929 1.349 . S
C928 C930 1.327 . S
C928 H953 0.950 . S
C929 C928 1.349 . S
C929 C945 1.349 . S
C930 C928 1.327 . S
C930 C949 1.429 . S
C930 H954 0.950 . S
C931 C948 1.574 . S
C931 C950 1.368 . S
C931 H955 0.949 . S
H932 C936 0.949 . S
C933 C934 1.349 . S
C933 C935 1.327 . S
C933 H956 0.950 . S
C934 C933 1.349 . S
C934 C946 1.349 . S
C935 C933 1.327 . S
C935 C951 1.429 . S
C935 H957 0.950 . S
C936 H932 0.949 . S
C936 C944 1.574 . S
C936 C952 1.368 . S
H937 C945 0.950 . S
H938 C943 0.950 . S
H939 C944 0.949 . S
H940 C946 0.950 . S
H941 C947 0.950 . S
H942 C948 0.949 . S
C943 H938 0.950 . S
C943 C945 1.327 . S
C943 C949 1.429 . S
C944 C936 1.574 . S
C944 H939 0.949 . S
C944 C950 1.368 . S
C945 C929 1.349 . S
C945 H937 0.950 . S
C945 C943 1.327 . S
C946 C934 1.349 . S
C946 H940 0.950 . S
C946 C947 1.327 . S
C947 H941 0.950 . S
C947 C946 1.327 . S
C947 C951 1.429 . S
C948 C931 1.574 . S
C948 H942 0.949 . S
C948 C952 1.368 . S
C949 C930 1.429 . S
C949 C943 1.429 . S
C949 C950 1.523 . S
C950 C931 1.368 . S
C950 C944 1.368 . S
C950 C949 1.523 . S
C951 C935 1.429 . S
C951 C947 1.429 . S
C951 C952 1.523 . S
C952 C936 1.368 . S
C952 C948 1.368 . S
C952 C951 1.523 . S
H953 C928 0.950 . S
H954 C930 0.950 . S
H955 C931 0.949 . S
H956 C933 0.950 . S
H957 C935 0.950 . S
C958 C959 1.349 . S
C958 C960 1.327 . S
C958 H983 0.950 . S
C959 C958 1.349 . S
C959 C975 1.349 . S
C960 C958 1.327 . S
C960 C979 1.429 . S
C960 H984 0.950 . S
C961 C978 1.574 . S
C961 C980 1.368 . S
C961 H985 0.949 . S
H962 C966 0.949 . S
C963 C964 1.349 . S
C963 C965 1.327 . S
C963 H986 0.950 . S
C964 C963 1.349 . S
C964 C976 1.349 . S
C965 C963 1.327 . S
C965 C981 1.429 . S
C965 H987 0.950 . S
C966 H962 0.949 . S
C966 C974 1.574 . S
C966 C982 1.368 . S
H967 C975 0.950 . S
H968 C973 0.950 . S
H969 C974 0.949 . S
H970 C976 0.950 . S
H971 C977 0.950 . S
H972 C978 0.949 . S
C973 H968 0.950 . S
C973 C975 1.327 . S
C973 C979 1.429 . S
C974 C966 1.574 . S
C974 H969 0.949 . S
C974 C980 1.368 . S
C975 C959 1.349 . S
C975 H967 0.950 . S
C975 C973 1.327 . S
C976 C964 1.349 . S
C976 H970 0.950 . S
C976 C977 1.327 . S
C977 H971 0.950 . S
C977 C976 1.327 . S
C977 C981 1.429 . S
C978 C961 1.574 . S
C978 H972 0.949 . S
C978 C982 1.368 . S
C979 C960 1.429 . S
C979 C973 1.429 . S
C979 C980 1.523 . S
C980 C961 1.368 . S
C980 C974 1.368 . S
C980 C979 1.523 . S
C981 C965 1.429 . S
C981 C977 1.429 . S
C981 C982 1.523 . S
C982 C966 1.368 . S
C982 C978 1.368 . S
C982 C981 1.523 . S
H983 C958 0.950 . S
H984 C960 0.950 . S
H985 C961 0.949 . S
H986 C963 0.950 . S
H987 C965 0.950 . S
C988 C989 1.349 . S
C988 C990 1.327 . S
C988 H1013 0.950 . S
C989 C988 1.349 . S
C989 C1005 1.349 . S
C990 C988 1.327 . S
C990 C1009 1.429 . S
C990 H1014 0.950 . S
C991 C1008 1.574 . S
C991 C1010 1.368 . S
C991 H1015 0.949 . S
H992 C996 0.949 . S
C993 C994 1.349 . S
C993 C995 1.327 . S
C993 H1016 0.950 . S
C994 C993 1.349 . S
C994 C1006 1.349 . S
C995 C993 1.327 . S
C995 C1011 1.429 . S
C995 H1017 0.950 . S
C996 H992 0.949 . S
C996 C1004 1.574 . S
C996 C1012 1.368 . S
H997 C1005 0.950 . S
H998 C1003 0.950 . S
H999 C1004 0.949 . S
H1000 C1006 0.950 . S
H1001 C1007 0.950 . S
H1002 C1008 0.949 . S
C1003 H998 0.950 . S
C1003 C1005 1.327 . S
C1003 C1009 1.429 . S
C1004 C996 1.574 . S
C1004 H999 0.949 . S
C1004 C1010 1.368 . S
C1005 C989 1.349 . S
C1005 H997 0.950 . S
C1005 C1003 1.327 . S
C1006 C994 1.349 . S
C1006 H1000 0.950 . S
C1006 C1007 1.327 . S
C1007 H1001 0.950 . S
C1007 C1006 1.327 . S
C1007 C1011 1.429 . S
C1008 C991 1.574 . S
C1008 H1002 0.949 . S
C1008 C1012 1.368 . S
C1009 C990 1.429 . S
C1009 C1003 1.429 . S
C1009 C1010 1.523 . S
C1010 C991 1.368 . S
C1010 C1004 1.368 . S
C1010 C1009 1.523 . S
C1011 C995 1.429 . S
C1011 C1007 1.429 . S
C1011 C1012 1.523 . S
C1012 C996 1.368 . S
C1012 C1008 1.368 . S
C1012 C1011 1.523 . S
H1013 C988 0.950 . S
H1014 C990 0.950 . S
H1015 C991 0.949 . S
H1016 C993 0.950 . S
H1017 C995 0.950 . S
C1018 C1019 1.349 . S
C1018 C1020 1.327 . S
C1018 H1043 0.950 . S
C1019 C1018 1.349 . S
C1019 C1035 1.349 . S
C1020 C1018 1.327 . S
C1020 C1039 1.429 . S
C1020 H1044 0.950 . S
C1021 C1038 1.574 . S
C1021 C1040 1.368 . S
C1021 H1045 0.949 . S
H1022 C1026 0.949 . S
C1023 C1024 1.349 . S
C1023 C1025 1.327 . S
C1023 H1046 0.950 . S
C1024 C1023 1.349 . S
C1024 C1036 1.349 . S
C1025 C1023 1.327 . S
C1025 C1041 1.429 . S
C1025 H1047 0.950 . S
C1026 H1022 0.949 . S
C1026 C1034 1.574 . S
C1026 C1042 1.368 . S
H1027 C1035 0.950 . S
H1028 C1033 0.950 . S
H1029 C1034 0.949 . S
H1030 C1036 0.950 . S
H1031 C1037 0.950 . S
H1032 C1038 0.949 . S
C1033 H1028 0.950 . S
C1033 C1035 1.327 . S
C1033 C1039 1.429 . S
C1034 C1026 1.574 . S
C1034 H1029 0.949 . S
C1034 C1040 1.368 . S
C1035 C1019 1.349 . S
C1035 H1027 0.950 . S
C1035 C1033 1.327 . S
C1036 C1024 1.349 . S
C1036 H1030 0.950 . S
C1036 C1037 1.327 . S
C1037 H1031 0.950 . S
C1037 C1036 1.327 . S
C1037 C1041 1.429 . S
C1038 C1021 1.574 . S
C1038 H1032 0.949 . S
C1038 C1042 1.368 . S
C1039 C1020 1.429 . S
C1039 C1033 1.429 . S
C1039 C1040 1.523 . S
C1040 C1021 1.368 . S
C1040 C1034 1.368 . S
C1040 C1039 1.523 . S
C1041 C1025 1.429 . S
C1041 C1037 1.429 . S
C1041 C1042 1.523 . S
C1042 C1026 1.368 . S
C1042 C1038 1.368 . S
C1042 C1041 1.523 . S
H1043 C1018 0.950 . S
H1044 C1020 0.950 . S
H1045 C1021 0.949 . S
H1046 C1023 0.950 . S
H1047 C1025 0.950 . S
C1048 C1049 1.349 . S
C1048 C1050 1.327 . S
C1048 H1073 0.950 . S
C1049 C1048 1.349 . S
C1049 C1065 1.349 . S
C1050 C1048 1.327 . S
C1050 C1069 1.429 . S
C1050 H1074 0.950 . S
C1051 C1068 1.574 . S
C1051 C1070 1.368 . S
C1051 H1075 0.949 . S
H1052 C1056 0.949 . S
C1053 C1054 1.349 . S
C1053 C1055 1.327 . S
C1053 H1076 0.950 . S
C1054 C1053 1.349 . S
C1054 C1066 1.349 . S
C1055 C1053 1.327 . S
C1055 C1071 1.429 . S
C1055 H1077 0.950 . S
C1056 H1052 0.949 . S
C1056 C1064 1.574 . S
C1056 C1072 1.368 . S
H1057 C1065 0.950 . S
H1058 C1063 0.950 . S
H1059 C1064 0.949 . S
H1060 C1066 0.950 . S
H1061 C1067 0.950 . S
H1062 C1068 0.949 . S
C1063 H1058 0.950 . S
C1063 C1065 1.327 . S
C1063 C1069 1.429 . S
C1064 C1056 1.574 . S
C1064 H1059 0.949 . S
C1064 C1070 1.368 . S
C1065 C1049 1.349 . S
C1065 H1057 0.950 . S
C1065 C1063 1.327 . S
C1066 C1054 1.349 . S
C1066 H1060 0.950 . S
C1066 C1067 1.327 . S
C1067 H1061 0.950 . S
C1067 C1066 1.327 . S
C1067 C1071 1.429 . S
C1068 C1051 1.574 . S
C1068 H1062 0.949 . S
C1068 C1072 1.368 . S
C1069 C1050 1.429 . S
C1069 C1063 1.429 . S
C1069 C1070 1.523 . S
C1070 C1051 1.368 . S
C1070 C1064 1.368 . S
C1070 C1069 1.523 . S
C1071 C1055 1.429 . S
C1071 C1067 1.429 . S
C1071 C1072 1.523 . S
C1072 C1056 1.368 . S
C1072 C1068 1.368 . S
C1072 C1071 1.523 . S
H1073 C1048 0.950 . S
H1074 C1050 0.950 . S
H1075 C1051 0.949 . S
H1076 C1053 0.950 . S
H1077 C1055 0.950 . S
C1078 C1079 1.349 . S
C1078 C1080 1.327 . S
C1078 H1103 0.950 . S
C1079 C1078 1.349 . S
C1079 C1095 1.349 . S
C1080 C1078 1.327 . S
C1080 C1099 1.429 . S
C1080 H1104 0.950 . S
C1081 C1098 1.574 . S
C1081 C1100 1.368 . S
C1081 H1105 0.949 . S
H1082 C1086 0.949 . S
C1083 C1084 1.349 . S
C1083 C1085 1.327 . S
C1083 H1106 0.950 . S
C1084 C1083 1.349 . S
C1084 C1096 1.349 . S
C1085 C1083 1.327 . S
C1085 C1101 1.429 . S
C1085 H1107 0.950 . S
C1086 H1082 0.949 . S
C1086 C1094 1.574 . S
C1086 C1102 1.368 . S
H1087 C1095 0.950 . S
H1088 C1093 0.950 . S
H1089 C1094 0.949 . S
H1090 C1096 0.950 . S
H1091 C1097 0.950 . S
H1092 C1098 0.949 . S
C1093 H1088 0.950 . S
C1093 C1095 1.327 . S
C1093 C1099 1.429 . S
C1094 C1086 1.574 . S
C1094 H1089 0.949 . S
C1094 C1100 1.368 . S
C1095 C1079 1.349 . S
C1095 H1087 0.950 . S
C1095 C1093 1.327 . S
C1096 C1084 1.349 . S
C1096 H1090 0.950 . S
C1096 C1097 1.327 . S
C1097 H1091 0.950 . S
C1097 C1096 1.327 . S
C1097 C1101 1.429 . S
C1098 C1081 1.574 . S
C1098 H1092 0.949 . S
C1098 C1102 1.368 . S
C1099 C1080 1.429 . S
C1099 C1093 1.429 . S
C1099 C1100 1.523 . S
C1100 C1081 1.368 . S
C1100 C1094 1.368 . S
C1100 C1099 1.523 . S
C1101 C1085 1.429 . S
C1101 C1097 1.429 . S
C1101 C1102 1.523 . S
C1102 C1086 1.368 . S
C1102 C1098 1.368 . S
C1102 C1101 1.523 . S
H1103 C1078 0.950 . S
H1104 C1080 0.950 . S
H1105 C1081 0.949 . S
H1106 C1083 0.950 . S
H1107 C1085 0.950 . S
C1108 C1109 1.349 . S
C1108 C1110 1.327 . S
C1108 H1133 0.950 . S
C1109 C1108 1.349 . S
C1109 C1125 1.349 . S
C1110 C1108 1.327 . S
C1110 C1129 1.429 . S
C1110 H1134 0.950 . S
C1111 C1128 1.574 . S
C1111 C1130 1.368 . S
C1111 H1135 0.949 . S
H1112 C1116 0.949 . S
C1113 C1114 1.349 . S
C1113 C1115 1.327 . S
C1113 H1136 0.950 . S
C1114 C1113 1.349 . S
C1114 C1126 1.349 . S
C1115 C1113 1.327 . S
C1115 C1131 1.429 . S
C1115 H1137 0.950 . S
C1116 H1112 0.949 . S
C1116 C1124 1.574 . S
C1116 C1132 1.368 . S
H1117 C1125 0.950 . S
H1118 C1123 0.950 . S
H1119 C1124 0.949 . S
H1120 C1126 0.950 . S
H1121 C1127 0.950 . S
H1122 C1128 0.949 . S
C1123 H1118 0.950 . S
C1123 C1125 1.327 . S
C1123 C1129 1.429 . S
C1124 C1116 1.574 . S
C1124 H1119 0.949 . S
C1124 C1130 1.368 . S
C1125 C1109 1.349 . S
C1125 H1117 0.950 . S
C1125 C1123 1.327 . S
C1126 C1114 1.349 . S
C1126 H1120 0.950 . S
C1126 C1127 1.327 . S
C1127 H1121 0.950 . S
C1127 C1126 1.327 . S
C1127 C1131 1.429 . S
C1128 C1111 1.574 . S
C1128 H1122 0.949 . S
C1128 C1132 1.368 . S
C1129 C1110 1.429 . S
C1129 C1123 1.429 . S
C1129 C1130 1.523 . S
C1130 C1111 1.368 . S
C1130 C1124 1.368 . S
C1130 C1129 1.523 . S
C1131 C1115 1.429 . S
C1131 C1127 1.429 . S
C1131 C1132 1.523 . S
C1132 C1116 1.368 . S
C1132 C1128 1.368 . S
C1132 C1131 1.523 . S
H1133 C1108 0.950 . S
H1134 C1110 0.950 . S
H1135 C1111 0.949 . S
H1136 C1113 0.950 . S
H1137 C1115 0.950 . S
C1138 C1139 1.349 . S
C1138 C1140 1.327 . S
C1138 H1163 0.950 . S
C1139 C1138 1.349 . S
C1139 C1155 1.349 . S
C1140 C1138 1.327 . S
C1140 C1159 1.429 . S
C1140 H1164 0.950 . S
C1141 C1158 1.574 . S
C1141 C1160 1.368 . S
C1141 H1165 0.949 . S
H1142 C1146 0.949 . S
C1143 C1144 1.349 . S
C1143 C1145 1.327 . S
C1143 H1166 0.950 . S
C1144 C1143 1.349 . S
C1144 C1156 1.349 . S
C1145 C1143 1.327 . S
C1145 C1161 1.429 . S
C1145 H1167 0.950 . S
C1146 H1142 0.949 . S
C1146 C1154 1.574 . S
C1146 C1162 1.368 . S
H1147 C1155 0.950 . S
H1148 C1153 0.950 . S
H1149 C1154 0.949 . S
H1150 C1156 0.950 . S
H1151 C1157 0.950 . S
H1152 C1158 0.949 . S
C1153 H1148 0.950 . S
C1153 C1155 1.327 . S
C1153 C1159 1.429 . S
C1154 C1146 1.574 . S
C1154 H1149 0.949 . S
C1154 C1160 1.368 . S
C1155 C1139 1.349 . S
C1155 H1147 0.950 . S
C1155 C1153 1.327 . S
C1156 C1144 1.349 . S
C1156 H1150 0.950 . S
C1156 C1157 1.327 . S
C1157 H1151 0.950 . S
C1157 C1156 1.327 . S
C1157 C1161 1.429 . S
C1158 C1141 1.574 . S
C1158 H1152 0.949 . S
C1158 C1162 1.368 . S
C1159 C1140 1.429 . S
C1159 C1153 1.429 . S
C1159 C1160 1.523 . S
C1160 C1141 1.368 . S
C1160 C1154 1.368 . S
C1160 C1159 1.523 . S
C1161 C1145 1.429 . S
C1161 C1157 1.429 . S
C1161 C1162 1.523 . S
C1162 C1146 1.368 . S
C1162 C1158 1.368 . S
C1162 C1161 1.523 . S
H1163 C1138 0.950 . S
H1164 C1140 0.950 . S
H1165 C1141 0.949 . S
H1166 C1143 0.950 . S
H1167 C1145 0.950 . S
C1168 C1169 1.349 . S
C1168 C1170 1.327 . S
C1168 H1193 0.950 . S
C1169 C1168 1.349 . S
C1169 C1185 1.349 . S
C1170 C1168 1.327 . S
C1170 C1189 1.429 . S
C1170 H1194 0.950 . S
C1171 C1188 1.574 . S
C1171 C1190 1.368 . S
C1171 H1195 0.949 . S
H1172 C1176 0.949 . S
C1173 C1174 1.349 . S
C1173 C1175 1.327 . S
C1173 H1196 0.950 . S
C1174 C1173 1.349 . S
C1174 C1186 1.349 . S
C1175 C1173 1.327 . S
C1175 C1191 1.429 . S
C1175 H1197 0.950 . S
C1176 H1172 0.949 . S
C1176 C1184 1.574 . S
C1176 C1192 1.368 . S
H1177 C1185 0.950 . S
H1178 C1183 0.950 . S
H1179 C1184 0.949 . S
H1180 C1186 0.950 . S
H1181 C1187 0.950 . S
H1182 C1188 0.949 . S
C1183 H1178 0.950 . S
C1183 C1185 1.327 . S
C1183 C1189 1.429 . S
C1184 C1176 1.574 . S
C1184 H1179 0.949 . S
C1184 C1190 1.368 . S
C1185 C1169 1.349 . S
C1185 H1177 0.950 . S
C1185 C1183 1.327 . S
C1186 C1174 1.349 . S
C1186 H1180 0.950 . S
C1186 C1187 1.327 . S
C1187 H1181 0.950 . S
C1187 C1186 1.327 . S
C1187 C1191 1.429 . S
C1188 C1171 1.574 . S
C1188 H1182 0.949 . S
C1188 C1192 1.368 . S
C1189 C1170 1.429 . S
C1189 C1183 1.429 . S
C1189 C1190 1.523 . S
C1190 C1171 1.368 . S
C1190 C1184 1.368 . S
C1190 C1189 1.523 . S
C1191 C1175 1.429 . S
C1191 C1187 1.429 . S
C1191 C1192 1.523 . S
C1192 C1176 1.368 . S
C1192 C1188 1.368 . S
C1192 C1191 1.523 . S
H1193 C1168 0.950 . S
H1194 C1170 0.950 . S
H1195 C1171 0.949 . S
H1196 C1173 0.950 . S
H1197 C1175 0.950 . S
C1198 C1199 1.349 . S
C1198 C1200 1.327 . S
C1198 H1223 0.950 . S
C1199 C1198 1.349 . S
C1199 C1215 1.349 . S
C1200 C1198 1.327 . S
C1200 C1219 1.429 . S
C1200 H1224 0.950 . S
C1201 C1218 1.574 . S
C1201 C1220 1.368 . S
C1201 H1225 0.949 . S
H1202 C1206 0.949 . S
C1203 C1204 1.349 . S
C1203 C1205 1.327 . S
C1203 H1226 0.950 . S
C1204 C1203 1.349 . S
C1204 C1216 1.349 . S
C1205 C1203 1.327 . S
C1205 C1221 1.429 . S
C1205 H1227 0.950 . S
C1206 H1202 0.949 . S
C1206 C1214 1.574 . S
C1206 C1222 1.368 . S
H1207 C1215 0.950 . S
H1208 C1213 0.950 . S
H1209 C1214 0.949 . S
H1210 C1216 0.950 . S
H1211 C1217 0.950 . S
H1212 C1218 0.949 . S
C1213 H1208 0.950 . S
C1213 C1215 1.327 . S
C1213 C1219 1.429 . S
C1214 C1206 1.574 . S
C1214 H1209 0.949 . S
C1214 C1220 1.368 . S
C1215 C1199 1.349 . S
C1215 H1207 0.950 . S
C1215 C1213 1.327 . S
C1216 C1204 1.349 . S
C1216 H1210 0.950 . S
C1216 C1217 1.327 . S
C1217 H1211 0.950 . S
C1217 C1216 1.327 . S
C1217 C1221 1.429 . S
C1218 C1201 1.574 . S
C1218 H1212 0.949 . S
C1218 C1222 1.368 . S
C1219 C1200 1.429 . S
C1219 C1213 1.429 . S
C1219 C1220 1.523 . S
C1220 C1201 1.368 . S
C1220 C1214 1.368 . S
C1220 C1219 1.523 . S
C1221 C1205 1.429 . S
C1221 C1217 1.429 . S
C1221 C1222 1.523 . S
C1222 C1206 1.368 . S
C1222 C1218 1.368 . S
C1222 C1221 1.523 . S
H1223 C1198 0.950 . S
H1224 C1200 0.950 . S
H1225 C1201 0.949 . S
H1226 C1203 0.950 . S
H1227 C1205 0.950 . S
C1228 C1229 1.349 . S
C1228 C1230 1.327 . S
C1228 H1253 0.950 . S
C1229 C1228 1.349 . S
C1229 C1245 1.349 . S
C1230 C1228 1.327 . S
C1230 C1249 1.429 . S
C1230 H1254 0.950 . S
C1231 C1248 1.574 . S
C1231 C1250 1.368 . S
C1231 H1255 0.949 . S
H1232 C1236 0.949 . S
C1233 C1234 1.349 . S
C1233 C1235 1.327 . S
C1233 H1256 0.950 . S
C1234 C1233 1.349 . S
C1234 C1246 1.349 . S
C1235 C1233 1.327 . S
C1235 C1251 1.429 . S
C1235 H1257 0.950 . S
C1236 H1232 0.949 . S
C1236 C1244 1.574 . S
C1236 C1252 1.368 . S
H1237 C1245 0.950 . S
H1238 C1243 0.950 . S
H1239 C1244 0.949 . S
H1240 C1246 0.950 . S
H1241 C1247 0.950 . S
H1242 C1248 0.949 . S
C1243 H1238 0.950 . S
C1243 C1245 1.327 . S
C1243 C1249 1.429 . S
C1244 C1236 1.574 . S
C1244 H1239 0.949 . S
C1244 C1250 1.368 . S
C1245 C1229 1.349 . S
C1245 H1237 0.950 . S
C1245 C1243 1.327 . S
C1246 C1234 1.349 . S
C1246 H1240 0.950 . S
C1246 C1247 1.327 . S
C1247 H1241 0.950 . S
C1247 C1246 1.327 . S
C1247 C1251 1.429 . S
C1248 C1231 1.574 . S
C1248 H1242 0.949 . S
C1248 C1252 1.368 . S
C1249 C1230 1.429 . S
C1249 C1243 1.429 . S
C1249 C1250 1.523 . S
C1250 C1231 1.368 . S
C1250 C1244 1.368 . S
C1250 C1249 1.523 . S
C1251 C1235 1.429 . S
C1251 C1247 1.429 . S
C1251 C1252 1.523 . S
C1252 C1236 1.368 . S
C1252 C1248 1.368 . S
C1252 C1251 1.523 . S
H1253 C1228 0.950 . S
H1254 C1230 0.950 . S
H1255 C1231 0.949 . S
H1256 C1233 0.950 . S
H1257 C1235 0.950 . S
C1258 C1259 1.349 . S
C1258 C1260 1.327 . S
C1258 H1283 0.950 . S
C1259 C1258 1.349 . S
C1259 C1275 1.349 . S
C1260 C1258 1.327 . S
C1260 C1279 1.429 . S
C1260 H1284 0.950 . S
C1261 C1278 1.574 . S
C1261 C1280 1.368 . S
C1261 H1285 0.949 . S
H1262 C1266 0.949 . S
C1263 C1264 1.349 . S
C1263 C1265 1.327 . S
C1263 H1286 0.950 . S
C1264 C1263 1.349 . S
C1264 C1276 1.349 . S
C1265 C1263 1.327 . S
C1265 C1281 1.429 . S
C1265 H1287 0.950 . S
C1266 H1262 0.949 . S
C1266 C1274 1.574 . S
C1266 C1282 1.368 . S
H1267 C1275 0.950 . S
H1268 C1273 0.950 . S
H1269 C1274 0.949 . S
H1270 C1276 0.950 . S
H1271 C1277 0.950 . S
H1272 C1278 0.949 . S
C1273 H1268 0.950 . S
C1273 C1275 1.327 . S
C1273 C1279 1.429 . S
C1274 C1266 1.574 . S
C1274 H1269 0.949 . S
C1274 C1280 1.368 . S
C1275 C1259 1.349 . S
C1275 H1267 0.950 . S
C1275 C1273 1.327 . S
C1276 C1264 1.349 . S
C1276 H1270 0.950 . S
C1276 C1277 1.327 . S
C1277 H1271 0.950 . S
C1277 C1276 1.327 . S
C1277 C1281 1.429 . S
C1278 C1261 1.574 . S
C1278 H1272 0.949 . S
C1278 C1282 1.368 . S
C1279 C1260 1.429 . S
C1279 C1273 1.429 . S
C1279 C1280 1.523 . S
C1280 C1261 1.368 . S
C1280 C1274 1.368 . S
C1280 C1279 1.523 . S
C1281 C1265 1.429 . S
C1281 C1277 1.429 . S
C1281 C1282 1.523 . S
C1282 C1266 1.368 . S
C1282 C1278 1.368 . S
C1282 C1281 1.523 . S
H1283 C1258 0.950 . S
H1284 C1260 0.950 . S
H1285 C1261 0.949 . S
H1286 C1263 0.950 . S
H1287 C1265 0.950 . S
C1288 C1289 1.349 . S
C1288 C1290 1.327 . S
C1288 H1313 0.950 . S
C1289 C1288 1.349 . S
C1289 C1305 1.349 . S
C1290 C1288 1.327 . S
C1290 C1309 1.429 . S
C1290 H1314 0.950 . S
C1291 C1308 1.574 . S
C1291 C1310 1.368 . S
C1291 H1315 0.949 . S
H1292 C1296 0.949 . S
C1293 C1294 1.349 . S
C1293 C1295 1.327 . S
C1293 H1316 0.950 . S
C1294 C1293 1.349 . S
C1294 C1306 1.349 . S
C1295 C1293 1.327 . S
C1295 C1311 1.429 . S
C1295 H1317 0.950 . S
C1296 H1292 0.949 . S
C1296 C1304 1.574 . S
C1296 C1312 1.368 . S
H1297 C1305 0.950 . S
H1298 C1303 0.950 . S
H1299 C1304 0.949 . S
H1300 C1306 0.950 . S
H1301 C1307 0.950 . S
H1302 C1308 0.949 . S
C1303 H1298 0.950 . S
C1303 C1305 1.327 . S
C1303 C1309 1.429 . S
C1304 C1296 1.574 . S
C1304 H1299 0.949 . S
C1304 C1310 1.368 . S
C1305 C1289 1.349 . S
C1305 H1297 0.950 . S
C1305 C1303 1.327 . S
C1306 C1294 1.349 . S
C1306 H1300 0.950 . S
C1306 C1307 1.327 . S
C1307 H1301 0.950 . S
C1307 C1306 1.327 . S
C1307 C1311 1.429 . S
C1308 C1291 1.574 . S
C1308 H1302 0.949 . S
C1308 C1312 1.368 . S
C1309 C1290 1.429 . S
C1309 C1303 1.429 . S
C1309 C1310 1.523 . S
C1310 C1291 1.368 . S
C1310 C1304 1.368 . S
C1310 C1309 1.523 . S
C1311 C1295 1.429 . S
C1311 C1307 1.429 . S
C1311 C1312 1.523 . S
C1312 C1296 1.368 . S
C1312 C1308 1.368 . S
C1312 C1311 1.523 . S
H1313 C1288 0.950 . S
H1314 C1290 0.950 . S
H1315 C1291 0.949 . S
H1316 C1293 0.950 . S
H1317 C1295 0.950 . S
C1318 C1319 1.349 . S
C1318 C1320 1.327 . S
C1318 H1343 0.950 . S
C1319 C1318 1.349 . S
C1319 C1335 1.349 . S
C1320 C1318 1.327 . S
C1320 C1339 1.429 . S
C1320 H1344 0.950 . S
C1321 C1338 1.574 . S
C1321 C1340 1.368 . S
C1321 H1345 0.949 . S
H1322 C1326 0.949 . S
C1323 C1324 1.349 . S
C1323 C1325 1.327 . S
C1323 H1346 0.950 . S
C1324 C1323 1.349 . S
C1324 C1336 1.349 . S
C1325 C1323 1.327 . S
C1325 C1341 1.429 . S
C1325 H1347 0.950 . S
C1326 H1322 0.949 . S
C1326 C1334 1.574 . S
C1326 C1342 1.368 . S
H1327 C1335 0.950 . S
H1328 C1333 0.950 . S
H1329 C1334 0.949 . S
H1330 C1336 0.950 . S
H1331 C1337 0.950 . S
H1332 C1338 0.949 . S
C1333 H1328 0.950 . S
C1333 C1335 1.327 . S
C1333 C1339 1.429 . S
C1334 C1326 1.574 . S
C1334 H1329 0.949 . S
C1334 C1340 1.368 . S
C1335 C1319 1.349 . S
C1335 H1327 0.950 . S
C1335 C1333 1.327 . S
C1336 C1324 1.349 . S
C1336 H1330 0.950 . S
C1336 C1337 1.327 . S
C1337 H1331 0.950 . S
C1337 C1336 1.327 . S
C1337 C1341 1.429 . S
C1338 C1321 1.574 . S
C1338 H1332 0.949 . S
C1338 C1342 1.368 . S
C1339 C1320 1.429 . S
C1339 C1333 1.429 . S
C1339 C1340 1.523 . S
C1340 C1321 1.368 . S
C1340 C1334 1.368 . S
C1340 C1339 1.523 . S
C1341 C1325 1.429 . S
C1341 C1337 1.429 . S
C1341 C1342 1.523 . S
C1342 C1326 1.368 . S
C1342 C1338 1.368 . S
C1342 C1341 1.523 . S
H1343 C1318 0.950 . S
H1344 C1320 0.950 . S
H1345 C1321 0.949 . S
H1346 C1323 0.950 . S
H1347 C1325 0.950 . S
C1348 C1349 1.349 . S
C1348 C1350 1.327 . S
C1348 H1373 0.950 . S
C1349 C1348 1.349 . S
C1349 C1365 1.349 . S
C1350 C1348 1.327 . S
C1350 C1369 1.429 . S
C1350 H1374 0.950 . S
C1351 C1368 1.574 . S
C1351 C1370 1.368 . S
C1351 H1375 0.949 . S
H1352 C1356 0.949 . S
C1353 C1354 1.349 . S
C1353 C1355 1.327 . S
C1353 H1376 0.950 . S
C1354 C1353 1.349 . S
C1354 C1366 1.349 . S
C1355 C1353 1.327 . S
C1355 C1371 1.429 . S
C1355 H1377 0.950 . S
C1356 H1352 0.949 . S
C1356 C1364 1.574 . S
C1356 C1372 1.368 . S
H1357 C1365 0.950 . S
H1358 C1363 0.950 . S
H1359 C1364 0.949 . S
H1360 C1366 0.950 . S
H1361 C1367 0.950 . S
H1362 C1368 0.949 . S
C1363 H1358 0.950 . S
C1363 C1365 1.327 . S
C1363 C1369 1.429 . S
C1364 C1356 1.574 . S
C1364 H1359 0.949 . S
C1364 C1370 1.368 . S
C1365 C1349 1.349 . S
C1365 H1357 0.950 . S
C1365 C1363 1.327 . S
C1366 C1354 1.349 . S
C1366 H1360 0.950 . S
C1366 C1367 1.327 . S
C1367 H1361 0.950 . S
C1367 C1366 1.327 . S
C1367 C1371 1.429 . S
C1368 C1351 1.574 . S
C1368 H1362 0.949 . S
C1368 C1372 1.368 . S
C1369 C1350 1.429 . S
C1369 C1363 1.429 . S
C1369 C1370 1.523 . S
C1370 C1351 1.368 . S
C1370 C1364 1.368 . S
C1370 C1369 1.523 . S
C1371 C1355 1.429 . S
C1371 C1367 1.429 . S
C1371 C1372 1.523 . S
C1372 C1356 1.368 . S
C1372 C1368 1.368 . S
C1372 C1371 1.523 . S
H1373 C1348 0.950 . S
H1374 C1350 0.950 . S
H1375 C1351 0.949 . S
H1376 C1353 0.950 . S
H1377 C1355 0.950 . S
C1378 C1379 1.349 . S
C1378 C1380 1.327 . S
C1378 H1403 0.950 . S
C1379 C1378 1.349 . S
C1379 C1395 1.349 . S
C1380 C1378 1.327 . S
C1380 C1399 1.429 . S
C1380 H1404 0.950 . S
C1381 C1398 1.574 . S
C1381 C1400 1.368 . S
C1381 H1405 0.949 . S
H1382 C1386 0.949 . S
C1383 C1384 1.349 . S
C1383 C1385 1.327 . S
C1383 H1406 0.950 . S
C1384 C1383 1.349 . S
C1384 C1396 1.349 . S
C1385 C1383 1.327 . S
C1385 C1401 1.429 . S
C1385 H1407 0.950 . S
C1386 H1382 0.949 . S
C1386 C1394 1.574 . S
C1386 C1402 1.368 . S
H1387 C1395 0.950 . S
H1388 C1393 0.950 . S
H1389 C1394 0.949 . S
H1390 C1396 0.950 . S
H1391 C1397 0.950 . S
H1392 C1398 0.949 . S
C1393 H1388 0.950 . S
C1393 C1395 1.327 . S
C1393 C1399 1.429 . S
C1394 C1386 1.574 . S
C1394 H1389 0.949 . S
C1394 C1400 1.368 . S
C1395 C1379 1.349 . S
C1395 H1387 0.950 . S
C1395 C1393 1.327 . S
C1396 C1384 1.349 . S
C1396 H1390 0.950 . S
C1396 C1397 1.327 . S
C1397 H1391 0.950 . S
C1397 C1396 1.327 . S
C1397 C1401 1.429 . S
C1398 C1381 1.574 . S
C1398 H1392 0.949 . S
C1398 C1402 1.368 . S
C1399 C1380 1.429 . S
C1399 C1393 1.429 . S
C1399 C1400 1.523 . S
C1400 C1381 1.368 . S
C1400 C1394 1.368 . S
C1400 C1399 1.523 . S
C1401 C1385 1.429 . S
C1401 C1397 1.429 . S
C1401 C1402 1.523 . S
C1402 C1386 1.368 . S
C1402 C1398 1.368 . S
C1402 C1401 1.523 . S
H1403 C1378 0.950 . S
H1404 C1380 0.950 . S
H1405 C1381 0.949 . S
H1406 C1383 0.950 . S
H1407 C1385 0.950 . S
C1408 C1409 1.349 . S
C1408 C1410 1.327 . S
C1408 H1433 0.950 . S
C1409 C1408 1.349 . S
C1409 C1425 1.349 . S
C1410 C1408 1.327 . S
C1410 C1429 1.429 . S
C1410 H1434 0.950 . S
C1411 C1428 1.574 . S
C1411 C1430 1.368 . S
C1411 H1435 0.949 . S
H1412 C1416 0.949 . S
C1413 C1414 1.349 . S
C1413 C1415 1.327 . S
C1413 H1436 0.950 . S
C1414 C1413 1.349 . S
C1414 C1426 1.349 . S
C1415 C1413 1.327 . S
C1415 C1431 1.429 . S
C1415 H1437 0.950 . S
C1416 H1412 0.949 . S
C1416 C1424 1.574 . S
C1416 C1432 1.368 . S
H1417 C1425 0.950 . S
H1418 C1423 0.950 . S
H1419 C1424 0.949 . S
H1420 C1426 0.950 . S
H1421 C1427 0.950 . S
H1422 C1428 0.949 . S
C1423 H1418 0.950 . S
C1423 C1425 1.327 . S
C1423 C1429 1.429 . S
C1424 C1416 1.574 . S
C1424 H1419 0.949 . S
C1424 C1430 1.368 . S
C1425 C1409 1.349 . S
C1425 H1417 0.950 . S
C1425 C1423 1.327 . S
C1426 C1414 1.349 . S
C1426 H1420 0.950 . S
C1426 C1427 1.327 . S
C1427 H1421 0.950 . S
C1427 C1426 1.327 . S
C1427 C1431 1.429 . S
C1428 C1411 1.574 . S
C1428 H1422 0.949 . S
C1428 C1432 1.368 . S
C1429 C1410 1.429 . S
C1429 C1423 1.429 . S
C1429 C1430 1.523 . S
C1430 C1411 1.368 . S
C1430 C1424 1.368 . S
C1430 C1429 1.523 . S
C1431 C1415 1.429 . S
C1431 C1427 1.429 . S
C1431 C1432 1.523 . S
C1432 C1416 1.368 . S
C1432 C1428 1.368 . S
C1432 C1431 1.523 . S
H1433 C1408 0.950 . S
H1434 C1410 0.950 . S
H1435 C1411 0.949 . S
H1436 C1413 0.950 . S
H1437 C1415 0.950 . S
C1438 C1439 1.349 . S
C1438 C1440 1.327 . S
C1438 H1463 0.950 . S
C1439 C1438 1.349 . S
C1439 C1455 1.349 . S
C1440 C1438 1.327 . S
C1440 C1459 1.429 . S
C1440 H1464 0.950 . S
C1441 C1458 1.574 . S
C1441 C1460 1.368 . S
C1441 H1465 0.949 . S
H1442 C1446 0.949 . S
C1443 C1444 1.349 . S
C1443 C1445 1.327 . S
C1443 H1466 0.950 . S
C1444 C1443 1.349 . S
C1444 C1456 1.349 . S
C1445 C1443 1.327 . S
C1445 C1461 1.429 . S
C1445 H1467 0.950 . S
C1446 H1442 0.949 . S
C1446 C1454 1.574 . S
C1446 C1462 1.368 . S
H1447 C1455 0.950 . S
H1448 C1453 0.950 . S
H1449 C1454 0.949 . S
H1450 C1456 0.950 . S
H1451 C1457 0.950 . S
H1452 C1458 0.949 . S
C1453 H1448 0.950 . S
C1453 C1455 1.327 . S
C1453 C1459 1.429 . S
C1454 C1446 1.574 . S
C1454 H1449 0.949 . S
C1454 C1460 1.368 . S
C1455 C1439 1.349 . S
C1455 H1447 0.950 . S
C1455 C1453 1.327 . S
C1456 C1444 1.349 . S
C1456 H1450 0.950 . S
C1456 C1457 1.327 . S
C1457 H1451 0.950 . S
C1457 C1456 1.327 . S
C1457 C1461 1.429 . S
C1458 C1441 1.574 . S
C1458 H1452 0.949 . S
C1458 C1462 1.368 . S
C1459 C1440 1.429 . S
C1459 C1453 1.429 . S
C1459 C1460 1.523 . S
C1460 C1441 1.368 . S
C1460 C1454 1.368 . S
C1460 C1459 1.523 . S
C1461 C1445 1.429 . S
C1461 C1457 1.429 . S
C1461 C1462 1.523 . S
C1462 C1446 1.368 . S
C1462 C1458 1.368 . S
C1462 C1461 1.523 . S
H1463 C1438 0.950 . S
H1464 C1440 0.950 . S
H1465 C1441 0.949 . S
H1466 C1443 0.950 . S
H1467 C1445 0.950 . S
C1468 C1469 1.349 . S
C1468 C1470 1.327 . S
C1468 H1493 0.950 . S
C1469 C1468 1.349 . S
C1469 C1485 1.349 . S
C1470 C1468 1.327 . S
C1470 C1489 1.429 . S
C1470 H1494 0.950 . S
C1471 C1488 1.574 . S
C1471 C1490 1.368 . S
C1471 H1495 0.949 . S
H1472 C1476 0.949 . S
C1473 C1474 1.349 . S
C1473 C1475 1.327 . S
C1473 H1496 0.950 . S
C1474 C1473 1.349 . S
C1474 C1486 1.349 . S
C1475 C1473 1.327 . S
C1475 C1491 1.429 . S
C1475 H1497 0.950 . S
C1476 H1472 0.949 . S
C1476 C1484 1.574 . S
C1476 C1492 1.368 . S
H1477 C1485 0.950 . S
H1478 C1483 0.950 . S
H1479 C1484 0.949 . S
H1480 C1486 0.950 . S
H1481 C1487 0.950 . S
H1482 C1488 0.949 . S
C1483 H1478 0.950 . S
C1483 C1485 1.327 . S
C1483 C1489 1.429 . S
C1484 C1476 1.574 . S
C1484 H1479 0.949 . S
C1484 C1490 1.368 . S
C1485 C1469 1.349 . S
C1485 H1477 0.950 . S
C1485 C1483 1.327 . S
C1486 C1474 1.349 . S
C1486 H1480 0.950 . S
C1486 C1487 1.327 . S
C1487 H1481 0.950 . S
C1487 C1486 1.327 . S
C1487 C1491 1.429 . S
C1488 C1471 1.574 . S
C1488 H1482 0.949 . S
C1488 C1492 1.368 . S
C1489 C1470 1.429 . S
C1489 C1483 1.429 . S
C1489 C1490 1.523 . S
C1490 C1471 1.368 . S
C1490 C1484 1.368 . S
C1490 C1489 1.523 . S
C1491 C1475 1.429 . S
C1491 C1487 1.429 . S
C1491 C1492 1.523 . S
C1492 C1476 1.368 . S
C1492 C1488 1.368 . S
C1492 C1491 1.523 . S
H1493 C1468 0.950 . S
H1494 C1470 0.950 . S
H1495 C1471 0.949 . S
H1496 C1473 0.950 . S
H1497 C1475 0.950 . S
C1498 C1499 1.349 . S
C1498 C1500 1.327 . S
C1498 H1523 0.950 . S
C1499 C1498 1.349 . S
C1499 C1515 1.349 . S
C1500 C1498 1.327 . S
C1500 C1519 1.429 . S
C1500 H1524 0.950 . S
C1501 C1518 1.574 . S
C1501 C1520 1.368 . S
C1501 H1525 0.949 . S
H1502 C1506 0.949 . S
C1503 C1504 1.349 . S
C1503 C1505 1.327 . S
C1503 H1526 0.950 . S
C1504 C1503 1.349 . S
C1504 C1516 1.349 . S
C1505 C1503 1.327 . S
C1505 C1521 1.429 . S
C1505 H1527 0.950 . S
C1506 H1502 0.949 . S
C1506 C1514 1.574 . S
C1506 C1522 1.368 . S
H1507 C1515 0.950 . S
H1508 C1513 0.950 . S
H1509 C1514 0.949 . S
H1510 C1516 0.950 . S
H1511 C1517 0.950 . S
H1512 C1518 0.949 . S
C1513 H1508 0.950 . S
C1513 C1515 1.327 . S
C1513 C1519 1.429 . S
C1514 C1506 1.574 . S
C1514 H1509 0.949 . S
C1514 C1520 1.368 . S
C1515 C1499 1.349 . S
C1515 H1507 0.950 . S
C1515 C1513 1.327 . S
C1516 C1504 1.349 . S
C1516 H1510 0.950 . S
C1516 C1517 1.327 . S
C1517 H1511 0.950 . S
C1517 C1516 1.327 . S
C1517 C1521 1.429 . S
C1518 C1501 1.574 . S
C1518 H1512 0.949 . S
C1518 C1522 1.368 . S
C1519 C1500 1.429 . S
C1519 C1513 1.429 . S
C1519 C1520 1.523 . S
C1520 C1501 1.368 . S
C1520 C1514 1.368 . S
C1520 C1519 1.523 . S
C1521 C1505 1.429 . S
C1521 C1517 1.429 . S
C1521 C1522 1.523 . S
C1522 C1506 1.368 . S
C1522 C1518 1.368 . S
C1522 C1521 1.523 . S
H1523 C1498 0.950 . S
H1524 C1500 0.950 . S
H1525 C1501 0.949 . S
H1526 C1503 0.950 . S
H1527 C1505 0.950 . S
C574 C173 1.495 . S
C569 C7 1.432 . S
C604 C226 1.303 . S
C599 C32 1.258 . S
C634 C289 1.543 . S
C629 C44 1.495 . S
C664 C332 1.274 . S
C659 C62 1.229 . S
C689 C88 1.488 . S
C694 C288 1.547 . S
C724 C325 1.322 . S
C719 C106 1.275 . S
C754 C166 1.497 . S
C749 C124 1.435 . S
C784 C219 1.256 . S
C779 C140 1.211 . S
C814 C272 1.533 . S
C809 C142 1.462 . S
C844 C341 1.812 . S
C839 C86 1.749 . S
C874 C182 1.585 . S
C869 C104 1.526 . S
C904 C235 1.758 . S
C899 C122 1.692 . S
C934 C183 1.580 . S
C929 C34 1.513 . S
C964 C236 1.810 . S
C959 C43 1.742 . S
C994 C279 1.534 . S
C989 C61 1.464 . S
C1024 C342 1.763 . S
C1019 C8 1.696 . S
C1054 C385 1.474 . S
C1049 C133 1.409 . S
C1079 C80 1.631 . S
C1084 C438 1.691 . S
C1109 C98 1.514 . S
C1114 C500 1.562 . S
C1139 C116 1.629 . S
C1144 C554 1.685 . S
C1169 C25 1.461 . S
C1174 C501 1.518 . S
C1199 C52 1.679 . S
C1204 C553 1.740 . S
C1229 C70 1.455 . S
C1234 C378 1.515 . S
C1264 C431 1.648 . S
C1259 C14 1.584 . S
C1294 C491 1.507 . S
C1289 C16 1.436 . S
C1319 C26 1.320 . S
C1324 C537 1.374 . S
C1349 C50 1.546 . S
C1354 C394 1.603 . S
C1379 C68 1.309 . S
C1384 C447 1.359 . S
C1414 C395 1.552 . S
C1409 C79 1.485 . S
C1444 C448 1.411 . S
C1439 C97 1.359 . S
C1469 C115 1.482 . S
C1474 C484 1.553 . S
C1504 C544 1.323 . S
C1499 C134 1.270 . S
