# Generated by pormake.
# Topology zzz, (3,6)-cn, num edge types: 1
# Building blocks:
#     Node 0, Type 0, BuildingBlock: BELTOD_clean_linker_0, # of connection points: 3
#     Node 1, Type 0, BuildingBlock: BELTOD_clean_linker_0, # of connection points: 3
#     Node 2, Type 0, BuildingBlock: BELTOD_clean_linker_0, # of connection points: 3
#     Node 3, Type 0, BuildingBlock: BELTOD_clean_linker_0, # of connection points: 3
#     Node 4, Type 0, BuildingBlock: BELTOD_clean_linker_0, # of connection points: 3
#     Node 5, Type 0, BuildingBlock: BELTOD_clean_linker_0, # of connection points: 3
#     Node 6, Type 0, BuildingBlock: BELTOD_clean_linker_0, # of connection points: 3
#     Node 7, Type 0, BuildingBlock: BELTOD_clean_linker_0, # of connection points: 3
#     Node 8, Type 1, BuildingBlock: KUMJIN_clean_sbu_0, # of connection points: 6
#     Node 9, Type 1, BuildingBlock: KUMJIN_clean_sbu_0, # of connection points: 6
#     Node 10, Type 1, BuildingBlock: KUMJIN_clean_sbu_0, # of connection points: 6
#     Node 11, Type 1, BuildingBlock: KUMJIN_clean_sbu_0, # of connection points: 6
#     Edge 12, Type (0, 1), BuildingBlock: EZIPEK_clean_linker_0, # of connection points: 2
#     Edge 13, Type (0, 1), BuildingBlock: EZIPEK_clean_linker_0, # of connection points: 2
#     Edge 14, Type (0, 1), BuildingBlock: EZIPEK_clean_linker_0, # of connection points: 2
#     Edge 15, Type (0, 1), BuildingBlock: EZIPEK_clean_linker_0, # of connection points: 2
#     Edge 16, Type (0, 1), BuildingBlock: EZIPEK_clean_linker_0, # of connection points: 2
#     Edge 17, Type (0, 1), BuildingBlock: EZIPEK_clean_linker_0, # of connection points: 2
#     Edge 18, Type (0, 1), BuildingBlock: EZIPEK_clean_linker_0, # of connection points: 2
#     Edge 19, Type (0, 1), BuildingBlock: EZIPEK_clean_linker_0, # of connection points: 2
#     Edge 20, Type (0, 1), BuildingBlock: EZIPEK_clean_linker_0, # of connection points: 2
#     Edge 21, Type (0, 1), BuildingBlock: EZIPEK_clean_linker_0, # of connection points: 2
#     Edge 22, Type (0, 1), BuildingBlock: EZIPEK_clean_linker_0, # of connection points: 2
#     Edge 23, Type (0, 1), BuildingBlock: EZIPEK_clean_linker_0, # of connection points: 2
#     Edge 24, Type (0, 1), BuildingBlock: EZIPEK_clean_linker_0, # of connection points: 2
#     Edge 25, Type (0, 1), BuildingBlock: EZIPEK_clean_linker_0, # of connection points: 2
#     Edge 26, Type (0, 1), BuildingBlock: EZIPEK_clean_linker_0, # of connection points: 2
#     Edge 27, Type (0, 1), BuildingBlock: EZIPEK_clean_linker_0, # of connection points: 2
#     Edge 28, Type (0, 1), BuildingBlock: EZIPEK_clean_linker_0, # of connection points: 2
#     Edge 29, Type (0, 1), BuildingBlock: EZIPEK_clean_linker_0, # of connection points: 2
#     Edge 30, Type (0, 1), BuildingBlock: EZIPEK_clean_linker_0, # of connection points: 2
#     Edge 31, Type (0, 1), BuildingBlock: EZIPEK_clean_linker_0, # of connection points: 2
#     Edge 32, Type (0, 1), BuildingBlock: EZIPEK_clean_linker_0, # of connection points: 2
#     Edge 33, Type (0, 1), BuildingBlock: EZIPEK_clean_linker_0, # of connection points: 2
#     Edge 34, Type (0, 1), BuildingBlock: EZIPEK_clean_linker_0, # of connection points: 2
#     Edge 35, Type (0, 1), BuildingBlock: EZIPEK_clean_linker_0, # of connection points: 2
# Relax obj value: 0.333
# Max RMSD: 0.214
# Mean RMSD: 0.205
data_MOF--net-zzz--node1-KUMJIN_clean_sbu_0--node2-BELTOD_clean_linker_0--edge1-EZIPEK_clean_linker_0
_symmetry_space_group_name_H-M    P1
_symmetry_Int_Tables_number       1
_symmetry_cell_setting            triclinic
loop_
_symmetry_equiv_pos_as_xyz
'x, y, z'
_cell_length_a     40.872104
_cell_length_b     40.909847
_cell_length_c     14.368981
_cell_angle_alpha  90.424833
_cell_angle_beta   90.26137
_cell_angle_gamma 89.872715
loop_
_atom_site_label
_atom_site_type_symbol
_atom_site_fract_x
_atom_site_fract_y
_atom_site_fract_z
_atom_type_partial_charge
P0 P 0.72597 0.4945 0.29543 0.0
H1 H 0.74098 0.49185 0.49525 0.0
H2 H 0.79225 0.50207 0.57765 0.0
H3 H 0.82783 0.55596 0.34264 0.0
H4 H 0.7766 0.54468 0.25822 0.0
H5 H 0.68679 0.46053 0.16031 0.0
H6 H 0.64084 0.47489 0.06081 0.0
H7 H 0.64684 0.57489 0.15417 0.0
H8 H 0.69326 0.56009 0.25815 0.0
H9 H 0.76807 0.43971 0.3416 0.0
H10 H 0.74985 0.50097 0.10361 0.0
O11 O 0.7065 0.46807 0.36356 0.0
H12 H 0.8175 0.41835 0.26689 0.0
H13 H 0.79882 0.47872 0.02782 0.0
C14 C 0.75419 0.51776 0.36988 0.0
C15 C 0.75898 0.50718 0.46219 0.0
C16 C 0.78865 0.5128 0.50965 0.0
C17 C 0.81441 0.52963 0.4669 0.0
C18 C 0.80851 0.54295 0.37789 0.0
C19 C 0.77889 0.53694 0.32986 0.0
C20 C 0.69432 0.5093 0.2155 0.0
C21 C 0.67892 0.48583 0.15854 0.0
C22 C 0.65263 0.49404 0.10065 0.0
C23 C 0.64074 0.52614 0.09655 0.0
C24 C 0.65586 0.54998 0.1542 0.0
C25 C 0.68242 0.5416 0.2135 0.0
C26 C 0.75489 0.47141 0.22746 0.0
C27 C 0.77381 0.44742 0.27161 0.0
C28 C 0.80203 0.43531 0.22925 0.0
C29 C 0.81153 0.4469 0.14195 0.0
C30 C 0.79149 0.46924 0.09475 0.0
C31 C 0.76351 0.48179 0.13792 0.0
P32 P 0.00914 0.77016 0.16661 0.0
H33 H 0.02228 0.76854 0.37138 0.0
H34 H 0.02402 0.81306 0.48864 0.0
H35 H 0.98044 0.87879 0.29107 0.0
H36 H 0.97968 0.83573 0.17518 0.0
H37 H 0.05847 0.72042 0.12314 0.0
H38 H 0.05262 0.66817 0.04301 0.0
H39 H 0.94941 0.66835 0.10203 0.0
H40 H 0.95498 0.72197 0.17966 0.0
H41 H 0.02422 0.77243 0.96968 0.0
H42 H 0.93941 0.78679 0.14126 0.0
O43 O 0.04761 0.7805 0.14195 0.0
H44 H 0.99586 0.79524 0.8386 0.0
H45 H 0.9104 0.81148 0.01141 0.0
C46 C 0.99923 0.79761 0.26441 0.0
C47 C 0.01164 0.79204 0.35454 0.0
C48 C 0.01289 0.81763 0.42143 0.0
C49 C 1.00193 0.84941 0.39941 0.0
C50 C 0.98838 0.85455 0.311 0.0
C51 C 0.9875 0.82932 0.24452 0.0
C52 C 0.00721 0.72562 0.15884 0.0
C53 C 0.03462 0.70899 0.12263 0.0
C54 C 0.03128 0.67905 0.07537 0.0
C55 C 1.00046 0.66443 0.06399 0.0
C56 C 0.97345 0.67923 0.10853 0.0
C57 C 0.97674 0.70965 0.15468 0.0
C58 C 0.98491 0.78103 0.0668 0.0
C59 C 0.99931 0.78088 0.97899 0.0
C60 C 0.98257 0.7939 0.9033 0.0
C61 C 0.95138 0.80856 0.91496 0.0
C62 C 0.93505 0.80283 0.99981 0.0
C63 C 0.9517 0.78891 0.07498 0.0
P64 P 0.77148 0.01584 0.23376 0.0
H65 H 0.77125 0.02336 0.44081 0.0
H66 H 0.72533 0.02538 0.55211 0.0
H67 H 0.65954 0.99227 0.33676 0.0
H68 H 0.70396 0.99145 0.22671 0.0
H69 H 0.8264 0.06158 0.22269 0.0
H70 H 0.8769 0.05525 0.13517 0.0
H71 H 0.86549 0.95065 0.13799 0.0
H72 H 0.81424 0.95694 0.2253 0.0
H73 H 0.76731 0.03733 0.04144 0.0
H74 H 0.75338 0.94784 0.19146 0.0
O75 O 0.76482 0.05566 0.2172 0.0
H76 H 0.74232 0.01358 0.90533 0.0
H77 H 0.72759 0.92315 0.05546 0.0
C78 C 0.74212 1.00558 0.32521 0.0
C79 C 0.74731 0.01505 0.41853 0.0
C80 C 0.72096 0.01643 0.48207 0.0
C81 C 0.68884 0.00855 0.45331 0.0
C82 C 0.68399 0.99787 0.3615 0.0
C83 C 0.70998 0.99687 0.29843 0.0
C84 C 0.8157 0.0098 0.22997 0.0
C85 C 0.83518 0.03707 0.20869 0.0
C86 C 0.86409 0.03352 0.15732 0.0
C87 C 0.87457 1.00255 0.12683 0.0
C88 C 0.85764 0.9749 0.159 0.0
C89 C 0.82851 0.97851 0.21033 0.0
C90 C 0.7594 0.99524 0.1283 0.0
C91 C 0.75873 0.01234 0.04473 0.0
C92 C 0.74456 0.99823 0.96599 0.0
C93 C 0.7299 0.96691 0.97039 0.0
C94 C 0.73637 0.94794 0.05006 0.0
C95 C 0.75102 0.96207 0.12853 0.0
P96 P 0.49615 0.8078 0.38626 0.0
H97 H 0.48586 0.78637 0.57746 0.0
H98 H 0.49413 0.73242 0.64353 0.0
H99 H 0.56161 0.70862 0.42367 0.0
H100 H 0.55202 0.76258 0.35423 0.0
H101 H 0.46144 0.85563 0.28116 0.0
H102 H 0.47688 0.89757 0.17059 0.0
H103 H 0.5788 0.87776 0.22513 0.0
H104 H 0.56302 0.83412 0.33538 0.0
H105 H 0.44363 0.76055 0.39842 0.0
H106 H 0.51416 0.79127 0.19403 0.0
O107 O 0.46519 0.82299 0.44859 0.0
H108 H 0.42922 0.71369 0.29939 0.0
H109 H 0.49892 0.74496 0.09423 0.0
C110 C 0.51832 0.77911 0.46019 0.0
C111 C 0.50365 0.77038 0.54497 0.0
C112 C 0.50812 0.73915 0.58278 0.0
C113 C 0.52805 0.71588 0.53818 0.0
C114 C 0.5459 0.7259 0.45949 0.0
C115 C 0.54088 0.75708 0.42052 0.0
C116 C 0.51101 0.8419 0.31785 0.0
C117 C 0.48723 0.86038 0.27067 0.0
C118 C 0.496 0.88426 0.20669 0.0
C119 C 0.52896 0.89074 0.1882 0.0
C120 C 0.55314 0.87298 0.23739 0.0
C121 C 0.54421 0.84833 0.30096 0.0
C122 C 0.4793 0.77982 0.30259 0.0
C123 C 0.45506 0.75796 0.33089 0.0
C124 C 0.44705 0.73118 0.27501 0.0
C125 C 0.46317 0.72613 0.19028 0.0
C126 C 0.48626 0.74879 0.15949 0.0
C127 C 0.49463 0.77532 0.21611 0.0
P128 P 0.30338 0.44989 0.05191 0.0
H129 H 0.28389 0.45035 0.85405 0.0
H130 H 0.23245 0.46609 0.77904 0.0
H131 H 0.20318 0.51733 0.0279 0.0
H132 H 0.25493 0.50144 0.10383 0.0
H133 H 0.37306 0.43282 0.06222 0.0
H134 H 0.41544 0.44414 0.17836 0.0
H135 H 0.3525 0.51492 0.31039 0.0
H136 H 0.30957 0.5035 0.19341 0.0
H137 H 0.23886 0.42017 0.03272 0.0
H138 H 0.30997 0.43129 0.25329 0.0
O139 O 0.31839 0.42144 0.97991 0.0
H140 H 0.19512 0.42859 0.14328 0.0
H141 H 0.26572 0.43601 0.36656 0.0
C142 C 0.2741 0.47491 0.9851 0.0
C143 C 0.26724 0.46608 0.89202 0.0
C144 C 0.2374 0.47467 0.84919 0.0
C145 C 0.21337 0.49246 0.89782 0.0
C146 C 0.22107 0.50347 0.98854 0.0
C147 C 0.25109 0.49492 0.03146 0.0
C148 C 0.33783 0.4675 0.11742 0.0
C149 C 0.36842 0.45159 0.11398 0.0
C150 C 0.39273 0.45782 0.18118 0.0
C151 C 0.38721 0.48007 0.25431 0.0
C152 C 0.35738 0.49745 0.25528 0.0
C153 C 0.33296 0.49125 0.1875 0.0
C154 C 0.27739 0.42911 0.13353 0.0
C155 C 0.24516 0.42264 0.10573 0.0
C156 C 0.22002 0.42727 0.16931 0.0
C157 C 0.22747 0.43569 0.26194 0.0
C158 C 0.2597 0.43151 0.2941 0.0
C159 C 0.28499 0.42902 0.22906 0.0
P160 P 0.06718 0.2872 0.11236 0.0
H161 H 0.04456 0.27835 0.91791 0.0
H162 H 0.02922 0.22924 0.82828 0.0
H163 H 0.02708 0.17349 0.0813 0.0
H164 H 0.04042 0.22256 0.1711 0.0
H165 H 0.08229 0.35717 0.11074 0.0
H166 H 0.06695 0.40291 0.21086 0.0
H167 H 0.99858 0.34156 0.35447 0.0
H168 H 0.01139 0.29617 0.24647 0.0
H169 H 0.13086 0.25368 0.10063 0.0
H170 H 0.05803 0.27231 0.31062 0.0
O171 O 0.09282 0.30207 0.03316 0.0
H172 H 0.15264 0.20897 0.19406 0.0
H173 H 0.07593 0.22587 0.39531 0.0
C174 C 0.04406 0.25474 0.05211 0.0
C175 C 0.03969 0.25594 0.95491 0.0
C176 C 0.03139 0.22764 0.90326 0.0
C177 C 0.02778 0.19716 0.9472 0.0
C178 C 0.03017 0.19638 0.04494 0.0
C179 C 0.0377 0.22479 0.09662 0.0
C180 C 0.04839 0.32261 0.17081 0.0
C181 C 0.06325 0.35343 0.16161 0.0
C182 C 0.05492 0.37969 0.22034 0.0
C183 C 0.0325 0.37574 0.2932 0.0
C184 C 0.01633 0.34538 0.29991 0.0
C185 C 0.02367 0.31937 0.23803 0.0
C186 C 0.09193 0.26584 0.19657 0.0
C187 C 0.11977 0.24855 0.16721 0.0
C188 C 0.13151 0.22213 0.21923 0.0
C189 C 0.11408 0.2114 0.29749 0.0
C190 C 0.08967 0.23226 0.33385 0.0
C191 C 0.07901 0.25932 0.28438 0.0
P192 P 0.23895 0.08165 0.03796 0.0
H193 H 0.27848 0.10182 0.88137 0.0
H194 H 0.33201 0.08364 0.83044 0.0
H195 H 0.31836 0.99231 0.97282 0.0
H196 H 0.2661 0.01275 0.0349 0.0
H197 H 0.17016 0.10089 0.05164 0.0
H198 H 0.12736 0.08669 0.16181 0.0
H199 H 0.18704 0.00905 0.26936 0.0
H200 H 0.23011 0.0225 0.15702 0.0
H201 H 0.30071 0.11904 0.03369 0.0
H202 H 0.23621 0.08365 0.24679 0.0
O203 O 0.22526 0.1133 0.97629 0.0
H204 H 0.34791 0.1046 0.12922 0.0
H205 H 0.28322 0.07174 0.34527 0.0
C206 C 0.26792 0.05914 0.96398 0.0
C207 C 0.28637 0.07751 0.90067 0.0
C208 C 0.31747 0.06719 0.87196 0.0
C209 C 0.33025 0.0367 0.89885 0.0
C210 C 0.30988 0.01633 0.95253 0.0
C211 C 0.27948 0.02776 0.98671 0.0
C212 C 0.20361 0.06256 0.09374 0.0
C213 C 0.17383 0.07986 0.09566 0.0
C214 C 0.14934 0.07216 0.15988 0.0
C215 C 0.15398 0.04731 0.22522 0.0
C216 C 0.18274 0.02837 0.21965 0.0
C217 C 0.20722 0.03576 0.15411 0.0
C218 C 0.26539 0.09794 0.12796 0.0
C219 C 0.29649 0.10911 0.10199 0.0
C220 C 0.32353 0.10148 0.15711 0.0
C221 C 0.31879 0.08551 0.24171 0.0
C222 C 0.28715 0.08301 0.27824 0.0
C223 C 0.26029 0.08933 0.22108 0.0
P224 P 0.44602 0.23025 0.06521 0.0
H225 H 0.42851 0.25076 0.87546 0.0
H226 H 0.44536 0.2988 0.78782 0.0
H227 H 0.52685 0.31249 0.97491 0.0
H228 H 0.50989 0.26442 0.0632 0.0
H229 H 0.41754 0.16727 0.11327 0.0
H230 H 0.43336 0.12603 0.22684 0.0
H231 H 0.52708 0.17254 0.26186 0.0
H232 H 0.51136 0.21401 0.14638 0.0
H233 H 0.4245 0.29816 0.06059 0.0
H234 H 0.45313 0.22961 0.27306 0.0
O235 O 0.40912 0.22079 0.02288 0.0
H236 H 0.44525 0.34294 0.15655 0.0
H237 H 0.47321 0.27466 0.36958 0.0
C238 C 0.46805 0.2532 0.97617 0.0
C239 C 0.45102 0.26285 0.89536 0.0
C240 C 0.46048 0.29069 0.84535 0.0
C241 C 0.48729 0.30966 0.87466 0.0
C242 C 0.50617 0.29831 0.95021 0.0
C243 C 0.49669 0.27041 1.00022 0.0
C244 C 0.46333 0.19379 0.11925 0.0
C245 C 0.44203 0.16812 0.14205 0.0
C246 C 0.45088 0.14469 0.20826 0.0
C247 C 0.48117 0.14643 0.25432 0.0
C248 C 0.50351 0.17072 0.22748 0.0
C249 C 0.49468 0.19419 0.16039 0.0
C250 C 0.44021 0.26042 0.15581 0.0
C251 C 0.43406 0.29274 0.12919 0.0
C252 C 0.44596 0.31835 0.1838 0.0
C253 C 0.46292 0.31161 0.26648 0.0
C254 C 0.46151 0.28002 0.30361 0.0
C255 C 0.45035 0.25425 0.24766 0.0
Eu256 Eu 0.05247 0.01262 0.76025 0.0
C257 C 0.90934 0.99397 0.60499 0.0
C258 C 0.91008 0.95087 0.48895 0.0
C259 C 0.86101 0.96034 0.57996 0.0
C260 C 0.92614 0.97595 0.53937 0.0
C261 C 0.8763 0.98691 0.62456 0.0
C262 C 0.87785 0.94242 0.51188 0.0
C263 C 0.87472 0.03522 0.72196 0.0
N264 N 0.92463 0.01995 0.64482 0.0
C265 C 0.9073 0.04151 0.69905 0.0
C266 C 0.85924 0.00756 0.68545 0.0
Eu267 Eu 0.98041 0.02914 0.6045 0.0
N268 N 0.95715 0.98497 0.51852 0.0
C269 C 0.97188 0.9725 0.44103 0.0
C270 C 0.92622 0.93637 0.41354 0.0
C271 C 0.95698 0.94784 0.3881 0.0
H272 H 0.91896 0.0631 0.7269 0.0
H273 H 0.96919 0.93786 0.32755 0.0
H274 H 0.86531 0.92292 0.4749 0.0
H275 H 0.86152 0.0518 0.76731 0.0
H276 H 0.99493 0.9819 0.41904 0.0
H277 H 0.06781 0.11294 0.00873 0.0
H278 H 0.91466 0.91728 0.37246 0.0
H279 H 0.11311 0.97068 0.65505 0.0
H280 H 0.04009 0.06705 0.93111 0.0
H281 H 0.17039 0.97848 0.60785 0.0
H282 H 0.83577 0.95432 0.59482 0.0
H283 H 0.12344 0.129 0.95935 0.0
H284 H 0.17231 0.11761 0.85907 0.0
H285 H 0.83388 1.00293 0.70245 0.0
H286 H 0.20038 0.08084 0.74885 0.0
N287 N 0.07806 0.05804 0.83491 0.0
C288 C 0.06402 0.07381 0.90848 0.0
C289 C 0.11118 0.10876 0.92503 0.0
C290 C 0.12658 0.09095 0.85433 0.0
C291 C 0.08 0.09961 0.95369 0.0
C292 C 0.10941 0.06491 0.81165 0.0
H293 H 0.19993 0.02867 0.65524 0.0
N294 N 0.1089 0.01728 0.72039 0.0
C295 C 0.15792 0.99732 0.64742 0.0
C296 C 0.12532 0.04395 0.75176 0.0
C297 C 0.12526 0.99313 0.67332 0.0
C298 C 0.17449 0.02566 0.67425 0.0
C299 C 0.15852 0.04899 0.72942 0.0
O300 O 0.07396 0.96941 0.8239 0.0
O301 O 0.01732 0.9926 0.65325 0.0
O302 O 0.96096 0.00697 0.73924 0.0
O303 O 1.00407 0.01531 0.84275 0.0
O304 O 0.05444 0.96195 0.69182 0.0
O305 O 0.04932 1.00525 0.91026 0.0
O306 O 0.95505 0.07247 0.55337 0.0
O307 O 0.0159 0.04965 0.7099 0.0
O308 O 0.07323 0.03159 0.62348 0.0
O309 O 0.02893 0.02725 0.52052 0.0
O310 O 0.97621 0.07831 0.679 0.0
O311 O 0.98279 0.04214 0.45784 0.0
C312 C 0.02937 0.96427 0.63782 0.0
C313 C 0.04386 0.9503 0.95027 0.0
C314 C 1.00184 0.90863 0.93912 0.0
C315 C 0.01774 0.93574 0.90196 0.0
C316 C 0.01065 0.89762 0.02828 0.0
C317 C 0.05251 0.93924 0.03908 0.0
C318 C 0.03563 0.91313 0.07839 0.0
C319 C 0.97272 0.00849 0.82557 0.0
C320 C 0.06258 0.97632 0.90641 0.0
C321 C 0.17498 0.07637 0.76581 0.0
C322 C 0.15902 0.09729 0.8285 0.0
C323 C 1.00224 0.07703 0.72913 0.0
C324 C 0.97909 0.09849 0.42596 0.0
C325 C 0.01276 0.10529 0.42756 0.0
C326 C 0.02461 0.13326 0.38353 0.0
C327 C 1.00269 0.15472 0.33959 0.0
C328 C 0.9574 0.12014 0.38217 0.0
C329 C 0.9692 0.14824 0.33943 0.0
C330 C 0.0608 0.03196 0.53783 0.0
C331 C 0.96599 0.069 0.46894 0.0
H332 H 0.01074 0.94457 0.83389 0.0
H333 H 0.99843 0.87679 0.05846 0.0
H334 H 0.07245 0.95053 0.07736 0.0
H335 H 0.04231 0.9045 0.14696 0.0
H336 H 0.02975 0.0888 0.46112 0.0
H337 H 0.01162 0.17629 0.30451 0.0
H338 H 0.93136 0.11521 0.38071 0.0
H339 H 0.95242 0.16482 0.30526 0.0
Eu340 Eu 0.52264 0.06017 0.79397 0.0
C341 C 0.55903 0.91715 0.65439 0.0
C342 C 0.5954 0.92268 0.52303 0.0
C343 C 0.59683 0.87316 0.61503 0.0
C344 C 0.57098 0.93559 0.58219 0.0
C345 C 0.57124 0.88535 0.67023 0.0
C346 C 0.60884 0.89177 0.54138 0.0
C347 C 0.52913 0.87829 0.78552 0.0
N348 N 0.53377 0.92931 0.70471 0.0
C349 C 0.51786 0.90986 0.76709 0.0
C350 C 0.55631 0.86615 0.73802 0.0
Eu351 Eu 0.51373 0.98205 0.665 0.0
N352 N 0.55723 0.96523 0.56591 0.0
C353 C 0.5654 0.98214 0.48789 0.0
C354 C 0.60472 0.94067 0.44517 0.0
C355 C 0.58934 0.97039 0.42698 0.0
H356 H 0.49674 0.91905 0.80399 0.0
H357 H 0.59608 0.98444 0.36651 0.0
H358 H 0.62784 0.88165 0.49733 0.0
H359 H 0.51681 0.86333 0.8363 0.0
H360 H 0.55457 1.00545 0.47414 0.0
H361 H 0.42773 0.06579 0.05893 0.0
H362 H 0.62331 0.9316 0.39798 0.0
H363 H 0.55037 0.12151 0.66124 0.0
H364 H 0.47461 0.04242 0.97334 0.0
H365 H 0.53461 0.17755 0.61729 0.0
H366 H 0.60668 0.84891 0.62664 0.0
H367 H 0.40242 0.11737 1.00634 0.0
H368 H 0.40515 0.16631 0.90244 0.0
H369 H 0.56489 0.84159 0.75206 0.0
H370 H 0.43511 0.19739 0.7843 0.0
N371 N 0.47547 0.07984 0.87221 0.0
C372 C 0.46355 0.06474 0.94922 0.0
C373 C 0.42297 0.10719 0.96846 0.0
C374 C 0.43693 0.12393 0.89407 0.0
C375 C 0.43706 0.07798 0.99806 0.0
C376 C 0.46391 0.10969 0.84778 0.0
H377 H 0.48393 0.2022 0.68008 0.0
N378 N 0.50825 0.11376 0.74492 0.0
C379 C 0.51924 0.16367 0.66359 0.0
C380 C 0.48097 0.12732 0.78253 0.0
C381 C 0.52807 0.13187 0.68865 0.0
C382 C 0.49058 0.17746 0.69899 0.0
C383 C 0.47126 0.15947 0.76019 0.0
O384 O 0.56517 0.08864 0.83766 0.0
O385 O 0.54809 0.021 0.71131 0.0
O386 O 0.53923 0.9707 0.80278 0.0
O387 O 0.52356 0.01534 0.89193 0.0
O388 O 0.56934 0.06631 0.70936 0.0
O389 O 0.53329 0.06817 0.94102 0.0
O390 O 0.47543 0.94641 0.63696 0.0
O391 O 0.48727 0.02172 0.74442 0.0
O392 O 0.50001 0.07325 0.65465 0.0
O393 O 0.51 0.02666 0.56555 0.0
O394 O 0.47116 0.97491 0.76448 0.0
O395 O 0.49097 0.97864 0.52779 0.0
C396 C 0.57188 0.03699 0.67737 0.0
C397 C 0.58919 0.06862 0.9736 0.0
C398 C 0.63296 0.02857 0.97678 0.0
C399 C 0.60486 0.0413 0.93494 0.0
C400 C 0.64448 0.04228 0.06062 0.0
C401 C 0.60068 0.08226 0.05723 0.0
C402 C 0.62822 0.06891 0.10094 0.0
C403 C 0.53563 0.98515 0.88516 0.0
C404 C 0.56097 0.08264 0.92571 0.0
C405 C 0.44319 0.17293 0.80155 0.0
C406 C 0.42606 0.15519 0.8685 0.0
C407 C 0.46588 1.00491 0.78706 0.0
C408 C 0.43459 0.96584 0.53521 0.0
C409 C 0.42643 0.98695 0.46192 0.0
C410 C 0.39401 0.99718 0.44961 0.0
C411 C 0.36944 0.98498 0.50772 0.0
C412 C 0.40963 0.95378 0.59275 0.0
C413 C 0.37725 0.9633 0.57874 0.0
C414 C 0.50062 0.05788 0.57301 0.0
C415 C 0.46906 0.95764 0.55439 0.0
H416 H 0.59572 0.03048 0.87108 0.0
H417 H 0.66607 0.03242 0.09446 0.0
H418 H 0.58848 0.10316 0.08831 0.0
H419 H 0.63715 0.07939 0.1656 0.0
H420 H 0.4452 0.99613 0.41596 0.0
H421 H 0.34419 0.99244 0.49831 0.0
H422 H 0.41511 0.93731 0.64941 0.0
H423 H 0.35821 0.95415 0.62366 0.0
Eu424 Eu 0.54871 0.50047 0.63227 0.0
C425 C 0.40405 0.49062 0.65983 0.0
C426 C 0.38456 0.52663 0.53766 0.0
C427 C 0.35111 0.48092 0.58507 0.0
C428 C 0.40865 0.51804 0.60451 0.0
C429 C 0.37492 0.4721 0.6508 0.0
C430 C 0.35593 0.50806 0.5287 0.0
C431 C 0.39291 0.43878 0.77848 0.0
N432 N 0.42744 0.4823 0.72332 0.0
C433 C 0.42093 0.45801 0.78629 0.0
C434 C 0.36998 0.44557 0.70962 0.0
Eu435 Eu 0.47175 0.52017 0.74067 0.0
N436 N 0.4366 0.53594 0.6144 0.0
C437 C 0.4416 0.5623 0.55788 0.0
C438 C 0.38992 0.55356 0.48072 0.0
C439 C 0.41865 0.5713 0.49055 0.0
H440 H 0.437 0.45352 0.84475 0.0
H441 H 0.42321 0.59205 0.44613 0.0
H442 H 0.33727 0.51449 0.47821 0.0
H443 H 0.38862 0.41926 0.82736 0.0
H444 H 0.46314 0.57679 0.56206 0.0
H445 H 0.6017 0.43378 0.92906 0.0
H446 H 0.37216 0.56067 0.42838 0.0
H447 H 0.58091 0.56554 0.51501 0.0
H448 H 0.55724 0.45277 0.8306 0.0
H449 H 0.63224 0.59592 0.50953 0.0
H450 H 0.32877 0.46693 0.57747 0.0
H451 H 0.65706 0.45695 0.91229 0.0
H452 H 0.69319 0.49883 0.84277 0.0
H453 H 0.348 0.43088 0.70458 0.0
H454 H 0.70082 0.54404 0.73392 0.0
N455 N 0.58621 0.48655 0.75392 0.0
C456 C 0.58088 0.46323 0.82007 0.0
C457 C 0.63725 0.46585 0.86895 0.0
C458 C 0.64231 0.4911 0.80597 0.0
C459 C 0.60618 0.45251 0.87789 0.0
C460 C 0.61599 0.50128 0.74875 0.0
H461 H 0.67801 0.58115 0.61359 0.0
N462 N 0.59476 0.53644 0.63231 0.0
C463 C 0.62908 0.57697 0.56087 0.0
C464 C 0.62026 0.52703 0.68734 0.0
C465 C 0.59955 0.56005 0.56622 0.0
C466 C 0.65488 0.56843 0.61925 0.0
C467 C 0.65098 0.54283 0.68196 0.0
O468 O 0.56487 0.50522 0.48842 0.0
O469 O 0.49506 0.51191 0.60218 0.0
O470 O 0.48386 0.46533 0.75705 0.0
O471 O 0.53222 0.45065 0.68254 0.0
O472 O 0.51441 0.47113 0.53857 0.0
O473 O 0.58526 0.46711 0.57552 0.0
O474 O 0.4527 0.51253 0.88092 0.0
O475 O 0.52531 0.50948 0.77082 0.0
O476 O 0.53809 0.55599 0.62147 0.0
O477 O 0.49057 0.57045 0.70189 0.0
O478 O 0.50483 0.54844 0.84149 0.0
O479 O 0.43202 0.55042 0.79263 0.0
C480 C 0.48831 0.48827 0.54745 0.0
C481 C 0.58364 0.4575 0.41374 0.0
C482 C 0.55848 0.41185 0.33242 0.0
C483 C 0.56161 0.43137 0.4121 0.0
C484 C 0.57894 0.41724 0.25591 0.0
C485 C 0.60432 0.46255 0.33764 0.0
C486 C 0.60216 0.44217 0.25937 0.0
C487 C 0.50586 0.44313 0.73103 0.0
C488 C 0.58462 0.48017 0.49289 0.0
C489 C 0.67713 0.53229 0.73776 0.0
C490 C 0.67283 0.50647 0.79944 0.0
C491 C 0.53171 0.53246 0.82863 0.0
C492 C 0.42021 0.55359 0.9531 0.0
C493 C 0.43498 0.58344 0.9754 0.0
C494 C 0.42266 0.60237 0.04888 0.0
C495 C 0.39569 0.59142 0.09994 0.0
C496 C 0.39335 0.54261 1.00465 0.0
C497 C 0.38102 0.56164 0.07749 0.0
C498 C 0.51678 0.57814 0.65263 0.0
C499 C 0.43012 0.53484 0.87137 0.0
H500 H 0.54653 0.42633 0.47176 0.0
H501 H 0.57696 0.4021 0.19396 0.0
H502 H 0.62186 0.48238 0.33842 0.0
H503 H 0.61807 0.44598 0.20069 0.0
H504 H 0.45539 0.59226 0.93472 0.0
H505 H 0.3859 0.60608 0.15646 0.0
H506 H 0.38149 0.51968 0.9872 0.0
H507 H 0.36005 0.55337 0.11638 0.0
Eu508 Eu 0.02538 0.55325 0.60712 0.0
C509 C 0.97027 0.41946 0.67797 0.0
C510 C 0.91269 0.41884 0.71705 0.0
C511 C 0.93625 0.37342 0.63049 0.0
C512 C 0.94349 0.43441 0.71846 0.0
C513 C 0.96713 0.38826 0.63617 0.0
C514 C 0.90906 0.3887 0.67085 0.0
C515 C 0.02578 0.38679 0.6196 0.0
N516 N 0.9998 0.43439 0.68473 0.0
C517 C 0.0275 0.41786 0.66055 0.0
C518 C 0.99535 0.37227 0.605 0.0
Eu519 Eu 1.00175 0.48646 0.75857 0.0
N520 N 0.94793 0.46345 0.76324 0.0
C521 C 0.92296 0.47664 0.8149 0.0
C522 C 0.88669 0.43345 0.76477 0.0
C523 C 0.89201 0.4622 0.81515 0.0
H524 H 0.05086 0.42905 0.67127 0.0
H525 H 0.87235 0.47311 0.855 0.0
H526 H 0.88554 0.37654 0.66841 0.0
H527 H 0.04791 0.37421 0.59877 0.0
H528 H 0.92663 0.49842 0.85607 0.0
H529 H 0.08665 0.62327 0.88316 0.0
H530 H 0.86273 0.42217 0.76575 0.0
H531 H 0.96859 0.57907 0.45158 0.0
H532 H 0.07138 0.57417 0.79467 0.0
H533 H 0.93796 0.62909 0.413 0.0
H534 H 0.93333 0.34967 0.59768 0.0
H535 H 0.05965 0.67602 0.84965 0.0
H536 H 0.01865 0.70752 0.75644 0.0
H537 H 0.99402 0.34828 0.57275 0.0
H538 H 0.97712 0.70867 0.63228 0.0
N539 N 0.03745 0.59852 0.70654 0.0
C540 C 0.06045 0.59707 0.7757 0.0
C541 C 0.05338 0.65454 0.8088 0.0
C542 C 0.02968 0.65601 0.7385 0.0
C543 C 0.06876 0.62489 0.82763 0.0
C544 C 0.02211 0.62721 0.68792 0.0
H545 H 0.94653 0.67955 0.50547 0.0
N546 N 0.99216 0.59976 0.57085 0.0
C547 C 0.95459 0.62901 0.47185 0.0
C548 C 0.99852 0.62777 0.6188 0.0
C549 C 0.97175 0.6006 0.49472 0.0
C550 C 0.95956 0.65742 0.524 0.0
C551 C 0.98217 0.65727 0.59728 0.0
O552 O 0.03232 0.56776 0.46308 0.0
O553 O 0.02468 0.49792 0.62163 0.0
O554 O 0.05861 0.49099 0.76335 0.0
O555 O 0.07353 0.53432 0.66924 0.0
O556 O 0.01098 0.51654 0.49484 0.0
O557 O 0.07328 0.5692 0.55801 0.0
O558 O 1.00001 0.48612 0.91024 0.0
O559 O 0.01511 0.53986 0.75468 0.0
O560 O 0.9692 0.55045 0.60724 0.0
O561 O 0.95701 0.49916 0.66741 0.0
O562 O 0.9764 0.52722 0.83796 0.0
O563 O 0.02593 0.44778 0.83834 0.0
C564 C 0.01459 0.48992 0.54052 0.0
C565 C 0.08394 0.56043 0.39714 0.0
C566 C 0.12548 0.52365 0.33692 0.0
C567 C 0.10636 0.53489 0.41127 0.0
C568 C 0.12184 0.53756 0.24849 0.0
C569 C 0.0806 0.57426 0.30846 0.0
C570 C 0.09944 0.56278 0.23442 0.0
C571 C 0.08133 0.51108 0.7292 0.0
C572 C 0.06341 0.5731 0.47254 0.0
C573 C 0.98949 0.68587 0.64772 0.0
C574 C 0.01325 0.68526 0.71805 0.0
C575 C 0.99325 0.55151 0.80881 0.0
C576 C 0.99517 0.43248 0.96873 0.0
C577 C 0.96244 0.43813 0.99273 0.0
C578 C 0.94404 0.41421 0.0376 0.0
C579 C 0.95861 0.3841 0.05903 0.0
C580 C 0.00949 0.40219 0.98996 0.0
C581 C 0.99117 0.37811 0.03461 0.0
C582 C 0.9485 0.52623 0.62274 0.0
C583 C 0.01353 0.45739 0.91697 0.0
H584 H 0.10951 0.5243 0.4796 0.0
H585 H 0.13666 0.52911 0.19072 0.0
H586 H 0.06339 0.59401 0.29665 0.0
H587 H 0.09688 0.57359 0.16625 0.0
H588 H 0.95112 0.46147 0.97837 0.0
H589 H 0.94481 0.36537 0.09437 0.0
H590 H 0.03464 0.39708 0.97119 0.0
H591 H 1.00214 0.35467 0.04982 0.0
C592 C 0.13508 0.06045 0.38964 0.0
C593 C 0.13012 0.04346 0.30422 0.0
C594 C 0.08069 0.01839 0.37065 0.0
C595 C 0.08442 0.03662 0.45583 0.0
N596 N 0.11544 0.07869 0.53796 0.0
N597 N 0.09372 0.0123 0.20648 0.0
C598 C 0.11165 0.05857 0.46257 0.0
C599 C 0.10145 0.02448 0.29264 0.0
N600 N 0.16176 0.07987 0.40323 0.0
N601 N 0.05925 0.99302 0.36595 0.0
H602 H 0.10888 0.01496 0.14881 0.0
H603 H 0.07104 1.00208 0.19048 0.0
H604 H 0.04637 0.98532 0.4233 0.0
H605 H 0.05771 0.97677 0.30996 0.0
H606 H 0.18017 0.08334 0.35419 0.0
H607 H 0.18017 0.08334 0.35419 0.0
H608 H 0.13508 0.09477 0.54559 0.0
H609 H 0.09844 0.0807 0.59066 0.0
C610 C 0.50026 0.09207 0.31848 0.0
C611 C 0.48798 0.12397 0.33467 0.0
C612 C 0.4763 0.10917 0.49697 0.0
C613 C 0.49246 0.0783 0.486 0.0
N614 N 0.5147 0.03892 0.37628 0.0
N615 N 0.46853 0.16467 0.44268 0.0
C616 C 0.50307 0.06943 0.39395 0.0
C617 C 0.47758 0.13304 0.42512 0.0
N618 N 0.50784 0.08283 0.22937 0.0
N619 N 0.45646 0.11458 0.5718 0.0
H620 H 0.46828 0.18268 0.39168 0.0
H621 H 0.46409 0.1737 0.50939 0.0
H622 H 0.45017 0.09624 0.61813 0.0
H623 H 0.44172 0.13523 0.57919 0.0
H624 H 0.51373 0.05907 0.20943 0.0
H625 H 0.50713 0.09893 0.17341 0.0
H626 H 0.53107 0.03361 0.32291 0.0
H627 H 0.50522 0.0186 0.40916 0.0
C628 C 0.43688 0.50738 0.32805 0.0
C629 C 0.41208 0.48324 0.33202 0.0
C630 C 0.43754 0.46161 0.4758 0.0
C631 C 0.46156 0.4868 0.47405 0.0
N632 N 0.4905 0.52517 0.37892 0.0
N633 N 0.38644 0.43934 0.41466 0.0
C634 C 0.46285 0.50753 0.39503 0.0
C635 C 0.41191 0.46078 0.40715 0.0
N636 N 0.43536 0.53073 0.26084 0.0
N637 N 0.43999 0.43767 0.54126 0.0
H638 H 0.36755 0.43787 0.36577 0.0
H639 H 0.38259 0.42455 0.47212 0.0
H640 H 0.45744 0.43821 0.59416 0.0
H641 H 0.42602 0.41646 0.54097 0.0
H642 H 0.44977 0.55169 0.26182 0.0
H643 H 0.41778 0.53045 0.20822 0.0
H644 H 0.49473 0.53808 0.31797 0.0
H645 H 0.51093 0.52381 0.42204 0.0
C646 C 0.05387 0.41476 0.4188 0.0
C647 C 0.02726 0.40311 0.36348 0.0
C648 C 0.99142 0.44263 0.44428 0.0
C649 C 0.01885 0.45771 0.4886 0.0
N650 N 0.07752 0.45975 0.50721 0.0
N651 N 0.97102 0.40957 0.31578 0.0
C652 C 0.05051 0.4443 0.47225 0.0
C653 C 0.99608 0.41799 0.3744 0.0
N654 N 0.08198 0.39674 0.42398 0.0
N655 N 0.96062 0.4508 0.47182 0.0
H656 H 0.97357 0.39252 0.26205 0.0
H657 H 0.94853 0.42156 0.31504 0.0
H658 H 0.95648 0.46735 0.52543 0.0
H659 H 0.93967 0.43844 0.44994 0.0
H660 H 0.10091 0.402 0.47049 0.0
H661 H 0.085 0.37457 0.38869 0.0
H662 H 0.10138 0.45258 0.49223 0.0
H663 H 0.0762 0.48109 0.5468 0.0
C664 C 0.89342 0.98915 0.9623 0.0
C665 C 0.90092 0.99995 0.05391 0.0
C666 C 0.9547 0.01794 0.99822 0.0
C667 C 0.94886 1.00401 0.90736 0.0
N668 N 0.91503 0.96488 0.823 0.0
N669 N 0.94264 0.01576 0.1635 0.0
C670 C 0.91887 0.98632 0.8951 0.0
C671 C 0.93295 0.01114 0.07327 0.0
N672 N 0.86184 0.98226 0.93765 0.0
N673 N 0.97902 0.0401 0.01284 0.0
H674 H 0.9273 0.01102 0.2197 0.0
H675 H 0.96679 0.02083 0.18222 0.0
H676 H 0.99208 0.05031 0.95927 0.0
H677 H 0.98243 0.05248 0.07578 0.0
H678 H 0.85485 0.97713 0.86923 0.0
H679 H 0.84219 0.98468 0.98319 0.0
H680 H 0.89483 0.9495 0.81632 0.0
H681 H 0.93385 0.95888 0.77831 0.0
C682 C 0.55212 0.90864 0.03229 0.0
C683 C 0.53704 0.91669 0.11809 0.0
C684 C 0.52805 0.97292 0.06204 0.0
C685 C 0.54153 0.96448 0.97299 0.0
N686 N 0.58112 0.92898 0.89897 0.0
N687 N 0.51963 0.95875 0.22436 0.0
C688 C 0.55794 0.93366 0.96564 0.0
C689 C 0.52757 0.9495 0.13555 0.0
N690 N 0.5601 0.87689 0.01263 0.0
N691 N 0.51612 1.00343 0.07857 0.0
H692 H 0.52034 0.94266 0.28036 0.0
H693 H 0.51519 0.98282 0.24455 0.0
H694 H 0.49848 0.00842 0.12888 0.0
H695 H 0.52621 0.0239 0.04807 0.0
H696 H 0.56871 0.86915 0.94802 0.0
H697 H 0.5558 0.85773 0.05835 0.0
H698 H 0.59579 0.90818 0.89467 0.0
H699 H 0.58921 0.94798 0.85775 0.0
C700 C 0.61424 0.55156 0.95209 0.0
C701 C 0.61132 0.53317 0.03513 0.0
C702 C 0.55535 0.51713 0.98752 0.0
C703 C 0.55909 0.53348 0.90086 0.0
N704 N 0.58726 0.57599 0.81863 0.0
N705 N 0.57557 0.50787 0.14497 0.0
C706 C 0.58698 0.55388 0.88911 0.0
C707 C 0.58077 0.51863 0.05644 0.0
N708 N 0.64349 0.56577 0.93126 0.0
N709 N 0.52716 0.50052 1.00484 0.0
H710 H 0.59304 0.51065 0.19752 0.0
H711 H 0.55324 0.49939 0.16935 0.0
H712 H 0.50674 0.50203 0.96173 0.0
H713 H 0.52424 0.48442 0.05988 0.0
H714 H 0.64827 0.57726 0.86843 0.0
H715 H 0.6639 0.56444 0.9748 0.0
H716 H 0.60475 0.59427 0.81213 0.0
H717 H 0.56863 0.57729 0.7695 0.0
C718 C 0.97806 0.63681 0.91694 0.0
C719 C 0.99679 0.63494 1.0006 0.0
C720 C 0.01613 0.58018 0.95219 0.0
C721 C 0.99606 0.58131 0.87089 0.0
N722 N 0.95223 0.60796 0.78815 0.0
N723 N 0.0269 0.60124 0.10769 0.0
C724 C 0.97506 0.60868 0.85769 0.0
C725 C 0.01392 0.60556 0.02087 0.0
N726 N 0.96456 0.66597 0.89091 0.0
N727 N 0.03806 0.55521 0.96309 0.0
H728 H 0.02522 0.61891 0.16019 0.0
H729 H 0.03603 0.57892 0.13067 0.0
H730 H 0.04064 0.53624 0.91493 0.0
H731 H 0.05586 0.55496 0.01517 0.0
H732 H 0.95319 0.66962 0.82684 0.0
H733 H 0.96737 0.68751 0.92921 0.0
H734 H 0.93359 0.62521 0.7817 0.0
H735 H 0.95087 0.589 0.73965 0.0
C736 C 0.10726 0.1718 0.42369 0.0
C737 C 0.1144 0.17648 0.32884 0.0
C738 C 0.07521 0.13348 0.28916 0.0
C739 C 0.0601 0.13944 0.37584 0.0
N740 N 0.06282 0.16214 0.53082 0.0
N741 N 0.11588 0.15086 0.17768 0.0
C742 C 0.07707 0.15685 0.44648 0.0
C743 C 0.10258 0.15285 0.26418 0.0
N744 N 0.12684 0.186 0.48916 0.0
N745 N 0.06275 0.10994 0.23128 0.0
H746 H 0.13902 0.16006 0.16365 0.0
H747 H 0.10474 0.13906 0.12172 0.0
H748 H 0.04295 0.0954 0.25033 0.0
H749 H 0.07317 0.10312 0.16832 0.0
H750 H 0.12366 0.18267 0.5604 0.0
H751 H 0.14779 0.19882 0.4697 0.0
H752 H 0.07248 0.17798 0.58091 0.0
H753 H 0.0404 0.15179 0.54843 0.0
C754 C 0.34243 0.02958 0.25842 0.0
C755 C 0.34452 0.0637 0.27791 0.0
C756 C 0.38908 0.05417 0.38718 0.0
C757 C 0.38463 0.02007 0.37476 0.0
N758 N 0.36675 0.97582 0.27711 0.0
N759 N 0.3751 0.10928 0.339 0.0
C760 C 0.36455 0.008 0.30251 0.0
C761 C 0.36978 0.07631 0.33483 0.0
N762 N 0.31836 0.01776 0.20115 0.0
N763 N 0.41045 0.06532 0.45266 0.0
H764 H 0.36061 0.12606 0.30315 0.0
H765 H 0.39521 0.11989 0.37203 0.0
H766 H 0.42778 0.0502 0.48369 0.0
H767 H 0.40983 0.08913 0.47811 0.0
H768 H 0.31302 0.99303 0.19326 0.0
H769 H 0.30266 0.03289 0.16387 0.0
H770 H 0.35489 0.96582 0.21933 0.0
H771 H 0.38322 0.95984 0.30905 0.0
C772 C 0.47665 0.3678 0.32401 0.0
C773 C 0.48719 0.33578 0.30088 0.0
C774 C 0.54408 0.35274 0.32305 0.0
C775 C 0.53368 0.38563 0.32905 0.0
N776 N 0.48988 0.4253 0.32062 0.0
N777 N 0.53222 0.29993 0.25704 0.0
C778 C 0.49986 0.39349 0.32654 0.0
C779 C 0.52127 0.32857 0.29558 0.0
N780 N 0.44447 0.37359 0.3432 0.0
N781 N 0.57576 0.34456 0.34308 0.0
H782 H 0.51694 0.28207 0.22904 0.0
H783 H 0.55685 0.29547 0.24327 0.0
H784 H 0.59315 0.36176 0.36418 0.0
H785 H 0.58371 0.3204 0.34797 0.0
H786 H 0.43595 0.39603 0.36756 0.0
H787 H 0.42699 0.35503 0.34334 0.0
H788 H 0.46581 0.43182 0.30558 0.0
H789 H 0.50603 0.445 0.32127 0.0
C790 C 0.17079 0.44306 0.32142 0.0
C791 C 0.20306 0.45537 0.31463 0.0
C792 C 0.18319 0.50881 0.36806 0.0
C793 C 0.15087 0.49843 0.35067 0.0
N794 N 0.11334 0.45599 0.30474 0.0
N795 N 0.23883 0.50313 0.31826 0.0
C796 C 0.14436 0.46545 0.32736 0.0
C797 C 0.20933 0.48891 0.33681 0.0
N798 N 0.16556 0.41013 0.31866 0.0
N799 N 0.1889 0.53841 0.40948 0.0
H800 H 0.25855 0.49115 0.28815 0.0
H801 H 0.24271 0.52824 0.32364 0.0
H802 H 0.17003 0.5539 0.43092 0.0
H803 H 0.21214 0.54585 0.43099 0.0
H804 H 0.14266 0.39965 0.32869 0.0
H805 H 0.18485 0.39339 0.31501 0.0
H806 H 0.1082 0.43329 0.27521 0.0
H807 H 0.0932 0.4716 0.31041 0.0
C808 C 0.96314 0.84477 0.78334 0.0
C809 C 0.94018 0.83546 0.85057 0.0
C810 C 0.94414 0.88901 0.92161 0.0
C811 C 0.97642 0.89074 0.88547 0.0
N812 N 0.01461 0.87321 0.76544 0.0
N813 N 0.89189 0.86037 0.9123 0.0
C814 C 0.98506 0.87033 0.80828 0.0
C815 C 0.92447 0.86199 0.89458 0.0
N816 N 0.96661 0.82614 0.70523 0.0
N817 N 0.93343 0.91162 0.9847 0.0
H818 H 0.87839 0.83983 0.89197 0.0
H819 H 0.87856 0.87979 0.9404 0.0
H820 H 0.94752 0.93191 1.00339 0.0
H821 H 0.91114 0.90975 0.01908 0.0
H822 H 0.98325 0.83138 0.65276 0.0
H823 H 0.95116 0.80623 0.69296 0.0
H824 H 0.02277 0.85685 0.7147 0.0
H825 H 0.03148 0.89131 0.78256 0.0
C826 C 0.6952 0.98106 0.83608 0.0
C827 C 0.70187 0.95825 0.9064 0.0
C828 C 0.6497 0.96969 0.97739 0.0
C829 C 0.6505 1.00072 0.93383 0.0
N830 N 0.66974 0.03361 0.80525 0.0
N831 N 0.67167 0.91433 0.97341 0.0
C832 C 0.67124 1.00545 0.85542 0.0
C833 C 0.67399 0.94658 0.95244 0.0
N834 N 0.71493 0.98175 0.76018 0.0
N835 N 0.62726 0.96312 0.04458 0.0
H836 H 0.68997 0.89793 0.95305 0.0
H837 H 0.65089 0.90411 1.00322 0.0
H838 H 0.60863 0.97953 0.06197 0.0
H839 H 0.62782 0.9418 0.08384 0.0
H840 H 0.71157 0.99772 0.70491 0.0
H841 H 0.73365 0.96452 0.75225 0.0
H842 H 0.686 0.03911 0.75211 0.0
H843 H 0.65255 0.0519 0.81831 0.0
C844 C 0.47656 0.66787 0.15631 0.0
C845 C 0.45702 0.69575 0.1375 0.0
C846 C 0.42077 0.66307 0.03864 0.0
C847 C 0.43698 0.63457 0.07042 0.0
N848 N 0.48006 0.60872 0.15861 0.0
N849 N 0.41127 0.72118 0.06029 0.0
C850 C 0.46517 0.63663 0.12789 0.0
C851 C 0.42954 0.69381 0.07742 0.0
N852 N 0.50595 0.67138 0.20111 0.0
N853 N 0.3973 0.66059 0.97083 0.0
H854 H 0.41804 0.74437 0.08405 0.0
H855 H 0.38874 0.72083 0.02627 0.0
H856 H 0.39035 0.63827 0.94126 0.0
H857 H 0.38665 0.68063 0.93828 0.0
H858 H 0.52283 0.65249 0.20885 0.0
H859 H 0.51469 0.69388 0.22485 0.0
H860 H 0.49807 0.6084 0.21003 0.0
H861 H 0.47315 0.58543 0.13614 0.0
C862 C 0.87101 0.45986 0.13607 0.0
C863 C 0.84483 0.43941 0.10768 0.0
C864 C 0.88328 0.40417 0.02335 0.0
C865 C 0.90973 0.42183 0.06382 0.0
N866 N 0.92872 0.46342 0.17125 0.0
N867 N 0.82556 0.39066 0.03025 0.0
C868 C 0.90356 0.44889 0.12358 0.0
C869 C 0.85081 0.41107 0.05305 0.0
N870 N 0.86481 0.49004 0.17355 0.0
N871 N 0.88897 0.38207 0.95346 0.0
H872 H 0.80132 0.39577 0.04772 0.0
H873 H 0.82894 0.3678 0.99934 0.0
H874 H 0.91229 0.37711 0.92773 0.0
H875 H 0.87036 0.37102 0.91484 0.0
H876 H 0.88297 0.50746 0.185 0.0
H877 H 0.84126 0.49881 0.18613 0.0
H878 H 0.92522 0.48147 0.22152 0.0
H879 H 0.95288 0.4553 0.16756 0.0
C880 C 0.99207 0.14857 0.90179 0.0
C881 C 0.02187 0.166 0.89155 0.0
C882 C 0.03931 0.12506 0.77348 0.0
C883 C 0.01134 0.10555 0.79202 0.0
N884 N 0.96141 0.09844 0.87842 0.0
N885 N 0.07574 0.16884 0.82446 0.0
C886 C 0.98789 0.11733 0.85762 0.0
C887 C 0.04599 0.15371 0.82887 0.0
N888 N 0.96686 0.1628 0.94965 0.0
N889 N 0.05926 0.1163 0.70179 0.0
H890 H 0.08194 0.18891 0.86594 0.0
H891 H 0.09546 0.16005 0.78617 0.0
H892 H 0.05369 0.0968 0.6577 0.0
H893 H 0.07997 0.12917 0.68219 0.0
H894 H 0.94322 0.15344 0.95117 0.0
H895 H 0.96858 0.18584 0.98081 0.0
H896 H 0.94546 0.10344 0.93297 0.0
H897 H 0.95707 0.07583 0.84712 0.0
C898 C 0.38821 0.01541 0.93686 0.0
C899 C 0.36489 0.02706 0.87079 0.0
C900 C 0.40924 0.02917 0.75451 0.0
C901 C 0.43186 0.01494 0.81797 0.0
N902 N 0.43906 0.98609 0.96289 0.0
N903 N 0.35241 0.03492 0.70839 0.0
C904 C 0.41992 1.00495 0.90643 0.0
C905 C 0.37527 0.03123 0.77733 0.0
N906 N 0.38127 0.01653 0.02969 0.0
N907 N 0.4196 0.04 0.67054 0.0
H908 H 0.32734 0.03321 0.72042 0.0
H909 H 0.35818 0.03592 0.63798 0.0
H910 H 0.44281 0.03543 0.64443 0.0
H911 H 0.40531 0.05565 0.63056 0.0
H912 H 0.39833 0.01077 0.08119 0.0
H913 H 0.36007 0.02725 0.05577 0.0
H914 H 0.43035 0.97549 0.02366 0.0
H915 H 0.46289 0.97926 0.94585 0.0
C916 C 0.48578 0.37127 0.89261 0.0
C917 C 0.49248 0.34353 0.8359 0.0
C918 C 0.50478 0.38077 0.70574 0.0
C919 C 0.50188 0.40846 0.76625 0.0
N920 N 0.49766 0.42787 0.92499 0.0
N921 N 0.51282 0.32196 0.69096 0.0
C922 C 0.49456 0.40303 0.86177 0.0
C923 C 0.50329 0.34833 0.74306 0.0
N924 N 0.46982 0.36757 0.97516 0.0
N925 N 0.50738 0.38525 0.61199 0.0
H926 H 0.51187 0.29808 0.71583 0.0
H927 H 0.52417 0.32397 0.62652 0.0
H928 H 0.50754 0.40826 0.58178 0.0
H929 H 0.50614 0.36623 0.56349 0.0
H930 H 0.46122 0.38722 0.01469 0.0
H931 H 0.46199 0.34493 0.99893 0.0
H932 H 0.49597 0.42453 0.99665 0.0
H933 H 0.50576 0.45091 0.90657 0.0
C934 C 0.15726 0.47206 0.84627 0.0
C935 C 0.17991 0.49816 0.85426 0.0
C936 C 0.14019 0.53368 0.7713 0.0
C937 C 0.11742 0.50695 0.76105 0.0
N938 N 0.11391 0.44837 0.75362 0.0
N939 N 0.19551 0.55215 0.80813 0.0
C940 C 0.12864 0.47551 0.78946 0.0
C941 C 0.17196 0.52851 0.8126 0.0
N942 N 0.16294 0.44367 0.89312 0.0
N943 N 0.13225 0.56433 0.7422 0.0
H944 H 0.21854 0.54966 0.83888 0.0
H945 H 0.1933 0.57315 0.76806 0.0
H946 H 0.11481 0.56928 0.69193 0.0
H947 H 0.14391 0.58528 0.76707 0.0
H948 H 0.14566 0.42504 0.89728 0.0
H949 H 0.18358 0.44007 0.93487 0.0
H950 H 0.12209 0.42464 0.76592 0.0
H951 H 0.09738 0.45025 0.69882 0.0
C952 C 0.98474 0.88983 0.52651 0.0
C953 C 0.00865 0.87843 0.4624 0.0
C954 C 0.04454 0.92438 0.50842 0.0
C955 C 0.02025 0.9368 0.57073 0.0
N956 N 0.97092 0.92625 0.65492 0.0
N957 N 0.05937 0.88753 0.38224 0.0
C958 C 0.99128 0.91806 0.58372 0.0
C959 C 0.03807 0.89635 0.45127 0.0
N960 N 0.95525 0.87423 0.53038 0.0
N961 N 0.07471 0.93865 0.50625 0.0
H962 H 0.05655 0.86652 0.34147 0.0
H963 H 0.07866 0.90216 0.36058 0.0
H964 H 0.07946 0.96138 0.53609 0.0
H965 H 0.0952 0.92779 0.47624 0.0
H966 H 0.9352 0.88297 0.56737 0.0
H967 H 0.95014 0.85312 0.49185 0.0
H968 H 0.95076 0.91257 0.67495 0.0
H969 H 0.9759 0.94597 0.69851 0.0
C970 C 0.64016 0.04363 0.49636 0.0
C971 C 0.65943 0.01537 0.51358 0.0
C972 C 0.62135 1.00018 0.63903 0.0
C973 C 0.60041 0.02692 0.61637 0.0
N974 N 0.58743 0.07027 0.50907 0.0
N975 N 0.66571 0.96392 0.59153 0.0
C976 C 0.60928 0.04762 0.54117 0.0
C977 C 0.6492 0.99279 0.58215 0.0
N978 N 0.65175 0.06729 0.43849 0.0
N979 N 0.61527 0.98249 0.71679 0.0
H980 H 0.68648 0.95819 0.55269 0.0
H981 H 0.65766 0.94477 0.63278 0.0
H982 H 0.59615 0.98834 0.76101 0.0
H983 H 0.63043 0.96396 0.74132 0.0
H984 H 0.64076 0.09013 0.43133 0.0
H985 H 0.67408 0.06535 0.40397 0.0
H986 H 0.59067 0.08327 0.44778 0.0
H987 H 0.56437 0.07369 0.53796 0.0
C988 C 0.5156 0.65608 0.50406 0.0
C989 C 0.52689 0.68042 0.56747 0.0
C990 C 0.52788 0.63847 0.69058 0.0
C991 C 0.52113 0.61342 0.62377 0.0
N992 N 0.51497 0.59903 0.46113 0.0
N993 N 0.54973 0.69288 0.7185 0.0
C994 C 0.51733 0.62245 0.52874 0.0
C995 C 0.53474 0.67103 0.66012 0.0
N996 N 0.50088 0.66498 0.42246 0.0
N997 N 0.52724 0.63157 0.78334 0.0
H998 H 0.55591 0.71647 0.69795 0.0
H999 H 0.55894 0.68656 0.78367 0.0
H1000 H 0.5225 0.60832 0.80875 0.0
H1001 H 0.52859 0.64951 0.83505 0.0
H1002 H 0.48881 0.64832 0.3792 0.0
H1003 H 0.49716 0.68924 0.4034 0.0
H1004 H 0.51569 0.60428 0.39027 0.0
H1005 H 0.51503 0.57429 0.47595 0.0
C1006 C 0.87464 0.51483 0.45974 0.0
C1007 C 0.84851 0.52952 0.50935 0.0
C1008 C 0.88734 0.53981 0.63951 0.0
C1009 C 0.91403 0.52894 0.58369 0.0
N1010 N 0.93216 0.51673 0.42757 0.0
N1011 N 0.83153 0.56088 0.64343 0.0
C1012 C 0.90741 0.51969 0.49001 0.0
C1013 C 0.85527 0.54335 0.59877 0.0
N1014 N 0.86837 0.49441 0.38633 0.0
N1015 N 0.89247 0.54673 0.7314 0.0
H1016 H 0.8083 0.56451 0.61495 0.0
H1017 H 0.83577 0.5742 0.70431 0.0
H1018 H 0.91555 0.54544 0.76216 0.0
H1019 H 0.87359 0.55135 0.77817 0.0
H1020 H 0.88669 0.48033 0.35532 0.0
H1021 H 0.84473 0.48845 0.36461 0.0
H1022 H 0.92798 0.51326 0.3566 0.0
H1023 H 0.95628 0.52147 0.44514 0.0
loop_
_geom_bond_atom_site_label_1
_geom_bond_atom_site_label_2
_geom_bond_distance
_geom_bond_site_symmetry_2
_ccdc_geom_bond_type
P0 O11 1.490 . S
P0 C14 1.812 . S
P0 C20 1.803 . S
P0 C26 1.819 . S
H1 C15 0.941 . S
H2 C16 0.939 . S
H3 C18 0.940 . S
H4 C19 0.940 . S
H5 C21 0.939 . S
H6 C22 0.942 . S
H7 C24 0.940 . S
H8 C25 0.939 . S
H9 C27 0.941 . S
H10 C31 0.939 . S
O11 P0 1.490 . S
H12 C28 0.939 . S
H13 C30 0.940 . S
C14 P0 1.812 . S
C14 C15 1.389 . S
C14 C19 1.391 . S
C15 H1 0.941 . S
C15 C14 1.389 . S
C15 C16 1.397 . S
C16 H2 0.939 . S
C16 C15 1.397 . S
C16 C17 1.378 . S
C17 C16 1.378 . S
C17 C18 1.378 . S
C18 H3 0.940 . S
C18 C17 1.378 . S
C18 C19 1.396 . S
C19 H4 0.940 . S
C19 C14 1.391 . S
C19 C18 1.396 . S
C20 P0 1.803 . S
C20 C21 1.378 . S
C20 C25 1.400 . S
C21 H5 0.939 . S
C21 C20 1.378 . S
C21 C22 1.361 . S
C22 H6 0.942 . S
C22 C21 1.361 . S
C22 C23 1.369 . S
C23 C22 1.369 . S
C23 C24 1.404 . S
C24 H7 0.940 . S
C24 C23 1.404 . S
C24 C25 1.389 . S
C25 H8 0.939 . S
C25 C20 1.400 . S
C25 C24 1.389 . S
C26 P0 1.819 . S
C26 C27 1.391 . S
C26 C31 1.391 . S
C27 H9 0.941 . S
C27 C26 1.391 . S
C27 C28 1.396 . S
C28 H12 0.939 . S
C28 C27 1.396 . S
C28 C29 1.397 . S
C29 C28 1.397 . S
C29 C30 1.385 . S
C30 H13 0.940 . S
C30 C29 1.385 . S
C30 C31 1.388 . S
C31 H10 0.939 . S
C31 C26 1.391 . S
C31 C30 1.388 . S
P32 O43 1.490 1_655 S
P32 C46 1.812 . S
P32 C52 1.803 . S
P32 C58 1.819 . S
H33 C47 0.941 1_455 S
H34 C48 0.939 . S
H35 C50 0.940 . S
H36 C51 0.940 . S
H37 C53 0.939 1_455 S
H38 C54 0.942 . S
H39 C56 0.940 . S
H40 C57 0.939 . S
H41 C59 0.941 1_455 S
H42 C63 0.939 . S
O43 P32 1.490 1_455 S
H44 C60 0.939 . S
H45 C62 0.940 . S
C46 P32 1.812 . S
C46 C47 1.389 . S
C46 C51 1.391 . S
C47 H33 0.941 1_655 S
C47 C46 1.389 . S
C47 C48 1.397 . S
C48 H34 0.939 . S
C48 C47 1.397 . S
C48 C49 1.378 . S
C49 C48 1.378 . S
C49 C50 1.378 . S
C50 H35 0.940 . S
C50 C49 1.378 . S
C50 C51 1.396 . S
C51 H36 0.940 . S
C51 C46 1.391 . S
C51 C50 1.396 . S
C52 P32 1.803 . S
C52 C53 1.378 . S
C52 C57 1.400 . S
C53 H37 0.939 1_655 S
C53 C52 1.378 . S
C53 C54 1.361 . S
C54 H38 0.942 . S
C54 C53 1.361 . S
C54 C55 1.369 . S
C55 C54 1.369 . S
C55 C56 1.404 . S
C56 H39 0.940 . S
C56 C55 1.404 . S
C56 C57 1.389 . S
C57 H40 0.939 . S
C57 C52 1.400 . S
C57 C56 1.389 . S
C58 P32 1.819 . S
C58 C59 1.391 . S
C58 C63 1.391 . S
C59 H41 0.941 1_655 S
C59 C58 1.391 . S
C59 C60 1.396 . S
C60 H44 0.939 . S
C60 C59 1.396 . S
C60 C61 1.397 . S
C61 C60 1.397 . S
C61 C62 1.385 . S
C62 H45 0.940 . S
C62 C61 1.385 . S
C62 C63 1.388 . S
C63 H42 0.939 . S
C63 C58 1.391 . S
C63 C62 1.388 . S
P64 O75 1.490 . S
P64 C78 1.812 1_545 S
P64 C84 1.803 1_545 S
P64 C90 1.819 1_545 S
H65 C79 0.941 . S
H66 C80 0.939 1_545 S
H67 C82 0.940 . S
H68 C83 0.940 . S
H69 C85 0.939 . S
H70 C86 0.942 1_545 S
H71 C88 0.940 . S
H72 C89 0.939 . S
H73 C91 0.941 1_545 S
H74 C95 0.939 . S
O75 P64 1.490 . S
H76 C92 0.939 . S
H77 C94 0.940 . S
C78 P64 1.812 1_565 S
C78 C79 1.389 1_565 S
C78 C83 1.391 . S
C79 H65 0.941 . S
C79 C78 1.389 1_545 S
C79 C80 1.397 1_545 S
C80 H66 0.939 1_565 S
C80 C79 1.397 1_565 S
C80 C81 1.378 . S
C81 C80 1.378 . S
C81 C82 1.378 . S
C82 H67 0.940 . S
C82 C81 1.378 . S
C82 C83 1.396 . S
C83 H68 0.940 . S
C83 C78 1.391 . S
C83 C82 1.396 . S
C84 P64 1.803 1_565 S
C84 C85 1.378 1_565 S
C84 C89 1.400 . S
C85 H69 0.939 . S
C85 C84 1.378 1_545 S
C85 C86 1.361 1_545 S
C86 H70 0.942 1_565 S
C86 C85 1.361 1_565 S
C86 C87 1.369 . S
C87 C86 1.369 . S
C87 C88 1.404 . S
C88 H71 0.940 . S
C88 C87 1.404 . S
C88 C89 1.389 . S
C89 H72 0.939 . S
C89 C84 1.400 . S
C89 C88 1.389 . S
C90 P64 1.819 1_565 S
C90 C91 1.391 . S
C90 C95 1.391 . S
C91 H73 0.941 1_565 S
C91 C90 1.391 . S
C91 C92 1.396 . S
C92 H76 0.939 . S
C92 C91 1.396 . S
C92 C93 1.397 . S
C93 C92 1.397 . S
C93 C94 1.385 . S
C94 H77 0.940 . S
C94 C93 1.385 . S
C94 C95 1.388 . S
C95 H74 0.939 . S
C95 C90 1.391 . S
C95 C94 1.388 . S
P96 O107 1.490 . S
P96 C110 1.812 . S
P96 C116 1.803 . S
P96 C122 1.819 . S
H97 C111 0.941 . S
H98 C112 0.939 . S
H99 C114 0.940 . S
H100 C115 0.940 . S
H101 C117 0.939 . S
H102 C118 0.942 . S
H103 C120 0.940 . S
H104 C121 0.939 . S
H105 C123 0.941 . S
H106 C127 0.939 . S
O107 P96 1.490 . S
H108 C124 0.939 . S
H109 C126 0.940 . S
C110 P96 1.812 . S
C110 C111 1.389 . S
C110 C115 1.391 . S
C111 H97 0.941 . S
C111 C110 1.389 . S
C111 C112 1.397 . S
C112 H98 0.939 . S
C112 C111 1.397 . S
C112 C113 1.378 . S
C113 C112 1.378 . S
C113 C114 1.378 . S
C114 H99 0.940 . S
C114 C113 1.378 . S
C114 C115 1.396 . S
C115 H100 0.940 . S
C115 C110 1.391 . S
C115 C114 1.396 . S
C116 P96 1.803 . S
C116 C117 1.378 . S
C116 C121 1.400 . S
C117 H101 0.939 . S
C117 C116 1.378 . S
C117 C118 1.361 . S
C118 H102 0.942 . S
C118 C117 1.361 . S
C118 C119 1.369 . S
C119 C118 1.369 . S
C119 C120 1.404 . S
C120 H103 0.940 . S
C120 C119 1.404 . S
C120 C121 1.389 . S
C121 H104 0.939 . S
C121 C116 1.400 . S
C121 C120 1.389 . S
C122 P96 1.819 . S
C122 C123 1.391 . S
C122 C127 1.391 . S
C123 H105 0.941 . S
C123 C122 1.391 . S
C123 C124 1.396 . S
C124 H108 0.939 . S
C124 C123 1.396 . S
C124 C125 1.397 . S
C125 C124 1.397 . S
C125 C126 1.385 . S
C126 H109 0.940 . S
C126 C125 1.385 . S
C126 C127 1.388 . S
C127 H106 0.939 . S
C127 C122 1.391 . S
C127 C126 1.388 . S
P128 O139 1.490 . S
P128 C142 1.812 1_554 S
P128 C148 1.803 . S
P128 C154 1.819 . S
H129 C143 0.941 . S
H130 C144 0.939 . S
H131 C146 0.940 . S
H132 C147 0.940 . S
H133 C149 0.939 . S
H134 C150 0.942 . S
H135 C152 0.940 . S
H136 C153 0.939 1_556 S
H137 C155 0.941 . S
H138 C159 0.939 . S
O139 P128 1.490 . S
H140 C156 0.939 . S
H141 C158 0.940 . S
C142 P128 1.812 1_556 S
C142 C143 1.389 . S
C142 C147 1.391 . S
C143 H129 0.941 . S
C143 C142 1.389 . S
C143 C144 1.397 . S
C144 H130 0.939 . S
C144 C143 1.397 . S
C144 C145 1.378 . S
C145 C144 1.378 . S
C145 C146 1.378 . S
C146 H131 0.940 . S
C146 C145 1.378 . S
C146 C147 1.396 . S
C147 H132 0.940 . S
C147 C142 1.391 . S
C147 C146 1.396 . S
C148 P128 1.803 . S
C148 C149 1.378 . S
C148 C153 1.400 . S
C149 H133 0.939 . S
C149 C148 1.378 . S
C149 C150 1.361 . S
C150 H134 0.942 . S
C150 C149 1.361 . S
C150 C151 1.369 . S
C151 C150 1.369 . S
C151 C152 1.404 . S
C152 H135 0.940 . S
C152 C151 1.404 . S
C152 C153 1.389 . S
C153 H136 0.939 1_554 S
C153 C148 1.400 . S
C153 C152 1.389 . S
C154 P128 1.819 . S
C154 C155 1.391 . S
C154 C159 1.391 . S
C155 H137 0.941 . S
C155 C154 1.391 . S
C155 C156 1.396 . S
C156 H140 0.939 . S
C156 C155 1.396 . S
C156 C157 1.397 . S
C157 C156 1.397 . S
C157 C158 1.385 . S
C158 H141 0.940 . S
C158 C157 1.385 . S
C158 C159 1.388 . S
C159 H138 0.939 . S
C159 C154 1.391 . S
C159 C158 1.388 . S
P160 O171 1.490 . S
P160 C174 1.812 1_554 S
P160 C180 1.803 . S
P160 C186 1.819 . S
H161 C175 0.941 . S
H162 C176 0.939 . S
H163 C178 0.940 . S
H164 C179 0.940 . S
H165 C181 0.939 . S
H166 C182 0.942 . S
H167 C184 0.940 . S
H168 C185 0.939 1_556 S
H169 C187 0.941 . S
H170 C191 0.939 . S
O171 P160 1.490 . S
H172 C188 0.939 . S
H173 C190 0.940 . S
C174 P160 1.812 1_556 S
C174 C175 1.389 . S
C174 C179 1.391 . S
C175 H161 0.941 . S
C175 C174 1.389 . S
C175 C176 1.397 . S
C176 H162 0.939 . S
C176 C175 1.397 . S
C176 C177 1.378 . S
C177 C176 1.378 . S
C177 C178 1.378 . S
C178 H163 0.940 . S
C178 C177 1.378 . S
C178 C179 1.396 . S
C179 H164 0.940 . S
C179 C174 1.391 . S
C179 C178 1.396 . S
C180 P160 1.803 . S
C180 C181 1.378 . S
C180 C185 1.400 . S
C181 H165 0.939 . S
C181 C180 1.378 . S
C181 C182 1.361 . S
C182 H166 0.942 . S
C182 C181 1.361 . S
C182 C183 1.369 . S
C183 C182 1.369 . S
C183 C184 1.404 . S
C184 H167 0.940 . S
C184 C183 1.404 . S
C184 C185 1.389 . S
C185 H168 0.939 1_554 S
C185 C180 1.400 . S
C185 C184 1.389 . S
C186 P160 1.819 . S
C186 C187 1.391 . S
C186 C191 1.391 . S
C187 H169 0.941 . S
C187 C186 1.391 . S
C187 C188 1.396 . S
C188 H172 0.939 . S
C188 C187 1.396 . S
C188 C189 1.397 . S
C189 C188 1.397 . S
C189 C190 1.385 . S
C190 H173 0.940 . S
C190 C189 1.385 . S
C190 C191 1.388 . S
C191 H170 0.939 . S
C191 C186 1.391 . S
C191 C190 1.388 . S
P192 O203 1.490 . S
P192 C206 1.812 1_554 S
P192 C212 1.803 . S
P192 C218 1.819 . S
H193 C207 0.941 . S
H194 C208 0.939 . S
H195 C210 0.940 . S
H196 C211 0.940 . S
H197 C213 0.939 . S
H198 C214 0.942 . S
H199 C216 0.940 . S
H200 C217 0.939 1_556 S
H201 C219 0.941 . S
H202 C223 0.939 . S
O203 P192 1.490 . S
H204 C220 0.939 . S
H205 C222 0.940 . S
C206 P192 1.812 1_556 S
C206 C207 1.389 . S
C206 C211 1.391 . S
C207 H193 0.941 . S
C207 C206 1.389 . S
C207 C208 1.397 . S
C208 H194 0.939 . S
C208 C207 1.397 . S
C208 C209 1.378 . S
C209 C208 1.378 . S
C209 C210 1.378 . S
C210 H195 0.940 . S
C210 C209 1.378 . S
C210 C211 1.396 . S
C211 H196 0.940 . S
C211 C206 1.391 . S
C211 C210 1.396 . S
C212 P192 1.803 . S
C212 C213 1.378 . S
C212 C217 1.400 . S
C213 H197 0.939 . S
C213 C212 1.378 . S
C213 C214 1.361 . S
C214 H198 0.942 . S
C214 C213 1.361 . S
C214 C215 1.369 . S
C215 C214 1.369 . S
C215 C216 1.404 . S
C216 H199 0.940 . S
C216 C215 1.404 . S
C216 C217 1.389 . S
C217 H200 0.939 1_554 S
C217 C212 1.400 . S
C217 C216 1.389 . S
C218 P192 1.819 . S
C218 C219 1.391 . S
C218 C223 1.391 . S
C219 H201 0.941 . S
C219 C218 1.391 . S
C219 C220 1.396 . S
C220 H204 0.939 . S
C220 C219 1.396 . S
C220 C221 1.397 . S
C221 C220 1.397 . S
C221 C222 1.385 . S
C222 H205 0.940 . S
C222 C221 1.385 . S
C222 C223 1.388 . S
C223 H202 0.939 . S
C223 C218 1.391 . S
C223 C222 1.388 . S
P224 O235 1.490 . S
P224 C238 1.812 1_554 S
P224 C244 1.803 . S
P224 C250 1.819 . S
H225 C239 0.941 . S
H226 C240 0.939 . S
H227 C242 0.940 . S
H228 C243 0.940 . S
H229 C245 0.939 . S
H230 C246 0.942 . S
H231 C248 0.940 . S
H232 C249 0.939 1_556 S
H233 C251 0.941 . S
H234 C255 0.939 . S
O235 P224 1.490 . S
H236 C252 0.939 . S
H237 C254 0.940 . S
C238 P224 1.812 1_556 S
C238 C239 1.389 . S
C238 C243 1.391 . S
C239 H225 0.941 . S
C239 C238 1.389 . S
C239 C240 1.397 . S
C240 H226 0.939 . S
C240 C239 1.397 . S
C240 C241 1.378 . S
C241 C240 1.378 . S
C241 C242 1.378 . S
C242 H227 0.940 . S
C242 C241 1.378 . S
C242 C243 1.396 . S
C243 H228 0.940 . S
C243 C238 1.391 . S
C243 C242 1.396 . S
C244 P224 1.803 . S
C244 C245 1.378 . S
C244 C249 1.400 . S
C245 H229 0.939 . S
C245 C244 1.378 . S
C245 C246 1.361 . S
C246 H230 0.942 . S
C246 C245 1.361 . S
C246 C247 1.369 . S
C247 C246 1.369 . S
C247 C248 1.404 . S
C248 H231 0.940 . S
C248 C247 1.404 . S
C248 C249 1.389 . S
C249 H232 0.939 1_554 S
C249 C244 1.400 . S
C249 C248 1.389 . S
C250 P224 1.819 . S
C250 C251 1.391 . S
C250 C255 1.391 . S
C251 H233 0.941 . S
C251 C250 1.391 . S
C251 C252 1.396 . S
C252 H236 0.939 . S
C252 C251 1.396 . S
C252 C253 1.397 . S
C253 C252 1.397 . S
C253 C254 1.385 . S
C254 H237 0.940 . S
C254 C253 1.385 . S
C254 C255 1.388 . S
C255 H234 0.939 . S
C255 C250 1.391 . S
C255 C254 1.388 . S
Eu256 N287 2.657 1_565 S
Eu256 N294 2.609 . S
Eu256 O300 2.558 . S
Eu256 O301 2.612 1_455 S
Eu256 O303 2.339 1_455 S
Eu256 O304 2.563 . S
Eu256 O305 2.419 . S
Eu256 O307 2.380 1_565 S
Eu256 O308 2.432 . S
Eu256 C320 2.848 . S
C257 C260 1.437 . S
C257 C261 1.415 . S
C257 N264 1.366 1_565 S
C258 C260 1.420 . S
C258 C262 1.423 . S
C258 C270 1.392 . S
C259 C261 1.420 . S
C259 C262 1.351 . S
C259 H282 0.931 . S
C260 C257 1.437 . S
C260 C258 1.420 . S
C260 N268 1.362 . S
C261 C257 1.415 . S
C261 C259 1.420 . S
C261 C266 1.395 1_565 S
C262 C258 1.423 . S
C262 C259 1.351 . S
C262 H274 0.930 . S
C263 C265 1.400 . S
C263 C266 1.386 . S
C263 H275 0.930 . S
N264 C257 1.366 1_545 S
N264 C265 1.321 . S
N264 Eu267 2.609 . S
C265 C263 1.400 . S
C265 N264 1.321 . S
C265 H272 0.930 . S
C266 C261 1.395 1_545 S
C266 C263 1.386 . S
C266 H285 0.930 . S
Eu267 N264 2.609 . S
Eu267 N268 2.657 1_545 S
Eu267 O301 2.380 1_545 S
Eu267 O302 2.432 . S
Eu267 O306 2.558 . S
Eu267 O307 2.612 1_655 S
Eu267 O309 2.339 1_655 S
Eu267 O310 2.558 1_655 S
Eu267 O311 2.419 . S
Eu267 C331 2.848 . S
N268 C260 1.362 . S
N268 Eu267 2.657 1_565 S
N268 C269 1.334 . S
C269 N268 1.334 . S
C269 C271 1.413 . S
C269 H276 0.929 1_655 S
C270 C258 1.392 . S
C270 C271 1.367 . S
C270 H278 0.930 . S
C271 C269 1.413 . S
C271 C270 1.367 . S
C271 H273 0.930 1_655 S
H272 C265 0.930 . S
H273 C271 0.930 1_455 S
H274 C262 0.930 . S
H275 C263 0.930 . S
H276 C269 0.929 1_455 S
H277 C291 0.930 1_655 S
H278 C270 0.930 . S
H279 C297 0.930 . S
H280 C288 0.929 1_655 S
H281 C295 0.930 . S
H282 C259 0.931 . S
H283 C289 0.930 . S
H284 C322 0.930 . S
H285 C266 0.930 . S
H286 C321 0.931 . S
N287 Eu256 2.657 1_545 S
N287 C288 1.334 . S
N287 C292 1.362 . S
C288 H280 0.929 1_455 S
C288 N287 1.334 . S
C288 C291 1.413 1_556 S
C289 H283 0.930 . S
C289 C290 1.392 . S
C289 C291 1.367 . S
C290 C289 1.392 . S
C290 C292 1.420 1_554 S
C290 C322 1.423 . S
C291 H277 0.930 1_455 S
C291 C288 1.413 1_554 S
C291 C289 1.367 . S
C292 N287 1.362 . S
C292 C290 1.420 1_556 S
C292 C296 1.429 . S
H293 C298 0.930 . S
N294 Eu256 2.609 . S
N294 C296 1.377 1_565 S
N294 C297 1.321 . S
C295 H281 0.930 . S
C295 C297 1.400 . S
C295 C298 1.386 1_565 S
C296 C292 1.429 . S
C296 N294 1.377 1_545 S
C296 C299 1.411 . S
C297 H279 0.930 . S
C297 N294 1.321 . S
C297 C295 1.400 . S
C298 H293 0.930 . S
C298 C295 1.386 1_545 S
C298 C299 1.395 . S
C299 C296 1.411 . S
C299 C298 1.395 . S
C299 C321 1.420 1_556 S
O300 Eu256 2.558 . S
O300 C320 1.257 . S
O301 Eu256 2.612 1_655 S
O301 Eu267 2.380 1_565 S
O301 C312 1.276 . S
O302 Eu267 2.432 . S
O302 C319 1.264 . S
O303 Eu256 2.339 1_655 S
O303 C319 1.254 1_565 S
O304 Eu256 2.563 . S
O304 C312 1.235 1_455 S
O305 Eu256 2.419 . S
O305 C320 1.249 . S
O306 Eu267 2.558 . S
O306 C331 1.257 . S
O307 Eu256 2.380 1_545 S
O307 Eu267 2.612 1_455 S
O307 C323 1.276 . S
O308 Eu256 2.432 . S
O308 C330 1.264 1_565 S
O309 Eu267 2.339 1_455 S
O309 C330 1.254 . S
O310 Eu267 2.558 1_455 S
O310 C323 1.245 . S
O311 Eu267 2.419 . S
O311 C331 1.249 . S
C312 O301 1.276 . S
C312 O304 1.235 1_655 S
C313 C315 1.393 . S
C313 C317 1.395 . S
C313 C320 1.492 . S
C314 C315 1.392 1_554 S
C314 C316 1.386 . S
C315 C313 1.393 . S
C315 C314 1.392 1_556 S
C315 H332 0.930 . S
C316 C314 1.386 . S
C316 C318 1.395 1_554 S
C316 H333 0.930 . S
C317 C313 1.395 . S
C317 C318 1.379 . S
C317 H334 0.930 . S
C318 C316 1.395 1_556 S
C318 C317 1.379 . S
C318 H335 0.930 . S
C319 O302 1.264 . S
C319 O303 1.254 1_545 S
C320 Eu256 2.848 . S
C320 O300 1.257 . S
C320 O305 1.249 . S
C320 C313 1.492 . S
C321 H286 0.931 . S
C321 C299 1.420 1_554 S
C321 C322 1.351 . S
C322 H284 0.930 . S
C322 C290 1.423 . S
C322 C321 1.351 . S
C323 O307 1.276 . S
C323 O310 1.245 . S
C324 C325 1.393 . S
C324 C328 1.395 . S
C324 C331 1.492 . S
C325 C324 1.393 . S
C325 C326 1.392 . S
C325 H336 0.930 1_655 S
C326 C325 1.392 . S
C326 C327 1.386 . S
C327 C326 1.386 . S
C327 C329 1.395 . S
C327 H337 0.930 . S
C328 C324 1.395 . S
C328 C329 1.379 . S
C328 H338 0.930 . S
C329 C327 1.395 . S
C329 C328 1.379 . S
C329 H339 0.930 . S
C330 O308 1.264 1_545 S
C330 O309 1.254 . S
C331 Eu267 2.848 . S
C331 O306 1.257 . S
C331 O311 1.249 . S
C331 C324 1.492 . S
H332 C315 0.930 . S
H333 C316 0.930 . S
H334 C317 0.930 . S
H335 C318 0.930 . S
H336 C325 0.930 1_455 S
H337 C327 0.930 . S
H338 C328 0.930 . S
H339 C329 0.930 . S
Eu340 N371 2.657 . S
Eu340 N378 2.609 . S
Eu340 O384 2.558 . S
Eu340 O385 2.612 1_545 S
Eu340 O387 2.339 1_545 S
Eu340 O388 2.563 . S
Eu340 O389 2.419 . S
Eu340 O391 2.380 . S
Eu340 O392 2.432 . S
Eu340 C404 2.848 . S
C341 C344 1.429 . S
C341 C345 1.411 . S
C341 N348 1.377 . S
C342 C344 1.420 . S
C342 C346 1.423 . S
C342 C354 1.392 . S
C343 C345 1.420 . S
C343 C346 1.351 . S
C343 H366 0.931 . S
C344 C341 1.429 . S
C344 C342 1.420 . S
C344 N352 1.362 . S
C345 C341 1.411 . S
C345 C343 1.420 . S
C345 C350 1.395 . S
C346 C342 1.423 . S
C346 C343 1.351 . S
C346 H358 0.930 . S
C347 C349 1.400 . S
C347 C350 1.386 . S
C347 H359 0.930 . S
N348 C341 1.377 . S
N348 C349 1.321 . S
N348 Eu351 2.609 . S
C349 C347 1.400 . S
C349 N348 1.321 . S
C349 H356 0.930 . S
C350 C345 1.395 . S
C350 C347 1.386 . S
C350 H369 0.930 . S
Eu351 N348 2.609 . S
Eu351 N352 2.657 . S
Eu351 O385 2.380 . S
Eu351 O386 2.432 . S
Eu351 O390 2.558 . S
Eu351 O391 2.612 1_565 S
Eu351 O393 2.339 1_565 S
Eu351 O394 2.553 1_565 S
Eu351 O395 2.419 . S
Eu351 C415 2.848 . S
N352 C344 1.362 . S
N352 Eu351 2.657 . S
N352 C353 1.323 1_565 S
C353 N352 1.323 1_545 S
C353 C355 1.413 1_545 S
C353 H360 0.942 . S
C354 C342 1.392 . S
C354 C355 1.367 . S
C354 H362 0.930 . S
C355 C353 1.413 1_565 S
C355 C354 1.367 . S
C355 H357 0.930 1_565 S
H356 C349 0.930 . S
H357 C355 0.930 1_545 S
H358 C346 0.930 . S
H359 C347 0.930 . S
H360 C353 0.942 . S
H361 C375 0.930 1_565 S
H362 C354 0.930 . S
H363 C381 0.930 . S
H364 C372 0.929 1_565 S
H365 C379 0.930 . S
H366 C343 0.931 . S
H367 C373 0.930 . S
H368 C406 0.930 . S
H369 C350 0.930 . S
H370 C405 0.931 . S
N371 Eu340 2.657 . S
N371 C372 1.334 . S
N371 C376 1.362 . S
C372 H364 0.929 1_545 S
C372 N371 1.334 . S
C372 C375 1.413 1_556 S
C373 H367 0.930 . S
C373 C374 1.392 . S
C373 C375 1.367 . S
C374 C373 1.392 . S
C374 C376 1.420 1_554 S
C374 C406 1.423 . S
C375 H361 0.930 1_545 S
C375 C372 1.413 1_554 S
C375 C373 1.367 . S
C376 N371 1.362 . S
C376 C374 1.420 1_556 S
C376 C380 1.429 . S
H377 C382 0.930 . S
N378 Eu340 2.609 . S
N378 C380 1.377 . S
N378 C381 1.321 . S
C379 H365 0.930 . S
C379 C381 1.400 . S
C379 C382 1.386 . S
C380 C376 1.429 . S
C380 N378 1.377 . S
C380 C383 1.411 . S
C381 H363 0.930 . S
C381 N378 1.321 . S
C381 C379 1.400 . S
C382 H377 0.930 . S
C382 C379 1.386 . S
C382 C383 1.395 . S
C383 C380 1.411 . S
C383 C382 1.395 . S
C383 C405 1.420 1_556 S
O384 Eu340 2.558 . S
O384 C404 1.257 . S
O385 Eu340 2.612 1_565 S
O385 Eu351 2.380 . S
O385 C396 1.276 . S
O386 Eu351 2.432 . S
O386 C403 1.264 . S
O387 Eu340 2.339 1_565 S
O387 C403 1.254 . S
O388 Eu340 2.563 . S
O388 C396 1.235 1_545 S
O389 Eu340 2.419 . S
O389 C404 1.249 . S
O390 Eu351 2.558 . S
O390 C415 1.257 . S
O391 Eu340 2.380 . S
O391 Eu351 2.612 1_545 S
O391 C407 1.276 . S
O392 Eu340 2.432 . S
O392 C414 1.264 . S
O393 Eu351 2.339 1_545 S
O393 C414 1.254 . S
O394 Eu351 2.553 1_545 S
O394 C407 1.256 . S
O395 Eu351 2.419 . S
O395 C415 1.249 . S
C396 O385 1.276 . S
C396 O388 1.235 1_565 S
C397 C399 1.393 . S
C397 C401 1.395 . S
C397 C404 1.492 . S
C398 C399 1.392 1_554 S
C398 C400 1.386 . S
C399 C397 1.393 . S
C399 C398 1.392 1_556 S
C399 H416 0.930 . S
C400 C398 1.386 . S
C400 C402 1.395 1_554 S
C400 H417 0.930 . S
C401 C397 1.395 . S
C401 C402 1.379 . S
C401 H418 0.930 . S
C402 C400 1.395 1_556 S
C402 C401 1.379 . S
C402 H419 0.930 . S
C403 O386 1.264 . S
C403 O387 1.254 . S
C404 Eu340 2.848 . S
C404 O384 1.257 . S
C404 O389 1.249 . S
C404 C397 1.492 . S
C405 H370 0.931 . S
C405 C383 1.420 1_554 S
C405 C406 1.351 . S
C406 H368 0.930 . S
C406 C374 1.423 . S
C406 C405 1.351 . S
C407 O391 1.276 . S
C407 O394 1.256 . S
C408 C409 1.393 . S
C408 C412 1.395 . S
C408 C415 1.492 . S
C409 C408 1.393 . S
C409 C410 1.392 . S
C409 H420 0.930 1_565 S
C410 C409 1.392 . S
C410 C411 1.386 . S
C411 C410 1.386 . S
C411 C413 1.395 . S
C411 H421 0.930 . S
C412 C408 1.395 . S
C412 C413 1.379 . S
C412 H422 0.930 . S
C413 C411 1.395 . S
C413 C412 1.379 . S
C413 H423 0.930 . S
C414 O392 1.264 . S
C414 O393 1.254 . S
C415 Eu351 2.848 . S
C415 O390 1.257 . S
C415 O395 1.249 . S
C415 C408 1.492 . S
H416 C399 0.930 . S
H417 C400 0.930 . S
H418 C401 0.930 . S
H419 C402 0.930 . S
H420 C409 0.930 1_545 S
H421 C411 0.930 . S
H422 C412 0.930 . S
H423 C413 0.930 . S
Eu424 N455 2.657 . S
Eu424 N462 2.609 . S
Eu424 O468 2.558 . S
Eu424 O469 2.612 . S
Eu424 O471 2.339 . S
Eu424 O472 2.563 . S
Eu424 O473 2.419 . S
Eu424 O475 2.380 . S
Eu424 O476 2.432 . S
Eu424 C488 2.848 . S
C425 C428 1.429 . S
C425 C429 1.411 . S
C425 N432 1.377 . S
C426 C428 1.420 . S
C426 C430 1.423 . S
C426 C438 1.392 . S
C427 C429 1.420 . S
C427 C430 1.351 . S
C427 H450 0.931 . S
C428 C425 1.429 . S
C428 C426 1.420 . S
C428 N436 1.362 . S
C429 C425 1.411 . S
C429 C427 1.420 . S
C429 C434 1.395 . S
C430 C426 1.423 . S
C430 C427 1.351 . S
C430 H442 0.930 . S
C431 C433 1.400 . S
C431 C434 1.386 . S
C431 H443 0.930 . S
N432 C425 1.377 . S
N432 C433 1.321 . S
N432 Eu435 2.609 . S
C433 C431 1.400 . S
C433 N432 1.321 . S
C433 H440 0.930 . S
C434 C429 1.395 . S
C434 C431 1.386 . S
C434 H453 0.930 . S
Eu435 N432 2.609 . S
Eu435 N436 2.657 . S
Eu435 O469 2.380 . S
Eu435 O470 2.432 . S
Eu435 O474 2.558 . S
Eu435 O475 2.612 . S
Eu435 O477 2.339 . S
Eu435 O478 2.563 . S
Eu435 O479 2.419 . S
Eu435 C499 2.848 . S
N436 C428 1.362 . S
N436 Eu435 2.657 . S
N436 C437 1.334 . S
C437 N436 1.334 . S
C437 C439 1.413 . S
C437 H444 0.929 . S
C438 C426 1.392 . S
C438 C439 1.367 . S
C438 H446 0.930 . S
C439 C437 1.413 . S
C439 C438 1.367 . S
C439 H441 0.930 . S
H440 C433 0.930 . S
H441 C439 0.930 . S
H442 C430 0.930 . S
H443 C431 0.930 . S
H444 C437 0.929 . S
H445 C459 0.930 . S
H446 C438 0.930 . S
H447 C465 0.930 . S
H448 C456 0.929 . S
H449 C463 0.930 . S
H450 C427 0.931 . S
H451 C457 0.930 . S
H452 C490 0.930 . S
H453 C434 0.930 . S
H454 C489 0.931 . S
N455 Eu424 2.657 . S
N455 C456 1.334 . S
N455 C460 1.362 . S
C456 H448 0.929 . S
C456 N455 1.334 . S
C456 C459 1.413 . S
C457 H451 0.930 . S
C457 C458 1.392 . S
C457 C459 1.367 . S
C458 C457 1.392 . S
C458 C460 1.420 . S
C458 C490 1.423 . S
C459 H445 0.930 . S
C459 C456 1.413 . S
C459 C457 1.367 . S
C460 N455 1.362 . S
C460 C458 1.420 . S
C460 C464 1.429 . S
H461 C466 0.930 . S
N462 Eu424 2.609 . S
N462 C464 1.377 . S
N462 C465 1.321 . S
C463 H449 0.930 . S
C463 C465 1.400 . S
C463 C466 1.386 . S
C464 C460 1.429 . S
C464 N462 1.377 . S
C464 C467 1.411 . S
C465 H447 0.930 . S
C465 N462 1.321 . S
C465 C463 1.400 . S
C466 H461 0.930 . S
C466 C463 1.386 . S
C466 C467 1.395 . S
C467 C464 1.411 . S
C467 C466 1.395 . S
C467 C489 1.420 . S
O468 Eu424 2.558 . S
O468 C488 1.257 . S
O469 Eu424 2.612 . S
O469 Eu435 2.380 . S
O469 C480 1.276 . S
O470 Eu435 2.432 . S
O470 C487 1.264 . S
O471 Eu424 2.339 . S
O471 C487 1.254 . S
O472 Eu424 2.563 . S
O472 C480 1.235 . S
O473 Eu424 2.419 . S
O473 C488 1.249 . S
O474 Eu435 2.558 . S
O474 C499 1.257 . S
O475 Eu424 2.380 . S
O475 Eu435 2.612 . S
O475 C491 1.276 . S
O476 Eu424 2.432 . S
O476 C498 1.264 . S
O477 Eu435 2.339 . S
O477 C498 1.254 . S
O478 Eu435 2.563 . S
O478 C491 1.235 . S
O479 Eu435 2.419 . S
O479 C499 1.249 . S
C480 O469 1.276 . S
C480 O472 1.235 . S
C481 C483 1.393 . S
C481 C485 1.395 . S
C481 C488 1.492 . S
C482 C483 1.392 . S
C482 C484 1.386 . S
C483 C481 1.393 . S
C483 C482 1.392 . S
C483 H500 0.930 . S
C484 C482 1.386 . S
C484 C486 1.395 . S
C484 H501 0.930 . S
C485 C481 1.395 . S
C485 C486 1.379 . S
C485 H502 0.930 . S
C486 C484 1.395 . S
C486 C485 1.379 . S
C486 H503 0.930 . S
C487 O470 1.264 . S
C487 O471 1.254 . S
C488 Eu424 2.848 . S
C488 O468 1.257 . S
C488 O473 1.249 . S
C488 C481 1.492 . S
C489 H454 0.931 . S
C489 C467 1.420 . S
C489 C490 1.351 . S
C490 H452 0.930 . S
C490 C458 1.423 . S
C490 C489 1.351 . S
C491 O475 1.276 . S
C491 O478 1.235 . S
C492 C493 1.393 . S
C492 C496 1.395 1_556 S
C492 C499 1.492 . S
C493 C492 1.393 . S
C493 C494 1.392 1_556 S
C493 H504 0.930 . S
C494 C493 1.392 1_554 S
C494 C495 1.386 . S
C495 C494 1.386 . S
C495 C497 1.395 . S
C495 H505 0.930 . S
C496 C492 1.395 1_554 S
C496 C497 1.379 . S
C496 H506 0.930 . S
C497 C495 1.395 . S
C497 C496 1.379 . S
C497 H507 0.930 . S
C498 O476 1.264 . S
C498 O477 1.254 . S
C499 Eu435 2.848 . S
C499 O474 1.257 . S
C499 O479 1.249 . S
C499 C492 1.492 . S
H500 C483 0.930 . S
H501 C484 0.930 . S
H502 C485 0.930 . S
H503 C486 0.930 . S
H504 C493 0.930 . S
H505 C495 0.930 . S
H506 C496 0.930 . S
H507 C497 0.930 . S
Eu508 N539 2.657 . S
Eu508 N546 2.609 . S
Eu508 O552 2.558 . S
Eu508 O553 2.612 . S
Eu508 O555 2.339 . S
Eu508 O556 2.563 . S
Eu508 O557 2.419 . S
Eu508 O559 2.380 1_455 S
Eu508 O560 2.432 1_455 S
Eu508 C572 2.848 . S
C509 C512 1.429 . S
C509 C513 1.411 . S
C509 N516 1.377 . S
C510 C512 1.420 . S
C510 C514 1.423 . S
C510 C522 1.392 . S
C511 C513 1.420 . S
C511 C514 1.351 . S
C511 H534 0.931 . S
C512 C509 1.429 . S
C512 C510 1.420 . S
C512 N520 1.362 . S
C513 C509 1.411 . S
C513 C511 1.420 . S
C513 C518 1.395 1_655 S
C514 C510 1.423 . S
C514 C511 1.351 . S
C514 H526 0.930 . S
C515 C517 1.400 . S
C515 C518 1.386 . S
C515 H527 0.930 . S
N516 C509 1.377 . S
N516 C517 1.321 1_655 S
N516 Eu519 2.609 . S
C517 C515 1.400 . S
C517 N516 1.321 1_455 S
C517 H524 0.930 . S
C518 C513 1.395 1_455 S
C518 C515 1.386 . S
C518 H537 0.930 . S
Eu519 N516 2.609 . S
Eu519 N520 2.657 . S
Eu519 O553 2.380 1_655 S
Eu519 O554 2.432 1_655 S
Eu519 O558 2.558 . S
Eu519 O559 2.612 . S
Eu519 O561 2.339 . S
Eu519 O562 2.563 . S
Eu519 O563 2.419 . S
Eu519 C583 2.848 . S
N520 C512 1.362 . S
N520 Eu519 2.657 . S
N520 C521 1.334 . S
C521 N520 1.334 . S
C521 C523 1.413 . S
C521 H528 0.929 . S
C522 C510 1.392 . S
C522 C523 1.367 . S
C522 H530 0.930 . S
C523 C521 1.413 . S
C523 C522 1.367 . S
C523 H525 0.930 . S
H524 C517 0.930 . S
H525 C523 0.930 . S
H526 C514 0.930 . S
H527 C515 0.930 . S
H528 C521 0.929 . S
H529 C543 0.930 . S
H530 C522 0.930 . S
H531 C549 0.930 . S
H532 C540 0.929 . S
H533 C547 0.930 . S
H534 C511 0.931 . S
H535 C541 0.930 . S
H536 C574 0.930 . S
H537 C518 0.930 . S
H538 C573 0.931 . S
N539 Eu508 2.657 . S
N539 C540 1.334 . S
N539 C544 1.362 . S
C540 H532 0.929 . S
C540 N539 1.334 . S
C540 C543 1.413 . S
C541 H535 0.930 . S
C541 C542 1.392 . S
C541 C543 1.367 . S
C542 C541 1.392 . S
C542 C544 1.420 . S
C542 C574 1.423 . S
C543 H529 0.930 . S
C543 C540 1.413 . S
C543 C541 1.367 . S
C544 N539 1.362 . S
C544 C542 1.420 . S
C544 C548 1.429 . S
H545 C550 0.930 . S
N546 Eu508 2.609 . S
N546 C548 1.377 . S
N546 C549 1.321 1_455 S
C547 H533 0.930 . S
C547 C549 1.400 . S
C547 C550 1.386 1_655 S
C548 C544 1.429 . S
C548 N546 1.377 . S
C548 C551 1.411 . S
C549 H531 0.930 . S
C549 N546 1.321 1_655 S
C549 C547 1.400 . S
C550 H545 0.930 . S
C550 C547 1.386 1_455 S
C550 C551 1.395 . S
C551 C548 1.411 . S
C551 C550 1.395 . S
C551 C573 1.420 . S
O552 Eu508 2.558 . S
O552 C572 1.257 . S
O553 Eu508 2.612 . S
O553 Eu519 2.380 1_455 S
O553 C564 1.276 . S
O554 Eu519 2.432 1_455 S
O554 C571 1.264 . S
O555 Eu508 2.339 . S
O555 C571 1.254 . S
O556 Eu508 2.563 . S
O556 C564 1.235 . S
O557 Eu508 2.419 . S
O557 C572 1.249 . S
O558 Eu519 2.558 . S
O558 C583 1.257 . S
O559 Eu508 2.380 1_655 S
O559 Eu519 2.612 . S
O559 C575 1.276 . S
O560 Eu508 2.432 1_655 S
O560 C582 1.264 . S
O561 Eu519 2.339 . S
O561 C582 1.254 . S
O562 Eu519 2.563 . S
O562 C575 1.235 . S
O563 Eu519 2.419 . S
O563 C583 1.249 . S
C564 O553 1.276 . S
C564 O556 1.235 . S
C565 C567 1.393 . S
C565 C569 1.395 . S
C565 C572 1.492 . S
C566 C567 1.392 . S
C566 C568 1.386 . S
C567 C565 1.393 . S
C567 C566 1.392 . S
C567 H584 0.930 . S
C568 C566 1.386 . S
C568 C570 1.395 . S
C568 H585 0.930 . S
C569 C565 1.395 . S
C569 C570 1.379 . S
C569 H586 0.930 . S
C570 C568 1.395 . S
C570 C569 1.379 . S
C570 H587 0.930 . S
C571 O554 1.264 . S
C571 O555 1.254 . S
C572 Eu508 2.848 . S
C572 O552 1.257 . S
C572 O557 1.249 . S
C572 C565 1.492 . S
C573 H538 0.931 . S
C573 C551 1.420 . S
C573 C574 1.351 . S
C574 H536 0.930 . S
C574 C542 1.423 . S
C574 C573 1.351 . S
C575 O559 1.276 . S
C575 O562 1.235 . S
C576 C577 1.393 . S
C576 C580 1.395 1_556 S
C576 C583 1.492 . S
C577 C576 1.393 . S
C577 C578 1.392 1_556 S
C577 H588 0.930 . S
C578 C577 1.392 1_554 S
C578 C579 1.386 . S
C579 C578 1.386 . S
C579 C581 1.395 . S
C579 H589 0.930 . S
C580 C576 1.395 1_554 S
C580 C581 1.379 . S
C580 H590 0.930 . S
C581 C579 1.395 . S
C581 C580 1.379 . S
C581 H591 0.930 . S
C582 O560 1.264 . S
C582 O561 1.254 . S
C583 Eu519 2.848 . S
C583 O558 1.257 . S
C583 O563 1.249 . S
C583 C576 1.492 . S
H584 C567 0.930 . S
H585 C568 0.930 . S
H586 C569 0.930 . S
H587 C570 0.930 . S
H588 C577 0.930 . S
H589 C579 0.930 . S
H590 C580 0.930 . S
H591 C581 0.930 . S
C592 C593 1.363 . S
C592 C598 1.379 . S
C592 N600 1.356 . S
C593 C592 1.363 . S
C593 C599 1.363 . S
C594 C595 1.363 . S
C594 C599 1.379 . S
C594 N601 1.356 1_545 S
C595 C594 1.363 . S
C595 C598 1.363 . S
N596 C598 1.356 . S
N596 H608 0.984 . S
N596 H609 0.985 . S
N597 C599 1.356 . S
N597 H602 0.984 . S
N597 H603 0.985 1_545 S
C598 C592 1.379 . S
C598 C595 1.363 . S
C598 N596 1.356 . S
C599 C593 1.363 . S
C599 C594 1.379 . S
C599 N597 1.356 . S
N600 C592 1.356 . S
N600 H606 0.984 . S
N600 H607 0.984 . S
N601 C594 1.356 1_565 S
N601 H604 0.984 . S
N601 H605 0.985 . S
H602 N597 0.984 . S
H603 N597 0.985 1_565 S
H604 N601 0.984 . S
H605 N601 0.985 . S
H606 N600 0.984 . S
H607 N600 0.984 . S
H608 N596 0.984 . S
H609 N596 0.985 . S
C610 C611 1.363 . S
C610 C616 1.379 . S
C610 N618 1.356 . S
C611 C610 1.363 . S
C611 C617 1.363 . S
C612 C613 1.363 . S
C612 C617 1.379 . S
C612 N619 1.356 . S
C613 C612 1.363 . S
C613 C616 1.363 . S
N614 C616 1.356 . S
N614 H626 0.984 . S
N614 H627 0.985 . S
N615 C617 1.356 . S
N615 H620 0.984 . S
N615 H621 0.985 . S
C616 C610 1.379 . S
C616 C613 1.363 . S
C616 N614 1.356 . S
C617 C611 1.363 . S
C617 C612 1.379 . S
C617 N615 1.356 . S
N618 C610 1.356 . S
N618 H624 0.984 . S
N618 H625 0.984 . S
N619 C612 1.356 . S
N619 H622 0.984 . S
N619 H623 0.985 . S
H620 N615 0.984 . S
H621 N615 0.985 . S
H622 N619 0.984 . S
H623 N619 0.985 . S
H624 N618 0.984 . S
H625 N618 0.984 . S
H626 N614 0.984 . S
H627 N614 0.985 . S
C628 C629 1.363 . S
C628 C634 1.379 . S
C628 N636 1.356 . S
C629 C628 1.363 . S
C629 C635 1.363 . S
C630 C631 1.363 . S
C630 C635 1.379 . S
C630 N637 1.356 . S
C631 C630 1.363 . S
C631 C634 1.363 . S
N632 C634 1.356 . S
N632 H644 0.984 . S
N632 H645 0.985 . S
N633 C635 1.356 . S
N633 H638 0.984 . S
N633 H639 0.985 . S
C634 C628 1.379 . S
C634 C631 1.363 . S
C634 N632 1.356 . S
C635 C629 1.363 . S
C635 C630 1.379 . S
C635 N633 1.356 . S
N636 C628 1.356 . S
N636 H642 0.984 . S
N636 H643 0.984 . S
N637 C630 1.356 . S
N637 H640 0.984 . S
N637 H641 0.985 . S
H638 N633 0.984 . S
H639 N633 0.985 . S
H640 N637 0.984 . S
H641 N637 0.985 . S
H642 N636 0.984 . S
H643 N636 0.984 . S
H644 N632 0.984 . S
H645 N632 0.985 . S
C646 C647 1.363 . S
C646 C652 1.379 . S
C646 N654 1.356 . S
C647 C646 1.363 . S
C647 C653 1.363 . S
C648 C649 1.363 . S
C648 C653 1.379 . S
C648 N655 1.356 . S
C649 C648 1.363 . S
C649 C652 1.363 . S
N650 C652 1.356 . S
N650 H662 0.984 1_455 S
N650 H663 0.985 1_455 S
N651 C653 1.356 . S
N651 H656 0.984 . S
N651 H657 0.985 . S
C652 C646 1.379 . S
C652 C649 1.363 . S
C652 N650 1.356 . S
C653 C647 1.363 . S
C653 C648 1.379 . S
C653 N651 1.356 . S
N654 C646 1.356 . S
N654 H660 0.984 . S
N654 H661 0.984 . S
N655 C648 1.356 . S
N655 H658 0.984 . S
N655 H659 0.985 . S
H656 N651 0.984 . S
H657 N651 0.985 . S
H658 N655 0.984 . S
H659 N655 0.985 . S
H660 N654 0.984 . S
H661 N654 0.984 . S
H662 N650 0.984 1_655 S
H663 N650 0.985 1_655 S
C664 C665 1.363 . S
C664 C670 1.379 1_554 S
C664 N672 1.356 . S
C665 C664 1.363 . S
C665 C671 1.363 . S
C666 C667 1.363 1_545 S
C666 C671 1.379 1_546 S
C666 N673 1.356 . S
C667 C666 1.363 1_565 S
C667 C670 1.363 . S
N668 C670 1.356 . S
N668 H680 0.984 . S
N668 H681 0.985 . S
N669 C671 1.356 1_545 S
N669 H674 0.977 1_545 S
N669 H675 0.985 . S
C670 C664 1.379 1_556 S
C670 C667 1.363 . S
C670 N668 1.356 . S
C671 C665 1.363 . S
C671 C666 1.379 1_564 S
C671 N669 1.356 1_565 S
N672 C664 1.356 . S
N672 H678 0.984 . S
N672 H679 0.984 . S
N673 C666 1.356 . S
N673 H676 0.984 . S
N673 H677 0.985 . S
H674 N669 0.977 1_565 S
H675 N669 0.985 . S
H676 N673 0.984 . S
H677 N673 0.985 . S
H678 N672 0.984 . S
H679 N672 0.984 . S
H680 N668 0.984 . S
H681 N668 0.985 . S
C682 C683 1.363 . S
C682 C688 1.379 1_554 S
C682 N690 1.356 . S
C683 C682 1.363 . S
C683 C689 1.363 . S
C684 C685 1.363 . S
C684 C689 1.379 1_556 S
C684 N691 1.356 . S
C685 C684 1.363 . S
C685 C688 1.363 . S
N686 C688 1.356 . S
N686 H698 0.984 . S
N686 H699 0.985 . S
N687 C689 1.356 . S
N687 H692 0.984 . S
N687 H693 0.985 . S
C688 C682 1.379 1_556 S
C688 C685 1.363 . S
C688 N686 1.356 . S
C689 C683 1.363 . S
C689 C684 1.379 1_554 S
C689 N687 1.356 . S
N690 C682 1.356 . S
N690 H696 0.984 . S
N690 H697 0.984 . S
N691 C684 1.356 . S
N691 H694 0.984 . S
N691 H695 0.985 . S
H692 N687 0.984 . S
H693 N687 0.985 . S
H694 N691 0.984 . S
H695 N691 0.985 . S
H696 N690 0.984 . S
H697 N690 0.984 . S
H698 N686 0.984 . S
H699 N686 0.985 . S
C700 C701 1.363 . S
C700 C706 1.379 1_554 S
C700 N708 1.356 . S
C701 C700 1.363 . S
C701 C707 1.363 . S
C702 C703 1.363 . S
C702 C707 1.379 1_556 S
C702 N709 1.356 . S
C703 C702 1.363 . S
C703 C706 1.363 . S
N704 C706 1.356 . S
N704 H716 0.984 . S
N704 H717 0.985 . S
N705 C707 1.356 . S
N705 H710 0.984 . S
N705 H711 0.985 . S
C706 C700 1.379 1_556 S
C706 C703 1.363 . S
C706 N704 1.356 . S
C707 C701 1.363 . S
C707 C702 1.379 1_554 S
C707 N705 1.356 . S
N708 C700 1.356 . S
N708 H714 0.984 . S
N708 H715 0.984 . S
N709 C702 1.356 . S
N709 H712 0.984 . S
N709 H713 0.985 . S
H710 N705 0.984 . S
H711 N705 0.985 . S
H712 N709 0.984 . S
H713 N709 0.985 . S
H714 N708 0.984 . S
H715 N708 0.984 . S
H716 N704 0.984 . S
H717 N704 0.985 . S
C718 C719 1.363 . S
C718 C724 1.379 1_554 S
C718 N726 1.356 . S
C719 C718 1.363 . S
C719 C725 1.363 . S
C720 C721 1.363 . S
C720 C725 1.379 1_556 S
C720 N727 1.356 1_655 S
C721 C720 1.363 . S
C721 C724 1.363 . S
N722 C724 1.356 . S
N722 H734 0.984 . S
N722 H735 0.985 . S
N723 C725 1.356 . S
N723 H728 0.984 . S
N723 H729 0.985 . S
C724 C718 1.379 1_556 S
C724 C721 1.363 . S
C724 N722 1.356 . S
C725 C719 1.363 . S
C725 C720 1.379 1_554 S
C725 N723 1.356 . S
N726 C718 1.356 . S
N726 H732 0.984 . S
N726 H733 0.984 . S
N727 C720 1.356 1_455 S
N727 H730 0.984 . S
N727 H731 0.985 . S
H728 N723 0.984 . S
H729 N723 0.985 . S
H730 N727 0.984 . S
H731 N727 0.985 . S
H732 N726 0.984 . S
H733 N726 0.984 . S
H734 N722 0.984 . S
H735 N722 0.985 . S
C736 C737 1.363 . S
C736 C742 1.379 . S
C736 N744 1.356 . S
C737 C736 1.363 . S
C737 C743 1.363 . S
C738 C739 1.363 1_455 S
C738 C743 1.379 . S
C738 N745 1.356 1_455 S
C739 C738 1.363 1_655 S
C739 C742 1.363 1_655 S
N740 C742 1.356 . S
N740 H752 0.984 . S
N740 H753 0.985 1_455 S
N741 C743 1.356 . S
N741 H746 0.984 . S
N741 H747 0.985 . S
C742 C736 1.379 . S
C742 C739 1.363 1_455 S
C742 N740 1.356 . S
C743 C737 1.363 . S
C743 C738 1.379 . S
C743 N741 1.356 . S
N744 C736 1.356 . S
N744 H750 0.984 . S
N744 H751 0.984 . S
N745 C738 1.356 1_655 S
N745 H748 0.984 . S
N745 H749 0.985 . S
H746 N741 0.984 . S
H747 N741 0.985 . S
H748 N745 0.984 . S
H749 N745 0.985 . S
H750 N744 0.984 . S
H751 N744 0.984 . S
H752 N740 0.984 . S
H753 N740 0.985 1_655 S
C754 C755 1.363 . S
C754 C760 1.379 1_545 S
C754 N762 1.356 . S
C755 C754 1.363 . S
C755 C761 1.363 . S
C756 C757 1.363 1_545 S
C756 C761 1.379 . S
C756 N763 1.356 . S
C757 C756 1.363 1_565 S
C757 C760 1.363 . S
N758 C760 1.356 . S
N758 H770 0.984 . S
N758 H771 0.985 . S
N759 C761 1.356 . S
N759 H764 0.984 . S
N759 H765 0.985 . S
C760 C754 1.379 1_565 S
C760 C757 1.363 . S
C760 N758 1.356 . S
C761 C755 1.363 . S
C761 C756 1.379 . S
C761 N759 1.356 . S
N762 C754 1.356 . S
N762 H768 0.984 . S
N762 H769 0.984 . S
N763 C756 1.356 . S
N763 H766 0.984 1_545 S
N763 H767 0.985 . S
H764 N759 0.984 . S
H765 N759 0.985 . S
H766 N763 0.984 1_565 S
H767 N763 0.985 . S
H768 N762 0.984 . S
H769 N762 0.984 . S
H770 N758 0.984 . S
H771 N758 0.985 . S
C772 C773 1.363 . S
C772 C778 1.379 . S
C772 N780 1.356 . S
C773 C772 1.363 . S
C773 C779 1.363 . S
C774 C775 1.363 . S
C774 C779 1.379 . S
C774 N781 1.356 . S
C775 C774 1.363 . S
C775 C778 1.363 . S
N776 C778 1.356 . S
N776 H788 0.984 . S
N776 H789 0.985 . S
N777 C779 1.356 . S
N777 H782 0.984 . S
N777 H783 0.985 . S
C778 C772 1.379 . S
C778 C775 1.363 . S
C778 N776 1.356 . S
C779 C773 1.363 . S
C779 C774 1.379 . S
C779 N777 1.356 . S
N780 C772 1.356 . S
N780 H786 0.984 . S
N780 H787 0.984 . S
N781 C774 1.356 . S
N781 H784 0.984 . S
N781 H785 0.985 . S
H782 N777 0.984 . S
H783 N777 0.985 . S
H784 N781 0.984 . S
H785 N781 0.985 . S
H786 N780 0.984 . S
H787 N780 0.984 . S
H788 N776 0.984 . S
H789 N776 0.985 . S
C790 C791 1.363 . S
C790 C796 1.379 . S
C790 N798 1.356 . S
C791 C790 1.363 . S
C791 C797 1.363 . S
C792 C793 1.363 . S
C792 C797 1.379 . S
C792 N799 1.356 . S
C793 C792 1.363 . S
C793 C796 1.363 . S
N794 C796 1.356 . S
N794 H806 0.984 . S
N794 H807 0.985 . S
N795 C797 1.356 . S
N795 H800 0.984 . S
N795 H801 0.985 . S
C796 C790 1.379 . S
C796 C793 1.363 . S
C796 N794 1.356 . S
C797 C791 1.363 . S
C797 C792 1.379 . S
C797 N795 1.356 . S
N798 C790 1.356 . S
N798 H804 0.984 . S
N798 H805 0.984 . S
N799 C792 1.356 . S
N799 H802 0.984 . S
N799 H803 0.985 . S
H800 N795 0.984 . S
H801 N795 0.985 . S
H802 N799 0.984 . S
H803 N799 0.985 . S
H804 N798 0.984 . S
H805 N798 0.984 . S
H806 N794 0.984 . S
H807 N794 0.985 . S
C808 C809 1.363 . S
C808 C814 1.379 1_655 S
C808 N816 1.356 . S
C809 C808 1.363 . S
C809 C815 1.363 . S
C810 C811 1.363 1_655 S
C810 C815 1.379 . S
C810 N817 1.356 1_655 S
C811 C810 1.363 1_455 S
C811 C814 1.363 . S
N812 C814 1.356 1_556 S
N812 H824 0.984 . S
N812 H825 0.985 . S
N813 C815 1.356 . S
N813 H818 0.984 . S
N813 H819 0.985 . S
C814 C808 1.379 1_455 S
C814 C811 1.363 . S
C814 N812 1.356 1_554 S
C815 C809 1.363 . S
C815 C810 1.379 . S
C815 N813 1.356 . S
N816 C808 1.356 . S
N816 H822 0.984 1_554 S
N816 H823 0.984 . S
N817 C810 1.356 1_455 S
N817 H820 0.985 . S
N817 H821 0.984 1_455 S
H818 N813 0.984 . S
H819 N813 0.985 . S
H820 N817 0.985 . S
H821 N817 0.984 1_655 S
H822 N816 0.984 1_556 S
H823 N816 0.984 . S
H824 N812 0.984 . S
H825 N812 0.985 . S
C826 C827 1.363 1_556 S
C826 C832 1.367 1_565 S
C826 N834 1.356 . S
C827 C826 1.363 1_554 S
C827 C833 1.363 . S
C828 C829 1.363 . S
C828 C833 1.379 1_545 S
C828 N835 1.356 . S
C829 C828 1.363 . S
C829 C832 1.370 1_554 S
N830 C832 1.364 . S
N830 H842 0.984 . S
N830 H843 0.985 . S
N831 C833 1.356 . S
N831 H836 0.984 . S
N831 H837 0.985 . S
C832 C826 1.367 1_545 S
C832 C829 1.370 1_556 S
C832 N830 1.364 . S
C833 C827 1.363 . S
C833 C828 1.379 1_565 S
C833 N831 1.356 . S
N834 C826 1.356 . S
N834 H840 0.984 . S
N834 H841 0.984 . S
N835 C828 1.356 . S
N835 H838 0.984 . S
N835 H839 0.985 . S
H836 N831 0.984 . S
H837 N831 0.985 . S
H838 N835 0.984 . S
H839 N835 0.985 . S
H840 N834 0.984 . S
H841 N834 0.984 . S
H842 N830 0.984 . S
H843 N830 0.985 . S
C844 C845 1.363 . S
C844 C850 1.379 . S
C844 N852 1.356 . S
C845 C844 1.363 . S
C845 C851 1.363 1_554 S
C846 C847 1.363 1_556 S
C846 C851 1.379 . S
C846 N853 1.356 . S
C847 C846 1.363 1_554 S
C847 C850 1.363 . S
N848 C850 1.356 . S
N848 H860 0.984 . S
N848 H861 0.985 . S
N849 C851 1.356 . S
N849 H854 0.984 . S
N849 H855 0.985 . S
C850 C844 1.379 . S
C850 C847 1.363 . S
C850 N848 1.356 . S
C851 C845 1.363 1_556 S
C851 C846 1.379 . S
C851 N849 1.356 . S
N852 C844 1.356 . S
N852 H858 0.984 . S
N852 H859 0.984 . S
N853 C846 1.356 . S
N853 H856 0.984 . S
N853 H857 0.985 . S
H854 N849 0.984 . S
H855 N849 0.985 . S
H856 N853 0.984 . S
H857 N853 0.985 . S
H858 N852 0.984 . S
H859 N852 0.984 . S
H860 N848 0.984 . S
H861 N848 0.985 . S
C862 C863 1.363 . S
C862 C868 1.379 . S
C862 N870 1.356 . S
C863 C862 1.363 . S
C863 C869 1.363 . S
C864 C865 1.363 . S
C864 C869 1.379 . S
C864 N871 1.356 . S
C865 C864 1.363 . S
C865 C868 1.363 . S
N866 C868 1.356 . S
N866 H878 0.984 . S
N866 H879 0.985 . S
N867 C869 1.356 . S
N867 H872 0.984 . S
N867 H873 0.985 . S
C868 C862 1.379 . S
C868 C865 1.363 . S
C868 N866 1.356 . S
C869 C863 1.363 . S
C869 C864 1.379 . S
C869 N867 1.356 . S
N870 C862 1.356 . S
N870 H876 0.984 . S
N870 H877 0.984 . S
N871 C864 1.356 . S
N871 H874 0.984 . S
N871 H875 0.985 1_554 S
H872 N867 0.984 . S
H873 N867 0.985 . S
H874 N871 0.984 . S
H875 N871 0.985 1_556 S
H876 N870 0.984 . S
H877 N870 0.984 . S
H878 N866 0.984 . S
H879 N866 0.985 . S
C880 C881 1.363 . S
C880 C886 1.379 . S
C880 N888 1.356 . S
C881 C880 1.363 . S
C881 C887 1.363 . S
C882 C883 1.363 . S
C882 C887 1.379 . S
C882 N889 1.356 . S
C883 C882 1.363 . S
C883 C886 1.363 . S
N884 C886 1.356 . S
N884 H896 0.994 . S
N884 H897 0.985 . S
N885 C887 1.356 . S
N885 H890 0.984 . S
N885 H891 0.985 . S
C886 C880 1.379 . S
C886 C883 1.363 . S
C886 N884 1.356 . S
C887 C881 1.363 . S
C887 C882 1.379 . S
C887 N885 1.356 . S
N888 C880 1.356 . S
N888 H894 0.984 . S
N888 H895 0.984 . S
N889 C882 1.356 . S
N889 H892 0.984 . S
N889 H893 0.985 . S
H890 N885 0.984 . S
H891 N885 0.985 . S
H892 N889 0.984 . S
H893 N889 0.985 . S
H894 N888 0.984 . S
H895 N888 0.984 . S
H896 N884 0.994 . S
H897 N884 0.985 . S
C898 C899 1.363 . S
C898 C904 1.379 . S
C898 N906 1.356 . S
C899 C898 1.363 . S
C899 C905 1.363 . S
C900 C901 1.363 . S
C900 C905 1.379 . S
C900 N907 1.356 . S
C901 C900 1.363 . S
C901 C904 1.363 . S
N902 C904 1.356 . S
N902 H914 0.984 . S
N902 H915 0.985 . S
N903 C905 1.356 . S
N903 H908 0.984 . S
N903 H909 0.985 . S
C904 C898 1.379 . S
C904 C901 1.363 . S
C904 N902 1.356 . S
C905 C899 1.363 . S
C905 C900 1.379 . S
C905 N903 1.356 . S
N906 C898 1.356 . S
N906 H912 0.984 . S
N906 H913 0.984 . S
N907 C900 1.356 . S
N907 H910 0.984 . S
N907 H911 0.985 . S
H908 N903 0.984 . S
H909 N903 0.985 . S
H910 N907 0.984 . S
H911 N907 0.985 . S
H912 N906 0.984 . S
H913 N906 0.984 . S
H914 N902 0.984 . S
H915 N902 0.985 . S
C916 C917 1.363 . S
C916 C922 1.379 . S
C916 N924 1.356 . S
C917 C916 1.363 . S
C917 C923 1.363 . S
C918 C919 1.363 . S
C918 C923 1.379 . S
C918 N925 1.356 . S
C919 C918 1.363 . S
C919 C922 1.363 . S
N920 C922 1.356 . S
N920 H932 0.984 . S
N920 H933 0.985 . S
N921 C923 1.356 . S
N921 H926 0.984 . S
N921 H927 0.985 . S
C922 C916 1.379 . S
C922 C919 1.363 . S
C922 N920 1.356 . S
C923 C917 1.363 . S
C923 C918 1.379 . S
C923 N921 1.356 . S
N924 C916 1.356 . S
N924 H930 0.984 . S
N924 H931 0.984 . S
N925 C918 1.356 . S
N925 H928 0.984 . S
N925 H929 0.985 . S
H926 N921 0.984 . S
H927 N921 0.985 . S
H928 N925 0.984 . S
H929 N925 0.985 . S
H930 N924 0.984 . S
H931 N924 0.984 . S
H932 N920 0.984 . S
H933 N920 0.985 . S
C934 C935 1.363 . S
C934 C940 1.379 . S
C934 N942 1.356 . S
C935 C934 1.363 . S
C935 C941 1.363 . S
C936 C937 1.363 . S
C936 C941 1.379 . S
C936 N943 1.356 . S
C937 C936 1.363 . S
C937 C940 1.363 . S
N938 C940 1.356 . S
N938 H950 0.984 . S
N938 H951 0.985 . S
N939 C941 1.356 . S
N939 H944 0.984 . S
N939 H945 0.985 . S
C940 C934 1.379 . S
C940 C937 1.363 . S
C940 N938 1.356 . S
C941 C935 1.363 . S
C941 C936 1.379 . S
C941 N939 1.356 . S
N942 C934 1.356 . S
N942 H948 0.984 . S
N942 H949 0.984 . S
N943 C936 1.356 . S
N943 H946 0.984 . S
N943 H947 0.985 . S
H944 N939 0.984 . S
H945 N939 0.985 . S
H946 N943 0.984 . S
H947 N943 0.985 . S
H948 N942 0.984 . S
H949 N942 0.984 . S
H950 N938 0.984 . S
H951 N938 0.985 . S
C952 C953 1.363 . S
C952 C958 1.379 . S
C952 N960 1.356 . S
C953 C952 1.363 . S
C953 C959 1.363 . S
C954 C955 1.363 . S
C954 C959 1.379 . S
C954 N961 1.343 1_655 S
C955 C954 1.363 . S
C955 C958 1.363 . S
N956 C958 1.356 . S
N956 H968 0.984 . S
N956 H969 0.985 . S
N957 C959 1.356 . S
N957 H962 0.984 . S
N957 H963 0.985 1_655 S
C958 C952 1.379 . S
C958 C955 1.363 . S
C958 N956 1.356 . S
C959 C953 1.363 . S
C959 C954 1.379 . S
C959 N957 1.356 . S
N960 C952 1.356 . S
N960 H966 0.984 . S
N960 H967 0.984 . S
N961 C954 1.343 1_455 S
N961 H964 0.984 1_455 S
N961 H965 0.999 . S
H962 N957 0.984 . S
H963 N957 0.985 1_455 S
H964 N961 0.984 1_655 S
H965 N961 0.999 . S
H966 N960 0.984 . S
H967 N960 0.984 . S
H968 N956 0.984 . S
H969 N956 0.985 . S
C970 C971 1.363 . S
C970 C976 1.379 . S
C970 N978 1.356 . S
C971 C970 1.363 . S
C971 C977 1.363 . S
C972 C973 1.363 . S
C972 C977 1.379 . S
C972 N979 1.356 . S
C973 C972 1.363 . S
C973 C976 1.363 . S
N974 C976 1.356 1_545 S
N974 H986 0.984 . S
N974 H987 0.985 . S
N975 C977 1.356 . S
N975 H980 0.984 . S
N975 H981 0.985 . S
C976 C970 1.379 . S
C976 C973 1.363 . S
C976 N974 1.356 1_565 S
C977 C971 1.363 . S
C977 C972 1.379 . S
C977 N975 1.356 . S
N978 C970 1.356 . S
N978 H984 0.984 1_565 S
N978 H985 0.984 . S
N979 C972 1.356 . S
N979 H982 0.984 . S
N979 H983 0.985 . S
H980 N975 0.984 . S
H981 N975 0.985 . S
H982 N979 0.984 . S
H983 N979 0.985 . S
H984 N978 0.984 1_545 S
H985 N978 0.984 . S
H986 N974 0.984 . S
H987 N974 0.985 . S
C988 C989 1.363 . S
C988 C994 1.379 . S
C988 N996 1.356 . S
C989 C988 1.363 . S
C989 C995 1.363 . S
C990 C991 1.363 . S
C990 C995 1.379 . S
C990 N997 1.356 . S
C991 C990 1.363 . S
C991 C994 1.363 . S
N992 C994 1.356 . S
N992 H1004 0.984 . S
N992 H1005 0.985 . S
N993 C995 1.356 . S
N993 H998 0.984 . S
N993 H999 0.985 . S
C994 C988 1.379 . S
C994 C991 1.363 . S
C994 N992 1.356 . S
C995 C989 1.363 . S
C995 C990 1.379 . S
C995 N993 1.356 . S
N996 C988 1.356 . S
N996 H1002 0.984 . S
N996 H1003 0.984 . S
N997 C990 1.356 . S
N997 H1000 0.984 . S
N997 H1001 0.985 . S
H998 N993 0.984 . S
H999 N993 0.985 . S
H1000 N997 0.984 . S
H1001 N997 0.985 . S
H1002 N996 0.984 . S
H1003 N996 0.984 . S
H1004 N992 0.984 . S
H1005 N992 0.985 . S
C1006 C1007 1.363 . S
C1006 C1012 1.379 . S
C1006 N1014 1.356 . S
C1007 C1006 1.363 . S
C1007 C1013 1.363 . S
C1008 C1009 1.363 . S
C1008 C1013 1.379 . S
C1008 N1015 1.356 . S
C1009 C1008 1.363 . S
C1009 C1012 1.363 . S
N1010 C1012 1.356 . S
N1010 H1022 0.984 . S
N1010 H1023 0.985 . S
N1011 C1013 1.356 . S
N1011 H1016 0.984 . S
N1011 H1017 0.985 . S
C1012 C1006 1.379 . S
C1012 C1009 1.363 . S
C1012 N1010 1.356 . S
C1013 C1007 1.363 . S
C1013 C1008 1.379 . S
C1013 N1011 1.356 . S
N1014 C1006 1.356 . S
N1014 H1020 0.984 . S
N1014 H1021 0.984 . S
N1015 C1008 1.356 . S
N1015 H1018 0.984 . S
N1015 H1019 0.985 . S
H1016 N1011 0.984 . S
H1017 N1011 0.985 . S
H1018 N1015 0.984 . S
H1019 N1015 0.985 . S
H1020 N1014 0.984 . S
H1021 N1014 0.984 . S
H1022 N1010 0.984 . S
H1023 N1010 0.985 . S
C593 C215 2.413 . S
C595 C330 2.476 . S
C613 C414 2.484 . S
C611 C247 2.422 . S
C631 C480 2.323 . S
C629 C151 2.498 . S
C649 C564 2.320 . S
C647 C183 2.492 . S
C667 C319 2.476 1_565 S
C665 C87 2.312 . S
C683 C119 2.308 . S
C685 C403 2.484 . S
C701 C23 2.376 . S
C703 C491 2.324 . S
C719 C55 2.379 . S
C721 C575 2.321 . S
C739 C326 1.094 . S
C737 C189 1.051 . S
C757 C410 1.033 . S
C755 C221 0.998 . S
C775 C482 1.003 . S
C773 C253 0.977 . S
C791 C157 1.024 . S
C793 C566 1.056 . S
C809 C61 0.872 . S
C811 C314 1.094 . S
C829 C398 1.033 . S
C827 C93 0.849 . S
C847 C494 1.003 . S
C845 C125 0.832 . S
C863 C29 0.852 . S
C865 C578 1.056 . S
C881 C177 2.720 . S
C883 C323 2.836 . S
C899 C209 2.691 . S
C901 C407 2.813 . S
C919 C487 2.949 . S
C917 C241 2.608 . S
C937 C571 2.969 . S
C935 C145 2.633 . S
C953 C49 2.644 . S
C955 C312 2.836 . S
C973 C396 2.813 . S
C971 C81 2.628 . S
C991 C498 2.948 . S
C989 C113 2.533 . S
C1007 C17 2.549 . S
C1009 C582 2.970 . S
