# Generated by pormake.
# Topology nom, (4,4)-cn, num edge types: 1
# Building blocks:
#     Node 0, Type 0, BuildingBlock: MIFKUJ_clean_linker_1, # of connection points: 4
#     Node 1, Type 0, BuildingBlock: MIFKUJ_clean_linker_1, # of connection points: 4
#     Node 2, Type 0, BuildingBlock: MIFKUJ_clean_linker_1, # of connection points: 4
#     Node 3, Type 0, BuildingBlock: MIFKUJ_clean_linker_1, # of connection points: 4
#     Node 4, Type 0, BuildingBlock: MIFKUJ_clean_linker_1, # of connection points: 4
#     Node 5, Type 0, BuildingBlock: MIFKUJ_clean_linker_1, # of connection points: 4
#     Node 6, Type 1, BuildingBlock: QUQFOY_clean_sbu_1, # of connection points: 4
#     Node 7, Type 1, BuildingBlock: QUQFOY_clean_sbu_1, # of connection points: 4
#     Node 8, Type 1, BuildingBlock: QUQFOY_clean_sbu_1, # of connection points: 4
#     Node 9, Type 1, BuildingBlock: QUQFOY_clean_sbu_1, # of connection points: 4
#     Node 10, Type 1, BuildingBlock: QUQFOY_clean_sbu_1, # of connection points: 4
#     Node 11, Type 1, BuildingBlock: QUQFOY_clean_sbu_1, # of connection points: 4
#     Edge 12, Type (0, 1), BuildingBlock: OJICUG_clean_linker_0, # of connection points: 2
#     Edge 13, Type (0, 1), BuildingBlock: OJICUG_clean_linker_0, # of connection points: 2
#     Edge 14, Type (0, 1), BuildingBlock: OJICUG_clean_linker_0, # of connection points: 2
#     Edge 15, Type (0, 1), BuildingBlock: OJICUG_clean_linker_0, # of connection points: 2
#     Edge 16, Type (0, 1), BuildingBlock: OJICUG_clean_linker_0, # of connection points: 2
#     Edge 17, Type (0, 1), BuildingBlock: OJICUG_clean_linker_0, # of connection points: 2
#     Edge 18, Type (0, 1), BuildingBlock: OJICUG_clean_linker_0, # of connection points: 2
#     Edge 19, Type (0, 1), BuildingBlock: OJICUG_clean_linker_0, # of connection points: 2
#     Edge 20, Type (0, 1), BuildingBlock: OJICUG_clean_linker_0, # of connection points: 2
#     Edge 21, Type (0, 1), BuildingBlock: OJICUG_clean_linker_0, # of connection points: 2
#     Edge 22, Type (0, 1), BuildingBlock: OJICUG_clean_linker_0, # of connection points: 2
#     Edge 23, Type (0, 1), BuildingBlock: OJICUG_clean_linker_0, # of connection points: 2
#     Edge 24, Type (0, 1), BuildingBlock: OJICUG_clean_linker_0, # of connection points: 2
#     Edge 25, Type (0, 1), BuildingBlock: OJICUG_clean_linker_0, # of connection points: 2
#     Edge 26, Type (0, 1), BuildingBlock: OJICUG_clean_linker_0, # of connection points: 2
#     Edge 27, Type (0, 1), BuildingBlock: OJICUG_clean_linker_0, # of connection points: 2
#     Edge 28, Type (0, 1), BuildingBlock: OJICUG_clean_linker_0, # of connection points: 2
#     Edge 29, Type (0, 1), BuildingBlock: OJICUG_clean_linker_0, # of connection points: 2
#     Edge 30, Type (0, 1), BuildingBlock: OJICUG_clean_linker_0, # of connection points: 2
#     Edge 31, Type (0, 1), BuildingBlock: OJICUG_clean_linker_0, # of connection points: 2
#     Edge 32, Type (0, 1), BuildingBlock: OJICUG_clean_linker_0, # of connection points: 2
#     Edge 33, Type (0, 1), BuildingBlock: OJICUG_clean_linker_0, # of connection points: 2
#     Edge 34, Type (0, 1), BuildingBlock: OJICUG_clean_linker_0, # of connection points: 2
#     Edge 35, Type (0, 1), BuildingBlock: OJICUG_clean_linker_0, # of connection points: 2
# Relax obj value: 0.014
# Max RMSD: 0.117
# Mean RMSD: 0.112
data_MOF--net-nom--node1-QUQFOY_clean_sbu_1--node2-MIFKUJ_clean_linker_1--edge1-OJICUG_clean_linker_0
_symmetry_space_group_name_H-M    P1
_symmetry_Int_Tables_number       1
_symmetry_cell_setting            triclinic
loop_
_symmetry_equiv_pos_as_xyz
'x, y, z'
_cell_length_a     43.545361
_cell_length_b     43.548595
_cell_length_c     41.579246
_cell_angle_alpha  90.010208
_cell_angle_beta   89.992741
_cell_angle_gamma 120.00747
loop_
_atom_site_label
_atom_site_type_symbol
_atom_site_fract_x
_atom_site_fract_y
_atom_site_fract_z
_atom_type_partial_charge
H0 H 0.97187 0.45873 0.263 0.0
H1 H 0.92457 0.4327 0.22286 0.0
H2 H 0.88484 0.50043 0.25599 0.0
H3 H 0.93312 0.52736 0.29506 0.0
H4 H 0.02515 0.53045 0.26906 0.0
H5 H 0.9264 0.44042 0.34131 0.0
H6 H 0.86564 0.41613 0.36107 0.0
H7 H 0.88816 0.52253 0.38351 0.0
H8 H 0.94902 0.54581 0.36584 0.0
H9 H 0.0518 0.58571 0.40131 0.0
H10 H 0.09911 0.60763 0.44131 0.0
H11 H 0.14723 0.55565 0.39062 0.0
H12 H 0.09875 0.5321 0.35188 0.0
H13 H 1.0019 0.52418 0.38643 0.0
H14 H 0.09117 0.61585 0.3278 0.0
H15 H 0.15083 0.65529 0.3077 0.0
H16 H 0.14703 0.56869 0.25367 0.0
H17 H 0.08708 0.52888 0.27452 0.0
C18 C 0.95576 0.49465 0.28227 0.0
C19 C 0.95292 0.46791 0.26159 0.0
C20 C 0.92566 0.45283 0.23888 0.0
C21 C 0.90074 0.4643 0.23634 0.0
C22 C 0.90369 0.49113 0.25715 0.0
C23 C 0.93105 0.50629 0.27975 0.0
C24 C 0.98504 0.51079 0.30599 0.0
C25 C 0.02017 0.52847 0.29475 0.0
C26 C 0.97849 0.51016 0.33935 0.0
C27 C 0.94209 0.49484 0.3523 0.0
C28 C 0.91815 0.45827 0.35097 0.0
C29 C 0.88331 0.44452 0.36202 0.0
C30 C 0.87161 0.46722 0.37407 0.0
C31 C 0.89606 0.50391 0.37533 0.0
C32 C 0.93095 0.51744 0.36497 0.0
C33 C 0.07172 0.55737 0.37343 0.0
C34 C 0.07244 0.57888 0.39891 0.0
C35 C 0.09982 0.59179 0.42156 0.0
C36 C 0.12714 0.58355 0.41918 0.0
C37 C 0.12647 0.56223 0.39346 0.0
C38 C 0.09893 0.54907 0.37102 0.0
C39 C 0.04227 0.54302 0.34965 0.0
C40 C 0.00712 0.52574 0.3608 0.0
C41 C 0.0488 0.54567 0.31611 0.0
C42 C 0.0848 0.56934 0.30292 0.0
C43 C 0.10317 0.60525 0.31172 0.0
C44 C 0.13718 0.62786 0.29997 0.0
C45 C 0.15361 0.61514 0.27897 0.0
C46 C 0.13514 0.57917 0.26998 0.0
C47 C 0.10086 0.5565 0.28168 0.0
H48 H 0.42232 0.95088 0.53302 0.0
H49 H 0.38395 0.89088 0.55236 0.0
H50 H 0.46514 0.86466 0.52933 0.0
H51 H 0.50241 0.92458 0.50795 0.0
H52 H 0.49673 1.0025 0.55212 0.0
H53 H 0.42374 0.93169 0.4623 0.0
H54 H 0.40166 0.88301 0.42367 0.0
H55 H 0.50846 0.92252 0.38871 0.0
H56 H 0.53051 0.97011 0.42856 0.0
H57 H 0.5765 0.0861 0.43904 0.0
H58 H 0.59535 0.14532 0.41694 0.0
H59 H 0.51196 0.1485 0.47049 0.0
H60 H 0.49311 0.08964 0.49195 0.0
H61 H 0.51278 0.02335 0.43441 0.0
H62 H 0.58591 0.09805 0.51659 0.0
H63 H 0.61136 0.14695 0.55507 0.0
H64 H 0.51086 0.10097 0.60492 0.0
H65 H 0.48516 0.05305 0.56549 0.0
C66 C 0.46509 0.94207 0.51907 0.0
C67 C 0.43187 0.9322 0.53235 0.0
C68 C 0.41006 0.8978 0.54368 0.0
C69 C 0.42133 0.87258 0.54279 0.0
C70 C 0.45518 0.88297 0.53004 0.0
C71 C 0.47672 0.91732 0.51805 0.0
C72 C 0.48671 0.97809 0.50544 0.0
C73 C 0.50024 0.00717 0.52641 0.0
C74 C 0.49245 0.98394 0.47198 0.0
C75 C 0.47887 0.9542 0.44868 0.0
C76 C 0.44248 0.92945 0.44676 0.0
C77 C 0.42984 0.90186 0.42436 0.0
C78 C 0.45328 0.89876 0.40308 0.0
C79 C 0.48972 0.92368 0.40508 0.0
C80 C 0.50235 0.95113 0.42763 0.0
C81 C 0.53361 0.08362 0.46735 0.0
C82 C 0.5623 0.09961 0.44587 0.0
C83 C 0.57314 0.13345 0.43343 0.0
C84 C 0.55504 0.15149 0.44188 0.0
C85 C 0.52617 0.13515 0.46318 0.0
C86 C 0.51557 0.10162 0.47571 0.0
C87 C 0.52177 0.04794 0.48107 0.0
C88 C 0.51004 0.01887 0.46018 0.0
C89 C 0.51821 0.04207 0.51469 0.0
C90 C 0.53352 0.07195 0.53798 0.0
C91 C 0.5692 0.09878 0.53553 0.0
C92 C 0.58384 0.12655 0.55775 0.0
C93 C 0.56317 0.12793 0.5831 0.0
C94 C 0.5274 0.10106 0.58543 0.0
C95 C 0.51275 0.07339 0.56311 0.0
H96 H 0.52851 0.57089 0.71793 0.0
H97 H 0.50695 0.5967 0.75801 0.0
H98 H 0.3996 0.52837 0.72487 0.0
H99 H 0.42125 0.50166 0.68588 0.0
H100 H 0.51056 0.49943 0.71232 0.0
H101 H 0.50071 0.58823 0.63935 0.0
H102 H 0.46369 0.61175 0.61932 0.0
H103 H 0.3807 0.50482 0.59718 0.0
H104 H 0.41883 0.48231 0.61513 0.0
H105 H 0.48167 0.44258 0.58077 0.0
H106 H 0.50687 0.42009 0.54113 0.0
H107 H 0.60736 0.47317 0.59113 0.0
H108 H 0.58254 0.49716 0.6296 0.0
H109 H 0.49327 0.50431 0.59483 0.0
H110 H 0.49109 0.41353 0.6544 0.0
H111 H 0.51087 0.3741 0.67542 0.0
H112 H 0.59376 0.46115 0.72897 0.0
H113 H 0.57405 0.50094 0.70721 0.0
C114 C 0.47656 0.53469 0.69866 0.0
C115 C 0.50034 0.56155 0.71931 0.0
C116 C 0.48799 0.5765 0.74199 0.0
C117 C 0.45154 0.56477 0.74453 0.0
C118 C 0.42779 0.53787 0.72371 0.0
C119 C 0.44017 0.52283 0.70114 0.0
C120 C 0.48987 0.51852 0.67512 0.0
C121 C 0.50752 0.50114 0.68659 0.0
C122 C 0.48385 0.51874 0.64173 0.0
C123 C 0.46247 0.53361 0.62855 0.0
C124 C 0.47469 0.5701 0.62969 0.0
C125 C 0.45328 0.5834 0.61849 0.0
C126 C 0.41897 0.56033 0.60647 0.0
C127 C 0.40714 0.52372 0.60535 0.0
C128 C 0.42882 0.51063 0.61587 0.0
C129 C 0.5301 0.47145 0.60831 0.0
C130 C 0.50918 0.44951 0.58311 0.0
C131 C 0.52354 0.43629 0.56067 0.0
C132 C 0.55916 0.44467 0.56297 0.0
C133 C 0.57997 0.46645 0.58839 0.0
C134 C 0.56567 0.47988 0.61066 0.0
C135 C 0.51507 0.48607 0.63188 0.0
C136 C 0.49702 0.50308 0.62049 0.0
C137 C 0.51903 0.48382 0.66546 0.0
C138 C 0.53132 0.46026 0.67896 0.0
C139 C 0.51364 0.42424 0.67054 0.0
C140 C 0.52478 0.40164 0.68282 0.0
C141 C 0.55379 0.41447 0.70399 0.0
C142 C 0.57147 0.45057 0.71255 0.0
C143 C 0.56013 0.47324 0.70032 0.0
H144 H 0.05788 0.56954 0.76264 0.0
H145 H 0.10557 0.59528 0.72284 0.0
H146 H 0.14318 0.52566 0.75558 0.0
H147 H 0.09455 0.49911 0.79436 0.0
H148 H 1.0035 0.49747 0.76838 0.0
H149 H 0.10257 0.58723 0.84109 0.0
H150 H 0.16322 0.61088 0.86093 0.0
H151 H 0.13969 0.50399 0.88256 0.0
H152 H 0.07894 0.48135 0.86486 0.0
H153 H 0.97612 0.44268 0.90057 0.0
H154 H 0.92867 0.42103 0.94042 0.0
H155 H 0.88177 0.47428 0.88993 0.0
H156 H 0.93032 0.49739 0.85119 0.0
H157 H 0.02656 0.5042 0.88582 0.0
H158 H 0.93722 0.41269 0.82744 0.0
H159 H 0.87757 0.37322 0.80732 0.0
H160 H 0.88161 0.45961 0.75278 0.0
H161 H 0.94157 0.49946 0.77364 0.0
C162 C 0.07292 0.53273 0.78169 0.0
C163 C 0.07643 0.55987 0.7612 0.0
C164 C 0.10393 0.57478 0.7387 0.0
C165 C 0.12838 0.56272 0.73617 0.0
C166 C 0.12471 0.53544 0.75675 0.0
C167 C 0.09713 0.52048 0.77917 0.0
C168 C 0.04356 0.51696 0.80536 0.0
C169 C 0.00844 0.49956 0.79408 0.0
C170 C 0.05004 0.5177 0.83873 0.0
C171 C 0.08638 0.53262 0.85171 0.0
C172 C 0.11058 0.56914 0.8506 0.0
C173 C 0.14536 0.58251 0.86168 0.0
C174 C 0.15674 0.5595 0.87353 0.0
C175 C 0.13204 0.52285 0.87455 0.0
C176 C 0.09721 0.50969 0.86417 0.0
C177 C 0.95678 0.47154 0.87275 0.0
C178 C 0.95571 0.44984 0.89817 0.0
C179 C 0.92827 0.4371 0.92073 0.0
C180 C 0.90123 0.44575 0.91833 0.0
C181 C 0.90229 0.46735 0.89272 0.0
C182 C 0.92987 0.48028 0.87032 0.0
C183 C 0.98624 0.48557 0.849 0.0
C184 C 0.02138 0.50256 0.86017 0.0
C185 C 0.97975 0.48275 0.81545 0.0
C186 C 0.94372 0.45911 0.80231 0.0
C187 C 0.92527 0.42324 0.81126 0.0
C188 C 0.89127 0.40061 0.79949 0.0
C189 C 0.87492 0.41326 0.77833 0.0
C190 C 0.89345 0.44919 0.76921 0.0
C191 C 0.92773 0.47188 0.78092 0.0
H192 H 0.61083 0.09163 0.98835 0.0
H193 H 0.65126 0.15109 0.00851 0.0
H194 H 0.56689 0.14719 0.06624 0.0
H195 H 0.52614 0.08743 0.0455 0.0
H196 H 0.52967 0.0263 0.0504 0.0
H197 H 0.57793 0.05096 0.91723 0.0
H198 H 0.5997 0.09844 0.87741 0.0
H199 H 0.54736 0.14601 0.92833 0.0
H200 H 0.5244 0.09756 0.96732 0.0
H201 H 0.45203 0.93959 0.93838 0.0
H202 H 0.43313 0.88 0.91729 0.0
H203 H 0.51408 0.87617 0.97431 0.0
H204 H 0.53302 0.93549 0.9948 0.0
H205 H 0.5162 1.00074 0.93328 0.0
H206 H 0.44104 0.92905 0.01679 0.0
H207 H 0.41612 0.88084 0.05601 0.0
H208 H 0.51645 0.92931 0.1063 0.0
H209 H 0.54162 0.97651 0.06618 0.0
C210 C 0.56539 0.08523 0.01518 0.0
C211 C 0.60091 0.10362 0.00516 0.0
C212 C 0.62408 0.13749 0.01694 0.0
C213 C 0.61229 0.15374 0.0391 0.0
C214 C 0.57664 0.13539 0.04905 0.0
C215 C 0.55343 0.10125 0.03738 0.0
C216 C 0.5414 0.04891 0.00287 0.0
C217 C 0.52642 0.02068 0.02481 0.0
C218 C 0.53635 0.04171 0.96949 0.0
C219 C 0.54962 0.0707 0.94535 0.0
C220 C 0.57094 0.07147 0.9197 0.0
C221 C 0.58374 0.09891 0.89717 0.0
C222 C 0.57548 0.1262 0.89978 0.0
C223 C 0.55402 0.1253 0.92545 0.0
C224 C 0.54112 0.09777 0.94793 0.0
C225 C 0.49372 0.94183 0.96837 0.0
C226 C 0.46562 0.92582 0.94629 0.0
C227 C 0.45476 0.89177 0.93441 0.0
C228 C 0.47224 0.8735 0.94404 0.0
C229 C 0.50037 0.88972 0.96612 0.0
C230 C 0.51101 0.9235 0.97809 0.0
C231 C 0.50605 0.97811 0.98079 0.0
C232 C 0.51885 0.00634 0.95887 0.0
C233 C 0.50861 0.9853 0.0142 0.0
C234 C 0.49329 0.95632 0.03839 0.0
C235 C 0.45778 0.92907 0.03606 0.0
C236 C 0.44347 0.90168 0.05869 0.0
C237 C 0.46429 0.90113 0.08429 0.0
C238 C 0.49981 0.92856 0.08661 0.0
C239 C 0.51414 0.95584 0.0639 0.0
H240 H 0.50014 0.45695 0.21912 0.0
H241 H 0.52148 0.43081 0.25905 0.0
H242 H 0.62896 0.49906 0.22618 0.0
H243 H 0.60753 0.52612 0.18735 0.0
H244 H 0.51829 0.52865 0.21334 0.0
H245 H 0.52814 0.43931 0.14066 0.0
H246 H 0.56523 0.41581 0.12072 0.0
H247 H 0.64832 0.52277 0.09888 0.0
H248 H 0.61014 0.54526 0.11671 0.0
H249 H 0.5468 0.58438 0.08142 0.0
H250 H 0.52132 0.60622 0.04145 0.0
H251 H 0.42089 0.5531 0.09154 0.0
H252 H 0.44602 0.52981 0.1304 0.0
H253 H 0.53543 0.5228 0.09594 0.0
H254 H 0.53757 0.61403 0.1546 0.0
H255 H 0.51779 0.65366 0.17514 0.0
H256 H 0.43515 0.56721 0.22942 0.0
H257 H 0.45485 0.52721 0.20815 0.0
C258 C 0.55216 0.49314 0.2 0.0
C259 C 0.52829 0.46623 0.22055 0.0
C260 C 0.54051 0.45108 0.24314 0.0
C261 C 0.57693 0.46265 0.24569 0.0
C262 C 0.60079 0.48967 0.22502 0.0
C263 C 0.58854 0.50491 0.20255 0.0
C264 C 0.53895 0.50927 0.17634 0.0
C265 C 0.52131 0.52674 0.18764 0.0
C266 C 0.54497 0.50882 0.14298 0.0
C267 C 0.56642 0.49395 0.12997 0.0
C268 C 0.5542 0.45745 0.13109 0.0
C269 C 0.57566 0.44416 0.11994 0.0
C270 C 0.61 0.46724 0.108 0.0
C271 C 0.62185 0.50386 0.10696 0.0
C272 C 0.60014 0.51694 0.11742 0.0
C273 C 0.49843 0.55556 0.10905 0.0
C274 C 0.51925 0.57731 0.08371 0.0
C275 C 0.50473 0.59015 0.06108 0.0
C276 C 0.46904 0.58156 0.06332 0.0
C277 C 0.44833 0.55997 0.08887 0.0
C278 C 0.46281 0.54694 0.11135 0.0
C279 C 0.51363 0.54129 0.13279 0.0
C280 C 0.53172 0.52425 0.12158 0.0
C281 C 0.50975 0.54387 0.16634 0.0
C282 C 0.49747 0.56757 0.17957 0.0
C283 C 0.51507 0.60349 0.1708 0.0
C284 C 0.50393 0.62621 0.1828 0.0
C285 C 0.475 0.61361 0.20404 0.0
C286 C 0.45738 0.57762 0.21295 0.0
C287 C 0.46872 0.55483 0.20099 0.0
O288 O 0.59476 0.37206 0.44309 0.0
Cd289 Cd 0.60628 0.35306 0.40206 0.0
Cd290 Cd 0.66812 0.4144 0.40656 0.0
O291 O 0.64779 0.41872 0.45005 0.0
O292 O 0.56934 0.30197 0.401 0.0
O293 O 0.62646 0.32046 0.40665 0.0
C294 C 0.59416 0.29446 0.40533 0.0
C295 C 0.7258 0.42422 0.40333 0.0
C296 C 0.61601 0.39909 0.45943 0.0
C297 C 0.62219 0.40608 0.34969 0.0
O298 O 0.6493 0.42699 0.36614 0.0
O299 O 0.60234 0.37417 0.35874 0.0
O300 O 0.71966 0.44979 0.40883 0.0
O301 O 0.69902 0.39254 0.40034 0.0
O302 O 0.23531 0.59752 0.61497 0.0
Cd303 Cd 0.26662 0.61081 0.57445 0.0
Cd304 Cd 0.26718 0.67198 0.57997 0.0
O305 O 0.2432 0.65091 0.6237 0.0
O306 O 0.28331 0.57588 0.57122 0.0
O307 O 0.31935 0.63304 0.58072 0.0
C308 C 0.31485 0.60158 0.57714 0.0
C309 C 0.31624 0.72884 0.57621 0.0
C310 C 0.23026 0.61872 0.63219 0.0
C311 C 0.22946 0.62745 0.52274 0.0
O312 O 0.23526 0.6541 0.53972 0.0
O313 O 0.24195 0.60782 0.53123 0.0
O314 O 0.28513 0.72388 0.58276 0.0
O315 O 0.31985 0.70133 0.57273 0.0
O316 O 0.65063 0.23629 0.78186 0.0
Cd317 Cd 0.67106 0.26623 0.74076 0.0
Cd318 Cd 0.60865 0.26662 0.74331 0.0
O319 O 0.60247 0.24059 0.78641 0.0
O320 O 0.7217 0.27874 0.74095 0.0
O321 O 0.705 0.31889 0.74469 0.0
C322 C 0.73026 0.31148 0.74429 0.0
C323 C 0.59535 0.31229 0.73985 0.0
C324 C 0.6225 0.22939 0.79693 0.0
C325 C 0.61997 0.22989 0.68688 0.0
O326 O 0.59891 0.23695 0.70203 0.0
O327 O 0.6511 0.24065 0.69748 0.0
O328 O 0.57091 0.27964 0.74315 0.0
O329 O 0.62793 0.31937 0.73956 0.0
O330 O 0.43295 0.65313 0.94301 0.0
Cd331 Cd 0.42144 0.67239 0.90221 0.0
Cd332 Cd 0.35978 0.61083 0.90643 0.0
O333 O 0.38002 0.60632 0.94992 0.0
O334 O 0.45844 0.72345 0.90167 0.0
O335 O 0.40132 0.70498 0.90724 0.0
C336 C 0.43365 0.73095 0.90622 0.0
C337 C 0.30222 0.60129 0.90309 0.0
C338 C 0.41178 0.62603 0.95931 0.0
C339 C 0.40584 0.61988 0.84944 0.0
O340 O 0.37883 0.59869 0.86587 0.0
O341 O 0.4255 0.65176 0.85866 0.0
O342 O 0.30818 0.57558 0.90842 0.0
O343 O 0.32912 0.63294 0.90035 0.0
O344 O 0.79318 0.37443 0.0384 0.0
Cd345 Cd 0.76254 0.35537 0.07931 0.0
Cd346 Cd 0.76226 0.41679 0.07478 0.0
O347 O 0.78698 0.42116 0.03127 0.0
O348 O 0.74863 0.30436 0.08016 0.0
O349 O 0.70982 0.32262 0.07456 0.0
C350 C 0.71627 0.29672 0.07572 0.0
C351 C 0.71404 0.426 0.07814 0.0
C352 C 0.79906 0.40144 0.02199 0.0
C353 C 0.79957 0.40826 0.13178 0.0
O354 O 0.79359 0.42928 0.11526 0.0
O355 O 0.7874 0.37634 0.12272 0.0
O356 O 0.74563 0.4518 0.07264 0.0
O357 O 0.70947 0.39444 0.081 0.0
O358 O 0.42989 0.792 0.20313 0.0
Cd359 Cd 0.41999 0.76151 0.24399 0.0
Cd360 Cd 0.35758 0.76187 0.24147 0.0
O361 O 0.37737 0.78747 0.19826 0.0
O362 O 0.4578 0.74854 0.2435 0.0
O363 O 0.40082 0.70883 0.23942 0.0
C364 C 0.4334 0.71593 0.23978 0.0
C365 C 0.29836 0.71671 0.24505 0.0
C366 C 0.40868 0.79879 0.1879 0.0
C367 C 0.40578 0.79809 0.29797 0.0
O368 O 0.3781 0.79188 0.2825 0.0
O369 O 0.42555 0.78646 0.28767 0.0
O370 O 0.30698 0.74947 0.24175 0.0
O371 O 0.32358 0.70923 0.2454 0.0
C372 C 0.21613 0.62965 0.26671 0.0
C373 C 0.19 0.63965 0.26693 0.0
H374 H 0.27107 0.6462 0.25959 0.0
C375 C 0.19936 0.67416 0.25728 0.0
H376 H 0.20974 0.60328 0.27416 0.0
C377 C 0.23429 0.69864 0.24905 0.0
C378 C 0.26081 0.68924 0.25023 0.0
H379 H 0.17971 0.68248 0.2566 0.0
H380 H 0.24063 0.72525 0.24252 0.0
C381 C 0.25125 0.65426 0.25847 0.0
C382 C 0.6018 0.21421 0.42867 0.0
C383 C 0.56596 0.18733 0.42895 0.0
H384 H 0.63898 0.26937 0.42093 0.0
C385 C 0.54013 0.19544 0.41862 0.0
H386 H 0.62228 0.20876 0.43662 0.0
C387 C 0.54961 0.22995 0.40969 0.0
C388 C 0.5852 0.25728 0.41089 0.0
H389 H 0.51237 0.17517 0.41802 0.0
H390 H 0.52881 0.23535 0.40271 0.0
C391 C 0.61133 0.24892 0.41977 0.0
C392 C 0.3693 0.55626 0.57212 0.0
C393 C 0.39491 0.57383 0.5963 0.0
H394 H 0.3238 0.55111 0.5474 0.0
C395 C 0.39583 0.60306 0.61183 0.0
H396 H 0.3683 0.53444 0.55877 0.0
C397 C 0.37101 0.61345 0.60427 0.0
C398 C 0.34425 0.59433 0.58161 0.0
H399 H 0.4147 0.61709 0.63084 0.0
H400 H 0.3716 0.63523 0.61741 0.0
C401 C 0.34396 0.56603 0.56526 0.0
C402 C 0.82926 0.35417 0.7567 0.0
C403 C 0.83856 0.3887 0.76624 0.0
H404 H 0.78805 0.30302 0.74198 0.0
C405 C 0.81241 0.39866 0.76589 0.0
H406 H 0.84892 0.34588 0.75612 0.0
C407 C 0.77731 0.374 0.75763 0.0
C408 C 0.7678 0.339 0.74948 0.0
H409 H 0.81877 0.42505 0.77326 0.0
H410 H 0.75747 0.38203 0.75864 0.0
C411 C 0.79434 0.32964 0.74843 0.0
C412 C 0.4877 0.82956 0.92176 0.0
C413 C 0.46162 0.8377 0.93123 0.0
H414 H 0.49929 0.78978 0.90605 0.0
C415 C 0.42576 0.81099 0.92983 0.0
H416 H 0.51551 0.84972 0.92203 0.0
C417 C 0.41636 0.77642 0.92057 0.0
C418 C 0.44266 0.76804 0.91239 0.0
H419 H 0.40509 0.81648 0.93709 0.0
H420 H 0.38862 0.75609 0.92079 0.0
C421 C 0.47835 0.7952 0.91242 0.0
C422 C 0.63307 0.42441 0.11309 0.0
C423 C 0.63404 0.45375 0.09773 0.0
H424 H 0.65724 0.39214 0.11839 0.0
C425 C 0.65967 0.47141 0.07358 0.0
H426 H 0.61417 0.41029 0.13205 0.0
C427 C 0.68498 0.46163 0.0666 0.0
C428 C 0.68464 0.43322 0.08277 0.0
H429 H 0.66071 0.4933 0.06034 0.0
H430 H 0.70515 0.47663 0.04877 0.0
C431 C 0.65787 0.41401 0.10539 0.0
C432 C 0.39702 0.80638 0.53896 0.0
C433 C 0.39716 0.83546 0.55403 0.0
H434 H 0.37169 0.74976 0.5347 0.0
C435 C 0.37245 0.82859 0.5788 0.0
H436 H 0.41519 0.81032 0.51955 0.0
C437 C 0.34687 0.79387 0.58668 0.0
C438 C 0.34604 0.76508 0.57077 0.0
H439 H 0.3723 0.85004 0.59183 0.0
H440 H 0.32738 0.78954 0.60497 0.0
C441 C 0.37196 0.77156 0.54752 0.0
C442 C 0.53985 0.35568 0.72672 0.0
C443 C 0.56529 0.38993 0.71668 0.0
H444 H 0.52944 0.30463 0.74223 0.0
C445 C 0.60132 0.39956 0.71709 0.0
H446 H 0.51196 0.34767 0.72727 0.0
C447 C 0.61145 0.37481 0.72584 0.0
C448 C 0.58573 0.34004 0.73441 0.0
H449 H 0.62151 0.42574 0.70937 0.0
H450 H 0.63925 0.38254 0.7248 0.0
C451 C 0.54993 0.33106 0.73546 0.0
C452 C 0.2226 0.60254 0.86835 0.0
C453 C 0.19431 0.57309 0.88371 0.0
H454 H 0.27902 0.63502 0.863 0.0
C455 C 0.20242 0.55547 0.90777 0.0
H456 H 0.21772 0.61664 0.84945 0.0
C457 C 0.23756 0.56538 0.91467 0.0
C458 C 0.26555 0.5939 0.89852 0.0
H459 H 0.18164 0.5335 0.92101 0.0
H460 H 0.24284 0.5504 0.93244 0.0
C461 C 0.25785 0.61307 0.87598 0.0
C462 C 0.62824 0.21629 0.05299 0.0
C463 C 0.6375 0.18966 0.05164 0.0
H464 H 0.64593 0.27123 0.06168 0.0
C465 C 0.67184 0.198 0.06087 0.0
H466 H 0.60198 0.21064 0.04592 0.0
C467 C 0.69686 0.23247 0.06991 0.0
C468 C 0.68821 0.25954 0.06988 0.0
H469 H 0.67957 0.17791 0.06063 0.0
H470 H 0.72333 0.23805 0.0761 0.0
C471 C 0.65342 0.25097 0.06194 0.0
C472 C 0.489 0.67266 0.22625 0.0
C473 C 0.46353 0.6383 0.21649 0.0
H474 H 0.49943 0.72379 0.24155 0.0
C475 C 0.4275 0.62863 0.21703 0.0
H476 H 0.5169 0.68071 0.22667 0.0
C477 C 0.41737 0.65342 0.22571 0.0
C478 C 0.4431 0.68825 0.2341 0.0
H479 H 0.40727 0.60238 0.20951 0.0
H480 H 0.38954 0.64562 0.22485 0.0
C481 C 0.47892 0.6973 0.23494 0.0
C482 C 0.82558 0.47048 0.40842 0.0
C483 C 0.83396 0.45324 0.38419 0.0
H484 H 0.78486 0.47498 0.43316 0.0
C485 C 0.80586 0.42385 0.36859 0.0
H486 H 0.84622 0.49239 0.42184 0.0
C487 C 0.77053 0.41302 0.37614 0.0
C488 C 0.76256 0.43184 0.39885 0.0
H489 H 0.81096 0.41004 0.34956 0.0
H490 H 0.7495 0.39114 0.36297 0.0
C491 C 0.79036 0.46028 0.41526 0.0
C492 C 0.16802 0.57369 0.45486 0.0
C493 C 0.15544 0.59601 0.44409 0.0
H494 H 0.20141 0.56618 0.48778 0.0
C495 C 0.16922 0.62977 0.45813 0.0
H496 H 0.1577 0.54733 0.44496 0.0
C497 C 0.19404 0.64043 0.48305 0.0
C498 C 0.20585 0.61768 0.49435 0.0
H499 H 0.16066 0.64793 0.45003 0.0
H500 H 0.20355 0.66631 0.49376 0.0
C501 C 0.19303 0.58445 0.47957 0.0
C502 C 0.61334 0.16803 0.61969 0.0
C503 C 0.57905 0.15648 0.60772 0.0
H504 H 0.65328 0.20043 0.65385 0.0
C505 C 0.55949 0.17135 0.62045 0.0
H506 H 0.62901 0.15689 0.61068 0.0
C507 C 0.5733 0.19611 0.64539 0.0
C508 C 0.60707 0.20671 0.65814 0.0
H509 H 0.53329 0.16358 0.61136 0.0
H510 H 0.55714 0.2064 0.65511 0.0
C511 C 0.62723 0.19293 0.64456 0.0
C512 C 0.40741 0.55716 0.78716 0.0
C513 C 0.43832 0.57956 0.76971 0.0
H514 H 0.37281 0.55227 0.82573 0.0
C515 C 0.4572 0.61587 0.77742 0.0
H516 H 0.39243 0.52899 0.78214 0.0
C517 C 0.44608 0.62923 0.80266 0.0
C518 C 0.41578 0.60659 0.82073 0.0
H519 H 0.48079 0.63396 0.76411 0.0
H520 H 0.46167 0.6572 0.80837 0.0
C521 C 0.39624 0.57051 0.81232 0.0
C522 C 0.85848 0.39919 0.95656 0.0
C523 C 0.87277 0.43324 0.94308 0.0
H524 H 0.82383 0.36231 0.99179 0.0
C525 C 0.8606 0.45575 0.95431 0.0
H526 H 0.86669 0.38089 0.94807 0.0
C527 C 0.83562 0.44491 0.97908 0.0
C528 C 0.8224 0.41139 0.99338 0.0
H529 H 0.87128 0.4823 0.94476 0.0
H530 H 0.82761 0.46331 0.98774 0.0
C531 C 0.83369 0.38844 0.98148 0.0
C532 C 0.41435 0.86027 0.12074 0.0
C533 C 0.44889 0.87267 0.10903 0.0
H534 H 0.37446 0.82708 0.15459 0.0
C535 C 0.46908 0.85862 0.12201 0.0
H536 H 0.39818 0.87076 0.11153 0.0
C537 C 0.45557 0.83377 0.14691 0.0
C538 C 0.42149 0.82226 0.15934 0.0
H539 H 0.4955 0.86705 0.11313 0.0
H540 H 0.47217 0.82409 0.1568 0.0
C541 C 0.40077 0.83529 0.14555 0.0
C542 C 0.62097 0.46961 0.28815 0.0
C543 C 0.59001 0.4475 0.27065 0.0
H544 H 0.65553 0.47391 0.32655 0.0
C545 C 0.57097 0.41112 0.27805 0.0
H546 H 0.63608 0.49782 0.28336 0.0
C547 C 0.58199 0.3974 0.30306 0.0
C548 C 0.61235 0.41975 0.32119 0.0
H549 H 0.54734 0.39325 0.26468 0.0
H550 H 0.56629 0.36939 0.30855 0.0
C551 C 0.63205 0.4559 0.31307 0.0
C552 C 0.4587 0.85365 0.36936 0.0
C553 C 0.43967 0.87071 0.37791 0.0
H554 H 0.46286 0.81713 0.33765 0.0
C555 C 0.40822 0.86184 0.36126 0.0
H556 H 0.48272 0.85942 0.38205 0.0
C557 C 0.39662 0.83733 0.33609 0.0
C558 C 0.41628 0.8212 0.3268 0.0
H559 H 0.3931 0.87473 0.36689 0.0
H560 H 0.37275 0.83188 0.32331 0.0
C561 C 0.44716 0.82921 0.34406 0.0
C562 C 0.55474 0.39768 0.5249 0.0
C563 C 0.5748 0.43177 0.53827 0.0
H564 H 0.55206 0.36049 0.48977 0.0
C565 C 0.60951 0.45399 0.52695 0.0
H566 H 0.5282 0.3796 0.53346 0.0
C567 C 0.6234 0.44283 0.50223 0.0
C568 C 0.60282 0.40928 0.48803 0.0
H569 H 0.62561 0.48056 0.53638 0.0
H570 H 0.64985 0.46103 0.49351 0.0
C571 C 0.56854 0.38662 0.50001 0.0
C572 C 0.16504 0.5553 0.69355 0.0
C573 C 0.15674 0.57766 0.71132 0.0
H574 H 0.19486 0.55068 0.6549 0.0
C575 C 0.17472 0.61413 0.70425 0.0
H576 H 0.15146 0.52704 0.69812 0.0
C577 C 0.19952 0.62771 0.67928 0.0
C578 C 0.20692 0.60513 0.66081 0.0
H579 H 0.16939 0.63217 0.71784 0.0
H580 H 0.21229 0.6558 0.67403 0.0
C581 C 0.18986 0.56887 0.66863 0.0
C582 C 0.62296 0.16935 0.8626 0.0
C583 C 0.58858 0.15494 0.87533 0.0
H584 H 0.66077 0.20435 0.8282 0.0
C585 C 0.56638 0.16727 0.86364 0.0
H586 H 0.641 0.16098 0.8715 0.0
C587 C 0.57786 0.19248 0.83901 0.0
C588 C 0.61175 0.20583 0.82543 0.0
H589 H 0.53963 0.15653 0.8727 0.0
H590 H 0.5597 0.20061 0.82992 0.0
C591 C 0.63439 0.19443 0.83791 0.0
C592 C 0.41863 0.57161 0.02709 0.0
C593 C 0.45327 0.59411 0.03845 0.0
H594 H 0.37827 0.56411 0.99347 0.0
C595 C 0.47314 0.62816 0.02499 0.0
H596 H 0.40269 0.54507 0.03661 0.0
C597 C 0.45924 0.63894 -3e-05 0.0
C598 C 0.42505 0.61602 0.98796 0.0
H599 H 0.49961 0.64644 0.03358 0.0
H600 H 0.47559 0.66507 0.9897 0.0
C601 C 0.40464 0.58249 0.00222 0.0
C602 C 0.86394 0.47149 0.19374 0.0
C603 C 0.87268 0.44929 0.21122 0.0
H604 H 0.83393 0.47599 0.15522 0.0
C605 C 0.85541 0.41296 0.20364 0.0
H606 H 0.877 0.49966 0.19868 0.0
C607 C 0.83083 0.39937 0.17849 0.0
C608 C 0.82293 0.4218 0.16039 0.0
H609 H 0.8611 0.39502 0.21698 0.0
H610 H 0.81857 0.37139 0.17287 0.0
C611 C 0.83932 0.45791 0.16867 0.0
loop_
_geom_bond_atom_site_label_1
_geom_bond_atom_site_label_2
_geom_bond_distance
_geom_bond_site_symmetry_2
_ccdc_geom_bond_type
H0 C19 0.949 . S
H1 C20 0.950 . S
H2 C22 0.950 . S
H3 C23 0.950 . S
H4 C25 0.950 . S
H5 C28 0.950 . S
H6 C29 0.950 . S
H7 C31 0.951 . S
H8 C32 0.949 . S
H9 C34 0.949 . S
H10 C35 0.950 . S
H11 C37 0.950 . S
H12 C38 0.950 . S
H13 C40 0.942 1_655 S
H14 C43 0.950 . S
H15 C44 0.950 . S
H16 C46 0.951 . S
H17 C47 0.949 . S
C18 C19 1.376 . S
C18 C23 1.386 . S
C18 C24 1.483 . S
C19 H0 0.949 . S
C19 C18 1.376 . S
C19 C20 1.397 . S
C20 H1 0.950 . S
C20 C19 1.397 . S
C20 C21 1.391 . S
C21 C20 1.391 . S
C21 C22 1.405 . S
C22 H2 0.950 . S
C22 C21 1.405 . S
C22 C23 1.367 . S
C23 H3 0.950 . S
C23 C18 1.386 . S
C23 C22 1.367 . S
C24 C18 1.483 . S
C24 C25 1.382 1_655 S
C24 C26 1.403 . S
C25 H4 0.950 . S
C25 C24 1.382 1_455 S
C25 C41 1.411 . S
C26 C24 1.403 . S
C26 C27 1.489 . S
C26 C40 1.395 1_655 S
C27 C26 1.489 . S
C27 C28 1.383 . S
C27 C32 1.382 . S
C28 H5 0.950 . S
C28 C27 1.383 . S
C28 C29 1.395 . S
C29 H6 0.950 . S
C29 C28 1.395 . S
C29 C30 1.288 . S
C30 C29 1.288 . S
C30 C31 1.392 . S
C31 H7 0.951 . S
C31 C30 1.392 . S
C31 C32 1.392 . S
C32 H8 0.949 . S
C32 C27 1.382 . S
C32 C31 1.392 . S
C33 C34 1.376 . S
C33 C38 1.386 . S
C33 C39 1.483 . S
C34 H9 0.949 . S
C34 C33 1.376 . S
C34 C35 1.397 . S
C35 H10 0.950 . S
C35 C34 1.397 . S
C35 C36 1.391 . S
C36 C35 1.391 . S
C36 C37 1.405 . S
C37 H11 0.950 . S
C37 C36 1.405 . S
C37 C38 1.367 . S
C38 H12 0.950 . S
C38 C33 1.386 . S
C38 C37 1.367 . S
C39 C33 1.483 . S
C39 C40 1.406 . S
C39 C41 1.403 . S
C40 H13 0.942 1_455 S
C40 C26 1.395 1_455 S
C40 C39 1.406 . S
C41 C25 1.411 . S
C41 C39 1.403 . S
C41 C42 1.489 . S
C42 C41 1.489 . S
C42 C43 1.383 . S
C42 C47 1.382 . S
C43 H14 0.950 . S
C43 C42 1.383 . S
C43 C44 1.395 . S
C44 H15 0.950 . S
C44 C43 1.395 . S
C44 C45 1.288 . S
C45 C44 1.288 . S
C45 C46 1.392 . S
C46 H16 0.951 . S
C46 C45 1.392 . S
C46 C47 1.392 . S
C47 H17 0.949 . S
C47 C42 1.382 . S
C47 C46 1.392 . S
H48 C67 0.949 . S
H49 C68 0.950 . S
H50 C70 0.950 . S
H51 C71 0.950 . S
H52 C73 0.957 . S
H53 C76 0.950 . S
H54 C77 0.950 . S
H55 C79 0.951 . S
H56 C80 0.949 . S
H57 C82 0.949 . S
H58 C83 0.950 . S
H59 C85 0.950 . S
H60 C86 0.950 . S
H61 C88 0.950 . S
H62 C91 0.950 . S
H63 C92 0.950 . S
H64 C94 0.951 . S
H65 C95 0.949 . S
C66 C67 1.376 . S
C66 C71 1.386 . S
C66 C72 1.483 . S
C67 H48 0.949 . S
C67 C66 1.376 . S
C67 C68 1.397 . S
C68 H49 0.950 . S
C68 C67 1.397 . S
C68 C69 1.391 . S
C69 C68 1.391 . S
C69 C70 1.405 . S
C70 H50 0.950 . S
C70 C69 1.405 . S
C70 C71 1.367 . S
C71 H51 0.950 . S
C71 C66 1.386 . S
C71 C70 1.367 . S
C72 C66 1.483 . S
C72 C73 1.403 . S
C72 C74 1.403 . S
C73 H52 0.957 . S
C73 C72 1.403 . S
C73 C89 1.384 1_565 S
C74 C72 1.403 . S
C74 C75 1.489 . S
C74 C88 1.411 1_565 S
C75 C74 1.489 . S
C75 C76 1.383 . S
C75 C80 1.382 . S
C76 H53 0.950 . S
C76 C75 1.383 . S
C76 C77 1.395 . S
C77 H54 0.950 . S
C77 C76 1.395 . S
C77 C78 1.288 . S
C78 C77 1.288 . S
C78 C79 1.392 . S
C79 H55 0.951 . S
C79 C78 1.392 . S
C79 C80 1.392 . S
C80 H56 0.949 . S
C80 C75 1.382 . S
C80 C79 1.392 . S
C81 C82 1.376 . S
C81 C86 1.386 . S
C81 C87 1.483 . S
C82 H57 0.949 . S
C82 C81 1.376 . S
C82 C83 1.397 . S
C83 H58 0.950 . S
C83 C82 1.397 . S
C83 C84 1.391 . S
C84 C83 1.391 . S
C84 C85 1.405 . S
C85 H59 0.950 . S
C85 C84 1.405 . S
C85 C86 1.367 . S
C86 H60 0.950 . S
C86 C81 1.386 . S
C86 C85 1.367 . S
C87 C81 1.483 . S
C87 C88 1.382 . S
C87 C89 1.403 . S
C88 H61 0.950 . S
C88 C74 1.411 1_545 S
C88 C87 1.382 . S
C89 C73 1.384 1_545 S
C89 C87 1.403 . S
C89 C90 1.489 . S
C90 C89 1.489 . S
C90 C91 1.383 . S
C90 C95 1.382 . S
C91 H62 0.950 . S
C91 C90 1.383 . S
C91 C92 1.395 . S
C92 H63 0.950 . S
C92 C91 1.395 . S
C92 C93 1.288 . S
C93 C92 1.288 . S
C93 C94 1.392 . S
C94 H64 0.951 . S
C94 C93 1.392 . S
C94 C95 1.392 . S
C95 H65 0.949 . S
C95 C90 1.382 . S
C95 C94 1.392 . S
H96 C115 0.949 . S
H97 C116 0.950 . S
H98 C118 0.950 . S
H99 C119 0.950 . S
H100 C121 0.950 . S
H101 C124 0.950 . S
H102 C125 0.950 . S
H103 C127 0.951 . S
H104 C128 0.949 . S
H105 C130 0.949 . S
H106 C131 0.950 . S
H107 C133 0.950 . S
H108 C134 0.950 . S
H109 C136 0.950 . S
H110 C139 0.950 . S
H111 C140 0.950 . S
H112 C142 0.951 . S
H113 C143 0.949 . S
C114 C115 1.376 . S
C114 C119 1.386 . S
C114 C120 1.483 . S
C115 H96 0.949 . S
C115 C114 1.376 . S
C115 C116 1.397 . S
C116 H97 0.950 . S
C116 C115 1.397 . S
C116 C117 1.391 . S
C117 C116 1.391 . S
C117 C118 1.405 . S
C118 H98 0.950 . S
C118 C117 1.405 . S
C118 C119 1.367 . S
C119 H99 0.950 . S
C119 C114 1.386 . S
C119 C118 1.367 . S
C120 C114 1.483 . S
C120 C121 1.382 . S
C120 C122 1.403 . S
C121 H100 0.950 . S
C121 C120 1.382 . S
C121 C137 1.411 . S
C122 C120 1.403 . S
C122 C123 1.489 . S
C122 C136 1.411 . S
C123 C122 1.489 . S
C123 C124 1.383 . S
C123 C128 1.382 . S
C124 H101 0.950 . S
C124 C123 1.383 . S
C124 C125 1.395 . S
C125 H102 0.950 . S
C125 C124 1.395 . S
C125 C126 1.288 . S
C126 C125 1.288 . S
C126 C127 1.392 . S
C127 H103 0.951 . S
C127 C126 1.392 . S
C127 C128 1.392 . S
C128 H104 0.949 . S
C128 C123 1.382 . S
C128 C127 1.392 . S
C129 C130 1.376 . S
C129 C134 1.386 . S
C129 C135 1.483 . S
C130 H105 0.949 . S
C130 C129 1.376 . S
C130 C131 1.397 . S
C131 H106 0.950 . S
C131 C130 1.397 . S
C131 C132 1.391 . S
C132 C131 1.391 . S
C132 C133 1.405 . S
C133 H107 0.950 . S
C133 C132 1.405 . S
C133 C134 1.367 . S
C134 H108 0.950 . S
C134 C129 1.386 . S
C134 C133 1.367 . S
C135 C129 1.483 . S
C135 C136 1.382 . S
C135 C137 1.403 . S
C136 H109 0.950 . S
C136 C122 1.411 . S
C136 C135 1.382 . S
C137 C121 1.411 . S
C137 C135 1.403 . S
C137 C138 1.489 . S
C138 C137 1.489 . S
C138 C139 1.383 . S
C138 C143 1.382 . S
C139 H110 0.950 . S
C139 C138 1.383 . S
C139 C140 1.395 . S
C140 H111 0.950 . S
C140 C139 1.395 . S
C140 C141 1.288 . S
C141 C140 1.288 . S
C141 C142 1.392 . S
C142 H112 0.951 . S
C142 C141 1.392 . S
C142 C143 1.392 . S
C143 H113 0.949 . S
C143 C138 1.382 . S
C143 C142 1.392 . S
H144 C163 0.949 . S
H145 C164 0.950 . S
H146 C166 0.950 . S
H147 C167 0.950 . S
H148 C169 0.939 1_655 S
H149 C172 0.950 . S
H150 C173 0.950 . S
H151 C175 0.951 . S
H152 C176 0.949 . S
H153 C178 0.949 . S
H154 C179 0.950 . S
H155 C181 0.950 . S
H156 C182 0.950 . S
H157 C184 0.950 . S
H158 C187 0.950 . S
H159 C188 0.950 . S
H160 C190 0.951 . S
H161 C191 0.949 . S
C162 C163 1.376 . S
C162 C167 1.386 . S
C162 C168 1.483 . S
C163 H144 0.949 . S
C163 C162 1.376 . S
C163 C164 1.397 . S
C164 H145 0.950 . S
C164 C163 1.397 . S
C164 C165 1.391 . S
C165 C164 1.391 . S
C165 C166 1.405 . S
C166 H146 0.950 . S
C166 C165 1.405 . S
C166 C167 1.367 . S
C167 H147 0.950 . S
C167 C162 1.386 . S
C167 C166 1.367 . S
C168 C162 1.483 . S
C168 C169 1.413 . S
C168 C170 1.403 . S
C169 H148 0.939 1_455 S
C169 C168 1.413 . S
C169 C185 1.391 1_455 S
C170 C168 1.403 . S
C170 C171 1.489 . S
C170 C184 1.411 . S
C171 C170 1.489 . S
C171 C172 1.383 . S
C171 C176 1.382 . S
C172 H149 0.950 . S
C172 C171 1.383 . S
C172 C173 1.395 . S
C173 H150 0.950 . S
C173 C172 1.395 . S
C173 C174 1.288 . S
C174 C173 1.288 . S
C174 C175 1.392 . S
C175 H151 0.951 . S
C175 C174 1.392 . S
C175 C176 1.392 . S
C176 H152 0.949 . S
C176 C171 1.382 . S
C176 C175 1.392 . S
C177 C178 1.376 . S
C177 C182 1.386 . S
C177 C183 1.483 . S
C178 H153 0.949 . S
C178 C177 1.376 . S
C178 C179 1.397 . S
C179 H154 0.950 . S
C179 C178 1.397 . S
C179 C180 1.391 . S
C180 C179 1.391 . S
C180 C181 1.405 . S
C181 H155 0.950 . S
C181 C180 1.405 . S
C181 C182 1.367 . S
C182 H156 0.950 . S
C182 C177 1.386 . S
C182 C181 1.367 . S
C183 C177 1.483 . S
C183 C184 1.382 1_655 S
C183 C185 1.403 . S
C184 H157 0.950 . S
C184 C170 1.411 . S
C184 C183 1.382 1_455 S
C185 C169 1.391 1_655 S
C185 C183 1.403 . S
C185 C186 1.489 . S
C186 C185 1.489 . S
C186 C187 1.383 . S
C186 C191 1.382 . S
C187 H158 0.950 . S
C187 C186 1.383 . S
C187 C188 1.395 . S
C188 H159 0.950 . S
C188 C187 1.395 . S
C188 C189 1.288 . S
C189 C188 1.288 . S
C189 C190 1.392 . S
C190 H160 0.951 . S
C190 C189 1.392 . S
C190 C191 1.392 . S
C191 H161 0.949 . S
C191 C186 1.382 . S
C191 C190 1.392 . S
H192 C211 0.949 . S
H193 C212 0.950 . S
H194 C214 0.950 . S
H195 C215 0.950 1_556 S
H196 C217 0.950 . S
H197 C220 0.950 . S
H198 C221 0.950 . S
H199 C223 0.951 . S
H200 C224 0.949 . S
H201 C226 0.949 . S
H202 C227 0.950 . S
H203 C229 0.950 . S
H204 C230 0.950 . S
H205 C232 0.957 . S
H206 C235 0.950 . S
H207 C236 0.950 . S
H208 C238 0.951 . S
H209 C239 0.949 . S
C210 C211 1.376 . S
C210 C215 1.386 . S
C210 C216 1.478 1_554 S
C211 H192 0.949 . S
C211 C210 1.376 . S
C211 C212 1.397 . S
C212 H193 0.950 . S
C212 C211 1.397 . S
C212 C213 1.391 . S
C213 C212 1.391 . S
C213 C214 1.405 . S
C214 H194 0.950 . S
C214 C213 1.405 . S
C214 C215 1.367 . S
C215 H195 0.950 1_554 S
C215 C210 1.386 . S
C215 C214 1.367 . S
C216 C210 1.478 1_556 S
C216 C217 1.368 1_556 S
C216 C218 1.420 . S
C217 H196 0.950 . S
C217 C216 1.368 1_554 S
C217 C233 1.411 1_545 S
C218 C216 1.420 . S
C218 C219 1.489 . S
C218 C232 1.383 1_545 S
C219 C218 1.489 . S
C219 C220 1.383 . S
C219 C224 1.382 . S
C220 H197 0.950 . S
C220 C219 1.383 . S
C220 C221 1.395 . S
C221 H198 0.950 . S
C221 C220 1.395 . S
C221 C222 1.288 . S
C222 C221 1.288 . S
C222 C223 1.392 . S
C223 H199 0.951 . S
C223 C222 1.392 . S
C223 C224 1.392 . S
C224 H200 0.949 . S
C224 C219 1.382 . S
C224 C223 1.392 . S
C225 C226 1.376 . S
C225 C230 1.386 . S
C225 C231 1.483 . S
C226 H201 0.949 . S
C226 C225 1.376 . S
C226 C227 1.397 . S
C227 H202 0.950 . S
C227 C226 1.397 . S
C227 C228 1.391 . S
C228 C227 1.391 . S
C228 C229 1.405 . S
C229 H203 0.950 . S
C229 C228 1.405 . S
C229 C230 1.367 . S
C230 H204 0.950 . S
C230 C225 1.386 . S
C230 C229 1.367 . S
C231 C225 1.483 . S
C231 C232 1.404 . S
C231 C233 1.403 1_556 S
C232 H205 0.957 . S
C232 C218 1.383 1_565 S
C232 C231 1.404 . S
C233 C217 1.411 1_565 S
C233 C231 1.403 1_554 S
C233 C234 1.489 . S
C234 C233 1.489 . S
C234 C235 1.383 . S
C234 C239 1.382 . S
C235 H206 0.950 . S
C235 C234 1.383 . S
C235 C236 1.395 . S
C236 H207 0.950 . S
C236 C235 1.395 . S
C236 C237 1.288 . S
C237 C236 1.288 . S
C237 C238 1.392 . S
C238 H208 0.951 . S
C238 C237 1.392 . S
C238 C239 1.392 . S
C239 H209 0.949 . S
C239 C234 1.382 . S
C239 C238 1.392 . S
H240 C259 0.949 . S
H241 C260 0.950 . S
H242 C262 0.950 . S
H243 C263 0.950 . S
H244 C265 0.950 . S
H245 C268 0.950 . S
H246 C269 0.950 . S
H247 C271 0.951 . S
H248 C272 0.949 . S
H249 C274 0.949 . S
H250 C275 0.950 . S
H251 C277 0.950 . S
H252 C278 0.950 . S
H253 C280 0.950 . S
H254 C283 0.950 . S
H255 C284 0.950 . S
H256 C286 0.951 . S
H257 C287 0.949 . S
C258 C259 1.376 . S
C258 C263 1.386 . S
C258 C264 1.483 . S
C259 H240 0.949 . S
C259 C258 1.376 . S
C259 C260 1.397 . S
C260 H241 0.950 . S
C260 C259 1.397 . S
C260 C261 1.391 . S
C261 C260 1.391 . S
C261 C262 1.405 . S
C262 H242 0.950 . S
C262 C261 1.405 . S
C262 C263 1.367 . S
C263 H243 0.950 . S
C263 C258 1.386 . S
C263 C262 1.367 . S
C264 C258 1.483 . S
C264 C265 1.382 . S
C264 C266 1.403 . S
C265 H244 0.950 . S
C265 C264 1.382 . S
C265 C281 1.411 . S
C266 C264 1.403 . S
C266 C267 1.489 . S
C266 C280 1.411 . S
C267 C266 1.489 . S
C267 C268 1.383 . S
C267 C272 1.382 . S
C268 H245 0.950 . S
C268 C267 1.383 . S
C268 C269 1.395 . S
C269 H246 0.950 . S
C269 C268 1.395 . S
C269 C270 1.288 . S
C270 C269 1.288 . S
C270 C271 1.392 . S
C271 H247 0.951 . S
C271 C270 1.392 . S
C271 C272 1.392 . S
C272 H248 0.949 . S
C272 C267 1.382 . S
C272 C271 1.392 . S
C273 C274 1.376 . S
C273 C278 1.386 . S
C273 C279 1.483 . S
C274 H249 0.949 . S
C274 C273 1.376 . S
C274 C275 1.397 . S
C275 H250 0.950 . S
C275 C274 1.397 . S
C275 C276 1.391 . S
C276 C275 1.391 . S
C276 C277 1.405 . S
C277 H251 0.950 . S
C277 C276 1.405 . S
C277 C278 1.367 . S
C278 H252 0.950 . S
C278 C273 1.386 . S
C278 C277 1.367 . S
C279 C273 1.483 . S
C279 C280 1.382 . S
C279 C281 1.403 . S
C280 H253 0.950 . S
C280 C266 1.411 . S
C280 C279 1.382 . S
C281 C265 1.411 . S
C281 C279 1.403 . S
C281 C282 1.489 . S
C282 C281 1.489 . S
C282 C283 1.383 . S
C282 C287 1.382 . S
C283 H254 0.950 . S
C283 C282 1.383 . S
C283 C284 1.395 . S
C284 H255 0.950 . S
C284 C283 1.395 . S
C284 C285 1.288 . S
C285 C284 1.288 . S
C285 C286 1.392 . S
C286 H256 0.951 . S
C286 C285 1.392 . S
C286 C287 1.392 . S
C287 H257 0.949 . S
C287 C282 1.382 . S
C287 C286 1.392 . S
O288 Cd289 2.223 . S
O288 C296 1.315 . S
Cd289 O288 2.223 . S
Cd289 O292 2.297 . S
Cd289 O293 2.439 . S
Cd289 O299 2.240 . S
Cd290 O291 2.240 . S
Cd290 O298 2.223 . S
Cd290 O300 2.297 . S
Cd290 O301 2.439 . S
O291 Cd290 2.240 . S
O291 C296 1.279 . S
O292 Cd289 2.297 . S
O292 C294 1.247 . S
O293 Cd289 2.439 . S
O293 C294 1.208 . S
C294 O292 1.247 . S
C294 O293 1.208 . S
C295 O300 1.247 . S
C295 O301 1.208 . S
C296 O288 1.315 . S
C296 O291 1.279 . S
C297 O298 1.315 . S
C297 O299 1.279 . S
O298 Cd290 2.223 . S
O298 C297 1.315 . S
O299 Cd289 2.240 . S
O299 C297 1.279 . S
O300 Cd290 2.297 . S
O300 C295 1.247 . S
O301 Cd290 2.439 . S
O301 C295 1.208 . S
O302 Cd303 2.223 . S
O302 C310 1.315 . S
Cd303 O302 2.223 . S
Cd303 O306 2.297 . S
Cd303 O307 2.439 . S
Cd303 O313 2.240 . S
Cd304 O305 2.240 . S
Cd304 O312 2.223 . S
Cd304 O314 2.297 . S
Cd304 O315 2.439 . S
O305 Cd304 2.240 . S
O305 C310 1.279 . S
O306 Cd303 2.297 . S
O306 C308 1.247 . S
O307 Cd303 2.439 . S
O307 C308 1.208 . S
C308 O306 1.247 . S
C308 O307 1.208 . S
C309 O314 1.247 . S
C309 O315 1.208 . S
C310 O302 1.315 . S
C310 O305 1.279 . S
C311 O312 1.315 . S
C311 O313 1.279 . S
O312 Cd304 2.223 . S
O312 C311 1.315 . S
O313 Cd303 2.240 . S
O313 C311 1.279 . S
O314 Cd304 2.297 . S
O314 C309 1.247 . S
O315 Cd304 2.439 . S
O315 C309 1.208 . S
O316 Cd317 2.223 . S
O316 C324 1.315 . S
Cd317 O316 2.223 . S
Cd317 O320 2.297 . S
Cd317 O321 2.439 . S
Cd317 O327 2.240 . S
Cd318 O319 2.240 . S
Cd318 O326 2.223 . S
Cd318 O328 2.297 . S
Cd318 O329 2.439 . S
O319 Cd318 2.240 . S
O319 C324 1.279 . S
O320 Cd317 2.297 . S
O320 C322 1.247 . S
O321 Cd317 2.439 . S
O321 C322 1.208 . S
C322 O320 1.247 . S
C322 O321 1.208 . S
C323 O328 1.247 . S
C323 O329 1.208 . S
C324 O316 1.315 . S
C324 O319 1.279 . S
C325 O326 1.315 . S
C325 O327 1.279 . S
O326 Cd318 2.223 . S
O326 C325 1.315 . S
O327 Cd317 2.240 . S
O327 C325 1.279 . S
O328 Cd318 2.297 . S
O328 C323 1.247 . S
O329 Cd318 2.439 . S
O329 C323 1.208 . S
O330 Cd331 2.223 . S
O330 C338 1.315 . S
Cd331 O330 2.223 . S
Cd331 O334 2.297 . S
Cd331 O335 2.439 . S
Cd331 O341 2.240 . S
Cd332 O333 2.240 . S
Cd332 O340 2.223 . S
Cd332 O342 2.297 . S
Cd332 O343 2.439 . S
O333 Cd332 2.240 . S
O333 C338 1.279 . S
O334 Cd331 2.297 . S
O334 C336 1.247 . S
O335 Cd331 2.439 . S
O335 C336 1.208 . S
C336 O334 1.247 . S
C336 O335 1.208 . S
C337 O342 1.247 . S
C337 O343 1.208 . S
C338 O330 1.315 . S
C338 O333 1.279 . S
C339 O340 1.315 . S
C339 O341 1.279 . S
O340 Cd332 2.223 . S
O340 C339 1.315 . S
O341 Cd331 2.240 . S
O341 C339 1.279 . S
O342 Cd332 2.297 . S
O342 C337 1.247 . S
O343 Cd332 2.439 . S
O343 C337 1.208 . S
O344 Cd345 2.223 . S
O344 C352 1.315 . S
Cd345 O344 2.223 . S
Cd345 O348 2.297 . S
Cd345 O349 2.439 . S
Cd345 O355 2.240 . S
Cd346 O347 2.240 . S
Cd346 O354 2.223 . S
Cd346 O356 2.297 . S
Cd346 O357 2.439 . S
O347 Cd346 2.240 . S
O347 C352 1.279 . S
O348 Cd345 2.297 . S
O348 C350 1.247 . S
O349 Cd345 2.439 . S
O349 C350 1.208 . S
C350 O348 1.247 . S
C350 O349 1.208 . S
C351 O356 1.247 . S
C351 O357 1.208 . S
C352 O344 1.315 . S
C352 O347 1.279 . S
C353 O354 1.315 . S
C353 O355 1.279 . S
O354 Cd346 2.223 . S
O354 C353 1.315 . S
O355 Cd345 2.240 . S
O355 C353 1.279 . S
O356 Cd346 2.297 . S
O356 C351 1.247 . S
O357 Cd346 2.439 . S
O357 C351 1.208 . S
O358 Cd359 2.223 . S
O358 C366 1.315 . S
Cd359 O358 2.223 . S
Cd359 O362 2.297 . S
Cd359 O363 2.439 . S
Cd359 O369 2.240 . S
Cd360 O361 2.240 . S
Cd360 O368 2.223 . S
Cd360 O370 2.297 . S
Cd360 O371 2.439 . S
O361 Cd360 2.240 . S
O361 C366 1.279 . S
O362 Cd359 2.297 . S
O362 C364 1.247 . S
O363 Cd359 2.439 . S
O363 C364 1.208 . S
C364 O362 1.247 . S
C364 O363 1.208 . S
C365 O370 1.247 . S
C365 O371 1.208 . S
C366 O358 1.315 . S
C366 O361 1.279 . S
C367 O368 1.315 . S
C367 O369 1.279 . S
O368 Cd360 2.223 . S
O368 C367 1.315 . S
O369 Cd359 2.240 . S
O369 C367 1.279 . S
O370 Cd360 2.297 . S
O370 C365 1.247 . S
O371 Cd360 2.439 . S
O371 C365 1.208 . S
C372 C373 1.387 . S
C372 H376 0.950 . S
C372 C381 1.390 . S
C373 C372 1.387 . S
C373 C375 1.387 . S
H374 C381 0.950 . S
C375 C373 1.387 . S
C375 C377 1.390 . S
C375 H379 0.950 . S
H376 C372 0.950 . S
C377 C375 1.390 . S
C377 C378 1.387 . S
C377 H380 0.950 . S
C378 C377 1.387 . S
C378 C381 1.387 . S
H379 C375 0.950 . S
H380 C377 0.950 . S
C381 C372 1.390 . S
C381 H374 0.950 . S
C381 C378 1.387 . S
C382 C383 1.387 . S
C382 H386 0.950 . S
C382 C391 1.390 . S
C383 C382 1.387 . S
C383 C385 1.387 . S
H384 C391 0.950 . S
C385 C383 1.387 . S
C385 C387 1.390 . S
C385 H389 0.950 . S
H386 C382 0.950 . S
C387 C385 1.390 . S
C387 C388 1.387 . S
C387 H390 0.950 . S
C388 C387 1.387 . S
C388 C391 1.387 . S
H389 C385 0.950 . S
H390 C387 0.950 . S
C391 C382 1.390 . S
C391 H384 0.950 . S
C391 C388 1.387 . S
C392 C393 1.387 . S
C392 H396 0.950 . S
C392 C401 1.390 . S
C393 C392 1.387 . S
C393 C395 1.387 . S
H394 C401 0.950 . S
C395 C393 1.387 . S
C395 C397 1.390 . S
C395 H399 0.950 . S
H396 C392 0.950 . S
C397 C395 1.390 . S
C397 C398 1.387 . S
C397 H400 0.950 . S
C398 C397 1.387 . S
C398 C401 1.387 . S
H399 C395 0.950 . S
H400 C397 0.950 . S
C401 C392 1.390 . S
C401 H394 0.950 . S
C401 C398 1.387 . S
C402 C403 1.387 . S
C402 H406 0.950 . S
C402 C411 1.390 . S
C403 C402 1.387 . S
C403 C405 1.387 . S
H404 C411 0.950 . S
C405 C403 1.387 . S
C405 C407 1.390 . S
C405 H409 0.950 . S
H406 C402 0.950 . S
C407 C405 1.390 . S
C407 C408 1.387 . S
C407 H410 0.950 . S
C408 C407 1.387 . S
C408 C411 1.387 . S
H409 C405 0.950 . S
H410 C407 0.950 . S
C411 C402 1.390 . S
C411 H404 0.950 . S
C411 C408 1.387 . S
C412 C413 1.387 . S
C412 H416 0.950 . S
C412 C421 1.390 . S
C413 C412 1.387 . S
C413 C415 1.387 . S
H414 C421 0.950 . S
C415 C413 1.387 . S
C415 C417 1.390 . S
C415 H419 0.950 . S
H416 C412 0.950 . S
C417 C415 1.390 . S
C417 C418 1.387 . S
C417 H420 0.950 . S
C418 C417 1.387 . S
C418 C421 1.387 . S
H419 C415 0.950 . S
H420 C417 0.950 . S
C421 C412 1.390 . S
C421 H414 0.950 . S
C421 C418 1.387 . S
C422 C423 1.387 . S
C422 H426 0.950 . S
C422 C431 1.390 . S
C423 C422 1.387 . S
C423 C425 1.387 . S
H424 C431 0.950 . S
C425 C423 1.387 . S
C425 C427 1.390 . S
C425 H429 0.950 . S
H426 C422 0.950 . S
C427 C425 1.390 . S
C427 C428 1.387 . S
C427 H430 0.950 . S
C428 C427 1.387 . S
C428 C431 1.387 . S
H429 C425 0.950 . S
H430 C427 0.950 . S
C431 C422 1.390 . S
C431 H424 0.950 . S
C431 C428 1.387 . S
C432 C433 1.387 . S
C432 H436 0.950 . S
C432 C441 1.390 . S
C433 C432 1.387 . S
C433 C435 1.387 . S
H434 C441 0.950 . S
C435 C433 1.387 . S
C435 C437 1.390 . S
C435 H439 0.950 . S
H436 C432 0.950 . S
C437 C435 1.390 . S
C437 C438 1.387 . S
C437 H440 0.950 . S
C438 C437 1.387 . S
C438 C441 1.387 . S
H439 C435 0.950 . S
H440 C437 0.950 . S
C441 C432 1.390 . S
C441 H434 0.950 . S
C441 C438 1.387 . S
C442 C443 1.387 . S
C442 H446 0.950 . S
C442 C451 1.390 . S
C443 C442 1.387 . S
C443 C445 1.387 . S
H444 C451 0.950 . S
C445 C443 1.387 . S
C445 C447 1.390 . S
C445 H449 0.950 . S
H446 C442 0.950 . S
C447 C445 1.390 . S
C447 C448 1.387 . S
C447 H450 0.950 . S
C448 C447 1.387 . S
C448 C451 1.387 . S
H449 C445 0.950 . S
H450 C447 0.950 . S
C451 C442 1.390 . S
C451 H444 0.950 . S
C451 C448 1.387 . S
C452 C453 1.387 . S
C452 H456 0.950 . S
C452 C461 1.390 . S
C453 C452 1.387 . S
C453 C455 1.387 . S
H454 C461 0.950 . S
C455 C453 1.387 . S
C455 C457 1.390 . S
C455 H459 0.950 . S
H456 C452 0.950 . S
C457 C455 1.390 . S
C457 C458 1.387 . S
C457 H460 0.950 . S
C458 C457 1.387 . S
C458 C461 1.387 . S
H459 C455 0.950 . S
H460 C457 0.950 . S
C461 C452 1.390 . S
C461 H454 0.950 . S
C461 C458 1.387 . S
C462 C463 1.387 . S
C462 H466 0.950 1_554 S
C462 C471 1.390 . S
C463 C462 1.387 . S
C463 C465 1.387 . S
H464 C471 0.950 1_556 S
C465 C463 1.387 . S
C465 C467 1.390 . S
C465 H469 0.950 . S
H466 C462 0.950 1_556 S
C467 C465 1.390 . S
C467 C468 1.387 . S
C467 H470 0.950 . S
C468 C467 1.387 . S
C468 C471 1.387 . S
H469 C465 0.950 . S
H470 C467 0.950 . S
C471 C462 1.390 . S
C471 H464 0.950 1_554 S
C471 C468 1.387 . S
C472 C473 1.387 . S
C472 H476 0.950 . S
C472 C481 1.390 . S
C473 C472 1.387 . S
C473 C475 1.387 . S
H474 C481 0.950 . S
C475 C473 1.387 . S
C475 C477 1.390 . S
C475 H479 0.950 . S
H476 C472 0.950 . S
C477 C475 1.390 . S
C477 C478 1.387 . S
C477 H480 0.950 . S
C478 C477 1.387 . S
C478 C481 1.387 . S
H479 C475 0.950 . S
H480 C477 0.950 . S
C481 C472 1.390 . S
C481 H474 0.950 . S
C481 C478 1.387 . S
C482 C483 1.387 . S
C482 H486 0.950 . S
C482 C491 1.390 . S
C483 C482 1.387 . S
C483 C485 1.387 . S
H484 C491 0.950 . S
C485 C483 1.387 . S
C485 C487 1.390 . S
C485 H489 0.950 . S
H486 C482 0.950 . S
C487 C485 1.390 . S
C487 C488 1.387 . S
C487 H490 0.950 . S
C488 C487 1.387 . S
C488 C491 1.387 . S
H489 C485 0.950 . S
H490 C487 0.950 . S
C491 C482 1.390 . S
C491 H484 0.950 . S
C491 C488 1.387 . S
C492 C493 1.387 . S
C492 H496 0.950 . S
C492 C501 1.390 . S
C493 C492 1.387 . S
C493 C495 1.387 . S
H494 C501 0.950 . S
C495 C493 1.387 . S
C495 C497 1.390 . S
C495 H499 0.950 . S
H496 C492 0.950 . S
C497 C495 1.390 . S
C497 C498 1.387 . S
C497 H500 0.950 . S
C498 C497 1.387 . S
C498 C501 1.387 . S
H499 C495 0.950 . S
H500 C497 0.950 . S
C501 C492 1.390 . S
C501 H494 0.950 . S
C501 C498 1.387 . S
C502 C503 1.387 . S
C502 H506 0.950 . S
C502 C511 1.390 . S
C503 C502 1.387 . S
C503 C505 1.387 . S
H504 C511 0.950 . S
C505 C503 1.387 . S
C505 C507 1.390 . S
C505 H509 0.950 . S
H506 C502 0.950 . S
C507 C505 1.390 . S
C507 C508 1.387 . S
C507 H510 0.950 . S
C508 C507 1.387 . S
C508 C511 1.387 . S
H509 C505 0.950 . S
H510 C507 0.950 . S
C511 C502 1.390 . S
C511 H504 0.950 . S
C511 C508 1.387 . S
C512 C513 1.387 . S
C512 H516 0.950 . S
C512 C521 1.390 . S
C513 C512 1.387 . S
C513 C515 1.387 . S
H514 C521 0.950 . S
C515 C513 1.387 . S
C515 C517 1.390 . S
C515 H519 0.950 . S
H516 C512 0.950 . S
C517 C515 1.390 . S
C517 C518 1.387 . S
C517 H520 0.950 . S
C518 C517 1.387 . S
C518 C521 1.387 . S
H519 C515 0.950 . S
H520 C517 0.950 . S
C521 C512 1.390 . S
C521 H514 0.950 . S
C521 C518 1.387 . S
C522 C523 1.387 . S
C522 H526 0.950 . S
C522 C531 1.390 . S
C523 C522 1.387 . S
C523 C525 1.387 . S
H524 C531 0.950 1_554 S
C525 C523 1.387 . S
C525 C527 1.390 1_556 S
C525 H529 0.950 . S
H526 C522 0.950 . S
C527 C525 1.390 1_554 S
C527 C528 1.387 . S
C527 H530 0.950 . S
C528 C527 1.387 . S
C528 C531 1.387 1_554 S
H529 C525 0.950 . S
H530 C527 0.950 . S
C531 C522 1.390 . S
C531 H524 0.950 1_556 S
C531 C528 1.387 1_556 S
C532 C533 1.387 . S
C532 H536 0.950 . S
C532 C541 1.390 . S
C533 C532 1.387 . S
C533 C535 1.387 . S
H534 C541 0.950 . S
C535 C533 1.387 . S
C535 C537 1.390 . S
C535 H539 0.950 . S
H536 C532 0.950 . S
C537 C535 1.390 . S
C537 C538 1.387 . S
C537 H540 0.950 . S
C538 C537 1.387 . S
C538 C541 1.387 . S
H539 C535 0.950 . S
H540 C537 0.950 . S
C541 C532 1.390 . S
C541 H534 0.950 . S
C541 C538 1.387 . S
C542 C543 1.387 . S
C542 H546 0.950 . S
C542 C551 1.390 . S
C543 C542 1.387 . S
C543 C545 1.387 . S
H544 C551 0.950 . S
C545 C543 1.387 . S
C545 C547 1.390 . S
C545 H549 0.950 . S
H546 C542 0.950 . S
C547 C545 1.390 . S
C547 C548 1.387 . S
C547 H550 0.950 . S
C548 C547 1.387 . S
C548 C551 1.387 . S
H549 C545 0.950 . S
H550 C547 0.950 . S
C551 C542 1.390 . S
C551 H544 0.950 . S
C551 C548 1.387 . S
C552 C553 1.387 . S
C552 H556 0.950 . S
C552 C561 1.390 . S
C553 C552 1.387 . S
C553 C555 1.387 . S
H554 C561 0.950 . S
C555 C553 1.387 . S
C555 C557 1.390 . S
C555 H559 0.950 . S
H556 C552 0.950 . S
C557 C555 1.390 . S
C557 C558 1.387 . S
C557 H560 0.950 . S
C558 C557 1.387 . S
C558 C561 1.387 . S
H559 C555 0.950 . S
H560 C557 0.950 . S
C561 C552 1.390 . S
C561 H554 0.950 . S
C561 C558 1.387 . S
C562 C563 1.387 . S
C562 H566 0.950 . S
C562 C571 1.390 . S
C563 C562 1.387 . S
C563 C565 1.387 . S
H564 C571 0.950 . S
C565 C563 1.387 . S
C565 C567 1.390 . S
C565 H569 0.950 . S
H566 C562 0.950 . S
C567 C565 1.390 . S
C567 C568 1.387 . S
C567 H570 0.950 . S
C568 C567 1.387 . S
C568 C571 1.387 . S
H569 C565 0.950 . S
H570 C567 0.950 . S
C571 C562 1.390 . S
C571 H564 0.950 . S
C571 C568 1.387 . S
C572 C573 1.387 . S
C572 H576 0.950 . S
C572 C581 1.390 . S
C573 C572 1.387 . S
C573 C575 1.387 . S
H574 C581 0.950 . S
C575 C573 1.387 . S
C575 C577 1.390 . S
C575 H579 0.950 . S
H576 C572 0.950 . S
C577 C575 1.390 . S
C577 C578 1.387 . S
C577 H580 0.950 . S
C578 C577 1.387 . S
C578 C581 1.387 . S
H579 C575 0.950 . S
H580 C577 0.950 . S
C581 C572 1.390 . S
C581 H574 0.950 . S
C581 C578 1.387 . S
C582 C583 1.387 . S
C582 H586 0.950 . S
C582 C591 1.390 . S
C583 C582 1.387 . S
C583 C585 1.387 . S
H584 C591 0.950 . S
C585 C583 1.387 . S
C585 C587 1.390 . S
C585 H589 0.950 . S
H586 C582 0.950 . S
C587 C585 1.390 . S
C587 C588 1.387 . S
C587 H590 0.950 . S
C588 C587 1.387 . S
C588 C591 1.387 . S
H589 C585 0.950 . S
H590 C587 0.950 . S
C591 C582 1.390 . S
C591 H584 0.950 . S
C591 C588 1.387 . S
C592 C593 1.387 . S
C592 H596 0.950 . S
C592 C601 1.390 1_554 S
C593 C592 1.387 . S
C593 C595 1.387 . S
H594 C601 0.950 . S
C595 C593 1.387 . S
C595 C597 1.390 1_554 S
C595 H599 0.950 . S
H596 C592 0.950 . S
C597 C595 1.390 1_556 S
C597 C598 1.387 . S
C597 H600 0.950 . S
C598 C597 1.387 . S
C598 C601 1.387 . S
H599 C595 0.950 . S
H600 C597 0.950 . S
C601 C592 1.390 1_556 S
C601 H594 0.950 . S
C601 C598 1.387 . S
C602 C603 1.387 . S
C602 H606 0.950 . S
C602 C611 1.390 . S
C603 C602 1.387 . S
C603 C605 1.387 . S
H604 C611 0.950 . S
C605 C603 1.387 . S
C605 C607 1.390 . S
C605 H609 0.950 . S
H606 C602 0.950 . S
C607 C605 1.390 . S
C607 C608 1.387 . S
C607 H610 0.950 . S
C608 C607 1.387 . S
C608 C611 1.387 . S
H609 C605 0.950 . S
H610 C607 0.950 . S
C611 C602 1.390 . S
C611 H604 0.950 . S
C611 C608 1.387 . S
C378 C365 1.493 . S
C373 C45 1.522 . S
C383 C84 1.512 . S
C388 C294 1.493 . S
C393 C126 1.502 . S
C398 C308 1.494 . S
C403 C189 1.520 . S
C408 C322 1.489 . S
C418 C336 1.493 . S
C413 C228 1.514 . S
C423 C270 1.499 . S
C428 C351 1.493 . S
C433 C69 1.503 . S
C438 C309 1.493 . S
C443 C141 1.522 . S
C448 C323 1.491 . S
C453 C174 1.498 . S
C458 C337 1.493 . S
C468 C350 1.495 . S
C463 C213 1.504 . S
C478 C364 1.489 . S
C473 C285 1.521 . S
C488 C295 1.493 . S
C483 C30 1.502 . S
C493 C36 1.570 . S
C498 C311 1.537 . S
C503 C93 1.581 . S
C508 C325 1.539 . S
C518 C339 1.537 . S
C513 C117 1.556 . S
C523 C180 1.572 . S
C528 C352 1.540 . S
C538 C366 1.536 . S
C533 C237 1.578 . S
C548 C297 1.538 . S
C543 C261 1.557 . S
C558 C367 1.537 . S
C553 C78 1.541 . S
C563 C132 1.569 . S
C568 C296 1.537 . S
C578 C310 1.540 . S
C573 C165 1.558 . S
C583 C222 1.539 . S
C588 C324 1.534 . S
C593 C276 1.573 . S
C598 C338 1.540 . S
C603 C21 1.554 . S
C608 C353 1.536 . S
