# Generated by pormake.
# Topology ssa, (4,4)-cn, num edge types: 1
# Building blocks:
#     Node 0, Type 0, BuildingBlock: ESEHIV_clean_sbu_0, # of connection points: 4
#     Node 1, Type 0, BuildingBlock: ESEHIV_clean_sbu_0, # of connection points: 4
#     Node 2, Type 0, BuildingBlock: ESEHIV_clean_sbu_0, # of connection points: 4
#     Node 3, Type 0, BuildingBlock: ESEHIV_clean_sbu_0, # of connection points: 4
#     Node 4, Type 0, BuildingBlock: ESEHIV_clean_sbu_0, # of connection points: 4
#     Node 5, Type 0, BuildingBlock: ESEHIV_clean_sbu_0, # of connection points: 4
#     Node 6, Type 1, BuildingBlock: AZAVOO_clean_linker_0, # of connection points: 4
#     Node 7, Type 1, BuildingBlock: AZAVOO_clean_linker_0, # of connection points: 4
#     Node 8, Type 1, BuildingBlock: AZAVOO_clean_linker_0, # of connection points: 4
#     Node 9, Type 1, BuildingBlock: AZAVOO_clean_linker_0, # of connection points: 4
#     Node 10, Type 1, BuildingBlock: AZAVOO_clean_linker_0, # of connection points: 4
#     Node 11, Type 1, BuildingBlock: AZAVOO_clean_linker_0, # of connection points: 4
#     Edge 12, Type (0, 1), BuildingBlock: CIFDUS_clean_linker_0, # of connection points: 2
#     Edge 13, Type (0, 1), BuildingBlock: CIFDUS_clean_linker_0, # of connection points: 2
#     Edge 14, Type (0, 1), BuildingBlock: CIFDUS_clean_linker_0, # of connection points: 2
#     Edge 15, Type (0, 1), BuildingBlock: CIFDUS_clean_linker_0, # of connection points: 2
#     Edge 16, Type (0, 1), BuildingBlock: CIFDUS_clean_linker_0, # of connection points: 2
#     Edge 17, Type (0, 1), BuildingBlock: CIFDUS_clean_linker_0, # of connection points: 2
#     Edge 18, Type (0, 1), BuildingBlock: CIFDUS_clean_linker_0, # of connection points: 2
#     Edge 19, Type (0, 1), BuildingBlock: CIFDUS_clean_linker_0, # of connection points: 2
#     Edge 20, Type (0, 1), BuildingBlock: CIFDUS_clean_linker_0, # of connection points: 2
#     Edge 21, Type (0, 1), BuildingBlock: CIFDUS_clean_linker_0, # of connection points: 2
#     Edge 22, Type (0, 1), BuildingBlock: CIFDUS_clean_linker_0, # of connection points: 2
#     Edge 23, Type (0, 1), BuildingBlock: CIFDUS_clean_linker_0, # of connection points: 2
#     Edge 24, Type (0, 1), BuildingBlock: CIFDUS_clean_linker_0, # of connection points: 2
#     Edge 25, Type (0, 1), BuildingBlock: CIFDUS_clean_linker_0, # of connection points: 2
#     Edge 26, Type (0, 1), BuildingBlock: CIFDUS_clean_linker_0, # of connection points: 2
#     Edge 27, Type (0, 1), BuildingBlock: CIFDUS_clean_linker_0, # of connection points: 2
#     Edge 28, Type (0, 1), BuildingBlock: CIFDUS_clean_linker_0, # of connection points: 2
#     Edge 29, Type (0, 1), BuildingBlock: CIFDUS_clean_linker_0, # of connection points: 2
#     Edge 30, Type (0, 1), BuildingBlock: CIFDUS_clean_linker_0, # of connection points: 2
#     Edge 31, Type (0, 1), BuildingBlock: CIFDUS_clean_linker_0, # of connection points: 2
#     Edge 32, Type (0, 1), BuildingBlock: CIFDUS_clean_linker_0, # of connection points: 2
#     Edge 33, Type (0, 1), BuildingBlock: CIFDUS_clean_linker_0, # of connection points: 2
#     Edge 34, Type (0, 1), BuildingBlock: CIFDUS_clean_linker_0, # of connection points: 2
#     Edge 35, Type (0, 1), BuildingBlock: CIFDUS_clean_linker_0, # of connection points: 2
# Relax obj value: 0.079
# Max RMSD: 0.232
# Mean RMSD: 0.156
data_MOF--net-ssa--node1-ESEHIV_clean_sbu_0--node2-AZAVOO_clean_linker_0--edge1-CIFDUS_clean_linker_0
_symmetry_space_group_name_H-M    P1
_symmetry_Int_Tables_number       1
_symmetry_cell_setting            triclinic
loop_
_symmetry_equiv_pos_as_xyz
'x, y, z'
_cell_length_a     44.66984
_cell_length_b     48.409241
_cell_length_c     43.920735
_cell_angle_alpha  88.055425
_cell_angle_beta   93.967704
_cell_angle_gamma 122.71101
loop_
_atom_site_label
_atom_site_type_symbol
_atom_site_fract_x
_atom_site_fract_y
_atom_site_fract_z
_atom_type_partial_charge
Cu0 Cu 0.15305 0.57424 0.00367 0.0
N1 N 0.15879 0.55928 0.96732 0.0
N2 N 0.14147 0.52888 0.92501 0.0
C3 C 0.13167 0.54066 0.94696 0.0
C4 C 0.17622 0.54048 0.93172 0.0
C5 C 0.18698 0.55954 0.95778 0.0
O6 O 0.10766 0.5714 0.99835 0.0
C7 C 0.18782 0.55443 0.04434 0.0
O8 O 0.21418 0.57627 0.02824 0.0
H9 H 0.10456 0.53387 0.94945 0.0
H10 H 0.213 0.57135 0.96964 0.0
N11 N 0.18855 0.618 0.01149 0.0
N12 N 0.22026 0.66412 0.03884 0.0
C13 C 0.1896 0.63452 0.03588 0.0
C14 C 0.21948 0.63791 0.9982 0.0
C15 C 0.23933 0.66643 0.01527 0.0
C16 C 0.10753 0.59131 0.97865 0.0
O17 O 0.13714 0.61158 0.9652 0.0
H18 H 0.16926 0.62403 0.05233 0.0
H19 H 0.22776 0.63148 0.9785 0.0
O20 O 0.15667 0.54865 0.03756 0.0
H21 H 0.19221 0.53454 0.91939 0.0
H22 H 0.26609 0.68671 0.01133 0.0
Cu23 Cu 0.60686 0.02614 0.55695 0.0
N24 N 0.61329 0.99124 0.56226 0.0
N25 N 0.6265 0.955 0.54912 0.0
C26 C 0.62662 0.98215 0.54101 0.0
C27 C 0.61213 0.94633 0.57656 0.0
C28 C 0.60408 0.96889 0.58469 0.0
O29 O 0.59237 0.02445 0.51428 0.0
C30 C 0.68196 0.07433 0.56398 0.0
O31 O 0.68648 0.05427 0.54847 0.0
H32 H 0.6353 0.99477 0.51949 0.0
H33 H 0.59186 0.96868 0.60518 0.0
N34 N 0.57271 0.02245 0.58187 0.0
N35 N 0.5472 0.03859 0.61277 0.0
C36 C 0.57471 0.0481 0.59509 0.0
C37 C 0.54284 0.99561 0.59139 0.0
C38 C 0.52706 0.00551 0.6106 0.0
C39 C 0.56675 0.02675 0.50323 0.0
O40 O 0.55098 0.03579 0.52094 0.0
H41 H 0.5965 0.07327 0.59229 0.0
H42 H 0.53339 0.97067 0.58502 0.0
O43 O 0.65061 0.067 0.56815 0.0
H44 H 0.60779 0.9253 0.58974 0.0
H45 H 0.50263 0.98962 0.62191 0.0
Cu46 Cu 0.61459 0.51037 0.09903 0.0
N47 N 0.60763 0.46935 0.09221 0.0
N48 N 0.59195 0.42502 0.06457 0.0
C49 C 0.59007 0.45175 0.0668 0.0
C50 C 0.61155 0.42581 0.08979 0.0
C51 C 0.62118 0.45324 0.10686 0.0
O52 O 0.63706 0.53542 0.06274 0.0
C53 C 0.55594 0.48609 0.13029 0.0
O54 O 0.57206 0.47226 0.14318 0.0
H55 H 0.57781 0.45955 0.04941 0.0
H56 H 0.63784 0.4614 0.12781 0.0
N57 N 0.64305 0.53246 0.13433 0.0
N58 N 0.6593 0.56408 0.1759 0.0
C59 C 0.63642 0.55105 0.15123 0.0
C60 C 0.67136 0.53377 0.14892 0.0
C61 C 0.68166 0.55359 0.17452 0.0
C62 C 0.66724 0.53924 0.05966 0.0
O63 O 0.68059 0.52961 0.082 0.0
H64 H 0.61506 0.55501 0.14546 0.0
H65 H 0.68348 0.52104 0.14176 0.0
O66 O 0.56865 0.50348 0.10655 0.0
H67 H 0.61897 0.40824 0.09523 0.0
H68 H 0.70326 0.55917 0.19116 0.0
Cu69 Cu 0.04519 0.49416 0.53652 0.0
N70 N 0.04186 0.46944 0.50338 0.0
N71 N 0.05965 0.44543 0.4732 0.0
C72 C 0.05933 0.45403 0.50204 0.0
C73 C 0.04082 0.45517 0.45588 0.0
C74 C 0.03013 0.47019 0.47452 0.0
O75 O 0.08558 0.53873 0.53064 0.0
C76 C 0.02297 0.44291 0.57667 0.0
O77 O 1.00045 0.42829 0.55303 0.0
H78 H 0.07402 0.45175 0.52153 0.0
H79 H 0.01774 0.48344 0.46713 0.0
N80 N 0.00469 0.49577 0.53785 0.0
N81 N 0.96551 0.50317 0.55903 0.0
C82 C 0.99857 0.50866 0.5614 0.0
C83 C 0.97447 0.4815 0.51977 0.0
C84 C 0.95021 0.48611 0.53278 0.0
C85 C 0.11523 0.54453 0.52239 0.0
O86 O 0.12071 0.52047 0.52256 0.0
H87 H 0.01734 0.51998 0.58088 0.0
H88 H 0.96966 0.46737 0.49945 0.0
O89 O 0.04749 0.47317 0.57448 0.0
H90 H 0.03807 0.45454 0.43119 0.0
H91 H 0.92312 0.4767 0.52406 0.0
Cu92 Cu 0.62529 0.06491 0.10973 0.0
N93 N 0.61703 0.09871 0.10978 0.0
N94 N 0.6025 0.13342 0.09047 0.0
C95 C 0.60405 0.107 0.08515 0.0
C96 C 0.61511 0.14229 0.11963 0.0
C97 C 0.62383 0.12056 0.13164 0.0
O98 O 0.64271 0.06596 0.06987 0.0
C99 C 0.55337 0.01901 0.12606 0.0
O100 O 0.54871 0.0435 0.12242 0.0
H101 H 0.59692 0.09444 0.06339 0.0
H102 H 0.63471 0.12095 0.1545 0.0
N103 N 0.6597 0.07064 0.13986 0.0
N104 N 0.68966 0.05595 0.172 0.0
C105 C 0.66301 0.04594 0.15021 0.0
C106 C 0.68514 0.09743 0.15565 0.0
C107 C 0.70364 0.08838 0.17564 0.0
C108 C 0.67443 0.0895 0.06531 0.0
O109 O 0.69333 0.1104 0.0876 0.0
H110 H 0.64552 0.02089 0.14222 0.0
H111 H 0.6901 0.1218 0.15272 0.0
O112 O 0.58267 0.02287 0.11923 0.0
H113 H 0.61786 0.16294 0.13133 0.0
H114 H 0.72579 0.10445 0.19137 0.0
Cu115 Cu 0.52401 0.49639 0.58028 0.0
N116 N 0.52627 0.53568 0.57414 0.0
N117 N 0.54132 0.58282 0.55091 0.0
C118 C 0.54419 0.55649 0.55165 0.0
C119 C 0.5206 0.57837 0.5739 0.0
C120 C 0.51144 0.54923 0.58835 0.0
O121 O 0.50974 0.47538 0.54003 0.0
C122 C 0.58073 0.52368 0.62215 0.0
O123 O 0.56147 0.53451 0.6313 0.0
H124 H 0.55834 0.55186 0.53561 0.0
H125 H 0.4952 0.53879 0.60774 0.0
N126 N 0.49292 0.46998 0.61004 0.0
N127 N 0.47701 0.43811 0.65152 0.0
C128 C 0.49994 0.4516 0.62908 0.0
C129 C 0.46401 0.46776 0.62034 0.0
C130 C 0.45403 0.44795 0.64593 0.0
C131 C 0.47759 0.45258 0.53298 0.0
O132 O 0.45494 0.43925 0.55455 0.0
H133 H 0.52216 0.44889 0.62669 0.0
H134 H 0.4517 0.48033 0.61056 0.0
O135 O 0.57047 0.50691 0.59751 0.0
H136 H 0.51282 0.59503 0.57995 0.0
H137 H 0.4324 0.44233 0.6599 0.0
H138 H 0.35866 0.43385 0.48769 0.0
H139 H 0.08637 0.4289 0.23512 0.0
H140 H 0.38511 0.50789 0.32702 0.0
H141 H 0.42927 0.51042 0.36455 0.0
H142 H 0.38294 0.40642 0.35294 0.0
H143 H 0.33876 0.40424 0.31507 0.0
H144 H 0.33472 0.48568 0.3728 0.0
H145 H 0.34882 0.47344 0.42436 0.0
H146 H 0.28658 0.36983 0.40236 0.0
H147 H 0.2731 0.38253 0.35071 0.0
H148 H 0.26803 0.48198 0.35683 0.0
H149 H 0.22059 0.47183 0.38905 0.0
H150 H 0.1556 0.372 0.35551 0.0
H151 H 0.20362 0.38239 0.32345 0.0
H152 H 0.25808 0.5032 0.2825 0.0
H153 H 0.20634 0.50649 0.2671 0.0
H154 H 0.14262 0.40136 0.25279 0.0
H155 H 0.19467 0.39853 0.26799 0.0
H156 H 0.3262 0.51968 0.24133 0.0
H157 H 0.31215 0.53976 0.19407 0.0
H158 H 0.22424 0.44128 0.17183 0.0
H159 H 0.23897 0.42124 0.21895 0.0
H160 H 0.38802 0.51316 0.27164 0.0
H161 H 0.43205 0.52274 0.23544 0.0
H162 H 0.35416 0.43207 0.18909 0.0
H163 H 0.31063 0.42197 0.22607 0.0
O164 O 0.35166 0.43807 0.4676 0.0
O165 O 0.31628 0.38492 0.45635 0.0
O166 O 0.1412 0.48231 0.24887 0.0
O167 O 0.10724 0.42832 0.24131 0.0
C168 C 0.32513 0.45248 0.30543 0.0
C169 C 0.29794 0.44274 0.32587 0.0
C170 C 0.2662 0.44066 0.31587 0.0
C171 C 0.2616 0.44897 0.28562 0.0
C172 C 0.28826 0.45819 0.26482 0.0
C173 C 0.31998 0.45954 0.2746 0.0
C174 C 0.35893 0.45599 0.31782 0.0
C175 C 0.38577 0.48603 0.33113 0.0
C176 C 0.41083 0.48733 0.35296 0.0
C177 C 0.40937 0.45851 0.36215 0.0
C178 C 0.38451 0.42898 0.34669 0.0
C179 C 0.35961 0.42778 0.32463 0.0
C180 C 0.30305 0.43499 0.35808 0.0
C181 C 0.32392 0.46035 0.37929 0.0
C182 C 0.33201 0.45329 0.40867 0.0
C183 C 0.31899 0.42067 0.41743 0.0
C184 C 0.29709 0.39523 0.39634 0.0
C185 C 0.2892 0.40236 0.3669 0.0
C186 C 0.23907 0.43295 0.33784 0.0
C187 C 0.24383 0.45775 0.35694 0.0
C188 C 0.21677 0.45186 0.37534 0.0
C189 C 0.18441 0.4211 0.37474 0.0
C190 C 0.18018 0.39596 0.35624 0.0
C191 C 0.2075 0.4018 0.33805 0.0
C192 C 0.22999 0.45063 0.27645 0.0
C193 C 0.23289 0.48094 0.27604 0.0
C194 C 0.20332 0.48273 0.26724 0.0
C195 C 0.17031 0.45416 0.25874 0.0
C196 C 0.1676 0.42381 0.25924 0.0
C197 C 0.19722 0.42209 0.26799 0.0
C198 C 0.28364 0.46901 0.23364 0.0
C199 C 0.30452 0.5023 0.22588 0.0
C200 C 0.2963 0.51374 0.19895 0.0
C201 C 0.26682 0.49213 0.1794 0.0
C202 C 0.24676 0.45857 0.18667 0.0
C203 C 0.25532 0.44707 0.21341 0.0
C204 C 0.34643 0.46641 0.25206 0.0
C205 C 0.3806 0.49513 0.254 0.0
C206 C 0.40554 0.50076 0.23311 0.0
C207 C 0.39642 0.47811 0.20954 0.0
C208 C 0.36174 0.45004 0.20689 0.0
C209 C 0.33701 0.44416 0.22809 0.0
C210 C 0.32872 0.41334 0.44829 0.0
C211 C 0.13882 0.45591 0.24937 0.0
H212 H 0.92535 0.2969 0.01387 0.0
H213 H 0.66961 0.04088 0.78437 0.0
H214 H 0.90775 0.32185 0.85141 0.0
H215 H 0.9629 0.37339 0.86571 0.0
H216 H 0.02323 0.33981 0.82492 0.0
H217 H 0.96762 0.28748 0.81189 0.0
H218 H 0.85354 0.26619 0.8919 0.0
H219 H 0.87596 0.28071 0.94511 0.0
H220 H 0.96133 0.2667 0.92898 0.0
H221 H 0.93834 0.25181 0.87592 0.0
H222 H 0.78331 0.20639 0.85891 0.0
H223 H 0.75138 0.17581 0.90374 0.0
H224 H 0.83178 0.15362 0.92657 0.0
H225 H 0.86334 0.18395 0.88157 0.0
H226 H 0.77295 0.20455 0.78732 0.0
H227 H 0.71501 0.15432 0.77531 0.0
H228 H 0.7578 0.09636 0.80776 0.0
H229 H 0.81573 0.14681 0.81934 0.0
H230 H 0.83072 0.25962 0.74659 0.0
H231 H 0.80129 0.2399 0.69579 0.0
H232 H 0.81485 0.15802 0.70545 0.0
H233 H 0.84528 0.1786 0.75559 0.0
H234 H 0.90184 0.32109 0.7785 0.0
H235 H 0.93278 0.35468 0.73451 0.0
H236 H 0.94957 0.27969 0.70626 0.0
H237 H 0.91895 0.24644 0.75041 0.0
O238 O 0.91698 0.29116 0.99272 0.0
O239 O 0.96058 0.28397 0.98316 0.0
O240 O 0.6716 0.09206 0.7724 0.0
O241 O 0.69225 0.06112 0.7889 0.0
C242 C 0.9 0.26902 0.8238 0.0
C243 C 0.88019 0.2484 0.84795 0.0
C244 C 0.84698 0.21883 0.84155 0.0
C245 C 0.83379 0.20988 0.81095 0.0
C246 C 0.85401 0.23016 0.7868 0.0
C247 C 0.8871 0.2598 0.79316 0.0
C248 C 0.93373 0.3009 0.83081 0.0
C249 C 0.93289 0.32565 0.84556 0.0
C250 C 0.96445 0.35525 0.85337 0.0
C251 C 0.99755 0.36086 0.84628 0.0
C252 C 0.99823 0.33617 0.83093 0.0
C253 C 0.96654 0.30639 0.82331 0.0
C254 C 0.89426 0.25787 0.8801 0.0
C255 C 0.87701 0.26618 0.89994 0.0
C256 C 0.88992 0.27453 0.9303 0.0
C257 C 0.92043 0.27484 0.94132 0.0
C258 C 0.93778 0.26669 0.92125 0.0
C259 C 0.92477 0.25826 0.89093 0.0
C260 C 0.82581 0.19761 0.86706 0.0
C261 C 0.79365 0.19439 0.87328 0.0
C262 C 0.77539 0.17684 0.89883 0.0
C263 C 0.78916 0.16244 0.91877 0.0
C264 C 0.8207 0.16473 0.91181 0.0
C265 C 0.83875 0.18201 0.88614 0.0
C266 C 0.79852 0.17929 0.80414 0.0
C267 C 0.76976 0.18097 0.79173 0.0
C268 C 0.73669 0.15225 0.78495 0.0
C269 C 0.73177 0.1213 0.79057 0.0
C270 C 0.76067 0.11977 0.80315 0.0
C271 C 0.79375 0.14852 0.80985 0.0
C272 C 0.83987 0.22038 0.75478 0.0
C273 C 0.82799 0.23784 0.73737 0.0
C274 C 0.81101 0.22643 0.70848 0.0
C275 C 0.80555 0.1973 0.69663 0.0
C276 C 0.81903 0.18077 0.71366 0.0
C277 C 0.83612 0.19228 0.74244 0.0
C278 C 0.90797 0.28122 0.76762 0.0
C279 C 0.9127 0.31217 0.76307 0.0
C280 C 0.93048 0.33136 0.738 0.0
C281 C 0.94352 0.31978 0.71686 0.0
C282 C 0.93952 0.28914 0.72197 0.0
C283 C 0.92205 0.27012 0.74716 0.0
C284 C 0.93399 0.28358 0.97362 0.0
C285 C 0.69669 0.09071 0.78337 0.0
H286 H 0.71147 0.78483 0.1371 0.0
H287 H 0.7146 0.99787 0.40041 0.0
H288 H 0.63308 0.73669 0.28567 0.0
H289 H 0.63398 0.69264 0.26153 0.0
H290 H 0.73188 0.72037 0.3141 0.0
H291 H 0.73161 0.7658 0.3368 0.0
H292 H 0.65004 0.78743 0.2495 0.0
H293 H 0.66575 0.78272 0.19851 0.0
H294 H 0.77459 0.8225 0.23309 0.0
H295 H 0.75848 0.82725 0.28395 0.0
H296 H 0.64492 0.83319 0.26739 0.0
H297 H 0.64921 0.8753 0.2323 0.0
H298 H 0.75759 0.94281 0.26699 0.0
H299 H 0.75338 0.89995 0.30162 0.0
H300 H 0.63145 0.84876 0.33713 0.0
H301 H 0.62961 0.89533 0.35454 0.0
H302 H 0.74241 0.94704 0.38037 0.0
H303 H 0.74378 0.90027 0.36285 0.0
H304 H 0.61461 0.7916 0.38316 0.0
H305 H 0.60098 0.80943 0.42889 0.0
H306 H 0.71353 0.87108 0.45426 0.0
H307 H 0.72685 0.85298 0.40853 0.0
H308 H 0.61205 0.73325 0.35531 0.0
H309 H 0.59037 0.69134 0.39535 0.0
H310 H 0.69588 0.74158 0.44026 0.0
H311 H 0.71728 0.78346 0.40013 0.0
O312 O 0.70587 0.78706 0.15742 0.0
O313 O 0.76145 0.80755 0.17634 0.0
O314 O 0.65695 0.95212 0.37845 0.0
O315 O 0.7147 0.9794 0.39279 0.0
C316 C 0.68493 0.7849 0.32266 0.0
C317 C 0.6937 0.81038 0.3013 0.0
C318 C 0.69454 0.83865 0.30978 0.0
C319 C 0.68818 0.84218 0.33993 0.0
C320 C 0.68008 0.81715 0.36148 0.0
C321 C 0.6779 0.78827 0.35275 0.0
C322 C 0.68239 0.75459 0.3128 0.0
C323 C 0.65448 0.73296 0.29224 0.0
C324 C 0.65497 0.70758 0.27861 0.0
C325 C 0.68314 0.70283 0.28564 0.0
C326 C 0.71011 0.72357 0.30763 0.0
C327 C 0.7098 0.74929 0.32097 0.0
C328 C 0.70321 0.80793 0.27027 0.0
C329 C 0.67731 0.79537 0.24593 0.0
C330 C 0.68634 0.79258 0.21687 0.0
C331 C 0.72145 0.80228 0.2117 0.0
C332 C 0.74733 0.81485 0.23626 0.0
C333 C 0.73823 0.81764 0.2653 0.0
C334 C 0.69901 0.86339 0.28664 0.0
C335 C 0.66991 0.85675 0.26681 0.0
C336 C 0.67238 0.88084 0.24689 0.0
C337 C 0.7038 0.91223 0.24688 0.0
C338 C 0.73309 0.91879 0.26661 0.0
C339 C 0.73078 0.8944 0.28623 0.0
C340 C 0.68776 0.87131 0.34867 0.0
C341 C 0.65575 0.87032 0.34632 0.0
C342 C 0.65478 0.89689 0.35636 0.0
C343 C 0.68587 0.9249 0.36894 0.0
C344 C 0.718 0.92587 0.37085 0.0
C345 C 0.71891 0.89928 0.36077 0.0
C346 C 0.6717 0.82099 0.3926 0.0
C347 C 0.63621 0.80799 0.39921 0.0
C348 C 0.6285 0.81829 0.42528 0.0
C349 C 0.65623 0.84196 0.44495 0.0
C350 C 0.69166 0.85311 0.43932 0.0
C351 C 0.6993 0.8426 0.41341 0.0
C352 C 0.66622 0.76112 0.37481 0.0
C353 C 0.63054 0.73486 0.37357 0.0
C354 C 0.61817 0.71121 0.39655 0.0
C355 C 0.64142 0.71337 0.42096 0.0
C356 C 0.67746 0.73923 0.4216 0.0
C357 C 0.68972 0.76307 0.39876 0.0
C358 C 0.73094 0.79918 0.18082 0.0
C359 C 0.68483 0.95289 0.38027 0.0
H360 H 0.75883 0.5763 0.62687 0.0
H361 H 0.02363 0.53105 0.86116 0.0
H362 H 0.80007 0.60351 0.79519 0.0
H363 H 0.7512 0.60119 0.76406 0.0
H364 H 0.69533 0.49545 0.76122 0.0
H365 H 0.74411 0.49797 0.79294 0.0
H366 H 0.83948 0.60467 0.74476 0.0
H367 H 0.81178 0.60289 0.69414 0.0
H368 H 0.75818 0.4971 0.69334 0.0
H369 H 0.78603 0.49931 0.744 0.0
H370 H 0.9102 0.60466 0.75324 0.0
H371 H 0.93722 0.60195 0.70753 0.0
H372 H 0.87769 0.49611 0.7145 0.0
H373 H 0.85049 0.49916 0.7597 0.0
H374 H 0.93811 0.60796 0.83089 0.0
H375 H 0.99281 0.61018 0.84752 0.0
H376 H 0.93859 0.50568 0.83166 0.0
H377 H 0.88396 0.50381 0.81541 0.0
H378 H 0.89316 0.60478 0.87964 0.0
H379 H 0.935 0.60828 0.92075 0.0
H380 H 0.89152 0.50454 0.91076 0.0
H381 H 0.84928 0.50122 0.87047 0.0
H382 H 0.81058 0.60004 0.8522 0.0
H383 H 0.78161 0.60017 0.89776 0.0
H384 H 0.76134 0.50468 0.92221 0.0
H385 H 0.78888 0.50399 0.87615 0.0
O386 O 0.77044 0.57655 0.6464 0.0
O387 O 0.74419 0.5223 0.64679 0.0
O388 O 0.02944 0.58479 0.86112 0.0
O389 O 0.00274 0.53107 0.85364 0.0
C390 C 0.80944 0.55288 0.8044 0.0
C391 C 0.82849 0.55304 0.77988 0.0
C392 C 0.86004 0.55339 0.7856 0.0
C393 C 0.87303 0.55393 0.81578 0.0
C394 C 0.85384 0.55317 0.84052 0.0
C395 C 0.82203 0.55292 0.8349 0.0
C396 C 0.77544 0.5509 0.79678 0.0
C397 C 0.77642 0.57977 0.78933 0.0
C398 C 0.7487 0.57841 0.77112 0.0
C399 C 0.71981 0.54815 0.75977 0.0
C400 C 0.71754 0.51911 0.76931 0.0
C401 C 0.74501 0.52047 0.78793 0.0
C402 C 0.81468 0.55214 0.74793 0.0
C403 C 0.82208 0.58121 0.73341 0.0
C404 C 0.8061 0.58008 0.70458 0.0
C405 C 0.78259 0.54982 0.68977 0.0
C406 C 0.77608 0.5208 0.70413 0.0
C407 C 0.79206 0.52198 0.73296 0.0
C408 C 0.87868 0.55212 0.75971 0.0
C409 C 0.90337 0.58099 0.74495 0.0
C410 C 0.91872 0.57937 0.71895 0.0
C411 C 0.90937 0.54879 0.70732 0.0
C412 C 0.88498 0.51998 0.7226 0.0
C413 C 0.86972 0.52165 0.74856 0.0
C414 C 0.9072 0.55577 0.82182 0.0
C415 C 0.9383 0.58569 0.83059 0.0
C416 C 0.96943 0.58684 0.84021 0.0
C417 C 0.97003 0.55806 0.84106 0.0
C418 C 0.93904 0.52828 0.83135 0.0
C419 C 0.90788 0.52717 0.8218 0.0
C420 C 0.86828 0.55279 0.87197 0.0
C421 C 0.89146 0.58253 0.88744 0.0
C422 C 0.91575 0.58454 0.91058 0.0
C423 C 0.91726 0.55684 0.91853 0.0
C424 C 0.89114 0.52634 0.90536 0.0
C425 C 0.86679 0.52435 0.88235 0.0
C426 C 0.8019 0.55201 0.86084 0.0
C427 C 0.79904 0.57878 0.86694 0.0
C428 C 0.7826 0.57889 0.89292 0.0
C429 C 0.76942 0.55248 0.91337 0.0
C430 C 0.77143 0.52536 0.90676 0.0
C431 C 0.78724 0.525 0.88059 0.0
C432 C 0.76458 0.5486 0.65968 0.0
C433 C 0.0026 0.55893 0.8525 0.0
H434 H 0.33964 0.83782 0.52136 0.0
H435 H 0.18036 0.5756 0.27854 0.0
H436 H 0.33696 0.86297 0.36323 0.0
H437 H 0.38123 0.91442 0.38826 0.0
H438 H 0.46469 0.91127 0.34702 0.0
H439 H 0.42023 0.85767 0.32539 0.0
H440 H 0.28573 0.79823 0.39489 0.0
H441 H 0.29844 0.81302 0.44906 0.0
H442 H 0.40406 0.83138 0.44385 0.0
H443 H 0.39083 0.8161 0.38979 0.0
H444 H 0.23351 0.73231 0.35799 0.0
H445 H 0.20168 0.68884 0.39542 0.0
H446 H 0.30023 0.6968 0.42561 0.0
H447 H 0.33154 0.73957 0.3876 0.0
H448 H 0.23332 0.73349 0.28415 0.0
H449 H 0.1886 0.67702 0.26814 0.0
H450 H 0.25597 0.64535 0.30918 0.0
H451 H 0.3006 0.70195 0.32476 0.0
H452 H 0.28703 0.7986 0.24702 0.0
H453 H 0.27752 0.78332 0.1929 0.0
H454 H 0.32291 0.72472 0.212 0.0
H455 H 0.33285 0.74056 0.26582 0.0
H456 H 0.34587 0.8697 0.28631 0.0
H457 H 0.38244 0.91052 0.24878 0.0
H458 H 0.42227 0.85049 0.22512 0.0
H459 H 0.38834 0.81169 0.26471 0.0
O460 O 0.33511 0.83187 0.49995 0.0
O461 O 0.38918 0.84115 0.49602 0.0
O462 O 0.16395 0.61568 0.26383 0.0
O463 O 0.19759 0.59814 0.28456 0.0
C464 C 0.34859 0.8217 0.33311 0.0
C465 C 0.32967 0.79742 0.35542 0.0
C466 C 0.304 0.76467 0.34648 0.0
C467 C 0.29725 0.75611 0.3152 0.0
C468 C 0.31668 0.78007 0.29298 0.0
C469 C 0.34261 0.81287 0.30183 0.0
C470 C 0.3753 0.85611 0.34303 0.0
C471 C 0.36486 0.87346 0.35962 0.0
C472 C 0.39038 0.90332 0.37358 0.0
C473 C 0.427 0.91715 0.37032 0.0
C474 C 0.43701 0.90104 0.35115 0.0
C475 C 0.41151 0.87054 0.33821 0.0
C476 C 0.33735 0.8061 0.38843 0.0
C477 C 0.31151 0.80527 0.40555 0.0
C478 C 0.31889 0.81383 0.43646 0.0
C479 C 0.35229 0.82343 0.45079 0.0
C480 C 0.37808 0.82413 0.43353 0.0
C481 C 0.37063 0.81546 0.40265 0.0
C482 C 0.28483 0.73906 0.36999 0.0
C483 C 0.24817 0.72465 0.37274 0.0
C484 C 0.23012 0.70002 0.39432 0.0
C485 C 0.24838 0.68929 0.41356 0.0
C486 C 0.28525 0.70418 0.41096 0.0
C487 C 0.30325 0.72877 0.38939 0.0
C488 C 0.27012 0.72176 0.30567 0.0
C489 C 0.23837 0.71431 0.2896 0.0
C490 C 0.21287 0.68205 0.28052 0.0
C491 C 0.2187 0.65664 0.28742 0.0
C492 C 0.25061 0.66428 0.30353 0.0
C493 C 0.27611 0.69657 0.31253 0.0
C494 C 0.31043 0.77052 0.26029 0.0
C495 C 0.29495 0.78253 0.23942 0.0
C496 C 0.28951 0.77375 0.20861 0.0
C497 C 0.29962 0.75294 0.19822 0.0
C498 C 0.31534 0.74117 0.21924 0.0
C499 C 0.32064 0.74986 0.25001 0.0
C500 C 0.36424 0.83756 0.27832 0.0
C501 C 0.36281 0.86559 0.2732 0.0
C502 C 0.38346 0.88873 0.25134 0.0
C503 C 0.40549 0.88403 0.23354 0.0
C504 C 0.40637 0.85557 0.23858 0.0
C505 C 0.38646 0.83295 0.26096 0.0
C506 C 0.3601 0.8327 0.48359 0.0
C507 C 0.19169 0.62232 0.27785 0.0
H508 H 0.52593 0.28988 0.62853 0.0
H509 H 0.49601 0.03712 0.88523 0.0
H510 H 0.57144 0.31862 0.8149 0.0
H511 H 0.56831 0.36295 0.79021 0.0
H512 H 0.45801 0.2933 0.76117 0.0
H513 H 0.46072 0.25005 0.78833 0.0
H514 H 0.56531 0.28117 0.75663 0.0
H515 H 0.55887 0.29298 0.70284 0.0
H516 H 0.4518 0.20665 0.69696 0.0
H517 H 0.45843 0.19539 0.75091 0.0
H518 H 0.5684 0.21565 0.76151 0.0
H519 H 0.56865 0.17802 0.7259 0.0
H520 H 0.46192 0.10247 0.74889 0.0
H521 H 0.46227 0.14027 0.78484 0.0
H522 H 0.57621 0.18906 0.82878 0.0
H523 H 0.57842 0.14112 0.84449 0.0
H524 H 0.46877 0.09094 0.86873 0.0
H525 H 0.46691 0.13894 0.85269 0.0
H526 H 0.58728 0.23799 0.88473 0.0
H527 H 0.59507 0.22007 0.93592 0.0
H528 H 0.48119 0.16624 0.94412 0.0
H529 H 0.47372 0.18462 0.89301 0.0
H530 H 0.59087 0.29782 0.86311 0.0
H531 H 0.60741 0.3329 0.90789 0.0
H532 H 0.49611 0.28542 0.92576 0.0
H533 H 0.47984 0.25093 0.88021 0.0
O534 O 0.52793 0.2847 0.64976 0.0
O535 O 0.47318 0.23986 0.64784 0.0
O536 O 0.55209 0.08312 0.86574 0.0
O537 O 0.49585 0.05635 0.87873 0.0
C538 C 0.51961 0.25302 0.81313 0.0
C539 C 0.51604 0.2309 0.79056 0.0
C540 C 0.51671 0.20285 0.79923 0.0
C541 C 0.52036 0.1966 0.83041 0.0
C542 C 0.52483 0.21898 0.85279 0.0
C543 C 0.52534 0.2476 0.84423 0.0
C544 C 0.51627 0.28106 0.80361 0.0
C545 C 0.5462 0.31327 0.80439 0.0
C546 C 0.5445 0.33849 0.78961 0.0
C547 C 0.51308 0.33183 0.77301 0.0
C548 C 0.48259 0.29977 0.77388 0.0
C549 C 0.48411 0.27481 0.7893 0.0
C550 C 0.51232 0.23747 0.75767 0.0
C551 C 0.54047 0.26489 0.74369 0.0
C552 C 0.53673 0.27154 0.71295 0.0
C553 C 0.50481 0.25077 0.69559 0.0
C554 C 0.47674 0.22315 0.70966 0.0
C555 C 0.48048 0.21659 0.74044 0.0
C556 C 0.51534 0.18069 0.77575 0.0
C557 C 0.54494 0.19109 0.75856 0.0
C558 C 0.54495 0.16954 0.73815 0.0
C559 C 0.51531 0.13713 0.73453 0.0
C560 C 0.48538 0.12707 0.7514 0.0
C561 C 0.48541 0.14866 0.77181 0.0
C562 C 0.52144 0.16739 0.83968 0.0
C563 C 0.55271 0.16763 0.83743 0.0
C564 C 0.55389 0.14026 0.84645 0.0
C565 C 0.52376 0.1122 0.85791 0.0
C566 C 0.49244 0.11212 0.86004 0.0
C567 C 0.4913 0.13949 0.85094 0.0
C568 C 0.52996 0.2125 0.88531 0.0
C569 C 0.56417 0.22303 0.89795 0.0
C570 C 0.56855 0.21286 0.92714 0.0
C571 C 0.53869 0.19167 0.94387 0.0
C572 C 0.50459 0.18242 0.93161 0.0
C573 C 0.50029 0.19294 0.90258 0.0
C574 C 0.53415 0.2723 0.86809 0.0
C575 C 0.57002 0.29566 0.87622 0.0
C576 C 0.57943 0.31531 0.9021 0.0
C577 C 0.55312 0.31176 0.92066 0.0
C578 C 0.51702 0.28902 0.91184 0.0
C579 C 0.50764 0.26936 0.8858 0.0
C580 C 0.50088 0.25799 0.66297 0.0
C581 C 0.5249 0.0831 0.86765 0.0
H582 H 0.25181 0.56403 0.0626 0.0
H583 H 0.14133 0.50813 0.08428 0.0
H584 H 0.15577 0.48288 0.1274 0.0
H585 H 0.20053 0.47807 0.15979 0.0
H586 H 0.31076 0.53511 0.13746 0.0
H587 H 0.2956 0.55862 0.09369 0.0
C588 C 0.23071 0.54626 0.07662 0.0
C589 C 0.19548 0.53806 0.07016 0.0
C590 C 0.23924 0.5321 0.10133 0.0
C591 C 0.16866 0.51494 0.08871 0.0
C592 C 0.17693 0.50051 0.11337 0.0
C593 C 0.22111 0.49537 0.1451 0.0
C594 C 0.25678 0.50488 0.15191 0.0
C595 C 0.2122 0.50904 0.11999 0.0
C596 C 0.28323 0.52764 0.13292 0.0
C597 C 0.27456 0.54102 0.10784 0.0
H598 H 0.68097 0.11995 0.59721 0.0
H599 H 0.7512 0.09076 0.57039 0.0
H600 H 0.79786 0.12978 0.60692 0.0
H601 H 0.81572 0.16696 0.65084 0.0
H602 H 0.74345 0.19306 0.6792 0.0
H603 H 0.70094 0.16099 0.63731 0.0
C604 C 0.70666 0.12242 0.59897 0.0
C605 C 0.71236 0.10205 0.58145 0.0
C606 C 0.73298 0.14427 0.62046 0.0
C607 C 0.74598 0.10595 0.58375 0.0
C608 C 0.77263 0.12815 0.60476 0.0
C609 C 0.79079 0.16583 0.64766 0.0
C610 C 0.7827 0.18217 0.66831 0.0
C611 C 0.76594 0.14656 0.62397 0.0
C612 C 0.75058 0.18101 0.66354 0.0
C613 C 0.72605 0.1624 0.63973 0.0
H614 H 0.71563 0.61751 0.20378 0.0
H615 H 0.60101 0.55583 0.1994 0.0
H616 H 0.59838 0.59177 0.23529 0.0
H617 H 0.62834 0.64217 0.26575 0.0
H618 H 0.74287 0.70696 0.26676 0.0
H619 H 0.74595 0.66809 0.23534 0.0
C620 C 0.69022 0.61185 0.21109 0.0
C621 C 0.65855 0.58414 0.19895 0.0
C622 C 0.68889 0.6332 0.23119 0.0
C623 C 0.62568 0.57717 0.20826 0.0
C624 C 0.62418 0.59769 0.2288 0.0
C625 C 0.65403 0.64801 0.25901 0.0
C626 C 0.68526 0.67772 0.26867 0.0
C627 C 0.65557 0.6261 0.23999 0.0
C628 C 0.71832 0.6842 0.26018 0.0
C629 C 0.72013 0.66208 0.24188 0.0
H630 H 0.99852 0.55198 0.60057 0.0
H631 H 0.89518 0.46986 0.56968 0.0
H632 H 0.8683 0.47818 0.61205 0.0
H633 H 0.87481 0.50641 0.65978 0.0
H634 H 0.97866 0.58678 0.69204 0.0
H635 H 0.00473 0.58148 0.64723 0.0
C636 C 0.97013 0.53585 0.60313 0.0
C637 C 0.94902 0.51013 0.58211 0.0
C638 C 0.95499 0.54034 0.62789 0.0
C639 C 0.91209 0.48998 0.58534 0.0
C640 C 0.89672 0.49454 0.60974 0.0
C641 C 0.90318 0.52267 0.65705 0.0
C642 C 0.92483 0.54674 0.67933 0.0
C643 C 0.91803 0.51923 0.63146 0.0
C644 C 0.96139 0.56815 0.67514 0.0
C645 C 0.97634 0.56503 0.64961 0.0
H646 H 0.48516 0.99853 0.13768 0.0
H647 H 0.56401 0.9733 0.15358 0.0
H648 H 0.52522 0.92932 0.18777 0.0
H649 H 0.47124 0.90097 0.21622 0.0
H650 H 0.39025 0.92332 0.19777 0.0
H651 H 0.42807 0.96599 0.16225 0.0
C652 C 0.49368 0.98315 0.14833 0.0
C653 C 0.52758 0.98942 0.14315 0.0
C654 C 0.47118 0.95776 0.16802 0.0
C655 C 0.53806 0.96906 0.15701 0.0
C656 C 0.51596 0.94399 0.17678 0.0
C657 C 0.46127 0.91452 0.20404 0.0
C658 C 0.42782 0.90887 0.21026 0.0
C659 C 0.48274 0.9385 0.18288 0.0
C660 C 0.41614 0.92748 0.19436 0.0
C661 C 0.43765 0.95177 0.17369 0.0
H662 H 0.53456 0.43753 0.67398 0.0
H663 H 0.423 0.39539 0.68679 0.0
H664 H 0.42517 0.36104 0.72787 0.0
H665 H 0.45803 0.34087 0.75815 0.0
H666 H 0.56796 0.37956 0.74057 0.0
H667 H 0.56707 0.41762 0.70373 0.0
C668 C 0.51047 0.4206 0.68534 0.0
C669 C 0.47847 0.41881 0.67676 0.0
C670 C 0.51168 0.40038 0.70836 0.0
C671 C 0.44802 0.39743 0.6928 0.0
C672 C 0.44921 0.37762 0.71624 0.0
C673 C 0.48179 0.35743 0.74619 0.0
C674 C 0.51302 0.35709 0.75247 0.0
C675 C 0.48078 0.37854 0.72389 0.0
C676 C 0.54368 0.37945 0.73701 0.0
C677 C 0.54313 0.40107 0.71551 0.0
H678 H 0.59821 0.88973 0.54497 0.0
H679 H 0.68152 0.98383 0.51266 0.0
H680 H 0.69929 0.95696 0.47875 0.0
H681 H 0.68916 0.90691 0.45618 0.0
H682 H 0.60506 0.81232 0.48686 0.0
H683 H 0.58959 0.83905 0.52356 0.0
C684 C 0.62056 0.90425 0.53083 0.0
C685 C 0.63842 0.93871 0.5312 0.0
C686 C 0.63037 0.88855 0.51101 0.0
C687 C 0.66708 0.95728 0.51247 0.0
C688 C 0.67733 0.94194 0.49315 0.0
C689 C 0.6679 0.89211 0.47133 0.0
C690 C 0.64848 0.85769 0.46902 0.0
C691 C 0.65889 0.90762 0.49194 0.0
C692 C 0.62037 0.83887 0.48822 0.0
C693 C 0.61155 0.85415 0.50919 0.0
H694 H 0.72961 0.54654 0.04853 0.0
H695 H 0.64359 0.55196 0.00435 0.0
H696 H 0.6693 0.55922 0.95482 0.0
H697 H 0.71389 0.55916 0.92367 0.0
H698 H 0.79643 0.54945 0.96915 0.0
H699 H 0.77432 0.54858 0.01866 0.0
C700 C 0.71649 0.54961 0.02818 0.0
C701 C 0.68456 0.54849 0.03018 0.0
C702 C 0.73069 0.55265 0.99995 0.0
C703 C 0.66821 0.55274 0.00349 0.0
C704 C 0.6828 0.55669 0.97515 0.0
C705 C 0.72706 0.55717 0.94454 0.0
C706 C 0.75654 0.55413 0.94295 0.0
C707 C 0.71362 0.55591 0.97302 0.0
C708 C 0.77349 0.55147 0.96996 0.0
C709 C 0.76092 0.55105 0.99821 0.0
H710 H 0.17442 0.56045 0.4934 0.0
H711 H 0.11197 0.59945 0.51687 0.0
H712 H 0.14853 0.6483 0.48631 0.0
H713 H 0.19598 0.67842 0.45032 0.0
H714 H 0.25673 0.63805 0.42572 0.0
H715 H 0.22333 0.59155 0.45949 0.0
C716 C 0.16904 0.57979 0.49222 0.0
C717 C 0.14033 0.57612 0.5074 0.0
C718 C 0.18977 0.60757 0.47418 0.0
C719 C 0.13382 0.60152 0.50544 0.0
C720 C 0.15464 0.62944 0.48784 0.0
C721 C 0.20187 0.65941 0.45231 0.0
C722 C 0.22885 0.6618 0.43538 0.0
C723 C 0.18224 0.63243 0.4716 0.0
C724 C 0.23645 0.63715 0.43867 0.0
C725 C 0.2172 0.61038 0.45788 0.0
H726 H 0.54857 0.10415 0.04813 0.0
H727 H 0.63245 0.19875 0.08335 0.0
H728 H 0.61862 0.22592 0.04169 0.0
H729 H 0.58558 0.22217 0.9928 0.0
H730 H 0.50151 0.12702 0.95826 0.0
H731 H 0.51224 0.10056 1.00215 0.0
C732 C 0.5636 0.13072 0.04671 0.0
C733 C 0.59169 0.14949 0.06843 0.0
C734 C 0.55551 0.14598 0.02279 0.0
C735 C 0.61064 0.18389 0.06685 0.0
C736 C 0.60288 0.19936 0.04296 0.0
C737 C 0.56947 0.19568 0.99513 0.0
C738 C 0.54287 0.17654 0.97236 0.0
C739 C 0.57585 0.18059 0.02043 0.0
C740 C 0.52189 0.14226 0.97567 0.0
C741 C 0.52817 0.12711 1.00063 0.0
H742 H 0.50864 0.48958 0.48258 0.0
H743 H 0.41478 0.39985 0.51058 0.0
H744 H 0.38689 0.39212 0.45921 0.0
H745 H 0.38628 0.41386 0.40815 0.0
H746 H 0.47912 0.50428 0.38002 0.0
H747 H 0.51011 0.50873 0.42954 0.0
C748 C 0.4824 0.46797 0.47728 0.0
C749 C 0.46383 0.44538 0.50053 0.0
C750 C 0.46605 0.46403 0.44773 0.0
C751 C 0.42967 0.4177 0.49323 0.0
C752 C 0.4136 0.4133 0.46384 0.0
C753 C 0.41363 0.43411 0.41248 0.0
C754 C 0.43027 0.45872 0.39029 0.0
C755 C 0.43112 0.43674 0.44114 0.0
C756 C 0.46551 0.48514 0.39672 0.0
C757 C 0.48328 0.48768 0.42505 0.0
H758 H 0.14001 0.4745 0.91155 0.0
H759 H 0.08815 0.52693 0.89087 0.0
H760 H 0.04048 0.48024 0.86088 0.0
H761 H 0.01063 0.42268 0.84542 0.0
H762 H 0.05984 0.36841 0.87018 0.0
H763 H 0.11197 0.41781 0.89286 0.0
C764 C 0.11872 0.47588 0.89977 0.0
C765 C 0.1174 0.50393 0.90327 0.0
C766 C 0.09085 0.44853 0.88352 0.0
C767 C 0.08944 0.50541 0.88843 0.0
C768 C 0.06223 0.47875 0.87143 0.0
C769 C 0.03278 0.42164 0.85573 0.0
C770 C 0.03107 0.39175 0.8564 0.0
C771 C 0.06209 0.44981 0.86966 0.0
C772 C 0.06045 0.39109 0.86915 0.0
C773 C 0.09019 0.41928 0.88237 0.0
H774 H 0.03794 0.54594 0.99187 0.0
H775 H 0.10354 0.63583 0.94261 0.0
H776 H 0.05084 0.63405 0.92159 0.0
H777 H 0.98642 0.60551 0.91402 0.0
H778 H 0.91923 0.5157 0.9625 0.0
H779 H 0.9721 0.51891 0.98681 0.0
C780 C 0.04065 0.56531 0.97686 0.0
C781 C 0.07478 0.59085 0.96876 0.0
C782 C 0.00993 0.56412 0.9645 0.0
C783 C 0.07773 0.61571 0.94915 0.0
C784 C 0.04755 0.61479 0.93705 0.0
C785 C 0.98317 0.58705 0.93053 0.0
C786 C 0.94879 0.56055 0.93655 0.0
C787 C 0.01355 0.58892 0.94419 0.0
C788 C 0.94535 0.53634 0.95734 0.0
C789 C 0.9756 0.53817 0.97126 0.0
H790 H 0.513 0.02771 0.47037 0.0
H791 H 0.58237 0.9913 0.46829 0.0
H792 H 0.54701 0.95649 0.4249 0.0
H793 H 0.49195 0.93042 0.3932 0.0
H794 H 0.42415 0.96887 0.39152 0.0
H795 H 0.46324 0.00844 0.43115 0.0
C796 C 0.52077 0.01265 0.46002 0.0
C797 C 0.54986 0.01167 0.47305 0.0
C798 C 0.50025 0.9925 0.43486 0.0
C799 C 0.55992 0.99239 0.45903 0.0
C800 C 0.53958 0.97227 0.43423 0.0
C801 C 0.48604 0.94805 0.40043 0.0
C802 C 0.45434 0.94577 0.38961 0.0
C803 C 0.50899 0.97126 0.42272 0.0
C804 C 0.44752 0.96897 0.40006 0.0
C805 C 0.47006 0.9919 0.42262 0.0
H806 H 0.61978 0.39193 0.04428 0.0
H807 H 0.53414 0.40796 0.02672 0.0
H808 H 0.51411 0.37398 0.98082 0.0
H809 H 0.52228 0.34138 0.94443 0.0
H810 H 0.60745 0.32466 0.96245 0.0
H811 H 0.62625 0.35717 0.00919 0.0
C812 C 0.59643 0.38759 0.03068 0.0
C813 C 0.57865 0.40268 0.03892 0.0
C814 C 0.58513 0.36811 0.00414 0.0
C815 C 0.54867 0.39708 0.02072 0.0
C816 C 0.53711 0.37754 0.99448 0.0
C817 C 0.54472 0.34455 0.95874 0.0
C818 C 0.56359 0.33083 0.94967 0.0
C819 C 0.55537 0.36322 0.98575 0.0
C820 C 0.59283 0.33548 0.96845 0.0
C821 C 0.60348 0.3539 0.99536 0.0
H822 H 0.04972 0.41236 0.42154 0.0
H823 H 0.12309 0.45944 0.49973 0.0
H824 H 0.16668 0.45218 0.47749 0.0
H825 H 0.18686 0.43842 0.43332 0.0
H826 H 0.11512 0.3938 0.35386 0.0
H827 H 0.06804 0.39385 0.3791 0.0
C828 C 0.07513 0.42074 0.43379 0.0
C829 C 0.08306 0.43663 0.46214 0.0
C830 C 0.10055 0.41715 0.42052 0.0
C831 C 0.11592 0.44685 0.47803 0.0
C832 C 0.14113 0.44301 0.46517 0.0
C833 C 0.16078 0.42843 0.42169 0.0
C834 C 0.15453 0.41645 0.39173 0.0
C835 C 0.13414 0.4291 0.43608 0.0
C836 C 0.12049 0.40303 0.37703 0.0
C837 C 0.09367 0.40329 0.39134 0.0
H838 H 0.74406 0.12351 0.05403 0.0
H839 H 0.63907 0.06948 0.00881 0.0
H840 H 0.6653 0.0862 0.95899 0.0
H841 H 0.71837 0.11955 0.92855 0.0
H842 H 0.82287 0.17291 0.97498 0.0
H843 H 0.79656 0.15289 0.02401 0.0
C844 C 0.72688 0.11513 0.03327 0.0
C845 C 0.68968 0.09553 0.0351 0.0
C846 C 0.7421 0.12486 0.00491 0.0
C847 C 0.6678 0.08452 0.008 0.0
C848 C 0.6828 0.09426 0.97954 0.0
C849 C 0.7353 0.12661 0.94943 0.0
C850 C 0.77255 0.14775 0.94808 0.0
C851 C 0.71993 0.11497 0.97773 0.0
C852 C 0.7942 0.15642 0.97529 0.0
C853 C 0.77917 0.14514 0.00339 0.0
H854 H 0.60262 0.60682 0.52358 0.0
H855 H 0.51378 0.61807 0.52917 0.0
H856 H 0.53731 0.6601 0.48944 0.0
H857 H 0.58214 0.69217 0.45184 0.0
H858 H 0.67081 0.68056 0.44641 0.0
H859 H 0.64823 0.6399 0.48728 0.0
C860 C 0.58833 0.61837 0.516 0.0
C861 C 0.55634 0.60914 0.52909 0.0
C862 C 0.60191 0.64229 0.49312 0.0
C863 C 0.53855 0.62488 0.51958 0.0
C864 C 0.55187 0.64873 0.49673 0.0
C865 C 0.59636 0.68056 0.45954 0.0
C866 C 0.62792 0.6891 0.44602 0.0
C867 C 0.58331 0.65735 0.48311 0.0
C868 C 0.64652 0.67442 0.45656 0.0
C869 C 0.63358 0.65114 0.47984 0.0
H870 H 0.51443 0.02372 0.6658 0.0
H871 H 0.56747 0.10122 0.60018 0.0
H872 H 0.5614 0.13829 0.63163 0.0
H873 H 0.54226 0.14921 0.67829 0.0
H874 H 0.49045 0.07224 0.74471 0.0
H875 H 0.49395 0.03432 0.71212 0.0
C876 C 0.52425 0.04858 0.65822 0.0
C877 C 0.5416 0.05968 0.63073 0.0
C878 C 0.5208 0.06989 0.67654 0.0
C879 C 0.55454 0.09215 0.62144 0.0
C880 C 0.55092 0.11335 0.63936 0.0
C881 C 0.53189 0.12419 0.68575 0.0
C882 C 0.51616 0.1137 0.71399 0.0
C883 C 0.53446 0.10261 0.66711 0.0
C884 C 0.5023 0.08096 0.72295 0.0
C885 C 0.50452 0.05928 0.70441 0.0
H886 H 0.49504 0.48348 0.10937 0.0
H887 H 0.55948 0.49281 0.19098 0.0
H888 H 0.51739 0.49399 0.22229 0.0
H889 H 0.46081 0.48921 0.22715 0.0
H890 H 0.39274 0.47527 0.14702 0.0
H891 H 0.43727 0.47883 0.11449 0.0
C892 C 0.49976 0.48596 0.13397 0.0
C893 C 0.53015 0.48794 0.14789 0.0
C894 C 0.47469 0.48557 0.15212 0.0
C895 C 0.53603 0.49091 0.17979 0.0
C896 C 0.51205 0.49167 0.19775 0.0
C897 C 0.45599 0.48744 0.20252 0.0
C898 C 0.42384 0.48228 0.18941 0.0
C899 C 0.4811 0.48857 0.18424 0.0
C900 C 0.41745 0.47927 0.15754 0.0
C901 C 0.44286 0.4813 0.13899 0.0
H902 H 0.98323 0.37724 0.58438 0.0
H903 H 0.04772 0.46806 0.63469 0.0
H904 H 0.02987 0.43787 0.68288 0.0
H905 H 0.99248 0.38567 0.71052 0.0
H906 H 0.92827 0.29547 0.65912 0.0
H907 H 0.94959 0.3254 0.61162 0.0
C908 C 0.99369 0.39048 0.60588 0.0
C909 C 0.01657 0.42488 0.60593 0.0
C910 C 0.98316 0.37303 0.63333 0.0
C911 C 0.03015 0.44157 0.634 0.0
C912 C 0.01975 0.42432 0.66156 0.0
C913 C 0.9833 0.37263 0.6889 0.0
C914 C 0.95876 0.33836 0.6884 0.0
C915 C 0.99569 0.39008 0.66149 0.0
C916 C 0.94741 0.32174 0.66022 0.0
C917 C 0.95943 0.33886 0.633 0.0
H918 H 0.68184 1.00052 0.15165 0.0
H919 H 0.71989 0.06531 0.22957 0.0
H920 H 0.73123 0.02773 0.259 0.0
H921 H 0.72505 0.97395 0.26389 0.0
H922 H 0.68411 0.90836 0.18642 0.0
H923 H 0.67876 0.9486 0.15553 0.0
C924 C 0.69249 0.00642 0.1751 0.0
C925 C 0.69951 0.03548 0.1885 0.0
C926 C 0.69822 0.98443 0.19199 0.0
C927 C 0.71433 0.04317 0.21865 0.0
C928 C 0.7206 0.02158 0.23555 0.0
C929 C 0.71561 0.96881 0.24008 0.0
C930 C 0.70486 0.93827 0.22741 0.0
C931 C 0.71198 0.99183 0.22263 0.0
C932 C 0.69224 0.93164 0.19667 0.0
C933 C 0.68919 0.9546 0.17904 0.0
H934 H 0.60844 0.56012 0.67373 0.0
H935 H 0.61891 0.49458 0.61775 0.0
H936 H 0.6629 0.49628 0.6556 0.0
H937 H 0.69663 0.51491 0.70571 0.0
H938 H 0.68504 0.58006 0.76119 0.0
H939 H 0.64294 0.57981 0.72241 0.0
C940 C 0.62043 0.5463 0.6696 0.0
C941 C 0.61026 0.52716 0.64291 0.0
C942 C 0.6452 0.54706 0.69156 0.0
C943 C 0.62632 0.50961 0.63799 0.0
C944 C 0.65129 0.51041 0.65974 0.0
C945 C 0.68457 0.52877 0.70937 0.0
C946 C 0.69357 0.54719 0.73644 0.0
C947 C 0.66052 0.52868 0.68683 0.0
C948 C 0.67847 0.56568 0.7406 0.0
C949 C 0.65443 0.56554 0.71844 0.0
H950 H 0.28577 0.6968 0.06699 0.0
H951 H 0.18013 0.67806 0.06977 0.0
H952 H 0.19648 0.70679 0.11874 0.0
H953 H 0.23891 0.73217 0.16293 0.0
H954 H 0.3441 0.74932 0.16118 0.0
H955 H 0.32997 0.7263 0.10963 0.0
C956 C 0.2667 0.69976 0.07803 0.0
C957 C 0.23181 0.68536 0.06496 0.0
C958 C 0.27607 0.71556 0.10651 0.0
C959 C 0.20706 0.68881 0.07964 0.0
C960 C 0.21638 0.70515 0.1076 0.0
C961 C 0.25897 0.73148 0.15102 0.0
C962 C 0.29239 0.74222 0.16588 0.0
C963 C 0.25051 0.71786 0.12161 0.0
C964 C 0.31798 0.74075 0.15033 0.0
C965 C 0.30997 0.72771 0.12085 0.0
loop_
_geom_bond_atom_site_label_1
_geom_bond_atom_site_label_2
_geom_bond_distance
_geom_bond_site_symmetry_2
_ccdc_geom_bond_type
Cu0 N1 1.999 1_554 S
Cu0 O6 1.974 1_554 S
Cu0 N11 1.985 . S
Cu0 O20 1.959 . S
N1 Cu0 1.999 1_556 S
N1 C3 1.263 . S
N1 C5 1.389 . S
N2 C3 1.358 . S
N2 C4 1.400 . S
C3 N1 1.263 . S
C3 N2 1.358 . S
C3 H9 0.930 . S
C4 N2 1.400 . S
C4 C5 1.351 . S
C4 H21 0.930 . S
C5 N1 1.389 . S
C5 C4 1.351 . S
C5 H10 0.930 1_556 S
O6 Cu0 1.974 1_556 S
O6 C16 1.282 . S
C7 O8 1.261 . S
C7 O20 1.251 . S
O8 C7 1.261 . S
H9 C3 0.930 . S
H10 C5 0.930 1_554 S
N11 Cu0 1.985 . S
N11 C13 1.335 . S
N11 C14 1.390 . S
N12 C13 1.345 . S
N12 C15 1.336 . S
C13 N11 1.335 . S
C13 N12 1.345 . S
C13 H18 0.930 . S
C14 N11 1.390 . S
C14 C15 1.346 . S
C14 H19 0.910 1_554 S
C15 N12 1.336 . S
C15 C14 1.346 . S
C15 H22 0.929 . S
C16 O6 1.282 . S
C16 O17 1.216 . S
O17 C16 1.216 . S
H18 C13 0.930 . S
H19 C14 0.910 1_556 S
O20 Cu0 1.959 . S
O20 C7 1.251 . S
H21 C4 0.930 . S
H22 C15 0.929 . S
Cu23 N24 1.999 . S
Cu23 O29 1.974 . S
Cu23 N34 1.985 1_565 S
Cu23 O43 1.959 1_565 S
N24 Cu23 1.999 . S
N24 C26 1.263 . S
N24 C28 1.389 . S
N25 C26 1.358 . S
N25 C27 1.400 . S
C26 N24 1.263 . S
C26 N25 1.358 . S
C26 H32 0.930 . S
C27 N25 1.400 . S
C27 C28 1.351 . S
C27 H44 0.930 . S
C28 N24 1.389 . S
C28 C27 1.351 . S
C28 H33 0.930 . S
O29 Cu23 1.974 . S
O29 C39 1.282 . S
C30 O31 1.261 . S
C30 O43 1.251 . S
O31 C30 1.261 . S
H32 C26 0.930 . S
H33 C28 0.930 . S
N34 Cu23 1.985 1_545 S
N34 C36 1.335 . S
N34 C37 1.390 . S
N35 C36 1.345 . S
N35 C38 1.336 . S
C36 N34 1.335 . S
C36 N35 1.345 . S
C36 H41 0.930 . S
C37 N34 1.390 . S
C37 C38 1.346 . S
C37 H42 0.930 . S
C38 N35 1.336 . S
C38 C37 1.346 . S
C38 H45 0.929 . S
C39 O29 1.282 . S
C39 O40 1.216 1_565 S
O40 C39 1.216 1_545 S
H41 C36 0.930 . S
H42 C37 0.930 . S
O43 Cu23 1.959 1_545 S
O43 C30 1.251 . S
H44 C27 0.930 . S
H45 C38 0.929 . S
Cu46 N47 1.999 . S
Cu46 O52 1.974 . S
Cu46 N57 1.985 . S
Cu46 O66 1.959 . S
N47 Cu46 1.999 . S
N47 C49 1.263 . S
N47 C51 1.389 . S
N48 C49 1.358 . S
N48 C50 1.400 . S
C49 N47 1.263 . S
C49 N48 1.358 . S
C49 H55 0.930 . S
C50 N48 1.400 . S
C50 C51 1.351 . S
C50 H67 0.930 . S
C51 N47 1.389 . S
C51 C50 1.351 . S
C51 H56 0.930 . S
O52 Cu46 1.974 . S
O52 C62 1.282 . S
C53 O54 1.261 . S
C53 O66 1.251 . S
O54 C53 1.261 . S
H55 C49 0.930 . S
H56 C51 0.930 . S
N57 Cu46 1.985 . S
N57 C59 1.335 . S
N57 C60 1.390 . S
N58 C59 1.345 . S
N58 C61 1.336 . S
C59 N57 1.335 . S
C59 N58 1.345 . S
C59 H64 0.930 . S
C60 N57 1.390 . S
C60 C61 1.346 . S
C60 H65 0.930 . S
C61 N58 1.336 . S
C61 C60 1.346 . S
C61 H68 0.929 . S
C62 O52 1.282 . S
C62 O63 1.216 . S
O63 C62 1.216 . S
H64 C59 0.930 . S
H65 C60 0.930 . S
O66 Cu46 1.959 . S
O66 C53 1.251 . S
H67 C50 0.930 . S
H68 C61 0.929 . S
Cu69 N70 1.999 1_655 S
Cu69 O75 1.974 1_655 S
Cu69 N80 1.985 . S
Cu69 O89 1.959 . S
N70 Cu69 1.999 1_455 S
N70 C72 1.263 . S
N70 C74 1.389 1_455 S
N71 C72 1.358 . S
N71 C73 1.400 . S
C72 N70 1.263 . S
C72 N71 1.358 . S
C72 H78 0.930 . S
C73 N71 1.400 . S
C73 C74 1.351 1_455 S
C73 H90 0.930 1_455 S
C74 N70 1.389 1_655 S
C74 C73 1.351 1_655 S
C74 H79 0.930 . S
O75 Cu69 1.974 1_455 S
O75 C85 1.282 . S
C76 O77 1.261 1_655 S
C76 O89 1.251 . S
O77 C76 1.261 1_455 S
H78 C72 0.930 . S
H79 C74 0.930 . S
N80 Cu69 1.985 . S
N80 C82 1.335 . S
N80 C83 1.390 . S
N81 C82 1.345 . S
N81 C84 1.336 . S
C82 N80 1.335 . S
C82 N81 1.345 . S
C82 H87 0.930 . S
C83 N80 1.390 . S
C83 C84 1.346 . S
C83 H88 0.930 1_655 S
C84 N81 1.336 . S
C84 C83 1.346 . S
C84 H91 0.929 . S
C85 O75 1.282 . S
C85 O86 1.216 . S
O86 C85 1.216 . S
H87 C82 0.930 . S
H88 C83 0.930 1_455 S
O89 Cu69 1.959 . S
O89 C76 1.251 . S
H90 C73 0.930 1_655 S
H91 C84 0.929 . S
Cu92 N93 1.999 . S
Cu92 O98 1.974 . S
Cu92 N103 1.985 . S
Cu92 O112 1.959 . S
N93 Cu92 1.999 . S
N93 C95 1.263 . S
N93 C97 1.389 . S
N94 C95 1.358 . S
N94 C96 1.400 . S
C95 N93 1.263 . S
C95 N94 1.358 . S
C95 H101 0.930 . S
C96 N94 1.400 . S
C96 C97 1.351 . S
C96 H113 0.930 . S
C97 N93 1.389 . S
C97 C96 1.351 . S
C97 H102 0.930 . S
O98 Cu92 1.974 . S
O98 C108 1.282 . S
C99 O100 1.261 . S
C99 O112 1.251 . S
O100 C99 1.261 . S
H101 C95 0.930 . S
H102 C97 0.930 . S
N103 Cu92 1.985 . S
N103 C105 1.335 . S
N103 C106 1.390 . S
N104 C105 1.345 . S
N104 C107 1.336 . S
C105 N103 1.335 . S
C105 N104 1.345 . S
C105 H110 0.930 . S
C106 N103 1.390 . S
C106 C107 1.346 . S
C106 H111 0.930 . S
C107 N104 1.336 . S
C107 C106 1.346 . S
C107 H114 0.929 . S
C108 O98 1.282 . S
C108 O109 1.216 . S
O109 C108 1.216 . S
H110 C105 0.930 . S
H111 C106 0.930 . S
O112 Cu92 1.959 . S
O112 C99 1.251 . S
H113 C96 0.930 . S
H114 C107 0.929 . S
Cu115 N116 1.999 . S
Cu115 O121 1.974 . S
Cu115 N126 1.985 . S
Cu115 O135 1.959 . S
N116 Cu115 1.999 . S
N116 C118 1.263 . S
N116 C120 1.389 . S
N117 C118 1.358 . S
N117 C119 1.400 . S
C118 N116 1.263 . S
C118 N117 1.358 . S
C118 H124 0.930 . S
C119 N117 1.400 . S
C119 C120 1.351 . S
C119 H136 0.930 . S
C120 N116 1.389 . S
C120 C119 1.351 . S
C120 H125 0.930 . S
O121 Cu115 1.974 . S
O121 C131 1.282 . S
C122 O123 1.261 . S
C122 O135 1.251 . S
O123 C122 1.261 . S
H124 C118 0.930 . S
H125 C120 0.930 . S
N126 Cu115 1.985 . S
N126 C128 1.335 . S
N126 C129 1.390 . S
N127 C128 1.345 . S
N127 C130 1.336 . S
C128 N126 1.335 . S
C128 N127 1.345 . S
C128 H133 0.930 . S
C129 N126 1.390 . S
C129 C130 1.346 . S
C129 H134 0.930 . S
C130 N127 1.336 . S
C130 C129 1.346 . S
C130 H137 0.929 . S
C131 O121 1.282 . S
C131 O132 1.216 . S
O132 C131 1.216 . S
H133 C128 0.930 . S
H134 C129 0.930 . S
O135 Cu115 1.959 . S
O135 C122 1.251 . S
H136 C119 0.930 . S
H137 C130 0.929 . S
H138 O164 0.856 . S
H139 O167 0.854 . S
H140 C175 0.930 . S
H141 C176 0.930 . S
H142 C178 0.930 . S
H143 C179 0.930 . S
H144 C181 0.931 . S
H145 C182 0.930 . S
H146 C184 0.930 . S
H147 C185 0.929 . S
H148 C187 0.930 . S
H149 C188 0.931 . S
H150 C190 0.930 . S
H151 C191 0.929 . S
H152 C193 0.931 . S
H153 C194 0.930 . S
H154 C196 0.930 . S
H155 C197 0.932 . S
H156 C199 0.930 . S
H157 C200 0.929 . S
H158 C202 0.931 . S
H159 C203 0.930 . S
H160 C205 0.929 . S
H161 C206 0.931 . S
H162 C208 0.930 . S
H163 C209 0.929 . S
O164 H138 0.856 . S
O164 C210 1.300 . S
O165 C210 1.209 . S
O166 C211 1.199 . S
O167 H139 0.854 . S
O167 C211 1.297 . S
C168 C169 1.404 . S
C168 C173 1.397 . S
C168 C174 1.492 . S
C169 C168 1.404 . S
C169 C170 1.396 . S
C169 C180 1.492 . S
C170 C169 1.396 . S
C170 C171 1.397 . S
C170 C186 1.509 . S
C171 C170 1.397 . S
C171 C172 1.412 . S
C171 C192 1.485 . S
C172 C171 1.412 . S
C172 C173 1.388 . S
C172 C198 1.490 . S
C173 C168 1.397 . S
C173 C172 1.388 . S
C173 C204 1.519 . S
C174 C168 1.492 . S
C174 C175 1.363 . S
C174 C179 1.390 . S
C175 H140 0.930 . S
C175 C174 1.363 . S
C175 C176 1.372 . S
C176 H141 0.930 . S
C176 C175 1.372 . S
C176 C177 1.383 . S
C177 C176 1.383 . S
C177 C178 1.395 . S
C178 H142 0.930 . S
C178 C177 1.395 . S
C178 C179 1.362 . S
C179 H143 0.930 . S
C179 C174 1.390 . S
C179 C178 1.362 . S
C180 C169 1.492 . S
C180 C181 1.377 . S
C180 C185 1.397 . S
C181 H144 0.931 . S
C181 C180 1.377 . S
C181 C182 1.376 . S
C182 H145 0.930 . S
C182 C181 1.376 . S
C182 C183 1.376 . S
C183 C182 1.376 . S
C183 C184 1.378 . S
C183 C210 1.486 . S
C184 H146 0.930 . S
C184 C183 1.378 . S
C184 C185 1.376 . S
C185 H147 0.929 . S
C185 C180 1.397 . S
C185 C184 1.376 . S
C186 C170 1.509 . S
C186 C187 1.391 . S
C186 C191 1.386 . S
C187 H148 0.930 . S
C187 C186 1.391 . S
C187 C188 1.375 . S
C188 H149 0.931 . S
C188 C187 1.375 . S
C188 C189 1.375 . S
C189 C188 1.375 . S
C189 C190 1.361 . S
C190 H150 0.930 . S
C190 C189 1.361 . S
C190 C191 1.399 . S
C191 H151 0.929 . S
C191 C186 1.386 . S
C191 C190 1.399 . S
C192 C171 1.485 . S
C192 C193 1.394 . S
C192 C197 1.360 . S
C193 H152 0.931 . S
C193 C192 1.394 . S
C193 C194 1.372 . S
C194 H153 0.930 . S
C194 C193 1.372 . S
C194 C195 1.397 . S
C195 C194 1.397 . S
C195 C196 1.390 . S
C195 C211 1.476 . S
C196 H154 0.930 . S
C196 C195 1.390 . S
C196 C197 1.366 . S
C197 H155 0.932 . S
C197 C192 1.360 . S
C197 C196 1.366 . S
C198 C172 1.490 . S
C198 C199 1.380 . S
C198 C203 1.386 . S
C199 H156 0.930 . S
C199 C198 1.380 . S
C199 C200 1.381 . S
C200 H157 0.929 . S
C200 C199 1.381 . S
C200 C201 1.371 . S
C201 C200 1.371 . S
C201 C202 1.380 . S
C202 H158 0.931 . S
C202 C201 1.380 . S
C202 C203 1.387 . S
C203 H159 0.930 . S
C203 C198 1.386 . S
C203 C202 1.387 . S
C204 C173 1.519 . S
C204 C205 1.377 . S
C204 C209 1.361 . S
C205 H160 0.929 . S
C205 C204 1.377 . S
C205 C206 1.386 . S
C206 H161 0.931 . S
C206 C205 1.386 . S
C206 C207 1.363 . S
C207 C206 1.363 . S
C207 C208 1.385 . S
C208 H162 0.930 . S
C208 C207 1.385 . S
C208 C209 1.396 . S
C209 H163 0.929 . S
C209 C204 1.361 . S
C209 C208 1.396 . S
C210 O164 1.300 . S
C210 O165 1.209 . S
C210 C183 1.486 . S
C211 O166 1.199 . S
C211 O167 1.297 . S
C211 C195 1.476 . S
H212 O238 0.856 1_554 S
H213 O241 0.852 1_565 S
H214 C249 0.930 . S
H215 C250 0.930 . S
H216 C252 0.930 . S
H217 C253 0.930 . S
H218 C255 0.931 . S
H219 C256 0.930 . S
H220 C258 0.930 . S
H221 C259 0.929 . S
H222 C261 0.930 . S
H223 C262 0.931 . S
H224 C264 0.930 . S
H225 C265 0.929 . S
H226 C267 0.931 . S
H227 C268 0.930 . S
H228 C270 0.930 . S
H229 C271 0.932 . S
H230 C273 0.930 . S
H231 C274 0.929 . S
H232 C276 0.931 . S
H233 C277 0.930 . S
H234 C279 0.929 . S
H235 C280 0.931 . S
H236 C282 0.930 . S
H237 C283 0.929 . S
O238 H212 0.856 1_556 S
O238 C284 1.300 . S
O239 C284 1.209 . S
O240 C285 1.199 . S
O241 H213 0.852 1_545 S
O241 C285 1.297 . S
C242 C243 1.404 . S
C242 C247 1.397 . S
C242 C248 1.492 . S
C243 C242 1.404 . S
C243 C244 1.396 . S
C243 C254 1.492 . S
C244 C243 1.396 . S
C244 C245 1.397 . S
C244 C260 1.509 . S
C245 C244 1.397 . S
C245 C246 1.412 . S
C245 C266 1.485 . S
C246 C245 1.412 . S
C246 C247 1.388 . S
C246 C272 1.490 . S
C247 C242 1.397 . S
C247 C246 1.388 . S
C247 C278 1.519 . S
C248 C242 1.492 . S
C248 C249 1.363 . S
C248 C253 1.390 . S
C249 H214 0.930 . S
C249 C248 1.363 . S
C249 C250 1.372 . S
C250 H215 0.930 . S
C250 C249 1.372 . S
C250 C251 1.383 . S
C251 C250 1.383 . S
C251 C252 1.395 1_655 S
C252 H216 0.930 . S
C252 C251 1.395 1_455 S
C252 C253 1.362 1_455 S
C253 H217 0.930 . S
C253 C248 1.390 . S
C253 C252 1.362 1_655 S
C254 C243 1.492 . S
C254 C255 1.377 . S
C254 C259 1.397 . S
C255 H218 0.931 . S
C255 C254 1.377 . S
C255 C256 1.376 . S
C256 H219 0.930 . S
C256 C255 1.376 . S
C256 C257 1.376 . S
C257 C256 1.376 . S
C257 C258 1.378 . S
C257 C284 1.486 . S
C258 H220 0.930 . S
C258 C257 1.378 . S
C258 C259 1.376 . S
C259 H221 0.929 . S
C259 C254 1.397 . S
C259 C258 1.376 . S
C260 C244 1.509 . S
C260 C261 1.391 . S
C260 C265 1.386 . S
C261 H222 0.930 . S
C261 C260 1.391 . S
C261 C262 1.375 . S
C262 H223 0.931 . S
C262 C261 1.375 . S
C262 C263 1.375 . S
C263 C262 1.375 . S
C263 C264 1.361 . S
C264 H224 0.930 . S
C264 C263 1.361 . S
C264 C265 1.399 . S
C265 H225 0.929 . S
C265 C260 1.386 . S
C265 C264 1.399 . S
C266 C245 1.485 . S
C266 C267 1.394 . S
C266 C271 1.360 . S
C267 H226 0.931 . S
C267 C266 1.394 . S
C267 C268 1.372 . S
C268 H227 0.930 . S
C268 C267 1.372 . S
C268 C269 1.397 . S
C269 C268 1.397 . S
C269 C270 1.390 . S
C269 C285 1.476 . S
C270 H228 0.930 . S
C270 C269 1.390 . S
C270 C271 1.366 . S
C271 H229 0.932 . S
C271 C266 1.360 . S
C271 C270 1.366 . S
C272 C246 1.490 . S
C272 C273 1.380 . S
C272 C277 1.386 . S
C273 H230 0.930 . S
C273 C272 1.380 . S
C273 C274 1.381 . S
C274 H231 0.929 . S
C274 C273 1.381 . S
C274 C275 1.371 . S
C275 C274 1.371 . S
C275 C276 1.380 . S
C276 H232 0.931 . S
C276 C275 1.380 . S
C276 C277 1.387 . S
C277 H233 0.930 . S
C277 C272 1.386 . S
C277 C276 1.387 . S
C278 C247 1.519 . S
C278 C279 1.377 . S
C278 C283 1.361 . S
C279 H234 0.929 . S
C279 C278 1.377 . S
C279 C280 1.386 . S
C280 H235 0.931 . S
C280 C279 1.386 . S
C280 C281 1.363 . S
C281 C280 1.363 . S
C281 C282 1.385 . S
C282 H236 0.930 . S
C282 C281 1.385 . S
C282 C283 1.396 . S
C283 H237 0.929 . S
C283 C278 1.361 . S
C283 C282 1.396 . S
C284 O238 1.300 . S
C284 O239 1.209 . S
C284 C257 1.486 . S
C285 O240 1.199 . S
C285 O241 1.297 . S
C285 C269 1.476 . S
H286 O312 0.856 . S
H287 O315 0.854 . S
H288 C323 0.930 . S
H289 C324 0.930 . S
H290 C326 0.930 . S
H291 C327 0.930 . S
H292 C329 0.931 . S
H293 C330 0.930 . S
H294 C332 0.930 . S
H295 C333 0.929 . S
H296 C335 0.930 . S
H297 C336 0.931 . S
H298 C338 0.930 . S
H299 C339 0.929 . S
H300 C341 0.931 . S
H301 C342 0.930 . S
H302 C344 0.941 . S
H303 C345 0.932 . S
H304 C347 0.930 . S
H305 C348 0.929 . S
H306 C350 0.931 . S
H307 C351 0.930 . S
H308 C353 0.929 . S
H309 C354 0.931 . S
H310 C356 0.930 . S
H311 C357 0.929 . S
O312 H286 0.856 . S
O312 C358 1.300 . S
O313 C358 1.209 . S
O314 C359 1.199 . S
O315 H287 0.854 . S
O315 C359 1.297 . S
C316 C317 1.404 . S
C316 C321 1.397 . S
C316 C322 1.492 . S
C317 C316 1.404 . S
C317 C318 1.396 . S
C317 C328 1.492 . S
C318 C317 1.396 . S
C318 C319 1.397 . S
C318 C334 1.509 . S
C319 C318 1.397 . S
C319 C320 1.412 . S
C319 C340 1.485 . S
C320 C319 1.412 . S
C320 C321 1.388 . S
C320 C346 1.490 . S
C321 C316 1.397 . S
C321 C320 1.388 . S
C321 C352 1.519 . S
C322 C316 1.492 . S
C322 C323 1.363 . S
C322 C327 1.390 . S
C323 H288 0.930 . S
C323 C322 1.363 . S
C323 C324 1.372 . S
C324 H289 0.930 . S
C324 C323 1.372 . S
C324 C325 1.383 . S
C325 C324 1.383 . S
C325 C326 1.395 . S
C326 H290 0.930 . S
C326 C325 1.395 . S
C326 C327 1.362 . S
C327 H291 0.930 . S
C327 C322 1.390 . S
C327 C326 1.362 . S
C328 C317 1.492 . S
C328 C329 1.377 . S
C328 C333 1.397 . S
C329 H292 0.931 . S
C329 C328 1.377 . S
C329 C330 1.376 . S
C330 H293 0.930 . S
C330 C329 1.376 . S
C330 C331 1.376 . S
C331 C330 1.376 . S
C331 C332 1.378 . S
C331 C358 1.486 . S
C332 H294 0.930 . S
C332 C331 1.378 . S
C332 C333 1.376 . S
C333 H295 0.929 . S
C333 C328 1.397 . S
C333 C332 1.376 . S
C334 C318 1.509 . S
C334 C335 1.391 . S
C334 C339 1.386 . S
C335 H296 0.930 . S
C335 C334 1.391 . S
C335 C336 1.375 . S
C336 H297 0.931 . S
C336 C335 1.375 . S
C336 C337 1.375 . S
C337 C336 1.375 . S
C337 C338 1.361 . S
C338 H298 0.930 . S
C338 C337 1.361 . S
C338 C339 1.399 . S
C339 H299 0.929 . S
C339 C334 1.386 . S
C339 C338 1.399 . S
C340 C319 1.485 . S
C340 C341 1.394 . S
C340 C345 1.360 . S
C341 H300 0.931 . S
C341 C340 1.394 . S
C341 C342 1.372 . S
C342 H301 0.930 . S
C342 C341 1.372 . S
C342 C343 1.397 . S
C343 C342 1.397 . S
C343 C344 1.390 . S
C343 C359 1.476 1_565 S
C344 H302 0.941 . S
C344 C343 1.390 . S
C344 C345 1.366 . S
C345 H303 0.932 . S
C345 C340 1.360 . S
C345 C344 1.366 . S
C346 C320 1.490 . S
C346 C347 1.380 . S
C346 C351 1.386 . S
C347 H304 0.930 . S
C347 C346 1.380 . S
C347 C348 1.381 . S
C348 H305 0.929 . S
C348 C347 1.381 . S
C348 C349 1.371 . S
C349 C348 1.371 . S
C349 C350 1.380 . S
C350 H306 0.931 . S
C350 C349 1.380 . S
C350 C351 1.387 . S
C351 H307 0.930 . S
C351 C346 1.386 . S
C351 C350 1.387 . S
C352 C321 1.519 . S
C352 C353 1.377 . S
C352 C357 1.361 . S
C353 H308 0.929 . S
C353 C352 1.377 . S
C353 C354 1.386 . S
C354 H309 0.931 . S
C354 C353 1.386 . S
C354 C355 1.363 . S
C355 C354 1.363 . S
C355 C356 1.385 . S
C356 H310 0.930 . S
C356 C355 1.385 . S
C356 C357 1.396 . S
C357 H311 0.929 . S
C357 C352 1.361 . S
C357 C356 1.396 . S
C358 O312 1.300 . S
C358 O313 1.209 . S
C358 C331 1.486 . S
C359 O314 1.199 . S
C359 O315 1.297 . S
C359 C343 1.476 1_545 S
H360 O386 0.856 . S
H361 O389 0.854 . S
H362 C397 0.930 . S
H363 C398 0.930 . S
H364 C400 0.930 . S
H365 C401 0.930 . S
H366 C403 0.931 . S
H367 C404 0.930 . S
H368 C406 0.930 . S
H369 C407 0.929 . S
H370 C409 0.930 . S
H371 C410 0.931 . S
H372 C412 0.930 . S
H373 C413 0.929 . S
H374 C415 0.944 1_455 S
H375 C416 0.930 . S
H376 C418 0.930 . S
H377 C419 0.932 . S
H378 C421 0.930 . S
H379 C422 0.929 . S
H380 C424 0.931 . S
H381 C425 0.930 . S
H382 C427 0.929 . S
H383 C428 0.931 . S
H384 C430 0.930 . S
H385 C431 0.929 . S
O386 H360 0.856 . S
O386 C432 1.300 . S
O387 C432 1.209 . S
O388 C433 1.199 . S
O389 H361 0.854 . S
O389 C433 1.297 . S
C390 C391 1.404 . S
C390 C395 1.397 . S
C390 C396 1.492 . S
C391 C390 1.404 . S
C391 C392 1.396 . S
C391 C402 1.492 . S
C392 C391 1.396 . S
C392 C393 1.397 . S
C392 C408 1.509 . S
C393 C392 1.397 . S
C393 C394 1.412 . S
C393 C414 1.485 . S
C394 C393 1.412 . S
C394 C395 1.388 . S
C394 C420 1.490 . S
C395 C390 1.397 . S
C395 C394 1.388 . S
C395 C426 1.519 . S
C396 C390 1.492 . S
C396 C397 1.363 . S
C396 C401 1.390 . S
C397 H362 0.930 . S
C397 C396 1.363 . S
C397 C398 1.372 . S
C398 H363 0.930 . S
C398 C397 1.372 . S
C398 C399 1.383 . S
C399 C398 1.383 . S
C399 C400 1.395 . S
C400 H364 0.930 . S
C400 C399 1.395 . S
C400 C401 1.362 . S
C401 H365 0.930 . S
C401 C396 1.390 . S
C401 C400 1.362 . S
C402 C391 1.492 . S
C402 C403 1.377 . S
C402 C407 1.397 . S
C403 H366 0.931 . S
C403 C402 1.377 . S
C403 C404 1.376 . S
C404 H367 0.930 . S
C404 C403 1.376 . S
C404 C405 1.376 . S
C405 C404 1.376 . S
C405 C406 1.378 . S
C405 C432 1.486 . S
C406 H368 0.930 . S
C406 C405 1.378 . S
C406 C407 1.376 . S
C407 H369 0.929 . S
C407 C402 1.397 . S
C407 C406 1.376 . S
C408 C392 1.509 . S
C408 C409 1.391 . S
C408 C413 1.386 . S
C409 H370 0.930 . S
C409 C408 1.391 . S
C409 C410 1.375 . S
C410 H371 0.931 . S
C410 C409 1.375 . S
C410 C411 1.375 . S
C411 C410 1.375 . S
C411 C412 1.361 . S
C412 H372 0.930 . S
C412 C411 1.361 . S
C412 C413 1.399 . S
C413 H373 0.929 . S
C413 C408 1.386 . S
C413 C412 1.399 . S
C414 C393 1.485 . S
C414 C415 1.394 . S
C414 C419 1.360 . S
C415 H374 0.944 1_655 S
C415 C414 1.394 . S
C415 C416 1.372 1_655 S
C416 H375 0.930 . S
C416 C415 1.372 1_455 S
C416 C417 1.397 . S
C417 C416 1.397 . S
C417 C418 1.390 1_455 S
C417 C433 1.476 . S
C418 H376 0.930 . S
C418 C417 1.390 1_655 S
C418 C419 1.366 . S
C419 H377 0.932 . S
C419 C414 1.360 . S
C419 C418 1.366 . S
C420 C394 1.490 . S
C420 C421 1.380 . S
C420 C425 1.386 . S
C421 H378 0.930 . S
C421 C420 1.380 . S
C421 C422 1.381 . S
C422 H379 0.929 . S
C422 C421 1.381 . S
C422 C423 1.371 . S
C423 C422 1.371 . S
C423 C424 1.380 . S
C424 H380 0.931 . S
C424 C423 1.380 . S
C424 C425 1.387 . S
C425 H381 0.930 . S
C425 C420 1.386 . S
C425 C424 1.387 . S
C426 C395 1.519 . S
C426 C427 1.377 . S
C426 C431 1.361 . S
C427 H382 0.929 . S
C427 C426 1.377 . S
C427 C428 1.386 . S
C428 H383 0.931 . S
C428 C427 1.386 . S
C428 C429 1.363 . S
C429 C428 1.363 . S
C429 C430 1.385 . S
C430 H384 0.930 . S
C430 C429 1.385 . S
C430 C431 1.396 . S
C431 H385 0.929 . S
C431 C426 1.361 . S
C431 C430 1.396 . S
C432 O386 1.300 . S
C432 O387 1.209 . S
C432 C405 1.486 . S
C433 O388 1.199 . S
C433 O389 1.297 . S
C433 C417 1.476 . S
H434 O460 0.856 . S
H435 O463 0.854 . S
H436 C471 0.930 . S
H437 C472 0.930 . S
H438 C474 0.930 . S
H439 C475 0.930 . S
H440 C477 0.931 . S
H441 C478 0.930 . S
H442 C480 0.930 . S
H443 C481 0.929 . S
H444 C483 0.930 . S
H445 C484 0.931 . S
H446 C486 0.930 . S
H447 C487 0.929 . S
H448 C489 0.931 . S
H449 C490 0.930 . S
H450 C492 0.930 . S
H451 C493 0.932 . S
H452 C495 0.930 . S
H453 C496 0.929 . S
H454 C498 0.931 . S
H455 C499 0.930 . S
H456 C501 0.929 . S
H457 C502 0.931 . S
H458 C504 0.930 . S
H459 C505 0.929 . S
O460 H434 0.856 . S
O460 C506 1.300 . S
O461 C506 1.209 . S
O462 C507 1.199 . S
O463 H435 0.854 . S
O463 C507 1.297 . S
C464 C465 1.404 . S
C464 C469 1.397 . S
C464 C470 1.492 . S
C465 C464 1.404 . S
C465 C466 1.396 . S
C465 C476 1.492 . S
C466 C465 1.396 . S
C466 C467 1.397 . S
C466 C482 1.509 . S
C467 C466 1.397 . S
C467 C468 1.412 . S
C467 C488 1.485 . S
C468 C467 1.412 . S
C468 C469 1.388 . S
C468 C494 1.490 . S
C469 C464 1.397 . S
C469 C468 1.388 . S
C469 C500 1.519 . S
C470 C464 1.492 . S
C470 C471 1.363 . S
C470 C475 1.390 . S
C471 H436 0.930 . S
C471 C470 1.363 . S
C471 C472 1.372 . S
C472 H437 0.930 . S
C472 C471 1.372 . S
C472 C473 1.383 . S
C473 C472 1.383 . S
C473 C474 1.395 . S
C474 H438 0.930 . S
C474 C473 1.395 . S
C474 C475 1.362 . S
C475 H439 0.930 . S
C475 C470 1.390 . S
C475 C474 1.362 . S
C476 C465 1.492 . S
C476 C477 1.377 . S
C476 C481 1.397 . S
C477 H440 0.931 . S
C477 C476 1.377 . S
C477 C478 1.376 . S
C478 H441 0.930 . S
C478 C477 1.376 . S
C478 C479 1.376 . S
C479 C478 1.376 . S
C479 C480 1.378 . S
C479 C506 1.486 . S
C480 H442 0.930 . S
C480 C479 1.378 . S
C480 C481 1.376 . S
C481 H443 0.929 . S
C481 C476 1.397 . S
C481 C480 1.376 . S
C482 C466 1.509 . S
C482 C483 1.391 . S
C482 C487 1.386 . S
C483 H444 0.930 . S
C483 C482 1.391 . S
C483 C484 1.375 . S
C484 H445 0.931 . S
C484 C483 1.375 . S
C484 C485 1.375 . S
C485 C484 1.375 . S
C485 C486 1.361 . S
C486 H446 0.930 . S
C486 C485 1.361 . S
C486 C487 1.399 . S
C487 H447 0.929 . S
C487 C482 1.386 . S
C487 C486 1.399 . S
C488 C467 1.485 . S
C488 C489 1.394 . S
C488 C493 1.360 . S
C489 H448 0.931 . S
C489 C488 1.394 . S
C489 C490 1.372 . S
C490 H449 0.930 . S
C490 C489 1.372 . S
C490 C491 1.397 . S
C491 C490 1.397 . S
C491 C492 1.390 . S
C491 C507 1.476 . S
C492 H450 0.930 . S
C492 C491 1.390 . S
C492 C493 1.366 . S
C493 H451 0.932 . S
C493 C488 1.360 . S
C493 C492 1.366 . S
C494 C468 1.490 . S
C494 C495 1.380 . S
C494 C499 1.386 . S
C495 H452 0.930 . S
C495 C494 1.380 . S
C495 C496 1.381 . S
C496 H453 0.929 . S
C496 C495 1.381 . S
C496 C497 1.371 . S
C497 C496 1.371 . S
C497 C498 1.380 . S
C498 H454 0.931 . S
C498 C497 1.380 . S
C498 C499 1.387 . S
C499 H455 0.930 . S
C499 C494 1.386 . S
C499 C498 1.387 . S
C500 C469 1.519 . S
C500 C501 1.377 . S
C500 C505 1.361 . S
C501 H456 0.929 . S
C501 C500 1.377 . S
C501 C502 1.386 . S
C502 H457 0.931 . S
C502 C501 1.386 . S
C502 C503 1.363 . S
C503 C502 1.363 . S
C503 C504 1.385 . S
C504 H458 0.930 . S
C504 C503 1.385 . S
C504 C505 1.396 . S
C505 H459 0.929 . S
C505 C500 1.361 . S
C505 C504 1.396 . S
C506 O460 1.300 . S
C506 O461 1.209 . S
C506 C479 1.486 . S
C507 O462 1.199 . S
C507 O463 1.297 . S
C507 C491 1.476 . S
H508 O534 0.856 . S
H509 O537 0.854 1_565 S
H510 C545 0.930 . S
H511 C546 0.930 . S
H512 C548 0.930 . S
H513 C549 0.930 . S
H514 C551 0.931 . S
H515 C552 0.930 . S
H516 C554 0.930 . S
H517 C555 0.929 . S
H518 C557 0.930 . S
H519 C558 0.931 . S
H520 C560 0.930 . S
H521 C561 0.929 . S
H522 C563 0.931 . S
H523 C564 0.930 . S
H524 C566 0.930 . S
H525 C567 0.932 . S
H526 C569 0.930 . S
H527 C570 0.929 . S
H528 C572 0.931 . S
H529 C573 0.930 . S
H530 C575 0.929 . S
H531 C576 0.931 . S
H532 C578 0.930 . S
H533 C579 0.929 . S
O534 H508 0.856 . S
O534 C580 1.300 . S
O535 C580 1.209 . S
O536 C581 1.199 . S
O537 H509 0.854 1_545 S
O537 C581 1.297 . S
C538 C539 1.404 . S
C538 C543 1.397 . S
C538 C544 1.492 . S
C539 C538 1.404 . S
C539 C540 1.396 . S
C539 C550 1.492 . S
C540 C539 1.396 . S
C540 C541 1.397 . S
C540 C556 1.509 . S
C541 C540 1.397 . S
C541 C542 1.412 . S
C541 C562 1.485 . S
C542 C541 1.412 . S
C542 C543 1.388 . S
C542 C568 1.490 . S
C543 C538 1.397 . S
C543 C542 1.388 . S
C543 C574 1.519 . S
C544 C538 1.492 . S
C544 C545 1.363 . S
C544 C549 1.390 . S
C545 H510 0.930 . S
C545 C544 1.363 . S
C545 C546 1.372 . S
C546 H511 0.930 . S
C546 C545 1.372 . S
C546 C547 1.383 . S
C547 C546 1.383 . S
C547 C548 1.395 . S
C548 H512 0.930 . S
C548 C547 1.395 . S
C548 C549 1.362 . S
C549 H513 0.930 . S
C549 C544 1.390 . S
C549 C548 1.362 . S
C550 C539 1.492 . S
C550 C551 1.377 . S
C550 C555 1.397 . S
C551 H514 0.931 . S
C551 C550 1.377 . S
C551 C552 1.376 . S
C552 H515 0.930 . S
C552 C551 1.376 . S
C552 C553 1.376 . S
C553 C552 1.376 . S
C553 C554 1.378 . S
C553 C580 1.486 . S
C554 H516 0.930 . S
C554 C553 1.378 . S
C554 C555 1.376 . S
C555 H517 0.929 . S
C555 C550 1.397 . S
C555 C554 1.376 . S
C556 C540 1.509 . S
C556 C557 1.391 . S
C556 C561 1.386 . S
C557 H518 0.930 . S
C557 C556 1.391 . S
C557 C558 1.375 . S
C558 H519 0.931 . S
C558 C557 1.375 . S
C558 C559 1.375 . S
C559 C558 1.375 . S
C559 C560 1.361 . S
C560 H520 0.930 . S
C560 C559 1.361 . S
C560 C561 1.399 . S
C561 H521 0.929 . S
C561 C556 1.386 . S
C561 C560 1.399 . S
C562 C541 1.485 . S
C562 C563 1.394 . S
C562 C567 1.360 . S
C563 H522 0.931 . S
C563 C562 1.394 . S
C563 C564 1.372 . S
C564 H523 0.930 . S
C564 C563 1.372 . S
C564 C565 1.397 . S
C565 C564 1.397 . S
C565 C566 1.390 . S
C565 C581 1.476 . S
C566 H524 0.930 . S
C566 C565 1.390 . S
C566 C567 1.366 . S
C567 H525 0.932 . S
C567 C562 1.360 . S
C567 C566 1.366 . S
C568 C542 1.490 . S
C568 C569 1.380 . S
C568 C573 1.386 . S
C569 H526 0.930 . S
C569 C568 1.380 . S
C569 C570 1.381 . S
C570 H527 0.929 . S
C570 C569 1.381 . S
C570 C571 1.371 . S
C571 C570 1.371 . S
C571 C572 1.380 . S
C572 H528 0.931 . S
C572 C571 1.380 . S
C572 C573 1.387 . S
C573 H529 0.930 . S
C573 C568 1.386 . S
C573 C572 1.387 . S
C574 C543 1.519 . S
C574 C575 1.377 . S
C574 C579 1.361 . S
C575 H530 0.929 . S
C575 C574 1.377 . S
C575 C576 1.386 . S
C576 H531 0.931 . S
C576 C575 1.386 . S
C576 C577 1.363 . S
C577 C576 1.363 . S
C577 C578 1.385 . S
C578 H532 0.930 . S
C578 C577 1.385 . S
C578 C579 1.396 . S
C579 H533 0.929 . S
C579 C574 1.361 . S
C579 C578 1.396 . S
C580 O534 1.300 . S
C580 O535 1.209 . S
C580 C553 1.486 . S
C581 O536 1.199 . S
C581 O537 1.297 . S
C581 C565 1.476 . S
H582 C588 0.930 . S
H583 C591 0.930 . S
H584 C592 0.930 . S
H585 C593 0.930 . S
H586 C596 0.930 . S
H587 C597 0.930 . S
C588 H582 0.930 . S
C588 C589 1.355 . S
C588 C590 1.415 . S
C589 C588 1.355 . S
C589 C591 1.419 . S
C590 C588 1.415 . S
C590 C595 1.425 . S
C590 C597 1.409 . S
C591 H583 0.930 . S
C591 C589 1.419 . S
C591 C592 1.362 . S
C592 H584 0.930 . S
C592 C591 1.362 . S
C592 C595 1.409 . S
C593 H585 0.930 . S
C593 C594 1.355 . S
C593 C595 1.415 . S
C594 C593 1.355 . S
C594 C596 1.419 . S
C595 C590 1.425 . S
C595 C592 1.409 . S
C595 C593 1.415 . S
C596 H586 0.930 . S
C596 C594 1.419 . S
C596 C597 1.362 . S
C597 H587 0.930 . S
C597 C590 1.409 . S
C597 C596 1.362 . S
H598 C604 0.930 . S
H599 C607 0.930 . S
H600 C608 0.930 . S
H601 C609 0.930 . S
H602 C612 0.930 . S
H603 C613 0.930 . S
C604 H598 0.930 . S
C604 C605 1.355 . S
C604 C606 1.415 . S
C605 C604 1.355 . S
C605 C607 1.419 . S
C606 C604 1.415 . S
C606 C611 1.425 . S
C606 C613 1.409 . S
C607 H599 0.930 . S
C607 C605 1.419 . S
C607 C608 1.362 . S
C608 H600 0.930 . S
C608 C607 1.362 . S
C608 C611 1.409 . S
C609 H601 0.930 . S
C609 C610 1.355 . S
C609 C611 1.415 . S
C610 C609 1.355 . S
C610 C612 1.419 . S
C611 C606 1.425 . S
C611 C608 1.409 . S
C611 C609 1.415 . S
C612 H602 0.930 . S
C612 C610 1.419 . S
C612 C613 1.362 . S
C613 H603 0.930 . S
C613 C606 1.409 . S
C613 C612 1.362 . S
H614 C620 0.930 . S
H615 C623 0.930 . S
H616 C624 0.930 . S
H617 C625 0.930 . S
H618 C628 0.930 . S
H619 C629 0.930 . S
C620 H614 0.930 . S
C620 C621 1.355 . S
C620 C622 1.415 . S
C621 C620 1.355 . S
C621 C623 1.419 . S
C622 C620 1.415 . S
C622 C627 1.425 . S
C622 C629 1.409 . S
C623 H615 0.930 . S
C623 C621 1.419 . S
C623 C624 1.362 . S
C624 H616 0.930 . S
C624 C623 1.362 . S
C624 C627 1.409 . S
C625 H617 0.930 . S
C625 C626 1.355 . S
C625 C627 1.415 . S
C626 C625 1.355 . S
C626 C628 1.419 . S
C627 C622 1.425 . S
C627 C624 1.409 . S
C627 C625 1.415 . S
C628 H618 0.930 . S
C628 C626 1.419 . S
C628 C629 1.362 . S
C629 H619 0.930 . S
C629 C622 1.409 . S
C629 C628 1.362 . S
H630 C636 0.930 . S
H631 C639 0.930 . S
H632 C640 0.930 . S
H633 C641 0.930 . S
H634 C644 0.930 . S
H635 C645 0.930 . S
C636 H630 0.930 . S
C636 C637 1.355 . S
C636 C638 1.415 . S
C637 C636 1.355 . S
C637 C639 1.419 . S
C638 C636 1.415 . S
C638 C643 1.425 . S
C638 C645 1.409 . S
C639 H631 0.930 . S
C639 C637 1.419 . S
C639 C640 1.362 . S
C640 H632 0.930 . S
C640 C639 1.362 . S
C640 C643 1.409 . S
C641 H633 0.930 . S
C641 C642 1.355 . S
C641 C643 1.415 . S
C642 C641 1.355 . S
C642 C644 1.419 . S
C643 C638 1.425 . S
C643 C640 1.409 . S
C643 C641 1.415 . S
C644 H634 0.930 . S
C644 C642 1.419 . S
C644 C645 1.362 . S
C645 H635 0.930 . S
C645 C638 1.409 . S
C645 C644 1.362 . S
H646 C652 0.930 . S
H647 C655 0.930 . S
H648 C656 0.930 . S
H649 C657 0.930 . S
H650 C660 0.930 . S
H651 C661 0.930 . S
C652 H646 0.930 . S
C652 C653 1.355 1_565 S
C652 C654 1.415 . S
C653 C652 1.355 1_545 S
C653 C655 1.419 . S
C654 C652 1.415 . S
C654 C659 1.425 . S
C654 C661 1.409 . S
C655 H647 0.930 . S
C655 C653 1.419 . S
C655 C656 1.362 1_545 S
C656 H648 0.930 . S
C656 C655 1.362 1_565 S
C656 C659 1.409 . S
C657 H649 0.930 . S
C657 C658 1.355 . S
C657 C659 1.415 . S
C658 C657 1.355 . S
C658 C660 1.419 . S
C659 C654 1.425 . S
C659 C656 1.409 . S
C659 C657 1.415 . S
C660 H650 0.930 . S
C660 C658 1.419 . S
C660 C661 1.362 . S
C661 H651 0.930 . S
C661 C654 1.409 . S
C661 C660 1.362 . S
H662 C668 0.930 . S
H663 C671 0.930 . S
H664 C672 0.930 . S
H665 C673 0.930 . S
H666 C676 0.930 . S
H667 C677 0.930 . S
C668 H662 0.930 . S
C668 C669 1.355 . S
C668 C670 1.415 . S
C669 C668 1.355 . S
C669 C671 1.419 . S
C670 C668 1.415 . S
C670 C675 1.425 . S
C670 C677 1.409 . S
C671 H663 0.930 . S
C671 C669 1.419 . S
C671 C672 1.362 . S
C672 H664 0.930 . S
C672 C671 1.362 . S
C672 C675 1.409 . S
C673 H665 0.930 . S
C673 C674 1.355 . S
C673 C675 1.415 . S
C674 C673 1.355 . S
C674 C676 1.419 . S
C675 C670 1.425 . S
C675 C672 1.409 . S
C675 C673 1.415 . S
C676 H666 0.930 . S
C676 C674 1.419 . S
C676 C677 1.362 . S
C677 H667 0.930 . S
C677 C670 1.409 . S
C677 C676 1.362 . S
H678 C684 0.930 . S
H679 C687 0.930 . S
H680 C688 0.930 . S
H681 C689 0.930 . S
H682 C692 0.930 . S
H683 C693 0.930 . S
C684 H678 0.930 . S
C684 C685 1.355 . S
C684 C686 1.415 . S
C685 C684 1.355 . S
C685 C687 1.419 . S
C686 C684 1.415 . S
C686 C691 1.425 . S
C686 C693 1.409 . S
C687 H679 0.930 . S
C687 C685 1.419 . S
C687 C688 1.362 . S
C688 H680 0.930 . S
C688 C687 1.362 . S
C688 C691 1.409 . S
C689 H681 0.930 . S
C689 C690 1.355 . S
C689 C691 1.415 . S
C690 C689 1.355 . S
C690 C692 1.419 . S
C691 C686 1.425 . S
C691 C688 1.409 . S
C691 C689 1.415 . S
C692 H682 0.930 . S
C692 C690 1.419 . S
C692 C693 1.362 . S
C693 H683 0.930 . S
C693 C686 1.409 . S
C693 C692 1.362 . S
H694 C700 0.930 . S
H695 C703 0.931 . S
H696 C704 0.930 . S
H697 C705 0.930 . S
H698 C708 0.930 . S
H699 C709 0.930 . S
C700 H694 0.930 . S
C700 C701 1.355 . S
C700 C702 1.415 . S
C701 C700 1.355 . S
C701 C703 1.416 1_554 S
C702 C700 1.415 . S
C702 C707 1.425 1_554 S
C702 C709 1.409 . S
C703 H695 0.931 . S
C703 C701 1.416 1_556 S
C703 C704 1.365 . S
C704 H696 0.930 . S
C704 C703 1.365 . S
C704 C707 1.409 . S
C705 H697 0.930 . S
C705 C706 1.355 . S
C705 C707 1.415 . S
C706 C705 1.355 . S
C706 C708 1.419 . S
C707 C702 1.425 1_556 S
C707 C704 1.409 . S
C707 C705 1.415 . S
C708 H698 0.930 . S
C708 C706 1.419 . S
C708 C709 1.362 1_556 S
C709 H699 0.930 . S
C709 C702 1.409 . S
C709 C708 1.362 1_554 S
H710 C716 0.930 . S
H711 C719 0.930 . S
H712 C720 0.930 . S
H713 C721 0.930 . S
H714 C724 0.930 . S
H715 C725 0.930 . S
C716 H710 0.930 . S
C716 C717 1.355 . S
C716 C718 1.415 . S
C717 C716 1.355 . S
C717 C719 1.419 . S
C718 C716 1.415 . S
C718 C723 1.425 . S
C718 C725 1.409 . S
C719 H711 0.930 . S
C719 C717 1.419 . S
C719 C720 1.362 . S
C720 H712 0.930 . S
C720 C719 1.362 . S
C720 C723 1.409 . S
C721 H713 0.930 . S
C721 C722 1.355 . S
C721 C723 1.415 . S
C722 C721 1.355 . S
C722 C724 1.419 . S
C723 C718 1.425 . S
C723 C720 1.409 . S
C723 C721 1.415 . S
C724 H714 0.930 . S
C724 C722 1.419 . S
C724 C725 1.362 . S
C725 H715 0.930 . S
C725 C718 1.409 . S
C725 C724 1.362 . S
H726 C732 0.930 . S
H727 C735 0.930 . S
H728 C736 0.930 . S
H729 C737 0.930 . S
H730 C740 0.930 . S
H731 C741 0.930 . S
C732 H726 0.930 . S
C732 C733 1.355 . S
C732 C734 1.415 1_554 S
C733 C732 1.355 . S
C733 C735 1.419 . S
C734 C732 1.415 1_556 S
C734 C739 1.425 . S
C734 C741 1.409 . S
C735 H727 0.930 . S
C735 C733 1.419 . S
C735 C736 1.362 . S
C736 H728 0.930 . S
C736 C735 1.362 . S
C736 C739 1.409 1_554 S
C737 H729 0.930 . S
C737 C738 1.355 . S
C737 C739 1.415 . S
C738 C737 1.355 . S
C738 C740 1.419 . S
C739 C734 1.425 . S
C739 C736 1.409 1_556 S
C739 C737 1.415 . S
C740 H730 0.930 . S
C740 C738 1.419 . S
C740 C741 1.362 . S
C741 H731 0.930 . S
C741 C734 1.409 . S
C741 C740 1.362 . S
H742 C748 0.930 . S
H743 C751 0.930 . S
H744 C752 0.930 . S
H745 C753 0.930 . S
H746 C756 0.930 . S
H747 C757 0.930 . S
C748 H742 0.930 . S
C748 C749 1.355 . S
C748 C750 1.415 . S
C749 C748 1.355 . S
C749 C751 1.419 . S
C750 C748 1.415 . S
C750 C755 1.425 . S
C750 C757 1.409 . S
C751 H743 0.930 . S
C751 C749 1.419 . S
C751 C752 1.362 . S
C752 H744 0.930 . S
C752 C751 1.362 . S
C752 C755 1.409 . S
C753 H745 0.930 . S
C753 C754 1.355 . S
C753 C755 1.415 . S
C754 C753 1.355 . S
C754 C756 1.419 . S
C755 C750 1.425 . S
C755 C752 1.409 . S
C755 C753 1.415 . S
C756 H746 0.930 . S
C756 C754 1.419 . S
C756 C757 1.362 . S
C757 H747 0.930 . S
C757 C750 1.409 . S
C757 C756 1.362 . S
H758 C764 0.930 . S
H759 C767 0.930 . S
H760 C768 0.930 . S
H761 C769 0.937 . S
H762 C772 0.930 . S
H763 C773 0.930 . S
C764 H758 0.930 . S
C764 C765 1.355 . S
C764 C766 1.415 . S
C765 C764 1.355 . S
C765 C767 1.419 . S
C766 C764 1.415 . S
C766 C771 1.425 . S
C766 C773 1.409 . S
C767 H759 0.930 . S
C767 C765 1.419 . S
C767 C768 1.362 . S
C768 H760 0.930 . S
C768 C767 1.362 . S
C768 C771 1.409 . S
C769 H761 0.937 . S
C769 C770 1.355 . S
C769 C771 1.415 . S
C770 C769 1.355 . S
C770 C772 1.419 . S
C771 C766 1.425 . S
C771 C768 1.409 . S
C771 C769 1.415 . S
C772 H762 0.930 . S
C772 C770 1.419 . S
C772 C773 1.362 . S
C773 H763 0.930 . S
C773 C766 1.409 . S
C773 C772 1.362 . S
H774 C780 0.930 . S
H775 C783 0.930 . S
H776 C784 0.930 . S
H777 C785 0.930 . S
H778 C788 0.930 . S
H779 C789 0.930 . S
C780 H774 0.930 . S
C780 C781 1.355 . S
C780 C782 1.415 . S
C781 C780 1.355 . S
C781 C783 1.419 . S
C782 C780 1.415 . S
C782 C787 1.425 . S
C782 C789 1.409 . S
C783 H775 0.930 . S
C783 C781 1.419 . S
C783 C784 1.362 . S
C784 H776 0.930 . S
C784 C783 1.362 . S
C784 C787 1.409 . S
C785 H777 0.930 . S
C785 C786 1.355 . S
C785 C787 1.415 . S
C786 C785 1.355 . S
C786 C788 1.419 . S
C787 C782 1.425 . S
C787 C784 1.409 . S
C787 C785 1.415 . S
C788 H778 0.930 . S
C788 C786 1.419 . S
C788 C789 1.362 . S
C789 H779 0.930 . S
C789 C782 1.409 . S
C789 C788 1.362 . S
H790 C796 0.930 . S
H791 C799 0.930 . S
H792 C800 0.930 . S
H793 C801 0.930 . S
H794 C804 0.930 . S
H795 C805 0.930 1_545 S
C796 H790 0.930 . S
C796 C797 1.355 . S
C796 C798 1.415 . S
C797 C796 1.355 . S
C797 C799 1.419 . S
C798 C796 1.415 . S
C798 C803 1.425 . S
C798 C805 1.409 . S
C799 H791 0.930 . S
C799 C797 1.419 . S
C799 C800 1.362 . S
C800 H792 0.930 . S
C800 C799 1.362 . S
C800 C803 1.409 . S
C801 H793 0.930 . S
C801 C802 1.355 . S
C801 C803 1.415 . S
C802 C801 1.355 . S
C802 C804 1.419 . S
C803 C798 1.425 . S
C803 C800 1.409 . S
C803 C801 1.415 . S
C804 H794 0.930 . S
C804 C802 1.419 . S
C804 C805 1.362 . S
C805 H795 0.930 1_565 S
C805 C798 1.409 . S
C805 C804 1.362 . S
H806 C812 0.930 . S
H807 C815 0.930 1_554 S
H808 C816 0.930 . S
H809 C817 0.930 . S
H810 C820 0.930 . S
H811 C821 0.930 . S
C812 H806 0.930 . S
C812 C813 1.355 1_556 S
C812 C814 1.415 . S
C813 C812 1.355 1_554 S
C813 C815 1.419 1_554 S
C814 C812 1.415 . S
C814 C819 1.425 . S
C814 C821 1.409 . S
C815 H807 0.930 1_556 S
C815 C813 1.419 1_556 S
C815 C816 1.362 . S
C816 H808 0.930 . S
C816 C815 1.362 . S
C816 C819 1.409 . S
C817 H809 0.930 . S
C817 C818 1.355 . S
C817 C819 1.415 . S
C818 C817 1.355 . S
C818 C820 1.419 . S
C819 C814 1.425 . S
C819 C816 1.409 . S
C819 C817 1.415 . S
C820 H810 0.930 . S
C820 C818 1.419 . S
C820 C821 1.362 . S
C821 H811 0.930 . S
C821 C814 1.409 . S
C821 C820 1.362 . S
H822 C828 0.930 . S
H823 C831 0.930 . S
H824 C832 0.930 . S
H825 C833 0.930 . S
H826 C836 0.930 . S
H827 C837 0.930 . S
C828 H822 0.930 . S
C828 C829 1.355 . S
C828 C830 1.415 . S
C829 C828 1.355 . S
C829 C831 1.419 . S
C830 C828 1.415 . S
C830 C835 1.425 . S
C830 C837 1.409 . S
C831 H823 0.930 . S
C831 C829 1.419 . S
C831 C832 1.362 . S
C832 H824 0.930 . S
C832 C831 1.362 . S
C832 C835 1.409 . S
C833 H825 0.930 . S
C833 C834 1.355 . S
C833 C835 1.415 . S
C834 C833 1.355 . S
C834 C836 1.419 . S
C835 C830 1.425 . S
C835 C832 1.409 . S
C835 C833 1.415 . S
C836 H826 0.930 . S
C836 C834 1.419 . S
C836 C837 1.362 . S
C837 H827 0.930 . S
C837 C830 1.409 . S
C837 C836 1.362 . S
H838 C844 0.930 . S
H839 C847 0.930 . S
H840 C848 0.930 . S
H841 C849 0.930 . S
H842 C852 0.930 1_554 S
H843 C853 0.930 . S
C844 H838 0.930 . S
C844 C845 1.355 . S
C844 C846 1.415 . S
C845 C844 1.355 . S
C845 C847 1.419 1_554 S
C846 C844 1.415 . S
C846 C851 1.425 1_554 S
C846 C853 1.409 . S
C847 H839 0.930 . S
C847 C845 1.419 1_556 S
C847 C848 1.362 . S
C848 H840 0.930 . S
C848 C847 1.362 . S
C848 C851 1.409 . S
C849 H841 0.930 . S
C849 C850 1.355 . S
C849 C851 1.415 . S
C850 C849 1.355 . S
C850 C852 1.419 . S
C851 C846 1.425 1_556 S
C851 C848 1.409 . S
C851 C849 1.415 . S
C852 H842 0.930 1_556 S
C852 C850 1.419 . S
C852 C853 1.362 1_556 S
C853 H843 0.930 . S
C853 C846 1.409 . S
C853 C852 1.362 1_554 S
H854 C860 0.930 . S
H855 C863 0.930 . S
H856 C864 0.930 . S
H857 C865 0.930 . S
H858 C868 0.930 . S
H859 C869 0.930 . S
C860 H854 0.930 . S
C860 C861 1.355 . S
C860 C862 1.415 . S
C861 C860 1.355 . S
C861 C863 1.419 . S
C862 C860 1.415 . S
C862 C867 1.425 . S
C862 C869 1.409 . S
C863 H855 0.930 . S
C863 C861 1.419 . S
C863 C864 1.362 . S
C864 H856 0.930 . S
C864 C863 1.362 . S
C864 C867 1.409 . S
C865 H857 0.930 . S
C865 C866 1.355 . S
C865 C867 1.415 . S
C866 C865 1.355 . S
C866 C868 1.419 . S
C867 C862 1.425 . S
C867 C864 1.409 . S
C867 C865 1.415 . S
C868 H858 0.930 . S
C868 C866 1.419 . S
C868 C869 1.362 . S
C869 H859 0.930 . S
C869 C862 1.409 . S
C869 C868 1.362 . S
H870 C876 0.930 . S
H871 C879 0.930 . S
H872 C880 0.930 . S
H873 C881 0.930 . S
H874 C884 0.930 . S
H875 C885 0.930 . S
C876 H870 0.930 . S
C876 C877 1.355 . S
C876 C878 1.415 . S
C877 C876 1.355 . S
C877 C879 1.419 . S
C878 C876 1.415 . S
C878 C883 1.425 . S
C878 C885 1.409 . S
C879 H871 0.930 . S
C879 C877 1.419 . S
C879 C880 1.362 . S
C880 H872 0.930 . S
C880 C879 1.362 . S
C880 C883 1.409 . S
C881 H873 0.930 . S
C881 C882 1.355 . S
C881 C883 1.415 . S
C882 C881 1.355 . S
C882 C884 1.419 . S
C883 C878 1.425 . S
C883 C880 1.409 . S
C883 C881 1.415 . S
C884 H874 0.930 . S
C884 C882 1.419 . S
C884 C885 1.362 . S
C885 H875 0.930 . S
C885 C878 1.409 . S
C885 C884 1.362 . S
H886 C892 0.930 . S
H887 C895 0.930 . S
H888 C896 0.930 . S
H889 C897 0.930 . S
H890 C900 0.930 . S
H891 C901 0.930 . S
C892 H886 0.930 . S
C892 C893 1.355 . S
C892 C894 1.415 . S
C893 C892 1.355 . S
C893 C895 1.419 . S
C894 C892 1.415 . S
C894 C899 1.425 . S
C894 C901 1.409 . S
C895 H887 0.930 . S
C895 C893 1.419 . S
C895 C896 1.362 . S
C896 H888 0.930 . S
C896 C895 1.362 . S
C896 C899 1.409 . S
C897 H889 0.930 . S
C897 C898 1.355 . S
C897 C899 1.415 . S
C898 C897 1.355 . S
C898 C900 1.419 . S
C899 C894 1.425 . S
C899 C896 1.409 . S
C899 C897 1.415 . S
C900 H890 0.930 . S
C900 C898 1.419 . S
C900 C901 1.362 . S
C901 H891 0.930 . S
C901 C894 1.409 . S
C901 C900 1.362 . S
H902 C908 0.930 . S
H903 C911 0.930 . S
H904 C912 0.930 . S
H905 C913 0.930 . S
H906 C916 0.930 . S
H907 C917 0.930 . S
C908 H902 0.930 . S
C908 C909 1.355 . S
C908 C910 1.415 . S
C909 C908 1.355 . S
C909 C911 1.419 . S
C910 C908 1.415 . S
C910 C915 1.425 . S
C910 C917 1.409 . S
C911 H903 0.930 . S
C911 C909 1.419 . S
C911 C912 1.362 . S
C912 H904 0.930 . S
C912 C911 1.362 . S
C912 C915 1.409 . S
C913 H905 0.930 . S
C913 C914 1.355 . S
C913 C915 1.415 . S
C914 C913 1.355 . S
C914 C916 1.419 . S
C915 C910 1.425 . S
C915 C912 1.409 . S
C915 C913 1.415 . S
C916 H906 0.930 . S
C916 C914 1.419 . S
C916 C917 1.362 . S
C917 H907 0.930 . S
C917 C910 1.409 . S
C917 C916 1.362 . S
H918 C924 0.930 . S
H919 C927 0.930 . S
H920 C928 0.930 . S
H921 C929 0.930 1_545 S
H922 C932 0.930 . S
H923 C933 0.930 . S
C924 H918 0.930 . S
C924 C925 1.355 1_565 S
C924 C926 1.415 . S
C925 C924 1.355 1_545 S
C925 C927 1.419 . S
C926 C924 1.415 . S
C926 C931 1.425 1_565 S
C926 C933 1.409 . S
C927 H919 0.930 . S
C927 C925 1.419 . S
C927 C928 1.362 . S
C928 H920 0.930 . S
C928 C927 1.362 . S
C928 C931 1.409 . S
C929 H921 0.930 1_565 S
C929 C930 1.355 . S
C929 C931 1.415 1_565 S
C930 C929 1.355 . S
C930 C932 1.419 . S
C931 C926 1.425 1_545 S
C931 C928 1.409 . S
C931 C929 1.415 1_545 S
C932 H922 0.930 . S
C932 C930 1.419 . S
C932 C933 1.362 . S
C933 H923 0.930 . S
C933 C926 1.409 . S
C933 C932 1.362 . S
H934 C940 0.930 . S
H935 C943 0.930 . S
H936 C944 0.930 . S
H937 C945 0.930 . S
H938 C948 0.930 . S
H939 C949 0.930 . S
C940 H934 0.930 . S
C940 C941 1.355 . S
C940 C942 1.415 . S
C941 C940 1.355 . S
C941 C943 1.419 . S
C942 C940 1.415 . S
C942 C947 1.425 . S
C942 C949 1.409 . S
C943 H935 0.930 . S
C943 C941 1.419 . S
C943 C944 1.362 . S
C944 H936 0.930 . S
C944 C943 1.362 . S
C944 C947 1.409 . S
C945 H937 0.930 . S
C945 C946 1.355 . S
C945 C947 1.415 . S
C946 C945 1.355 . S
C946 C948 1.419 . S
C947 C942 1.425 . S
C947 C944 1.409 . S
C947 C945 1.415 . S
C948 H938 0.930 . S
C948 C946 1.419 . S
C948 C949 1.362 . S
C949 H939 0.930 . S
C949 C942 1.409 . S
C949 C948 1.362 . S
H950 C956 0.930 . S
H951 C959 0.930 . S
H952 C960 0.930 . S
H953 C961 0.930 . S
H954 C964 0.930 . S
H955 C965 0.930 . S
C956 H950 0.930 . S
C956 C957 1.355 . S
C956 C958 1.415 . S
C957 C956 1.355 . S
C957 C959 1.419 . S
C958 C956 1.415 . S
C958 C963 1.425 . S
C958 C965 1.409 . S
C959 H951 0.930 . S
C959 C957 1.419 . S
C959 C960 1.362 . S
C960 H952 0.930 . S
C960 C959 1.362 . S
C960 C963 1.409 . S
C961 H953 0.930 . S
C961 C962 1.355 . S
C961 C963 1.415 . S
C962 C961 1.355 . S
C962 C964 1.419 . S
C963 C958 1.425 . S
C963 C960 1.409 . S
C963 C961 1.415 . S
C964 H954 0.930 . S
C964 C962 1.419 . S
C964 C965 1.362 . S
C965 H955 0.930 . S
C965 C958 1.409 . S
C965 C964 1.362 . S
C589 C7 2.371 . S
C594 C201 2.351 . S
C605 C30 1.322 . S
C610 C275 1.265 . S
C626 C325 1.741 . S
C621 N58 1.800 . S
C642 C411 1.222 . S
C637 N81 1.134 . S
C658 C503 1.988 . S
C653 C99 1.998 . S
C674 C547 1.617 . S
C669 N127 1.626 . S
C685 N25 1.287 . S
C690 C349 1.282 . S
C701 C62 2.420 . S
C706 C429 2.374 . S
C722 C485 1.470 . S
C717 C85 1.444 . S
C738 C571 1.306 . S
C733 N94 1.319 . S
C749 C131 2.453 . S
C754 C177 2.271 . S
C770 C251 1.673 1_455 S
C765 N2 1.646 . S
C786 C423 2.235 1_455 S
C781 C16 2.446 . S
C797 C39 2.078 . S
C802 C473 1.964 . S
C818 C577 2.199 . S
C813 N48 2.193 . S
C829 N71 1.313 . S
C834 C189 1.307 . S
C845 C108 2.008 . S
C850 C263 1.970 . S
C861 N117 2.035 . S
C866 C355 2.043 . S
C877 N35 1.837 . S
C882 C559 1.825 . S
C898 C207 2.100 . S
C893 C53 2.128 . S
C909 C76 2.444 . S
C914 C281 2.353 . S
C925 N104 1.664 . S
C930 C337 1.644 . S
C941 C122 1.865 . S
C946 C399 1.690 . S
C957 N12 1.751 . S
C962 C497 1.685 . S
