# Generated by pormake.
# Topology wbl, (4,4)-cn, num edge types: 1
# Building blocks:
#     Node 0, Type 0, BuildingBlock: NAWXER_clean_linker_0, # of connection points: 4
#     Node 1, Type 0, BuildingBlock: NAWXER_clean_linker_0, # of connection points: 4
#     Node 2, Type 0, BuildingBlock: NAWXER_clean_linker_0, # of connection points: 4
#     Node 3, Type 0, BuildingBlock: NAWXER_clean_linker_0, # of connection points: 4
#     Node 4, Type 0, BuildingBlock: NAWXER_clean_linker_0, # of connection points: 4
#     Node 5, Type 0, BuildingBlock: NAWXER_clean_linker_0, # of connection points: 4
#     Node 6, Type 0, BuildingBlock: NAWXER_clean_linker_0, # of connection points: 4
#     Node 7, Type 0, BuildingBlock: NAWXER_clean_linker_0, # of connection points: 4
#     Node 8, Type 1, BuildingBlock: NAHDIM_clean_sbu_0, # of connection points: 4
#     Node 9, Type 1, BuildingBlock: NAHDIM_clean_sbu_0, # of connection points: 4
#     Node 10, Type 1, BuildingBlock: NAHDIM_clean_sbu_0, # of connection points: 4
#     Node 11, Type 1, BuildingBlock: NAHDIM_clean_sbu_0, # of connection points: 4
#     Node 12, Type 1, BuildingBlock: NAHDIM_clean_sbu_0, # of connection points: 4
#     Node 13, Type 1, BuildingBlock: NAHDIM_clean_sbu_0, # of connection points: 4
#     Node 14, Type 1, BuildingBlock: NAHDIM_clean_sbu_0, # of connection points: 4
#     Node 15, Type 1, BuildingBlock: NAHDIM_clean_sbu_0, # of connection points: 4
#     Edge 16, Type (0, 1), None
#     Edge 17, Type (0, 1), None
#     Edge 18, Type (0, 1), None
#     Edge 19, Type (0, 1), None
#     Edge 20, Type (0, 1), None
#     Edge 21, Type (0, 1), None
#     Edge 22, Type (0, 1), None
#     Edge 23, Type (0, 1), None
#     Edge 24, Type (0, 1), None
#     Edge 25, Type (0, 1), None
#     Edge 26, Type (0, 1), None
#     Edge 27, Type (0, 1), None
#     Edge 28, Type (0, 1), None
#     Edge 29, Type (0, 1), None
#     Edge 30, Type (0, 1), None
#     Edge 31, Type (0, 1), None
#     Edge 32, Type (0, 1), None
#     Edge 33, Type (0, 1), None
#     Edge 34, Type (0, 1), None
#     Edge 35, Type (0, 1), None
#     Edge 36, Type (0, 1), None
#     Edge 37, Type (0, 1), None
#     Edge 38, Type (0, 1), None
#     Edge 39, Type (0, 1), None
#     Edge 40, Type (0, 1), None
#     Edge 41, Type (0, 1), None
#     Edge 42, Type (0, 1), None
#     Edge 43, Type (0, 1), None
#     Edge 44, Type (0, 1), None
#     Edge 45, Type (0, 1), None
#     Edge 46, Type (0, 1), None
#     Edge 47, Type (0, 1), None
# Relax obj value: 0.154
# Max RMSD: 0.155
# Mean RMSD: 0.140
data_MOF--net-wbl--node1-NAHDIM_clean_sbu_0--node2-NAWXER_clean_linker_0--edge1-none
_symmetry_space_group_name_H-M    P1
_symmetry_Int_Tables_number       1
_symmetry_cell_setting            triclinic
loop_
_symmetry_equiv_pos_as_xyz
'x, y, z'
_cell_length_a     25.358237
_cell_length_b     24.200404
_cell_length_c     41.458873
_cell_angle_alpha  89.81993
_cell_angle_beta   90.389677
_cell_angle_gamma 90.027071
loop_
_atom_site_label
_atom_site_type_symbol
_atom_site_fract_x
_atom_site_fract_y
_atom_site_fract_z
_atom_type_partial_charge
C0 C 0.07852 0.83215 0.37935 0.0
C1 C 0.10825 0.85207 0.4055 0.0
C2 C 0.0509 0.86892 0.35938 0.0
C3 C 0.0539 0.9262 0.36465 0.0
C4 C 0.11187 0.90943 0.41041 0.0
C5 C 0.08497 0.94609 0.39018 0.0
C6 C 0.01929 0.96479 0.3467 0.0
C7 C 0.14714 0.95167 0.27408 0.0
C8 C 0.14692 0.89632 0.26393 0.0
C9 C 0.103 0.97437 0.28868 0.0
C10 C 0.05748 0.94261 0.29295 0.0
C11 C 0.10025 0.86524 0.26671 0.0
C12 C 0.05539 0.88864 0.28077 0.0
C13 C 0.01517 0.96574 0.31284 0.0
C14 C 0.85027 0.14518 0.28995 0.0
C15 C 0.81589 0.11434 0.27025 0.0
C16 C 0.89443 0.12001 0.30418 0.0
C17 C 0.90442 0.06353 0.29918 0.0
C18 C 0.82809 0.05889 0.2637 0.0
C19 C 0.87189 0.03386 0.27795 0.0
C20 C 0.94724 0.03359 0.31621 0.0
C21 C 0.85175 0.10141 0.40269 0.0
C22 C 0.8825 0.13951 0.42028 0.0
C23 C 0.87445 0.06951 0.37834 0.0
C24 C 0.92817 0.07521 0.37139 0.0
C25 C 0.93575 0.1466 0.4122 0.0
C26 C 0.95846 0.11429 0.38821 0.0
C27 C 0.95514 0.0362 0.34994 0.0
H28 H 0.0745 0.78815 0.37528 0.0
H29 H 0.02502 0.85231 0.34099 0.0
H30 H 0.13476 0.92604 0.4303 0.0
H31 H 0.08732 0.99001 0.39498 0.0
H32 H 0.18228 0.97691 0.27222 0.0
H33 H 0.10507 0.01625 0.29781 0.0
H34 H 0.09886 0.82264 0.25881 0.0
H35 H 0.02006 0.86392 0.28343 0.0
H36 H 0.84218 0.18814 0.29521 0.0
H37 H 0.92011 0.14447 0.31945 0.0
H38 H 0.80278 0.03406 0.24837 0.0
H39 H 0.87913 0.99047 0.27335 0.0
H40 H 0.81048 0.09524 0.40826 0.0
H41 H 0.85068 0.03901 0.36586 0.0
H42 H 0.96048 0.17549 0.42527 0.0
H43 H 0.00018 0.11875 0.38331 0.0
N44 N 0.99021 0.00111 0.36388 0.0
N45 N 0.97876 -0.00057 0.29876 0.0
C46 C 0.86771 0.38697 0.66101 0.0
C47 C 0.89804 0.35745 0.68376 0.0
C48 C 0.89221 0.41594 0.63606 0.0
C49 C 0.94735 0.41529 0.63327 0.0
C50 C 0.95323 0.35718 0.68093 0.0
C51 C 0.97763 0.38612 0.65602 0.0
C52 C 0.97413 0.44749 0.60791 0.0
C53 C 0.88488 0.31196 0.56486 0.0
C54 C 0.84549 0.32676 0.54263 0.0
C55 C 0.92417 0.34933 0.57334 0.0
C56 C 0.9227 0.40397 0.56181 0.0
C57 C 0.84614 0.37977 0.52879 0.0
C58 C 0.88419 0.41852 0.53869 0.0
C59 C 0.96036 0.44559 0.57476 0.0
C60 C 0.12052 0.61027 0.52269 0.0
C61 C 0.08709 0.64873 0.50742 0.0
C62 C 0.09937 0.56541 0.53948 0.0
C63 C 0.04449 0.55838 0.54139 0.0
C64 C 0.03239 0.63882 0.50706 0.0
C65 C 0.01129 0.59385 0.52384 0.0
C66 C 0.02159 0.51849 0.56444 0.0
C67 C 0.08476 0.65151 0.63332 0.0
C68 C 0.1249 0.63222 0.65405 0.0
C69 C 0.05874 0.61525 0.61243 0.0
C70 C 0.07231 0.5591 0.61208 0.0
C71 C 0.14091 0.57674 0.65183 0.0
C72 C 0.11442 0.54041 0.63127 0.0
C73 C 0.03639 0.51842 0.59731 0.0
H74 H 0.82512 0.38822 0.66266 0.0
H75 H 0.86817 0.43931 0.61918 0.0
H76 H 0.97773 0.33498 0.6981 0.0
H77 H 0.02027 0.3856 0.65445 0.0
H78 H 0.88578 0.27106 0.57546 0.0
H79 H 0.95506 0.33561 0.58963 0.0
H80 H 0.81654 0.39157 0.51113 0.0
H81 H 0.88281 0.46003 0.52888 0.0
H82 H 0.16283 0.61634 0.52316 0.0
H83 H 0.12578 0.53776 0.55234 0.0
H84 H 0.00558 0.66736 0.49525 0.0
H85 H 0.96886 0.58891 0.52482 0.0
H86 H 0.071 0.6937 0.6347 0.0
H87 H 0.02554 0.63025 0.59834 0.0
H88 H 0.17178 0.56051 0.66737 0.0
H89 H 0.12501 0.49703 0.63157 0.0
N90 N 0.012 0.48314 0.61767 0.0
N91 N 0.98405 0.48197 0.55422 0.0
C92 C 0.6061 0.35462 0.88904 0.0
C93 C 0.62599 0.37522 0.91828 0.0
C94 C 0.58035 0.38979 0.86726 0.0
C95 C 0.57558 0.44665 0.87376 0.0
C96 C 0.62127 0.43194 0.92483 0.0
C97 C 0.59651 0.46727 0.90276 0.0
C98 C 0.54361 0.4834 0.85253 0.0
C99 C 0.67859 0.4449 0.7901 0.0
C100 C 0.67026 0.39646 0.7722 0.0
C101 C 0.63656 0.47169 0.80464 0.0
C102 C 0.58518 0.45131 0.80112 0.0
C103 C 0.61863 0.3763 0.7682 0.0
C104 C 0.57605 0.4043 0.78212 0.0
C105 C 0.54235 0.47896 0.81862 0.0
C106 C 0.37014 0.64487 0.78252 0.0
C107 C 0.33785 0.60881 0.76463 0.0
C108 C 0.41543 0.62498 0.79824 0.0
C109 C 0.42862 0.56859 0.79665 0.0
C110 C 0.35338 0.55339 0.76128 0.0
C111 C 0.39827 0.53359 0.77707 0.0
C112 C 0.47191 0.54413 0.81617 0.0
C113 C 0.36686 0.61966 0.89578 0.0
C114 C 0.39375 0.66318 0.91128 0.0
C115 C 0.39324 0.58525 0.87419 0.0
C116 C 0.44684 0.5938 0.86795 0.0
C117 C 0.4468 0.67309 0.90369 0.0
C118 C 0.47325 0.63823 0.88248 0.0
C119 C 0.47749 0.55307 0.84968 0.0
H120 H 0.60863 0.31098 0.88354 0.0
H121 H 0.56231 0.37182 0.84605 0.0
H122 H 0.63652 0.44908 0.94713 0.0
H123 H 0.59294 0.51069 0.90865 0.0
H124 H 0.71794 0.46123 0.79382 0.0
H125 H 0.64424 0.50814 0.81906 0.0
H126 H 0.6113 0.33908 0.75443 0.0
H127 H 0.53646 0.38817 0.77915 0.0
H128 H 0.35959 0.68796 0.78523 0.0
H129 H 0.43935 0.65343 0.81214 0.0
H130 H 0.32981 0.52456 0.74739 0.0
H131 H 0.40791 0.49011 0.7751 0.0
H132 H 0.32588 0.61112 0.90109 0.0
H133 H 0.37246 0.55072 0.86342 0.0
H134 H 0.46862 0.70606 0.9153 0.0
H135 H 0.51484 0.64501 0.87808 0.0
N136 N 0.51222 0.52157 0.86662 0.0
N137 N 0.5056 0.50819 0.80168 0.0
C138 C 0.39239 0.82581 0.05808 0.0
C139 C 0.35124 0.8412 0.03719 0.0
C140 C 0.42887 0.86475 0.06871 0.0
C141 C 0.42365 0.9206 0.05992 0.0
C142 C 0.34814 0.89602 0.02614 0.0
C143 C 0.38401 0.93573 0.03768 0.0
C144 C 0.45795 0.96273 0.07543 0.0
C145 C 0.35799 0.89564 0.15698 0.0
C146 C 0.38694 0.86677 0.18067 0.0
C147 C 0.38401 0.92549 0.13295 0.0
C148 C 0.43934 0.92663 0.13216 0.0
C149 C 0.44229 0.8672 0.17938 0.0
C150 C 0.4682 0.89722 0.15549 0.0
C151 C 0.46757 0.96233 0.10906 0.0
C152 C 0.57777 0.16877 0.14086 0.0
C153 C 0.61251 0.14811 0.16455 0.0
C154 C 0.55279 0.1329 0.11921 0.0
C155 C 0.5625 0.07584 0.12081 0.0
C156 C 0.62394 0.09131 0.16505 0.0
C157 C 0.599 0.05556 0.14349 0.0
C158 C 0.52852 0.03624 0.10333 0.0
C159 C 0.62342 0.12989 0.03386 0.0
C160 C 0.59259 0.16877 0.01696 0.0
C161 C 0.59959 0.08522 0.04947 0.0
C162 C 0.54454 0.07871 0.04856 0.0
C163 C 0.53793 0.15964 0.01402 0.0
C164 C 0.51416 0.11481 0.02959 0.0
C165 C 0.51831 0.03799 0.06979 0.0
H166 H 0.39643 0.78339 0.0662 0.0
H167 H 0.46041 0.85136 0.08465 0.0
H168 H 0.31709 0.90841 0.00958 0.0
H169 H 0.37971 0.97839 0.03015 0.0
H170 H 0.31529 0.89609 0.15735 0.0
H171 H 0.36096 0.94888 0.11557 0.0
H172 H 0.46575 0.84535 0.19723 0.0
H173 H 0.51093 0.89795 0.15542 0.0
H174 H 0.56751 0.21209 0.14022 0.0
H175 H 0.52363 0.14937 0.10257 0.0
H176 H 0.65072 0.07409 0.1829 0.0
H177 H 0.60663 0.0116 0.14536 0.0
H178 H 0.66563 0.13538 0.0364 0.0
H179 H 0.62394 0.05713 0.06348 0.0
H180 H 0.51309 0.18853 0.00094 0.0
H181 H 0.47168 0.11029 0.02837 0.0
N182 N 0.48321 0.00116 0.05694 0.0
N183 N 0.50275 -0.00144 0.1215 0.0
C184 C 0.09596 0.64542 0.85774 0.0
C185 C 0.11653 0.62183 0.8296 0.0
C186 C 0.06723 0.61323 0.87944 0.0
C187 C 0.05959 0.55652 0.87383 0.0
C188 C 0.10873 0.56515 0.82394 0.0
C189 C 0.0805 0.53286 0.84583 0.0
C190 C 0.026 0.52286 0.89541 0.0
C191 C 0.16907 0.55227 0.95442 0.0
C192 C 0.16514 0.60248 0.97117 0.0
C193 C 0.12437 0.52712 0.94156 0.0
C194 C 0.07465 0.55105 0.94561 0.0
C195 C 0.11509 0.62604 0.97585 0.0
C196 C 0.06986 0.59989 0.96354 0.0
C197 C 0.029 0.52556 0.92933 0.0
C198 C 0.86392 0.35644 0.96883 0.0
C199 C 0.8328 0.38992 0.98878 0.0
C200 C 0.90632 0.37928 0.95194 0.0
C201 C 0.91763 0.43599 0.95446 0.0
C202 C 0.84722 0.44549 0.99329 0.0
C203 C 0.88929 0.46822 0.97634 0.0
C204 C 0.9564 0.46338 0.93331 0.0
C205 C 0.83026 0.39404 0.86533 0.0
C206 C 0.85108 0.3599 0.84114 0.0
C207 C 0.86386 0.4254 0.88499 0.0
C208 C 0.9188 0.42204 0.88124 0.0
C209 C 0.90603 0.35611 0.83783 0.0
C210 C 0.93946 0.38689 0.85765 0.0
C211 C 0.9554 0.45828 0.89931 0.0
H212 H 0.10074 0.6891 0.8626 0.0
H213 H 0.04954 0.63322 0.9 0.0
H214 H 0.12414 0.54572 0.80247 0.0
H215 H 0.07464 0.48939 0.84075 0.0
H216 H 0.207 0.53308 0.95028 0.0
H217 H 0.12868 0.48931 0.92789 0.0
H218 H 0.11101 0.6646 0.98879 0.0
H219 H 0.03158 0.6188 0.96684 0.0
H220 H 0.85413 0.31336 0.96512 0.0
H221 H 0.92883 0.35321 0.93592 0.0
H222 H 0.82453 0.47226 0.00882 0.0
H223 H 0.89787 0.51184 0.97905 0.0
H224 H 0.78803 0.39829 0.8682 0.0
H225 H 0.84689 0.45338 0.9024 0.0
H226 H 0.92329 0.33019 0.81944 0.0
H227 H 0.98169 0.38398 0.85415 0.0
N228 N 0.99 0.48858 0.88177 0.0
N229 N -0.00633 0.49647 0.94711 0.0
C230 C 0.36706 0.60675 0.0844 0.0
C231 C 0.39798 0.63675 0.0624 0.0
C232 C 0.39073 0.57883 0.11029 0.0
C233 C 0.44566 0.5807 0.11467 0.0
C234 C 0.45289 0.63878 0.06703 0.0
C235 C 0.47649 0.61066 0.09277 0.0
C236 C 0.47191 0.5479 0.14025 0.0
C237 C 0.38065 0.68076 0.18542 0.0
C238 C 0.34066 0.66353 0.20634 0.0
C239 C 0.41977 0.64411 0.17594 0.0
C240 C 0.41833 0.58858 0.18588 0.0
C241 C 0.34091 0.60922 0.21826 0.0
C242 C 0.37938 0.57173 0.20784 0.0
C243 C 0.45723 0.54854 0.17313 0.0
C244 C 0.62005 0.38691 0.22701 0.0
C245 C 0.58701 0.34916 0.24293 0.0
C246 C 0.59849 0.43117 0.20969 0.0
C247 C 0.54352 0.43803 0.20766 0.0
C248 C 0.53235 0.35925 0.24331 0.0
C249 C 0.51082 0.40341 0.22587 0.0
C250 C 0.51984 0.477 0.18411 0.0
C251 C 0.59203 0.34434 0.11997 0.0
C252 C 0.62908 0.36461 0.09783 0.0
C253 C 0.56346 0.38075 0.13925 0.0
C254 C 0.5721 0.43794 0.13696 0.0
C255 C 0.63978 0.42159 0.09703 0.0
C256 C 0.61134 0.45789 0.11631 0.0
C257 C 0.53486 0.47748 0.15138 0.0
H258 H 0.32464 0.60438 0.08148 0.0
H259 H 0.36628 0.5549 0.12649 0.0
H260 H 0.47785 0.66148 0.05054 0.0
H261 H 0.51899 0.61214 0.09553 0.0
H262 H 0.38206 0.723 0.1767 0.0
H263 H 0.45087 0.65923 0.16047 0.0
H264 H 0.31079 0.59556 0.23489 0.0
H265 H 0.37805 0.5294 0.21637 0.0
H266 H 0.66235 0.38076 0.22656 0.0
H267 H 0.62461 0.45837 0.19649 0.0
H268 H 0.50579 0.33133 0.25563 0.0
H269 H 0.46836 0.4083 0.22493 0.0
H270 H 0.58263 0.30082 0.12088 0.0
H271 H 0.53245 0.36445 0.1544 0.0
H272 H 0.66831 0.43851 0.08037 0.0
H273 H 0.6183 0.50191 0.114 0.0
N274 N 0.51039 0.51288 0.13088 0.0
N275 N 0.48135 0.51248 0.19384 0.0
C276 C 0.3953 0.82267 0.36021 0.0
C277 C 0.36445 0.84736 0.33585 0.0
C278 C 0.42395 0.8554 0.38186 0.0
C279 C 0.42149 0.91326 0.37987 0.0
C280 C 0.36158 0.9054 0.33426 0.0
C281 C 0.39004 0.93797 0.35597 0.0
C282 C 0.45602 0.94805 0.40015 0.0
C283 C 0.31913 0.93796 0.47006 0.0
C284 C 0.31541 0.88142 0.47761 0.0
C285 C 0.36503 0.95945 0.45679 0.0
C286 C 0.40825 0.92508 0.45107 0.0
C287 C 0.35964 0.84732 0.47306 0.0
C288 C 0.40611 0.86924 0.46013 0.0
C289 C 0.45369 0.94851 0.43403 0.0
C290 C 0.61138 0.12903 0.46773 0.0
C291 C 0.64373 0.09908 0.48921 0.0
C292 C 0.57001 0.10262 0.45141 0.0
C293 C 0.56104 0.04583 0.45603 0.0
C294 C 0.63135 0.0436 0.49589 0.0
C295 C 0.59035 0.0173 0.47949 0.0
C296 C 0.52346 0.01448 0.43575 0.0
C297 C 0.6448 0.08558 0.36632 0.0
C298 C 0.6217 0.11793 0.34174 0.0
C299 C 0.61337 0.05269 0.38629 0.0
C300 C 0.55831 0.05254 0.3824 0.0
C301 C 0.56659 0.11778 0.33809 0.0
C302 C 0.53531 0.08533 0.35816 0.0
C303 C 0.52402 0.01588 0.40163 0.0
H304 H 0.39872 0.77814 0.3619 0.0
H305 H 0.44968 0.83549 0.39928 0.0
H306 H 0.33816 0.92582 0.31582 0.0
H307 H 0.38821 0.98256 0.35377 0.0
H308 H 0.28594 0.96549 0.47332 0.0
H309 H 0.36628 0.00276 0.45008 0.0
H310 H 0.35803 0.80371 0.4789 0.0
H311 H 0.4397 0.84246 0.45645 0.0
H312 H 0.61959 0.17197 0.46232 0.0
H313 H 0.54656 0.12595 0.43421 0.0
H314 H 0.65501 0.01953 0.51263 0.0
H315 H 0.58346 0.97374 0.48389 0.0
H316 H 0.68721 0.08442 0.36955 0.0
H317 H 0.63211 0.02666 0.40431 0.0
H318 H 0.54755 0.14217 0.31941 0.0
H319 H 0.49293 0.08551 0.35459 0.0
N320 N 0.49036 0.98243 0.38522 0.0
N321 N 0.48764 0.98142 0.45067 0.0
C322 C 0.10792 0.90544 0.57801 0.0
C323 C 0.11244 0.84838 0.58387 0.0
C324 C 0.07996 0.93903 0.59909 0.0
C325 C 0.0563 0.91648 0.62661 0.0
C326 C 0.08965 0.82596 0.61181 0.0
C327 C 0.06139 0.85965 0.6329 0.0
C328 C 0.02393 0.95257 0.64723 0.0
C329 C 0.09321 0.84888 0.73474 0.0
C330 C 0.14512 0.848 0.72282 0.0
C331 C 0.05643 0.88686 0.72272 0.0
C332 C 0.07091 0.92438 0.69856 0.0
C333 C 0.16065 0.88913 0.70085 0.0
C334 C 0.12389 0.92719 0.68895 0.0
C335 C 0.02986 0.95602 0.681 0.0
C336 C 0.84714 0.11023 0.71459 0.0
C337 C 0.8723 0.13875 0.73985 0.0
C338 C 0.8748 0.07108 0.69654 0.0
C339 C 0.9285 0.06073 0.70289 0.0
C340 C 0.92488 0.12547 0.74756 0.0
C341 C 0.95262 0.08706 0.72926 0.0
C342 C 0.96019 0.02255 0.68277 0.0
C343 C 0.92014 0.1431 0.59772 0.0
C344 C 0.87902 0.12138 0.57869 0.0
C345 C 0.94214 0.11184 0.62284 0.0
C346 C 0.92389 0.05816 0.62893 0.0
C347 C 0.85879 0.06884 0.5861 0.0
C348 C 0.88174 0.03708 0.61066 0.0
C349 C 0.95605 0.02035 0.64875 0.0
H350 H 0.12505 0.92416 0.55675 0.0
H351 H 0.07642 0.98274 0.59374 0.0
H352 H 0.09249 0.78226 0.61692 0.0
H353 H 0.04256 0.84108 0.65364 0.0
H354 H 0.08004 0.81815 0.75194 0.0
H355 H 0.0159 0.88445 0.73071 0.0
H356 H 0.20039 0.89008 0.69146 0.0
H357 H 0.13613 0.9568 0.67083 0.0
H358 H 0.80647 0.11899 0.70829 0.0
H359 H 0.85409 0.04931 0.67755 0.0
H360 H 0.94555 0.14645 0.76691 0.0
H361 H -0.00634 0.07936 0.73514 0.0
H362 H 0.93629 0.18362 0.59265 0.0
H363 H 0.97548 0.12823 0.63621 0.0
H364 H 0.8272 0.05106 0.57179 0.0
H365 H 0.86801 0.9952 0.61459 0.0
N366 N 0.98774 0.98528 0.63248 0.0
N367 N -0.00268 0.99029 0.6976 0.0
C368 C 0.214 0.62986 0.98229 0.0
O369 O 0.25779 0.60095 0.98407 0.0
O370 O 0.32442 0.66068 0.02878 0.0
Zn371 Zn 0.29315 0.70291 0.99115 0.0
O372 O 0.32785 0.67431 0.95103 0.0
C373 C 0.31295 0.79871 0.02734 0.0
O374 O 0.2943 0.76531 0.04953 0.0
O375 O 0.21648 0.68186 0.98663 0.0
C376 C 0.36808 0.69458 0.93734 0.0
O377 O 0.38986 0.73963 0.94899 0.0
C378 C 0.37348 0.66543 0.03457 0.0
O379 O 0.4022 0.69673 0.01561 0.0
O380 O 0.31087 0.78373 -0.00198 0.0
C381 C 0.19676 0.87116 0.25308 0.0
O382 O 0.23804 0.9029 0.24822 0.0
O383 O 0.31022 0.84086 0.2103 0.0
Zn384 Zn 0.28034 0.80179 0.24892 0.0
O385 O 0.31599 0.83704 0.28705 0.0
C386 C 0.3006 0.70395 0.21587 0.0
O387 O 0.27849 0.73439 0.19326 0.0
O388 O 0.2031 0.81903 0.2528 0.0
C389 C 0.33744 0.81339 0.31114 0.0
O390 O 0.33763 0.75919 0.31293 0.0
C391 C 0.35995 0.83791 0.20729 0.0
O392 O 0.38738 0.81013 0.22891 0.0
O393 O 0.30068 0.72155 0.2447 0.0
C394 C 0.26425 0.85868 0.48807 0.0
O395 O 0.22449 0.89239 0.49294 0.0
O396 O 0.15264 0.83335 0.53318 0.0
Zn397 Zn 0.17831 0.79272 0.49428 0.0
O398 O 0.14321 0.83118 0.45709 0.0
C399 C 0.10825 0.70191 0.49543 0.0
O400 O 0.07569 0.74183 0.4872 0.0
O401 O 0.25579 0.8069 0.48898 0.0
C402 C 0.13294 0.81383 0.4289 0.0
O403 O 0.1433 0.76236 0.42124 0.0
C404 C 0.1378 0.81247 0.55974 0.0
O405 O 0.14078 0.75879 0.56418 0.0
O406 O 0.15714 0.71284 0.49821 0.0
C407 C 0.28606 0.62674 0.75169 0.0
O408 O 0.25352 0.58976 0.73966 0.0
O409 O 0.17548 0.6468 0.70187 0.0
Zn410 Zn 0.19209 0.68264 0.7447 0.0
O411 O 0.1544 0.63748 0.77796 0.0
C412 C 0.18012 0.80038 0.72984 0.0
O413 O 0.22497 0.79478 0.7145 0.0
O414 O 0.26952 0.67594 0.75532 0.0
C415 C 0.14469 0.65635 0.80583 0.0
O416 O 0.15902 0.70706 0.81297 0.0
C417 C 0.1452 0.66751 0.68044 0.0
O418 O 0.12565 0.71715 0.68476 0.0
O419 O 0.16187 0.75953 0.74548 0.0
C420 C 0.69392 0.12234 0.50137 0.0
O421 O 0.72955 0.08878 0.5136 0.0
O422 O 0.81324 0.14329 0.53919 0.0
Zn423 Zn 0.78514 0.18543 0.50027 0.0
O424 O 0.81721 0.1528 0.46045 0.0
C425 C 0.80618 0.28488 0.53349 0.0
O426 O 0.78391 0.25563 0.5564 0.0
O427 O 0.70714 0.17194 0.49515 0.0
C428 C 0.86016 0.16919 0.44814 0.0
O429 O 0.88617 0.20993 0.46182 0.0
C430 C 0.85936 0.15208 0.55022 0.0
O431 O 0.89001 0.18778 0.53553 0.0
O432 O 0.80693 0.2655 0.50507 0.0
C433 C 0.71638 0.36709 0.75929 0.0
O434 O 0.76035 0.39467 0.75464 0.0
O435 O 0.82286 0.32878 0.71391 0.0
Zn436 Zn 0.79282 0.28933 0.75224 0.0
O437 O 0.83475 0.31619 0.79083 0.0
C438 C 0.84666 0.18634 0.75575 0.0
O439 O 0.87243 0.21341 0.77829 0.0
O440 O 0.71757 0.31458 0.75782 0.0
C441 C 0.81608 0.33193 0.81768 0.0
O442 O 0.76515 0.32842 0.82286 0.0
C443 C 0.87262 0.32797 0.71071 0.0
O444 O 0.90144 0.30152 0.73219 0.0
O445 O 0.80552 0.20814 0.7434 0.0
C446 C 0.78239 0.36964 0.00204 0.0
O447 O 0.74879 0.40527 0.01404 0.0
O448 O 0.67127 0.34958 0.04784 0.0
Zn449 Zn 0.69001 0.31026 0.00687 0.0
O450 O 0.65288 0.35242 0.97166 0.0
C451 C 0.61607 0.22144 0.0057 0.0
O452 O 0.58521 0.26206 0.99627 0.0
O453 O 0.76734 0.32001 -0.00216 0.0
C454 C 0.65047 0.33787 0.9423 0.0
O455 O 0.67036 0.29012 0.93359 0.0
C456 C 0.65154 0.32804 0.073 0.0
O457 O 0.64425 0.27434 0.07435 0.0
O458 O 0.66494 0.23114 0.01004 0.0
C459 C 0.76509 0.13739 0.25882 0.0
O460 O 0.72926 0.10394 0.24678 0.0
O461 O 0.65179 0.16285 0.21602 0.0
Zn462 Zn 0.67506 0.20285 0.25641 0.0
O463 O 0.63422 0.16876 0.29309 0.0
C464 C 0.60825 0.29637 0.25564 0.0
O465 O 0.57569 0.25834 0.26631 0.0
O466 O 0.75236 0.18731 0.26435 0.0
C467 C 0.65477 0.14909 0.31875 0.0
O468 O 0.70591 0.15297 0.32338 0.0
C469 C 0.63328 0.18437 0.19032 0.0
O470 O 0.62861 0.2383 0.18811 0.0
O471 O 0.65629 0.28343 0.25116 0.0
loop_
_geom_bond_atom_site_label_1
_geom_bond_atom_site_label_2
_geom_bond_distance
_geom_bond_site_symmetry_2
_ccdc_geom_bond_type
C0 C1 1.384 . S
C0 C2 1.384 . S
C0 H28 0.931 . S
C1 C0 1.384 . S
C1 C4 1.382 . S
C2 C0 1.384 . S
C2 C3 1.381 . S
C2 H29 0.930 . S
C3 C2 1.381 . S
C3 C5 1.381 . S
C3 C6 1.487 . S
C4 C1 1.382 . S
C4 C5 1.387 . S
C4 H30 0.930 . S
C5 C3 1.381 . S
C5 C4 1.387 . S
C5 H31 0.931 1_565 S
C6 C3 1.487 . S
C6 C13 1.399 . S
C6 N44 1.343 1_565 S
C7 C8 1.384 . S
C7 C9 1.384 . S
C7 H32 0.931 . S
C8 C7 1.384 . S
C8 C11 1.382 . S
C9 C7 1.384 . S
C9 C10 1.381 . S
C9 H33 0.930 . S
C10 C9 1.381 . S
C10 C12 1.381 . S
C10 C13 1.487 . S
C11 C8 1.382 . S
C11 C12 1.387 . S
C11 H34 0.930 . S
C12 C10 1.381 . S
C12 C11 1.387 . S
C12 H35 0.931 . S
C13 C6 1.399 . S
C13 C10 1.487 . S
C13 N45 1.343 1_455 S
C14 C15 1.384 . S
C14 C16 1.384 . S
C14 H36 0.931 . S
C15 C14 1.384 . S
C15 C18 1.382 . S
C16 C14 1.384 . S
C16 C17 1.381 . S
C16 H37 0.930 . S
C17 C16 1.381 . S
C17 C19 1.381 . S
C17 C20 1.487 . S
C18 C15 1.382 . S
C18 C19 1.387 . S
C18 H38 0.930 . S
C19 C17 1.381 . S
C19 C18 1.387 . S
C19 H39 0.931 1_545 S
C20 C17 1.487 . S
C20 C27 1.399 . S
C20 N45 1.343 1_545 S
C21 C22 1.384 . S
C21 C23 1.384 . S
C21 H40 0.931 . S
C22 C21 1.384 . S
C22 C25 1.382 . S
C23 C21 1.384 . S
C23 C24 1.381 . S
C23 H41 0.930 . S
C24 C23 1.381 . S
C24 C26 1.381 . S
C24 C27 1.487 . S
C25 C22 1.382 . S
C25 C26 1.387 . S
C25 H42 0.930 . S
C26 C24 1.381 . S
C26 C25 1.387 . S
C26 H43 0.931 . S
C27 C20 1.399 . S
C27 C24 1.487 . S
C27 N44 1.343 1_655 S
H28 C0 0.931 . S
H29 C2 0.930 . S
H30 C4 0.930 . S
H31 C5 0.931 1_545 S
H32 C7 0.931 . S
H33 C9 0.930 . S
H34 C11 0.930 . S
H35 C12 0.931 . S
H36 C14 0.931 . S
H37 C16 0.930 . S
H38 C18 0.930 . S
H39 C19 0.931 1_565 S
H40 C21 0.931 . S
H41 C23 0.930 . S
H42 C25 0.930 . S
H43 C26 0.931 . S
N44 C6 1.343 1_545 S
N44 C27 1.343 1_455 S
N45 C13 1.343 1_655 S
N45 C20 1.343 1_565 S
C46 C47 1.384 . S
C46 C48 1.384 . S
C46 H74 0.931 . S
C47 C46 1.384 . S
C47 C50 1.382 . S
C48 C46 1.384 . S
C48 C49 1.381 . S
C48 H75 0.930 . S
C49 C48 1.381 . S
C49 C51 1.381 . S
C49 C52 1.487 . S
C50 C47 1.382 . S
C50 C51 1.387 . S
C50 H76 0.930 . S
C51 C49 1.381 . S
C51 C50 1.387 . S
C51 H77 0.931 1_655 S
C52 C49 1.487 . S
C52 C59 1.399 . S
C52 N90 1.343 1_655 S
C53 C54 1.384 . S
C53 C55 1.384 . S
C53 H78 0.931 . S
C54 C53 1.384 . S
C54 C57 1.382 . S
C55 C53 1.384 . S
C55 C56 1.381 . S
C55 H79 0.930 . S
C56 C55 1.381 . S
C56 C58 1.381 . S
C56 C59 1.487 . S
C57 C54 1.382 . S
C57 C58 1.387 . S
C57 H80 0.930 . S
C58 C56 1.381 . S
C58 C57 1.387 . S
C58 H81 0.931 . S
C59 C52 1.399 . S
C59 C56 1.487 . S
C59 N91 1.343 . S
C60 C61 1.384 . S
C60 C62 1.384 . S
C60 H82 0.931 . S
C61 C60 1.384 . S
C61 C64 1.382 . S
C62 C60 1.384 . S
C62 C63 1.381 . S
C62 H83 0.930 . S
C63 C62 1.381 . S
C63 C65 1.381 . S
C63 C66 1.487 . S
C64 C61 1.382 . S
C64 C65 1.387 . S
C64 H84 0.930 . S
C65 C63 1.381 . S
C65 C64 1.387 . S
C65 H85 0.931 1_455 S
C66 C63 1.487 . S
C66 C73 1.399 . S
C66 N91 1.343 1_455 S
C67 C68 1.384 . S
C67 C69 1.384 . S
C67 H86 0.931 . S
C68 C67 1.384 . S
C68 C71 1.382 . S
C69 C67 1.384 . S
C69 C70 1.381 . S
C69 H87 0.930 . S
C70 C69 1.381 . S
C70 C72 1.381 . S
C70 C73 1.487 . S
C71 C68 1.382 . S
C71 C72 1.387 . S
C71 H88 0.930 . S
C72 C70 1.381 . S
C72 C71 1.387 . S
C72 H89 0.931 . S
C73 C66 1.399 . S
C73 C70 1.487 . S
C73 N90 1.343 . S
H74 C46 0.931 . S
H75 C48 0.930 . S
H76 C50 0.930 . S
H77 C51 0.931 1_455 S
H78 C53 0.931 . S
H79 C55 0.930 . S
H80 C57 0.930 . S
H81 C58 0.931 . S
H82 C60 0.931 . S
H83 C62 0.930 . S
H84 C64 0.930 . S
H85 C65 0.931 1_655 S
H86 C67 0.931 . S
H87 C69 0.930 . S
H88 C71 0.930 . S
H89 C72 0.931 . S
N90 C52 1.343 1_455 S
N90 C73 1.343 . S
N91 C59 1.343 . S
N91 C66 1.343 1_655 S
C92 C93 1.384 . S
C92 C94 1.384 . S
C92 H120 0.931 . S
C93 C92 1.384 . S
C93 C96 1.382 . S
C94 C92 1.384 . S
C94 C95 1.381 . S
C94 H121 0.930 . S
C95 C94 1.381 . S
C95 C97 1.381 . S
C95 C98 1.487 . S
C96 C93 1.382 . S
C96 C97 1.387 . S
C96 H122 0.930 . S
C97 C95 1.381 . S
C97 C96 1.387 . S
C97 H123 0.931 . S
C98 C95 1.487 . S
C98 C105 1.399 . S
C98 N136 1.343 . S
C99 C100 1.384 . S
C99 C101 1.384 . S
C99 H124 0.931 . S
C100 C99 1.384 . S
C100 C103 1.382 . S
C101 C99 1.384 . S
C101 C102 1.381 . S
C101 H125 0.930 . S
C102 C101 1.381 . S
C102 C104 1.381 . S
C102 C105 1.487 . S
C103 C100 1.382 . S
C103 C104 1.387 . S
C103 H126 0.930 . S
C104 C102 1.381 . S
C104 C103 1.387 . S
C104 H127 0.931 . S
C105 C98 1.399 . S
C105 C102 1.487 . S
C105 N137 1.343 . S
C106 C107 1.384 . S
C106 C108 1.384 . S
C106 H128 0.931 . S
C107 C106 1.384 . S
C107 C110 1.382 . S
C108 C106 1.384 . S
C108 C109 1.381 . S
C108 H129 0.930 . S
C109 C108 1.381 . S
C109 C111 1.381 . S
C109 C112 1.487 . S
C110 C107 1.382 . S
C110 C111 1.387 . S
C110 H130 0.930 . S
C111 C109 1.381 . S
C111 C110 1.387 . S
C111 H131 0.931 . S
C112 C109 1.487 . S
C112 C119 1.399 . S
C112 N137 1.343 . S
C113 C114 1.384 . S
C113 C115 1.384 . S
C113 H132 0.931 . S
C114 C113 1.384 . S
C114 C117 1.382 . S
C115 C113 1.384 . S
C115 C116 1.381 . S
C115 H133 0.930 . S
C116 C115 1.381 . S
C116 C118 1.381 . S
C116 C119 1.487 . S
C117 C114 1.382 . S
C117 C118 1.387 . S
C117 H134 0.930 . S
C118 C116 1.381 . S
C118 C117 1.387 . S
C118 H135 0.931 . S
C119 C112 1.399 . S
C119 C116 1.487 . S
C119 N136 1.343 . S
H120 C92 0.931 . S
H121 C94 0.930 . S
H122 C96 0.930 . S
H123 C97 0.931 . S
H124 C99 0.931 . S
H125 C101 0.930 . S
H126 C103 0.930 . S
H127 C104 0.931 . S
H128 C106 0.931 . S
H129 C108 0.930 . S
H130 C110 0.930 . S
H131 C111 0.931 . S
H132 C113 0.931 . S
H133 C115 0.930 . S
H134 C117 0.930 . S
H135 C118 0.931 . S
N136 C98 1.343 . S
N136 C119 1.343 . S
N137 C105 1.343 . S
N137 C112 1.343 . S
C138 C139 1.384 . S
C138 C140 1.384 . S
C138 H166 0.931 . S
C139 C138 1.384 . S
C139 C142 1.382 . S
C140 C138 1.384 . S
C140 C141 1.381 . S
C140 H167 0.930 . S
C141 C140 1.381 . S
C141 C143 1.381 . S
C141 C144 1.487 . S
C142 C139 1.382 . S
C142 C143 1.387 . S
C142 H168 0.930 1_554 S
C143 C141 1.381 . S
C143 C142 1.387 . S
C143 H169 0.931 . S
C144 C141 1.487 . S
C144 C151 1.399 . S
C144 N182 1.343 1_565 S
C145 C146 1.384 . S
C145 C147 1.384 . S
C145 H170 0.931 . S
C146 C145 1.384 . S
C146 C149 1.382 . S
C147 C145 1.384 . S
C147 C148 1.381 . S
C147 H171 0.930 . S
C148 C147 1.381 . S
C148 C150 1.381 . S
C148 C151 1.487 . S
C149 C146 1.382 . S
C149 C150 1.387 . S
C149 H172 0.930 . S
C150 C148 1.381 . S
C150 C149 1.387 . S
C150 H173 0.931 . S
C151 C144 1.399 . S
C151 C148 1.487 . S
C151 N183 1.343 . S
C152 C153 1.384 . S
C152 C154 1.384 . S
C152 H174 0.931 . S
C153 C152 1.384 . S
C153 C156 1.382 . S
C154 C152 1.384 . S
C154 C155 1.381 . S
C154 H175 0.930 . S
C155 C154 1.381 . S
C155 C157 1.381 . S
C155 C158 1.487 . S
C156 C153 1.382 . S
C156 C157 1.387 . S
C156 H176 0.930 . S
C157 C155 1.381 . S
C157 C156 1.387 . S
C157 H177 0.931 . S
C158 C155 1.487 . S
C158 C165 1.399 . S
C158 N183 1.343 1_545 S
C159 C160 1.384 . S
C159 C161 1.384 . S
C159 H178 0.931 . S
C160 C159 1.384 . S
C160 C163 1.382 . S
C161 C159 1.384 . S
C161 C162 1.381 . S
C161 H179 0.930 . S
C162 C161 1.381 . S
C162 C164 1.381 . S
C162 C165 1.487 . S
C163 C160 1.382 . S
C163 C164 1.387 . S
C163 H180 0.930 1_554 S
C164 C162 1.381 . S
C164 C163 1.387 . S
C164 H181 0.931 . S
C165 C158 1.399 . S
C165 C162 1.487 . S
C165 N182 1.343 . S
H166 C138 0.931 . S
H167 C140 0.930 . S
H168 C142 0.930 1_556 S
H169 C143 0.931 . S
H170 C145 0.931 . S
H171 C147 0.930 . S
H172 C149 0.930 . S
H173 C150 0.931 . S
H174 C152 0.931 . S
H175 C154 0.930 . S
H176 C156 0.930 . S
H177 C157 0.931 . S
H178 C159 0.931 . S
H179 C161 0.930 . S
H180 C163 0.930 1_556 S
H181 C164 0.931 . S
N182 C144 1.343 1_545 S
N182 C165 1.343 . S
N183 C151 1.343 . S
N183 C158 1.343 1_565 S
C184 C185 1.384 . S
C184 C186 1.384 . S
C184 H212 0.931 . S
C185 C184 1.384 . S
C185 C188 1.382 . S
C186 C184 1.384 . S
C186 C187 1.381 . S
C186 H213 0.930 . S
C187 C186 1.381 . S
C187 C189 1.381 . S
C187 C190 1.487 . S
C188 C185 1.382 . S
C188 C189 1.387 . S
C188 H214 0.930 . S
C189 C187 1.381 . S
C189 C188 1.387 . S
C189 H215 0.931 . S
C190 C187 1.487 . S
C190 C197 1.399 . S
C190 N228 1.343 . S
C191 C192 1.384 . S
C191 C193 1.384 . S
C191 H216 0.931 . S
C192 C191 1.384 . S
C192 C195 1.378 1_556 S
C193 C191 1.384 . S
C193 C194 1.381 . S
C193 H217 0.930 . S
C194 C193 1.381 . S
C194 C196 1.381 . S
C194 C197 1.487 . S
C195 C192 1.378 1_554 S
C195 C196 1.367 1_554 S
C195 H218 0.955 . S
C196 C194 1.381 . S
C196 C195 1.367 1_556 S
C196 H219 0.931 . S
C197 C190 1.399 . S
C197 C194 1.487 . S
C197 N229 1.343 1_455 S
C198 C199 1.384 . S
C198 C200 1.384 . S
C198 H220 0.931 . S
C199 C198 1.384 . S
C199 C202 1.378 1_556 S
C200 C198 1.384 . S
C200 C201 1.381 . S
C200 H221 0.930 . S
C201 C200 1.381 . S
C201 C203 1.381 . S
C201 C204 1.487 . S
C202 C199 1.378 1_554 S
C202 C203 1.367 1_554 S
C202 H222 0.955 . S
C203 C201 1.381 . S
C203 C202 1.367 1_556 S
C203 H223 0.931 . S
C204 C201 1.487 . S
C204 C211 1.399 . S
C204 N229 1.343 . S
C205 C206 1.384 . S
C205 C207 1.384 . S
C205 H224 0.931 . S
C206 C205 1.384 . S
C206 C209 1.382 . S
C207 C205 1.384 . S
C207 C208 1.381 . S
C207 H225 0.930 . S
C208 C207 1.381 . S
C208 C210 1.381 . S
C208 C211 1.487 . S
C209 C206 1.382 . S
C209 C210 1.387 . S
C209 H226 0.930 . S
C210 C208 1.381 . S
C210 C209 1.387 . S
C210 H227 0.931 . S
C211 C204 1.399 . S
C211 C208 1.487 . S
C211 N228 1.343 1_655 S
H212 C184 0.931 . S
H213 C186 0.930 . S
H214 C188 0.930 . S
H215 C189 0.931 . S
H216 C191 0.931 . S
H217 C193 0.930 . S
H218 C195 0.955 . S
H219 C196 0.931 . S
H220 C198 0.931 . S
H221 C200 0.930 . S
H222 C202 0.955 . S
H223 C203 0.931 . S
H224 C205 0.931 . S
H225 C207 0.930 . S
H226 C209 0.930 . S
H227 C210 0.931 . S
N228 C190 1.343 . S
N228 C211 1.343 1_455 S
N229 C197 1.343 1_655 S
N229 C204 1.343 . S
C230 C231 1.384 . S
C230 C232 1.384 . S
C230 H258 0.931 . S
C231 C230 1.384 . S
C231 C234 1.382 . S
C232 C230 1.384 . S
C232 C233 1.381 . S
C232 H259 0.930 . S
C233 C232 1.381 . S
C233 C235 1.381 . S
C233 C236 1.487 . S
C234 C231 1.382 . S
C234 C235 1.387 . S
C234 H260 0.930 . S
C235 C233 1.381 . S
C235 C234 1.387 . S
C235 H261 0.931 . S
C236 C233 1.487 . S
C236 C243 1.399 . S
C236 N274 1.343 . S
C237 C238 1.384 . S
C237 C239 1.384 . S
C237 H262 0.931 . S
C238 C237 1.384 . S
C238 C241 1.382 . S
C239 C237 1.384 . S
C239 C240 1.381 . S
C239 H263 0.930 . S
C240 C239 1.381 . S
C240 C242 1.381 . S
C240 C243 1.487 . S
C241 C238 1.382 . S
C241 C242 1.387 . S
C241 H264 0.930 . S
C242 C240 1.381 . S
C242 C241 1.387 . S
C242 H265 0.931 . S
C243 C236 1.399 . S
C243 C240 1.487 . S
C243 N275 1.343 . S
C244 C245 1.384 . S
C244 C246 1.384 . S
C244 H266 0.931 . S
C245 C244 1.384 . S
C245 C248 1.382 . S
C246 C244 1.384 . S
C246 C247 1.381 . S
C246 H267 0.930 . S
C247 C246 1.381 . S
C247 C249 1.381 . S
C247 C250 1.487 . S
C248 C245 1.382 . S
C248 C249 1.387 . S
C248 H268 0.930 . S
C249 C247 1.381 . S
C249 C248 1.387 . S
C249 H269 0.931 . S
C250 C247 1.487 . S
C250 C257 1.399 . S
C250 N275 1.343 . S
C251 C252 1.384 . S
C251 C253 1.384 . S
C251 H270 0.931 . S
C252 C251 1.384 . S
C252 C255 1.382 . S
C253 C251 1.384 . S
C253 C254 1.381 . S
C253 H271 0.930 . S
C254 C253 1.381 . S
C254 C256 1.381 . S
C254 C257 1.487 . S
C255 C252 1.382 . S
C255 C256 1.387 . S
C255 H272 0.930 . S
C256 C254 1.381 . S
C256 C255 1.387 . S
C256 H273 0.931 . S
C257 C250 1.399 . S
C257 C254 1.487 . S
C257 N274 1.343 . S
H258 C230 0.931 . S
H259 C232 0.930 . S
H260 C234 0.930 . S
H261 C235 0.931 . S
H262 C237 0.931 . S
H263 C239 0.930 . S
H264 C241 0.930 . S
H265 C242 0.931 . S
H266 C244 0.931 . S
H267 C246 0.930 . S
H268 C248 0.930 . S
H269 C249 0.931 . S
H270 C251 0.931 . S
H271 C253 0.930 . S
H272 C255 0.930 . S
H273 C256 0.931 . S
N274 C236 1.343 . S
N274 C257 1.343 . S
N275 C243 1.343 . S
N275 C250 1.343 . S
C276 C277 1.384 . S
C276 C278 1.384 . S
C276 H304 0.931 . S
C277 C276 1.384 . S
C277 C280 1.382 . S
C278 C276 1.384 . S
C278 C279 1.381 . S
C278 H305 0.930 . S
C279 C278 1.381 . S
C279 C281 1.381 . S
C279 C282 1.487 . S
C280 C277 1.382 . S
C280 C281 1.387 . S
C280 H306 0.930 . S
C281 C279 1.381 . S
C281 C280 1.387 . S
C281 H307 0.931 1_565 S
C282 C279 1.487 . S
C282 C289 1.399 . S
C282 N320 1.343 1_565 S
C283 C284 1.384 . S
C283 C285 1.384 . S
C283 H308 0.931 . S
C284 C283 1.384 . S
C284 C287 1.382 . S
C285 C283 1.384 . S
C285 C286 1.381 . S
C285 H309 0.930 . S
C286 C285 1.381 . S
C286 C288 1.381 . S
C286 C289 1.487 . S
C287 C284 1.382 . S
C287 C288 1.387 . S
C287 H310 0.930 . S
C288 C286 1.381 . S
C288 C287 1.387 . S
C288 H311 0.931 . S
C289 C282 1.399 . S
C289 C286 1.487 . S
C289 N321 1.343 . S
C290 C291 1.384 . S
C290 C292 1.384 . S
C290 H312 0.931 . S
C291 C290 1.384 . S
C291 C294 1.382 . S
C292 C290 1.384 . S
C292 C293 1.381 . S
C292 H313 0.930 . S
C293 C292 1.381 . S
C293 C295 1.381 . S
C293 C296 1.487 . S
C294 C291 1.382 . S
C294 C295 1.387 . S
C294 H314 0.930 . S
C295 C293 1.381 . S
C295 C294 1.387 . S
C295 H315 0.931 1_545 S
C296 C293 1.487 . S
C296 C303 1.399 . S
C296 N321 1.343 1_545 S
C297 C298 1.384 . S
C297 C299 1.384 . S
C297 H316 0.931 . S
C298 C297 1.384 . S
C298 C301 1.382 . S
C299 C297 1.384 . S
C299 C300 1.381 . S
C299 H317 0.930 . S
C300 C299 1.381 . S
C300 C302 1.381 . S
C300 C303 1.487 . S
C301 C298 1.382 . S
C301 C302 1.387 . S
C301 H318 0.930 . S
C302 C300 1.381 . S
C302 C301 1.387 . S
C302 H319 0.931 . S
C303 C296 1.399 . S
C303 C300 1.487 . S
C303 N320 1.343 . S
H304 C276 0.931 . S
H305 C278 0.930 . S
H306 C280 0.930 . S
H307 C281 0.931 1_545 S
H308 C283 0.931 . S
H309 C285 0.930 . S
H310 C287 0.930 . S
H311 C288 0.931 . S
H312 C290 0.931 . S
H313 C292 0.930 . S
H314 C294 0.930 . S
H315 C295 0.931 1_565 S
H316 C297 0.931 . S
H317 C299 0.930 . S
H318 C301 0.930 . S
H319 C302 0.931 . S
N320 C282 1.343 1_545 S
N320 C303 1.343 . S
N321 C289 1.343 . S
N321 C296 1.343 1_565 S
C322 C323 1.384 . S
C322 C324 1.384 . S
C322 H350 0.931 . S
C323 C322 1.384 . S
C323 C326 1.382 . S
C324 C322 1.384 . S
C324 C325 1.381 . S
C324 H351 0.930 . S
C325 C324 1.381 . S
C325 C327 1.381 . S
C325 C328 1.487 . S
C326 C323 1.382 . S
C326 C327 1.387 . S
C326 H352 0.930 . S
C327 C325 1.381 . S
C327 C326 1.387 . S
C327 H353 0.931 1_455 S
C328 C325 1.487 . S
C328 C335 1.399 . S
C328 N366 1.343 1_455 S
C329 C330 1.384 . S
C329 C331 1.384 . S
C329 H354 0.931 . S
C330 C329 1.384 . S
C330 C333 1.382 . S
C331 C329 1.384 . S
C331 C332 1.381 . S
C331 H355 0.930 . S
C332 C331 1.381 . S
C332 C334 1.381 . S
C332 C335 1.487 . S
C333 C330 1.382 . S
C333 C334 1.387 . S
C333 H356 0.930 . S
C334 C332 1.381 . S
C334 C333 1.387 . S
C334 H357 0.931 . S
C335 C328 1.399 . S
C335 C332 1.487 . S
C335 N367 1.343 1_565 S
C336 C337 1.384 . S
C336 C338 1.384 . S
C336 H358 0.931 . S
C337 C336 1.384 . S
C337 C340 1.382 . S
C338 C336 1.384 . S
C338 C339 1.381 . S
C338 H359 0.930 . S
C339 C338 1.381 . S
C339 C341 1.381 . S
C339 C342 1.487 . S
C340 C337 1.382 . S
C340 C341 1.387 . S
C340 H360 0.930 . S
C341 C339 1.381 . S
C341 C340 1.387 . S
C341 H361 0.931 1_655 S
C342 C339 1.487 . S
C342 C349 1.399 . S
C342 N367 1.343 1_655 S
C343 C344 1.384 . S
C343 C345 1.384 . S
C343 H362 0.931 . S
C344 C343 1.384 . S
C344 C347 1.382 . S
C345 C343 1.384 . S
C345 C346 1.381 . S
C345 H363 0.930 . S
C346 C345 1.381 . S
C346 C348 1.381 . S
C346 C349 1.487 . S
C347 C344 1.382 . S
C347 C348 1.387 . S
C347 H364 0.930 . S
C348 C346 1.381 . S
C348 C347 1.387 . S
C348 H365 0.931 . S
C349 C342 1.399 . S
C349 C346 1.487 . S
C349 N366 1.343 1_545 S
H350 C322 0.931 . S
H351 C324 0.930 . S
H352 C326 0.930 . S
H353 C327 0.931 1_655 S
H354 C329 0.931 . S
H355 C331 0.930 . S
H356 C333 0.930 . S
H357 C334 0.931 . S
H358 C336 0.931 . S
H359 C338 0.930 . S
H360 C340 0.930 . S
H361 C341 0.931 1_455 S
H362 C343 0.931 . S
H363 C345 0.930 . S
H364 C347 0.930 . S
H365 C348 0.931 . S
N366 C328 1.343 1_655 S
N366 C349 1.343 1_565 S
N367 C335 1.343 1_545 S
N367 C342 1.343 1_455 S
C368 O369 1.160 1_556 S
C368 O375 1.185 . S
O369 C368 1.160 1_554 S
O370 Zn371 1.899 . S
O370 C378 1.284 . S
Zn371 O370 1.899 . S
Zn371 O372 2.032 1_554 S
Zn371 O375 2.086 1_554 S
Zn371 O380 1.977 . S
O372 Zn371 2.032 1_556 S
O372 C376 1.278 . S
C373 O374 1.203 . S
C373 O380 1.267 . S
O374 C373 1.203 . S
O375 C368 1.185 . S
O375 Zn371 2.086 1_556 S
C376 O372 1.278 . S
C376 O377 1.211 . S
O377 C376 1.211 . S
C378 O370 1.284 . S
C378 O379 1.273 . S
O379 C378 1.273 . S
O380 Zn371 1.977 . S
O380 C373 1.267 . S
C381 O382 1.160 . S
C381 O388 1.185 . S
O382 C381 1.160 . S
O383 Zn384 1.899 . S
O383 C391 1.284 . S
Zn384 O383 1.899 . S
Zn384 O385 2.032 . S
Zn384 O388 2.086 . S
Zn384 O393 1.977 . S
O385 Zn384 2.032 . S
O385 C389 1.278 . S
C386 O387 1.203 . S
C386 O393 1.267 . S
O387 C386 1.203 . S
O388 C381 1.185 . S
O388 Zn384 2.086 . S
C389 O385 1.278 . S
C389 O390 1.211 . S
O390 C389 1.211 . S
C391 O383 1.284 . S
C391 O392 1.273 . S
O392 C391 1.273 . S
O393 Zn384 1.977 . S
O393 C386 1.267 . S
C394 O395 1.160 . S
C394 O401 1.185 . S
O395 C394 1.160 . S
O396 Zn397 1.899 . S
O396 C404 1.284 . S
Zn397 O396 1.899 . S
Zn397 O398 2.032 . S
Zn397 O401 2.086 . S
Zn397 O406 1.977 . S
O398 Zn397 2.032 . S
O398 C402 1.278 . S
C399 O400 1.203 . S
C399 O406 1.267 . S
O400 C399 1.203 . S
O401 C394 1.185 . S
O401 Zn397 2.086 . S
C402 O398 1.278 . S
C402 O403 1.211 . S
O403 C402 1.211 . S
C404 O396 1.284 . S
C404 O405 1.273 . S
O405 C404 1.273 . S
O406 Zn397 1.977 . S
O406 C399 1.267 . S
C407 O408 1.160 . S
C407 O414 1.185 . S
O408 C407 1.160 . S
O409 Zn410 1.899 . S
O409 C417 1.284 . S
Zn410 O409 1.899 . S
Zn410 O411 2.032 . S
Zn410 O414 2.086 . S
Zn410 O419 1.977 . S
O411 Zn410 2.032 . S
O411 C415 1.278 . S
C412 O413 1.203 . S
C412 O419 1.267 . S
O413 C412 1.203 . S
O414 C407 1.185 . S
O414 Zn410 2.086 . S
C415 O411 1.278 . S
C415 O416 1.211 . S
O416 C415 1.211 . S
C417 O409 1.284 . S
C417 O418 1.273 . S
O418 C417 1.273 . S
O419 Zn410 1.977 . S
O419 C412 1.267 . S
C420 O421 1.160 . S
C420 O427 1.185 . S
O421 C420 1.160 . S
O422 Zn423 1.899 . S
O422 C430 1.284 . S
Zn423 O422 1.899 . S
Zn423 O424 2.032 . S
Zn423 O427 2.086 . S
Zn423 O432 1.977 . S
O424 Zn423 2.032 . S
O424 C428 1.278 . S
C425 O426 1.203 . S
C425 O432 1.267 . S
O426 C425 1.203 . S
O427 C420 1.185 . S
O427 Zn423 2.086 . S
C428 O424 1.278 . S
C428 O429 1.211 . S
O429 C428 1.211 . S
C430 O422 1.284 . S
C430 O431 1.273 . S
O431 C430 1.273 . S
O432 Zn423 1.977 . S
O432 C425 1.267 . S
C433 O434 1.160 . S
C433 O440 1.185 . S
O434 C433 1.160 . S
O435 Zn436 1.899 . S
O435 C443 1.284 . S
Zn436 O435 1.899 . S
Zn436 O437 2.032 . S
Zn436 O440 2.086 . S
Zn436 O445 1.977 . S
O437 Zn436 2.032 . S
O437 C441 1.278 . S
C438 O439 1.203 . S
C438 O445 1.267 . S
O439 C438 1.203 . S
O440 C433 1.185 . S
O440 Zn436 2.086 . S
C441 O437 1.278 . S
C441 O442 1.211 . S
O442 C441 1.211 . S
C443 O435 1.284 . S
C443 O444 1.273 . S
O444 C443 1.273 . S
O445 Zn436 1.977 . S
O445 C438 1.267 . S
C446 O447 1.160 1_556 S
C446 O453 1.185 . S
O447 C446 1.160 1_554 S
O448 Zn449 1.899 . S
O448 C456 1.284 . S
Zn449 O448 1.899 . S
Zn449 O450 2.032 1_554 S
Zn449 O453 2.086 1_554 S
Zn449 O458 1.977 . S
O450 Zn449 2.032 1_556 S
O450 C454 1.278 . S
C451 O452 1.203 . S
C451 O458 1.267 . S
O452 C451 1.203 . S
O453 C446 1.185 . S
O453 Zn449 2.086 1_556 S
C454 O450 1.278 . S
C454 O455 1.211 . S
O455 C454 1.211 . S
C456 O448 1.284 . S
C456 O457 1.273 . S
O457 C456 1.273 . S
O458 Zn449 1.977 . S
O458 C451 1.267 . S
C459 O460 1.160 . S
C459 O466 1.185 . S
O460 C459 1.160 . S
O461 Zn462 1.899 . S
O461 C469 1.284 . S
Zn462 O461 1.899 . S
Zn462 O463 2.032 . S
Zn462 O466 2.086 . S
Zn462 O471 1.977 . S
O463 Zn462 2.032 . S
O463 C467 1.278 . S
C464 O465 1.203 . S
C464 O471 1.267 . S
O465 C464 1.203 . S
O466 C459 1.185 . S
O466 Zn462 2.086 . S
C467 O463 1.278 . S
C467 O468 1.211 . S
O468 C467 1.211 . S
C469 O461 1.284 . S
C469 O470 1.273 . S
O470 C469 1.273 . S
O471 Zn462 1.977 . S
O471 C464 1.267 . S
C381 C8 1.539 . S
C399 C61 1.752 . S
C407 C107 1.544 . S
C139 C373 1.758 . S
C192 C368 1.536 . S
C238 C386 1.757 . S
C394 C284 1.540 . S
C412 C330 1.758 . S
C100 C433 1.539 . S
C451 C160 1.751 . S
C15 C459 1.544 . S
C425 C54 1.758 . S
C291 C420 1.541 . S
C337 C438 1.754 . S
C446 C199 1.544 . S
C245 C464 1.754 . S
C402 C1 2.031 . S
C417 C68 1.858 . S
C114 C376 1.984 . S
C146 C391 1.894 . S
C185 C415 2.030 . S
C378 C231 1.895 . S
C389 C277 2.031 . S
C404 C323 1.893 . S
C454 C93 2.029 . S
C469 C153 1.860 . S
C22 C428 1.982 . S
C443 C47 1.896 . S
C467 C298 1.983 . S
C344 C430 1.861 . S
C441 C206 1.984 . S
C456 C252 1.860 . S
