# Generated by pormake.
# Topology zzz, (3,6)-cn, num edge types: 1
# Building blocks:
#     Node 0, Type 0, BuildingBlock: MIDCAF_clean_linker_0, # of connection points: 3
#     Node 1, Type 0, BuildingBlock: MIDCAF_clean_linker_0, # of connection points: 3
#     Node 2, Type 0, BuildingBlock: MIDCAF_clean_linker_0, # of connection points: 3
#     Node 3, Type 0, BuildingBlock: MIDCAF_clean_linker_0, # of connection points: 3
#     Node 4, Type 0, BuildingBlock: MIDCAF_clean_linker_0, # of connection points: 3
#     Node 5, Type 0, BuildingBlock: MIDCAF_clean_linker_0, # of connection points: 3
#     Node 6, Type 0, BuildingBlock: MIDCAF_clean_linker_0, # of connection points: 3
#     Node 7, Type 0, BuildingBlock: MIDCAF_clean_linker_0, # of connection points: 3
#     Node 8, Type 1, BuildingBlock: GEDQOX_clean_sbu_0, # of connection points: 6
#     Node 9, Type 1, BuildingBlock: GEDQOX_clean_sbu_0, # of connection points: 6
#     Node 10, Type 1, BuildingBlock: GEDQOX_clean_sbu_0, # of connection points: 6
#     Node 11, Type 1, BuildingBlock: GEDQOX_clean_sbu_0, # of connection points: 6
#     Edge 12, Type (0, 1), BuildingBlock: EZIPEK_clean_linker_0, # of connection points: 2
#     Edge 13, Type (0, 1), BuildingBlock: EZIPEK_clean_linker_0, # of connection points: 2
#     Edge 14, Type (0, 1), BuildingBlock: EZIPEK_clean_linker_0, # of connection points: 2
#     Edge 15, Type (0, 1), BuildingBlock: EZIPEK_clean_linker_0, # of connection points: 2
#     Edge 16, Type (0, 1), BuildingBlock: EZIPEK_clean_linker_0, # of connection points: 2
#     Edge 17, Type (0, 1), BuildingBlock: EZIPEK_clean_linker_0, # of connection points: 2
#     Edge 18, Type (0, 1), BuildingBlock: EZIPEK_clean_linker_0, # of connection points: 2
#     Edge 19, Type (0, 1), BuildingBlock: EZIPEK_clean_linker_0, # of connection points: 2
#     Edge 20, Type (0, 1), BuildingBlock: EZIPEK_clean_linker_0, # of connection points: 2
#     Edge 21, Type (0, 1), BuildingBlock: EZIPEK_clean_linker_0, # of connection points: 2
#     Edge 22, Type (0, 1), BuildingBlock: EZIPEK_clean_linker_0, # of connection points: 2
#     Edge 23, Type (0, 1), BuildingBlock: EZIPEK_clean_linker_0, # of connection points: 2
#     Edge 24, Type (0, 1), BuildingBlock: EZIPEK_clean_linker_0, # of connection points: 2
#     Edge 25, Type (0, 1), BuildingBlock: EZIPEK_clean_linker_0, # of connection points: 2
#     Edge 26, Type (0, 1), BuildingBlock: EZIPEK_clean_linker_0, # of connection points: 2
#     Edge 27, Type (0, 1), BuildingBlock: EZIPEK_clean_linker_0, # of connection points: 2
#     Edge 28, Type (0, 1), BuildingBlock: EZIPEK_clean_linker_0, # of connection points: 2
#     Edge 29, Type (0, 1), BuildingBlock: EZIPEK_clean_linker_0, # of connection points: 2
#     Edge 30, Type (0, 1), BuildingBlock: EZIPEK_clean_linker_0, # of connection points: 2
#     Edge 31, Type (0, 1), BuildingBlock: EZIPEK_clean_linker_0, # of connection points: 2
#     Edge 32, Type (0, 1), BuildingBlock: EZIPEK_clean_linker_0, # of connection points: 2
#     Edge 33, Type (0, 1), BuildingBlock: EZIPEK_clean_linker_0, # of connection points: 2
#     Edge 34, Type (0, 1), BuildingBlock: EZIPEK_clean_linker_0, # of connection points: 2
#     Edge 35, Type (0, 1), BuildingBlock: EZIPEK_clean_linker_0, # of connection points: 2
# Relax obj value: 0.317
# Max RMSD: 0.321
# Mean RMSD: 0.197
data_MOF--net-zzz--node1-GEDQOX_clean_sbu_0--node2-MIDCAF_clean_linker_0--edge1-EZIPEK_clean_linker_0
_symmetry_space_group_name_H-M    P1
_symmetry_Int_Tables_number       1
_symmetry_cell_setting            triclinic
loop_
_symmetry_equiv_pos_as_xyz
'x, y, z'
_cell_length_a     48.835472
_cell_length_b     45.725266
_cell_length_c     18.0318
_cell_angle_alpha  79.753859
_cell_angle_beta   90.537208
_cell_angle_gamma 104.57995
loop_
_atom_site_label
_atom_site_type_symbol
_atom_site_fract_x
_atom_site_fract_y
_atom_site_fract_z
_atom_type_partial_charge
C0 C 0.83431 0.50485 0.34727 0.0
C1 C 0.82743 0.52983 0.37049 0.0
C2 C 0.8034 0.53901 0.3426 0.0
C3 C 0.78717 0.52418 0.28916 0.0
H4 H 0.71957 0.52614 0.15015 0.0
H5 H 0.67766 0.54081 0.09734 0.0
H6 H 0.67543 0.48389 0.92974 0.0
H7 H 0.71751 0.46912 0.98146 0.0
H8 H 0.79029 0.47435 0.94074 0.0
H9 H 0.83391 0.47666 0.8724 0.0
H10 H 0.86408 0.43 0.07318 0.0
H11 H 0.82073 0.42803 0.14248 0.0
H12 H 0.82469 0.47145 0.27569 0.0
H13 H 0.85277 0.49745 0.36852 0.0
H14 H 0.79785 0.55832 0.36011 0.0
H15 H 0.76941 0.53252 0.26622 0.0
N16 N 0.7575 0.49542 0.16844 0.0
N17 N 0.76074 0.4711 0.06562 0.0
N18 N 0.79408 0.47142 0.15974 0.0
C19 C 0.74699 0.48686 0.10309 0.0
C20 C 0.78416 0.46304 0.09415 0.0
C21 C 0.78102 0.4876 0.19732 0.0
C22 C 0.72187 0.49626 0.07043 0.0
C23 C 0.71033 0.51679 0.10185 0.0
C24 C 0.6865 0.52539 0.07151 0.0
C25 C 0.67369 0.51355 0.00952 0.0
C26 C 0.68526 0.49343 0.97722 0.0
C27 C 0.70922 0.48494 0.00721 0.0
C28 C 0.80261 0.45189 0.04749 0.0
C29 C 0.80545 0.46302 0.96935 0.0
C30 C 0.83036 0.4643 0.93001 0.0
C31 C 0.85227 0.454 0.96835 0.0
C32 C 0.84734 0.43807 0.0429 0.0
C33 C 0.82264 0.43716 0.08251 0.0
C34 C 0.79489 0.50007 0.26271 0.0
C35 C 0.8182 0.49006 0.2941 0.0
C36 C 0.94646 0.77421 0.48899 0.0
C37 C 0.96818 0.78974 0.53014 0.0
C38 C 0.99469 0.7831 0.52999 0.0
C39 C 1.00054 0.76454 0.4814 0.0
H40 H 0.99931 0.67052 0.31601 0.0
H41 H 0.00456 0.62977 0.24849 0.0
H42 H 0.98808 0.68337 0.03896 0.0
H43 H 0.98318 0.72402 0.10521 0.0
H44 H 0.00848 0.79861 0.08506 0.0
H45 H 0.01651 0.85106 0.01288 0.0
H46 H 0.0378 0.88772 0.21623 0.0
H47 H 0.02993 0.83577 0.2888 0.0
H48 H 0.93628 0.74715 0.40211 0.0
H49 H 0.92587 0.77911 0.48823 0.0
H50 H 0.01174 0.7949 0.56118 0.0
H51 H 0.02219 0.76316 0.47492 0.0
N52 N 0.98607 0.72565 0.32591 0.0
N53 N 0.00443 0.75631 0.20875 0.0
N54 N 0.00111 0.77942 0.31234 0.0
C55 C 0.99366 0.72802 0.25164 0.0
C56 C 0.00841 0.78206 0.23909 0.0
C57 C 0.98996 0.75175 0.35597 0.0
C58 C 0.99117 0.70064 0.21585 0.0
C59 C 0.99611 0.67322 0.25591 0.0
C60 C 0.99919 0.65 0.2174 0.0
C61 C 0.99695 0.65372 0.13859 0.0
C62 C 0.99 0.68009 0.0996 0.0
C63 C 0.98729 0.70333 0.13768 0.0
C64 C 0.0182 0.81305 0.19272 0.0
C65 C 0.01559 0.81784 0.11406 0.0
C66 C 0.02015 0.8477 0.0728 0.0
C67 C 0.0276 0.87297 0.1097 0.0
C68 C 0.0321 0.86836 0.18715 0.0
C69 C 0.02743 0.83864 0.22838 0.0
C70 C 0.97999 0.75245 0.43223 0.0
C71 C 0.95231 0.75551 0.44058 0.0
C72 C 0.67456 0.0172 0.30225 0.0
C73 C 0.68347 0.99902 0.36368 0.0
C74 C 0.71092 0.99462 0.36165 0.0
C75 C 0.72943 0.00893 0.29902 0.0
H76 H 0.83282 0.08293 0.12541 0.0
H77 H 0.87828 0.07573 0.08521 0.0
H78 H 0.83387 1.00024 0.98108 0.0
H79 H 0.78831 0.00765 0.02092 0.0
H80 H 0.75819 0.09493 0.90124 0.0
H81 H 0.72385 0.10504 0.80616 0.0
H82 H 0.66701 0.11089 0.98119 0.0
H83 H 0.70164 0.10342 0.07469 0.0
H84 H 0.68496 0.04537 0.19433 0.0
H85 H 0.65344 0.02073 0.30265 0.0
H86 H 0.71808 0.98054 0.40881 0.0
H87 H 0.75059 1.00554 0.29893 0.0
N88 N 0.76483 0.03791 0.15787 0.0
N89 N 0.7705 0.0723 0.0412 0.0
N90 N 0.73052 0.06449 0.11934 0.0
C91 C 0.78038 0.05229 0.09308 0.0
C92 C 0.74558 0.07877 0.0547 0.0
C93 C 0.7396 0.04405 0.17105 0.0
C94 C 0.80735 0.0456 0.07674 0.0
C95 C 0.83289 0.06458 0.09483 0.0
C96 C 0.85874 0.06058 0.07162 0.0
C97 C 0.85938 0.03764 0.02966 0.0
C98 C 0.83377 0.01814 0.01312 0.0
C99 C 0.80789 0.02223 0.03617 0.0
C100 C 0.73189 0.09666 0.99592 0.0
C101 C 0.73901 0.09999 0.91889 0.0
C102 C 0.71935 0.10569 0.86447 0.0
C103 C 0.69225 0.10675 0.88749 0.0
C104 C 0.68747 0.10917 0.96238 0.0
C105 C 0.70727 0.10449 0.01611 0.0
C106 C 0.72066 0.02782 0.2379 0.0
C107 C 0.69285 0.03141 0.24032 0.0
C108 C 0.64463 0.72472 0.30925 0.0
C109 C 0.63203 0.72474 0.2391 0.0
C110 C 0.63062 0.75269 0.1945 0.0
C111 C 0.63609 0.77922 0.22602 0.0
H112 H 0.606 0.84861 0.19299 0.0
H113 H 0.58983 0.88942 0.11521 0.0
H114 H 0.55172 0.90759 0.31086 0.0
H115 H 0.568 0.86599 0.39123 0.0
H116 H 0.54347 0.76694 0.49216 0.0
H117 H 0.5243 0.71907 0.58279 0.0
H118 H 0.60836 0.72015 0.65927 0.0
H119 H 0.62738 0.7679 0.57045 0.0
H120 H 0.65551 0.74948 0.39967 0.0
H121 H 0.6463 0.70333 0.34378 0.0
H122 H 0.62147 0.75312 0.13946 0.0
H123 H 0.63092 0.79937 0.19389 0.0
N124 N 0.61943 0.81896 0.31144 0.0
N125 N 0.58937 0.81496 0.4161 0.0
N126 N 0.61969 0.78221 0.41836 0.0
C127 C 0.59987 0.82937 0.34505 0.0
C128 C 0.5999 0.79157 0.45347 0.0
C129 C 0.62941 0.79537 0.34729 0.0
C130 C 0.58854 0.85395 0.29912 0.0
C131 C 0.5942 0.86106 0.22046 0.0
C132 C 0.58485 0.8844 0.17531 0.0
C133 C 0.56964 0.90151 0.20712 0.0
C134 C 0.56345 0.89452 0.28534 0.0
C135 C 0.57272 0.87076 0.33108 0.0
C136 C 0.58692 0.77127 0.52444 0.0
C137 C 0.55759 0.75783 0.5311 0.0
C138 C 0.54669 0.73022 0.58209 0.0
C139 C 0.56501 0.71569 0.62675 0.0
C140 C 0.59386 0.73074 0.6251 0.0
C141 C 0.60466 0.75823 0.57472 0.0
C142 C 0.64202 0.7774 0.30299 0.0
C143 C 0.64987 0.75122 0.34108 0.0
C144 C 0.23941 0.51139 0.32994 0.0
C145 C 0.22012 0.5257 0.28965 0.0
C146 C 0.21673 0.55341 0.30594 0.0
C147 C 0.23093 0.56567 0.36519 0.0
H148 H 0.33394 0.54746 0.51597 0.0
H149 H 0.37577 0.53535 0.57663 0.0
H150 H 0.34549 0.54782 0.78965 0.0
H151 H 0.30378 0.56043 0.72965 0.0
H152 H 0.25931 0.61836 0.69161 0.0
H153 H 0.22372 0.63502 0.75885 0.0
H154 H 0.15726 0.58058 0.64455 0.0
H155 H 0.19213 0.56503 0.57618 0.0
H156 H 0.26752 0.51162 0.42234 0.0
H157 H 0.24216 0.4899 0.31792 0.0
H158 H 0.20196 0.56474 0.27522 0.0
H159 H 0.22684 0.58637 0.37874 0.0
N160 N 0.28259 0.55455 0.51291 0.0
N161 N 0.27288 0.57467 0.61843 0.0
N162 N 0.24212 0.57282 0.51815 0.0
C163 C 0.28993 0.56201 0.58163 0.0
C164 C 0.24889 0.58005 0.58674 0.0
C165 C 0.25876 0.56027 0.48065 0.0
C166 C 0.3155 0.55502 0.61783 0.0
C167 C 0.33613 0.54769 0.5757 0.0
C168 C 0.36005 0.54076 0.61017 0.0
C169 C 0.36365 0.54075 0.68743 0.0
C170 C 0.34306 0.54782 0.72987 0.0
C171 C 0.3193 0.5551 0.69532 0.0
C172 C 0.22846 0.59052 0.62855 0.0
C173 C 0.23707 0.61013 0.68101 0.0
C174 C 0.21688 0.61964 0.71921 0.0
C175 C 0.18792 0.60878 0.70692 0.0
C176 C 0.1795 0.5892 0.65478 0.0
C177 C 0.1995 0.58037 0.61566 0.0
C178 C 0.24891 0.5505 0.40907 0.0
C179 C 0.25391 0.52386 0.3892 0.0
C180 C 0.04473 0.31022 0.15356 0.0
C181 C 0.07034 0.30178 0.15074 0.0
C182 C 0.09321 0.3158 0.19092 0.0
C183 C 0.08923 0.33457 0.2414 0.0
H184 H 0.05986 0.42352 0.37089 0.0
H185 H 0.05807 0.4666 0.43401 0.0
H186 H 0.03735 0.40411 0.64615 0.0
H187 H 0.03916 0.36134 0.585 0.0
H188 H 0.0271 0.29031 0.59967 0.0
H189 H 0.01585 0.23766 0.67199 0.0
H190 H 0.00864 0.20183 0.46519 0.0
H191 H 0.0197 0.25385 0.39249 0.0
H192 H 0.01973 0.33177 0.21221 0.0
H193 H 0.02683 0.29961 0.12309 0.0
H194 H 0.11313 0.3095 0.18964 0.0
H195 H 0.10597 0.34155 0.27934 0.0
N196 N 0.05607 0.36478 0.36129 0.0
N197 N 0.03747 0.33301 0.47687 0.0
N198 N 0.04281 0.31103 0.37272 0.0
C199 C 0.04786 0.3617 0.43545 0.0
C200 C 0.0348 0.30763 0.44569 0.0
C201 C 0.05339 0.33908 0.33027 0.0
C202 C 0.04938 0.38877 0.47238 0.0
C203 C 0.05523 0.41899 0.43107 0.0
C204 C 0.05422 0.44363 0.46699 0.0
C205 C 0.04748 0.43842 0.54469 0.0
C206 C 0.04255 0.40857 0.58622 0.0
C207 C 0.04352 0.3841 0.5507 0.0
C208 C 0.02462 0.27632 0.49037 0.0
C209 C 0.0226 0.27123 0.5696 0.0
C210 C 0.01614 0.24126 0.61095 0.0
C211 C 0.01148 0.21614 0.5735 0.0
C212 C 0.01211 0.22106 0.49469 0.0
C213 C 0.01861 0.25086 0.45344 0.0
C214 C 0.06233 0.33933 0.25246 0.0
C215 C 0.04083 0.32905 0.20375 0.0
C216 C 0.35576 0.12057 0.35299 0.0
C217 C 0.34273 0.11035 0.28949 0.0
C218 C 0.31311 0.09891 0.29128 0.0
C219 C 0.29718 0.09474 0.35857 0.0
H220 H 0.22163 0.10594 0.52278 0.0
H221 H 0.17285 0.10164 0.56594 0.0
H222 H 0.17551 0.02202 0.73185 0.0
H223 H 0.22392 0.02626 0.69028 0.0
H224 H 0.28376 0.01476 0.74289 0.0
H225 H 0.31417 0.98837 0.82463 0.0
H226 H 0.38825 0.05181 0.70851 0.0
H227 H 0.35848 0.07802 0.62704 0.0
H228 H 0.351 0.12253 0.46944 0.0
H229 H 0.37852 0.12965 0.35259 0.0
H230 H 0.30272 0.09098 0.24257 0.0
H231 H 0.27481 0.0834 0.36066 0.0
N232 N 0.26881 0.08515 0.51443 0.0
N233 N 0.27323 0.05856 0.63677 0.0
N234 N 0.31275 0.0774 0.5543 0.0
C235 C 0.25695 0.07025 0.5837 0.0
C236 C 0.30116 0.0622 0.6225 0.0
C237 C 0.29697 0.08882 0.49992 0.0
C238 C 0.22669 0.06652 0.60321 0.0
C239 C 0.21167 0.08735 0.56783 0.0
C240 C 0.18393 0.08503 0.59264 0.0
C241 C 0.17072 0.06158 0.65227 0.0
C242 C 0.1854 0.04034 0.68605 0.0
C243 C 0.21308 0.04284 0.66206 0.0
C244 C 0.31875 0.0483 0.67812 0.0
C245 C 0.30654 0.02334 0.73571 0.0
C246 C 0.32377 0.00821 0.78223 0.0
C247 C 0.3533 0.0182 0.77201 0.0
C248 C 0.36544 0.04382 0.71684 0.0
C249 C 0.34838 0.0587 0.67027 0.0
C250 C 0.31079 0.102 0.42443 0.0
C251 C 0.33996 0.11645 0.41975 0.0
C252 C 0.40245 0.31842 0.43763 0.0
C253 C 0.42032 0.32098 0.49872 0.0
C254 C 0.42844 0.29505 0.536 0.0
C255 C 0.42315 0.26856 0.50432 0.0
H256 H 0.41793 0.16432 0.45363 0.0
H257 H 0.43755 0.12629 0.53463 0.0
H258 H 0.521 0.17239 0.43835 0.0
H259 H 0.50129 0.21061 0.35582 0.0
H260 H 0.41155 0.28117 0.16145 0.0
H261 H 0.42664 0.32961 0.07219 0.0
H262 H 0.51382 0.33248 0.11978 0.0
H263 H 0.49868 0.2838 0.21022 0.0
H264 H 0.38712 0.29224 0.35186 0.0
H265 H 0.39569 0.33819 0.409 0.0
H266 H 0.44184 0.29657 0.58414 0.0
H267 H 0.43293 0.25046 0.5288 0.0
N268 N 0.42982 0.22649 0.40763 0.0
N269 N 0.45498 0.23295 0.29234 0.0
N270 N 0.42687 0.2662 0.3097 0.0
C271 C 0.44675 0.21664 0.36343 0.0
C272 C 0.44414 0.2574 0.2647 0.0
C273 C 0.41992 0.25136 0.38132 0.0
C274 C 0.45809 0.19041 0.39829 0.0
C275 C 0.44037 0.16594 0.44825 0.0
C276 C 0.45154 0.14423 0.49474 0.0
C277 C 0.48072 0.14668 0.49296 0.0
C278 C 0.49839 0.17015 0.44047 0.0
C279 C 0.48711 0.19178 0.39297 0.0
C280 C 0.45395 0.27856 0.19244 0.0
C281 C 0.43402 0.29139 0.15039 0.0
C282 C 0.44259 0.31924 0.0998 0.0
C283 C 0.4713 0.33489 0.09008 0.0
C284 C 0.49152 0.32076 0.1266 0.0
C285 C 0.4829 0.29274 0.17749 0.0
C286 C 0.41041 0.26835 0.43409 0.0
C287 C 0.39751 0.29208 0.40524 0.0
Nd288 Nd 0.99889 0.0224 0.78879 0.0
Nd289 Nd 0.03187 0.0655 0.90227 0.0
C290 C 0.9655 0.98696 0.70621 0.0
C291 C 0.96485 0.95706 0.6845 0.0
C292 C 0.93887 0.9369 0.67336 0.0
C293 C 0.93809 0.90864 0.65211 0.0
C294 C 0.96332 0.90019 0.64159 0.0
C295 C 0.98927 0.92015 0.65371 0.0
C296 C 0.99005 0.94828 0.67533 0.0
C297 C 0.05728 0.03579 0.77956 0.0
C298 C 0.02212 0.991 0.94286 0.0
C299 C 0.06939 0.1052 0.96634 0.0
C300 C 0.07006 0.13467 0.98993 0.0
C301 C 0.09149 0.14719 0.03613 0.0
C302 C 0.09214 0.17505 0.05919 0.0
C303 C 0.07138 0.19083 0.0362 0.0
C304 C 0.05003 0.17841 0.98955 0.0
C305 C 0.04935 0.15052 0.96663 0.0
C306 C 0.97393 0.04804 0.93609 0.0
C307 C 0.00549 0.09724 0.75118 0.0
O308 O 0.95979 0.98626 0.77751 0.0
O309 O 0.98661 0.01019 0.6776 0.0
O310 O 0.04064 0.00994 0.76922 0.0
O311 O 0.04274 0.0539 0.79082 0.0
O312 O 0.00189 0.98783 0.89372 0.0
O313 O 0.03924 0.0179 0.94921 0.0
O314 O 0.06907 0.10555 0.8936 0.0
O315 O 0.05196 0.08068 0.00479 0.0
O316 O 0.99206 0.06606 0.97163 0.0
O317 O 0.98719 0.04133 0.88503 0.0
O318 O 0.02128 0.10118 0.81006 0.0
O319 O 0.99359 0.07009 0.73335 0.0
H320 H 0.9192 0.94312 0.68053 0.0
H321 H 0.91788 0.8936 0.64265 0.0
H322 H 0.00895 0.91406 0.64563 0.0
H323 H 0.01035 0.96328 0.68425 0.0
H324 H 0.10763 0.13532 0.05471 0.0
H325 H 0.10864 0.18417 0.09562 0.0
H326 H 0.03371 0.19012 0.97175 0.0
H327 H 0.03259 0.1412 0.93109 0.0
Nd328 Nd 0.52051 0.00639 0.81956 0.0
Nd329 Nd 0.51289 0.04534 0.90474 0.0
C330 C 0.52825 0.96236 0.7507 0.0
C331 C 0.5486 0.96248 0.69059 0.0
C332 C 0.56214 0.9385 0.69622 0.0
C333 C 0.58441 0.94048 0.64558 0.0
C334 C 0.59334 0.96647 0.58863 0.0
C335 C 0.57932 0.99005 0.58175 0.0
C336 C 0.55719 0.98813 0.6324 0.0
C337 C 0.5169 0.06112 0.72787 0.0
C338 C 0.5766 0.05768 0.84444 0.0
C339 C 0.50028 0.0745 0.00944 0.0
C340 C 0.47775 0.08792 0.03064 0.0
C341 C 0.45337 0.08704 0.9881 0.0
C342 C 0.42975 0.09406 0.01729 0.0
C343 C 0.43019 0.10151 0.08973 0.0
C344 C 0.45509 0.10391 0.13019 0.0
C345 C 0.4787 0.09721 0.1008 0.0
C346 C 0.54623 1.00004 0.98351 0.0
C347 C 0.4565 1.00277 0.86222 0.0
O348 O 0.5396 0.96758 0.81438 0.0
O349 O 0.50882 0.9772 0.7321 0.0
O350 O 0.53597 0.04667 0.72001 0.0
O351 O 0.50065 0.04746 0.78392 0.0
O352 O 0.56699 0.03065 0.82565 0.0
O353 O 0.55891 0.07142 0.86982 0.0
O354 O 0.51662 0.08858 0.94996 0.0
O355 O 0.49279 0.0448 0.01396 0.0
O356 O 0.52245 0.99967 0.95054 0.0
O357 O 0.52283 1.00032 0.95042 0.0
O358 O 0.46759 0.03134 0.86905 0.0
O359 O 0.47341 0.98507 0.85557 0.0
H360 H 0.55613 0.91875 0.74134 0.0
H361 H 0.59513 0.92218 0.65192 0.0
H362 H 0.58606 0.01033 0.53836 0.0
H363 H 0.54743 0.00716 0.62744 0.0
H364 H 0.45211 0.07947 0.93428 0.0
H365 H 0.41065 0.09196 0.98548 0.0
H366 H 0.45578 0.10958 0.18615 0.0
H367 H 0.49718 0.09766 0.13476 0.0
Nd368 Nd 0.51116 0.53654 0.93573 0.0
Nd369 Nd 0.52612 0.51629 0.78967 0.0
C370 C 0.49582 0.55129 0.06001 0.0
C371 C 0.51172 0.57681 0.0951 0.0
C372 C 0.5197 0.57106 0.17023 0.0
C373 C 0.53963 0.59359 0.19906 0.0
C374 C 0.55175 0.62199 0.15286 0.0
C375 C 0.5432 0.62812 0.07869 0.0
C376 C 0.52337 0.60571 0.04993 0.0
C377 C 0.56813 0.54062 0.91238 0.0
C378 C 0.53439 0.58934 0.79092 0.0
C379 C 0.54742 0.49773 0.67888 0.0
C380 C 0.53175 0.4774 0.62944 0.0
C381 C 0.53759 0.44883 0.63037 0.0
C382 C 0.51846 0.42589 0.60107 0.0
C383 C 0.49336 0.43132 0.57017 0.0
C384 C 0.48837 0.46047 0.56425 0.0
C385 C 0.50742 0.48338 0.59386 0.0
C386 C 0.46942 0.51755 0.78686 0.0
C387 C 0.49962 0.46259 0.93305 0.0
O388 O 0.48485 0.55891 0.99502 0.0
O389 O 0.50852 0.52927 0.06048 0.0
O390 O 0.55856 0.56057 0.93974 0.0
O391 O 0.54765 0.51935 0.90002 0.0
O392 O 0.51698 0.58152 0.85068 0.0
O393 O 0.5452 0.56892 0.76597 0.0
O394 O 0.54743 0.48442 0.74935 0.0
O395 O 0.54294 0.52516 0.67167 0.0
O396 O 0.48223 0.50913 0.73518 0.0
O397 O 0.48649 0.5238 0.83758 0.0
O398 O 0.51481 0.46964 0.86929 0.0
O399 O 0.49219 0.48385 0.96382 0.0
H400 H 0.51139 0.54877 0.20548 0.0
H401 H 0.54597 0.58876 0.25675 0.0
H402 H 0.55226 0.65007 0.04272 0.0
H403 H 0.51803 0.61066 0.99139 0.0
H404 H 0.55603 0.44361 0.65805 0.0
H405 H 0.52265 0.40349 0.60526 0.0
H406 H 0.46917 0.46499 0.53983 0.0
H407 H 0.50221 0.50512 0.59263 0.0
Nd408 Nd 0.01379 0.57403 0.77384 0.0
Nd409 Nd 0.03542 0.52512 0.88806 0.0
C410 C 0.98391 0.60958 0.69918 0.0
C411 C 0.95911 0.60104 0.65341 0.0
C412 C 0.94461 0.62271 0.62083 0.0
C413 C 0.92139 0.61404 0.576 0.0
C414 C 0.9126 0.58365 0.56347 0.0
C415 C 0.92693 0.56199 0.59697 0.0
C416 C 0.95001 0.57061 0.64153 0.0
C417 C 0.03203 0.5314 0.71067 0.0
C418 C 0.96804 0.51147 0.86454 0.0
C419 C 0.06262 0.48345 0.94262 0.0
C420 C 0.08709 0.48541 0.99109 0.0
C421 C 0.10168 0.46228 1.00193 0.0
C422 C 0.12528 0.46485 0.04746 0.0
C423 C 0.13425 0.49049 0.08277 0.0
C424 C 0.11984 0.51373 0.07097 0.0
C425 C 0.09651 0.51127 0.02524 0.0
C426 C 0.02781 0.57048 0.96391 0.0
C427 C 0.07904 0.59006 0.80748 0.0
O428 O 0.97992 0.59864 0.7715 0.0
O429 O 0.00756 0.60645 0.67207 0.0
O430 O 0.03587 0.55995 0.679 0.0
O431 O 0.01766 0.52579 0.77185 0.0
O432 O 0.97271 0.53777 0.81644 0.0
O433 O 0.98851 0.50017 0.89659 0.0
O434 O 0.06798 0.50017 0.87493 0.0
O435 O 0.03928 0.48551 0.97436 0.0
O436 O 0.0364 0.54681 0.99569 0.0
O437 O 0.02394 0.56916 0.8953 0.0
O438 O 0.07506 0.56024 0.83162 0.0
O439 O 0.05762 0.60279 0.79484 0.0
H440 H 0.95136 0.64626 0.62952 0.0
H441 H 0.91051 0.63101 0.55036 0.0
H442 H 0.92045 0.53848 0.58775 0.0
H443 H 0.96099 0.55359 0.66613 0.0
H444 H 0.09484 0.44233 0.97528 0.0
H445 H 0.13633 0.4468 0.05591 0.0
H446 H 0.12664 0.53375 0.09739 0.0
H447 H 0.08577 0.52957 0.01655 0.0
C448 C 0.1179 0.04877 0.63789 0.0
C449 C 0.14161 0.05912 0.68112 0.0
C450 C 0.10994 0.05666 0.78839 0.0
C451 C 0.08629 0.0468 0.74453 0.0
N452 N 0.06775 0.04328 0.62099 0.0
N453 N 0.16039 0.0799 0.79027 0.0
C454 C 0.09027 0.04587 0.66717 0.0
C455 C 0.13766 0.06526 0.75426 0.0
N456 N 0.12162 0.04038 0.57036 0.0
N457 N 0.106 0.05681 0.86318 0.0
H458 H 0.1809 0.0868 0.76642 0.0
H459 H 0.15864 0.08771 0.84041 0.0
H460 H 0.08599 0.05188 0.88905 0.0
H461 H 0.12243 0.06008 0.90046 0.0
H462 H 0.10492 0.02934 0.54075 0.0
H463 H 0.14149 0.04209 0.54674 0.0
H464 H 0.06984 0.04543 0.56269 0.0
H465 H 0.04738 0.04248 0.63964 0.0
C466 C 0.49473 0.09711 0.53581 0.0
C467 C 0.4926 0.12591 0.55055 0.0
C468 C 0.50952 0.11348 0.67854 0.0
C469 C 0.50916 0.0836 0.66604 0.0
N470 N 0.49669 0.04499 0.58743 0.0
N471 N 0.49531 0.16086 0.63753 0.0
C472 C 0.50071 0.07492 0.59568 0.0
C473 C 0.49936 0.13395 0.62236 0.0
N474 N 0.49115 0.09104 0.4643 0.0
N475 N 0.52028 0.12257 0.74345 0.0
H476 H 0.48911 0.17704 0.59706 0.0
H477 H 0.49638 0.16641 0.6912 0.0
H478 H 0.5274 0.10805 0.7863 0.0
H479 H 0.52417 0.14505 0.75272 0.0
H480 H 0.49545 0.07192 0.44775 0.0
H481 H 0.48611 0.10648 0.41966 0.0
H482 H 0.48763 0.03649 0.54059 0.0
H483 H 0.49991 0.0278 0.63037 0.0
C484 C 0.39239 0.50297 0.73247 0.0
C485 C 0.3891 0.53333 0.7238 0.0
C486 C 0.43362 0.54887 0.78689 0.0
C487 C 0.4397 0.52054 0.78159 0.0
N488 N 0.42414 0.46946 0.7532 0.0
N489 N 0.4082 0.58641 0.73474 0.0
C490 C 0.41875 0.49718 0.75578 0.0
C491 C 0.41005 0.5566 0.74934 0.0
N492 N 0.37008 0.4796 0.7203 0.0
N493 N 0.44987 0.56819 0.82884 0.0
H494 H 0.39148 0.59322 0.70646 0.0
H495 H 0.42455 0.60479 0.74444 0.0
H496 H 0.46549 0.56193 0.86253 0.0
H497 H 0.44514 0.58814 0.83899 0.0
H498 H 0.37018 0.45651 0.73262 0.0
H499 H 0.35041 0.48305 0.70399 0.0
H500 H 0.41165 0.45307 0.72532 0.0
H501 H 0.44176 0.46322 0.77744 0.0
C502 C 0.01616 0.46666 0.59609 0.0
C503 C 0.04386 0.46363 0.58305 0.0
C504 C 0.06384 0.5065 0.6489 0.0
C505 C 0.03599 0.50763 0.66804 0.0
N506 N 0.98532 0.48826 0.6626 0.0
N507 N 0.09395 0.47814 0.60262 0.0
C508 C 0.01205 0.48746 0.64265 0.0
C509 C 0.0677 0.48297 0.61072 0.0
N510 N 0.99388 0.45033 0.56153 0.0
N511 N 0.08663 0.52819 0.66641 0.0
H512 H 0.09765 0.46173 0.5732 0.0
H513 H 0.11175 0.48888 0.62898 0.0
H514 H 0.0848 0.54503 0.69679 0.0
H515 H 0.10724 0.53091 0.64666 0.0
H516 H 0.97361 0.45374 0.56149 0.0
H517 H 0.99608 0.43483 0.52738 0.0
H518 H 0.96715 0.47157 0.655 0.0
H519 H 0.98112 0.50487 0.69034 0.0
C520 C 0.89563 0.04346 0.92554 0.0
C521 C 0.88708 0.03444 1.00301 0.0
C522 C 0.93431 0.02767 0.03427 0.0
C523 C 0.94304 0.03724 0.95673 0.0
N524 N 0.92874 0.04268 0.82746 0.0
N525 N 0.89532 0.00955 0.12734 0.0
C526 C 0.92263 0.04124 0.90187 0.0
C527 C 0.90553 0.02384 0.05624 0.0
N528 N 0.87872 0.0558 0.875 0.0
N529 N 0.95362 0.02257 0.08721 0.0
H530 H 0.87425 0.00617 0.14472 0.0
H531 H 0.90685 0.99852 0.16673 0.0
H532 H 0.97417 0.02215 0.07336 0.0
H533 H 0.94958 0.01975 0.14498 0.0
H534 H 0.88541 0.06616 0.8197 0.0
H535 H 0.85888 0.05808 0.88984 0.0
H536 H 0.91374 0.04294 0.78604 0.0
H537 H 0.94778 0.04002 0.80821 0.0
C538 C 0.58031 0.95699 0.14378 0.0
C539 C 0.56142 0.92732 0.15686 0.0
C540 C 0.53379 0.94284 0.04911 0.0
C541 C 0.55104 0.97364 0.04016 0.0
N542 N 0.58901 0.01064 0.08597 0.0
N543 N 0.51721 0.89359 0.13263 0.0
C544 C 0.57382 0.98079 0.08954 0.0
C545 C 0.53713 0.92089 0.11312 0.0
N546 N 0.60497 0.96221 0.18167 0.0
N547 N 0.51593 0.9335 0.9943 0.0
H548 H 0.51924 0.87687 0.17847 0.0
H549 H 0.49754 0.88887 0.10818 0.0
H550 H 0.51469 0.94723 0.94266 0.0
H551 H 0.50506 0.91068 0.9955 0.0
H552 H 0.62142 0.98201 0.16788 0.0
H553 H 0.60984 0.94583 0.22421 0.0
H554 H 0.6033 0.0178 0.12633 0.0
H555 H 0.58607 0.0289 0.04567 0.0
C556 C 0.64621 0.54063 0.91354 0.0
C557 C 0.64675 0.5203 0.98265 0.0
C558 C 0.59681 0.5164 0.00866 0.0
C559 C 0.59547 0.53441 0.93657 0.0
N560 N 0.61765 0.56084 0.8162 0.0
N561 N 0.62143 0.48375 0.0883 0.0
C562 C 0.61984 0.54571 0.88764 0.0
C563 C 0.62171 0.50672 0.02801 0.0
N564 N 0.67097 0.55578 0.87407 0.0
N565 N 0.57461 0.50931 0.05982 0.0
H566 H 0.6392 0.47573 0.10414 0.0
H567 H 0.60297 0.47063 0.1182 0.0
H568 H 0.55593 0.51595 0.04822 0.0
H569 H 0.57567 0.49928 0.11601 0.0
H570 H 0.67241 0.57328 0.82752 0.0
H571 H 0.69059 0.55245 0.89127 0.0
H572 H 0.63385 0.56675 0.77495 0.0
H573 H 0.59884 0.56569 0.79648 0.0
C574 C 0.98627 0.60251 0.09503 0.0
C575 C 0.00479 0.63189 0.09514 0.0
C576 C 0.03677 0.62228 1.0029 0.0
C577 C 0.01924 0.59211 0.00644 0.0
N578 N 0.97982 0.55148 0.06586 0.0
N579 N 0.0502 0.66762 0.06065 0.0
C580 C 0.99474 0.58161 0.05558 0.0
C581 C 0.03071 0.64123 0.05196 0.0
N582 N 0.96015 0.59496 0.13047 0.0
N583 N 0.05944 0.63282 0.95299 0.0
H584 H 0.04683 0.68189 0.09691 0.0
H585 H 0.07073 0.67407 0.03737 0.0
H586 H 0.0658 0.61891 0.92056 0.0
H587 H 0.07088 0.65572 0.94039 0.0
H588 H 0.94438 0.57539 0.12524 0.0
H589 H 0.9534 0.60952 0.16055 0.0
H590 H 0.96388 0.54159 0.10738 0.0
H591 H 0.98443 0.53572 0.03579 0.0
C592 C 0.03295 0.17255 0.62018 0.0
C593 C 0.0089 0.18478 0.61621 0.0
C594 C 0.98121 0.1381 0.69732 0.0
C595 C 0.00484 0.12537 0.69781 0.0
N596 N 0.05096 0.12721 0.64771 0.0
N597 N 0.95895 0.17793 0.63923 0.0
C598 C 0.03001 0.14161 0.65529 0.0
C599 C 0.98259 0.16712 0.65115 0.0
N600 N 0.05883 0.19089 0.59303 0.0
N601 N 0.95801 0.12306 0.74331 0.0
H602 H 0.95941 0.19936 0.60672 0.0
H603 H 0.93861 0.16484 0.65674 0.0
H604 H 0.95634 0.10161 0.77698 0.0
H605 H 0.94133 0.1326 0.75188 0.0
H606 H 0.07767 0.18428 0.6022 0.0
H607 H 0.06194 0.21376 0.56665 0.0
H608 H 0.06863 0.13682 0.61138 0.0
H609 H 0.0494 0.10437 0.67232 0.0
C610 C 0.38499 0.98341 0.77606 0.0
C611 C 0.37242 1.00141 0.81445 0.0
C612 C 0.4089 1.00255 0.90775 0.0
C613 C 0.42532 0.99252 0.85777 0.0
N614 N 0.42798 0.97002 0.74693 0.0
N615 N 0.3701 0.02572 0.92121 0.0
C616 C 0.41279 0.98093 0.79392 0.0
C617 C 0.38326 0.00955 0.88296 0.0
N618 N 0.3705 0.96963 0.72108 0.0
N619 N 0.41847 1.00606 0.97784 0.0
H620 H 0.35077 0.03023 0.90517 0.0
H621 H 0.37876 0.03558 0.9667 0.0
H622 H 0.43717 1.00058 0.99673 0.0
H623 H 0.40678 0.01145 0.01908 0.0
H624 H 0.37734 0.95408 0.69481 0.0
H625 H 0.35014 0.97157 0.70723 0.0
H626 H 0.42137 0.9657 0.69399 0.0
H627 H 0.44766 0.96597 0.75938 0.0
C628 C 0.46003 0.36834 0.46329 0.0
C629 C 0.43626 0.35163 0.51173 0.0
C630 C 0.44827 0.38937 0.59552 0.0
C631 C 0.47193 0.40584 0.54663 0.0
N632 N 0.4986 0.41329 0.42977 0.0
N633 N 0.4045 0.34879 0.61537 0.0
C634 C 0.47695 0.39621 0.47895 0.0
C635 C 0.42933 0.36302 0.57527 0.0
N636 N 0.46779 0.35792 0.40244 0.0
N637 N 0.44478 0.39804 0.6629 0.0
H638 H 0.39043 0.32934 0.60181 0.0
H639 H 0.39672 0.35746 0.65801 0.0
H640 H 0.45796 0.41742 0.67918 0.0
H641 H 0.42994 0.38514 0.70488 0.0
H642 H 0.45751 0.33721 0.38641 0.0
H643 H 0.45751 0.33721 0.38641 0.0
H644 H 0.50305 0.40675 0.37952 0.0
H645 H 0.51144 0.43436 0.43804 0.0
C646 C 0.15641 0.60189 0.82129 0.0
C647 C 0.16538 0.61714 0.74685 0.0
C648 C 0.11878 0.62674 0.72264 0.0
C649 C 0.1089 0.60835 0.79409 0.0
N650 N 0.12033 0.59026 0.92126 0.0
N651 N 0.15961 0.65418 0.63974 0.0
C652 C 0.12865 0.60035 0.84705 0.0
C653 C 0.14806 0.6334 0.70255 0.0
N654 N 0.17335 0.58675 0.86493 0.0
N655 N 0.10029 0.63563 0.67158 0.0
H656 H 0.18108 0.6589 0.62456 0.0
H657 H 0.1488 0.66867 0.60773 0.0
H658 H 0.07893 0.63266 0.68408 0.0
H659 H 0.10601 0.64516 0.6153 0.0
H660 H 0.16643 0.57196 0.91586 0.0
H661 H 0.19402 0.58784 0.84846 0.0
H662 H 0.13422 0.58614 0.96375 0.0
H663 H 0.09993 0.58892 0.94082 0.0
C664 C 0.00218 0.91398 0.07384 0.0
C665 C 0.0272 0.90397 0.06949 0.0
C666 C 0.05025 0.95244 0.98649 0.0
C667 C 0.02527 0.96268 0.9922 0.0
N668 N 0.97792 0.95343 0.04765 0.0
N669 N 0.07658 0.91482 0.03364 0.0
C670 C 0.00163 0.94375 0.03769 0.0
C671 C 0.05175 0.92359 0.02942 0.0
N672 N 0.97857 0.89507 0.11299 0.0
N673 N 0.07175 0.96929 0.93657 0.0
H674 H 0.07814 0.8935 0.06297 0.0
H675 H 0.09602 0.92936 0.01295 0.0
H676 H 0.07154 0.99044 0.90395 0.0
H677 H 0.08898 0.9614 0.92318 0.0
H678 H 0.95979 0.90174 0.11709 0.0
H679 H 0.97754 0.87268 0.14032 0.0
H680 H 0.97552 0.97524 0.02503 0.0
H681 H 0.97552 0.97524 0.02503 0.0
C682 C 0.64848 0.11656 0.82506 0.0
C683 C 0.66676 0.09691 0.84342 0.0
C684 C 0.62654 0.0522 0.85935 0.0
C685 C 0.60776 0.07147 0.83994 0.0
N686 N 0.60262 0.12141 0.77984 0.0
N687 N 0.67362 0.04633 0.84352 0.0
C688 C 0.61923 0.10357 0.81495 0.0
C689 C 0.65595 0.06492 0.84749 0.0
N690 N 0.65901 0.14749 0.81978 0.0
N691 N 0.61697 0.02238 0.89539 0.0
H692 H 0.69533 0.05461 0.83305 0.0
H693 H 0.66612 0.02311 0.8406 0.0
H694 H 0.59607 0.01218 0.91305 0.0
H695 H 0.63053 0.00887 0.91696 0.0
H696 H 0.64626 0.16284 0.81525 0.0
H697 H 0.68063 0.15737 0.8232 0.0
H698 H 0.61053 0.14448 0.75579 0.0
H699 H 0.58165 0.11236 0.76731 0.0
C700 C 0.58398 0.68866 0.25103 0.0
C701 C 0.61259 0.69617 0.22353 0.0
C702 C 0.60211 0.6513 0.16173 0.0
C703 C 0.57301 0.646 0.18209 0.0
N704 N 0.53537 0.66113 0.23841 0.0
N705 N 0.64904 0.68644 0.14987 0.0
C706 C 0.56372 0.6649 0.22528 0.0
C707 C 0.62178 0.67787 0.17836 0.0
N708 N 0.57615 0.70416 0.30216 0.0
N709 N 0.61085 0.63064 0.12753 0.0
H710 H 0.66408 0.70523 0.16331 0.0
H711 H 0.6564 0.67613 0.10988 0.0
H712 H 0.59688 0.61105 0.11435 0.0
H713 H 0.632 0.63152 0.11734 0.0
H714 H 0.55664 0.69712 0.3314 0.0
H715 H 0.58975 0.72282 0.32021 0.0
H716 H 0.52707 0.67668 0.26081 0.0
H717 H 0.51977 0.64358 0.22179 0.0
C718 C 0.89574 0.497 0.95891 0.0
C719 C 0.88186 0.46815 0.94013 0.0
C720 C 0.92516 0.46654 0.87478 0.0
C721 C 0.93842 0.49619 0.88998 0.0
N722 N 0.93559 0.54154 0.93832 0.0
N723 N 0.88148 0.42642 0.8754 0.0
C724 C 0.92346 0.51197 0.92945 0.0
C725 C 0.89607 0.45311 0.89674 0.0
N726 N 0.88275 0.50967 0.00741 0.0
N727 N 0.94041 0.45137 0.83934 0.0
H728 H 0.86037 0.41594 0.89205 0.0
H729 H 0.88953 0.41553 0.83796 0.0
H730 H 0.96122 0.46122 0.81904 0.0
H731 H 0.93309 0.42858 0.83292 0.0
H732 H 0.89322 0.52811 0.03215 0.0
H733 H 0.8619 0.50059 0.02788 0.0
H734 H 0.92433 0.55577 0.95591 0.0
H735 H 0.95672 0.55284 0.92448 0.0
C736 C 0.06197 0.24448 0.16826 0.0
C737 C 0.07105 0.27367 0.12031 0.0
C738 C 0.08198 0.24875 0.01818 0.0
C739 C 0.07112 0.21951 0.06456 0.0
N740 N 0.04664 0.1891 0.17899 0.0
N741 N 0.08649 0.30385 0.99768 0.0
C742 C 0.06 0.21727 0.13836 0.0
C743 C 0.08016 0.27588 0.04459 0.0
N744 N 0.05578 0.24277 0.24304 0.0
N745 N 0.09471 0.25053 0.94975 0.0
H746 H 0.08605 0.32414 0.01601 0.0
H747 H 0.09034 0.30681 0.93982 0.0
H748 H 0.09601 0.23116 0.92835 0.0
H749 H 0.10569 0.27107 0.91637 0.0
H750 H 0.05244 0.22259 0.28281 0.0
H751 H 0.05598 0.26194 0.26707 0.0
H752 H 0.03514 0.18606 0.22931 0.0
H753 H 0.04501 0.16859 0.1595 0.0
C754 C 0.37653 0.13447 0.17806 0.0
C755 C 0.36098 0.10759 0.22662 0.0
C756 C 0.3857 0.07636 0.16816 0.0
C757 C 0.40402 0.10364 0.12785 0.0
N758 N 0.41774 0.1588 0.09403 0.0
N759 N 0.35271 0.05311 0.27417 0.0
C760 C 0.39949 0.13277 0.1321 0.0
C761 C 0.36573 0.07848 0.22252 0.0
N762 N 0.36911 0.1615 0.17587 0.0
N763 N 0.38762 0.04836 0.15523 0.0
H764 H 0.33799 0.05336 0.31535 0.0
H765 H 0.35809 0.03219 0.28031 0.0
H766 H 0.40275 0.0457 0.11834 0.0
H767 H 0.37274 0.02787 0.17614 0.0
H768 H 0.37788 0.18149 0.1374 0.0
H769 H 0.35234 0.16322 0.20889 0.0
H770 H 0.41782 0.18088 0.1014 0.0
H771 H 0.43387 0.15819 0.05723 0.0
C772 C 0.48852 0.39175 0.09026 0.0
C773 C 0.47951 0.36749 0.04906 0.0
C774 C 0.48015 0.40556 0.93356 0.0
C775 C 0.49207 0.4298 0.97328 0.0
N776 N 0.51401 0.44464 0.08638 0.0
N777 N 0.47115 0.35119 0.92919 0.0
C778 C 0.49798 0.42254 0.05086 0.0
C779 C 0.47663 0.37439 0.96994 0.0
N780 N 0.48713 0.38562 0.16738 0.0
N781 N 0.47098 0.41217 0.86218 0.0
H782 H 0.4685 0.32818 0.95401 0.0
H783 H 0.47177 0.35497 0.87047 0.0
H784 H 0.47246 0.43451 0.83414 0.0
H785 H 0.45944 0.39549 0.83353 0.0
H786 H 0.49043 0.40277 0.20002 0.0
H787 H 0.48004 0.36351 0.19887 0.0
H788 H 0.52148 0.43982 0.14035 0.0
H789 H 0.52251 0.46717 0.05931 0.0
C790 C 0.17423 0.49058 0.2633 0.0
C791 C 0.20083 0.51052 0.23593 0.0
C792 C 0.18543 0.51251 0.10584 0.0
C793 C 0.15852 0.49343 0.13343 0.0
N794 N 0.12894 0.45878 0.23481 0.0
N795 N 0.23429 0.53516 0.1329 0.0
C796 C 0.15356 0.48049 0.21111 0.0
C797 C 0.20727 0.51966 0.15749 0.0
N798 N 0.16823 0.48274 0.33931 0.0
N799 N 0.18961 0.52468 0.03062 0.0
H800 H 0.25055 0.54072 0.16991 0.0
H801 H 0.24121 0.54041 0.07658 0.0
H802 H 0.1745 0.51862 0.99099 0.0
H803 H 0.20741 0.54164 0.00759 0.0
H804 H 0.14814 0.47167 0.36306 0.0
H805 H 0.18314 0.48875 0.37937 0.0
H806 H 0.1251 0.44616 0.28937 0.0
H807 H 0.113 0.45154 0.19829 0.0
C808 C 0.95981 0.81578 0.63737 0.0
C809 C 0.96525 0.81742 0.5594 0.0
C810 C 0.96573 0.87221 0.53493 0.0
C811 C 0.96283 0.87126 0.61359 0.0
N812 N 0.95964 0.84329 0.74103 0.0
N813 N 0.97756 0.84797 0.43489 0.0
C814 C 0.96048 0.8433 0.66527 0.0
C815 C 0.96923 0.84584 0.50836 0.0
N816 N 0.9535 0.78781 0.68431 0.0
N817 N 0.96465 0.89826 0.48541 0.0
H818 H 0.9801 0.82928 0.41243 0.0
H819 H 0.98417 0.86871 0.39733 0.0
H820 H 0.96284 0.91833 0.50261 0.0
H821 H 0.96324 0.89931 0.42739 0.0
H822 H 0.94654 0.78439 0.7403 0.0
H823 H 0.95326 0.76744 0.66555 0.0
H824 H 0.96104 0.82463 0.782 0.0
H825 H 0.95929 0.86279 0.76317 0.0
C826 C 0.63971 0.9612 0.42461 0.0
C827 C 0.66362 0.98576 0.43022 0.0
C828 C 0.64428 0.99118 0.55064 0.0
C829 C 0.61849 0.97026 0.53846 0.0
N830 N 0.59072 0.93597 0.46288 0.0
N831 N 0.6884 0.02561 0.49594 0.0
C832 C 0.61605 0.95506 0.4757 0.0
C833 C 0.66607 1.00087 0.49316 0.0
N834 N 0.63977 0.94383 0.3703 0.0
N835 N 0.64796 1.00159 0.61752 0.0
H836 H 0.70511 0.03303 0.45589 0.0
H837 H 0.68955 0.03999 0.53523 0.0
H838 H 0.63237 0.99495 0.66073 0.0
H839 H 0.66721 0.01449 0.63299 0.0
H840 H 0.6242 0.92385 0.36715 0.0
H841 H 0.65686 0.94793 0.33221 0.0
H842 H 0.58657 0.92708 0.41353 0.0
H843 H 0.57309 0.93054 0.49967 0.0
C844 C 0.54685 0.65854 0.62981 0.0
C845 C 0.55499 0.68346 0.66944 0.0
C846 C 0.55208 0.64661 0.78826 0.0
C847 C 0.54139 0.62181 0.74947 0.0
N848 N 0.52203 0.60514 0.63578 0.0
N849 N 0.56005 0.70121 0.78806 0.0
C850 C 0.53689 0.62805 0.6709 0.0
C851 C 0.55594 0.67745 0.74928 0.0
N852 N 0.54981 0.66369 0.55291 0.0
N853 N 0.55995 0.64085 0.86124 0.0
H854 H 0.56273 0.72399 0.76131 0.0
H855 H 0.55811 0.69804 0.84661 0.0
H856 H 0.55847 0.61875 0.89094 0.0
H857 H 0.57053 0.65801 0.8899 0.0
H858 H 0.54717 0.64602 0.52203 0.0
H859 H 0.55753 0.68547 0.52029 0.0
H860 H 0.51565 0.60913 0.58039 0.0
H861 H 0.51346 0.58273 0.66405 0.0
C862 C 0.87192 0.56917 0.38678 0.0
C863 C 0.84695 0.54756 0.41968 0.0
C864 C 0.86238 0.55598 0.54567 0.0
C865 C 0.88896 0.57417 0.51336 0.0
N866 N 0.92029 0.5965 0.40404 0.0
N867 N 0.81841 0.51891 0.52966 0.0
C868 C 0.89399 0.58067 0.43401 0.0
C869 C 0.84201 0.54077 0.49899 0.0
N870 N 0.8744 0.57877 0.3103 0.0
N871 N 0.85662 0.55359 0.62088 0.0
H872 H 0.80268 0.50802 0.49697 0.0
H873 H 0.81512 0.51022 0.58717 0.0
H874 H 0.87118 0.56445 0.65641 0.0
H875 H 0.83679 0.54309 0.64689 0.0
H876 H 0.89074 0.59674 0.28329 0.0
H877 H 0.85874 0.57054 0.27397 0.0
H878 H 0.92633 0.59875 0.34767 0.0
H879 H 0.9369 0.60577 0.43653 0.0
loop_
_geom_bond_atom_site_label_1
_geom_bond_atom_site_label_2
_geom_bond_distance
_geom_bond_site_symmetry_2
_ccdc_geom_bond_type
C0 C1 1.384 . S
C0 H13 0.947 . S
C0 C35 1.382 . S
C1 C0 1.384 . S
C1 C2 1.378 . S
C2 C1 1.378 . S
C2 C3 1.378 . S
C2 H14 0.952 . S
C3 C2 1.378 . S
C3 H15 0.950 . S
C3 C34 1.383 . S
H4 C23 0.947 . S
H5 C24 0.946 . S
H6 C26 0.953 . S
H7 C27 0.945 . S
H8 C29 0.952 . S
H9 C30 0.949 . S
H10 C32 0.950 . S
H11 C33 0.948 . S
H12 C35 0.951 . S
H13 C0 0.947 . S
H14 C2 0.952 . S
H15 C3 0.950 . S
N16 C19 1.382 . S
N16 C21 1.363 . S
N17 C19 1.371 1_556 S
N17 C20 1.372 . S
N18 C20 1.361 1_554 S
N18 C21 1.377 . S
C19 N16 1.382 . S
C19 N17 1.371 1_554 S
C19 C22 1.480 1_554 S
C20 N17 1.372 . S
C20 N18 1.361 1_556 S
C20 C28 1.457 . S
C21 N16 1.363 . S
C21 N18 1.377 . S
C21 C34 1.479 . S
C22 C19 1.480 1_556 S
C22 C23 1.383 1_556 S
C22 C27 1.385 . S
C23 H4 0.947 . S
C23 C22 1.383 1_554 S
C23 C24 1.388 . S
C24 H5 0.946 . S
C24 C23 1.388 . S
C24 C25 1.384 1_554 S
C25 C24 1.384 1_556 S
C25 C26 1.377 . S
C26 H6 0.953 . S
C26 C25 1.377 . S
C26 C27 1.369 . S
C27 H7 0.945 . S
C27 C22 1.385 . S
C27 C26 1.369 . S
C28 C20 1.457 . S
C28 C29 1.372 . S
C28 C33 1.364 . S
C29 H8 0.952 . S
C29 C28 1.372 . S
C29 C30 1.389 . S
C30 H9 0.949 . S
C30 C29 1.389 . S
C30 C31 1.387 . S
C31 C30 1.387 . S
C31 C32 1.372 . S
C32 H10 0.950 . S
C32 C31 1.372 . S
C32 C33 1.379 . S
C33 H11 0.948 . S
C33 C28 1.364 . S
C33 C32 1.379 . S
C34 C3 1.383 . S
C34 C21 1.479 . S
C34 C35 1.398 . S
C35 C0 1.382 . S
C35 H12 0.951 . S
C35 C34 1.398 . S
C36 C37 1.384 . S
C36 H49 0.947 . S
C36 C71 1.382 . S
C37 C36 1.384 . S
C37 C38 1.378 . S
C38 C37 1.378 . S
C38 C39 1.378 . S
C38 H50 0.952 . S
C39 C38 1.378 . S
C39 H51 0.950 . S
C39 C70 1.383 . S
H40 C59 0.947 . S
H41 C60 0.946 . S
H42 C62 0.953 . S
H43 C63 0.945 . S
H44 C65 0.952 . S
H45 C66 0.949 . S
H46 C68 0.950 . S
H47 C69 0.948 1_554 S
H48 C71 0.951 . S
H49 C36 0.947 . S
H50 C38 0.952 . S
H51 C39 0.950 . S
N52 C55 1.382 . S
N52 C57 1.363 . S
N53 C55 1.371 1_556 S
N53 C56 1.372 . S
N54 C56 1.361 1_554 S
N54 C57 1.377 . S
C55 N52 1.382 . S
C55 N53 1.371 1_554 S
C55 C58 1.480 . S
C56 N53 1.372 . S
C56 N54 1.361 1_556 S
C56 C64 1.457 . S
C57 N52 1.363 . S
C57 N54 1.377 . S
C57 C70 1.479 . S
C58 C55 1.480 . S
C58 C59 1.383 . S
C58 C63 1.385 1_554 S
C59 H40 0.947 . S
C59 C58 1.383 . S
C59 C60 1.388 . S
C60 H41 0.946 . S
C60 C59 1.388 . S
C60 C61 1.384 . S
C61 C60 1.384 . S
C61 C62 1.377 1_554 S
C62 H42 0.953 . S
C62 C61 1.377 1_556 S
C62 C63 1.369 . S
C63 H43 0.945 . S
C63 C58 1.385 1_556 S
C63 C62 1.369 . S
C64 C56 1.457 . S
C64 C65 1.372 . S
C64 C69 1.364 . S
C65 H44 0.952 . S
C65 C64 1.372 . S
C65 C66 1.389 . S
C66 H45 0.949 . S
C66 C65 1.389 . S
C66 C67 1.387 . S
C67 C66 1.387 . S
C67 C68 1.372 . S
C68 H46 0.950 . S
C68 C67 1.372 . S
C68 C69 1.379 . S
C69 H47 0.948 1_556 S
C69 C64 1.364 . S
C69 C68 1.379 . S
C70 C39 1.383 . S
C70 C57 1.479 . S
C70 C71 1.398 . S
C71 C36 1.382 . S
C71 H48 0.951 . S
C71 C70 1.398 . S
C72 C73 1.384 . S
C72 H85 0.947 . S
C72 C107 1.382 . S
C73 C72 1.384 . S
C73 C74 1.378 . S
C74 C73 1.378 . S
C74 C75 1.378 . S
C74 H86 0.952 . S
C75 C74 1.378 . S
C75 H87 0.950 . S
C75 C106 1.383 . S
H76 C95 0.947 . S
H77 C96 0.946 . S
H78 C98 0.953 . S
H79 C99 0.945 . S
H80 C101 0.952 . S
H81 C102 0.949 . S
H82 C104 0.950 . S
H83 C105 0.948 . S
H84 C107 0.951 . S
H85 C72 0.947 . S
H86 C74 0.952 . S
H87 C75 0.950 . S
N88 C91 1.382 1_554 S
N88 C93 1.363 . S
N89 C91 1.371 . S
N89 C92 1.372 . S
N90 C92 1.361 1_554 S
N90 C93 1.377 . S
C91 N88 1.382 1_556 S
C91 N89 1.371 . S
C91 C94 1.480 . S
C92 N89 1.372 . S
C92 N90 1.361 1_556 S
C92 C100 1.457 . S
C93 N88 1.363 . S
C93 N90 1.377 . S
C93 C106 1.479 . S
C94 C91 1.480 . S
C94 C95 1.383 1_556 S
C94 C99 1.385 . S
C95 H76 0.947 . S
C95 C94 1.383 1_554 S
C95 C96 1.388 . S
C96 H77 0.946 . S
C96 C95 1.388 . S
C96 C97 1.384 1_554 S
C97 C96 1.384 1_556 S
C97 C98 1.377 . S
C98 H78 0.953 . S
C98 C97 1.377 . S
C98 C99 1.369 . S
C99 H79 0.945 . S
C99 C94 1.385 . S
C99 C98 1.369 . S
C100 C92 1.457 . S
C100 C101 1.372 . S
C100 C105 1.364 . S
C101 H80 0.952 . S
C101 C100 1.372 . S
C101 C102 1.389 . S
C102 H81 0.949 . S
C102 C101 1.389 . S
C102 C103 1.387 . S
C103 C102 1.387 . S
C103 C104 1.372 . S
C104 H82 0.950 . S
C104 C103 1.372 . S
C104 C105 1.379 . S
C105 H83 0.948 . S
C105 C100 1.364 . S
C105 C104 1.379 . S
C106 C75 1.383 . S
C106 C93 1.479 . S
C106 C107 1.398 . S
C107 C72 1.382 . S
C107 H84 0.951 . S
C107 C106 1.398 . S
C108 C109 1.384 . S
C108 H121 0.947 . S
C108 C143 1.382 . S
C109 C108 1.384 . S
C109 C110 1.378 . S
C110 C109 1.378 . S
C110 C111 1.378 . S
C110 H122 0.952 . S
C111 C110 1.378 . S
C111 H123 0.950 . S
C111 C142 1.383 . S
H112 C131 0.947 . S
H113 C132 0.946 . S
H114 C134 0.953 . S
H115 C135 0.945 . S
H116 C137 0.952 . S
H117 C138 0.949 . S
H118 C140 0.950 . S
H119 C141 0.948 . S
H120 C143 0.951 . S
H121 C108 0.947 . S
H122 C110 0.952 . S
H123 C111 0.950 . S
N124 C127 1.382 . S
N124 C129 1.363 . S
N125 C127 1.371 . S
N125 C128 1.372 . S
N126 C128 1.361 . S
N126 C129 1.377 . S
C127 N124 1.382 . S
C127 N125 1.371 . S
C127 C130 1.480 . S
C128 N125 1.372 . S
C128 N126 1.361 . S
C128 C136 1.457 . S
C129 N124 1.363 . S
C129 N126 1.377 . S
C129 C142 1.479 . S
C130 C127 1.480 . S
C130 C131 1.383 . S
C130 C135 1.385 . S
C131 H112 0.947 . S
C131 C130 1.383 . S
C131 C132 1.388 . S
C132 H113 0.946 . S
C132 C131 1.388 . S
C132 C133 1.384 . S
C133 C132 1.384 . S
C133 C134 1.377 . S
C134 H114 0.953 . S
C134 C133 1.377 . S
C134 C135 1.369 . S
C135 H115 0.945 . S
C135 C130 1.385 . S
C135 C134 1.369 . S
C136 C128 1.457 . S
C136 C137 1.372 . S
C136 C141 1.364 . S
C137 H116 0.952 . S
C137 C136 1.372 . S
C137 C138 1.389 . S
C138 H117 0.949 . S
C138 C137 1.389 . S
C138 C139 1.387 . S
C139 C138 1.387 . S
C139 C140 1.372 . S
C140 H118 0.950 . S
C140 C139 1.372 . S
C140 C141 1.379 . S
C141 H119 0.948 . S
C141 C136 1.364 . S
C141 C140 1.379 . S
C142 C111 1.383 . S
C142 C129 1.479 . S
C142 C143 1.398 . S
C143 C108 1.382 . S
C143 H120 0.951 . S
C143 C142 1.398 . S
C144 C145 1.384 . S
C144 H157 0.947 . S
C144 C179 1.382 . S
C145 C144 1.384 . S
C145 C146 1.378 . S
C146 C145 1.378 . S
C146 C147 1.378 . S
C146 H158 0.952 . S
C147 C146 1.378 . S
C147 H159 0.950 . S
C147 C178 1.383 . S
H148 C167 0.947 . S
H149 C168 0.946 . S
H150 C170 0.953 . S
H151 C171 0.945 . S
H152 C173 0.952 . S
H153 C174 0.949 . S
H154 C176 0.950 . S
H155 C177 0.948 . S
H156 C179 0.951 . S
H157 C144 0.947 . S
H158 C146 0.952 . S
H159 C147 0.950 . S
N160 C163 1.382 . S
N160 C165 1.363 . S
N161 C163 1.371 . S
N161 C164 1.372 . S
N162 C164 1.361 . S
N162 C165 1.377 . S
C163 N160 1.382 . S
C163 N161 1.371 . S
C163 C166 1.480 . S
C164 N161 1.372 . S
C164 N162 1.361 . S
C164 C172 1.457 . S
C165 N160 1.363 . S
C165 N162 1.377 . S
C165 C178 1.479 . S
C166 C163 1.480 . S
C166 C167 1.383 . S
C166 C171 1.385 . S
C167 H148 0.947 . S
C167 C166 1.383 . S
C167 C168 1.388 . S
C168 H149 0.946 . S
C168 C167 1.388 . S
C168 C169 1.384 . S
C169 C168 1.384 . S
C169 C170 1.377 . S
C170 H150 0.953 . S
C170 C169 1.377 . S
C170 C171 1.369 . S
C171 H151 0.945 . S
C171 C166 1.385 . S
C171 C170 1.369 . S
C172 C164 1.457 . S
C172 C173 1.372 . S
C172 C177 1.364 . S
C173 H152 0.952 . S
C173 C172 1.372 . S
C173 C174 1.389 . S
C174 H153 0.949 . S
C174 C173 1.389 . S
C174 C175 1.387 . S
C175 C174 1.387 . S
C175 C176 1.372 . S
C176 H154 0.950 . S
C176 C175 1.372 . S
C176 C177 1.379 . S
C177 H155 0.948 . S
C177 C172 1.364 . S
C177 C176 1.379 . S
C178 C147 1.383 . S
C178 C165 1.479 . S
C178 C179 1.398 . S
C179 C144 1.382 . S
C179 H156 0.951 . S
C179 C178 1.398 . S
C180 C181 1.384 . S
C180 H193 0.947 . S
C180 C215 1.382 . S
C181 C180 1.384 . S
C181 C182 1.378 . S
C182 C181 1.378 . S
C182 C183 1.378 . S
C182 H194 0.952 . S
C183 C182 1.378 . S
C183 H195 0.950 . S
C183 C214 1.383 . S
H184 C203 0.947 . S
H185 C204 0.946 . S
H186 C206 0.953 . S
H187 C207 0.945 . S
H188 C209 0.952 . S
H189 C210 0.949 . S
H190 C212 0.950 . S
H191 C213 0.948 . S
H192 C215 0.951 . S
H193 C180 0.947 . S
H194 C182 0.952 . S
H195 C183 0.950 . S
N196 C199 1.382 . S
N196 C201 1.363 . S
N197 C199 1.371 . S
N197 C200 1.372 . S
N198 C200 1.361 . S
N198 C201 1.377 . S
C199 N196 1.382 . S
C199 N197 1.371 . S
C199 C202 1.480 . S
C200 N197 1.372 . S
C200 N198 1.361 . S
C200 C208 1.457 . S
C201 N196 1.363 . S
C201 N198 1.377 . S
C201 C214 1.479 . S
C202 C199 1.480 . S
C202 C203 1.383 . S
C202 C207 1.385 . S
C203 H184 0.947 . S
C203 C202 1.383 . S
C203 C204 1.388 . S
C204 H185 0.946 . S
C204 C203 1.388 . S
C204 C205 1.384 . S
C205 C204 1.384 . S
C205 C206 1.377 . S
C206 H186 0.953 . S
C206 C205 1.377 . S
C206 C207 1.369 . S
C207 H187 0.945 . S
C207 C202 1.385 . S
C207 C206 1.369 . S
C208 C200 1.457 . S
C208 C209 1.372 . S
C208 C213 1.364 . S
C209 H188 0.952 . S
C209 C208 1.372 . S
C209 C210 1.389 . S
C210 H189 0.949 . S
C210 C209 1.389 . S
C210 C211 1.387 . S
C211 C210 1.387 . S
C211 C212 1.372 . S
C212 H190 0.950 . S
C212 C211 1.372 . S
C212 C213 1.379 . S
C213 H191 0.948 . S
C213 C208 1.364 . S
C213 C212 1.379 . S
C214 C183 1.383 . S
C214 C201 1.479 . S
C214 C215 1.398 . S
C215 C180 1.382 . S
C215 H192 0.951 . S
C215 C214 1.398 . S
C216 C217 1.384 . S
C216 H229 0.947 . S
C216 C251 1.382 . S
C217 C216 1.384 . S
C217 C218 1.378 . S
C218 C217 1.378 . S
C218 C219 1.378 . S
C218 H230 0.952 . S
C219 C218 1.378 . S
C219 H231 0.950 . S
C219 C250 1.383 . S
H220 C239 0.947 . S
H221 C240 0.946 . S
H222 C242 0.953 . S
H223 C243 0.945 . S
H224 C245 0.952 . S
H225 C246 0.949 . S
H226 C248 0.950 . S
H227 C249 0.948 . S
H228 C251 0.951 . S
H229 C216 0.947 . S
H230 C218 0.952 . S
H231 C219 0.950 . S
N232 C235 1.382 . S
N232 C237 1.363 . S
N233 C235 1.371 . S
N233 C236 1.372 . S
N234 C236 1.361 . S
N234 C237 1.377 . S
C235 N232 1.382 . S
C235 N233 1.371 . S
C235 C238 1.480 . S
C236 N233 1.372 . S
C236 N234 1.361 . S
C236 C244 1.457 . S
C237 N232 1.363 . S
C237 N234 1.377 . S
C237 C250 1.479 . S
C238 C235 1.480 . S
C238 C239 1.383 . S
C238 C243 1.385 . S
C239 H220 0.947 . S
C239 C238 1.383 . S
C239 C240 1.388 . S
C240 H221 0.946 . S
C240 C239 1.388 . S
C240 C241 1.384 . S
C241 C240 1.384 . S
C241 C242 1.377 . S
C242 H222 0.953 . S
C242 C241 1.377 . S
C242 C243 1.369 . S
C243 H223 0.945 . S
C243 C238 1.385 . S
C243 C242 1.369 . S
C244 C236 1.457 . S
C244 C245 1.372 . S
C244 C249 1.364 . S
C245 H224 0.952 . S
C245 C244 1.372 . S
C245 C246 1.389 . S
C246 H225 0.949 . S
C246 C245 1.389 . S
C246 C247 1.387 . S
C247 C246 1.387 . S
C247 C248 1.372 . S
C248 H226 0.950 . S
C248 C247 1.372 . S
C248 C249 1.379 . S
C249 H227 0.948 . S
C249 C244 1.364 . S
C249 C248 1.379 . S
C250 C219 1.383 . S
C250 C237 1.479 . S
C250 C251 1.398 . S
C251 C216 1.382 . S
C251 H228 0.951 . S
C251 C250 1.398 . S
C252 C253 1.384 . S
C252 H265 0.947 . S
C252 C287 1.382 . S
C253 C252 1.384 . S
C253 C254 1.378 . S
C254 C253 1.378 . S
C254 C255 1.378 . S
C254 H266 0.952 . S
C255 C254 1.378 . S
C255 H267 0.950 . S
C255 C286 1.383 . S
H256 C275 0.947 . S
H257 C276 0.946 . S
H258 C278 0.953 . S
H259 C279 0.945 . S
H260 C281 0.952 . S
H261 C282 0.949 1_556 S
H262 C284 0.950 . S
H263 C285 0.948 . S
H264 C287 0.951 . S
H265 C252 0.947 . S
H266 C254 0.952 . S
H267 C255 0.950 . S
N268 C271 1.382 . S
N268 C273 1.363 . S
N269 C271 1.371 . S
N269 C272 1.372 . S
N270 C272 1.361 . S
N270 C273 1.377 . S
C271 N268 1.382 . S
C271 N269 1.371 . S
C271 C274 1.480 . S
C272 N269 1.372 . S
C272 N270 1.361 . S
C272 C280 1.457 . S
C273 N268 1.363 . S
C273 N270 1.377 . S
C273 C286 1.479 . S
C274 C271 1.480 . S
C274 C275 1.383 . S
C274 C279 1.385 . S
C275 H256 0.947 . S
C275 C274 1.383 . S
C275 C276 1.388 . S
C276 H257 0.946 . S
C276 C275 1.388 . S
C276 C277 1.384 . S
C277 C276 1.384 . S
C277 C278 1.377 . S
C278 H258 0.953 . S
C278 C277 1.377 . S
C278 C279 1.369 . S
C279 H259 0.945 . S
C279 C274 1.385 . S
C279 C278 1.369 . S
C280 C272 1.457 . S
C280 C281 1.372 . S
C280 C285 1.364 . S
C281 H260 0.952 . S
C281 C280 1.372 . S
C281 C282 1.389 . S
C282 H261 0.949 1_554 S
C282 C281 1.389 . S
C282 C283 1.387 . S
C283 C282 1.387 . S
C283 C284 1.372 . S
C284 H262 0.950 . S
C284 C283 1.372 . S
C284 C285 1.379 . S
C285 H263 0.948 . S
C285 C280 1.364 . S
C285 C284 1.379 . S
C286 C255 1.383 . S
C286 C273 1.479 . S
C286 C287 1.398 . S
C287 C252 1.382 . S
C287 H264 0.951 . S
C287 C286 1.398 . S
Nd288 C290 2.836 1_445 S
Nd288 O308 2.500 1_445 S
Nd288 O309 2.492 1_545 S
Nd288 O310 2.487 . S
Nd288 O311 2.682 . S
Nd288 O312 2.410 1_545 S
Nd288 O317 2.414 1_455 S
Nd288 O319 2.424 . S
Nd289 C299 2.836 1_556 S
Nd289 O311 2.414 . S
Nd289 O313 2.424 1_545 S
Nd289 O314 2.500 . S
Nd289 O315 2.492 1_556 S
Nd289 O316 2.487 1_455 S
Nd289 O317 2.682 1_455 S
Nd289 O318 2.410 . S
C290 Nd288 2.836 1_665 S
C290 C291 1.498 . S
C290 O308 1.258 . S
C290 O309 1.239 1_655 S
C291 C290 1.498 . S
C291 C292 1.366 . S
C291 C296 1.407 . S
C292 C291 1.366 . S
C292 C293 1.392 . S
C292 H320 0.930 . S
C293 C292 1.392 . S
C293 C294 1.398 . S
C293 H321 0.929 . S
C294 C293 1.398 . S
C294 C295 1.352 . S
C295 C294 1.352 . S
C295 C296 1.384 . S
C295 H322 0.949 . S
C296 C291 1.407 . S
C296 C295 1.384 . S
C296 H323 0.929 1_655 S
C297 O310 1.241 . S
C297 O311 1.273 . S
C298 O312 1.251 . S
C298 O313 1.268 . S
C299 Nd289 2.836 1_554 S
C299 C300 1.498 . S
C299 O314 1.258 1_554 S
C299 O315 1.239 . S
C300 C299 1.498 . S
C300 C301 1.366 . S
C300 C305 1.407 . S
C301 C300 1.366 . S
C301 C302 1.392 . S
C301 H324 0.930 . S
C302 C301 1.392 . S
C302 C303 1.398 . S
C302 H325 0.929 . S
C303 C302 1.398 . S
C303 C304 1.352 . S
C304 C303 1.352 . S
C304 C305 1.384 . S
C304 H326 0.930 . S
C305 C300 1.407 . S
C305 C304 1.384 . S
C305 H327 0.929 . S
C306 O316 1.241 . S
C306 O317 1.273 . S
C307 O318 1.251 . S
C307 O319 1.268 . S
O308 Nd288 2.500 1_665 S
O308 C290 1.258 . S
O309 Nd288 2.492 1_565 S
O309 C290 1.239 1_455 S
O310 Nd288 2.487 . S
O310 C297 1.241 . S
O311 Nd288 2.682 . S
O311 Nd289 2.414 . S
O311 C297 1.273 . S
O312 Nd288 2.410 1_565 S
O312 C298 1.251 . S
O313 Nd289 2.424 1_565 S
O313 C298 1.268 . S
O314 Nd289 2.500 . S
O314 C299 1.258 1_556 S
O315 Nd289 2.492 1_554 S
O315 C299 1.239 . S
O316 Nd289 2.487 1_655 S
O316 C306 1.241 . S
O317 Nd288 2.414 1_655 S
O317 Nd289 2.682 1_655 S
O317 C306 1.273 . S
O318 Nd289 2.410 . S
O318 C307 1.251 . S
O319 Nd288 2.424 . S
O319 C307 1.268 . S
H320 C292 0.930 . S
H321 C293 0.929 . S
H322 C295 0.949 . S
H323 C296 0.929 1_455 S
H324 C301 0.930 . S
H325 C302 0.929 . S
H326 C304 0.930 . S
H327 C305 0.929 . S
Nd328 C330 2.836 1_545 S
Nd328 O348 2.500 1_545 S
Nd328 O349 2.492 . S
Nd328 O350 2.487 . S
Nd328 O351 2.682 . S
Nd328 O352 2.410 . S
Nd328 O357 2.412 1_545 S
Nd328 O359 2.424 . S
Nd329 C339 2.836 1_556 S
Nd329 O351 2.414 . S
Nd329 O353 2.424 . S
Nd329 O354 2.500 . S
Nd329 O355 2.492 1_556 S
Nd329 O356 2.487 1_546 S
Nd329 O357 2.658 1_545 S
Nd329 O358 2.410 . S
C330 Nd328 2.836 1_565 S
C330 C331 1.498 . S
C330 O348 1.258 . S
C330 O349 1.239 1_565 S
C331 C330 1.498 . S
C331 C332 1.366 . S
C331 C336 1.407 . S
C332 C331 1.366 . S
C332 C333 1.392 . S
C332 H360 0.930 . S
C333 C332 1.392 . S
C333 C334 1.398 . S
C333 H361 0.929 . S
C334 C333 1.398 . S
C334 C335 1.352 . S
C335 C334 1.352 . S
C335 C336 1.384 . S
C335 H362 0.930 . S
C336 C331 1.407 . S
C336 C335 1.384 . S
C336 H363 0.929 1_565 S
C337 O350 1.241 . S
C337 O351 1.273 . S
C338 O352 1.251 . S
C338 O353 1.268 . S
C339 Nd329 2.836 1_554 S
C339 C340 1.498 . S
C339 O354 1.258 1_554 S
C339 O355 1.239 . S
C340 C339 1.498 . S
C340 C341 1.366 . S
C340 C345 1.407 . S
C341 C340 1.366 . S
C341 C342 1.392 . S
C341 H364 0.930 1_554 S
C342 C341 1.392 . S
C342 C343 1.398 . S
C342 H365 0.929 . S
C343 C342 1.398 . S
C343 C344 1.352 . S
C344 C343 1.352 . S
C344 C345 1.384 . S
C344 H366 0.930 . S
C345 C340 1.407 . S
C345 C344 1.384 . S
C345 H367 0.929 . S
C346 O356 1.241 1_556 S
C346 O357 1.282 . S
C347 O358 1.251 . S
C347 O359 1.268 . S
O348 Nd328 2.500 1_565 S
O348 C330 1.258 . S
O349 Nd328 2.492 . S
O349 C330 1.239 1_545 S
O350 Nd328 2.487 . S
O350 C337 1.241 . S
O351 Nd328 2.682 . S
O351 Nd329 2.414 . S
O351 C337 1.273 . S
O352 Nd328 2.410 . S
O352 C338 1.251 . S
O353 Nd329 2.424 . S
O353 C338 1.268 . S
O354 Nd329 2.500 . S
O354 C339 1.258 1_556 S
O355 Nd329 2.492 1_554 S
O355 C339 1.239 . S
O356 Nd329 2.487 1_564 S
O356 C346 1.241 1_554 S
O357 Nd328 2.412 1_565 S
O357 Nd329 2.658 1_565 S
O357 C346 1.282 . S
O358 Nd329 2.410 . S
O358 C347 1.251 . S
O359 Nd328 2.424 . S
O359 C347 1.268 . S
H360 C332 0.930 . S
H361 C333 0.929 . S
H362 C335 0.930 . S
H363 C336 0.929 1_545 S
H364 C341 0.930 1_556 S
H365 C342 0.929 . S
H366 C344 0.930 . S
H367 C345 0.929 . S
Nd368 C370 2.836 . S
Nd368 O388 2.500 . S
Nd368 O389 2.495 . S
Nd368 O390 2.487 . S
Nd368 O391 2.682 . S
Nd368 O392 2.410 . S
Nd368 O397 2.414 . S
Nd368 O399 2.424 . S
Nd369 C379 2.836 . S
Nd369 O391 2.414 . S
Nd369 O393 2.424 . S
Nd369 O394 2.500 . S
Nd369 O395 2.492 . S
Nd369 O396 2.487 . S
Nd369 O397 2.682 . S
Nd369 O398 2.410 . S
C370 Nd368 2.836 . S
C370 C371 1.498 1_556 S
C370 O388 1.258 . S
C370 O389 1.239 . S
C371 C370 1.498 1_554 S
C371 C372 1.366 1_554 S
C371 C376 1.407 . S
C372 C371 1.366 1_556 S
C372 C373 1.394 . S
C372 H400 0.930 . S
C373 C372 1.394 . S
C373 C374 1.397 1_556 S
C373 H401 0.930 . S
C374 C373 1.397 1_554 S
C374 C375 1.352 . S
C375 C374 1.352 . S
C375 C376 1.384 . S
C375 H402 0.930 . S
C376 C371 1.407 . S
C376 C375 1.384 . S
C376 H403 0.929 . S
C377 O390 1.241 . S
C377 O391 1.273 . S
C378 O392 1.251 . S
C378 O393 1.268 . S
C379 Nd369 2.836 . S
C379 C380 1.498 . S
C379 O394 1.258 . S
C379 O395 1.239 . S
C380 C379 1.498 . S
C380 C381 1.366 . S
C380 C385 1.407 . S
C381 C380 1.366 . S
C381 C382 1.392 . S
C381 H404 0.930 . S
C382 C381 1.392 . S
C382 C383 1.398 . S
C382 H405 0.929 . S
C383 C382 1.398 . S
C383 C384 1.352 . S
C384 C383 1.352 . S
C384 C385 1.384 . S
C384 H406 0.930 . S
C385 C380 1.407 . S
C385 C384 1.384 . S
C385 H407 0.929 . S
C386 O396 1.241 . S
C386 O397 1.273 . S
C387 O398 1.251 . S
C387 O399 1.268 . S
O388 Nd368 2.500 . S
O388 C370 1.258 . S
O389 Nd368 2.495 . S
O389 C370 1.239 . S
O390 Nd368 2.487 . S
O390 C377 1.241 . S
O391 Nd368 2.682 . S
O391 Nd369 2.414 . S
O391 C377 1.273 . S
O392 Nd368 2.410 . S
O392 C378 1.251 . S
O393 Nd369 2.424 . S
O393 C378 1.268 . S
O394 Nd369 2.500 . S
O394 C379 1.258 . S
O395 Nd369 2.492 . S
O395 C379 1.239 . S
O396 Nd369 2.487 . S
O396 C386 1.241 . S
O397 Nd368 2.414 . S
O397 Nd369 2.682 . S
O397 C386 1.273 . S
O398 Nd369 2.410 . S
O398 C387 1.251 . S
O399 Nd368 2.424 . S
O399 C387 1.268 . S
H400 C372 0.930 . S
H401 C373 0.930 . S
H402 C375 0.930 . S
H403 C376 0.929 . S
H404 C381 0.930 . S
H405 C382 0.929 . S
H406 C384 0.930 . S
H407 C385 0.929 . S
Nd408 C410 2.836 1_455 S
Nd408 O428 2.500 1_455 S
Nd408 O429 2.492 1_455 S
Nd408 O430 2.487 . S
Nd408 O431 2.682 . S
Nd408 O432 2.410 1_455 S
Nd408 O437 2.414 . S
Nd408 O439 2.424 . S
Nd409 C419 2.836 1_556 S
Nd409 O431 2.414 . S
Nd409 O433 2.424 1_455 S
Nd409 O434 2.496 1_556 S
Nd409 O435 2.492 1_556 S
Nd409 O436 2.487 . S
Nd409 O437 2.682 . S
Nd409 O438 2.410 . S
C410 Nd408 2.836 1_655 S
C410 C411 1.498 . S
C410 O428 1.258 . S
C410 O429 1.239 . S
C411 C410 1.498 . S
C411 C412 1.366 . S
C411 C416 1.407 . S
C412 C411 1.366 . S
C412 C413 1.392 . S
C412 H440 0.930 . S
C413 C412 1.392 . S
C413 C414 1.398 . S
C413 H441 0.929 . S
C414 C413 1.398 . S
C414 C415 1.352 . S
C415 C414 1.352 . S
C415 C416 1.384 . S
C415 H442 0.930 . S
C416 C411 1.407 . S
C416 C415 1.384 . S
C416 H443 0.929 . S
C417 O430 1.241 . S
C417 O431 1.273 . S
C418 O432 1.251 . S
C418 O433 1.268 . S
C419 Nd409 2.836 1_554 S
C419 C420 1.498 . S
C419 O434 1.266 . S
C419 O435 1.239 . S
C420 C419 1.498 . S
C420 C421 1.366 . S
C420 C425 1.407 . S
C421 C420 1.366 . S
C421 C422 1.392 . S
C421 H444 0.930 . S
C422 C421 1.392 . S
C422 C423 1.398 . S
C422 H445 0.929 . S
C423 C422 1.398 . S
C423 C424 1.352 . S
C424 C423 1.352 . S
C424 C425 1.384 . S
C424 H446 0.930 . S
C425 C420 1.407 . S
C425 C424 1.384 . S
C425 H447 0.929 . S
C426 O436 1.241 . S
C426 O437 1.273 . S
C427 O438 1.251 . S
C427 O439 1.268 . S
O428 Nd408 2.500 1_655 S
O428 C410 1.258 . S
O429 Nd408 2.492 1_655 S
O429 C410 1.239 . S
O430 Nd408 2.487 . S
O430 C417 1.241 . S
O431 Nd408 2.682 . S
O431 Nd409 2.414 . S
O431 C417 1.273 . S
O432 Nd408 2.410 1_655 S
O432 C418 1.251 . S
O433 Nd409 2.424 1_655 S
O433 C418 1.268 . S
O434 Nd409 2.496 1_554 S
O434 C419 1.266 . S
O435 Nd409 2.492 1_554 S
O435 C419 1.239 . S
O436 Nd409 2.487 . S
O436 C426 1.241 . S
O437 Nd408 2.414 . S
O437 Nd409 2.682 . S
O437 C426 1.273 . S
O438 Nd409 2.410 . S
O438 C427 1.251 . S
O439 Nd408 2.424 . S
O439 C427 1.268 . S
H440 C412 0.930 . S
H441 C413 0.929 . S
H442 C415 0.930 . S
H443 C416 0.929 . S
H444 C421 0.930 . S
H445 C422 0.929 . S
H446 C424 0.930 . S
H447 C425 0.929 . S
C448 C449 1.363 . S
C448 C454 1.379 . S
C448 N456 1.356 . S
C449 C448 1.363 . S
C449 C455 1.363 . S
C450 C451 1.363 . S
C450 C455 1.379 . S
C450 N457 1.356 . S
C451 C450 1.363 . S
C451 C454 1.363 . S
N452 C454 1.356 . S
N452 H464 0.984 . S
N452 H465 0.985 . S
N453 C455 1.356 . S
N453 H458 0.984 . S
N453 H459 0.985 . S
C454 C448 1.379 . S
C454 C451 1.363 . S
C454 N452 1.356 . S
C455 C449 1.363 . S
C455 C450 1.379 . S
C455 N453 1.356 . S
N456 C448 1.356 . S
N456 H462 0.984 . S
N456 H463 0.984 . S
N457 C450 1.356 . S
N457 H460 0.984 . S
N457 H461 0.985 . S
H458 N453 0.984 . S
H459 N453 0.985 . S
H460 N457 0.984 . S
H461 N457 0.985 . S
H462 N456 0.984 . S
H463 N456 0.984 . S
H464 N452 0.984 . S
H465 N452 0.985 . S
C466 C467 1.363 . S
C466 C472 1.379 . S
C466 N474 1.356 . S
C467 C466 1.363 . S
C467 C473 1.363 . S
C468 C469 1.363 . S
C468 C473 1.379 . S
C468 N475 1.356 . S
C469 C468 1.363 . S
C469 C472 1.363 . S
N470 C472 1.356 . S
N470 H482 0.984 . S
N470 H483 0.985 . S
N471 C473 1.356 . S
N471 H476 0.984 . S
N471 H477 0.985 . S
C472 C466 1.379 . S
C472 C469 1.363 . S
C472 N470 1.356 . S
C473 C467 1.363 . S
C473 C468 1.379 . S
C473 N471 1.356 . S
N474 C466 1.356 . S
N474 H480 0.984 . S
N474 H481 0.984 . S
N475 C468 1.356 . S
N475 H478 0.984 . S
N475 H479 0.985 . S
H476 N471 0.984 . S
H477 N471 0.985 . S
H478 N475 0.984 . S
H479 N475 0.985 . S
H480 N474 0.984 . S
H481 N474 0.984 . S
H482 N470 0.984 . S
H483 N470 0.985 . S
C484 C485 1.363 . S
C484 C490 1.379 . S
C484 N492 1.356 . S
C485 C484 1.363 . S
C485 C491 1.363 . S
C486 C487 1.363 . S
C486 C491 1.379 . S
C486 N493 1.356 . S
C487 C486 1.363 . S
C487 C490 1.363 . S
N488 C490 1.356 . S
N488 H500 0.984 . S
N488 H501 0.985 . S
N489 C491 1.356 . S
N489 H494 0.984 . S
N489 H495 0.985 . S
C490 C484 1.379 . S
C490 C487 1.363 . S
C490 N488 1.356 . S
C491 C485 1.363 . S
C491 C486 1.379 . S
C491 N489 1.356 . S
N492 C484 1.356 . S
N492 H498 0.984 . S
N492 H499 0.984 . S
N493 C486 1.356 . S
N493 H496 0.984 . S
N493 H497 0.985 . S
H494 N489 0.984 . S
H495 N489 0.985 . S
H496 N493 0.984 . S
H497 N493 0.985 . S
H498 N492 0.984 . S
H499 N492 0.984 . S
H500 N488 0.984 . S
H501 N488 0.985 . S
C502 C503 1.363 . S
C502 C508 1.379 . S
C502 N510 1.356 . S
C503 C502 1.363 . S
C503 C509 1.363 . S
C504 C505 1.363 . S
C504 C509 1.379 . S
C504 N511 1.356 . S
C505 C504 1.363 . S
C505 C508 1.363 . S
N506 C508 1.356 . S
N506 H518 0.984 . S
N506 H519 0.985 . S
N507 C509 1.356 . S
N507 H512 0.984 . S
N507 H513 0.985 . S
C508 C502 1.379 . S
C508 C505 1.363 . S
C508 N506 1.356 . S
C509 C503 1.363 . S
C509 C504 1.379 . S
C509 N507 1.356 . S
N510 C502 1.356 . S
N510 H516 0.984 . S
N510 H517 0.984 . S
N511 C504 1.356 . S
N511 H514 0.984 . S
N511 H515 0.985 . S
H512 N507 0.984 . S
H513 N507 0.985 . S
H514 N511 0.984 . S
H515 N511 0.985 . S
H516 N510 0.984 . S
H517 N510 0.984 . S
H518 N506 0.984 . S
H519 N506 0.985 . S
C520 C521 1.363 1_545 S
C520 C526 1.379 . S
C520 N528 1.356 . S
C521 C520 1.363 1_565 S
C521 C527 1.363 . S
C522 C523 1.363 1_565 S
C522 C527 1.379 . S
C522 N529 1.356 . S
C523 C522 1.363 1_545 S
C523 C526 1.363 . S
N524 C526 1.356 . S
N524 H536 0.984 . S
N524 H537 0.985 . S
N525 C527 1.356 . S
N525 H530 0.984 . S
N525 H531 0.985 . S
C526 C520 1.379 . S
C526 C523 1.363 . S
C526 N524 1.356 . S
C527 C521 1.363 . S
C527 C522 1.379 . S
C527 N525 1.356 . S
N528 C520 1.356 . S
N528 H534 0.984 . S
N528 H535 0.984 . S
N529 C522 1.356 . S
N529 H532 0.984 . S
N529 H533 0.985 . S
H530 N525 0.984 . S
H531 N525 0.985 . S
H532 N529 0.984 . S
H533 N529 0.985 . S
H534 N528 0.984 . S
H535 N528 0.984 . S
H536 N524 0.984 . S
H537 N524 0.985 . S
C538 C539 1.363 . S
C538 C544 1.379 . S
C538 N546 1.356 . S
C539 C538 1.363 . S
C539 C545 1.363 . S
C540 C541 1.363 . S
C540 C545 1.379 . S
C540 N547 1.356 1_565 S
C541 C540 1.363 . S
C541 C544 1.363 . S
N542 C544 1.356 . S
N542 H554 0.984 . S
N542 H555 0.985 1_554 S
N543 C545 1.356 1_545 S
N543 H548 0.980 1_545 S
N543 H549 0.985 . S
C544 C538 1.379 . S
C544 C541 1.363 . S
C544 N542 1.356 . S
C545 C539 1.363 . S
C545 C540 1.379 . S
C545 N543 1.356 1_565 S
N546 C538 1.356 . S
N546 H552 0.984 . S
N546 H553 0.984 . S
N547 C540 1.356 1_545 S
N547 H550 0.984 1_545 S
N547 H551 0.985 . S
H548 N543 0.980 1_565 S
H549 N543 0.985 . S
H550 N547 0.984 1_565 S
H551 N547 0.985 . S
H552 N546 0.984 . S
H553 N546 0.984 . S
H554 N542 0.984 . S
H555 N542 0.985 1_556 S
C556 C557 1.363 . S
C556 C562 1.379 . S
C556 N564 1.356 . S
C557 C556 1.363 . S
C557 C563 1.363 . S
C558 C559 1.363 . S
C558 C563 1.379 . S
C558 N565 1.356 . S
C559 C558 1.363 . S
C559 C562 1.363 . S
N560 C562 1.356 . S
N560 H572 0.984 . S
N560 H573 0.985 . S
N561 C563 1.356 1_554 S
N561 H566 0.984 . S
N561 H567 0.985 . S
C562 C556 1.379 . S
C562 C559 1.363 . S
C562 N560 1.356 . S
C563 C557 1.363 . S
C563 C558 1.379 . S
C563 N561 1.356 1_556 S
N564 C556 1.356 . S
N564 H570 0.984 . S
N564 H571 0.984 . S
N565 C558 1.356 . S
N565 H568 0.984 . S
N565 H569 0.985 1_556 S
H566 N561 0.984 . S
H567 N561 0.985 . S
H568 N565 0.984 . S
H569 N565 0.985 1_554 S
H570 N564 0.984 . S
H571 N564 0.984 . S
H572 N560 0.984 . S
H573 N560 0.985 . S
C574 C575 1.363 . S
C574 C580 1.379 . S
C574 N582 1.356 . S
C575 C574 1.363 . S
C575 C581 1.363 . S
C576 C577 1.363 . S
C576 C581 1.379 . S
C576 N583 1.356 1_655 S
C577 C576 1.363 . S
C577 C580 1.363 . S
N578 C580 1.356 . S
N578 H590 0.984 . S
N578 H591 0.985 . S
N579 C581 1.356 . S
N579 H584 0.984 1_556 S
N579 H585 0.985 . S
C580 C574 1.379 . S
C580 C577 1.363 . S
C580 N578 1.356 . S
C581 C575 1.363 . S
C581 C576 1.379 . S
C581 N579 1.356 . S
N582 C574 1.356 . S
N582 H588 0.984 . S
N582 H589 0.984 . S
N583 C576 1.356 1_455 S
N583 H586 0.984 . S
N583 H587 0.985 . S
H584 N579 0.984 1_554 S
H585 N579 0.985 . S
H586 N583 0.984 . S
H587 N583 0.985 . S
H588 N582 0.984 . S
H589 N582 0.984 . S
H590 N578 0.984 . S
H591 N578 0.985 . S
C592 C593 1.363 . S
C592 C598 1.379 . S
C592 N600 1.356 . S
C593 C592 1.363 . S
C593 C599 1.363 . S
C594 C595 1.363 . S
C594 C599 1.379 . S
C594 N601 1.356 . S
C595 C594 1.363 . S
C595 C598 1.363 . S
N596 C598 1.356 . S
N596 H608 0.984 . S
N596 H609 0.985 . S
N597 C599 1.356 . S
N597 H602 0.984 . S
N597 H603 0.985 . S
C598 C592 1.379 . S
C598 C595 1.363 . S
C598 N596 1.356 . S
C599 C593 1.363 . S
C599 C594 1.379 . S
C599 N597 1.356 . S
N600 C592 1.356 . S
N600 H606 0.984 . S
N600 H607 0.984 . S
N601 C594 1.356 . S
N601 H604 0.984 . S
N601 H605 0.985 . S
H602 N597 0.984 . S
H603 N597 0.985 . S
H604 N601 0.984 . S
H605 N601 0.985 . S
H606 N600 0.984 . S
H607 N600 0.984 . S
H608 N596 0.984 . S
H609 N596 0.985 . S
C610 C611 1.363 . S
C610 C616 1.379 . S
C610 N618 1.356 . S
C611 C610 1.363 . S
C611 C617 1.363 . S
C612 C613 1.363 . S
C612 C617 1.379 . S
C612 N619 1.356 . S
C613 C612 1.363 . S
C613 C616 1.363 . S
N614 C616 1.356 . S
N614 H626 0.984 . S
N614 H627 0.985 . S
N615 C617 1.356 1_554 S
N615 H620 0.984 . S
N615 H621 0.985 . S
C616 C610 1.379 . S
C616 C613 1.363 . S
C616 N614 1.356 . S
C617 C611 1.363 . S
C617 C612 1.379 . S
C617 N615 1.356 1_556 S
N618 C610 1.356 . S
N618 H624 0.984 . S
N618 H625 0.984 . S
N619 C612 1.356 . S
N619 H622 0.984 . S
N619 H623 0.985 1_556 S
H620 N615 0.984 . S
H621 N615 0.985 . S
H622 N619 0.984 . S
H623 N619 0.985 1_554 S
H624 N618 0.984 . S
H625 N618 0.984 . S
H626 N614 0.984 . S
H627 N614 0.985 . S
C628 C629 1.363 . S
C628 C634 1.379 . S
C628 N636 1.356 . S
C629 C628 1.363 . S
C629 C635 1.363 . S
C630 C631 1.363 . S
C630 C635 1.379 . S
C630 N637 1.356 . S
C631 C630 1.363 . S
C631 C634 1.363 . S
N632 C634 1.356 . S
N632 H644 0.984 . S
N632 H645 0.985 . S
N633 C635 1.356 . S
N633 H638 0.984 . S
N633 H639 0.985 . S
C634 C628 1.379 . S
C634 C631 1.363 . S
C634 N632 1.356 . S
C635 C629 1.363 . S
C635 C630 1.379 . S
C635 N633 1.356 . S
N636 C628 1.356 . S
N636 H642 0.984 . S
N636 H643 0.984 . S
N637 C630 1.356 . S
N637 H640 0.984 . S
N637 H641 0.985 . S
H638 N633 0.984 . S
H639 N633 0.985 . S
H640 N637 0.984 . S
H641 N637 0.985 . S
H642 N636 0.984 . S
H643 N636 0.984 . S
H644 N632 0.984 . S
H645 N632 0.985 . S
C646 C647 1.363 . S
C646 C652 1.379 . S
C646 N654 1.356 . S
C647 C646 1.363 . S
C647 C653 1.363 . S
C648 C649 1.363 . S
C648 C653 1.379 . S
C648 N655 1.356 . S
C649 C648 1.363 . S
C649 C652 1.363 . S
N650 C652 1.356 . S
N650 H662 0.984 . S
N650 H663 0.985 . S
N651 C653 1.356 . S
N651 H656 0.984 . S
N651 H657 0.985 . S
C652 C646 1.379 . S
C652 C649 1.363 . S
C652 N650 1.356 . S
C653 C647 1.363 . S
C653 C648 1.379 . S
C653 N651 1.356 . S
N654 C646 1.356 . S
N654 H660 0.984 1_556 S
N654 H661 0.984 . S
N655 C648 1.356 . S
N655 H658 0.984 . S
N655 H659 0.985 . S
H656 N651 0.984 . S
H657 N651 0.985 . S
H658 N655 0.984 . S
H659 N655 0.985 . S
H660 N654 0.984 1_554 S
H661 N654 0.984 . S
H662 N650 0.984 . S
H663 N650 0.985 . S
C664 C665 1.363 . S
C664 C670 1.379 . S
C664 N672 1.356 . S
C665 C664 1.363 . S
C665 C671 1.363 . S
C666 C667 1.363 . S
C666 C671 1.379 . S
C666 N673 1.356 . S
C667 C666 1.363 . S
C667 C670 1.363 . S
N668 C670 1.356 . S
N668 H680 0.984 . S
N668 H681 0.985 . S
N669 C671 1.356 . S
N669 H674 0.984 . S
N669 H675 0.985 . S
C670 C664 1.379 . S
C670 C667 1.363 . S
C670 N668 1.356 . S
C671 C665 1.363 . S
C671 C666 1.379 . S
C671 N669 1.356 . S
N672 C664 1.356 . S
N672 H678 0.984 . S
N672 H679 0.984 . S
N673 C666 1.356 . S
N673 H676 0.984 . S
N673 H677 0.985 1_556 S
H674 N669 0.984 . S
H675 N669 0.985 . S
H676 N673 0.984 . S
H677 N673 0.985 1_554 S
H678 N672 0.984 . S
H679 N672 0.984 . S
H680 N668 0.984 . S
H681 N668 0.985 . S
C682 C683 1.363 1_545 S
C682 C688 1.379 . S
C682 N690 1.356 . S
C683 C682 1.363 1_565 S
C683 C689 1.363 . S
C684 C685 1.363 1_565 S
C684 C689 1.379 . S
C684 N691 1.356 . S
C685 C684 1.363 1_545 S
C685 C688 1.363 . S
N686 C688 1.356 . S
N686 H698 0.984 . S
N686 H699 0.985 . S
N687 C689 1.356 . S
N687 H692 0.984 . S
N687 H693 0.985 . S
C688 C682 1.379 . S
C688 C685 1.363 . S
C688 N686 1.356 . S
C689 C683 1.363 . S
C689 C684 1.379 . S
C689 N687 1.356 . S
N690 C682 1.356 . S
N690 H696 0.984 . S
N690 H697 0.984 . S
N691 C684 1.356 . S
N691 H694 0.984 1_565 S
N691 H695 0.985 . S
H692 N687 0.984 . S
H693 N687 0.985 . S
H694 N691 0.984 1_545 S
H695 N691 0.985 . S
H696 N690 0.984 . S
H697 N690 0.984 . S
H698 N686 0.984 . S
H699 N686 0.985 . S
C700 C701 1.363 . S
C700 C706 1.379 . S
C700 N708 1.356 . S
C701 C700 1.363 . S
C701 C707 1.363 . S
C702 C703 1.363 . S
C702 C707 1.379 . S
C702 N709 1.356 . S
C703 C702 1.363 . S
C703 C706 1.363 . S
N704 C706 1.356 1_556 S
N704 H716 0.984 . S
N704 H717 0.985 . S
N705 C707 1.356 . S
N705 H710 0.984 . S
N705 H711 0.985 . S
C706 C700 1.379 . S
C706 C703 1.363 . S
C706 N704 1.356 1_554 S
C707 C701 1.363 . S
C707 C702 1.379 . S
C707 N705 1.356 . S
N708 C700 1.356 . S
N708 H714 0.984 . S
N708 H715 0.984 . S
N709 C702 1.356 . S
N709 H712 0.984 . S
N709 H713 0.985 . S
H710 N705 0.984 . S
H711 N705 0.985 . S
H712 N709 0.984 . S
H713 N709 0.985 . S
H714 N708 0.984 . S
H715 N708 0.984 . S
H716 N704 0.984 . S
H717 N704 0.985 . S
C718 C719 1.363 . S
C718 C724 1.379 . S
C718 N726 1.356 . S
C719 C718 1.363 . S
C719 C725 1.363 . S
C720 C721 1.363 . S
C720 C725 1.379 . S
C720 N727 1.356 . S
C721 C720 1.363 . S
C721 C724 1.363 . S
N722 C724 1.356 . S
N722 H734 0.984 . S
N722 H735 0.985 . S
N723 C725 1.356 . S
N723 H728 0.984 . S
N723 H729 0.985 . S
C724 C718 1.379 . S
C724 C721 1.363 . S
C724 N722 1.356 . S
C725 C719 1.363 . S
C725 C720 1.379 . S
C725 N723 1.356 . S
N726 C718 1.356 . S
N726 H732 0.984 . S
N726 H733 0.984 . S
N727 C720 1.356 . S
N727 H730 0.984 . S
N727 H731 0.985 . S
H728 N723 0.984 . S
H729 N723 0.985 . S
H730 N727 0.984 . S
H731 N727 0.985 . S
H732 N726 0.984 . S
H733 N726 0.984 . S
H734 N722 0.984 . S
H735 N722 0.985 . S
C736 C737 1.363 . S
C736 C742 1.379 . S
C736 N744 1.356 . S
C737 C736 1.363 . S
C737 C743 1.363 . S
C738 C739 1.363 . S
C738 C743 1.379 . S
C738 N745 1.356 . S
C739 C738 1.363 . S
C739 C742 1.363 . S
N740 C742 1.356 . S
N740 H752 0.984 . S
N740 H753 0.985 . S
N741 C743 1.356 . S
N741 H746 0.984 . S
N741 H747 0.985 . S
C742 C736 1.379 . S
C742 C739 1.363 . S
C742 N740 1.356 . S
C743 C737 1.363 . S
C743 C738 1.379 . S
C743 N741 1.356 . S
N744 C736 1.356 . S
N744 H750 0.984 . S
N744 H751 0.984 . S
N745 C738 1.356 . S
N745 H748 0.984 . S
N745 H749 0.985 . S
H746 N741 0.984 . S
H747 N741 0.985 . S
H748 N745 0.984 . S
H749 N745 0.985 . S
H750 N744 0.984 . S
H751 N744 0.984 . S
H752 N740 0.984 . S
H753 N740 0.985 . S
C754 C755 1.363 . S
C754 C760 1.379 . S
C754 N762 1.356 . S
C755 C754 1.363 . S
C755 C761 1.363 . S
C756 C757 1.363 . S
C756 C761 1.379 . S
C756 N763 1.356 . S
C757 C756 1.363 . S
C757 C760 1.363 . S
N758 C760 1.356 . S
N758 H770 0.984 . S
N758 H771 0.985 . S
N759 C761 1.356 . S
N759 H764 0.984 . S
N759 H765 0.985 . S
C760 C754 1.379 . S
C760 C757 1.363 . S
C760 N758 1.356 . S
C761 C755 1.363 . S
C761 C756 1.379 . S
C761 N759 1.356 . S
N762 C754 1.356 . S
N762 H768 0.984 . S
N762 H769 0.984 . S
N763 C756 1.356 . S
N763 H766 0.984 . S
N763 H767 0.985 . S
H764 N759 0.984 . S
H765 N759 0.985 . S
H766 N763 0.984 . S
H767 N763 0.985 . S
H768 N762 0.984 . S
H769 N762 0.984 . S
H770 N758 0.984 . S
H771 N758 0.985 . S
C772 C773 1.363 1_554 S
C772 C778 1.379 . S
C772 N780 1.356 . S
C773 C772 1.363 1_556 S
C773 C779 1.363 . S
C774 C775 1.363 . S
C774 C779 1.379 . S
C774 N781 1.356 . S
C775 C774 1.363 . S
C775 C778 1.363 1_556 S
N776 C778 1.356 . S
N776 H788 0.984 . S
N776 H789 0.985 . S
N777 C779 1.356 . S
N777 H782 0.984 . S
N777 H783 0.985 . S
C778 C772 1.379 . S
C778 C775 1.363 1_554 S
C778 N776 1.356 . S
C779 C773 1.363 . S
C779 C774 1.379 . S
C779 N777 1.356 . S
N780 C772 1.356 . S
N780 H786 0.984 . S
N780 H787 0.984 . S
N781 C774 1.356 . S
N781 H784 0.984 . S
N781 H785 0.985 . S
H782 N777 0.984 . S
H783 N777 0.985 . S
H784 N781 0.984 . S
H785 N781 0.985 . S
H786 N780 0.984 . S
H787 N780 0.984 . S
H788 N776 0.984 . S
H789 N776 0.985 . S
C790 C791 1.363 . S
C790 C796 1.379 . S
C790 N798 1.356 . S
C791 C790 1.363 . S
C791 C797 1.363 . S
C792 C793 1.363 . S
C792 C797 1.379 . S
C792 N799 1.356 . S
C793 C792 1.363 . S
C793 C796 1.363 . S
N794 C796 1.356 . S
N794 H806 0.984 . S
N794 H807 0.985 . S
N795 C797 1.356 . S
N795 H800 0.984 . S
N795 H801 0.985 . S
C796 C790 1.379 . S
C796 C793 1.363 . S
C796 N794 1.356 . S
C797 C791 1.363 . S
C797 C792 1.379 . S
C797 N795 1.356 . S
N798 C790 1.356 . S
N798 H804 0.984 . S
N798 H805 0.984 . S
N799 C792 1.356 . S
N799 H802 0.984 . S
N799 H803 0.985 . S
H800 N795 0.984 . S
H801 N795 0.985 . S
H802 N799 0.984 . S
H803 N799 0.985 . S
H804 N798 0.984 . S
H805 N798 0.984 . S
H806 N794 0.984 . S
H807 N794 0.985 . S
C808 C809 1.363 . S
C808 C814 1.379 . S
C808 N816 1.356 . S
C809 C808 1.363 . S
C809 C815 1.363 . S
C810 C811 1.363 . S
C810 C815 1.379 . S
C810 N817 1.356 . S
C811 C810 1.363 . S
C811 C814 1.363 . S
N812 C814 1.356 . S
N812 H824 0.984 . S
N812 H825 0.985 . S
N813 C815 1.356 . S
N813 H818 0.984 . S
N813 H819 0.985 . S
C814 C808 1.379 . S
C814 C811 1.363 . S
C814 N812 1.356 . S
C815 C809 1.363 . S
C815 C810 1.379 . S
C815 N813 1.356 . S
N816 C808 1.356 . S
N816 H822 0.984 . S
N816 H823 0.984 . S
N817 C810 1.356 . S
N817 H820 0.984 . S
N817 H821 0.985 . S
H818 N813 0.984 . S
H819 N813 0.985 . S
H820 N817 0.984 . S
H821 N817 0.985 . S
H822 N816 0.984 . S
H823 N816 0.984 . S
H824 N812 0.984 . S
H825 N812 0.985 . S
C826 C827 1.363 . S
C826 C832 1.379 . S
C826 N834 1.356 . S
C827 C826 1.363 . S
C827 C833 1.363 . S
C828 C829 1.363 . S
C828 C833 1.379 . S
C828 N835 1.356 1_565 S
C829 C828 1.363 . S
C829 C832 1.363 . S
N830 C832 1.356 . S
N830 H842 0.984 . S
N830 H843 0.985 . S
N831 C833 1.356 1_545 S
N831 H836 0.984 . S
N831 H837 0.985 . S
C832 C826 1.379 . S
C832 C829 1.363 . S
C832 N830 1.356 . S
C833 C827 1.363 . S
C833 C828 1.379 . S
C833 N831 1.356 1_565 S
N834 C826 1.356 . S
N834 H840 0.984 . S
N834 H841 0.984 . S
N835 C828 1.356 1_545 S
N835 H838 0.984 1_545 S
N835 H839 0.985 . S
H836 N831 0.984 . S
H837 N831 0.985 . S
H838 N835 0.984 1_565 S
H839 N835 0.985 . S
H840 N834 0.984 . S
H841 N834 0.984 . S
H842 N830 0.984 . S
H843 N830 0.985 . S
C844 C845 1.363 . S
C844 C850 1.379 . S
C844 N852 1.356 . S
C845 C844 1.363 . S
C845 C851 1.363 . S
C846 C847 1.363 . S
C846 C851 1.379 . S
C846 N853 1.356 . S
C847 C846 1.363 . S
C847 C850 1.363 . S
N848 C850 1.356 . S
N848 H860 0.984 . S
N848 H861 0.985 . S
N849 C851 1.356 . S
N849 H854 0.984 . S
N849 H855 0.985 . S
C850 C844 1.379 . S
C850 C847 1.363 . S
C850 N848 1.356 . S
C851 C845 1.363 . S
C851 C846 1.379 . S
C851 N849 1.356 . S
N852 C844 1.356 . S
N852 H858 0.984 . S
N852 H859 0.984 . S
N853 C846 1.356 . S
N853 H856 0.984 . S
N853 H857 0.985 . S
H854 N849 0.984 . S
H855 N849 0.985 . S
H856 N853 0.984 . S
H857 N853 0.985 . S
H858 N852 0.984 . S
H859 N852 0.984 . S
H860 N848 0.984 . S
H861 N848 0.985 . S
C862 C863 1.363 . S
C862 C868 1.379 . S
C862 N870 1.356 . S
C863 C862 1.363 . S
C863 C869 1.363 . S
C864 C865 1.363 . S
C864 C869 1.379 . S
C864 N871 1.356 . S
C865 C864 1.363 . S
C865 C868 1.363 . S
N866 C868 1.356 . S
N866 H878 0.984 . S
N866 H879 0.985 . S
N867 C869 1.356 . S
N867 H872 0.984 . S
N867 H873 0.985 . S
C868 C862 1.379 . S
C868 C865 1.363 . S
C868 N866 1.356 . S
C869 C863 1.363 . S
C869 C864 1.379 . S
C869 N867 1.356 . S
N870 C862 1.356 . S
N870 H876 0.984 . S
N870 H877 0.984 . S
N871 C864 1.356 . S
N871 H874 0.984 . S
N871 H875 0.985 . S
H872 N867 0.984 . S
H873 N867 0.985 . S
H874 N871 0.984 . S
H875 N871 0.985 . S
H876 N870 0.984 . S
H877 N870 0.984 . S
H878 N866 0.984 . S
H879 N866 0.985 . S
C449 C241 1.397 . S
C451 C297 1.353 . S
C469 C337 2.231 . S
C467 C277 2.272 . S
C487 C386 1.545 . S
C485 C169 1.468 . S
C505 C417 2.068 . S
C503 C205 2.119 . S
C523 C306 1.354 . S
C521 C97 1.344 . S
C539 C133 2.371 . S
C541 C346 2.231 1_554 S
C557 C25 1.546 . S
C559 C377 1.545 . S
C575 C61 2.013 1_556 S
C577 C426 2.068 1_655 S
C595 C307 1.907 . S
C593 C211 1.558 . S
C613 C347 1.815 . S
C611 C247 1.538 . S
C631 C383 0.840 . S
C629 C253 0.827 . S
C647 C175 1.527 . S
C649 C427 1.894 . S
C665 C67 1.432 . S
C667 C298 1.907 1_655 S
C685 C338 1.815 . S
C683 C103 1.448 . S
C703 C374 0.840 . S
C701 C109 0.840 . S
C719 C31 1.590 . S
C721 C418 1.894 . S
C737 C181 2.054 . S
C739 C303 2.169 . S
C755 C217 1.756 . S
C757 C343 1.775 . S
C775 C387 3.142 . S
C773 C283 2.657 1_556 S
C793 C423 1.789 . S
C791 C145 1.696 . S
C809 C37 2.016 . S
C811 C294 2.169 . S
C829 C334 1.775 . S
C827 C73 1.767 . S
C847 C378 3.142 . S
C845 C139 2.717 . S
C863 C1 1.753 . S
C865 C414 1.789 . S
