# Generated by pormake.
# Topology the, (3,8)-cn, num edge types: 1
# Building blocks:
#     Node 0, Type 0, BuildingBlock: CUQRIR_clean_linker_1, # of connection points: 3
#     Node 1, Type 0, BuildingBlock: CUQRIR_clean_linker_1, # of connection points: 3
#     Node 2, Type 0, BuildingBlock: CUQRIR_clean_linker_1, # of connection points: 3
#     Node 3, Type 0, BuildingBlock: CUQRIR_clean_linker_1, # of connection points: 3
#     Node 4, Type 0, BuildingBlock: CUQRIR_clean_linker_1, # of connection points: 3
#     Node 5, Type 0, BuildingBlock: CUQRIR_clean_linker_1, # of connection points: 3
#     Node 6, Type 0, BuildingBlock: CUQRIR_clean_linker_1, # of connection points: 3
#     Node 7, Type 0, BuildingBlock: CUQRIR_clean_linker_1, # of connection points: 3
#     Node 8, Type 1, BuildingBlock: GIZVER_clean_sbu_0, # of connection points: 8
#     Node 9, Type 1, BuildingBlock: GIZVER_clean_sbu_0, # of connection points: 8
#     Node 10, Type 1, BuildingBlock: GIZVER_clean_sbu_0, # of connection points: 8
#     Edge 11, Type (0, 1), BuildingBlock: XUDNAN_clean_linker_2, # of connection points: 2
#     Edge 12, Type (0, 1), BuildingBlock: XUDNAN_clean_linker_2, # of connection points: 2
#     Edge 13, Type (0, 1), BuildingBlock: XUDNAN_clean_linker_2, # of connection points: 2
#     Edge 14, Type (0, 1), BuildingBlock: XUDNAN_clean_linker_2, # of connection points: 2
#     Edge 15, Type (0, 1), BuildingBlock: XUDNAN_clean_linker_2, # of connection points: 2
#     Edge 16, Type (0, 1), BuildingBlock: XUDNAN_clean_linker_2, # of connection points: 2
#     Edge 17, Type (0, 1), BuildingBlock: XUDNAN_clean_linker_2, # of connection points: 2
#     Edge 18, Type (0, 1), BuildingBlock: XUDNAN_clean_linker_2, # of connection points: 2
#     Edge 19, Type (0, 1), BuildingBlock: XUDNAN_clean_linker_2, # of connection points: 2
#     Edge 20, Type (0, 1), BuildingBlock: XUDNAN_clean_linker_2, # of connection points: 2
#     Edge 21, Type (0, 1), BuildingBlock: XUDNAN_clean_linker_2, # of connection points: 2
#     Edge 22, Type (0, 1), BuildingBlock: XUDNAN_clean_linker_2, # of connection points: 2
#     Edge 23, Type (0, 1), BuildingBlock: XUDNAN_clean_linker_2, # of connection points: 2
#     Edge 24, Type (0, 1), BuildingBlock: XUDNAN_clean_linker_2, # of connection points: 2
#     Edge 25, Type (0, 1), BuildingBlock: XUDNAN_clean_linker_2, # of connection points: 2
#     Edge 26, Type (0, 1), BuildingBlock: XUDNAN_clean_linker_2, # of connection points: 2
#     Edge 27, Type (0, 1), BuildingBlock: XUDNAN_clean_linker_2, # of connection points: 2
#     Edge 28, Type (0, 1), BuildingBlock: XUDNAN_clean_linker_2, # of connection points: 2
#     Edge 29, Type (0, 1), BuildingBlock: XUDNAN_clean_linker_2, # of connection points: 2
#     Edge 30, Type (0, 1), BuildingBlock: XUDNAN_clean_linker_2, # of connection points: 2
#     Edge 31, Type (0, 1), BuildingBlock: XUDNAN_clean_linker_2, # of connection points: 2
#     Edge 32, Type (0, 1), BuildingBlock: XUDNAN_clean_linker_2, # of connection points: 2
#     Edge 33, Type (0, 1), BuildingBlock: XUDNAN_clean_linker_2, # of connection points: 2
#     Edge 34, Type (0, 1), BuildingBlock: XUDNAN_clean_linker_2, # of connection points: 2
# Relax obj value: 0.077
# Max RMSD: 0.231
# Mean RMSD: 0.153
data_MOF--net-the--node1-GIZVER_clean_sbu_0--node2-CUQRIR_clean_linker_1--edge1-XUDNAN_clean_linker_2
_symmetry_space_group_name_H-M    P1
_symmetry_Int_Tables_number       1
_symmetry_cell_setting            triclinic
loop_
_symmetry_equiv_pos_as_xyz
'x, y, z'
_cell_length_a     38.240714
_cell_length_b     35.990987
_cell_length_c     32.45755
_cell_angle_alpha  84.641291
_cell_angle_beta   97.058501
_cell_angle_gamma 107.93987
loop_
_atom_site_label
_atom_site_type_symbol
_atom_site_fract_x
_atom_site_fract_y
_atom_site_fract_z
_atom_type_partial_charge
C0 C 0.38888 0.34682 0.44718 0.0
N1 N 0.40934 0.34219 0.41789 0.0
N2 N 0.3761 0.3779 0.43623 0.0
C3 C 0.38267 0.32201 0.48708 0.0
C4 C 0.38943 0.39185 0.39925 0.0
N5 N 0.41023 0.37068 0.38857 0.0
C6 C 0.37941 0.42394 0.37173 0.0
H7 H 0.37592 0.33792 0.51118 0.0
H8 H 0.40741 0.31279 0.49885 0.0
H9 H 0.35923 0.29524 0.481 0.0
H10 H 0.40048 0.4523 0.37854 0.0
H11 H 0.35199 0.42581 0.37733 0.0
H12 H 0.37889 0.4191 0.33837 0.0
C13 C 0.7258 0.3176 0.2693 0.0
N14 N 0.75041 0.31011 0.30017 0.0
N15 N 0.74167 0.35031 0.24601 0.0
C16 C 0.68705 0.29113 0.25967 0.0
C17 C 0.77714 0.36209 0.26338 0.0
N18 N 0.78258 0.33741 0.29608 0.0
C19 C 0.80561 0.39932 0.25058 0.0
H20 H 0.67769 0.29381 0.22609 0.0
H21 H 0.66802 0.29944 0.27766 0.0
H22 H 0.68538 0.26014 0.26851 0.0
H23 H 0.82527 0.41149 0.27756 0.0
H24 H 0.79237 0.42156 0.23649 0.0
H25 H 0.82145 0.39288 0.22716 0.0
C26 C 0.78832 0.73715 0.37954 0.0
N27 N 0.78817 0.70743 0.35691 0.0
N28 N 0.76716 0.75823 0.35907 0.0
C29 C 0.80727 0.74435 0.42289 0.0
C30 C 0.7538 0.74009 0.32309 0.0
N31 N 0.76684 0.70914 0.32146 0.0
C32 C 0.72701 0.75184 0.29031 0.0
H33 H 0.78956 0.75303 0.44242 0.0
H34 H 0.83322 0.76884 0.42111 0.0
H35 H 0.81431 0.71834 0.43813 0.0
H36 H 0.71274 0.77049 0.30219 0.0
H37 H 0.70607 0.72558 0.27755 0.0
H38 H 0.74238 0.76911 0.26456 0.0
C39 C 0.35213 0.66716 0.31453 0.0
N40 N 0.38603 0.69396 0.31311 0.0
N41 N 0.33111 0.6787 0.3385 0.0
C42 C 0.34092 0.62762 0.29645 0.0
C43 C 0.35371 0.71325 0.35224 0.0
N44 N 0.38715 0.72239 0.33728 0.0
C45 C 0.34274 0.7389 0.37906 0.0
H46 H 0.32874 0.63005 0.26386 0.0
H47 H 0.32006 0.60585 0.31433 0.0
H48 H 0.36515 0.61681 0.29648 0.0
H49 H 0.35014 0.73118 0.41219 0.0
H50 H 0.31255 0.73456 0.37417 0.0
H51 H 0.3576 0.77023 0.37247 0.0
C52 C 0.37224 0.69076 0.7688 0.0
N53 N 0.4053 0.71904 0.77092 0.0
N54 N 0.3536 0.69177 0.73048 0.0
C55 C 0.35823 0.66212 0.8044 0.0
C56 C 0.3767 0.72202 0.7094 0.0
N57 N 0.40828 0.73838 0.73392 0.0
C58 C 0.36768 0.73605 0.66525 0.0
H59 H 0.37105 0.63815 0.80632 0.0
H60 H 0.32775 0.64961 0.80043 0.0
H61 H 0.36575 0.67629 0.83437 0.0
H62 H 0.35169 0.75699 0.66565 0.0
H63 H 0.35082 0.71121 0.64664 0.0
H64 H 0.39242 0.75121 0.64916 0.0
C65 C 0.37746 0.30593 0.68098 0.0
N66 N 0.37954 0.33888 0.69934 0.0
N67 N 0.41049 0.29845 0.68577 0.0
C68 C 0.34251 0.28111 0.65825 0.0
C69 C 0.43248 0.32746 0.70969 0.0
N70 N 0.41374 0.35197 0.71787 0.0
C71 C 0.47328 0.33475 0.72108 0.0
H72 H 0.34355 0.25099 0.65553 0.0
H73 H 0.33817 0.29497 0.6268 0.0
H74 H 0.31838 0.27922 0.675 0.0
H75 H 0.48628 0.32767 0.69533 0.0
H76 H 0.47759 0.31578 0.74899 0.0
H77 H 0.48719 0.36568 0.72834 0.0
C78 C 0.74396 0.30932 0.75105 0.0
N79 N 0.77005 0.30129 0.73182 0.0
N80 N 0.75691 0.3452 0.76663 0.0
C81 C 0.70488 0.2831 0.75206 0.0
C82 C 0.79199 0.35879 0.75602 0.0
N83 N 0.79998 0.33219 0.73468 0.0
C84 C 0.81703 0.39963 0.76269 0.0
H85 H 0.68853 0.28804 0.72252 0.0
H86 H 0.69197 0.28944 0.77832 0.0
H87 H 0.70422 0.25192 0.75485 0.0
H88 H 0.8464 0.40141 0.76166 0.0
H89 H 0.81381 0.40934 0.79303 0.0
H90 H 0.80939 0.41994 0.73789 0.0
C91 C 0.73379 0.68961 0.62623 0.0
N92 N 0.74951 0.66035 0.63294 0.0
N93 N 0.74203 0.70957 0.5894 0.0
C94 C 0.71464 0.70197 0.65816 0.0
C95 C 0.76387 0.69181 0.57436 0.0
N96 N 0.76874 0.66214 0.60103 0.0
C97 C 0.77939 0.70266 0.53296 0.0
H98 H 0.68436 0.68885 0.65161 0.0
H99 H 0.72089 0.73424 0.65687 0.0
H100 H 0.72299 0.69213 0.69022 0.0
H101 H 0.80762 0.72345 0.53734 0.0
H102 H 0.76197 0.71692 0.51124 0.0
H103 H 0.78124 0.67636 0.5191 0.0
Co104 Co 0.1467 0.48087 0.55811 0.0
Co105 Co 0.10685 0.45222 0.48823 0.0
Co106 Co 0.06399 0.49796 0.5288 0.0
O107 O 0.0938 0.46006 0.54058 0.0
H108 H 0.08128 0.43593 0.55528 0.0
O109 O 0.03566 0.53686 0.51707 0.0
Co110 Co 0.98426 0.52051 0.49643 0.0
Co111 Co 0.0212 0.54514 0.56782 0.0
H112 H 0.04958 0.56117 0.50379 0.0
O113 O 0.13074 0.41493 0.48001 0.0
O114 O 0.1571 0.4755 0.50144 0.0
O115 O 0.09441 0.48485 0.44096 0.0
O116 O 0.09623 0.5295 0.48427 0.0
O117 O 0.02973 0.46326 0.4859 0.0
O118 O 0.93726 0.50959 0.47641 0.0
O119 O 0.98092 0.56832 0.47711 0.0
O120 O 0.9815 0.46849 0.51251 0.0
O121 O 0.03161 0.46594 0.57278 0.0
O122 O 0.02728 0.50934 0.61449 0.0
O123 O 0.97108 0.52796 0.55123 0.0
O124 O 1.00277 0.58667 0.57504 0.0
C125 C 0.18848 0.45875 0.58378 0.0
C126 C 0.13142 0.54575 0.56982 0.0
C127 C 0.10223 0.52044 0.44913 0.0
C128 C 0.16023 0.44359 0.48905 0.0
C129 C 0.94675 0.54719 0.46802 0.0
C130 C 0.99482 0.45181 0.48835 0.0
C131 C 0.02224 0.47413 0.60652 0.0
C132 C 0.97147 0.56121 0.56394 0.0
O133 O 0.19434 0.49586 0.57435 0.0
O134 O 0.15523 0.43456 0.57648 0.0
O135 O 0.09689 0.53205 0.57252 0.0
O136 O 0.14504 0.53169 0.54367 0.0
Co137 Co 0.61919 0.952 0.50216 0.0
Co138 Co 0.63716 0.9855 0.5744 0.0
Co139 Co 0.5823 0.0228 0.52019 0.0
O140 O 0.62504 1.00266 0.52004 0.0
H141 H 0.64628 0.02219 0.50987 0.0
O142 O 0.53971 0.04467 0.51956 0.0
Co143 Co 0.54649 0.09312 0.54504 0.0
Co144 Co 0.52998 0.07123 0.46838 0.0
H145 H 0.51762 0.02465 0.527 0.0
O146 O 0.6826 0.97651 0.59087 0.0
O147 O 0.63111 0.93509 0.56052 0.0
O148 O 0.6024 0.98116 0.6143 0.0
O149 O 0.55757 0.98158 0.5637 0.0
O150 O 0.61224 0.05723 0.56545 0.0
O151 O 0.54786 0.13557 0.57018 0.0
O152 O 0.49852 0.08408 0.55288 0.0
O153 O 0.59753 0.10964 0.53997 0.0
O154 O 0.608 0.06399 0.47772 0.0
O155 O 0.56702 0.08075 0.43065 0.0
O156 O 0.53986 0.11978 0.49026 0.0
O157 O 0.48793 0.08938 0.4522 0.0
C158 C 0.65287 0.92534 0.48024 0.0
C159 C 0.54851 0.94931 0.48056 0.0
C160 C 0.56841 0.97264 0.60123 0.0
C161 C 0.6648 0.94212 0.5778 0.0
C162 C 0.51263 0.11776 0.56968 0.0
C163 C 0.61928 0.09425 0.56264 0.0
C164 C 0.59994 0.08168 0.44357 0.0
C165 C 0.50899 0.12068 0.46945 0.0
O166 O 0.61842 0.90623 0.48445 0.0
O167 O 0.66622 0.96135 0.49134 0.0
O168 O 0.55334 0.98632 0.47546 0.0
O169 O 0.56849 0.93652 0.50909 0.0
Co170 Co 0.54904 0.56444 0.10396 0.0
Co171 Co 0.52058 0.49896 0.07198 0.0
Co172 Co 0.58202 0.55293 1.01388 0.0
O173 O 0.53952 0.54871 0.04752 0.0
H174 H 0.52024 0.5576 0.03159 0.0
O175 O 0.62435 0.55617 0.9811 0.0
Co176 Co 0.61283 0.5338 0.92802 0.0
Co177 Co 0.64504 0.60315 0.95236 0.0
H178 H 0.64368 0.54803 0.99789 0.0
O179 O 0.4727 0.47924 0.0846 0.0
O180 O 0.5229 0.51092 0.12655 0.0
O181 O 0.54953 0.46366 0.07396 0.0
O182 O 0.59539 0.50616 0.0427 0.0
O183 O 0.54506 0.51838 0.97245 0.0
O184 O 0.60493 0.51101 0.88026 0.0
O185 O 0.65126 0.51368 0.93099 0.0
O186 O 0.57122 0.55144 0.91846 0.0
O187 O 0.56962 0.60057 0.98374 0.0
O188 O 0.61432 0.63676 0.94495 0.0
O189 O 0.6412 0.58295 0.90095 0.0
O190 O 0.69358 0.6165 0.93653 0.0
C191 C 0.52506 0.58997 0.14321 0.0
C192 C 0.62111 0.57351 0.09409 0.0
C193 C 0.58192 0.47377 0.06295 0.0
C194 C 0.48895 0.48801 0.12154 0.0
C195 C 0.63457 0.50173 0.89486 0.0
C196 C 0.54314 0.52818 0.93361 0.0
C197 C 0.5831 0.63006 0.95871 0.0
C198 C 0.67677 0.5984 0.90359 0.0
O199 O 0.55561 0.58149 0.15484 0.0
O200 O 0.50832 0.58086 0.10617 0.0
O201 O 0.61895 0.5863 0.05604 0.0
O202 O 0.59277 0.55063 0.10945 0.0
H203 H 0.30928 0.33716 0.46131 0.0
H204 H 0.38951 0.45203 0.45646 0.0
H205 H 0.34354 0.4811 0.47584 0.0
H206 H 0.23475 0.3602 0.41709 0.0
H207 H 0.20105 0.32997 0.4501 0.0
H208 H 0.24169 0.31661 0.44432 0.0
H209 H 0.25898 0.31587 0.52413 0.0
H210 H 0.21782 0.32833 0.53047 0.0
H211 H 0.26228 0.35825 0.55167 0.0
H212 H 0.28644 0.49866 0.48021 0.0
H213 H 0.22371 0.50313 0.48282 0.0
H214 H 0.18034 0.37649 0.48892 0.0
C215 C 0.31744 0.36812 0.46625 0.0
C216 C 0.3526 0.39261 0.45724 0.0
C217 C 0.36248 0.43311 0.46307 0.0
C218 C 0.33663 0.44975 0.47409 0.0
C219 C 0.30139 0.4252 0.48032 0.0
C220 C 0.29205 0.38508 0.47807 0.0
C221 C 0.25157 0.36576 0.48388 0.0
C222 C 0.23108 0.34174 0.44662 0.0
C223 C 0.24742 0.34056 0.52498 0.0
C224 C 0.23907 0.4015 0.48611 0.0
C225 C 0.26839 0.43543 0.48456 0.0
C226 C 0.26342 0.47228 0.48267 0.0
C227 C 0.22767 0.47453 0.48384 0.0
C228 C 0.19734 0.44018 0.48651 0.0
C229 C 0.20312 0.40321 0.48733 0.0
H230 H 0.69724 0.29492 0.35123 0.0
H231 H 0.78338 0.25289 0.31702 0.0
H232 H 0.75753 0.18971 0.35668 0.0
H233 H 0.6831 0.23909 0.45523 0.0
H234 H 0.63387 0.23043 0.44596 0.0
H235 H 0.66487 0.27463 0.42464 0.0
H236 H 0.63118 0.25837 0.35123 0.0
H237 H 0.60082 0.21367 0.37198 0.0
H238 H 0.62799 0.21243 0.33078 0.0
H239 H 0.71658 0.12795 0.39362 0.0
H240 H 0.66541 0.07491 0.423 0.0
H241 H 0.60306 0.15693 0.42361 0.0
C242 C 0.71136 0.27283 0.35358 0.0
C243 C 0.74233 0.27853 0.33161 0.0
C244 C 0.76 0.24907 0.33443 0.0
C245 C 0.74528 0.21311 0.35658 0.0
C246 C 0.71297 0.20737 0.37558 0.0
C247 C 0.69648 0.23676 0.37452 0.0
C248 C 0.65951 0.2222 0.39212 0.0
C249 C 0.66041 0.24281 0.43185 0.0
C250 C 0.62804 0.22694 0.35958 0.0
C251 C 0.65693 0.17966 0.40188 0.0
C252 C 0.68834 0.17166 0.39335 0.0
C253 C 0.69191 0.13401 0.40034 0.0
C254 C 0.66273 0.10405 0.41668 0.0
C255 C 0.63008 0.11177 0.42431 0.0
C256 C 0.62736 0.15005 0.41688 0.0
H257 H 0.85752 0.70704 0.3488 0.0
H258 H 0.75714 0.64325 0.40371 0.0
H259 H 0.78646 0.59365 0.43591 0.0
H260 H 0.88958 0.62544 0.33012 0.0
H261 H 0.93727 0.64987 0.34676 0.0
H262 H 0.90722 0.67804 0.32452 0.0
H263 H 0.92331 0.71821 0.39019 0.0
H264 H 0.95324 0.69004 0.41278 0.0
H265 H 0.91633 0.6931 0.44062 0.0
H266 H 0.82551 0.55035 0.4594 0.0
H267 H 0.87451 0.51952 0.48135 0.0
H268 H 0.95335 0.61612 0.42017 0.0
C269 C 0.84167 0.68185 0.36658 0.0
C270 C 0.80442 0.67704 0.37169 0.0
C271 C 0.78502 0.64568 0.39768 0.0
C272 C 0.80153 0.61777 0.41626 0.0
C273 C 0.83811 0.62278 0.41002 0.0
C274 C 0.85829 0.65442 0.3866 0.0
C275 C 0.89822 0.65474 0.38844 0.0
C276 C 0.90868 0.65184 0.34487 0.0
C277 C 0.92431 0.69119 0.40925 0.0
C278 C 0.89701 0.61784 0.41566 0.0
C279 C 0.86189 0.59973 0.42728 0.0
C280 C 0.85323 0.56442 0.4509 0.0
C281 C 0.88124 0.54711 0.4631 0.0
C282 C 0.91774 0.56564 0.45273 0.0
C283 C 0.92575 0.60157 0.42883 0.0
H284 H 0.43498 0.73566 0.40635 0.0
H285 H 0.40343 0.7893 0.28895 0.0
H286 H 0.44256 0.85457 0.31156 0.0
H287 H 0.43279 0.80669 0.46944 0.0
H288 H 0.47249 0.80444 0.50466 0.0
H289 H 0.44586 0.76229 0.4769 0.0
H290 H 0.50508 0.76002 0.447 0.0
H291 H 0.53166 0.8021 0.47522 0.0
H292 H 0.53258 0.80297 0.41976 0.0
H293 H 0.47937 0.91523 0.35189 0.0
H294 H 0.51636 0.96404 0.40197 0.0
H295 H 0.52451 0.86953 0.49225 0.0
C296 C 0.43779 0.76105 0.38486 0.0
C297 C 0.4172 0.75756 0.34546 0.0
C298 C 0.42004 0.79144 0.31866 0.0
C299 C 0.44183 0.82857 0.33153 0.0
C300 C 0.46092 0.83127 0.37126 0.0
C301 C 0.45978 0.79816 0.39712 0.0
C302 C 0.48154 0.80886 0.43887 0.0
C303 C 0.45665 0.79474 0.47455 0.0
C304 C 0.51468 0.79252 0.4456 0.0
C305 C 0.49412 0.85314 0.43312 0.0
C306 C 0.48207 0.86569 0.39397 0.0
C307 C 0.48934 0.90558 0.3824 0.0
C308 C 0.51012 0.93318 0.41118 0.0
C309 C 0.52355 0.92084 0.45107 0.0
C310 C 0.51499 0.88016 0.46195 0.0
H311 H 0.29561 0.70912 0.68289 0.0
H312 H 0.33311 0.61264 0.74044 0.0
H313 H 0.27361 0.56612 0.71584 0.0
H314 H 0.19689 0.66919 0.68869 0.0
H315 H 0.18491 0.68588 0.6363 0.0
H316 H 0.22712 0.7127 0.66514 0.0
H317 H 0.26502 0.70644 0.60654 0.0
H318 H 0.22288 0.68038 0.57726 0.0
H319 H 0.25983 0.65867 0.58931 0.0
H320 H 0.21014 0.53005 0.68508 0.0
H321 H 0.15511 0.50497 0.63539 0.0
H322 H 0.16526 0.62298 0.58442 0.0
C323 C 0.29147 0.67826 0.69022 0.0
C324 C 0.31878 0.66473 0.71495 0.0
C325 C 0.31205 0.62392 0.72338 0.0
C326 C 0.27837 0.59723 0.70932 0.0
C327 C 0.2521 0.61159 0.68522 0.0
C328 C 0.25884 0.65101 0.67433 0.0
C329 C 0.22888 0.65807 0.64214 0.0
C330 C 0.20823 0.68294 0.6591 0.0
C331 C 0.24512 0.67699 0.60141 0.0
C332 C 0.20424 0.61644 0.63675 0.0
C333 C 0.21751 0.5903 0.66313 0.0
C334 C 0.19962 0.55019 0.6641 0.0
C335 C 0.16836 0.53624 0.63597 0.0
C336 C 0.15625 0.56211 0.60631 0.0
C337 C 0.17378 0.60277 0.60732 0.0
H338 H 0.45657 0.25423 0.7143 0.0
H339 H 0.3913 0.28351 0.60428 0.0
H340 H 0.40386 0.23351 0.56677 0.0
H341 H 0.52859 0.25056 0.65206 0.0
H342 H 0.54154 0.21343 0.6861 0.0
H343 H 0.52274 0.24716 0.7067 0.0
H344 H 0.47193 0.18867 0.7367 0.0
H345 H 0.49021 0.15478 0.71553 0.0
H346 H 0.44247 0.15265 0.70239 0.0
H347 H 0.41867 0.17568 0.54382 0.0
H348 H 0.45133 0.13026 0.52701 0.0
H349 H 0.52038 0.1515 0.64385 0.0
C350 C 0.44505 0.25031 0.68231 0.0
C351 C 0.42102 0.27134 0.66315 0.0
C352 C 0.40751 0.2659 0.62072 0.0
C353 C 0.41482 0.2378 0.59893 0.0
C354 C 0.43751 0.21673 0.61915 0.0
C355 C 0.45395 0.224 0.65913 0.0
C356 C 0.48181 0.2016 0.67109 0.0
C357 C 0.52099 0.22987 0.67947 0.0
C358 C 0.47094 0.17271 0.70866 0.0
C359 C 0.47787 0.18023 0.6318 0.0
C360 C 0.45111 0.18831 0.60293 0.0
C361 C 0.44056 0.17007 0.56543 0.0
C362 C 0.45906 0.14422 0.55626 0.0
C363 C 0.48876 0.13828 0.58368 0.0
C364 C 0.49794 0.15603 0.6222 0.0
H365 H 0.81943 0.38681 0.67288 0.0
H366 H 0.85296 0.2957 0.74778 0.0
H367 H 0.91389 0.3181 0.71875 0.0
H368 H 0.87035 0.38804 0.58245 0.0
H369 H 0.88272 0.44028 0.57396 0.0
H370 H 0.83987 0.41395 0.59495 0.0
H371 H 0.85701 0.45566 0.65836 0.0
H372 H 0.90065 0.48349 0.64042 0.0
H373 H 0.8993 0.45848 0.69107 0.0
H374 H 0.97422 0.35639 0.68492 0.0
H375 H 0.02585 0.40588 0.65172 0.0
H376 H 0.95196 0.47388 0.60617 0.0
C377 C 0.83931 0.37095 0.68206 0.0
C378 C 0.83181 0.33951 0.71212 0.0
C379 C 0.85834 0.31955 0.72421 0.0
C380 C 0.89295 0.33224 0.70803 0.0
C381 C 0.90026 0.36481 0.67974 0.0
C382 C 0.87383 0.38356 0.66671 0.0
C383 C 0.88899 0.41994 0.63947 0.0
C384 C 0.86932 0.41531 0.59511 0.0
C385 C 0.88631 0.45653 0.65844 0.0
C386 C 0.92858 0.41998 0.64053 0.0
C387 C 0.93466 0.38753 0.66281 0.0
C388 C 0.96959 0.38184 0.66744 0.0
C389 C 0.99878 0.41006 0.64877 0.0
C390 C 0.99291 0.44393 0.6271 0.0
C391 C 0.95737 0.44858 0.623 0.0
H392 H 0.67721 0.7259 0.58097 0.0
H393 H 0.79416 0.7767 0.56958 0.0
H394 H 0.78634 0.84264 0.56019 0.0
H395 H 0.6403 0.80238 0.51349 0.0
H396 H 0.60742 0.79504 0.55053 0.0
H397 H 0.62416 0.75524 0.54106 0.0
H398 H 0.6405 0.75277 0.62329 0.0
H399 H 0.62876 0.79684 0.62784 0.0
H400 H 0.6745 0.79439 0.64604 0.0
H401 H 0.76777 0.90308 0.56338 0.0
H402 H 0.73796 0.95377 0.57116 0.0
H403 H 0.6337 0.86342 0.58394 0.0
C404 C 0.70077 0.75092 0.57496 0.0
C405 C 0.73613 0.74642 0.57529 0.0
C406 C 0.76672 0.77961 0.56831 0.0
C407 C 0.76256 0.81714 0.56336 0.0
C408 C 0.72767 0.82081 0.56576 0.0
C409 C 0.69713 0.78856 0.57082 0.0
C410 C 0.66386 0.80057 0.57809 0.0
C411 C 0.63206 0.78739 0.54374 0.0
C412 C 0.65118 0.78523 0.62138 0.0
C413 C 0.68039 0.84449 0.57579 0.0
C414 C 0.71725 0.85564 0.56898 0.0
C415 C 0.73878 0.89473 0.56807 0.0
C416 C 0.72178 0.92322 0.57293 0.0
C417 C 0.68365 0.91227 0.57798 0.0
C418 C 0.66288 0.87246 0.57976 0.0
H419 H 0.38577 0.26542 0.40235 0.0
H420 H 0.4814 0.35982 0.44335 0.0
H421 H 0.51798 0.31314 0.4598 0.0
H422 H 0.3975 0.19473 0.47672 0.0
H423 H 0.38519 0.1534 0.44467 0.0
H424 H 0.36614 0.1933 0.43044 0.0
H425 H 0.39076 0.20589 0.35885 0.0
H426 H 0.40799 0.16435 0.37011 0.0
H427 H 0.43871 0.21136 0.35485 0.0
H428 H 0.54177 0.25593 0.47772 0.0
H429 H 0.55437 0.1926 0.48978 0.0
H430 H 0.44404 0.13425 0.4339 0.0
C431 C 0.41468 0.27605 0.41383 0.0
C432 C 0.43129 0.31592 0.42139 0.0
C433 C 0.4688 0.3293 0.43704 0.0
C434 C 0.48953 0.30303 0.44657 0.0
C435 C 0.47228 0.26362 0.43959 0.0
C436 C 0.43595 0.25022 0.42274 0.0
C437 C 0.42407 0.20628 0.41884 0.0
C438 C 0.3913 0.18567 0.44419 0.0
C439 C 0.41485 0.19639 0.37293 0.0
C440 C 0.45902 0.19692 0.43743 0.0
C441 C 0.4864 0.23051 0.44912 0.0
C442 C 0.52074 0.22947 0.46821 0.0
C443 C 0.52755 0.19323 0.47505 0.0
C444 C 0.50027 0.15835 0.46263 0.0
C445 C 0.46554 0.16037 0.44347 0.0
H446 H 0.79443 0.35519 0.3766 0.0
H447 H 0.84687 0.33302 0.27489 0.0
H448 H 0.90776 0.35256 0.31679 0.0
H449 H 0.86217 0.44061 0.40332 0.0
H450 H 0.85962 0.43317 0.45868 0.0
H451 H 0.81985 0.41119 0.42365 0.0
H452 H 0.81637 0.34274 0.45927 0.0
H453 H 0.85607 0.36471 0.49464 0.0
H454 H 0.8564 0.32566 0.46385 0.0
H455 H 0.96382 0.38279 0.3667 0.0
H456 H 1.00963 0.42075 0.41999 0.0
H457 H 0.92002 0.42294 0.48897 0.0
C458 C 0.81866 0.35308 0.36405 0.0
C459 C 0.81625 0.34189 0.32309 0.0
C460 C 0.84847 0.34089 0.30661 0.0
C461 C 0.88302 0.35198 0.33014 0.0
C462 C 0.88483 0.36404 0.37017 0.0
C463 C 0.8534 0.3644 0.38711 0.0
C464 C 0.86319 0.38227 0.42903 0.0
C465 C 0.85046 0.41897 0.42861 0.0
C466 C 0.84705 0.35203 0.46376 0.0
C467 C 0.90494 0.39275 0.43253 0.0
C468 C 0.91701 0.38173 0.39856 0.0
C469 C 0.95464 0.39098 0.39379 0.0
C470 C 0.98051 0.41253 0.4242 0.0
C471 C 0.96858 0.42483 0.45875 0.0
C472 C 0.93025 0.41389 0.46311 0.0
H473 H 0.69888 0.7566 0.37414 0.0
H474 H 0.81331 0.82762 0.38294 0.0
H475 H 0.79697 0.87825 0.41687 0.0
H476 H 0.66096 0.83904 0.34953 0.0
H477 H 0.62146 0.81613 0.378 0.0
H478 H 0.64275 0.78645 0.35418 0.0
H479 H 0.65261 0.74957 0.42546 0.0
H480 H 0.62955 0.77818 0.44773 0.0
H481 H 0.67524 0.77742 0.46969 0.0
H482 H 0.76765 0.92064 0.44957 0.0
H483 H 0.72782 0.95279 0.47743 0.0
H484 H 0.63209 0.85361 0.44659 0.0
C485 C 0.72022 0.78327 0.38247 0.0
C486 C 0.75717 0.78888 0.37545 0.0
C487 C 0.7848 0.82334 0.38783 0.0
C488 C 0.77575 0.85204 0.40707 0.0
C489 C 0.7389 0.84569 0.41345 0.0
C490 C 0.71154 0.81235 0.40107 0.0
C491 C 0.67402 0.81269 0.41096 0.0
C492 C 0.64829 0.81365 0.37078 0.0
C493 C 0.6569 0.77743 0.44031 0.0
C494 C 0.68462 0.85103 0.43197 0.0
C495 C 0.72213 0.86978 0.43272 0.0
C496 C 0.73825 0.90627 0.44918 0.0
C497 C 0.71538 0.92433 0.46484 0.0
C498 C 0.67686 0.90576 0.46424 0.0
C499 C 0.66147 0.8685 0.44778 0.0
H500 H 0.30305 0.66208 0.41369 0.0
H501 H 0.27349 0.65023 0.28141 0.0
H502 H 0.20941 0.61251 0.29456 0.0
H503 H 0.24984 0.56871 0.44678 0.0
H504 H 0.23533 0.58317 0.49199 0.0
H505 H 0.27835 0.61146 0.47267 0.0
H506 H 0.25798 0.67401 0.46574 0.0
H507 H 0.21508 0.64648 0.48601 0.0
H508 H 0.21465 0.67381 0.43658 0.0
H509 H 0.15038 0.57017 0.32299 0.0
H510 H 0.10036 0.5294 0.36435 0.0
H511 H 0.16626 0.57455 0.4774 0.0
C512 C 0.28283 0.65226 0.38752 0.0
C513 C 0.29321 0.65892 0.34648 0.0
C514 C 0.26616 0.64496 0.31306 0.0
C515 C 0.22968 0.62378 0.32025 0.0
C516 C 0.22039 0.61736 0.36108 0.0
C517 C 0.24608 0.63161 0.39415 0.0
C518 C 0.22921 0.61962 0.43513 0.0
C519 C 0.24936 0.59422 0.4633 0.0
C520 C 0.22923 0.65563 0.45716 0.0
C521 C 0.19024 0.59595 0.41998 0.0
C522 C 0.18574 0.59479 0.37718 0.0
C523 C 0.15327 0.57167 0.35644 0.0
C524 C 0.12494 0.54872 0.38008 0.0
C525 C 0.12891 0.54965 0.42392 0.0
C526 C 0.16179 0.57422 0.44387 0.0
H527 H 0.45295 0.75594 0.67114 0.0
H528 H 0.42605 0.80322 0.77663 0.0
H529 H 0.46596 0.86923 0.75565 0.0
H530 H 0.54788 0.82123 0.6654 0.0
H531 H 0.54268 0.82535 0.60936 0.0
H532 H 0.51702 0.78143 0.6367 0.0
H533 H 0.45667 0.78935 0.597 0.0
H534 H 0.48159 0.83438 0.57083 0.0
H535 H 0.44466 0.83351 0.60076 0.0
H536 H 0.50618 0.93097 0.72017 0.0
H537 H 0.54384 0.98278 0.67372 0.0
H538 H 0.53773 0.89594 0.58717 0.0
C539 C 0.45576 0.78025 0.68986 0.0
C540 C 0.43613 0.77488 0.72514 0.0
C541 C 0.44101 0.80699 0.74954 0.0
C542 C 0.46338 0.8445 0.73768 0.0
C543 C 0.48057 0.84934 0.70119 0.0
C544 C 0.47711 0.818 0.67771 0.0
C545 C 0.49595 0.83137 0.63814 0.0
C546 C 0.52778 0.81381 0.63738 0.0
C547 C 0.46803 0.82153 0.59941 0.0
C548 C 0.51027 0.87511 0.64281 0.0
C549 C 0.50161 0.88492 0.67964 0.0
C550 C 0.51285 0.92361 0.69113 0.0
C551 C 0.53392 0.95285 0.66455 0.0
C552 C 0.54258 0.94327 0.6266 0.0
C553 C 0.53044 0.90401 0.61556 0.0
H554 H 0.30877 0.33086 0.71421 0.0
H555 H 0.39747 0.39689 0.64143 0.0
H556 H 0.35861 0.43638 0.60671 0.0
H557 H 0.24046 0.32393 0.62493 0.0
H558 H 0.20374 0.32486 0.65435 0.0
H559 H 0.23984 0.3052 0.6784 0.0
H560 H 0.2543 0.35346 0.73702 0.0
H561 H 0.2181 0.37313 0.71337 0.0
H562 H 0.26444 0.40518 0.7236 0.0
H563 H 0.31298 0.47176 0.58515 0.0
H564 H 0.2582 0.4935 0.56507 0.0
H565 H 0.19242 0.39485 0.63743 0.0
C566 C 0.32005 0.35447 0.69183 0.0
C567 C 0.3571 0.36342 0.68282 0.0
C568 C 0.37019 0.39212 0.65097 0.0
C569 C 0.34818 0.41416 0.63075 0.0
C570 C 0.31215 0.40538 0.64092 0.0
C571 C 0.29758 0.37545 0.6696 0.0
C572 C 0.25647 0.36917 0.67034 0.0
C573 C 0.23379 0.32836 0.65616 0.0
C574 C 0.24783 0.37563 0.71366 0.0
C575 C 0.25073 0.40111 0.63859 0.0
C576 C 0.28361 0.42197 0.62287 0.0
C577 C 0.28677 0.45502 0.59617 0.0
C578 C 0.25538 0.46699 0.5848 0.0
C579 C 0.22073 0.44494 0.59822 0.0
C580 C 0.21833 0.41148 0.6256 0.0
H581 H 0.73282 0.29693 0.65616 0.0
H582 H 0.78757 0.23406 0.74865 0.0
H583 H 0.76086 0.17375 0.70969 0.0
H584 H 0.65108 0.22554 0.64661 0.0
H585 H 0.63999 0.23355 0.59156 0.0
H586 H 0.66971 0.27308 0.62111 0.0
H587 H 0.72093 0.28339 0.57203 0.0
H588 H 0.69105 0.2442 0.54176 0.0
H589 H 0.73647 0.24267 0.56287 0.0
H590 H 0.71949 0.11814 0.66621 0.0
H591 H 0.66954 0.07361 0.62194 0.0
H592 H 0.64178 0.17405 0.55885 0.0
C593 C 0.74048 0.27082 0.66683 0.0
C594 C 0.76288 0.26997 0.70452 0.0
C595 C 0.77125 0.23517 0.71911 0.0
C596 C 0.756 0.2009 0.69729 0.0
C597 C 0.7326 0.20217 0.6609 0.0
C598 C 0.72534 0.23653 0.64551 0.0
C599 C 0.69608 0.22953 0.60879 0.0
C600 C 0.66223 0.2411 0.61757 0.0
C601 C 0.7121 0.25123 0.56901 0.0
C602 C 0.68699 0.18572 0.60674 0.0
C603 C 0.70855 0.17035 0.63658 0.0
C604 C 0.70296 0.13002 0.64225 0.0
C605 C 0.67447 0.1049 0.61703 0.0
C606 C 0.6517 0.12021 0.58682 0.0
C607 C 0.65873 0.16124 0.5814 0.0
H608 H 0.84138 0.69066 0.59221 0.0
H609 H 0.75141 0.58345 0.60269 0.0
H610 H 0.79336 0.54513 0.59184 0.0
H611 H 0.88271 0.66118 0.51114 0.0
H612 H 0.92928 0.68606 0.53146 0.0
H613 H 0.89197 0.70439 0.53966 0.0
H614 H 0.90994 0.70078 0.61946 0.0
H615 H 0.94735 0.68262 0.61146 0.0
H616 H 0.91305 0.65512 0.64519 0.0
H617 H 0.84493 0.51963 0.57655 0.0
H618 H 0.90341 0.5079 0.56591 0.0
H619 H 0.95999 0.63223 0.56851 0.0
C620 C 0.83066 0.65911 0.59203 0.0
C621 C 0.79337 0.63969 0.5978 0.0
C622 C 0.78007 0.59846 0.59829 0.0
C623 C 0.80356 0.57671 0.59187 0.0
C624 C 0.84015 0.59688 0.58528 0.0
C625 C 0.85368 0.63715 0.58573 0.0
C626 C 0.89414 0.65185 0.57865 0.0
C627 C 0.89985 0.67738 0.53781 0.0
C628 C 0.91749 0.67388 0.61592 0.0
C629 C 0.90167 0.61349 0.57524 0.0
C630 C 0.87001 0.58218 0.57822 0.0
C631 C 0.86993 0.54392 0.57469 0.0
C632 C 0.90326 0.53751 0.56877 0.0
C633 C 0.93628 0.569 0.56738 0.0
C634 C 0.93528 0.6075 0.57019 0.0
H635 H 0.46368 0.43335 0.36235 0.0
H636 H 0.38979 0.32102 0.32712 0.0
H637 H 0.40309 0.33839 0.25366 0.0
H638 H 0.43813 0.48806 0.27924 0.0
H639 H 0.48322 0.52164 0.2721 0.0
H640 H 0.47323 0.49837 0.32264 0.0
H641 H 0.52843 0.47032 0.32642 0.0
H642 H 0.53944 0.49463 0.27646 0.0
H643 H 0.53218 0.44267 0.28451 0.0
H644 H 0.41613 0.37265 0.18356 0.0
H645 H 0.43705 0.41613 0.12229 0.0
H646 H 0.50444 0.5061 0.20344 0.0
C647 C 0.45182 0.4119 0.33926 0.0
C648 C 0.42627 0.37566 0.34994 0.0
C649 C 0.41007 0.34848 0.31924 0.0
C650 C 0.41715 0.35835 0.27757 0.0
C651 C 0.44089 0.39533 0.26754 0.0
C652 C 0.45884 0.42128 0.29768 0.0
C653 C 0.48145 0.45993 0.2785 0.0
C654 C 0.4682 0.49399 0.28874 0.0
C655 C 0.52283 0.46731 0.29229 0.0
C656 C 0.47265 0.45206 0.2328 0.0
C657 C 0.44901 0.41475 0.22715 0.0
C658 C 0.43522 0.40163 0.18764 0.0
C659 C 0.44692 0.42677 0.15301 0.0
C660 C 0.47247 0.46449 0.15808 0.0
C661 C 0.48509 0.47734 0.19859 0.0
H662 H 0.4676 0.70108 0.76466 0.0
H663 H 0.40909 0.73891 0.85014 0.0
H664 H 0.45204 0.72524 0.90921 0.0
H665 H 0.48253 0.62298 0.82505 0.0
H666 H 0.52828 0.62896 0.81133 0.0
H667 H 0.49638 0.64676 0.7757 0.0
H668 H 0.54335 0.7163 0.77377 0.0
H669 H 0.57569 0.69852 0.80899 0.0
H670 H 0.56236 0.7396 0.82178 0.0
H671 H 0.49388 0.69485 0.95939 0.0
H672 H 0.5374 0.66049 0.99538 0.0
H673 H 0.57213 0.64853 0.8765 0.0
C674 C 0.46495 0.70791 0.79569 0.0
C675 C 0.43515 0.72078 0.80322 0.0
C676 C 0.43177 0.72881 0.84412 0.0
C677 C 0.45598 0.72108 0.87771 0.0
C678 C 0.484 0.70629 0.86961 0.0
C679 C 0.48922 0.70085 0.8294 0.0
C680 C 0.52013 0.68283 0.8291 0.0
C681 C 0.50596 0.64304 0.80912 0.0
C682 C 0.5523 0.711 0.80711 0.0
C683 C 0.53077 0.6779 0.87535 0.0
C684 C 0.50949 0.69126 0.89836 0.0
C685 C 0.51156 0.6855 0.94171 0.0
C686 C 0.53618 0.66589 0.96192 0.0
C687 C 0.55885 0.65306 0.9388 0.0
C688 C 0.55614 0.65946 0.89506 0.0
H689 H 0.43729 0.34501 0.79954 0.0
H690 H 0.42345 0.43034 0.70072 0.0
H691 H 0.44493 0.48232 0.74963 0.0
H692 H 0.41572 0.39028 0.88659 0.0
H693 H 0.45226 0.38029 0.92215 0.0
H694 H 0.43039 0.34815 0.88087 0.0
H695 H 0.49408 0.3579 0.85438 0.0
H696 H 0.51606 0.38956 0.89589 0.0
H697 H 0.52315 0.4068 0.84272 0.0
H698 H 0.47252 0.5263 0.80717 0.0
H699 H 0.51064 0.56014 0.86744 0.0
H700 H 0.51113 0.44849 0.93 0.0
C701 C 0.43816 0.3746 0.78857 0.0
C702 C 0.42654 0.38302 0.74655 0.0
C703 C 0.42947 0.42228 0.73291 0.0
C704 C 0.4423 0.45234 0.7606 0.0
C705 C 0.45293 0.44298 0.80187 0.0
C706 C 0.45165 0.40518 0.81577 0.0
C707 C 0.46878 0.40389 0.8605 0.0
C708 C 0.44007 0.37918 0.88922 0.0
C709 C 0.50252 0.38865 0.86353 0.0
C710 C 0.48018 0.44694 0.86937 0.0
C711 C 0.47026 0.4688 0.83515 0.0
C712 C 0.47994 0.50946 0.83436 0.0
C713 C 0.50141 0.52842 0.8688 0.0
C714 C 0.51298 0.50687 0.90368 0.0
C715 C 0.50145 0.46553 0.9044 0.0
H716 H 0.76521 0.37934 0.84006 0.0
H717 H 0.70018 0.36273 0.72052 0.0
H718 H 0.66212 0.40139 0.74049 0.0
H719 H 0.69149 0.37391 0.90123 0.0
H720 H 0.71854 0.41183 0.93477 0.0
H721 H 0.74073 0.38285 0.91123 0.0
H722 H 0.78481 0.44594 0.87906 0.0
H723 H 0.76278 0.47509 0.90264 0.0
H724 H 0.76567 0.48018 0.84728 0.0
H725 H 0.63057 0.44007 0.77354 0.0
H726 H 0.60763 0.4782 0.81685 0.0
H727 H 0.69441 0.47305 0.91506 0.0
C728 C 0.74304 0.38417 0.81821 0.0
C729 C 0.73524 0.36797 0.77889 0.0
C730 C 0.70605 0.37456 0.75095 0.0
C731 C 0.68451 0.39659 0.76196 0.0
C732 C 0.69278 0.41214 0.80096 0.0
C733 C 0.72142 0.40649 0.82865 0.0
C734 C 0.72439 0.42678 0.86849 0.0
C735 C 0.71843 0.39706 0.90615 0.0
C736 C 0.76163 0.45891 0.87472 0.0
C737 C 0.69264 0.44424 0.85902 0.0
C738 C 0.67488 0.43535 0.81985 0.0
C739 C 0.64433 0.44737 0.80419 0.0
C740 C 0.63152 0.46906 0.82915 0.0
C741 C 0.64925 0.47883 0.8694 0.0
C742 C 0.68034 0.46625 0.8844 0.0
H743 H 0.69148 0.6076 0.66358 0.0
H744 H 0.8082 0.66468 0.68947 0.0
H745 H 0.80435 0.64298 0.76397 0.0
H746 H 0.66575 0.63989 0.7419 0.0
H747 H 0.62831 0.59749 0.75527 0.0
H748 H 0.64174 0.60543 0.70337 0.0
H749 H 0.65321 0.53752 0.70761 0.0
H750 H 0.63753 0.52894 0.75874 0.0
H751 H 0.68196 0.52439 0.75126 0.0
H752 H 0.78455 0.63036 0.83624 0.0
H753 H 0.75187 0.62365 0.89898 0.0
H754 H 0.64735 0.57503 0.82578 0.0
C755 C 0.71647 0.61312 0.68476 0.0
C756 C 0.75024 0.63685 0.67116 0.0
C757 C 0.78239 0.64554 0.69947 0.0
C758 C 0.78027 0.63356 0.7418 0.0
C759 C 0.74585 0.61252 0.75495 0.0
C760 C 0.71459 0.60158 0.72699 0.0
C761 C 0.68002 0.58484 0.74921 0.0
C762 C 0.65238 0.60833 0.7367 0.0
C763 C 0.66216 0.54132 0.74125 0.0
C764 C 0.69631 0.59027 0.79392 0.0
C765 C 0.73436 0.60557 0.79678 0.0
C766 C 0.75489 0.61734 0.83448 0.0
C767 C 0.73606 0.61371 0.86992 0.0
C768 C 0.69705 0.59872 0.86737 0.0
C769 C 0.67722 0.58606 0.82898 0.0
H770 H 0.76553 0.7255 0.23762 0.0
H771 H 0.7407 0.62973 0.33113 0.0
H772 H 0.71747 0.58321 0.27687 0.0
H773 H 0.67878 0.69156 0.18682 0.0
H774 H 0.69143 0.70816 0.13503 0.0
H775 H 0.71894 0.73284 0.17902 0.0
H776 H 0.77698 0.72135 0.15558 0.0
H777 H 0.74943 0.69626 0.11153 0.0
H778 H 0.77662 0.67234 0.1475 0.0
H779 H 0.68814 0.54763 0.21503 0.0
H780 H 0.64374 0.52684 0.15409 0.0
H781 H 0.67397 0.6459 0.10012 0.0
C782 C 0.75587 0.69466 0.24662 0.0
C783 C 0.75683 0.6814 0.28914 0.0
C784 C 0.74322 0.64079 0.29937 0.0
C785 C 0.72927 0.61397 0.26839 0.0
C786 C 0.72757 0.62814 0.227 0.0
C787 C 0.73962 0.66769 0.21605 0.0
C788 C 0.72647 0.67598 0.17096 0.0
C789 C 0.70247 0.70375 0.16779 0.0
C790 C 0.75934 0.69246 0.14485 0.0
C791 C 0.7038 0.63508 0.15892 0.0
C792 C 0.70643 0.60786 0.1913 0.0
C793 C 0.68613 0.56858 0.18936 0.0
C794 C 0.66093 0.55706 0.15456 0.0
C795 C 0.65547 0.58481 0.12245 0.0
C796 C 0.67829 0.62402 0.12376 0.0
H797 H 0.38215 0.67918 0.23202 0.0
H798 H 0.45555 0.69727 0.34581 0.0
H799 H 0.50098 0.6764 0.31272 0.0
H800 H 0.39617 0.59182 0.21129 0.0
H801 H 0.3937 0.60016 0.15552 0.0
H802 H 0.3698 0.62253 0.18541 0.0
H803 H 0.40406 0.69103 0.15397 0.0
H804 H 0.42772 0.66886 0.12345 0.0
H805 H 0.45383 0.70683 0.15742 0.0
H806 H 0.53464 0.64598 0.27006 0.0
H807 H 0.55663 0.61293 0.22034 0.0
H808 H 0.46028 0.61176 0.1337 0.0
C809 C 0.40829 0.67973 0.24948 0.0
C810 C 0.4156 0.69029 0.29139 0.0
C811 C 0.44981 0.69022 0.3135 0.0
C812 C 0.47553 0.67796 0.29501 0.0
C813 C 0.46663 0.6659 0.25429 0.0
C814 C 0.43398 0.66712 0.23159 0.0
C815 C 0.42981 0.64989 0.18954 0.0
C816 C 0.39532 0.61398 0.1852 0.0
C817 C 0.4288 0.68101 0.15399 0.0
C818 C 0.46499 0.63821 0.19222 0.0
C819 C 0.48583 0.64788 0.22983 0.0
C820 C 0.51874 0.63877 0.24036 0.0
C821 C 0.53093 0.61976 0.21175 0.0
C822 C 0.5104 0.60973 0.1727 0.0
C823 C 0.47684 0.61916 0.16301 0.0
H824 H 0.67866 0.36878 0.24811 0.0
H825 H 0.76379 0.3747 0.16917 0.0
H826 H 0.73091 0.40503 0.11138 0.0
H827 H 0.60209 0.3418 0.16964 0.0
H828 H 0.57688 0.37021 0.18906 0.0
H829 H 0.60803 0.35068 0.22418 0.0
H830 H 0.6435 0.42034 0.24814 0.0
H831 H 0.61213 0.43987 0.21346 0.0
H832 H 0.66115 0.4591 0.20981 0.0
H833 H 0.68874 0.43659 0.06312 0.0
H834 H 0.64123 0.46611 0.0287 0.0
H835 H 0.58151 0.43359 0.13825 0.0
C836 C 0.69018 0.37627 0.21853 0.0
C837 C 0.72363 0.36944 0.21285 0.0
C838 C 0.73834 0.38013 0.17404 0.0
C839 C 0.71973 0.39706 0.14111 0.0
C840 C 0.68634 0.40274 0.14755 0.0
C841 C 0.67175 0.3926 0.18537 0.0
C842 C 0.63542 0.40138 0.18447 0.0
C843 C 0.60373 0.36377 0.19229 0.0
C844 C 0.63824 0.43199 0.21582 0.0
C845 C 0.63164 0.41795 0.14016 0.0
C846 C 0.66142 0.41891 0.11939 0.0
C847 C 0.66507 0.43543 0.07891 0.0
C848 C 0.63793 0.45197 0.05955 0.0
C849 C 0.60727 0.45121 0.08042 0.0
C850 C 0.60396 0.43341 0.12098 0.0
loop_
_geom_bond_atom_site_label_1
_geom_bond_atom_site_label_2
_geom_bond_distance
_geom_bond_site_symmetry_2
_ccdc_geom_bond_type
C0 N1 1.317 . S
C0 N2 1.348 . S
C0 C3 1.485 . S
N1 C0 1.317 . S
N1 N5 1.370 . S
N2 C0 1.348 . S
N2 C4 1.346 . S
C3 C0 1.485 . S
C3 H7 0.960 . S
C3 H8 0.961 . S
C3 H9 0.960 . S
C4 N2 1.346 . S
C4 N5 1.307 . S
C4 C6 1.486 . S
N5 N1 1.370 . S
N5 C4 1.307 . S
C6 C4 1.486 . S
C6 H10 0.960 . S
C6 H11 0.960 . S
C6 H12 0.959 . S
H7 C3 0.960 . S
H8 C3 0.961 . S
H9 C3 0.960 . S
H10 C6 0.960 . S
H11 C6 0.960 . S
H12 C6 0.959 . S
C13 N14 1.317 . S
C13 N15 1.348 . S
C13 C16 1.485 . S
N14 C13 1.317 . S
N14 N18 1.370 . S
N15 C13 1.348 . S
N15 C17 1.346 . S
C16 C13 1.485 . S
C16 H20 0.960 . S
C16 H21 0.961 . S
C16 H22 0.960 . S
C17 N15 1.346 . S
C17 N18 1.307 . S
C17 C19 1.486 . S
N18 N14 1.370 . S
N18 C17 1.307 . S
C19 C17 1.486 . S
C19 H23 0.960 . S
C19 H24 0.960 . S
C19 H25 0.959 . S
H20 C16 0.960 . S
H21 C16 0.961 . S
H22 C16 0.960 . S
H23 C19 0.960 . S
H24 C19 0.960 . S
H25 C19 0.959 . S
C26 N27 1.317 . S
C26 N28 1.348 . S
C26 C29 1.485 . S
N27 C26 1.317 . S
N27 N31 1.370 . S
N28 C26 1.348 . S
N28 C30 1.346 . S
C29 C26 1.485 . S
C29 H33 0.960 . S
C29 H34 0.961 . S
C29 H35 0.960 . S
C30 N28 1.346 . S
C30 N31 1.307 . S
C30 C32 1.486 . S
N31 N27 1.370 . S
N31 C30 1.307 . S
C32 C30 1.486 . S
C32 H36 0.960 . S
C32 H37 0.960 . S
C32 H38 0.959 . S
H33 C29 0.960 . S
H34 C29 0.961 . S
H35 C29 0.960 . S
H36 C32 0.960 . S
H37 C32 0.960 . S
H38 C32 0.959 . S
C39 N40 1.317 . S
C39 N41 1.348 . S
C39 C42 1.485 . S
N40 C39 1.317 . S
N40 N44 1.370 . S
N41 C39 1.348 . S
N41 C43 1.346 . S
C42 C39 1.485 . S
C42 H46 0.960 . S
C42 H47 0.961 . S
C42 H48 0.960 . S
C43 N41 1.346 . S
C43 N44 1.307 . S
C43 C45 1.486 . S
N44 N40 1.370 . S
N44 C43 1.307 . S
C45 C43 1.486 . S
C45 H49 0.960 . S
C45 H50 0.960 . S
C45 H51 0.959 . S
H46 C42 0.960 . S
H47 C42 0.961 . S
H48 C42 0.960 . S
H49 C45 0.960 . S
H50 C45 0.960 . S
H51 C45 0.959 . S
C52 N53 1.317 . S
C52 N54 1.348 . S
C52 C55 1.485 . S
N53 C52 1.317 . S
N53 N57 1.370 . S
N54 C52 1.348 . S
N54 C56 1.346 . S
C55 C52 1.485 . S
C55 H59 0.960 . S
C55 H60 0.961 . S
C55 H61 0.960 . S
C56 N54 1.346 . S
C56 N57 1.307 . S
C56 C58 1.486 . S
N57 N53 1.370 . S
N57 C56 1.307 . S
C58 C56 1.486 . S
C58 H62 0.960 . S
C58 H63 0.960 . S
C58 H64 0.959 . S
H59 C55 0.960 . S
H60 C55 0.961 . S
H61 C55 0.960 . S
H62 C58 0.960 . S
H63 C58 0.960 . S
H64 C58 0.959 . S
C65 N66 1.317 . S
C65 N67 1.348 . S
C65 C68 1.485 . S
N66 C65 1.317 . S
N66 N70 1.370 . S
N67 C65 1.348 . S
N67 C69 1.346 . S
C68 C65 1.485 . S
C68 H72 0.960 . S
C68 H73 0.961 . S
C68 H74 0.960 . S
C69 N67 1.346 . S
C69 N70 1.307 . S
C69 C71 1.486 . S
N70 N66 1.370 . S
N70 C69 1.307 . S
C71 C69 1.486 . S
C71 H75 0.960 . S
C71 H76 0.960 . S
C71 H77 0.959 . S
H72 C68 0.960 . S
H73 C68 0.961 . S
H74 C68 0.960 . S
H75 C71 0.960 . S
H76 C71 0.960 . S
H77 C71 0.959 . S
C78 N79 1.317 . S
C78 N80 1.348 . S
C78 C81 1.485 . S
N79 C78 1.317 . S
N79 N83 1.370 . S
N80 C78 1.348 . S
N80 C82 1.346 . S
C81 C78 1.485 . S
C81 H85 0.960 . S
C81 H86 0.961 . S
C81 H87 0.960 . S
C82 N80 1.346 . S
C82 N83 1.307 . S
C82 C84 1.486 . S
N83 N79 1.370 . S
N83 C82 1.307 . S
C84 C82 1.486 . S
C84 H88 0.960 . S
C84 H89 0.960 . S
C84 H90 0.959 . S
H85 C81 0.960 . S
H86 C81 0.961 . S
H87 C81 0.960 . S
H88 C84 0.960 . S
H89 C84 0.960 . S
H90 C84 0.959 . S
C91 N92 1.317 . S
C91 N93 1.348 . S
C91 C94 1.485 . S
N92 C91 1.317 . S
N92 N96 1.370 . S
N93 C91 1.348 . S
N93 C95 1.346 . S
C94 C91 1.485 . S
C94 H98 0.960 . S
C94 H99 0.961 . S
C94 H100 0.960 . S
C95 N93 1.346 . S
C95 N96 1.307 . S
C95 C97 1.486 . S
N96 N92 1.370 . S
N96 C95 1.307 . S
C97 C95 1.486 . S
C97 H101 0.960 . S
C97 H102 0.960 . S
C97 H103 0.959 . S
H98 C94 0.960 . S
H99 C94 0.961 . S
H100 C94 0.960 . S
H101 C97 0.960 . S
H102 C97 0.960 . S
H103 C97 0.959 . S
Co104 O107 2.042 . S
Co104 O114 2.264 . S
Co104 O133 2.286 . S
Co104 O134 2.069 . S
Co104 O136 2.015 . S
Co105 O107 2.122 . S
Co105 O113 2.073 . S
Co105 O114 2.327 . S
Co105 O115 1.976 . S
Co106 O107 2.087 . S
Co106 O109 2.087 . S
Co106 O116 2.111 . S
Co106 O117 2.143 1_455 S
Co106 O121 2.111 . S
Co106 O135 2.143 . S
O107 Co104 2.042 . S
O107 Co105 2.122 . S
O107 Co106 2.087 . S
O107 H108 0.980 . S
H108 O107 0.980 . S
O109 Co106 2.087 . S
O109 Co110 2.042 1_455 S
O109 Co111 2.122 1_455 S
O109 H112 0.980 . S
Co110 O109 2.042 1_655 S
Co110 O118 2.286 . S
Co110 O119 2.069 . S
Co110 O120 2.015 . S
Co110 O123 2.264 . S
Co111 O109 2.122 1_655 S
Co111 O122 1.976 . S
Co111 O123 2.327 . S
Co111 O124 2.073 . S
H112 O109 0.980 . S
O113 Co105 2.073 . S
O113 C128 1.245 . S
O114 Co104 2.264 . S
O114 Co105 2.327 . S
O114 C128 1.257 . S
O115 Co105 1.976 . S
O115 C127 1.251 . S
O116 Co106 2.111 . S
O116 C127 1.274 . S
O117 Co106 2.143 1_655 S
O117 C130 1.246 . S
O118 Co110 2.286 . S
O118 C129 1.259 . S
O119 Co110 2.069 . S
O119 C129 1.289 . S
O120 Co110 2.015 . S
O120 C130 1.257 . S
O121 Co106 2.111 . S
O121 C131 1.274 1_455 S
O122 Co111 1.976 . S
O122 C131 1.251 . S
O123 Co110 2.264 . S
O123 Co111 2.327 . S
O123 C132 1.257 . S
O124 Co111 2.073 . S
O124 C132 1.245 . S
C125 O133 1.259 . S
C125 O134 1.289 . S
C126 O135 1.246 . S
C126 O136 1.257 . S
C127 O115 1.251 . S
C127 O116 1.274 . S
C128 O113 1.245 . S
C128 O114 1.257 . S
C129 O118 1.259 . S
C129 O119 1.289 . S
C130 O117 1.246 . S
C130 O120 1.257 . S
C131 O121 1.274 1_655 S
C131 O122 1.251 . S
C132 O123 1.257 . S
C132 O124 1.245 . S
O133 Co104 2.286 . S
O133 C125 1.259 . S
O134 Co104 2.069 . S
O134 C125 1.289 . S
O135 Co106 2.143 . S
O135 C126 1.246 . S
O136 Co104 2.015 . S
O136 C126 1.257 . S
Co137 O140 2.042 . S
Co137 O147 2.264 . S
Co137 O166 2.286 . S
Co137 O167 2.069 . S
Co137 O169 2.015 . S
Co138 O140 2.122 . S
Co138 O146 2.073 . S
Co138 O147 2.327 . S
Co138 O148 1.976 . S
Co139 O140 2.087 1_545 S
Co139 O142 2.087 . S
Co139 O149 2.111 1_545 S
Co139 O150 2.143 . S
Co139 O154 2.111 . S
Co139 O168 2.143 1_545 S
O140 Co137 2.042 . S
O140 Co138 2.122 . S
O140 Co139 2.087 1_565 S
O140 H141 0.980 1_565 S
H141 O140 0.980 1_545 S
O142 Co139 2.087 . S
O142 Co143 2.042 . S
O142 Co144 2.122 . S
O142 H145 0.980 . S
Co143 O142 2.042 . S
Co143 O151 2.286 . S
Co143 O152 2.069 . S
Co143 O153 2.015 . S
Co143 O156 2.264 . S
Co144 O142 2.122 . S
Co144 O155 1.976 . S
Co144 O156 2.327 . S
Co144 O157 2.073 . S
H145 O142 0.980 . S
O146 Co138 2.073 . S
O146 C161 1.245 . S
O147 Co137 2.264 . S
O147 Co138 2.327 . S
O147 C161 1.257 . S
O148 Co138 1.976 . S
O148 C160 1.251 . S
O149 Co139 2.111 1_565 S
O149 C160 1.274 . S
O150 Co139 2.143 . S
O150 C163 1.246 . S
O151 Co143 2.286 . S
O151 C162 1.259 . S
O152 Co143 2.069 . S
O152 C162 1.289 . S
O153 Co143 2.015 . S
O153 C163 1.257 . S
O154 Co139 2.111 . S
O154 C164 1.274 . S
O155 Co144 1.976 . S
O155 C164 1.251 . S
O156 Co143 2.264 . S
O156 Co144 2.327 . S
O156 C165 1.257 . S
O157 Co144 2.073 . S
O157 C165 1.245 . S
C158 O166 1.259 . S
C158 O167 1.289 . S
C159 O168 1.246 . S
C159 O169 1.257 . S
C160 O148 1.251 . S
C160 O149 1.274 . S
C161 O146 1.245 . S
C161 O147 1.257 . S
C162 O151 1.259 . S
C162 O152 1.289 . S
C163 O150 1.246 . S
C163 O153 1.257 . S
C164 O154 1.274 . S
C164 O155 1.251 . S
C165 O156 1.257 . S
C165 O157 1.245 . S
O166 Co137 2.286 . S
O166 C158 1.259 . S
O167 Co137 2.069 . S
O167 C158 1.289 . S
O168 Co139 2.143 1_565 S
O168 C159 1.246 . S
O169 Co137 2.015 . S
O169 C159 1.257 . S
Co170 O173 2.042 . S
Co170 O180 2.264 . S
Co170 O199 2.286 . S
Co170 O200 2.069 . S
Co170 O202 2.015 . S
Co171 O173 2.122 . S
Co171 O179 2.073 . S
Co171 O180 2.327 . S
Co171 O181 1.976 . S
Co172 O173 2.087 . S
Co172 O175 2.087 1_554 S
Co172 O182 2.111 . S
Co172 O183 2.143 1_554 S
Co172 O187 2.111 1_554 S
Co172 O201 2.143 . S
O173 Co170 2.042 . S
O173 Co171 2.122 . S
O173 Co172 2.087 . S
O173 H174 0.980 . S
H174 O173 0.980 . S
O175 Co172 2.087 1_556 S
O175 Co176 2.042 . S
O175 Co177 2.122 . S
O175 H178 0.980 . S
Co176 O175 2.042 . S
Co176 O184 2.286 . S
Co176 O185 2.069 . S
Co176 O186 2.015 . S
Co176 O189 2.264 . S
Co177 O175 2.122 . S
Co177 O188 1.976 . S
Co177 O189 2.327 . S
Co177 O190 2.073 . S
H178 O175 0.980 . S
O179 Co171 2.073 . S
O179 C194 1.245 . S
O180 Co170 2.264 . S
O180 Co171 2.327 . S
O180 C194 1.257 . S
O181 Co171 1.976 . S
O181 C193 1.251 . S
O182 Co172 2.111 . S
O182 C193 1.274 . S
O183 Co172 2.143 1_556 S
O183 C196 1.246 . S
O184 Co176 2.286 . S
O184 C195 1.259 . S
O185 Co176 2.069 . S
O185 C195 1.289 . S
O186 Co176 2.015 . S
O186 C196 1.257 . S
O187 Co172 2.111 1_556 S
O187 C197 1.274 . S
O188 Co177 1.976 . S
O188 C197 1.251 . S
O189 Co176 2.264 . S
O189 Co177 2.327 . S
O189 C198 1.257 . S
O190 Co177 2.073 . S
O190 C198 1.245 . S
C191 O199 1.259 . S
C191 O200 1.289 . S
C192 O201 1.246 . S
C192 O202 1.257 . S
C193 O181 1.251 . S
C193 O182 1.274 . S
C194 O179 1.245 . S
C194 O180 1.257 . S
C195 O184 1.259 . S
C195 O185 1.289 . S
C196 O183 1.246 . S
C196 O186 1.257 . S
C197 O187 1.274 . S
C197 O188 1.251 . S
C198 O189 1.257 . S
C198 O190 1.245 . S
O199 Co170 2.286 . S
O199 C191 1.259 . S
O200 Co170 2.069 . S
O200 C191 1.289 . S
O201 Co172 2.143 . S
O201 C192 1.246 . S
O202 Co170 2.015 . S
O202 C192 1.257 . S
H203 C215 0.930 . S
H204 C217 0.930 . S
H205 C218 0.930 . S
H206 C222 0.959 . S
H207 C222 0.959 . S
H208 C222 0.961 . S
H209 C223 0.960 . S
H210 C223 0.961 . S
H211 C223 0.959 . S
H212 C226 0.929 . S
H213 C227 0.931 . S
H214 C229 0.930 . S
C215 H203 0.930 . S
C215 C216 1.399 . S
C215 C220 1.399 . S
C216 C215 1.399 . S
C216 C217 1.376 . S
C217 H204 0.930 . S
C217 C216 1.376 . S
C217 C218 1.388 . S
C218 H205 0.930 . S
C218 C217 1.388 . S
C218 C219 1.390 . S
C219 C218 1.390 . S
C219 C220 1.394 . S
C219 C225 1.465 . S
C220 C215 1.399 . S
C220 C219 1.394 . S
C220 C221 1.516 . S
C221 C220 1.516 . S
C221 C222 1.502 . S
C221 C223 1.561 . S
C221 C224 1.526 . S
C222 H206 0.959 . S
C222 H207 0.959 . S
C222 H208 0.961 . S
C222 C221 1.502 . S
C223 H209 0.960 . S
C223 H210 0.961 . S
C223 H211 0.959 . S
C223 C221 1.561 . S
C224 C221 1.526 . S
C224 C225 1.396 . S
C224 C229 1.390 . S
C225 C219 1.465 . S
C225 C224 1.396 . S
C225 C226 1.399 . S
C226 H212 0.929 . S
C226 C225 1.399 . S
C226 C227 1.385 . S
C227 H213 0.931 . S
C227 C226 1.385 . S
C227 C228 1.389 . S
C228 C227 1.389 . S
C228 C229 1.387 . S
C229 H214 0.930 . S
C229 C224 1.390 . S
C229 C228 1.387 . S
H230 C242 0.930 . S
H231 C244 0.930 . S
H232 C245 0.930 . S
H233 C249 0.959 . S
H234 C249 0.959 . S
H235 C249 0.961 . S
H236 C250 0.960 . S
H237 C250 0.961 . S
H238 C250 0.959 . S
H239 C253 0.929 . S
H240 C254 0.931 . S
H241 C256 0.930 . S
C242 H230 0.930 . S
C242 C243 1.399 . S
C242 C247 1.399 . S
C243 C242 1.399 . S
C243 C244 1.376 . S
C244 H231 0.930 . S
C244 C243 1.376 . S
C244 C245 1.388 . S
C245 H232 0.930 . S
C245 C244 1.388 . S
C245 C246 1.390 . S
C246 C245 1.390 . S
C246 C247 1.394 . S
C246 C252 1.465 . S
C247 C242 1.399 . S
C247 C246 1.394 . S
C247 C248 1.516 . S
C248 C247 1.516 . S
C248 C249 1.502 . S
C248 C250 1.561 . S
C248 C251 1.526 . S
C249 H233 0.959 . S
C249 H234 0.959 . S
C249 H235 0.961 . S
C249 C248 1.502 . S
C250 H236 0.960 . S
C250 H237 0.961 . S
C250 H238 0.959 . S
C250 C248 1.561 . S
C251 C248 1.526 . S
C251 C252 1.396 . S
C251 C256 1.390 . S
C252 C246 1.465 . S
C252 C251 1.396 . S
C252 C253 1.399 . S
C253 H239 0.929 . S
C253 C252 1.399 . S
C253 C254 1.385 . S
C254 H240 0.931 . S
C254 C253 1.385 . S
C254 C255 1.389 . S
C255 C254 1.389 . S
C255 C256 1.387 . S
C256 H241 0.930 . S
C256 C251 1.390 . S
C256 C255 1.387 . S
H257 C269 0.930 . S
H258 C271 0.930 . S
H259 C272 0.930 . S
H260 C276 0.959 . S
H261 C276 0.959 . S
H262 C276 0.961 . S
H263 C277 0.960 . S
H264 C277 0.961 . S
H265 C277 0.959 . S
H266 C280 0.929 . S
H267 C281 0.931 . S
H268 C283 0.930 . S
C269 H257 0.930 . S
C269 C270 1.399 . S
C269 C274 1.399 . S
C270 C269 1.399 . S
C270 C271 1.376 . S
C271 H258 0.930 . S
C271 C270 1.376 . S
C271 C272 1.388 . S
C272 H259 0.930 . S
C272 C271 1.388 . S
C272 C273 1.390 . S
C273 C272 1.390 . S
C273 C274 1.394 . S
C273 C279 1.465 . S
C274 C269 1.399 . S
C274 C273 1.394 . S
C274 C275 1.516 . S
C275 C274 1.516 . S
C275 C276 1.502 . S
C275 C277 1.561 . S
C275 C278 1.526 . S
C276 H260 0.959 . S
C276 H261 0.959 . S
C276 H262 0.961 . S
C276 C275 1.502 . S
C277 H263 0.960 . S
C277 H264 0.961 . S
C277 H265 0.959 . S
C277 C275 1.561 . S
C278 C275 1.526 . S
C278 C279 1.396 . S
C278 C283 1.390 . S
C279 C273 1.465 . S
C279 C278 1.396 . S
C279 C280 1.399 . S
C280 H266 0.929 . S
C280 C279 1.399 . S
C280 C281 1.385 . S
C281 H267 0.931 . S
C281 C280 1.385 . S
C281 C282 1.389 . S
C282 C281 1.389 . S
C282 C283 1.387 . S
C283 H268 0.930 . S
C283 C278 1.390 . S
C283 C282 1.387 . S
H284 C296 0.930 . S
H285 C298 0.930 . S
H286 C299 0.930 . S
H287 C303 0.959 . S
H288 C303 0.959 . S
H289 C303 0.961 . S
H290 C304 0.960 . S
H291 C304 0.961 . S
H292 C304 0.959 . S
H293 C307 0.929 . S
H294 C308 0.931 . S
H295 C310 0.930 . S
C296 H284 0.930 . S
C296 C297 1.399 . S
C296 C301 1.399 . S
C297 C296 1.399 . S
C297 C298 1.376 . S
C298 H285 0.930 . S
C298 C297 1.376 . S
C298 C299 1.388 . S
C299 H286 0.930 . S
C299 C298 1.388 . S
C299 C300 1.390 . S
C300 C299 1.390 . S
C300 C301 1.394 . S
C300 C306 1.465 . S
C301 C296 1.399 . S
C301 C300 1.394 . S
C301 C302 1.516 . S
C302 C301 1.516 . S
C302 C303 1.502 . S
C302 C304 1.561 . S
C302 C305 1.526 . S
C303 H287 0.959 . S
C303 H288 0.959 . S
C303 H289 0.961 . S
C303 C302 1.502 . S
C304 H290 0.960 . S
C304 H291 0.961 . S
C304 H292 0.959 . S
C304 C302 1.561 . S
C305 C302 1.526 . S
C305 C306 1.396 . S
C305 C310 1.390 . S
C306 C300 1.465 . S
C306 C305 1.396 . S
C306 C307 1.399 . S
C307 H293 0.929 . S
C307 C306 1.399 . S
C307 C308 1.385 . S
C308 H294 0.931 . S
C308 C307 1.385 . S
C308 C309 1.389 . S
C309 C308 1.389 . S
C309 C310 1.387 . S
C310 H295 0.930 . S
C310 C305 1.390 . S
C310 C309 1.387 . S
H311 C323 0.930 . S
H312 C325 0.930 . S
H313 C326 0.930 . S
H314 C330 0.959 . S
H315 C330 0.959 . S
H316 C330 0.961 . S
H317 C331 0.960 . S
H318 C331 0.961 . S
H319 C331 0.959 . S
H320 C334 0.929 . S
H321 C335 0.931 . S
H322 C337 0.930 . S
C323 H311 0.930 . S
C323 C324 1.399 . S
C323 C328 1.399 . S
C324 C323 1.399 . S
C324 C325 1.376 . S
C325 H312 0.930 . S
C325 C324 1.376 . S
C325 C326 1.388 . S
C326 H313 0.930 . S
C326 C325 1.388 . S
C326 C327 1.390 . S
C327 C326 1.390 . S
C327 C328 1.394 . S
C327 C333 1.465 . S
C328 C323 1.399 . S
C328 C327 1.394 . S
C328 C329 1.516 . S
C329 C328 1.516 . S
C329 C330 1.502 . S
C329 C331 1.561 . S
C329 C332 1.526 . S
C330 H314 0.959 . S
C330 H315 0.959 . S
C330 H316 0.961 . S
C330 C329 1.502 . S
C331 H317 0.960 . S
C331 H318 0.961 . S
C331 H319 0.959 . S
C331 C329 1.561 . S
C332 C329 1.526 . S
C332 C333 1.396 . S
C332 C337 1.390 . S
C333 C327 1.465 . S
C333 C332 1.396 . S
C333 C334 1.399 . S
C334 H320 0.929 . S
C334 C333 1.399 . S
C334 C335 1.385 . S
C335 H321 0.931 . S
C335 C334 1.385 . S
C335 C336 1.389 . S
C336 C335 1.389 . S
C336 C337 1.387 . S
C337 H322 0.930 . S
C337 C332 1.390 . S
C337 C336 1.387 . S
H338 C350 0.930 . S
H339 C352 0.930 . S
H340 C353 0.930 . S
H341 C357 0.959 . S
H342 C357 0.959 . S
H343 C357 0.961 . S
H344 C358 0.960 . S
H345 C358 0.961 . S
H346 C358 0.959 . S
H347 C361 0.929 . S
H348 C362 0.931 . S
H349 C364 0.930 . S
C350 H338 0.930 . S
C350 C351 1.399 . S
C350 C355 1.399 . S
C351 C350 1.399 . S
C351 C352 1.376 . S
C352 H339 0.930 . S
C352 C351 1.376 . S
C352 C353 1.388 . S
C353 H340 0.930 . S
C353 C352 1.388 . S
C353 C354 1.390 . S
C354 C353 1.390 . S
C354 C355 1.394 . S
C354 C360 1.465 . S
C355 C350 1.399 . S
C355 C354 1.394 . S
C355 C356 1.516 . S
C356 C355 1.516 . S
C356 C357 1.502 . S
C356 C358 1.561 . S
C356 C359 1.526 . S
C357 H341 0.959 . S
C357 H342 0.959 . S
C357 H343 0.961 . S
C357 C356 1.502 . S
C358 H344 0.960 . S
C358 H345 0.961 . S
C358 H346 0.959 . S
C358 C356 1.561 . S
C359 C356 1.526 . S
C359 C360 1.396 . S
C359 C364 1.390 . S
C360 C354 1.465 . S
C360 C359 1.396 . S
C360 C361 1.399 . S
C361 H347 0.929 . S
C361 C360 1.399 . S
C361 C362 1.385 . S
C362 H348 0.931 . S
C362 C361 1.385 . S
C362 C363 1.389 . S
C363 C362 1.389 . S
C363 C364 1.387 . S
C364 H349 0.930 . S
C364 C359 1.390 . S
C364 C363 1.387 . S
H365 C377 0.930 . S
H366 C379 0.930 . S
H367 C380 0.930 . S
H368 C384 0.959 . S
H369 C384 0.959 . S
H370 C384 0.961 . S
H371 C385 0.960 . S
H372 C385 0.961 . S
H373 C385 0.959 . S
H374 C388 0.929 . S
H375 C389 0.941 . S
H376 C391 0.930 . S
C377 H365 0.930 . S
C377 C378 1.399 . S
C377 C382 1.399 . S
C378 C377 1.399 . S
C378 C379 1.376 . S
C379 H366 0.930 . S
C379 C378 1.376 . S
C379 C380 1.388 . S
C380 H367 0.930 . S
C380 C379 1.388 . S
C380 C381 1.390 . S
C381 C380 1.390 . S
C381 C382 1.394 . S
C381 C387 1.465 . S
C382 C377 1.399 . S
C382 C381 1.394 . S
C382 C383 1.516 . S
C383 C382 1.516 . S
C383 C384 1.502 . S
C383 C385 1.561 . S
C383 C386 1.526 . S
C384 H368 0.959 . S
C384 H369 0.959 . S
C384 H370 0.961 . S
C384 C383 1.502 . S
C385 H371 0.960 . S
C385 H372 0.961 . S
C385 H373 0.959 . S
C385 C383 1.561 . S
C386 C383 1.526 . S
C386 C387 1.396 . S
C386 C391 1.390 . S
C387 C381 1.465 . S
C387 C386 1.396 . S
C387 C388 1.399 . S
C388 H374 0.929 . S
C388 C387 1.399 . S
C388 C389 1.385 . S
C389 H375 0.941 . S
C389 C388 1.385 . S
C389 C390 1.389 . S
C390 C389 1.389 . S
C390 C391 1.387 . S
C391 H376 0.930 . S
C391 C386 1.390 . S
C391 C390 1.387 . S
H392 C404 0.930 . S
H393 C406 0.930 . S
H394 C407 0.930 . S
H395 C411 0.959 . S
H396 C411 0.959 . S
H397 C411 0.961 . S
H398 C412 0.960 . S
H399 C412 0.961 . S
H400 C412 0.959 . S
H401 C415 0.929 . S
H402 C416 0.931 . S
H403 C418 0.930 . S
C404 H392 0.930 . S
C404 C405 1.399 . S
C404 C409 1.399 . S
C405 C404 1.399 . S
C405 C406 1.376 . S
C406 H393 0.930 . S
C406 C405 1.376 . S
C406 C407 1.388 . S
C407 H394 0.930 . S
C407 C406 1.388 . S
C407 C408 1.390 . S
C408 C407 1.390 . S
C408 C409 1.394 . S
C408 C414 1.465 . S
C409 C404 1.399 . S
C409 C408 1.394 . S
C409 C410 1.516 . S
C410 C409 1.516 . S
C410 C411 1.502 . S
C410 C412 1.561 . S
C410 C413 1.526 . S
C411 H395 0.959 . S
C411 H396 0.959 . S
C411 H397 0.961 . S
C411 C410 1.502 . S
C412 H398 0.960 . S
C412 H399 0.961 . S
C412 H400 0.959 . S
C412 C410 1.561 . S
C413 C410 1.526 . S
C413 C414 1.396 . S
C413 C418 1.390 . S
C414 C408 1.465 . S
C414 C413 1.396 . S
C414 C415 1.399 . S
C415 H401 0.929 . S
C415 C414 1.399 . S
C415 C416 1.385 . S
C416 H402 0.931 . S
C416 C415 1.385 . S
C416 C417 1.389 . S
C417 C416 1.389 . S
C417 C418 1.387 . S
C418 H403 0.930 . S
C418 C413 1.390 . S
C418 C417 1.387 . S
H419 C431 0.930 . S
H420 C433 0.930 . S
H421 C434 0.930 . S
H422 C438 0.959 . S
H423 C438 0.959 . S
H424 C438 0.961 . S
H425 C439 0.960 . S
H426 C439 0.961 . S
H427 C439 0.959 . S
H428 C442 0.929 . S
H429 C443 0.931 . S
H430 C445 0.930 . S
C431 H419 0.930 . S
C431 C432 1.399 . S
C431 C436 1.399 . S
C432 C431 1.399 . S
C432 C433 1.376 . S
C433 H420 0.930 . S
C433 C432 1.376 . S
C433 C434 1.388 . S
C434 H421 0.930 . S
C434 C433 1.388 . S
C434 C435 1.390 . S
C435 C434 1.390 . S
C435 C436 1.394 . S
C435 C441 1.465 . S
C436 C431 1.399 . S
C436 C435 1.394 . S
C436 C437 1.516 . S
C437 C436 1.516 . S
C437 C438 1.502 . S
C437 C439 1.561 . S
C437 C440 1.526 . S
C438 H422 0.959 . S
C438 H423 0.959 . S
C438 H424 0.961 . S
C438 C437 1.502 . S
C439 H425 0.960 . S
C439 H426 0.961 . S
C439 H427 0.959 . S
C439 C437 1.561 . S
C440 C437 1.526 . S
C440 C441 1.396 . S
C440 C445 1.390 . S
C441 C435 1.465 . S
C441 C440 1.396 . S
C441 C442 1.399 . S
C442 H428 0.929 . S
C442 C441 1.399 . S
C442 C443 1.385 . S
C443 H429 0.931 . S
C443 C442 1.385 . S
C443 C444 1.389 . S
C444 C443 1.389 . S
C444 C445 1.387 . S
C445 H430 0.930 . S
C445 C440 1.390 . S
C445 C444 1.387 . S
H446 C458 0.930 . S
H447 C460 0.930 . S
H448 C461 0.930 . S
H449 C465 0.959 . S
H450 C465 0.959 . S
H451 C465 0.961 . S
H452 C466 0.960 . S
H453 C466 0.961 . S
H454 C466 0.959 . S
H455 C469 0.929 . S
H456 C470 0.931 . S
H457 C472 0.930 . S
C458 H446 0.930 . S
C458 C459 1.399 . S
C458 C463 1.399 . S
C459 C458 1.399 . S
C459 C460 1.376 . S
C460 H447 0.930 . S
C460 C459 1.376 . S
C460 C461 1.388 . S
C461 H448 0.930 . S
C461 C460 1.388 . S
C461 C462 1.390 . S
C462 C461 1.390 . S
C462 C463 1.394 . S
C462 C468 1.465 . S
C463 C458 1.399 . S
C463 C462 1.394 . S
C463 C464 1.516 . S
C464 C463 1.516 . S
C464 C465 1.502 . S
C464 C466 1.561 . S
C464 C467 1.526 . S
C465 H449 0.959 . S
C465 H450 0.959 . S
C465 H451 0.961 . S
C465 C464 1.502 . S
C466 H452 0.960 . S
C466 H453 0.961 . S
C466 H454 0.959 . S
C466 C464 1.561 . S
C467 C464 1.526 . S
C467 C468 1.396 . S
C467 C472 1.390 . S
C468 C462 1.465 . S
C468 C467 1.396 . S
C468 C469 1.399 . S
C469 H455 0.929 . S
C469 C468 1.399 . S
C469 C470 1.385 . S
C470 H456 0.931 . S
C470 C469 1.385 . S
C470 C471 1.389 . S
C471 C470 1.389 . S
C471 C472 1.387 . S
C472 H457 0.930 . S
C472 C467 1.390 . S
C472 C471 1.387 . S
H473 C485 0.930 . S
H474 C487 0.930 . S
H475 C488 0.930 . S
H476 C492 0.959 . S
H477 C492 0.959 . S
H478 C492 0.961 . S
H479 C493 0.960 . S
H480 C493 0.961 . S
H481 C493 0.959 . S
H482 C496 0.929 . S
H483 C497 0.931 . S
H484 C499 0.930 . S
C485 H473 0.930 . S
C485 C486 1.399 . S
C485 C490 1.399 . S
C486 C485 1.399 . S
C486 C487 1.376 . S
C487 H474 0.930 . S
C487 C486 1.376 . S
C487 C488 1.388 . S
C488 H475 0.930 . S
C488 C487 1.388 . S
C488 C489 1.390 . S
C489 C488 1.390 . S
C489 C490 1.394 . S
C489 C495 1.465 . S
C490 C485 1.399 . S
C490 C489 1.394 . S
C490 C491 1.516 . S
C491 C490 1.516 . S
C491 C492 1.502 . S
C491 C493 1.561 . S
C491 C494 1.526 . S
C492 H476 0.959 . S
C492 H477 0.959 . S
C492 H478 0.961 . S
C492 C491 1.502 . S
C493 H479 0.960 . S
C493 H480 0.961 . S
C493 H481 0.959 . S
C493 C491 1.561 . S
C494 C491 1.526 . S
C494 C495 1.396 . S
C494 C499 1.390 . S
C495 C489 1.465 . S
C495 C494 1.396 . S
C495 C496 1.399 . S
C496 H482 0.929 . S
C496 C495 1.399 . S
C496 C497 1.385 . S
C497 H483 0.931 . S
C497 C496 1.385 . S
C497 C498 1.389 . S
C498 C497 1.389 . S
C498 C499 1.387 . S
C499 H484 0.930 . S
C499 C494 1.390 . S
C499 C498 1.387 . S
H500 C512 0.930 . S
H501 C514 0.930 . S
H502 C515 0.930 . S
H503 C519 0.959 . S
H504 C519 0.959 . S
H505 C519 0.961 . S
H506 C520 0.960 . S
H507 C520 0.961 . S
H508 C520 0.959 . S
H509 C523 0.929 . S
H510 C524 0.931 . S
H511 C526 0.930 . S
C512 H500 0.930 . S
C512 C513 1.399 . S
C512 C517 1.399 . S
C513 C512 1.399 . S
C513 C514 1.376 . S
C514 H501 0.930 . S
C514 C513 1.376 . S
C514 C515 1.388 . S
C515 H502 0.930 . S
C515 C514 1.388 . S
C515 C516 1.390 . S
C516 C515 1.390 . S
C516 C517 1.394 . S
C516 C522 1.465 . S
C517 C512 1.399 . S
C517 C516 1.394 . S
C517 C518 1.516 . S
C518 C517 1.516 . S
C518 C519 1.502 . S
C518 C520 1.561 . S
C518 C521 1.526 . S
C519 H503 0.959 . S
C519 H504 0.959 . S
C519 H505 0.961 . S
C519 C518 1.502 . S
C520 H506 0.960 . S
C520 H507 0.961 . S
C520 H508 0.959 . S
C520 C518 1.561 . S
C521 C518 1.526 . S
C521 C522 1.396 . S
C521 C526 1.390 . S
C522 C516 1.465 . S
C522 C521 1.396 . S
C522 C523 1.399 . S
C523 H509 0.929 . S
C523 C522 1.399 . S
C523 C524 1.385 . S
C524 H510 0.931 . S
C524 C523 1.385 . S
C524 C525 1.389 . S
C525 C524 1.389 . S
C525 C526 1.387 . S
C526 H511 0.930 . S
C526 C521 1.390 . S
C526 C525 1.387 . S
H527 C539 0.930 . S
H528 C541 0.930 . S
H529 C542 0.930 . S
H530 C546 0.959 . S
H531 C546 0.959 . S
H532 C546 0.961 . S
H533 C547 0.960 . S
H534 C547 0.961 . S
H535 C547 0.959 . S
H536 C550 0.929 . S
H537 C551 0.931 . S
H538 C553 0.930 . S
C539 H527 0.930 . S
C539 C540 1.399 . S
C539 C544 1.399 . S
C540 C539 1.399 . S
C540 C541 1.376 . S
C541 H528 0.930 . S
C541 C540 1.376 . S
C541 C542 1.388 . S
C542 H529 0.930 . S
C542 C541 1.388 . S
C542 C543 1.390 . S
C543 C542 1.390 . S
C543 C544 1.394 . S
C543 C549 1.465 . S
C544 C539 1.399 . S
C544 C543 1.394 . S
C544 C545 1.516 . S
C545 C544 1.516 . S
C545 C546 1.502 . S
C545 C547 1.561 . S
C545 C548 1.526 . S
C546 H530 0.959 . S
C546 H531 0.959 . S
C546 H532 0.961 . S
C546 C545 1.502 . S
C547 H533 0.960 . S
C547 H534 0.961 . S
C547 H535 0.959 . S
C547 C545 1.561 . S
C548 C545 1.526 . S
C548 C549 1.396 . S
C548 C553 1.390 . S
C549 C543 1.465 . S
C549 C548 1.396 . S
C549 C550 1.399 . S
C550 H536 0.929 . S
C550 C549 1.399 . S
C550 C551 1.385 . S
C551 H537 0.931 . S
C551 C550 1.385 . S
C551 C552 1.389 . S
C552 C551 1.389 . S
C552 C553 1.387 . S
C553 H538 0.930 . S
C553 C548 1.390 . S
C553 C552 1.387 . S
H554 C566 0.930 . S
H555 C568 0.930 . S
H556 C569 0.930 . S
H557 C573 0.959 . S
H558 C573 0.959 . S
H559 C573 0.961 . S
H560 C574 0.960 . S
H561 C574 0.961 . S
H562 C574 0.959 . S
H563 C577 0.929 . S
H564 C578 0.931 . S
H565 C580 0.930 . S
C566 H554 0.930 . S
C566 C567 1.399 . S
C566 C571 1.399 . S
C567 C566 1.399 . S
C567 C568 1.376 . S
C568 H555 0.930 . S
C568 C567 1.376 . S
C568 C569 1.388 . S
C569 H556 0.930 . S
C569 C568 1.388 . S
C569 C570 1.390 . S
C570 C569 1.390 . S
C570 C571 1.394 . S
C570 C576 1.465 . S
C571 C566 1.399 . S
C571 C570 1.394 . S
C571 C572 1.516 . S
C572 C571 1.516 . S
C572 C573 1.502 . S
C572 C574 1.561 . S
C572 C575 1.526 . S
C573 H557 0.959 . S
C573 H558 0.959 . S
C573 H559 0.961 . S
C573 C572 1.502 . S
C574 H560 0.960 . S
C574 H561 0.961 . S
C574 H562 0.959 . S
C574 C572 1.561 . S
C575 C572 1.526 . S
C575 C576 1.396 . S
C575 C580 1.390 . S
C576 C570 1.465 . S
C576 C575 1.396 . S
C576 C577 1.399 . S
C577 H563 0.929 . S
C577 C576 1.399 . S
C577 C578 1.385 . S
C578 H564 0.931 . S
C578 C577 1.385 . S
C578 C579 1.389 . S
C579 C578 1.389 . S
C579 C580 1.387 . S
C580 H565 0.930 . S
C580 C575 1.390 . S
C580 C579 1.387 . S
H581 C593 0.930 . S
H582 C595 0.930 . S
H583 C596 0.930 . S
H584 C600 0.959 . S
H585 C600 0.959 . S
H586 C600 0.961 . S
H587 C601 0.960 . S
H588 C601 0.961 . S
H589 C601 0.959 . S
H590 C604 0.929 . S
H591 C605 0.931 . S
H592 C607 0.930 . S
C593 H581 0.930 . S
C593 C594 1.399 . S
C593 C598 1.399 . S
C594 C593 1.399 . S
C594 C595 1.376 . S
C595 H582 0.930 . S
C595 C594 1.376 . S
C595 C596 1.388 . S
C596 H583 0.930 . S
C596 C595 1.388 . S
C596 C597 1.390 . S
C597 C596 1.390 . S
C597 C598 1.394 . S
C597 C603 1.465 . S
C598 C593 1.399 . S
C598 C597 1.394 . S
C598 C599 1.516 . S
C599 C598 1.516 . S
C599 C600 1.502 . S
C599 C601 1.561 . S
C599 C602 1.526 . S
C600 H584 0.959 . S
C600 H585 0.959 . S
C600 H586 0.961 . S
C600 C599 1.502 . S
C601 H587 0.960 . S
C601 H588 0.961 . S
C601 H589 0.959 . S
C601 C599 1.561 . S
C602 C599 1.526 . S
C602 C603 1.396 . S
C602 C607 1.390 . S
C603 C597 1.465 . S
C603 C602 1.396 . S
C603 C604 1.399 . S
C604 H590 0.929 . S
C604 C603 1.399 . S
C604 C605 1.385 . S
C605 H591 0.931 . S
C605 C604 1.385 . S
C605 C606 1.389 . S
C606 C605 1.389 . S
C606 C607 1.387 . S
C607 H592 0.930 . S
C607 C602 1.390 . S
C607 C606 1.387 . S
H608 C620 0.930 . S
H609 C622 0.930 . S
H610 C623 0.930 . S
H611 C627 0.959 . S
H612 C627 0.959 . S
H613 C627 0.961 . S
H614 C628 0.960 . S
H615 C628 0.961 . S
H616 C628 0.959 . S
H617 C631 0.929 . S
H618 C632 0.931 . S
H619 C634 0.930 . S
C620 H608 0.930 . S
C620 C621 1.399 . S
C620 C625 1.399 . S
C621 C620 1.399 . S
C621 C622 1.376 . S
C622 H609 0.930 . S
C622 C621 1.376 . S
C622 C623 1.388 . S
C623 H610 0.930 . S
C623 C622 1.388 . S
C623 C624 1.390 . S
C624 C623 1.390 . S
C624 C625 1.394 . S
C624 C630 1.465 . S
C625 C620 1.399 . S
C625 C624 1.394 . S
C625 C626 1.516 . S
C626 C625 1.516 . S
C626 C627 1.502 . S
C626 C628 1.561 . S
C626 C629 1.526 . S
C627 H611 0.959 . S
C627 H612 0.959 . S
C627 H613 0.961 . S
C627 C626 1.502 . S
C628 H614 0.960 . S
C628 H615 0.961 . S
C628 H616 0.959 . S
C628 C626 1.561 . S
C629 C626 1.526 . S
C629 C630 1.396 . S
C629 C634 1.390 . S
C630 C624 1.465 . S
C630 C629 1.396 . S
C630 C631 1.399 . S
C631 H617 0.929 . S
C631 C630 1.399 . S
C631 C632 1.385 . S
C632 H618 0.931 . S
C632 C631 1.385 . S
C632 C633 1.389 . S
C633 C632 1.389 . S
C633 C634 1.387 . S
C634 H619 0.930 . S
C634 C629 1.390 . S
C634 C633 1.387 . S
H635 C647 0.930 . S
H636 C649 0.930 . S
H637 C650 0.930 . S
H638 C654 0.959 . S
H639 C654 0.959 . S
H640 C654 0.961 . S
H641 C655 0.960 . S
H642 C655 0.961 . S
H643 C655 0.959 . S
H644 C658 0.929 . S
H645 C659 0.931 . S
H646 C661 0.930 . S
C647 H635 0.930 . S
C647 C648 1.399 . S
C647 C652 1.399 . S
C648 C647 1.399 . S
C648 C649 1.376 . S
C649 H636 0.930 . S
C649 C648 1.376 . S
C649 C650 1.388 . S
C650 H637 0.930 . S
C650 C649 1.388 . S
C650 C651 1.390 . S
C651 C650 1.390 . S
C651 C652 1.394 . S
C651 C657 1.465 . S
C652 C647 1.399 . S
C652 C651 1.394 . S
C652 C653 1.516 . S
C653 C652 1.516 . S
C653 C654 1.502 . S
C653 C655 1.561 . S
C653 C656 1.526 . S
C654 H638 0.959 . S
C654 H639 0.959 . S
C654 H640 0.961 . S
C654 C653 1.502 . S
C655 H641 0.960 . S
C655 H642 0.961 . S
C655 H643 0.959 . S
C655 C653 1.561 . S
C656 C653 1.526 . S
C656 C657 1.396 . S
C656 C661 1.390 . S
C657 C651 1.465 . S
C657 C656 1.396 . S
C657 C658 1.399 . S
C658 H644 0.929 . S
C658 C657 1.399 . S
C658 C659 1.385 . S
C659 H645 0.931 . S
C659 C658 1.385 . S
C659 C660 1.389 . S
C660 C659 1.389 . S
C660 C661 1.387 . S
C661 H646 0.930 . S
C661 C656 1.390 . S
C661 C660 1.387 . S
H662 C674 0.930 . S
H663 C676 0.930 . S
H664 C677 0.930 . S
H665 C681 0.959 . S
H666 C681 0.959 . S
H667 C681 0.961 . S
H668 C682 0.960 . S
H669 C682 0.961 . S
H670 C682 0.959 . S
H671 C685 0.929 . S
H672 C686 0.931 . S
H673 C688 0.930 . S
C674 H662 0.930 . S
C674 C675 1.399 . S
C674 C679 1.399 . S
C675 C674 1.399 . S
C675 C676 1.376 . S
C676 H663 0.930 . S
C676 C675 1.376 . S
C676 C677 1.388 . S
C677 H664 0.930 . S
C677 C676 1.388 . S
C677 C678 1.390 . S
C678 C677 1.390 . S
C678 C679 1.394 . S
C678 C684 1.465 . S
C679 C674 1.399 . S
C679 C678 1.394 . S
C679 C680 1.516 . S
C680 C679 1.516 . S
C680 C681 1.502 . S
C680 C682 1.561 . S
C680 C683 1.526 . S
C681 H665 0.959 . S
C681 H666 0.959 . S
C681 H667 0.961 . S
C681 C680 1.502 . S
C682 H668 0.960 . S
C682 H669 0.961 . S
C682 H670 0.959 . S
C682 C680 1.561 . S
C683 C680 1.526 . S
C683 C684 1.396 . S
C683 C688 1.390 . S
C684 C678 1.465 . S
C684 C683 1.396 . S
C684 C685 1.399 . S
C685 H671 0.929 . S
C685 C684 1.399 . S
C685 C686 1.385 . S
C686 H672 0.931 . S
C686 C685 1.385 . S
C686 C687 1.389 . S
C687 C686 1.389 . S
C687 C688 1.387 . S
C688 H673 0.930 . S
C688 C683 1.390 . S
C688 C687 1.387 . S
H689 C701 0.930 . S
H690 C703 0.930 . S
H691 C704 0.930 . S
H692 C708 0.959 . S
H693 C708 0.959 . S
H694 C708 0.961 . S
H695 C709 0.960 . S
H696 C709 0.961 . S
H697 C709 0.959 . S
H698 C712 0.929 . S
H699 C713 0.931 . S
H700 C715 0.930 . S
C701 H689 0.930 . S
C701 C702 1.399 . S
C701 C706 1.399 . S
C702 C701 1.399 . S
C702 C703 1.376 . S
C703 H690 0.930 . S
C703 C702 1.376 . S
C703 C704 1.388 . S
C704 H691 0.930 . S
C704 C703 1.388 . S
C704 C705 1.390 . S
C705 C704 1.390 . S
C705 C706 1.394 . S
C705 C711 1.465 . S
C706 C701 1.399 . S
C706 C705 1.394 . S
C706 C707 1.516 . S
C707 C706 1.516 . S
C707 C708 1.502 . S
C707 C709 1.561 . S
C707 C710 1.526 . S
C708 H692 0.959 . S
C708 H693 0.959 . S
C708 H694 0.961 . S
C708 C707 1.502 . S
C709 H695 0.960 . S
C709 H696 0.961 . S
C709 H697 0.959 . S
C709 C707 1.561 . S
C710 C707 1.526 . S
C710 C711 1.396 . S
C710 C715 1.390 . S
C711 C705 1.465 . S
C711 C710 1.396 . S
C711 C712 1.399 . S
C712 H698 0.929 . S
C712 C711 1.399 . S
C712 C713 1.385 . S
C713 H699 0.931 . S
C713 C712 1.385 . S
C713 C714 1.389 . S
C714 C713 1.389 . S
C714 C715 1.387 . S
C715 H700 0.930 . S
C715 C710 1.390 . S
C715 C714 1.387 . S
H716 C728 0.930 . S
H717 C730 0.930 . S
H718 C731 0.930 . S
H719 C735 0.959 . S
H720 C735 0.959 . S
H721 C735 0.961 . S
H722 C736 0.960 . S
H723 C736 0.961 . S
H724 C736 0.959 . S
H725 C739 0.929 . S
H726 C740 0.931 . S
H727 C742 0.930 . S
C728 H716 0.930 . S
C728 C729 1.399 . S
C728 C733 1.399 . S
C729 C728 1.399 . S
C729 C730 1.376 . S
C730 H717 0.930 . S
C730 C729 1.376 . S
C730 C731 1.388 . S
C731 H718 0.930 . S
C731 C730 1.388 . S
C731 C732 1.390 . S
C732 C731 1.390 . S
C732 C733 1.394 . S
C732 C738 1.465 . S
C733 C728 1.399 . S
C733 C732 1.394 . S
C733 C734 1.516 . S
C734 C733 1.516 . S
C734 C735 1.502 . S
C734 C736 1.561 . S
C734 C737 1.526 . S
C735 H719 0.959 . S
C735 H720 0.959 . S
C735 H721 0.961 . S
C735 C734 1.502 . S
C736 H722 0.960 . S
C736 H723 0.961 . S
C736 H724 0.959 . S
C736 C734 1.561 . S
C737 C734 1.526 . S
C737 C738 1.396 . S
C737 C742 1.390 . S
C738 C732 1.465 . S
C738 C737 1.396 . S
C738 C739 1.399 . S
C739 H725 0.929 . S
C739 C738 1.399 . S
C739 C740 1.385 . S
C740 H726 0.931 . S
C740 C739 1.385 . S
C740 C741 1.389 . S
C741 C740 1.389 . S
C741 C742 1.387 . S
C742 H727 0.930 . S
C742 C737 1.390 . S
C742 C741 1.387 . S
H743 C755 0.930 . S
H744 C757 0.930 . S
H745 C758 0.930 . S
H746 C762 0.959 . S
H747 C762 0.959 . S
H748 C762 0.961 . S
H749 C763 0.960 . S
H750 C763 0.961 . S
H751 C763 0.959 . S
H752 C766 0.929 . S
H753 C767 0.931 . S
H754 C769 0.930 . S
C755 H743 0.930 . S
C755 C756 1.399 . S
C755 C760 1.399 . S
C756 C755 1.399 . S
C756 C757 1.376 . S
C757 H744 0.930 . S
C757 C756 1.376 . S
C757 C758 1.388 . S
C758 H745 0.930 . S
C758 C757 1.388 . S
C758 C759 1.390 . S
C759 C758 1.390 . S
C759 C760 1.394 . S
C759 C765 1.465 . S
C760 C755 1.399 . S
C760 C759 1.394 . S
C760 C761 1.516 . S
C761 C760 1.516 . S
C761 C762 1.502 . S
C761 C763 1.561 . S
C761 C764 1.526 . S
C762 H746 0.959 . S
C762 H747 0.959 . S
C762 H748 0.961 . S
C762 C761 1.502 . S
C763 H749 0.960 . S
C763 H750 0.961 . S
C763 H751 0.959 . S
C763 C761 1.561 . S
C764 C761 1.526 . S
C764 C765 1.396 . S
C764 C769 1.390 . S
C765 C759 1.465 . S
C765 C764 1.396 . S
C765 C766 1.399 . S
C766 H752 0.929 . S
C766 C765 1.399 . S
C766 C767 1.385 . S
C767 H753 0.931 . S
C767 C766 1.385 . S
C767 C768 1.389 . S
C768 C767 1.389 . S
C768 C769 1.387 . S
C769 H754 0.930 . S
C769 C764 1.390 . S
C769 C768 1.387 . S
H770 C782 0.930 . S
H771 C784 0.930 . S
H772 C785 0.930 . S
H773 C789 0.959 . S
H774 C789 0.959 . S
H775 C789 0.961 . S
H776 C790 0.960 . S
H777 C790 0.961 . S
H778 C790 0.959 . S
H779 C793 0.929 . S
H780 C794 0.931 . S
H781 C796 0.930 . S
C782 H770 0.930 . S
C782 C783 1.399 . S
C782 C787 1.399 . S
C783 C782 1.399 . S
C783 C784 1.376 . S
C784 H771 0.930 . S
C784 C783 1.376 . S
C784 C785 1.388 . S
C785 H772 0.930 . S
C785 C784 1.388 . S
C785 C786 1.390 . S
C786 C785 1.390 . S
C786 C787 1.394 . S
C786 C792 1.465 . S
C787 C782 1.399 . S
C787 C786 1.394 . S
C787 C788 1.516 . S
C788 C787 1.516 . S
C788 C789 1.502 . S
C788 C790 1.561 . S
C788 C791 1.526 . S
C789 H773 0.959 . S
C789 H774 0.959 . S
C789 H775 0.961 . S
C789 C788 1.502 . S
C790 H776 0.960 . S
C790 H777 0.961 . S
C790 H778 0.959 . S
C790 C788 1.561 . S
C791 C788 1.526 . S
C791 C792 1.396 . S
C791 C796 1.390 . S
C792 C786 1.465 . S
C792 C791 1.396 . S
C792 C793 1.399 . S
C793 H779 0.929 . S
C793 C792 1.399 . S
C793 C794 1.385 . S
C794 H780 0.931 . S
C794 C793 1.385 . S
C794 C795 1.389 . S
C795 C794 1.389 . S
C795 C796 1.387 . S
C796 H781 0.930 . S
C796 C791 1.390 . S
C796 C795 1.387 . S
H797 C809 0.930 . S
H798 C811 0.930 . S
H799 C812 0.930 . S
H800 C816 0.959 . S
H801 C816 0.959 . S
H802 C816 0.961 . S
H803 C817 0.960 . S
H804 C817 0.961 . S
H805 C817 0.959 . S
H806 C820 0.929 . S
H807 C821 0.931 . S
H808 C823 0.930 . S
C809 H797 0.930 . S
C809 C810 1.399 . S
C809 C814 1.399 . S
C810 C809 1.399 . S
C810 C811 1.376 . S
C811 H798 0.930 . S
C811 C810 1.376 . S
C811 C812 1.388 . S
C812 H799 0.930 . S
C812 C811 1.388 . S
C812 C813 1.390 . S
C813 C812 1.390 . S
C813 C814 1.394 . S
C813 C819 1.465 . S
C814 C809 1.399 . S
C814 C813 1.394 . S
C814 C815 1.516 . S
C815 C814 1.516 . S
C815 C816 1.502 . S
C815 C817 1.561 . S
C815 C818 1.526 . S
C816 H800 0.959 . S
C816 H801 0.959 . S
C816 H802 0.961 . S
C816 C815 1.502 . S
C817 H803 0.960 . S
C817 H804 0.961 . S
C817 H805 0.959 . S
C817 C815 1.561 . S
C818 C815 1.526 . S
C818 C819 1.396 . S
C818 C823 1.390 . S
C819 C813 1.465 . S
C819 C818 1.396 . S
C819 C820 1.399 . S
C820 H806 0.929 . S
C820 C819 1.399 . S
C820 C821 1.385 . S
C821 H807 0.931 . S
C821 C820 1.385 . S
C821 C822 1.389 . S
C822 C821 1.389 . S
C822 C823 1.387 . S
C823 H808 0.930 . S
C823 C818 1.390 . S
C823 C822 1.387 . S
H824 C836 0.930 . S
H825 C838 0.930 . S
H826 C839 0.930 . S
H827 C843 0.959 . S
H828 C843 0.959 . S
H829 C843 0.961 . S
H830 C844 0.960 . S
H831 C844 0.961 . S
H832 C844 0.959 . S
H833 C847 0.929 . S
H834 C848 0.931 . S
H835 C850 0.930 . S
C836 H824 0.930 . S
C836 C837 1.399 . S
C836 C841 1.399 . S
C837 C836 1.399 . S
C837 C838 1.376 . S
C838 H825 0.930 . S
C838 C837 1.376 . S
C838 C839 1.388 . S
C839 H826 0.930 . S
C839 C838 1.388 . S
C839 C840 1.390 . S
C840 C839 1.390 . S
C840 C841 1.394 . S
C840 C846 1.465 . S
C841 C836 1.399 . S
C841 C840 1.394 . S
C841 C842 1.516 . S
C842 C841 1.516 . S
C842 C843 1.502 . S
C842 C844 1.561 . S
C842 C845 1.526 . S
C843 H827 0.959 . S
C843 H828 0.959 . S
C843 H829 0.961 . S
C843 C842 1.502 . S
C844 H830 0.960 . S
C844 H831 0.961 . S
C844 H832 0.959 . S
C844 C842 1.561 . S
C845 C842 1.526 . S
C845 C846 1.396 . S
C845 C850 1.390 . S
C846 C840 1.465 . S
C846 C845 1.396 . S
C846 C847 1.399 . S
C847 H833 0.929 . S
C847 C846 1.399 . S
C847 C848 1.385 . S
C848 H834 0.931 . S
C848 C847 1.385 . S
C848 C849 1.389 . S
C849 C848 1.389 . S
C849 C850 1.387 . S
C850 H835 0.930 . S
C850 C845 1.390 . S
C850 C849 1.387 . S
C228 C128 1.194 . S
C216 N2 1.334 . S
C255 C164 1.270 . S
C243 N14 1.312 . S
C282 C129 1.545 . S
C270 N27 1.526 . S
C309 C159 1.752 . S
C297 N44 1.749 . S
C336 C126 1.078 . S
C324 N54 1.161 . S
C351 N67 1.583 . S
C363 C162 1.606 . S
C378 N83 0.868 . S
C390 C131 0.827 . S
C417 C161 1.249 . S
C405 N93 1.263 . S
C444 C165 1.676 . S
C432 N1 1.683 . S
C471 C130 1.151 . S
C459 N18 1.167 . S
C498 C158 1.332 . S
C486 N28 1.326 . S
C525 C127 1.168 . S
C513 N41 1.347 . S
C552 C160 1.754 . S
C540 N57 1.881 . S
C567 N66 1.515 . S
C579 C125 1.509 . S
C594 N79 1.510 . S
C606 C163 1.458 . S
C633 C132 1.461 . S
C621 N96 1.472 . S
C660 C194 1.789 . S
C648 N5 1.934 . S
C675 N53 1.910 . S
C687 C197 1.827 . S
C714 C196 1.892 . S
C702 N70 1.914 . S
C729 N80 1.668 . S
C741 C195 1.659 . S
C768 C198 1.688 . S
C756 N92 1.775 . S
C783 N31 1.630 . S
C795 C192 1.579 . S
C822 C191 2.167 . S
C810 N40 2.133 . S
C837 N15 1.294 . S
C849 C193 1.187 . S
