# Generated by pormake.
# Topology apo, (3,6)-cn, num edge types: 1
# Building blocks:
#     Node 0, Type 0, BuildingBlock: KAKCAD_clean_linker_0, # of connection points: 3
#     Node 1, Type 0, BuildingBlock: KAKCAD_clean_linker_0, # of connection points: 3
#     Node 2, Type 0, BuildingBlock: KAKCAD_clean_linker_0, # of connection points: 3
#     Node 3, Type 0, BuildingBlock: KAKCAD_clean_linker_0, # of connection points: 3
#     Node 4, Type 0, BuildingBlock: KAKCAD_clean_linker_0, # of connection points: 3
#     Node 5, Type 0, BuildingBlock: KAKCAD_clean_linker_0, # of connection points: 3
#     Node 6, Type 0, BuildingBlock: KAKCAD_clean_linker_0, # of connection points: 3
#     Node 7, Type 0, BuildingBlock: KAKCAD_clean_linker_0, # of connection points: 3
#     Node 8, Type 1, BuildingBlock: KUMBOL_clean_sbu_1, # of connection points: 6
#     Node 9, Type 1, BuildingBlock: KUMBOL_clean_sbu_1, # of connection points: 6
#     Node 10, Type 1, BuildingBlock: KUMBOL_clean_sbu_1, # of connection points: 6
#     Node 11, Type 1, BuildingBlock: KUMBOL_clean_sbu_1, # of connection points: 6
#     Edge 12, Type (0, 1), BuildingBlock: XIVTED_clean_linker_0, # of connection points: 2
#     Edge 13, Type (0, 1), BuildingBlock: XIVTED_clean_linker_0, # of connection points: 2
#     Edge 14, Type (0, 1), BuildingBlock: XIVTED_clean_linker_0, # of connection points: 2
#     Edge 15, Type (0, 1), BuildingBlock: XIVTED_clean_linker_0, # of connection points: 2
#     Edge 16, Type (0, 1), BuildingBlock: XIVTED_clean_linker_0, # of connection points: 2
#     Edge 17, Type (0, 1), BuildingBlock: XIVTED_clean_linker_0, # of connection points: 2
#     Edge 18, Type (0, 1), BuildingBlock: XIVTED_clean_linker_0, # of connection points: 2
#     Edge 19, Type (0, 1), BuildingBlock: XIVTED_clean_linker_0, # of connection points: 2
#     Edge 20, Type (0, 1), BuildingBlock: XIVTED_clean_linker_0, # of connection points: 2
#     Edge 21, Type (0, 1), BuildingBlock: XIVTED_clean_linker_0, # of connection points: 2
#     Edge 22, Type (0, 1), BuildingBlock: XIVTED_clean_linker_0, # of connection points: 2
#     Edge 23, Type (0, 1), BuildingBlock: XIVTED_clean_linker_0, # of connection points: 2
#     Edge 24, Type (0, 1), BuildingBlock: XIVTED_clean_linker_0, # of connection points: 2
#     Edge 25, Type (0, 1), BuildingBlock: XIVTED_clean_linker_0, # of connection points: 2
#     Edge 26, Type (0, 1), BuildingBlock: XIVTED_clean_linker_0, # of connection points: 2
#     Edge 27, Type (0, 1), BuildingBlock: XIVTED_clean_linker_0, # of connection points: 2
#     Edge 28, Type (0, 1), BuildingBlock: XIVTED_clean_linker_0, # of connection points: 2
#     Edge 29, Type (0, 1), BuildingBlock: XIVTED_clean_linker_0, # of connection points: 2
#     Edge 30, Type (0, 1), BuildingBlock: XIVTED_clean_linker_0, # of connection points: 2
#     Edge 31, Type (0, 1), BuildingBlock: XIVTED_clean_linker_0, # of connection points: 2
#     Edge 32, Type (0, 1), BuildingBlock: XIVTED_clean_linker_0, # of connection points: 2
#     Edge 33, Type (0, 1), BuildingBlock: XIVTED_clean_linker_0, # of connection points: 2
#     Edge 34, Type (0, 1), BuildingBlock: XIVTED_clean_linker_0, # of connection points: 2
#     Edge 35, Type (0, 1), BuildingBlock: XIVTED_clean_linker_0, # of connection points: 2
# Relax obj value: 0.009
# Max RMSD: 0.098
# Mean RMSD: 0.076
data_MOF--net-apo--node1-KUMBOL_clean_sbu_1--node2-KAKCAD_clean_linker_0--edge1-XIVTED_clean_linker_0
_symmetry_space_group_name_H-M    P1
_symmetry_Int_Tables_number       1
_symmetry_cell_setting            triclinic
loop_
_symmetry_equiv_pos_as_xyz
'x, y, z'
_cell_length_a     29.467616
_cell_length_b     52.741367
_cell_length_c     64.887767
_cell_angle_alpha  89.917006
_cell_angle_beta   90.011233
_cell_angle_gamma 90.460509
loop_
_atom_site_label
_atom_site_type_symbol
_atom_site_fract_x
_atom_site_fract_y
_atom_site_fract_z
_atom_type_partial_charge
C0 C 0.28483 0.45841 0.35795 0.0
C1 C 0.32792 0.46873 0.36205 0.0
C2 C 0.26774 0.43844 0.36991 0.0
C3 C 0.29372 0.4281 0.38602 0.0
C4 C 0.3368 0.43869 0.39016 0.0
C5 C 0.35355 0.45893 0.37839 0.0
C6 C 0.27634 0.40609 0.3982 0.0
C7 C 0.25231 0.3863 0.38854 0.0
C8 C 0.2359 0.3653 0.39983 0.0
C9 C 0.24563 0.36395 0.42108 0.0
C10 C 0.27103 0.38313 0.43091 0.0
C11 C 0.28487 0.40446 0.41943 0.0
C12 C 0.2855 0.38042 0.45284 0.0
C13 C 0.25725 0.36877 0.46768 0.0
C14 C 0.32878 0.38908 0.45895 0.0
C15 C 0.34321 0.38648 0.47928 0.0
C16 C 0.31521 0.37473 0.49391 0.0
C17 C 0.21006 0.34455 0.3892 0.0
C18 C 0.1823 0.34997 0.37207 0.0
C19 C 0.21381 0.31907 0.39561 0.0
C20 C 0.19139 0.29966 0.3849 0.0
C21 C 0.16527 0.30525 0.36748 0.0
C22 C 0.16059 0.3305 0.3612 0.0
C23 C 0.27215 0.36581 0.48806 0.0
H24 H 0.26434 0.46584 0.3455 0.0
H25 H 0.23413 0.4311 0.36652 0.0
H26 H 0.35812 0.43098 0.4022 0.0
H27 H 0.38713 0.46643 0.38167 0.0
H28 H 0.24765 0.38694 0.372 0.0
H29 H 0.30243 0.41993 0.42706 0.0
H30 H 0.23414 0.34774 0.42993 0.0
H31 H 0.22352 0.36218 0.46365 0.0
H32 H 0.35202 0.39757 0.44797 0.0
H33 H 0.37656 0.39349 0.48359 0.0
H34 H 0.17745 0.36927 0.36688 0.0
H35 H 0.23527 0.31388 0.40844 0.0
H36 H 0.2499 0.35694 0.49929 0.0
H37 H 0.14062 0.33511 0.3477 0.0
H38 H 0.19563 0.28018 0.38983 0.0
C39 C 0.22289 0.03711 0.85932 0.0
C40 C 0.17878 0.02767 0.86278 0.0
C41 C 0.23971 0.05749 0.87085 0.0
C42 C 0.21273 0.06892 0.88604 0.0
C43 C 0.16865 0.05941 0.8895 0.0
C44 C 0.15194 0.03898 0.87805 0.0
C45 C 0.23025 0.09077 0.89821 0.0
C46 C 0.2554 0.11022 0.88866 0.0
C47 C 0.27184 0.13113 0.9 0.0
C48 C 0.26152 0.13257 0.92115 0.0
C49 C 0.23532 0.11358 0.93085 0.0
C50 C 0.22078 0.09254 0.91933 0.0
C51 C 0.22155 0.11609 0.9528 0.0
C52 C 0.25171 0.12609 0.96751 0.0
C53 C 0.17753 0.10899 0.9591 0.0
C54 C 0.16388 0.11204 0.97955 0.0
C55 C 0.19381 0.12243 0.99418 0.0
C56 C 0.29823 0.15171 0.88946 0.0
C57 C 0.32668 0.146 0.87269 0.0
C58 C 0.29392 0.17729 0.89539 0.0
C59 C 0.316 0.19658 0.88435 0.0
C60 C 0.34217 0.19079 0.86692 0.0
C61 C 0.34793 0.16529 0.86144 0.0
C62 C 0.23796 0.1293 0.98793 0.0
H63 H 0.24453 0.02861 0.84779 0.0
H64 H 0.27402 0.06414 0.868 0.0
H65 H 0.14666 0.06807 0.90081 0.0
H66 H 0.11754 0.03244 0.88082 0.0
H67 H 0.26084 0.1094 0.87217 0.0
H68 H 0.20217 0.07735 0.92687 0.0
H69 H 0.27328 0.14867 0.93005 0.0
H70 H 0.28602 0.13145 0.96328 0.0
H71 H 0.15319 0.10148 0.94814 0.0
H72 H 0.12989 0.10619 0.98388 0.0
H73 H 0.33223 0.12657 0.86801 0.0
H74 H 0.27208 0.18263 0.90804 0.0
H75 H 0.2618 0.1376 0.99874 0.0
H76 H 0.36862 0.16028 0.84829 0.0
H77 H 0.31091 0.21612 0.88887 0.0
C78 C 0.78887 0.04044 0.64448 0.0
C79 C 0.83382 0.03217 0.64214 0.0
C80 C 0.7726 0.06068 0.63277 0.0
C81 C 0.80084 0.07297 0.61841 0.0
C82 C 0.84559 0.06453 0.61586 0.0
C83 C 0.86192 0.04438 0.62762 0.0
C84 C 0.78381 0.09468 0.60618 0.0
C85 C 0.75942 0.11411 0.61569 0.0
C86 C 0.74285 0.13481 0.60428 0.0
C87 C 0.75264 0.13612 0.583 0.0
C88 C 0.77832 0.11706 0.57335 0.0
C89 C 0.79273 0.0962 0.58505 0.0
C90 C 0.7919 0.11899 0.5513 0.0
C91 C 0.7619 0.12812 0.53616 0.0
C92 C 0.83559 0.11133 0.54524 0.0
C93 C 0.84883 0.11249 0.52465 0.0
C94 C 0.81885 0.12141 0.50965 0.0
C95 C 0.71669 0.15513 0.61499 0.0
C96 C 0.68923 0.14905 0.6321 0.0
C97 C 0.7204 0.18078 0.60901 0.0
C98 C 0.69875 0.19978 0.62035 0.0
C99 C 0.67371 0.19358 0.6381 0.0
C100 C 0.66859 0.16803 0.64365 0.0
C101 C 0.77531 0.12929 0.51545 0.0
H102 H 0.76613 0.0312 0.65529 0.0
H103 H 0.73777 0.06659 0.63483 0.0
H104 H 0.86829 0.07386 0.60508 0.0
H105 H 0.89694 0.03877 0.62568 0.0
H106 H 0.75455 0.11331 0.63222 0.0
H107 H 0.81086 0.08089 0.57766 0.0
H108 H 0.74087 0.15205 0.57399 0.0
H109 H 0.72799 0.13404 0.54026 0.0
H110 H 0.85998 0.10471 0.55647 0.0
H111 H 0.88272 0.10659 0.52043 0.0
H112 H 0.68397 0.12956 0.63684 0.0
H113 H 0.74136 0.18638 0.59607 0.0
H114 H 0.75193 0.13649 0.504 0.0
H115 H 0.6487 0.16271 0.65704 0.0
H116 H 0.70318 0.2194 0.61576 0.0
C117 C 0.71783 0.45807 0.14438 0.0
C118 C 0.67269 0.46574 0.14208 0.0
C119 C 0.73466 0.43807 0.13258 0.0
C120 C 0.70667 0.42568 0.11814 0.0
C121 C 0.66163 0.43377 0.11567 0.0
C122 C 0.64471 0.45356 0.12764 0.0
C123 C 0.72404 0.40407 0.10591 0.0
C124 C 0.74836 0.38461 0.11547 0.0
C125 C 0.76434 0.36376 0.10413 0.0
C126 C 0.75415 0.36232 0.08291 0.0
C127 C 0.72894 0.38151 0.07312 0.0
C128 C 0.7151 0.40255 0.08477 0.0
C129 C 0.71558 0.37958 0.05096 0.0
C130 C 0.74431 0.36847 0.03621 0.0
C131 C 0.67339 0.38908 0.04439 0.0
C132 C 0.66074 0.38809 0.0237 0.0
C133 C 0.68936 0.37703 0.00913 0.0
C134 C 0.7904 0.34339 0.11482 0.0
C135 C 0.81922 0.34949 0.13144 0.0
C136 C 0.78542 0.31771 0.10924 0.0
C137 C 0.80735 0.29868 0.12045 0.0
C138 C 0.83413 0.30489 0.13766 0.0
C139 C 0.84039 0.33049 0.14282 0.0
C140 C 0.73107 0.367 0.01548 0.0
H141 H 0.73977 0.46726 0.15555 0.0
H142 H 0.76958 0.43234 0.13468 0.0
H143 H 0.63917 0.42442 0.10481 0.0
H144 H 0.60969 0.45924 0.12577 0.0
H145 H 0.7536 0.38544 0.13198 0.0
H146 H 0.69742 0.41802 0.07737 0.0
H147 H 0.76542 0.34616 0.07408 0.0
H148 H 0.77718 0.36118 0.04056 0.0
H149 H 0.6496 0.39706 0.05526 0.0
H150 H 0.62809 0.39553 0.0191 0.0
H151 H 0.82524 0.36902 0.13587 0.0
H152 H 0.76329 0.31212 0.0967 0.0
H153 H 0.7535 0.35825 0.00439 0.0
H154 H 0.86159 0.33585 0.15577 0.0
H155 H 0.80184 0.27905 0.11617 0.0
C156 C 0.68217 0.55353 0.64753 0.0
C157 C 0.67824 0.52902 0.63918 0.0
C158 C 0.70012 0.57347 0.63588 0.0
C159 C 0.71535 0.56946 0.61561 0.0
C160 C 0.71204 0.54489 0.6073 0.0
C161 C 0.69367 0.5249 0.61894 0.0
C162 C 0.73366 0.59111 0.60327 0.0
C163 C 0.75999 0.61003 0.61283 0.0
C164 C 0.77326 0.63214 0.60221 0.0
C165 C 0.76214 0.63439 0.58118 0.0
C166 C 0.7372 0.6152 0.57102 0.0
C167 C 0.72278 0.59378 0.5823 0.0
C168 C 0.72411 0.61798 0.54893 0.0
C169 C 0.71012 0.64153 0.54107 0.0
C170 C 0.72398 0.59688 0.53567 0.0
C171 C 0.70905 0.59914 0.51529 0.0
C172 C 0.69394 0.62256 0.50761 0.0
C173 C 0.79643 0.65324 0.61355 0.0
C174 C 0.78451 0.6584 0.63411 0.0
C175 C 0.82995 0.66853 0.60412 0.0
C176 C 0.85086 0.6884 0.61502 0.0
C177 C 0.83867 0.69343 0.63557 0.0
C178 C 0.80554 0.67802 0.64498 0.0
C179 C 0.69533 0.6438 0.52067 0.0
H180 H 0.67145 0.5574 0.66316 0.0
H181 H 0.70138 0.59217 0.64274 0.0
H182 H 0.72377 0.54106 0.59181 0.0
H183 H 0.69087 0.50634 0.61193 0.0
H184 H 0.76998 0.60756 0.62876 0.0
H185 H 0.70137 0.57966 0.57494 0.0
H186 H 0.77221 0.65126 0.57278 0.0
H187 H 0.7091 0.65811 0.55087 0.0
H188 H 0.73533 0.57855 0.54107 0.0
H189 H 0.70929 0.58248 0.50555 0.0
H190 H 0.75829 0.64752 0.64187 0.0
H191 H 0.84035 0.66505 0.58838 0.0
H192 H 0.68345 0.66206 0.51538 0.0
H193 H 0.79578 0.68107 0.66087 0.0
H194 H 0.87609 0.70003 0.60728 0.0
C195 C 0.7714 0.86583 0.01463 0.0
C196 C 0.81479 0.87432 0.00841 0.0
C197 C 0.75711 0.86842 0.03507 0.0
C198 C 0.78591 0.8794 0.04986 0.0
C199 C 0.82917 0.88797 0.04366 0.0
C200 C 0.84326 0.88564 0.02322 0.0
C201 C 0.77119 0.88212 0.0717 0.0
C202 C 0.74707 0.8626 0.08187 0.0
C203 C 0.73541 0.86481 0.10287 0.0
C204 C 0.74803 0.8871 0.1135 0.0
C205 C 0.77286 0.90645 0.10365 0.0
C206 C 0.78333 0.90401 0.08272 0.0
C207 C 0.79062 0.92852 0.11542 0.0
C208 C 0.76299 0.94166 0.12932 0.0
C209 C 0.83605 0.93628 0.11297 0.0
C210 C 0.85371 0.95648 0.12439 0.0
C211 C 0.82628 0.96963 0.13845 0.0
C212 C 0.71229 0.84349 0.11408 0.0
C213 C 0.67926 0.82809 0.10441 0.0
C214 C 0.72329 0.83837 0.13477 0.0
C215 C 0.70106 0.81912 0.14566 0.0
C216 C 0.6675 0.8041 0.13617 0.0
C217 C 0.65729 0.80852 0.11531 0.0
C218 C 0.7805 0.96211 0.14059 0.0
H219 H 0.74858 0.85672 0.00381 0.0
H220 H 0.7234 0.86189 0.03925 0.0
H221 H 0.85255 0.89626 0.05468 0.0
H222 H 0.87652 0.89285 0.01906 0.0
H223 H 0.7392 0.84525 0.07366 0.0
H224 H 0.80128 0.91932 0.075 0.0
H225 H 0.73958 0.88923 0.12964 0.0
H226 H 0.72772 0.93628 0.13136 0.0
H227 H 0.85838 0.92626 0.10258 0.0
H228 H 0.88927 0.96126 0.12256 0.0
H229 H 0.66963 0.83147 0.08854 0.0
H230 H 0.74951 0.84909 0.14264 0.0
H231 H 0.75797 0.97206 0.15092 0.0
H232 H 0.63151 0.79729 0.10757 0.0
H233 H 0.71054 0.81583 0.16156 0.0
C234 C 0.17994 0.94139 0.35039 0.0
C235 C 0.17299 0.96556 0.35891 0.0
C236 C 0.19708 0.92176 0.36238 0.0
C237 C 0.20895 0.92589 0.38308 0.0
C238 C 0.2028 0.95011 0.39157 0.0
C239 C 0.18463 0.96965 0.37969 0.0
C240 C 0.22639 0.9047 0.39579 0.0
C241 C 0.25473 0.88646 0.38704 0.0
C242 C 0.26647 0.8644 0.39789 0.0
C243 C 0.25326 0.86207 0.41866 0.0
C244 C 0.22701 0.88102 0.4281 0.0
C245 C 0.21269 0.90181 0.41631 0.0
C246 C 0.21319 0.87916 0.45007 0.0
C247 C 0.20102 0.85573 0.4589 0.0
C248 C 0.2111 0.90119 0.46228 0.0
C249 C 0.1966 0.89989 0.4827 0.0
C250 C 0.18474 0.87649 0.49147 0.0
C251 C 0.28947 0.84337 0.38681 0.0
C252 C 0.27917 0.8389 0.36595 0.0
C253 C 0.32072 0.82736 0.3967 0.0
C254 C 0.34074 0.8073 0.38596 0.0
C255 C 0.33007 0.80298 0.36512 0.0
C256 C 0.29969 0.81933 0.35522 0.0
C257 C 0.18722 0.8544 0.47946 0.0
H258 H 0.17241 0.93748 0.33438 0.0
H259 H 0.20049 0.90322 0.35542 0.0
H260 H 0.21198 0.95402 0.40742 0.0
H261 H 0.17917 0.98781 0.38697 0.0
H262 H 0.26699 0.88928 0.37147 0.0
H263 H 0.18958 0.9154 0.42297 0.0
H264 H 0.26276 0.84542 0.42737 0.0
H265 H 0.20149 0.83846 0.4499 0.0
H266 H 0.22117 0.91948 0.45613 0.0
H267 H 0.19581 0.91708 0.4918 0.0
H268 H 0.25452 0.85026 0.35781 0.0
H269 H 0.32985 0.83032 0.41268 0.0
H270 H 0.17818 0.83611 0.48597 0.0
H271 H 0.29142 0.81699 0.33906 0.0
H272 H 0.36392 0.79497 0.39407 0.0
C273 C 0.274 0.62514 0.98466 0.0
C274 C 0.31941 0.62132 0.99072 0.0
C275 C 0.26171 0.62465 0.96389 0.0
C276 C 0.29431 0.61977 0.94875 0.0
C277 C 0.33962 0.61597 0.95463 0.0
C278 C 0.35213 0.61693 0.97538 0.0
C279 C 0.28078 0.61728 0.92693 0.0
C280 C 0.25559 0.63627 0.9171 0.0
C281 C 0.24359 0.63391 0.89618 0.0
C282 C 0.25671 0.61198 0.88539 0.0
C283 C 0.28237 0.59303 0.89504 0.0
C284 C 0.29376 0.59577 0.91588 0.0
C285 C 0.29929 0.57097 0.8832 0.0
C286 C 0.27181 0.5588 0.86842 0.0
C287 C 0.3438 0.56226 0.88635 0.0
C288 C 0.3606 0.5421 0.87485 0.0
C289 C 0.33317 0.5302 0.86009 0.0
C290 C 0.21934 0.65471 0.8853 0.0
C291 C 0.18579 0.66907 0.89535 0.0
C292 C 0.23003 0.66054 0.86468 0.0
C293 C 0.20764 0.67994 0.85433 0.0
C294 C 0.17436 0.69408 0.86438 0.0
C295 C 0.16345 0.68862 0.88494 0.0
C296 C 0.28863 0.5385 0.85699 0.0
H297 H 0.24752 0.62801 0.99595 0.0
H298 H 0.22646 0.6273 0.95972 0.0
H299 H 0.36542 0.61235 0.94313 0.0
H300 H 0.38751 0.61441 0.97931 0.0
H301 H 0.24687 0.65322 0.92559 0.0
H302 H 0.31256 0.58098 0.92365 0.0
H303 H 0.24776 0.60986 0.8693 0.0
H304 H 0.23729 0.56489 0.86575 0.0
H305 H 0.36612 0.57141 0.89738 0.0
H306 H 0.39513 0.53588 0.87737 0.0
H307 H 0.17637 0.66502 0.91115 0.0
H308 H 0.25628 0.6504 0.85652 0.0
H309 H 0.26717 0.5295 0.84553 0.0
H310 H 0.13777 0.69946 0.89289 0.0
H311 H 0.21641 0.684 0.83844 0.0
C312 C 0.84913 0.1194 0.26079 0.0
C313 C 0.8437 0.07502 0.27062 0.0
C314 C 0.86924 0.09765 0.26868 0.0
C315 C 0.79803 0.07452 0.26442 0.0
C316 C 0.80335 0.11888 0.25443 0.0
C317 C 0.77798 0.09635 0.25628 0.0
N318 N 0.87445 0.14095 0.2591 0.0
C319 C 0.85581 0.16281 0.25184 0.0
C320 C 0.78439 0.14107 0.24641 0.0
C321 C 0.81071 0.16315 0.24519 0.0
Gd322 Gd 0.05662 0.13613 0.23196 0.0
Gd323 Gd 0.94889 0.13836 0.27146 0.0
N324 N 0.91414 0.09835 0.27367 0.0
C325 C 0.86509 0.05343 0.27841 0.0
C326 C 0.93469 0.07761 0.2819 0.0
C327 C 0.9107 0.05479 0.28416 0.0
H328 H 0.96912 0.07869 0.28725 0.0
H329 H 0.92728 0.03832 0.29057 0.0
H330 H 0.03869 0.19631 0.21744 0.0
H331 H 0.8752 0.18018 0.25172 0.0
H332 H 0.08306 0.23588 0.21417 0.0
H333 H 0.84665 0.0357 0.28014 0.0
H334 H 0.77799 0.05727 0.26572 0.0
H335 H 0.12687 0.09251 0.2522 0.0
H336 H 0.74937 0.14142 0.24132 0.0
H337 H 0.79612 0.18052 0.23938 0.0
H338 H 0.23067 0.2141 0.23955 0.0
H339 H 0.74278 0.0956 0.25146 0.0
H340 H 0.25456 0.12914 0.26317 0.0
H341 H 0.20581 0.09078 0.26468 0.0
N342 N 0.12972 0.13195 0.24536 0.0
C343 C 0.15603 0.15321 0.24409 0.0
C344 C 0.14711 0.10964 0.25238 0.0
C345 C 0.21957 0.13016 0.25813 0.0
C346 C 0.19211 0.10848 0.25909 0.0
C347 C 0.20179 0.15283 0.25041 0.0
H348 H 0.26366 0.17498 0.25347 0.0
N349 N 0.09225 0.17574 0.23129 0.0
C350 C 0.13707 0.17554 0.23647 0.0
C351 C 0.14397 0.21966 0.22675 0.0
C352 C 0.16389 0.19769 0.23468 0.0
C353 C 0.07305 0.19681 0.22296 0.0
C354 C 0.09844 0.21915 0.22076 0.0
O355 O 0.93888 0.11616 0.24166 0.0
O356 O 0.01004 0.10226 0.23194 0.0
O357 O 0.05573 0.14234 0.19851 0.0
O358 O 0.10548 0.11754 0.21259 0.0
O359 O 0.01456 0.12033 0.28182 0.0
O360 O 0.04481 0.10241 0.25246 0.0
O361 O 0.06615 0.15806 0.2619 0.0
O362 O 0.99486 0.17237 0.26981 0.0
O363 O 0.95052 0.13307 0.30518 0.0
O364 O 0.90417 0.16008 0.29072 0.0
O365 O 0.99172 0.15445 0.22119 0.0
O366 O 0.95752 0.17179 0.24995 0.0
C367 C 0.96566 0.10226 0.23001 0.0
C368 C 0.0405 0.10367 0.27258 0.0
C369 C 0.0974 0.11425 0.17615 0.0
C370 C 0.11118 0.11609 0.13912 0.0
C371 C 0.12541 0.07723 0.15801 0.0
C372 C 0.11144 0.08881 0.17622 0.0
C373 C 0.12549 0.0908 0.13959 0.0
C374 C 0.09699 0.12783 0.1574 0.0
C375 C 0.09109 0.12803 0.19568 0.0
C376 C 0.20959 0.19725 0.24081 0.0
C377 C 0.22839 0.17495 0.24874 0.0
H378 H 0.16354 0.23701 0.225 0.0
C379 C 0.03878 0.17232 0.27285 0.0
C380 C 0.96492 0.1711 0.22992 0.0
C381 C 0.8994 0.15718 0.32788 0.0
C382 C 0.89072 0.15219 0.36511 0.0
C383 C 0.85045 0.18552 0.34714 0.0
C384 C 0.8694 0.17778 0.32857 0.0
C385 C 0.86108 0.17289 0.36528 0.0
C386 C 0.90988 0.14416 0.34633 0.0
C387 C 0.9183 0.14962 0.30768 0.0
H388 H 0.13714 0.05783 0.15824 0.0
H389 H 0.1131 0.07809 0.19044 0.0
H390 H 0.1375 0.08169 0.12567 0.0
H391 H 0.08774 0.14768 0.1572 0.0
H392 H 0.82735 0.20136 0.34746 0.0
H393 H 0.86043 0.18805 0.31471 0.0
H394 H 0.84575 0.17915 0.37956 0.0
H395 H 0.93256 0.12808 0.34611 0.0
C396 C 0.65935 0.38047 0.75858 0.0
C397 C 0.66392 0.42541 0.76662 0.0
C398 C 0.63885 0.40253 0.76575 0.0
C399 C 0.70935 0.42592 0.76005 0.0
C400 C 0.70494 0.38099 0.75193 0.0
C401 C 0.72974 0.40382 0.75268 0.0
N402 N 0.63484 0.3585 0.75824 0.0
C403 C 0.65401 0.33638 0.75197 0.0
C404 C 0.72447 0.35846 0.74493 0.0
C405 C 0.69889 0.33606 0.74499 0.0
Gd406 Gd 0.45338 0.36136 0.73169 0.0
Gd407 Gd 0.56164 0.36094 0.77192 0.0
N408 N 0.59472 0.40154 0.77207 0.0
C409 C 0.6428 0.44707 0.77436 0.0
C410 C 0.57443 0.42243 0.78013 0.0
C411 C 0.59794 0.44554 0.78121 0.0
H412 H 0.54073 0.42124 0.78636 0.0
H413 H 0.58167 0.46207 0.78764 0.0
H414 H 0.46523 0.30327 0.71257 0.0
H415 H 0.63518 0.31883 0.75284 0.0
H416 H 0.41996 0.26379 0.70928 0.0
H417 H 0.66101 0.46496 0.77541 0.0
H418 H 0.72911 0.44332 0.76068 0.0
H419 H 0.38327 0.40516 0.75233 0.0
H420 H 0.75938 0.3581 0.73971 0.0
H421 H 0.71394 0.31846 0.73996 0.0
H422 H 0.27678 0.28445 0.73998 0.0
H423 H 0.76485 0.40453 0.74773 0.0
H424 H 0.25641 0.36887 0.76515 0.0
H425 H 0.30545 0.4071 0.76568 0.0
N426 N 0.3809 0.36538 0.74651 0.0
C427 C 0.35381 0.3444 0.74524 0.0
C428 C 0.36354 0.38789 0.75319 0.0
C429 C 0.29122 0.36765 0.75988 0.0
C430 C 0.31885 0.38925 0.7603 0.0
C431 C 0.30831 0.34496 0.75202 0.0
H432 H 0.246 0.32323 0.75541 0.0
N433 N 0.41438 0.32271 0.72928 0.0
C434 C 0.37088 0.32255 0.73623 0.0
C435 C 0.36156 0.27924 0.72466 0.0
C436 C 0.34331 0.30071 0.73416 0.0
C437 C 0.43159 0.30234 0.71905 0.0
C438 C 0.40584 0.28011 0.71698 0.0
O439 O 0.57074 0.37884 0.74029 0.0
O440 O 0.50006 0.39516 0.7349 0.0
O441 O 0.45887 0.35887 0.69745 0.0
O442 O 0.40592 0.38071 0.71269 0.0
O443 O 0.49788 0.38013 0.78298 0.0
O444 O 0.4623 0.39436 0.75346 0.0
O445 O 0.45659 0.32838 0.75439 0.0
O446 O 0.49553 0.34379 0.78265 0.0
O447 O 0.58081 0.37097 0.80337 0.0
O448 O 0.59754 0.3335 0.79081 0.0
O449 O 0.51935 0.34377 0.72223 0.0
O450 O 0.55155 0.32622 0.75156 0.0
C451 C 0.54356 0.39465 0.73084 0.0
C452 C 0.46707 0.39379 0.77358 0.0
C453 C 0.4008 0.38046 0.67585 0.0
C454 C 0.3933 0.38017 0.63838 0.0
C455 C 0.33775 0.40203 0.65927 0.0
C456 C 0.36101 0.39507 0.67699 0.0
C457 C 0.35369 0.39464 0.64012 0.0
C458 C 0.41696 0.37283 0.65631 0.0
C459 C 0.4227 0.37278 0.69542 0.0
C460 C 0.29844 0.30105 0.7414 0.0
C461 C 0.28095 0.32313 0.75024 0.0
H462 H 0.34154 0.26206 0.72289 0.0
C463 C 0.46776 0.32739 0.77403 0.0
C464 C 0.54241 0.32582 0.73156 0.0
C465 C 0.62002 0.34191 0.82643 0.0
C466 C 0.62558 0.34482 0.86399 0.0
C467 C 0.67019 0.31391 0.84526 0.0
C468 C 0.65179 0.32224 0.82672 0.0
C469 C 0.65696 0.32493 0.86375 0.0
C470 C 0.60742 0.35363 0.8452 0.0
C471 C 0.59877 0.34884 0.8066 0.0
H472 H 0.30713 0.41314 0.6604 0.0
H473 H 0.34733 0.40107 0.69167 0.0
H474 H 0.33489 0.40021 0.6265 0.0
H475 H 0.44727 0.36144 0.65506 0.0
H476 H 0.69458 0.29868 0.84533 0.0
H477 H 0.66223 0.31313 0.81256 0.0
H478 H 0.67162 0.31802 0.878 0.0
H479 H 0.58284 0.36881 0.84527 0.0
C480 C 0.85187 0.84344 0.75732 0.0
C481 C 0.84247 0.79911 0.76661 0.0
C482 C 0.86947 0.82132 0.76566 0.0
C483 C 0.79817 0.79929 0.75862 0.0
C484 C 0.80692 0.84384 0.74977 0.0
C485 C 0.78046 0.82159 0.75022 0.0
N486 N 0.87812 0.86476 0.7572 0.0
C487 C 0.86027 0.88742 0.75129 0.0
C488 C 0.78948 0.86676 0.74248 0.0
C489 C 0.81612 0.88871 0.74348 0.0
Gd490 Gd 0.05939 0.8625 0.73 0.0
Gd491 Gd 0.95152 0.86065 0.77094 0.0
N492 N 0.91245 0.82171 0.77335 0.0
C493 C 0.86044 0.77751 0.77599 0.0
C494 C 0.92922 0.80106 0.78337 0.0
C495 C 0.90381 0.7786 0.78462 0.0
H496 H 0.96153 0.80205 0.79104 0.0
H497 H 0.91743 0.76224 0.79251 0.0
H498 H 0.04596 0.92032 0.71105 0.0
H499 H 0.87937 0.90471 0.75311 0.0
H500 H 0.08954 0.96052 0.70824 0.0
H501 H 0.84071 0.76014 0.77712 0.0
H502 H 0.77705 0.78239 0.75917 0.0
H503 H 0.13536 0.81838 0.74657 0.0
H504 H 0.75511 0.86786 0.73662 0.0
H505 H 0.80241 0.90672 0.73858 0.0
H506 H 0.23087 0.94242 0.74159 0.0
H507 H 0.74595 0.82154 0.74444 0.0
H508 H 0.25717 0.85724 0.76343 0.0
H509 H 0.21249 0.81759 0.76059 0.0
N510 N 0.13286 0.85879 0.74419 0.0
C511 C 0.1578 0.88067 0.74459 0.0
C512 C 0.15281 0.83619 0.74901 0.0
C513 C 0.2224 0.85793 0.75804 0.0
C514 C 0.19726 0.83551 0.7565 0.0
C515 C 0.20325 0.88076 0.75154 0.0
H516 H 0.26375 0.9037 0.75621 0.0
N517 N 0.09613 0.90192 0.72898 0.0
C518 C 0.13923 0.90269 0.73643 0.0
C519 C 0.14704 0.94622 0.72504 0.0
C520 C 0.16564 0.92507 0.7349 0.0
C521 C 0.07888 0.92192 0.71821 0.0
C522 C 0.10367 0.94453 0.71643 0.0
O523 O 0.94415 0.8405 0.74006 0.0
O524 O 0.01641 0.82704 0.73149 0.0
O525 O 0.04651 0.86569 0.69688 0.0
O526 O 0.11036 0.85109 0.70812 0.0
O527 O 0.01083 0.8365 0.78014 0.0
O528 O 0.05938 0.82895 0.75208 0.0
O529 O 0.05008 0.89494 0.75209 0.0
O530 O 0.02231 0.87324 0.77966 0.0
O531 O 0.93006 0.85344 0.80266 0.0
O532 O 0.92633 0.89174 0.78954 0.0
O533 O 0.99057 0.87748 0.72146 0.0
O534 O 0.95942 0.89533 0.7505 0.0
C535 C 0.97199 0.82578 0.72956 0.0
C536 C 0.04432 0.82454 0.77097 0.0
C537 C 0.09262 0.84243 0.67337 0.0
C538 C 0.11066 0.84237 0.63682 0.0
C539 C 0.11525 0.80341 0.65671 0.0
C540 C 0.10186 0.81639 0.67439 0.0
C541 C 0.12006 0.81635 0.63806 0.0
C542 C 0.09621 0.85529 0.65445 0.0
C543 C 0.08664 0.85747 0.6921 0.0
C544 C 0.21019 0.92538 0.74255 0.0
C545 C 0.22889 0.90332 0.7509 0.0
H546 H 0.16635 0.96369 0.72348 0.0
C547 C 0.04254 0.89324 0.7719 0.0
C548 C 0.9683 0.89576 0.73058 0.0
C549 C 0.90214 0.88683 0.82529 0.0
C550 C 0.88914 0.88296 0.86236 0.0
C551 C 0.86822 0.92148 0.84434 0.0
C552 C 0.88359 0.91127 0.82586 0.0
C553 C 0.87113 0.90749 0.86248 0.0
C554 C 0.90462 0.87249 0.84371 0.0
C555 C 0.92018 0.87716 0.80559 0.0
H556 H 0.12312 0.78342 0.65757 0.0
H557 H 0.10018 0.80633 0.68894 0.0
H558 H 0.13187 0.80616 0.62462 0.0
H559 H 0.09061 0.87558 0.65372 0.0
H560 H 0.85396 0.94032 0.84462 0.0
H561 H 0.88108 0.92262 0.81199 0.0
H562 H 0.85873 0.91573 0.87668 0.0
H563 H 0.9186 0.85354 0.84359 0.0
C564 C 0.657 0.65224 0.25632 0.0
C565 C 0.667 0.69688 0.26458 0.0
C566 C 0.63937 0.67491 0.26374 0.0
C567 C 0.71227 0.6958 0.2579 0.0
C568 C 0.70249 0.65118 0.24957 0.0
C569 C 0.72993 0.67305 0.25039 0.0
N570 N 0.62997 0.6312 0.25592 0.0
C571 C 0.64677 0.6084 0.24973 0.0
C572 C 0.71933 0.62806 0.24244 0.0
C573 C 0.69137 0.60658 0.24257 0.0
Gd574 Gd 0.44827 0.63527 0.22973 0.0
Gd575 Gd 0.55733 0.63616 0.26996 0.0
N576 N 0.5954 0.67547 0.27019 0.0
C577 C 0.64846 0.7193 0.27227 0.0
C578 C 0.57735 0.69726 0.27788 0.0
C579 C 0.60348 0.71947 0.27894 0.0
H580 H 0.54307 0.69774 0.28345 0.0
H581 H 0.58895 0.73668 0.28505 0.0
H582 H 0.46424 0.57741 0.21064 0.0
H583 H 0.62641 0.59137 0.25074 0.0
H584 H 0.42322 0.53631 0.20871 0.0
H585 H 0.66864 0.73653 0.27321 0.0
H586 H 0.73397 0.71247 0.25853 0.0
H587 H 0.36824 0.67793 0.24082 0.0
H588 H 0.75405 0.6265 0.23711 0.0
H589 H 0.7044 0.58849 0.23751 0.0
H590 H 0.28066 0.55253 0.24175 0.0
H591 H 0.76497 0.67253 0.24537 0.0
H592 H 0.24804 0.63845 0.25972 0.0
H593 H 0.29008 0.67874 0.25457 0.0
N594 N 0.37326 0.6379 0.24194 0.0
C595 C 0.34968 0.61569 0.24305 0.0
C596 C 0.35157 0.66037 0.2449 0.0
C597 C 0.2831 0.63805 0.2547 0.0
C598 C 0.30675 0.66083 0.25192 0.0
C599 C 0.30398 0.61515 0.24958 0.0
H600 H 0.24486 0.59129 0.25481 0.0
N601 N 0.41294 0.59527 0.22828 0.0
C602 C 0.36982 0.59379 0.23568 0.0
C603 C 0.36492 0.54985 0.22533 0.0
C604 C 0.34488 0.57089 0.23468 0.0
C605 C 0.4314 0.57538 0.21784 0.0
C606 C 0.40808 0.55222 0.21658 0.0
O607 O 0.56463 0.65625 0.2391 0.0
O608 O 0.49188 0.67018 0.2332 0.0
O609 O 0.46148 0.63292 0.19635 0.0
O610 O 0.39959 0.64957 0.20796 0.0
O611 O 0.49854 0.65965 0.27997 0.0
O612 O 0.44403 0.66654 0.2542 0.0
O613 O 0.4566 0.60254 0.25186 0.0
O614 O 0.48759 0.62267 0.27974 0.0
O615 O 0.57821 0.64526 0.30147 0.0
O616 O 0.58778 0.60695 0.28906 0.0
O617 O 0.51659 0.61952 0.22066 0.0
O618 O 0.54609 0.60149 0.25018 0.0
C619 C 0.5355 0.67072 0.22928 0.0
C620 C 0.46214 0.67088 0.27266 0.0
C621 C 0.41401 0.65598 0.17238 0.0
C622 C 0.39438 0.65292 0.13599 0.0
C623 C 0.38477 0.6927 0.15424 0.0
C624 C 0.4009 0.68154 0.17231 0.0
C625 C 0.38114 0.67843 0.13623 0.0
C626 C 0.41142 0.64181 0.15403 0.0
C627 C 0.42214 0.6425 0.19186 0.0
C628 C 0.30023 0.57 0.24224 0.0
C629 C 0.27986 0.59207 0.24971 0.0
H630 H 0.34678 0.53195 0.22417 0.0
C631 C 0.46439 0.60385 0.27171 0.0
C632 C 0.5397 0.60172 0.2301 0.0
C633 C 0.6127 0.61411 0.3244 0.0
C634 C 0.62007 0.6162 0.3619 0.0
C635 C 0.66433 0.58599 0.34229 0.0
C636 C 0.64468 0.59455 0.32408 0.0
C637 C 0.65202 0.59663 0.36105 0.0
C638 C 0.60064 0.62526 0.34346 0.0
C639 C 0.59233 0.62229 0.30471 0.0
H640 H 0.37392 0.71225 0.15431 0.0
H641 H 0.40165 0.6926 0.18636 0.0
H642 H 0.36735 0.68719 0.12249 0.0
H643 H 0.41994 0.62184 0.1541 0.0
H644 H 0.68911 0.57097 0.34188 0.0
H645 H 0.65475 0.58591 0.30967 0.0
H646 H 0.66762 0.58959 0.37504 0.0
H647 H 0.57592 0.64036 0.34398 0.0
H648 H 0.11091 0.96156 0.32735 0.0
H649 H 0.07673 0.10909 0.31097 0.0
H650 H 0.18961 0.01708 0.36133 0.0
H651 H 0.05266 0.05413 0.26296 0.0
H652 H 0.11041 0.07563 0.3323 0.0
H653 H 0.0812 0.99541 0.30597 0.0
C654 C 0.1224 0.98076 0.33029 0.0
C655 C 0.15341 0.98625 0.34617 0.0
C656 C 0.09788 0.07098 0.31707 0.0
C657 C 0.1178 0.02528 0.32207 0.0
C658 C 0.07861 0.08996 0.30498 0.0
C659 C 0.06215 0.08419 0.28527 0.0
C660 C 0.09952 0.0461 0.30948 0.0
C661 C 0.0654 0.05927 0.27805 0.0
C662 C 0.10503 0.00011 0.31811 0.0
C663 C 0.1654 0.01179 0.34954 0.0
N664 N 0.08335 0.04103 0.29025 0.0
N665 N 0.14738 0.03038 0.33764 0.0
H666 H 0.31386 0.47976 0.86256 0.0
H667 H 0.47016 0.44432 0.7662 0.0
H668 H 0.39471 0.53452 0.82928 0.0
H669 H 0.4167 0.38836 0.80831 0.0
H670 H 0.43775 0.47785 0.78758 0.0
H671 H 0.34625 0.44585 0.84134 0.0
C672 C 0.33834 0.48451 0.85068 0.0
C673 C 0.35177 0.50971 0.84745 0.0
C674 C 0.43282 0.45825 0.79211 0.0
C675 C 0.38847 0.47149 0.8232 0.0
C676 C 0.45102 0.43921 0.77987 0.0
C677 C 0.44581 0.4138 0.78567 0.0
C678 C 0.40836 0.45169 0.80995 0.0
C679 C 0.42145 0.40789 0.80356 0.0
C680 C 0.35688 0.46528 0.83866 0.0
C681 C 0.3837 0.51518 0.83209 0.0
N682 N 0.40324 0.42675 0.81506 0.0
N683 N 0.40087 0.4962 0.82042 0.0
H684 H 0.70236 0.47856 0.64068 0.0
H685 H 0.51729 0.44362 0.72688 0.0
H686 H 0.60634 0.53162 0.66589 0.0
H687 H 0.61353 0.38965 0.70354 0.0
H688 H 0.54906 0.4758 0.70383 0.0
H689 H 0.66874 0.44515 0.66216 0.0
C690 C 0.67411 0.48321 0.65061 0.0
C691 C 0.65755 0.50811 0.65157 0.0
C692 C 0.56318 0.45691 0.7036 0.0
C693 C 0.61939 0.46998 0.67643 0.0
C694 C 0.54499 0.43856 0.71675 0.0
C695 C 0.56295 0.41407 0.71705 0.0
C696 C 0.59923 0.45064 0.69042 0.0
C697 C 0.59913 0.40847 0.70383 0.0
C698 C 0.65515 0.46414 0.66298 0.0
C699 C 0.62108 0.51293 0.66491 0.0
N700 N 0.616 0.42662 0.69093 0.0
N701 N 0.60343 0.49412 0.67682 0.0
H702 H 0.80503 0.98179 0.17842 0.0
H703 H 0.0022 0.08362 0.19442 0.0
H704 H 0.89285 0.00477 0.12829 0.0
H705 H 0.88188 0.07968 0.23196 0.0
H706 H 0.96797 0.0523 0.17097 0.0
H707 H 0.83813 0.01503 0.19964 0.0
C708 C 0.83085 0.99395 0.17171 0.0
C709 C 0.8458 0.99039 0.15138 0.0
C710 C 0.94925 0.05828 0.18445 0.0
C711 C 0.88499 0.02821 0.17603 0.0
C712 C 0.96878 0.07602 0.19787 0.0
C713 C 0.94508 0.08394 0.21548 0.0
C714 C 0.90626 0.04804 0.18901 0.0
C715 C 0.90165 0.07391 0.21895 0.0
C716 C 0.85002 0.01286 0.18395 0.0
C717 C 0.88055 0.00645 0.14393 0.0
N718 N 0.88388 0.05628 0.20603 0.0
N719 N 0.89915 0.02458 0.15629 0.0
H720 H 0.8183 0.02357 0.68322 0.0
H721 H 0.97125 0.8995 0.68859 0.0
H722 H 0.89063 0.99354 0.63091 0.0
H723 H 0.92384 0.93908 0.74261 0.0
H724 H 0.93832 0.93231 0.667 0.0
H725 H 0.85074 0.99035 0.70478 0.0
C726 C 0.84072 0.00989 0.67621 0.0
C727 C 0.85187 0.01143 0.65521 0.0
C728 C 0.93481 0.93372 0.68357 0.0
C729 C 0.88972 0.9736 0.67993 0.0
C730 C 0.95361 0.91497 0.69597 0.0
C731 C 0.94937 0.91613 0.71752 0.0
C732 C 0.91109 0.95372 0.69271 0.0
C733 C 0.92678 0.93693 0.72609 0.0
C734 C 0.85957 0.99107 0.6886 0.0
C735 C 0.88161 0.99333 0.64708 0.0
N736 N 0.90811 0.95479 0.71365 0.0
N737 N 0.89951 0.97518 0.65945 0.0
H738 H 0.61942 0.45951 0.17572 0.0
H739 H 0.58149 0.60789 0.19311 0.0
H740 H 0.68382 0.51691 0.13832 0.0
H741 H 0.54623 0.55123 0.23841 0.0
H742 H 0.61554 0.57487 0.1717 0.0
H743 H 0.588 0.49279 0.19778 0.0
C744 C 0.62683 0.47921 0.17225 0.0
C745 C 0.65408 0.48569 0.15537 0.0
C746 C 0.60042 0.56963 0.18632 0.0
C747 C 0.61833 0.52373 0.18022 0.0
C748 C 0.58091 0.58842 0.19847 0.0
C749 C 0.56123 0.58211 0.21746 0.0
C750 C 0.59931 0.54431 0.19306 0.0
C751 C 0.56153 0.55677 0.22389 0.0
C752 C 0.60908 0.49815 0.1848 0.0
C753 C 0.66295 0.51134 0.15132 0.0
N754 N 0.57994 0.5387 0.21161 0.0
N755 N 0.64491 0.5295 0.16363 0.0
H756 H 0.33811 0.46773 0.32042 0.0
H757 H 0.45206 0.60606 0.31351 0.0
H758 H 0.36127 0.51526 0.37342 0.0
H759 H 0.43231 0.5568 0.26119 0.0
H760 H 0.41813 0.57353 0.33572 0.0
H761 H 0.37145 0.50065 0.2984 0.0
C762 C 0.34993 0.48526 0.32735 0.0
C763 C 0.34696 0.48891 0.34868 0.0
C764 C 0.42114 0.56986 0.31937 0.0
C765 C 0.38504 0.52669 0.32368 0.0
C766 C 0.4406 0.58841 0.30668 0.0
C767 C 0.44458 0.58425 0.28541 0.0
C768 C 0.40581 0.54692 0.31074 0.0
C769 C 0.42914 0.56103 0.27742 0.0
C770 C 0.3691 0.504 0.31482 0.0
C771 C 0.36325 0.51175 0.35701 0.0
N772 N 0.41046 0.54326 0.29007 0.0
N773 N 0.38147 0.52985 0.34447 0.0
H774 H 0.12872 0.98637 0.87546 0.0
H775 H 0.08551 0.93721 0.76075 0.0
H776 H 0.18601 0.02132 0.82111 0.0
H777 H 0.04069 0.89551 0.81432 0.0
H778 H 0.12089 0.96851 0.78292 0.0
H779 H 0.09486 0.95328 0.85376 0.0
C780 C 0.13416 0.98707 0.85896 0.0
C781 C 0.16011 0.00668 0.85006 0.0
C782 C 0.1035 0.9525 0.78991 0.0
C783 C 0.12151 0.96894 0.82519 0.0
C784 C 0.0835 0.93442 0.77718 0.0
C785 C 0.06126 0.91319 0.78559 0.0
C786 C 0.10046 0.9498 0.81137 0.0
C787 C 0.05814 0.91135 0.80714 0.0
C788 C 0.11498 0.96814 0.84661 0.0
C789 C 0.16662 0.00646 0.82865 0.0
N790 N 0.07757 0.92944 0.81931 0.0
N791 N 0.14726 0.98799 0.81696 0.0
H792 H 0.24336 0.11498 0.02929 0.0
H793 H 0.04783 0.1212 0.10878 0.0
H794 H 0.11074 0.1383 0.0086 0.0
H795 H 0.18582 0.14024 0.12464 0.0
H796 H 0.06589 0.12865 0.07225 0.0
H797 H 0.22008 0.12254 0.06471 0.0
C798 C 0.20951 0.12201 0.03214 0.0
C799 C 0.1792 0.12628 0.01586 0.0
C800 C 0.09177 0.13203 0.08381 0.0
C801 C 0.15209 0.13467 0.05656 0.0
C802 C 0.08137 0.12802 0.1046 0.0
C803 C 0.11557 0.13 0.11953 0.0
C804 C 0.13686 0.13732 0.07815 0.0
C805 C 0.15867 0.13849 0.11347 0.0
C806 C 0.19626 0.12637 0.05239 0.0
C807 C 0.13515 0.13456 0.02067 0.0
N808 N 0.16845 0.14124 0.09316 0.0
N809 N 0.12274 0.13832 0.04063 0.0
H810 H 0.32138 0.41267 0.52162 0.0
H811 H 0.38445 0.33444 0.61888 0.0
H812 H 0.34637 0.33284 0.51426 0.0
H813 H 0.42923 0.41155 0.60979 0.0
H814 H 0.37194 0.33057 0.58152 0.0
H815 H 0.35546 0.41093 0.55598 0.0
C816 C 0.33398 0.39477 0.52739 0.0
C817 C 0.33111 0.37287 0.51535 0.0
C818 C 0.38603 0.34802 0.58765 0.0
C819 C 0.37106 0.37074 0.55425 0.0
C820 C 0.39385 0.3501 0.60889 0.0
C821 C 0.40757 0.37342 0.61732 0.0
C822 C 0.39101 0.36963 0.57515 0.0
C823 C 0.41857 0.39329 0.60382 0.0
C824 C 0.35389 0.39379 0.54681 0.0
C825 C 0.34775 0.35003 0.52335 0.0
N826 N 0.40872 0.39122 0.58347 0.0
N827 N 0.367 0.34947 0.54245 0.0
H828 H 0.68378 0.4149 0.98057 0.0
H829 H 0.58111 0.32127 0.89527 0.0
H830 H 0.65912 0.33501 0.98924 0.0
H831 H 0.64617 0.392 0.87928 0.0
H832 H 0.58879 0.33192 0.93175 0.0
H833 H 0.65443 0.41139 0.94509 0.0
C834 C 0.67223 0.39665 0.97489 0.0
C835 C 0.67426 0.3751 0.98753 0.0
C836 C 0.60047 0.34543 0.92029 0.0
C837 C 0.63949 0.3711 0.94759 0.0
C838 C 0.59548 0.33951 0.89948 0.0
C839 C 0.6136 0.35564 0.88432 0.0
C840 C 0.62397 0.36758 0.92599 0.0
C841 C 0.63199 0.37903 0.89055 0.0
C842 C 0.65529 0.39468 0.9548 0.0
C843 C 0.65856 0.35192 0.97977 0.0
N844 N 0.63758 0.38413 0.91099 0.0
N845 N 0.64175 0.35054 0.9603 0.0
H846 H 0.872 0.1583 0.49343 0.0
H847 H 0.85749 0.10661 0.37855 0.0
H848 H 0.80264 0.0888 0.47777 0.0
H849 H 0.93955 0.17046 0.39721 0.0
H850 H 0.84601 0.09551 0.41496 0.0
H851 H 0.90227 0.16068 0.45837 0.0
C852 C 0.86314 0.14361 0.48245 0.0
C853 C 0.83453 0.12355 0.48819 0.0
C854 C 0.86758 0.11154 0.41109 0.0
C855 C 0.86952 0.12569 0.44824 0.0
C856 C 0.87469 0.11761 0.39032 0.0
C857 C 0.89934 0.1395 0.385 0.0
C858 C 0.88478 0.12776 0.42647 0.0
C859 C 0.92033 0.15342 0.40077 0.0
C860 C 0.88067 0.14478 0.46253 0.0
C861 C 0.82417 0.10475 0.47365 0.0
N862 N 0.91184 0.14763 0.42079 0.0
N863 N 0.84153 0.10632 0.45424 0.0
H864 H 0.90135 0.86455 0.99415 0.0
H865 H 0.82071 0.85397 0.87716 0.0
H866 H 0.76425 0.87669 0.97281 0.0
H867 H 0.95372 0.88248 0.89262 0.0
H868 H 0.80555 0.84683 0.91382 0.0
H869 H 0.92553 0.85916 0.9583 0.0
C870 C 0.87625 0.86615 0.98204 0.0
C871 C 0.83044 0.87103 0.9867 0.0
C872 C 0.83858 0.85393 0.90915 0.0
C873 C 0.85791 0.86376 0.94577 0.0
C874 C 0.84748 0.85758 0.88825 0.0
C875 C 0.88841 0.86882 0.88199 0.0
C876 C 0.87091 0.86155 0.92382 0.0
C877 C 0.92179 0.87367 0.89694 0.0
C878 C 0.89015 0.86278 0.96162 0.0
C879 C 0.79961 0.87237 0.97022 0.0
N880 N 0.91208 0.87038 0.9173 0.0
N881 N 0.81388 0.86867 0.95057 0.0
H882 H 0.63859 0.58879 0.48737 0.0
H883 H 0.65054 0.65996 0.37983 0.0
H884 H 0.70551 0.66124 0.47945 0.0
H885 H 0.56812 0.59366 0.39122 0.0
H886 H 0.66073 0.66518 0.41712 0.0
H887 H 0.60681 0.59267 0.45285 0.0
C888 C 0.64676 0.60551 0.47836 0.0
C889 C 0.67498 0.62467 0.48638 0.0
C890 C 0.6393 0.6499 0.41152 0.0
C891 C 0.6378 0.62951 0.44675 0.0
C892 C 0.63288 0.6472 0.39024 0.0
C893 C 0.60882 0.62623 0.38253 0.0
C894 C 0.62208 0.63123 0.42498 0.0
C895 C 0.58708 0.61003 0.39662 0.0
C896 C 0.62806 0.60789 0.4587 0.0
C897 C 0.68363 0.64609 0.47401 0.0
N898 N 0.59511 0.61249 0.41714 0.0
N899 N 0.66541 0.64784 0.45478 0.0
H900 H 0.28325 0.65091 0.02114 0.0
H901 H 0.45661 0.63458 0.10838 0.0
H902 H 0.38579 0.59402 0.01115 0.0
H903 H 0.31317 0.63855 0.12063 0.0
H904 H 0.43942 0.62138 0.07269 0.0
H905 H 0.30175 0.65087 0.05755 0.0
C906 C 0.30926 0.63813 0.02653 0.0
C907 C 0.33228 0.62209 0.01292 0.0
C908 C 0.41188 0.62441 0.08345 0.0
C909 C 0.35463 0.6227 0.05478 0.0
C910 C 0.42162 0.63182 0.10372 0.0
C911 C 0.3861 0.63797 0.11716 0.0
C912 C 0.36651 0.62372 0.07683 0.0
C913 C 0.34135 0.63429 0.11054 0.0
C914 C 0.3199 0.63823 0.04737 0.0
C915 C 0.36723 0.60685 0.02096 0.0
N916 N 0.33278 0.62794 0.09069 0.0
N917 N 0.37767 0.60766 0.04142 0.0
H918 H 0.22114 0.84534 0.52007 0.0
H919 H 0.05139 0.86535 0.61004 0.0
H920 H 0.12162 0.90422 0.51276 0.0
H921 H 0.1931 0.84992 0.61997 0.0
H922 H 0.06939 0.87884 0.57444 0.0
H923 H 0.20335 0.84327 0.55671 0.0
C924 C 0.19534 0.85774 0.52623 0.0
C925 C 0.17271 0.87491 0.5135 0.0
C926 C 0.09652 0.8731 0.58466 0.0
C927 C 0.15238 0.87279 0.55536 0.0
C928 C 0.08633 0.86546 0.60484 0.0
C929 C 0.12086 0.85604 0.61756 0.0
C930 C 0.14126 0.87087 0.57744 0.0
C931 C 0.16557 0.85657 0.61037 0.0
C932 C 0.18555 0.85678 0.54713 0.0
C933 C 0.13982 0.89079 0.52224 0.0
N934 N 0.1744 0.8634 0.59066 0.0
N935 N 0.13014 0.88919 0.54273 0.0
H936 H 0.08397 0.28051 0.37219 0.0
H937 H 0.12698 0.18909 0.27592 0.0
H938 H 0.20338 0.28374 0.33401 0.0
H939 H 0.99544 0.19701 0.30421 0.0
H940 H 0.15737 0.22094 0.29925 0.0
H941 H 0.05264 0.24694 0.34983 0.0
C942 C 0.10349 0.274 0.35911 0.0
C943 C 0.14611 0.28468 0.35477 0.0
C944 C 0.12182 0.21576 0.30038 0.0
C945 C 0.11103 0.24662 0.32933 0.0
C946 C 0.10434 0.1976 0.28691 0.0
C947 C 0.05829 0.19082 0.28762 0.0
C948 C 0.09336 0.22683 0.31514 0.0
C949 C 0.03099 0.20207 0.30279 0.0
C950 C 0.08571 0.25498 0.34637 0.0
C951 C 0.17036 0.27584 0.33774 0.0
N952 N 0.04896 0.21949 0.31599 0.0
N953 N 0.15251 0.2573 0.32564 0.0
H954 H 0.3909 0.23303 0.87855 0.0
H955 H 0.41318 0.28671 0.76318 0.0
H956 H 0.33579 0.19508 0.8252 0.0
H957 H 0.47706 0.32186 0.81584 0.0
H958 H 0.38145 0.2541 0.78583 0.0
H959 H 0.42072 0.26665 0.85601 0.0
C960 C 0.38503 0.23185 0.86209 0.0
C961 C 0.3611 0.21123 0.85368 0.0
C962 C 0.40235 0.269 0.79243 0.0
C963 C 0.39467 0.24959 0.82783 0.0
C964 C 0.42018 0.28781 0.77947 0.0
C965 C 0.44748 0.30738 0.78749 0.0
C966 C 0.41215 0.26956 0.81363 0.0
C967 C 0.45615 0.30728 0.80883 0.0
C968 C 0.40209 0.25097 0.84923 0.0
C969 C 0.3546 0.2105 0.83226 0.0
N970 N 0.43865 0.28871 0.82109 0.0
N971 N 0.37114 0.22941 0.82009 0.0
H972 H 0.6209 0.23397 0.62693 0.0
H973 H 0.58976 0.28308 0.74307 0.0
H974 H 0.68335 0.19859 0.67962 0.0
H975 H 0.5385 0.32248 0.68959 0.0
H976 H 0.62285 0.25133 0.72021 0.0
H977 H 0.58852 0.26612 0.64981 0.0
C978 C 0.62797 0.23311 0.6433 0.0
C979 C 0.65458 0.2136 0.65146 0.0
C980 C 0.60439 0.26698 0.71352 0.0
C981 C 0.61793 0.25018 0.67769 0.0
C982 C 0.58568 0.28519 0.72657 0.0
C983 C 0.56196 0.30579 0.71831 0.0
C984 C 0.5987 0.26914 0.69207 0.0
C985 C 0.55685 0.30712 0.69676 0.0
C986 C 0.60944 0.25137 0.65636 0.0
C987 C 0.66249 0.21317 0.67278 0.0
N988 N 0.57498 0.28907 0.68444 0.0
N989 N 0.64431 0.23119 0.68515 0.0
H990 H 0.88049 0.26238 0.12572 0.0
H991 H 0.92279 0.21511 0.24154 0.0
H992 H 0.83214 0.30167 0.17958 0.0
H993 H 0.96256 0.17249 0.1878 0.0
H994 H 0.89039 0.24733 0.21902 0.0
H995 H 0.91237 0.22957 0.14815 0.0
C996 C 0.87646 0.26402 0.14226 0.0
C997 C 0.85385 0.28479 0.15083 0.0
C998 C 0.90607 0.23088 0.21215 0.0
C999 C 0.89002 0.24743 0.17655 0.0
C1000 C 0.92431 0.21236 0.22503 0.0
C1001 C 0.94473 0.1908 0.21659 0.0
C1002 C 0.90878 0.22802 0.19066 0.0
C1003 C 0.94684 0.18869 0.19503 0.0
C1004 C 0.89472 0.24536 0.15505 0.0
C1005 C 0.84989 0.28614 0.17236 0.0
N1006 N 0.92912 0.20705 0.18282 0.0
N1007 N 0.86772 0.26772 0.18446 0.0
H1008 H 0.92837 0.70893 0.63659 0.0
H1009 H 0.88234 0.81439 0.72274 0.0
H1010 H 0.79649 0.72667 0.66136 0.0
H1011 H 0.01696 0.79542 0.70191 0.0
H1012 H 0.85078 0.78369 0.69877 0.0
H1013 H 0.96177 0.74236 0.65827 0.0
C1014 C 0.90639 0.71996 0.64643 0.0
C1015 C 0.85959 0.71474 0.64734 0.0
C1016 C 0.88726 0.78618 0.69939 0.0
C1017 C 0.89757 0.75279 0.67227 0.0
C1018 C 0.90539 0.8037 0.71324 0.0
C1019 C 0.95248 0.80728 0.71472 0.0
C1020 C 0.91628 0.77216 0.68664 0.0
C1021 C 0.98044 0.7931 0.70154 0.0
C1022 C 0.92552 0.73892 0.6589 0.0
C1023 C 0.83283 0.72959 0.66045 0.0
N1024 N 0.96193 0.77615 0.68807 0.0
N1025 N 0.85219 0.74778 0.67241 0.0
H1026 H 0.64589 0.7549 0.12509 0.0
H1027 H 0.55395 0.71978 0.23809 0.0
H1028 H 0.63364 0.80818 0.17512 0.0
H1029 H 0.55581 0.66567 0.18851 0.0
H1030 H 0.58306 0.75234 0.21462 0.0
H1031 H 0.61123 0.722 0.14706 0.0
C1032 C 0.63554 0.75974 0.1406 0.0
C1033 C 0.64325 0.78426 0.14838 0.0
C1034 C 0.57708 0.73341 0.20875 0.0
C1035 C 0.60399 0.74677 0.17358 0.0
C1036 C 0.5607 0.71485 0.22221 0.0
C1037 C 0.5531 0.69019 0.21516 0.0
C1038 C 0.58563 0.72726 0.18801 0.0
C1039 C 0.56176 0.6846 0.19442 0.0
C1040 C 0.61599 0.74094 0.15316 0.0
C1041 C 0.62928 0.78943 0.16861 0.0
N1042 N 0.57765 0.70304 0.1815 0.0
N1043 N 0.61062 0.77088 0.18047 0.0
H1044 H 0.41687 0.78384 0.36698 0.0
H1045 H 0.38895 0.70238 0.26584 0.0
H1046 H 0.28749 0.77276 0.33682 0.0
H1047 H 0.48931 0.68349 0.31177 0.0
H1048 H 0.35528 0.73199 0.28989 0.0
H1049 H 0.4487 0.75027 0.34533 0.0
C1050 C 0.39505 0.77425 0.35599 0.0
C1051 C 0.34958 0.78144 0.3535 0.0
C1052 C 0.38456 0.72118 0.29467 0.0
C1053 C 0.38597 0.74364 0.32853 0.0
C1054 C 0.40356 0.70398 0.28095 0.0
C1055 C 0.44141 0.68974 0.2867 0.0
C1056 C 0.4045 0.72487 0.31408 0.0
C1057 C 0.45999 0.69387 0.30647 0.0
C1058 C 0.41329 0.75522 0.34361 0.0
C1059 C 0.32304 0.76844 0.33889 0.0
N1060 N 0.44163 0.71122 0.31936 0.0
N1061 N 0.34174 0.7504 0.32681 0.0
H1062 H 0.09247 0.69192 0.84524 0.0
H1063 H 0.11973 0.82986 0.79432 0.0
H1064 H 0.20579 0.74178 0.85733 0.0
H1065 H 0.0178 0.77547 0.77594 0.0
H1066 H 0.14995 0.79887 0.8189 0.0
H1067 H 0.0603 0.72406 0.82218 0.0
C1068 C 0.11003 0.70989 0.84324 0.0
C1069 C 0.15151 0.71448 0.85309 0.0
C1070 C 0.12104 0.79365 0.80947 0.0
C1071 C 0.11586 0.75094 0.82664 0.0
C1072 C 0.10422 0.8112 0.79535 0.0
C1073 C 0.06657 0.80496 0.78321 0.0
C1074 C 0.0995 0.76989 0.81156 0.0
C1075 C 0.04688 0.78086 0.78518 0.0
C1076 C 0.092 0.7281 0.83001 0.0
C1077 C 0.17356 0.73777 0.84996 0.0
N1078 N 0.06341 0.76419 0.79922 0.0
N1079 N 0.15552 0.75516 0.83693 0.0
loop_
_geom_bond_atom_site_label_1
_geom_bond_atom_site_label_2
_geom_bond_distance
_geom_bond_site_symmetry_2
_ccdc_geom_bond_type
C0 C1 1.386 . S
C0 C2 1.397 . S
C0 H24 0.931 . S
C1 C0 1.386 . S
C1 C5 1.397 . S
C2 C0 1.397 . S
C2 C3 1.384 . S
C2 H25 0.930 . S
C3 C2 1.384 . S
C3 C4 1.377 . S
C3 C6 1.481 . S
C4 C3 1.377 . S
C4 C5 1.389 . S
C4 H26 0.929 . S
C5 C1 1.397 . S
C5 C4 1.389 . S
C5 H27 0.931 . S
C6 C3 1.481 . S
C6 C7 1.387 . S
C6 C11 1.390 . S
C7 C6 1.387 . S
C7 C8 1.401 . S
C7 H28 0.930 . S
C8 C7 1.401 . S
C8 C9 1.376 . S
C8 C17 1.511 . S
C9 C8 1.376 . S
C9 C10 1.392 . S
C9 H30 0.931 . S
C10 C9 1.392 . S
C10 C11 1.361 . S
C10 C12 1.500 . S
C11 C6 1.390 . S
C11 C10 1.361 . S
C11 H29 0.931 . S
C12 C10 1.500 . S
C12 C13 1.371 . S
C12 C14 1.365 . S
C13 C12 1.371 . S
C13 C23 1.386 . S
C13 H31 0.931 . S
C14 C12 1.365 . S
C14 C15 1.409 . S
C14 H32 0.929 . S
C15 C14 1.409 . S
C15 C16 1.380 . S
C15 H33 0.930 . S
C16 C15 1.380 . S
C16 C23 1.357 . S
C17 C8 1.511 . S
C17 C18 1.341 . S
C17 C19 1.371 . S
C18 C17 1.341 . S
C18 C22 1.394 . S
C18 H34 0.930 . S
C19 C17 1.371 . S
C19 C20 1.392 . S
C19 H35 0.931 . S
C20 C19 1.392 . S
C20 C21 1.331 . S
C20 H38 0.932 . S
C21 C20 1.331 . S
C21 C22 1.336 . S
C22 C18 1.394 . S
C22 C21 1.336 . S
C22 H37 0.929 . S
C23 C13 1.386 . S
C23 C16 1.357 . S
C23 H36 0.928 . S
H24 C0 0.931 . S
H25 C2 0.930 . S
H26 C4 0.929 . S
H27 C5 0.931 . S
H28 C7 0.930 . S
H29 C11 0.931 . S
H30 C9 0.931 . S
H31 C13 0.931 . S
H32 C14 0.929 . S
H33 C15 0.930 . S
H34 C18 0.930 . S
H35 C19 0.931 . S
H36 C23 0.928 . S
H37 C22 0.929 . S
H38 C20 0.932 . S
C39 C40 1.386 . S
C39 C41 1.397 . S
C39 H63 0.931 . S
C40 C39 1.386 . S
C40 C44 1.397 . S
C41 C39 1.397 . S
C41 C42 1.384 . S
C41 H64 0.930 . S
C42 C41 1.384 . S
C42 C43 1.377 . S
C42 C45 1.481 . S
C43 C42 1.377 . S
C43 C44 1.389 . S
C43 H65 0.929 . S
C44 C40 1.397 . S
C44 C43 1.389 . S
C44 H66 0.931 . S
C45 C42 1.481 . S
C45 C46 1.387 . S
C45 C50 1.390 . S
C46 C45 1.387 . S
C46 C47 1.401 . S
C46 H67 0.930 . S
C47 C46 1.401 . S
C47 C48 1.376 . S
C47 C56 1.511 . S
C48 C47 1.376 . S
C48 C49 1.392 . S
C48 H69 0.931 . S
C49 C48 1.392 . S
C49 C50 1.361 . S
C49 C51 1.500 . S
C50 C45 1.390 . S
C50 C49 1.361 . S
C50 H68 0.931 . S
C51 C49 1.500 . S
C51 C52 1.371 . S
C51 C53 1.365 . S
C52 C51 1.371 . S
C52 C62 1.386 . S
C52 H70 0.931 . S
C53 C51 1.365 . S
C53 C54 1.409 . S
C53 H71 0.929 . S
C54 C53 1.409 . S
C54 C55 1.380 . S
C54 H72 0.930 . S
C55 C54 1.380 . S
C55 C62 1.357 . S
C56 C47 1.511 . S
C56 C57 1.341 . S
C56 C58 1.371 . S
C57 C56 1.341 . S
C57 C61 1.394 . S
C57 H73 0.930 . S
C58 C56 1.371 . S
C58 C59 1.392 . S
C58 H74 0.931 . S
C59 C58 1.392 . S
C59 C60 1.331 . S
C59 H77 0.932 . S
C60 C59 1.331 . S
C60 C61 1.336 . S
C61 C57 1.394 . S
C61 C60 1.336 . S
C61 H76 0.929 . S
C62 C52 1.386 . S
C62 C55 1.357 . S
C62 H75 0.928 . S
H63 C39 0.931 . S
H64 C41 0.930 . S
H65 C43 0.929 . S
H66 C44 0.931 . S
H67 C46 0.930 . S
H68 C50 0.931 . S
H69 C48 0.931 . S
H70 C52 0.931 . S
H71 C53 0.929 . S
H72 C54 0.930 . S
H73 C57 0.930 . S
H74 C58 0.931 . S
H75 C62 0.928 . S
H76 C61 0.929 . S
H77 C59 0.932 . S
C78 C79 1.386 . S
C78 C80 1.397 . S
C78 H102 0.931 . S
C79 C78 1.386 . S
C79 C83 1.397 . S
C80 C78 1.397 . S
C80 C81 1.384 . S
C80 H103 0.930 . S
C81 C80 1.384 . S
C81 C82 1.377 . S
C81 C84 1.481 . S
C82 C81 1.377 . S
C82 C83 1.389 . S
C82 H104 0.929 . S
C83 C79 1.397 . S
C83 C82 1.389 . S
C83 H105 0.931 . S
C84 C81 1.481 . S
C84 C85 1.387 . S
C84 C89 1.390 . S
C85 C84 1.387 . S
C85 C86 1.401 . S
C85 H106 0.930 . S
C86 C85 1.401 . S
C86 C87 1.376 . S
C86 C95 1.511 . S
C87 C86 1.376 . S
C87 C88 1.392 . S
C87 H108 0.931 . S
C88 C87 1.392 . S
C88 C89 1.361 . S
C88 C90 1.500 . S
C89 C84 1.390 . S
C89 C88 1.361 . S
C89 H107 0.931 . S
C90 C88 1.500 . S
C90 C91 1.371 . S
C90 C92 1.365 . S
C91 C90 1.371 . S
C91 C101 1.386 . S
C91 H109 0.931 . S
C92 C90 1.365 . S
C92 C93 1.409 . S
C92 H110 0.929 . S
C93 C92 1.409 . S
C93 C94 1.380 . S
C93 H111 0.930 . S
C94 C93 1.380 . S
C94 C101 1.357 . S
C95 C86 1.511 . S
C95 C96 1.341 . S
C95 C97 1.371 . S
C96 C95 1.341 . S
C96 C100 1.394 . S
C96 H112 0.930 . S
C97 C95 1.371 . S
C97 C98 1.392 . S
C97 H113 0.931 . S
C98 C97 1.392 . S
C98 C99 1.331 . S
C98 H116 0.932 . S
C99 C98 1.331 . S
C99 C100 1.336 . S
C100 C96 1.394 . S
C100 C99 1.336 . S
C100 H115 0.929 . S
C101 C91 1.386 . S
C101 C94 1.357 . S
C101 H114 0.928 . S
H102 C78 0.931 . S
H103 C80 0.930 . S
H104 C82 0.929 . S
H105 C83 0.931 . S
H106 C85 0.930 . S
H107 C89 0.931 . S
H108 C87 0.931 . S
H109 C91 0.931 . S
H110 C92 0.929 . S
H111 C93 0.930 . S
H112 C96 0.930 . S
H113 C97 0.931 . S
H114 C101 0.928 . S
H115 C100 0.929 . S
H116 C98 0.932 . S
C117 C118 1.386 . S
C117 C119 1.397 . S
C117 H141 0.931 . S
C118 C117 1.386 . S
C118 C122 1.397 . S
C119 C117 1.397 . S
C119 C120 1.384 . S
C119 H142 0.930 . S
C120 C119 1.384 . S
C120 C121 1.377 . S
C120 C123 1.481 . S
C121 C120 1.377 . S
C121 C122 1.389 . S
C121 H143 0.929 . S
C122 C118 1.397 . S
C122 C121 1.389 . S
C122 H144 0.931 . S
C123 C120 1.481 . S
C123 C124 1.387 . S
C123 C128 1.390 . S
C124 C123 1.387 . S
C124 C125 1.401 . S
C124 H145 0.930 . S
C125 C124 1.401 . S
C125 C126 1.376 . S
C125 C134 1.511 . S
C126 C125 1.376 . S
C126 C127 1.392 . S
C126 H147 0.931 . S
C127 C126 1.392 . S
C127 C128 1.361 . S
C127 C129 1.500 . S
C128 C123 1.390 . S
C128 C127 1.361 . S
C128 H146 0.931 . S
C129 C127 1.500 . S
C129 C130 1.371 . S
C129 C131 1.365 . S
C130 C129 1.371 . S
C130 C140 1.386 . S
C130 H148 0.931 . S
C131 C129 1.365 . S
C131 C132 1.409 . S
C131 H149 0.929 . S
C132 C131 1.409 . S
C132 C133 1.380 . S
C132 H150 0.930 . S
C133 C132 1.380 . S
C133 C140 1.357 . S
C134 C125 1.511 . S
C134 C135 1.341 . S
C134 C136 1.371 . S
C135 C134 1.341 . S
C135 C139 1.394 . S
C135 H151 0.930 . S
C136 C134 1.371 . S
C136 C137 1.392 . S
C136 H152 0.931 . S
C137 C136 1.392 . S
C137 C138 1.331 . S
C137 H155 0.932 . S
C138 C137 1.331 . S
C138 C139 1.336 . S
C139 C135 1.394 . S
C139 C138 1.336 . S
C139 H154 0.929 . S
C140 C130 1.386 . S
C140 C133 1.357 . S
C140 H153 0.928 . S
H141 C117 0.931 . S
H142 C119 0.930 . S
H143 C121 0.929 . S
H144 C122 0.931 . S
H145 C124 0.930 . S
H146 C128 0.931 . S
H147 C126 0.931 . S
H148 C130 0.931 . S
H149 C131 0.929 . S
H150 C132 0.930 . S
H151 C135 0.930 . S
H152 C136 0.931 . S
H153 C140 0.928 . S
H154 C139 0.929 . S
H155 C137 0.932 . S
C156 C157 1.386 . S
C156 C158 1.397 . S
C156 H180 0.931 . S
C157 C156 1.386 . S
C157 C161 1.397 . S
C158 C156 1.397 . S
C158 C159 1.384 . S
C158 H181 0.930 . S
C159 C158 1.384 . S
C159 C160 1.377 . S
C159 C162 1.481 . S
C160 C159 1.377 . S
C160 C161 1.389 . S
C160 H182 0.929 . S
C161 C157 1.397 . S
C161 C160 1.389 . S
C161 H183 0.931 . S
C162 C159 1.481 . S
C162 C163 1.387 . S
C162 C167 1.390 . S
C163 C162 1.387 . S
C163 C164 1.401 . S
C163 H184 0.930 . S
C164 C163 1.401 . S
C164 C165 1.376 . S
C164 C173 1.511 . S
C165 C164 1.376 . S
C165 C166 1.392 . S
C165 H186 0.931 . S
C166 C165 1.392 . S
C166 C167 1.361 . S
C166 C168 1.500 . S
C167 C162 1.390 . S
C167 C166 1.361 . S
C167 H185 0.931 . S
C168 C166 1.500 . S
C168 C169 1.371 . S
C168 C170 1.365 . S
C169 C168 1.371 . S
C169 C179 1.386 . S
C169 H187 0.931 . S
C170 C168 1.365 . S
C170 C171 1.409 . S
C170 H188 0.929 . S
C171 C170 1.409 . S
C171 C172 1.380 . S
C171 H189 0.930 . S
C172 C171 1.380 . S
C172 C179 1.357 . S
C173 C164 1.511 . S
C173 C174 1.341 . S
C173 C175 1.371 . S
C174 C173 1.341 . S
C174 C178 1.394 . S
C174 H190 0.930 . S
C175 C173 1.371 . S
C175 C176 1.392 . S
C175 H191 0.931 . S
C176 C175 1.392 . S
C176 C177 1.331 . S
C176 H194 0.932 . S
C177 C176 1.331 . S
C177 C178 1.336 . S
C178 C174 1.394 . S
C178 C177 1.336 . S
C178 H193 0.929 . S
C179 C169 1.386 . S
C179 C172 1.357 . S
C179 H192 0.928 . S
H180 C156 0.931 . S
H181 C158 0.930 . S
H182 C160 0.929 . S
H183 C161 0.931 . S
H184 C163 0.930 . S
H185 C167 0.931 . S
H186 C165 0.931 . S
H187 C169 0.931 . S
H188 C170 0.929 . S
H189 C171 0.930 . S
H190 C174 0.930 . S
H191 C175 0.931 . S
H192 C179 0.928 . S
H193 C178 0.929 . S
H194 C176 0.932 . S
C195 C196 1.386 . S
C195 C197 1.397 . S
C195 H219 0.931 . S
C196 C195 1.386 . S
C196 C200 1.397 . S
C197 C195 1.397 . S
C197 C198 1.384 . S
C197 H220 0.930 . S
C198 C197 1.384 . S
C198 C199 1.377 . S
C198 C201 1.481 . S
C199 C198 1.377 . S
C199 C200 1.389 . S
C199 H221 0.929 . S
C200 C196 1.397 . S
C200 C199 1.389 . S
C200 H222 0.931 . S
C201 C198 1.481 . S
C201 C202 1.387 . S
C201 C206 1.390 . S
C202 C201 1.387 . S
C202 C203 1.401 . S
C202 H223 0.930 . S
C203 C202 1.401 . S
C203 C204 1.376 . S
C203 C212 1.511 . S
C204 C203 1.376 . S
C204 C205 1.392 . S
C204 H225 0.931 . S
C205 C204 1.392 . S
C205 C206 1.361 . S
C205 C207 1.500 . S
C206 C201 1.390 . S
C206 C205 1.361 . S
C206 H224 0.931 . S
C207 C205 1.500 . S
C207 C208 1.371 . S
C207 C209 1.365 . S
C208 C207 1.371 . S
C208 C218 1.386 . S
C208 H226 0.931 . S
C209 C207 1.365 . S
C209 C210 1.409 . S
C209 H227 0.929 . S
C210 C209 1.409 . S
C210 C211 1.380 . S
C210 H228 0.930 . S
C211 C210 1.380 . S
C211 C218 1.357 . S
C212 C203 1.511 . S
C212 C213 1.341 . S
C212 C214 1.371 . S
C213 C212 1.341 . S
C213 C217 1.394 . S
C213 H229 0.930 . S
C214 C212 1.371 . S
C214 C215 1.392 . S
C214 H230 0.931 . S
C215 C214 1.392 . S
C215 C216 1.331 . S
C215 H233 0.932 . S
C216 C215 1.331 . S
C216 C217 1.336 . S
C217 C213 1.394 . S
C217 C216 1.336 . S
C217 H232 0.929 . S
C218 C208 1.386 . S
C218 C211 1.357 . S
C218 H231 0.928 . S
H219 C195 0.931 . S
H220 C197 0.930 . S
H221 C199 0.929 . S
H222 C200 0.931 . S
H223 C202 0.930 . S
H224 C206 0.931 . S
H225 C204 0.931 . S
H226 C208 0.931 . S
H227 C209 0.929 . S
H228 C210 0.930 . S
H229 C213 0.930 . S
H230 C214 0.931 . S
H231 C218 0.928 . S
H232 C217 0.929 . S
H233 C215 0.932 . S
C234 C235 1.386 . S
C234 C236 1.397 . S
C234 H258 0.931 . S
C235 C234 1.386 . S
C235 C239 1.397 . S
C236 C234 1.397 . S
C236 C237 1.384 . S
C236 H259 0.930 . S
C237 C236 1.384 . S
C237 C238 1.377 . S
C237 C240 1.481 . S
C238 C237 1.377 . S
C238 C239 1.389 . S
C238 H260 0.929 . S
C239 C235 1.397 . S
C239 C238 1.389 . S
C239 H261 0.931 . S
C240 C237 1.481 . S
C240 C241 1.387 . S
C240 C245 1.390 . S
C241 C240 1.387 . S
C241 C242 1.401 . S
C241 H262 0.930 . S
C242 C241 1.401 . S
C242 C243 1.376 . S
C242 C251 1.511 . S
C243 C242 1.376 . S
C243 C244 1.392 . S
C243 H264 0.931 . S
C244 C243 1.392 . S
C244 C245 1.361 . S
C244 C246 1.500 . S
C245 C240 1.390 . S
C245 C244 1.361 . S
C245 H263 0.931 . S
C246 C244 1.500 . S
C246 C247 1.371 . S
C246 C248 1.365 . S
C247 C246 1.371 . S
C247 C257 1.386 . S
C247 H265 0.931 . S
C248 C246 1.365 . S
C248 C249 1.409 . S
C248 H266 0.929 . S
C249 C248 1.409 . S
C249 C250 1.380 . S
C249 H267 0.930 . S
C250 C249 1.380 . S
C250 C257 1.357 . S
C251 C242 1.511 . S
C251 C252 1.341 . S
C251 C253 1.371 . S
C252 C251 1.341 . S
C252 C256 1.394 . S
C252 H268 0.930 . S
C253 C251 1.371 . S
C253 C254 1.392 . S
C253 H269 0.931 . S
C254 C253 1.392 . S
C254 C255 1.331 . S
C254 H272 0.932 . S
C255 C254 1.331 . S
C255 C256 1.336 . S
C256 C252 1.394 . S
C256 C255 1.336 . S
C256 H271 0.929 . S
C257 C247 1.386 . S
C257 C250 1.357 . S
C257 H270 0.928 . S
H258 C234 0.931 . S
H259 C236 0.930 . S
H260 C238 0.929 . S
H261 C239 0.931 . S
H262 C241 0.930 . S
H263 C245 0.931 . S
H264 C243 0.931 . S
H265 C247 0.931 . S
H266 C248 0.929 . S
H267 C249 0.930 . S
H268 C252 0.930 . S
H269 C253 0.931 . S
H270 C257 0.928 . S
H271 C256 0.929 . S
H272 C254 0.932 . S
C273 C274 1.386 . S
C273 C275 1.397 . S
C273 H297 0.931 . S
C274 C273 1.386 . S
C274 C278 1.397 . S
C275 C273 1.397 . S
C275 C276 1.384 . S
C275 H298 0.930 . S
C276 C275 1.384 . S
C276 C277 1.377 . S
C276 C279 1.481 . S
C277 C276 1.377 . S
C277 C278 1.389 . S
C277 H299 0.929 . S
C278 C274 1.397 . S
C278 C277 1.389 . S
C278 H300 0.931 . S
C279 C276 1.481 . S
C279 C280 1.387 . S
C279 C284 1.390 . S
C280 C279 1.387 . S
C280 C281 1.401 . S
C280 H301 0.930 . S
C281 C280 1.401 . S
C281 C282 1.376 . S
C281 C290 1.511 . S
C282 C281 1.376 . S
C282 C283 1.392 . S
C282 H303 0.931 . S
C283 C282 1.392 . S
C283 C284 1.361 . S
C283 C285 1.500 . S
C284 C279 1.390 . S
C284 C283 1.361 . S
C284 H302 0.931 . S
C285 C283 1.500 . S
C285 C286 1.371 . S
C285 C287 1.365 . S
C286 C285 1.371 . S
C286 C296 1.386 . S
C286 H304 0.931 . S
C287 C285 1.365 . S
C287 C288 1.409 . S
C287 H305 0.929 . S
C288 C287 1.409 . S
C288 C289 1.380 . S
C288 H306 0.930 . S
C289 C288 1.380 . S
C289 C296 1.357 . S
C290 C281 1.511 . S
C290 C291 1.341 . S
C290 C292 1.371 . S
C291 C290 1.341 . S
C291 C295 1.394 . S
C291 H307 0.930 . S
C292 C290 1.371 . S
C292 C293 1.392 . S
C292 H308 0.931 . S
C293 C292 1.392 . S
C293 C294 1.331 . S
C293 H311 0.932 . S
C294 C293 1.331 . S
C294 C295 1.336 . S
C295 C291 1.394 . S
C295 C294 1.336 . S
C295 H310 0.929 . S
C296 C286 1.386 . S
C296 C289 1.357 . S
C296 H309 0.928 . S
H297 C273 0.931 . S
H298 C275 0.930 . S
H299 C277 0.929 . S
H300 C278 0.931 . S
H301 C280 0.930 . S
H302 C284 0.931 . S
H303 C282 0.931 . S
H304 C286 0.931 . S
H305 C287 0.929 . S
H306 C288 0.930 . S
H307 C291 0.930 . S
H308 C292 0.931 . S
H309 C296 0.928 . S
H310 C295 0.929 . S
H311 C293 0.932 . S
C312 C314 1.422 . S
C312 C316 1.415 . S
C312 N318 1.369 . S
C313 C314 1.421 . S
C313 C315 1.417 . S
C313 C325 1.422 . S
C314 C312 1.422 . S
C314 C313 1.421 . S
C314 N324 1.359 . S
C315 C313 1.417 . S
C315 C317 1.329 . S
C315 H334 0.930 . S
C316 C312 1.415 . S
C316 C317 1.437 . S
C316 C320 1.413 . S
C317 C315 1.329 . S
C317 C316 1.437 . S
C317 H339 0.929 . S
N318 C312 1.369 . S
N318 C319 1.338 . S
N318 Gd323 2.622 . S
C319 N318 1.338 . S
C319 C321 1.378 . S
C319 H331 0.929 . S
C320 C316 1.413 . S
C320 C321 1.348 . S
C320 H336 0.931 . S
C321 C319 1.378 . S
C321 C320 1.348 . S
C321 H337 0.930 . S
Gd322 N342 2.622 . S
Gd322 N349 2.570 . S
Gd322 O356 2.353 . S
Gd322 O357 2.468 . S
Gd322 O358 2.427 . S
Gd322 O360 2.388 . S
Gd322 O361 2.386 . S
Gd322 O365 2.327 . S
Gd322 C375 2.805 . S
Gd323 N318 2.622 . S
Gd323 N324 2.570 . S
Gd323 O355 2.386 . S
Gd323 O359 2.307 1_655 S
Gd323 O362 2.353 1_655 S
Gd323 O363 2.468 . S
Gd323 O364 2.427 . S
Gd323 O366 2.388 . S
Gd323 C387 2.805 . S
N324 C314 1.359 . S
N324 Gd323 2.570 . S
N324 C326 1.343 . S
C325 C313 1.422 . S
C325 C327 1.321 . S
C325 H333 0.931 . S
C326 N324 1.343 . S
C326 C327 1.390 . S
C326 H328 0.931 . S
C327 C325 1.321 . S
C327 C326 1.390 . S
C327 H329 0.930 . S
H328 C326 0.931 . S
H329 C327 0.930 . S
H330 C353 0.931 . S
H331 C319 0.929 . S
H332 C354 0.930 . S
H333 C325 0.931 . S
H334 C315 0.930 . S
H335 C344 0.929 . S
H336 C320 0.931 . S
H337 C321 0.930 . S
H338 C376 0.930 . S
H339 C317 0.929 . S
H340 C345 0.931 . S
H341 C346 0.930 . S
N342 Gd322 2.622 . S
N342 C343 1.369 . S
N342 C344 1.338 . S
C343 N342 1.369 . S
C343 C347 1.415 . S
C343 C350 1.422 . S
C344 H335 0.929 . S
C344 N342 1.338 . S
C344 C346 1.378 . S
C345 H340 0.931 . S
C345 C346 1.348 . S
C345 C347 1.413 . S
C346 H341 0.930 . S
C346 C344 1.378 . S
C346 C345 1.348 . S
C347 C343 1.415 . S
C347 C345 1.413 . S
C347 C377 1.437 . S
H348 C377 0.929 . S
N349 Gd322 2.570 . S
N349 C350 1.359 . S
N349 C353 1.343 . S
C350 C343 1.422 . S
C350 N349 1.359 . S
C350 C352 1.421 . S
C351 C352 1.422 . S
C351 C354 1.321 . S
C351 H378 0.931 . S
C352 C350 1.421 . S
C352 C351 1.422 . S
C352 C376 1.417 . S
C353 H330 0.931 . S
C353 N349 1.343 . S
C353 C354 1.390 . S
C354 H332 0.930 . S
C354 C351 1.321 . S
C354 C353 1.390 . S
O355 Gd323 2.386 . S
O355 C367 1.265 . S
O356 Gd322 2.353 . S
O356 C367 1.242 1_455 S
O357 Gd322 2.468 . S
O357 C375 1.263 . S
O358 Gd322 2.427 . S
O358 C375 1.252 . S
O359 Gd323 2.307 1_455 S
O359 C368 1.261 . S
O360 Gd322 2.388 . S
O360 C368 1.252 . S
O361 Gd322 2.386 . S
O361 C379 1.265 . S
O362 Gd323 2.353 1_455 S
O362 C379 1.242 . S
O363 Gd323 2.468 . S
O363 C387 1.263 . S
O364 Gd323 2.427 . S
O364 C387 1.252 . S
O365 Gd322 2.327 . S
O365 C380 1.238 1_455 S
O366 Gd323 2.388 . S
O366 C380 1.252 . S
C367 O355 1.265 . S
C367 O356 1.242 1_655 S
C368 O359 1.261 . S
C368 O360 1.252 . S
C369 C372 1.394 . S
C369 C374 1.370 . S
C369 C375 1.500 . S
C370 C373 1.383 . S
C370 C374 1.395 . S
C371 C372 1.396 . S
C371 C373 1.365 . S
C371 H388 0.929 . S
C372 C369 1.394 . S
C372 C371 1.396 . S
C372 H389 0.930 . S
C373 C370 1.383 . S
C373 C371 1.365 . S
C373 H390 0.931 . S
C374 C369 1.370 . S
C374 C370 1.395 . S
C374 H391 0.930 . S
C375 Gd322 2.805 . S
C375 O357 1.263 . S
C375 O358 1.252 . S
C375 C369 1.500 . S
C376 H338 0.930 . S
C376 C352 1.417 . S
C376 C377 1.329 . S
C377 C347 1.437 . S
C377 H348 0.929 . S
C377 C376 1.329 . S
H378 C351 0.931 . S
C379 O361 1.265 . S
C379 O362 1.242 . S
C380 O365 1.238 1_655 S
C380 O366 1.252 . S
C381 C384 1.394 . S
C381 C386 1.370 . S
C381 C387 1.500 . S
C382 C385 1.383 . S
C382 C386 1.395 . S
C383 C384 1.396 . S
C383 C385 1.365 . S
C383 H392 0.929 . S
C384 C381 1.394 . S
C384 C383 1.396 . S
C384 H393 0.930 . S
C385 C382 1.383 . S
C385 C383 1.365 . S
C385 H394 0.931 . S
C386 C381 1.370 . S
C386 C382 1.395 . S
C386 H395 0.930 . S
C387 Gd323 2.805 . S
C387 O363 1.263 . S
C387 O364 1.252 . S
C387 C381 1.500 . S
H388 C371 0.929 . S
H389 C372 0.930 . S
H390 C373 0.931 . S
H391 C374 0.930 . S
H392 C383 0.929 . S
H393 C384 0.930 . S
H394 C385 0.931 . S
H395 C386 0.930 . S
C396 C398 1.422 . S
C396 C400 1.415 . S
C396 N402 1.369 . S
C397 C398 1.421 . S
C397 C399 1.417 . S
C397 C409 1.422 . S
C398 C396 1.422 . S
C398 C397 1.421 . S
C398 N408 1.359 . S
C399 C397 1.417 . S
C399 C401 1.329 . S
C399 H418 0.930 . S
C400 C396 1.415 . S
C400 C401 1.437 . S
C400 C404 1.413 . S
C401 C399 1.329 . S
C401 C400 1.437 . S
C401 H423 0.929 . S
N402 C396 1.369 . S
N402 C403 1.338 . S
N402 Gd407 2.622 . S
C403 N402 1.338 . S
C403 C405 1.378 . S
C403 H415 0.929 . S
C404 C400 1.413 . S
C404 C405 1.348 . S
C404 H420 0.931 . S
C405 C403 1.378 . S
C405 C404 1.348 . S
C405 H421 0.930 . S
Gd406 N426 2.622 . S
Gd406 N433 2.570 . S
Gd406 O440 2.353 . S
Gd406 O441 2.468 . S
Gd406 O442 2.427 . S
Gd406 O444 2.388 . S
Gd406 O445 2.386 . S
Gd406 O449 2.307 . S
Gd406 C459 2.805 . S
Gd407 N402 2.622 . S
Gd407 N408 2.570 . S
Gd407 O439 2.386 . S
Gd407 O443 2.307 . S
Gd407 O446 2.353 . S
Gd407 O447 2.468 . S
Gd407 O448 2.427 . S
Gd407 O450 2.388 . S
Gd407 C471 2.805 . S
N408 C398 1.359 . S
N408 Gd407 2.570 . S
N408 C410 1.343 . S
C409 C397 1.422 . S
C409 C411 1.321 . S
C409 H417 0.931 . S
C410 N408 1.343 . S
C410 C411 1.390 . S
C410 H412 0.931 . S
C411 C409 1.321 . S
C411 C410 1.390 . S
C411 H413 0.930 . S
H412 C410 0.931 . S
H413 C411 0.930 . S
H414 C437 0.931 . S
H415 C403 0.929 . S
H416 C438 0.930 . S
H417 C409 0.931 . S
H418 C399 0.930 . S
H419 C428 0.929 . S
H420 C404 0.931 . S
H421 C405 0.930 . S
H422 C460 0.930 . S
H423 C401 0.929 . S
H424 C429 0.931 . S
H425 C430 0.930 . S
N426 Gd406 2.622 . S
N426 C427 1.369 . S
N426 C428 1.338 . S
C427 N426 1.369 . S
C427 C431 1.415 . S
C427 C434 1.422 . S
C428 H419 0.929 . S
C428 N426 1.338 . S
C428 C430 1.378 . S
C429 H424 0.931 . S
C429 C430 1.348 . S
C429 C431 1.413 . S
C430 H425 0.930 . S
C430 C428 1.378 . S
C430 C429 1.348 . S
C431 C427 1.415 . S
C431 C429 1.413 . S
C431 C461 1.437 . S
H432 C461 0.929 . S
N433 Gd406 2.570 . S
N433 C434 1.359 . S
N433 C437 1.343 . S
C434 C427 1.422 . S
C434 N433 1.359 . S
C434 C436 1.421 . S
C435 C436 1.422 . S
C435 C438 1.321 . S
C435 H462 0.931 . S
C436 C434 1.421 . S
C436 C435 1.422 . S
C436 C460 1.417 . S
C437 H414 0.931 . S
C437 N433 1.343 . S
C437 C438 1.390 . S
C438 H416 0.930 . S
C438 C435 1.321 . S
C438 C437 1.390 . S
O439 Gd407 2.386 . S
O439 C451 1.265 . S
O440 Gd406 2.353 . S
O440 C451 1.242 . S
O441 Gd406 2.468 . S
O441 C459 1.263 . S
O442 Gd406 2.427 . S
O442 C459 1.252 . S
O443 Gd407 2.307 . S
O443 C452 1.261 . S
O444 Gd406 2.388 . S
O444 C452 1.252 . S
O445 Gd406 2.386 . S
O445 C463 1.265 . S
O446 Gd407 2.353 . S
O446 C463 1.242 . S
O447 Gd407 2.468 . S
O447 C471 1.263 . S
O448 Gd407 2.427 . S
O448 C471 1.252 . S
O449 Gd406 2.307 . S
O449 C464 1.261 . S
O450 Gd407 2.388 . S
O450 C464 1.252 . S
C451 O439 1.265 . S
C451 O440 1.242 . S
C452 O443 1.261 . S
C452 O444 1.252 . S
C453 C456 1.394 . S
C453 C458 1.370 . S
C453 C459 1.500 . S
C454 C457 1.383 . S
C454 C458 1.395 . S
C455 C456 1.396 . S
C455 C457 1.365 . S
C455 H472 0.929 . S
C456 C453 1.394 . S
C456 C455 1.396 . S
C456 H473 0.930 . S
C457 C454 1.383 . S
C457 C455 1.365 . S
C457 H474 0.931 . S
C458 C453 1.370 . S
C458 C454 1.395 . S
C458 H475 0.930 . S
C459 Gd406 2.805 . S
C459 O441 1.263 . S
C459 O442 1.252 . S
C459 C453 1.500 . S
C460 H422 0.930 . S
C460 C436 1.417 . S
C460 C461 1.329 . S
C461 C431 1.437 . S
C461 H432 0.929 . S
C461 C460 1.329 . S
H462 C435 0.931 . S
C463 O445 1.265 . S
C463 O446 1.242 . S
C464 O449 1.261 . S
C464 O450 1.252 . S
C465 C468 1.394 . S
C465 C470 1.370 . S
C465 C471 1.500 . S
C466 C469 1.383 . S
C466 C470 1.395 . S
C467 C468 1.396 . S
C467 C469 1.365 . S
C467 H476 0.929 . S
C468 C465 1.394 . S
C468 C467 1.396 . S
C468 H477 0.930 . S
C469 C466 1.383 . S
C469 C467 1.365 . S
C469 H478 0.931 . S
C470 C465 1.370 . S
C470 C466 1.395 . S
C470 H479 0.930 . S
C471 Gd407 2.805 . S
C471 O447 1.263 . S
C471 O448 1.252 . S
C471 C465 1.500 . S
H472 C455 0.929 . S
H473 C456 0.930 . S
H474 C457 0.931 . S
H475 C458 0.930 . S
H476 C467 0.929 . S
H477 C468 0.930 . S
H478 C469 0.931 . S
H479 C470 0.930 . S
C480 C482 1.422 . S
C480 C484 1.415 . S
C480 N486 1.369 . S
C481 C482 1.421 . S
C481 C483 1.417 . S
C481 C493 1.422 . S
C482 C480 1.422 . S
C482 C481 1.421 . S
C482 N492 1.359 . S
C483 C481 1.417 . S
C483 C485 1.329 . S
C483 H502 0.930 . S
C484 C480 1.415 . S
C484 C485 1.437 . S
C484 C488 1.413 . S
C485 C483 1.329 . S
C485 C484 1.437 . S
C485 H507 0.929 . S
N486 C480 1.369 . S
N486 C487 1.338 . S
N486 Gd491 2.622 . S
C487 N486 1.338 . S
C487 C489 1.378 . S
C487 H499 0.929 . S
C488 C484 1.413 . S
C488 C489 1.348 . S
C488 H504 0.931 . S
C489 C487 1.378 . S
C489 C488 1.348 . S
C489 H505 0.930 . S
Gd490 N510 2.622 . S
Gd490 N517 2.570 . S
Gd490 O524 2.353 . S
Gd490 O525 2.468 . S
Gd490 O526 2.427 . S
Gd490 O528 2.388 . S
Gd490 O529 2.386 . S
Gd490 O533 2.307 . S
Gd490 C543 2.805 . S
Gd491 N486 2.622 . S
Gd491 N492 2.570 . S
Gd491 O523 2.386 . S
Gd491 O527 2.307 1_655 S
Gd491 O530 2.353 1_655 S
Gd491 O531 2.468 . S
Gd491 O532 2.427 . S
Gd491 O534 2.388 . S
Gd491 C555 2.805 . S
N492 C482 1.359 . S
N492 Gd491 2.570 . S
N492 C494 1.343 . S
C493 C481 1.422 . S
C493 C495 1.321 . S
C493 H501 0.931 . S
C494 N492 1.343 . S
C494 C495 1.390 . S
C494 H496 0.931 . S
C495 C493 1.321 . S
C495 C494 1.390 . S
C495 H497 0.930 . S
H496 C494 0.931 . S
H497 C495 0.930 . S
H498 C521 0.931 . S
H499 C487 0.929 . S
H500 C522 0.930 . S
H501 C493 0.931 . S
H502 C483 0.930 . S
H503 C512 0.929 . S
H504 C488 0.931 . S
H505 C489 0.930 . S
H506 C544 0.930 . S
H507 C485 0.929 . S
H508 C513 0.931 . S
H509 C514 0.930 . S
N510 Gd490 2.622 . S
N510 C511 1.369 . S
N510 C512 1.338 . S
C511 N510 1.369 . S
C511 C515 1.415 . S
C511 C518 1.422 . S
C512 H503 0.929 . S
C512 N510 1.338 . S
C512 C514 1.378 . S
C513 H508 0.931 . S
C513 C514 1.348 . S
C513 C515 1.413 . S
C514 H509 0.930 . S
C514 C512 1.378 . S
C514 C513 1.348 . S
C515 C511 1.415 . S
C515 C513 1.413 . S
C515 C545 1.437 . S
H516 C545 0.929 . S
N517 Gd490 2.570 . S
N517 C518 1.359 . S
N517 C521 1.343 . S
C518 C511 1.422 . S
C518 N517 1.359 . S
C518 C520 1.421 . S
C519 C520 1.422 . S
C519 C522 1.321 . S
C519 H546 0.931 . S
C520 C518 1.421 . S
C520 C519 1.422 . S
C520 C544 1.417 . S
C521 H498 0.931 . S
C521 N517 1.343 . S
C521 C522 1.390 . S
C522 H500 0.930 . S
C522 C519 1.321 . S
C522 C521 1.390 . S
O523 Gd491 2.386 . S
O523 C535 1.265 . S
O524 Gd490 2.353 . S
O524 C535 1.242 1_455 S
O525 Gd490 2.468 . S
O525 C543 1.263 . S
O526 Gd490 2.427 . S
O526 C543 1.252 . S
O527 Gd491 2.307 1_455 S
O527 C536 1.261 . S
O528 Gd490 2.388 . S
O528 C536 1.252 . S
O529 Gd490 2.386 . S
O529 C547 1.265 . S
O530 Gd491 2.353 1_455 S
O530 C547 1.242 . S
O531 Gd491 2.468 . S
O531 C555 1.263 . S
O532 Gd491 2.427 . S
O532 C555 1.252 . S
O533 Gd490 2.307 . S
O533 C548 1.261 1_455 S
O534 Gd491 2.388 . S
O534 C548 1.252 . S
C535 O523 1.265 . S
C535 O524 1.242 1_655 S
C536 O527 1.261 . S
C536 O528 1.252 . S
C537 C540 1.394 . S
C537 C542 1.370 . S
C537 C543 1.500 . S
C538 C541 1.383 . S
C538 C542 1.395 . S
C539 C540 1.396 . S
C539 C541 1.365 . S
C539 H556 0.929 . S
C540 C537 1.394 . S
C540 C539 1.396 . S
C540 H557 0.930 . S
C541 C538 1.383 . S
C541 C539 1.365 . S
C541 H558 0.931 . S
C542 C537 1.370 . S
C542 C538 1.395 . S
C542 H559 0.930 . S
C543 Gd490 2.805 . S
C543 O525 1.263 . S
C543 O526 1.252 . S
C543 C537 1.500 . S
C544 H506 0.930 . S
C544 C520 1.417 . S
C544 C545 1.329 . S
C545 C515 1.437 . S
C545 H516 0.929 . S
C545 C544 1.329 . S
H546 C519 0.931 . S
C547 O529 1.265 . S
C547 O530 1.242 . S
C548 O533 1.261 1_655 S
C548 O534 1.252 . S
C549 C552 1.394 . S
C549 C554 1.370 . S
C549 C555 1.500 . S
C550 C553 1.383 . S
C550 C554 1.395 . S
C551 C552 1.396 . S
C551 C553 1.365 . S
C551 H560 0.929 . S
C552 C549 1.394 . S
C552 C551 1.396 . S
C552 H561 0.930 . S
C553 C550 1.383 . S
C553 C551 1.365 . S
C553 H562 0.931 . S
C554 C549 1.370 . S
C554 C550 1.395 . S
C554 H563 0.930 . S
C555 Gd491 2.805 . S
C555 O531 1.263 . S
C555 O532 1.252 . S
C555 C549 1.500 . S
H556 C539 0.929 . S
H557 C540 0.930 . S
H558 C541 0.931 . S
H559 C542 0.930 . S
H560 C551 0.929 . S
H561 C552 0.930 . S
H562 C553 0.931 . S
H563 C554 0.930 . S
C564 C566 1.422 . S
C564 C568 1.415 . S
C564 N570 1.369 . S
C565 C566 1.421 . S
C565 C567 1.417 . S
C565 C577 1.422 . S
C566 C564 1.422 . S
C566 C565 1.421 . S
C566 N576 1.359 . S
C567 C565 1.417 . S
C567 C569 1.329 . S
C567 H586 0.930 . S
C568 C564 1.415 . S
C568 C569 1.437 . S
C568 C572 1.413 . S
C569 C567 1.329 . S
C569 C568 1.437 . S
C569 H591 0.929 . S
N570 C564 1.369 . S
N570 C571 1.338 . S
N570 Gd575 2.622 . S
C571 N570 1.338 . S
C571 C573 1.378 . S
C571 H583 0.929 . S
C572 C568 1.413 . S
C572 C573 1.348 . S
C572 H588 0.931 . S
C573 C571 1.378 . S
C573 C572 1.348 . S
C573 H589 0.930 . S
Gd574 N594 2.622 . S
Gd574 N601 2.570 . S
Gd574 O608 2.353 . S
Gd574 O609 2.468 . S
Gd574 O610 2.427 . S
Gd574 O612 2.388 . S
Gd574 O613 2.386 . S
Gd574 O617 2.307 . S
Gd574 C627 2.805 . S
Gd575 N570 2.622 . S
Gd575 N576 2.570 . S
Gd575 O607 2.386 . S
Gd575 O611 2.307 . S
Gd575 O614 2.353 . S
Gd575 O615 2.468 . S
Gd575 O616 2.427 . S
Gd575 O618 2.388 . S
Gd575 C639 2.805 . S
N576 C566 1.359 . S
N576 Gd575 2.570 . S
N576 C578 1.343 . S
C577 C565 1.422 . S
C577 C579 1.321 . S
C577 H585 0.931 . S
C578 N576 1.343 . S
C578 C579 1.390 . S
C578 H580 0.931 . S
C579 C577 1.321 . S
C579 C578 1.390 . S
C579 H581 0.930 . S
H580 C578 0.931 . S
H581 C579 0.930 . S
H582 C605 0.931 . S
H583 C571 0.929 . S
H584 C606 0.930 . S
H585 C577 0.931 . S
H586 C567 0.930 . S
H587 C596 0.929 . S
H588 C572 0.931 . S
H589 C573 0.930 . S
H590 C628 0.930 . S
H591 C569 0.929 . S
H592 C597 0.931 . S
H593 C598 0.930 . S
N594 Gd574 2.622 . S
N594 C595 1.369 . S
N594 C596 1.338 . S
C595 N594 1.369 . S
C595 C599 1.415 . S
C595 C602 1.422 . S
C596 H587 0.929 . S
C596 N594 1.338 . S
C596 C598 1.378 . S
C597 H592 0.931 . S
C597 C598 1.348 . S
C597 C599 1.413 . S
C598 H593 0.930 . S
C598 C596 1.378 . S
C598 C597 1.348 . S
C599 C595 1.415 . S
C599 C597 1.413 . S
C599 C629 1.437 . S
H600 C629 0.929 . S
N601 Gd574 2.570 . S
N601 C602 1.359 . S
N601 C605 1.343 . S
C602 C595 1.422 . S
C602 N601 1.359 . S
C602 C604 1.421 . S
C603 C604 1.422 . S
C603 C606 1.321 . S
C603 H630 0.931 . S
C604 C602 1.421 . S
C604 C603 1.422 . S
C604 C628 1.417 . S
C605 H582 0.931 . S
C605 N601 1.343 . S
C605 C606 1.390 . S
C606 H584 0.930 . S
C606 C603 1.321 . S
C606 C605 1.390 . S
O607 Gd575 2.386 . S
O607 C619 1.265 . S
O608 Gd574 2.353 . S
O608 C619 1.242 . S
O609 Gd574 2.468 . S
O609 C627 1.263 . S
O610 Gd574 2.427 . S
O610 C627 1.252 . S
O611 Gd575 2.307 . S
O611 C620 1.261 . S
O612 Gd574 2.388 . S
O612 C620 1.252 . S
O613 Gd574 2.386 . S
O613 C631 1.265 . S
O614 Gd575 2.353 . S
O614 C631 1.242 . S
O615 Gd575 2.468 . S
O615 C639 1.263 . S
O616 Gd575 2.427 . S
O616 C639 1.252 . S
O617 Gd574 2.307 . S
O617 C632 1.261 . S
O618 Gd575 2.388 . S
O618 C632 1.252 . S
C619 O607 1.265 . S
C619 O608 1.242 . S
C620 O611 1.261 . S
C620 O612 1.252 . S
C621 C624 1.394 . S
C621 C626 1.370 . S
C621 C627 1.500 . S
C622 C625 1.383 . S
C622 C626 1.395 . S
C623 C624 1.396 . S
C623 C625 1.365 . S
C623 H640 0.929 . S
C624 C621 1.394 . S
C624 C623 1.396 . S
C624 H641 0.930 . S
C625 C622 1.383 . S
C625 C623 1.365 . S
C625 H642 0.931 . S
C626 C621 1.370 . S
C626 C622 1.395 . S
C626 H643 0.930 . S
C627 Gd574 2.805 . S
C627 O609 1.263 . S
C627 O610 1.252 . S
C627 C621 1.500 . S
C628 H590 0.930 . S
C628 C604 1.417 . S
C628 C629 1.329 . S
C629 C599 1.437 . S
C629 H600 0.929 . S
C629 C628 1.329 . S
H630 C603 0.931 . S
C631 O613 1.265 . S
C631 O614 1.242 . S
C632 O617 1.261 . S
C632 O618 1.252 . S
C633 C636 1.394 . S
C633 C638 1.370 . S
C633 C639 1.500 . S
C634 C637 1.383 . S
C634 C638 1.395 . S
C635 C636 1.396 . S
C635 C637 1.365 . S
C635 H644 0.929 . S
C636 C633 1.394 . S
C636 C635 1.396 . S
C636 H645 0.930 . S
C637 C634 1.383 . S
C637 C635 1.365 . S
C637 H646 0.931 . S
C638 C633 1.370 . S
C638 C634 1.395 . S
C638 H647 0.930 . S
C639 Gd575 2.805 . S
C639 O615 1.263 . S
C639 O616 1.252 . S
C639 C633 1.500 . S
H640 C623 0.929 . S
H641 C624 0.930 . S
H642 C625 0.931 . S
H643 C626 0.930 . S
H644 C635 0.929 . S
H645 C636 0.930 . S
H646 C637 0.931 . S
H647 C638 0.930 . S
H648 C654 0.930 . S
H649 C658 0.930 . S
H650 C663 0.929 . S
H651 C661 0.929 . S
H652 C656 0.929 . S
H653 C662 0.929 1_565 S
C654 H648 0.930 . S
C654 C655 1.367 . S
C654 C662 1.378 1_565 S
C655 C654 1.367 . S
C655 C663 1.433 1_565 S
C656 H652 0.929 . S
C656 C658 1.378 . S
C656 C660 1.350 . S
C657 C660 1.463 . S
C657 C662 1.350 . S
C657 N665 1.427 . S
C658 H649 0.930 . S
C658 C656 1.378 . S
C658 C659 1.367 . S
C659 C658 1.367 . S
C659 C661 1.433 . S
C660 C656 1.350 . S
C660 C657 1.463 . S
C660 N664 1.427 . S
C661 H651 0.929 . S
C661 C659 1.433 . S
C661 N664 1.384 . S
C662 H653 0.929 1_545 S
C662 C654 1.378 1_545 S
C662 C657 1.350 . S
C663 H650 0.929 . S
C663 C655 1.433 1_545 S
C663 N665 1.384 . S
N664 C660 1.427 . S
N664 C661 1.384 . S
N665 C657 1.427 . S
N665 C663 1.384 . S
H666 C672 0.930 . S
H667 C676 0.930 . S
H668 C681 0.929 . S
H669 C679 0.929 . S
H670 C674 0.929 . S
H671 C680 0.929 . S
C672 H666 0.930 . S
C672 C673 1.367 . S
C672 C680 1.378 . S
C673 C672 1.367 . S
C673 C681 1.433 . S
C674 H670 0.929 . S
C674 C676 1.378 . S
C674 C678 1.350 . S
C675 C678 1.463 . S
C675 C680 1.350 . S
C675 N683 1.427 . S
C676 H667 0.930 . S
C676 C674 1.378 . S
C676 C677 1.367 . S
C677 C676 1.367 . S
C677 C679 1.433 . S
C678 C674 1.350 . S
C678 C675 1.463 . S
C678 N682 1.427 . S
C679 H669 0.929 . S
C679 C677 1.433 . S
C679 N682 1.384 . S
C680 H671 0.929 . S
C680 C672 1.378 . S
C680 C675 1.350 . S
C681 H668 0.929 . S
C681 C673 1.433 . S
C681 N683 1.384 . S
N682 C678 1.427 . S
N682 C679 1.384 . S
N683 C675 1.427 . S
N683 C681 1.384 . S
H684 C690 0.930 . S
H685 C694 0.930 . S
H686 C699 0.929 . S
H687 C697 0.929 . S
H688 C692 0.929 . S
H689 C698 0.929 . S
C690 H684 0.930 . S
C690 C691 1.367 . S
C690 C698 1.378 . S
C691 C690 1.367 . S
C691 C699 1.433 . S
C692 H688 0.929 . S
C692 C694 1.378 . S
C692 C696 1.350 . S
C693 C696 1.463 . S
C693 C698 1.350 . S
C693 N701 1.427 . S
C694 H685 0.930 . S
C694 C692 1.378 . S
C694 C695 1.367 . S
C695 C694 1.367 . S
C695 C697 1.433 . S
C696 C692 1.350 . S
C696 C693 1.463 . S
C696 N700 1.427 . S
C697 H687 0.929 . S
C697 C695 1.433 . S
C697 N700 1.384 . S
C698 H689 0.929 . S
C698 C690 1.378 . S
C698 C693 1.350 . S
C699 H686 0.929 . S
C699 C691 1.433 . S
C699 N701 1.384 . S
N700 C696 1.427 . S
N700 C697 1.384 . S
N701 C693 1.427 . S
N701 C699 1.384 . S
H702 C708 0.930 . S
H703 C712 0.930 . S
H704 C717 0.929 . S
H705 C715 0.929 . S
H706 C710 0.929 . S
H707 C716 0.929 . S
C708 H702 0.930 . S
C708 C709 1.367 . S
C708 C716 1.378 1_565 S
C709 C708 1.367 . S
C709 C717 1.433 1_565 S
C710 H706 0.929 . S
C710 C712 1.378 . S
C710 C714 1.350 . S
C711 C714 1.463 . S
C711 C716 1.350 . S
C711 N719 1.427 . S
C712 H703 0.930 . S
C712 C710 1.378 . S
C712 C713 1.367 . S
C713 C712 1.367 . S
C713 C715 1.433 . S
C714 C710 1.350 . S
C714 C711 1.463 . S
C714 N718 1.427 . S
C715 H705 0.929 . S
C715 C713 1.433 . S
C715 N718 1.384 . S
C716 H707 0.929 . S
C716 C708 1.378 1_545 S
C716 C711 1.350 . S
C717 H704 0.929 . S
C717 C709 1.433 1_545 S
C717 N719 1.384 . S
N718 C714 1.427 . S
N718 C715 1.384 . S
N719 C711 1.427 . S
N719 C717 1.384 . S
H720 C726 0.930 . S
H721 C730 0.930 . S
H722 C735 0.929 . S
H723 C733 0.929 . S
H724 C728 0.929 . S
H725 C734 0.929 . S
C726 H720 0.930 . S
C726 C727 1.367 . S
C726 C734 1.378 1_545 S
C727 C726 1.367 . S
C727 C735 1.433 1_545 S
C728 H724 0.929 . S
C728 C730 1.378 . S
C728 C732 1.350 . S
C729 C732 1.463 . S
C729 C734 1.350 . S
C729 N737 1.427 . S
C730 H721 0.930 . S
C730 C728 1.378 . S
C730 C731 1.367 . S
C731 C730 1.367 . S
C731 C733 1.433 . S
C732 C728 1.350 . S
C732 C729 1.463 . S
C732 N736 1.427 . S
C733 H723 0.929 . S
C733 C731 1.433 . S
C733 N736 1.384 . S
C734 H725 0.929 . S
C734 C726 1.378 1_565 S
C734 C729 1.350 . S
C735 H722 0.929 . S
C735 C727 1.433 1_565 S
C735 N737 1.384 . S
N736 C732 1.427 . S
N736 C733 1.384 . S
N737 C729 1.427 . S
N737 C735 1.384 . S
H738 C744 0.930 . S
H739 C748 0.930 . S
H740 C753 0.929 . S
H741 C751 0.929 . S
H742 C746 0.929 . S
H743 C752 0.929 . S
C744 H738 0.930 . S
C744 C745 1.367 . S
C744 C752 1.378 . S
C745 C744 1.367 . S
C745 C753 1.433 . S
C746 H742 0.929 . S
C746 C748 1.378 . S
C746 C750 1.350 . S
C747 C750 1.463 . S
C747 C752 1.350 . S
C747 N755 1.427 . S
C748 H739 0.930 . S
C748 C746 1.378 . S
C748 C749 1.367 . S
C749 C748 1.367 . S
C749 C751 1.433 . S
C750 C746 1.350 . S
C750 C747 1.463 . S
C750 N754 1.427 . S
C751 H741 0.929 . S
C751 C749 1.433 . S
C751 N754 1.384 . S
C752 H743 0.929 . S
C752 C744 1.378 . S
C752 C747 1.350 . S
C753 H740 0.929 . S
C753 C745 1.433 . S
C753 N755 1.384 . S
N754 C750 1.427 . S
N754 C751 1.384 . S
N755 C747 1.427 . S
N755 C753 1.384 . S
H756 C762 0.930 . S
H757 C766 0.930 . S
H758 C771 0.929 . S
H759 C769 0.929 . S
H760 C764 0.929 . S
H761 C770 0.929 . S
C762 H756 0.930 . S
C762 C763 1.367 . S
C762 C770 1.378 . S
C763 C762 1.367 . S
C763 C771 1.433 . S
C764 H760 0.929 . S
C764 C766 1.378 . S
C764 C768 1.350 . S
C765 C768 1.463 . S
C765 C770 1.350 . S
C765 N773 1.427 . S
C766 H757 0.930 . S
C766 C764 1.378 . S
C766 C767 1.367 . S
C767 C766 1.367 . S
C767 C769 1.433 . S
C768 C764 1.350 . S
C768 C765 1.463 . S
C768 N772 1.427 . S
C769 H759 0.929 . S
C769 C767 1.433 . S
C769 N772 1.384 . S
C770 H761 0.929 . S
C770 C762 1.378 . S
C770 C765 1.350 . S
C771 H758 0.929 . S
C771 C763 1.433 . S
C771 N773 1.384 . S
N772 C768 1.427 . S
N772 C769 1.384 . S
N773 C765 1.427 . S
N773 C771 1.384 . S
H774 C780 0.930 . S
H775 C784 0.930 . S
H776 C789 0.929 . S
H777 C787 0.929 . S
H778 C782 0.929 . S
H779 C788 0.929 . S
C780 H774 0.930 . S
C780 C781 1.367 1_565 S
C780 C788 1.378 . S
C781 C780 1.367 1_545 S
C781 C789 1.433 . S
C782 H778 0.929 . S
C782 C784 1.378 . S
C782 C786 1.350 . S
C783 C786 1.463 . S
C783 C788 1.350 . S
C783 N791 1.427 . S
C784 H775 0.930 . S
C784 C782 1.378 . S
C784 C785 1.367 . S
C785 C784 1.367 . S
C785 C787 1.433 . S
C786 C782 1.350 . S
C786 C783 1.463 . S
C786 N790 1.427 . S
C787 H777 0.929 . S
C787 C785 1.433 . S
C787 N790 1.384 . S
C788 H779 0.929 . S
C788 C780 1.378 . S
C788 C783 1.350 . S
C789 H776 0.929 . S
C789 C781 1.433 . S
C789 N791 1.384 1_545 S
N790 C786 1.427 . S
N790 C787 1.384 . S
N791 C783 1.427 . S
N791 C789 1.384 1_565 S
H792 C798 0.930 . S
H793 C802 0.930 . S
H794 C807 0.929 . S
H795 C805 0.929 . S
H796 C800 0.929 . S
H797 C806 0.929 . S
C798 H792 0.930 . S
C798 C799 1.367 . S
C798 C806 1.378 . S
C799 C798 1.367 . S
C799 C807 1.433 . S
C800 H796 0.929 . S
C800 C802 1.378 . S
C800 C804 1.350 . S
C801 C804 1.463 . S
C801 C806 1.350 . S
C801 N809 1.427 . S
C802 H793 0.930 . S
C802 C800 1.378 . S
C802 C803 1.367 . S
C803 C802 1.367 . S
C803 C805 1.433 . S
C804 C800 1.350 . S
C804 C801 1.463 . S
C804 N808 1.427 . S
C805 H795 0.929 . S
C805 C803 1.433 . S
C805 N808 1.384 . S
C806 H797 0.929 . S
C806 C798 1.378 . S
C806 C801 1.350 . S
C807 H794 0.929 . S
C807 C799 1.433 . S
C807 N809 1.384 . S
N808 C804 1.427 . S
N808 C805 1.384 . S
N809 C801 1.427 . S
N809 C807 1.384 . S
H810 C816 0.930 . S
H811 C820 0.930 . S
H812 C825 0.929 . S
H813 C823 0.929 . S
H814 C818 0.929 . S
H815 C824 0.929 . S
C816 H810 0.930 . S
C816 C817 1.367 . S
C816 C824 1.378 . S
C817 C816 1.367 . S
C817 C825 1.433 . S
C818 H814 0.929 . S
C818 C820 1.378 . S
C818 C822 1.350 . S
C819 C822 1.463 . S
C819 C824 1.350 . S
C819 N827 1.427 . S
C820 H811 0.930 . S
C820 C818 1.378 . S
C820 C821 1.367 . S
C821 C820 1.367 . S
C821 C823 1.433 . S
C822 C818 1.350 . S
C822 C819 1.463 . S
C822 N826 1.427 . S
C823 H813 0.929 . S
C823 C821 1.433 . S
C823 N826 1.384 . S
C824 H815 0.929 . S
C824 C816 1.378 . S
C824 C819 1.350 . S
C825 H812 0.929 . S
C825 C817 1.433 . S
C825 N827 1.384 . S
N826 C822 1.427 . S
N826 C823 1.384 . S
N827 C819 1.427 . S
N827 C825 1.384 . S
H828 C834 0.930 . S
H829 C838 0.930 . S
H830 C843 0.929 . S
H831 C841 0.929 . S
H832 C836 0.929 . S
H833 C842 0.929 . S
C834 H828 0.930 . S
C834 C835 1.367 . S
C834 C842 1.378 . S
C835 C834 1.367 . S
C835 C843 1.433 . S
C836 H832 0.929 . S
C836 C838 1.378 . S
C836 C840 1.350 . S
C837 C840 1.463 . S
C837 C842 1.350 . S
C837 N845 1.427 . S
C838 H829 0.930 . S
C838 C836 1.378 . S
C838 C839 1.367 . S
C839 C838 1.367 . S
C839 C841 1.433 . S
C840 C836 1.350 . S
C840 C837 1.463 . S
C840 N844 1.427 . S
C841 H831 0.929 . S
C841 C839 1.433 . S
C841 N844 1.384 . S
C842 H833 0.929 . S
C842 C834 1.378 . S
C842 C837 1.350 . S
C843 H830 0.929 . S
C843 C835 1.433 . S
C843 N845 1.384 . S
N844 C840 1.427 . S
N844 C841 1.384 . S
N845 C837 1.427 . S
N845 C843 1.384 . S
H846 C852 0.930 . S
H847 C856 0.930 . S
H848 C861 0.929 . S
H849 C859 0.929 . S
H850 C854 0.929 . S
H851 C860 0.929 . S
C852 H846 0.930 . S
C852 C853 1.367 . S
C852 C860 1.378 . S
C853 C852 1.367 . S
C853 C861 1.433 . S
C854 H850 0.929 . S
C854 C856 1.378 . S
C854 C858 1.350 . S
C855 C858 1.463 . S
C855 C860 1.350 . S
C855 N863 1.427 . S
C856 H847 0.930 . S
C856 C854 1.378 . S
C856 C857 1.367 . S
C857 C856 1.367 . S
C857 C859 1.433 . S
C858 C854 1.350 . S
C858 C855 1.463 . S
C858 N862 1.427 . S
C859 H849 0.929 . S
C859 C857 1.433 . S
C859 N862 1.384 . S
C860 H851 0.929 . S
C860 C852 1.378 . S
C860 C855 1.350 . S
C861 H848 0.929 . S
C861 C853 1.433 . S
C861 N863 1.384 . S
N862 C858 1.427 . S
N862 C859 1.384 . S
N863 C855 1.427 . S
N863 C861 1.384 . S
H864 C870 0.930 . S
H865 C874 0.930 . S
H866 C879 0.929 . S
H867 C877 0.929 . S
H868 C872 0.929 . S
H869 C878 0.929 . S
C870 H864 0.930 . S
C870 C871 1.367 . S
C870 C878 1.378 . S
C871 C870 1.367 . S
C871 C879 1.433 . S
C872 H868 0.929 . S
C872 C874 1.378 . S
C872 C876 1.350 . S
C873 C876 1.463 . S
C873 C878 1.350 . S
C873 N881 1.427 . S
C874 H865 0.930 . S
C874 C872 1.378 . S
C874 C875 1.367 . S
C875 C874 1.367 . S
C875 C877 1.433 . S
C876 C872 1.350 . S
C876 C873 1.463 . S
C876 N880 1.427 . S
C877 H867 0.929 . S
C877 C875 1.433 . S
C877 N880 1.384 . S
C878 H869 0.929 . S
C878 C870 1.378 . S
C878 C873 1.350 . S
C879 H866 0.929 . S
C879 C871 1.433 . S
C879 N881 1.384 . S
N880 C876 1.427 . S
N880 C877 1.384 . S
N881 C873 1.427 . S
N881 C879 1.384 . S
H882 C888 0.930 . S
H883 C892 0.930 . S
H884 C897 0.929 . S
H885 C895 0.929 . S
H886 C890 0.929 . S
H887 C896 0.929 . S
C888 H882 0.930 . S
C888 C889 1.367 . S
C888 C896 1.378 . S
C889 C888 1.367 . S
C889 C897 1.433 . S
C890 H886 0.929 . S
C890 C892 1.378 . S
C890 C894 1.350 . S
C891 C894 1.463 . S
C891 C896 1.350 . S
C891 N899 1.427 . S
C892 H883 0.930 . S
C892 C890 1.378 . S
C892 C893 1.367 . S
C893 C892 1.367 . S
C893 C895 1.433 . S
C894 C890 1.350 . S
C894 C891 1.463 . S
C894 N898 1.427 . S
C895 H885 0.929 . S
C895 C893 1.433 . S
C895 N898 1.384 . S
C896 H887 0.929 . S
C896 C888 1.378 . S
C896 C891 1.350 . S
C897 H884 0.929 . S
C897 C889 1.433 . S
C897 N899 1.384 . S
N898 C894 1.427 . S
N898 C895 1.384 . S
N899 C891 1.427 . S
N899 C897 1.384 . S
H900 C906 0.930 . S
H901 C910 0.930 . S
H902 C915 0.929 . S
H903 C913 0.929 . S
H904 C908 0.929 . S
H905 C914 0.929 . S
C906 H900 0.930 . S
C906 C907 1.367 . S
C906 C914 1.378 . S
C907 C906 1.367 . S
C907 C915 1.433 . S
C908 H904 0.929 . S
C908 C910 1.378 . S
C908 C912 1.350 . S
C909 C912 1.463 . S
C909 C914 1.350 . S
C909 N917 1.427 . S
C910 H901 0.930 . S
C910 C908 1.378 . S
C910 C911 1.367 . S
C911 C910 1.367 . S
C911 C913 1.433 . S
C912 C908 1.350 . S
C912 C909 1.463 . S
C912 N916 1.427 . S
C913 H903 0.929 . S
C913 C911 1.433 . S
C913 N916 1.384 . S
C914 H905 0.929 . S
C914 C906 1.378 . S
C914 C909 1.350 . S
C915 H902 0.929 . S
C915 C907 1.433 . S
C915 N917 1.384 . S
N916 C912 1.427 . S
N916 C913 1.384 . S
N917 C909 1.427 . S
N917 C915 1.384 . S
H918 C924 0.930 . S
H919 C928 0.930 . S
H920 C933 0.929 . S
H921 C931 0.929 . S
H922 C926 0.929 . S
H923 C932 0.929 . S
C924 H918 0.930 . S
C924 C925 1.367 . S
C924 C932 1.378 . S
C925 C924 1.367 . S
C925 C933 1.433 . S
C926 H922 0.929 . S
C926 C928 1.378 . S
C926 C930 1.350 . S
C927 C930 1.463 . S
C927 C932 1.350 . S
C927 N935 1.427 . S
C928 H919 0.930 . S
C928 C926 1.378 . S
C928 C929 1.367 . S
C929 C928 1.367 . S
C929 C931 1.433 . S
C930 C926 1.350 . S
C930 C927 1.463 . S
C930 N934 1.427 . S
C931 H921 0.929 . S
C931 C929 1.433 . S
C931 N934 1.384 . S
C932 H923 0.929 . S
C932 C924 1.378 . S
C932 C927 1.350 . S
C933 H920 0.929 . S
C933 C925 1.433 . S
C933 N935 1.384 . S
N934 C930 1.427 . S
N934 C931 1.384 . S
N935 C927 1.427 . S
N935 C933 1.384 . S
H936 C942 0.930 . S
H937 C946 0.930 . S
H938 C951 0.929 . S
H939 C949 0.929 . S
H940 C944 0.929 . S
H941 C950 0.929 . S
C942 H936 0.930 . S
C942 C943 1.367 . S
C942 C950 1.378 . S
C943 C942 1.367 . S
C943 C951 1.433 . S
C944 H940 0.929 . S
C944 C946 1.378 . S
C944 C948 1.350 . S
C945 C948 1.463 . S
C945 C950 1.350 . S
C945 N953 1.427 . S
C946 H937 0.930 . S
C946 C944 1.378 . S
C946 C947 1.367 . S
C947 C946 1.367 . S
C947 C949 1.433 . S
C948 C944 1.350 . S
C948 C945 1.463 . S
C948 N952 1.427 . S
C949 H939 0.929 . S
C949 C947 1.433 . S
C949 N952 1.384 . S
C950 H941 0.929 . S
C950 C942 1.378 . S
C950 C945 1.350 . S
C951 H938 0.929 . S
C951 C943 1.433 . S
C951 N953 1.384 . S
N952 C948 1.427 . S
N952 C949 1.384 . S
N953 C945 1.427 . S
N953 C951 1.384 . S
H954 C960 0.930 . S
H955 C964 0.930 . S
H956 C969 0.929 . S
H957 C967 0.929 . S
H958 C962 0.929 . S
H959 C968 0.929 . S
C960 H954 0.930 . S
C960 C961 1.367 . S
C960 C968 1.378 . S
C961 C960 1.367 . S
C961 C969 1.433 . S
C962 H958 0.929 . S
C962 C964 1.378 . S
C962 C966 1.350 . S
C963 C966 1.463 . S
C963 C968 1.350 . S
C963 N971 1.427 . S
C964 H955 0.930 . S
C964 C962 1.378 . S
C964 C965 1.367 . S
C965 C964 1.367 . S
C965 C967 1.433 . S
C966 C962 1.350 . S
C966 C963 1.463 . S
C966 N970 1.427 . S
C967 H957 0.929 . S
C967 C965 1.433 . S
C967 N970 1.384 . S
C968 H959 0.929 . S
C968 C960 1.378 . S
C968 C963 1.350 . S
C969 H956 0.929 . S
C969 C961 1.433 . S
C969 N971 1.384 . S
N970 C966 1.427 . S
N970 C967 1.384 . S
N971 C963 1.427 . S
N971 C969 1.384 . S
H972 C978 0.930 . S
H973 C982 0.930 . S
H974 C987 0.929 . S
H975 C985 0.929 . S
H976 C980 0.929 . S
H977 C986 0.929 . S
C978 H972 0.930 . S
C978 C979 1.367 . S
C978 C986 1.378 . S
C979 C978 1.367 . S
C979 C987 1.433 . S
C980 H976 0.929 . S
C980 C982 1.378 . S
C980 C984 1.350 . S
C981 C984 1.463 . S
C981 C986 1.350 . S
C981 N989 1.427 . S
C982 H973 0.930 . S
C982 C980 1.378 . S
C982 C983 1.367 . S
C983 C982 1.367 . S
C983 C985 1.433 . S
C984 C980 1.350 . S
C984 C981 1.463 . S
C984 N988 1.427 . S
C985 H975 0.929 . S
C985 C983 1.433 . S
C985 N988 1.384 . S
C986 H977 0.929 . S
C986 C978 1.378 . S
C986 C981 1.350 . S
C987 H974 0.929 . S
C987 C979 1.433 . S
C987 N989 1.384 . S
N988 C984 1.427 . S
N988 C985 1.384 . S
N989 C981 1.427 . S
N989 C987 1.384 . S
H990 C996 0.930 . S
H991 C1000 0.930 . S
H992 C1005 0.929 . S
H993 C1003 0.929 . S
H994 C998 0.929 . S
H995 C1004 0.929 . S
C996 H990 0.930 . S
C996 C997 1.367 . S
C996 C1004 1.378 . S
C997 C996 1.367 . S
C997 C1005 1.433 . S
C998 H994 0.929 . S
C998 C1000 1.378 . S
C998 C1002 1.350 . S
C999 C1002 1.463 . S
C999 C1004 1.350 . S
C999 N1007 1.427 . S
C1000 H991 0.930 . S
C1000 C998 1.378 . S
C1000 C1001 1.367 . S
C1001 C1000 1.367 . S
C1001 C1003 1.433 . S
C1002 C998 1.350 . S
C1002 C999 1.463 . S
C1002 N1006 1.427 . S
C1003 H993 0.929 . S
C1003 C1001 1.433 . S
C1003 N1006 1.384 . S
C1004 H995 0.929 . S
C1004 C996 1.378 . S
C1004 C999 1.350 . S
C1005 H992 0.929 . S
C1005 C997 1.433 . S
C1005 N1007 1.384 . S
N1006 C1002 1.427 . S
N1006 C1003 1.384 . S
N1007 C999 1.427 . S
N1007 C1005 1.384 . S
H1008 C1014 0.930 . S
H1009 C1018 0.930 . S
H1010 C1023 0.929 . S
H1011 C1021 0.929 1_455 S
H1012 C1016 0.929 . S
H1013 C1022 0.929 . S
C1014 H1008 0.930 . S
C1014 C1015 1.367 . S
C1014 C1022 1.378 . S
C1015 C1014 1.367 . S
C1015 C1023 1.433 . S
C1016 H1012 0.929 . S
C1016 C1018 1.378 . S
C1016 C1020 1.350 . S
C1017 C1020 1.463 . S
C1017 C1022 1.350 . S
C1017 N1025 1.427 . S
C1018 H1009 0.930 . S
C1018 C1016 1.378 . S
C1018 C1019 1.367 . S
C1019 C1018 1.367 . S
C1019 C1021 1.433 . S
C1020 C1016 1.350 . S
C1020 C1017 1.463 . S
C1020 N1024 1.427 . S
C1021 H1011 0.929 1_655 S
C1021 C1019 1.433 . S
C1021 N1024 1.384 . S
C1022 H1013 0.929 . S
C1022 C1014 1.378 . S
C1022 C1017 1.350 . S
C1023 H1010 0.929 . S
C1023 C1015 1.433 . S
C1023 N1025 1.384 . S
N1024 C1020 1.427 . S
N1024 C1021 1.384 . S
N1025 C1017 1.427 . S
N1025 C1023 1.384 . S
H1026 C1032 0.930 . S
H1027 C1036 0.930 . S
H1028 C1041 0.929 . S
H1029 C1039 0.929 . S
H1030 C1034 0.929 . S
H1031 C1040 0.929 . S
C1032 H1026 0.930 . S
C1032 C1033 1.367 . S
C1032 C1040 1.378 . S
C1033 C1032 1.367 . S
C1033 C1041 1.433 . S
C1034 H1030 0.929 . S
C1034 C1036 1.378 . S
C1034 C1038 1.350 . S
C1035 C1038 1.463 . S
C1035 C1040 1.350 . S
C1035 N1043 1.427 . S
C1036 H1027 0.930 . S
C1036 C1034 1.378 . S
C1036 C1037 1.367 . S
C1037 C1036 1.367 . S
C1037 C1039 1.433 . S
C1038 C1034 1.350 . S
C1038 C1035 1.463 . S
C1038 N1042 1.427 . S
C1039 H1029 0.929 . S
C1039 C1037 1.433 . S
C1039 N1042 1.384 . S
C1040 H1031 0.929 . S
C1040 C1032 1.378 . S
C1040 C1035 1.350 . S
C1041 H1028 0.929 . S
C1041 C1033 1.433 . S
C1041 N1043 1.384 . S
N1042 C1038 1.427 . S
N1042 C1039 1.384 . S
N1043 C1035 1.427 . S
N1043 C1041 1.384 . S
H1044 C1050 0.930 . S
H1045 C1054 0.930 . S
H1046 C1059 0.929 . S
H1047 C1057 0.929 . S
H1048 C1052 0.929 . S
H1049 C1058 0.929 . S
C1050 H1044 0.930 . S
C1050 C1051 1.367 . S
C1050 C1058 1.378 . S
C1051 C1050 1.367 . S
C1051 C1059 1.433 . S
C1052 H1048 0.929 . S
C1052 C1054 1.378 . S
C1052 C1056 1.350 . S
C1053 C1056 1.463 . S
C1053 C1058 1.350 . S
C1053 N1061 1.427 . S
C1054 H1045 0.930 . S
C1054 C1052 1.378 . S
C1054 C1055 1.367 . S
C1055 C1054 1.367 . S
C1055 C1057 1.433 . S
C1056 C1052 1.350 . S
C1056 C1053 1.463 . S
C1056 N1060 1.427 . S
C1057 H1047 0.929 . S
C1057 C1055 1.433 . S
C1057 N1060 1.384 . S
C1058 H1049 0.929 . S
C1058 C1050 1.378 . S
C1058 C1053 1.350 . S
C1059 H1046 0.929 . S
C1059 C1051 1.433 . S
C1059 N1061 1.384 . S
N1060 C1056 1.427 . S
N1060 C1057 1.384 . S
N1061 C1053 1.427 . S
N1061 C1059 1.384 . S
H1062 C1068 0.930 . S
H1063 C1072 0.930 . S
H1064 C1077 0.929 . S
H1065 C1075 0.929 . S
H1066 C1070 0.929 . S
H1067 C1076 0.929 . S
C1068 H1062 0.930 . S
C1068 C1069 1.367 . S
C1068 C1076 1.378 . S
C1069 C1068 1.367 . S
C1069 C1077 1.433 . S
C1070 H1066 0.929 . S
C1070 C1072 1.378 . S
C1070 C1074 1.350 . S
C1071 C1074 1.463 . S
C1071 C1076 1.350 . S
C1071 N1079 1.427 . S
C1072 H1063 0.930 . S
C1072 C1070 1.378 . S
C1072 C1073 1.367 . S
C1073 C1072 1.367 . S
C1073 C1075 1.433 . S
C1074 C1070 1.350 . S
C1074 C1071 1.463 . S
C1074 N1078 1.427 . S
C1075 H1065 0.929 . S
C1075 C1073 1.433 . S
C1075 N1078 1.384 . S
C1076 H1067 0.929 . S
C1076 C1068 1.378 . S
C1076 C1071 1.350 . S
C1077 H1064 0.929 . S
C1077 C1069 1.433 . S
C1077 N1079 1.384 . S
N1078 C1074 1.427 . S
N1078 C1075 1.384 . S
N1079 C1071 1.427 . S
N1079 C1077 1.384 . S
C655 C235 1.478 . S
C659 C368 1.470 . S
C677 C452 1.460 . S
C673 C289 1.480 . S
C695 C451 1.476 . S
C691 C157 1.474 . S
C709 C211 1.470 . S
C713 C367 1.470 . S
C731 C548 1.469 . S
C727 C79 1.481 . S
C749 C632 1.472 . S
C745 C118 1.483 . S
C763 C1 1.471 . S
C767 C631 1.470 . S
C781 C40 1.477 . S
C785 C547 1.477 . S
C803 C370 1.345 . S
C799 C55 1.517 1_554 S
C821 C454 1.345 . S
C817 C16 1.516 . S
C839 C466 1.396 . S
C835 C133 1.538 1_556 S
C857 C382 1.402 . S
C853 C94 1.536 . S
C875 C550 1.326 . S
C871 C196 1.519 1_556 S
C889 C172 1.520 . S
C893 C634 1.341 . S
C911 C622 1.415 . S
C907 C274 1.544 1_554 S
C925 C250 1.543 . S
C929 C538 1.415 . S
C947 C379 1.583 . S
C943 C21 1.582 . S
C965 C463 1.587 . S
C961 C60 1.585 . S
C979 C99 1.568 . S
C983 C464 1.553 . S
C1001 C380 1.556 . S
C997 C138 1.572 . S
C1019 C535 1.589 . S
C1015 C177 1.584 . S
C1033 C216 1.583 . S
C1037 C619 1.589 . S
C1051 C255 1.572 . S
C1055 C620 1.562 . S
C1069 C294 1.568 . S
C1073 C536 1.564 . S
