# Generated by pormake.
# Topology csq, (4,8)-cn, num edge types: 1
# Building blocks:
#     Node 0, Type 0, BuildingBlock: AZAVOO_clean_linker_0, # of connection points: 4
#     Node 1, Type 0, BuildingBlock: AZAVOO_clean_linker_0, # of connection points: 4
#     Node 2, Type 0, BuildingBlock: AZAVOO_clean_linker_0, # of connection points: 4
#     Node 3, Type 0, BuildingBlock: AZAVOO_clean_linker_0, # of connection points: 4
#     Node 4, Type 0, BuildingBlock: AZAVOO_clean_linker_0, # of connection points: 4
#     Node 5, Type 0, BuildingBlock: AZAVOO_clean_linker_0, # of connection points: 4
#     Node 6, Type 1, BuildingBlock: TAGTUT_clean_sbu_1, # of connection points: 8
#     Node 7, Type 1, BuildingBlock: TAGTUT_clean_sbu_1, # of connection points: 8
#     Node 8, Type 1, BuildingBlock: TAGTUT_clean_sbu_1, # of connection points: 8
#     Edge 9, Type (0, 1), BuildingBlock: XIVTED_clean_linker_0, # of connection points: 2
#     Edge 10, Type (0, 1), BuildingBlock: XIVTED_clean_linker_0, # of connection points: 2
#     Edge 11, Type (0, 1), BuildingBlock: XIVTED_clean_linker_0, # of connection points: 2
#     Edge 12, Type (0, 1), BuildingBlock: XIVTED_clean_linker_0, # of connection points: 2
#     Edge 13, Type (0, 1), BuildingBlock: XIVTED_clean_linker_0, # of connection points: 2
#     Edge 14, Type (0, 1), BuildingBlock: XIVTED_clean_linker_0, # of connection points: 2
#     Edge 15, Type (0, 1), BuildingBlock: XIVTED_clean_linker_0, # of connection points: 2
#     Edge 16, Type (0, 1), BuildingBlock: XIVTED_clean_linker_0, # of connection points: 2
#     Edge 17, Type (0, 1), BuildingBlock: XIVTED_clean_linker_0, # of connection points: 2
#     Edge 18, Type (0, 1), BuildingBlock: XIVTED_clean_linker_0, # of connection points: 2
#     Edge 19, Type (0, 1), BuildingBlock: XIVTED_clean_linker_0, # of connection points: 2
#     Edge 20, Type (0, 1), BuildingBlock: XIVTED_clean_linker_0, # of connection points: 2
#     Edge 21, Type (0, 1), BuildingBlock: XIVTED_clean_linker_0, # of connection points: 2
#     Edge 22, Type (0, 1), BuildingBlock: XIVTED_clean_linker_0, # of connection points: 2
#     Edge 23, Type (0, 1), BuildingBlock: XIVTED_clean_linker_0, # of connection points: 2
#     Edge 24, Type (0, 1), BuildingBlock: XIVTED_clean_linker_0, # of connection points: 2
#     Edge 25, Type (0, 1), BuildingBlock: XIVTED_clean_linker_0, # of connection points: 2
#     Edge 26, Type (0, 1), BuildingBlock: XIVTED_clean_linker_0, # of connection points: 2
#     Edge 27, Type (0, 1), BuildingBlock: XIVTED_clean_linker_0, # of connection points: 2
#     Edge 28, Type (0, 1), BuildingBlock: XIVTED_clean_linker_0, # of connection points: 2
#     Edge 29, Type (0, 1), BuildingBlock: XIVTED_clean_linker_0, # of connection points: 2
#     Edge 30, Type (0, 1), BuildingBlock: XIVTED_clean_linker_0, # of connection points: 2
#     Edge 31, Type (0, 1), BuildingBlock: XIVTED_clean_linker_0, # of connection points: 2
#     Edge 32, Type (0, 1), BuildingBlock: XIVTED_clean_linker_0, # of connection points: 2
# Relax obj value: 0.132
# Max RMSD: 0.238
# Mean RMSD: 0.201
data_MOF--net-csq--node1-TAGTUT_clean_sbu_1--node2-AZAVOO_clean_linker_0--edge1-XIVTED_clean_linker_0
_symmetry_space_group_name_H-M    P1
_symmetry_Int_Tables_number       1
_symmetry_cell_setting            triclinic
loop_
_symmetry_equiv_pos_as_xyz
'x, y, z'
_cell_length_a     57.332815
_cell_length_b     56.353542
_cell_length_c     23.710577
_cell_angle_alpha  92.47567
_cell_angle_beta   92.272625
_cell_angle_gamma 119.87041
loop_
_atom_site_label
_atom_site_type_symbol
_atom_site_fract_x
_atom_site_fract_y
_atom_site_fract_z
_atom_type_partial_charge
H0 H 0.16075 0.45903 0.47051 0.0
H1 H 0.41991 0.50115 0.16024 0.0
H2 H 0.1818 0.44713 0.16045 0.0
H3 H 0.14576 0.44795 0.21018 0.0
H4 H 0.19592 0.53558 0.24595 0.0
H5 H 0.232 0.53439 0.19656 0.0
H6 H 0.20396 0.44099 0.2639 0.0
H7 H 0.18105 0.44009 0.34942 0.0
H8 H 0.23716 0.52666 0.38688 0.0
H9 H 0.25972 0.52727 0.30093 0.0
H10 H 0.25387 0.44175 0.28931 0.0
H11 H 0.27462 0.4421 0.38208 0.0
H12 H 0.33662 0.52625 0.36664 0.0
H13 H 0.31517 0.52591 0.27558 0.0
H14 H 0.28678 0.44091 0.1793 0.0
H15 H 0.32777 0.43763 0.17784 0.0
H16 H 0.37466 0.52488 0.15936 0.0
H17 H 0.33356 0.52788 0.16154 0.0
H18 H 0.26663 0.44761 0.05 0.0
H19 H 0.29557 0.45116 0.97376 0.0
H20 H 0.33488 0.53959 0.99561 0.0
H21 H 0.30618 0.53574 0.07245 0.0
H22 H 0.20238 0.4497 0.0586 0.0
H23 H 0.18138 0.4529 0.96967 0.0
H24 H 0.24187 0.53879 0.97073 0.0
H25 H 0.26184 0.53554 0.06112 0.0
O26 O 0.17057 0.45966 0.4378 0.0
O27 O 0.2007 0.50386 0.4567 0.0
O28 O 0.37843 0.45714 0.17117 0.0
O29 O 0.40342 0.50188 0.1612 0.0
C30 C 0.23398 0.48818 0.17112 0.0
C31 C 0.24578 0.48519 0.22188 0.0
C32 C 0.26989 0.48439 0.22153 0.0
C33 C 0.28224 0.48629 0.17039 0.0
C34 C 0.27056 0.48929 0.11945 0.0
C35 C 0.24629 0.49013 0.11971 0.0
C36 C 0.20953 0.49068 0.17487 0.0
C37 C 0.18443 0.46672 0.17612 0.0
C38 C 0.16395 0.46722 0.20535 0.0
C39 C 0.16827 0.49174 0.2335 0.0
C40 C 0.19224 0.51625 0.22601 0.0
C41 C 0.21266 0.51573 0.19662 0.0
C42 C 0.23336 0.48421 0.27624 0.0
C43 C 0.21135 0.45967 0.2909 0.0
C44 C 0.19829 0.45924 0.33968 0.0
C45 C 0.20719 0.48334 0.37486 0.0
C46 C 0.22975 0.50776 0.36068 0.0
C47 C 0.24274 0.50816 0.31178 0.0
C48 C 0.2832 0.48375 0.27577 0.0
C49 C 0.27191 0.46021 0.30629 0.0
C50 C 0.28376 0.46047 0.35916 0.0
C51 C 0.3071 0.4843 0.38213 0.0
C52 C 0.31829 0.50777 0.351 0.0
C53 C 0.30638 0.50751 0.29847 0.0
C54 C 0.30724 0.48458 0.1701 0.0
C55 C 0.30595 0.45927 0.17504 0.0
C56 C 0.32938 0.45746 0.17412 0.0
C57 C 0.3545 0.481 0.1683 0.0
C58 C 0.35566 0.50636 0.16373 0.0
C59 C 0.33222 0.50813 0.1648 0.0
C60 C 0.28412 0.4914 0.06629 0.0
C61 C 0.281 0.4677 0.03718 0.0
C62 C 0.29757 0.4698 0.99367 0.0
C63 C 0.31768 0.49569 0.97879 0.0
C64 C 0.31983 0.51937 0.00643 0.0
C65 C 0.30322 0.51723 0.04981 0.0
C66 C 0.23357 0.49238 0.06621 0.0
C67 C 0.21096 0.46921 0.03964 0.0
C68 C 0.19923 0.47103 0.98843 0.0
C69 C 0.21003 0.49608 0.96262 0.0
C70 C 0.23285 0.51924 0.98951 0.0
C71 C 0.24441 0.51742 0.04099 0.0
C72 C 0.19275 0.483 0.42568 0.0
C73 C 0.37943 0.47917 0.16701 0.0
H74 H 0.827 0.3109 0.47477 0.0
H75 H 0.63662 0.05547 0.08555 0.0
H76 H 0.80738 0.29825 0.17009 0.0
H77 H 0.84757 0.33965 0.20925 0.0
H78 H 0.8962 0.3034 0.16544 0.0
H79 H 0.85532 0.26122 0.12987 0.0
H80 H 0.76896 0.26052 0.255 0.0
H81 H 0.78719 0.28329 0.3495 0.0
H82 H 0.852 0.26527 0.33898 0.0
H83 H 0.83331 0.2422 0.2449 0.0
H84 H 0.71589 0.20555 0.19865 0.0
H85 H 0.69123 0.1886 0.2828 0.0
H86 H 0.75465 0.17551 0.35169 0.0
H87 H 0.77809 0.1906 0.26522 0.0
H88 H 0.7064 0.19155 0.07546 0.0
H89 H 0.66424 0.14799 0.05615 0.0
H90 H 0.70224 0.10529 0.12782 0.0
H91 H 0.74445 0.14898 0.14589 0.0
H92 H 0.74628 0.2323 0.00134 0.0
H93 H 0.71416 0.20624 0.92066 0.0
H94 H 0.73169 0.14062 0.93721 0.0
H95 H 0.76372 0.16675 0.01826 0.0
H96 H 0.79677 0.28217 0.03567 0.0
H97 H 0.83283 0.31367 0.97932 0.0
H98 H 0.86418 0.25799 0.97208 0.0
H99 H 0.82757 0.22637 0.02713 0.0
O100 O 0.81996 0.30154 0.43762 0.0
O101 O 0.853 0.29199 0.42984 0.0
O102 O 0.63459 0.09588 0.0555 0.0
O103 O 0.65301 0.073 0.09291 0.0
C104 C 0.80349 0.24969 0.13831 0.0
C105 C 0.78914 0.23657 0.18508 0.0
C106 C 0.76453 0.21158 0.17636 0.0
C107 C 0.75448 0.19965 0.12077 0.0
C108 C 0.7691 0.21279 0.07387 0.0
C109 C 0.7936 0.23779 0.08283 0.0
C110 C 0.82847 0.27668 0.14822 0.0
C111 C 0.82682 0.29955 0.16783 0.0
C112 C 0.84994 0.32334 0.18968 0.0
C113 C 0.87518 0.32475 0.19146 0.0
C114 C 0.87701 0.30275 0.166 0.0
C115 C 0.85375 0.27873 0.1451 0.0
C116 C 0.79976 0.24963 0.24326 0.0
C117 C 0.78695 0.2613 0.27343 0.0
C118 C 0.79747 0.27439 0.32729 0.0
C119 C 0.82107 0.27613 0.35179 0.0
C120 C 0.83379 0.2643 0.32138 0.0
C121 C 0.82318 0.25112 0.26765 0.0
C122 C 0.74864 0.19906 0.22556 0.0
C123 C 0.72412 0.19844 0.23142 0.0
C124 C 0.71036 0.18928 0.2802 0.0
C125 C 0.72108 0.18102 0.32469 0.0
C126 C 0.7456 0.18144 0.31828 0.0
C127 C 0.75909 0.19013 0.26895 0.0
C128 C 0.72852 0.17336 0.11161 0.0
C129 C 0.7056 0.17275 0.08675 0.0
C130 C 0.68153 0.14785 0.07591 0.0
C131 C 0.67989 0.12313 0.09031 0.0
C132 C 0.70282 0.12392 0.11609 0.0
C133 C 0.72693 0.14884 0.12662 0.0
C134 C 0.75717 0.20132 0.01574 0.0
C135 C 0.7441 0.21286 0.986 0.0
C136 C 0.72565 0.1979 0.94027 0.0
C137 C 0.72034 0.17138 0.92329 0.0
C138 C 0.73559 0.1611 0.9493 0.0
C139 C 0.75387 0.17598 0.99549 0.0
C140 C 0.80957 0.25201 0.03518 0.0
C141 C 0.81081 0.27634 0.01989 0.0
C142 C 0.83171 0.29449 0.98862 0.0
C143 C 0.85175 0.28863 0.97237 0.0
C144 C 0.84907 0.26311 0.98377 0.0
C145 C 0.82806 0.24491 0.01489 0.0
C146 C 0.83238 0.29032 0.40873 0.0
C147 C 0.65443 0.09659 0.07846 0.0
H148 H 0.60081 0.80808 0.7278 0.0
H149 H 0.53147 0.63118 0.25453 0.0
H150 H 0.58073 0.84905 0.04155 0.0
H151 H 0.57645 0.87994 0.97731 0.0
H152 H 0.49901 0.81323 0.90994 0.0
H153 H 0.50336 0.78281 0.97456 0.0
H154 H 0.59818 0.81299 0.97426 0.0
H155 H 0.60698 0.81737 0.87395 0.0
H156 H 0.52772 0.74738 0.82995 0.0
H157 H 0.51916 0.7434 0.93043 0.0
H158 H 0.60368 0.76029 0.04513 0.0
H159 H 0.61284 0.72436 0.00984 0.0
H160 H 0.52785 0.67159 0.96177 0.0
H161 H 0.51899 0.70722 -0.00132 0.0
H162 H 0.59365 0.75756 0.16482 0.0
H163 H 0.59539 0.72201 0.21766 0.0
H164 H 0.51023 0.66773 0.17445 0.0
H165 H 0.50873 0.70364 0.12256 0.0
H166 H 0.57928 0.79127 0.22848 0.0
H167 H 0.57173 0.76422 0.30955 0.0
H168 H 0.48613 0.71981 0.26159 0.0
H169 H 0.4944 0.74611 0.1783 0.0
H170 H 0.57565 0.83455 0.18193 0.0
H171 H 0.57171 0.87353 0.21806 0.0
H172 H 0.49394 0.83948 0.12562 0.0
H173 H 0.49764 0.7999 0.09167 0.0
O174 O 0.597 0.80583 0.76723 0.0
O175 O 0.55616 0.76962 0.74685 0.0
O176 O 0.57451 0.67513 0.25916 0.0
O177 O 0.53145 0.64546 0.23333 0.0
C178 C 0.5458 0.79431 0.04701 0.0
C179 C 0.55261 0.77597 0.02011 0.0
C180 C 0.55468 0.75637 0.05126 0.0
C181 C 0.54996 0.75495 0.10905 0.0
C182 C 0.54364 0.77362 0.13656 0.0
C183 C 0.54165 0.79346 0.10558 0.0
C184 C 0.54232 0.8138 0.01261 0.0
C185 C 0.56272 0.84133 0.01342 0.0
C186 C 0.56032 0.85881 0.9765 0.0
C187 C 0.53741 0.84897 0.93851 0.0
C188 C 0.51673 0.82152 0.93914 0.0
C189 C 0.51921 0.80409 0.97579 0.0
C190 C 0.55815 0.77776 0.95943 0.0
C191 C 0.58283 0.79856 0.94283 0.0
C192 C 0.58777 0.80103 0.88555 0.0
C193 C 0.56806 0.7827 0.84391 0.0
C194 C 0.54335 0.76179 0.86091 0.0
C195 C 0.53845 0.75938 0.91823 0.0
C196 C 0.56076 0.73634 0.02353 0.0
C197 C 0.5872 0.74103 0.02629 0.0
C198 C 0.59233 0.72049 0.00645 0.0
C199 C 0.57102 0.69501 0.9837 0.0
C200 C 0.54462 0.69072 0.98027 0.0
C201 C 0.53954 0.71118 0.00028 0.0
C202 C 0.55102 0.7332 0.14045 0.0
C203 C 0.57541 0.73798 0.16698 0.0
C204 C 0.57633 0.71765 0.19707 0.0
C205 C 0.55291 0.69204 0.20044 0.0
C206 C 0.52861 0.68721 0.1728 0.0
C207 C 0.52768 0.70767 0.1432 0.0
C208 C 0.53751 0.77021 0.19679 0.0
C209 C 0.55872 0.77683 0.23728 0.0
C210 C 0.55428 0.76102 0.28372 0.0
C211 C 0.52838 0.73882 0.29091 0.0
C212 C 0.50651 0.7359 0.25601 0.0
C213 C 0.51108 0.75141 0.20898 0.0
C214 C 0.53695 0.81443 0.13422 0.0
C215 C 0.55749 0.8352 0.1706 0.0
C216 C 0.55538 0.85769 0.19035 0.0
C217 C 0.53274 0.85993 0.17375 0.0
C218 C 0.51162 0.83841 0.13925 0.0
C219 C 0.51369 0.8158 0.1198 0.0
C220 C 0.57328 0.78555 0.78305 0.0
C221 C 0.55372 0.67045 0.23274 0.0
H222 H 0.67411 0.49658 0.39954 0.0
H223 H 0.92688 0.52468 0.08881 0.0
H224 H 0.69048 0.47652 0.09099 0.0
H225 H 0.65698 0.4806 0.1439 0.0
H226 H 0.70935 0.5686 0.16366 0.0
H227 H 0.74309 0.56407 0.11194 0.0
H228 H 0.71261 0.47094 0.19359 0.0
H229 H 0.6916 0.47321 0.28004 0.0
H230 H 0.74964 0.55986 0.30688 0.0
H231 H 0.77028 0.5573 0.22005 0.0
H232 H 0.75645 0.46291 0.19964 0.0
H233 H 0.77054 0.4563 0.29364 0.0
H234 H 0.83581 0.54052 0.30697 0.0
H235 H 0.82089 0.54707 0.2137 0.0
H236 H 0.79329 0.465 0.09946 0.0
H237 H 0.83402 0.4612 0.09792 0.0
H238 H 0.88232 0.54921 0.09137 0.0
H239 H 0.84146 0.55267 0.09337 0.0
H240 H 0.77175 0.47053 0.97756 0.0
H241 H 0.80123 0.47064 0.90539 0.0
H242 H 0.84564 0.55928 0.92204 0.0
H243 H 0.81642 0.55887 0.99487 0.0
H244 H 0.7088 0.4762 0.98994 0.0
H245 H 0.6863 0.47766 0.90181 0.0
H246 H 0.75064 0.56072 0.88592 0.0
H247 H 0.77228 0.55938 0.97597 0.0
O248 O 0.68321 0.49593 0.36648 0.0
O249 O 0.71473 0.53994 0.38072 0.0
O250 O 0.8848 0.48046 0.09384 0.0
O251 O 0.91048 0.52559 0.08997 0.0
C252 C 0.74315 0.51623 0.09486 0.0
C253 C 0.75443 0.51303 0.14607 0.0
C254 C 0.77729 0.50996 0.14616 0.0
C255 C 0.78977 0.51124 0.09556 0.0
C256 C 0.77864 0.51442 0.04402 0.0
C257 C 0.75504 0.51655 0.04351 0.0
C258 C 0.71934 0.51995 0.09791 0.0
C259 C 0.69406 0.49682 0.10375 0.0
C260 C 0.67499 0.49922 0.13478 0.0
C261 C 0.68084 0.52488 0.15986 0.0
C262 C 0.70456 0.54843 0.14655 0.0
C263 C 0.72365 0.54597 0.11573 0.0
C264 C 0.7428 0.51399 0.20052 0.0
C265 C 0.72081 0.49033 0.21843 0.0
C266 C 0.70885 0.49171 0.26775 0.0
C267 C 0.71887 0.51675 0.30026 0.0
C268 C 0.7414 0.54027 0.2828 0.0
C269 C 0.75325 0.53887 0.23335 0.0
C270 C 0.78785 0.50538 0.19997 0.0
C271 C 0.7739 0.47982 0.22289 0.0
C272 C 0.78193 0.47613 0.27654 0.0
C273 C 0.80414 0.49795 0.30802 0.0
C274 C 0.81826 0.52347 0.28436 0.0
C275 C 0.81012 0.52715 0.23077 0.0
C276 C 0.81451 0.50908 0.09641 0.0
C277 C 0.81272 0.4834 0.09798 0.0
C278 C 0.83599 0.48131 0.09696 0.0
C279 C 0.86144 0.50491 0.09439 0.0
C280 C 0.86307 0.53063 0.09327 0.0
C281 C 0.83979 0.53268 0.09441 0.0
C282 C 0.79179 0.51469 0.99109 0.0
C283 C 0.78729 0.48996 0.96417 0.0
C284 C 0.80418 0.49008 0.92297 0.0
C285 C 0.82598 0.51497 0.90832 0.0
C286 C 0.82926 0.53975 0.93286 0.0
C287 C 0.81237 0.53959 0.97396 0.0
C288 C 0.74207 0.51769 0.98933 0.0
C289 C 0.71798 0.49471 0.9674 0.0
C290 C 0.70537 0.49549 0.91655 0.0
C291 C 0.71676 0.51926 0.88631 0.0
C292 C 0.74121 0.54217 0.9082 0.0
C293 C 0.7537 0.5414 0.95943 0.0
C294 C 0.70561 0.51833 0.35168 0.0
C295 C 0.8862 0.5028 0.09275 0.0
H296 H 0.21201 0.81941 0.45373 0.0
H297 H 0.10074 0.59945 0.93527 0.0
H298 H 0.24601 0.83551 0.16197 0.0
H299 H 0.279 0.87022 0.23255 0.0
H300 H 0.32483 0.82824 0.23144 0.0
H301 H 0.29131 0.79327 0.16202 0.0
H302 H 0.19534 0.79446 0.20847 0.0
H303 H 0.19706 0.80776 0.30887 0.0
H304 H 0.25044 0.77621 0.34765 0.0
H305 H 0.24828 0.76277 0.24713 0.0
H306 H 0.15534 0.75104 0.15088 0.0
H307 H 0.11392 0.71809 0.19275 0.0
H308 H 0.14931 0.66761 0.22673 0.0
H309 H 0.1906 0.70071 0.18517 0.0
H310 H 0.15304 0.73096 0.0267 0.0
H311 H 0.11663 0.68941 0.9755 0.0
H312 H 0.15907 0.64605 0.01506 0.0
H313 H 0.19535 0.6878 0.06594 0.0
H314 H 0.19745 0.763 0.95417 0.0
H315 H 0.17901 0.73171 0.87024 0.0
H316 H 0.22546 0.69366 0.9199 0.0
H317 H 0.24314 0.72486 0.00539 0.0
H318 H 0.23692 0.81431 0.00369 0.0
H319 H 0.26372 0.83752 0.92587 0.0
H320 H 0.32055 0.81129 0.97393 0.0
H321 H 0.2923 0.78657 0.04983 0.0
O322 O 0.2114 0.81375 0.41432 0.0
O323 O 0.23888 0.79734 0.43198 0.0
O324 O 0.09457 0.63978 0.9336 0.0
O325 O 0.11448 0.61594 0.95651 0.0
C326 C 0.2431 0.78739 0.12781 0.0
C327 C 0.2212 0.77033 0.15975 0.0
C328 C 0.19927 0.74607 0.13385 0.0
C329 C 0.19968 0.73811 0.07712 0.0
C330 C 0.22158 0.75496 0.04549 0.0
C331 C 0.2429 0.78001 0.07007 0.0
C332 C 0.26643 0.81205 0.15669 0.0
C333 C 0.26366 0.83436 0.17568 0.0
C334 C 0.28244 0.85405 0.21623 0.0
C335 C 0.30428 0.85169 0.23827 0.0
C336 C 0.30791 0.83028 0.21614 0.0
C337 C 0.2891 0.8106 0.17568 0.0
C338 C 0.22156 0.77754 0.22078 0.0
C339 C 0.20717 0.79022 0.23884 0.0
C340 C 0.20829 0.79789 0.29616 0.0
C341 C 0.22389 0.79305 0.33632 0.0
C342 C 0.23821 0.78021 0.31787 0.0
C343 C 0.237 0.77249 0.26056 0.0
C344 C 0.17594 0.72831 0.16582 0.0
C345 C 0.15426 0.73313 0.16853 0.0
C346 C 0.13066 0.71429 0.19206 0.0
C347 C 0.12837 0.69021 0.21235 0.0
C348 C 0.15042 0.6858 0.21057 0.0
C349 C 0.17406 0.70477 0.18758 0.0
C350 C 0.17674 0.7123 0.04992 0.0
C351 C 0.15427 0.71237 0.02466 0.0
C352 C 0.13359 0.68866 0.99528 0.0
C353 C 0.13499 0.66442 0.99103 0.0
C354 C 0.15735 0.66435 0.01751 0.0
C355 C 0.17805 0.68811 0.04669 0.0
C356 C 0.2212 0.74581 0.98599 0.0
C357 C 0.20478 0.74893 0.94532 0.0
C358 C 0.1942 0.73084 0.89722 0.0
C359 C 0.20013 0.70953 0.88912 0.0
C360 C 0.21993 0.70934 0.92576 0.0
C361 C 0.23038 0.7274 0.97417 0.0
C362 C 0.2629 0.79914 0.03286 0.0
C363 C 0.25553 0.81417 0.9982 0.0
C364 C 0.27095 0.82743 0.95356 0.0
C365 C 0.29438 0.82627 0.94303 0.0
C366 C 0.30238 0.81221 0.97984 0.0
C367 C 0.28661 0.79853 0.02405 0.0
C368 C 0.22524 0.80145 0.3971 0.0
C369 C 0.1134 0.63937 0.95869 0.0
H370 H 0.48904 0.19331 0.82233 0.0
H371 H 0.43959 0.07794 0.39827 0.0
H372 H 0.51518 0.27221 0.09537 0.0
H373 H 0.51709 0.30617 0.03195 0.0
H374 H 0.43602 0.28512 0.06842 0.0
H375 H 0.43424 0.25096 0.13168 0.0
H376 H 0.51116 0.21436 0.06784 0.0
H377 H 0.50944 0.20648 0.96506 0.0
H378 H 0.42954 0.1965 0.95095 0.0
H379 H 0.43143 0.20412 0.05383 0.0
H380 H 0.51107 0.18085 0.17236 0.0
H381 H 0.50683 0.13671 0.14502 0.0
H382 H 0.42612 0.10842 0.07119 0.0
H383 H 0.42974 0.15171 0.10465 0.0
H384 H 0.51356 0.19569 0.27948 0.0
H385 H 0.51091 0.15905 0.33554 0.0
H386 H 0.42406 0.11539 0.30701 0.0
H387 H 0.4271 0.15163 0.24898 0.0
H388 H 0.5184 0.25088 0.32048 0.0
H389 H 0.52388 0.23518 0.41166 0.0
H390 H 0.43746 0.18112 0.4071 0.0
H391 H 0.43238 0.19845 0.31878 0.0
H392 H 0.51323 0.29532 0.21084 0.0
H393 H 0.51144 0.33614 0.24168 0.0
H394 H 0.43459 0.28475 0.31074 0.0
H395 H 0.43559 0.24408 0.27502 0.0
O396 O 0.48932 0.19642 0.86288 0.0
O397 O 0.44839 0.19169 0.85789 0.0
O398 O 0.48587 0.1123 0.37756 0.0
O399 O 0.44118 0.09235 0.37512 0.0
C400 C 0.47347 0.23812 0.15529 0.0
C401 C 0.47242 0.21429 0.13065 0.0
C402 C 0.47197 0.19448 0.16552 0.0
C403 C 0.47219 0.19813 0.22465 0.0
C404 C 0.47332 0.22193 0.24963 0.0
C405 C 0.47396 0.242 0.21499 0.0
C406 C 0.4746 0.25918 0.11812 0.0
C407 C 0.49787 0.27499 0.08973 0.0
C408 C 0.49897 0.29446 0.05382 0.0
C409 C 0.47672 0.29833 0.0453 0.0
C410 C 0.45339 0.28242 0.07383 0.0
C411 C 0.45239 0.26307 0.11015 0.0
C412 C 0.47145 0.20985 0.06819 0.0
C413 C 0.4933 0.21042 0.04244 0.0
C414 C 0.49227 0.20595 0.98374 0.0
C415 C 0.46935 0.20087 0.94976 0.0
C416 C 0.4475 0.20038 0.97584 0.0
C417 C 0.44855 0.20479 0.03455 0.0
C418 C 0.47064 0.16929 0.14078 0.0
C419 C 0.49242 0.16495 0.15065 0.0
C420 C 0.48997 0.13971 0.1346 0.0
C421 C 0.46603 0.11872 0.10615 0.0
C422 C 0.44457 0.12366 0.09455 0.0
C423 C 0.44677 0.14863 0.11237 0.0
C424 C 0.47052 0.17633 0.26044 0.0
C425 C 0.494 0.17817 0.28536 0.0
C426 C 0.49242 0.15722 0.31729 0.0
C427 C 0.46724 0.1344 0.32613 0.0
C428 C 0.44374 0.13274 0.30131 0.0
C429 C 0.4454 0.1534 0.26823 0.0
C430 C 0.47504 0.22528 0.31235 0.0
C431 C 0.50056 0.2371 0.34126 0.0
C432 C 0.50367 0.22749 0.39289 0.0
C433 C 0.48131 0.20562 0.4155 0.0
C434 C 0.45536 0.19766 0.39129 0.0
C435 C 0.45227 0.20776 0.34045 0.0
C436 C 0.4745 0.26674 0.24051 0.0
C437 C 0.49598 0.29295 0.23249 0.0
C438 C 0.49497 0.31628 0.25055 0.0
C439 C 0.47277 0.31388 0.27851 0.0
C440 C 0.4517 0.28749 0.28811 0.0
C441 C 0.45246 0.26416 0.2688 0.0
C442 C 0.46829 0.19605 0.88743 0.0
C443 C 0.46544 0.1124 0.3611 0.0
C444 C 0.0 0.43321 0.77345 0.0
C445 C 0.07323 0.48389 0.69018 0.0
C446 C 0.03877 0.55623 0.67923 0.0
Mg447 Mg 0.01444 0.44421 0.64883 0.0
O448 O 0.00488 0.47086 0.66706 0.0
Mg449 Mg 0.02536 0.4981 0.73288 0.0
Mg450 Mg 0.00571 0.49571 0.60948 0.0
O451 O 0.00622 0.52086 0.55283 0.0
Mg452 Mg 0.99609 0.54653 0.57713 0.0
Mg453 Mg 0.98172 0.49227 0.49253 0.0
C454 C 0.97849 0.43788 0.53578 0.0
C455 C 0.0382 0.49218 0.50206 0.0
O456 O 0.00941 0.45909 0.78537 0.0
O457 O -0.00025 0.42325 0.72362 0.0
O458 O 0.06395 0.49677 0.71839 0.0
O459 O 0.05792 0.4631 0.65625 0.0
O460 O 0.99173 0.42949 0.56611 0.0
O461 O 0.97654 0.4589 0.55165 0.0
C462 C 0.96987 0.49945 0.71079 0.0
O463 O 0.97164 0.49724 0.65729 0.0
O464 O 0.98754 0.50007 0.74623 0.0
O465 O 0.99143 0.52933 0.43873 0.0
O466 O 0.00284 0.56604 0.49904 0.0
O467 O 0.9439 0.49204 0.52159 0.0
C468 C -0.00058 0.55497 0.44876 0.0
O469 O 0.95346 0.52592 0.58672 0.0
O470 O 0.02534 0.56477 0.65008 0.0
C471 C 0.93644 0.50453 0.55625 0.0
O472 O 0.03564 0.53218 0.66921 0.0
O473 O 0.0388 0.49396 0.55664 0.0
O474 O 0.01931 0.49192 0.47086 0.0
C475 C 0.46059 0.99773 0.81556 0.0
C476 C 0.4233 0.93887 0.67936 0.0
C477 C 0.5231 0.96191 0.63766 0.0
Mg478 Mg 0.45113 0.00123 0.68659 0.0
O479 O 0.48544 0.00498 0.68866 0.0
Mg480 Mg 0.48968 0.97553 0.72438 0.0
Mg481 Mg 0.50023 0.00388 0.61463 0.0
O482 O 0.51471 0.0023 0.54129 0.0
Mg483 Mg 0.54812 0.00378 0.54237 0.0
Mg484 Mg 0.51114 0.03181 0.50412 0.0
C485 C 0.47864 0.04735 0.59741 0.0
C486 C 0.45127 0.98029 0.51619 0.0
O487 O 0.47534 0.98711 0.80482 0.0
O488 O 0.44982 0.00523 0.77692 0.0
O489 O 0.44543 0.942 0.70165 0.0
O490 O 0.42161 0.95918 0.66233 0.0
O491 O 0.4599 0.03458 0.63121 0.0
O492 O 0.49705 0.04102 0.58937 0.0
C493 C 0.54892 0.02899 0.71395 0.0
O494 O 0.54193 0.03078 0.66288 0.0
O495 O 0.53285 0.01022 0.74455 0.0
O496 O 0.52332 0.01623 0.42276 0.0
O497 O 0.54702 0.99641 0.45317 0.0
O498 O 0.55595 0.06456 0.52638 0.0
C499 C 0.53628 0.00336 0.41351 0.0
O500 O 0.57866 0.04544 0.56225 0.0
O501 O 0.54182 0.97325 0.60333 0.0
C502 C 0.57769 0.06651 0.54808 0.0
O503 O 0.50409 0.9676 0.64042 0.0
O504 O 0.45841 0.97694 0.56593 0.0
O505 O 0.46759 -0.00072 0.48647 0.0
C506 C 0.53774 0.58716 0.47754 0.0
C507 C 0.57319 0.53444 0.47569 0.0
C508 C 0.47829 0.45521 0.53161 0.0
Mg509 Mg 0.56335 0.56739 0.56934 0.0
O510 O 0.52699 0.53999 0.56885 0.0
Mg511 Mg 0.50887 0.51903 0.49489 0.0
Mg512 Mg 0.51579 0.50923 0.61935 0.0
O513 O 0.50416 0.47817 0.66933 0.0
Mg514 Mg 0.46749 0.4507 0.66345 0.0
Mg515 Mg 0.5185 0.50092 0.74308 0.0
C516 C 0.55589 0.56227 0.70292 0.0
C517 C 0.56801 0.50751 0.66989 0.0
O518 O 0.52058 0.56195 0.46141 0.0
O519 O 0.55556 0.5938 0.51873 0.0
O520 O 0.5478 0.52251 0.46326 0.0
O521 O 0.58418 0.55167 0.51872 0.0
O522 O 0.5701 0.57495 0.6619 0.0
O523 O 0.53309 0.53989 0.69447 0.0
C524 C 0.46204 0.51063 0.57754 0.0
O525 O 0.47485 0.5071 0.61856 0.0
O526 O 0.47094 0.51555 0.52835 0.0
O527 O 0.50353 0.45938 0.78417 0.0
O528 O 0.47063 0.42548 0.72632 0.0
O529 O 0.47787 0.49901 0.7605 0.0
C530 C 0.48625 0.43387 0.77186 0.0
O531 O 0.44509 0.46835 0.69883 0.0
O532 O 0.46406 0.44118 0.57136 0.0
C533 C 0.45332 0.48668 0.73991 0.0
O534 O 0.49868 0.47945 0.54161 0.0
O535 O 0.55697 0.51099 0.62509 0.0
O536 O 0.55727 0.50309 0.71761 0.0
H537 H 0.11297 0.46218 0.22391 0.0
H538 H 0.09342 0.51688 0.52685 0.0
H539 H 0.18008 0.51941 0.33838 0.0
H540 H 0.02882 0.4599 0.40726 0.0
H541 H 0.12611 0.51576 0.46355 0.0
H542 H 0.0822 0.45944 0.29464 0.0
C543 C 0.12125 0.4742 0.26392 0.0
C544 C 0.14916 0.49119 0.27487 0.0
C545 C 0.10474 0.50333 0.45163 0.0
C546 C 0.11394 0.48821 0.35663 0.0
C547 C 0.08616 0.50381 0.48793 0.0
C548 C 0.05849 0.48876 0.47179 0.0
C549 C 0.09537 0.48757 0.39939 0.0
C550 C 0.05004 0.47219 0.42086 0.0
C551 C 0.10367 0.47265 0.30445 0.0
C552 C 0.15868 0.50644 0.32757 0.0
N553 N 0.06834 0.47221 0.38647 0.0
N554 N 0.14112 0.50462 0.36647 0.0
H555 H 0.71735 0.14005 0.38931 0.0
H556 H 0.58531 0.11568 0.51382 0.0
H557 H 0.69083 0.19942 0.37899 0.0
H558 H 0.629 0.07643 0.57317 0.0
H559 H 0.62649 0.15115 0.477 0.0
H560 H 0.68859 0.12054 0.46664 0.0
C561 C 0.70592 0.1494 0.40386 0.0
C562 C 0.70619 0.17113 0.37647 0.0
C563 C 0.62725 0.13517 0.4994 0.0
C564 C 0.67252 0.14826 0.46461 0.0
C565 C 0.60371 0.11491 0.52063 0.0
C566 C 0.60342 0.09243 0.54469 0.0
C567 C 0.65042 0.13264 0.50159 0.0
C568 C 0.62803 0.0929 0.55337 0.0
C569 C 0.68939 0.13815 0.44817 0.0
C570 C 0.6906 0.18205 0.39731 0.0
N571 N 0.65037 0.11221 0.53031 0.0
N572 N 0.67399 0.17016 0.43934 0.0
H573 H 0.49382 0.68335 0.26981 0.0
H574 H 0.56911 0.64254 0.50314 0.0
H575 H 0.55646 0.74205 0.39143 0.0
H576 H 0.50192 0.58306 0.39133 0.0
H577 H 0.56427 0.67904 0.4632 0.0
H578 H 0.49466 0.64641 0.31702 0.0
C579 C 0.50737 0.68863 0.30719 0.0
C580 C 0.52529 0.71619 0.32612 0.0
C581 C 0.55056 0.65803 0.44737 0.0
C582 C 0.52695 0.67349 0.37936 0.0
C583 C 0.55338 0.63708 0.46996 0.0
C584 C 0.53591 0.60954 0.4506 0.0
C585 C 0.53014 0.65155 0.40486 0.0
C586 C 0.51591 0.60393 0.40757 0.0
C587 C 0.50806 0.66736 0.33373 0.0
C588 C 0.54268 0.7213 0.37428 0.0
N589 N 0.51359 0.62475 0.38615 0.0
N590 N 0.54328 0.70021 0.39877 0.0
H591 H 0.82291 0.53323 0.40377 0.0
H592 H 0.89311 0.45467 0.52136 0.0
H593 H 0.80676 0.45318 0.3399 0.0
H594 H 0.91461 0.53705 0.5798 0.0
H595 H 0.8503 0.44757 0.48019 0.0
H596 H 0.84579 0.52923 0.48897 0.0
C597 C 0.82389 0.51467 0.40797 0.0
C598 C 0.81359 0.49384 0.36392 0.0
C599 C 0.86403 0.46699 0.50326 0.0
C600 C 0.83946 0.48902 0.46143 0.0
C601 C 0.88844 0.47099 0.52702 0.0
C602 C 0.90779 0.49683 0.552 0.0
C603 C 0.85932 0.48919 0.50355 0.0
C604 C 0.90048 0.51702 0.55956 0.0
C605 C 0.83672 0.51229 0.45684 0.0
C606 C 0.81459 0.46987 0.37245 0.0
N607 N 0.87712 0.51309 0.53372 0.0
N608 N 0.82778 0.46835 0.41971 0.0
H609 H 0.32513 0.90727 0.2535 0.0
H610 H 0.41834 0.9254 0.53087 0.0
H611 H 0.32441 0.83928 0.33219 0.0
H612 H 0.42296 0.99202 0.43952 0.0
H613 H 0.37826 0.89318 0.46944 0.0
H614 H 0.35577 0.93823 0.33133 0.0
C615 C 0.33128 0.89883 0.28734 0.0
C616 C 0.3225 0.87071 0.28587 0.0
C617 C 0.38786 0.91492 0.46351 0.0
C618 C 0.35777 0.90607 0.37515 0.0
C619 C 0.41055 0.93327 0.4988 0.0
C620 C 0.42417 0.96127 0.48943 0.0
C621 C 0.37883 0.92483 0.41914 0.0
C622 C 0.41332 0.97049 0.4474 0.0
C623 C 0.34884 0.91652 0.33178 0.0
C624 C 0.33123 0.86093 0.3309 0.0
N625 N 0.39149 0.95231 0.41348 0.0
N626 N 0.34853 0.87861 0.37353 0.0
H627 H 0.42853 0.32074 0.28514 0.0
H628 H 0.51434 0.46793 0.45043 0.0
H629 H 0.51513 0.36411 0.31902 0.0
H630 H 0.43263 0.40959 0.48518 0.0
H631 H 0.51126 0.43711 0.37131 0.0
H632 H 0.42735 0.3599 0.33055 0.0
C633 C 0.44731 0.33845 0.3017 0.0
C634 C 0.47193 0.33873 0.29923 0.0
C635 C 0.4938 0.43142 0.39542 0.0
C636 C 0.47065 0.38391 0.349 0.0
C637 C 0.49543 0.4491 0.44029 0.0
C638 C 0.47388 0.44102 0.47515 0.0
C639 C 0.47041 0.40569 0.38521 0.0
C640 C 0.44989 0.41632 0.46 0.0
C641 C 0.44658 0.36087 0.32695 0.0
C642 C 0.49566 0.36278 0.31956 0.0
N643 N 0.44892 0.39926 0.41659 0.0
N644 N 0.49439 0.38428 0.34399 0.0
H645 H 0.49343 0.85357 0.90695 0.0
H646 H 0.56713 0.95711 0.66814 0.0
H647 H 0.57681 0.88453 0.87381 0.0
H648 H 0.48414 0.92697 0.70389 0.0
H649 H 0.57102 0.9303 0.74245 0.0
H650 H 0.48976 0.88057 0.83285 0.0
C651 C 0.51098 0.86608 0.88408 0.0
C652 C 0.53545 0.86676 0.89649 0.0
C653 C 0.55195 0.92956 0.73403 0.0
C654 C 0.53143 0.89775 0.81158 0.0
C655 C 0.54967 0.94475 0.69137 0.0
C656 C 0.52531 0.94447 0.68001 0.0
C657 C 0.52969 0.91388 0.76544 0.0
C658 C 0.50342 0.92814 0.71169 0.0
C659 C 0.5089 0.88154 0.84186 0.0
C660 C 0.55764 0.88363 0.86605 0.0
N661 N 0.50614 0.91355 0.75297 0.0
N662 N 0.55507 0.89837 0.82484 0.0
H663 H 0.71213 0.56281 0.85224 0.0
H664 H 0.5801 0.46681 0.66545 0.0
H665 H 0.68761 0.4786 0.80192 0.0
H666 H 0.61595 0.55469 0.67973 0.0
H667 H 0.62318 0.47173 0.69989 0.0
H668 H 0.68184 0.56203 0.77635 0.0
C669 C 0.70086 0.54431 0.82452 0.0
C670 C 0.70203 0.52052 0.83448 0.0
C671 C 0.622 0.49004 0.69376 0.0
C672 C 0.6667 0.51933 0.74802 0.0
C673 C 0.59748 0.48719 0.6736 0.0
C674 C 0.5948 0.51041 0.66947 0.0
C675 C 0.64358 0.51628 0.71163 0.0
C676 C 0.61752 0.53637 0.68186 0.0
C677 C 0.68343 0.54385 0.78116 0.0
C678 C 0.68672 0.49716 0.79711 0.0
N679 N 0.64088 0.53863 0.70366 0.0
N680 N 0.66933 0.49698 0.75628 0.0
H681 H 0.18108 0.65529 0.90725 0.0
H682 H 0.05298 0.60956 0.70415 0.0
H683 H 0.17615 0.70761 0.78499 0.0
H684 H 0.07715 0.55008 0.74061 0.0
H685 H 0.09526 0.64554 0.75038 0.0
H686 H 0.1422 0.61588 0.8568 0.0
C687 C 0.17241 0.65851 0.86896 0.0
C688 C 0.18173 0.68505 0.85092 0.0
C689 C 0.09126 0.62458 0.74832 0.0
C690 C 0.13652 0.64017 0.79517 0.0
C691 C 0.06698 0.60391 0.72251 0.0
C692 C 0.0616 0.5767 0.71765 0.0
C693 C 0.11023 0.61808 0.77036 0.0
C694 C 0.08053 0.57078 0.74302 0.0
C695 C 0.14999 0.63597 0.84072 0.0
C696 C 0.16926 0.68774 0.80145 0.0
N697 N 0.10417 0.5914 0.76833 0.0
N698 N 0.14692 0.66568 0.77602 0.0
H699 H 0.4211 0.0669 0.09421 0.0
H700 H 0.49681 0.01051 0.90569 0.0
H701 H 0.50653 0.11038 0.06991 0.0
H702 H 0.41798 -0.00119 0.85972 0.0
H703 H 0.49613 0.03107 0.99835 0.0
H704 H 0.41695 0.02695 0.03983 0.0
C705 C 0.43905 0.06804 0.07835 0.0
C706 C 0.46405 0.09255 0.08498 0.0
C707 C 0.47867 0.02316 0.9685 0.0
C708 C 0.45949 0.04652 0.02558 0.0
C709 C 0.47902 0.01149 0.91579 0.0
C710 C 0.45773 0.00379 0.8748 0.0
C711 C 0.45675 0.02669 0.98005 0.0
C712 C 0.43508 0.00526 0.88989 0.0
C713 C 0.43665 0.04508 0.04813 0.0
C714 C 0.48677 0.09221 0.06582 0.0
N715 N 0.43533 0.01697 0.94123 0.0
N716 N 0.48386 0.06968 0.03624 0.0
H717 H 0.37225 0.53095 0.98702 0.0
H718 H 0.39902 0.46318 0.71147 0.0
H719 H 0.30881 0.46523 0.87811 0.0
H720 H 0.46209 0.52234 0.83158 0.0
H721 H 0.36586 0.46812 0.7646 0.0
H722 H 0.40528 0.53231 0.92347 0.0
C723 C 0.36519 0.51706 0.94926 0.0
C724 C 0.33765 0.49793 0.93796 0.0
C725 C 0.38697 0.48016 0.77909 0.0
C726 C 0.37556 0.49911 0.86524 0.0
C727 C 0.40598 0.47743 0.74866 0.0
C728 C 0.43345 0.49211 0.76739 0.0
C729 C 0.39541 0.49774 0.82864 0.0
C730 C 0.44116 0.5104 0.81571 0.0
C731 C 0.38413 0.51772 0.91317 0.0
C732 C 0.32984 0.48011 0.88887 0.0
N733 N 0.42224 0.51253 0.84484 0.0
N734 N 0.34869 0.48107 0.85446 0.0
H735 H 0.87954 0.2818 0.88731 0.0
H736 H 0.98056 0.44203 0.87165 0.0
H737 H 0.88047 0.34382 0.0024 0.0
H738 H 0.9846 0.37884 0.77018 0.0
H739 H 0.94707 0.40662 0.92679 0.0
H740 H 0.9203 0.31716 0.84871 0.0
C741 C 0.88835 0.30283 0.90461 0.0
C742 C 0.87632 0.30986 0.94766 0.0
C743 C 0.95561 0.40057 0.89299 0.0
C744 C 0.92302 0.35055 0.90353 0.0
C745 C 0.97492 0.42082 0.86179 0.0
C746 C 0.98511 0.41339 0.8156 0.0
C747 C 0.94641 0.37276 0.87768 0.0
C748 C 0.97699 0.38553 0.8048 0.0
C749 C 0.91166 0.32304 0.88257 0.0
C750 C 0.88863 0.33752 0.96822 0.0
N751 N 0.95786 0.36624 0.83501 0.0
N752 N 0.91119 0.35686 0.94576 0.0
H753 H 0.88058 0.54675 0.92643 0.0
H754 H 0.91788 0.48003 0.6646 0.0
H755 H 0.81927 0.48291 0.81061 0.0
H756 H 0.97202 0.52662 0.8096 0.0
H757 H 0.88221 0.48556 0.70751 0.0
H758 H 0.91508 0.54474 0.87339 0.0
C759 C 0.87434 0.53259 0.88922 0.0
C760 C 0.84692 0.51505 0.8729 0.0
C761 C 0.90196 0.49461 0.72964 0.0
C762 C 0.88659 0.51224 0.81223 0.0
C763 C 0.92233 0.49165 0.705 0.0
C764 C 0.94794 0.50288 0.73355 0.0
C765 C 0.90747 0.50916 0.78278 0.0
C766 C 0.95253 0.51738 0.78625 0.0
C767 C 0.8941 0.53125 0.8592 0.0
C768 C 0.84017 0.49667 0.82492 0.0
N769 N 0.93259 0.52011 0.80897 0.0
N770 N 0.85987 0.4957 0.79625 0.0
H771 H 0.30225 0.87318 0.89526 0.0
H772 H 0.4174 0.88969 0.70897 0.0
H773 H 0.32163 0.80847 0.87549 0.0
H774 H 0.37204 0.93075 0.67819 0.0
H775 H 0.38114 0.85711 0.76334 0.0
H776 H 0.32703 0.89339 0.81317 0.0
C777 C 0.3114 0.86294 0.87346 0.0
C778 C 0.30978 0.839 0.89294 0.0
C779 C 0.37881 0.8728 0.74335 0.0
C780 C 0.33887 0.86262 0.7989 0.0
C781 C 0.39943 0.89132 0.71188 0.0
C782 C 0.39815 0.91351 0.69023 0.0
C783 C 0.35703 0.87679 0.7538 0.0
C784 C 0.3742 0.91432 0.6949 0.0
C785 C 0.3256 0.87458 0.82638 0.0
C786 C 0.32276 0.82725 0.86316 0.0
N787 N 0.35495 0.89677 0.72763 0.0
N788 N 0.33702 0.83936 0.8181 0.0
H789 H 0.51795 0.35081 0.03747 0.0
H790 H 0.44794 0.37923 0.77044 0.0
H791 H 0.43826 0.29236 0.96442 0.0
H792 H 0.52011 0.44208 0.86482 0.0
H793 H 0.44515 0.34631 0.83755 0.0
H794 H 0.52018 0.38376 0.97106 0.0
C795 C 0.50094 0.3449 0.00734 0.0
C796 C 0.4779 0.31879 0.0064 0.0
C797 C 0.46156 0.36732 0.84358 0.0
C798 C 0.48029 0.35642 0.93024 0.0
C799 C 0.46323 0.38614 0.80515 0.0
C800 C 0.4843 0.41353 0.81188 0.0
C801 C 0.4812 0.37586 0.88887 0.0
C802 C 0.50346 0.42123 0.85789 0.0
C803 C 0.50216 0.36376 0.96962 0.0
C804 C 0.45631 0.31236 0.96692 0.0
N805 N 0.50149 0.4025 0.89445 0.0
N806 N 0.45808 0.33099 0.93022 0.0
H807 H 0.20308 0.53879 0.93262 0.0
H808 H 0.09496 0.45024 0.68018 0.0
H809 H 0.18647 0.45828 0.87088 0.0
H810 H 0.11445 0.53185 0.74029 0.0
H811 H 0.13495 0.45651 0.735 0.0
H812 H 0.17723 0.54003 0.85009 0.0
C813 C 0.19441 0.52152 0.90129 0.0
C814 C 0.19671 0.49821 0.90938 0.0
C815 C 0.13082 0.47328 0.73516 0.0
C816 C 0.16642 0.49929 0.81481 0.0
C817 C 0.10811 0.46981 0.70336 0.0
C818 C 0.10104 0.49034 0.70666 0.0
C819 C 0.14642 0.49741 0.77042 0.0
C820 C 0.11884 0.51526 0.73744 0.0
C821 C 0.17948 0.5222 0.85413 0.0
C822 C 0.18467 0.47639 0.86731 0.0
N823 N 0.14039 0.51789 0.76896 0.0
N824 N 0.16976 0.4773 0.82228 0.0
H825 H 0.66945 0.16036 0.93734 0.0
H826 H 0.59739 0.05772 0.66547 0.0
H827 H 0.71569 0.1395 0.82737 0.0
H828 H 0.5602 0.04885 0.82362 0.0
H829 H 0.64031 0.09408 0.71255 0.0
H830 H 0.62813 0.12636 0.88303 0.0
C831 C 0.67089 0.14895 0.90098 0.0
C832 C 0.69594 0.15282 0.88636 0.0
C833 C 0.62268 0.08406 0.73667 0.0
C834 C 0.6488 0.11381 0.82446 0.0
C835 C 0.59823 0.06351 0.70983 0.0
C836 C 0.57525 0.05035 0.74065 0.0
C837 C 0.62379 0.09179 0.79421 0.0
C838 C 0.57747 0.05834 0.79835 0.0
C839 C 0.64734 0.1294 0.87044 0.0
C840 C 0.69669 0.13707 0.83969 0.0
N841 N 0.60122 0.0787 0.82312 0.0
N842 N 0.67337 0.11822 0.81004 0.0
H843 H 0.61271 0.70078 0.92193 0.0
H844 H 0.52789 0.54815 0.79867 0.0
H845 H 0.54105 0.63963 0.99398 0.0
H846 H 0.6042 0.60741 0.73887 0.0
H847 H 0.53819 0.57765 0.88498 0.0
H848 H 0.61595 0.66431 0.87044 0.0
C849 C 0.59798 0.67966 0.92793 0.0
C850 C 0.57612 0.67325 0.96101 0.0
C851 C 0.55297 0.58394 0.85355 0.0
C852 C 0.57935 0.63138 0.90116 0.0
C853 C 0.54711 0.56703 0.8042 0.0
C854 C 0.56479 0.57578 0.7606 0.0
C855 C 0.57649 0.60985 0.85884 0.0
C856 C 0.58958 0.60025 0.77062 0.0
C857 C 0.59977 0.65879 0.89831 0.0
C858 C 0.55768 0.64549 0.96726 0.0
N859 N 0.59442 0.61674 0.81814 0.0
N860 N 0.55939 0.62558 0.93665 0.0
H861 H 0.52307 0.19462 0.42376 0.0
H862 H 0.44091 0.06344 0.59868 0.0
H863 H 0.44789 0.17416 0.49641 0.0
H864 H 0.51843 0.08584 0.53602 0.0
H865 H 0.44395 0.10458 0.5629 0.0
H866 H 0.52367 0.15746 0.47048 0.0
C867 C 0.50693 0.18288 0.45052 0.0
C868 C 0.48504 0.18749 0.45479 0.0
C869 C 0.46034 0.10057 0.55691 0.0
C870 C 0.48535 0.14392 0.5073 0.0
C871 C 0.45857 0.07692 0.5771 0.0
C872 C 0.47948 0.07105 0.57049 0.0
C873 C 0.48318 0.11871 0.5297 0.0
C874 C 0.50178 0.08941 0.54195 0.0
C875 C 0.50717 0.16127 0.47667 0.0
C876 C 0.46475 0.17102 0.48996 0.0
N877 N 0.50305 0.11243 0.52268 0.0
N878 N 0.46522 0.14979 0.51408 0.0
H879 H 0.31456 0.44321 0.42097 0.0
H880 H 0.44743 0.54942 0.57718 0.0
H881 H 0.33183 0.52566 0.46663 0.0
H882 H 0.41604 0.46282 0.58864 0.0
H883 H 0.40174 0.54061 0.55493 0.0
H884 H 0.34632 0.4478 0.49776 0.0
C885 C 0.32445 0.46204 0.44807 0.0
C886 C 0.32118 0.48443 0.43612 0.0
C887 C 0.40457 0.52353 0.56422 0.0
C888 C 0.3581 0.49003 0.52335 0.0
C889 C 0.43065 0.52864 0.57713 0.0
C890 C 0.4352 0.50677 0.58439 0.0
C891 C 0.38324 0.49626 0.5562 0.0
C892 C 0.41308 0.48015 0.58329 0.0
C893 C 0.34268 0.46467 0.492 0.0
C894 C 0.33456 0.50826 0.4729 0.0
N895 N 0.38801 0.4755 0.56769 0.0
N896 N 0.35295 0.5107 0.51396 0.0
H897 H 0.88999 0.37935 0.20943 0.0
H898 H 0.98882 0.40147 0.47812 0.0
H899 H 0.91203 0.31985 0.25937 0.0
H900 H 0.94425 0.44436 0.46191 0.0
H901 H 0.97022 0.37876 0.38423 0.0
H902 H 0.92002 0.41098 0.28772 0.0
C903 C 0.90144 0.37307 0.23608 0.0
C904 C 0.89801 0.34662 0.22828 0.0
C905 C 0.96472 0.39334 0.40111 0.0
C906 C 0.93253 0.3828 0.31712 0.0
C907 C 0.97518 0.4062 0.45485 0.0
C908 C 0.96786 0.42467 0.47827 0.0
C909 C 0.94683 0.39896 0.37044 0.0
C910 C 0.95048 0.43031 0.44558 0.0
C911 C 0.91857 0.39115 0.28063 0.0
C912 C 0.91397 0.33997 0.26324 0.0
N913 N 0.94039 0.41735 0.39337 0.0
N914 N 0.93027 0.3578 0.30653 0.0
H915 H 0.48898 0.86332 0.2071 0.0
H916 H 0.57915 0.0092 0.35862 0.0
H917 H 0.57365 0.91346 0.1814 0.0
H918 H 0.49255 0.97043 0.34179 0.0
H919 H 0.57729 0.97777 0.28214 0.0
H920 H 0.48886 0.90413 0.24598 0.0
C921 C 0.50746 0.88295 0.2088 0.0
C922 C 0.53152 0.88482 0.19215 0.0
C923 C 0.55867 0.97656 0.2938 0.0
C924 C 0.53156 0.93158 0.23711 0.0
C925 C 0.55981 0.99469 0.33711 0.0
C926 C 0.53598 0.99229 0.35618 0.0
C927 C 0.53346 0.95533 0.2709 0.0
C928 C 0.51136 0.97297 0.32776 0.0
C929 C 0.50737 0.90627 0.23099 0.0
C930 C 0.55483 0.91085 0.19547 0.0
N931 N 0.51064 0.95465 0.28743 0.0
N932 N 0.55436 0.93309 0.21833 0.0
H933 H 0.62568 0.49499 0.16661 0.0
H934 H 0.62859 0.56234 0.47386 0.0
H935 H 0.69857 0.55782 0.25875 0.0
H936 H 0.55634 0.49762 0.38318 0.0
H937 H 0.65497 0.55961 0.39768 0.0
H938 H 0.60012 0.49513 0.24658 0.0
C939 C 0.63634 0.50889 0.20346 0.0
C940 C 0.66438 0.52651 0.20549 0.0
C941 C 0.63336 0.54589 0.3947 0.0
C942 C 0.63516 0.52674 0.29764 0.0
C943 C 0.61829 0.54731 0.43843 0.0
C944 C 0.59013 0.53036 0.4349 0.0
C945 C 0.62019 0.52744 0.34699 0.0
C946 C 0.57795 0.5113 0.38772 0.0
C947 C 0.62171 0.50896 0.24922 0.0
C948 C 0.67696 0.54424 0.25446 0.0
N949 N 0.59299 0.51052 0.34557 0.0
N950 N 0.6623 0.54385 0.29848 0.0
H951 H 0.10155 0.63468 0.1894 0.0
H952 H 0.01105 0.60834 0.44888 0.0
H953 H 0.09775 0.6989 0.28707 0.0
H954 H 0.00972 0.54357 0.3421 0.0
H955 H 0.03646 0.64099 0.38017 0.0
H956 H 0.06266 0.60052 0.23536 0.0
C957 C 0.09238 0.64154 0.22037 0.0
C958 C 0.10312 0.66958 0.23533 0.0
C959 C 0.03021 0.61956 0.37123 0.0
C960 C 0.05862 0.63069 0.28798 0.0
C961 C 0.01565 0.60087 0.41045 0.0
C962 C 0.00878 0.57327 0.40186 0.0
C963 C 0.03824 0.61065 0.32343 0.0
C964 C 0.0149 0.5647 0.35088 0.0
C965 C 0.07007 0.62207 0.24628 0.0
C966 C 0.09014 0.67745 0.2746 0.0
N967 N 0.02976 0.58344 0.3141 0.0
N968 N 0.06879 0.65808 0.30024 0.0
loop_
_geom_bond_atom_site_label_1
_geom_bond_atom_site_label_2
_geom_bond_distance
_geom_bond_site_symmetry_2
_ccdc_geom_bond_type
H0 O26 0.856 . S
H1 O29 0.854 . S
H2 C37 0.930 . S
H3 C38 0.930 . S
H4 C40 0.930 . S
H5 C41 0.930 . S
H6 C43 0.931 . S
H7 C44 0.930 . S
H8 C46 0.930 . S
H9 C47 0.929 . S
H10 C49 0.930 . S
H11 C50 0.931 . S
H12 C52 0.930 . S
H13 C53 0.929 . S
H14 C55 0.931 . S
H15 C56 0.930 . S
H16 C58 0.930 . S
H17 C59 0.932 . S
H18 C61 0.930 . S
H19 C62 0.929 1_556 S
H20 C64 0.931 1_556 S
H21 C65 0.930 . S
H22 C67 0.929 . S
H23 C68 0.931 . S
H24 C70 0.930 . S
H25 C71 0.929 . S
O26 H0 0.856 . S
O26 C72 1.300 . S
O27 C72 1.209 . S
O28 C73 1.199 . S
O29 H1 0.854 . S
O29 C73 1.297 . S
C30 C31 1.404 . S
C30 C35 1.397 . S
C30 C36 1.492 . S
C31 C30 1.404 . S
C31 C32 1.396 . S
C31 C42 1.492 . S
C32 C31 1.396 . S
C32 C33 1.397 . S
C32 C48 1.509 . S
C33 C32 1.397 . S
C33 C34 1.412 . S
C33 C54 1.485 . S
C34 C33 1.412 . S
C34 C35 1.388 . S
C34 C60 1.490 . S
C35 C30 1.397 . S
C35 C34 1.388 . S
C35 C66 1.519 . S
C36 C30 1.492 . S
C36 C37 1.363 . S
C36 C41 1.390 . S
C37 H2 0.930 . S
C37 C36 1.363 . S
C37 C38 1.372 . S
C38 H3 0.930 . S
C38 C37 1.372 . S
C38 C39 1.383 . S
C39 C38 1.383 . S
C39 C40 1.395 . S
C40 H4 0.930 . S
C40 C39 1.395 . S
C40 C41 1.362 . S
C41 H5 0.930 . S
C41 C36 1.390 . S
C41 C40 1.362 . S
C42 C31 1.492 . S
C42 C43 1.377 . S
C42 C47 1.397 . S
C43 H6 0.931 . S
C43 C42 1.377 . S
C43 C44 1.376 . S
C44 H7 0.930 . S
C44 C43 1.376 . S
C44 C45 1.376 . S
C45 C44 1.376 . S
C45 C46 1.378 . S
C45 C72 1.486 . S
C46 H8 0.930 . S
C46 C45 1.378 . S
C46 C47 1.376 . S
C47 H9 0.929 . S
C47 C42 1.397 . S
C47 C46 1.376 . S
C48 C32 1.509 . S
C48 C49 1.391 . S
C48 C53 1.386 . S
C49 H10 0.930 . S
C49 C48 1.391 . S
C49 C50 1.375 . S
C50 H11 0.931 . S
C50 C49 1.375 . S
C50 C51 1.375 . S
C51 C50 1.375 . S
C51 C52 1.361 . S
C52 H12 0.930 . S
C52 C51 1.361 . S
C52 C53 1.399 . S
C53 H13 0.929 . S
C53 C48 1.386 . S
C53 C52 1.399 . S
C54 C33 1.485 . S
C54 C55 1.394 . S
C54 C59 1.360 . S
C55 H14 0.931 . S
C55 C54 1.394 . S
C55 C56 1.372 . S
C56 H15 0.930 . S
C56 C55 1.372 . S
C56 C57 1.397 . S
C57 C56 1.397 . S
C57 C58 1.390 . S
C57 C73 1.476 . S
C58 H16 0.930 . S
C58 C57 1.390 . S
C58 C59 1.366 . S
C59 H17 0.932 . S
C59 C54 1.360 . S
C59 C58 1.366 . S
C60 C34 1.490 . S
C60 C61 1.380 . S
C60 C65 1.386 . S
C61 H18 0.930 . S
C61 C60 1.380 . S
C61 C62 1.381 . S
C62 H19 0.929 1_554 S
C62 C61 1.381 . S
C62 C63 1.371 1_554 S
C63 C62 1.371 1_556 S
C63 C64 1.380 1_556 S
C64 H20 0.931 1_554 S
C64 C63 1.380 1_554 S
C64 C65 1.387 . S
C65 H21 0.930 . S
C65 C60 1.386 . S
C65 C64 1.387 . S
C66 C35 1.519 . S
C66 C67 1.377 . S
C66 C71 1.361 . S
C67 H22 0.929 . S
C67 C66 1.377 . S
C67 C68 1.386 . S
C68 H23 0.931 . S
C68 C67 1.386 . S
C68 C69 1.363 . S
C69 C68 1.363 . S
C69 C70 1.385 . S
C70 H24 0.930 . S
C70 C69 1.385 . S
C70 C71 1.396 . S
C71 H25 0.929 . S
C71 C66 1.361 . S
C71 C70 1.396 . S
C72 O26 1.300 . S
C72 O27 1.209 . S
C72 C45 1.486 . S
C73 O28 1.199 . S
C73 O29 1.297 . S
C73 C57 1.476 . S
H74 O100 0.856 . S
H75 O103 0.854 . S
H76 C111 0.930 . S
H77 C112 0.930 . S
H78 C114 0.930 . S
H79 C115 0.930 . S
H80 C117 0.931 . S
H81 C118 0.930 . S
H82 C120 0.930 . S
H83 C121 0.929 . S
H84 C123 0.930 . S
H85 C124 0.931 . S
H86 C126 0.930 . S
H87 C127 0.929 . S
H88 C129 0.931 . S
H89 C130 0.930 . S
H90 C132 0.930 . S
H91 C133 0.932 . S
H92 C135 0.930 . S
H93 C136 0.929 . S
H94 C138 0.931 . S
H95 C139 0.930 . S
H96 C141 0.929 . S
H97 C142 0.931 . S
H98 C144 0.930 . S
H99 C145 0.929 . S
O100 H74 0.856 . S
O100 C146 1.300 . S
O101 C146 1.209 . S
O102 C147 1.199 . S
O103 H75 0.854 . S
O103 C147 1.297 . S
C104 C105 1.404 . S
C104 C109 1.397 . S
C104 C110 1.492 . S
C105 C104 1.404 . S
C105 C106 1.396 . S
C105 C116 1.492 . S
C106 C105 1.396 . S
C106 C107 1.397 . S
C106 C122 1.509 . S
C107 C106 1.397 . S
C107 C108 1.412 . S
C107 C128 1.485 . S
C108 C107 1.412 . S
C108 C109 1.388 . S
C108 C134 1.490 . S
C109 C104 1.397 . S
C109 C108 1.388 . S
C109 C140 1.519 . S
C110 C104 1.492 . S
C110 C111 1.363 . S
C110 C115 1.390 . S
C111 H76 0.930 . S
C111 C110 1.363 . S
C111 C112 1.372 . S
C112 H77 0.930 . S
C112 C111 1.372 . S
C112 C113 1.383 . S
C113 C112 1.383 . S
C113 C114 1.395 . S
C114 H78 0.930 . S
C114 C113 1.395 . S
C114 C115 1.362 . S
C115 H79 0.930 . S
C115 C110 1.390 . S
C115 C114 1.362 . S
C116 C105 1.492 . S
C116 C117 1.377 . S
C116 C121 1.397 . S
C117 H80 0.931 . S
C117 C116 1.377 . S
C117 C118 1.376 . S
C118 H81 0.930 . S
C118 C117 1.376 . S
C118 C119 1.376 . S
C119 C118 1.376 . S
C119 C120 1.378 . S
C119 C146 1.486 . S
C120 H82 0.930 . S
C120 C119 1.378 . S
C120 C121 1.376 . S
C121 H83 0.929 . S
C121 C116 1.397 . S
C121 C120 1.376 . S
C122 C106 1.509 . S
C122 C123 1.391 . S
C122 C127 1.386 . S
C123 H84 0.930 . S
C123 C122 1.391 . S
C123 C124 1.375 . S
C124 H85 0.931 . S
C124 C123 1.375 . S
C124 C125 1.375 . S
C125 C124 1.375 . S
C125 C126 1.361 . S
C126 H86 0.930 . S
C126 C125 1.361 . S
C126 C127 1.399 . S
C127 H87 0.929 . S
C127 C122 1.386 . S
C127 C126 1.399 . S
C128 C107 1.485 . S
C128 C129 1.394 . S
C128 C133 1.360 . S
C129 H88 0.931 . S
C129 C128 1.394 . S
C129 C130 1.372 . S
C130 H89 0.930 . S
C130 C129 1.372 . S
C130 C131 1.397 . S
C131 C130 1.397 . S
C131 C132 1.390 . S
C131 C147 1.476 . S
C132 H90 0.930 . S
C132 C131 1.390 . S
C132 C133 1.366 . S
C133 H91 0.932 . S
C133 C128 1.360 . S
C133 C132 1.366 . S
C134 C108 1.490 . S
C134 C135 1.380 . S
C134 C139 1.386 . S
C135 H92 0.930 . S
C135 C134 1.380 . S
C135 C136 1.381 1_554 S
C136 H93 0.929 . S
C136 C135 1.381 1_556 S
C136 C137 1.371 . S
C137 C136 1.371 . S
C137 C138 1.380 . S
C138 H94 0.931 . S
C138 C137 1.380 . S
C138 C139 1.387 1_556 S
C139 H95 0.930 . S
C139 C134 1.386 . S
C139 C138 1.387 1_554 S
C140 C109 1.519 . S
C140 C141 1.377 . S
C140 C145 1.361 . S
C141 H96 0.929 . S
C141 C140 1.377 . S
C141 C142 1.386 . S
C142 H97 0.931 . S
C142 C141 1.386 . S
C142 C143 1.363 . S
C143 C142 1.363 . S
C143 C144 1.385 . S
C144 H98 0.930 . S
C144 C143 1.385 . S
C144 C145 1.396 . S
C145 H99 0.929 . S
C145 C140 1.361 . S
C145 C144 1.396 . S
C146 O100 1.300 . S
C146 O101 1.209 . S
C146 C119 1.486 . S
C147 O102 1.199 . S
C147 O103 1.297 . S
C147 C131 1.476 . S
H148 O174 0.856 . S
H149 O177 0.854 . S
H150 C185 0.930 . S
H151 C186 0.930 . S
H152 C188 0.930 . S
H153 C189 0.930 . S
H154 C191 0.931 . S
H155 C192 0.930 . S
H156 C194 0.930 . S
H157 C195 0.929 . S
H158 C197 0.930 . S
H159 C198 0.931 . S
H160 C200 0.930 . S
H161 C201 0.929 . S
H162 C203 0.931 . S
H163 C204 0.930 . S
H164 C206 0.930 . S
H165 C207 0.932 1_556 S
H166 C209 0.930 . S
H167 C210 0.929 . S
H168 C212 0.931 . S
H169 C213 0.930 . S
H170 C215 0.929 . S
H171 C216 0.931 . S
H172 C218 0.930 . S
H173 C219 0.929 . S
O174 H148 0.856 . S
O174 C220 1.300 . S
O175 C220 1.209 . S
O176 C221 1.199 . S
O177 H149 0.854 . S
O177 C221 1.297 . S
C178 C179 1.404 . S
C178 C183 1.397 1_556 S
C178 C184 1.492 . S
C179 C178 1.404 . S
C179 C180 1.396 . S
C179 C190 1.492 . S
C180 C179 1.396 . S
C180 C181 1.393 1_556 S
C180 C196 1.509 . S
C181 C180 1.393 1_554 S
C181 C182 1.415 . S
C181 C202 1.486 . S
C182 C181 1.415 . S
C182 C183 1.388 . S
C182 C208 1.490 . S
C183 C178 1.397 1_554 S
C183 C182 1.388 . S
C183 C214 1.519 . S
C184 C178 1.492 . S
C184 C185 1.363 . S
C184 C189 1.390 . S
C185 H150 0.930 . S
C185 C184 1.363 . S
C185 C186 1.372 . S
C186 H151 0.930 . S
C186 C185 1.372 . S
C186 C187 1.383 . S
C187 C186 1.383 . S
C187 C188 1.395 . S
C188 H152 0.930 . S
C188 C187 1.395 . S
C188 C189 1.362 . S
C189 H153 0.930 . S
C189 C184 1.390 . S
C189 C188 1.362 . S
C190 C179 1.492 . S
C190 C191 1.377 . S
C190 C195 1.397 . S
C191 H154 0.931 . S
C191 C190 1.377 . S
C191 C192 1.376 . S
C192 H155 0.930 . S
C192 C191 1.376 . S
C192 C193 1.376 . S
C193 C192 1.376 . S
C193 C194 1.378 . S
C193 C220 1.486 . S
C194 H156 0.930 . S
C194 C193 1.378 . S
C194 C195 1.376 . S
C195 H157 0.929 . S
C195 C190 1.397 . S
C195 C194 1.376 . S
C196 C180 1.509 . S
C196 C197 1.391 . S
C196 C201 1.386 . S
C197 H158 0.930 . S
C197 C196 1.391 . S
C197 C198 1.375 . S
C198 H159 0.931 . S
C198 C197 1.375 . S
C198 C199 1.375 . S
C199 C198 1.375 . S
C199 C200 1.361 . S
C200 H160 0.930 . S
C200 C199 1.361 . S
C200 C201 1.399 . S
C201 H161 0.929 . S
C201 C196 1.386 . S
C201 C200 1.399 . S
C202 C181 1.486 . S
C202 C203 1.394 . S
C202 C207 1.360 . S
C203 H162 0.931 . S
C203 C202 1.394 . S
C203 C204 1.372 . S
C204 H163 0.930 . S
C204 C203 1.372 . S
C204 C205 1.397 . S
C205 C204 1.397 . S
C205 C206 1.390 . S
C205 C221 1.476 . S
C206 H164 0.930 . S
C206 C205 1.390 . S
C206 C207 1.366 . S
C207 H165 0.932 1_554 S
C207 C202 1.360 . S
C207 C206 1.366 . S
C208 C182 1.490 . S
C208 C209 1.380 . S
C208 C213 1.386 . S
C209 H166 0.930 . S
C209 C208 1.380 . S
C209 C210 1.381 . S
C210 H167 0.929 . S
C210 C209 1.381 . S
C210 C211 1.371 . S
C211 C210 1.371 . S
C211 C212 1.380 . S
C212 H168 0.931 . S
C212 C211 1.380 . S
C212 C213 1.387 . S
C213 H169 0.930 . S
C213 C208 1.386 . S
C213 C212 1.387 . S
C214 C183 1.519 . S
C214 C215 1.377 . S
C214 C219 1.361 . S
C215 H170 0.929 . S
C215 C214 1.377 . S
C215 C216 1.386 . S
C216 H171 0.931 . S
C216 C215 1.386 . S
C216 C217 1.363 . S
C217 C216 1.363 . S
C217 C218 1.385 . S
C218 H172 0.930 . S
C218 C217 1.385 . S
C218 C219 1.396 . S
C219 H173 0.929 . S
C219 C214 1.361 . S
C219 C218 1.396 . S
C220 O174 1.300 . S
C220 O175 1.209 . S
C220 C193 1.486 . S
C221 O176 1.199 . S
C221 O177 1.297 . S
C221 C205 1.476 . S
H222 O248 0.856 . S
H223 O251 0.854 . S
H224 C259 0.930 . S
H225 C260 0.930 . S
H226 C262 0.930 . S
H227 C263 0.930 . S
H228 C265 0.931 . S
H229 C266 0.930 . S
H230 C268 0.930 . S
H231 C269 0.929 . S
H232 C271 0.930 . S
H233 C272 0.931 . S
H234 C274 0.930 . S
H235 C275 0.929 . S
H236 C277 0.931 . S
H237 C278 0.930 . S
H238 C280 0.930 . S
H239 C281 0.932 . S
H240 C283 0.930 . S
H241 C284 0.929 . S
H242 C286 0.931 . S
H243 C287 0.930 . S
H244 C289 0.929 . S
H245 C290 0.931 . S
H246 C292 0.930 . S
H247 C293 0.928 1_554 S
O248 H222 0.856 . S
O248 C294 1.300 . S
O249 C294 1.209 . S
O250 C295 1.199 . S
O251 H223 0.854 . S
O251 C295 1.297 . S
C252 C253 1.404 . S
C252 C257 1.397 . S
C252 C258 1.492 . S
C253 C252 1.404 . S
C253 C254 1.396 . S
C253 C264 1.492 . S
C254 C253 1.396 . S
C254 C255 1.397 . S
C254 C270 1.509 . S
C255 C254 1.397 . S
C255 C256 1.412 . S
C255 C276 1.485 . S
C256 C255 1.412 . S
C256 C257 1.388 . S
C256 C282 1.490 1_554 S
C257 C252 1.397 . S
C257 C256 1.388 . S
C257 C288 1.519 . S
C258 C252 1.492 . S
C258 C259 1.363 . S
C258 C263 1.390 . S
C259 H224 0.930 . S
C259 C258 1.363 . S
C259 C260 1.372 . S
C260 H225 0.930 . S
C260 C259 1.372 . S
C260 C261 1.383 . S
C261 C260 1.383 . S
C261 C262 1.395 . S
C262 H226 0.930 . S
C262 C261 1.395 . S
C262 C263 1.362 . S
C263 H227 0.930 . S
C263 C258 1.390 . S
C263 C262 1.362 . S
C264 C253 1.492 . S
C264 C265 1.377 . S
C264 C269 1.397 . S
C265 H228 0.931 . S
C265 C264 1.377 . S
C265 C266 1.376 . S
C266 H229 0.930 . S
C266 C265 1.376 . S
C266 C267 1.376 . S
C267 C266 1.376 . S
C267 C268 1.378 . S
C267 C294 1.486 . S
C268 H230 0.930 . S
C268 C267 1.378 . S
C268 C269 1.376 . S
C269 H231 0.929 . S
C269 C264 1.397 . S
C269 C268 1.376 . S
C270 C254 1.509 . S
C270 C271 1.391 . S
C270 C275 1.386 . S
C271 H232 0.930 . S
C271 C270 1.391 . S
C271 C272 1.375 . S
C272 H233 0.931 . S
C272 C271 1.375 . S
C272 C273 1.375 . S
C273 C272 1.375 . S
C273 C274 1.361 . S
C274 H234 0.930 . S
C274 C273 1.361 . S
C274 C275 1.399 . S
C275 H235 0.929 . S
C275 C270 1.386 . S
C275 C274 1.399 . S
C276 C255 1.485 . S
C276 C277 1.394 . S
C276 C281 1.360 . S
C277 H236 0.931 . S
C277 C276 1.394 . S
C277 C278 1.372 . S
C278 H237 0.930 . S
C278 C277 1.372 . S
C278 C279 1.397 . S
C279 C278 1.397 . S
C279 C280 1.390 . S
C279 C295 1.476 . S
C280 H238 0.930 . S
C280 C279 1.390 . S
C280 C281 1.366 . S
C281 H239 0.932 . S
C281 C276 1.360 . S
C281 C280 1.366 . S
C282 C256 1.490 1_556 S
C282 C283 1.380 . S
C282 C287 1.386 . S
C283 H240 0.930 . S
C283 C282 1.380 . S
C283 C284 1.381 . S
C284 H241 0.929 . S
C284 C283 1.381 . S
C284 C285 1.371 . S
C285 C284 1.371 . S
C285 C286 1.380 . S
C286 H242 0.931 . S
C286 C285 1.380 . S
C286 C287 1.387 . S
C287 H243 0.930 . S
C287 C282 1.386 . S
C287 C286 1.387 . S
C288 C257 1.519 . S
C288 C289 1.377 . S
C288 C293 1.356 1_554 S
C289 H244 0.929 . S
C289 C288 1.377 . S
C289 C290 1.386 1_554 S
C290 H245 0.931 . S
C290 C289 1.386 1_556 S
C290 C291 1.363 . S
C291 C290 1.363 . S
C291 C292 1.385 . S
C292 H246 0.930 . S
C292 C291 1.385 . S
C292 C293 1.402 . S
C293 H247 0.928 1_556 S
C293 C288 1.356 1_556 S
C293 C292 1.402 . S
C294 O248 1.300 . S
C294 O249 1.209 . S
C294 C267 1.486 . S
C295 O250 1.199 . S
C295 O251 1.297 . S
C295 C279 1.476 . S
H296 O322 0.856 . S
H297 O325 0.854 . S
H298 C333 0.930 . S
H299 C334 0.930 . S
H300 C336 0.930 . S
H301 C337 0.930 . S
H302 C339 0.931 . S
H303 C340 0.930 . S
H304 C342 0.930 . S
H305 C343 0.929 . S
H306 C345 0.930 . S
H307 C346 0.931 . S
H308 C348 0.930 . S
H309 C349 0.929 . S
H310 C351 0.931 . S
H311 C352 0.930 . S
H312 C354 0.930 . S
H313 C355 0.932 . S
H314 C357 0.930 1_554 S
H315 C358 0.929 . S
H316 C360 0.931 . S
H317 C361 0.930 . S
H318 C363 0.929 . S
H319 C364 0.936 . S
H320 C366 0.930 . S
H321 C367 0.929 . S
O322 H296 0.856 . S
O322 C368 1.300 . S
O323 C368 1.209 . S
O324 C369 1.199 . S
O325 H297 0.854 . S
O325 C369 1.297 . S
C326 C327 1.404 . S
C326 C331 1.397 . S
C326 C332 1.492 . S
C327 C326 1.404 . S
C327 C328 1.396 . S
C327 C338 1.492 . S
C328 C327 1.396 . S
C328 C329 1.397 . S
C328 C344 1.509 . S
C329 C328 1.397 . S
C329 C330 1.412 . S
C329 C350 1.485 . S
C330 C329 1.412 . S
C330 C331 1.388 . S
C330 C356 1.490 . S
C331 C326 1.397 . S
C331 C330 1.388 . S
C331 C362 1.519 . S
C332 C326 1.492 . S
C332 C333 1.363 . S
C332 C337 1.390 . S
C333 H298 0.930 . S
C333 C332 1.363 . S
C333 C334 1.372 . S
C334 H299 0.930 . S
C334 C333 1.372 . S
C334 C335 1.383 . S
C335 C334 1.383 . S
C335 C336 1.395 . S
C336 H300 0.930 . S
C336 C335 1.395 . S
C336 C337 1.362 . S
C337 H301 0.930 . S
C337 C332 1.390 . S
C337 C336 1.362 . S
C338 C327 1.492 . S
C338 C339 1.377 . S
C338 C343 1.397 . S
C339 H302 0.931 . S
C339 C338 1.377 . S
C339 C340 1.376 . S
C340 H303 0.930 . S
C340 C339 1.376 . S
C340 C341 1.376 . S
C341 C340 1.376 . S
C341 C342 1.378 . S
C341 C368 1.486 . S
C342 H304 0.930 . S
C342 C341 1.378 . S
C342 C343 1.376 . S
C343 H305 0.929 . S
C343 C338 1.397 . S
C343 C342 1.376 . S
C344 C328 1.509 . S
C344 C345 1.391 . S
C344 C349 1.386 . S
C345 H306 0.930 . S
C345 C344 1.391 . S
C345 C346 1.375 . S
C346 H307 0.931 . S
C346 C345 1.375 . S
C346 C347 1.375 . S
C347 C346 1.375 . S
C347 C348 1.361 . S
C348 H308 0.930 . S
C348 C347 1.361 . S
C348 C349 1.399 . S
C349 H309 0.929 . S
C349 C344 1.386 . S
C349 C348 1.399 . S
C350 C329 1.485 . S
C350 C351 1.394 . S
C350 C355 1.360 . S
C351 H310 0.931 . S
C351 C350 1.394 . S
C351 C352 1.372 . S
C352 H311 0.930 . S
C352 C351 1.372 . S
C352 C353 1.397 . S
C353 C352 1.397 . S
C353 C354 1.390 . S
C353 C369 1.476 . S
C354 H312 0.930 . S
C354 C353 1.390 . S
C354 C355 1.366 . S
C355 H313 0.932 . S
C355 C350 1.360 . S
C355 C354 1.366 . S
C356 C330 1.490 . S
C356 C357 1.380 1_554 S
C356 C361 1.386 1_554 S
C357 H314 0.930 1_556 S
C357 C356 1.380 1_556 S
C357 C358 1.381 . S
C358 H315 0.929 . S
C358 C357 1.381 . S
C358 C359 1.371 . S
C359 C358 1.371 . S
C359 C360 1.380 . S
C360 H316 0.931 . S
C360 C359 1.380 . S
C360 C361 1.387 . S
C361 H317 0.930 . S
C361 C356 1.386 1_556 S
C361 C360 1.387 . S
C362 C331 1.519 . S
C362 C363 1.377 . S
C362 C367 1.361 . S
C363 H318 0.929 . S
C363 C362 1.377 . S
C363 C364 1.371 1_554 S
C364 H319 0.936 . S
C364 C363 1.371 1_556 S
C364 C365 1.373 . S
C365 C364 1.373 . S
C365 C366 1.385 . S
C366 H320 0.930 . S
C366 C365 1.385 . S
C366 C367 1.396 1_556 S
C367 H321 0.929 . S
C367 C362 1.361 . S
C367 C366 1.396 1_554 S
C368 O322 1.300 . S
C368 O323 1.209 . S
C368 C341 1.486 . S
C369 O324 1.199 . S
C369 O325 1.297 . S
C369 C353 1.476 . S
H370 O396 0.856 . S
H371 O399 0.854 . S
H372 C407 0.930 . S
H373 C408 0.930 . S
H374 C410 0.930 . S
H375 C411 0.930 . S
H376 C413 0.931 . S
H377 C414 0.930 . S
H378 C416 0.930 . S
H379 C417 0.929 . S
H380 C419 0.930 . S
H381 C420 0.931 . S
H382 C422 0.930 1_556 S
H383 C423 0.929 . S
H384 C425 0.931 . S
H385 C426 0.930 . S
H386 C428 0.930 . S
H387 C429 0.932 . S
H388 C431 0.930 . S
H389 C432 0.929 . S
H390 C434 0.931 . S
H391 C435 0.930 . S
H392 C437 0.929 . S
H393 C438 0.931 . S
H394 C440 0.930 . S
H395 C441 0.929 . S
O396 H370 0.856 . S
O396 C442 1.300 . S
O397 C442 1.209 . S
O398 C443 1.199 . S
O399 H371 0.854 . S
O399 C443 1.297 . S
C400 C401 1.404 . S
C400 C405 1.397 . S
C400 C406 1.492 . S
C401 C400 1.404 . S
C401 C402 1.396 . S
C401 C412 1.492 . S
C402 C401 1.396 . S
C402 C403 1.397 . S
C402 C418 1.509 . S
C403 C402 1.397 . S
C403 C404 1.412 . S
C403 C424 1.485 . S
C404 C403 1.412 . S
C404 C405 1.388 . S
C404 C430 1.490 . S
C405 C400 1.397 . S
C405 C404 1.388 . S
C405 C436 1.519 . S
C406 C400 1.492 . S
C406 C407 1.363 . S
C406 C411 1.390 . S
C407 H372 0.930 . S
C407 C406 1.363 . S
C407 C408 1.372 . S
C408 H373 0.930 . S
C408 C407 1.372 . S
C408 C409 1.383 . S
C409 C408 1.383 . S
C409 C410 1.395 . S
C410 H374 0.930 . S
C410 C409 1.395 . S
C410 C411 1.362 . S
C411 H375 0.930 . S
C411 C406 1.390 . S
C411 C410 1.362 . S
C412 C401 1.492 . S
C412 C413 1.377 . S
C412 C417 1.397 . S
C413 H376 0.931 . S
C413 C412 1.377 . S
C413 C414 1.376 1_554 S
C414 H377 0.930 . S
C414 C413 1.376 1_556 S
C414 C415 1.376 . S
C415 C414 1.376 . S
C415 C416 1.378 . S
C415 C442 1.486 . S
C416 H378 0.930 . S
C416 C415 1.378 . S
C416 C417 1.376 1_556 S
C417 H379 0.929 . S
C417 C412 1.397 . S
C417 C416 1.376 1_554 S
C418 C402 1.509 . S
C418 C419 1.391 . S
C418 C423 1.386 . S
C419 H380 0.930 . S
C419 C418 1.391 . S
C419 C420 1.375 . S
C420 H381 0.931 . S
C420 C419 1.375 . S
C420 C421 1.375 1_554 S
C421 C420 1.375 1_556 S
C421 C422 1.361 1_556 S
C422 H382 0.930 1_554 S
C422 C421 1.361 1_554 S
C422 C423 1.399 . S
C423 H383 0.929 . S
C423 C418 1.386 . S
C423 C422 1.399 . S
C424 C403 1.485 . S
C424 C425 1.394 . S
C424 C429 1.360 . S
C425 H384 0.931 . S
C425 C424 1.394 . S
C425 C426 1.372 . S
C426 H385 0.930 . S
C426 C425 1.372 . S
C426 C427 1.397 . S
C427 C426 1.397 . S
C427 C428 1.390 . S
C427 C443 1.476 . S
C428 H386 0.930 . S
C428 C427 1.390 . S
C428 C429 1.366 . S
C429 H387 0.932 . S
C429 C424 1.360 . S
C429 C428 1.366 . S
C430 C404 1.490 . S
C430 C431 1.380 . S
C430 C435 1.386 . S
C431 H388 0.930 . S
C431 C430 1.380 . S
C431 C432 1.381 . S
C432 H389 0.929 . S
C432 C431 1.381 . S
C432 C433 1.371 . S
C433 C432 1.371 . S
C433 C434 1.380 . S
C434 H390 0.931 . S
C434 C433 1.380 . S
C434 C435 1.387 . S
C435 H391 0.930 . S
C435 C430 1.386 . S
C435 C434 1.387 . S
C436 C405 1.519 . S
C436 C437 1.377 . S
C436 C441 1.361 . S
C437 H392 0.929 . S
C437 C436 1.377 . S
C437 C438 1.386 . S
C438 H393 0.931 . S
C438 C437 1.386 . S
C438 C439 1.363 . S
C439 C438 1.363 . S
C439 C440 1.385 . S
C440 H394 0.930 . S
C440 C439 1.385 . S
C440 C441 1.396 . S
C441 H395 0.929 . S
C441 C436 1.361 . S
C441 C440 1.396 . S
C442 O396 1.300 . S
C442 O397 1.209 . S
C442 C415 1.486 . S
C443 O398 1.199 . S
C443 O399 1.297 . S
C443 C427 1.476 . S
C444 O456 1.241 . S
C444 O457 1.280 . S
C445 O458 1.277 . S
C445 O459 1.245 . S
C446 O470 1.247 . S
C446 O472 1.289 . S
Mg447 O448 1.919 . S
Mg447 O457 1.984 . S
Mg447 O459 1.988 1_655 S
Mg447 O460 2.061 . S
O448 Mg447 1.919 . S
O448 Mg449 1.987 1_655 S
O448 Mg450 1.918 1_655 S
Mg449 O448 1.987 1_455 S
Mg449 O456 2.042 1_455 S
Mg449 O458 2.041 . S
Mg449 O464 2.038 1_455 S
Mg449 O472 2.238 . S
Mg450 O448 1.918 1_455 S
Mg450 O451 1.917 . S
Mg450 O461 2.106 1_455 S
Mg450 O463 2.079 1_455 S
Mg450 O472 2.106 . S
Mg450 O473 2.079 . S
O451 Mg450 1.917 . S
O451 Mg452 1.926 . S
O451 Mg453 1.986 . S
Mg452 O451 1.926 . S
Mg452 O466 1.984 . S
Mg452 O469 1.988 1_455 S
Mg452 O470 2.061 . S
Mg453 O451 1.986 . S
Mg453 O461 2.238 1_455 S
Mg453 O465 2.042 . S
Mg453 O467 2.041 1_455 S
Mg453 O474 2.038 . S
C454 O460 1.247 . S
C454 O461 1.289 . S
C455 O473 1.245 . S
C455 O474 1.274 . S
O456 C444 1.241 . S
O456 Mg449 2.042 1_655 S
O457 C444 1.280 . S
O457 Mg447 1.984 . S
O458 C445 1.277 . S
O458 Mg449 2.041 . S
O459 C445 1.245 . S
O459 Mg447 1.988 1_455 S
O460 Mg447 2.061 . S
O460 C454 1.247 . S
O461 Mg450 2.106 1_655 S
O461 Mg453 2.238 1_655 S
O461 C454 1.289 . S
C462 O463 1.245 . S
C462 O464 1.274 . S
O463 Mg450 2.079 1_655 S
O463 C462 1.245 . S
O464 Mg449 2.038 1_655 S
O464 C462 1.274 . S
O465 Mg453 2.042 . S
O465 C468 1.241 . S
O466 Mg452 1.984 . S
O466 C468 1.280 . S
O467 Mg453 2.041 1_655 S
O467 C471 1.277 . S
C468 O465 1.241 . S
C468 O466 1.280 . S
O469 Mg452 1.988 1_655 S
O469 C471 1.245 . S
O470 C446 1.247 . S
O470 Mg452 2.061 . S
C471 O467 1.277 . S
C471 O469 1.245 . S
O472 C446 1.289 . S
O472 Mg449 2.238 . S
O472 Mg450 2.106 . S
O473 Mg450 2.079 . S
O473 C455 1.245 . S
O474 Mg453 2.038 . S
O474 C455 1.274 . S
C475 O487 1.241 . S
C475 O488 1.280 . S
C476 O489 1.277 . S
C476 O490 1.245 . S
C477 O501 1.247 . S
C477 O503 1.289 . S
Mg478 O479 1.926 . S
Mg478 O488 1.984 . S
Mg478 O490 1.988 1_545 S
Mg478 O491 2.061 . S
O479 Mg478 1.926 . S
O479 Mg480 1.986 . S
O479 Mg481 1.917 . S
Mg480 O479 1.986 . S
Mg480 O487 2.042 . S
Mg480 O489 2.041 1_545 S
Mg480 O495 2.038 . S
Mg480 O503 2.238 1_545 S
Mg481 O479 1.917 . S
Mg481 O482 1.917 1_545 S
Mg481 O492 2.106 . S
Mg481 O494 2.079 . S
Mg481 O503 2.106 1_545 S
Mg481 O504 2.079 1_545 S
O482 Mg481 1.917 1_565 S
O482 Mg483 1.926 . S
O482 Mg484 1.986 1_565 S
Mg483 O482 1.926 . S
Mg483 O497 1.984 . S
Mg483 O500 1.988 1_565 S
Mg483 O501 2.061 . S
Mg484 O482 1.986 1_545 S
Mg484 O492 2.238 . S
Mg484 O496 2.042 1_545 S
Mg484 O498 2.041 . S
Mg484 O505 2.038 1_545 S
C485 O491 1.247 . S
C485 O492 1.289 . S
C486 O504 1.245 . S
C486 O505 1.274 . S
O487 C475 1.241 . S
O487 Mg480 2.042 . S
O488 C475 1.280 . S
O488 Mg478 1.984 . S
O489 C476 1.277 . S
O489 Mg480 2.041 1_565 S
O490 C476 1.245 . S
O490 Mg478 1.988 1_565 S
O491 Mg478 2.061 . S
O491 C485 1.247 . S
O492 Mg481 2.106 . S
O492 Mg484 2.238 . S
O492 C485 1.289 . S
C493 O494 1.245 . S
C493 O495 1.274 . S
O494 Mg481 2.079 . S
O494 C493 1.245 . S
O495 Mg480 2.038 . S
O495 C493 1.274 . S
O496 Mg484 2.042 1_565 S
O496 C499 1.241 . S
O497 Mg483 1.984 . S
O497 C499 1.280 . S
O498 Mg484 2.041 . S
O498 C502 1.277 . S
C499 O496 1.241 . S
C499 O497 1.280 . S
O500 Mg483 1.988 1_545 S
O500 C502 1.245 . S
O501 C477 1.247 . S
O501 Mg483 2.061 . S
C502 O498 1.277 . S
C502 O500 1.245 . S
O503 C477 1.289 . S
O503 Mg480 2.238 1_565 S
O503 Mg481 2.106 1_565 S
O504 Mg481 2.079 1_565 S
O504 C486 1.245 . S
O505 Mg484 2.038 1_565 S
O505 C486 1.274 . S
C506 O518 1.241 . S
C506 O519 1.280 . S
C507 O520 1.277 . S
C507 O521 1.245 . S
C508 O532 1.247 . S
C508 O534 1.289 . S
Mg509 O510 1.926 . S
Mg509 O519 1.984 . S
Mg509 O521 1.988 . S
Mg509 O522 2.061 . S
O510 Mg509 1.926 . S
O510 Mg511 1.986 . S
O510 Mg512 1.917 . S
Mg511 O510 1.986 . S
Mg511 O518 2.042 . S
Mg511 O520 2.041 . S
Mg511 O526 2.038 . S
Mg511 O534 2.238 . S
Mg512 O510 1.917 . S
Mg512 O513 1.917 . S
Mg512 O523 2.106 . S
Mg512 O525 2.079 . S
Mg512 O534 2.106 . S
Mg512 O535 2.079 . S
O513 Mg512 1.917 . S
O513 Mg514 1.926 . S
O513 Mg515 1.986 . S
Mg514 O513 1.926 . S
Mg514 O528 1.984 . S
Mg514 O531 1.988 . S
Mg514 O532 2.061 . S
Mg515 O513 1.986 . S
Mg515 O523 2.238 . S
Mg515 O527 2.042 . S
Mg515 O529 2.041 . S
Mg515 O536 2.038 . S
C516 O522 1.247 . S
C516 O523 1.289 . S
C517 O535 1.245 . S
C517 O536 1.274 . S
O518 C506 1.241 . S
O518 Mg511 2.042 . S
O519 C506 1.280 . S
O519 Mg509 1.984 . S
O520 C507 1.277 . S
O520 Mg511 2.041 . S
O521 C507 1.245 . S
O521 Mg509 1.988 . S
O522 Mg509 2.061 . S
O522 C516 1.247 . S
O523 Mg512 2.106 . S
O523 Mg515 2.238 . S
O523 C516 1.289 . S
C524 O525 1.245 . S
C524 O526 1.274 . S
O525 Mg512 2.079 . S
O525 C524 1.245 . S
O526 Mg511 2.038 . S
O526 C524 1.274 . S
O527 Mg515 2.042 . S
O527 C530 1.241 . S
O528 Mg514 1.984 . S
O528 C530 1.280 . S
O529 Mg515 2.041 . S
O529 C533 1.277 . S
C530 O527 1.241 . S
C530 O528 1.280 . S
O531 Mg514 1.988 . S
O531 C533 1.245 . S
O532 C508 1.247 . S
O532 Mg514 2.061 . S
C533 O529 1.277 . S
C533 O531 1.245 . S
O534 C508 1.289 . S
O534 Mg511 2.238 . S
O534 Mg512 2.106 . S
O535 Mg512 2.079 . S
O535 C517 1.245 . S
O536 Mg515 2.038 . S
O536 C517 1.274 . S
H537 C543 0.930 . S
H538 C547 0.930 . S
H539 C552 0.929 . S
H540 C550 0.929 . S
H541 C545 0.929 . S
H542 C551 0.929 . S
C543 H537 0.930 . S
C543 C544 1.367 . S
C543 C551 1.378 . S
C544 C543 1.367 . S
C544 C552 1.433 . S
C545 H541 0.929 . S
C545 C547 1.378 . S
C545 C549 1.350 . S
C546 C549 1.463 . S
C546 C551 1.350 . S
C546 N554 1.427 . S
C547 H538 0.930 . S
C547 C545 1.378 . S
C547 C548 1.367 . S
C548 C547 1.367 . S
C548 C550 1.433 . S
C549 C545 1.350 . S
C549 C546 1.463 . S
C549 N553 1.427 . S
C550 H540 0.929 . S
C550 C548 1.433 . S
C550 N553 1.384 . S
C551 H542 0.929 . S
C551 C543 1.378 . S
C551 C546 1.350 . S
C552 H539 0.929 . S
C552 C544 1.433 . S
C552 N554 1.384 . S
N553 C549 1.427 . S
N553 C550 1.384 . S
N554 C546 1.427 . S
N554 C552 1.384 . S
H555 C561 0.930 . S
H556 C565 0.930 . S
H557 C570 0.929 . S
H558 C568 0.929 . S
H559 C563 0.929 . S
H560 C569 0.929 . S
C561 H555 0.930 . S
C561 C562 1.367 . S
C561 C569 1.378 . S
C562 C561 1.367 . S
C562 C570 1.433 . S
C563 H559 0.929 . S
C563 C565 1.378 . S
C563 C567 1.350 . S
C564 C567 1.463 . S
C564 C569 1.350 . S
C564 N572 1.427 . S
C565 H556 0.930 . S
C565 C563 1.378 . S
C565 C566 1.367 . S
C566 C565 1.367 . S
C566 C568 1.433 . S
C567 C563 1.350 . S
C567 C564 1.463 . S
C567 N571 1.427 . S
C568 H558 0.929 . S
C568 C566 1.433 . S
C568 N571 1.384 . S
C569 H560 0.929 . S
C569 C561 1.378 . S
C569 C564 1.350 . S
C570 H557 0.929 . S
C570 C562 1.433 . S
C570 N572 1.384 . S
N571 C567 1.427 . S
N571 C568 1.384 . S
N572 C564 1.427 . S
N572 C570 1.384 . S
H573 C579 0.930 . S
H574 C583 0.930 . S
H575 C588 0.929 . S
H576 C586 0.929 . S
H577 C581 0.929 . S
H578 C587 0.929 . S
C579 H573 0.930 . S
C579 C580 1.367 . S
C579 C587 1.378 . S
C580 C579 1.367 . S
C580 C588 1.433 . S
C581 H577 0.929 . S
C581 C583 1.378 . S
C581 C585 1.350 . S
C582 C585 1.463 . S
C582 C587 1.350 . S
C582 N590 1.427 . S
C583 H574 0.930 . S
C583 C581 1.378 . S
C583 C584 1.367 . S
C584 C583 1.367 . S
C584 C586 1.433 . S
C585 C581 1.350 . S
C585 C582 1.463 . S
C585 N589 1.427 . S
C586 H576 0.929 . S
C586 C584 1.433 . S
C586 N589 1.384 . S
C587 H578 0.929 . S
C587 C579 1.378 . S
C587 C582 1.350 . S
C588 H575 0.929 . S
C588 C580 1.433 . S
C588 N590 1.384 . S
N589 C585 1.427 . S
N589 C586 1.384 . S
N590 C582 1.427 . S
N590 C588 1.384 . S
H591 C597 0.930 . S
H592 C601 0.930 . S
H593 C606 0.929 . S
H594 C604 0.929 . S
H595 C599 0.929 . S
H596 C605 0.929 . S
C597 H591 0.930 . S
C597 C598 1.367 . S
C597 C605 1.378 . S
C598 C597 1.367 . S
C598 C606 1.433 . S
C599 H595 0.929 . S
C599 C601 1.378 . S
C599 C603 1.350 . S
C600 C603 1.463 . S
C600 C605 1.350 . S
C600 N608 1.427 . S
C601 H592 0.930 . S
C601 C599 1.378 . S
C601 C602 1.367 . S
C602 C601 1.367 . S
C602 C604 1.433 . S
C603 C599 1.350 . S
C603 C600 1.463 . S
C603 N607 1.427 . S
C604 H594 0.929 . S
C604 C602 1.433 . S
C604 N607 1.384 . S
C605 H596 0.929 . S
C605 C597 1.378 . S
C605 C600 1.350 . S
C606 H593 0.929 . S
C606 C598 1.433 . S
C606 N608 1.384 . S
N607 C603 1.427 . S
N607 C604 1.384 . S
N608 C600 1.427 . S
N608 C606 1.384 . S
H609 C615 0.930 . S
H610 C619 0.930 . S
H611 C624 0.929 . S
H612 C622 0.929 . S
H613 C617 0.929 . S
H614 C623 0.929 . S
C615 H609 0.930 . S
C615 C616 1.367 . S
C615 C623 1.378 . S
C616 C615 1.367 . S
C616 C624 1.433 . S
C617 H613 0.929 . S
C617 C619 1.378 . S
C617 C621 1.350 . S
C618 C621 1.463 . S
C618 C623 1.350 . S
C618 N626 1.427 . S
C619 H610 0.930 . S
C619 C617 1.378 . S
C619 C620 1.367 . S
C620 C619 1.367 . S
C620 C622 1.433 . S
C621 C617 1.350 . S
C621 C618 1.463 . S
C621 N625 1.427 . S
C622 H612 0.929 . S
C622 C620 1.433 . S
C622 N625 1.384 . S
C623 H614 0.929 . S
C623 C615 1.378 . S
C623 C618 1.350 . S
C624 H611 0.929 . S
C624 C616 1.433 . S
C624 N626 1.384 . S
N625 C621 1.427 . S
N625 C622 1.384 . S
N626 C618 1.427 . S
N626 C624 1.384 . S
H627 C633 0.930 . S
H628 C637 0.930 . S
H629 C642 0.929 . S
H630 C640 0.929 . S
H631 C635 0.929 . S
H632 C641 0.929 . S
C633 H627 0.930 . S
C633 C634 1.367 . S
C633 C641 1.378 . S
C634 C633 1.367 . S
C634 C642 1.433 . S
C635 H631 0.929 . S
C635 C637 1.378 . S
C635 C639 1.350 . S
C636 C639 1.463 . S
C636 C641 1.350 . S
C636 N644 1.427 . S
C637 H628 0.930 . S
C637 C635 1.378 . S
C637 C638 1.367 . S
C638 C637 1.367 . S
C638 C640 1.433 . S
C639 C635 1.350 . S
C639 C636 1.463 . S
C639 N643 1.427 . S
C640 H630 0.929 . S
C640 C638 1.433 . S
C640 N643 1.384 . S
C641 H632 0.929 . S
C641 C633 1.378 . S
C641 C636 1.350 . S
C642 H629 0.929 . S
C642 C634 1.433 . S
C642 N644 1.384 . S
N643 C639 1.427 . S
N643 C640 1.384 . S
N644 C636 1.427 . S
N644 C642 1.384 . S
H645 C651 0.930 . S
H646 C655 0.930 . S
H647 C660 0.929 . S
H648 C658 0.929 . S
H649 C653 0.929 . S
H650 C659 0.929 . S
C651 H645 0.930 . S
C651 C652 1.367 . S
C651 C659 1.378 . S
C652 C651 1.367 . S
C652 C660 1.433 . S
C653 H649 0.929 . S
C653 C655 1.378 . S
C653 C657 1.350 . S
C654 C657 1.463 . S
C654 C659 1.350 . S
C654 N662 1.427 . S
C655 H646 0.930 . S
C655 C653 1.378 . S
C655 C656 1.367 . S
C656 C655 1.367 . S
C656 C658 1.433 . S
C657 C653 1.350 . S
C657 C654 1.463 . S
C657 N661 1.427 . S
C658 H648 0.929 . S
C658 C656 1.433 . S
C658 N661 1.384 . S
C659 H650 0.929 . S
C659 C651 1.378 . S
C659 C654 1.350 . S
C660 H647 0.929 . S
C660 C652 1.433 . S
C660 N662 1.384 . S
N661 C657 1.427 . S
N661 C658 1.384 . S
N662 C654 1.427 . S
N662 C660 1.384 . S
H663 C669 0.930 . S
H664 C673 0.930 . S
H665 C678 0.929 . S
H666 C676 0.929 . S
H667 C671 0.929 . S
H668 C677 0.929 . S
C669 H663 0.930 . S
C669 C670 1.367 . S
C669 C677 1.378 . S
C670 C669 1.367 . S
C670 C678 1.433 . S
C671 H667 0.929 . S
C671 C673 1.378 . S
C671 C675 1.350 . S
C672 C675 1.463 . S
C672 C677 1.350 . S
C672 N680 1.427 . S
C673 H664 0.930 . S
C673 C671 1.378 . S
C673 C674 1.367 . S
C674 C673 1.367 . S
C674 C676 1.433 . S
C675 C671 1.350 . S
C675 C672 1.463 . S
C675 N679 1.427 . S
C676 H666 0.929 . S
C676 C674 1.433 . S
C676 N679 1.384 . S
C677 H668 0.929 . S
C677 C669 1.378 . S
C677 C672 1.350 . S
C678 H665 0.929 . S
C678 C670 1.433 . S
C678 N680 1.384 . S
N679 C675 1.427 . S
N679 C676 1.384 . S
N680 C672 1.427 . S
N680 C678 1.384 . S
H681 C687 0.930 . S
H682 C691 0.930 . S
H683 C696 0.929 . S
H684 C694 0.929 . S
H685 C689 0.929 . S
H686 C695 0.929 . S
C687 H681 0.930 . S
C687 C688 1.367 . S
C687 C695 1.378 . S
C688 C687 1.367 . S
C688 C696 1.433 . S
C689 H685 0.929 . S
C689 C691 1.378 . S
C689 C693 1.350 . S
C690 C693 1.463 . S
C690 C695 1.350 . S
C690 N698 1.427 . S
C691 H682 0.930 . S
C691 C689 1.378 . S
C691 C692 1.367 . S
C692 C691 1.367 . S
C692 C694 1.433 . S
C693 C689 1.350 . S
C693 C690 1.463 . S
C693 N697 1.427 . S
C694 H684 0.929 . S
C694 C692 1.433 . S
C694 N697 1.384 . S
C695 H686 0.929 . S
C695 C687 1.378 . S
C695 C690 1.350 . S
C696 H683 0.929 . S
C696 C688 1.433 . S
C696 N698 1.384 . S
N697 C693 1.427 . S
N697 C694 1.384 . S
N698 C690 1.427 . S
N698 C696 1.384 . S
H699 C705 0.930 1_554 S
H700 C709 0.930 . S
H701 C714 0.929 . S
H702 C712 0.929 . S
H703 C707 0.929 . S
H704 C713 0.929 . S
C705 H699 0.930 1_556 S
C705 C706 1.367 . S
C705 C713 1.378 . S
C706 C705 1.367 . S
C706 C714 1.433 . S
C707 H703 0.929 . S
C707 C709 1.378 . S
C707 C711 1.350 . S
C708 C711 1.463 . S
C708 C713 1.350 . S
C708 N716 1.427 . S
C709 H700 0.930 . S
C709 C707 1.378 . S
C709 C710 1.367 . S
C710 C709 1.367 . S
C710 C712 1.433 . S
C711 C707 1.350 . S
C711 C708 1.463 . S
C711 N715 1.427 . S
C712 H702 0.929 . S
C712 C710 1.433 . S
C712 N715 1.384 . S
C713 H704 0.929 . S
C713 C705 1.378 . S
C713 C708 1.350 . S
C714 H701 0.929 . S
C714 C706 1.433 . S
C714 N716 1.384 . S
N715 C711 1.427 . S
N715 C712 1.384 . S
N716 C708 1.427 . S
N716 C714 1.384 . S
H717 C723 0.930 . S
H718 C727 0.930 . S
H719 C732 0.929 . S
H720 C730 0.929 . S
H721 C725 0.929 . S
H722 C731 0.929 . S
C723 H717 0.930 . S
C723 C724 1.367 . S
C723 C731 1.378 . S
C724 C723 1.367 . S
C724 C732 1.433 . S
C725 H721 0.929 . S
C725 C727 1.378 . S
C725 C729 1.350 . S
C726 C729 1.463 . S
C726 C731 1.350 . S
C726 N734 1.427 . S
C727 H718 0.930 . S
C727 C725 1.378 . S
C727 C728 1.367 . S
C728 C727 1.367 . S
C728 C730 1.433 . S
C729 C725 1.350 . S
C729 C726 1.463 . S
C729 N733 1.427 . S
C730 H720 0.929 . S
C730 C728 1.433 . S
C730 N733 1.384 . S
C731 H722 0.929 . S
C731 C723 1.378 . S
C731 C726 1.350 . S
C732 H719 0.929 . S
C732 C724 1.433 . S
C732 N734 1.384 . S
N733 C729 1.427 . S
N733 C730 1.384 . S
N734 C726 1.427 . S
N734 C732 1.384 . S
H735 C741 0.930 . S
H736 C745 0.930 . S
H737 C750 0.929 1_554 S
H738 C748 0.929 . S
H739 C743 0.929 . S
H740 C749 0.929 . S
C741 H735 0.930 . S
C741 C742 1.367 . S
C741 C749 1.378 . S
C742 C741 1.367 . S
C742 C750 1.433 . S
C743 H739 0.929 . S
C743 C745 1.378 . S
C743 C747 1.350 . S
C744 C747 1.463 . S
C744 C749 1.350 . S
C744 N752 1.427 . S
C745 H736 0.930 . S
C745 C743 1.378 . S
C745 C746 1.367 . S
C746 C745 1.367 . S
C746 C748 1.433 . S
C747 C743 1.350 . S
C747 C744 1.463 . S
C747 N751 1.427 . S
C748 H738 0.929 . S
C748 C746 1.433 . S
C748 N751 1.384 . S
C749 H740 0.929 . S
C749 C741 1.378 . S
C749 C744 1.350 . S
C750 H737 0.929 1_556 S
C750 C742 1.433 . S
C750 N752 1.384 . S
N751 C747 1.427 . S
N751 C748 1.384 . S
N752 C744 1.427 . S
N752 C750 1.384 . S
H753 C759 0.930 . S
H754 C763 0.930 . S
H755 C768 0.929 . S
H756 C766 0.929 . S
H757 C761 0.929 . S
H758 C767 0.929 . S
C759 H753 0.930 . S
C759 C760 1.367 . S
C759 C767 1.378 . S
C760 C759 1.367 . S
C760 C768 1.433 . S
C761 H757 0.929 . S
C761 C763 1.378 . S
C761 C765 1.350 . S
C762 C765 1.463 . S
C762 C767 1.350 . S
C762 N770 1.427 . S
C763 H754 0.930 . S
C763 C761 1.378 . S
C763 C764 1.367 . S
C764 C763 1.367 . S
C764 C766 1.433 . S
C765 C761 1.350 . S
C765 C762 1.463 . S
C765 N769 1.427 . S
C766 H756 0.929 . S
C766 C764 1.433 . S
C766 N769 1.384 . S
C767 H758 0.929 . S
C767 C759 1.378 . S
C767 C762 1.350 . S
C768 H755 0.929 . S
C768 C760 1.433 . S
C768 N770 1.384 . S
N769 C765 1.427 . S
N769 C766 1.384 . S
N770 C762 1.427 . S
N770 C768 1.384 . S
H771 C777 0.930 . S
H772 C781 0.930 . S
H773 C786 0.929 . S
H774 C784 0.929 . S
H775 C779 0.929 . S
H776 C785 0.929 . S
C777 H771 0.930 . S
C777 C778 1.367 . S
C777 C785 1.378 . S
C778 C777 1.367 . S
C778 C786 1.433 . S
C779 H775 0.929 . S
C779 C781 1.378 . S
C779 C783 1.350 . S
C780 C783 1.463 . S
C780 C785 1.350 . S
C780 N788 1.427 . S
C781 H772 0.930 . S
C781 C779 1.378 . S
C781 C782 1.367 . S
C782 C781 1.367 . S
C782 C784 1.433 . S
C783 C779 1.350 . S
C783 C780 1.463 . S
C783 N787 1.427 . S
C784 H774 0.929 . S
C784 C782 1.433 . S
C784 N787 1.384 . S
C785 H776 0.929 . S
C785 C777 1.378 . S
C785 C780 1.350 . S
C786 H773 0.929 . S
C786 C778 1.433 . S
C786 N788 1.384 . S
N787 C783 1.427 . S
N787 C784 1.384 . S
N788 C780 1.427 . S
N788 C786 1.384 . S
H789 C795 0.930 . S
H790 C799 0.930 . S
H791 C804 0.929 . S
H792 C802 0.929 . S
H793 C797 0.929 . S
H794 C803 0.929 . S
C795 H789 0.930 . S
C795 C796 1.367 . S
C795 C803 1.378 . S
C796 C795 1.367 . S
C796 C804 1.433 . S
C797 H793 0.929 . S
C797 C799 1.378 . S
C797 C801 1.350 . S
C798 C801 1.463 . S
C798 C803 1.350 1_556 S
C798 N806 1.427 . S
C799 H790 0.930 . S
C799 C797 1.378 . S
C799 C800 1.367 . S
C800 C799 1.367 . S
C800 C802 1.433 . S
C801 C797 1.350 . S
C801 C798 1.463 . S
C801 N805 1.427 . S
C802 H792 0.929 . S
C802 C800 1.433 . S
C802 N805 1.384 . S
C803 H794 0.929 . S
C803 C795 1.378 . S
C803 C798 1.350 1_554 S
C804 H791 0.929 . S
C804 C796 1.433 . S
C804 N806 1.384 1_554 S
N805 C801 1.427 . S
N805 C802 1.384 . S
N806 C798 1.427 . S
N806 C804 1.384 1_556 S
H807 C813 0.930 1_554 S
H808 C817 0.930 . S
H809 C822 0.929 . S
H810 C820 0.929 . S
H811 C815 0.929 . S
H812 C821 0.929 . S
C813 H807 0.930 1_556 S
C813 C814 1.367 . S
C813 C821 1.378 . S
C814 C813 1.367 . S
C814 C822 1.433 . S
C815 H811 0.929 . S
C815 C817 1.378 . S
C815 C819 1.350 . S
C816 C819 1.463 . S
C816 C821 1.350 . S
C816 N824 1.427 . S
C817 H808 0.930 . S
C817 C815 1.378 . S
C817 C818 1.367 . S
C818 C817 1.367 . S
C818 C820 1.433 . S
C819 C815 1.350 . S
C819 C816 1.463 . S
C819 N823 1.427 . S
C820 H810 0.929 . S
C820 C818 1.433 . S
C820 N823 1.384 . S
C821 H812 0.929 . S
C821 C813 1.378 . S
C821 C816 1.350 . S
C822 H809 0.929 . S
C822 C814 1.433 . S
C822 N824 1.384 . S
N823 C819 1.427 . S
N823 C820 1.384 . S
N824 C816 1.427 . S
N824 C822 1.384 . S
H825 C831 0.930 . S
H826 C835 0.930 . S
H827 C840 0.929 . S
H828 C838 0.929 . S
H829 C833 0.929 . S
H830 C839 0.929 . S
C831 H825 0.930 . S
C831 C832 1.367 . S
C831 C839 1.378 . S
C832 C831 1.367 . S
C832 C840 1.433 . S
C833 H829 0.929 . S
C833 C835 1.378 . S
C833 C837 1.350 . S
C834 C837 1.463 . S
C834 C839 1.350 . S
C834 N842 1.427 . S
C835 H826 0.930 . S
C835 C833 1.378 . S
C835 C836 1.367 . S
C836 C835 1.367 . S
C836 C838 1.433 . S
C837 C833 1.350 . S
C837 C834 1.463 . S
C837 N841 1.427 . S
C838 H828 0.929 . S
C838 C836 1.433 . S
C838 N841 1.384 . S
C839 H830 0.929 . S
C839 C831 1.378 . S
C839 C834 1.350 . S
C840 H827 0.929 . S
C840 C832 1.433 . S
C840 N842 1.384 . S
N841 C837 1.427 . S
N841 C838 1.384 . S
N842 C834 1.427 . S
N842 C840 1.384 . S
H843 C849 0.930 . S
H844 C853 0.930 . S
H845 C858 0.929 . S
H846 C856 0.929 . S
H847 C851 0.929 . S
H848 C857 0.929 . S
C849 H843 0.930 . S
C849 C850 1.367 . S
C849 C857 1.378 . S
C850 C849 1.367 . S
C850 C858 1.433 . S
C851 H847 0.929 . S
C851 C853 1.378 . S
C851 C855 1.350 . S
C852 C855 1.463 . S
C852 C857 1.350 . S
C852 N860 1.427 . S
C853 H844 0.930 . S
C853 C851 1.378 . S
C853 C854 1.367 . S
C854 C853 1.367 . S
C854 C856 1.433 . S
C855 C851 1.350 . S
C855 C852 1.463 . S
C855 N859 1.427 . S
C856 H846 0.929 . S
C856 C854 1.433 . S
C856 N859 1.384 . S
C857 H848 0.929 . S
C857 C849 1.378 . S
C857 C852 1.350 . S
C858 H845 0.929 . S
C858 C850 1.433 . S
C858 N860 1.384 . S
N859 C855 1.427 . S
N859 C856 1.384 . S
N860 C852 1.427 . S
N860 C858 1.384 . S
H861 C867 0.930 . S
H862 C871 0.930 . S
H863 C876 0.929 . S
H864 C874 0.929 . S
H865 C869 0.929 . S
H866 C875 0.929 . S
C867 H861 0.930 . S
C867 C868 1.367 . S
C867 C875 1.378 . S
C868 C867 1.367 . S
C868 C876 1.433 . S
C869 H865 0.929 . S
C869 C871 1.378 . S
C869 C873 1.350 . S
C870 C873 1.463 . S
C870 C875 1.350 . S
C870 N878 1.427 . S
C871 H862 0.930 . S
C871 C869 1.378 . S
C871 C872 1.367 . S
C872 C871 1.367 . S
C872 C874 1.433 . S
C873 C869 1.350 . S
C873 C870 1.463 . S
C873 N877 1.427 . S
C874 H864 0.929 . S
C874 C872 1.433 . S
C874 N877 1.384 . S
C875 H866 0.929 . S
C875 C867 1.378 . S
C875 C870 1.350 . S
C876 H863 0.929 . S
C876 C868 1.433 . S
C876 N878 1.384 . S
N877 C873 1.427 . S
N877 C874 1.384 . S
N878 C870 1.427 . S
N878 C876 1.384 . S
H879 C885 0.930 . S
H880 C889 0.930 . S
H881 C894 0.929 . S
H882 C892 0.929 . S
H883 C887 0.929 . S
H884 C893 0.929 . S
C885 H879 0.930 . S
C885 C886 1.367 . S
C885 C893 1.378 . S
C886 C885 1.367 . S
C886 C894 1.433 . S
C887 H883 0.929 . S
C887 C889 1.378 . S
C887 C891 1.350 . S
C888 C891 1.463 . S
C888 C893 1.350 . S
C888 N896 1.427 . S
C889 H880 0.930 . S
C889 C887 1.378 . S
C889 C890 1.367 . S
C890 C889 1.367 . S
C890 C892 1.433 . S
C891 C887 1.350 . S
C891 C888 1.463 . S
C891 N895 1.427 . S
C892 H882 0.929 . S
C892 C890 1.433 . S
C892 N895 1.384 . S
C893 H884 0.929 . S
C893 C885 1.378 . S
C893 C888 1.350 . S
C894 H881 0.929 . S
C894 C886 1.433 . S
C894 N896 1.384 . S
N895 C891 1.427 . S
N895 C892 1.384 . S
N896 C888 1.427 . S
N896 C894 1.384 . S
H897 C903 0.930 . S
H898 C907 0.930 . S
H899 C912 0.929 . S
H900 C910 0.929 . S
H901 C905 0.929 . S
H902 C911 0.929 . S
C903 H897 0.930 . S
C903 C904 1.367 . S
C903 C911 1.378 . S
C904 C903 1.367 . S
C904 C912 1.433 . S
C905 H901 0.929 . S
C905 C907 1.378 . S
C905 C909 1.350 . S
C906 C909 1.463 . S
C906 C911 1.350 . S
C906 N914 1.427 . S
C907 H898 0.930 . S
C907 C905 1.378 . S
C907 C908 1.367 . S
C908 C907 1.367 . S
C908 C910 1.433 . S
C909 C905 1.350 . S
C909 C906 1.463 . S
C909 N913 1.427 . S
C910 H900 0.929 . S
C910 C908 1.433 . S
C910 N913 1.384 . S
C911 H902 0.929 . S
C911 C903 1.378 . S
C911 C906 1.350 . S
C912 H899 0.929 . S
C912 C904 1.433 . S
C912 N914 1.384 . S
N913 C909 1.427 . S
N913 C910 1.384 . S
N914 C906 1.427 . S
N914 C912 1.384 . S
H915 C921 0.930 . S
H916 C925 0.930 . S
H917 C930 0.929 . S
H918 C928 0.929 . S
H919 C923 0.929 . S
H920 C929 0.929 . S
C921 H915 0.930 . S
C921 C922 1.367 . S
C921 C929 1.378 . S
C922 C921 1.367 . S
C922 C930 1.433 . S
C923 H919 0.929 . S
C923 C925 1.378 . S
C923 C927 1.350 . S
C924 C927 1.463 . S
C924 C929 1.350 . S
C924 N932 1.427 . S
C925 H916 0.930 . S
C925 C923 1.378 . S
C925 C926 1.367 . S
C926 C925 1.367 . S
C926 C928 1.433 . S
C927 C923 1.350 . S
C927 C924 1.463 . S
C927 N931 1.427 . S
C928 H918 0.929 . S
C928 C926 1.433 . S
C928 N931 1.384 . S
C929 H920 0.929 . S
C929 C921 1.378 . S
C929 C924 1.350 . S
C930 H917 0.929 . S
C930 C922 1.433 . S
C930 N932 1.384 . S
N931 C927 1.427 . S
N931 C928 1.384 . S
N932 C924 1.427 . S
N932 C930 1.384 . S
H933 C939 0.930 . S
H934 C943 0.930 . S
H935 C948 0.929 . S
H936 C946 0.929 . S
H937 C941 0.929 . S
H938 C947 0.929 . S
C939 H933 0.930 . S
C939 C940 1.367 . S
C939 C947 1.378 . S
C940 C939 1.367 . S
C940 C948 1.433 . S
C941 H937 0.929 . S
C941 C943 1.378 . S
C941 C945 1.350 . S
C942 C945 1.463 . S
C942 C947 1.350 . S
C942 N950 1.427 . S
C943 H934 0.930 . S
C943 C941 1.378 . S
C943 C944 1.367 . S
C944 C943 1.367 . S
C944 C946 1.433 . S
C945 C941 1.350 . S
C945 C942 1.463 . S
C945 N949 1.427 . S
C946 H936 0.929 . S
C946 C944 1.433 . S
C946 N949 1.384 . S
C947 H938 0.929 . S
C947 C939 1.378 . S
C947 C942 1.350 . S
C948 H935 0.929 . S
C948 C940 1.433 . S
C948 N950 1.384 . S
N949 C945 1.427 . S
N949 C946 1.384 . S
N950 C942 1.427 . S
N950 C948 1.384 . S
H951 C957 0.930 . S
H952 C961 0.930 . S
H953 C966 0.929 . S
H954 C964 0.929 . S
H955 C959 0.929 . S
H956 C965 0.929 . S
C957 H951 0.930 . S
C957 C958 1.367 . S
C957 C965 1.378 . S
C958 C957 1.367 . S
C958 C966 1.433 . S
C959 H955 0.929 . S
C959 C961 1.378 . S
C959 C963 1.350 . S
C960 C963 1.463 . S
C960 C965 1.350 . S
C960 N968 1.427 . S
C961 H952 0.930 . S
C961 C959 1.378 . S
C961 C962 1.367 . S
C962 C961 1.367 . S
C962 C964 1.433 . S
C963 C959 1.350 . S
C963 C960 1.463 . S
C963 N967 1.427 . S
C964 H954 0.929 . S
C964 C962 1.433 . S
C964 N967 1.384 . S
C965 H956 0.929 . S
C965 C957 1.378 . S
C965 C960 1.350 . S
C966 H953 0.929 . S
C966 C958 1.433 . S
C966 N968 1.384 . S
N967 C963 1.427 . S
N967 C964 1.384 . S
N968 C960 1.427 . S
N968 C966 1.384 . S
C544 C39 1.951 . S
C548 C455 1.911 . S
C562 C125 0.896 . S
C566 C502 0.899 . S
C584 C506 2.109 . S
C580 C211 2.027 . S
C602 C471 0.817 . S
C598 C273 0.835 . S
C616 C335 2.009 . S
C620 C486 1.993 . S
C638 C508 1.362 . S
C634 C439 1.398 . S
C656 C477 1.457 . S
C652 C187 1.473 . S
C670 C291 1.863 . S
C674 C517 1.832 . S
C692 C446 1.718 . S
C688 C359 1.627 . S
C706 C421 0.719 . S
C710 C475 0.734 . S
C724 C63 2.135 . S
C728 C533 2.257 . S
C746 C444 1.922 . S
C742 C143 1.964 1_556 S
C764 C462 2.216 . S
C760 C285 2.085 . S
C782 C476 1.961 . S
C778 C365 2.001 . S
C800 C530 1.989 . S
C796 C409 1.975 . S
C818 C445 1.880 . S
C814 C69 1.937 1_556 S
C836 C493 2.039 . S
C832 C137 1.958 . S
C850 C199 0.324 . S
C854 C516 0.448 . S
C872 C485 1.772 . S
C868 C433 1.655 . S
C890 C524 0.543 . S
C886 C51 0.488 . S
C908 C454 1.466 . S
C904 C113 1.485 . S
C926 C499 1.790 . S
C922 C217 1.847 . S
C940 C261 2.083 . S
C944 C507 2.078 . S
C958 C347 0.649 . S
C962 C468 0.651 . S
