# Generated by pormake.
# Topology pth, (4,4)-cn, num edge types: 1
# Building blocks:
#     Node 0, Type 0, BuildingBlock: CEKHIL_clean_sbu_0, # of connection points: 4
#     Node 1, Type 0, BuildingBlock: CEKHIL_clean_sbu_0, # of connection points: 4
#     Node 2, Type 0, BuildingBlock: CEKHIL_clean_sbu_0, # of connection points: 4
#     Node 3, Type 1, BuildingBlock: NAWXER_clean_linker_0, # of connection points: 4
#     Node 4, Type 1, BuildingBlock: NAWXER_clean_linker_0, # of connection points: 4
#     Node 5, Type 1, BuildingBlock: NAWXER_clean_linker_0, # of connection points: 4
#     Edge 6, Type (0, 1), BuildingBlock: OJICUG_clean_linker_0, # of connection points: 2
#     Edge 7, Type (0, 1), BuildingBlock: OJICUG_clean_linker_0, # of connection points: 2
#     Edge 8, Type (0, 1), BuildingBlock: OJICUG_clean_linker_0, # of connection points: 2
#     Edge 9, Type (0, 1), BuildingBlock: OJICUG_clean_linker_0, # of connection points: 2
#     Edge 10, Type (0, 1), BuildingBlock: OJICUG_clean_linker_0, # of connection points: 2
#     Edge 11, Type (0, 1), BuildingBlock: OJICUG_clean_linker_0, # of connection points: 2
#     Edge 12, Type (0, 1), BuildingBlock: OJICUG_clean_linker_0, # of connection points: 2
#     Edge 13, Type (0, 1), BuildingBlock: OJICUG_clean_linker_0, # of connection points: 2
#     Edge 14, Type (0, 1), BuildingBlock: OJICUG_clean_linker_0, # of connection points: 2
#     Edge 15, Type (0, 1), BuildingBlock: OJICUG_clean_linker_0, # of connection points: 2
#     Edge 16, Type (0, 1), BuildingBlock: OJICUG_clean_linker_0, # of connection points: 2
#     Edge 17, Type (0, 1), BuildingBlock: OJICUG_clean_linker_0, # of connection points: 2
# Relax obj value: 0.006
# Max RMSD: 0.048
# Mean RMSD: 0.037
data_MOF--net-pth--node1-CEKHIL_clean_sbu_0--node2-NAWXER_clean_linker_0--edge1-OJICUG_clean_linker_0
_symmetry_space_group_name_H-M    P1
_symmetry_Int_Tables_number       1
_symmetry_cell_setting            triclinic
loop_
_symmetry_equiv_pos_as_xyz
'x, y, z'
_cell_length_a     22.173344
_cell_length_b     22.245872
_cell_length_c     50.814758
_cell_angle_alpha  91.064665
_cell_angle_beta   89.875351
_cell_angle_gamma 120.37593
loop_
_atom_site_label
_atom_site_type_symbol
_atom_site_fract_x
_atom_site_fract_y
_atom_site_fract_z
_atom_type_partial_charge
Co0 Co 0.03314 0.02669 0.06688 0.0
O1 O 0.98842 0.9569 0.09308 0.0
O2 O 0.07875 0.97202 0.06935 0.0
C3 C 0.04028 0.11453 0.09225 0.0
O4 O 0.09435 0.09511 0.03875 0.0
Co5 Co 0.95803 0.10074 0.04513 0.0
O6 O 0.04542 0.15684 0.02532 0.0
C7 C 0.91162 0.95649 0.02788 0.0
C8 C 0.03403 0.93844 0.08783 0.0
C9 C 0.09452 0.14289 0.02473 0.0
O10 O 0.96539 0.96033 0.03923 0.0
O11 O 0.89618 0.00457 0.03006 0.0
O12 O 0.08743 0.09659 0.09401 0.0
O13 O 0.98805 0.07594 0.07677 0.0
Co14 Co 0.00942 0.02928 0.38025 0.0
O15 O 0.96846 0.06082 0.3547 0.0
O16 O 0.05554 0.13033 0.38161 0.0
C17 C 0.02076 0.95517 0.35249 0.0
O18 O 0.06614 0.01473 0.40853 0.0
Co19 Co 0.93124 0.87358 0.3956 0.0
O20 O 0.01979 0.89959 0.41412 0.0
C21 C 0.88536 0.96772 0.41763 0.0
C22 C 0.01363 0.12368 0.36242 0.0
C23 C 0.06698 0.96263 0.41888 0.0
O24 O 0.93816 0.02045 0.40718 0.0
O25 O 0.87095 0.9048 0.41361 0.0
O26 O 0.06757 0.02098 0.35322 0.0
O27 O 0.96621 0.93742 0.36676 0.0
Co28 Co 0.01176 0.03392 0.71434 0.0
O29 O 0.08439 0.08532 0.68936 0.0
O30 O 0.07 0.99245 0.71013 0.0
C31 C 0.92579 0.02903 0.689 0.0
O32 O 0.94193 0.96602 0.74073 0.0
Co33 Co 0.92533 0.09396 0.73899 0.0
O34 O 0.86134 0.9964 0.74942 0.0
C35 C 0.06918 0.14322 0.75847 0.0
C36 C 0.10443 0.0405 0.69294 0.0
C37 C 0.88365 0.95389 0.75087 0.0
O38 O 0.07291 0.09724 0.74388 0.0
O39 O 0.01691 0.15288 0.75794 0.0
O40 O 0.9457 0.98368 0.68566 0.0
O41 O 0.9604 0.07758 0.70642 0.0
C42 C 0.99802 0.32086 0.27158 0.0
C43 C 0.04082 0.34138 0.29429 0.0
C44 C 0.0033 0.37009 0.25361 0.0
C45 C 0.05336 0.44096 0.25729 0.0
C46 C 0.09022 0.41258 0.2981 0.0
C47 C 0.09643 0.46161 0.27982 0.0
C48 C 0.05659 0.4948 0.23951 0.0
C49 C 0.08907 0.35047 0.18444 0.0
C50 C 0.0439 0.3247 0.16238 0.0
C51 C 0.0907 0.4025 0.20089 0.0
C52 C 0.04576 0.42844 0.19607 0.0
C53 C -0.00033 0.35155 0.15755 0.0
C54 C 0.00039 0.40236 0.17423 0.0
C55 C 0.04949 0.48723 0.21172 0.0
C56 C 0.09916 0.76335 0.17512 0.0
C57 C 0.04494 0.73996 0.15637 0.0
C58 C 0.10049 0.71694 0.19302 0.0
C59 C 0.04793 0.64635 0.19227 0.0
C60 C 0.99231 0.6694 0.15579 0.0
C61 C 0.99423 0.62295 0.17339 0.0
C62 C 0.05105 0.59526 0.20956 0.0
C63 C 0.9973 0.72178 0.26499 0.0
C64 C 0.04839 0.75959 0.28441 0.0
C65 C 0.00194 0.67265 0.24892 0.0
C66 C 0.05767 0.66034 0.25204 0.0
C67 C 0.10477 0.74806 0.28719 0.0
C68 C 0.10892 0.69829 0.27133 0.0
C69 C 0.05891 0.60333 0.23713 0.0
H70 H 0.96001 0.2666 0.26758 0.0
H71 H 0.96719 0.35257 0.23711 0.0
H72 H 0.12324 0.43094 0.3155 0.0
H73 H 0.13454 0.51609 0.28348 0.0
H74 H 0.12346 0.33074 0.18902 0.0
H75 H 0.12795 0.42317 0.21703 0.0
H76 H 0.96539 0.33464 0.1405 0.0
H77 H 0.96588 0.42212 0.16977 0.0
H78 H 0.14011 0.81761 0.17606 0.0
H79 H 0.14322 0.73586 0.20707 0.0
H80 H 0.95019 0.64995 0.14145 0.0
H81 H 0.95359 0.56855 0.17228 0.0
H82 H 0.95348 0.7299 0.26236 0.0
H83 H 0.96083 0.64279 0.23461 0.0
H84 H 0.1445 0.77603 0.30217 0.0
H85 H 0.15181 0.68887 0.27428 0.0
N86 N 0.06156 0.55298 0.25096 0.0
N87 N 0.0467 0.53771 0.19805 0.0
C88 C 0.7306 0.06365 0.50837 0.0
C89 C 0.70512 0.00882 0.48957 0.0
C90 C 0.6846 0.07038 0.5255 0.0
C91 C 0.61247 0.0221 0.52418 0.0
C92 C 0.63279 0.96156 0.48808 0.0
C93 C 0.58713 0.96825 0.50512 0.0
C94 C 0.56173 0.02892 0.54113 0.0
C95 C 0.69589 0.99076 0.59729 0.0
C96 C 0.72275 0.03618 0.61935 0.0
C97 C 0.64655 0.99218 0.58061 0.0
C98 C 0.62485 0.04099 0.58491 0.0
C99 C 0.69957 0.08385 0.6239 0.0
C100 C 0.65171 0.08645 0.60683 0.0
C101 C 0.56883 0.04048 0.56872 0.0
C102 C 0.29037 0.98712 0.60435 0.0
C103 C 0.31058 0.04279 0.62244 0.0
C104 C 0.33853 0.98746 0.58641 0.0
C105 C 0.40776 0.04337 0.58634 0.0
C106 C 0.37974 0.09891 0.62214 0.0
C107 C 0.428 0.09881 0.60444 0.0
C108 C 0.46114 0.04115 0.56954 0.0
C109 C 0.31499 0.05887 0.51148 0.0
C110 C 0.2855 0.0046 0.49244 0.0
C111 C 0.36847 0.06613 0.5283 0.0
C112 C 0.39312 0.01908 0.52636 0.0
C113 C 0.31069 0.95804 0.49059 0.0
C114 C 0.36381 0.96529 0.50728 0.0
C115 C 0.45346 0.02818 0.54211 0.0
H116 H 0.78606 0.10083 0.51003 0.0
H117 H 0.70527 0.11348 0.53958 0.0
H118 H 0.61121 0.9196 0.4735 0.0
H119 H 0.53165 0.93095 0.50344 0.0
H120 H 0.7126 0.95367 0.59283 0.0
H121 H 0.62445 0.95391 0.56473 0.0
H122 H 0.71709 0.11846 0.64098 0.0
H123 H 0.63479 0.12356 0.61105 0.0
H124 H 0.23729 0.9434 0.60405 0.0
H125 H 0.32215 0.94327 0.57307 0.0
H126 H 0.39692 0.14221 0.63599 0.0
H127 H 0.48144 0.14191 0.605 0.0
H128 H 0.2966 0.09549 0.51343 0.0
H129 H 0.39151 0.10931 0.54233 0.0
H130 H 0.29018 0.91647 0.47585 0.0
H131 H 0.38248 0.92889 0.50512 0.0
N132 N 0.50413 0.02275 0.52913 0.0
N133 N 0.51849 0.0469 0.58165 0.0
C134 C 0.32901 0.29465 0.84671 0.0
C135 C 0.29805 0.32015 0.82942 0.0
C136 C 0.38593 0.34069 0.86264 0.0
C137 C 0.41286 0.41291 0.86143 0.0
C138 C 0.32506 0.39239 0.82841 0.0
C139 C 0.38199 0.43819 0.84412 0.0
C140 C 0.47596 0.46337 0.87654 0.0
C141 C 0.31188 0.36242 0.93863 0.0
C142 C 0.31969 0.31425 0.95376 0.0
C143 C 0.365 0.40795 0.92203 0.0
C144 C 0.42781 0.40743 0.92037 0.0
C145 C 0.38306 0.31401 0.952 0.0
C146 C 0.43692 0.36079 0.93569 0.0
C147 C 0.48486 0.4587 0.90377 0.0
C148 C 0.70947 0.7451 0.93337 0.0
C149 C 0.74175 0.73077 0.95417 0.0
C150 C 0.66375 0.69219 0.91607 0.0
C151 C 0.65038 0.62376 0.91865 0.0
C152 C 0.72961 0.6626 0.95647 0.0
C153 C 0.68403 0.60957 0.93895 0.0
C154 C 0.5943 0.56578 0.90279 0.0
C155 C 0.74377 0.69121 0.83544 0.0
C156 C 0.71984 0.73122 0.82269 0.0
C157 C 0.70154 0.6407 0.85367 0.0
C158 C 0.63428 0.62846 0.8591 0.0
C159 C 0.65319 0.72011 0.82922 0.0
C160 C 0.61056 0.66851 0.84676 0.0
C161 C 0.58527 0.56985 0.87548 0.0
H162 H 0.30913 0.23919 0.84794 0.0
H163 H 0.40979 0.31997 0.87541 0.0
H164 H 0.30304 0.41373 0.81503 0.0
H165 H 0.40218 0.49369 0.84267 0.0
H166 H 0.26521 0.36624 0.93992 0.0
H167 H 0.35759 0.44477 0.91085 0.0
H168 H 0.39107 0.27746 0.96305 0.0
H169 H 0.48539 0.36011 0.93483 0.0
H170 H 0.71815 0.79711 0.93082 0.0
H171 H 0.63638 0.70456 0.90151 0.0
H172 H 0.75302 0.64958 0.97242 0.0
H173 H 0.67359 0.55697 0.9417 0.0
H174 H 0.79423 0.69731 0.83087 0.0
H175 H 0.72029 0.60947 0.86275 0.0
H176 H 0.63335 0.75107 0.82076 0.0
H177 H 0.55873 0.6598 0.85076 0.0
N178 N 0.52649 0.51874 0.86354 0.0
N179 N 0.54374 0.50996 0.91586 0.0
C180 C 0.10446 0.21969 0.12171 0.0
C181 C 0.04214 0.17004 0.10917 0.0
H182 H 0.15461 0.30856 0.14765 0.0
C183 C 0.98062 0.17151 0.11405 0.0
H184 H 0.15273 0.21979 0.11822 0.0
C185 C 0.98105 0.22089 0.13155 0.0
C186 C 0.04342 0.27108 0.14415 0.0
H187 H 0.93159 0.13325 0.10491 0.0
H188 H 0.93203 0.21878 0.13547 0.0
C189 C 0.10527 0.27007 0.13883 0.0
C190 C 0.85189 0.04694 0.44158 0.0
C191 C 0.83984 0.97953 0.43593 0.0
H192 H 0.8187 0.10924 0.46291 0.0
C193 C 0.78429 0.92265 0.44854 0.0
H194 H 0.89431 0.09199 0.43231 0.0
C195 C 0.74168 0.93263 0.46613 0.0
C196 C 0.75304 0.99971 0.47159 0.0
H197 H 0.77358 0.86998 0.44496 0.0
H198 H 0.6999 0.88754 0.47562 0.0
C199 C 0.80894 0.05693 0.45926 0.0
C200 C 0.77031 0.85302 0.76465 0.0
C201 C 0.8433 0.89149 0.76689 0.0
H202 H 0.67469 0.77004 0.77919 0.0
C203 C 0.87646 0.87413 0.78633 0.0
H204 H 0.74366 0.86515 0.74965 0.0
C205 C 0.83682 0.82151 0.80421 0.0
C206 C 0.76318 0.78402 0.8026 0.0
H207 H 0.93282 0.90373 0.78858 0.0
H208 H 0.86403 0.81231 0.81985 0.0
C209 C 0.73084 0.79913 0.78193 0.0
C210 C 0.09798 0.88178 0.10594 0.0
C211 C 0.03624 0.88433 0.1035 0.0
H212 H 0.1495 0.83442 0.12503 0.0
C213 C 0.97718 0.83785 0.11791 0.0
H214 H 0.14439 0.91737 0.0952 0.0
C215 C 0.97993 0.79037 0.1347 0.0
C216 C 0.04211 0.78902 0.13777 0.0
H217 H 0.92886 0.83866 0.11645 0.0
H218 H 0.93382 0.75582 0.14582 0.0
C219 C 0.10109 0.83489 0.12315 0.0
C220 C 0.12093 0.91827 0.45056 0.0
C221 C 0.12318 0.97511 0.43791 0.0
H222 H 0.16873 0.88325 0.47797 0.0
C223 C 0.17843 0.0427 0.44407 0.0
H224 H 0.07896 0.86544 0.44663 0.0
C225 C 0.23064 0.05283 0.46218 0.0
C226 C 0.22859 0.99558 0.47442 0.0
H227 H 0.18169 0.08769 0.4348 0.0
H228 H 0.27337 0.10526 0.46614 0.0
C229 C 0.17267 0.92839 0.46856 0.0
C230 C 0.18401 0.17583 0.78032 0.0
C231 C 0.12745 0.18703 0.77701 0.0
H232 H 0.28225 0.20899 0.79959 0.0
C233 C 0.12667 0.24074 0.7918 0.0
H234 H 0.18625 0.13481 0.76934 0.0
C235 C 0.18137 0.28282 0.80909 0.0
C236 C 0.23827 0.27232 0.81214 0.0
H237 H 0.08395 0.25083 0.78995 0.0
H238 H 0.17909 0.32377 0.82012 0.0
C239 C 0.23875 0.21792 0.79779 0.0
C240 C 0.87273 0.09216 0.66821 0.0
C241 C 0.87194 0.02955 0.67217 0.0
H242 H 0.82936 0.14434 0.64766 0.0
C243 C 0.82156 0.96873 0.65902 0.0
H244 H 0.91166 0.14008 0.67786 0.0
C245 C 0.77255 0.9705 0.64222 0.0
C246 C 0.774 0.03357 0.6377 0.0
H247 H 0.8197 0.91968 0.66186 0.0
H248 H 0.73331 0.92214 0.63299 0.0
C249 C 0.82503 0.09439 0.65094 0.0
C250 C 0.80329 0.88645 1.00067 0.0
C251 C 0.86671 0.89556 0.01046 0.0
H252 H 0.71404 0.82708 0.97589 0.0
C253 C 0.88756 0.84792 1.00245 0.0
H254 H 0.78495 0.92145 1.0066 0.0
C255 C 0.84684 0.79377 0.98442 0.0
C256 C 0.78445 0.78616 0.9741 0.0
H257 H 0.93612 0.8534 0.00958 0.0
H258 H 0.86512 0.75903 0.97808 0.0
C259 C 0.76272 0.83247 0.98284 0.0
C260 C 0.09258 0.92366 0.32364 0.0
C261 C 0.02853 0.90448 0.33581 0.0
H262 H 0.14908 0.89266 0.29783 0.0
C263 C 0.97141 0.83712 0.33127 0.0
H264 H 0.13752 0.97526 0.32681 0.0
C265 C 0.97786 0.79022 0.31449 0.0
C266 C 0.0418 0.80948 0.30221 0.0
H267 H 0.9214 0.82091 0.34038 0.0
H268 H 0.93294 0.73862 0.31129 0.0
C269 C 0.09928 0.87643 0.30713 0.0
C270 C 0.16764 0.98309 0.67377 0.0
C271 C 0.16064 0.04219 0.67669 0.0
H272 H 0.2203 0.9367 0.65405 0.0
C273 C 0.20469 0.10194 0.66229 0.0
H274 H 0.13412 0.93618 0.6845 0.0
C275 C 0.254 0.10234 0.64504 0.0
C276 C 0.25975 0.0427 0.64152 0.0
H277 H 0.2005 0.14828 0.66409 0.0
H278 H 0.28644 0.14883 0.63392 0.0
C279 C 0.21642 0.98317 0.65618 0.0
C280 C 0.13798 0.20121 0.98187 0.0
C281 C 0.15235 0.18223 1.00622 0.0
H282 H 0.17815 0.25376 0.94581 0.0
C283 C 0.2218 0.20311 0.01275 0.0
H284 H 0.08471 0.1847 0.97612 0.0
C285 C 0.27626 0.24513 0.99566 0.0
C286 C 0.26209 0.26573 0.97144 0.0
H287 H 0.23421 0.18921 0.03146 0.0
H288 H 0.32946 0.26309 1.00188 0.0
C289 C 0.19188 0.24145 0.96457 0.0
C290 C 0.08468 0.24452 0.34511 0.0
C291 C 0.01965 0.18368 0.34817 0.0
H292 H 0.14323 0.34074 0.32501 0.0
C293 C 0.96109 0.17708 0.33492 0.0
H294 H 0.13083 0.25048 0.35487 0.0
C295 C 0.9676 0.22925 0.31828 0.0
C296 C 0.0333 0.28873 0.3139 0.0
H297 H 0.91017 0.13083 0.33708 0.0
H298 H 0.92096 0.22229 0.30863 0.0
C299 C 0.09161 0.29624 0.32796 0.0
loop_
_geom_bond_atom_site_label_1
_geom_bond_atom_site_label_2
_geom_bond_distance
_geom_bond_site_symmetry_2
_ccdc_geom_bond_type
Co0 O1 2.216 1_445 S
Co0 O2 2.091 1_545 S
Co0 O4 2.004 . S
Co0 O10 2.021 1_445 S
Co0 O12 2.137 . S
Co0 O13 2.244 1_455 S
O1 Co0 2.216 1_665 S
O1 C8 1.247 1_655 S
O2 Co0 2.091 1_565 S
O2 C8 1.261 . S
C3 O12 1.247 . S
C3 O13 1.272 1_455 S
O4 Co0 2.004 . S
O4 C9 1.259 . S
Co5 O6 2.061 1_655 S
Co5 O11 2.057 . S
Co5 O13 2.135 . S
O6 Co5 2.061 1_455 S
O6 C9 1.235 . S
C7 O10 1.238 . S
C7 O11 1.236 1_565 S
C8 O1 1.247 1_455 S
C8 O2 1.261 . S
C9 O4 1.259 . S
C9 O6 1.235 . S
O10 Co0 2.021 1_665 S
O10 C7 1.238 . S
O11 Co5 2.057 . S
O11 C7 1.236 1_545 S
O12 Co0 2.137 . S
O12 C3 1.247 . S
O13 Co0 2.244 1_655 S
O13 C3 1.272 1_655 S
O13 Co5 2.135 . S
Co14 O15 2.216 1_455 S
Co14 O16 2.091 . S
Co14 O18 2.004 . S
Co14 O24 2.021 1_455 S
Co14 O26 2.137 . S
Co14 O27 2.244 1_445 S
O15 Co14 2.216 1_655 S
O15 C22 1.247 1_655 S
O16 Co14 2.091 . S
O16 C22 1.261 . S
C17 O26 1.247 1_565 S
C17 O27 1.272 1_455 S
O18 Co14 2.004 . S
O18 C23 1.259 . S
Co19 O20 2.061 1_655 S
Co19 O25 2.052 . S
Co19 O27 2.135 . S
O20 Co19 2.061 1_455 S
O20 C23 1.235 1_565 S
C21 O24 1.238 . S
C21 O25 1.241 1_545 S
C22 O15 1.247 1_455 S
C22 O16 1.261 . S
C23 O18 1.259 . S
C23 O20 1.235 1_545 S
O24 Co14 2.021 1_655 S
O24 C21 1.238 . S
O25 Co19 2.052 . S
O25 C21 1.241 1_565 S
O26 Co14 2.137 . S
O26 C17 1.247 1_545 S
O27 Co14 2.244 1_665 S
O27 C17 1.272 1_655 S
O27 Co19 2.135 . S
Co28 O29 2.216 . S
Co28 O30 2.091 1_545 S
Co28 O32 2.004 1_445 S
Co28 O38 2.021 . S
Co28 O40 2.137 1_445 S
Co28 O41 2.244 1_455 S
O29 Co28 2.216 . S
O29 C36 1.247 . S
O30 Co28 2.091 1_565 S
O30 C36 1.261 1_565 S
C31 O40 1.247 1_545 S
C31 O41 1.272 . S
O32 Co28 2.004 1_665 S
O32 C37 1.259 . S
Co33 O34 2.061 1_545 S
Co33 O39 2.052 1_655 S
Co33 O41 2.135 . S
O34 Co33 2.061 1_565 S
O34 C37 1.235 . S
C35 O38 1.238 . S
C35 O39 1.241 . S
C36 O29 1.247 . S
C36 O30 1.261 1_545 S
C37 O32 1.259 . S
C37 O34 1.235 . S
O38 Co28 2.021 . S
O38 C35 1.238 . S
O39 Co33 2.052 1_455 S
O39 C35 1.241 . S
O40 Co28 2.137 1_665 S
O40 C31 1.247 1_565 S
O41 Co28 2.244 1_655 S
O41 C31 1.272 . S
O41 Co33 2.135 . S
C42 C43 1.384 1_655 S
C42 C44 1.384 . S
C42 H70 0.931 . S
C43 C42 1.384 1_455 S
C43 C46 1.382 . S
C44 C42 1.384 . S
C44 C45 1.381 1_655 S
C44 H71 0.930 . S
C45 C44 1.381 1_455 S
C45 C47 1.381 . S
C45 C48 1.487 . S
C46 C43 1.382 . S
C46 C47 1.387 . S
C46 H72 0.930 . S
C47 C45 1.381 . S
C47 C46 1.387 . S
C47 H73 0.931 . S
C48 C45 1.487 . S
C48 C55 1.399 . S
C48 N86 1.343 . S
C49 C50 1.384 . S
C49 C51 1.384 . S
C49 H74 0.931 . S
C50 C49 1.384 . S
C50 C53 1.382 1_455 S
C51 C49 1.384 . S
C51 C52 1.381 . S
C51 H75 0.930 . S
C52 C51 1.381 . S
C52 C54 1.381 1_455 S
C52 C55 1.487 . S
C53 C50 1.382 1_655 S
C53 C54 1.387 . S
C53 H76 0.930 . S
C54 C52 1.381 1_655 S
C54 C53 1.387 . S
C54 H77 0.931 . S
C55 C48 1.399 . S
C55 C52 1.487 . S
C55 N87 1.343 . S
C56 C57 1.384 . S
C56 C58 1.384 . S
C56 H78 0.931 . S
C57 C56 1.384 . S
C57 C60 1.382 1_455 S
C58 C56 1.384 . S
C58 C59 1.381 . S
C58 H79 0.930 . S
C59 C58 1.381 . S
C59 C61 1.381 1_455 S
C59 C62 1.487 . S
C60 C57 1.382 1_655 S
C60 C61 1.387 . S
C60 H80 0.930 . S
C61 C59 1.381 1_655 S
C61 C60 1.387 . S
C61 H81 0.931 . S
C62 C59 1.487 . S
C62 C69 1.399 . S
C62 N87 1.343 . S
C63 C64 1.384 1_655 S
C63 C65 1.384 . S
C63 H82 0.931 . S
C64 C63 1.384 1_455 S
C64 C67 1.382 . S
C65 C63 1.384 . S
C65 C66 1.381 1_655 S
C65 H83 0.930 . S
C66 C65 1.381 1_455 S
C66 C68 1.381 . S
C66 C69 1.487 . S
C67 C64 1.382 . S
C67 C68 1.387 . S
C67 H84 0.930 . S
C68 C66 1.381 . S
C68 C67 1.387 . S
C68 H85 0.931 . S
C69 C62 1.399 . S
C69 C66 1.487 . S
C69 N86 1.343 . S
H70 C42 0.931 . S
H71 C44 0.930 . S
H72 C46 0.930 . S
H73 C47 0.931 . S
H74 C49 0.931 . S
H75 C51 0.930 . S
H76 C53 0.930 . S
H77 C54 0.931 . S
H78 C56 0.931 . S
H79 C58 0.930 . S
H80 C60 0.930 . S
H81 C61 0.931 . S
H82 C63 0.931 . S
H83 C65 0.930 . S
H84 C67 0.930 . S
H85 C68 0.931 . S
N86 C48 1.343 . S
N86 C69 1.343 . S
N87 C55 1.343 . S
N87 C62 1.343 . S
C88 C89 1.384 . S
C88 C90 1.384 . S
C88 H116 0.931 . S
C89 C88 1.384 . S
C89 C92 1.382 1_545 S
C90 C88 1.384 . S
C90 C91 1.381 . S
C90 H117 0.930 . S
C91 C90 1.381 . S
C91 C93 1.381 1_545 S
C91 C94 1.487 . S
C92 C89 1.382 1_565 S
C92 C93 1.387 . S
C92 H118 0.930 . S
C93 C91 1.381 1_565 S
C93 C92 1.387 . S
C93 H119 0.931 . S
C94 C91 1.487 . S
C94 C101 1.399 . S
C94 N132 1.343 . S
C95 C96 1.384 1_565 S
C95 C97 1.384 . S
C95 H120 0.931 . S
C96 C95 1.384 1_545 S
C96 C99 1.382 . S
C97 C95 1.384 . S
C97 C98 1.381 1_565 S
C97 H121 0.930 . S
C98 C97 1.381 1_545 S
C98 C100 1.381 . S
C98 C101 1.487 . S
C99 C96 1.382 . S
C99 C100 1.387 . S
C99 H122 0.930 . S
C100 C98 1.381 . S
C100 C99 1.387 . S
C100 H123 0.931 . S
C101 C94 1.399 . S
C101 C98 1.487 . S
C101 N133 1.343 . S
C102 C103 1.384 1_565 S
C102 C104 1.384 . S
C102 H124 0.931 . S
C103 C102 1.384 1_545 S
C103 C106 1.382 . S
C104 C102 1.384 . S
C104 C105 1.381 1_565 S
C104 H125 0.930 . S
C105 C104 1.381 1_545 S
C105 C107 1.381 . S
C105 C108 1.487 . S
C106 C103 1.382 . S
C106 C107 1.387 . S
C106 H126 0.930 . S
C107 C105 1.381 . S
C107 C106 1.387 . S
C107 H127 0.931 . S
C108 C105 1.487 . S
C108 C115 1.399 . S
C108 N133 1.343 . S
C109 C110 1.384 . S
C109 C111 1.384 . S
C109 H128 0.931 . S
C110 C109 1.384 . S
C110 C113 1.382 1_545 S
C111 C109 1.384 . S
C111 C112 1.381 . S
C111 H129 0.930 . S
C112 C111 1.381 . S
C112 C114 1.381 1_545 S
C112 C115 1.487 . S
C113 C110 1.382 1_565 S
C113 C114 1.387 . S
C113 H130 0.930 . S
C114 C112 1.381 1_565 S
C114 C113 1.387 . S
C114 H131 0.931 . S
C115 C108 1.399 . S
C115 C112 1.487 . S
C115 N132 1.343 . S
H116 C88 0.931 . S
H117 C90 0.930 . S
H118 C92 0.930 . S
H119 C93 0.931 . S
H120 C95 0.931 . S
H121 C97 0.930 . S
H122 C99 0.930 . S
H123 C100 0.931 . S
H124 C102 0.931 . S
H125 C104 0.930 . S
H126 C106 0.930 . S
H127 C107 0.931 . S
H128 C109 0.931 . S
H129 C111 0.930 . S
H130 C113 0.930 . S
H131 C114 0.931 . S
N132 C94 1.343 . S
N132 C115 1.343 . S
N133 C101 1.343 . S
N133 C108 1.343 . S
C134 C135 1.384 . S
C134 C136 1.384 . S
C134 H162 0.931 . S
C135 C134 1.384 . S
C135 C138 1.382 . S
C136 C134 1.384 . S
C136 C137 1.381 . S
C136 H163 0.930 . S
C137 C136 1.381 . S
C137 C139 1.381 . S
C137 C140 1.487 . S
C138 C135 1.382 . S
C138 C139 1.387 . S
C138 H164 0.930 . S
C139 C137 1.381 . S
C139 C138 1.387 . S
C139 H165 0.931 . S
C140 C137 1.487 . S
C140 C147 1.399 . S
C140 N178 1.343 . S
C141 C142 1.384 . S
C141 C143 1.384 . S
C141 H166 0.931 . S
C142 C141 1.384 . S
C142 C145 1.382 . S
C143 C141 1.384 . S
C143 C144 1.381 . S
C143 H167 0.930 . S
C144 C143 1.381 . S
C144 C146 1.381 . S
C144 C147 1.487 . S
C145 C142 1.382 . S
C145 C146 1.387 . S
C145 H168 0.930 . S
C146 C144 1.381 . S
C146 C145 1.387 . S
C146 H169 0.931 . S
C147 C140 1.399 . S
C147 C144 1.487 . S
C147 N179 1.343 . S
C148 C149 1.384 . S
C148 C150 1.384 . S
C148 H170 0.931 . S
C149 C148 1.384 . S
C149 C152 1.382 . S
C150 C148 1.384 . S
C150 C151 1.381 . S
C150 H171 0.930 . S
C151 C150 1.381 . S
C151 C153 1.381 . S
C151 C154 1.487 . S
C152 C149 1.382 . S
C152 C153 1.387 . S
C152 H172 0.930 . S
C153 C151 1.381 . S
C153 C152 1.387 . S
C153 H173 0.931 . S
C154 C151 1.487 . S
C154 C161 1.399 . S
C154 N179 1.343 . S
C155 C156 1.384 . S
C155 C157 1.384 . S
C155 H174 0.931 . S
C156 C155 1.384 . S
C156 C159 1.382 . S
C157 C155 1.384 . S
C157 C158 1.381 . S
C157 H175 0.930 . S
C158 C157 1.381 . S
C158 C160 1.381 . S
C158 C161 1.487 . S
C159 C156 1.382 . S
C159 C160 1.387 . S
C159 H176 0.930 . S
C160 C158 1.381 . S
C160 C159 1.387 . S
C160 H177 0.931 . S
C161 C154 1.399 . S
C161 C158 1.487 . S
C161 N178 1.343 . S
H162 C134 0.931 . S
H163 C136 0.930 . S
H164 C138 0.930 . S
H165 C139 0.931 . S
H166 C141 0.931 . S
H167 C143 0.930 . S
H168 C145 0.930 . S
H169 C146 0.931 . S
H170 C148 0.931 . S
H171 C150 0.930 . S
H172 C152 0.930 . S
H173 C153 0.931 . S
H174 C155 0.931 . S
H175 C157 0.930 . S
H176 C159 0.930 . S
H177 C160 0.931 . S
N178 C140 1.343 . S
N178 C161 1.343 . S
N179 C147 1.343 . S
N179 C154 1.343 . S
C180 C181 1.387 . S
C180 H184 0.950 . S
C180 C189 1.390 . S
C181 C180 1.387 . S
C181 C183 1.387 1_455 S
H182 C189 0.950 . S
C183 C181 1.387 1_655 S
C183 C185 1.390 . S
C183 H187 0.950 . S
H184 C180 0.950 . S
C185 C183 1.390 . S
C185 C186 1.387 1_655 S
C185 H188 0.950 . S
C186 C185 1.387 1_455 S
C186 C189 1.387 . S
H187 C183 0.950 . S
H188 C185 0.950 . S
C189 C180 1.390 . S
C189 H182 0.950 . S
C189 C186 1.387 . S
C190 C191 1.387 . S
C190 H194 0.950 . S
C190 C199 1.390 . S
C191 C190 1.387 . S
C191 C193 1.387 1_545 S
H192 C199 0.950 . S
C193 C191 1.387 1_565 S
C193 C195 1.390 . S
C193 H197 0.950 . S
H194 C190 0.950 . S
C195 C193 1.390 . S
C195 C196 1.387 1_565 S
C195 H198 0.950 . S
C196 C195 1.387 1_545 S
C196 C199 1.387 . S
H197 C193 0.950 . S
H198 C195 0.950 . S
C199 C190 1.390 . S
C199 H192 0.950 . S
C199 C196 1.387 . S
C200 C201 1.387 . S
C200 H204 0.950 . S
C200 C209 1.390 . S
C201 C200 1.387 . S
C201 C203 1.387 . S
H202 C209 0.950 . S
C203 C201 1.387 . S
C203 C205 1.390 . S
C203 H207 0.950 . S
H204 C200 0.950 . S
C205 C203 1.390 . S
C205 C206 1.387 . S
C205 H208 0.950 . S
C206 C205 1.387 . S
C206 C209 1.387 . S
H207 C203 0.950 . S
H208 C205 0.950 . S
C209 C200 1.390 . S
C209 H202 0.950 . S
C209 C206 1.387 . S
C210 C211 1.387 . S
C210 H214 0.950 . S
C210 C219 1.390 . S
C211 C210 1.387 . S
C211 C213 1.387 1_455 S
H212 C219 0.950 . S
C213 C211 1.387 1_655 S
C213 C215 1.390 . S
C213 H217 0.950 . S
H214 C210 0.950 . S
C215 C213 1.390 . S
C215 C216 1.387 1_655 S
C215 H218 0.950 . S
C216 C215 1.387 1_455 S
C216 C219 1.387 . S
H217 C213 0.950 . S
H218 C215 0.950 . S
C219 C210 1.390 . S
C219 H212 0.950 . S
C219 C216 1.387 . S
C220 C221 1.387 1_565 S
C220 H224 0.950 . S
C220 C229 1.390 . S
C221 C220 1.387 1_545 S
C221 C223 1.387 . S
H222 C229 0.950 . S
C223 C221 1.387 . S
C223 C225 1.390 . S
C223 H227 0.950 . S
H224 C220 0.950 . S
C225 C223 1.390 . S
C225 C226 1.387 . S
C225 H228 0.950 . S
C226 C225 1.387 . S
C226 C229 1.387 1_545 S
H227 C223 0.950 . S
H228 C225 0.950 . S
C229 C220 1.390 . S
C229 H222 0.950 . S
C229 C226 1.387 1_565 S
C230 C231 1.387 . S
C230 H234 0.950 . S
C230 C239 1.390 . S
C231 C230 1.387 . S
C231 C233 1.387 . S
H232 C239 0.950 . S
C233 C231 1.387 . S
C233 C235 1.390 . S
C233 H237 0.950 . S
H234 C230 0.950 . S
C235 C233 1.390 . S
C235 C236 1.387 . S
C235 H238 0.950 . S
C236 C235 1.387 . S
C236 C239 1.387 . S
H237 C233 0.950 . S
H238 C235 0.950 . S
C239 C230 1.390 . S
C239 H232 0.950 . S
C239 C236 1.387 . S
C240 C241 1.387 . S
C240 H244 0.950 . S
C240 C249 1.390 . S
C241 C240 1.387 . S
C241 C243 1.387 1_545 S
H242 C249 0.950 . S
C243 C241 1.387 1_565 S
C243 C245 1.390 . S
C243 H247 0.950 . S
H244 C240 0.950 . S
C245 C243 1.390 . S
C245 C246 1.387 1_565 S
C245 H248 0.950 . S
C246 C245 1.387 1_545 S
C246 C249 1.387 . S
H247 C243 0.950 . S
H248 C245 0.950 . S
C249 C240 1.390 . S
C249 H242 0.950 . S
C249 C246 1.387 . S
C250 C251 1.386 . S
C250 H254 0.950 . S
C250 C259 1.390 . S
C251 C250 1.386 . S
C251 C253 1.387 . S
H252 C259 0.950 . S
C253 C251 1.387 . S
C253 C255 1.390 . S
C253 H257 0.960 . S
H254 C250 0.950 . S
C255 C253 1.390 . S
C255 C256 1.387 . S
C255 H258 0.950 . S
C256 C255 1.387 . S
C256 C259 1.387 . S
H257 C253 0.960 . S
H258 C255 0.950 . S
C259 C250 1.390 . S
C259 H252 0.950 . S
C259 C256 1.387 . S
C260 C261 1.387 1_655 S
C260 H264 0.950 . S
C260 C269 1.390 . S
C261 C260 1.387 1_455 S
C261 C263 1.387 . S
H262 C269 0.950 . S
C263 C261 1.387 . S
C263 C265 1.390 . S
C263 H267 0.950 . S
H264 C260 0.950 . S
C265 C263 1.390 . S
C265 C266 1.387 . S
C265 H268 0.950 . S
C266 C265 1.387 . S
C266 C269 1.387 1_455 S
H267 C263 0.950 . S
H268 C265 0.950 . S
C269 C260 1.390 . S
C269 H262 0.950 . S
C269 C266 1.387 1_655 S
C270 C271 1.387 1_565 S
C270 H274 0.950 . S
C270 C279 1.390 . S
C271 C270 1.387 1_545 S
C271 C273 1.387 . S
H272 C279 0.950 . S
C273 C271 1.387 . S
C273 C275 1.390 . S
C273 H277 0.950 . S
H274 C270 0.950 . S
C275 C273 1.390 . S
C275 C276 1.387 . S
C275 H278 0.950 . S
C276 C275 1.387 . S
C276 C279 1.387 1_545 S
H277 C273 0.950 . S
H278 C275 0.950 . S
C279 C270 1.390 . S
C279 H272 0.950 . S
C279 C276 1.387 1_565 S
C280 C281 1.387 . S
C280 H284 0.950 . S
C280 C289 1.390 . S
C281 C280 1.387 . S
C281 C283 1.387 1_556 S
H282 C289 0.950 . S
C283 C281 1.387 1_554 S
C283 C285 1.390 1_554 S
C283 H287 0.950 . S
H284 C280 0.950 . S
C285 C283 1.390 1_556 S
C285 C286 1.387 . S
C285 H288 0.950 . S
C286 C285 1.387 . S
C286 C289 1.387 . S
H287 C283 0.950 . S
H288 C285 0.950 . S
C289 C280 1.390 . S
C289 H282 0.950 . S
C289 C286 1.387 . S
C290 C291 1.387 . S
C290 H294 0.950 . S
C290 C299 1.390 . S
C291 C290 1.387 . S
C291 C293 1.387 1_455 S
H292 C299 0.950 . S
C293 C291 1.387 1_655 S
C293 C295 1.390 . S
C293 H297 0.950 . S
H294 C290 0.950 . S
C295 C293 1.390 . S
C295 C296 1.387 1_655 S
C295 H298 0.950 . S
C296 C295 1.387 1_455 S
C296 C299 1.387 . S
H297 C293 0.950 . S
H298 C295 0.950 . S
C299 C290 1.390 . S
C299 H292 0.950 . S
C299 C296 1.387 . S
C186 C50 1.498 . S
C181 C3 1.494 . S
C191 C21 1.506 . S
C196 C89 1.528 . S
C201 C37 1.484 . S
C206 C156 1.513 . S
C211 C8 1.502 . S
C216 C57 1.502 . S
C226 C110 1.513 . S
C221 C23 1.488 . S
C231 C35 1.485 . S
C236 C135 1.511 . S
C246 C96 1.493 . S
C241 C31 1.489 . S
C251 C7 1.487 1_556 S
C256 C149 1.508 . S
C266 C64 1.498 . S
C261 C17 1.495 . S
C276 C103 1.478 . S
C271 C36 1.478 . S
C286 C142 1.511 . S
C281 C9 1.487 1_556 S
C291 C22 1.503 . S
C296 C43 1.500 . S
