# Generated by pormake.
# Topology zzz, (3,6)-cn, num edge types: 1
# Building blocks:
#     Node 0, Type 0, BuildingBlock: KAKCAD_clean_linker_0, # of connection points: 3
#     Node 1, Type 0, BuildingBlock: KAKCAD_clean_linker_0, # of connection points: 3
#     Node 2, Type 0, BuildingBlock: KAKCAD_clean_linker_0, # of connection points: 3
#     Node 3, Type 0, BuildingBlock: KAKCAD_clean_linker_0, # of connection points: 3
#     Node 4, Type 0, BuildingBlock: KAKCAD_clean_linker_0, # of connection points: 3
#     Node 5, Type 0, BuildingBlock: KAKCAD_clean_linker_0, # of connection points: 3
#     Node 6, Type 0, BuildingBlock: KAKCAD_clean_linker_0, # of connection points: 3
#     Node 7, Type 0, BuildingBlock: KAKCAD_clean_linker_0, # of connection points: 3
#     Node 8, Type 1, BuildingBlock: HISSIN_clean_sbu_0, # of connection points: 6
#     Node 9, Type 1, BuildingBlock: HISSIN_clean_sbu_0, # of connection points: 6
#     Node 10, Type 1, BuildingBlock: HISSIN_clean_sbu_0, # of connection points: 6
#     Node 11, Type 1, BuildingBlock: HISSIN_clean_sbu_0, # of connection points: 6
#     Edge 12, Type (0, 1), BuildingBlock: ZUJKAS_clean_linker_0, # of connection points: 2
#     Edge 13, Type (0, 1), BuildingBlock: ZUJKAS_clean_linker_0, # of connection points: 2
#     Edge 14, Type (0, 1), BuildingBlock: ZUJKAS_clean_linker_0, # of connection points: 2
#     Edge 15, Type (0, 1), BuildingBlock: ZUJKAS_clean_linker_0, # of connection points: 2
#     Edge 16, Type (0, 1), BuildingBlock: ZUJKAS_clean_linker_0, # of connection points: 2
#     Edge 17, Type (0, 1), BuildingBlock: ZUJKAS_clean_linker_0, # of connection points: 2
#     Edge 18, Type (0, 1), BuildingBlock: ZUJKAS_clean_linker_0, # of connection points: 2
#     Edge 19, Type (0, 1), BuildingBlock: ZUJKAS_clean_linker_0, # of connection points: 2
#     Edge 20, Type (0, 1), BuildingBlock: ZUJKAS_clean_linker_0, # of connection points: 2
#     Edge 21, Type (0, 1), BuildingBlock: ZUJKAS_clean_linker_0, # of connection points: 2
#     Edge 22, Type (0, 1), BuildingBlock: ZUJKAS_clean_linker_0, # of connection points: 2
#     Edge 23, Type (0, 1), BuildingBlock: ZUJKAS_clean_linker_0, # of connection points: 2
#     Edge 24, Type (0, 1), BuildingBlock: ZUJKAS_clean_linker_0, # of connection points: 2
#     Edge 25, Type (0, 1), BuildingBlock: ZUJKAS_clean_linker_0, # of connection points: 2
#     Edge 26, Type (0, 1), BuildingBlock: ZUJKAS_clean_linker_0, # of connection points: 2
#     Edge 27, Type (0, 1), BuildingBlock: ZUJKAS_clean_linker_0, # of connection points: 2
#     Edge 28, Type (0, 1), BuildingBlock: ZUJKAS_clean_linker_0, # of connection points: 2
#     Edge 29, Type (0, 1), BuildingBlock: ZUJKAS_clean_linker_0, # of connection points: 2
#     Edge 30, Type (0, 1), BuildingBlock: ZUJKAS_clean_linker_0, # of connection points: 2
#     Edge 31, Type (0, 1), BuildingBlock: ZUJKAS_clean_linker_0, # of connection points: 2
#     Edge 32, Type (0, 1), BuildingBlock: ZUJKAS_clean_linker_0, # of connection points: 2
#     Edge 33, Type (0, 1), BuildingBlock: ZUJKAS_clean_linker_0, # of connection points: 2
#     Edge 34, Type (0, 1), BuildingBlock: ZUJKAS_clean_linker_0, # of connection points: 2
#     Edge 35, Type (0, 1), BuildingBlock: ZUJKAS_clean_linker_0, # of connection points: 2
# Relax obj value: 0.355
# Max RMSD: 0.209
# Mean RMSD: 0.187
data_MOF--net-zzz--node1-HISSIN_clean_sbu_0--node2-KAKCAD_clean_linker_0--edge1-ZUJKAS_clean_linker_0
_symmetry_space_group_name_H-M    P1
_symmetry_Int_Tables_number       1
_symmetry_cell_setting            triclinic
loop_
_symmetry_equiv_pos_as_xyz
'x, y, z'
_cell_length_a     70.248106
_cell_length_b     70.904571
_cell_length_c     26.999648
_cell_angle_alpha  89.573361
_cell_angle_beta   92.252145
_cell_angle_gamma 91.71024
loop_
_atom_site_label
_atom_site_type_symbol
_atom_site_fract_x
_atom_site_fract_y
_atom_site_fract_z
_atom_type_partial_charge
C0 C 0.77746 0.5803 0.04113 0.0
C1 C 0.79112 0.56647 0.03607 0.0
C2 C 0.76578 0.57987 0.082 0.0
C3 C 0.76789 0.56579 0.11862 0.0
C4 C 0.78199 0.55237 0.11407 0.0
C5 C 0.79344 0.55269 0.07321 0.0
C6 C 0.75478 0.56411 0.16006 0.0
C7 C 0.73508 0.56434 0.15077 0.0
C8 C 0.72237 0.55985 0.1883 0.0
C9 C 0.72966 0.55533 0.23635 0.0
C10 C 0.74955 0.55576 0.24624 0.0
C11 C 0.76187 0.56018 0.20801 0.0
C12 C 0.7585 0.55088 0.29498 0.0
C13 C 0.76363 0.5653 0.32867 0.0
C14 C 0.76685 0.53323 0.30109 0.0
C15 C 0.78106 0.53044 0.338 0.0
C16 C 0.78735 0.5453 0.36949 0.0
C17 C 0.70178 0.55861 0.17385 0.0
C18 C 0.6933 0.57414 0.15024 0.0
C19 C 0.69203 0.54103 0.17242 0.0
C20 C 0.6749 0.5387 0.14421 0.0
C21 C 0.6673 0.55393 0.11692 0.0
C22 C 0.67624 0.57185 0.12223 0.0
C23 C 0.77783 0.56251 0.36574 0.0
H24 H 0.77548 0.59108 0.0129 0.0
H25 H 0.75503 0.5904 0.08482 0.0
H26 H 0.78378 0.54122 0.14138 0.0
H27 H 0.80407 0.54202 0.07043 0.0
H28 H 0.72956 0.5669 0.1133 0.0
H29 H 0.77716 0.56011 0.21547 0.0
H30 H 0.72004 0.55147 0.26538 0.0
H31 H 0.75771 0.57916 0.32394 0.0
H32 H 0.76351 0.52208 0.27464 0.0
H33 H 0.78811 0.51706 0.33921 0.0
H34 H 0.70059 0.58783 0.15059 0.0
H35 H 0.69843 0.52877 0.1896 0.0
H36 H 0.78204 0.57418 0.38981 0.0
H37 H 0.67058 0.58395 0.10258 0.0
H38 H 0.6684 0.5247 0.14086 0.0
C39 C 0.93003 0.76971 0.02582 0.0
C40 C 0.93086 0.78946 0.02894 0.0
C41 C 0.93848 0.75873 0.06349 0.0
C42 C 0.94856 0.76736 0.10396 0.0
C43 C 0.9481 0.78713 0.10821 0.0
C44 C 0.93915 0.79797 0.07155 0.0
C45 C 0.96153 0.75641 0.13786 0.0
C46 C 0.97107 0.74083 0.12024 0.0
C47 C 0.98559 0.73233 0.14877 0.0
C48 C 0.99136 0.74004 0.19529 0.0
C49 C 0.98167 0.75551 0.21393 0.0
C50 C 0.96637 0.76292 0.18584 0.0
C51 C 0.98802 0.76586 0.25974 0.0
C52 C 0.97492 0.76873 0.2968 0.0
C53 C 1.00504 0.77679 0.26067 0.0
C54 C 0.00821 0.79126 0.29561 0.0
C55 C 0.9944 0.79511 0.33041 0.0
C56 C 0.99459 0.71578 0.12703 0.0
C57 C 0.98623 0.69772 0.1331 0.0
C58 C 0.00801 0.71856 0.09031 0.0
C59 C 0.01231 0.70379 0.05867 0.0
C60 C 1.00309 0.68594 0.06261 0.0
C61 C 0.99048 0.68295 0.10144 0.0
C62 C 0.97811 0.78307 0.33181 0.0
H63 H 0.92373 0.76286 0.99314 0.0
H64 H 0.93792 0.74355 0.05945 0.0
H65 H 0.95589 0.7946 0.13771 0.0
H66 H 0.94035 0.81321 0.07443 0.0
H67 H 0.96784 0.73559 0.08319 0.0
H68 H 0.95891 0.77464 0.20073 0.0
H69 H 1.0032 0.73417 0.2165 0.0
H70 H 0.96159 0.76064 0.29666 0.0
H71 H 0.01518 0.77517 0.2319 0.0
H72 H 0.02089 0.80022 0.29308 0.0
H73 H 0.9754 0.69538 0.16017 0.0
H74 H 0.01431 0.73247 0.08412 0.0
H75 H 0.96736 0.78524 0.3587 0.0
H76 H 0.98292 0.66953 0.10549 0.0
H77 H 0.02234 0.7066 0.02988 0.0
C78 C 0.7456 0.92459 0.02361 0.0
C79 C 0.72611 0.92786 0.01481 0.0
C80 C 0.7559 0.93406 0.06181 0.0
C81 C 0.7469 0.94703 0.09173 0.0
C82 C 0.72708 0.94881 0.08584 0.0
C83 C 0.71683 0.93933 0.04805 0.0
C84 C 0.75814 0.96076 0.12335 0.0
C85 C 0.77479 0.96936 0.10568 0.0
C86 C 0.78362 0.98495 0.12974 0.0
C87 C 0.77541 0.99227 0.17243 0.0
C88 C 0.75886 0.98335 0.19144 0.0
C89 C 0.75076 0.96744 0.1672 0.0
C90 C 0.74827 0.99087 0.23347 0.0
C91 C 0.74576 0.97964 0.27601 0.0
C92 C 0.73668 0.00654 0.22602 0.0
C93 C 0.72217 0.01022 0.2588 0.0
C94 C 0.71895 0.99835 0.3 0.0
C95 C 0.8008 0.99342 0.10659 0.0
C96 C 0.81886 0.98637 0.11885 0.0
C97 C 0.79858 0.00447 0.06342 0.0
C98 C 0.81385 0.00768 0.03202 0.0
C99 C 0.83172 0.99973 0.04265 0.0
C100 C 0.83414 0.98954 0.08745 0.0
C101 C 0.73143 0.98342 0.30905 0.0
H102 H 0.75312 0.91562 0.99918 0.0
H103 H 0.7711 0.93204 0.06612 0.0
H104 H 0.71962 0.9588 0.10754 0.0
H105 H 0.70193 0.94252 0.04228 0.0
H106 H 0.78048 0.96458 0.07135 0.0
H107 H 0.73792 0.96083 0.18127 0.0
H108 H 0.78167 0.00473 0.19026 0.0
H109 H 0.75415 0.9672 0.28204 0.0
H110 H 0.73795 0.01517 0.19296 0.0
H111 H 0.71303 0.02198 0.25086 0.0
H112 H 0.82085 0.97739 0.15116 0.0
H113 H 0.78467 0.00958 0.05223 0.0
H114 H 0.72936 0.97385 0.33995 0.0
H115 H 0.84771 0.98343 0.0975 0.0
H116 H 0.81124 0.01541 0.99781 0.0
C117 C 0.49761 0.72839 0.31344 0.0
C118 C 0.51601 0.72116 0.31915 0.0
C119 C 0.49326 0.7414 0.27588 0.0
C120 C 0.50713 0.74749 0.24272 0.0
C121 C 0.52587 0.74141 0.25041 0.0
C122 C 0.53027 0.72836 0.28823 0.0
C123 C 0.50114 0.75723 0.19589 0.0
C124 C 0.51093 0.77335 0.17762 0.0
C125 C 0.50512 0.78131 0.13168 0.0
C126 C 0.48997 0.77288 0.10373 0.0
C127 C 0.48042 0.75664 0.12089 0.0
C128 C 0.48585 0.7492 0.16738 0.0
C129 C 0.46605 0.74646 0.08836 0.0
C130 C 0.45288 0.75627 0.05802 0.0
C131 C 0.46633 0.72671 0.08513 0.0
C132 C 0.45415 0.71703 0.05155 0.0
C133 C 0.44139 0.72682 0.02009 0.0
C134 C 0.51484 0.79803 0.11013 0.0
C135 C 0.50747 0.81598 0.11664 0.0
C136 C 0.52828 0.79556 0.07385 0.0
C137 C 0.5335 0.81056 0.04269 0.0
C138 C 0.52524 0.8283 0.04695 0.0
C139 C 0.51269 0.83101 0.08554 0.0
C140 C 0.4407 0.74654 0.02408 0.0
H141 H 0.48615 0.72316 0.33597 0.0
H142 H 0.4787 0.7459 0.27096 0.0
H143 H 0.53683 0.74579 0.22528 0.0
H144 H 0.54469 0.72341 0.29205 0.0
H145 H 0.5229 0.7796 0.19881 0.0
H146 H 0.47852 0.73661 0.18079 0.0
H147 H 0.48614 0.77865 0.0675 0.0
H148 H 0.45219 0.77148 0.06001 0.0
H149 H 0.47656 0.71871 0.10702 0.0
H150 H 0.45542 0.7019 0.04864 0.0
H151 H 0.49671 0.81805 0.14359 0.0
H152 H 0.53384 0.78173 0.06758 0.0
H153 H 0.43095 0.75446 1.00048 0.0
H154 H 0.50589 0.84438 0.08964 0.0
H155 H 0.5434 0.80804 0.01387 0.0
C156 C 0.25191 0.44512 0.2242 0.0
C157 C 0.23348 0.43726 0.216 0.0
C158 C 0.2645 0.4466 0.18564 0.0
C159 C 0.25916 0.43977 0.13813 0.0
C160 C 0.24157 0.42988 0.13165 0.0
C161 C 0.22878 0.42881 0.17 0.0
C162 C 0.27069 0.44523 0.09478 0.0
C163 C 0.29047 0.44818 0.10025 0.0
C164 C 0.30083 0.45719 0.06304 0.0
C165 C 0.29141 0.46254 0.01826 0.0
C166 C 0.27176 0.45833 0.01075 0.0
C167 C 0.2616 0.44997 0.04936 0.0
C168 C 0.26087 0.46331 0.96449 0.0
C169 C 0.25901 0.48222 0.94973 0.0
C170 C 0.24936 0.44937 0.94043 0.0
C171 C 0.23544 0.45427 0.90464 0.0
C172 C 0.23258 0.47329 0.89208 0.0
C173 C 0.32107 0.46221 0.07509 0.0
C174 C 0.3261 0.48059 0.09059 0.0
C175 C 0.33407 0.4478 0.08382 0.0
C176 C 0.35123 0.45141 0.11059 0.0
C177 C 0.35561 0.46947 0.13008 0.0
C178 C 0.3432 0.48421 0.11786 0.0
C179 C 0.24496 0.48717 0.91392 0.0
H180 H 0.25624 0.45124 0.25967 0.0
H181 H 0.27783 0.45435 0.19255 0.0
H182 H 0.2372 0.42386 0.09612 0.0
H183 H 0.21475 0.42253 0.16229 0.0
H184 H 0.29784 0.4443 0.1347 0.0
H185 H 0.24626 0.44822 0.04461 0.0
H186 H 0.29928 0.46972 0.98961 0.0
H187 H 0.26756 0.49325 0.96812 0.0
H188 H 0.25042 0.43469 0.95144 0.0
H189 H 0.22614 0.44318 0.8892 0.0
H190 H 0.31609 0.49183 0.0853 0.0
H191 H 0.33036 0.43345 0.0728 0.0
H192 H 0.24334 0.50194 0.90465 0.0
H193 H 0.34595 0.49825 0.13242 0.0
H194 H 0.36061 0.43981 0.11816 0.0
C195 C 0.08473 0.24625 0.23503 0.0
C196 C 0.09446 0.23058 0.21845 0.0
C197 C 0.07705 0.25918 0.20121 0.0
C198 C 0.0796 0.2572 0.15007 0.0
C199 C 0.09206 0.24339 0.13468 0.0
C200 C 0.09915 0.23002 0.16833 0.0
C201 C 0.06708 0.26729 0.11324 0.0
C202 C 0.05957 0.28482 0.12422 0.0
C203 C 0.04487 0.29251 0.09454 0.0
C204 C 0.03814 0.28294 0.0512 0.0
C205 C 0.04634 0.26579 0.0381 0.0
C206 C 0.06048 0.25812 0.06968 0.0
C207 C 0.0401 0.25453 0.99363 0.0
C208 C 0.02183 0.24593 0.98977 0.0
C209 C 0.05391 0.24887 0.96096 0.0
C210 C 0.05004 0.23413 0.92757 0.0
C211 C 0.03218 0.22454 0.92567 0.0
C212 C 0.03611 0.30975 0.11318 0.0
C213 C 0.02449 0.30818 0.15423 0.0
C214 C 0.04297 0.32771 0.09906 0.0
C215 C 0.03901 0.34369 0.12696 0.0
C216 C 0.02827 0.34201 0.16998 0.0
C217 C 0.02058 0.32407 0.18219 0.0
C218 C 0.0179 0.2311 0.95613 0.0
H219 H 0.08159 0.24765 0.27376 0.0
H220 H 0.0678 0.26966 0.21523 0.0
H221 H 0.09522 0.24196 0.09599 0.0
H222 H 0.10685 0.21839 0.15398 0.0
H223 H 0.06465 0.29234 0.15719 0.0
H224 H 0.06553 0.24427 0.06122 0.0
H225 H 0.02666 0.28868 0.0283 0.0
H226 H 0.011 0.24978 0.01498 0.0
H227 H 0.0682 0.25507 0.96358 0.0
H228 H 0.06154 0.22951 0.9055 0.0
H229 H 0.01948 0.29441 0.16669 0.0
H230 H 0.05233 0.32923 0.06825 0.0
H231 H 1.00386 0.22437 0.95526 0.0
H232 H 0.01251 0.322 0.21523 0.0
H233 H 0.04494 0.35725 0.11576 0.0
C234 C 0.28388 0.09105 0.2401 0.0
C235 C 0.30077 0.0995 0.22302 0.0
C236 C 0.2714 0.08109 0.20772 0.0
C237 C 0.27504 0.08003 0.1569 0.0
C238 C 0.29037 0.09097 0.13889 0.0
C239 C 0.30327 0.10034 0.17161 0.0
C240 C 0.26452 0.06582 0.12467 0.0
C241 C 0.24585 0.0598 0.13467 0.0
C242 C 0.237 0.0442 0.11042 0.0
C243 C 0.24682 0.035 0.07299 0.0
C244 C 0.2652 0.04174 0.06025 0.0
C245 C 0.27389 0.05675 0.08697 0.0
C246 C 0.27624 0.03393 0.01945 0.0
C247 C 0.28833 0.01873 0.02849 0.0
C248 C 0.27881 0.04496 0.97663 0.0
C249 C 0.29371 0.04159 0.94508 0.0
C250 C 0.3066 0.02711 0.95552 0.0
C251 C 0.21798 0.03767 0.12809 0.0
C252 C 0.21565 0.02003 0.15152 0.0
C253 C 0.20345 0.05077 0.13179 0.0
C254 C 0.18769 0.04692 0.16085 0.0
C255 C 0.18588 0.02978 0.18723 0.0
C256 C 0.1998 0.01613 0.18072 0.0
C257 C 0.30325 0.01526 0.99668 0.0
H258 H 0.28102 0.09079 0.27923 0.0
H259 H 0.25979 0.07309 0.22368 0.0
H260 H 0.29319 0.09137 0.09976 0.0
H261 H 0.31594 0.10688 0.15666 0.0
H262 H 0.23824 0.06686 0.16295 0.0
H263 H 0.28843 0.06086 0.07896 0.0
H264 H 0.24017 0.02305 0.05365 0.0
H265 H 0.28709 0.01036 0.06201 0.0
H266 H 0.27001 0.05705 0.96935 0.0
H267 H 0.29559 0.05083 0.91341 0.0
H268 H 0.2267 0.00974 0.15001 0.0
H269 H 0.20492 0.06458 0.11466 0.0
H270 H 0.3129 0.00405 1.00619 0.0
H271 H 0.19881 1.00261 0.19951 0.0
H272 H 0.17754 0.05794 0.16493 0.0
C273 C 0.50088 0.28898 0.96453 0.0
C274 C 0.51604 0.29702 0.93802 0.0
C275 C 0.50432 0.27566 1.00232 0.0
C276 C 0.523 0.27021 0.01459 0.0
C277 C 0.53795 0.27739 0.98616 0.0
C278 C 0.53453 0.29059 0.94839 0.0
C279 C 0.52742 0.25942 0.06095 0.0
C280 C 0.51733 0.24264 0.07351 0.0
C281 C 0.52154 0.23349 0.11899 0.0
C282 C 0.53569 0.24116 0.15157 0.0
C283 C 0.54559 0.25796 0.14007 0.0
C284 C 0.54145 0.26688 0.09454 0.0
C285 C 0.55927 0.26685 0.17697 0.0
C286 C 0.55505 0.26694 0.22746 0.0
C287 C 0.57606 0.27616 0.16195 0.0
C288 C 0.58794 0.28597 0.19633 0.0
C289 C 0.58333 0.28656 0.24647 0.0
C290 C 0.51127 0.21613 0.13504 0.0
C291 C 0.49947 0.21696 0.17566 0.0
C292 C 0.51659 0.19846 0.11814 0.0
C293 C 0.5112 0.18194 0.14357 0.0
C294 C 0.50042 0.18284 0.1864 0.0
C295 C 0.49401 0.2005 0.20092 0.0
C296 C 0.56697 0.27663 0.26179 0.0
H297 H 0.48642 0.2934 0.95707 0.0
H298 H 0.49254 0.27045 0.02376 0.0
H299 H 0.55249 0.2734 0.99465 0.0
H300 H 0.54659 0.29651 0.9292 0.0
H301 H 0.5063 0.23683 0.0484 0.0
H302 H 0.54857 0.28023 0.08609 0.0
H303 H 0.53891 0.23395 0.18634 0.0
H304 H 0.54209 0.26022 0.24027 0.0
H305 H 0.57989 0.27609 0.12348 0.0
H306 H 0.60055 0.29338 0.18356 0.0
H307 H 0.49552 0.23048 0.18991 0.0
H308 H 0.52598 0.19752 0.08743 0.0
H309 H 0.56282 0.27711 0.29997 0.0
H310 H 0.48589 0.20182 0.23394 0.0
H311 H 0.51618 0.16856 0.13099 0.0
Eu312 Eu 0.99721 0.01972 0.57873 0.0
Eu313 Eu 0.02577 1.00204 0.66314 0.0
C314 C 0.0183 0.04621 0.66293 0.0
C315 C 0.98877 0.05226 0.47801 0.0
C316 C 1.00188 0.06444 0.50343 0.0
C317 C 1.0009 0.06374 0.39988 0.0
C318 C 0.01474 0.07563 0.47756 0.0
C319 C 0.98805 0.0523 0.42597 0.0
C320 C 0.01477 0.07494 0.42571 0.0
C321 C 0.97969 0.03675 0.5058 0.0
O322 O 0.9975 0.00553 0.69937 0.0
O323 O 0.97641 0.00683 0.63237 0.0
C324 C 0.97992 0.00505 0.68046 0.0
O325 O 1.0015 0.98965 0.55521 0.0
O326 O 0.03513 0.99875 0.7408 0.0
O327 O 0.04935 0.98389 0.68407 0.0
O328 O 0.00939 0.97682 0.63069 0.0
C329 C 1.00419 0.97483 0.58377 0.0
O330 O 0.02706 0.02848 0.55742 0.0
O331 O 0.04294 0.00424 0.59394 0.0
O332 O 0.03154 0.03358 0.6691 0.0
O333 O 0.98775 0.02061 0.50076 0.0
O334 O 0.97638 0.04017 0.55207 0.0
O335 O 1.00255 0.04233 0.63667 0.0
C336 C 0.04061 0.96664 0.75537 0.0
C337 C 0.03671 0.95038 0.72668 0.0
C338 C 0.02567 0.95104 0.82487 0.0
C339 C 0.02666 0.93499 0.74621 0.0
C340 C 0.03575 0.96648 0.80529 0.0
C341 C 0.02033 0.93548 0.79485 0.0
C342 C 0.04591 0.98468 0.73112 0.0
C343 C 0.04183 0.01759 0.56012 0.0
H344 H 1.00306 0.06447 0.54357 0.0
H345 H 1.00066 0.06308 0.35979 0.0
H346 H 0.02509 0.08441 0.49824 0.0
H347 H 0.97836 0.04271 0.4057 0.0
H348 H 0.04022 0.94998 0.688 0.0
H349 H 0.02134 0.95163 0.86288 0.0
H350 H 0.02274 0.92326 0.72202 0.0
H351 H 0.0386 0.97881 0.8282 0.0
Eu352 Eu 0.52392 0.0234 0.66516 0.0
Eu353 Eu 0.50102 0.99579 0.58689 0.0
C354 C 0.52042 0.97799 0.6839 0.0
C355 C 0.5662 0.03917 0.73829 0.0
C356 C 0.57128 0.03311 0.78646 0.0
C357 C 0.59653 0.02848 0.71016 0.0
C358 C 0.58844 0.02402 0.79591 0.0
C359 C 0.57938 0.03749 0.70068 0.0
C360 C 0.60085 0.02091 0.7573 0.0
C361 C 0.5461 0.04319 0.72532 0.0
O362 O 0.48132 0.99982 0.65038 0.0
O363 O 0.49287 0.02826 0.68012 0.0
C364 C 0.47931 0.01502 0.67718 0.0
O365 O 0.51941 0.04031 0.59467 0.0
O366 O 0.47815 0.97541 0.56575 0.0
O367 O 0.49652 0.9869 0.51002 0.0
O368 O 0.49188 0.02528 0.56887 0.0
C369 C 0.50388 0.03966 0.56615 0.0
O370 O 0.54683 0.0078 0.62717 0.0
O371 O 0.52998 1.00199 0.55487 0.0
O372 O 0.51663 0.97516 0.63641 0.0
O373 O 0.5423 0.04829 0.67958 0.0
O374 O 0.53373 0.03061 0.74068 0.0
O375 O 0.52057 0.99502 0.70291 0.0
C376 C 0.46389 0.98823 0.49255 0.0
C377 C 0.45113 0.99845 0.52009 0.0
C378 C 0.45333 0.00521 0.41835 0.0
C379 C 0.44028 0.01245 0.49746 0.0
C380 C 0.46427 0.99117 0.44109 0.0
C381 C 0.44192 0.01653 0.44687 0.0
C382 C 0.47998 0.97902 0.51864 0.0
C383 C 0.54637 1.00395 0.57968 0.0
H384 H 0.56135 0.03411 0.81597 0.0
H385 H 0.606 0.02665 0.67995 0.0
H386 H 0.59133 0.0183 0.83265 0.0
H387 H 0.57597 0.04198 0.66302 0.0
H388 H 0.45059 0.99673 0.55992 0.0
H389 H 0.45481 0.00807 0.3792 0.0
H390 H 0.43129 0.02072 0.52008 0.0
H391 H 0.4742 0.9837 0.41923 0.0
Eu392 Eu 0.49396 0.51324 0.65006 0.0
Eu393 Eu 0.53225 0.50224 0.59143 0.0
C394 C 0.53528 0.51715 0.7035 0.0
C395 C 0.45398 0.54032 0.70448 0.0
C396 C 0.46323 0.5576 0.69403 0.0
C397 C 0.42775 0.55702 0.73769 0.0
C398 C 0.45482 0.57452 0.70557 0.0
C399 C 0.43617 0.54009 0.72604 0.0
C400 C 0.43702 0.57443 0.72777 0.0
C401 C 0.46265 0.52254 0.69185 0.0
O402 O 0.52049 0.47426 0.6199 0.0
O403 O 0.50151 0.48474 0.6809 0.0
C404 C 0.51053 0.47118 0.65966 0.0
O405 O 0.48489 0.49527 0.58423 0.0
O406 O 0.56318 0.50285 0.5839 0.0
O407 O 0.54462 0.48924 0.5281 0.0
O408 O 0.50821 0.50596 0.53463 0.0
C409 C 0.49103 0.49872 0.53979 0.0
O410 O 0.50063 0.53892 0.60318 0.0
O411 O 0.53185 0.53397 0.58531 0.0
O412 O 0.54105 0.50457 0.67239 0.0
O413 O 0.46378 0.51944 0.64459 0.0
O414 O 0.47831 0.51848 0.71668 0.0
O415 O 0.51895 0.52549 0.69572 0.0
C416 C 0.57468 0.47641 0.54288 0.0
C417 C 0.56908 0.45903 0.56361 0.0
C418 C 0.60207 0.46184 0.50897 0.0
C419 C 0.57957 0.44298 0.55559 0.0
C420 C 0.5915 0.47786 0.51681 0.0
C421 C 0.59586 0.44409 0.52681 0.0
C422 C 0.56216 0.49257 0.54399 0.0
C423 C 0.51704 0.54486 0.58602 0.0
H424 H 0.477 0.55797 0.67725 0.0
H425 H 0.41397 0.5565 0.75441 0.0
H426 H 0.46249 0.58766 0.69823 0.0
H427 H 0.42881 0.52683 0.73392 0.0
H428 H 0.55611 0.45769 0.58393 0.0
H429 H 0.6147 0.46323 0.48733 0.0
H430 H 0.57423 0.42954 0.56942 0.0
H431 H 0.59604 0.49123 0.50078 0.0
Eu432 Eu 0.02144 0.52881 0.57724 0.0
Eu433 Eu 1.00424 0.49795 0.65413 0.0
C434 C 0.04924 0.50489 0.65117 0.0
C435 C 0.0561 0.54583 0.48883 0.0
C436 C 0.07198 0.54039 0.51832 0.0
C437 C 0.07085 0.53337 0.4165 0.0
C438 C 0.0867 0.53082 0.49748 0.0
C439 C 0.05606 0.54298 0.43742 0.0
C440 C 0.08584 0.52645 0.44681 0.0
C441 C 0.03816 0.55007 0.51244 0.0
O442 O 0.01097 0.5244 0.6988 0.0
O443 O 0.00978 0.54678 0.63723 0.0
C444 C 0.00973 0.54211 0.68448 0.0
O445 O 0.99014 0.52529 0.55503 0.0
O446 O 1.00141 0.48636 0.72881 0.0
O447 O 0.98565 0.47338 0.66713 0.0
O448 O 0.9794 0.51567 0.63007 0.0
C449 C 0.97611 0.52223 0.58513 0.0
O450 O 0.02872 0.50019 0.54812 0.0
O451 O 1.00346 0.48389 0.57909 0.0
O452 O 0.03561 0.49197 0.65575 0.0
O453 O 0.02398 0.53844 0.50079 0.0
O454 O 0.03934 0.55353 0.55994 0.0
O455 O 0.04582 0.5213 0.63016 0.0
C456 C 0.96887 0.47911 0.73935 0.0
C457 C 0.95172 0.4802 0.71079 0.0
C458 C 0.95352 0.49368 0.80788 0.0
C459 C 0.93599 0.48875 0.72979 0.0
C460 C 0.9693 0.48513 0.78884 0.0
C461 C 0.93701 0.49629 0.77775 0.0
C462 C 0.98689 0.47544 0.71512 0.0
C463 C 0.01687 0.48555 0.54674 0.0
H464 H 0.07248 0.54229 0.55812 0.0
H465 H 0.06985 0.5302 0.37728 0.0
H466 H 0.09831 0.526 0.5215 0.0
H467 H 0.0439 0.54688 0.41403 0.0
H468 H 0.95076 0.47557 0.67261 0.0
H469 H 0.9547 0.49934 0.84506 0.0
H470 H 0.92328 0.49016 0.70617 0.0
H471 H 0.98229 0.48445 0.8117 0.0
H472 H 0.1488 0.04196 0.18095 0.0
H473 H 0.12492 0.04024 0.24436 0.0
H474 H 0.1632 0.00867 0.33951 0.0
H475 H 0.18754 0.01121 0.27754 0.0
H476 H 0.10587 0.01209 0.28797 0.0
H477 H 0.15001 0.04941 0.43293 0.0
H478 H 0.15695 0.04835 0.36944 0.0
H479 H 0.16109 0.02878 0.41096 0.0
C480 C 0.1523 0.0348 0.21552 0.0
C481 C 0.17038 0.02693 0.22388 0.0
C482 C 0.1385 0.03371 0.25178 0.0
C483 C 0.14229 0.02474 0.29758 0.0
C484 C 0.15999 0.01617 0.30527 0.0
H485 H 0.07633 1.00029 0.55935 0.0
H486 H 0.10027 1.00243 0.4958 0.0
C487 C 0.17386 0.01735 0.26916 0.0
C488 C 0.12773 0.0243 0.33694 0.0
H489 H 0.12101 0.03493 0.45859 0.0
C490 C 0.1092 0.0172 0.32515 0.0
C491 C 0.13188 0.03103 0.3857 0.0
C492 C 0.151 0.04 0.40046 0.0
C493 C 0.09498 0.01627 0.36067 0.0
C494 C 0.09924 0.02274 0.40948 0.0
C495 C 0.11771 0.02989 0.42132 0.0
C496 C 0.08478 0.02202 0.44886 0.0
C497 C 0.07558 0.00795 0.34596 0.0
C498 C 0.06818 0.03261 0.4444 0.0
C499 C 0.05448 0.03154 0.48098 0.0
C500 C 0.05701 0.01979 0.52294 0.0
C501 C 0.07383 0.00947 0.52767 0.0
C502 C 0.08757 0.01067 0.49127 0.0
H503 H 0.07578 0.99989 0.31086 0.0
H504 H 0.07022 0.99845 0.37555 0.0
H505 H 0.06539 0.01951 0.3405 0.0
H506 H 0.06578 0.0417 0.41249 0.0
H507 H 0.04174 0.03968 0.47586 0.0
H508 H 0.46853 0.17171 0.23652 0.0
H509 H 0.4658 0.14638 0.29832 0.0
H510 H 0.52341 0.13069 0.27296 0.0
H511 H 0.52629 0.15592 0.21143 0.0
H512 H 0.49854 0.09962 0.28273 0.0
H513 H 0.49173 0.15038 0.43646 0.0
H514 H 0.47427 0.15236 0.38642 0.0
H515 H 0.49894 0.15768 0.37568 0.0
C516 C 0.48059 0.16281 0.24391 0.0
C517 C 0.49767 0.16596 0.21908 0.0
C518 C 0.47902 0.14836 0.27936 0.0
C519 C 0.49452 0.13686 0.291 0.0
C520 C 0.51126 0.13941 0.26471 0.0
H521 H 0.52398 0.07298 0.55414 0.0
H522 H 0.52022 0.0961 0.48702 0.0
C523 C 0.51284 0.1538 0.22923 0.0
C524 C 0.49372 0.12263 0.33176 0.0
H525 H 0.4901 0.11803 0.45723 0.0
C526 C 0.49658 0.10361 0.32086 0.0
C527 C 0.49138 0.12789 0.38161 0.0
C528 C 0.48907 0.14819 0.39605 0.0
C529 C 0.49734 0.08975 0.3584 0.0
C530 C 0.49489 0.095 0.40823 0.0
C531 C 0.49185 0.11399 0.41904 0.0
C532 C 0.49645 0.08121 0.44996 0.0
C533 C 0.5014 0.06973 0.34454 0.0
C534 C 0.48409 0.06532 0.45213 0.0
C535 C 0.48619 0.05207 0.49056 0.0
C536 C 0.50065 0.05448 0.52777 0.0
C537 C 0.51269 0.07066 0.52615 0.0
C538 C 0.51056 0.08391 0.48778 0.0
H539 H 0.50746 0.06894 0.30724 0.0
H540 H 0.5115 0.06331 0.37201 0.0
H541 H 0.48791 0.06116 0.34391 0.0
H542 H 0.47293 0.06308 0.42383 0.0
H543 H 0.47673 0.03973 0.49047 0.0
H544 H 0.36772 0.44517 0.20338 0.0
H545 H 0.39233 0.45065 0.26824 0.0
H546 H 0.40442 0.50601 0.20825 0.0
H547 H 0.37997 0.50055 0.14219 0.0
H548 H 0.43197 0.46003 0.26326 0.0
H549 H 0.39196 0.51571 0.35464 0.0
H550 H 0.38093 0.49996 0.30902 0.0
H551 H 0.39594 0.5194 0.28986 0.0
C552 C 0.37584 0.45839 0.20307 0.0
C553 C 0.37179 0.4724 0.16719 0.0
C554 C 0.38985 0.46154 0.24057 0.0
C555 C 0.40005 0.47881 0.24352 0.0
C556 C 0.39648 0.49268 0.20719 0.0
H557 H 0.49946 0.50275 0.44188 0.0
H558 H 0.478 0.49794 0.36911 0.0
C559 C 0.38248 0.48953 0.16943 0.0
C560 C 0.41406 0.48232 0.28545 0.0
H561 H 0.42234 0.50895 0.38955 0.0
C562 C 0.42994 0.4708 0.29074 0.0
C563 C 0.41123 0.49619 0.32166 0.0
C564 C 0.39403 0.50846 0.319 0.0
C565 C 0.44309 0.4728 0.33116 0.0
C566 C 0.44036 0.48681 0.36708 0.0
C567 C 0.42447 0.4983 0.36183 0.0
C568 C 0.45356 0.48943 0.41111 0.0
C569 C 0.45953 0.45961 0.33583 0.0
C570 C 0.44691 0.48649 0.459 0.0
C571 C 0.45913 0.48922 0.50071 0.0
C572 C 0.47825 0.49514 0.49544 0.0
C573 C 0.48486 0.49811 0.44736 0.0
C574 C 0.47263 0.49529 0.40565 0.0
H575 H 0.45729 0.44711 0.3115 0.0
H576 H 0.47277 0.46722 0.32496 0.0
H577 H 0.46169 0.45469 0.37474 0.0
H578 H 0.43222 0.48202 0.4641 0.0
H579 H 0.45351 0.48688 0.53711 0.0
H580 H 0.9976 0.35089 0.22547 0.0
H581 H 0.99589 0.37578 0.28728 0.0
H582 H 0.05268 0.39536 0.25453 0.0
H583 H 0.0548 0.37025 0.19369 0.0
H584 H 0.02156 0.38108 0.37258 0.0
H585 H 0.02122 0.44407 0.24899 0.0
H586 H 0.01534 0.42059 0.22662 0.0
H587 H 0.03977 0.42772 0.23935 0.0
C588 C 0.00977 0.36045 0.23126 0.0
C589 C 0.02635 0.35841 0.20421 0.0
C590 C 0.00872 0.37476 0.26657 0.0
C591 C 0.02408 0.38758 0.27536 0.0
C592 C 0.0405 0.38588 0.24786 0.0
H593 H 0.04471 0.48234 0.47866 0.0
H594 H 0.04682 0.4584 0.4143 0.0
C595 C 0.04163 0.37149 0.21277 0.0
C596 C 0.0233 0.40211 0.31497 0.0
H597 H 0.02385 0.4497 0.3353 0.0
C598 C 0.02198 0.39609 0.36442 0.0
C599 C 0.02404 0.4217 0.30445 0.0
C600 C 0.02502 0.429 0.25198 0.0
C601 C 0.02164 0.40907 0.40362 0.0
C602 C 0.02206 0.4287 0.39312 0.0
C603 C 0.02349 0.4347 0.34358 0.0
C604 C 0.02085 0.4432 0.43284 0.0
C605 C 0.02136 0.40153 0.45602 0.0
C606 C 1.00546 0.44289 0.46462 0.0
C607 C 1.00431 0.45646 0.5018 0.0
C608 C 0.01838 0.47091 0.50776 0.0
C609 C 0.03365 0.4714 0.47541 0.0
C610 C 0.03485 0.45772 0.43842 0.0
H611 H 0.02711 0.38712 0.45876 0.0
H612 H 0.0298 0.41086 0.48202 0.0
H613 H 1.00643 0.40069 0.46801 0.0
H614 H 0.99416 0.43224 0.46037 0.0
H615 H 0.99223 0.45573 0.52552 0.0
H616 H 0.84188 0.02958 0.98167 0.0
H617 H 0.86579 0.03047 0.91795 0.0
H618 H 0.88092 0.97358 0.95604 0.0
H619 H 0.85671 0.97233 0.01856 0.0
H620 H 0.90458 0.02663 0.92399 0.0
H621 H 0.87175 0.96969 0.80693 0.0
H622 H 0.85926 0.98056 0.85589 0.0
H623 H 0.87618 0.96256 0.87016 0.0
C624 C 0.85017 0.01718 0.97634 0.0
C625 C 0.84719 1.00086 1.00556 0.0
C626 C 0.86395 0.01775 0.93991 0.0
C627 C 0.87502 1.00198 0.93127 0.0
C628 C 0.87236 0.98583 0.96101 0.0
H629 H 0.98224 0.99959 0.78109 0.0
H630 H 0.95662 0.99908 0.83951 0.0
C631 C 0.85863 0.98525 0.99746 0.0
C632 C 0.88954 1.00252 0.8919 0.0
H633 H 0.9033 0.9799 0.78796 0.0
C634 C 0.90422 0.01644 0.89417 0.0
C635 C 0.88903 0.98946 0.85226 0.0
C636 C 0.87311 0.97483 0.84571 0.0
C637 C 0.91857 0.01733 0.85905 0.0
C638 C 0.91853 1.00377 0.82068 0.0
C639 C 0.90355 0.99018 0.81753 0.0
C640 C 0.93405 1.00333 0.78412 0.0
C641 C 0.93356 0.03299 0.86309 0.0
C642 C 0.93 0.00516 0.73285 0.0
C643 C 0.94473 0.00536 0.69891 0.0
C644 C 0.96388 1.00359 0.71543 0.0
C645 C 0.96776 1.00118 0.7667 0.0
C646 C 0.95308 1.001 0.80044 0.0
H647 H 0.92865 0.04506 0.88477 0.0
H648 H 0.94654 0.02757 0.88241 0.0
H649 H 0.93751 0.03821 0.82588 0.0
H650 H 0.91545 0.00683 0.71911 0.0
H651 H 0.94113 0.00721 0.65985 0.0
H652 H 0.52618 0.8239 0.94649 0.0
H653 H 0.52838 0.84842 0.88272 0.0
H654 H 0.53199 0.89114 0.99575 0.0
H655 H 0.53022 0.86663 0.06003 0.0
H656 H 0.50248 0.87752 0.86718 0.0
H657 H 0.57582 0.90646 0.90531 0.0
H658 H 0.56775 0.88378 0.92863 0.0
H659 H 0.56125 0.90508 0.9585 0.0
C660 C 0.5279 0.83847 0.95797 0.0
C661 C 0.52816 0.84325 0.00855 0.0
C662 C 0.529 0.85249 0.92137 0.0
C663 C 0.53055 0.87161 0.93439 0.0
C664 C 0.53112 0.87646 0.9848 0.0
H665 H 0.52778 0.97897 0.78399 0.0
H666 H 0.53079 0.95251 0.84153 0.0
C667 C 0.52994 0.86244 0.02151 0.0
C668 C 0.53039 0.88646 0.89516 0.0
H669 H 0.55604 0.92396 0.84948 0.0
C670 C 0.51426 0.88759 0.86298 0.0
C671 C 0.54574 0.89959 0.88981 0.0
C672 C 0.56371 0.89864 0.92207 0.0
C673 C 0.51279 0.90183 0.82663 0.0
C674 C 0.52808 0.91509 0.8215 0.0
C675 C 0.54434 0.91379 0.85328 0.0
C676 C 0.52706 0.93102 0.78528 0.0
C677 C 0.49457 0.90297 0.79537 0.0
C678 C 0.52434 0.92782 0.73411 0.0
C679 C 0.52249 0.94301 0.70083 0.0
C680 C 0.52348 0.96171 0.71809 0.0
C681 C 0.52682 0.96481 0.76921 0.0
C682 C 0.5286 0.94966 0.80231 0.0
H683 H 0.48265 0.89481 0.81201 0.0
H684 H 0.49029 0.91784 0.7904 0.0
H685 H 0.49681 0.89703 0.75823 0.0
H686 H 0.52354 0.91356 0.7199 0.0
H687 H 0.52007 0.94008 0.66175 0.0
H688 H 0.63405 0.53254 0.12424 0.0
H689 H 0.60918 0.52669 0.05924 0.0
H690 H 0.64056 0.56196 0.95815 0.0
H691 H 0.66511 0.56808 0.02276 0.0
H692 H 0.60351 0.56905 0.95022 0.0
H693 H 0.61276 0.49165 0.94364 0.0
H694 H 0.60672 0.50013 1.00331 0.0
H695 H 0.62914 0.50721 0.97787 0.0
C696 C 0.6356 0.53905 0.08815 0.0
C697 C 0.65154 0.55085 0.07886 0.0
C698 C 0.62142 0.53562 0.05091 0.0
C699 C 0.62309 0.54364 1.00338 0.0
C700 C 0.63887 0.55562 0.99441 0.0
H701 H 0.57204 0.5071 0.72377 0.0
H702 H 0.59202 0.51404 0.79769 0.0
C703 C 0.65289 0.55918 0.03159 0.0
C704 C 0.60867 0.53957 0.96249 0.0
H705 H 0.58817 0.504 0.89208 0.0
C706 C 0.6001 0.55481 0.93763 0.0
C707 C 0.60437 0.52101 0.94554 0.0
C708 C 0.61384 0.50406 0.9686 0.0
C709 C 0.58761 0.55206 0.8961 0.0
C710 C 0.58311 0.53348 0.87958 0.0
C711 C 0.59148 0.51823 0.90486 0.0
C712 C 0.57066 0.52954 0.83456 0.0
C713 C 0.58 0.56915 0.86919 0.0
C714 C 0.55186 0.53585 0.83043 0.0
C715 C 0.5404 0.53207 0.7877 0.0
C716 C 0.5474 0.52164 0.74854 0.0
C717 C 0.56614 0.51516 0.75311 0.0
C718 C 0.57761 0.5191 0.79551 0.0
H719 H 0.58871 0.5821 0.87818 0.0
H720 H 0.57965 0.56713 0.82842 0.0
H721 H 0.56525 0.5715 0.88056 0.0
H722 H 0.54596 0.54353 0.86044 0.0
H723 H 0.52599 0.5371 0.78569 0.0
H724 H 1.00476 0.64731 0.07531 0.0
H725 H 0.00646 0.62316 0.01132 0.0
H726 H 0.00788 0.66651 0.89869 0.0
H727 H 1.00603 0.69067 0.96207 0.0
H728 H 0.98127 0.61549 0.93212 0.0
H729 H 0.05252 0.63484 0.86276 0.0
H730 H 0.04429 0.64363 0.92048 0.0
H731 H 0.03655 0.65413 0.86256 0.0
C732 C 1.00548 0.65175 0.03696 0.0
C733 C 1.0054 0.67106 0.02419 0.0
C734 C 0.00651 0.63789 1.00035 0.0
C735 C 0.0076 0.64296 0.95007 0.0
C736 C 0.00756 0.66219 0.93721 0.0
H737 H 0.00927 0.5807 0.67154 0.0
H738 H 0.00818 0.60496 0.73554 0.0
C739 C 0.00653 0.67604 0.97371 0.0
C740 C 0.00799 0.62816 0.91094 0.0
H741 H 0.0337 0.61273 0.81482 0.0
C742 C 0.9928 0.61482 0.9067 0.0
C743 C 0.02297 0.62728 0.87743 0.0
C744 C 0.0401 0.64061 0.88118 0.0
C745 C 0.99201 0.60094 0.86955 0.0
C746 C 0.007 0.60006 0.83606 0.0
C747 C 0.02217 0.61339 0.84027 0.0
C748 C 0.00735 0.58524 0.797 0.0
C749 C 0.97488 0.5876 0.8658 0.0
C750 C 0.00744 0.56602 0.81002 0.0
C751 C 0.00805 0.55212 0.77353 0.0
C752 C 0.0087 0.55705 0.72295 0.0
C753 C 0.0087 0.57632 0.70998 0.0
C754 C 0.00812 0.59025 0.74661 0.0
H755 H 0.96247 0.59335 0.88433 0.0
H756 H 0.97066 0.58462 0.8265 0.0
H757 H 0.97844 0.57406 0.8843 0.0
H758 H 0.00727 0.56174 0.84859 0.0
H759 H 0.00811 0.53746 0.78516 0.0
H760 H 0.12266 0.20395 0.2213 0.0
H761 H 0.12063 0.17254 0.26003 0.0
H762 H 0.06808 0.187 0.3256 0.0
H763 H 0.06948 0.21766 0.28653 0.0
H764 H 0.09319 0.16553 0.3885 0.0
H765 H 0.07927 0.13463 0.20063 0.0
H766 H 0.10092 0.14829 0.21319 0.0
H767 H 0.07847 0.15973 0.21044 0.0
C768 C 0.1108 0.20052 0.24452 0.0
C769 C 0.09617 0.21343 0.2503 0.0
C770 C 0.10972 0.18259 0.26667 0.0
C771 C 0.09408 0.17744 0.2951 0.0
C772 C 0.08032 0.19075 0.30394 0.0
H773 H 0.01018 0.09945 0.34818 0.0
H774 H 0.0346 0.1207 0.31417 0.0
C775 C 0.08127 0.20846 0.28172 0.0
C776 C 0.09035 0.15783 0.31169 0.0
H777 H 0.06922 0.11688 0.26862 0.0
C778 C 0.08851 0.15457 0.36257 0.0
C779 C 0.08417 0.14372 0.27745 0.0
C780 C 0.0857 0.14663 0.2223 0.0
C781 C 0.07899 0.13834 0.37997 0.0
C782 C 0.07154 0.12484 0.34539 0.0
C783 C 0.07492 0.12731 0.29487 0.0
C784 C 0.0578 0.10981 0.36015 0.0
C785 C 0.07549 0.13665 0.43469 0.0
C786 C 0.06291 0.09619 0.39574 0.0
C787 C 0.04894 0.08431 0.41566 0.0
C788 C 0.02974 0.08562 0.39954 0.0
C789 C 0.02488 0.09822 0.36118 0.0
C790 C 0.03882 0.1103 0.34177 0.0
H791 H 0.07955 0.14982 0.45503 0.0
H792 H 0.06023 0.13321 0.44078 0.0
H793 H 0.08406 0.1251 0.45099 0.0
H794 H 0.07754 0.09529 0.40956 0.0
H795 H 0.05305 0.07447 0.44475 0.0
H796 H 0.31004 0.0807 0.30852 0.0
H797 H 0.33975 0.08209 0.35538 0.0
H798 H 0.35976 0.12825 0.26433 0.0
H799 H 0.32926 0.12731 0.21686 0.0
H800 H 0.38333 0.09999 0.26287 0.0
H801 H 0.36954 0.11153 0.4579 0.0
H802 H 0.35165 0.09493 0.43534 0.0
H803 H 0.35279 0.11843 0.40902 0.0
C804 C 0.32018 0.09188 0.29957 0.0
C805 C 0.31708 0.10386 0.25844 0.0
C806 C 0.33736 0.09266 0.3268 0.0
C807 C 0.35198 0.10544 0.31395 0.0
C808 C 0.34861 0.11835 0.27512 0.0
H809 H 0.44241 0.05198 0.4853 0.0
H810 H 0.42671 0.07976 0.45125 0.0
C811 C 0.33122 0.11767 0.2478 0.0
C812 C 0.37143 0.10233 0.33501 0.0
H813 H 0.39151 0.085 0.44191 0.0
C814 C 0.38549 0.09738 0.3023 0.0
C815 C 0.37477 0.09957 0.38647 0.0
C816 C 0.3614 0.10665 0.42404 0.0
C817 C 0.40133 0.0872 0.31905 0.0
C818 C 0.40267 0.08135 0.36925 0.0
C819 C 0.39018 0.08879 0.40296 0.0
C820 C 0.41474 0.06552 0.38602 0.0
C821 C 0.41586 0.08199 0.28223 0.0
C822 C 0.41338 0.04824 0.36063 0.0
C823 C 0.42259 0.03242 0.37965 0.0
C824 C 0.43288 0.03344 0.42514 0.0
C825 C 0.4344 0.05075 0.45032 0.0
C826 C 0.42554 0.06667 0.43077 0.0
H827 H 0.41793 0.0936 0.25491 0.0
H828 H 0.42984 0.07892 0.30071 0.0
H829 H 0.41057 0.06936 0.26126 0.0
H830 H 0.40454 0.04672 0.32706 0.0
H831 H 0.42104 0.01921 0.35978 0.0
H832 H 0.59485 0.27882 0.34252 0.0
H833 H 0.60729 0.30153 0.40467 0.0
H834 H 0.6082 0.34525 0.29282 0.0
H835 H 0.59597 0.32271 0.23069 0.0
H836 H 0.63915 0.34812 0.3638 0.0
H837 H 0.56873 0.33923 0.45094 0.0
H838 H 0.58252 0.31845 0.446 0.0
H839 H 0.57304 0.32966 0.39088 0.0
C840 C 0.59804 0.29321 0.3311 0.0
C841 C 0.59421 0.29906 0.2819 0.0
C842 C 0.60514 0.30614 0.36658 0.0
C843 C 0.60831 0.32512 0.35346 0.0
C844 C 0.60585 0.33065 0.30368 0.0
H845 H 0.60807 0.43645 0.43471 0.0
H846 H 0.61671 0.40611 0.40272 0.0
C847 C 0.59888 0.31773 0.26817 0.0
C848 C 0.61183 0.33979 0.39171 0.0
H849 H 0.58881 0.36389 0.4791 0.0
C850 C 0.62834 0.35138 0.38976 0.0
C851 C 0.59772 0.34395 0.4257 0.0
C852 C 0.57943 0.3323 0.42856 0.0
C853 C 0.63066 0.3676 0.41918 0.0
C854 C 0.61595 0.37245 0.45059 0.0
C855 C 0.60009 0.36013 0.45505 0.0
C856 C 0.61504 0.39139 0.47303 0.0
C857 C 0.64856 0.37969 0.41517 0.0
C858 C 0.61138 0.39334 0.52346 0.0
C859 C 0.60634 0.4108 0.54199 0.0
C860 C 0.60473 0.42656 0.51028 0.0
C861 C 0.6095 0.42475 0.46046 0.0
C862 C 0.61453 0.40735 0.44204 0.0
H863 H 0.66083 0.37101 0.40597 0.0
H864 H 0.64647 0.39015 0.38481 0.0
H865 H 0.65213 0.3874 0.45012 0.0
H866 H 0.61156 0.38117 0.54794 0.0
H867 H 0.60296 0.41178 0.58066 0.0
H868 H 0.22905 0.46872 0.2711 0.0
H869 H 0.20254 0.47621 0.32132 0.0
H870 H 0.17634 0.42153 0.29102 0.0
H871 H 0.20338 0.41354 0.24109 0.0
H872 H 0.15273 0.45169 0.26874 0.0
H873 H 0.18505 0.45949 0.45747 0.0
H874 H 0.19898 0.47189 0.41269 0.0
H875 H 0.19619 0.44658 0.40952 0.0
C876 C 0.21811 0.4579 0.27645 0.0
C877 C 0.2185 0.44042 0.25222 0.0
C878 C 0.20287 0.46227 0.3052 0.0
C879 C 0.18763 0.44933 0.31049 0.0
C880 C 0.18809 0.43165 0.28764 0.0
H881 H 0.09752 0.49345 0.48823 0.0
H882 H 0.12011 0.47149 0.45603 0.0
C883 C 0.20348 0.42716 0.25895 0.0
C884 C 0.17047 0.45547 0.33508 0.0
H885 H 0.15724 0.47819 0.43847 0.0
C886 C 0.15352 0.45708 0.30629 0.0
C887 C 0.17146 0.46225 0.38422 0.0
C888 C 0.18886 0.45978 0.4179 0.0
C889 C 0.13801 0.4666 0.32414 0.0
C890 C 0.13971 0.47498 0.37153 0.0
C891 C 0.1561 0.47208 0.40172 0.0
C892 C 0.12522 0.48772 0.38947 0.0
C893 C 0.12013 0.46797 0.29164 0.0
C894 C 0.12076 0.50422 0.36287 0.0
C895 C 0.10791 0.51684 0.38124 0.0
C896 C 0.09955 0.51328 0.42688 0.0
C897 C 0.10403 0.49673 0.45336 0.0
C898 C 0.11679 0.48409 0.43487 0.0
H899 H 0.11867 0.45604 0.26517 0.0
H900 H 0.10722 0.4681 0.31408 0.0
H901 H 0.12085 0.48125 0.26967 0.0
H902 H 0.12751 0.50752 0.32835 0.0
H903 H 0.1048 0.52954 0.36028 0.0
H904 H 0.94646 0.7863 0.9396 0.0
H905 H 0.95274 0.81277 0.88391 0.0
H906 H 0.91439 0.84673 0.96353 0.0
H907 H 0.90856 0.82037 0.02062 0.0
H908 H 0.9364 0.8417 0.82483 0.0
H909 H 0.9676 0.8676 1.00559 0.0
H910 H 0.95806 0.84391 0.99777 0.0
H911 H 0.94229 0.86322 1.00355 0.0
C912 C 0.93858 0.79907 0.94366 0.0
C913 C 0.92733 0.80149 0.98488 0.0
C914 C 0.94224 0.81424 0.91187 0.0
C915 C 0.93453 0.83186 0.92079 0.0
C916 C 0.92082 0.83333 0.95689 0.0
H917 H 0.98848 0.94039 0.8474 0.0
H918 H 0.96533 0.91629 0.87356 0.0
C919 C 0.91738 0.81825 0.98922 0.0
C920 C 0.94399 0.84898 0.90048 0.0
H921 H 0.97393 0.88572 0.93541 0.0
C922 C 0.94439 0.85151 0.84892 0.0
C923 C 0.95468 0.86155 0.93214 0.0
C924 C 0.95584 0.85893 0.98779 0.0
C925 C 0.95537 0.86622 0.82817 0.0
C926 C 0.96631 0.87848 0.8599 0.0
C927 C 0.96544 0.8763 0.91133 0.0
C928 C 0.97964 0.89309 0.84102 0.0
C929 C 0.95536 0.86843 0.77258 0.0
C930 C 0.99554 0.88793 0.81493 0.0
C931 C 0.00897 0.90162 0.80056 0.0
C932 C 0.00676 0.9207 0.81233 0.0
C933 C 0.99081 0.92577 0.83862 0.0
C934 C 0.97743 0.91208 0.85301 0.0
H935 H 0.94261 0.8614 0.75437 0.0
H936 H 0.95578 0.88356 0.76167 0.0
H937 H 0.96821 0.86185 0.75854 0.0
H938 H 0.99777 0.87326 0.80655 0.0
H939 H 0.02118 0.89725 0.78073 0.0
H940 H 0.68876 0.91648 0.99745 0.0
H941 H 0.67054 0.92341 0.92185 0.0
H942 H 0.72268 0.93409 0.84559 0.0
H943 H 0.74094 0.92884 0.92245 0.0
H944 H 0.70512 0.96419 0.84631 0.0
H945 H 0.65082 0.91115 0.78826 0.0
H946 H 0.6492 0.91347 0.85382 0.0
H947 H 0.67083 0.90502 0.82868 0.0
C948 C 0.69639 0.9197 0.96419 0.0
C949 C 0.71624 0.92296 0.96665 0.0
C950 C 0.68591 0.92337 0.92042 0.0
C951 C 0.69517 0.92964 0.87786 0.0
C952 C 0.71517 0.92955 0.87809 0.0
H953 H 0.61226 0.99338 0.69554 0.0
H954 H 0.63753 0.97083 0.7114 0.0
C955 C 0.72566 0.92637 0.92226 0.0
C956 C 0.68447 0.94098 0.84018 0.0
H957 H 0.63998 0.94465 0.7863 0.0
C958 C 0.69115 0.95959 0.83173 0.0
C959 C 0.66634 0.9352 0.82006 0.0
C960 C 0.65907 0.91502 0.82285 0.0
C961 C 0.67947 0.97298 0.80876 0.0
C962 C 0.66045 0.96778 0.79504 0.0
C963 C 0.65442 0.94876 0.79826 0.0
C964 C 0.64614 0.9822 0.7832 0.0
C965 C 0.68734 0.99281 0.8017 0.0
C966 C 0.64265 0.99606 0.81834 0.0
C967 C 0.62838 0.00905 0.80929 0.0
C968 C 0.6172 0.00833 0.76506 0.0
C969 C 0.62087 0.99455 0.72961 0.0
C970 C 0.63518 0.98154 0.73872 0.0
H971 H 0.70296 0.99285 0.79654 0.0
H972 H 0.68034 0.99985 0.76924 0.0
H973 H 0.6849 1.00117 0.83532 0.0
H974 H 0.65067 0.99655 0.85342 0.0
H975 H 0.62594 0.0195 0.83722 0.0
H976 H 0.42261 0.69267 0.02724 0.0
H977 H 0.41245 0.67204 0.9587 0.0
H978 H 0.42452 0.7168 0.85451 0.0
H979 H 0.43563 0.73729 0.92289 0.0
H980 H 0.38755 0.67118 0.87505 0.0
H981 H 0.46371 0.67772 0.82442 0.0
H982 H 0.45555 0.68712 0.88136 0.0
H983 H 0.45059 0.69907 0.82354 0.0
C984 C 0.42282 0.69823 0.98978 0.0
C985 C 0.43043 0.71641 0.98037 0.0
C986 C 0.41683 0.68649 0.95066 0.0
C987 C 0.41822 0.69275 0.90152 0.0
C988 C 0.42373 0.7116 0.8922 0.0
H989 H 0.43576 0.60785 0.67622 0.0
H990 H 0.42647 0.63849 0.70712 0.0
C991 C 0.42991 0.72334 0.93138 0.0
C992 C 0.41682 0.67867 0.86126 0.0
H993 H 0.44499 0.65411 0.78619 0.0
C994 C 0.39996 0.66767 0.85474 0.0
C995 C 0.43306 0.67412 0.83478 0.0
C996 C 0.45181 0.68499 0.8414 0.0
C997 C 0.39924 0.65163 0.82443 0.0
C998 C 0.41587 0.6464 0.80072 0.0
C999 C 0.43225 0.65817 0.8044 0.0
C1000 C 0.4177 0.62763 0.77804 0.0
C1001 C 0.38089 0.64011 0.81936 0.0
C1002 C 0.41559 0.61133 0.80739 0.0
C1003 C 0.42101 0.59388 0.79002 0.0
C1004 C 0.4288 0.59241 0.7431 0.0
C1005 C 0.43004 0.60859 0.7128 0.0
C1006 C 0.42459 0.62606 0.7302 0.0
H1007 H 0.36836 0.64911 0.82343 0.0
H1008 H 0.37951 0.63287 0.78301 0.0
H1009 H 0.38062 0.62926 0.84918 0.0
H1010 H 0.41086 0.61227 0.84497 0.0
H1011 H 0.42012 0.58175 0.81455 0.0
H1012 H 0.81273 0.59506 0.99608 0.0
H1013 H 0.83626 0.59204 0.93173 0.0
H1014 H 0.81975 0.53324 0.91494 0.0
H1015 H 0.79621 0.53631 0.9779 0.0
H1016 H 0.86606 0.5695 0.94444 0.0
H1017 H 0.82672 0.54814 0.77286 0.0
H1018 H 0.81524 0.55928 0.82324 0.0
H1019 H 0.81831 0.53411 0.82339 0.0
C1020 C 0.81378 0.5817 0.97735 0.0
C1021 C 0.80286 0.56586 0.99203 0.0
C1022 C 0.82719 0.57998 0.94077 0.0
C1023 C 0.82958 0.56248 0.91807 0.0
C1024 C 0.81786 0.54699 0.93092 0.0
H1025 H 0.92117 0.49596 0.86861 0.0
H1026 H 0.89636 0.5163 0.89701 0.0
C1027 C 0.80459 0.54868 0.96739 0.0
C1028 C 0.84612 0.55923 0.88736 0.0
H1029 H 0.85825 0.53415 0.78673 0.0
C1030 C 0.86441 0.56228 0.90918 0.0
C1031 C 0.84405 0.55016 0.84092 0.0
C1032 C 0.82499 0.54795 0.81359 0.0
C1033 C 0.88044 0.55477 0.88826 0.0
C1034 C 0.87799 0.54364 0.84514 0.0
C1035 C 0.86003 0.54228 0.82057 0.0
C1036 C 0.89335 0.53183 0.82789 0.0
C1037 C 0.89974 0.5582 0.91365 0.0
C1038 C 0.8994 0.53343 0.77916 0.0
C1039 C 0.91344 0.52171 0.76275 0.0
C1040 C 0.92157 0.50812 0.79476 0.0
C1041 C 0.91533 0.50644 0.84338 0.0
C1042 C 0.90126 0.51812 0.85968 0.0
H1043 H 0.90032 0.57176 0.93409 0.0
H1044 H 0.90245 0.54674 0.94101 0.0
H1045 H 0.91128 0.55843 0.88666 0.0
H1046 H 0.89335 0.54382 0.75398 0.0
H1047 H 0.91818 0.52351 0.72525 0.0
H1048 H 0.01125 0.19215 0.94725 0.0
H1049 H 0.00872 0.1627 0.90087 0.0
H1050 H 0.04475 0.18684 0.78989 0.0
H1051 H 0.04641 0.21672 0.83437 0.0
H1052 H 0.01724 0.16638 0.74655 0.0
H1053 H 0.04852 0.12364 0.89972 0.0
H1054 H 0.02742 0.13513 0.91716 0.0
H1055 H 0.04827 0.14904 0.90183 0.0
C1056 C 0.01837 0.19141 0.91251 0.0
C1057 C 0.0292 0.20697 0.89508 0.0
C1058 C 0.01718 0.17434 0.88638 0.0
C1059 C 0.02702 0.17221 0.84247 0.0
C1060 C 0.03722 0.18792 0.82396 0.0
H1061 H 0.04978 0.06184 0.71364 0.0
H1062 H 0.05257 0.09259 0.75492 0.0
C1063 C 0.03828 0.20504 0.84979 0.0
C1064 C 0.02666 0.15374 0.81566 0.0
H1065 H 0.03481 0.10662 0.83073 0.0
C1066 C 0.02117 0.15334 0.76502 0.0
C1067 C 0.03216 0.13667 0.83913 0.0
C1068 C 0.03962 0.13612 0.89229 0.0
C1069 C 0.02063 0.13646 0.73769 0.0
C1070 C 0.02519 0.11924 0.7618 0.0
C1071 C 0.03109 0.11969 0.81215 0.0
C1072 C 0.02369 0.10062 0.73572 0.0
C1073 C 0.01557 0.13741 0.6829 0.0
C1074 C 0.00652 0.09464 0.7115 0.0
C1075 C 1.00498 0.07719 0.68744 0.0
C1076 C 0.02046 0.065 0.68762 0.0
C1077 C 0.03759 0.07084 0.71251 0.0
C1078 C 0.03918 0.08844 0.73625 0.0
H1079 H 0.01876 0.15167 0.66744 0.0
H1080 H 0.02343 0.12692 0.66197 0.0
H1081 H 1.00006 0.13443 0.67687 0.0
H1082 H 0.99415 0.10337 0.71168 0.0
H1083 H 0.99146 0.07317 0.66928 0.0
H1084 H 0.33021 0.05557 0.92203 0.0
H1085 H 0.35909 0.05314 0.87497 0.0
H1086 H 0.35228 0.99256 0.87547 0.0
H1087 H 0.3232 0.99486 0.92256 0.0
H1088 H 0.39348 0.03197 0.90351 0.0
H1089 H 0.35862 0.00784 0.72573 0.0
H1090 H 0.34577 0.01956 0.77269 0.0
H1091 H 0.35193 0.99534 0.78094 0.0
C1092 C 0.33466 0.04169 0.91167 0.0
C1093 C 0.32414 0.02541 0.92584 0.0
C1094 C 0.35131 0.04034 0.885 0.0
C1095 C 0.35785 0.02269 0.87113 0.0
C1096 C 0.34746 0.00637 0.8852 0.0
H1097 H 0.45147 0.98788 0.69218 0.0
H1098 H 0.42285 0.99 0.73996 0.0
C1099 C 0.33087 0.0077 0.91241 0.0
C1100 C 0.37566 0.02147 0.84266 0.0
H1101 H 0.39219 0.00973 0.7297 0.0
C1102 C 0.39321 0.02713 0.86547 0.0
C1103 C 0.37539 0.01508 0.79309 0.0
C1104 C 0.35695 0.0092 0.76629 0.0
C1105 C 0.41046 0.02626 0.84052 0.0
C1106 C 0.4102 0.02015 0.79051 0.0
C1107 C 0.39257 0.01449 0.76781 0.0
C1108 C 0.42799 0.01911 0.76138 0.0
C1109 C 0.42884 0.03133 0.86879 0.0
C1110 C 0.44058 0.03481 0.75647 0.0
C1111 C 0.45723 0.03356 0.72945 0.0
C1112 C 0.46157 0.01668 0.70575 0.0
C1113 C 0.44872 1.00114 0.70981 0.0
C1114 C 0.43224 1.00233 0.73723 0.0
H1115 H 0.42728 0.02989 0.90945 0.0
H1116 H 0.44058 0.02229 0.85783 0.0
H1117 H 0.4329 0.04626 0.86089 0.0
H1118 H 0.43749 0.04814 0.77321 0.0
H1119 H 0.46662 0.04589 0.7268 0.0
H1120 H 0.5327 0.30383 0.84873 0.0
H1121 H 0.53085 0.33236 0.79724 0.0
H1122 H 0.49059 0.35518 0.89545 0.0
H1123 H 0.49278 0.32704 0.94795 0.0
H1124 H 0.50019 0.35055 0.74716 0.0
H1125 H 0.53371 0.39553 0.89566 0.0
H1126 H 0.5339 0.37009 0.89819 0.0
H1127 H 0.51293 0.3823 0.91405 0.0
C1128 C 0.52343 0.3149 0.8594 0.0
C1129 C 0.51303 0.31315 0.90288 0.0
C1130 C 0.52231 0.33117 0.82973 0.0
C1131 C 0.51087 0.34607 0.84298 0.0
C1132 C 0.49979 0.34401 0.88497 0.0
H1133 H 0.49037 0.45944 0.73944 0.0
H1134 H 0.49032 0.42865 0.78021 0.0
C1135 C 0.50088 0.32777 0.91465 0.0
C1136 C 0.51103 0.36404 0.81405 0.0
H1137 H 0.52131 0.4113 0.82433 0.0
C1138 C 0.50488 0.36383 0.7639 0.0
C1139 C 0.51728 0.38136 0.83583 0.0
C1140 C 0.525 0.3824 0.88874 0.0
C1141 C 0.50426 0.38055 0.73543 0.0
C1142 C 0.51025 0.3979 0.7575 0.0
C1143 C 0.51663 0.39803 0.80745 0.0
C1144 C 0.50963 0.41622 0.73014 0.0
C1145 C 0.4967 0.37959 0.68242 0.0
C1146 C 0.5205 0.41956 0.68818 0.0
C1147 C 0.52055 0.43726 0.66452 0.0
C1148 C 0.50982 0.45201 0.68259 0.0
C1149 C 0.49883 0.44849 0.72435 0.0
C1150 C 0.49878 0.43085 0.74784 0.0
H1151 H 0.48847 0.36623 0.67481 0.0
H1152 H 0.4874 0.39164 0.67343 0.0
H1153 H 0.50883 0.38032 0.65732 0.0
H1154 H 0.5293 0.40863 0.67437 0.0
H1155 H 0.52927 0.43945 0.63267 0.0
H1156 H 0.21753 0.45531 0.80877 0.0
H1157 H 0.18737 0.46136 0.76403 0.0
H1158 H 0.17901 0.50912 0.85782 0.0
H1159 H 0.20877 0.50274 0.90399 0.0
H1160 H 0.14764 0.48579 0.85139 0.0
H1161 H 0.17253 0.50133 0.66276 0.0
H1162 H 0.18059 0.47928 0.68755 0.0
H1163 H 0.18854 0.501 0.71669 0.0
C1164 C 0.20936 0.46719 0.81971 0.0
C1165 C 0.21566 0.47852 0.86013 0.0
C1166 C 0.19218 0.47076 0.79369 0.0
C1167 C 0.18096 0.48583 0.80713 0.0
C1168 C 0.18745 0.49746 0.84655 0.0
H1169 H 0.0809 0.52833 0.64797 0.0
H1170 H 0.11261 0.52332 0.68518 0.0
C1171 C 0.20461 0.4939 0.87265 0.0
C1172 C 0.16189 0.48869 0.78247 0.0
H1173 H 0.13907 0.49619 0.67013 0.0
C1174 C 0.14579 0.48814 0.81177 0.0
C1175 C 0.15944 0.49191 0.73082 0.0
C1176 C 0.1762 0.49361 0.69763 0.0
C1177 C 0.12735 0.49049 0.79089 0.0
C1178 C 0.12483 0.49311 0.73904 0.0
C1179 C 0.14095 0.49393 0.70978 0.0
C1180 C 0.10565 0.49564 0.71477 0.0
C1181 C 0.11077 0.49053 0.82479 0.0
C1182 C 0.0912 0.48159 0.71805 0.0
C1183 C 0.07296 0.48442 0.69688 0.0
C1184 C 0.0688 0.50135 0.67169 0.0
C1185 C 0.08349 0.51516 0.66729 0.0
C1186 C 0.10169 0.51231 0.68849 0.0
H1187 H 0.11553 0.49329 0.86387 0.0
H1188 H 0.1004 0.50134 0.81295 0.0
H1189 H 0.10332 0.47651 0.8235 0.0
H1190 H 0.09401 0.46843 0.73719 0.0
H1191 H 0.06208 0.47342 0.7007 0.0
H1192 H 0.02659 0.81135 0.37693 0.0
H1193 H 0.02903 0.84059 0.42507 0.0
H1194 H 0.9686 0.84778 0.40244 0.0
H1195 H 0.96604 0.81881 0.35434 0.0
H1196 H 0.02097 0.8766 0.39724 0.0
H1197 H 0.97499 0.85506 0.55072 0.0
H1198 H 0.98381 0.83833 0.50776 0.0
H1199 H 0.96325 0.85188 0.49102 0.0
C1200 C 0.0138 0.81911 0.38232 0.0
C1201 C 0.99607 0.81246 0.36205 0.0
C1202 C 0.01521 0.83583 0.41004 0.0
C1203 C 0.99894 0.84629 0.41838 0.0
C1204 C 0.98129 0.83975 0.39797 0.0
H1205 H 0.99379 0.96534 0.48798 0.0
H1206 H 0.99299 0.93415 0.4501 0.0
C1207 C 0.97986 0.82308 0.37038 0.0
C1208 C 1.00046 0.86447 0.44633 0.0
H1209 H 0.98205 0.88815 0.54275 0.0
C1210 C 0.01256 0.87905 0.42928 0.0
C1211 C 0.98973 0.8677 0.4887 0.0
C1212 C 0.97736 0.85235 0.51098 0.0
C1213 C 0.01376 0.89684 0.45227 0.0
C1214 C 1.00227 0.90039 0.49302 0.0
C1215 C 0.99066 0.88561 0.51113 0.0
C1216 C 1.00201 0.91935 0.51696 0.0
C1217 C 0.02751 0.91163 0.43289 0.0
C1218 C 0.00656 0.92148 0.56784 0.0
C1219 C 0.00684 0.93938 0.5899 0.0
C1220 C 1.00248 0.95558 0.56161 0.0
C1221 C 0.99737 0.95328 0.511 0.0
C1222 C 0.99706 0.93541 0.48907 0.0
H1223 H 0.03905 0.90517 0.41235 0.0
H1224 H 0.01973 0.92113 0.40689 0.0
H1225 H 0.0341 0.92027 0.46349 0.0
H1226 H 0.01028 0.90933 0.59037 0.0
H1227 H 0.01078 0.94053 0.62896 0.0
H1228 H 0.71647 0.99487 0.40151 0.0
H1229 H 0.68785 0.99597 0.45065 0.0
H1230 H 0.65392 0.00758 0.31818 0.0
H1231 H 0.68234 0.00635 0.26879 0.0
H1232 H 0.66008 0.02624 0.45862 0.0
H1233 H 0.62761 0.95991 0.38105 0.0
H1234 H 0.65264 0.96602 0.37663 0.0
H1235 H 0.63533 0.97711 0.33627 0.0
C1236 C 0.70293 0.99768 0.38277 0.0
C1237 C 0.70182 1.00049 0.33098 0.0
C1238 C 0.68657 0.99837 0.41101 0.0
C1239 C 0.66863 1.00163 0.38816 0.0
C1240 C 0.66752 0.00483 0.33671 0.0
H1241 H 0.5511 1.00192 0.47943 0.0
H1242 H 0.58085 1.00165 0.43549 0.0
C1243 C 0.68388 0.00431 0.30852 0.0
C1244 C 0.65103 1.00142 0.41782 0.0
H1245 H 0.6086 0.97748 0.43308 0.0
C1246 C 0.64885 0.01553 0.45326 0.0
C1247 C 0.63632 0.9875 0.41082 0.0
C1248 C 0.63804 0.97165 0.37445 0.0
C1249 C 0.63221 0.0164 0.48078 0.0
C1250 C 0.61745 1.00243 0.47387 0.0
C1251 C 0.61978 0.98822 0.43866 0.0
C1252 C 0.5993 1.0025 0.50161 0.0
C1253 C 0.63037 0.03272 0.51566 0.0
C1254 C 0.59948 1.00273 0.55379 0.0
C1255 C 0.58239 1.00304 0.57915 0.0
C1256 C 0.56461 1.00281 0.55307 0.0
C1257 C 0.56445 1.00208 0.50093 0.0
C1258 C 0.58153 1.00194 0.47563 0.0
H1259 H 0.63992 0.04484 0.50591 0.0
H1260 H 0.6155 0.03761 0.51538 0.0
H1261 H 0.63447 0.02815 0.5539 0.0
H1262 H 0.61286 1.00259 0.57509 0.0
H1263 H 0.58312 1.00342 0.61927 0.0
H1264 H 0.50147 0.71466 0.41131 0.0
H1265 H 0.50355 0.68591 0.46169 0.0
H1266 H 0.54086 0.66224 0.35725 0.0
H1267 H 0.53833 0.69057 0.30548 0.0
H1268 H 0.49369 0.64665 0.41325 0.0
H1269 H 0.56561 0.65478 0.50618 0.0
H1270 H 0.55185 0.67487 0.4868 0.0
H1271 H 0.56289 0.66098 0.44145 0.0
C1272 C 0.51018 0.7034 0.39896 0.0
C1273 C 0.51961 0.70499 0.35391 0.0
C1274 C 0.51144 0.68702 0.42805 0.0
C1275 C 0.52238 0.67199 0.41323 0.0
C1276 C 0.53248 0.67378 0.36957 0.0
H1277 H 0.54465 0.55952 0.52659 0.0
H1278 H 0.54577 0.59051 0.48628 0.0
C1279 C 0.5311 0.69008 0.34016 0.0
C1280 C 0.52202 0.65389 0.4412 0.0
H1281 H 0.54867 0.62602 0.51896 0.0
C1282 C 0.50564 0.64214 0.43662 0.0
C1283 C 0.53773 0.64801 0.47104 0.0
C1284 C 0.55556 0.66027 0.47712 0.0
C1285 C 0.50465 0.62447 0.46049 0.0
C1286 C 0.52025 0.61863 0.49121 0.0
C1287 C 0.53666 0.63048 0.49574 0.0
C1288 C 0.51997 0.60014 0.51793 0.0
C1289 C 0.48711 0.61199 0.45105 0.0
C1290 C 0.50537 0.5953 0.55025 0.0
C1291 C 0.50455 0.57748 0.57289 0.0
C1292 C 0.51855 0.5642 0.56454 0.0
C1293 C 0.53362 0.56936 0.53386 0.0
C1294 C 0.53428 0.58711 0.51074 0.0
H1295 H 0.47933 0.61592 0.41604 0.0
H1296 H 0.49083 0.59691 0.44894 0.0
H1297 H 0.47727 0.61361 0.48179 0.0
H1298 H 0.49448 0.60527 0.5577 0.0
H1299 H 0.49288 0.57409 0.59678 0.0
H1300 H 0.79937 0.5144 0.42356 0.0
H1301 H 0.83017 0.51055 0.46765 0.0
H1302 H 0.84643 0.56797 0.4317 0.0
H1303 H 0.81593 0.57188 0.38708 0.0
H1304 H 0.86557 0.5138 0.4263 0.0
H1305 H 0.86115 0.56489 0.57941 0.0
H1306 H 0.84045 0.55663 0.54315 0.0
H1307 H 0.85593 0.57492 0.51932 0.0
C1308 C 0.80942 0.52628 0.42533 0.0
C1309 C 0.80503 0.54348 0.40175 0.0
C1310 C 0.82702 0.52406 0.45073 0.0
C1311 C 0.84057 0.53903 0.45355 0.0
C1312 C 0.83608 0.55634 0.4311 0.0
H1313 H 0.96329 0.53385 0.49294 0.0
H1314 H 0.9303 0.53768 0.4631 0.0
C1315 C 0.81853 0.55856 0.40562 0.0
C1316 C 0.85991 0.53618 0.47664 0.0
H1317 H 0.89208 0.55343 0.56464 0.0
C1318 C 0.8713 0.52237 0.4568 0.0
C1319 C 0.86737 0.54723 0.51677 0.0
C1320 C 0.85554 0.56163 0.54129 0.0
C1321 C 0.89006 0.51969 0.47498 0.0
C1322 C 0.8978 0.53129 0.51366 0.0
C1323 C 0.88624 0.5447 0.53458 0.0
C1324 C 0.9179 0.52972 0.53261 0.0
C1325 C 0.90142 0.50436 0.45278 0.0
C1326 C 0.92199 0.52454 0.58209 0.0
C1327 C 0.94088 0.52238 0.59938 0.0
C1328 C 0.95612 0.52553 0.5676 0.0
C1329 C 0.95196 0.53123 0.51841 0.0
C1330 C 0.93307 0.53332 0.50117 0.0
H1331 H 0.89205 0.4937 0.43312 0.0
H1332 H 0.91117 0.51074 0.42552 0.0
H1333 H 0.91018 0.49708 0.48178 0.0
H1334 H 0.91054 0.52179 0.60713 0.0
H1335 H 0.9435 0.51804 0.63752 0.0
loop_
_geom_bond_atom_site_label_1
_geom_bond_atom_site_label_2
_geom_bond_distance
_geom_bond_site_symmetry_2
_ccdc_geom_bond_type
C0 C1 1.387 . S
C0 C2 1.397 1_556 S
C0 H24 0.931 . S
C1 C0 1.387 . S
C1 C5 1.380 1_556 S
C2 C0 1.397 1_554 S
C2 C3 1.384 . S
C2 H25 0.930 . S
C3 C2 1.384 . S
C3 C4 1.377 . S
C3 C6 1.481 . S
C4 C3 1.377 . S
C4 C5 1.389 . S
C4 H26 0.929 . S
C5 C1 1.380 1_554 S
C5 C4 1.389 . S
C5 H27 0.931 . S
C6 C3 1.481 . S
C6 C7 1.387 . S
C6 C11 1.390 . S
C7 C6 1.387 . S
C7 C8 1.401 . S
C7 H28 0.930 . S
C8 C7 1.401 . S
C8 C9 1.376 . S
C8 C17 1.511 . S
C9 C8 1.376 . S
C9 C10 1.392 . S
C9 H30 0.931 . S
C10 C9 1.392 . S
C10 C11 1.361 . S
C10 C12 1.500 . S
C11 C6 1.390 . S
C11 C10 1.361 . S
C11 H29 0.931 . S
C12 C10 1.500 . S
C12 C13 1.371 . S
C12 C14 1.365 . S
C13 C12 1.371 . S
C13 C23 1.386 . S
C13 H31 0.931 . S
C14 C12 1.365 . S
C14 C15 1.409 . S
C14 H32 0.929 . S
C15 C14 1.409 . S
C15 C16 1.380 . S
C15 H33 0.930 . S
C16 C15 1.380 . S
C16 C23 1.357 . S
C17 C8 1.511 . S
C17 C18 1.341 . S
C17 C19 1.371 . S
C18 C17 1.341 . S
C18 C22 1.394 . S
C18 H34 0.930 . S
C19 C17 1.371 . S
C19 C20 1.392 . S
C19 H35 0.931 . S
C20 C19 1.392 . S
C20 C21 1.331 . S
C20 H38 0.932 . S
C21 C20 1.331 . S
C21 C22 1.336 . S
C22 C18 1.394 . S
C22 C21 1.336 . S
C22 H37 0.929 . S
C23 C13 1.386 . S
C23 C16 1.357 . S
C23 H36 0.928 . S
H24 C0 0.931 . S
H25 C2 0.930 . S
H26 C4 0.929 . S
H27 C5 0.931 . S
H28 C7 0.930 . S
H29 C11 0.931 . S
H30 C9 0.931 . S
H31 C13 0.931 . S
H32 C14 0.929 . S
H33 C15 0.930 . S
H34 C18 0.930 . S
H35 C19 0.931 . S
H36 C23 0.928 . S
H37 C22 0.929 . S
H38 C20 0.932 . S
C39 C40 1.386 . S
C39 C41 1.397 . S
C39 H63 0.931 . S
C40 C39 1.386 . S
C40 C44 1.397 . S
C41 C39 1.397 . S
C41 C42 1.384 . S
C41 H64 0.930 . S
C42 C41 1.384 . S
C42 C43 1.377 . S
C42 C45 1.481 . S
C43 C42 1.377 . S
C43 C44 1.389 . S
C43 H65 0.929 . S
C44 C40 1.397 . S
C44 C43 1.389 . S
C44 H66 0.931 . S
C45 C42 1.481 . S
C45 C46 1.387 . S
C45 C50 1.390 . S
C46 C45 1.387 . S
C46 C47 1.401 . S
C46 H67 0.930 . S
C47 C46 1.401 . S
C47 C48 1.376 . S
C47 C56 1.511 . S
C48 C47 1.376 . S
C48 C49 1.392 . S
C48 H69 0.931 . S
C49 C48 1.392 . S
C49 C50 1.361 . S
C49 C51 1.500 . S
C50 C45 1.390 . S
C50 C49 1.361 . S
C50 H68 0.931 . S
C51 C49 1.500 . S
C51 C52 1.371 . S
C51 C53 1.365 . S
C52 C51 1.371 . S
C52 C62 1.386 . S
C52 H70 0.931 . S
C53 C51 1.365 . S
C53 C54 1.409 . S
C53 H71 0.929 . S
C54 C53 1.409 . S
C54 C55 1.380 . S
C54 H72 0.930 . S
C55 C54 1.380 . S
C55 C62 1.357 . S
C56 C47 1.511 . S
C56 C57 1.341 . S
C56 C58 1.371 . S
C57 C56 1.341 . S
C57 C61 1.394 . S
C57 H73 0.930 . S
C58 C56 1.371 . S
C58 C59 1.392 . S
C58 H74 0.931 . S
C59 C58 1.392 . S
C59 C60 1.331 . S
C59 H77 0.932 . S
C60 C59 1.331 . S
C60 C61 1.336 . S
C61 C57 1.394 . S
C61 C60 1.336 . S
C61 H76 0.929 . S
C62 C52 1.386 . S
C62 C55 1.357 . S
C62 H75 0.928 . S
H63 C39 0.931 . S
H64 C41 0.930 . S
H65 C43 0.929 . S
H66 C44 0.931 . S
H67 C46 0.930 . S
H68 C50 0.931 . S
H69 C48 0.931 . S
H70 C52 0.931 . S
H71 C53 0.929 . S
H72 C54 0.930 . S
H73 C57 0.930 . S
H74 C58 0.931 . S
H75 C62 0.928 . S
H76 C61 0.929 . S
H77 C59 0.932 . S
C78 C79 1.386 . S
C78 C80 1.397 . S
C78 H102 0.931 . S
C79 C78 1.386 . S
C79 C83 1.397 . S
C80 C78 1.397 . S
C80 C81 1.384 . S
C80 H103 0.930 . S
C81 C80 1.384 . S
C81 C82 1.377 . S
C81 C84 1.481 . S
C82 C81 1.377 . S
C82 C83 1.389 . S
C82 H104 0.929 . S
C83 C79 1.397 . S
C83 C82 1.389 . S
C83 H105 0.931 . S
C84 C81 1.481 . S
C84 C85 1.387 . S
C84 C89 1.390 . S
C85 C84 1.387 . S
C85 C86 1.401 . S
C85 H106 0.930 . S
C86 C85 1.401 . S
C86 C87 1.376 . S
C86 C95 1.511 . S
C87 C86 1.376 . S
C87 C88 1.392 . S
C87 H108 0.931 . S
C88 C87 1.392 . S
C88 C89 1.361 . S
C88 C90 1.500 . S
C89 C84 1.390 . S
C89 C88 1.361 . S
C89 H107 0.931 . S
C90 C88 1.500 . S
C90 C91 1.371 . S
C90 C92 1.365 . S
C91 C90 1.371 . S
C91 C101 1.386 . S
C91 H109 0.931 . S
C92 C90 1.365 . S
C92 C93 1.409 . S
C92 H110 0.929 . S
C93 C92 1.409 . S
C93 C94 1.380 . S
C93 H111 0.930 . S
C94 C93 1.380 . S
C94 C101 1.357 . S
C95 C86 1.511 . S
C95 C96 1.341 . S
C95 C97 1.371 . S
C96 C95 1.341 . S
C96 C100 1.394 . S
C96 H112 0.930 . S
C97 C95 1.371 . S
C97 C98 1.392 . S
C97 H113 0.931 . S
C98 C97 1.392 . S
C98 C99 1.331 . S
C98 H116 0.932 . S
C99 C98 1.331 . S
C99 C100 1.336 . S
C100 C96 1.394 . S
C100 C99 1.336 . S
C100 H115 0.929 . S
C101 C91 1.386 . S
C101 C94 1.357 . S
C101 H114 0.928 . S
H102 C78 0.931 . S
H103 C80 0.930 . S
H104 C82 0.929 . S
H105 C83 0.931 . S
H106 C85 0.930 . S
H107 C89 0.931 . S
H108 C87 0.931 . S
H109 C91 0.931 . S
H110 C92 0.929 . S
H111 C93 0.930 . S
H112 C96 0.930 . S
H113 C97 0.931 . S
H114 C101 0.928 . S
H115 C100 0.929 . S
H116 C98 0.932 . S
C117 C118 1.386 . S
C117 C119 1.397 . S
C117 H141 0.931 . S
C118 C117 1.386 . S
C118 C122 1.397 . S
C119 C117 1.397 . S
C119 C120 1.384 . S
C119 H142 0.930 . S
C120 C119 1.384 . S
C120 C121 1.377 . S
C120 C123 1.481 . S
C121 C120 1.377 . S
C121 C122 1.389 . S
C121 H143 0.929 . S
C122 C118 1.397 . S
C122 C121 1.389 . S
C122 H144 0.931 . S
C123 C120 1.481 . S
C123 C124 1.387 . S
C123 C128 1.390 . S
C124 C123 1.387 . S
C124 C125 1.401 . S
C124 H145 0.930 . S
C125 C124 1.401 . S
C125 C126 1.376 . S
C125 C134 1.511 . S
C126 C125 1.376 . S
C126 C127 1.392 . S
C126 H147 0.931 . S
C127 C126 1.392 . S
C127 C128 1.361 . S
C127 C129 1.500 . S
C128 C123 1.390 . S
C128 C127 1.361 . S
C128 H146 0.931 . S
C129 C127 1.500 . S
C129 C130 1.371 . S
C129 C131 1.365 . S
C130 C129 1.371 . S
C130 C140 1.386 . S
C130 H148 0.931 . S
C131 C129 1.365 . S
C131 C132 1.409 . S
C131 H149 0.929 . S
C132 C131 1.409 . S
C132 C133 1.380 . S
C132 H150 0.930 . S
C133 C132 1.380 . S
C133 C140 1.357 . S
C134 C125 1.511 . S
C134 C135 1.341 . S
C134 C136 1.371 . S
C135 C134 1.341 . S
C135 C139 1.394 . S
C135 H151 0.930 . S
C136 C134 1.371 . S
C136 C137 1.392 . S
C136 H152 0.931 . S
C137 C136 1.392 . S
C137 C138 1.331 . S
C137 H155 0.932 . S
C138 C137 1.331 . S
C138 C139 1.336 . S
C139 C135 1.394 . S
C139 C138 1.336 . S
C139 H154 0.929 . S
C140 C130 1.386 . S
C140 C133 1.357 . S
C140 H153 0.928 1_554 S
H141 C117 0.931 . S
H142 C119 0.930 . S
H143 C121 0.929 . S
H144 C122 0.931 . S
H145 C124 0.930 . S
H146 C128 0.931 . S
H147 C126 0.931 . S
H148 C130 0.931 . S
H149 C131 0.929 . S
H150 C132 0.930 . S
H151 C135 0.930 . S
H152 C136 0.931 . S
H153 C140 0.928 1_556 S
H154 C139 0.929 . S
H155 C137 0.932 . S
C156 C157 1.386 . S
C156 C158 1.397 . S
C156 H180 0.931 . S
C157 C156 1.386 . S
C157 C161 1.397 . S
C158 C156 1.397 . S
C158 C159 1.384 . S
C158 H181 0.930 . S
C159 C158 1.384 . S
C159 C160 1.377 . S
C159 C162 1.481 . S
C160 C159 1.377 . S
C160 C161 1.389 . S
C160 H182 0.929 . S
C161 C157 1.397 . S
C161 C160 1.389 . S
C161 H183 0.931 . S
C162 C159 1.481 . S
C162 C163 1.387 . S
C162 C167 1.390 . S
C163 C162 1.387 . S
C163 C164 1.401 . S
C163 H184 0.930 . S
C164 C163 1.401 . S
C164 C165 1.376 . S
C164 C173 1.511 . S
C165 C164 1.376 . S
C165 C166 1.392 . S
C165 H186 0.931 . S
C166 C165 1.392 . S
C166 C167 1.361 . S
C166 C168 1.500 1_554 S
C167 C162 1.390 . S
C167 C166 1.361 . S
C167 H185 0.931 . S
C168 C166 1.500 1_556 S
C168 C169 1.371 . S
C168 C170 1.365 . S
C169 C168 1.371 . S
C169 C179 1.386 . S
C169 H187 0.931 . S
C170 C168 1.365 . S
C170 C171 1.409 . S
C170 H188 0.929 . S
C171 C170 1.409 . S
C171 C172 1.380 . S
C171 H189 0.930 . S
C172 C171 1.380 . S
C172 C179 1.357 . S
C173 C164 1.511 . S
C173 C174 1.341 . S
C173 C175 1.371 . S
C174 C173 1.341 . S
C174 C178 1.394 . S
C174 H190 0.930 . S
C175 C173 1.371 . S
C175 C176 1.392 . S
C175 H191 0.931 . S
C176 C175 1.392 . S
C176 C177 1.331 . S
C176 H194 0.932 . S
C177 C176 1.331 . S
C177 C178 1.336 . S
C178 C174 1.394 . S
C178 C177 1.336 . S
C178 H193 0.929 . S
C179 C169 1.386 . S
C179 C172 1.357 . S
C179 H192 0.928 . S
H180 C156 0.931 . S
H181 C158 0.930 . S
H182 C160 0.929 . S
H183 C161 0.931 . S
H184 C163 0.930 . S
H185 C167 0.931 . S
H186 C165 0.931 . S
H187 C169 0.931 . S
H188 C170 0.929 . S
H189 C171 0.930 . S
H190 C174 0.930 . S
H191 C175 0.931 . S
H192 C179 0.928 . S
H193 C178 0.929 . S
H194 C176 0.932 . S
C195 C196 1.386 . S
C195 C197 1.397 . S
C195 H219 0.931 . S
C196 C195 1.386 . S
C196 C200 1.397 . S
C197 C195 1.397 . S
C197 C198 1.384 . S
C197 H220 0.930 . S
C198 C197 1.384 . S
C198 C199 1.377 . S
C198 C201 1.481 . S
C199 C198 1.377 . S
C199 C200 1.389 . S
C199 H221 0.929 . S
C200 C196 1.397 . S
C200 C199 1.389 . S
C200 H222 0.931 . S
C201 C198 1.481 . S
C201 C202 1.387 . S
C201 C206 1.390 . S
C202 C201 1.387 . S
C202 C203 1.401 . S
C202 H223 0.930 . S
C203 C202 1.401 . S
C203 C204 1.376 1_554 S
C203 C212 1.511 . S
C204 C203 1.376 1_556 S
C204 C205 1.392 . S
C204 H225 0.931 . S
C205 C204 1.392 . S
C205 C206 1.361 1_556 S
C205 C207 1.500 . S
C206 C201 1.390 . S
C206 C205 1.361 1_554 S
C206 H224 0.931 . S
C207 C205 1.500 . S
C207 C208 1.371 . S
C207 C209 1.365 . S
C208 C207 1.371 . S
C208 C218 1.386 . S
C208 H226 0.931 . S
C209 C207 1.365 . S
C209 C210 1.409 . S
C209 H227 0.929 . S
C210 C209 1.409 . S
C210 C211 1.380 . S
C210 H228 0.930 . S
C211 C210 1.380 . S
C211 C218 1.357 . S
C212 C203 1.511 . S
C212 C213 1.341 . S
C212 C214 1.371 . S
C213 C212 1.341 . S
C213 C217 1.394 . S
C213 H229 0.930 . S
C214 C212 1.371 . S
C214 C215 1.392 . S
C214 H230 0.931 1_554 S
C215 C214 1.392 . S
C215 C216 1.331 . S
C215 H233 0.932 . S
C216 C215 1.331 . S
C216 C217 1.336 . S
C217 C213 1.394 . S
C217 C216 1.336 . S
C217 H232 0.929 . S
C218 C208 1.386 . S
C218 C211 1.357 . S
C218 H231 0.928 . S
H219 C195 0.931 . S
H220 C197 0.930 . S
H221 C199 0.929 . S
H222 C200 0.931 . S
H223 C202 0.930 . S
H224 C206 0.931 . S
H225 C204 0.931 . S
H226 C208 0.931 . S
H227 C209 0.929 . S
H228 C210 0.930 . S
H229 C213 0.930 . S
H230 C214 0.931 1_556 S
H231 C218 0.928 . S
H232 C217 0.929 . S
H233 C215 0.932 . S
C234 C235 1.386 . S
C234 C236 1.397 . S
C234 H258 0.931 . S
C235 C234 1.386 . S
C235 C239 1.397 . S
C236 C234 1.397 . S
C236 C237 1.384 . S
C236 H259 0.930 . S
C237 C236 1.384 . S
C237 C238 1.377 . S
C237 C240 1.481 . S
C238 C237 1.377 . S
C238 C239 1.389 . S
C238 H260 0.929 . S
C239 C235 1.397 . S
C239 C238 1.389 . S
C239 H261 0.931 . S
C240 C237 1.481 . S
C240 C241 1.387 . S
C240 C245 1.390 1_554 S
C241 C240 1.387 . S
C241 C242 1.401 . S
C241 H262 0.930 . S
C242 C241 1.401 . S
C242 C243 1.376 1_554 S
C242 C251 1.511 . S
C243 C242 1.376 1_556 S
C243 C244 1.392 . S
C243 H264 0.931 . S
C244 C243 1.392 . S
C244 C245 1.361 . S
C244 C246 1.500 . S
C245 C240 1.390 1_556 S
C245 C244 1.361 . S
C245 H263 0.931 . S
C246 C244 1.500 . S
C246 C247 1.371 . S
C246 C248 1.365 . S
C247 C246 1.371 . S
C247 C257 1.386 . S
C247 H265 0.931 . S
C248 C246 1.365 . S
C248 C249 1.409 . S
C248 H266 0.929 . S
C249 C248 1.409 . S
C249 C250 1.380 . S
C249 H267 0.930 . S
C250 C249 1.380 . S
C250 C257 1.357 . S
C251 C242 1.511 . S
C251 C252 1.341 . S
C251 C253 1.371 1_554 S
C252 C251 1.341 . S
C252 C256 1.394 . S
C252 H268 0.930 . S
C253 C251 1.371 1_556 S
C253 C254 1.392 1_556 S
C253 H269 0.931 . S
C254 C253 1.392 1_554 S
C254 C255 1.331 . S
C254 H272 0.932 1_554 S
C255 C254 1.331 . S
C255 C256 1.336 . S
C256 C252 1.394 . S
C256 C255 1.336 . S
C256 H271 0.929 . S
C257 C247 1.386 . S
C257 C250 1.357 . S
C257 H270 0.928 . S
H258 C234 0.931 . S
H259 C236 0.930 . S
H260 C238 0.929 . S
H261 C239 0.931 . S
H262 C241 0.930 . S
H263 C245 0.931 . S
H264 C243 0.931 . S
H265 C247 0.931 . S
H266 C248 0.929 . S
H267 C249 0.930 . S
H268 C252 0.930 . S
H269 C253 0.931 . S
H270 C257 0.928 . S
H271 C256 0.929 . S
H272 C254 0.932 1_556 S
C273 C274 1.386 . S
C273 C275 1.397 . S
C273 H297 0.931 . S
C274 C273 1.386 . S
C274 C278 1.397 . S
C275 C273 1.397 . S
C275 C276 1.384 . S
C275 H298 0.930 . S
C276 C275 1.384 . S
C276 C277 1.377 . S
C276 C279 1.481 1_556 S
C277 C276 1.377 . S
C277 C278 1.389 . S
C277 H299 0.929 . S
C278 C274 1.397 . S
C278 C277 1.389 . S
C278 H300 0.931 . S
C279 C276 1.481 1_554 S
C279 C280 1.387 . S
C279 C284 1.390 . S
C280 C279 1.387 . S
C280 C281 1.401 . S
C280 H301 0.930 . S
C281 C280 1.401 . S
C281 C282 1.376 . S
C281 C290 1.511 . S
C282 C281 1.376 . S
C282 C283 1.392 . S
C282 H303 0.931 . S
C283 C282 1.392 . S
C283 C284 1.361 . S
C283 C285 1.500 . S
C284 C279 1.390 . S
C284 C283 1.361 . S
C284 H302 0.931 . S
C285 C283 1.500 . S
C285 C286 1.371 . S
C285 C287 1.365 . S
C286 C285 1.371 . S
C286 C296 1.386 . S
C286 H304 0.931 . S
C287 C285 1.365 . S
C287 C288 1.409 . S
C287 H305 0.929 . S
C288 C287 1.409 . S
C288 C289 1.380 . S
C288 H306 0.930 . S
C289 C288 1.380 . S
C289 C296 1.357 . S
C290 C281 1.511 . S
C290 C291 1.341 . S
C290 C292 1.371 . S
C291 C290 1.341 . S
C291 C295 1.394 . S
C291 H307 0.930 . S
C292 C290 1.371 . S
C292 C293 1.392 . S
C292 H308 0.931 . S
C293 C292 1.392 . S
C293 C294 1.331 . S
C293 H311 0.932 . S
C294 C293 1.331 . S
C294 C295 1.336 . S
C295 C291 1.394 . S
C295 C294 1.336 . S
C295 H310 0.929 . S
C296 C286 1.386 . S
C296 C289 1.357 . S
C296 H309 0.928 . S
H297 C273 0.931 . S
H298 C275 0.930 . S
H299 C277 0.929 . S
H300 C278 0.931 . S
H301 C280 0.930 . S
H302 C284 0.931 . S
H303 C282 0.931 . S
H304 C286 0.931 . S
H305 C287 0.929 . S
H306 C288 0.930 . S
H307 C291 0.930 . S
H308 C292 0.931 . S
H309 C296 0.928 . S
H310 C295 0.929 . S
H311 C293 0.932 . S
Eu312 C321 2.828 . S
Eu312 O323 2.392 . S
Eu312 O325 2.418 1_545 S
Eu312 O330 2.373 1_655 S
Eu312 O333 2.488 . S
Eu312 O334 2.471 . S
Eu312 O335 2.349 1_655 S
Eu313 O322 2.373 1_455 S
Eu313 O326 2.488 . S
Eu313 O327 2.471 . S
Eu313 O328 2.349 . S
Eu313 O331 2.392 1_565 S
Eu313 O332 2.418 1_565 S
Eu313 C342 2.828 . S
C314 O332 1.244 . S
C314 O335 1.265 . S
C315 C316 1.379 1_655 S
C315 C319 1.373 . S
C315 C321 1.505 . S
C316 C315 1.379 1_455 S
C316 C318 1.369 . S
C316 H344 0.930 . S
C317 C319 1.383 . S
C317 C320 1.382 1_655 S
C317 H345 0.930 . S
C318 C316 1.369 . S
C318 C320 1.392 . S
C318 H346 0.930 . S
C319 C315 1.373 . S
C319 C317 1.383 . S
C319 H347 0.931 . S
C320 C317 1.382 1_455 S
C320 C318 1.392 . S
C321 Eu312 2.828 . S
C321 C315 1.505 . S
C321 O333 1.249 . S
C321 O334 1.244 . S
O322 Eu313 2.373 1_655 S
O322 C324 1.258 . S
O323 Eu312 2.392 . S
O323 C324 1.242 1_545 S
C324 O322 1.258 . S
C324 O323 1.242 1_565 S
O325 Eu312 2.418 1_565 S
O325 C329 1.244 . S
O326 Eu313 2.488 . S
O326 C342 1.249 . S
O327 Eu313 2.471 . S
O327 C342 1.244 . S
O328 Eu313 2.349 . S
O328 C329 1.265 1_455 S
C329 O325 1.244 . S
C329 O328 1.265 1_655 S
O330 Eu312 2.373 1_455 S
O330 C343 1.258 . S
O331 Eu313 2.392 1_545 S
O331 C343 1.242 . S
O332 Eu313 2.418 1_545 S
O332 C314 1.244 . S
O333 Eu312 2.488 . S
O333 C321 1.249 . S
O334 Eu312 2.471 . S
O334 C321 1.244 . S
O335 Eu312 2.349 1_455 S
O335 C314 1.265 . S
C336 C337 1.379 . S
C336 C340 1.373 . S
C336 C342 1.505 . S
C337 C336 1.379 . S
C337 C339 1.369 . S
C337 H348 0.915 1_455 S
C338 C340 1.383 . S
C338 C341 1.382 . S
C338 H349 0.930 . S
C339 C337 1.369 . S
C339 C341 1.392 . S
C339 H350 0.930 1_455 S
C340 C336 1.373 . S
C340 C338 1.383 . S
C340 H351 0.931 . S
C341 C338 1.382 . S
C341 C339 1.392 . S
C342 Eu313 2.828 . S
C342 O326 1.249 . S
C342 O327 1.244 . S
C342 C336 1.505 . S
C343 O330 1.258 . S
C343 O331 1.242 . S
H344 C316 0.930 . S
H345 C317 0.930 . S
H346 C318 0.930 . S
H347 C319 0.931 . S
H348 C337 0.915 1_655 S
H349 C338 0.930 . S
H350 C339 0.930 1_655 S
H351 C340 0.931 . S
Eu352 C361 2.828 . S
Eu352 O363 2.392 . S
Eu352 O365 2.418 . S
Eu352 O370 2.373 . S
Eu352 O373 2.488 . S
Eu352 O374 2.471 . S
Eu352 O375 2.349 1_545 S
Eu353 O362 2.373 1_565 S
Eu353 O366 2.488 . S
Eu353 O367 2.471 1_565 S
Eu353 O368 2.349 1_565 S
Eu353 O371 2.392 . S
Eu353 O372 2.418 . S
Eu353 C382 2.828 . S
C354 O372 1.244 . S
C354 O375 1.265 . S
C355 C356 1.379 1_545 S
C355 C359 1.373 . S
C355 C361 1.505 . S
C356 C355 1.379 1_565 S
C356 C358 1.369 . S
C356 H384 0.930 . S
C357 C359 1.383 . S
C357 C360 1.382 . S
C357 H385 0.930 . S
C358 C356 1.369 . S
C358 C360 1.392 1_565 S
C358 H386 0.930 . S
C359 C355 1.373 . S
C359 C357 1.383 . S
C359 H387 0.931 . S
C360 C357 1.382 . S
C360 C358 1.392 1_545 S
C361 Eu352 2.828 . S
C361 C355 1.505 . S
C361 O373 1.249 . S
C361 O374 1.244 . S
O362 Eu353 2.373 1_545 S
O362 C364 1.258 . S
O363 Eu352 2.392 . S
O363 C364 1.242 . S
C364 O362 1.258 . S
C364 O363 1.242 . S
O365 Eu352 2.418 . S
O365 C369 1.244 . S
O366 Eu353 2.488 . S
O366 C382 1.249 . S
O367 Eu353 2.471 1_545 S
O367 C382 1.244 1_545 S
O368 Eu353 2.349 1_545 S
O368 C369 1.265 . S
C369 O365 1.244 . S
C369 O368 1.265 . S
O370 Eu352 2.373 . S
O370 C383 1.258 1_545 S
O371 Eu353 2.392 . S
O371 C383 1.242 . S
O372 Eu353 2.418 . S
O372 C354 1.244 . S
O373 Eu352 2.488 . S
O373 C361 1.249 . S
O374 Eu352 2.471 . S
O374 C361 1.244 . S
O375 Eu352 2.349 1_565 S
O375 C354 1.265 . S
C376 C377 1.379 . S
C376 C380 1.373 1_545 S
C376 C382 1.505 1_545 S
C377 C376 1.379 . S
C377 C379 1.369 . S
C377 H388 0.930 . S
C378 C380 1.383 . S
C378 C381 1.382 1_565 S
C378 H389 0.930 . S
C379 C377 1.369 . S
C379 C381 1.392 . S
C379 H390 0.930 . S
C380 C376 1.373 1_565 S
C380 C378 1.383 . S
C380 H391 0.931 . S
C381 C378 1.382 1_545 S
C381 C379 1.392 . S
C382 Eu353 2.828 . S
C382 O366 1.249 . S
C382 O367 1.244 1_565 S
C382 C376 1.505 1_565 S
C383 O370 1.258 1_565 S
C383 O371 1.242 . S
H384 C356 0.930 . S
H385 C357 0.930 . S
H386 C358 0.930 . S
H387 C359 0.931 . S
H388 C377 0.930 . S
H389 C378 0.930 . S
H390 C379 0.930 . S
H391 C380 0.931 . S
Eu392 C401 2.828 . S
Eu392 O403 2.392 . S
Eu392 O405 2.418 . S
Eu392 O410 2.373 . S
Eu392 O413 2.488 . S
Eu392 O414 2.471 . S
Eu392 O415 2.349 . S
Eu393 O402 2.373 . S
Eu393 O406 2.488 . S
Eu393 O407 2.471 . S
Eu393 O408 2.349 . S
Eu393 O411 2.392 . S
Eu393 O412 2.418 . S
Eu393 C422 2.828 . S
C394 O412 1.244 . S
C394 O415 1.265 . S
C395 C396 1.379 . S
C395 C399 1.373 . S
C395 C401 1.505 . S
C396 C395 1.379 . S
C396 C398 1.369 . S
C396 H424 0.930 . S
C397 C399 1.383 . S
C397 C400 1.382 . S
C397 H425 0.930 . S
C398 C396 1.369 . S
C398 C400 1.392 . S
C398 H426 0.930 . S
C399 C395 1.373 . S
C399 C397 1.383 . S
C399 H427 0.931 . S
C400 C397 1.382 . S
C400 C398 1.392 . S
C401 Eu392 2.828 . S
C401 C395 1.505 . S
C401 O413 1.249 . S
C401 O414 1.244 . S
O402 Eu393 2.373 . S
O402 C404 1.258 . S
O403 Eu392 2.392 . S
O403 C404 1.242 . S
C404 O402 1.258 . S
C404 O403 1.242 . S
O405 Eu392 2.418 . S
O405 C409 1.244 . S
O406 Eu393 2.488 . S
O406 C422 1.249 . S
O407 Eu393 2.471 . S
O407 C422 1.244 . S
O408 Eu393 2.349 . S
O408 C409 1.265 . S
C409 O405 1.244 . S
C409 O408 1.265 . S
O410 Eu392 2.373 . S
O410 C423 1.258 . S
O411 Eu393 2.392 . S
O411 C423 1.242 . S
O412 Eu393 2.418 . S
O412 C394 1.244 . S
O413 Eu392 2.488 . S
O413 C401 1.249 . S
O414 Eu392 2.471 . S
O414 C401 1.244 . S
O415 Eu392 2.349 . S
O415 C394 1.265 . S
C416 C417 1.379 . S
C416 C420 1.373 . S
C416 C422 1.505 . S
C417 C416 1.379 . S
C417 C419 1.369 . S
C417 H428 0.930 . S
C418 C420 1.383 . S
C418 C421 1.382 . S
C418 H429 0.930 . S
C419 C417 1.369 . S
C419 C421 1.392 . S
C419 H430 0.930 . S
C420 C416 1.373 . S
C420 C418 1.383 . S
C420 H431 0.931 . S
C421 C418 1.382 . S
C421 C419 1.392 . S
C422 Eu393 2.828 . S
C422 O406 1.249 . S
C422 O407 1.244 . S
C422 C416 1.505 . S
C423 O410 1.258 . S
C423 O411 1.242 . S
H424 C396 0.930 . S
H425 C397 0.930 . S
H426 C398 0.930 . S
H427 C399 0.931 . S
H428 C417 0.930 . S
H429 C418 0.930 . S
H430 C419 0.930 . S
H431 C420 0.931 . S
Eu432 C441 2.828 . S
Eu432 O443 2.392 . S
Eu432 O445 2.418 1_455 S
Eu432 O450 2.373 . S
Eu432 O453 2.488 . S
Eu432 O454 2.471 . S
Eu432 O455 2.349 . S
Eu433 O442 2.373 . S
Eu433 O446 2.488 . S
Eu433 O447 2.471 . S
Eu433 O448 2.349 . S
Eu433 O451 2.392 1_655 S
Eu433 O452 2.418 1_655 S
Eu433 C462 2.828 . S
C434 O452 1.244 . S
C434 O455 1.265 . S
C435 C436 1.379 . S
C435 C439 1.373 . S
C435 C441 1.505 . S
C436 C435 1.379 . S
C436 C438 1.369 . S
C436 H464 0.930 . S
C437 C439 1.383 . S
C437 C440 1.382 . S
C437 H465 0.930 . S
C438 C436 1.369 . S
C438 C440 1.392 . S
C438 H466 0.930 . S
C439 C435 1.373 . S
C439 C437 1.383 . S
C439 H467 0.931 . S
C440 C437 1.382 . S
C440 C438 1.392 . S
C441 Eu432 2.828 . S
C441 C435 1.505 . S
C441 O453 1.249 . S
C441 O454 1.244 . S
O442 Eu433 2.373 . S
O442 C444 1.258 1_655 S
O443 Eu432 2.392 . S
O443 C444 1.242 . S
C444 O442 1.258 1_455 S
C444 O443 1.242 . S
O445 Eu432 2.418 1_655 S
O445 C449 1.244 . S
O446 Eu433 2.488 . S
O446 C462 1.249 . S
O447 Eu433 2.471 . S
O447 C462 1.244 . S
O448 Eu433 2.349 . S
O448 C449 1.265 . S
C449 O445 1.244 . S
C449 O448 1.265 . S
O450 Eu432 2.373 . S
O450 C463 1.258 . S
O451 Eu433 2.392 1_455 S
O451 C463 1.242 . S
O452 Eu433 2.418 1_455 S
O452 C434 1.244 . S
O453 Eu432 2.488 . S
O453 C441 1.249 . S
O454 Eu432 2.471 . S
O454 C441 1.244 . S
O455 Eu432 2.349 . S
O455 C434 1.265 . S
C456 C457 1.379 . S
C456 C460 1.373 . S
C456 C462 1.505 . S
C457 C456 1.379 . S
C457 C459 1.369 . S
C457 H468 0.930 . S
C458 C460 1.383 . S
C458 C461 1.382 . S
C458 H469 0.930 . S
C459 C457 1.369 . S
C459 C461 1.392 . S
C459 H470 0.930 . S
C460 C456 1.373 . S
C460 C458 1.383 . S
C460 H471 0.931 . S
C461 C458 1.382 . S
C461 C459 1.392 . S
C462 Eu433 2.828 . S
C462 O446 1.249 . S
C462 O447 1.244 . S
C462 C456 1.505 . S
C463 O450 1.258 . S
C463 O451 1.242 . S
H464 C436 0.930 . S
H465 C437 0.930 . S
H466 C438 0.930 . S
H467 C439 0.931 . S
H468 C457 0.930 . S
H469 C458 0.930 . S
H470 C459 0.930 . S
H471 C460 0.931 . S
H472 C480 0.929 . S
H473 C482 0.930 . S
H474 C484 0.930 . S
H475 C487 0.929 . S
H476 C490 0.930 . S
H477 C492 0.960 . S
H478 C492 0.960 . S
H479 C492 0.960 . S
C480 H472 0.929 . S
C480 C481 1.377 . S
C480 C482 1.384 . S
C481 C480 1.377 . S
C481 C487 1.390 . S
C482 H473 0.930 . S
C482 C480 1.384 . S
C482 C483 1.372 . S
C483 C482 1.372 . S
C483 C484 1.400 . S
C483 C488 1.490 . S
C484 H474 0.930 . S
C484 C483 1.400 . S
C484 C487 1.386 . S
H485 C501 0.930 . S
H486 C502 0.931 . S
C487 H475 0.929 . S
C487 C481 1.390 . S
C487 C484 1.386 . S
C488 C483 1.490 . S
C488 C490 1.395 . S
C488 C491 1.403 . S
H489 C495 0.930 . S
C490 H476 0.930 . S
C490 C488 1.395 . S
C490 C493 1.403 . S
C491 C488 1.403 . S
C491 C492 1.524 . S
C491 C495 1.400 . S
C492 H477 0.960 . S
C492 H478 0.960 . S
C492 H479 0.960 . S
C492 C491 1.524 . S
C493 C490 1.403 . S
C493 C494 1.392 . S
C493 C497 1.495 . S
C494 C493 1.392 . S
C494 C495 1.385 . S
C494 C496 1.478 . S
C495 H489 0.930 . S
C495 C491 1.400 . S
C495 C494 1.385 . S
C496 C494 1.478 . S
C496 C498 1.381 . S
C496 C502 1.383 . S
C497 C493 1.495 . S
C497 H503 0.959 . S
C497 H504 0.961 . S
C497 H505 0.960 . S
C498 C496 1.381 . S
C498 C499 1.394 . S
C498 H506 0.930 . S
C499 C498 1.394 . S
C499 C500 1.383 . S
C499 H507 0.929 . S
C500 C499 1.383 . S
C500 C501 1.377 . S
C501 H485 0.930 . S
C501 C500 1.377 . S
C501 C502 1.379 . S
C502 H486 0.931 . S
C502 C496 1.383 . S
C502 C501 1.379 . S
H503 C497 0.959 . S
H504 C497 0.961 . S
H505 C497 0.960 . S
H506 C498 0.930 . S
H507 C499 0.929 . S
H508 C516 0.929 . S
H509 C518 0.930 . S
H510 C520 0.930 . S
H511 C523 0.929 . S
H512 C526 0.930 . S
H513 C528 0.960 . S
H514 C528 0.960 . S
H515 C528 0.960 . S
C516 H508 0.929 . S
C516 C517 1.377 . S
C516 C518 1.384 . S
C517 C516 1.377 . S
C517 C523 1.390 . S
C518 H509 0.930 . S
C518 C516 1.384 . S
C518 C519 1.372 . S
C519 C518 1.372 . S
C519 C520 1.400 . S
C519 C524 1.490 . S
C520 H510 0.930 . S
C520 C519 1.400 . S
C520 C523 1.386 . S
H521 C537 0.930 . S
H522 C538 0.931 . S
C523 H511 0.929 . S
C523 C517 1.390 . S
C523 C520 1.386 . S
C524 C519 1.490 . S
C524 C526 1.395 . S
C524 C527 1.403 . S
H525 C531 0.930 . S
C526 H512 0.930 . S
C526 C524 1.395 . S
C526 C529 1.403 . S
C527 C524 1.403 . S
C527 C528 1.524 . S
C527 C531 1.400 . S
C528 H513 0.960 . S
C528 H514 0.960 . S
C528 H515 0.960 . S
C528 C527 1.524 . S
C529 C526 1.403 . S
C529 C530 1.392 . S
C529 C533 1.495 . S
C530 C529 1.392 . S
C530 C531 1.385 . S
C530 C532 1.478 . S
C531 H525 0.930 . S
C531 C527 1.400 . S
C531 C530 1.385 . S
C532 C530 1.478 . S
C532 C534 1.381 . S
C532 C538 1.383 . S
C533 C529 1.495 . S
C533 H539 0.959 . S
C533 H540 0.961 . S
C533 H541 0.960 . S
C534 C532 1.381 . S
C534 C535 1.394 . S
C534 H542 0.930 . S
C535 C534 1.394 . S
C535 C536 1.383 . S
C535 H543 0.929 . S
C536 C535 1.383 . S
C536 C537 1.377 . S
C537 H521 0.930 . S
C537 C536 1.377 . S
C537 C538 1.379 . S
C538 H522 0.931 . S
C538 C532 1.383 . S
C538 C537 1.379 . S
H539 C533 0.959 . S
H540 C533 0.961 . S
H541 C533 0.960 . S
H542 C534 0.930 . S
H543 C535 0.929 . S
H544 C552 0.929 . S
H545 C554 0.930 . S
H546 C556 0.930 . S
H547 C559 0.929 . S
H548 C562 0.930 . S
H549 C564 0.960 . S
H550 C564 0.960 . S
H551 C564 0.960 . S
C552 H544 0.929 . S
C552 C553 1.377 . S
C552 C554 1.384 . S
C553 C552 1.377 . S
C553 C559 1.390 . S
C554 H545 0.930 . S
C554 C552 1.384 . S
C554 C555 1.372 . S
C555 C554 1.372 . S
C555 C556 1.400 . S
C555 C560 1.490 . S
C556 H546 0.930 . S
C556 C555 1.400 . S
C556 C559 1.386 . S
H557 C573 0.930 . S
H558 C574 0.931 . S
C559 H547 0.929 . S
C559 C553 1.390 . S
C559 C556 1.386 . S
C560 C555 1.490 . S
C560 C562 1.395 . S
C560 C563 1.403 . S
H561 C567 0.930 . S
C562 H548 0.930 . S
C562 C560 1.395 . S
C562 C565 1.403 . S
C563 C560 1.403 . S
C563 C564 1.524 . S
C563 C567 1.400 . S
C564 H549 0.960 . S
C564 H550 0.960 . S
C564 H551 0.960 . S
C564 C563 1.524 . S
C565 C562 1.403 . S
C565 C566 1.392 . S
C565 C569 1.495 . S
C566 C565 1.392 . S
C566 C567 1.385 . S
C566 C568 1.478 . S
C567 H561 0.930 . S
C567 C563 1.400 . S
C567 C566 1.385 . S
C568 C566 1.478 . S
C568 C570 1.381 . S
C568 C574 1.383 . S
C569 C565 1.495 . S
C569 H575 0.959 . S
C569 H576 0.961 . S
C569 H577 0.960 . S
C570 C568 1.381 . S
C570 C571 1.394 . S
C570 H578 0.930 . S
C571 C570 1.394 . S
C571 C572 1.383 . S
C571 H579 0.929 . S
C572 C571 1.383 . S
C572 C573 1.377 . S
C573 H557 0.930 . S
C573 C572 1.377 . S
C573 C574 1.379 . S
C574 H558 0.931 . S
C574 C568 1.383 . S
C574 C573 1.379 . S
H575 C569 0.959 . S
H576 C569 0.961 . S
H577 C569 0.960 . S
H578 C570 0.930 . S
H579 C571 0.929 . S
H580 C588 0.929 . S
H581 C590 0.930 . S
H582 C592 0.930 . S
H583 C595 0.929 . S
H584 C598 0.930 . S
H585 C600 0.960 . S
H586 C600 0.960 . S
H587 C600 0.960 . S
C588 H580 0.929 . S
C588 C589 1.377 . S
C588 C590 1.384 . S
C589 C588 1.377 . S
C589 C595 1.390 . S
C590 H581 0.930 . S
C590 C588 1.384 . S
C590 C591 1.372 . S
C591 C590 1.372 . S
C591 C592 1.400 . S
C591 C596 1.490 . S
C592 H582 0.930 . S
C592 C591 1.400 . S
C592 C595 1.386 . S
H593 C609 0.930 . S
H594 C610 0.931 . S
C595 H583 0.929 . S
C595 C589 1.390 . S
C595 C592 1.386 . S
C596 C591 1.490 . S
C596 C598 1.395 . S
C596 C599 1.403 . S
H597 C603 0.930 . S
C598 H584 0.930 . S
C598 C596 1.395 . S
C598 C601 1.403 . S
C599 C596 1.403 . S
C599 C600 1.524 . S
C599 C603 1.400 . S
C600 H585 0.960 . S
C600 H586 0.960 . S
C600 H587 0.960 . S
C600 C599 1.524 . S
C601 C598 1.403 . S
C601 C602 1.392 . S
C601 C605 1.496 . S
C602 C601 1.392 . S
C602 C603 1.385 . S
C602 C604 1.478 . S
C603 H597 0.930 . S
C603 C599 1.400 . S
C603 C602 1.385 . S
C604 C602 1.478 . S
C604 C606 1.381 . S
C604 C610 1.383 . S
C605 C601 1.496 . S
C605 H611 0.959 1_455 S
C605 H612 0.961 . S
C605 H613 0.959 1_455 S
C606 C604 1.381 . S
C606 C607 1.394 . S
C606 H614 0.930 1_455 S
C607 C606 1.394 . S
C607 C608 1.383 . S
C607 H615 0.929 1_455 S
C608 C607 1.383 . S
C608 C609 1.377 . S
C609 H593 0.930 . S
C609 C608 1.377 . S
C609 C610 1.379 . S
C610 H594 0.931 . S
C610 C604 1.383 . S
C610 C609 1.379 . S
H611 C605 0.959 1_655 S
H612 C605 0.961 . S
H613 C605 0.959 1_655 S
H614 C606 0.930 1_655 S
H615 C607 0.929 1_655 S
H616 C624 0.929 . S
H617 C626 0.930 . S
H618 C628 0.930 . S
H619 C631 0.929 . S
H620 C634 0.930 1_554 S
H621 C636 0.960 . S
H622 C636 0.960 . S
H623 C636 0.960 . S
C624 H616 0.929 . S
C624 C625 1.377 . S
C624 C626 1.384 . S
C625 C624 1.377 . S
C625 C631 1.390 . S
C626 H617 0.930 . S
C626 C624 1.384 . S
C626 C627 1.372 . S
C627 C626 1.372 . S
C627 C628 1.400 . S
C627 C632 1.490 1_554 S
C628 H618 0.930 . S
C628 C627 1.400 . S
C628 C631 1.386 . S
H629 C645 0.930 . S
H630 C646 0.931 . S
C631 H619 0.929 . S
C631 C625 1.390 . S
C631 C628 1.386 . S
C632 C627 1.490 1_556 S
C632 C634 1.395 . S
C632 C635 1.403 . S
H633 C639 0.930 . S
C634 H620 0.930 1_556 S
C634 C632 1.395 . S
C634 C637 1.403 . S
C635 C632 1.403 . S
C635 C636 1.524 . S
C635 C639 1.400 . S
C636 H621 0.960 . S
C636 H622 0.960 . S
C636 H623 0.960 . S
C636 C635 1.524 . S
C637 C634 1.403 . S
C637 C638 1.392 . S
C637 C641 1.495 . S
C638 C637 1.392 . S
C638 C639 1.385 . S
C638 C640 1.478 . S
C639 H633 0.930 . S
C639 C635 1.400 . S
C639 C638 1.385 . S
C640 C638 1.478 . S
C640 C642 1.411 . S
C640 C646 1.383 . S
C641 C637 1.495 . S
C641 H647 0.959 . S
C641 H648 0.961 . S
C641 H649 0.960 1_565 S
C642 C640 1.411 . S
C642 C643 1.389 1_565 S
C642 H650 0.906 1_565 S
C643 C642 1.389 1_545 S
C643 C644 1.383 1_545 S
C643 H651 0.929 . S
C644 C643 1.383 1_565 S
C644 C645 1.377 . S
C645 H629 0.930 . S
C645 C644 1.377 . S
C645 C646 1.379 . S
C646 H630 0.931 . S
C646 C640 1.383 . S
C646 C645 1.379 . S
H647 C641 0.959 . S
H648 C641 0.961 . S
H649 C641 0.960 1_545 S
H650 C642 0.906 1_545 S
H651 C643 0.929 . S
H652 C660 0.929 . S
H653 C662 0.930 . S
H654 C664 0.930 . S
H655 C667 0.929 . S
H656 C670 0.930 . S
H657 C672 0.960 . S
H658 C672 0.960 . S
H659 C672 0.960 . S
C660 H652 0.929 . S
C660 C661 1.377 . S
C660 C662 1.384 1_554 S
C661 C660 1.377 . S
C661 C667 1.390 . S
C662 H653 0.930 . S
C662 C660 1.384 1_556 S
C662 C663 1.372 . S
C663 C662 1.372 . S
C663 C664 1.400 1_556 S
C663 C668 1.490 . S
C664 H654 0.930 . S
C664 C663 1.400 1_554 S
C664 C667 1.386 . S
H665 C681 0.930 . S
H666 C682 0.931 . S
C667 H655 0.929 . S
C667 C661 1.390 . S
C667 C664 1.386 . S
C668 C663 1.490 . S
C668 C670 1.395 . S
C668 C671 1.403 . S
H669 C675 0.930 . S
C670 H656 0.930 . S
C670 C668 1.395 . S
C670 C673 1.403 . S
C671 C668 1.403 . S
C671 C672 1.524 . S
C671 C675 1.400 . S
C672 H657 0.960 . S
C672 H658 0.960 . S
C672 H659 0.960 . S
C672 C671 1.524 . S
C673 C670 1.403 . S
C673 C674 1.392 . S
C673 C677 1.495 . S
C674 C673 1.392 . S
C674 C675 1.385 . S
C674 C676 1.478 . S
C675 H669 0.930 . S
C675 C671 1.400 . S
C675 C674 1.385 . S
C676 C674 1.478 . S
C676 C678 1.381 . S
C676 C682 1.383 . S
C677 C673 1.495 . S
C677 H683 0.959 . S
C677 H684 0.961 . S
C677 H685 0.960 . S
C678 C676 1.381 . S
C678 C679 1.394 . S
C678 H686 0.930 . S
C679 C678 1.394 . S
C679 C680 1.383 . S
C679 H687 0.929 . S
C680 C679 1.383 . S
C680 C681 1.377 . S
C681 H665 0.930 . S
C681 C680 1.377 . S
C681 C682 1.379 . S
C682 H666 0.931 . S
C682 C676 1.383 . S
C682 C681 1.379 . S
H683 C677 0.959 . S
H684 C677 0.961 . S
H685 C677 0.960 . S
H686 C678 0.930 . S
H687 C679 0.929 . S
H688 C696 0.929 . S
H689 C698 0.930 . S
H690 C700 0.930 . S
H691 C703 0.929 . S
H692 C706 0.930 . S
H693 C708 0.960 . S
H694 C708 0.960 . S
H695 C708 0.960 . S
C696 H688 0.929 . S
C696 C697 1.377 . S
C696 C698 1.384 . S
C697 C696 1.377 . S
C697 C703 1.390 1_554 S
C698 H689 0.930 . S
C698 C696 1.384 . S
C698 C699 1.372 1_554 S
C699 C698 1.372 1_556 S
C699 C700 1.400 . S
C699 C704 1.490 . S
C700 H690 0.930 . S
C700 C699 1.400 . S
C700 C703 1.386 . S
H701 C717 0.930 . S
H702 C718 0.931 . S
C703 H691 0.929 . S
C703 C697 1.390 1_556 S
C703 C700 1.386 . S
C704 C699 1.490 . S
C704 C706 1.395 . S
C704 C707 1.403 . S
H705 C711 0.930 . S
C706 H692 0.930 . S
C706 C704 1.395 . S
C706 C709 1.403 . S
C707 C704 1.403 . S
C707 C708 1.524 . S
C707 C711 1.400 . S
C708 H693 0.960 . S
C708 H694 0.960 . S
C708 H695 0.960 . S
C708 C707 1.524 . S
C709 C706 1.403 . S
C709 C710 1.392 . S
C709 C713 1.495 . S
C710 C709 1.392 . S
C710 C711 1.385 . S
C710 C712 1.478 . S
C711 H705 0.930 . S
C711 C707 1.400 . S
C711 C710 1.385 . S
C712 C710 1.478 . S
C712 C714 1.381 . S
C712 C718 1.383 . S
C713 C709 1.495 . S
C713 H719 0.959 . S
C713 H720 0.961 . S
C713 H721 0.960 . S
C714 C712 1.381 . S
C714 C715 1.394 . S
C714 H722 0.930 . S
C715 C714 1.394 . S
C715 C716 1.383 . S
C715 H723 0.929 . S
C716 C715 1.383 . S
C716 C717 1.377 . S
C717 H701 0.930 . S
C717 C716 1.377 . S
C717 C718 1.379 . S
C718 H702 0.931 . S
C718 C712 1.383 . S
C718 C717 1.379 . S
H719 C713 0.959 . S
H720 C713 0.961 . S
H721 C713 0.960 . S
H722 C714 0.930 . S
H723 C715 0.929 . S
H724 C732 0.929 . S
H725 C734 0.930 . S
H726 C736 0.930 1_556 S
H727 C739 0.929 . S
H728 C742 0.930 . S
H729 C744 0.960 . S
H730 C744 0.960 1_554 S
H731 C744 0.960 . S
C732 H724 0.929 . S
C732 C733 1.377 . S
C732 C734 1.384 . S
C733 C732 1.377 . S
C733 C739 1.390 . S
C734 H725 0.930 . S
C734 C732 1.384 . S
C734 C735 1.372 . S
C735 C734 1.372 . S
C735 C736 1.400 . S
C735 C740 1.490 1_554 S
C736 H726 0.930 1_554 S
C736 C735 1.400 . S
C736 C739 1.386 . S
H737 C753 0.930 . S
H738 C754 0.931 1_455 S
C739 H727 0.929 . S
C739 C733 1.390 . S
C739 C736 1.386 . S
C740 C735 1.490 1_556 S
C740 C742 1.395 . S
C740 C743 1.403 . S
H741 C747 0.930 1_455 S
C742 H728 0.930 . S
C742 C740 1.395 . S
C742 C745 1.403 . S
C743 C740 1.403 . S
C743 C744 1.524 1_655 S
C743 C747 1.400 . S
C744 H729 0.960 . S
C744 H730 0.960 1_556 S
C744 H731 0.960 . S
C744 C743 1.524 1_455 S
C745 C742 1.403 . S
C745 C746 1.392 . S
C745 C749 1.495 . S
C746 C745 1.392 . S
C746 C747 1.385 . S
C746 C748 1.478 . S
C747 H741 0.930 1_655 S
C747 C743 1.400 . S
C747 C746 1.385 . S
C748 C746 1.478 . S
C748 C750 1.381 . S
C748 C754 1.383 . S
C749 C745 1.495 . S
C749 H755 0.959 . S
C749 H756 0.961 . S
C749 H757 0.960 . S
C750 C748 1.381 . S
C750 C751 1.394 . S
C750 H758 0.930 . S
C751 C750 1.394 . S
C751 C752 1.383 . S
C751 H759 0.929 . S
C752 C751 1.383 . S
C752 C753 1.377 1_655 S
C753 H737 0.930 . S
C753 C752 1.377 1_455 S
C753 C754 1.379 1_455 S
C754 H738 0.931 1_655 S
C754 C748 1.383 . S
C754 C753 1.379 1_655 S
H755 C749 0.959 . S
H756 C749 0.961 . S
H757 C749 0.960 . S
H758 C750 0.930 . S
H759 C751 0.929 . S
H760 C768 0.929 . S
H761 C770 0.930 . S
H762 C772 0.930 . S
H763 C775 0.929 . S
H764 C778 0.930 . S
H765 C780 0.960 . S
H766 C780 0.960 . S
H767 C780 0.960 . S
C768 H760 0.929 . S
C768 C769 1.377 . S
C768 C770 1.384 . S
C769 C768 1.377 . S
C769 C775 1.390 . S
C770 H761 0.930 . S
C770 C768 1.384 . S
C770 C771 1.372 . S
C771 C770 1.372 . S
C771 C772 1.400 . S
C771 C776 1.490 . S
C772 H762 0.930 . S
C772 C771 1.400 . S
C772 C775 1.386 . S
H773 C789 0.930 . S
H774 C790 0.931 . S
C775 H763 0.929 . S
C775 C769 1.390 . S
C775 C772 1.386 . S
C776 C771 1.490 . S
C776 C778 1.395 . S
C776 C779 1.403 . S
H777 C783 0.930 . S
C778 H764 0.930 . S
C778 C776 1.395 . S
C778 C781 1.403 . S
C779 C776 1.403 . S
C779 C780 1.524 . S
C779 C783 1.400 . S
C780 H765 0.960 . S
C780 H766 0.960 . S
C780 H767 0.960 . S
C780 C779 1.524 . S
C781 C778 1.403 . S
C781 C782 1.392 . S
C781 C785 1.495 . S
C782 C781 1.392 . S
C782 C783 1.385 . S
C782 C784 1.478 . S
C783 H777 0.930 . S
C783 C779 1.400 . S
C783 C782 1.385 . S
C784 C782 1.478 . S
C784 C786 1.381 . S
C784 C790 1.383 1_455 S
C785 C781 1.495 . S
C785 H791 0.959 . S
C785 H792 0.961 . S
C785 H793 0.960 . S
C786 C784 1.381 . S
C786 C787 1.394 . S
C786 H794 0.930 . S
C787 C786 1.394 . S
C787 C788 1.422 . S
C787 H795 0.929 . S
C788 C787 1.422 . S
C788 C789 1.354 1_455 S
C789 H773 0.930 . S
C789 C788 1.354 1_655 S
C789 C790 1.379 . S
C790 H774 0.931 . S
C790 C784 1.383 1_655 S
C790 C789 1.379 . S
H791 C785 0.959 . S
H792 C785 0.961 . S
H793 C785 0.960 . S
H794 C786 0.930 . S
H795 C787 0.929 . S
H796 C804 0.929 . S
H797 C806 0.930 . S
H798 C808 0.930 . S
H799 C811 0.929 . S
H800 C814 0.930 . S
H801 C816 0.960 . S
H802 C816 0.960 . S
H803 C816 0.960 . S
C804 H796 0.929 . S
C804 C805 1.377 . S
C804 C806 1.384 . S
C805 C804 1.377 . S
C805 C811 1.390 . S
C806 H797 0.930 . S
C806 C804 1.384 . S
C806 C807 1.372 . S
C807 C806 1.372 . S
C807 C808 1.400 . S
C807 C812 1.490 . S
C808 H798 0.930 . S
C808 C807 1.400 . S
C808 C811 1.386 . S
H809 C825 0.930 . S
H810 C826 0.931 . S
C811 H799 0.929 . S
C811 C805 1.390 . S
C811 C808 1.386 . S
C812 C807 1.490 . S
C812 C814 1.395 . S
C812 C815 1.403 . S
H813 C819 0.930 . S
C814 H800 0.930 . S
C814 C812 1.395 . S
C814 C817 1.403 . S
C815 C812 1.403 . S
C815 C816 1.524 . S
C815 C819 1.400 . S
C816 H801 0.960 . S
C816 H802 0.960 . S
C816 H803 0.960 . S
C816 C815 1.524 . S
C817 C814 1.403 . S
C817 C818 1.392 . S
C817 C821 1.495 . S
C818 C817 1.392 . S
C818 C819 1.385 . S
C818 C820 1.478 . S
C819 H813 0.930 . S
C819 C815 1.400 . S
C819 C818 1.385 . S
C820 C818 1.478 . S
C820 C822 1.381 . S
C820 C826 1.383 . S
C821 C817 1.495 . S
C821 H827 0.951 1_545 S
C821 H828 0.961 . S
C821 H829 0.960 1_545 S
C822 C820 1.381 . S
C822 C823 1.394 1_545 S
C822 H830 0.930 1_545 S
C823 C822 1.394 1_565 S
C823 C824 1.383 1_565 S
C823 H831 0.929 . S
C824 C823 1.383 1_545 S
C824 C825 1.377 . S
C825 H809 0.930 . S
C825 C824 1.377 . S
C825 C826 1.379 . S
C826 H810 0.931 . S
C826 C820 1.383 . S
C826 C825 1.379 . S
H827 C821 0.951 1_565 S
H828 C821 0.961 . S
H829 C821 0.960 1_565 S
H830 C822 0.930 1_565 S
H831 C823 0.929 . S
H832 C840 0.929 . S
H833 C842 0.930 . S
H834 C844 0.930 . S
H835 C847 0.929 . S
H836 C850 0.930 . S
H837 C852 0.960 . S
H838 C852 0.960 . S
H839 C852 0.960 . S
C840 H832 0.929 . S
C840 C841 1.377 . S
C840 C842 1.384 . S
C841 C840 1.377 . S
C841 C847 1.390 . S
C842 H833 0.930 . S
C842 C840 1.384 . S
C842 C843 1.372 . S
C843 C842 1.372 . S
C843 C844 1.400 . S
C843 C848 1.490 . S
C844 H834 0.930 . S
C844 C843 1.400 . S
C844 C847 1.386 . S
H845 C861 0.930 . S
H846 C862 0.931 . S
C847 H835 0.929 . S
C847 C841 1.390 . S
C847 C844 1.386 . S
C848 C843 1.490 . S
C848 C850 1.395 . S
C848 C851 1.403 . S
H849 C855 0.930 . S
C850 H836 0.930 . S
C850 C848 1.395 . S
C850 C853 1.403 . S
C851 C848 1.403 . S
C851 C852 1.524 . S
C851 C855 1.400 . S
C852 H837 0.960 . S
C852 H838 0.960 . S
C852 H839 0.960 . S
C852 C851 1.524 . S
C853 C850 1.403 . S
C853 C854 1.392 . S
C853 C857 1.495 . S
C854 C853 1.392 . S
C854 C855 1.385 . S
C854 C856 1.478 . S
C855 H849 0.930 . S
C855 C851 1.400 . S
C855 C854 1.385 . S
C856 C854 1.478 . S
C856 C858 1.381 . S
C856 C862 1.383 . S
C857 C853 1.495 . S
C857 H863 0.959 . S
C857 H864 0.961 . S
C857 H865 0.960 . S
C858 C856 1.381 . S
C858 C859 1.394 . S
C858 H866 0.930 . S
C859 C858 1.394 . S
C859 C860 1.383 . S
C859 H867 0.929 . S
C860 C859 1.383 . S
C860 C861 1.377 . S
C861 H845 0.930 . S
C861 C860 1.377 . S
C861 C862 1.379 . S
C862 H846 0.931 . S
C862 C856 1.383 . S
C862 C861 1.379 . S
H863 C857 0.959 . S
H864 C857 0.961 . S
H865 C857 0.960 . S
H866 C858 0.930 . S
H867 C859 0.929 . S
H868 C876 0.929 . S
H869 C878 0.930 . S
H870 C880 0.930 . S
H871 C883 0.929 . S
H872 C886 0.930 . S
H873 C888 0.960 . S
H874 C888 0.960 . S
H875 C888 0.960 . S
C876 H868 0.929 . S
C876 C877 1.377 . S
C876 C878 1.384 . S
C877 C876 1.377 . S
C877 C883 1.390 . S
C878 H869 0.930 . S
C878 C876 1.384 . S
C878 C879 1.372 . S
C879 C878 1.372 . S
C879 C880 1.400 . S
C879 C884 1.490 . S
C880 H870 0.930 . S
C880 C879 1.400 . S
C880 C883 1.386 . S
H881 C897 0.930 . S
H882 C898 0.931 . S
C883 H871 0.929 . S
C883 C877 1.390 . S
C883 C880 1.386 . S
C884 C879 1.490 . S
C884 C886 1.395 . S
C884 C887 1.403 . S
H885 C891 0.930 . S
C886 H872 0.930 . S
C886 C884 1.395 . S
C886 C889 1.403 . S
C887 C884 1.403 . S
C887 C888 1.524 . S
C887 C891 1.400 . S
C888 H873 0.960 . S
C888 H874 0.960 . S
C888 H875 0.960 . S
C888 C887 1.524 . S
C889 C886 1.403 . S
C889 C890 1.392 . S
C889 C893 1.495 . S
C890 C889 1.392 . S
C890 C891 1.385 . S
C890 C892 1.478 . S
C891 H885 0.930 . S
C891 C887 1.400 . S
C891 C890 1.385 . S
C892 C890 1.478 . S
C892 C894 1.381 . S
C892 C898 1.383 . S
C893 C889 1.495 . S
C893 H899 0.959 . S
C893 H900 0.961 . S
C893 H901 0.960 . S
C894 C892 1.381 . S
C894 C895 1.394 . S
C894 H902 0.930 . S
C895 C894 1.394 . S
C895 C896 1.383 . S
C895 H903 0.929 . S
C896 C895 1.383 . S
C896 C897 1.377 . S
C897 H881 0.930 . S
C897 C896 1.377 . S
C897 C898 1.379 . S
C898 H882 0.931 . S
C898 C892 1.383 . S
C898 C897 1.379 . S
H899 C893 0.959 . S
H900 C893 0.961 . S
H901 C893 0.960 . S
H902 C894 0.930 . S
H903 C895 0.929 . S
H904 C912 0.929 . S
H905 C914 0.930 . S
H906 C916 0.927 1_556 S
H907 C919 0.929 . S
H908 C922 0.930 . S
H909 C924 0.960 . S
H910 C924 0.960 . S
H911 C924 0.960 . S
C912 H904 0.929 . S
C912 C913 1.377 . S
C912 C914 1.384 . S
C913 C912 1.377 . S
C913 C919 1.390 . S
C914 H905 0.930 . S
C914 C912 1.384 . S
C914 C915 1.372 1_554 S
C915 C914 1.372 1_556 S
C915 C916 1.400 1_556 S
C915 C920 1.490 . S
C916 H906 0.927 1_554 S
C916 C915 1.400 1_554 S
C916 C919 1.386 . S
H917 C933 0.930 . S
H918 C934 0.931 . S
C919 H907 0.929 . S
C919 C913 1.390 . S
C919 C916 1.386 . S
C920 C915 1.490 . S
C920 C922 1.395 . S
C920 C923 1.403 . S
H921 C927 0.930 . S
C922 H908 0.930 . S
C922 C920 1.395 . S
C922 C925 1.403 . S
C923 C920 1.403 . S
C923 C924 1.524 1_556 S
C923 C927 1.400 . S
C924 H909 0.960 . S
C924 H910 0.960 . S
C924 H911 0.960 . S
C924 C923 1.524 1_554 S
C925 C922 1.403 . S
C925 C926 1.392 . S
C925 C929 1.495 1_655 S
C926 C925 1.392 . S
C926 C927 1.385 . S
C926 C928 1.478 1_655 S
C927 H921 0.930 . S
C927 C923 1.400 . S
C927 C926 1.385 . S
C928 C926 1.478 1_455 S
C928 C930 1.381 . S
C928 C934 1.383 1_455 S
C929 C925 1.495 1_455 S
C929 H935 0.959 . S
C929 H936 0.961 1_455 S
C929 H937 0.960 . S
C930 C928 1.381 . S
C930 C931 1.394 . S
C930 H938 0.930 . S
C931 C930 1.394 . S
C931 C932 1.383 . S
C931 H939 0.929 . S
C932 C931 1.383 . S
C932 C933 1.377 1_455 S
C933 H917 0.930 . S
C933 C932 1.377 1_655 S
C933 C934 1.379 . S
C934 H918 0.931 . S
C934 C928 1.383 1_655 S
C934 C933 1.379 . S
H935 C929 0.959 . S
H936 C929 0.961 1_655 S
H937 C929 0.960 . S
H938 C930 0.930 . S
H939 C931 0.929 . S
H940 C948 0.929 . S
H941 C950 0.930 . S
H942 C952 0.930 . S
H943 C955 0.929 . S
H944 C958 0.930 1_554 S
H945 C960 0.960 . S
H946 C960 0.960 . S
H947 C960 0.960 . S
C948 H940 0.929 . S
C948 C949 1.377 . S
C948 C950 1.384 . S
C949 C948 1.377 . S
C949 C955 1.390 . S
C950 H941 0.930 . S
C950 C948 1.384 . S
C950 C951 1.372 1_554 S
C951 C950 1.372 1_556 S
C951 C952 1.400 . S
C951 C956 1.490 . S
C952 H942 0.930 . S
C952 C951 1.400 . S
C952 C955 1.386 1_556 S
H953 C969 0.930 . S
H954 C970 0.931 . S
C955 H943 0.929 . S
C955 C949 1.390 . S
C955 C952 1.386 1_554 S
C956 C951 1.490 . S
C956 C958 1.395 . S
C956 C959 1.403 . S
H957 C963 0.930 . S
C958 H944 0.930 1_556 S
C958 C956 1.395 . S
C958 C961 1.403 . S
C959 C956 1.403 . S
C959 C960 1.524 . S
C959 C963 1.400 . S
C960 H945 0.960 . S
C960 H946 0.960 . S
C960 H947 0.960 . S
C960 C959 1.524 . S
C961 C958 1.403 . S
C961 C962 1.392 . S
C961 C965 1.495 . S
C962 C961 1.392 . S
C962 C963 1.385 . S
C962 C964 1.478 . S
C963 H957 0.930 . S
C963 C959 1.400 . S
C963 C962 1.385 . S
C964 C962 1.478 . S
C964 C966 1.381 . S
C964 C970 1.383 1_565 S
C965 C961 1.495 . S
C965 H971 0.959 1_556 S
C965 H972 0.961 1_565 S
C965 H973 0.960 . S
C966 C964 1.381 . S
C966 C967 1.394 . S
C966 H974 0.930 . S
C967 C966 1.394 . S
C967 C968 1.383 1_565 S
C967 H975 0.929 . S
C968 C967 1.383 1_545 S
C968 C969 1.377 . S
C969 H953 0.930 . S
C969 C968 1.377 . S
C969 C970 1.379 . S
C970 H954 0.931 . S
C970 C964 1.383 1_545 S
C970 C969 1.379 . S
H971 C965 0.959 1_554 S
H972 C965 0.961 1_545 S
H973 C965 0.960 . S
H974 C966 0.930 . S
H975 C967 0.929 . S
H976 C984 0.929 1_554 S
H977 C986 0.930 . S
H978 C988 0.930 . S
H979 C991 0.932 . S
H980 C994 0.930 . S
H981 C996 0.960 . S
H982 C996 0.948 1_554 S
H983 C996 0.960 . S
C984 H976 0.929 1_556 S
C984 C985 1.377 1_556 S
C984 C986 1.384 . S
C985 C984 1.377 1_554 S
C985 C991 1.390 1_554 S
C986 H977 0.930 . S
C986 C984 1.384 . S
C986 C987 1.372 . S
C987 C986 1.372 . S
C987 C988 1.400 . S
C987 C992 1.490 . S
C988 H978 0.930 . S
C988 C987 1.400 . S
C988 C991 1.386 . S
H989 C1005 0.930 . S
H990 C1006 0.931 . S
C991 H979 0.932 . S
C991 C985 1.390 1_556 S
C991 C988 1.386 . S
C992 C987 1.490 . S
C992 C994 1.395 . S
C992 C995 1.403 . S
H993 C999 0.930 . S
C994 H980 0.930 . S
C994 C992 1.395 . S
C994 C997 1.403 . S
C995 C992 1.403 . S
C995 C996 1.524 . S
C995 C999 1.400 . S
C996 H981 0.960 . S
C996 H982 0.948 1_556 S
C996 H983 0.960 . S
C996 C995 1.524 . S
C997 C994 1.403 . S
C997 C998 1.392 . S
C997 C1001 1.495 . S
C998 C997 1.392 . S
C998 C999 1.385 . S
C998 C1000 1.478 . S
C999 H993 0.930 . S
C999 C995 1.400 . S
C999 C998 1.385 . S
C1000 C998 1.478 . S
C1000 C1002 1.381 . S
C1000 C1006 1.383 . S
C1001 C997 1.495 . S
C1001 H1007 0.959 . S
C1001 H1008 0.961 . S
C1001 H1009 0.960 . S
C1002 C1000 1.381 . S
C1002 C1003 1.394 . S
C1002 H1010 0.930 . S
C1003 C1002 1.394 . S
C1003 C1004 1.383 . S
C1003 H1011 0.929 . S
C1004 C1003 1.383 . S
C1004 C1005 1.377 . S
C1005 H989 0.930 . S
C1005 C1004 1.377 . S
C1005 C1006 1.379 . S
C1006 H990 0.931 . S
C1006 C1000 1.383 . S
C1006 C1005 1.379 . S
H1007 C1001 0.959 . S
H1008 C1001 0.961 . S
H1009 C1001 0.960 . S
H1010 C1002 0.930 . S
H1011 C1003 0.929 . S
H1012 C1020 0.929 . S
H1013 C1022 0.930 . S
H1014 C1024 0.930 . S
H1015 C1027 0.929 . S
H1016 C1030 0.930 . S
H1017 C1032 0.960 . S
H1018 C1032 0.960 . S
H1019 C1032 0.960 . S
C1020 H1012 0.929 . S
C1020 C1021 1.377 . S
C1020 C1022 1.384 . S
C1021 C1020 1.377 . S
C1021 C1027 1.390 1_556 S
C1022 H1013 0.930 . S
C1022 C1020 1.384 . S
C1022 C1023 1.372 . S
C1023 C1022 1.372 . S
C1023 C1024 1.400 . S
C1023 C1028 1.490 . S
C1024 H1014 0.930 . S
C1024 C1023 1.400 . S
C1024 C1027 1.386 1_556 S
H1025 C1041 0.930 . S
H1026 C1042 0.931 . S
C1027 H1015 0.929 . S
C1027 C1021 1.390 1_554 S
C1027 C1024 1.386 1_554 S
C1028 C1023 1.490 . S
C1028 C1030 1.395 . S
C1028 C1031 1.403 . S
H1029 C1035 0.930 . S
C1030 H1016 0.930 . S
C1030 C1028 1.395 . S
C1030 C1033 1.403 . S
C1031 C1028 1.403 . S
C1031 C1032 1.524 . S
C1031 C1035 1.400 . S
C1032 H1017 0.960 . S
C1032 H1018 0.960 . S
C1032 H1019 0.960 . S
C1032 C1031 1.524 . S
C1033 C1030 1.403 . S
C1033 C1034 1.392 . S
C1033 C1037 1.495 . S
C1034 C1033 1.392 . S
C1034 C1035 1.385 . S
C1034 C1036 1.478 . S
C1035 H1029 0.930 . S
C1035 C1031 1.400 . S
C1035 C1034 1.385 . S
C1036 C1034 1.478 . S
C1036 C1038 1.381 . S
C1036 C1042 1.383 . S
C1037 C1033 1.495 . S
C1037 H1043 0.959 . S
C1037 H1044 0.961 . S
C1037 H1045 0.960 . S
C1038 C1036 1.381 . S
C1038 C1039 1.394 . S
C1038 H1046 0.930 . S
C1039 C1038 1.394 . S
C1039 C1040 1.383 . S
C1039 H1047 0.929 . S
C1040 C1039 1.383 . S
C1040 C1041 1.377 . S
C1041 H1025 0.930 . S
C1041 C1040 1.377 . S
C1041 C1042 1.379 . S
C1042 H1026 0.931 . S
C1042 C1036 1.383 . S
C1042 C1041 1.379 . S
H1043 C1037 0.959 . S
H1044 C1037 0.961 . S
H1045 C1037 0.960 . S
H1046 C1038 0.930 . S
H1047 C1039 0.929 . S
H1048 C1056 0.929 . S
H1049 C1058 0.930 . S
H1050 C1060 0.930 . S
H1051 C1063 0.929 . S
H1052 C1066 0.930 . S
H1053 C1068 0.960 . S
H1054 C1068 0.960 . S
H1055 C1068 0.960 . S
C1056 H1048 0.929 . S
C1056 C1057 1.377 . S
C1056 C1058 1.384 . S
C1057 C1056 1.377 . S
C1057 C1063 1.390 . S
C1058 H1049 0.930 . S
C1058 C1056 1.384 . S
C1058 C1059 1.372 . S
C1059 C1058 1.372 . S
C1059 C1060 1.400 . S
C1059 C1064 1.490 . S
C1060 H1050 0.930 . S
C1060 C1059 1.400 . S
C1060 C1063 1.386 . S
H1061 C1077 0.930 . S
H1062 C1078 0.931 . S
C1063 H1051 0.929 . S
C1063 C1057 1.390 . S
C1063 C1060 1.386 . S
C1064 C1059 1.490 . S
C1064 C1066 1.395 . S
C1064 C1067 1.403 . S
H1065 C1071 0.930 . S
C1066 H1052 0.930 . S
C1066 C1064 1.395 . S
C1066 C1069 1.403 . S
C1067 C1064 1.403 . S
C1067 C1068 1.524 . S
C1067 C1071 1.400 . S
C1068 H1053 0.960 . S
C1068 H1054 0.960 . S
C1068 H1055 0.960 . S
C1068 C1067 1.524 . S
C1069 C1066 1.403 . S
C1069 C1070 1.392 . S
C1069 C1073 1.495 1_455 S
C1070 C1069 1.392 . S
C1070 C1071 1.385 . S
C1070 C1072 1.478 . S
C1071 H1065 0.930 . S
C1071 C1067 1.400 . S
C1071 C1070 1.385 . S
C1072 C1070 1.478 . S
C1072 C1074 1.381 . S
C1072 C1078 1.383 . S
C1073 C1069 1.495 1_655 S
C1073 H1079 0.959 . S
C1073 H1080 0.961 1_655 S
C1073 H1081 0.960 . S
C1074 C1072 1.381 . S
C1074 C1075 1.394 . S
C1074 H1082 0.930 . S
C1075 C1074 1.394 . S
C1075 C1076 1.383 . S
C1075 H1083 0.929 1_455 S
C1076 C1075 1.383 . S
C1076 C1077 1.377 . S
C1077 H1061 0.930 . S
C1077 C1076 1.377 . S
C1077 C1078 1.379 . S
C1078 H1062 0.931 . S
C1078 C1072 1.383 . S
C1078 C1077 1.379 . S
H1079 C1073 0.959 . S
H1080 C1073 0.961 1_455 S
H1081 C1073 0.960 . S
H1082 C1074 0.930 . S
H1083 C1075 0.929 1_655 S
H1084 C1092 0.929 . S
H1085 C1094 0.930 . S
H1086 C1096 0.930 . S
H1087 C1099 0.929 . S
H1088 C1102 0.930 . S
H1089 C1104 0.960 . S
H1090 C1104 0.960 . S
H1091 C1104 0.960 . S
C1092 H1084 0.929 . S
C1092 C1093 1.377 . S
C1092 C1094 1.384 . S
C1093 C1092 1.377 . S
C1093 C1099 1.390 . S
C1094 H1085 0.930 . S
C1094 C1092 1.384 . S
C1094 C1095 1.372 . S
C1095 C1094 1.372 . S
C1095 C1096 1.400 . S
C1095 C1100 1.490 . S
C1096 H1086 0.930 . S
C1096 C1095 1.400 . S
C1096 C1099 1.386 . S
H1097 C1113 0.930 . S
H1098 C1114 0.931 . S
C1099 H1087 0.929 . S
C1099 C1093 1.390 . S
C1099 C1096 1.386 . S
C1100 C1095 1.490 . S
C1100 C1102 1.395 . S
C1100 C1103 1.403 . S
H1101 C1107 0.930 . S
C1102 H1088 0.930 . S
C1102 C1100 1.395 . S
C1102 C1105 1.403 . S
C1103 C1100 1.403 . S
C1103 C1104 1.524 . S
C1103 C1107 1.400 . S
C1104 H1089 0.960 . S
C1104 H1090 0.960 . S
C1104 H1091 0.960 . S
C1104 C1103 1.524 . S
C1105 C1102 1.403 . S
C1105 C1106 1.392 . S
C1105 C1109 1.495 . S
C1106 C1105 1.392 . S
C1106 C1107 1.385 . S
C1106 C1108 1.478 . S
C1107 H1101 0.930 . S
C1107 C1103 1.400 . S
C1107 C1106 1.385 . S
C1108 C1106 1.478 . S
C1108 C1110 1.381 . S
C1108 C1114 1.383 . S
C1109 C1105 1.495 . S
C1109 H1115 0.959 . S
C1109 H1116 0.961 . S
C1109 H1117 0.960 . S
C1110 C1108 1.381 . S
C1110 C1111 1.394 . S
C1110 H1118 0.930 . S
C1111 C1110 1.394 . S
C1111 C1112 1.383 . S
C1111 H1119 0.929 . S
C1112 C1111 1.383 . S
C1112 C1113 1.377 . S
C1113 H1097 0.930 . S
C1113 C1112 1.377 . S
C1113 C1114 1.379 . S
C1114 H1098 0.931 . S
C1114 C1108 1.383 . S
C1114 C1113 1.379 . S
H1115 C1109 0.959 . S
H1116 C1109 0.961 . S
H1117 C1109 0.960 . S
H1118 C1110 0.930 . S
H1119 C1111 0.929 . S
H1120 C1128 0.929 . S
H1121 C1130 0.930 . S
H1122 C1132 0.930 . S
H1123 C1135 0.929 . S
H1124 C1138 0.930 . S
H1125 C1140 0.960 . S
H1126 C1140 0.960 . S
H1127 C1140 0.960 . S
C1128 H1120 0.929 . S
C1128 C1129 1.377 . S
C1128 C1130 1.384 . S
C1129 C1128 1.377 . S
C1129 C1135 1.390 . S
C1130 H1121 0.930 . S
C1130 C1128 1.384 . S
C1130 C1131 1.372 . S
C1131 C1130 1.372 . S
C1131 C1132 1.400 . S
C1131 C1136 1.490 . S
C1132 H1122 0.930 . S
C1132 C1131 1.400 . S
C1132 C1135 1.386 . S
H1133 C1149 0.930 . S
H1134 C1150 0.931 . S
C1135 H1123 0.929 . S
C1135 C1129 1.390 . S
C1135 C1132 1.386 . S
C1136 C1131 1.490 . S
C1136 C1138 1.395 . S
C1136 C1139 1.403 . S
H1137 C1143 0.930 . S
C1138 H1124 0.930 . S
C1138 C1136 1.395 . S
C1138 C1141 1.403 . S
C1139 C1136 1.403 . S
C1139 C1140 1.524 . S
C1139 C1143 1.400 . S
C1140 H1125 0.960 . S
C1140 H1126 0.960 . S
C1140 H1127 0.960 . S
C1140 C1139 1.524 . S
C1141 C1138 1.403 . S
C1141 C1142 1.392 . S
C1141 C1145 1.495 . S
C1142 C1141 1.392 . S
C1142 C1143 1.385 . S
C1142 C1144 1.478 . S
C1143 H1137 0.930 . S
C1143 C1139 1.400 . S
C1143 C1142 1.385 . S
C1144 C1142 1.478 . S
C1144 C1146 1.381 . S
C1144 C1150 1.383 . S
C1145 C1141 1.495 . S
C1145 H1151 0.959 . S
C1145 H1152 0.961 . S
C1145 H1153 0.960 . S
C1146 C1144 1.381 . S
C1146 C1147 1.394 . S
C1146 H1154 0.930 . S
C1147 C1146 1.394 . S
C1147 C1148 1.383 . S
C1147 H1155 0.929 . S
C1148 C1147 1.383 . S
C1148 C1149 1.377 . S
C1149 H1133 0.930 . S
C1149 C1148 1.377 . S
C1149 C1150 1.379 . S
C1150 H1134 0.931 . S
C1150 C1144 1.383 . S
C1150 C1149 1.379 . S
H1151 C1145 0.959 . S
H1152 C1145 0.961 . S
H1153 C1145 0.960 . S
H1154 C1146 0.930 . S
H1155 C1147 0.929 . S
H1156 C1164 0.929 . S
H1157 C1166 0.930 . S
H1158 C1168 0.930 . S
H1159 C1171 0.929 . S
H1160 C1174 0.930 . S
H1161 C1176 0.960 . S
H1162 C1176 0.960 . S
H1163 C1176 0.960 . S
C1164 H1156 0.929 . S
C1164 C1165 1.377 . S
C1164 C1166 1.384 . S
C1165 C1164 1.377 . S
C1165 C1171 1.390 . S
C1166 H1157 0.930 . S
C1166 C1164 1.384 . S
C1166 C1167 1.372 . S
C1167 C1166 1.372 . S
C1167 C1168 1.400 . S
C1167 C1172 1.490 . S
C1168 H1158 0.930 . S
C1168 C1167 1.400 . S
C1168 C1171 1.386 . S
H1169 C1185 0.930 . S
H1170 C1186 0.931 . S
C1171 H1159 0.929 . S
C1171 C1165 1.390 . S
C1171 C1168 1.386 . S
C1172 C1167 1.490 . S
C1172 C1174 1.395 . S
C1172 C1175 1.403 . S
H1173 C1179 0.930 . S
C1174 H1160 0.930 . S
C1174 C1172 1.395 . S
C1174 C1177 1.403 . S
C1175 C1172 1.403 . S
C1175 C1176 1.524 . S
C1175 C1179 1.400 . S
C1176 H1161 0.960 . S
C1176 H1162 0.960 . S
C1176 H1163 0.960 . S
C1176 C1175 1.524 . S
C1177 C1174 1.403 . S
C1177 C1178 1.392 . S
C1177 C1181 1.495 . S
C1178 C1177 1.392 . S
C1178 C1179 1.385 . S
C1178 C1180 1.478 . S
C1179 H1173 0.930 . S
C1179 C1175 1.400 . S
C1179 C1178 1.385 . S
C1180 C1178 1.478 . S
C1180 C1182 1.381 . S
C1180 C1186 1.383 . S
C1181 C1177 1.495 . S
C1181 H1187 0.959 . S
C1181 H1188 0.961 . S
C1181 H1189 0.960 . S
C1182 C1180 1.381 . S
C1182 C1183 1.394 . S
C1182 H1190 0.930 . S
C1183 C1182 1.394 . S
C1183 C1184 1.383 . S
C1183 H1191 0.929 . S
C1184 C1183 1.383 . S
C1184 C1185 1.377 . S
C1185 H1169 0.930 . S
C1185 C1184 1.377 . S
C1185 C1186 1.379 . S
C1186 H1170 0.931 . S
C1186 C1180 1.383 . S
C1186 C1185 1.379 . S
H1187 C1181 0.959 . S
H1188 C1181 0.961 . S
H1189 C1181 0.960 . S
H1190 C1182 0.930 . S
H1191 C1183 0.929 . S
H1192 C1200 0.929 . S
H1193 C1202 0.893 1_455 S
H1194 C1204 0.930 . S
H1195 C1207 0.929 . S
H1196 C1210 0.932 . S
H1197 C1212 0.960 . S
H1198 C1212 0.960 . S
H1199 C1212 0.960 . S
C1200 H1192 0.929 . S
C1200 C1201 1.377 . S
C1200 C1202 1.384 . S
C1201 C1200 1.377 . S
C1201 C1207 1.390 . S
C1202 H1193 0.893 1_655 S
C1202 C1200 1.384 . S
C1202 C1203 1.372 . S
C1203 C1202 1.372 . S
C1203 C1204 1.400 . S
C1203 C1208 1.490 . S
C1204 H1194 0.930 . S
C1204 C1203 1.400 . S
C1204 C1207 1.386 . S
H1205 C1221 0.930 . S
H1206 C1222 0.931 . S
C1207 H1195 0.929 . S
C1207 C1201 1.390 . S
C1207 C1204 1.386 . S
C1208 C1203 1.490 . S
C1208 C1210 1.395 . S
C1208 C1211 1.403 . S
H1209 C1215 0.930 . S
C1210 H1196 0.932 . S
C1210 C1208 1.395 . S
C1210 C1213 1.403 . S
C1211 C1208 1.403 . S
C1211 C1212 1.524 . S
C1211 C1215 1.400 . S
C1212 H1197 0.960 . S
C1212 H1198 0.960 . S
C1212 H1199 0.960 . S
C1212 C1211 1.524 . S
C1213 C1210 1.403 . S
C1213 C1214 1.392 . S
C1213 C1217 1.495 1_655 S
C1214 C1213 1.392 . S
C1214 C1215 1.385 . S
C1214 C1216 1.478 . S
C1215 H1209 0.930 . S
C1215 C1211 1.400 . S
C1215 C1214 1.385 . S
C1216 C1214 1.478 . S
C1216 C1218 1.381 1_655 S
C1216 C1222 1.383 . S
C1217 C1213 1.495 1_455 S
C1217 H1223 0.959 . S
C1217 H1224 0.961 . S
C1217 H1225 0.960 . S
C1218 C1216 1.381 1_455 S
C1218 C1219 1.394 . S
C1218 H1226 0.930 . S
C1219 C1218 1.394 . S
C1219 C1220 1.383 1_455 S
C1219 H1227 0.929 . S
C1220 C1219 1.383 1_655 S
C1220 C1221 1.377 . S
C1221 H1205 0.930 . S
C1221 C1220 1.377 . S
C1221 C1222 1.379 . S
C1222 H1206 0.931 . S
C1222 C1216 1.383 . S
C1222 C1221 1.379 . S
H1223 C1217 0.959 . S
H1224 C1217 0.961 . S
H1225 C1217 0.960 . S
H1226 C1218 0.930 . S
H1227 C1219 0.929 . S
H1228 C1236 0.929 . S
H1229 C1238 0.930 . S
H1230 C1240 0.930 . S
H1231 C1243 0.929 . S
H1232 C1246 0.930 . S
H1233 C1248 0.960 . S
H1234 C1248 0.960 . S
H1235 C1248 0.960 . S
C1236 H1228 0.929 . S
C1236 C1237 1.377 . S
C1236 C1238 1.384 . S
C1237 C1236 1.377 . S
C1237 C1243 1.390 . S
C1238 H1229 0.930 . S
C1238 C1236 1.384 . S
C1238 C1239 1.372 . S
C1239 C1238 1.372 . S
C1239 C1240 1.400 . S
C1239 C1244 1.490 . S
C1240 H1230 0.930 . S
C1240 C1239 1.400 . S
C1240 C1243 1.386 . S
H1241 C1257 0.930 . S
H1242 C1258 0.931 . S
C1243 H1231 0.929 . S
C1243 C1237 1.390 . S
C1243 C1240 1.386 . S
C1244 C1239 1.490 . S
C1244 C1246 1.395 . S
C1244 C1247 1.403 . S
H1245 C1251 0.930 . S
C1246 H1232 0.930 . S
C1246 C1244 1.395 . S
C1246 C1249 1.403 . S
C1247 C1244 1.403 . S
C1247 C1248 1.524 . S
C1247 C1251 1.400 . S
C1248 H1233 0.960 . S
C1248 H1234 0.960 . S
C1248 H1235 0.960 . S
C1248 C1247 1.524 . S
C1249 C1246 1.403 . S
C1249 C1250 1.392 . S
C1249 C1253 1.495 . S
C1250 C1249 1.392 . S
C1250 C1251 1.385 . S
C1250 C1252 1.478 . S
C1251 H1245 0.930 . S
C1251 C1247 1.400 . S
C1251 C1250 1.385 . S
C1252 C1250 1.478 . S
C1252 C1254 1.381 . S
C1252 C1258 1.383 . S
C1253 C1249 1.495 . S
C1253 H1259 0.959 1_565 S
C1253 H1260 0.961 1_565 S
C1253 H1261 0.960 . S
C1254 C1252 1.381 . S
C1254 C1255 1.394 . S
C1254 H1262 0.930 . S
C1255 C1254 1.394 . S
C1255 C1256 1.383 . S
C1255 H1263 0.929 . S
C1256 C1255 1.383 . S
C1256 C1257 1.377 . S
C1257 H1241 0.930 . S
C1257 C1256 1.377 . S
C1257 C1258 1.379 . S
C1258 H1242 0.931 . S
C1258 C1252 1.383 . S
C1258 C1257 1.379 . S
H1259 C1253 0.959 1_545 S
H1260 C1253 0.961 1_545 S
H1261 C1253 0.960 . S
H1262 C1254 0.930 . S
H1263 C1255 0.929 . S
H1264 C1272 0.929 . S
H1265 C1274 0.930 . S
H1266 C1276 0.930 . S
H1267 C1279 0.929 . S
H1268 C1282 0.930 . S
H1269 C1284 0.960 . S
H1270 C1284 0.960 . S
H1271 C1284 0.960 . S
C1272 H1264 0.929 . S
C1272 C1273 1.377 . S
C1272 C1274 1.384 . S
C1273 C1272 1.377 . S
C1273 C1279 1.390 . S
C1274 H1265 0.930 . S
C1274 C1272 1.384 . S
C1274 C1275 1.372 . S
C1275 C1274 1.372 . S
C1275 C1276 1.400 . S
C1275 C1280 1.490 . S
C1276 H1266 0.930 . S
C1276 C1275 1.400 . S
C1276 C1279 1.386 . S
H1277 C1293 0.930 . S
H1278 C1294 0.931 . S
C1279 H1267 0.929 . S
C1279 C1273 1.390 . S
C1279 C1276 1.386 . S
C1280 C1275 1.490 . S
C1280 C1282 1.395 . S
C1280 C1283 1.403 . S
H1281 C1287 0.930 . S
C1282 H1268 0.930 . S
C1282 C1280 1.395 . S
C1282 C1285 1.403 . S
C1283 C1280 1.403 . S
C1283 C1284 1.524 . S
C1283 C1287 1.400 . S
C1284 H1269 0.960 . S
C1284 H1270 0.960 . S
C1284 H1271 0.960 . S
C1284 C1283 1.524 . S
C1285 C1282 1.403 . S
C1285 C1286 1.392 . S
C1285 C1289 1.495 . S
C1286 C1285 1.392 . S
C1286 C1287 1.385 . S
C1286 C1288 1.478 . S
C1287 H1281 0.930 . S
C1287 C1283 1.400 . S
C1287 C1286 1.385 . S
C1288 C1286 1.478 . S
C1288 C1290 1.381 . S
C1288 C1294 1.383 . S
C1289 C1285 1.495 . S
C1289 H1295 0.959 . S
C1289 H1296 0.961 . S
C1289 H1297 0.960 . S
C1290 C1288 1.381 . S
C1290 C1291 1.394 . S
C1290 H1298 0.930 . S
C1291 C1290 1.394 . S
C1291 C1292 1.383 . S
C1291 H1299 0.929 . S
C1292 C1291 1.383 . S
C1292 C1293 1.377 . S
C1293 H1277 0.930 . S
C1293 C1292 1.377 . S
C1293 C1294 1.379 . S
C1294 H1278 0.931 . S
C1294 C1288 1.383 . S
C1294 C1293 1.379 . S
H1295 C1289 0.959 . S
H1296 C1289 0.961 . S
H1297 C1289 0.960 . S
H1298 C1290 0.930 . S
H1299 C1291 0.929 . S
H1300 C1308 0.929 . S
H1301 C1310 0.930 . S
H1302 C1312 0.930 . S
H1303 C1315 0.929 . S
H1304 C1318 0.930 . S
H1305 C1320 0.960 . S
H1306 C1320 0.960 . S
H1307 C1320 0.960 . S
C1308 H1300 0.929 . S
C1308 C1309 1.377 . S
C1308 C1310 1.384 . S
C1309 C1308 1.377 . S
C1309 C1315 1.390 . S
C1310 H1301 0.930 . S
C1310 C1308 1.384 . S
C1310 C1311 1.372 . S
C1311 C1310 1.372 . S
C1311 C1312 1.400 . S
C1311 C1316 1.490 . S
C1312 H1302 0.930 . S
C1312 C1311 1.400 . S
C1312 C1315 1.386 . S
H1313 C1329 0.930 . S
H1314 C1330 0.931 . S
C1315 H1303 0.929 . S
C1315 C1309 1.390 . S
C1315 C1312 1.386 . S
C1316 C1311 1.490 . S
C1316 C1318 1.395 . S
C1316 C1319 1.403 . S
H1317 C1323 0.930 . S
C1318 H1304 0.930 . S
C1318 C1316 1.395 . S
C1318 C1321 1.403 . S
C1319 C1316 1.403 . S
C1319 C1320 1.524 . S
C1319 C1323 1.400 . S
C1320 H1305 0.960 . S
C1320 H1306 0.960 . S
C1320 H1307 0.960 . S
C1320 C1319 1.524 . S
C1321 C1318 1.403 . S
C1321 C1322 1.392 . S
C1321 C1325 1.495 . S
C1322 C1321 1.392 . S
C1322 C1323 1.385 . S
C1322 C1324 1.478 . S
C1323 H1317 0.930 . S
C1323 C1319 1.400 . S
C1323 C1322 1.385 . S
C1324 C1322 1.478 . S
C1324 C1326 1.381 . S
C1324 C1330 1.383 . S
C1325 C1321 1.495 . S
C1325 H1331 0.959 . S
C1325 H1332 0.961 . S
C1325 H1333 0.960 . S
C1326 C1324 1.381 . S
C1326 C1327 1.394 . S
C1326 H1334 0.930 . S
C1327 C1326 1.394 . S
C1327 C1328 1.383 . S
C1327 H1335 0.929 . S
C1328 C1327 1.383 . S
C1328 C1329 1.377 . S
C1329 H1313 0.930 . S
C1329 C1328 1.377 . S
C1329 C1330 1.379 . S
C1330 H1314 0.931 . S
C1330 C1324 1.383 . S
C1330 C1329 1.379 . S
H1331 C1325 0.959 . S
H1332 C1325 0.961 . S
H1333 C1325 0.960 . S
H1334 C1326 0.930 . S
H1335 C1327 0.929 . S
C481 C255 2.601 . S
C500 C343 2.745 . S
C536 C369 1.986 . S
C517 C294 1.847 . S
C572 C409 2.110 . S
C553 C177 1.981 . S
C608 C463 2.701 . S
C589 C216 2.577 . S
C644 C324 2.745 . S
C625 C99 2.607 . S
C661 C138 1.848 . S
C680 C354 1.988 . S
C697 C21 1.993 . S
C716 C394 2.110 . S
C733 C60 2.586 . S
C752 C444 2.698 1_655 S
C788 C320 0.270 . S
C769 C196 0.385 . S
C824 C381 0.466 . S
C805 C235 0.472 . S
C860 C421 0.326 . S
C841 C289 0.190 . S
C877 C157 0.536 . S
C896 C440 0.452 . S
C913 C40 0.335 . S
C932 C341 0.244 . S
C968 C360 0.435 . S
C949 C79 0.479 . S
C1004 C400 0.338 . S
C985 C133 0.189 . S
C1021 C1 0.532 . S
C1040 C461 0.416 . S
C1057 C211 2.253 . S
C1076 C314 2.527 . S
C1093 C250 3.055 . S
C1112 C364 3.333 . S
C1148 C404 2.995 . S
C1129 C274 2.751 . S
C1184 C434 2.257 . S
C1165 C172 2.039 . S
C1201 C55 2.263 . S
C1220 C329 2.528 . S
C1256 C383 3.325 . S
C1237 C94 3.051 . S
C1292 C423 2.989 . S
C1273 C118 2.758 . S
C1309 C16 2.030 . S
C1328 C449 2.251 . S
