# Generated by pormake.
# Topology sit, (3,6)-cn, num edge types: 1
# Building blocks:
#     Node 0, Type 0, BuildingBlock: MIDCAF_clean_linker_0, # of connection points: 3
#     Node 1, Type 0, BuildingBlock: MIDCAF_clean_linker_0, # of connection points: 3
#     Node 2, Type 0, BuildingBlock: MIDCAF_clean_linker_0, # of connection points: 3
#     Node 3, Type 0, BuildingBlock: MIDCAF_clean_linker_0, # of connection points: 3
#     Node 4, Type 1, BuildingBlock: MIDCAF_clean_sbu_0, # of connection points: 6
#     Node 5, Type 1, BuildingBlock: MIDCAF_clean_sbu_0, # of connection points: 6
#     Edge 6, Type (0, 1), BuildingBlock: UKIBIB_clean_linker_0, # of connection points: 2
#     Edge 7, Type (0, 1), BuildingBlock: UKIBIB_clean_linker_0, # of connection points: 2
#     Edge 8, Type (0, 1), BuildingBlock: UKIBIB_clean_linker_0, # of connection points: 2
#     Edge 9, Type (0, 1), BuildingBlock: UKIBIB_clean_linker_0, # of connection points: 2
#     Edge 10, Type (0, 1), BuildingBlock: UKIBIB_clean_linker_0, # of connection points: 2
#     Edge 11, Type (0, 1), BuildingBlock: UKIBIB_clean_linker_0, # of connection points: 2
#     Edge 12, Type (0, 1), BuildingBlock: UKIBIB_clean_linker_0, # of connection points: 2
#     Edge 13, Type (0, 1), BuildingBlock: UKIBIB_clean_linker_0, # of connection points: 2
#     Edge 14, Type (0, 1), BuildingBlock: UKIBIB_clean_linker_0, # of connection points: 2
#     Edge 15, Type (0, 1), BuildingBlock: UKIBIB_clean_linker_0, # of connection points: 2
#     Edge 16, Type (0, 1), BuildingBlock: UKIBIB_clean_linker_0, # of connection points: 2
#     Edge 17, Type (0, 1), BuildingBlock: UKIBIB_clean_linker_0, # of connection points: 2
# Relax obj value: 0.111
# Max RMSD: 0.194
# Mean RMSD: 0.107
data_MOF--net-sit--node1-MIDCAF_clean_sbu_0--node2-MIDCAF_clean_linker_0--edge1-UKIBIB_clean_linker_0
_symmetry_space_group_name_H-M    P1
_symmetry_Int_Tables_number       1
_symmetry_cell_setting            triclinic
loop_
_symmetry_equiv_pos_as_xyz
'x, y, z'
_cell_length_a     37.457669
_cell_length_b     48.851688
_cell_length_c     57.472298
_cell_angle_alpha  90.288094
_cell_angle_beta   89.962726
_cell_angle_gamma 81.112423
loop_
_atom_site_label
_atom_site_type_symbol
_atom_site_fract_x
_atom_site_fract_y
_atom_site_fract_z
_atom_type_partial_charge
C0 C 0.00038 0.32948 0.95038 0.0
C1 C 0.96749 0.32478 0.96015 0.0
C2 C 0.9683 0.3086 -0.01962 0.0
C3 C 0.00131 0.2985 -0.00886 0.0
H4 H 0.04878 0.24153 0.03747 0.0
H5 H 0.04945 0.20939 0.06947 0.0
H6 H 0.16278 0.21201 0.08061 0.0
H7 H 0.16249 0.24439 0.04806 0.0
H8 H 0.20429 0.27275 0.00486 0.0
H9 H 0.25832 0.28839 -0.01151 0.0
H10 H 0.19072 0.34547 0.94417 0.0
H11 H 0.13711 0.33031 0.96017 0.0
H12 H 0.05777 0.32416 0.95317 0.0
H13 H 0.00082 0.34128 0.9345 0.0
H14 H 0.94342 0.30466 -0.01161 0.0
H15 H 0.001 0.28659 0.00696 0.0
N16 N 0.07151 0.27668 0.01143 0.0
N17 N 0.13462 0.27454 0.01262 0.0
N18 N 0.10019 0.30223 -0.01504 0.0
C19 C 0.10393 0.26655 0.02121 0.0
C20 C 0.13291 0.29242 -0.00559 0.0
C21 C 0.06937 0.29448 -0.00672 0.0
C22 C 0.10544 0.24606 0.04036 0.0
C23 C 0.07401 0.23538 0.04659 0.0
C24 C 0.07434 0.21683 0.06495 0.0
C25 C 0.106 0.20849 0.07775 0.0
C26 C 0.13798 0.21808 0.07101 0.0
C27 C 0.13769 0.2368 0.0525 0.0
C28 C 0.16618 0.30054 -0.01587 0.0
C29 C 0.20096 0.28846 -0.00853 0.0
C30 C 0.2319 0.29707 -0.01807 0.0
C31 C 0.22844 0.31802 0.96509 0.0
C32 C 0.19396 0.3292 0.9571 0.0
C33 C 0.16324 0.32061 0.96647 0.0
C34 C 0.03413 0.30436 -0.01815 0.0
C35 C 0.03316 0.31962 0.96114 0.0
C36 C 0.89232 0.71585 0.95708 0.0
C37 C 0.85831 0.72648 0.96621 0.0
C38 C 0.85536 0.74808 -0.01737 0.0
C39 C 0.8864 0.75832 -0.00972 0.0
H40 H 0.9256 0.80212 0.04505 0.0
H41 H 0.92521 0.83099 0.0801 0.0
H42 H 0.03811 0.83563 0.07013 0.0
H43 H 0.03913 0.80663 0.03534 0.0
H44 H 0.08615 0.76103 0.00361 0.0
H45 H 0.14427 0.73985 -0.01284 0.0
H46 H 0.08861 0.70085 0.93368 0.0
H47 H 0.03064 0.72188 0.94984 0.0
H48 H 0.94905 0.71688 0.95741 0.0
H49 H 0.89513 0.69899 0.94455 0.0
H50 H 0.82931 0.75634 -0.00994 0.0
H51 H 0.88344 0.77462 0.0033 0.0
N52 N 0.95302 0.77458 0.00868 0.0
N53 N 0.01606 0.77251 0.00701 0.0
N54 N -0.01306 0.74665 -0.01932 0.0
C55 C -0.01623 0.7827 0.01704 0.0
C56 C 0.01794 0.75451 -0.01121 0.0
C57 C 0.95434 0.75659 -0.00957 0.0
C58 C -0.01751 0.80177 0.0374 0.0
C59 C 0.95033 0.8094 0.05017 0.0
C60 C 0.95 0.8259 0.07021 0.0
C61 C -0.01836 0.83533 0.07762 0.0
C62 C 0.01342 0.82853 0.0646 0.0
C63 C 0.01391 0.81186 0.04474 0.0
C64 C 0.0535 0.743 -0.02178 0.0
C65 C 0.08621 0.74815 -0.01179 0.0
C66 C 0.11956 0.73615 -0.02124 0.0
C67 C 0.1209 0.71858 0.95925 0.0
C68 C 0.08834 0.71407 0.94889 0.0
C69 C 0.0551 0.72614 0.95821 0.0
C70 C 0.92084 0.74713 -0.01843 0.0
C71 C 0.92319 0.72607 0.96458 0.0
C72 C 0.4995 0.83063 0.45131 0.0
C73 C 0.46675 0.82496 0.46067 0.0
C74 C 0.46785 0.8083 0.48064 0.0
C75 C 0.50081 0.79811 0.49129 0.0
H76 H 0.5482 0.74108 0.53844 0.0
H77 H 0.54993 0.70882 0.57051 0.0
H78 H 0.66338 0.71229 0.58048 0.0
H79 H 0.66182 0.74494 0.54824 0.0
H80 H 0.70383 0.77221 0.50371 0.0
H81 H 0.75629 0.78712 0.48626 0.0
H82 H 0.68492 0.85047 0.44861 0.0
H83 H 0.63438 0.83403 0.46447 0.0
H84 H 0.55693 0.82558 0.45426 0.0
H85 H 0.49977 0.84368 0.43616 0.0
H86 H 0.44321 0.80316 0.48813 0.0
H87 H 0.50058 0.78559 0.50676 0.0
N88 N 0.5707 0.77606 0.51159 0.0
N89 N 0.63374 0.77454 0.51323 0.0
N90 N 0.59932 0.80214 0.48556 0.0
C91 C 0.6031 0.76616 0.52153 0.0
C92 C 0.63194 0.79261 0.4952 0.0
C93 C 0.5686 0.79404 0.49354 0.0
C94 C 0.60481 0.74588 0.5408 0.0
C95 C 0.57366 0.73498 0.54732 0.0
C96 C 0.57469 0.71619 0.56559 0.0
C97 C 0.60679 0.70796 0.57801 0.0
C98 C 0.63818 0.71841 0.57131 0.0
C99 C 0.63725 0.73711 0.55284 0.0
C100 C 0.66478 0.80181 0.48548 0.0
C101 C 0.69981 0.78918 0.49147 0.0
C102 C 0.73016 0.79805 0.48134 0.0
C103 C 0.72631 0.82031 0.46535 0.0
C104 C 0.69079 0.83277 0.45982 0.0
C105 C 0.66086 0.82351 0.46943 0.0
C106 C 0.53348 0.8043 0.48218 0.0
C107 C 0.53238 0.82046 0.46191 0.0
C108 C 0.39211 0.21581 0.45716 0.0
C109 C 0.35814 0.22646 0.46633 0.0
C110 C 0.35523 0.24789 0.48288 0.0
C111 C 0.38625 0.25812 0.49052 0.0
H112 H 0.4256 0.30141 0.54554 0.0
H113 H 0.42529 0.33038 0.58049 0.0
H114 H 0.53779 0.33609 0.56962 0.0
H115 H 0.53869 0.30692 0.53505 0.0
H116 H 0.58583 0.25872 0.50503 0.0
H117 H 0.64359 0.23698 0.48907 0.0
H118 H 0.58766 0.20402 0.43208 0.0
H119 H 0.53024 0.22431 0.44873 0.0
H120 H 0.44885 0.21677 0.45753 0.0
H121 H 0.39486 0.19903 0.44456 0.0
H122 H 0.32919 0.25615 0.49032 0.0
H123 H 0.38331 0.27438 0.50358 0.0
N124 N 0.45276 0.27445 0.50882 0.0
N125 N 0.51579 0.2724 0.50716 0.0
N126 N 0.48669 0.24658 0.4808 0.0
C127 C 0.48351 0.28257 0.51718 0.0
C128 C 0.51766 0.25445 0.48893 0.0
C129 C 0.4541 0.25648 0.49057 0.0
C130 C 0.48225 0.3016 0.53751 0.0
C131 C 0.45026 0.30893 0.55049 0.0
C132 C 0.45001 0.32544 0.5705 0.0
C133 C 0.48153 0.33533 0.57761 0.0
C134 C 0.51313 0.32878 0.56435 0.0
C135 C 0.51358 0.31197 0.5446 0.0
C136 C 0.55319 0.24293 0.47841 0.0
C137 C 0.58589 0.24679 0.48909 0.0
C138 C 0.61917 0.23446 0.47978 0.0
C139 C 0.62066 0.21819 0.45939 0.0
C140 C 0.5879 0.21548 0.44822 0.0
C141 C 0.55473 0.22739 0.4577 0.0
C142 C 0.42065 0.24698 0.48175 0.0
C143 C 0.423 0.22595 0.46473 0.0
Zn144 Zn 0.04246 0.08742 0.35421 0.0
Zn145 Zn 0.05987 0.96307 0.34757 0.0
Zn146 Zn 0.04505 0.02052 0.34807 0.0
C147 C 0.04226 0.98174 0.30366 0.0
C148 C 0.00027 0.98483 0.3766 0.0
O149 O 0.09042 0.03204 0.36627 0.0
O150 O 0.0515 0.06384 0.38263 0.0
C151 C 0.05854 0.06124 0.30732 0.0
O152 O 0.03443 1.00618 0.31258 0.0
O153 O 0.06086 0.96247 0.31468 0.0
O154 O 0.01771 0.9638 0.36673 0.0
O155 O 0.00427 1.00963 0.37104 0.0
O156 O 0.06347 0.07972 0.32209 0.0
O157 O 0.04636 0.03891 0.31326 0.0
O158 O -0.00676 0.03938 0.36508 0.0
O159 O -0.00881 0.08437 0.35642 0.0
C160 C 0.97608 0.06448 0.36367 0.0
O161 O 0.09991 1.00255 0.36183 0.0
O162 O 0.10438 0.95654 0.3626 0.0
C163 C 0.08294 0.05076 0.38196 0.0
C164 C 0.11762 0.97828 0.36616 0.0
Zn165 Zn 0.54167 0.59437 0.85513 0.0
Zn166 Zn 0.54791 0.45422 0.84839 0.0
Zn167 Zn 0.5451 0.52108 0.84902 0.0
C168 C 0.54325 0.47786 0.80487 0.0
C169 C 0.49846 0.4891 0.87368 0.0
O170 O 0.59006 0.53089 0.86845 0.0
O171 O 0.54884 0.56459 0.87947 0.0
C172 C 0.55227 0.56449 0.80749 0.0
O173 O 0.53754 0.5022 0.81436 0.0
O174 O 0.557 0.45654 0.81593 0.0
O175 O 0.50212 0.47809 0.85398 0.0
O176 O 0.5049 0.51381 0.8753 0.0
O177 O 0.54911 0.58483 0.82152 0.0
O178 O 0.54928 0.53969 0.81414 0.0
O179 O 0.49107 0.54172 0.86185 0.0
O180 O 0.49928 0.58436 0.8719 0.0
C181 C 0.47863 0.56649 0.86871 0.0
O182 O 0.59933 0.50238 0.86343 0.0
O183 O 0.59317 0.45792 0.86305 0.0
C184 C 0.5808 0.55236 0.88115 0.0
C185 C 0.6121 0.47663 0.86693 0.0
C186 C 0.07611 0.19972 0.11526 0.0
C187 C 0.10423 0.19185 0.0992 0.0
C188 C 0.07348 0.18446 0.1355 0.0
C189 C 0.09229 0.05859 0.26933 0.0
C190 C 0.0619 0.06924 0.28275 0.0
C191 C 0.09878 0.0709 0.24795 0.0
H192 H 0.1517 0.16169 0.09179 0.0
H193 H 0.1469 0.13471 0.12751 0.0
H194 H 0.01553 0.10165 0.28498 0.0
H195 H 0.02642 0.12263 0.24751 0.0
C196 C 0.12987 0.16831 0.1039 0.0
C197 C 0.12706 0.15287 0.12421 0.0
C198 C 0.03838 0.09241 0.27453 0.0
C199 C 0.04481 0.10461 0.25328 0.0
C200 C 0.09886 0.16096 0.14012 0.0
C201 C 0.09575 0.1455 0.16129 0.0
C202 C 0.09191 0.13333 0.17921 0.0
C203 C 0.07515 0.0941 0.23992 0.0
C204 C 0.08204 0.10752 0.21826 0.0
C205 C 0.08682 0.11933 0.20029 0.0
H206 H 0.05623 0.21795 0.11228 0.0
H207 H 0.05161 0.19109 0.1476 0.0
H208 H 0.11165 0.04153 0.27576 0.0
H209 H 0.1226 0.06266 0.23796 0.0
C210 C -0.01391 0.83692 0.12083 0.0
C211 C -0.01763 0.85103 0.09955 0.0
C212 C -0.01007 0.85136 0.14153 0.0
C213 C 0.01825 0.98882 0.26285 0.0
C214 C 0.02504 0.97247 0.2827 0.0
C215 C 0.01025 0.97638 0.24182 0.0
H216 H -0.02074 0.89095 0.08291 0.0
H217 H -0.01465 0.91645 0.11941 0.0
H218 H 0.02302 0.9315 0.29728 0.0
H219 H 0.01015 0.91023 0.26068 0.0
C220 C -0.01809 0.8798 0.09922 0.0
C221 C -0.01449 0.89427 0.11995 0.0
C222 C 0.01945 0.94448 0.28194 0.0
C223 C 0.01201 0.93216 0.26108 0.0
C224 C -0.01009 0.88003 0.14113 0.0
C225 C -0.00529 0.89478 0.16238 0.0
C226 C -0.00127 0.90715 0.18015 0.0
C227 C 0.00869 0.94782 0.24079 0.0
C228 C 0.00531 0.93412 0.21892 0.0
C229 C 0.00252 0.92176 0.20099 0.0
H230 H -0.01319 0.81467 0.12134 0.0
H231 H -0.00671 0.8401 0.15778 0.0
H232 H 0.02167 1.01043 0.26317 0.0
H233 H 0.00701 0.98875 0.22616 0.0
C234 C 0.62219 0.6974 0.61981 0.0
C235 C 0.6064 0.69019 0.5989 0.0
C236 C 0.61803 0.68281 0.64028 0.0
C237 C 0.54861 0.56217 0.76359 0.0
C238 C 0.56443 0.57093 0.78383 0.0
C239 C 0.55546 0.5736 0.74193 0.0
H240 H 0.57535 0.6612 0.58286 0.0
H241 H 0.56839 0.63557 0.61878 0.0
H242 H 0.60127 0.59761 0.79712 0.0
H243 H 0.61219 0.61789 0.75955 0.0
C244 C 0.58752 0.66741 0.59874 0.0
C245 C 0.5835 0.65277 0.61922 0.0
C246 C 0.58855 0.59039 0.78181 0.0
C247 C 0.59484 0.60209 0.76037 0.0
C248 C 0.59827 0.66069 0.64014 0.0
C249 C 0.59291 0.64638 0.66152 0.0
C250 C 0.5887 0.63464 0.67956 0.0
C251 C 0.57765 0.59425 0.74039 0.0
C252 C 0.58126 0.60849 0.71869 0.0
C253 C 0.58455 0.62058 0.70068 0.0
H254 H 0.63652 0.71502 0.62057 0.0
H255 H 0.6297 0.68914 0.6563 0.0
H256 H 0.52888 0.54827 0.76472 0.0
H257 H 0.54193 0.56735 0.72659 0.0
C258 C 0.49304 0.3778 0.59896 0.0
C259 C 0.48226 0.35151 0.59934 0.0
C260 C 0.49665 0.39213 0.61973 0.0
C261 C 0.50853 0.44768 0.78274 0.0
C262 C 0.52584 0.47142 0.78308 0.0
C263 C 0.50087 0.43555 0.76176 0.0
H264 H 0.46669 0.31955 0.62144 0.0
H265 H 0.47341 0.34468 0.65795 0.0
H266 H 0.54623 0.50192 0.76205 0.0
H267 H 0.52997 0.4819 0.7249 0.0
C268 C 0.47468 0.33992 0.62076 0.0
C269 C 0.4787 0.35413 0.64155 0.0
C270 C 0.53195 0.48435 0.76219 0.0
C271 C 0.52344 0.47249 0.74107 0.0
C272 C 0.48994 0.38018 0.64108 0.0
C273 C 0.4948 0.39451 0.6625 0.0
C274 C 0.49883 0.40643 0.68048 0.0
C275 C 0.50935 0.44747 0.74086 0.0
C276 C 0.50582 0.43304 0.71935 0.0
C277 C 0.50272 0.42071 0.70146 0.0
H278 H 0.499 0.38707 0.58261 0.0
H279 H 0.5052 0.41232 0.61914 0.0
H280 H 0.50321 0.43737 0.79876 0.0
H281 H 0.48973 0.41634 0.76188 0.0
C282 C 0.25825 0.35971 0.96454 0.0
C283 C 0.25935 0.33175 0.95843 0.0
C284 C 0.28488 0.37445 0.95678 0.0
C285 C 0.4875 0.44531 0.89078 0.0
C286 C 0.48081 0.47445 0.8916 0.0
C287 C 0.46302 0.4299 0.90039 0.0
H288 H 0.28951 0.29683 0.94 0.0
H289 H 0.33688 0.32305 0.92623 0.0
H290 H 0.44726 0.51012 0.90674 0.0
H291 H 0.40407 0.48274 0.9242 0.0
C292 C 0.28828 0.31838 0.94494 0.0
C293 C 0.31505 0.33332 0.93702 0.0
C294 C 0.45228 0.48778 0.90531 0.0
C295 C 0.4276 0.47219 0.91509 0.0
C296 C 0.31304 0.36152 0.94273 0.0
C297 C 0.33927 0.37771 0.93426 0.0
C298 C 0.3595 0.39329 0.92827 0.0
C299 C 0.43208 0.44337 0.91156 0.0
C300 C 0.40442 0.42742 0.91798 0.0
C301 C 0.38312 0.41212 0.9226 0.0
H302 H 0.23627 0.37032 0.97503 0.0
H303 H 0.28312 0.39614 0.96147 0.0
H304 H 0.50998 0.43451 0.8808 0.0
H305 H 0.46725 0.40761 0.89795 0.0
C306 C 0.80294 0.72219 0.94266 0.0
C307 C 0.82725 0.71243 0.96045 0.0
C308 C 0.77686 0.70628 0.93529 0.0
C309 C 0.63034 0.55723 0.90888 0.0
C310 C 0.60818 0.56782 0.89036 0.0
C311 C 0.65543 0.57275 0.91819 0.0
H312 H 0.84333 0.67912 -0.01527 0.0
H313 H 0.79749 0.65148 0.972 0.0
H314 H 0.59472 0.60267 0.86699 0.0
H315 H 0.63828 0.62948 0.88322 0.0
C316 C 0.82456 0.68707 0.97114 0.0
C317 C 0.7986 0.67127 0.96382 0.0
C318 C 0.61109 0.59407 0.8814 0.0
C319 C 0.63617 0.60939 0.89056 0.0
C320 C 0.77502 0.68058 0.94566 0.0
C321 C 0.7498 0.66324 0.93746 0.0
C322 C 0.72929 0.64788 0.93131 0.0
C323 C 0.65847 0.5988 0.90892 0.0
C324 C 0.68447 0.61489 0.91789 0.0
C325 C 0.70541 0.62973 0.92431 0.0
H326 H 0.80492 0.74156 0.93403 0.0
H327 H 0.75875 0.71372 0.92122 0.0
H328 H 0.62803 0.53718 0.91621 0.0
H329 H 0.67247 0.56441 0.9325 0.0
C330 C 0.93012 0.36644 0.94279 0.0
C331 C 0.93282 0.33877 0.95014 0.0
C332 C 0.8981 0.38021 0.93338 0.0
C333 C 0.65742 0.43825 0.88117 0.0
C334 C 0.6495 0.46642 0.87476 0.0
C335 C 0.69191 0.4264 0.88754 0.0
H336 H 0.9036 0.30392 0.95348 0.0
H337 H 0.8469 0.32849 0.93696 0.0
H338 H 0.67285 0.50379 0.86901 0.0
H339 H 0.73451 0.48259 0.88108 0.0
C340 C 0.90235 0.32524 0.94804 0.0
C341 C 0.87009 0.33917 0.93855 0.0
C342 C 0.67779 0.48232 0.87439 0.0
C343 C 0.71291 0.47019 0.88103 0.0
C344 C 0.86802 0.36671 0.93121 0.0
C345 C 0.83531 0.3817 0.92158 0.0
C346 C 0.80972 0.39639 0.91331 0.0
C347 C 0.71968 0.44224 0.88787 0.0
C348 C 0.75424 0.42917 0.89628 0.0
C349 C 0.78052 0.41459 0.90382 0.0
H350 H 0.9527 0.37771 0.94461 0.0
H351 H 0.89681 0.40155 0.92791 0.0
H352 H 0.6368 0.42496 0.88151 0.0
H353 H 0.6967 0.40479 0.89264 0.0
C354 C 0.15978 0.67462 0.94705 0.0
C355 C 0.15581 0.70345 0.95047 0.0
C356 C 0.19208 0.65997 0.93842 0.0
C357 C 0.42954 0.60563 0.87393 0.0
C358 C 0.44003 0.57662 0.87312 0.0
C359 C 0.39547 0.61723 0.88145 0.0
H360 H 0.18268 0.73955 0.94773 0.0
H361 H 0.23951 0.71366 0.93221 0.0
H362 H 0.42076 0.53718 0.87573 0.0
H363 H 0.35967 0.55797 0.88925 0.0
C364 C 0.18507 0.71733 0.9453 0.0
C365 C 0.2174 0.70262 0.93642 0.0
C366 C 0.41399 0.55945 0.87735 0.0
C367 C 0.37924 0.57131 0.88491 0.0
C368 C 0.2209 0.67388 0.93291 0.0
C369 C 0.25361 0.65843 0.92336 0.0
C370 C 0.28004 0.64414 0.91547 0.0
C371 C 0.37055 0.60022 0.8877 0.0
C372 C 0.33696 0.61315 0.8978 0.0
C373 C 0.31037 0.62693 0.90595 0.0
H374 H 0.13786 0.66336 0.95117 0.0
H375 H 0.19441 0.63777 0.9359 0.0
H376 H 0.44815 0.61976 0.86959 0.0
H377 H 0.38897 0.63958 0.88299 0.0
C378 C 0.75361 0.85202 0.43773 0.0
C379 C 0.75833 0.8318 0.45553 0.0
C380 C 0.7815 0.86614 0.43125 0.0
C381 C -0.01225 0.95781 0.41021 0.0
C382 C 0.97511 0.9789 0.39427 0.0
C383 C 0.96421 0.94107 0.41901 0.0
H384 H 0.79974 0.8089 0.47795 0.0
H385 H 0.84844 0.8325 0.46516 0.0
H386 H 0.92847 1.00095 0.37689 0.0
H387 H 0.88656 0.97234 0.39324 0.0
C388 C 0.79363 0.82436 0.46462 0.0
C389 C 0.82191 0.83801 0.45745 0.0
C390 C 0.93827 0.98536 0.3896 0.0
C391 C 0.91468 0.9686 0.39844 0.0
C392 C 0.81542 0.85949 0.44135 0.0
C393 C 0.84276 0.87574 0.4357 0.0
C394 C 0.86365 0.89061 0.4298 0.0
C395 C 0.92799 0.9458 0.41227 0.0
C396 C 0.9051 0.9262 0.4182 0.0
C397 C 0.88616 0.90956 0.42331 0.0
H398 H 0.7285 0.85764 0.42856 0.0
H399 H 0.77642 0.88243 0.41838 0.0
H400 H 0.01643 0.95231 0.41365 0.0
H401 H 0.97464 0.9235 0.4298 0.0
C402 C 0.32137 0.18912 0.47278 0.0
C403 C 0.32694 0.21273 0.46034 0.0
C404 C 0.29546 0.17328 0.46542 0.0
C405 C 0.11697 0.08982 0.37898 0.0
C406 C 0.11103 0.06566 0.39048 0.0
C407 C 0.14122 0.10597 0.38805 0.0
H408 H 0.30989 0.23874 0.43076 0.0
H409 H 0.26368 0.21098 0.41796 0.0
H410 H 0.12324 0.04007 0.42089 0.0
H411 H 0.1667 0.06841 0.4368 0.0
C412 C 0.30559 0.22077 0.44073 0.0
C413 C 0.2795 0.2049 0.43338 0.0
C414 C 0.1286 0.05818 0.41149 0.0
C415 C 0.153 0.07439 0.42059 0.0
C416 C 0.2748 0.18087 0.44554 0.0
C417 C 0.24972 0.16341 0.43741 0.0
C418 C 0.22912 0.14813 0.43131 0.0
C419 C 0.15942 0.09824 0.4088 0.0
C420 C 0.18459 0.115 0.4178 0.0
C421 C 0.20526 0.13 0.42429 0.0
H422 H 0.33794 0.18245 0.48776 0.0
H423 H 0.29214 0.15476 0.47496 0.0
H424 H 0.10283 0.09625 0.36302 0.0
H425 H 0.14571 0.12448 0.3789 0.0
C426 C 0.42791 0.841 0.42607 0.0
C427 C 0.43168 0.83769 0.45033 0.0
C428 C 0.39594 0.85507 0.4166 0.0
C429 C 0.16138 0.96955 0.3976 0.0
C430 C 0.15474 0.97397 0.37386 0.0
C431 C 0.19383 0.95411 0.40485 0.0
H432 H 0.40428 0.8463 0.48351 0.0
H433 H 0.34821 0.87039 0.46672 0.0
H434 H 0.17563 0.9656 0.33896 0.0
H435 H 0.23341 0.93936 0.35182 0.0
C436 C 0.40223 0.84808 0.46478 0.0
C437 C 0.37025 0.86206 0.45525 0.0
C438 C 0.18124 0.9636 0.35744 0.0
C439 C 0.21371 0.94814 0.36469 0.0
C440 C 0.36724 0.86585 0.43119 0.0
C441 C 0.33524 0.88161 0.42149 0.0
C442 C 0.3086 0.89475 0.41311 0.0
C443 C 0.21968 0.94295 0.3884 0.0
C444 C 0.25172 0.92545 0.396 0.0
C445 C 0.27798 0.91098 0.4035 0.0
H446 H 0.44976 0.83292 0.4144 0.0
H447 H 0.39384 0.85781 0.39792 0.0
H448 H 0.14041 0.97616 0.41033 0.0
H449 H 0.19812 0.94993 0.42322 0.0
C450 C 0.65691 0.17729 0.43894 0.0
C451 C 0.65576 0.20314 0.45019 0.0
C452 C 0.68925 0.16305 0.43006 0.0
C453 C 0.93613 0.09794 0.38749 0.0
C454 C 0.94028 0.07338 0.37419 0.0
C455 C 0.90225 0.1108 0.3946 0.0
H456 H 0.68879 0.23387 0.46096 0.0
H457 H 0.74564 0.20821 0.44594 0.0
H458 H 0.9118 0.04349 0.35725 0.0
H459 H 0.85146 0.0655 0.3712 0.0
C460 C 0.68838 0.21399 0.45265 0.0
C461 C 0.72094 0.19947 0.44392 0.0
C462 C 0.90951 0.06165 0.36835 0.0
C463 C 0.87515 0.07451 0.37588 0.0
C464 C 0.72136 0.17401 0.43248 0.0
C465 C 0.75437 0.15885 0.42309 0.0
C466 C 0.78056 0.14474 0.41471 0.0
C467 C 0.87161 0.09926 0.38892 0.0
C468 C 0.83709 0.11336 0.39687 0.0
C469 C 0.81054 0.12751 0.40476 0.0
H470 H 0.63289 0.16766 0.43724 0.0
H471 H 0.68918 0.14329 0.42141 0.0
H472 H 0.95931 0.10773 0.39196 0.0
H473 H 0.90001 0.12992 0.40454 0.0
loop_
_geom_bond_atom_site_label_1
_geom_bond_atom_site_label_2
_geom_bond_distance
_geom_bond_site_symmetry_2
_ccdc_geom_bond_type
C0 C1 1.384 1_455 S
C0 H13 0.947 . S
C0 C35 1.382 . S
C1 C0 1.384 1_655 S
C1 C2 1.378 1_556 S
C2 C1 1.378 1_554 S
C2 C3 1.378 1_655 S
C2 H14 0.952 . S
C3 C2 1.378 1_455 S
C3 H15 0.950 . S
C3 C34 1.383 . S
H4 C23 0.947 . S
H5 C24 0.946 . S
H6 C26 0.953 . S
H7 C27 0.945 . S
H8 C29 0.952 . S
H9 C30 0.949 . S
H10 C32 0.950 . S
H11 C33 0.948 . S
H12 C35 0.951 . S
H13 C0 0.947 . S
H14 C2 0.952 . S
H15 C3 0.950 . S
N16 C19 1.382 . S
N16 C21 1.363 . S
N17 C19 1.371 . S
N17 C20 1.372 . S
N18 C20 1.361 . S
N18 C21 1.377 . S
C19 N16 1.382 . S
C19 N17 1.371 . S
C19 C22 1.480 . S
C20 N17 1.372 . S
C20 N18 1.361 . S
C20 C28 1.457 . S
C21 N16 1.363 . S
C21 N18 1.377 . S
C21 C34 1.479 . S
C22 C19 1.480 . S
C22 C23 1.383 . S
C22 C27 1.385 . S
C23 H4 0.947 . S
C23 C22 1.383 . S
C23 C24 1.388 . S
C24 H5 0.946 . S
C24 C23 1.388 . S
C24 C25 1.384 . S
C25 C24 1.384 . S
C25 C26 1.377 . S
C26 H6 0.953 . S
C26 C25 1.377 . S
C26 C27 1.369 . S
C27 H7 0.945 . S
C27 C22 1.385 . S
C27 C26 1.369 . S
C28 C20 1.457 . S
C28 C29 1.372 . S
C28 C33 1.364 1_554 S
C29 H8 0.952 . S
C29 C28 1.372 . S
C29 C30 1.389 . S
C30 H9 0.949 . S
C30 C29 1.389 . S
C30 C31 1.387 1_554 S
C31 C30 1.387 1_556 S
C31 C32 1.372 . S
C32 H10 0.950 . S
C32 C31 1.372 . S
C32 C33 1.379 . S
C33 H11 0.948 . S
C33 C28 1.364 1_556 S
C33 C32 1.379 . S
C34 C3 1.383 . S
C34 C21 1.479 . S
C34 C35 1.398 1_554 S
C35 C0 1.382 . S
C35 H12 0.951 . S
C35 C34 1.398 1_556 S
C36 C37 1.384 . S
C36 H49 0.947 . S
C36 C71 1.382 . S
C37 C36 1.384 . S
C37 C38 1.378 1_556 S
C38 C37 1.378 1_554 S
C38 C39 1.378 . S
C38 H50 0.952 . S
C39 C38 1.378 . S
C39 H51 0.950 . S
C39 C70 1.383 . S
H40 C59 0.947 . S
H41 C60 0.946 . S
H42 C62 0.953 . S
H43 C63 0.945 . S
H44 C65 0.952 . S
H45 C66 0.949 . S
H46 C68 0.950 . S
H47 C69 0.948 . S
H48 C71 0.951 . S
H49 C36 0.947 . S
H50 C38 0.952 . S
H51 C39 0.950 . S
N52 C55 1.382 1_655 S
N52 C57 1.363 . S
N53 C55 1.371 . S
N53 C56 1.372 . S
N54 C56 1.361 . S
N54 C57 1.377 1_455 S
C55 N52 1.382 1_455 S
C55 N53 1.371 . S
C55 C58 1.480 . S
C56 N53 1.372 . S
C56 N54 1.361 . S
C56 C64 1.467 . S
C57 N52 1.363 . S
C57 N54 1.377 1_655 S
C57 C70 1.479 . S
C58 C55 1.480 . S
C58 C59 1.383 1_455 S
C58 C63 1.385 . S
C59 H40 0.947 . S
C59 C58 1.383 1_655 S
C59 C60 1.388 . S
C60 H41 0.946 . S
C60 C59 1.388 . S
C60 C61 1.384 1_655 S
C61 C60 1.384 1_455 S
C61 C62 1.377 . S
C62 H42 0.953 . S
C62 C61 1.377 . S
C62 C63 1.369 . S
C63 H43 0.945 . S
C63 C58 1.385 . S
C63 C62 1.369 . S
C64 C56 1.467 . S
C64 C65 1.384 . S
C64 C69 1.346 1_554 S
C65 H44 0.952 . S
C65 C64 1.384 . S
C65 C66 1.389 . S
C66 H45 0.949 . S
C66 C65 1.389 . S
C66 C67 1.387 1_554 S
C67 C66 1.387 1_556 S
C67 C68 1.372 . S
C68 H46 0.950 . S
C68 C67 1.372 . S
C68 C69 1.379 . S
C69 H47 0.948 . S
C69 C64 1.346 1_556 S
C69 C68 1.379 . S
C70 C39 1.383 . S
C70 C57 1.479 . S
C70 C71 1.398 1_554 S
C71 C36 1.382 . S
C71 H48 0.951 . S
C71 C70 1.398 1_556 S
C72 C73 1.384 . S
C72 H85 0.947 . S
C72 C107 1.382 . S
C73 C72 1.384 . S
C73 C74 1.378 . S
C74 C73 1.378 . S
C74 C75 1.378 . S
C74 H86 0.952 . S
C75 C74 1.378 . S
C75 H87 0.950 . S
C75 C106 1.383 . S
H76 C95 0.947 . S
H77 C96 0.946 . S
H78 C98 0.953 . S
H79 C99 0.945 . S
H80 C101 0.952 . S
H81 C102 0.949 . S
H82 C104 0.950 . S
H83 C105 0.948 . S
H84 C107 0.951 . S
H85 C72 0.947 . S
H86 C74 0.952 . S
H87 C75 0.950 . S
N88 C91 1.382 . S
N88 C93 1.363 . S
N89 C91 1.371 . S
N89 C92 1.372 . S
N90 C92 1.361 . S
N90 C93 1.377 . S
C91 N88 1.382 . S
C91 N89 1.371 . S
C91 C94 1.480 . S
C92 N89 1.372 . S
C92 N90 1.361 . S
C92 C100 1.457 . S
C93 N88 1.363 . S
C93 N90 1.377 . S
C93 C106 1.479 . S
C94 C91 1.480 . S
C94 C95 1.383 . S
C94 C99 1.385 . S
C95 H76 0.947 . S
C95 C94 1.383 . S
C95 C96 1.388 . S
C96 H77 0.946 . S
C96 C95 1.388 . S
C96 C97 1.384 . S
C97 C96 1.384 . S
C97 C98 1.377 . S
C98 H78 0.953 . S
C98 C97 1.377 . S
C98 C99 1.369 . S
C99 H79 0.945 . S
C99 C94 1.385 . S
C99 C98 1.369 . S
C100 C92 1.457 . S
C100 C101 1.372 . S
C100 C105 1.364 . S
C101 H80 0.952 . S
C101 C100 1.372 . S
C101 C102 1.389 . S
C102 H81 0.949 . S
C102 C101 1.389 . S
C102 C103 1.387 . S
C103 C102 1.387 . S
C103 C104 1.372 . S
C104 H82 0.950 . S
C104 C103 1.372 . S
C104 C105 1.379 . S
C105 H83 0.948 . S
C105 C100 1.364 . S
C105 C104 1.379 . S
C106 C75 1.383 . S
C106 C93 1.479 . S
C106 C107 1.398 . S
C107 C72 1.382 . S
C107 H84 0.951 . S
C107 C106 1.398 . S
C108 C109 1.384 . S
C108 H121 0.947 . S
C108 C143 1.382 . S
C109 C108 1.384 . S
C109 C110 1.378 . S
C110 C109 1.378 . S
C110 C111 1.378 . S
C110 H122 0.952 . S
C111 C110 1.378 . S
C111 H123 0.950 . S
C111 C142 1.383 . S
H112 C131 0.947 . S
H113 C132 0.946 . S
H114 C134 0.953 . S
H115 C135 0.945 . S
H116 C137 0.952 . S
H117 C138 0.949 . S
H118 C140 0.950 . S
H119 C141 0.948 . S
H120 C143 0.951 . S
H121 C108 0.947 . S
H122 C110 0.952 . S
H123 C111 0.950 . S
N124 C127 1.382 . S
N124 C129 1.363 . S
N125 C127 1.371 . S
N125 C128 1.372 . S
N126 C128 1.361 . S
N126 C129 1.377 . S
C127 N124 1.382 . S
C127 N125 1.371 . S
C127 C130 1.480 . S
C128 N125 1.372 . S
C128 N126 1.361 . S
C128 C136 1.457 . S
C129 N124 1.363 . S
C129 N126 1.377 . S
C129 C142 1.479 . S
C130 C127 1.480 . S
C130 C131 1.383 . S
C130 C135 1.385 . S
C131 H112 0.947 . S
C131 C130 1.383 . S
C131 C132 1.388 . S
C132 H113 0.946 . S
C132 C131 1.388 . S
C132 C133 1.384 . S
C133 C132 1.384 . S
C133 C134 1.377 . S
C134 H114 0.953 . S
C134 C133 1.377 . S
C134 C135 1.369 . S
C135 H115 0.945 . S
C135 C130 1.385 . S
C135 C134 1.369 . S
C136 C128 1.457 . S
C136 C137 1.372 . S
C136 C141 1.364 . S
C137 H116 0.952 . S
C137 C136 1.372 . S
C137 C138 1.389 . S
C138 H117 0.949 . S
C138 C137 1.389 . S
C138 C139 1.387 . S
C139 C138 1.387 . S
C139 C140 1.372 . S
C140 H118 0.950 . S
C140 C139 1.372 . S
C140 C141 1.379 . S
C141 H119 0.948 . S
C141 C136 1.364 . S
C141 C140 1.379 . S
C142 C111 1.383 . S
C142 C129 1.479 . S
C142 C143 1.398 . S
C143 C108 1.382 . S
C143 H120 0.951 . S
C143 C142 1.398 . S
Zn144 O150 1.920 . S
Zn144 O156 1.898 . S
Zn144 O159 1.905 . S
Zn145 O153 1.905 . S
Zn145 O154 1.898 . S
Zn145 O162 1.920 . S
Zn146 O149 2.080 . S
Zn146 O152 2.114 1_545 S
Zn146 O155 2.120 1_545 S
Zn146 O157 2.120 . S
Zn146 O158 2.114 . S
Zn146 O161 2.080 1_545 S
C147 O152 1.166 . S
C147 O153 1.182 . S
C148 O154 1.167 . S
C148 O155 1.299 . S
O149 Zn146 2.080 . S
O149 C163 1.305 . S
O150 Zn144 1.920 . S
O150 C163 1.234 . S
C151 O156 1.167 . S
C151 O157 1.299 . S
O152 Zn146 2.114 1_565 S
O152 C147 1.166 . S
O153 Zn145 1.905 . S
O153 C147 1.182 . S
O154 Zn145 1.898 . S
O154 C148 1.167 . S
O155 Zn146 2.120 1_565 S
O155 C148 1.299 . S
O156 Zn144 1.898 . S
O156 C151 1.167 . S
O157 Zn146 2.120 . S
O157 C151 1.299 . S
O158 Zn146 2.114 . S
O158 C160 1.166 . S
O159 Zn144 1.905 . S
O159 C160 1.182 . S
C160 O158 1.166 . S
C160 O159 1.182 . S
O161 Zn146 2.080 1_565 S
O161 C164 1.305 . S
O162 Zn145 1.920 . S
O162 C164 1.234 . S
C163 O149 1.305 . S
C163 O150 1.234 . S
C164 O161 1.305 . S
C164 O162 1.234 . S
Zn165 O171 1.920 . S
Zn165 O177 1.898 . S
Zn165 O180 1.905 . S
Zn166 O174 1.905 . S
Zn166 O175 1.898 . S
Zn166 O183 1.920 . S
Zn167 O170 2.080 . S
Zn167 O173 2.114 . S
Zn167 O176 2.120 . S
Zn167 O178 2.120 . S
Zn167 O179 2.114 . S
Zn167 O182 2.080 . S
C168 O173 1.166 . S
C168 O174 1.182 . S
C169 O175 1.167 . S
C169 O176 1.299 . S
O170 Zn167 2.080 . S
O170 C184 1.305 . S
O171 Zn165 1.920 . S
O171 C184 1.234 . S
C172 O177 1.167 . S
C172 O178 1.299 . S
O173 Zn167 2.114 . S
O173 C168 1.166 . S
O174 Zn166 1.905 . S
O174 C168 1.182 . S
O175 Zn166 1.898 . S
O175 C169 1.167 . S
O176 Zn167 2.120 . S
O176 C169 1.299 . S
O177 Zn165 1.898 . S
O177 C172 1.167 . S
O178 Zn167 2.120 . S
O178 C172 1.299 . S
O179 Zn167 2.114 . S
O179 C181 1.166 . S
O180 Zn165 1.905 . S
O180 C181 1.182 . S
C181 O179 1.166 . S
C181 O180 1.182 . S
O182 Zn167 2.080 . S
O182 C185 1.305 . S
O183 Zn166 1.920 . S
O183 C185 1.234 . S
C184 O170 1.305 . S
C184 O171 1.234 . S
C185 O182 1.305 . S
C185 O183 1.234 . S
C186 C187 1.332 . S
C186 C188 1.345 . S
C186 H206 0.932 . S
C187 C186 1.332 . S
C187 C196 1.332 . S
C188 C186 1.345 . S
C188 C200 1.334 . S
C188 H207 0.928 . S
C189 C190 1.332 . S
C189 C191 1.345 . S
C189 H208 0.932 . S
C190 C189 1.332 . S
C190 C198 1.332 . S
C191 C189 1.345 . S
C191 C203 1.334 . S
C191 H209 0.928 . S
H192 C196 0.932 . S
H193 C197 0.928 . S
H194 C198 0.932 . S
H195 C199 0.928 . S
C196 C187 1.332 . S
C196 H192 0.932 . S
C196 C197 1.345 . S
C197 H193 0.928 . S
C197 C196 1.345 . S
C197 C200 1.334 . S
C198 C190 1.332 . S
C198 H194 0.932 . S
C198 C199 1.345 . S
C199 H195 0.928 . S
C199 C198 1.345 . S
C199 C203 1.334 . S
C200 C188 1.334 . S
C200 C197 1.334 . S
C200 C201 1.487 . S
C201 C200 1.487 . S
C201 C202 1.185 . S
C202 C201 1.185 . S
C202 C205 1.482 . S
C203 C191 1.334 . S
C203 C199 1.334 . S
C203 C204 1.487 . S
C204 C203 1.487 . S
C204 C205 1.185 . S
C205 C202 1.482 . S
C205 C204 1.185 . S
H206 C186 0.932 . S
H207 C188 0.928 . S
H208 C189 0.932 . S
H209 C191 0.928 . S
C210 C211 1.332 . S
C210 C212 1.345 . S
C210 H230 0.932 . S
C211 C210 1.332 . S
C211 C220 1.332 . S
C212 C210 1.345 . S
C212 C224 1.334 . S
C212 H231 0.928 . S
C213 C214 1.332 . S
C213 C215 1.345 . S
C213 H232 0.932 . S
C214 C213 1.332 . S
C214 C222 1.332 . S
C215 C213 1.345 . S
C215 C227 1.334 . S
C215 H233 0.928 . S
H216 C220 0.932 1_655 S
H217 C221 0.928 . S
H218 C222 0.932 . S
H219 C223 0.928 . S
C220 C211 1.332 . S
C220 H216 0.932 1_455 S
C220 C221 1.345 . S
C221 H217 0.928 . S
C221 C220 1.345 . S
C221 C224 1.334 . S
C222 C214 1.332 . S
C222 H218 0.932 . S
C222 C223 1.345 . S
C223 H219 0.928 . S
C223 C222 1.345 . S
C223 C227 1.334 . S
C224 C212 1.334 . S
C224 C221 1.334 . S
C224 C225 1.487 . S
C225 C224 1.487 . S
C225 C226 1.185 . S
C226 C225 1.185 . S
C226 C229 1.482 . S
C227 C215 1.334 . S
C227 C223 1.334 . S
C227 C228 1.487 . S
C228 C227 1.487 . S
C228 C229 1.185 . S
C229 C226 1.482 . S
C229 C228 1.185 . S
H230 C210 0.932 . S
H231 C212 0.928 . S
H232 C213 0.932 . S
H233 C215 0.928 . S
C234 C235 1.332 . S
C234 C236 1.345 . S
C234 H254 0.932 . S
C235 C234 1.332 . S
C235 C244 1.332 . S
C236 C234 1.345 . S
C236 C248 1.334 . S
C236 H255 0.928 . S
C237 C238 1.332 . S
C237 C239 1.345 . S
C237 H256 0.932 . S
C238 C237 1.332 . S
C238 C246 1.332 . S
C239 C237 1.345 . S
C239 C251 1.334 . S
C239 H257 0.928 . S
H240 C244 0.932 . S
H241 C245 0.928 . S
H242 C246 0.932 . S
H243 C247 0.928 . S
C244 C235 1.332 . S
C244 H240 0.932 . S
C244 C245 1.345 . S
C245 H241 0.928 . S
C245 C244 1.345 . S
C245 C248 1.334 . S
C246 C238 1.332 . S
C246 H242 0.932 . S
C246 C247 1.345 . S
C247 H243 0.928 . S
C247 C246 1.345 . S
C247 C251 1.334 . S
C248 C236 1.334 . S
C248 C245 1.334 . S
C248 C249 1.487 . S
C249 C248 1.487 . S
C249 C250 1.185 . S
C250 C249 1.185 . S
C250 C253 1.482 . S
C251 C239 1.334 . S
C251 C247 1.334 . S
C251 C252 1.487 . S
C252 C251 1.487 . S
C252 C253 1.185 . S
C253 C250 1.482 . S
C253 C252 1.185 . S
H254 C234 0.932 . S
H255 C236 0.928 . S
H256 C237 0.932 . S
H257 C239 0.928 . S
C258 C259 1.332 . S
C258 C260 1.345 . S
C258 H278 0.932 . S
C259 C258 1.332 . S
C259 C268 1.332 . S
C260 C258 1.345 . S
C260 C272 1.334 . S
C260 H279 0.928 . S
C261 C262 1.332 . S
C261 C263 1.345 . S
C261 H280 0.932 . S
C262 C261 1.332 . S
C262 C270 1.332 . S
C263 C261 1.345 . S
C263 C275 1.334 . S
C263 H281 0.928 . S
H264 C268 0.932 . S
H265 C269 0.928 . S
H266 C270 0.932 . S
H267 C271 0.928 . S
C268 C259 1.332 . S
C268 H264 0.932 . S
C268 C269 1.345 . S
C269 H265 0.928 . S
C269 C268 1.345 . S
C269 C272 1.334 . S
C270 C262 1.332 . S
C270 H266 0.932 . S
C270 C271 1.345 . S
C271 H267 0.928 . S
C271 C270 1.345 . S
C271 C275 1.334 . S
C272 C260 1.334 . S
C272 C269 1.334 . S
C272 C273 1.487 . S
C273 C272 1.487 . S
C273 C274 1.185 . S
C274 C273 1.185 . S
C274 C277 1.482 . S
C275 C263 1.334 . S
C275 C271 1.334 . S
C275 C276 1.487 . S
C276 C275 1.487 . S
C276 C277 1.185 . S
C277 C274 1.482 . S
C277 C276 1.185 . S
H278 C258 0.932 . S
H279 C260 0.928 . S
H280 C261 0.932 . S
H281 C263 0.928 . S
C282 C283 1.332 . S
C282 C284 1.345 . S
C282 H302 0.932 . S
C283 C282 1.332 . S
C283 C292 1.332 . S
C284 C282 1.345 . S
C284 C296 1.334 . S
C284 H303 0.928 . S
C285 C286 1.332 . S
C285 C287 1.345 . S
C285 H304 0.932 . S
C286 C285 1.332 . S
C286 C294 1.332 . S
C287 C285 1.345 . S
C287 C299 1.334 . S
C287 H305 0.928 . S
H288 C292 0.932 . S
H289 C293 0.928 . S
H290 C294 0.932 . S
H291 C295 0.928 . S
C292 C283 1.332 . S
C292 H288 0.932 . S
C292 C293 1.345 . S
C293 H289 0.928 . S
C293 C292 1.345 . S
C293 C296 1.334 . S
C294 C286 1.332 . S
C294 H290 0.932 . S
C294 C295 1.345 . S
C295 H291 0.928 . S
C295 C294 1.345 . S
C295 C299 1.334 . S
C296 C284 1.334 . S
C296 C293 1.334 . S
C296 C297 1.487 . S
C297 C296 1.487 . S
C297 C298 1.185 . S
C298 C297 1.185 . S
C298 C301 1.482 . S
C299 C287 1.334 . S
C299 C295 1.334 . S
C299 C300 1.487 . S
C300 C299 1.487 . S
C300 C301 1.185 . S
C301 C298 1.482 . S
C301 C300 1.185 . S
H302 C282 0.932 . S
H303 C284 0.928 . S
H304 C285 0.932 . S
H305 C287 0.928 . S
C306 C307 1.332 . S
C306 C308 1.345 . S
C306 H326 0.932 . S
C307 C306 1.332 . S
C307 C316 1.332 . S
C308 C306 1.345 . S
C308 C320 1.334 . S
C308 H327 0.928 . S
C309 C310 1.332 . S
C309 C311 1.345 . S
C309 H328 0.932 . S
C310 C309 1.332 . S
C310 C318 1.332 . S
C311 C309 1.345 . S
C311 C323 1.334 . S
C311 H329 0.928 . S
H312 C316 0.932 1_554 S
H313 C317 0.928 . S
H314 C318 0.932 . S
H315 C319 0.928 . S
C316 C307 1.332 . S
C316 H312 0.932 1_556 S
C316 C317 1.345 . S
C317 H313 0.928 . S
C317 C316 1.345 . S
C317 C320 1.334 . S
C318 C310 1.332 . S
C318 H314 0.932 . S
C318 C319 1.345 . S
C319 H315 0.928 . S
C319 C318 1.345 . S
C319 C323 1.334 . S
C320 C308 1.334 . S
C320 C317 1.334 . S
C320 C321 1.487 . S
C321 C320 1.487 . S
C321 C322 1.185 . S
C322 C321 1.185 . S
C322 C325 1.482 . S
C323 C311 1.334 . S
C323 C319 1.334 . S
C323 C324 1.487 . S
C324 C323 1.487 . S
C324 C325 1.185 . S
C325 C322 1.482 . S
C325 C324 1.185 . S
H326 C306 0.932 . S
H327 C308 0.928 . S
H328 C309 0.932 . S
H329 C311 0.928 . S
C330 C331 1.332 . S
C330 C332 1.345 . S
C330 H350 0.932 . S
C331 C330 1.332 . S
C331 C340 1.332 . S
C332 C330 1.345 . S
C332 C344 1.334 . S
C332 H351 0.928 . S
C333 C334 1.332 . S
C333 C335 1.345 . S
C333 H352 0.932 . S
C334 C333 1.332 . S
C334 C342 1.332 . S
C335 C333 1.345 . S
C335 C347 1.334 . S
C335 H353 0.928 . S
H336 C340 0.932 . S
H337 C341 0.928 . S
H338 C342 0.932 . S
H339 C343 0.928 . S
C340 C331 1.332 . S
C340 H336 0.932 . S
C340 C341 1.345 . S
C341 H337 0.928 . S
C341 C340 1.345 . S
C341 C344 1.334 . S
C342 C334 1.332 . S
C342 H338 0.932 . S
C342 C343 1.345 . S
C343 H339 0.928 . S
C343 C342 1.345 . S
C343 C347 1.334 . S
C344 C332 1.334 . S
C344 C341 1.334 . S
C344 C345 1.487 . S
C345 C344 1.487 . S
C345 C346 1.185 . S
C346 C345 1.185 . S
C346 C349 1.482 . S
C347 C335 1.334 . S
C347 C343 1.334 . S
C347 C348 1.487 . S
C348 C347 1.487 . S
C348 C349 1.185 . S
C349 C346 1.482 . S
C349 C348 1.185 . S
H350 C330 0.932 . S
H351 C332 0.928 . S
H352 C333 0.932 . S
H353 C335 0.928 . S
C354 C355 1.332 . S
C354 C356 1.345 . S
C354 H374 0.932 . S
C355 C354 1.332 . S
C355 C364 1.332 . S
C356 C354 1.345 . S
C356 C368 1.334 . S
C356 H375 0.928 . S
C357 C358 1.332 . S
C357 C359 1.345 . S
C357 H376 0.932 . S
C358 C357 1.332 . S
C358 C366 1.332 . S
C359 C357 1.345 . S
C359 C371 1.334 . S
C359 H377 0.928 . S
H360 C364 0.932 . S
H361 C365 0.928 . S
H362 C366 0.932 . S
H363 C367 0.928 . S
C364 C355 1.332 . S
C364 H360 0.932 . S
C364 C365 1.345 . S
C365 H361 0.928 . S
C365 C364 1.345 . S
C365 C368 1.334 . S
C366 C358 1.332 . S
C366 H362 0.932 . S
C366 C367 1.345 . S
C367 H363 0.928 . S
C367 C366 1.345 . S
C367 C371 1.334 . S
C368 C356 1.334 . S
C368 C365 1.334 . S
C368 C369 1.487 . S
C369 C368 1.487 . S
C369 C370 1.185 . S
C370 C369 1.185 . S
C370 C373 1.482 . S
C371 C359 1.334 . S
C371 C367 1.334 . S
C371 C372 1.487 . S
C372 C371 1.487 . S
C372 C373 1.185 . S
C373 C370 1.482 . S
C373 C372 1.185 . S
H374 C354 0.932 . S
H375 C356 0.928 . S
H376 C357 0.932 . S
H377 C359 0.928 . S
C378 C379 1.332 . S
C378 C380 1.345 . S
C378 H398 0.932 . S
C379 C378 1.332 . S
C379 C388 1.332 . S
C380 C378 1.345 . S
C380 C392 1.334 . S
C380 H399 0.928 . S
C381 C382 1.332 . S
C381 C383 1.345 1_455 S
C381 H400 0.932 . S
C382 C381 1.332 . S
C382 C390 1.332 1_455 S
C383 C381 1.345 1_655 S
C383 C395 1.334 . S
C383 H401 0.927 1_655 S
H384 C388 0.932 . S
H385 C389 0.928 . S
H386 C390 0.932 . S
H387 C391 0.928 . S
C388 C379 1.332 . S
C388 H384 0.932 . S
C388 C389 1.345 . S
C389 H385 0.928 . S
C389 C388 1.345 . S
C389 C392 1.334 . S
C390 C382 1.332 1_655 S
C390 H386 0.932 . S
C390 C391 1.345 . S
C391 H387 0.928 . S
C391 C390 1.345 . S
C391 C395 1.334 . S
C392 C380 1.334 . S
C392 C389 1.334 . S
C392 C393 1.487 . S
C393 C392 1.487 . S
C393 C394 1.185 . S
C394 C393 1.185 . S
C394 C397 1.482 . S
C395 C383 1.334 . S
C395 C391 1.334 . S
C395 C396 1.487 . S
C396 C395 1.487 . S
C396 C397 1.185 . S
C397 C394 1.482 . S
C397 C396 1.185 . S
H398 C378 0.932 . S
H399 C380 0.928 . S
H400 C381 0.932 . S
H401 C383 0.927 1_455 S
C402 C403 1.332 . S
C402 C404 1.345 . S
C402 H422 0.932 . S
C403 C402 1.332 . S
C403 C412 1.332 . S
C404 C402 1.345 . S
C404 C416 1.334 . S
C404 H423 0.928 . S
C405 C406 1.332 . S
C405 C407 1.345 . S
C405 H424 0.932 . S
C406 C405 1.332 . S
C406 C414 1.332 . S
C407 C405 1.345 . S
C407 C419 1.334 . S
C407 H425 0.928 . S
H408 C412 0.932 . S
H409 C413 0.928 . S
H410 C414 0.932 . S
H411 C415 0.928 . S
C412 C403 1.332 . S
C412 H408 0.932 . S
C412 C413 1.345 . S
C413 H409 0.928 . S
C413 C412 1.345 . S
C413 C416 1.334 . S
C414 C406 1.332 . S
C414 H410 0.932 . S
C414 C415 1.345 . S
C415 H411 0.928 . S
C415 C414 1.345 . S
C415 C419 1.334 . S
C416 C404 1.334 . S
C416 C413 1.334 . S
C416 C417 1.487 . S
C417 C416 1.487 . S
C417 C418 1.185 . S
C418 C417 1.185 . S
C418 C421 1.482 . S
C419 C407 1.334 . S
C419 C415 1.334 . S
C419 C420 1.487 . S
C420 C419 1.487 . S
C420 C421 1.185 . S
C421 C418 1.482 . S
C421 C420 1.185 . S
H422 C402 0.932 . S
H423 C404 0.928 . S
H424 C405 0.932 . S
H425 C407 0.928 . S
C426 C427 1.332 . S
C426 C428 1.345 . S
C426 H446 0.932 . S
C427 C426 1.332 . S
C427 C436 1.332 . S
C428 C426 1.345 . S
C428 C440 1.334 . S
C428 H447 0.928 . S
C429 C430 1.332 . S
C429 C431 1.345 . S
C429 H448 0.932 . S
C430 C429 1.332 . S
C430 C438 1.332 . S
C431 C429 1.345 . S
C431 C443 1.334 . S
C431 H449 0.928 . S
H432 C436 0.932 . S
H433 C437 0.928 . S
H434 C438 0.932 . S
H435 C439 0.928 . S
C436 C427 1.332 . S
C436 H432 0.932 . S
C436 C437 1.345 . S
C437 H433 0.928 . S
C437 C436 1.345 . S
C437 C440 1.334 . S
C438 C430 1.332 . S
C438 H434 0.932 . S
C438 C439 1.345 . S
C439 H435 0.928 . S
C439 C438 1.345 . S
C439 C443 1.334 . S
C440 C428 1.334 . S
C440 C437 1.334 . S
C440 C441 1.487 . S
C441 C440 1.487 . S
C441 C442 1.185 . S
C442 C441 1.185 . S
C442 C445 1.482 . S
C443 C431 1.334 . S
C443 C439 1.334 . S
C443 C444 1.487 . S
C444 C443 1.487 . S
C444 C445 1.185 . S
C445 C442 1.482 . S
C445 C444 1.185 . S
H446 C426 0.932 . S
H447 C428 0.928 . S
H448 C429 0.932 . S
H449 C431 0.928 . S
C450 C451 1.332 . S
C450 C452 1.345 . S
C450 H470 0.932 . S
C451 C450 1.332 . S
C451 C460 1.332 . S
C452 C450 1.345 . S
C452 C464 1.334 . S
C452 H471 0.928 . S
C453 C454 1.332 . S
C453 C455 1.345 . S
C453 H472 0.932 . S
C454 C453 1.332 . S
C454 C462 1.332 . S
C455 C453 1.345 . S
C455 C467 1.334 . S
C455 H473 0.928 . S
H456 C460 0.932 . S
H457 C461 0.928 . S
H458 C462 0.932 . S
H459 C463 0.928 . S
C460 C451 1.332 . S
C460 H456 0.932 . S
C460 C461 1.345 . S
C461 H457 0.928 . S
C461 C460 1.345 . S
C461 C464 1.334 . S
C462 C454 1.332 . S
C462 H458 0.932 . S
C462 C463 1.345 . S
C463 H459 0.928 . S
C463 C462 1.345 . S
C463 C467 1.334 . S
C464 C452 1.334 . S
C464 C461 1.334 . S
C464 C465 1.487 . S
C465 C464 1.487 . S
C465 C466 1.185 . S
C466 C465 1.185 . S
C466 C469 1.482 . S
C467 C455 1.334 . S
C467 C463 1.334 . S
C467 C468 1.487 . S
C468 C467 1.487 . S
C468 C469 1.185 . S
C469 C466 1.482 . S
C469 C468 1.185 . S
H470 C450 0.932 . S
H471 C452 0.928 . S
H472 C453 0.932 . S
H473 C455 0.928 . S
C190 C151 1.405 . S
C187 C25 1.497 . S
C214 C147 1.409 . S
C211 C61 1.509 . S
C238 C172 1.405 . S
C235 C97 1.497 . S
C259 C133 1.509 . S
C262 C168 1.409 . S
C283 C31 1.050 . S
C286 C169 0.965 . S
C310 C184 0.986 . S
C307 C37 1.093 . S
C331 C1 1.728 . S
C334 C185 1.600 . S
C358 C181 1.621 . S
C355 C67 1.752 . S
C382 C148 0.965 . S
C379 C103 1.050 . S
C403 C109 1.093 . S
C406 C163 0.986 . S
C430 C164 1.600 . S
C427 C73 1.728 . S
C454 C160 1.621 1_655 S
C451 C139 1.752 . S
