# Generated by pormake.
# Topology bpr, (3,3)-cn, num edge types: 1
# Building blocks:
#     Node 0, Type 0, BuildingBlock: OLANEW_clean_sbu_2, # of connection points: 3
#     Node 1, Type 0, BuildingBlock: OLANEW_clean_sbu_2, # of connection points: 3
#     Node 2, Type 0, BuildingBlock: OLANEW_clean_sbu_2, # of connection points: 3
#     Node 3, Type 0, BuildingBlock: OLANEW_clean_sbu_2, # of connection points: 3
#     Node 4, Type 0, BuildingBlock: OLANEW_clean_sbu_2, # of connection points: 3
#     Node 5, Type 0, BuildingBlock: OLANEW_clean_sbu_2, # of connection points: 3
#     Node 6, Type 0, BuildingBlock: OLANEW_clean_sbu_2, # of connection points: 3
#     Node 7, Type 0, BuildingBlock: OLANEW_clean_sbu_2, # of connection points: 3
#     Node 8, Type 0, BuildingBlock: OLANEW_clean_sbu_2, # of connection points: 3
#     Node 9, Type 0, BuildingBlock: OLANEW_clean_sbu_2, # of connection points: 3
#     Node 10, Type 0, BuildingBlock: OLANEW_clean_sbu_2, # of connection points: 3
#     Node 11, Type 0, BuildingBlock: OLANEW_clean_sbu_2, # of connection points: 3
#     Node 12, Type 0, BuildingBlock: OLANEW_clean_sbu_2, # of connection points: 3
#     Node 13, Type 0, BuildingBlock: OLANEW_clean_sbu_2, # of connection points: 3
#     Node 14, Type 0, BuildingBlock: OLANEW_clean_sbu_2, # of connection points: 3
#     Node 15, Type 0, BuildingBlock: OLANEW_clean_sbu_2, # of connection points: 3
#     Node 16, Type 0, BuildingBlock: OLANEW_clean_sbu_2, # of connection points: 3
#     Node 17, Type 0, BuildingBlock: OLANEW_clean_sbu_2, # of connection points: 3
#     Node 18, Type 0, BuildingBlock: OLANEW_clean_sbu_2, # of connection points: 3
#     Node 19, Type 0, BuildingBlock: OLANEW_clean_sbu_2, # of connection points: 3
#     Node 20, Type 0, BuildingBlock: OLANEW_clean_sbu_2, # of connection points: 3
#     Node 21, Type 0, BuildingBlock: OLANEW_clean_sbu_2, # of connection points: 3
#     Node 22, Type 0, BuildingBlock: OLANEW_clean_sbu_2, # of connection points: 3
#     Node 23, Type 0, BuildingBlock: OLANEW_clean_sbu_2, # of connection points: 3
#     Node 24, Type 0, BuildingBlock: OLANEW_clean_sbu_2, # of connection points: 3
#     Node 25, Type 0, BuildingBlock: OLANEW_clean_sbu_2, # of connection points: 3
#     Node 26, Type 0, BuildingBlock: OLANEW_clean_sbu_2, # of connection points: 3
#     Node 27, Type 0, BuildingBlock: OLANEW_clean_sbu_2, # of connection points: 3
#     Node 28, Type 0, BuildingBlock: OLANEW_clean_sbu_2, # of connection points: 3
#     Node 29, Type 0, BuildingBlock: OLANEW_clean_sbu_2, # of connection points: 3
#     Node 30, Type 0, BuildingBlock: OLANEW_clean_sbu_2, # of connection points: 3
#     Node 31, Type 0, BuildingBlock: OLANEW_clean_sbu_2, # of connection points: 3
#     Node 32, Type 0, BuildingBlock: OLANEW_clean_sbu_2, # of connection points: 3
#     Node 33, Type 0, BuildingBlock: OLANEW_clean_sbu_2, # of connection points: 3
#     Node 34, Type 0, BuildingBlock: OLANEW_clean_sbu_2, # of connection points: 3
#     Node 35, Type 0, BuildingBlock: OLANEW_clean_sbu_2, # of connection points: 3
#     Node 36, Type 0, BuildingBlock: OLANEW_clean_sbu_2, # of connection points: 3
#     Node 37, Type 0, BuildingBlock: OLANEW_clean_sbu_2, # of connection points: 3
#     Node 38, Type 0, BuildingBlock: OLANEW_clean_sbu_2, # of connection points: 3
#     Node 39, Type 0, BuildingBlock: OLANEW_clean_sbu_2, # of connection points: 3
#     Node 40, Type 0, BuildingBlock: OLANEW_clean_sbu_2, # of connection points: 3
#     Node 41, Type 0, BuildingBlock: OLANEW_clean_sbu_2, # of connection points: 3
#     Node 42, Type 0, BuildingBlock: OLANEW_clean_sbu_2, # of connection points: 3
#     Node 43, Type 0, BuildingBlock: OLANEW_clean_sbu_2, # of connection points: 3
#     Node 44, Type 0, BuildingBlock: OLANEW_clean_sbu_2, # of connection points: 3
#     Node 45, Type 0, BuildingBlock: OLANEW_clean_sbu_2, # of connection points: 3
#     Node 46, Type 0, BuildingBlock: OLANEW_clean_sbu_2, # of connection points: 3
#     Node 47, Type 0, BuildingBlock: OLANEW_clean_sbu_2, # of connection points: 3
#     Node 48, Type 1, BuildingBlock: CUQRIR_clean_linker_1, # of connection points: 3
#     Node 49, Type 1, BuildingBlock: CUQRIR_clean_linker_1, # of connection points: 3
#     Node 50, Type 1, BuildingBlock: CUQRIR_clean_linker_1, # of connection points: 3
#     Node 51, Type 1, BuildingBlock: CUQRIR_clean_linker_1, # of connection points: 3
#     Node 52, Type 1, BuildingBlock: CUQRIR_clean_linker_1, # of connection points: 3
#     Node 53, Type 1, BuildingBlock: CUQRIR_clean_linker_1, # of connection points: 3
#     Node 54, Type 1, BuildingBlock: CUQRIR_clean_linker_1, # of connection points: 3
#     Node 55, Type 1, BuildingBlock: CUQRIR_clean_linker_1, # of connection points: 3
#     Node 56, Type 1, BuildingBlock: CUQRIR_clean_linker_1, # of connection points: 3
#     Node 57, Type 1, BuildingBlock: CUQRIR_clean_linker_1, # of connection points: 3
#     Node 58, Type 1, BuildingBlock: CUQRIR_clean_linker_1, # of connection points: 3
#     Node 59, Type 1, BuildingBlock: CUQRIR_clean_linker_1, # of connection points: 3
#     Node 60, Type 1, BuildingBlock: CUQRIR_clean_linker_1, # of connection points: 3
#     Node 61, Type 1, BuildingBlock: CUQRIR_clean_linker_1, # of connection points: 3
#     Node 62, Type 1, BuildingBlock: CUQRIR_clean_linker_1, # of connection points: 3
#     Node 63, Type 1, BuildingBlock: CUQRIR_clean_linker_1, # of connection points: 3
#     Node 64, Type 1, BuildingBlock: CUQRIR_clean_linker_1, # of connection points: 3
#     Node 65, Type 1, BuildingBlock: CUQRIR_clean_linker_1, # of connection points: 3
#     Node 66, Type 1, BuildingBlock: CUQRIR_clean_linker_1, # of connection points: 3
#     Node 67, Type 1, BuildingBlock: CUQRIR_clean_linker_1, # of connection points: 3
#     Node 68, Type 1, BuildingBlock: CUQRIR_clean_linker_1, # of connection points: 3
#     Node 69, Type 1, BuildingBlock: CUQRIR_clean_linker_1, # of connection points: 3
#     Node 70, Type 1, BuildingBlock: CUQRIR_clean_linker_1, # of connection points: 3
#     Node 71, Type 1, BuildingBlock: CUQRIR_clean_linker_1, # of connection points: 3
#     Node 72, Type 1, BuildingBlock: CUQRIR_clean_linker_1, # of connection points: 3
#     Node 73, Type 1, BuildingBlock: CUQRIR_clean_linker_1, # of connection points: 3
#     Node 74, Type 1, BuildingBlock: CUQRIR_clean_linker_1, # of connection points: 3
#     Node 75, Type 1, BuildingBlock: CUQRIR_clean_linker_1, # of connection points: 3
#     Node 76, Type 1, BuildingBlock: CUQRIR_clean_linker_1, # of connection points: 3
#     Node 77, Type 1, BuildingBlock: CUQRIR_clean_linker_1, # of connection points: 3
#     Node 78, Type 1, BuildingBlock: CUQRIR_clean_linker_1, # of connection points: 3
#     Node 79, Type 1, BuildingBlock: CUQRIR_clean_linker_1, # of connection points: 3
#     Node 80, Type 1, BuildingBlock: CUQRIR_clean_linker_1, # of connection points: 3
#     Node 81, Type 1, BuildingBlock: CUQRIR_clean_linker_1, # of connection points: 3
#     Node 82, Type 1, BuildingBlock: CUQRIR_clean_linker_1, # of connection points: 3
#     Node 83, Type 1, BuildingBlock: CUQRIR_clean_linker_1, # of connection points: 3
#     Node 84, Type 1, BuildingBlock: CUQRIR_clean_linker_1, # of connection points: 3
#     Node 85, Type 1, BuildingBlock: CUQRIR_clean_linker_1, # of connection points: 3
#     Node 86, Type 1, BuildingBlock: CUQRIR_clean_linker_1, # of connection points: 3
#     Node 87, Type 1, BuildingBlock: CUQRIR_clean_linker_1, # of connection points: 3
#     Node 88, Type 1, BuildingBlock: CUQRIR_clean_linker_1, # of connection points: 3
#     Node 89, Type 1, BuildingBlock: CUQRIR_clean_linker_1, # of connection points: 3
#     Node 90, Type 1, BuildingBlock: CUQRIR_clean_linker_1, # of connection points: 3
#     Node 91, Type 1, BuildingBlock: CUQRIR_clean_linker_1, # of connection points: 3
#     Node 92, Type 1, BuildingBlock: CUQRIR_clean_linker_1, # of connection points: 3
#     Node 93, Type 1, BuildingBlock: CUQRIR_clean_linker_1, # of connection points: 3
#     Node 94, Type 1, BuildingBlock: CUQRIR_clean_linker_1, # of connection points: 3
#     Node 95, Type 1, BuildingBlock: CUQRIR_clean_linker_1, # of connection points: 3
#     Edge 96, Type (0, 1), BuildingBlock: TEMPAE_clean_linker_10, # of connection points: 2
#     Edge 97, Type (0, 1), BuildingBlock: TEMPAE_clean_linker_10, # of connection points: 2
#     Edge 98, Type (0, 1), BuildingBlock: TEMPAE_clean_linker_10, # of connection points: 2
#     Edge 99, Type (0, 1), BuildingBlock: TEMPAE_clean_linker_10, # of connection points: 2
#     Edge 100, Type (0, 1), BuildingBlock: TEMPAE_clean_linker_10, # of connection points: 2
#     Edge 101, Type (0, 1), BuildingBlock: TEMPAE_clean_linker_10, # of connection points: 2
#     Edge 102, Type (0, 1), BuildingBlock: TEMPAE_clean_linker_10, # of connection points: 2
#     Edge 103, Type (0, 1), BuildingBlock: TEMPAE_clean_linker_10, # of connection points: 2
#     Edge 104, Type (0, 1), BuildingBlock: TEMPAE_clean_linker_10, # of connection points: 2
#     Edge 105, Type (0, 1), BuildingBlock: TEMPAE_clean_linker_10, # of connection points: 2
#     Edge 106, Type (0, 1), BuildingBlock: TEMPAE_clean_linker_10, # of connection points: 2
#     Edge 107, Type (0, 1), BuildingBlock: TEMPAE_clean_linker_10, # of connection points: 2
#     Edge 108, Type (0, 1), BuildingBlock: TEMPAE_clean_linker_10, # of connection points: 2
#     Edge 109, Type (0, 1), BuildingBlock: TEMPAE_clean_linker_10, # of connection points: 2
#     Edge 110, Type (0, 1), BuildingBlock: TEMPAE_clean_linker_10, # of connection points: 2
#     Edge 111, Type (0, 1), BuildingBlock: TEMPAE_clean_linker_10, # of connection points: 2
#     Edge 112, Type (0, 1), BuildingBlock: TEMPAE_clean_linker_10, # of connection points: 2
#     Edge 113, Type (0, 1), BuildingBlock: TEMPAE_clean_linker_10, # of connection points: 2
#     Edge 114, Type (0, 1), BuildingBlock: TEMPAE_clean_linker_10, # of connection points: 2
#     Edge 115, Type (0, 1), BuildingBlock: TEMPAE_clean_linker_10, # of connection points: 2
#     Edge 116, Type (0, 1), BuildingBlock: TEMPAE_clean_linker_10, # of connection points: 2
#     Edge 117, Type (0, 1), BuildingBlock: TEMPAE_clean_linker_10, # of connection points: 2
#     Edge 118, Type (0, 1), BuildingBlock: TEMPAE_clean_linker_10, # of connection points: 2
#     Edge 119, Type (0, 1), BuildingBlock: TEMPAE_clean_linker_10, # of connection points: 2
#     Edge 120, Type (0, 1), BuildingBlock: TEMPAE_clean_linker_10, # of connection points: 2
#     Edge 121, Type (0, 1), BuildingBlock: TEMPAE_clean_linker_10, # of connection points: 2
#     Edge 122, Type (0, 1), BuildingBlock: TEMPAE_clean_linker_10, # of connection points: 2
#     Edge 123, Type (0, 1), BuildingBlock: TEMPAE_clean_linker_10, # of connection points: 2
#     Edge 124, Type (0, 1), BuildingBlock: TEMPAE_clean_linker_10, # of connection points: 2
#     Edge 125, Type (0, 1), BuildingBlock: TEMPAE_clean_linker_10, # of connection points: 2
#     Edge 126, Type (0, 1), BuildingBlock: TEMPAE_clean_linker_10, # of connection points: 2
#     Edge 127, Type (0, 1), BuildingBlock: TEMPAE_clean_linker_10, # of connection points: 2
#     Edge 128, Type (0, 1), BuildingBlock: TEMPAE_clean_linker_10, # of connection points: 2
#     Edge 129, Type (0, 1), BuildingBlock: TEMPAE_clean_linker_10, # of connection points: 2
#     Edge 130, Type (0, 1), BuildingBlock: TEMPAE_clean_linker_10, # of connection points: 2
#     Edge 131, Type (0, 1), BuildingBlock: TEMPAE_clean_linker_10, # of connection points: 2
#     Edge 132, Type (0, 1), BuildingBlock: TEMPAE_clean_linker_10, # of connection points: 2
#     Edge 133, Type (0, 1), BuildingBlock: TEMPAE_clean_linker_10, # of connection points: 2
#     Edge 134, Type (0, 1), BuildingBlock: TEMPAE_clean_linker_10, # of connection points: 2
#     Edge 135, Type (0, 1), BuildingBlock: TEMPAE_clean_linker_10, # of connection points: 2
#     Edge 136, Type (0, 1), BuildingBlock: TEMPAE_clean_linker_10, # of connection points: 2
#     Edge 137, Type (0, 1), BuildingBlock: TEMPAE_clean_linker_10, # of connection points: 2
#     Edge 138, Type (0, 1), BuildingBlock: TEMPAE_clean_linker_10, # of connection points: 2
#     Edge 139, Type (0, 1), BuildingBlock: TEMPAE_clean_linker_10, # of connection points: 2
#     Edge 140, Type (0, 1), BuildingBlock: TEMPAE_clean_linker_10, # of connection points: 2
#     Edge 141, Type (0, 1), BuildingBlock: TEMPAE_clean_linker_10, # of connection points: 2
#     Edge 142, Type (0, 1), BuildingBlock: TEMPAE_clean_linker_10, # of connection points: 2
#     Edge 143, Type (0, 1), BuildingBlock: TEMPAE_clean_linker_10, # of connection points: 2
#     Edge 144, Type (0, 1), BuildingBlock: TEMPAE_clean_linker_10, # of connection points: 2
#     Edge 145, Type (0, 1), BuildingBlock: TEMPAE_clean_linker_10, # of connection points: 2
#     Edge 146, Type (0, 1), BuildingBlock: TEMPAE_clean_linker_10, # of connection points: 2
#     Edge 147, Type (0, 1), BuildingBlock: TEMPAE_clean_linker_10, # of connection points: 2
#     Edge 148, Type (0, 1), BuildingBlock: TEMPAE_clean_linker_10, # of connection points: 2
#     Edge 149, Type (0, 1), BuildingBlock: TEMPAE_clean_linker_10, # of connection points: 2
#     Edge 150, Type (0, 1), BuildingBlock: TEMPAE_clean_linker_10, # of connection points: 2
#     Edge 151, Type (0, 1), BuildingBlock: TEMPAE_clean_linker_10, # of connection points: 2
#     Edge 152, Type (0, 1), BuildingBlock: TEMPAE_clean_linker_10, # of connection points: 2
#     Edge 153, Type (0, 1), BuildingBlock: TEMPAE_clean_linker_10, # of connection points: 2
#     Edge 154, Type (0, 1), BuildingBlock: TEMPAE_clean_linker_10, # of connection points: 2
#     Edge 155, Type (0, 1), BuildingBlock: TEMPAE_clean_linker_10, # of connection points: 2
#     Edge 156, Type (0, 1), BuildingBlock: TEMPAE_clean_linker_10, # of connection points: 2
#     Edge 157, Type (0, 1), BuildingBlock: TEMPAE_clean_linker_10, # of connection points: 2
#     Edge 158, Type (0, 1), BuildingBlock: TEMPAE_clean_linker_10, # of connection points: 2
#     Edge 159, Type (0, 1), BuildingBlock: TEMPAE_clean_linker_10, # of connection points: 2
#     Edge 160, Type (0, 1), BuildingBlock: TEMPAE_clean_linker_10, # of connection points: 2
#     Edge 161, Type (0, 1), BuildingBlock: TEMPAE_clean_linker_10, # of connection points: 2
#     Edge 162, Type (0, 1), BuildingBlock: TEMPAE_clean_linker_10, # of connection points: 2
#     Edge 163, Type (0, 1), BuildingBlock: TEMPAE_clean_linker_10, # of connection points: 2
#     Edge 164, Type (0, 1), BuildingBlock: TEMPAE_clean_linker_10, # of connection points: 2
#     Edge 165, Type (0, 1), BuildingBlock: TEMPAE_clean_linker_10, # of connection points: 2
#     Edge 166, Type (0, 1), BuildingBlock: TEMPAE_clean_linker_10, # of connection points: 2
#     Edge 167, Type (0, 1), BuildingBlock: TEMPAE_clean_linker_10, # of connection points: 2
#     Edge 168, Type (0, 1), BuildingBlock: TEMPAE_clean_linker_10, # of connection points: 2
#     Edge 169, Type (0, 1), BuildingBlock: TEMPAE_clean_linker_10, # of connection points: 2
#     Edge 170, Type (0, 1), BuildingBlock: TEMPAE_clean_linker_10, # of connection points: 2
#     Edge 171, Type (0, 1), BuildingBlock: TEMPAE_clean_linker_10, # of connection points: 2
#     Edge 172, Type (0, 1), BuildingBlock: TEMPAE_clean_linker_10, # of connection points: 2
#     Edge 173, Type (0, 1), BuildingBlock: TEMPAE_clean_linker_10, # of connection points: 2
#     Edge 174, Type (0, 1), BuildingBlock: TEMPAE_clean_linker_10, # of connection points: 2
#     Edge 175, Type (0, 1), BuildingBlock: TEMPAE_clean_linker_10, # of connection points: 2
#     Edge 176, Type (0, 1), BuildingBlock: TEMPAE_clean_linker_10, # of connection points: 2
#     Edge 177, Type (0, 1), BuildingBlock: TEMPAE_clean_linker_10, # of connection points: 2
#     Edge 178, Type (0, 1), BuildingBlock: TEMPAE_clean_linker_10, # of connection points: 2
#     Edge 179, Type (0, 1), BuildingBlock: TEMPAE_clean_linker_10, # of connection points: 2
#     Edge 180, Type (0, 1), BuildingBlock: TEMPAE_clean_linker_10, # of connection points: 2
#     Edge 181, Type (0, 1), BuildingBlock: TEMPAE_clean_linker_10, # of connection points: 2
#     Edge 182, Type (0, 1), BuildingBlock: TEMPAE_clean_linker_10, # of connection points: 2
#     Edge 183, Type (0, 1), BuildingBlock: TEMPAE_clean_linker_10, # of connection points: 2
#     Edge 184, Type (0, 1), BuildingBlock: TEMPAE_clean_linker_10, # of connection points: 2
#     Edge 185, Type (0, 1), BuildingBlock: TEMPAE_clean_linker_10, # of connection points: 2
#     Edge 186, Type (0, 1), BuildingBlock: TEMPAE_clean_linker_10, # of connection points: 2
#     Edge 187, Type (0, 1), BuildingBlock: TEMPAE_clean_linker_10, # of connection points: 2
#     Edge 188, Type (0, 1), BuildingBlock: TEMPAE_clean_linker_10, # of connection points: 2
#     Edge 189, Type (0, 1), BuildingBlock: TEMPAE_clean_linker_10, # of connection points: 2
#     Edge 190, Type (0, 1), BuildingBlock: TEMPAE_clean_linker_10, # of connection points: 2
#     Edge 191, Type (0, 1), BuildingBlock: TEMPAE_clean_linker_10, # of connection points: 2
#     Edge 192, Type (0, 1), BuildingBlock: TEMPAE_clean_linker_10, # of connection points: 2
#     Edge 193, Type (0, 1), BuildingBlock: TEMPAE_clean_linker_10, # of connection points: 2
#     Edge 194, Type (0, 1), BuildingBlock: TEMPAE_clean_linker_10, # of connection points: 2
#     Edge 195, Type (0, 1), BuildingBlock: TEMPAE_clean_linker_10, # of connection points: 2
#     Edge 196, Type (0, 1), BuildingBlock: TEMPAE_clean_linker_10, # of connection points: 2
#     Edge 197, Type (0, 1), BuildingBlock: TEMPAE_clean_linker_10, # of connection points: 2
#     Edge 198, Type (0, 1), BuildingBlock: TEMPAE_clean_linker_10, # of connection points: 2
#     Edge 199, Type (0, 1), BuildingBlock: TEMPAE_clean_linker_10, # of connection points: 2
#     Edge 200, Type (0, 1), BuildingBlock: TEMPAE_clean_linker_10, # of connection points: 2
#     Edge 201, Type (0, 1), BuildingBlock: TEMPAE_clean_linker_10, # of connection points: 2
#     Edge 202, Type (0, 1), BuildingBlock: TEMPAE_clean_linker_10, # of connection points: 2
#     Edge 203, Type (0, 1), BuildingBlock: TEMPAE_clean_linker_10, # of connection points: 2
#     Edge 204, Type (0, 1), BuildingBlock: TEMPAE_clean_linker_10, # of connection points: 2
#     Edge 205, Type (0, 1), BuildingBlock: TEMPAE_clean_linker_10, # of connection points: 2
#     Edge 206, Type (0, 1), BuildingBlock: TEMPAE_clean_linker_10, # of connection points: 2
#     Edge 207, Type (0, 1), BuildingBlock: TEMPAE_clean_linker_10, # of connection points: 2
#     Edge 208, Type (0, 1), BuildingBlock: TEMPAE_clean_linker_10, # of connection points: 2
#     Edge 209, Type (0, 1), BuildingBlock: TEMPAE_clean_linker_10, # of connection points: 2
#     Edge 210, Type (0, 1), BuildingBlock: TEMPAE_clean_linker_10, # of connection points: 2
#     Edge 211, Type (0, 1), BuildingBlock: TEMPAE_clean_linker_10, # of connection points: 2
#     Edge 212, Type (0, 1), BuildingBlock: TEMPAE_clean_linker_10, # of connection points: 2
#     Edge 213, Type (0, 1), BuildingBlock: TEMPAE_clean_linker_10, # of connection points: 2
#     Edge 214, Type (0, 1), BuildingBlock: TEMPAE_clean_linker_10, # of connection points: 2
#     Edge 215, Type (0, 1), BuildingBlock: TEMPAE_clean_linker_10, # of connection points: 2
#     Edge 216, Type (0, 1), BuildingBlock: TEMPAE_clean_linker_10, # of connection points: 2
#     Edge 217, Type (0, 1), BuildingBlock: TEMPAE_clean_linker_10, # of connection points: 2
#     Edge 218, Type (0, 1), BuildingBlock: TEMPAE_clean_linker_10, # of connection points: 2
#     Edge 219, Type (0, 1), BuildingBlock: TEMPAE_clean_linker_10, # of connection points: 2
#     Edge 220, Type (0, 1), BuildingBlock: TEMPAE_clean_linker_10, # of connection points: 2
#     Edge 221, Type (0, 1), BuildingBlock: TEMPAE_clean_linker_10, # of connection points: 2
#     Edge 222, Type (0, 1), BuildingBlock: TEMPAE_clean_linker_10, # of connection points: 2
#     Edge 223, Type (0, 1), BuildingBlock: TEMPAE_clean_linker_10, # of connection points: 2
#     Edge 224, Type (0, 1), BuildingBlock: TEMPAE_clean_linker_10, # of connection points: 2
#     Edge 225, Type (0, 1), BuildingBlock: TEMPAE_clean_linker_10, # of connection points: 2
#     Edge 226, Type (0, 1), BuildingBlock: TEMPAE_clean_linker_10, # of connection points: 2
#     Edge 227, Type (0, 1), BuildingBlock: TEMPAE_clean_linker_10, # of connection points: 2
#     Edge 228, Type (0, 1), BuildingBlock: TEMPAE_clean_linker_10, # of connection points: 2
#     Edge 229, Type (0, 1), BuildingBlock: TEMPAE_clean_linker_10, # of connection points: 2
#     Edge 230, Type (0, 1), BuildingBlock: TEMPAE_clean_linker_10, # of connection points: 2
#     Edge 231, Type (0, 1), BuildingBlock: TEMPAE_clean_linker_10, # of connection points: 2
#     Edge 232, Type (0, 1), BuildingBlock: TEMPAE_clean_linker_10, # of connection points: 2
#     Edge 233, Type (0, 1), BuildingBlock: TEMPAE_clean_linker_10, # of connection points: 2
#     Edge 234, Type (0, 1), BuildingBlock: TEMPAE_clean_linker_10, # of connection points: 2
#     Edge 235, Type (0, 1), BuildingBlock: TEMPAE_clean_linker_10, # of connection points: 2
#     Edge 236, Type (0, 1), BuildingBlock: TEMPAE_clean_linker_10, # of connection points: 2
#     Edge 237, Type (0, 1), BuildingBlock: TEMPAE_clean_linker_10, # of connection points: 2
#     Edge 238, Type (0, 1), BuildingBlock: TEMPAE_clean_linker_10, # of connection points: 2
#     Edge 239, Type (0, 1), BuildingBlock: TEMPAE_clean_linker_10, # of connection points: 2
# Relax obj value: 0.021
# Max RMSD: 0.115
# Mean RMSD: 0.070
data_MOF--net-bpr--node1-OLANEW_clean_sbu_2--node2-CUQRIR_clean_linker_1--edge1-TEMPAE_clean_linker_10
_symmetry_space_group_name_H-M    P1
_symmetry_Int_Tables_number       1
_symmetry_cell_setting            triclinic
loop_
_symmetry_equiv_pos_as_xyz
'x, y, z'
_cell_length_a     78.752718
_cell_length_b     86.026417
_cell_length_c     82.449414
_cell_angle_alpha  84.903589
_cell_angle_beta   90.339168
_cell_angle_gamma 94.902452
loop_
_atom_site_label
_atom_site_type_symbol
_atom_site_fract_x
_atom_site_fract_y
_atom_site_fract_z
_atom_type_partial_charge
O0 O 0.0495 0.38988 0.32336 0.0
Cd1 Cd 0.02945 0.40017 0.30318 0.0
O2 O 0.02971 0.37712 0.33937 0.0
Cd3 Cd 0.00772 0.38612 0.32649 0.0
O4 O 0.98182 0.39358 0.32437 0.0
C5 C 0.97924 0.40771 0.32621 0.0
O6 O 0.9924 0.41775 0.32844 0.0
C7 C 0.04536 0.38083 0.33601 0.0
C8 C 0.04119 0.39829 0.27149 0.0
O9 O 0.04582 0.41005 0.27947 0.0
O10 O 0.03089 0.3874 0.27844 0.0
O11 O 0.89144 0.80166 0.56298 0.0
Cd12 Cd 0.89382 0.77847 0.54836 0.0
O13 O 0.917 0.80168 0.5738 0.0
Cd14 Cd 0.91779 0.77694 0.56997 0.0
O15 O 0.91368 0.75171 0.57663 0.0
C16 C 0.89855 0.7452 0.57737 0.0
O17 O 0.88584 0.75369 0.57328 0.0
C18 C 0.90346 0.80845 0.57078 0.0
C19 C 0.89393 0.78939 0.51548 0.0
O20 O 0.87997 0.78483 0.52305 0.0
O21 O 0.90794 0.78807 0.52328 0.0
O22 O 0.42176 0.59038 0.77951 0.0
Cd23 Cd 0.44186 0.57808 0.76336 0.0
O24 O 0.39881 0.57832 0.76955 0.0
Cd25 Cd 0.41274 0.57284 0.74824 0.0
O26 O 0.4195 0.57734 0.72248 0.0
C27 C 0.42528 0.59118 0.71749 0.0
O28 O 0.42783 0.60162 0.72816 0.0
C29 C 0.40574 0.58692 0.77993 0.0
C30 C 0.47029 0.57346 0.78299 0.0
O31 O 0.47069 0.58476 0.77174 0.0
O32 O 0.45675 0.56411 0.78462 0.0
O33 O 0.64597 0.14984 0.04612 0.0
Cd34 Cd 0.65109 0.17093 0.02428 0.0
O35 O 0.62468 0.13715 0.03395 0.0
Cd36 Cd 0.62688 0.14971 0.00965 0.0
O37 O 0.62294 0.15037 0.98321 0.0
C38 C 0.61803 0.13737 0.97771 0.0
O39 O 0.61593 0.12479 0.98801 0.0
C40 C 0.63415 0.13878 0.04635 0.0
C41 C 0.65423 0.20016 0.03712 0.0
O42 O 0.63971 0.19395 0.03284 0.0
O43 O 0.66733 0.19263 0.0352 0.0
O44 O 0.05821 0.67735 0.17405 0.0
Cd45 Cd 0.03346 0.6704 0.19181 0.0
O46 O 0.04419 0.68529 0.15209 0.0
Cd47 Cd 0.01876 0.6781 0.16206 0.0
O48 O -0.0071 0.66685 0.15997 0.0
C49 C 0.99087 0.65202 0.16003 0.0
O50 O 0.00421 0.64392 0.16239 0.0
C51 C 0.05822 0.68312 0.15929 0.0
C52 C 0.04426 0.66375 0.22387 0.0
O53 O 0.03974 0.67735 0.21899 0.0
O54 O 0.04344 0.6533 0.21369 0.0
O55 O 0.64908 0.8428 0.46469 0.0
Cd56 Cd 0.65604 0.82633 0.48913 0.0
O57 O 0.6248 0.84938 0.47412 0.0
Cd58 Cd 0.62847 0.84143 0.49976 0.0
O59 O 0.62505 0.84328 0.52588 0.0
C60 C 0.62468 0.85703 0.53036 0.0
O61 O 0.62687 0.86902 0.51932 0.0
C62 C 0.63532 0.84942 0.46246 0.0
C63 C 0.66049 0.79646 0.47972 0.0
O64 O 0.64581 0.80018 0.48386 0.0
O65 O 0.6732 0.80673 0.48046 0.0
O66 O 0.40853 0.42423 0.73376 0.0
Cd67 Cd 0.4228 0.4359 0.75676 0.0
O68 O 0.43365 0.42784 0.72222 0.0
Cd69 Cd 0.45256 0.42787 0.70284 0.0
O70 O 0.47364 0.42563 0.68637 0.0
C71 C 0.4714 0.424 0.67132 0.0
O72 O 0.45589 0.42384 0.66534 0.0
C73 C 0.418 0.42282 0.72164 0.0
C74 C 0.41468 0.41948 0.78679 0.0
O75 O 0.40692 0.43149 0.7817 0.0
O76 O 0.42615 0.41516 0.77762 0.0
O77 O 0.90511 0.23479 0.87622 0.0
Cd78 Cd 0.91587 0.26233 0.8767 0.0
O79 O 0.91168 0.23096 0.90207 0.0
Cd80 Cd 0.91477 0.21593 0.92453 0.0
O81 O 0.9161 0.20004 0.94658 0.0
C82 C 0.92092 0.20525 0.95996 0.0
O83 O 0.92526 0.22032 0.96028 0.0
C84 C 0.90577 0.22559 0.88911 0.0
C85 C 0.89123 0.28389 0.87697 0.0
O86 O 0.89665 0.27962 0.86356 0.0
O87 O 0.89713 0.27765 0.8903 0.0
O88 O 0.28451 0.04843 0.37767 0.0
Cd89 Cd 0.25829 0.0313 0.37554 0.0
O90 O 0.27108 0.06868 0.38343 0.0
Cd91 Cd 0.24528 0.05769 0.3812 0.0
O92 O 0.21783 0.05667 0.37704 0.0
C93 C 0.20774 0.058 0.38872 0.0
O94 O 0.21402 0.05913 0.40341 0.0
C95 C 0.28492 0.06258 0.38112 0.0
C96 C 0.26526 -8e-05 0.37681 0.0
O97 O 0.26591 0.00865 0.36335 0.0
O98 O 0.26118 0.006 0.38973 0.0
O99 O 0.17956 0.99028 0.61265 0.0
Cd100 Cd 0.20104 0.97579 0.60041 0.0
O101 O 0.1829 0.00895 0.59258 0.0
Cd102 Cd 0.20806 0.00287 0.58566 0.0
O103 O 0.23478 0.01211 0.58645 0.0
C104 C 0.2429 0.01068 0.59981 0.0
O105 O 0.23545 0.00244 0.61238 0.0
C106 C 0.1748 0.00275 0.60515 0.0
C107 C 0.19358 0.94324 0.60203 0.0
O108 O 0.20435 0.94942 0.61181 0.0
O109 O 0.18613 0.95239 0.59171 0.0
O110 O 0.1841 0.98297 0.91748 0.0
Cd111 Cd 0.20681 0.00306 0.92265 0.0
O112 O 0.17731 0.99564 0.89432 0.0
Cd113 Cd 0.18901 0.01823 0.90091 0.0
O114 O 0.18992 0.04247 0.90739 0.0
C115 C 0.18298 0.0524 0.89773 0.0
O116 O 0.1763 0.04783 0.88411 0.0
C117 C 0.176 0.98329 0.90409 0.0
C118 C 0.23657 0.99303 0.91026 0.0
O119 O 0.23163 0.98878 0.92489 0.0
O120 O 0.22779 0.00256 0.90163 0.0
O121 O 0.3018 0.93328 0.15184 0.0
Cd122 Cd 0.28118 0.95143 0.15869 0.0
O123 O 0.29198 0.93246 0.12686 0.0
Cd124 Cd 0.26824 0.94257 0.13188 0.0
O125 O 0.2405 0.94052 0.13459 0.0
C126 C 0.23297 0.92725 0.13216 0.0
O127 O 0.24219 0.91609 0.12828 0.0
C128 C 0.30299 0.92888 0.1376 0.0
C129 C 0.29563 0.98241 0.1548 0.0
O130 O 0.29624 0.9742 0.16852 0.0
O131 O 0.28808 0.97599 0.14296 0.0
O132 O 0.39051 0.29672 0.0722 0.0
Cd133 Cd 0.38899 0.27294 0.05798 0.0
O134 O 0.39761 0.28748 0.09682 0.0
Cd135 Cd 0.39479 0.26319 0.09063 0.0
O136 O 0.38837 0.23783 0.09242 0.0
C137 C 0.38829 0.23085 0.10668 0.0
O138 O 0.39224 0.23914 0.11901 0.0
C139 C 0.39444 0.29899 0.08682 0.0
C140 C 0.38811 0.28334 0.02498 0.0
O141 O 0.37438 0.28045 0.03338 0.0
O142 O 0.40225 0.2806 0.03201 0.0
O143 O 0.88792 0.93849 0.22748 0.0
Cd144 Cd 0.8938 0.95271 0.25155 0.0
O145 O 0.91396 0.9315 0.22876 0.0
Cd146 Cd 0.93676 0.92035 0.22248 0.0
O147 O 0.96024 0.9143 0.21159 0.0
C148 C 0.97198 0.9252 0.20835 0.0
O149 O 0.96956 0.93942 0.21196 0.0
C150 C 0.89961 0.93142 0.22151 0.0
C151 C 0.89341 0.93357 0.28074 0.0
O152 O 0.8798 0.9392 0.27509 0.0
O153 O 0.90717 0.93681 0.27245 0.0
O154 O 0.16053 0.65113 0.54601 0.0
Cd155 Cd 0.1656 0.67222 0.52414 0.0
O156 O 0.14097 0.63751 0.53263 0.0
Cd157 Cd 0.14277 0.65131 0.50899 0.0
O158 O 0.13699 0.65428 0.4829 0.0
C159 C 0.14356 0.64554 0.47343 0.0
O160 O 0.15435 0.63573 0.47949 0.0
C161 C 0.14961 0.6394 0.5455 0.0
C162 C 0.16767 0.7017 0.53641 0.0
O163 O 0.15338 0.6951 0.532 0.0
O164 O 0.18103 0.69441 0.53495 0.0
O165 O 0.93927 0.52663 0.71944 0.0
Cd166 Cd 0.95732 0.50666 0.7307 0.0
O167 O 0.93783 0.53795 0.74214 0.0
Cd168 Cd 0.92984 0.55482 0.75841 0.0
O169 O 0.92459 0.57168 0.77572 0.0
C170 C 0.91578 0.56734 0.78845 0.0
O171 O 0.90966 0.55263 0.79091 0.0
C172 C 0.93413 0.53751 0.72712 0.0
C173 C 0.98947 0.51302 0.71649 0.0
O174 O 0.97735 0.5055 0.70925 0.0
O175 O 0.98654 0.51722 0.73067 0.0
O176 O 0.11757 0.13753 0.48249 0.0
Cd177 Cd 0.12732 0.15492 0.50323 0.0
O178 O 0.1336 0.15012 0.4629 0.0
Cd179 Cd 0.14042 0.17117 0.47547 0.0
O180 O 0.14085 0.19679 0.47434 0.0
C181 C 0.15455 0.20572 0.47237 0.0
O182 O 0.16916 0.19944 0.47212 0.0
C183 C 0.12327 0.13856 0.46799 0.0
C184 C 0.1221 0.14012 0.53468 0.0
O185 O 0.11084 0.14829 0.52767 0.0
O186 O 0.13588 0.13898 0.52685 0.0
O187 O 0.54861 0.36261 0.1719 0.0
Cd188 Cd 0.52658 0.37188 0.18865 0.0
O189 O 0.56292 0.38563 0.16694 0.0
Cd190 Cd 0.5409 0.39689 0.17464 0.0
O191 O 0.5146 0.40288 0.17143 0.0
C192 C 0.50617 0.39581 0.16067 0.0
O193 O 0.51366 0.38562 0.15283 0.0
C194 C 0.56162 0.37091 0.16596 0.0
C195 C 0.53889 0.37749 0.2197 0.0
O196 O 0.53266 0.36381 0.2166 0.0
O197 O 0.53922 0.38851 0.20816 0.0
O198 O 0.37181 0.80323 0.92255 0.0
Cd199 Cd 0.37801 0.78165 0.94252 0.0
O200 O 0.39841 0.81323 0.92003 0.0
Cd201 Cd 0.40628 0.79784 0.94061 0.0
O202 O 0.40657 0.79599 0.96715 0.0
C203 C 0.39387 0.80142 0.97342 0.0
O204 O 0.38189 0.80658 0.96371 0.0
C205 C 0.38285 0.81343 0.91585 0.0
C206 C 0.36824 0.75243 0.93164 0.0
O207 O 0.35783 0.75958 0.93958 0.0
O208 O 0.38324 0.75913 0.92886 0.0
O209 O 0.91678 0.37979 0.75649 0.0
Cd210 Cd 0.93932 0.38143 0.73611 0.0
O211 O 0.92877 0.36307 0.77375 0.0
Cd212 Cd 0.9527 0.36429 0.76036 0.0
O213 O 0.98034 0.36776 0.76253 0.0
C214 C 0.9879 0.35681 0.77005 0.0
O215 O 0.97899 0.34358 0.77476 0.0
C216 C 0.91634 0.37113 0.76982 0.0
C217 C 0.92462 0.37699 0.70586 0.0
O218 O 0.92968 0.36545 0.71501 0.0
O219 O 0.92681 0.39068 0.7109 0.0
O220 O 0.39845 0.21807 0.54554 0.0
Cd221 Cd 0.40595 0.24076 0.52612 0.0
O222 O 0.42365 0.20888 0.54547 0.0
Cd223 Cd 0.43108 0.22359 0.52327 0.0
O224 O 0.43026 0.22173 0.49702 0.0
C225 C 0.44276 0.21702 0.48971 0.0
O226 O 0.45691 0.21491 0.49783 0.0
C227 C 0.40862 0.20822 0.5512 0.0
C228 C 0.39872 0.26812 0.53963 0.0
O229 O 0.3875 0.26056 0.53136 0.0
O230 O 0.41344 0.26286 0.54129 0.0
O231 O 0.56241 0.6206 0.33075 0.0
Cd232 Cd 0.53953 0.60771 0.31526 0.0
O233 O 0.54495 0.63259 0.34517 0.0
Cd234 Cd 0.52089 0.62327 0.33504 0.0
O235 O 0.49313 0.61891 0.33611 0.0
C236 C 0.48591 0.62553 0.34707 0.0
O237 O 0.49542 0.63436 0.35638 0.0
C238 C 0.56002 0.62973 0.34168 0.0
C239 C 0.55056 0.6024 0.28422 0.0
O240 O 0.54311 0.6147 0.28654 0.0
O241 O 0.55273 0.59261 0.29655 0.0
O242 O 0.15408 0.83321 0.04414 0.0
Cd243 Cd 0.16558 0.81718 0.02446 0.0
O244 O 0.1273 0.82798 0.03728 0.0
Cd245 Cd 0.13428 0.82091 0.01353 0.0
O246 O 0.13572 0.82696 0.98716 0.0
C247 C 0.12303 0.82321 0.97829 0.0
O248 O 0.10983 0.81476 0.98506 0.0
C249 C 0.13831 0.83394 0.04679 0.0
C250 C 0.16173 0.78539 0.03558 0.0
O251 O 0.17327 0.79473 0.0414 0.0
O252 O 0.15197 0.79096 0.02444 0.0
O253 O 0.70053 0.97255 0.58256 0.0
Cd254 Cd 0.72134 0.99178 0.56796 0.0
O255 O 0.70043 0.98335 0.60579 0.0
Cd256 Cd 0.72533 0.99542 0.60035 0.0
O257 O 0.75258 0.99331 0.59834 0.0
C258 C 0.75613 0.97997 0.59455 0.0
O259 O 0.74352 0.96957 0.59161 0.0
C260 C 0.69415 0.97324 0.59659 0.0
C261 C 0.7136 0.02277 0.5698 0.0
O262 O 0.70456 0.01353 0.5612 0.0
O263 O 0.72649 0.01754 0.5773 0.0
O264 O 0.79698 0.97448 0.3591 0.0
Cd265 Cd 0.77678 0.99236 0.34729 0.0
O266 O 0.77784 0.95963 0.37408 0.0
Cd267 Cd 0.7555 0.97073 0.36465 0.0
O268 O 0.72891 0.96624 0.35757 0.0
C269 C 0.71856 0.95995 0.3685 0.0
O270 O 0.72409 0.95763 0.38352 0.0
C271 C 0.79321 0.9629 0.3695 0.0
C272 C 0.78665 0.02337 0.35294 0.0
O273 O 0.7755 0.01512 0.36203 0.0
O274 O 0.79308 0.01698 0.34121 0.0
O275 O 0.80072 0.02052 0.11909 0.0
Cd276 Cd 0.77949 -2e-05 0.13008 0.0
O277 O 0.79756 0.03575 0.13872 0.0
Cd278 Cd 0.77291 0.02381 0.1461 0.0
O279 O 0.74521 0.02347 0.14794 0.0
C280 C 0.7377 0.03103 0.13647 0.0
O281 O 0.74681 0.03792 0.12416 0.0
C282 C 0.80561 0.0326 0.12627 0.0
C283 C 0.79326 0.97137 0.12806 0.0
O284 O 0.78279 0.97638 0.11727 0.0
O285 O 0.7968 0.97963 0.14002 0.0
O286 O 0.65449 0.01154 0.89786 0.0
Cd287 Cd 0.67611 0.99255 0.89911 0.0
O288 O 0.6716 0.03009 0.90758 0.0
Cd289 Cd 0.69467 0.01771 0.91 0.0
O290 O 0.72226 0.02332 0.90844 0.0
C291 C 0.72659 0.03786 0.9089 0.0
O292 O 0.71458 0.04731 0.9106 0.0
C293 C 0.65711 0.02542 0.90209 0.0
C294 C 0.66399 0.96141 0.90788 0.0
O295 O 0.67141 0.96985 0.91832 0.0
O296 O 0.66198 0.96774 0.89341 0.0
O297 O 0.63395 0.63685 0.98592 0.0
Cd298 Cd 0.64478 0.65342 0.00698 0.0
O299 O 0.62032 0.6553 0.97249 0.0
Cd300 Cd 0.62954 0.6753 0.98578 0.0
O301 O 0.63405 0.70089 0.98512 0.0
C302 C 0.62164 0.7086 0.98025 0.0
O303 O 0.60709 0.70083 0.97701 0.0
C304 C 0.62422 0.64119 0.97432 0.0
C305 C 0.63762 0.63875 0.03816 0.0
O306 O 0.62729 0.64775 0.03087 0.0
O307 O 0.65141 0.63672 0.03074 0.0
O308 O 0.05742 0.12483 0.82954 0.0
Cd309 Cd 0.03367 0.11456 0.81315 0.0
O310 O 0.05218 0.10637 0.84953 0.0
Cd311 Cd 0.02668 0.09958 0.84062 0.0
O312 O -0.00112 0.09881 0.84197 0.0
C313 C -0.0071 0.10849 0.85074 0.0
O314 O 0.00359 0.11831 0.85785 0.0
C315 C 0.06162 0.118 0.84311 0.0
C316 C 0.04456 0.10822 0.78238 0.0
O317 O 0.03849 0.12125 0.78453 0.0
O318 O 0.04543 0.0982 0.79475 0.0
O319 O 0.85883 0.31242 0.41337 0.0
Cd320 Cd 0.85846 0.29085 0.43491 0.0
O321 O 0.88653 0.3183 0.41423 0.0
Cd322 Cd 0.88838 0.30264 0.43631 0.0
O323 O 0.88303 0.30245 0.46225 0.0
C324 C 0.87344 0.31296 0.46544 0.0
O325 O 0.86761 0.3219 0.45326 0.0
C326 C 0.87211 0.32064 0.40788 0.0
C327 C 0.85203 0.26161 0.42291 0.0
O328 O 0.83982 0.26903 0.42771 0.0
O329 O 0.86726 0.26806 0.42378 0.0
O330 O 0.53743 0.88748 0.82532 0.0
Cd331 Cd 0.51583 0.89379 0.80489 0.0
O332 O 0.51902 0.87239 0.84089 0.0
Cd333 Cd 0.49619 0.87946 0.82801 0.0
O334 O 0.47007 0.88633 0.8265 0.0
C335 C 0.4673 0.90052 0.82773 0.0
O336 O 0.48038 0.91093 0.82887 0.0
C337 C 0.53426 0.87795 0.83783 0.0
C338 C 0.52806 0.88998 0.77385 0.0
O339 O 0.52989 0.90329 0.77981 0.0
O340 O 0.52022 0.87849 0.7825 0.0
O341 O 0.917 0.09381 0.27054 0.0
Cd342 Cd 0.93595 0.08003 0.25462 0.0
O343 O 0.8931 0.08337 0.26066 0.0
Cd344 Cd 0.90579 0.07629 0.23935 0.0
O345 O 0.91059 0.07931 0.21311 0.0
C346 C 0.91505 0.09314 0.20703 0.0
O347 O 0.91742 0.10435 0.21686 0.0
C348 C 0.90084 0.09158 0.27094 0.0
C349 C 0.96396 0.07426 0.27448 0.0
O350 O 0.96482 0.08569 0.26335 0.0
O351 O 0.95013 0.06527 0.27584 0.0
O352 O 0.55479 0.17255 0.6725 0.0
Cd353 Cd 0.53062 0.1732 0.69094 0.0
O354 O 0.5412 0.1558 0.6572 0.0
Cd355 Cd 0.5158 0.15504 0.66792 0.0
O356 O 0.48847 0.14855 0.66559 0.0
C357 C 0.48388 0.13413 0.66463 0.0
O358 O 0.49551 0.12401 0.66615 0.0
C359 C 0.55472 0.164 0.66068 0.0
C360 C 0.5395 0.16421 0.72316 0.0
O361 O 0.53309 0.15413 0.71379 0.0
O362 O 0.54162 0.17856 0.71733 0.0
O363 O 0.15024 0.33 0.96822 0.0
Cd364 Cd 0.15417 0.31433 0.99394 0.0
O365 O 0.1525 0.35417 0.97548 0.0
Cd366 Cd 0.1541 0.34828 0.00183 0.0
O367 O 0.15005 0.35269 0.02728 0.0
C368 C 0.13576 0.34836 0.03407 0.0
O369 O 0.12408 0.34047 0.02591 0.0
C370 C 0.15048 0.34469 0.9645 0.0
C371 C 0.15725 0.28369 0.98612 0.0
O372 O 0.14264 0.28863 0.98843 0.0
O373 O 0.17051 0.29306 0.98807 0.0
O374 O 0.40253 0.73486 0.38723 0.0
Cd375 Cd 0.41398 0.76128 0.39271 0.0
O376 O 0.40905 0.72838 0.41262 0.0
Cd377 Cd 0.41216 0.71194 0.43397 0.0
O378 O 0.41624 0.69731 0.45641 0.0
C379 C 0.42395 0.70328 0.46826 0.0
O380 O 0.42941 0.7182 0.46667 0.0
C381 C 0.40286 0.72447 0.39915 0.0
C382 C 0.39033 0.78379 0.38958 0.0
O383 O 0.40024 0.78188 0.37777 0.0
O384 O 0.39142 0.7749 0.4028 0.0
O385 O 0.77998 0.54948 0.88505 0.0
Cd386 Cd 0.75459 0.53097 0.88862 0.0
O387 O 0.77428 0.5615 0.90659 0.0
Cd388 Cd 0.74827 0.5506 0.90934 0.0
O389 O 0.72061 0.55134 0.90848 0.0
C390 C 0.71126 0.54304 0.89938 0.0
O391 O 0.7183 0.53309 0.89086 0.0
C392 C 0.78423 0.55966 0.89495 0.0
C393 C 0.76307 0.50024 0.88712 0.0
O394 O 0.75889 0.50859 0.8743 0.0
O395 O 0.76306 0.50637 0.90073 0.0
O396 O 0.68787 0.48691 0.11687 0.0
Cd397 Cd 0.70878 0.47147 0.10521 0.0
O398 O 0.69484 0.5067 0.09867 0.0
Cd399 Cd 0.72009 0.49943 0.09378 0.0
O400 O 0.74682 0.50832 0.09625 0.0
C401 C 0.74884 0.52308 0.09684 0.0
O402 O 0.73533 0.53108 0.09551 0.0
C403 C 0.68497 0.50023 0.10992 0.0
C404 C 0.69809 0.43957 0.10516 0.0
O405 O 0.70886 0.44442 0.11569 0.0
O406 O 0.69223 0.44974 0.09478 0.0
O407 O 0.69286 0.50149 0.39298 0.0
Cd408 Cd 0.71636 0.52052 0.39901 0.0
O409 O 0.68503 0.51566 0.37113 0.0
Cd410 Cd 0.69834 0.5374 0.37825 0.0
O411 O 0.69963 0.56147 0.38527 0.0
C412 C 0.68536 0.56693 0.38723 0.0
O413 O 0.67134 0.55792 0.38507 0.0
C414 C 0.68386 0.50284 0.38017 0.0
C415 C 0.74624 0.50908 0.38859 0.0
O416 O 0.74014 0.50501 0.40286 0.0
O417 O 0.73852 0.519 0.37937 0.0
O418 O 0.80482 0.45486 0.65641 0.0
Cd419 Cd 0.79094 0.47573 0.66807 0.0
O420 O 0.78122 0.45077 0.64273 0.0
Cd421 Cd 0.76284 0.43836 0.62735 0.0
O422 O 0.738 0.42973 0.61814 0.0
C423 C 0.72602 0.42743 0.62856 0.0
O424 O 0.7295 0.42989 0.64378 0.0
C425 C 0.79621 0.44715 0.64626 0.0
C426 C 0.80786 0.50552 0.66186 0.0
O427 O 0.8107 0.49691 0.67493 0.0
O428 O 0.79718 0.49995 0.65163 0.0
O429 O 0.43225 0.01356 0.22909 0.0
Cd430 Cd 0.45482 0.00144 0.2447 0.0
O431 O 0.43118 0.02904 0.2486 0.0
Cd432 Cd 0.42415 0.04783 0.26295 0.0
O433 O 0.42333 0.06466 0.28127 0.0
C434 C 0.4095 0.06932 0.28613 0.0
O435 O 0.39503 0.06413 0.27969 0.0
C436 C 0.42617 0.02524 0.23466 0.0
C437 C 0.4856 0.01007 0.22848 0.0
O438 O 0.47748 0.99673 0.22691 0.0
O439 O 0.47938 0.01914 0.23799 0.0
O440 O 0.0701 0.87664 0.67582 0.0
Cd441 Cd 0.04953 0.88791 0.69246 0.0
O442 O 0.05024 0.86361 0.66236 0.0
Cd443 Cd 0.02889 0.87409 0.67255 0.0
O444 O 0.00504 0.88526 0.67022 0.0
C445 C 0.99181 0.87711 0.66595 0.0
O446 O -0.00715 0.86217 0.66424 0.0
C447 C 0.06591 0.86712 0.66525 0.0
C448 C 0.0583 0.88466 0.72539 0.0
O449 O 0.04818 0.87429 0.71923 0.0
O450 O 0.06417 0.89656 0.71599 0.0
O451 O 0.41241 0.8571 0.27353 0.0
Cd452 Cd 0.43862 0.8569 0.25785 0.0
O453 O 0.41039 0.88222 0.26695 0.0
Cd454 Cd 0.43639 0.88564 0.25767 0.0
O455 O 0.46349 0.88792 0.26344 0.0
C456 C 0.46662 0.88464 0.27843 0.0
O457 O 0.45377 0.88012 0.28834 0.0
C458 C 0.40417 0.86917 0.27383 0.0
C459 C 0.43048 0.8544 0.22519 0.0
O460 O 0.43248 0.8422 0.23488 0.0
O461 O 0.43262 0.8678 0.2309 0.0
O462 O 0.90191 0.72316 0.04062 0.0
Cd463 Cd 0.90727 0.74609 0.02101 0.0
O464 O 0.92756 0.71514 0.03907 0.0
Cd465 Cd 0.93251 0.72968 0.01625 0.0
O466 O 0.9287 0.7273 0.99028 0.0
C467 C 0.94023 0.72226 0.98191 0.0
O468 O 0.95509 0.72011 0.98868 0.0
C469 C 0.9129 0.71387 0.04568 0.0
C470 C 0.9003 0.77297 0.03555 0.0
O471 O 0.88865 0.7651 0.02806 0.0
O472 O 0.91533 0.76827 0.03592 0.0
O473 O 0.66079 0.31404 0.53752 0.0
Cd474 Cd 0.67232 0.29266 0.52468 0.0
O475 O 0.65329 0.32357 0.51328 0.0
Cd476 Cd 0.64282 0.33976 0.49446 0.0
O477 O 0.63268 0.35132 0.47214 0.0
C478 C 0.6419 0.36143 0.46315 0.0
O479 O 0.65761 0.36529 0.46768 0.0
C480 C 0.65369 0.32444 0.52862 0.0
C481 C 0.67098 0.26442 0.54437 0.0
O482 O 0.68444 0.27395 0.54374 0.0
O483 O 0.65808 0.26835 0.5359 0.0
O484 O 0.20469 0.49464 0.098 0.0
Cd485 Cd 0.2295 0.51316 0.09101 0.0
O486 O 0.20564 0.48235 0.07581 0.0
Cd487 Cd 0.23136 0.49316 0.07065 0.0
O488 O 0.25843 0.49152 0.0758 0.0
C489 C 0.26597 0.48157 0.06865 0.0
O490 O 0.25758 0.47387 0.05762 0.0
C491 C 0.1982 0.48443 0.08899 0.0
C492 C 0.21992 0.54377 0.08639 0.0
O493 O 0.22064 0.53538 0.07436 0.0
O494 O 0.22389 0.53772 0.10053 0.0
O495 O 0.29429 0.46526 0.8735 0.0
Cd496 Cd 0.27392 0.48407 0.86418 0.0
O497 O 0.29224 0.45405 0.85054 0.0
Cd498 Cd 0.2687 0.46439 0.84348 0.0
O499 O 0.24123 0.45845 0.84269 0.0
C500 C 0.23619 0.44595 0.85135 0.0
O501 O 0.24748 0.43844 0.86001 0.0
C502 C 0.2993 0.45544 0.8643 0.0
C503 C 0.2861 0.51485 0.86864 0.0
O504 O 0.27584 0.507 0.87894 0.0
O505 O 0.29061 0.50816 0.85627 0.0
O506 O 0.31384 0.52377 0.62859 0.0
Cd507 Cd 0.29223 0.50313 0.63844 0.0
O508 O 0.31057 0.53856 0.64859 0.0
Cd509 Cd 0.2856 0.52696 0.65541 0.0
O510 O 0.25805 0.52798 0.65706 0.0
C511 C 0.25056 0.53402 0.64464 0.0
O512 O 0.25954 0.53856 0.63142 0.0
C513 C 0.31876 0.53559 0.63616 0.0
C514 C 0.30464 0.47451 0.63332 0.0
O515 O 0.29424 0.48079 0.62323 0.0
O516 O 0.30879 0.48154 0.64602 0.0
O517 O 0.17715 0.52317 0.38419 0.0
Cd518 Cd 0.19746 0.50382 0.39157 0.0
O519 O 0.15967 0.5162 0.40479 0.0
Cd520 Cd 0.17012 0.49347 0.41006 0.0
O521 O 0.17114 0.46794 0.41257 0.0
C522 C 0.15722 0.45966 0.41065 0.0
O523 O 0.14333 0.46679 0.40739 0.0
C524 C 0.16431 0.52564 0.39257 0.0
C525 C 0.22985 0.51997 0.39126 0.0
O526 O 0.22396 0.51365 0.37865 0.0
O527 O 0.22064 0.51823 0.40417 0.0
C528 C 0.09201 0.38713 0.1489 0.0
N529 N 0.10183 0.39347 0.13614 0.0
N530 N 0.08956 0.39808 0.1593 0.0
C531 C 0.08419 0.37052 0.15089 0.0
C532 C 0.09828 0.41126 0.15247 0.0
N533 N 0.10563 0.40849 0.13835 0.0
C534 C 0.1008 0.42646 0.16029 0.0
H535 H 0.07237 0.3696 0.1583 0.0
H536 H 0.09339 0.36303 0.15724 0.0
H537 H 0.08125 0.36611 0.13885 0.0
H538 H 0.11352 0.43255 0.15724 0.0
H539 H 0.0995 0.4245 0.17372 0.0
H540 H 0.09096 0.43418 0.1556 0.0
C541 C 0.89383 0.86604 0.40108 0.0
N542 N 0.88681 0.87815 0.39272 0.0
N543 N 0.88685 0.86318 0.41616 0.0
C544 C 0.9081 0.85763 0.3949 0.0
C545 C 0.87528 0.87394 0.4166 0.0
N546 N 0.87535 0.88307 0.4024 0.0
C547 C 0.86294 0.87467 0.43033 0.0
H548 H 0.90259 0.84754 0.38853 0.0
H549 H 0.91608 0.85313 0.40511 0.0
H550 H 0.91618 0.86549 0.38612 0.0
H551 H 0.86863 0.88287 0.43891 0.0
H552 H 0.8602 0.86298 0.43706 0.0
H553 H 0.8508 0.87903 0.42572 0.0
C554 C 0.42864 0.63521 0.5879 0.0
N555 N 0.4209 0.62354 0.59807 0.0
N556 N 0.42146 0.6353 0.57293 0.0
C557 C 0.44217 0.64722 0.59293 0.0
C558 C 0.40913 0.62332 0.57435 0.0
N559 N 0.40874 0.61619 0.58963 0.0
C560 C 0.39779 0.61839 0.56064 0.0
H561 H 0.44 0.64993 0.60563 0.0
H562 H 0.44251 0.65815 0.58468 0.0
H563 H 0.45474 0.64236 0.59245 0.0
H564 H 0.40442 0.62115 0.54876 0.0
H565 H 0.38623 0.62493 0.56039 0.0
H566 H 0.39379 0.60567 0.56233 0.0
C567 C 0.58133 0.13435 0.84896 0.0
N568 N 0.5882 0.12477 0.86069 0.0
N569 N 0.57938 0.12726 0.83494 0.0
C570 C 0.57772 0.15098 0.85079 0.0
C571 C 0.58528 0.11303 0.83859 0.0
N572 N 0.59067 0.11152 0.85422 0.0
C573 C 0.58486 0.10031 0.82716 0.0
H574 H 0.56444 0.15108 0.85517 0.0
H575 H 0.57905 0.1582 0.83896 0.0
H576 H 0.58643 0.15626 0.85982 0.0
H577 H 0.59703 0.10138 0.82029 0.0
H578 H 0.57427 0.10142 0.81829 0.0
H579 H 0.58336 0.08856 0.83398 0.0
C580 C 0.09416 0.64236 0.3485 0.0
N581 N 0.1015 0.63274 0.35987 0.0
N582 N 0.09032 0.63486 0.33503 0.0
C583 C 0.09017 0.6588 0.35071 0.0
C584 C 0.09568 0.62042 0.33851 0.0
N585 N 0.1024 0.61907 0.35368 0.0
C586 C 0.09555 0.60816 0.32656 0.0
H587 H 0.07929 0.66215 0.34293 0.0
H588 H 0.10148 0.66693 0.3471 0.0
H589 H 0.0872 0.66006 0.36365 0.0
H590 H 0.09562 0.61358 0.31383 0.0
H591 H 0.08379 0.60015 0.32841 0.0
H592 H 0.10672 0.60118 0.32841 0.0
C593 C 0.58718 0.87516 0.65551 0.0
N594 N 0.5986 0.8813 0.64394 0.0
N595 N 0.58847 0.88353 0.6687 0.0
C596 C 0.57538 0.86064 0.65429 0.0
C597 C 0.60096 0.89501 0.66471 0.0
N598 N 0.60714 0.8936 0.64972 0.0
C599 C 0.60625 0.90823 0.67495 0.0
H600 H 0.56336 0.86398 0.64839 0.0
H601 H 0.57227 0.85473 0.66655 0.0
H602 H 0.58114 0.85239 0.64676 0.0
H603 H 0.61691 0.9048 0.68296 0.0
H604 H 0.59556 0.91079 0.68274 0.0
H605 H 0.61069 0.91902 0.66723 0.0
C606 C 0.39284 0.35516 0.90741 0.0
N607 N 0.38645 0.36684 0.89781 0.0
N608 N 0.38438 0.35283 0.9218 0.0
C609 C 0.40734 0.34621 0.9027 0.0
C610 C 0.3726 0.36347 0.92057 0.0
N611 N 0.37383 0.37195 0.90594 0.0
C612 C 0.35969 0.3654 0.93347 0.0
H613 H 0.40849 0.33549 0.91101 0.0
H614 H 0.4194 0.35383 0.90314 0.0
H615 H 0.40561 0.34302 0.89001 0.0
H616 H 0.36402 0.36131 0.94579 0.0
H617 H 0.34769 0.35833 0.93088 0.0
H618 H 0.35688 0.37784 0.93333 0.0
C619 C 0.91501 0.1319 0.07642 0.0
N620 N 0.90715 0.1203 0.08658 0.0
N621 N 0.90811 0.13184 0.06133 0.0
C622 C 0.92836 0.14406 0.08152 0.0
C623 C 0.89582 0.1198 0.06268 0.0
N624 N 0.89519 0.11282 0.07804 0.0
C625 C 0.88495 0.11449 0.04881 0.0
H626 H 0.92776 0.15531 0.07392 0.0
H627 H 0.94112 0.13985 0.07991 0.0
H628 H 0.92683 0.14603 0.09453 0.0
H629 H 0.89183 0.11724 0.03705 0.0
H630 H 0.87319 0.12076 0.04821 0.0
H631 H 0.88124 0.10172 0.05061 0.0
C632 C 0.0584 0.07807 0.37164 0.0
N633 N 0.07411 0.07792 0.37839 0.0
N634 N 0.05817 0.07208 0.35694 0.0
C635 C 0.04303 0.08302 0.37994 0.0
C636 C 0.07434 0.06821 0.35507 0.0
N637 N 0.08395 0.0717 0.36811 0.0
C638 C 0.08121 0.06249 0.33988 0.0
H639 H 0.04423 0.08106 0.39337 0.0
H640 H 0.03121 0.07646 0.37597 0.0
H641 H 0.042 0.0957 0.37671 0.0
H642 H 0.09507 0.06592 0.33849 0.0
H643 H 0.07449 0.06723 0.32892 0.0
H644 H 0.07926 0.04952 0.34074 0.0
C645 C 0.17549 0.81724 0.58636 0.0
N646 N 0.16786 0.82776 0.59456 0.0
N647 N 0.16582 0.80337 0.5871 0.0
C648 C 0.19281 0.8201 0.57858 0.0
C649 C 0.15203 0.80582 0.59595 0.0
N650 N 0.1533 0.82058 0.60053 0.0
C651 C 0.13669 0.79424 0.59896 0.0
H652 H 0.19136 0.82464 0.56567 0.0
H653 H 0.19914 0.80904 0.57884 0.0
H654 H 0.20097 0.82886 0.58484 0.0
H655 H 0.13857 0.78691 0.61049 0.0
H656 H 0.13499 0.78644 0.58896 0.0
H657 H 0.12494 0.80032 0.60012 0.0
C658 C 0.34072 0.9366 0.85604 0.0
N659 N 0.34945 0.92367 0.85687 0.0
N660 N 0.32568 0.93354 0.86411 0.0
C661 C 0.34747 0.95248 0.84858 0.0
C662 C 0.32566 0.9183 0.86995 0.0
N663 N 0.34015 0.91233 0.8656 0.0
C664 C 0.31208 0.90967 0.88089 0.0
H665 H 0.35689 0.95776 0.85701 0.0
H666 H 0.33708 0.96033 0.84635 0.0
H667 H 0.3541 0.95146 0.83695 0.0
H668 H 0.29923 0.91179 0.87611 0.0
H669 H 0.31317 0.91411 0.89312 0.0
H670 H 0.31322 0.89686 0.88207 0.0
C671 C 0.35184 0.10427 0.13339 0.0
N672 N 0.35432 0.09113 0.14313 0.0
N673 N 0.36365 0.11603 0.13651 0.0
C674 C 0.33861 0.10534 0.12023 0.0
C675 C 0.37329 0.1096 0.14856 0.0
N676 N 0.36767 0.09447 0.15251 0.0
C677 C 0.38737 0.11842 0.15729 0.0
H678 H 0.33582 0.09387 0.11517 0.0
H679 H 0.34284 0.11436 0.11029 0.0
H680 H 0.32667 0.1087 0.12553 0.0
H681 H 0.38514 0.131 0.15717 0.0
H682 H 0.39962 0.11752 0.15101 0.0
H683 H 0.38846 0.11341 0.17008 0.0
C684 C 0.08013 0.89577 0.1384 0.0
N685 N 0.09652 0.89578 0.13369 0.0
N686 N 0.07894 0.90499 0.15077 0.0
C687 C 0.06546 0.88604 0.13158 0.0
C688 C 0.09526 0.91056 0.15341 0.0
N689 N 0.10597 0.90489 0.14303 0.0
C690 C 0.10054 0.9224 0.16524 0.0
H691 H 0.05999 0.89295 0.12113 0.0
H692 H 0.05533 0.88282 0.14087 0.0
H693 H 0.06978 0.87523 0.12714 0.0
H694 H 0.10389 0.91613 0.17702 0.0
H695 H 0.09 0.92975 0.16739 0.0
H696 H 0.11188 0.93005 0.1607 0.0
C697 C 0.30514 0.87978 0.37996 0.0
N698 N 0.31374 0.87046 0.37116 0.0
N699 N 0.29957 0.89179 0.3702 0.0
C700 C 0.30266 0.87753 0.39808 0.0
C701 C 0.30535 0.88958 0.35521 0.0
N702 N 0.31389 0.87657 0.35578 0.0
C703 C 0.30466 0.90117 0.34045 0.0
H704 H 0.29082 0.88253 0.40159 0.0
H705 H 0.31359 0.88375 0.40403 0.0
H706 H 0.30211 0.86493 0.40246 0.0
H707 H 0.31757 0.90376 0.33502 0.0
H708 H 0.2997 0.91228 0.34334 0.0
H709 H 0.2963 0.89588 0.33118 0.0
C710 C 0.35763 0.08648 0.62642 0.0
N711 N 0.36776 0.09992 0.62336 0.0
N712 N 0.34352 0.08668 0.61695 0.0
C713 C 0.36171 0.07312 0.63841 0.0
C714 C 0.34548 0.10068 0.60796 0.0
N715 N 0.36028 0.1087 0.6118 0.0
C716 C 0.33319 0.10627 0.59513 0.0
H717 H 0.35356 0.06225 0.63666 0.0
H718 H 0.35964 0.07636 0.65093 0.0
H719 H 0.37533 0.07093 0.63733 0.0
H720 H 0.3199 0.10185 0.59831 0.0
H721 H 0.33637 0.10176 0.58343 0.0
H722 H 0.33404 0.11926 0.59343 0.0
C723 C 0.16888 0.17129 0.93345 0.0
N724 N 0.16172 0.16075 0.92363 0.0
N725 N 0.16045 0.18445 0.93219 0.0
C726 C 0.18378 0.16851 0.94449 0.0
C727 C 0.14787 0.18147 0.92133 0.0
N728 N 0.1486 0.16703 0.91619 0.0
C729 C 0.13448 0.19241 0.91623 0.0
H730 H 0.18124 0.15717 0.95195 0.0
H731 H 0.18648 0.17805 0.95256 0.0
H732 H 0.19525 0.16767 0.93699 0.0
H733 H 0.12946 0.19029 0.90395 0.0
H734 H 0.13952 0.20483 0.91613 0.0
H735 H 0.12379 0.1904 0.92508 0.0
C736 C 0.81678 0.38701 0.87628 0.0
N737 N 0.82662 0.37917 0.86694 0.0
N738 N 0.81353 0.40094 0.86838 0.0
C739 C 0.81161 0.38168 0.89352 0.0
C740 C 0.82169 0.40125 0.85394 0.0
N741 N 0.82967 0.38807 0.85309 0.0
C742 C 0.82159 0.41434 0.84057 0.0
H743 H 0.80906 0.39174 0.90042 0.0
H744 H 0.82163 0.37509 0.8998 0.0
H745 H 0.79978 0.3737 0.89334 0.0
H746 H 0.83251 0.42307 0.84229 0.0
H747 H 0.80966 0.42031 0.84093 0.0
H748 H 0.82288 0.40985 0.82847 0.0
C749 C 0.87111 0.58986 0.12133 0.0
N750 N 0.88078 0.6036 0.11827 0.0
N751 N 0.85727 0.58941 0.11145 0.0
C752 C 0.87568 0.57658 0.13316 0.0
C753 C 0.85881 0.6034 0.10243 0.0
N754 N 0.87314 0.61198 0.1065 0.0
C755 C 0.84568 0.60913 0.09052 0.0
H756 H 0.87025 0.56517 0.12928 0.0
H757 H 0.87035 0.57811 0.14528 0.0
H758 H 0.88972 0.5765 0.13435 0.0
H759 H 0.83274 0.60383 0.09404 0.0
H760 H 0.84865 0.60568 0.07826 0.0
H761 H 0.84576 0.62207 0.0898 0.0
C762 C 0.67404 0.68627 0.42333 0.0
N763 N 0.66715 0.67561 0.41349 0.0
N764 N 0.6644 0.69862 0.42319 0.0
C765 C 0.69052 0.685 0.43242 0.0
C766 C 0.65137 0.69501 0.41301 0.0
N767 N 0.65311 0.6811 0.40705 0.0
C768 C 0.63616 0.70436 0.41007 0.0
H769 H 0.68781 0.67879 0.44462 0.0
H770 H 0.69685 0.69678 0.43406 0.0
H771 H 0.69924 0.67821 0.42589 0.0
H772 H 0.63865 0.7128 0.3992 0.0
H773 H 0.63378 0.71102 0.42063 0.0
H774 H 0.62455 0.69664 0.40773 0.0
C775 C 0.85238 0.44855 0.34352 0.0
N776 N 0.86013 0.43505 0.34523 0.0
N777 N 0.8364 0.44631 0.34985 0.0
C778 C 0.86086 0.46412 0.33695 0.0
C779 C 0.8348 0.43099 0.35555 0.0
N780 N 0.84925 0.42418 0.35281 0.0
C781 C 0.81958 0.42304 0.36483 0.0
H782 H 0.85134 0.47268 0.33374 0.0
H783 H 0.8686 0.4628 0.32604 0.0
H784 H 0.86958 0.46872 0.34635 0.0
H785 H 0.81982 0.41013 0.36609 0.0
H786 H 0.8076 0.42594 0.35862 0.0
H787 H 0.81942 0.42736 0.37712 0.0
C788 C 0.56641 0.57686 0.8785 0.0
N789 N 0.58168 0.57527 0.8858 0.0
N790 N 0.56569 0.57008 0.86421 0.0
C791 C 0.55247 0.58551 0.88502 0.0
C792 C 0.58113 0.56434 0.86314 0.0
N793 N 0.59081 0.56755 0.87624 0.0
C794 C 0.5868 0.55585 0.84919 0.0
H795 H 0.55192 0.58388 0.89848 0.0
H796 H 0.53986 0.58149 0.88014 0.0
H797 H 0.55515 0.59822 0.88142 0.0
H798 H 0.58151 0.56078 0.83753 0.0
H799 H 0.58198 0.54333 0.8512 0.0
H800 H 0.60085 0.55641 0.84821 0.0
C801 C 0.8855 0.6509 0.89299 0.0
N802 N 0.8834 0.6404 0.88174 0.0
N803 N 0.90101 0.65898 0.89138 0.0
C804 C 0.87299 0.65233 0.90638 0.0
C805 C 0.90832 0.65294 0.87878 0.0
N806 N 0.89761 0.64156 0.87297 0.0
C807 C 0.92619 0.65754 0.87281 0.0
H808 H 0.87536 0.6637 0.91174 0.0
H809 H 0.87426 0.64269 0.91607 0.0
H810 H 0.85974 0.65122 0.90174 0.0
H811 H 0.93508 0.6505 0.88021 0.0
H812 H 0.92987 0.67008 0.8742 0.0
H813 H 0.92752 0.65531 0.85985 0.0
C814 C 0.09086 0.09648 0.65952 0.0
N815 N 0.09838 0.08936 0.64778 0.0
N816 N 0.08775 0.08638 0.67293 0.0
C817 C 0.0857 0.11297 0.65768 0.0
C818 C 0.09359 0.07286 0.66895 0.0
N819 N 0.09995 0.07465 0.65363 0.0
C820 C 0.0942 0.05831 0.68041 0.0
H821 H 0.09658 0.12105 0.66118 0.0
H822 H 0.07476 0.11423 0.66574 0.0
H823 H 0.08224 0.1164 0.64487 0.0
H824 H 0.08277 0.05026 0.67836 0.0
H825 H 0.0942 0.06109 0.69329 0.0
H826 H 0.10566 0.05217 0.67808 0.0
C827 C 0.59079 0.39231 0.34213 0.0
N828 N 0.60016 0.40062 0.35276 0.0
N829 N 0.58876 0.40122 0.32798 0.0
C830 C 0.58394 0.37549 0.34533 0.0
C831 C 0.59717 0.4152 0.33037 0.0
N832 N 0.60396 0.41487 0.34546 0.0
C833 C 0.59973 0.42879 0.3176 0.0
H834 H 0.5935 0.36789 0.34129 0.0
H835 H 0.57203 0.37313 0.33838 0.0
H836 H 0.58145 0.37244 0.35852 0.0
H837 H 0.5997 0.44004 0.3232 0.0
H838 H 0.5897 0.42818 0.30812 0.0
H839 H 0.61232 0.42847 0.31173 0.0
C840 C 0.37685 0.8455 0.08814 0.0
N841 N 0.37856 0.85019 0.10331 0.0
N842 N 0.38858 0.83541 0.08544 0.0
C843 C 0.36392 0.85102 0.07592 0.0
C844 C 0.39756 0.8342 0.09947 0.0
N845 N 0.39153 0.84331 0.11033 0.0
C846 C 0.41207 0.82405 0.1025 0.0
H847 H 0.35114 0.84541 0.07958 0.0
H848 H 0.36673 0.848 0.06347 0.0
H849 H 0.36342 0.86388 0.07584 0.0
H850 H 0.42421 0.83113 0.09921 0.0
H851 H 0.41085 0.814 0.09491 0.0
H852 H 0.41264 0.81965 0.11554 0.0
C853 C 0.84716 0.35637 0.58099 0.0
N854 N 0.85084 0.36214 0.59546 0.0
N855 N 0.85909 0.34686 0.57714 0.0
C856 C 0.8328 0.36104 0.57 0.0
C857 C 0.87021 0.34715 0.58972 0.0
N858 N 0.86522 0.35651 0.60083 0.0
C859 C 0.88547 0.33776 0.59141 0.0
H860 H 0.82188 0.35204 0.57192 0.0
H861 H 0.8367 0.36166 0.55703 0.0
H862 H 0.82853 0.3725 0.57268 0.0
H863 H 0.89679 0.34503 0.58622 0.0
H864 H 0.88351 0.32713 0.5847 0.0
H865 H 0.88804 0.33428 0.60442 0.0
C866 C 0.39512 0.14213 0.40243 0.0
N867 N 0.39261 0.13232 0.39056 0.0
N868 N 0.41039 0.15061 0.40049 0.0
C869 C 0.3822 0.14424 0.41526 0.0
C870 C 0.41701 0.14569 0.38688 0.0
N871 N 0.40615 0.13457 0.38084 0.0
C872 C 0.43447 0.15094 0.3802 0.0
H873 H 0.3837 0.15632 0.41911 0.0
H874 H 0.3841 0.13591 0.42605 0.0
H875 H 0.36904 0.1418 0.4107 0.0
H876 H 0.44325 0.15456 0.39002 0.0
H877 H 0.43352 0.16116 0.37114 0.0
H878 H 0.43981 0.14149 0.37403 0.0
C879 C 0.59898 0.59416 0.16118 0.0
N880 N 0.60689 0.58719 0.14957 0.0
N881 N 0.5953 0.58385 0.17433 0.0
C882 C 0.59405 0.61072 0.15942 0.0
C883 C 0.60122 0.57038 0.17032 0.0
N884 N 0.60814 0.57238 0.15523 0.0
C885 C 0.60138 0.55565 0.18159 0.0
H886 H 0.60483 0.61861 0.16345 0.0
H887 H 0.58279 0.61195 0.1671 0.0
H888 H 0.59116 0.61442 0.14653 0.0
H889 H 0.58954 0.54808 0.17968 0.0
H890 H 0.6018 0.55834 0.19451 0.0
H891 H 0.61242 0.54904 0.17903 0.0
C892 C 0.09793 0.87002 0.85413 0.0
N893 N 0.10556 0.87656 0.86698 0.0
N894 N 0.09515 0.88121 0.842 0.0
C895 C 0.09219 0.85294 0.85375 0.0
C896 C 0.10137 0.89474 0.84788 0.0
N897 N 0.10752 0.89193 0.86309 0.0
C898 C 0.10261 0.91054 0.83831 0.0
H899 H 0.10293 0.84676 0.84957 0.0
H900 H 0.08139 0.85126 0.8452 0.0
H901 H 0.0883 0.84765 0.86608 0.0
H902 H 0.09108 0.91653 0.84074 0.0
H903 H 0.10331 0.90937 0.82504 0.0
H904 H 0.11394 0.91796 0.84199 0.0
C905 C 0.88192 0.9359 0.61506 0.0
N906 N 0.89118 0.92358 0.61349 0.0
N907 N 0.86888 0.93587 0.60426 0.0
C908 C 0.88577 0.9481 0.62681 0.0
C909 C 0.87046 0.923 0.59622 0.0
N910 N 0.88409 0.9156 0.60177 0.0
C911 C 0.85769 0.91681 0.58419 0.0
H912 H 0.87949 0.94404 0.63862 0.0
H913 H 0.88083 0.95936 0.6222 0.0
H914 H 0.8997 0.94992 0.62893 0.0
H915 H 0.86141 0.922 0.57179 0.0
H916 H 0.84472 0.92008 0.58681 0.0
H917 H 0.85735 0.90388 0.58435 0.0
C918 C 0.82424 0.14558 0.37709 0.0
N919 N 0.82747 0.13485 0.36674 0.0
N920 N 0.83413 0.1591 0.37341 0.0
C921 C 0.81092 0.1431 0.39025 0.0
C922 C 0.84355 0.15613 0.3605 0.0
N923 N 0.83941 0.14141 0.3564 0.0
C924 C 0.8578 0.1671 0.35288 0.0
H925 H 0.80588 0.15434 0.39262 0.0
H926 H 0.81677 0.13813 0.40162 0.0
H927 H 0.80027 0.1347 0.38689 0.0
H928 H 0.86342 0.17502 0.36176 0.0
H929 H 0.85266 0.17434 0.34249 0.0
H930 H 0.86796 0.16049 0.34823 0.0
C931 C 0.60323 0.0394 0.15846 0.0
N932 N 0.61396 0.04797 0.14771 0.0
N933 N 0.58814 0.04582 0.15891 0.0
C934 C 0.60771 0.02521 0.16911 0.0
C935 C 0.59012 0.05866 0.14806 0.0
N936 N 0.60592 0.06004 0.14136 0.0
C937 C 0.57688 0.07011 0.14436 0.0
H938 H 0.59612 0.01755 0.17293 0.0
H939 H 0.61429 0.02913 0.18017 0.0
H940 H 0.61645 0.0183 0.1628 0.0
H941 H 0.57961 0.08022 0.15171 0.0
H942 H 0.56383 0.06495 0.14743 0.0
H943 H 0.57734 0.07454 0.1313 0.0
C944 C 0.63619 0.83496 0.93919 0.0
N945 N 0.63049 0.84626 0.92857 0.0
N946 N 0.62875 0.8207 0.93618 0.0
C947 C 0.64937 0.83778 0.95207 0.0
C948 C 0.6183 0.8238 0.92339 0.0
N949 N 0.6195 0.83932 0.91867 0.0
C950 C 0.60588 0.81184 0.91646 0.0
H951 H 0.65653 0.82731 0.95485 0.0
H952 H 0.64287 0.84027 0.96334 0.0
H953 H 0.65837 0.84806 0.94819 0.0
H954 H 0.60213 0.80203 0.92575 0.0
H955 H 0.612 0.80703 0.90613 0.0
H956 H 0.59426 0.81722 0.91189 0.0
C957 C 0.85837 0.08797 0.88406 0.0
N958 N 0.8695 0.10091 0.88238 0.0
N959 N 0.84342 0.09143 0.8902 0.0
C960 C 0.86196 0.07205 0.87944 0.0
C961 C 0.84573 0.10692 0.8921 0.0
N962 N 0.8616 0.11275 0.88725 0.0
C963 C 0.83253 0.1162 0.89892 0.0
H964 H 0.87088 0.0731 0.86896 0.0
H965 H 0.85004 0.0651 0.87639 0.0
H966 H 0.868 0.06567 0.88994 0.0
H967 H 0.82389 0.10867 0.90748 0.0
H968 H 0.8247 0.12106 0.88877 0.0
H969 H 0.83861 0.12604 0.90531 0.0
C970 C 0.68095 0.14255 0.58485 0.0
N971 N 0.67043 0.1527 0.5902 0.0
N972 N 0.6759 0.12764 0.59064 0.0
C973 C 0.6969 0.14732 0.57504 0.0
C974 C 0.66195 0.1291 0.59975 0.0
N975 N 0.65876 0.14432 0.59965 0.0
C976 C 0.65034 0.11555 0.60723 0.0
H977 H 0.69384 0.14732 0.56189 0.0
H978 H 0.70669 0.13897 0.57797 0.0
H979 H 0.70216 0.15928 0.57742 0.0
H980 H 0.65463 0.11234 0.61983 0.0
H981 H 0.65064 0.10518 0.60017 0.0
H982 H 0.637 0.11872 0.60776 0.0
C983 C 0.59471 0.90741 0.3297 0.0
N984 N 0.6057 0.90517 0.34219 0.0
N985 N 0.58092 0.89688 0.33154 0.0
C986 C 0.59776 0.91938 0.31536 0.0
C987 C 0.58386 0.88823 0.34566 0.0
N988 N 0.59901 0.8932 0.35209 0.0
C989 C 0.57115 0.87604 0.35393 0.0
H990 H 0.59281 0.9305 0.31828 0.0
H991 H 0.59102 0.91543 0.30441 0.0
H992 H 0.61158 0.92168 0.3127 0.0
H993 H 0.57353 0.86439 0.35005 0.0
H994 H 0.55792 0.87843 0.3505 0.0
H995 H 0.5724 0.87563 0.36736 0.0
C996 C 0.86056 0.8713 0.09775 0.0
N997 N 0.86065 0.88087 0.10991 0.0
N998 N 0.87296 0.86135 0.1001 0.0
C999 C 0.8478 0.8711 0.08412 0.0
C1000 C 0.88061 0.86525 0.11412 0.0
N1001 N 0.87309 0.87712 0.12011 0.0
C1002 C 0.8962 0.85828 0.12119 0.0
H1003 H 0.83557 0.87518 0.08794 0.0
H1004 H 0.84547 0.85917 0.08001 0.0
H1005 H 0.85293 0.87913 0.07369 0.0
H1006 H 0.90383 0.85392 0.11154 0.0
H1007 H 0.89217 0.84825 0.13012 0.0
H1008 H 0.90428 0.86702 0.12757 0.0
C1009 C 0.17244 0.66138 0.0704 0.0
N1010 N 0.16249 0.67188 0.07606 0.0
N1011 N 0.17071 0.64763 0.07986 0.0
C1012 C 0.18261 0.66396 0.05486 0.0
C1013 C 0.15944 0.65009 0.09147 0.0
N1014 N 0.15431 0.66473 0.0891 0.0
C1015 C 0.15438 0.63857 0.10581 0.0
H1016 H 0.18318 0.6528 0.04918 0.0
H1017 H 0.19582 0.66846 0.05766 0.0
H1018 H 0.17701 0.67262 0.04607 0.0
H1019 H 0.16482 0.631 0.10917 0.0
H1020 H 0.14301 0.63097 0.10253 0.0
H1021 H 0.15114 0.64471 0.11651 0.0
C1022 C 0.10935 0.39111 0.82763 0.0
N1023 N 0.11984 0.39113 0.84069 0.0
N1024 N 0.09555 0.3808 0.83074 0.0
C1025 C 0.112 0.40185 0.81228 0.0
C1026 C 0.09802 0.37454 0.84614 0.0
N1027 N 0.11276 0.38089 0.85225 0.0
C1028 C 0.08672 0.36134 0.85465 0.0
H1029 H 0.09961 0.40461 0.80675 0.0
H1030 H 0.11915 0.39594 0.8034 0.0
H1031 H 0.1195 0.41291 0.81473 0.0
H1032 H 0.07999 0.35411 0.84571 0.0
H1033 H 0.07704 0.3663 0.86192 0.0
H1034 H 0.09424 0.35375 0.86299 0.0
C1035 C 0.36123 0.36946 0.59929 0.0
N1036 N 0.36206 0.37886 0.61161 0.0
N1037 N 0.37183 0.35791 0.60216 0.0
C1038 C 0.34948 0.37107 0.58493 0.0
C1039 C 0.37915 0.3607 0.61666 0.0
N1040 N 0.37314 0.37341 0.62242 0.0
C1041 C 0.39306 0.35174 0.62454 0.0
H1042 H 0.33779 0.37643 0.5882 0.0
H1043 H 0.34592 0.35952 0.58029 0.0
H1044 H 0.35613 0.37883 0.57505 0.0
H1045 H 0.40038 0.34643 0.61532 0.0
H1046 H 0.38723 0.34221 0.63322 0.0
H1047 H 0.40191 0.35947 0.6314 0.0
C1048 C 0.11564 0.54486 0.66173 0.0
N1049 N 0.12679 0.55291 0.65099 0.0
N1050 N 0.09976 0.54957 0.65928 0.0
C1051 C 0.12054 0.5333 0.67537 0.0
C1052 C 0.10172 0.56082 0.64666 0.0
N1053 N 0.11821 0.56298 0.64174 0.0
C1054 C 0.08727 0.56847 0.63806 0.0
H1055 H 0.11953 0.5214 0.67106 0.0
H1056 H 0.11196 0.53324 0.686 0.0
H1057 H 0.13389 0.5361 0.67923 0.0
H1058 H 0.08528 0.57946 0.6436 0.0
H1059 H 0.07528 0.56069 0.63923 0.0
H1060 H 0.09021 0.57143 0.62494 0.0
C1061 C 0.38041 0.43124 0.12117 0.0
N1062 N 0.38882 0.41811 0.12316 0.0
N1063 N 0.36536 0.42831 0.11352 0.0
C1064 C 0.38647 0.44669 0.12729 0.0
C1065 C 0.36499 0.41299 0.1108 0.0
N1066 N 0.37919 0.40676 0.11677 0.0
C1067 C 0.35157 0.4046 0.10089 0.0
H1068 H 0.37552 0.4533 0.13014 0.0
H1069 H 0.39426 0.45376 0.11768 0.0
H1070 H 0.3945 0.44496 0.1383 0.0
H1071 H 0.35709 0.39566 0.0941 0.0
H1072 H 0.3455 0.41294 0.09209 0.0
H1073 H 0.34156 0.39861 0.10921 0.0
C1074 C 0.66779 0.31482 0.08867 0.0
N1075 N 0.66106 0.32577 0.09698 0.0
N1076 N 0.65753 0.30125 0.08989 0.0
C1077 C 0.68486 0.3169 0.08033 0.0
C1078 C 0.64434 0.30434 0.09922 0.0
N1079 N 0.64653 0.31916 0.10356 0.0
C1080 C 0.62874 0.29331 0.1031 0.0
H1081 H 0.68316 0.32146 0.06746 0.0
H1082 H 0.69057 0.30554 0.08045 0.0
H1083 H 0.69368 0.32537 0.08631 0.0
H1084 H 0.62601 0.28552 0.0932 0.0
H1085 H 0.61744 0.29982 0.10496 0.0
H1086 H 0.63102 0.28593 0.1145 0.0
C1087 C 0.8633 0.62679 0.63468 0.0
N1088 N 0.8659 0.61426 0.64523 0.0
N1089 N 0.87523 0.63875 0.63681 0.0
C1090 C 0.84992 0.62703 0.62161 0.0
C1091 C 0.8852 0.63301 0.64898 0.0
N1092 N 0.87954 0.61809 0.65405 0.0
C1093 C 0.90097 0.64165 0.65524 0.0
H1094 H 0.85467 0.6216 0.61099 0.0
H1095 H 0.84712 0.6392 0.61761 0.0
H1096 H 0.838 0.62016 0.62591 0.0
H1097 H 0.89951 0.65434 0.65517 0.0
H1098 H 0.91184 0.64021 0.64715 0.0
H1099 H 0.90402 0.63695 0.66779 0.0
C1100 C 0.57723 0.39816 0.59451 0.0
N1101 N 0.59412 0.39783 0.59175 0.0
N1102 N 0.57456 0.40793 0.60607 0.0
C1103 C 0.56332 0.38946 0.58551 0.0
C1104 C 0.59044 0.41349 0.6103 0.0
N1105 N 0.60233 0.40741 0.60152 0.0
C1106 C 0.59433 0.42351 0.62415 0.0
H1107 H 0.55163 0.39583 0.58492 0.0
H1108 H 0.5602 0.37774 0.59206 0.0
H1109 H 0.5675 0.38783 0.57299 0.0
H1110 H 0.58414 0.42157 0.63352 0.0
H1111 H 0.59517 0.43601 0.61933 0.0
H1112 H 0.60667 0.42103 0.62996 0.0
C1113 C 0.32938 0.63678 0.88869 0.0
N1114 N 0.33152 0.62606 0.87801 0.0
N1115 N 0.33894 0.65032 0.88423 0.0
C1116 C 0.31757 0.63422 0.9031 0.0
C1117 C 0.34706 0.64738 0.87054 0.0
N1118 N 0.34244 0.63265 0.86669 0.0
C1119 C 0.36067 0.65835 0.86187 0.0
H1120 H 0.31306 0.64546 0.90623 0.0
H1121 H 0.32454 0.62907 0.91371 0.0
H1122 H 0.30646 0.62593 0.90063 0.0
H1123 H 0.36704 0.66638 0.87028 0.0
H1124 H 0.3547 0.6655 0.85189 0.0
H1125 H 0.37041 0.65175 0.85648 0.0
C1126 C 0.15137 0.3309 0.43008 0.0
N1127 N 0.14409 0.34213 0.42053 0.0
N1128 N 0.14364 0.31654 0.42788 0.0
C1129 C 0.16659 0.33383 0.4408 0.0
C1130 C 0.13135 0.31947 0.41672 0.0
N1131 N 0.1317 0.335 0.41217 0.0
C1132 C 0.11804 0.30734 0.41141 0.0
H1133 H 0.17428 0.32356 0.44196 0.0
H1134 H 0.16213 0.33587 0.45311 0.0
H1135 H 0.17471 0.34436 0.43591 0.0
H1136 H 0.11573 0.29751 0.42101 0.0
H1137 H 0.12258 0.3026 0.40029 0.0
H1138 H 0.10585 0.31254 0.40853 0.0
C1139 C 0.35132 0.59173 0.3755 0.0
N1140 N 0.36212 0.60477 0.37608 0.0
N1141 N 0.33622 0.5936 0.38257 0.0
C1142 C 0.35508 0.57763 0.36702 0.0
C1143 C 0.33826 0.60828 0.38746 0.0
N1144 N 0.354 0.6151 0.38348 0.0
C1145 C 0.32539 0.61544 0.39726 0.0
H1146 H 0.34326 0.57191 0.36204 0.0
H1147 H 0.36067 0.56906 0.37592 0.0
H1148 H 0.36439 0.58092 0.35698 0.0
H1149 H 0.33179 0.62362 0.4055 0.0
H1150 H 0.31729 0.60624 0.40458 0.0
H1151 H 0.31706 0.62211 0.38884 0.0
C1152 C 0.17438 0.46407 0.08406 0.0
C1153 C 0.18284 0.47419 0.0945 0.0
C1154 C 0.16071 0.45341 0.08966 0.0
C1155 C 0.15556 0.45271 0.10615 0.0
C1156 C 0.16378 0.46315 0.11664 0.0
C1157 C 0.17721 0.47383 0.11066 0.0
C1158 C 0.15203 0.44264 0.07807 0.0
C1159 C 0.1588 0.46266 0.13436 0.0
C1160 C 0.11295 0.43335 0.12179 0.0
C1161 C 0.1177 0.41899 0.12889 0.0
C1162 C 0.125 0.4442 0.11361 0.0
C1163 C 0.14218 0.44061 0.11279 0.0
C1164 C 0.14684 0.42584 0.11951 0.0
C1165 C 0.13448 0.41518 0.12744 0.0
C1166 C 0.11946 0.45968 0.10633 0.0
C1167 C 0.16503 0.42159 0.11901 0.0
H1168 H 0.17859 0.46432 0.07154 0.0
H1169 H 0.18368 0.48156 0.11884 0.0
H1170 H 0.15439 0.43033 0.08195 0.0
H1171 H 0.13804 0.44337 0.07831 0.0
H1172 H 0.15663 0.44548 0.06536 0.0
H1173 H 0.16615 0.47185 0.14079 0.0
H1174 H 0.14503 0.4642 0.13545 0.0
H1175 H 0.16099 0.45104 0.14062 0.0
H1176 H 0.09986 0.4361 0.12289 0.0
H1177 H 0.13801 0.40404 0.13306 0.0
H1178 H 0.12396 0.46205 0.09355 0.0
H1179 H 0.12528 0.46927 0.11322 0.0
H1180 H 0.10539 0.46 0.10655 0.0
H1181 H 0.1699 0.42316 0.10632 0.0
H1182 H 0.16632 0.4093 0.12395 0.0
H1183 H 0.17324 0.42952 0.12624 0.0
C1184 C 0.82304 0.9547 0.36921 0.0
C1185 C 0.80641 0.95251 0.37552 0.0
C1186 C 0.83515 0.94406 0.37382 0.0
C1187 C 0.83049 0.93095 0.38499 0.0
C1188 C 0.8139 0.92894 0.39177 0.0
C1189 C 0.80208 0.93973 0.38697 0.0
C1190 C 0.85274 0.94657 0.36634 0.0
C1191 C 0.80848 0.91511 0.40375 0.0
C1192 C 0.8537 0.89417 0.38432 0.0
C1193 C 0.86428 0.89519 0.39793 0.0
C1194 C 0.84288 0.90591 0.37976 0.0
C1195 C 0.84266 0.91893 0.38912 0.0
C1196 C 0.85352 0.92008 0.40279 0.0
C1197 C 0.86421 0.90814 0.40705 0.0
C1198 C 0.83142 0.9042 0.36517 0.0
C1199 C 0.85372 0.93383 0.41298 0.0
H1200 H 0.82651 0.96452 0.36036 0.0
H1201 H 0.78929 0.93795 0.39197 0.0
H1202 H 0.86262 0.94602 0.37597 0.0
H1203 H 0.85459 0.93708 0.35842 0.0
H1204 H 0.85481 0.95799 0.35891 0.0
H1205 H 0.79535 0.91561 0.40843 0.0
H1206 H 0.80898 0.90407 0.39782 0.0
H1207 H 0.81737 0.91461 0.41423 0.0
H1208 H 0.8538 0.88404 0.3774 0.0
H1209 H 0.87261 0.90888 0.41746 0.0
H1210 H 0.83286 0.91497 0.35668 0.0
H1211 H 0.81792 0.90257 0.36921 0.0
H1212 H 0.83416 0.89406 0.35845 0.0
H1213 H 0.85651 0.94494 0.40519 0.0
H1214 H 0.86333 0.9332 0.42288 0.0
H1215 H 0.84098 0.93425 0.41851 0.0
C1216 C 0.34055 0.5449 0.61473 0.0
C1217 C 0.33358 0.54624 0.63012 0.0
C1218 C 0.35373 0.55563 0.60831 0.0
C1219 C 0.3602 0.5679 0.61756 0.0
C1220 C 0.35371 0.56896 0.63336 0.0
C1221 C 0.3404 0.55817 0.63942 0.0
C1222 C 0.36029 0.55419 0.59138 0.0
C1223 C 0.36052 0.58176 0.64367 0.0
C1224 C 0.40226 0.59038 0.6047 0.0
C1225 C 0.39664 0.60378 0.59618 0.0
C1226 C 0.39056 0.5786 0.6119 0.0
C1227 C 0.37288 0.58025 0.61026 0.0
C1228 C 0.36719 0.59378 0.60157 0.0
C1229 C 0.37918 0.60545 0.59475 0.0
C1230 C 0.3971 0.56442 0.6212 0.0
C1231 C 0.34845 0.59598 0.59957 0.0
H1232 H 0.33537 0.53571 0.60747 0.0
H1233 H 0.3352 0.5592 0.65138 0.0
H1234 H 0.35731 0.56456 0.58322 0.0
H1235 H 0.37435 0.55395 0.59155 0.0
H1236 H 0.35459 0.54348 0.58615 0.0
H1237 H 0.35507 0.58024 0.65616 0.0
H1238 H 0.3746 0.58202 0.64456 0.0
H1239 H 0.35749 0.59332 0.63784 0.0
H1240 H 0.41582 0.58921 0.60577 0.0
H1241 H 0.37495 0.61604 0.58849 0.0
H1242 H 0.39361 0.55389 0.61465 0.0
H1243 H 0.39109 0.56234 0.63342 0.0
H1244 H 0.41117 0.56568 0.6227 0.0
H1245 H 0.34196 0.58602 0.59364 0.0
H1246 H 0.34618 0.60704 0.59216 0.0
H1247 H 0.34244 0.59613 0.61169 0.0
C1248 C 0.62961 0.03315 0.88954 0.0
C1249 C 0.64416 0.03688 0.8988 0.0
C1250 C 0.61899 0.04476 0.88379 0.0
C1251 C 0.62302 0.06044 0.88742 0.0
C1252 C 0.63692 0.06403 0.89779 0.0
C1253 C 0.64731 0.05222 0.90335 0.0
C1254 C 0.60416 0.04045 0.87293 0.0
C1255 C 0.64152 0.08058 0.90209 0.0
C1256 C 0.61264 0.09286 0.85565 0.0
C1257 C 0.59828 0.09833 0.86237 0.0
C1258 C 0.62064 0.0804 0.86362 0.0
C1259 C 0.61416 0.07334 0.87877 0.0
C1260 C 0.59962 0.07888 0.88564 0.0
C1261 C 0.59179 0.0913 0.87728 0.0
C1262 C 0.6362 0.07497 0.85594 0.0
C1263 C 0.59241 0.07174 0.90179 0.0
H1264 H 0.62699 0.02134 0.88604 0.0
H1265 H 0.6584 0.05521 0.91066 0.0
H1266 H 0.59254 0.04557 0.87679 0.0
H1267 H 0.60707 0.04534 0.86024 0.0
H1268 H 0.6014 0.02756 0.87298 0.0
H1269 H 0.65133 0.08111 0.91181 0.0
H1270 H 0.64656 0.0879 0.89112 0.0
H1271 H 0.63009 0.08585 0.90617 0.0
H1272 H 0.61776 0.09856 0.84427 0.0
H1273 H 0.58064 0.09561 0.88239 0.0
H1274 H 0.63411 0.06231 0.85419 0.0
H1275 H 0.64733 0.07651 0.86414 0.0
H1276 H 0.63938 0.08151 0.84396 0.0
H1277 H 0.58811 0.05923 0.9009 0.0
H1278 H 0.58149 0.07784 0.90576 0.0
H1279 H 0.60241 0.07216 0.91132 0.0
C1280 C 0.15602 0.5468 0.37209 0.0
C1281 C 0.15482 0.53951 0.38799 0.0
C1282 C 0.14706 0.55987 0.36742 0.0
C1283 C 0.13693 0.56604 0.37902 0.0
C1284 C 0.13584 0.55889 0.39516 0.0
C1285 C 0.14465 0.54558 0.39942 0.0
C1286 C 0.14834 0.56701 0.35001 0.0
C1287 C 0.12547 0.56537 0.40794 0.0
C1288 C 0.12702 0.60801 0.36762 0.0
C1289 C 0.11055 0.60588 0.36124 0.0
C1290 C 0.13542 0.5952 0.3743 0.0
C1291 C 0.12736 0.57986 0.37405 0.0
C1292 C 0.11056 0.5777 0.36792 0.0
C1293 C 0.10227 0.59079 0.3618 0.0
C1294 C 0.15312 0.59805 0.38115 0.0
C1295 C 0.10159 0.56155 0.36725 0.0
H1296 H 0.16378 0.54212 0.36318 0.0
H1297 H 0.14379 0.54007 0.41177 0.0
H1298 H 0.13545 0.567 0.34449 0.0
H1299 H 0.1537 0.57938 0.34966 0.0
H1300 H 0.15649 0.56061 0.3424 0.0
H1301 H 0.12637 0.55875 0.42007 0.0
H1302 H 0.12988 0.57784 0.40905 0.0
H1303 H 0.11188 0.56499 0.40426 0.0
H1304 H 0.13348 0.61968 0.36703 0.0
H1305 H 0.08942 0.58923 0.35713 0.0
H1306 H 0.16249 0.59342 0.37325 0.0
H1307 H 0.15396 0.59177 0.39344 0.0
H1308 H 0.1568 0.61071 0.38206 0.0
H1309 H 0.10869 0.55481 0.35908 0.0
H1310 H 0.0883 0.56193 0.36273 0.0
H1311 H 0.10132 0.55506 0.3795 0.0
C1312 C 0.67811 0.94688 0.59665 0.0
C1313 C 0.68012 0.9617 0.60262 0.0
C1314 C 0.66587 0.9353 0.60334 0.0
C1315 C 0.65514 0.93877 0.61601 0.0
C1316 C 0.65664 0.95393 0.62159 0.0
C1317 C 0.66927 0.96515 0.61497 0.0
C1318 C 0.66486 0.91917 0.5973 0.0
C1319 C 0.64514 0.95819 0.63481 0.0
C1320 C 0.61459 0.91276 0.62645 0.0
C1321 C 0.61938 0.90436 0.64081 0.0
C1322 C 0.62618 0.92386 0.61803 0.0
C1323 C 0.64297 0.92637 0.62409 0.0
C1324 C 0.64797 0.91747 0.63834 0.0
C1325 C 0.63602 0.90665 0.64663 0.0
C1326 C 0.62033 0.93319 0.60297 0.0
C1327 C 0.66586 0.91954 0.64496 0.0
H1328 H 0.68656 0.94413 0.58717 0.0
H1329 H 0.6707 0.97664 0.61952 0.0
H1330 H 0.66818 0.91048 0.60733 0.0
H1331 H 0.65168 0.91565 0.59346 0.0
H1332 H 0.67361 0.91855 0.5869 0.0
H1333 H 0.64708 0.9708 0.63689 0.0
H1334 H 0.63159 0.95539 0.63158 0.0
H1335 H 0.64761 0.95115 0.64639 0.0
H1336 H 0.60163 0.91086 0.6221 0.0
H1337 H 0.63958 0.89993 0.65768 0.0
H1338 H 0.62877 0.93195 0.59253 0.0
H1339 H 0.62114 0.94581 0.60503 0.0
H1340 H 0.60701 0.92945 0.59961 0.0
H1341 H 0.67525 0.91818 0.63531 0.0
H1342 H 0.66797 0.91097 0.65552 0.0
H1343 H 0.66841 0.93153 0.64886 0.0
C1344 C 0.31864 0.43471 0.85941 0.0
C1345 C 0.31233 0.44476 0.87 0.0
C1346 C 0.32963 0.42341 0.865 0.0
C1347 C 0.33432 0.42203 0.88163 0.0
C1348 C 0.32848 0.43247 0.89228 0.0
C1349 C 0.31761 0.44376 0.88632 0.0
C1350 C 0.33574 0.41258 0.85324 0.0
C1351 C 0.33318 0.43131 0.9101 0.0
C1352 C 0.34614 0.38223 0.89952 0.0
C1353 C 0.36391 0.3846 0.90015 0.0
C1354 C 0.33634 0.39439 0.89366 0.0
C1355 C 0.3446 0.40915 0.88805 0.0
C1356 C 0.3626 0.41151 0.88848 0.0
C1357 C 0.37204 0.39922 0.89469 0.0
C1358 C 0.31717 0.39141 0.89342 0.0
C1359 C 0.37188 0.427 0.88242 0.0
H1360 H 0.31471 0.43544 0.84676 0.0
H1361 H 0.31279 0.45146 0.8946 0.0
H1362 H 0.34972 0.41203 0.85426 0.0
H1363 H 0.32974 0.40055 0.8563 0.0
H1364 H 0.33259 0.41633 0.84041 0.0
H1365 H 0.32828 0.44079 0.91659 0.0
H1366 H 0.32789 0.41986 0.91605 0.0
H1367 H 0.34722 0.43185 0.91151 0.0
H1368 H 0.33997 0.3708 0.90348 0.0
H1369 H 0.3858 0.40097 0.8953 0.0
H1370 H 0.31246 0.39305 0.88073 0.0
H1371 H 0.31131 0.39999 0.90046 0.0
H1372 H 0.31274 0.3794 0.89862 0.0
H1373 H 0.36766 0.43068 0.8699 0.0
H1374 H 0.38593 0.42649 0.88235 0.0
H1375 H 0.36875 0.43616 0.89031 0.0
C1376 C 0.82696 0.0556 0.12865 0.0
C1377 C 0.82027 0.04326 0.11983 0.0
C1378 C 0.84018 0.06631 0.12225 0.0
C1379 C 0.84674 0.06473 0.10659 0.0
C1380 C 0.8404 0.05207 0.09782 0.0
C1381 C 0.82728 0.04144 0.10457 0.0
C1382 C 0.84684 0.07957 0.13204 0.0
C1383 C 0.84706 0.05005 0.08107 0.0
C1384 C 0.86565 0.10178 0.08275 0.0
C1385 C 0.88313 0.10034 0.08452 0.0
C1386 C 0.85368 0.09017 0.08972 0.0
C1387 C 0.8594 0.07693 0.09892 0.0
C1388 C 0.87708 0.07546 0.10084 0.0
C1389 C 0.88876 0.08715 0.09345 0.0
C1390 C 0.83493 0.09217 0.08742 0.0
C1391 C 0.88365 0.06163 0.11075 0.0
H1392 H 0.82172 0.05701 0.1405 0.0
H1393 H 0.82223 0.03193 0.09769 0.0
H1394 H 0.86091 0.0799 0.13311 0.0
H1395 H 0.84382 0.09092 0.12571 0.0
H1396 H 0.84126 0.07851 0.14447 0.0
H1397 H 0.84146 0.0391 0.07624 0.0
H1398 H 0.84406 0.06014 0.07251 0.0
H1399 H 0.86113 0.04989 0.08135 0.0
H1400 H 0.86139 0.1122 0.07615 0.0
H1401 H 0.90233 0.08614 0.09478 0.0
H1402 H 0.82881 0.09276 0.09941 0.0
H1403 H 0.82857 0.08191 0.08188 0.0
H1404 H 0.83264 0.10294 0.07953 0.0
H1405 H 0.87798 0.06033 0.12313 0.0
H1406 H 0.89776 0.06278 0.1119 0.0
H1407 H 0.87978 0.05072 0.10495 0.0
C1408 C 0.12568 0.12596 0.44197 0.0
C1409 C 0.11697 0.12699 0.45658 0.0
C1410 C 0.11891 0.11633 0.43022 0.0
C1411 C 0.1029 0.10773 0.43302 0.0
C1412 C 0.09438 0.1082 0.44802 0.0
C1413 C 0.10159 0.11774 0.45968 0.0
C1414 C 0.12858 0.11581 0.41453 0.0
C1415 C 0.07723 0.09929 0.4514 0.0
C1416 C 0.0774 0.10042 0.39487 0.0
C1417 C 0.07992 0.08479 0.39298 0.0
C1418 C 0.08436 0.10784 0.40815 0.0
C1419 C 0.0944 0.09949 0.41965 0.0
C1420 C 0.09682 0.08359 0.4179 0.0
C1421 C 0.08933 0.07637 0.40467 0.0
C1422 C 0.08141 0.12478 0.40958 0.0
C1423 C 0.1076 0.07435 0.42976 0.0
H1424 H 0.13767 0.13294 0.43956 0.0
H1425 H 0.09477 0.11847 0.47093 0.0
H1426 H 0.12975 0.1035 0.41198 0.0
H1427 H 0.12148 0.12139 0.40424 0.0
H1428 H 0.14156 0.12197 0.41486 0.0
H1429 H 0.07298 0.09978 0.46415 0.0
H1430 H 0.06758 0.10431 0.44309 0.0
H1431 H 0.07765 0.08685 0.449 0.0
H1432 H 0.07042 0.10699 0.38563 0.0
H1433 H 0.09116 0.06423 0.4032 0.0
H1434 H 0.09369 0.13212 0.40821 0.0
H1435 H 0.07626 0.1262 0.42182 0.0
H1436 H 0.0724 0.12927 0.40023 0.0
H1437 H 0.12049 0.08052 0.43064 0.0
H1438 H 0.10895 0.06237 0.42618 0.0
H1439 H 0.10181 0.07338 0.44208 0.0
C1440 C 0.07441 0.84929 0.64492 0.0
C1441 C 0.07915 0.86041 0.65596 0.0
C1442 C 0.08667 0.84304 0.63574 0.0
C1443 C 0.1041 0.84802 0.63758 0.0
C1444 C 0.10902 0.85925 0.64865 0.0
C1445 C 0.09647 0.86529 0.65775 0.0
C1446 C 0.08095 0.83106 0.62407 0.0
C1447 C 0.12752 0.86488 0.65084 0.0
C1448 C 0.13612 0.82072 0.62525 0.0
C1449 C 0.14093 0.8275 0.60974 0.0
C1450 C 0.12428 0.82739 0.63454 0.0
C1451 C 0.11718 0.84121 0.62812 0.0
C1452 C 0.12217 0.8482 0.61247 0.0
C1453 C 0.13393 0.84117 0.6034 0.0
C1454 C 0.11931 0.8196 0.65116 0.0
C1455 C 0.11498 0.863 0.60527 0.0
H1456 H 0.06107 0.84545 0.64343 0.0
H1457 H 0.10026 0.87392 0.66618 0.0
H1458 H 0.08526 0.8353 0.61154 0.0
H1459 H 0.08686 0.81996 0.62744 0.0
H1460 H 0.06688 0.82851 0.62397 0.0
H1461 H 0.12924 0.87367 0.65994 0.0
H1462 H 0.13495 0.85484 0.65482 0.0
H1463 H 0.13297 0.8702 0.63905 0.0
H1464 H 0.14178 0.81023 0.63009 0.0
H1465 H 0.13771 0.8463 0.59135 0.0
H1466 H 0.10541 0.8161 0.65152 0.0
H1467 H 0.12198 0.82797 0.66053 0.0
H1468 H 0.12622 0.80905 0.65445 0.0
H1469 H 0.101 0.86086 0.60374 0.0
H1470 H 0.12074 0.86728 0.59325 0.0
H1471 H 0.11721 0.87237 0.61364 0.0
C1472 C 0.36015 0.82682 0.9001 0.0
C1473 C 0.37732 0.82652 0.90469 0.0
C1474 C 0.35416 0.84022 0.8918 0.0
C1475 C 0.36559 0.85366 0.88808 0.0
C1476 C 0.38311 0.8531 0.89176 0.0
C1477 C 0.38878 0.83952 0.89999 0.0
C1478 C 0.33541 0.84032 0.88792 0.0
C1479 C 0.39571 0.86718 0.88793 0.0
C1480 C 0.35102 0.88737 0.85988 0.0
C1481 C 0.34587 0.89731 0.87111 0.0
C1482 C 0.35761 0.87312 0.86515 0.0
C1483 C 0.35891 0.86876 0.88206 0.0
C1484 C 0.35377 0.87887 0.89342 0.0
C1485 C 0.34742 0.89308 0.88779 0.0
C1486 C 0.36309 0.86274 0.85267 0.0
C1487 C 0.35511 0.87475 0.91155 0.0
H1488 H 0.35122 0.81679 0.90355 0.0
H1489 H 0.40208 0.8394 0.90341 0.0
H1490 H 0.32951 0.84827 0.89571 0.0
H1491 H 0.33357 0.84483 0.87506 0.0
H1492 H 0.32857 0.82847 0.89001 0.0
H1493 H 0.40911 0.86423 0.88949 0.0
H1494 H 0.39399 0.87232 0.87528 0.0
H1495 H 0.39341 0.87633 0.89615 0.0
H1496 H 0.34996 0.89086 0.84698 0.0
H1497 H 0.34386 0.90106 0.89638 0.0
H1498 H 0.35449 0.85179 0.85327 0.0
H1499 H 0.37617 0.85934 0.85533 0.0
H1500 H 0.36283 0.86853 0.84009 0.0
H1501 H 0.34757 0.86347 0.91505 0.0
H1502 H 0.35047 0.88387 0.91873 0.0
H1503 H 0.36856 0.87321 0.91492 0.0
C1504 C 0.40564 0.02781 0.21156 0.0
C1505 C 0.41445 0.03452 0.22443 0.0
C1506 C 0.39632 0.03689 0.2003 0.0
C1507 C 0.39576 0.05305 0.20201 0.0
C1508 C 0.40392 0.05973 0.2154 0.0
C1509 C 0.41333 0.05042 0.22633 0.0
C1510 C 0.38786 0.02936 0.18612 0.0
C1511 C 0.40351 0.07692 0.21768 0.0
C1512 C 0.39163 0.0808 0.16411 0.0
C1513 C 0.37453 0.08385 0.1648 0.0
C1514 C 0.39861 0.07059 0.17602 0.0
C1515 C 0.38817 0.06331 0.18895 0.0
C1516 C 0.37075 0.06618 0.18954 0.0
C1517 C 0.36413 0.07647 0.17741 0.0
C1518 C 0.41718 0.06766 0.17482 0.0
C1519 C 0.35922 0.05862 0.20308 0.0
H1520 H 0.40647 0.01552 0.20997 0.0
H1521 H 0.42056 0.0559 0.23577 0.0
H1522 H 0.37447 0.03235 0.18481 0.0
H1523 H 0.39461 0.03394 0.17468 0.0
H1524 H 0.38798 0.01641 0.18745 0.0
H1525 H 0.40877 0.07989 0.22966 0.0
H1526 H 0.4111 0.08401 0.20794 0.0
H1527 H 0.39026 0.08036 0.21669 0.0
H1528 H 0.39949 0.08641 0.15414 0.0
H1529 H 0.35088 0.07893 0.17782 0.0
H1530 H 0.41846 0.05493 0.17465 0.0
H1531 H 0.42416 0.07159 0.18565 0.0
H1532 H 0.42338 0.07387 0.16372 0.0
H1533 H 0.35943 0.0457 0.20382 0.0
H1534 H 0.34583 0.06157 0.20136 0.0
H1535 H 0.3639 0.06249 0.21491 0.0
C1536 C 0.14343 0.85462 0.06611 0.0
C1537 C 0.13279 0.84233 0.06046 0.0
C1538 C 0.13795 0.86339 0.07836 0.0
C1539 C 0.12162 0.85948 0.08541 0.0
C1540 C 0.11106 0.84675 0.08012 0.0
C1541 C 0.11667 0.83848 0.06753 0.0
C1542 C 0.1494 0.87712 0.08341 0.0
C1543 C 0.09376 0.84196 0.08767 0.0
C1544 C 0.11296 0.87449 0.12627 0.0
C1545 C 0.10293 0.88676 0.12161 0.0
C1546 C 0.11906 0.8654 0.11463 0.0
C1547 C 0.11535 0.86901 0.09795 0.0
C1548 C 0.10548 0.88167 0.09322 0.0
C1549 C 0.09918 0.89028 0.10519 0.0
C1550 C 0.12925 0.85182 0.12018 0.0
C1551 C 0.10166 0.88617 0.07555 0.0
H1552 H 0.15585 0.85771 0.06058 0.0
H1553 H 0.10847 0.82891 0.06327 0.0
H1554 H 0.14293 0.88807 0.08106 0.0
H1555 H 0.15199 0.87562 0.09667 0.0
H1556 H 0.16176 0.87857 0.07679 0.0
H1557 H 0.08759 0.83119 0.08292 0.0
H1558 H 0.09497 0.83988 0.10109 0.0
H1559 H 0.08528 0.85154 0.08519 0.0
H1560 H 0.11573 0.87192 0.13907 0.0
H1561 H 0.0915 0.89992 0.10178 0.0
H1562 H 0.14215 0.85357 0.11463 0.0
H1563 H 0.12298 0.84082 0.11604 0.0
H1564 H 0.13064 0.85036 0.13363 0.0
H1565 H 0.11372 0.88851 0.06852 0.0
H1566 H 0.09441 0.89673 0.0739 0.0
H1567 H 0.09414 0.87635 0.07028 0.0
C1568 C 0.38019 0.88207 0.28525 0.0
C1569 C 0.38817 0.86837 0.28336 0.0
C1570 C 0.36651 0.88198 0.29606 0.0
C1571 C 0.36056 0.86783 0.30512 0.0
C1572 C 0.36778 0.85375 0.30246 0.0
C1573 C 0.38158 0.85421 0.29167 0.0
C1574 C 0.35909 0.89723 0.2985 0.0
C1575 C 0.36182 0.83836 0.31174 0.0
C1576 C 0.34286 0.87383 0.34641 0.0
C1577 C 0.32532 0.87283 0.34343 0.0
C1578 C 0.35441 0.87147 0.33423 0.0
C1579 C 0.34824 0.86826 0.31861 0.0
C1580 C 0.33045 0.86673 0.3157 0.0
C1581 C 0.31916 0.86909 0.3282 0.0
C1582 C 0.37326 0.87304 0.3379 0.0
C1583 C 0.32343 0.863 0.2993 0.0
H1584 H 0.38509 0.89305 0.27881 0.0
H1585 H 0.38756 0.84353 0.29021 0.0
H1586 H 0.345 0.89585 0.29756 0.0
H1587 H 0.36228 0.90066 0.31089 0.0
H1588 H 0.36404 0.90689 0.28947 0.0
H1589 H 0.36449 0.8283 0.30487 0.0
H1590 H 0.36881 0.83728 0.32344 0.0
H1591 H 0.34798 0.83757 0.31451 0.0
H1592 H 0.34753 0.87699 0.35816 0.0
H1593 H 0.30553 0.86827 0.32606 0.0
H1594 H 0.37946 0.88335 0.33049 0.0
H1595 H 0.37925 0.86256 0.33457 0.0
H1596 H 0.37586 0.87449 0.35097 0.0
H1597 H 0.32735 0.87276 0.29001 0.0
H1598 H 0.3093 0.86111 0.29936 0.0
H1599 H 0.32876 0.85234 0.29551 0.0
C1600 C 0.41338 0.18392 0.56925 0.0
C1601 C 0.40243 0.19512 0.56321 0.0
C1602 C 0.40711 0.17035 0.57885 0.0
C1603 C 0.38946 0.1679 0.58237 0.0
C1604 C 0.37852 0.17954 0.57707 0.0
C1605 C 0.38514 0.19303 0.56761 0.0
C1606 C 0.41922 0.15829 0.58453 0.0
C1607 C 0.35963 0.17735 0.58061 0.0
C1608 C 0.36965 0.12601 0.58761 0.0
C1609 C 0.36728 0.12368 0.60447 0.0
C1610 C 0.37689 0.14036 0.5803 0.0
C1611 C 0.38216 0.15256 0.59016 0.0
C1612 C 0.38009 0.15013 0.60727 0.0
C1613 C 0.37249 0.13573 0.61421 0.0
C1614 C 0.37888 0.14246 0.56201 0.0
C1615 C 0.38583 0.16273 0.61822 0.0
H1616 H 0.42678 0.18547 0.56603 0.0
H1617 H 0.37657 0.20163 0.56309 0.0
H1618 H 0.41734 0.15462 0.59768 0.0
H1619 H 0.41656 0.1477 0.57786 0.0
H1620 H 0.43276 0.16275 0.58245 0.0
H1621 H 0.35311 0.18805 0.57684 0.0
H1622 H 0.35373 0.16756 0.57402 0.0
H1623 H 0.35734 0.17419 0.5938 0.0
H1624 H 0.36598 0.1165 0.58019 0.0
H1625 H 0.37066 0.13381 0.62728 0.0
H1626 H 0.39251 0.14528 0.55874 0.0
H1627 H 0.37186 0.15243 0.55693 0.0
H1628 H 0.37405 0.13183 0.55611 0.0
H1629 H 0.39943 0.16675 0.61588 0.0
H1630 H 0.38428 0.15861 0.63132 0.0
H1631 H 0.37837 0.17301 0.61552 0.0
C1632 C 0.08322 0.13986 0.84878 0.0
C1633 C 0.07667 0.12423 0.85209 0.0
C1634 C 0.09606 0.14652 0.85854 0.0
C1635 C 0.10273 0.13723 0.87171 0.0
C1636 C 0.09687 0.1212 0.87453 0.0
C1637 C 0.08377 0.11493 0.8648 0.0
C1638 C 0.10185 0.1637 0.85526 0.0
C1639 C 0.104 0.11083 0.88821 0.0
C1640 C 0.14356 0.15333 0.89137 0.0
C1641 C 0.13717 0.15946 0.90504 0.0
C1642 C 0.13256 0.14575 0.88053 0.0
C1643 C 0.11475 0.1446 0.88334 0.0
C1644 C 0.10829 0.15072 0.89722 0.0
C1645 C 0.11962 0.15791 0.90801 0.0
C1646 C 0.13995 0.13914 0.86603 0.0
C1647 C 0.08939 0.1498 0.90062 0.0
H1648 H 0.07777 0.14712 0.83902 0.0
H1649 H 0.07888 0.1028 0.86731 0.0
H1650 H 0.09813 0.17009 0.86562 0.0
H1651 H 0.11594 0.16537 0.85424 0.0
H1652 H 0.09622 0.16905 0.84394 0.0
H1653 H 0.09942 0.09831 0.88769 0.0
H1654 H 0.11813 0.11196 0.88778 0.0
H1655 H 0.10018 0.11457 0.90009 0.0
H1656 H 0.15718 0.15455 0.88915 0.0
H1657 H 0.1148 0.16235 0.91881 0.0
H1658 H 0.13592 0.14564 0.85464 0.0
H1659 H 0.13506 0.1267 0.86555 0.0
H1660 H 0.1541 0.13987 0.86635 0.0
H1661 H 0.08274 0.15566 0.89019 0.0
H1662 H 0.08645 0.15537 0.91181 0.0
H1663 H 0.08411 0.13738 0.90204 0.0
C1664 C 0.88738 0.37875 0.77648 0.0
C1665 C 0.90197 0.37127 0.78129 0.0
C1666 C 0.87445 0.38034 0.78771 0.0
C1667 C 0.87626 0.37444 0.80415 0.0
C1668 C 0.89063 0.36635 0.80895 0.0
C1669 C 0.90327 0.36477 0.79743 0.0
C1670 C 0.8592 0.38888 0.78212 0.0
C1671 C 0.89301 0.35993 0.82639 0.0
C1672 C 0.85517 0.39519 0.83624 0.0
C1673 C 0.84093 0.38481 0.84039 0.0
C1674 C 0.86674 0.39194 0.82442 0.0
C1675 C 0.86393 0.37794 0.8166 0.0
C1676 C 0.84952 0.36737 0.82081 0.0
C1677 C 0.83817 0.37095 0.83273 0.0
C1678 C 0.88207 0.40341 0.82046 0.0
C1679 C 0.84603 0.3524 0.81266 0.0
H1680 H 0.88621 0.38369 0.76401 0.0
H1681 H 0.91448 0.35894 0.80126 0.0
H1682 H 0.84723 0.38183 0.78601 0.0
H1683 H 0.85943 0.40009 0.78786 0.0
H1684 H 0.85895 0.3915 0.76869 0.0
H1685 H 0.90452 0.35335 0.82801 0.0
H1686 H 0.89413 0.36967 0.83441 0.0
H1687 H 0.88171 0.35204 0.83052 0.0
H1688 H 0.85739 0.40571 0.84253 0.0
H1689 H 0.82711 0.36297 0.8361 0.0
H1690 H 0.88212 0.40751 0.80731 0.0
H1691 H 0.89394 0.39753 0.82297 0.0
H1692 H 0.88232 0.41377 0.82762 0.0
H1693 H 0.84285 0.35525 0.79966 0.0
H1694 H 0.8353 0.34473 0.81849 0.0
H1695 H 0.85754 0.34578 0.81297 0.0
C1696 C 0.89089 0.69721 0.06258 0.0
C1697 C 0.90802 0.7006 0.05797 0.0
C1698 C 0.88554 0.6834 0.07218 0.0
C1699 C 0.89765 0.67281 0.07745 0.0
C1700 C 0.91512 0.67665 0.07379 0.0
C1701 C 0.9201 0.69047 0.064 0.0
C1702 C 0.86678 0.6797 0.07581 0.0
C1703 C 0.92844 0.66576 0.07951 0.0
C1704 C 0.88338 0.63953 0.10918 0.0
C1705 C 0.8793 0.62728 0.09935 0.0
C1706 C 0.88975 0.65439 0.10231 0.0
C1707 C 0.89177 0.65702 0.0852 0.0
C1708 C 0.88771 0.6446 0.07527 0.0
C1709 C 0.88163 0.62985 0.08251 0.0
C1710 C 0.89409 0.66728 0.11329 0.0
C1711 C 0.88966 0.64692 0.05698 0.0
H1712 H 0.88146 0.70498 0.05806 0.0
H1713 H 0.93339 0.69307 0.06064 0.0
H1714 H 0.86181 0.66962 0.06915 0.0
H1715 H 0.86475 0.67627 0.08899 0.0
H1716 H 0.85924 0.68978 0.07217 0.0
H1717 H 0.9416 0.67128 0.07734 0.0
H1718 H 0.92685 0.66207 0.09269 0.0
H1719 H 0.92683 0.65502 0.07295 0.0
H1720 H 0.8815 0.63745 0.12222 0.0
H1721 H 0.87873 0.62023 0.07503 0.0
H1722 H 0.88522 0.67657 0.11093 0.0
H1723 H 0.90716 0.67277 0.11068 0.0
H1724 H 0.89324 0.66294 0.12639 0.0
H1725 H 0.88165 0.6562 0.05194 0.0
H1726 H 0.88595 0.63604 0.05105 0.0
H1727 H 0.90308 0.65088 0.05372 0.0
C1728 C 0.59138 0.63338 0.3477 0.0
C1729 C 0.57465 0.6369 0.35064 0.0
C1730 C 0.60519 0.63998 0.3564 0.0
C1731 C 0.60218 0.65035 0.36828 0.0
C1732 C 0.58535 0.65395 0.37128 0.0
C1733 C 0.57182 0.6472 0.36244 0.0
C1734 C 0.623 0.63586 0.35294 0.0
C1735 C 0.58161 0.66494 0.38387 0.0
C1736 C 0.63366 0.65804 0.40225 0.0
C1737 C 0.64118 0.6729 0.39685 0.0
C1738 C 0.62138 0.65025 0.39278 0.0
C1739 C 0.61654 0.65759 0.37759 0.0
C1740 C 0.62454 0.67243 0.37189 0.0
C1741 C 0.63678 0.67992 0.38164 0.0
C1742 C 0.61315 0.63445 0.39929 0.0
C1743 C 0.61979 0.6806 0.35574 0.0
H1744 H 0.59371 0.62541 0.33864 0.0
H1745 H 0.55896 0.65 0.36484 0.0
H1746 H 0.63126 0.64664 0.3491 0.0
H1747 H 0.62865 0.63039 0.36417 0.0
H1748 H 0.62322 0.62767 0.34327 0.0
H1749 H 0.56779 0.66647 0.38478 0.0
H1750 H 0.58617 0.6604 0.39599 0.0
H1751 H 0.58854 0.67659 0.38079 0.0
H1752 H 0.63711 0.65273 0.41409 0.0
H1753 H 0.64282 0.69137 0.37751 0.0
H1754 H 0.61386 0.62585 0.39011 0.0
H1755 H 0.59946 0.63538 0.40176 0.0
H1756 H 0.61925 0.62987 0.41071 0.0
H1757 H 0.62078 0.67273 0.34589 0.0
H1758 H 0.62802 0.69158 0.3526 0.0
H1759 H 0.60635 0.6835 0.35614 0.0
C1760 C 0.88416 0.34552 0.39246 0.0
C1761 C 0.87043 0.33415 0.39566 0.0
C1762 C 0.88186 0.35978 0.38337 0.0
C1763 C 0.86547 0.36267 0.3773 0.0
C1764 C 0.85191 0.35076 0.37939 0.0
C1765 C 0.85454 0.33665 0.38857 0.0
C1766 C 0.89666 0.37217 0.38132 0.0
C1767 C 0.8343 0.35333 0.37292 0.0
C1768 C 0.8525 0.40418 0.3755 0.0
C1769 C 0.8533 0.40871 0.3588 0.0
C1770 C 0.85662 0.38928 0.38164 0.0
C1771 C 0.86189 0.37873 0.3708 0.0
C1772 C 0.86322 0.38345 0.35392 0.0
C1773 C 0.85884 0.39843 0.3481 0.0
C1774 C 0.85522 0.38479 0.39975 0.0
C1775 C 0.86906 0.37265 0.34203 0.0
H1776 H 0.89651 0.34368 0.3978 0.0
H1777 H 0.84391 0.32787 0.39081 0.0
H1778 H 0.89728 0.37778 0.36868 0.0
H1779 H 0.89488 0.38147 0.3895 0.0
H1780 H 0.90903 0.36729 0.38433 0.0
H1781 H 0.82573 0.34234 0.37383 0.0
H1782 H 0.82856 0.36197 0.37997 0.0
H1783 H 0.83497 0.35822 0.36001 0.0
H1784 H 0.84869 0.4124 0.38372 0.0
H1785 H 0.85964 0.40215 0.3352 0.0
H1786 H 0.86766 0.3814 0.40463 0.0
H1787 H 0.84582 0.37449 0.40215 0.0
H1788 H 0.85121 0.39447 0.40652 0.0
H1789 H 0.88142 0.3683 0.34597 0.0
H1790 H 0.87053 0.3785 0.32949 0.0
H1791 H 0.85969 0.36228 0.34176 0.0
C1792 C 0.60438 0.63384 0.95195 0.0
C1793 C 0.61769 0.63003 0.96256 0.0
C1794 C 0.59852 0.62388 0.94017 0.0
C1795 C 0.60628 0.6098 0.9388 0.0
C1796 C 0.61955 0.60573 0.94962 0.0
C1797 C 0.62503 0.61585 0.96145 0.0
C1798 C 0.58424 0.62858 0.92896 0.0
C1799 C 0.62825 0.5909 0.94839 0.0
C1800 C 0.5814 0.57955 0.91498 0.0
C1801 C 0.5884 0.58317 0.89942 0.0
C1802 C 0.58739 0.58784 0.9281 0.0
C1803 C 0.6009 0.59978 0.92555 0.0
C1804 C 0.60851 0.60292 0.90995 0.0
C1805 C 0.60207 0.59463 0.89705 0.0
C1806 C 0.57894 0.58415 0.94453 0.0
C1807 C 0.62311 0.61536 0.90676 0.0
H1808 H 0.59854 0.64471 0.95278 0.0
H1809 H 0.63537 0.61285 0.96955 0.0
H1810 H 0.58893 0.6304 0.91621 0.0
H1811 H 0.57375 0.61909 0.92944 0.0
H1812 H 0.57901 0.63951 0.93213 0.0
H1813 H 0.63776 0.58902 0.95821 0.0
H1814 H 0.6187 0.58061 0.94898 0.0
H1815 H 0.63482 0.59143 0.93646 0.0
H1816 H 0.57108 0.5704 0.91676 0.0
H1817 H 0.60745 0.59729 0.88495 0.0
H1818 H 0.57259 0.59446 0.94784 0.0
H1819 H 0.58862 0.58169 0.95403 0.0
H1820 H 0.56928 0.57394 0.94471 0.0
H1821 H 0.61867 0.62705 0.90822 0.0
H1822 H 0.62846 0.61546 0.8943 0.0
H1823 H 0.63345 0.61348 0.91573 0.0
C1824 C 0.8062 0.57936 0.90475 0.0
C1825 C 0.80024 0.56996 0.8925 0.0
C1826 C 0.82058 0.59006 0.90227 0.0
C1827 C 0.82916 0.59155 0.88709 0.0
C1828 C 0.82351 0.58184 0.87481 0.0
C1829 C 0.80915 0.57109 0.87769 0.0
C1830 C 0.82637 0.60006 0.91576 0.0
C1831 C 0.8323 0.58317 0.85845 0.0
C1832 C 0.85356 0.63116 0.87714 0.0
C1833 C 0.87009 0.62792 0.88166 0.0
C1834 C 0.84019 0.61925 0.87818 0.0
C1835 C 0.84354 0.6038 0.88397 0.0
C1836 C 0.86044 0.60041 0.88794 0.0
C1837 C 0.87355 0.61256 0.88669 0.0
C1838 C 0.8224 0.6233 0.87363 0.0
C1839 C 0.86454 0.58412 0.89414 0.0
H1840 H 0.79948 0.57848 0.91628 0.0
H1841 H 0.80462 0.5639 0.86814 0.0
H1842 H 0.84003 0.59885 0.91851 0.0
H1843 H 0.8251 0.61258 0.91182 0.0
H1844 H 0.81888 0.59688 0.92713 0.0
H1845 H 0.82699 0.57414 0.85055 0.0
H1846 H 0.83092 0.59491 0.8521 0.0
H1847 H 0.84615 0.58202 0.86004 0.0
H1848 H 0.85112 0.64309 0.87309 0.0
H1849 H 0.88646 0.61023 0.89011 0.0
H1850 H 0.81418 0.62179 0.88464 0.0
H1851 H 0.81673 0.61525 0.86488 0.0
H1852 H 0.82219 0.63555 0.86813 0.0
H1853 H 0.85849 0.58089 0.90623 0.0
H1854 H 0.87849 0.58319 0.89537 0.0
H1855 H 0.85928 0.57546 0.88584 0.0
C1856 C 0.15261 0.02187 0.60152 0.0
C1857 C 0.16099 0.01105 0.61172 0.0
C1858 C 0.14114 0.0314 0.60788 0.0
C1859 C 0.13828 0.03031 0.62489 0.0
C1860 C 0.1462 0.01899 0.63517 0.0
C1861 C 0.15733 0.00936 0.62843 0.0
C1862 C 0.13263 0.04306 0.59646 0.0
C1863 C 0.14369 0.01766 0.6534 0.0
C1864 C 0.12667 0.06719 0.64273 0.0
C1865 C 0.10932 0.06366 0.64602 0.0
C1866 C 0.13625 0.0564 0.63591 0.0
C1867 C 0.12813 0.04185 0.63203 0.0
C1868 C 0.11046 0.03839 0.63505 0.0
C1869 C 0.10128 0.04932 0.64221 0.0
C1870 C 0.15509 0.06048 0.63308 0.0
C1871 C 0.10128 0.0232 0.63071 0.0
H1872 H 0.1553 0.02314 0.58857 0.0
H1873 H 0.16385 0.00109 0.63638 0.0
H1874 H 0.11872 0.04225 0.59889 0.0
H1875 H 0.13779 0.05513 0.59853 0.0
H1876 H 0.13466 0.04122 0.58347 0.0
H1877 H 0.14985 0.0076 0.65959 0.0
H1878 H 0.14919 0.02857 0.65835 0.0
H1879 H 0.12992 0.01631 0.65645 0.0
H1880 H 0.13274 0.07832 0.64584 0.0
H1881 H 0.08779 0.04678 0.64475 0.0
H1882 H 0.15808 0.06051 0.61995 0.0
H1883 H 0.16245 0.0515 0.63973 0.0
H1884 H 0.15948 0.07213 0.63712 0.0
H1885 H 0.10298 0.02191 0.61756 0.0
H1886 H 0.08742 0.02251 0.63343 0.0
H1887 H 0.10682 0.01316 0.63756 0.0
C1888 C 0.66607 0.4891 0.3597 0.0
C1889 C 0.67216 0.48949 0.37569 0.0
C1890 C 0.65511 0.47649 0.3552 0.0
C1891 C 0.64983 0.46411 0.36704 0.0
C1892 C 0.65583 0.46446 0.38323 0.0
C1893 C 0.66706 0.47709 0.38733 0.0
C1894 C 0.64922 0.47639 0.33773 0.0
C1895 C 0.65024 0.45158 0.39624 0.0
C1896 C 0.60902 0.44002 0.35724 0.0
C1897 C 0.61539 0.42682 0.35163 0.0
C1898 C 0.62008 0.45205 0.36282 0.0
C1899 C 0.63791 0.45088 0.36242 0.0
C1900 C 0.64433 0.43737 0.35693 0.0
C1901 C 0.63292 0.42541 0.35171 0.0
C1902 C 0.61271 0.46611 0.36888 0.0
C1903 C 0.66324 0.43575 0.35615 0.0
H1904 H 0.67006 0.49858 0.35062 0.0
H1905 H 0.67165 0.47735 0.39973 0.0
H1906 H 0.65269 0.46557 0.33263 0.0
H1907 H 0.63514 0.47632 0.33717 0.0
H1908 H 0.65488 0.48669 0.32991 0.0
H1909 H 0.65591 0.45369 0.4083 0.0
H1910 H 0.63615 0.45057 0.39741 0.0
H1911 H 0.65391 0.44016 0.39276 0.0
H1912 H 0.59536 0.44087 0.35719 0.0
H1913 H 0.63763 0.41507 0.34732 0.0
H1914 H 0.61675 0.47675 0.36077 0.0
H1915 H 0.61765 0.46806 0.38124 0.0
H1916 H 0.59857 0.46473 0.36936 0.0
H1917 H 0.6694 0.4453 0.34768 0.0
H1918 H 0.6661 0.42433 0.35196 0.0
H1919 H 0.66908 0.43691 0.3683 0.0
C1920 C 0.32451 0.9099 0.14605 0.0
C1921 C 0.31645 0.91881 0.13366 0.0
C1922 C 0.33588 0.899 0.14231 0.0
C1923 C 0.33945 0.89717 0.12581 0.0
C1924 C 0.33201 0.9067 0.1133 0.0
C1925 C 0.32049 0.91729 0.11737 0.0
C1926 C 0.34343 0.88892 0.15598 0.0
C1927 C 0.33575 0.90531 0.09556 0.0
C1928 C 0.37719 0.87589 0.11385 0.0
C1929 C 0.36905 0.86155 0.11016 0.0
C1930 C 0.36781 0.88753 0.11942 0.0
C1931 C 0.34994 0.88457 0.12148 0.0
C1932 C 0.34183 0.86978 0.11837 0.0
C1933 C 0.35151 0.85847 0.11263 0.0
C1934 C 0.37689 0.90316 0.12249 0.0
C1935 C 0.32287 0.86605 0.12069 0.0
H1936 H 0.32139 0.91098 0.15867 0.0
H1937 H 0.31444 0.92425 0.10774 0.0
H1938 H 0.33827 0.87655 0.15549 0.0
H1939 H 0.35746 0.88927 0.15459 0.0
H1940 H 0.34051 0.89265 0.16814 0.0
H1941 H 0.33007 0.91445 0.0874 0.0
H1942 H 0.34972 0.90625 0.09345 0.0
H1943 H 0.33059 0.89364 0.09214 0.0
H1944 H 0.39081 0.87811 0.11186 0.0
H1945 H 0.34542 0.84722 0.10993 0.0
H1946 H 0.37372 0.90636 0.13478 0.0
H1947 H 0.37253 0.91238 0.11353 0.0
H1948 H 0.39095 0.90317 0.12147 0.0
H1949 H 0.31907 0.86845 0.1331 0.0
H1950 H 0.31879 0.85363 0.11889 0.0
H1951 H 0.31591 0.87368 0.11188 0.0
C1952 C 0.8143 0.42463 0.64813 0.0
C1953 C 0.80349 0.43412 0.63897 0.0
C1954 C 0.82162 0.41239 0.64129 0.0
C1955 C 0.81838 0.4099 0.62476 0.0
C1956 C 0.80754 0.41953 0.61544 0.0
C1957 C 0.8001 0.43145 0.62271 0.0
C1958 C 0.83285 0.40216 0.6517 0.0
C1959 C 0.80414 0.4175 0.59767 0.0
C1960 C 0.85095 0.38903 0.60308 0.0
C1961 C 0.84253 0.37412 0.60256 0.0
C1962 C 0.84316 0.40086 0.61013 0.0
C1963 C 0.8267 0.3975 0.6171 0.0
C1964 C 0.81825 0.38231 0.61672 0.0
C1965 C 0.82623 0.37082 0.60925 0.0
C1966 C 0.85249 0.41694 0.61006 0.0
C1967 C 0.8009 0.37818 0.62435 0.0
H1968 H 0.81691 0.42668 0.66073 0.0
H1969 H 0.79207 0.43903 0.61551 0.0
H1970 H 0.82811 0.38966 0.65148 0.0
H1971 H 0.846 0.40347 0.64673 0.0
H1972 H 0.83337 0.40512 0.66455 0.0
H1973 H 0.7953 0.42587 0.59217 0.0
H1974 H 0.81632 0.41923 0.59077 0.0
H1975 H 0.7986 0.40541 0.59623 0.0
H1976 H 0.86359 0.39139 0.59783 0.0
H1977 H 0.81994 0.35915 0.60886 0.0
H1978 H 0.85485 0.41992 0.62273 0.0
H1979 H 0.84455 0.42586 0.60411 0.0
H1980 H 0.86492 0.41776 0.60359 0.0
H1981 H 0.80141 0.38026 0.63745 0.0
H1982 H 0.79621 0.36576 0.62326 0.0
H1983 H 0.79155 0.38582 0.61849 0.0
C1984 C 0.30177 0.08727 0.3874 0.0
C1985 C 0.3014 0.07215 0.38219 0.0
C1986 C 0.31713 0.09665 0.3883 0.0
C1987 C 0.33254 0.09083 0.38382 0.0
C1988 C 0.33231 0.07562 0.37848 0.0
C1989 C 0.31673 0.06642 0.37778 0.0
C1990 C 0.31687 0.1128 0.3941 0.0
C1991 C 0.34852 0.06909 0.37352 0.0
C1992 C 0.3691 0.12179 0.37381 0.0
C1993 C 0.37797 0.12144 0.38857 0.0
C1994 C 0.35465 0.11142 0.37183 0.0
C1995 C 0.34886 0.10066 0.38505 0.0
C1996 C 0.35806 0.10006 0.39987 0.0
C1997 C 0.37259 0.11043 0.40141 0.0
C1998 C 0.34533 0.11228 0.35577 0.0
C1999 C 0.35232 0.08875 0.41423 0.0
H2000 H 0.29001 0.09181 0.39084 0.0
H2001 H 0.31657 0.05479 0.37368 0.0
H2002 H 0.32493 0.11373 0.40511 0.0
H2003 H 0.32229 0.12176 0.38459 0.0
H2004 H 0.30379 0.11561 0.39707 0.0
H2005 H 0.34614 0.05717 0.36936 0.0
H2006 H 0.35492 0.07693 0.36356 0.0
H2007 H 0.3575 0.06857 0.38394 0.0
H2008 H 0.37335 0.13036 0.36394 0.0
H2009 H 0.37974 0.11005 0.41268 0.0
H2010 H 0.33255 0.11641 0.35745 0.0
H2011 H 0.34339 0.10049 0.35126 0.0
H2012 H 0.35231 0.12035 0.34632 0.0
H2013 H 0.33965 0.09148 0.41846 0.0
H2014 H 0.36138 0.08924 0.42459 0.0
H2015 H 0.3509 0.0766 0.41058 0.0
C2016 C 0.66434 0.52067 0.10526 0.0
C2017 C 0.6711 0.50895 0.11566 0.0
C2018 C 0.65263 0.53032 0.11101 0.0
C2019 C 0.64792 0.52846 0.12766 0.0
C2020 C 0.65429 0.51632 0.1381 0.0
C2021 C 0.66565 0.50657 0.13191 0.0
C2022 C 0.64577 0.54287 0.09941 0.0
C2023 C 0.64984 0.51418 0.15599 0.0
C2024 C 0.63554 0.56468 0.14627 0.0
C2025 C 0.61791 0.56155 0.14784 0.0
C2026 C 0.64547 0.55396 0.13977 0.0
C2027 C 0.63742 0.53995 0.13441 0.0
C2028 C 0.61948 0.53695 0.13566 0.0
C2029 C 0.60993 0.54775 0.14259 0.0
C2030 C 0.66457 0.55751 0.1389 0.0
C2031 C 0.61041 0.52239 0.12966 0.0
H2032 H 0.66842 0.52247 0.09265 0.0
H2033 H 0.67094 0.49761 0.14002 0.0
H2034 H 0.6317 0.54246 0.10046 0.0
H2035 H 0.65102 0.55459 0.10258 0.0
H2036 H 0.64914 0.54164 0.08655 0.0
H2037 H 0.65509 0.50366 0.16227 0.0
H2038 H 0.655 0.52464 0.16197 0.0
H2039 H 0.63582 0.5131 0.15767 0.0
H2040 H 0.64153 0.57541 0.15048 0.0
H2041 H 0.59623 0.54553 0.14384 0.0
H2042 H 0.66892 0.55813 0.12607 0.0
H2043 H 0.67092 0.54794 0.14576 0.0
H2044 H 0.66882 0.56875 0.14395 0.0
H2045 H 0.61353 0.5217 0.11665 0.0
H2046 H 0.59636 0.5221 0.13097 0.0
H2047 H 0.61484 0.51182 0.13655 0.0
C2048 C 0.16097 0.96767 0.88337 0.0
C2049 C 0.16546 0.9692 0.89966 0.0
C2050 C 0.15142 0.95423 0.87884 0.0
C2051 C 0.14593 0.94214 0.89093 0.0
C2052 C 0.15024 0.94368 0.90743 0.0
C2053 C 0.16011 0.95714 0.91159 0.0
C2054 C 0.14731 0.95292 0.86106 0.0
C2055 C 0.14432 0.93117 0.92068 0.0
C2056 C 0.10847 0.9158 0.87738 0.0
C2057 C 0.11666 0.90324 0.87241 0.0
C2058 C 0.11772 0.92815 0.88441 0.0
C2059 C 0.13562 0.92799 0.88613 0.0
C2060 C 0.14379 0.9149 0.88178 0.0
C2061 C 0.13413 0.90258 0.87506 0.0
C2062 C 0.10848 0.94171 0.88921 0.0
C2063 C 0.16284 0.91434 0.88325 0.0
H2064 H 0.16517 0.97688 0.87408 0.0
H2065 H 0.16347 0.95829 0.92422 0.0
H2066 H 0.15221 0.94217 0.85703 0.0
H2067 H 0.1333 0.95189 0.85928 0.0
H2068 H 0.1529 0.96318 0.85313 0.0
H2069 H 0.14859 0.93422 0.93295 0.0
H2070 H 0.1302 0.92934 0.92065 0.0
H2071 H 0.14924 0.91987 0.91834 0.0
H2072 H 0.0949 0.91612 0.87529 0.0
H2073 H 0.14031 0.89281 0.87104 0.0
H2074 H 0.11196 0.95221 0.8807 0.0
H2075 H 0.11232 0.94466 0.90161 0.0
H2076 H 0.09441 0.93915 0.88895 0.0
H2077 H 0.16929 0.92344 0.87446 0.0
H2078 H 0.16698 0.90276 0.88076 0.0
H2079 H 0.16718 0.91696 0.89561 0.0
C2080 C 0.91585 0.83352 0.58121 0.0
C2081 C 0.90164 0.82425 0.57606 0.0
C2082 C 0.91424 0.84871 0.5857 0.0
C2083 C 0.898 0.85463 0.58525 0.0
C2084 C 0.88359 0.84524 0.58031 0.0
C2085 C 0.88561 0.83022 0.57568 0.0
C2086 C 0.9299 0.85846 0.59077 0.0
C2087 C 0.86602 0.85107 0.57988 0.0
C2088 C 0.88852 0.88807 0.60987 0.0
C2089 C 0.88859 0.90054 0.59777 0.0
C2090 C 0.8922 0.87315 0.6061 0.0
C2091 C 0.89595 0.87071 0.58979 0.0
C2092 C 0.89651 0.88344 0.5776 0.0
C2093 C 0.89276 0.89824 0.58176 0.0
C2094 C 0.89144 0.8599 0.61944 0.0
C2095 C 0.90067 0.88135 0.56012 0.0
H2096 H 0.9283 0.829 0.58147 0.0
H2097 H 0.87454 0.82311 0.57182 0.0
H2098 H 0.93159 0.86958 0.5828 0.0
H2099 H 0.92833 0.86162 0.6034 0.0
H2100 H 0.94165 0.85225 0.59019 0.0
H2101 H 0.85608 0.84217 0.57609 0.0
H2102 H 0.86264 0.85436 0.59209 0.0
H2103 H 0.86587 0.86174 0.57129 0.0
H2104 H 0.88517 0.88997 0.62223 0.0
H2105 H 0.89292 0.90804 0.57252 0.0
H2106 H 0.90331 0.85381 0.61957 0.0
H2107 H 0.88071 0.85117 0.61711 0.0
H2108 H 0.88967 0.86403 0.63166 0.0
H2109 H 0.91279 0.87574 0.55945 0.0
H2110 H 0.90182 0.89265 0.55239 0.0
H2111 H 0.89052 0.87346 0.55499 0.0
C2112 C 0.87355 0.09459 0.28544 0.0
C2113 C 0.89112 0.09856 0.28339 0.0
C2114 C 0.86429 0.1011 0.29727 0.0
C2115 C 0.87278 0.11192 0.30718 0.0
C2116 C 0.89048 0.116 0.30515 0.0
C2117 C 0.89944 0.10923 0.29333 0.0
C2118 C 0.84545 0.09635 0.29923 0.0
C2119 C 0.89995 0.12757 0.31544 0.0
C2120 C 0.84781 0.14045 0.32784 0.0
C2121 C 0.84717 0.1337 0.34391 0.0
C2122 C 0.85585 0.13334 0.31566 0.0
C2123 C 0.86322 0.11905 0.3197 0.0
C2124 C 0.86218 0.11197 0.33588 0.0
C2125 C 0.85428 0.11948 0.34783 0.0
C2126 C 0.85675 0.14126 0.29856 0.0
C2127 C 0.86975 0.09669 0.34064 0.0
H2128 H 0.86703 0.0863 0.27787 0.0
H2129 H 0.91299 0.11241 0.29182 0.0
H2130 H 0.8428 0.0909 0.31176 0.0
H2131 H 0.83814 0.10684 0.29753 0.0
H2132 H 0.84071 0.08793 0.29044 0.0
H2133 H 0.91369 0.12959 0.31224 0.0
H2134 H 0.89422 0.13896 0.31389 0.0
H2135 H 0.8988 0.12327 0.3285 0.0
H2136 H 0.84211 0.15137 0.32489 0.0
H2137 H 0.85391 0.11441 0.36034 0.0
H2138 H 0.85118 0.13313 0.28985 0.0
H2139 H 0.87026 0.14438 0.29501 0.0
H2140 H 0.84991 0.15208 0.29734 0.0
H2141 H 0.86489 0.08768 0.33254 0.0
H2142 H 0.86679 0.09222 0.35346 0.0
H2143 H 0.8838 0.09829 0.33914 0.0
C2144 C 0.64441 0.12525 0.07235 0.0
C2145 C 0.6313 0.12765 0.06105 0.0
C2146 C 0.64189 0.1143 0.08602 0.0
C2147 C 0.62576 0.10585 0.08861 0.0
C2148 C 0.61241 0.10844 0.07737 0.0
C2149 C 0.6154 0.11916 0.06365 0.0
C2150 C 0.65652 0.1116 0.09756 0.0
C2151 C 0.59493 0.09987 0.07984 0.0
C2152 C 0.61919 0.06706 0.11446 0.0
C2153 C 0.61259 0.07168 0.12883 0.0
C2154 C 0.62447 0.07816 0.10158 0.0
C2155 C 0.62267 0.09423 0.103 0.0
C2156 C 0.61659 0.09899 0.11775 0.0
C2157 C 0.61186 0.08765 0.13059 0.0
C2158 C 0.6313 0.07262 0.08623 0.0
C2159 C 0.61433 0.11597 0.11972 0.0
H2160 H 0.65677 0.13169 0.07034 0.0
H2161 H 0.60517 0.12104 0.05503 0.0
H2162 H 0.65302 0.1141 0.11002 0.0
H2163 H 0.65929 0.09913 0.0982 0.0
H2164 H 0.6683 0.11905 0.09377 0.0
H2165 H 0.58578 0.10361 0.07026 0.0
H2166 H 0.5958 0.08708 0.07977 0.0
H2167 H 0.58977 0.10194 0.09188 0.0
H2168 H 0.61971 0.0547 0.11312 0.0
H2169 H 0.6072 0.09121 0.1419 0.0
H2170 H 0.64324 0.07972 0.08234 0.0
H2171 H 0.62191 0.07414 0.07626 0.0
H2172 H 0.6339 0.06008 0.08785 0.0
H2173 H 0.62635 0.12332 0.11674 0.0
H2174 H 0.61038 0.11783 0.13227 0.0
H2175 H 0.60448 0.12013 0.11108 0.0
C2176 C 0.56436 0.8816 0.848 0.0
C2177 C 0.54819 0.87331 0.84894 0.0
C2178 C 0.57744 0.87743 0.85879 0.0
C2179 C 0.57433 0.86454 0.87062 0.0
C2180 C 0.5581 0.85606 0.8715 0.0
C2181 C 0.54523 0.86059 0.86073 0.0
C2182 C 0.59453 0.88686 0.85765 0.0
C2183 C 0.55431 0.84215 0.88386 0.0
C2184 C 0.60969 0.84222 0.89026 0.0
C2185 C 0.60986 0.84713 0.90599 0.0
C2186 C 0.59872 0.84833 0.87831 0.0
C2187 C 0.5879 0.8598 0.88219 0.0
C2188 C 0.58884 0.86549 0.8978 0.0
C2189 C 0.59967 0.85892 0.90959 0.0
C2190 C 0.59807 0.84191 0.86185 0.0
C2191 C 0.57774 0.87789 0.90237 0.0
H2192 H 0.56673 0.8915 0.83898 0.0
H2193 H 0.53281 0.85407 0.8615 0.0
H2194 H 0.59756 0.89185 0.86939 0.0
H2195 H 0.6047 0.87916 0.85534 0.0
H2196 H 0.5949 0.89659 0.84782 0.0
H2197 H 0.54113 0.83661 0.88273 0.0
H2198 H 0.5634 0.83321 0.88237 0.0
H2199 H 0.55599 0.84587 0.89636 0.0
H2200 H 0.61774 0.83318 0.88753 0.0
H2201 H 0.59961 0.8625 0.92185 0.0
H2202 H 0.59913 0.85159 0.852 0.0
H2203 H 0.58562 0.83512 0.86037 0.0
H2204 H 0.60838 0.83412 0.86028 0.0
H2205 H 0.57815 0.88777 0.89272 0.0
H2206 H 0.58169 0.88255 0.91408 0.0
H2207 H 0.56431 0.87284 0.90353 0.0
C2208 C 0.90397 0.2007 0.87553 0.0
C2209 C 0.90009 0.2088 0.88887 0.0
C2210 C 0.89871 0.18472 0.87515 0.0
C2211 C 0.88896 0.1768 0.88823 0.0
C2212 C 0.88495 0.18498 0.90169 0.0
C2213 C 0.89065 0.20087 0.90187 0.0
C2214 C 0.90351 0.17631 0.86074 0.0
C2215 C 0.87434 0.17703 0.91573 0.0
C2216 C 0.85992 0.14091 0.87974 0.0
C2217 C 0.86873 0.12876 0.88722 0.0
C2218 C 0.86636 0.1566 0.88001 0.0
C2219 C 0.88226 0.16016 0.88752 0.0
C2220 C 0.89149 0.14787 0.89464 0.0
C2221 C 0.88446 0.13231 0.89463 0.0
C2222 C 0.85602 0.16935 0.87244 0.0
C2223 C 0.9087 0.15115 0.90237 0.0
H2224 H 0.91132 0.20684 0.86549 0.0
H2225 H 0.88731 0.20723 0.91201 0.0
H2226 H 0.91002 0.16574 0.86495 0.0
H2227 H 0.89186 0.17229 0.85415 0.0
H2228 H 0.91202 0.1839 0.85207 0.0
H2229 H 0.87261 0.18496 0.92541 0.0
H2230 H 0.86159 0.17282 0.91126 0.0
H2231 H 0.88041 0.16663 0.92118 0.0
H2232 H 0.84793 0.13809 0.87373 0.0
H2233 H 0.89119 0.12288 0.9005 0.0
H2234 H 0.86344 0.17645 0.8626 0.0
H2235 H 0.85316 0.17734 0.88172 0.0
H2236 H 0.8438 0.16459 0.86726 0.0
H2237 H 0.91739 0.15839 0.8936 0.0
H2238 H 0.91468 0.14023 0.90642 0.0
H2239 H 0.90737 0.15794 0.91305 0.0
C2240 C 0.58413 0.17471 0.65151 0.0
C2241 C 0.5704 0.16322 0.65104 0.0
C2242 C 0.5991 0.17378 0.64255 0.0
C2243 C 0.60047 0.1609 0.63321 0.0
C2244 C 0.58658 0.14939 0.63256 0.0
C2245 C 0.57169 0.15077 0.64135 0.0
C2246 C 0.61353 0.18643 0.64325 0.0
C2247 C 0.58761 0.13534 0.62294 0.0
C2248 C 0.63335 0.15928 0.60002 0.0
C2249 C 0.6452 0.15027 0.60829 0.0
C2250 C 0.61924 0.16379 0.60823 0.0
C2251 C 0.61674 0.15873 0.62495 0.0
C2252 C 0.62907 0.15012 0.63344 0.0
C2253 C 0.64325 0.14616 0.62501 0.0
C2254 C 0.60663 0.17333 0.59885 0.0
C2255 C 0.62684 0.14432 0.65119 0.0
H2256 H 0.58317 0.18444 0.65885 0.0
H2257 H 0.56116 0.14183 0.64093 0.0
H2258 H 0.62467 0.18148 0.64944 0.0
H2259 H 0.61766 0.191 0.63075 0.0
H2260 H 0.60992 0.19634 0.64989 0.0
H2261 H 0.57557 0.12758 0.62346 0.0
H2262 H 0.59058 0.13922 0.61 0.0
H2263 H 0.59808 0.1284 0.62774 0.0
H2264 H 0.63486 0.16236 0.58705 0.0
H2265 H 0.65261 0.13935 0.63136 0.0
H2266 H 0.60291 0.18288 0.60595 0.0
H2267 H 0.5949 0.16572 0.59663 0.0
H2268 H 0.61185 0.17855 0.5869 0.0
H2269 H 0.62453 0.15415 0.65851 0.0
H2270 H 0.63811 0.13863 0.65622 0.0
H2271 H 0.61552 0.1357 0.65265 0.0
C2272 C 0.61441 0.86005 0.44238 0.0
C2273 C 0.63121 0.8568 0.44613 0.0
C2274 C 0.61008 0.86643 0.42681 0.0
C2275 C 0.62289 0.86991 0.41476 0.0
C2276 C 0.63996 0.86702 0.41856 0.0
C2277 C 0.6439 0.86035 0.43417 0.0
C2278 C 0.59169 0.86917 0.42318 0.0
C2279 C 0.65401 0.87087 0.40609 0.0
C2280 C 0.6076 0.87147 0.37096 0.0
C2281 C 0.60608 0.8875 0.36743 0.0
C2282 C 0.61342 0.8656 0.38622 0.0
C2283 C 0.61821 0.87611 0.39806 0.0
C2284 C 0.61742 0.89241 0.39426 0.0
C2285 C 0.6111 0.89789 0.37906 0.0
C2286 C 0.61391 0.84813 0.38983 0.0
C2287 C 0.62281 0.90403 0.40639 0.0
H2288 H 0.60452 0.85728 0.45152 0.0
H2289 H 0.65693 0.85797 0.43701 0.0
H2290 H 0.5906 0.88169 0.41911 0.0
H2291 H 0.58699 0.86223 0.41309 0.0
H2292 H 0.58327 0.86589 0.43392 0.0
H2293 H 0.66676 0.86872 0.41124 0.0
H2294 H 0.65161 0.86366 0.39568 0.0
H2295 H 0.6542 0.88332 0.4012 0.0
H2296 H 0.60393 0.86353 0.36182 0.0
H2297 H 0.60973 0.91027 0.37637 0.0
H2298 H 0.60501 0.84387 0.39996 0.0
H2299 H 0.62686 0.84534 0.39384 0.0
H2300 H 0.61032 0.84162 0.3791 0.0
H2301 H 0.61388 0.90245 0.41688 0.0
H2302 H 0.623 0.91633 0.40096 0.0
H2303 H 0.63569 0.90196 0.41119 0.0
C2304 C 0.90953 0.92024 0.19636 0.0
C2305 C 0.89621 0.92329 0.20652 0.0
C2306 C 0.9063 0.91229 0.18236 0.0
C2307 C 0.88927 0.90802 0.17793 0.0
C2308 C 0.8757 0.91162 0.18774 0.0
C2309 C 0.87935 0.91904 0.202 0.0
C2310 C 0.92114 0.90852 0.17231 0.0
C2311 C 0.85734 0.90774 0.1831 0.0
C2312 C 0.88044 0.90117 0.13369 0.0
C2313 C 0.87778 0.88482 0.13452 0.0
C2314 C 0.88406 0.9089 0.14774 0.0
C2315 C 0.88559 0.89999 0.16289 0.0
C2316 C 0.88337 0.88343 0.1637 0.0
C2317 C 0.87925 0.87605 0.14951 0.0
C2318 C 0.8861 0.92658 0.14639 0.0
C2319 C 0.88527 0.87352 0.17955 0.0
H2320 H 0.92246 0.92438 0.199 0.0
H2321 H 0.86893 0.92155 0.20962 0.0
H2322 H 0.92007 0.89586 0.17041 0.0
H2323 H 0.92096 0.9151 0.16013 0.0
H2324 H 0.93361 0.91152 0.17813 0.0
H2325 H 0.84827 0.91193 0.19166 0.0
H2326 H 0.8549 0.9131 0.17065 0.0
H2327 H 0.8547 0.89488 0.18289 0.0
H2328 H 0.8796 0.9079 0.12202 0.0
H2329 H 0.877 0.86341 0.15011 0.0
H2330 H 0.89929 0.9307 0.14966 0.0
H2331 H 0.87742 0.93109 0.15508 0.0
H2332 H 0.88339 0.93174 0.13391 0.0
H2333 H 0.8979 0.87657 0.18502 0.0
H2334 H 0.88402 0.86079 0.17794 0.0
H2335 H 0.87543 0.87595 0.18834 0.0
C2336 C 0.08891 0.67864 0.15599 0.0
C2337 C 0.07439 0.68553 0.14991 0.0
C2338 C 0.10322 0.67808 0.14607 0.0
C2339 C 0.1031 0.68479 0.12976 0.0
C2340 C 0.08916 0.69307 0.12405 0.0
C2341 C 0.07488 0.69322 0.13415 0.0
C2342 C 0.11782 0.6691 0.15263 0.0
C2343 C 0.08878 0.70078 0.10689 0.0
C2344 C 0.14441 0.68458 0.10598 0.0
C2345 C 0.14122 0.67078 0.09825 0.0
C2346 C 0.13184 0.68981 0.11574 0.0
C2347 C 0.116 0.68075 0.11808 0.0
C2348 C 0.11267 0.66703 0.10987 0.0
C2349 C 0.12526 0.66236 0.09991 0.0
C2350 C 0.1357 0.70473 0.12388 0.0
C2351 C 0.09602 0.65695 0.11202 0.0
H2352 H 0.08872 0.67276 0.16819 0.0
H2353 H 0.06382 0.69881 0.12943 0.0
H2354 H 0.11784 0.65804 0.14665 0.0
H2355 H 0.13019 0.67595 0.14981 0.0
H2356 H 0.11689 0.66616 0.166 0.0
H2357 H 0.07878 0.70915 0.10534 0.0
H2358 H 0.10131 0.70709 0.10351 0.0
H2359 H 0.0861 0.69168 0.09828 0.0
H2360 H 0.1568 0.69107 0.1046 0.0
H2361 H 0.12282 0.65185 0.09364 0.0
H2362 H 0.13824 0.70181 0.137 0.0
H2363 H 0.12465 0.71194 0.123 0.0
H2364 H 0.14704 0.71183 0.11844 0.0
H2365 H 0.09426 0.65254 0.12501 0.0
H2366 H 0.09544 0.64675 0.1046 0.0
H2367 H 0.0852 0.66399 0.10852 0.0
C2368 C 0.15044 0.36667 0.9423 0.0
C2369 C 0.14741 0.35066 0.94739 0.0
C2370 C 0.14647 0.3725 0.92638 0.0
C2371 C 0.13901 0.36213 0.91543 0.0
C2372 C 0.13634 0.34593 0.92036 0.0
C2373 C 0.14069 0.34038 0.93622 0.0
C2374 C 0.14982 0.38982 0.92143 0.0
C2375 C 0.12826 0.3345 0.90909 0.0
C2376 C 0.10978 0.37731 0.88205 0.0
C2377 C 0.1198 0.37708 0.86814 0.0
C2378 C 0.116 0.37277 0.89756 0.0
C2379 C 0.13285 0.36825 0.8992 0.0
C2380 C 0.14332 0.36869 0.88522 0.0
C2381 C 0.13656 0.37288 0.86981 0.0
C2382 C 0.10437 0.37234 0.91211 0.0
C2383 C 0.16148 0.36437 0.8865 0.0
H2384 H 0.15577 0.37468 0.9508 0.0
H2385 H 0.13829 0.328 0.94003 0.0
H2386 H 0.15687 0.39175 0.90972 0.0
H2387 H 0.13754 0.39513 0.91954 0.0
H2388 H 0.15725 0.39603 0.93076 0.0
H2389 H 0.12764 0.3222 0.91458 0.0
H2390 H 0.11512 0.33749 0.90601 0.0
H2391 H 0.13553 0.33535 0.89752 0.0
H2392 H 0.09693 0.38086 0.88071 0.0
H2393 H 0.14426 0.37262 0.85901 0.0
H2394 H 0.11035 0.37966 0.92136 0.0
H2395 H 0.10231 0.36017 0.91788 0.0
H2396 H 0.09177 0.37659 0.90878 0.0
H2397 H 0.16849 0.37098 0.89577 0.0
H2398 H 0.16839 0.36678 0.87471 0.0
H2399 H 0.16162 0.35173 0.89052 0.0
C2400 C 0.39365 0.41677 0.70299 0.0
C2401 C 0.4108 0.41559 0.70719 0.0
C2402 C 0.38663 0.41 0.68929 0.0
C2403 C 0.39706 0.40191 0.67958 0.0
C2404 C 0.41433 0.40053 0.68389 0.0
C2405 C 0.42091 0.40721 0.69776 0.0
C2406 C 0.36813 0.41161 0.68514 0.0
C2407 C 0.42585 0.39196 0.67386 0.0
C2408 C 0.37742 0.3721 0.65208 0.0
C2409 C 0.37858 0.38067 0.63685 0.0
C2410 C 0.38303 0.37897 0.66619 0.0
C2411 C 0.38997 0.39478 0.66493 0.0
C2412 C 0.39082 0.40357 0.64955 0.0
C2413 C 0.38514 0.39636 0.63567 0.0
C2414 C 0.38171 0.36928 0.68239 0.0
C2415 C 0.3981 0.42044 0.64769 0.0
H2416 H 0.38573 0.42312 0.71033 0.0
H2417 H 0.43389 0.40554 0.7014 0.0
H2418 H 0.36718 0.41847 0.67319 0.0
H2419 H 0.36134 0.3999 0.68404 0.0
H2420 H 0.36152 0.41753 0.69441 0.0
H2421 H 0.43904 0.39213 0.67875 0.0
H2422 H 0.42066 0.37959 0.67352 0.0
H2423 H 0.42638 0.39736 0.66112 0.0
H2424 H 0.37212 0.36001 0.65287 0.0
H2425 H 0.38609 0.40288 0.6238 0.0
H2426 H 0.37448 0.37524 0.69116 0.0
H2427 H 0.39463 0.36808 0.68753 0.0
H2428 H 0.37533 0.35738 0.68136 0.0
H2429 H 0.39127 0.42745 0.65581 0.0
H2430 H 0.39719 0.42579 0.63498 0.0
H2431 H 0.41169 0.42121 0.6514 0.0
C2432 C 0.1584 0.62726 0.5728 0.0
C2433 C 0.14663 0.62793 0.55995 0.0
C2434 C 0.1555 0.61645 0.58653 0.0
C2435 C 0.14034 0.60629 0.58755 0.0
C2436 C 0.12847 0.60688 0.5746 0.0
C2437 C 0.13182 0.61759 0.56092 0.0
C2438 C 0.16858 0.61595 0.59998 0.0
C2439 C 0.11204 0.59641 0.57531 0.0
C2440 C 0.13468 0.56911 0.61623 0.0
C2441 C 0.12519 0.57405 0.62884 0.0
C2442 C 0.14054 0.57969 0.6031 0.0
C2443 C 0.1364 0.59545 0.6024 0.0
C2444 C 0.12723 0.60055 0.61537 0.0
C2445 C 0.12192 0.58981 0.62852 0.0
C2446 C 0.15061 0.57386 0.5897 0.0
C2447 C 0.12239 0.61719 0.61506 0.0
H2448 H 0.16993 0.63513 0.57208 0.0
H2449 H 0.12263 0.61805 0.5511 0.0
H2450 H 0.16297 0.61925 0.61136 0.0
H2451 H 0.17244 0.60386 0.60251 0.0
H2452 H 0.18014 0.62398 0.59692 0.0
H2453 H 0.10419 0.59826 0.56417 0.0
H2454 H 0.11481 0.58394 0.57687 0.0
H2455 H 0.10441 0.59865 0.586 0.0
H2456 H 0.13709 0.55688 0.61644 0.0
H2457 H 0.11482 0.59361 0.63844 0.0
H2458 H 0.16206 0.582 0.58662 0.0
H2459 H 0.14268 0.57341 0.57856 0.0
H2460 H 0.15473 0.56197 0.59313 0.0
H2461 H 0.13387 0.62555 0.61318 0.0
H2462 H 0.11598 0.61945 0.62647 0.0
H2463 H 0.11367 0.61961 0.60469 0.0
C2464 C 0.40121 0.31844 0.10747 0.0
C2465 C 0.3946 0.31499 0.09222 0.0
C2466 C 0.40065 0.33346 0.11284 0.0
C2467 C 0.39305 0.34517 0.10282 0.0
C2468 C 0.38665 0.34183 0.08732 0.0
C2469 C 0.38761 0.32684 0.08218 0.0
C2470 C 0.40785 0.3367 0.12932 0.0
C2471 C 0.37832 0.35397 0.07632 0.0
C2472 C 0.37243 0.37824 0.12023 0.0
C2473 C 0.38379 0.39112 0.11517 0.0
C2474 C 0.37568 0.36306 0.11698 0.0
C2475 C 0.39085 0.36072 0.10872 0.0
C2476 C 0.40292 0.37361 0.10454 0.0
C2477 C 0.39914 0.38872 0.10765 0.0
C2478 C 0.36242 0.34967 0.12154 0.0
C2479 C 0.41941 0.37155 0.09608 0.0
H2480 H 0.40674 0.30938 0.11526 0.0
H2481 H 0.38246 0.32431 0.07039 0.0
H2482 H 0.41677 0.34745 0.12827 0.0
H2483 H 0.3974 0.33881 0.13759 0.0
H2484 H 0.41469 0.32682 0.13498 0.0
H2485 H 0.3743 0.34959 0.0645 0.0
H2486 H 0.36694 0.35753 0.08244 0.0
H2487 H 0.38724 0.3646 0.07388 0.0
H2488 H 0.3607 0.38019 0.12625 0.0
H2489 H 0.40786 0.39873 0.10367 0.0
H2490 H 0.36835 0.33986 0.12841 0.0
H2491 H 0.35679 0.34518 0.11032 0.0
H2492 H 0.35199 0.35325 0.12903 0.0
H2493 H 0.42599 0.36197 0.10264 0.0
H2494 H 0.42817 0.38243 0.09525 0.0
H2495 H 0.4167 0.36821 0.08358 0.0
C2496 C 0.59153 0.37028 0.15598 0.0
C2497 C 0.57469 0.36352 0.15721 0.0
C2498 C 0.6039 0.36334 0.14749 0.0
C2499 C 0.59914 0.34962 0.13968 0.0
C2500 C 0.5821 0.34288 0.14073 0.0
C2501 C 0.57015 0.34979 0.14968 0.0
C2502 C 0.62207 0.3706 0.14698 0.0
C2503 C 0.57643 0.32849 0.13221 0.0
C2504 C 0.62648 0.33932 0.10505 0.0
C2505 C 0.63472 0.32686 0.11259 0.0
C2506 C 0.61494 0.34697 0.11375 0.0
C2507 C 0.61193 0.34217 0.13045 0.0
C2508 C 0.62059 0.32976 0.13817 0.0
C2509 C 0.63173 0.3221 0.12904 0.0
C2510 C 0.60575 0.35995 0.10502 0.0
C2511 C 0.61808 0.32459 0.15604 0.0
H2512 H 0.59509 0.38086 0.16186 0.0
H2513 H 0.55709 0.34463 0.15044 0.0
H2514 H 0.63076 0.36186 0.15196 0.0
H2515 H 0.62603 0.37415 0.13421 0.0
H2516 H 0.62379 0.38103 0.15405 0.0
H2517 H 0.56258 0.32502 0.13379 0.0
H2518 H 0.57926 0.33067 0.11899 0.0
H2519 H 0.58359 0.31852 0.137 0.0
H2520 H 0.62897 0.34289 0.09229 0.0
H2521 H 0.63838 0.31253 0.13474 0.0
H2522 H 0.60848 0.37094 0.11099 0.0
H2523 H 0.59178 0.35689 0.10574 0.0
H2524 H 0.6095 0.36219 0.092 0.0
H2525 H 0.62057 0.33476 0.16336 0.0
H2526 H 0.62657 0.31543 0.16038 0.0
H2527 H 0.60467 0.31987 0.15832 0.0
C2528 C 0.9149 0.54572 0.70445 0.0
C2529 C 0.92438 0.54952 0.71822 0.0
C2530 C 0.90693 0.55717 0.69474 0.0
C2531 C 0.90849 0.57284 0.69889 0.0
C2532 C 0.91769 0.57671 0.71299 0.0
C2533 C 0.92568 0.56502 0.7224 0.0
C2534 C 0.89746 0.55257 0.67967 0.0
C2535 C 0.91966 0.59331 0.71776 0.0
C2536 C 0.90401 0.60409 0.66403 0.0
C2537 C 0.88719 0.60765 0.666 0.0
C2538 C 0.91123 0.59304 0.67489 0.0
C2539 C 0.90129 0.58529 0.68793 0.0
C2540 C 0.88429 0.58895 0.69002 0.0
C2541 C 0.87747 0.60016 0.67903 0.0
C2542 C 0.92934 0.58935 0.67214 0.0
C2543 C 0.87326 0.58082 0.70367 0.0
H2544 H 0.91397 0.53378 0.70106 0.0
H2545 H 0.9336 0.56823 0.73254 0.0
H2546 H 0.88527 0.5581 0.67842 0.0
H2547 H 0.90526 0.55678 0.66875 0.0
H2548 H 0.89474 0.53968 0.67978 0.0
H2549 H 0.92601 0.59415 0.72976 0.0
H2550 H 0.92734 0.60087 0.70842 0.0
H2551 H 0.90701 0.59803 0.71828 0.0
H2552 H 0.91132 0.6097 0.6537 0.0
H2553 H 0.86443 0.60297 0.68041 0.0
H2554 H 0.92947 0.57697 0.66938 0.0
H2555 H 0.93699 0.59075 0.68333 0.0
H2556 H 0.93559 0.59698 0.66193 0.0
H2557 H 0.87263 0.56794 0.70313 0.0
H2558 H 0.86008 0.58453 0.70317 0.0
H2559 H 0.87898 0.58341 0.71556 0.0
C2560 C 0.65217 0.34189 0.55107 0.0
C2561 C 0.64581 0.337 0.53626 0.0
C2562 C 0.64409 0.35283 0.55927 0.0
C2563 C 0.62919 0.35891 0.55255 0.0
C2564 C 0.62294 0.35432 0.53741 0.0
C2565 C 0.63129 0.34335 0.52947 0.0
C2566 C 0.65117 0.35748 0.57539 0.0
C2567 C 0.60705 0.36051 0.5299 0.0
C2568 C 0.59833 0.372 0.58267 0.0
C2569 C 0.60205 0.38825 0.58106 0.0
C2570 C 0.60684 0.36235 0.57321 0.0
C2571 C 0.61948 0.36916 0.56197 0.0
C2572 C 0.62313 0.38563 0.56017 0.0
C2573 C 0.61431 0.395 0.56975 0.0
C2574 C 0.60263 0.34484 0.57556 0.0
C2575 C 0.63658 0.3933 0.54841 0.0
H2576 H 0.66339 0.33698 0.55638 0.0
H2577 H 0.62596 0.33924 0.51835 0.0
H2578 H 0.6531 0.37043 0.57521 0.0
H2579 H 0.64192 0.35336 0.58526 0.0
H2580 H 0.66348 0.35251 0.57841 0.0
H2581 H 0.60468 0.35683 0.51745 0.0
H2582 H 0.59586 0.35619 0.53765 0.0
H2583 H 0.60804 0.3735 0.52928 0.0
H2584 H 0.58908 0.36684 0.5917 0.0
H2585 H 0.61712 0.4076 0.56861 0.0
H2586 H 0.614 0.33906 0.58013 0.0
H2587 H 0.59907 0.34023 0.56374 0.0
H2588 H 0.59199 0.34149 0.58431 0.0
H2589 H 0.64923 0.38943 0.5521 0.0
H2590 H 0.63729 0.40629 0.5479 0.0
H2591 H 0.63394 0.38966 0.536 0.0
C2592 C 0.40266 0.6038 0.80272 0.0
C2593 C 0.39527 0.59291 0.7925 0.0
C2594 C 0.39301 0.60966 0.81466 0.0
C2595 C 0.37553 0.60445 0.81652 0.0
C2596 C 0.36797 0.59338 0.80635 0.0
C2597 C 0.37792 0.58778 0.79441 0.0
C2598 C 0.40152 0.62149 0.82526 0.0
C2599 C 0.34941 0.58747 0.80812 0.0
C2600 C 0.35695 0.6108 0.85746 0.0
C2601 C 0.34937 0.62482 0.85384 0.0
C2602 C 0.36475 0.60356 0.84525 0.0
C2603 C 0.36527 0.61074 0.82911 0.0
C2604 C 0.35715 0.62468 0.82531 0.0
C2605 C 0.34919 0.63151 0.83775 0.0
C2606 C 0.37302 0.58857 0.84975 0.0
C2607 C 0.35744 0.6327 0.80826 0.0
H2608 H 0.41603 0.60785 0.80134 0.0
H2609 H 0.37211 0.57932 0.78661 0.0
H2610 H 0.39495 0.63245 0.82389 0.0
H2611 H 0.4005 0.61689 0.83825 0.0
H2612 H 0.4152 0.6244 0.82219 0.0
H2613 H 0.34549 0.57876 0.79935 0.0
H2614 H 0.34687 0.58196 0.82066 0.0
H2615 H 0.3413 0.5974 0.80621 0.0
H2616 H 0.35724 0.60578 0.86997 0.0
H2617 H 0.34312 0.64227 0.83503 0.0
H2618 H 0.38705 0.59077 0.84839 0.0
H2619 H 0.36869 0.57958 0.84143 0.0
H2620 H 0.3701 0.58376 0.86248 0.0
H2621 H 0.37074 0.63692 0.80478 0.0
H2622 H 0.34955 0.64285 0.80713 0.0
H2623 H 0.35274 0.62431 0.79945 0.0
C2624 C 0.05451 0.36202 0.3586 0.0
C2625 C 0.05869 0.37468 0.34699 0.0
C2626 C 0.06688 0.35605 0.36916 0.0
C2627 C 0.08383 0.36303 0.36826 0.0
C2628 C 0.08813 0.37592 0.35671 0.0
C2629 C 0.07553 0.38152 0.34611 0.0
C2630 C 0.06184 0.34217 0.38121 0.0
C2631 C 0.10602 0.38381 0.35558 0.0
C2632 C 0.1111 0.35467 0.40568 0.0
C2633 C 0.1203 0.34261 0.40093 0.0
C2634 C 0.09961 0.36185 0.39496 0.0
C2635 C 0.09706 0.35658 0.37925 0.0
C2636 C 0.10655 0.34453 0.37435 0.0
C2637 C 0.11816 0.33778 0.38523 0.0
C2638 C 0.08994 0.37482 0.40055 0.0
C2639 C 0.10414 0.33851 0.35777 0.0
H2640 H 0.04155 0.35663 0.35934 0.0
H2641 H 0.07884 0.39138 0.33725 0.0
H2642 H 0.06956 0.33233 0.37909 0.0
H2643 H 0.0645 0.34529 0.3938 0.0
H2644 H 0.04814 0.33806 0.38032 0.0
H2645 H 0.10718 0.39399 0.34625 0.0
H2646 H 0.10999 0.38788 0.36754 0.0
H2647 H 0.11506 0.37531 0.35248 0.0
H2648 H 0.11271 0.35829 0.41789 0.0
H2649 H 0.1255 0.32858 0.38158 0.0
H2650 H 0.07611 0.37106 0.40107 0.0
H2651 H 0.09169 0.38533 0.39172 0.0
H2652 H 0.09412 0.37814 0.41276 0.0
H2653 H 0.09081 0.33345 0.35648 0.0
H2654 H 0.11287 0.3294 0.35568 0.0
H2655 H 0.10636 0.34829 0.34811 0.0
C2656 C 0.39912 0.70124 0.38294 0.0
C2657 C 0.39623 0.70813 0.39733 0.0
C2658 C 0.39276 0.68574 0.38102 0.0
C2659 C 0.38286 0.67715 0.39362 0.0
C2660 C 0.37984 0.68412 0.40814 0.0
C2661 C 0.38668 0.6995 0.40987 0.0
C2662 C 0.39662 0.67856 0.36553 0.0
C2663 C 0.36907 0.67547 0.42171 0.0
C2664 C 0.35226 0.64364 0.3814 0.0
C2665 C 0.36096 0.63059 0.38664 0.0
C2666 C 0.35913 0.65885 0.38383 0.0
C2667 C 0.37525 0.66104 0.39139 0.0
C2668 C 0.3841 0.64785 0.3967 0.0
C2669 C 0.37672 0.63276 0.39443 0.0
C2670 C 0.34919 0.67257 0.37817 0.0
C2671 C 0.40137 0.64969 0.40467 0.0
H2672 H 0.40656 0.70791 0.37326 0.0
H2673 H 0.38413 0.70495 0.42086 0.0
H2674 H 0.40279 0.66752 0.36847 0.0
H2675 H 0.3846 0.6755 0.35902 0.0
H2676 H 0.40511 0.68656 0.35722 0.0
H2677 H 0.36817 0.68246 0.43232 0.0
H2678 H 0.35602 0.67246 0.41716 0.0
H2679 H 0.37446 0.6643 0.42587 0.0
H2680 H 0.34017 0.6419 0.3752 0.0
H2681 H 0.38332 0.62261 0.39863 0.0
H2682 H 0.35649 0.68022 0.36864 0.0
H2683 H 0.34729 0.67974 0.38846 0.0
H2684 H 0.33653 0.66882 0.37315 0.0
H2685 H 0.41029 0.65757 0.39668 0.0
H2686 H 0.40694 0.6383 0.40732 0.0
H2687 H 0.40031 0.6552 0.41624 0.0
C2688 C 0.14316 0.36375 0.05801 0.0
C2689 C 0.13171 0.35338 0.05028 0.0
C2690 C 0.1388 0.36964 0.07265 0.0
C2691 C 0.12263 0.36501 0.07978 0.0
C2692 C 0.11126 0.35415 0.07234 0.0
C2693 C 0.11592 0.34849 0.05768 0.0
C2694 C 0.15126 0.38123 0.08021 0.0
C2695 C 0.09392 0.3489 0.07958 0.0
C2696 C 0.11507 0.37224 0.12396 0.0
C2697 C 0.10668 0.38599 0.12212 0.0
C2698 C 0.12034 0.36522 0.11029 0.0
C2699 C 0.1172 0.37222 0.09447 0.0
C2700 C 0.10873 0.38615 0.09261 0.0
C2701 C 0.10354 0.39282 0.10648 0.0
C2702 C 0.12937 0.35041 0.11277 0.0
C2703 C 0.10517 0.39403 0.07599 0.0
H2704 H 0.15539 0.3676 0.05241 0.0
H2705 H 0.107 0.34044 0.05186 0.0
H2706 H 0.14585 0.39274 0.07999 0.0
H2707 H 0.15351 0.37725 0.09316 0.0
H2708 H 0.1637 0.3829 0.07373 0.0
H2709 H 0.08699 0.33968 0.07286 0.0
H2710 H 0.0952 0.3443 0.09249 0.0
H2711 H 0.0861 0.35904 0.07938 0.0
H2712 H 0.11772 0.36715 0.13611 0.0
H2713 H 0.09698 0.40343 0.10516 0.0
H2714 H 0.14228 0.35239 0.10726 0.0
H2715 H 0.12231 0.34095 0.10652 0.0
H2716 H 0.13065 0.34635 0.12586 0.0
H2717 H 0.1173 0.39717 0.06923 0.0
H2718 H 0.09852 0.40483 0.07668 0.0
H2719 H 0.09721 0.38585 0.06883 0.0
C2720 C 0.90844 0.91843 0.30302 0.0
C2721 C 0.89333 0.92404 0.29664 0.0
C2722 C 0.90869 0.9101 0.31845 0.0
C2723 C 0.89349 0.90731 0.32771 0.0
C2724 C 0.87814 0.91267 0.32121 0.0
C2725 C 0.87824 0.92094 0.30575 0.0
C2726 C 0.9253 0.90459 0.32501 0.0
C2727 C 0.86166 0.90989 0.33072 0.0
C2728 C 0.88871 0.87594 0.36324 0.0
C2729 C 0.89083 0.885 0.37649 0.0
C2730 C 0.89014 0.88296 0.34721 0.0
C2731 C 0.89369 0.89942 0.3445 0.0
C2732 C 0.89646 0.9085 0.35793 0.0
C2733 C 0.89507 0.90114 0.37377 0.0
C2734 C 0.8871 0.87289 0.33322 0.0
C2735 C 0.9001 0.92608 0.35559 0.0
H2736 H 0.92015 0.92074 0.29606 0.0
H2737 H 0.8665 0.92519 0.3009 0.0
H2738 H 0.92897 0.91051 0.33609 0.0
H2739 H 0.92378 0.89181 0.32863 0.0
H2740 H 0.93582 0.90703 0.31599 0.0
H2741 H 0.85088 0.91508 0.32409 0.0
H2742 H 0.85833 0.89713 0.33337 0.0
H2743 H 0.86321 0.91498 0.34259 0.0
H2744 H 0.88521 0.86348 0.36547 0.0
H2745 H 0.89671 0.90804 0.38413 0.0
H2746 H 0.89762 0.87531 0.32423 0.0
H2747 H 0.87517 0.87577 0.32685 0.0
H2748 H 0.88598 0.8602 0.33734 0.0
H2749 H 0.91095 0.92927 0.34708 0.0
H2750 H 0.90311 0.93126 0.36725 0.0
H2751 H 0.88883 0.93142 0.35011 0.0
C2752 C 0.42092 0.67764 0.48529 0.0
C2753 C 0.42605 0.69372 0.48388 0.0
C2754 C 0.4219 0.6686 0.50023 0.0
C2755 C 0.4281 0.67582 0.51412 0.0
C2756 C 0.43379 0.69194 0.51269 0.0
C2757 C 0.43272 0.7007 0.49757 0.0
C2758 C 0.41579 0.65141 0.50125 0.0
C2759 C 0.44042 0.70004 0.52726 0.0
C2760 C 0.41077 0.65577 0.55406 0.0
C2761 C 0.4241 0.64684 0.55932 0.0
C2762 C 0.4122 0.66575 0.53968 0.0
C2763 C 0.42733 0.66671 0.53033 0.0
C2764 C 0.44114 0.65815 0.53598 0.0
C2765 C 0.43935 0.64829 0.55051 0.0
C2766 C 0.39724 0.67475 0.53417 0.0
C2767 C 0.45745 0.65887 0.52634 0.0
H2768 H 0.41586 0.67212 0.47476 0.0
H2769 H 0.43677 0.71311 0.49659 0.0
H2770 H 0.42577 0.64426 0.50676 0.0
H2771 H 0.40439 0.64918 0.50925 0.0
H2772 H 0.4124 0.64736 0.48913 0.0
H2773 H 0.44561 0.71231 0.52386 0.0
H2774 H 0.42997 0.70017 0.5362 0.0
H2775 H 0.45056 0.69355 0.53344 0.0
H2776 H 0.39906 0.65458 0.56107 0.0
H2777 H 0.44955 0.64125 0.5547 0.0
H2778 H 0.39196 0.67045 0.52273 0.0
H2779 H 0.40141 0.68737 0.53154 0.0
H2780 H 0.3869 0.67354 0.54342 0.0
H2781 H 0.4549 0.65345 0.51475 0.0
H2782 H 0.46747 0.65265 0.53311 0.0
H2783 H 0.46238 0.67123 0.52315 0.0
C2784 C 0.5416 0.14371 0.7465 0.0
C2785 C 0.54456 0.15937 0.74012 0.0
C2786 C 0.54679 0.13886 0.76234 0.0
C2787 C 0.55522 0.14992 0.77204 0.0
C2788 C 0.55803 0.16579 0.76576 0.0
C2789 C 0.55265 0.17033 0.74989 0.0
C2790 C 0.54351 0.12184 0.76861 0.0
C2791 C 0.56702 0.17792 0.7757 0.0
C2792 C 0.55735 0.13912 0.81777 0.0
C2793 C 0.57355 0.13364 0.81937 0.0
C2794 C 0.55125 0.14465 0.80246 0.0
C2795 C 0.56168 0.14473 0.78849 0.0
C2796 C 0.57821 0.13947 0.79017 0.0
C2797 C 0.58393 0.13398 0.80561 0.0
C2798 C 0.53355 0.15013 0.80118 0.0
C2799 C 0.58978 0.13944 0.77564 0.0
H2800 H 0.53532 0.13517 0.73907 0.0
H2801 H 0.55499 0.18246 0.74508 0.0
H2802 H 0.5558 0.1167 0.77119 0.0
H2803 H 0.53629 0.1208 0.78023 0.0
H2804 H 0.53623 0.11483 0.7598 0.0
H2805 H 0.56767 0.18988 0.76929 0.0
H2806 H 0.56036 0.17808 0.7875 0.0
H2807 H 0.58019 0.17485 0.77849 0.0
H2808 H 0.54937 0.13874 0.82848 0.0
H2809 H 0.59654 0.12988 0.80699 0.0
H2810 H 0.52553 0.14261 0.79337 0.0
H2811 H 0.53407 0.16227 0.7953 0.0
H2812 H 0.52729 0.14981 0.81326 0.0
H2813 H 0.58376 0.13169 0.76679 0.0
H2814 H 0.60243 0.13537 0.77909 0.0
H2815 H 0.59172 0.1514 0.76934 0.0
C2816 C 0.14576 0.63601 0.44575 0.0
C2817 C 0.13807 0.64537 0.45619 0.0
C2818 C 0.13992 0.6348 0.42975 0.0
C2819 C 0.12598 0.64311 0.42406 0.0
C2820 C 0.11839 0.65286 0.43439 0.0
C2821 C 0.12456 0.65391 0.45032 0.0
C2822 C 0.14841 0.62436 0.41904 0.0
C2823 C 0.10344 0.66182 0.42878 0.0
C2824 C 0.11899 0.6485 0.37828 0.0
C2825 C 0.10673 0.63613 0.37603 0.0
C2826 C 0.12522 0.65109 0.3939 0.0
C2827 C 0.11894 0.64108 0.40751 0.0
C2828 C 0.10626 0.62876 0.40525 0.0
C2829 C 0.10033 0.62643 0.3895 0.0
C2830 C 0.13885 0.66425 0.39578 0.0
C2831 C 0.0992 0.61783 0.41941 0.0
H2832 H 0.15624 0.6294 0.45014 0.0
H2833 H 0.11852 0.66116 0.45829 0.0
H2834 H 0.13917 0.61463 0.41588 0.0
H2835 H 0.15265 0.63107 0.40745 0.0
H2836 H 0.15961 0.61927 0.42502 0.0
H2837 H 0.09942 0.66938 0.43805 0.0
H2838 H 0.10671 0.66926 0.41736 0.0
H2839 H 0.09247 0.65349 0.42607 0.0
H2840 H 0.12405 0.65581 0.36774 0.0
H2841 H 0.09083 0.61689 0.38761 0.0
H2842 H 0.15069 0.65936 0.40051 0.0
H2843 H 0.13477 0.67204 0.40477 0.0
H2844 H 0.14183 0.67138 0.38408 0.0
H2845 H 0.1095 0.61118 0.42506 0.0
H2846 H 0.08879 0.60934 0.41568 0.0
H2847 H 0.09423 0.62465 0.42889 0.0
C2848 C 0.53516 0.87291 0.75215 0.0
C2849 C 0.53526 0.88788 0.75769 0.0
C2850 C 0.54282 0.8707 0.73727 0.0
C2851 C 0.55068 0.88378 0.72768 0.0
C2852 C 0.55043 0.89896 0.73301 0.0
C2853 C 0.54277 0.90082 0.74796 0.0
C2854 C 0.5429 0.85434 0.73201 0.0
C2855 C 0.55859 0.91323 0.72309 0.0
C2856 C 0.58674 0.87973 0.6985 0.0
C2857 C 0.57855 0.88138 0.68343 0.0
C2858 C 0.57765 0.87979 0.71306 0.0
C2859 C 0.55995 0.88164 0.71246 0.0
C2860 C 0.55149 0.88262 0.69723 0.0
C2861 C 0.56093 0.88245 0.68285 0.0
C2862 C 0.58715 0.87858 0.72902 0.0
C2863 C 0.53266 0.88463 0.69608 0.0
H2864 H 0.52938 0.86284 0.75959 0.0
H2865 H 0.54284 0.91243 0.75211 0.0
H2866 H 0.53757 0.85386 0.71956 0.0
H2867 H 0.5562 0.85106 0.73156 0.0
H2868 H 0.53543 0.84551 0.74039 0.0
H2869 H 0.5566 0.92428 0.72857 0.0
H2870 H 0.5725 0.91228 0.72204 0.0
H2871 H 0.55331 0.91393 0.71057 0.0
H2872 H 0.60039 0.87886 0.69879 0.0
H2873 H 0.55473 0.88386 0.6711 0.0
H2874 H 0.58067 0.86932 0.73761 0.0
H2875 H 0.58717 0.8898 0.7347 0.0
H2876 H 0.60056 0.87591 0.72746 0.0
H2877 H 0.52539 0.87569 0.70444 0.0
H2878 H 0.52773 0.88373 0.68352 0.0
H2879 H 0.53021 0.89629 0.6999 0.0
C2880 C 0.37298 0.29735 0.00213 0.0
C2881 C 0.38778 0.29089 0.00813 0.0
C2882 C 0.37302 0.30637 0.98709 0.0
C2883 C 0.38817 0.3088 0.97771 0.0
C2884 C 0.40289 0.3016 0.98328 0.0
C2885 C 0.40256 0.29282 0.9985 0.0
C2886 C 0.35709 0.31394 0.98165 0.0
C2887 C 0.41918 0.30369 0.97346 0.0
C2888 C 0.38276 0.3256 0.93396 0.0
C2889 C 0.38698 0.34156 0.9353 0.0
C2890 C 0.38378 0.31463 0.94752 0.0
C2891 C 0.38888 0.31988 0.96276 0.0
C2892 C 0.39366 0.33599 0.96397 0.0
C2893 C 0.39278 0.34662 0.95015 0.0
C2894 C 0.37886 0.29753 0.94568 0.0
C2895 C 0.39902 0.3421 0.98 0.0
H2896 H 0.3615 0.29593 0.0095 0.0
H2897 H 0.41402 0.28778 0.00301 0.0
H2898 H 0.35952 0.32687 0.98124 0.0
H2899 H 0.35353 0.31104 0.96917 0.0
H2900 H 0.34612 0.31021 0.98991 0.0
H2901 H 0.42886 0.29596 0.97859 0.0
H2902 H 0.41656 0.30118 0.96068 0.0
H2903 H 0.42464 0.31603 0.97322 0.0
H2904 H 0.37828 0.32183 0.92236 0.0
H2905 H 0.39608 0.35902 0.95099 0.0
H2906 H 0.36691 0.29373 0.95251 0.0
H2907 H 0.38887 0.29027 0.95092 0.0
H2908 H 0.37686 0.2952 0.93274 0.0
H2909 H 0.3883 0.33989 0.98881 0.0
H2910 H 0.40296 0.35487 0.97872 0.0
H2911 H 0.40979 0.33583 0.98527 0.0
C2912 C 0.91152 0.08543 0.17847 0.0
C2913 C 0.91601 0.09694 0.18914 0.0
C2914 C 0.91102 0.08925 0.16156 0.0
C2915 C 0.91515 0.10495 0.15518 0.0
C2916 C 0.92017 0.11651 0.16584 0.0
C2917 C 0.92055 0.11237 0.18267 0.0
C2918 C 0.90557 0.07661 0.15055 0.0
C2919 C 0.92464 0.13337 0.15949 0.0
C2920 C 0.92526 0.1132 0.11003 0.0
C2921 C 0.9096 0.11751 0.10386 0.0
C2922 C 0.92733 0.10915 0.12676 0.0
C2923 C 0.91336 0.10944 0.13745 0.0
C2924 C 0.89757 0.11403 0.13121 0.0
C2925 C 0.89594 0.11811 0.11448 0.0
C2926 C 0.94432 0.10427 0.13295 0.0
C2927 C 0.88235 0.11446 0.14217 0.0
H2928 H 0.90799 0.07348 0.18335 0.0
H2929 H 0.92408 0.12134 0.1908 0.0
H2930 H 0.89341 0.07924 0.14445 0.0
H2931 H 0.9152 0.07631 0.14084 0.0
H2932 H 0.90373 0.06483 0.1573 0.0
H2933 H 0.92917 0.14078 0.16928 0.0
H2934 H 0.9347 0.1341 0.15002 0.0
H2935 H 0.91329 0.13828 0.15368 0.0
H2936 H 0.93571 0.11266 0.10166 0.0
H2937 H 0.88389 0.12156 0.10957 0.0
H2938 H 0.94279 0.09204 0.1386 0.0
H2939 H 0.94917 0.11178 0.14252 0.0
H2940 H 0.954 0.10503 0.1231 0.0
H2941 H 0.87916 0.10275 0.1487 0.0
H2942 H 0.87092 0.11803 0.13531 0.0
H2943 H 0.88543 0.12278 0.15151 0.0
C2944 C 0.97468 0.06556 0.30204 0.0
C2945 C 0.97811 0.07213 0.2861 0.0
C2946 C 0.98769 0.06483 0.31373 0.0
C2947 C 0.0046 0.07035 0.30922 0.0
C2948 C 0.00825 0.07636 0.29294 0.0
C2949 C -0.00511 0.07743 0.28163 0.0
C2950 C 0.9832 0.05876 0.33106 0.0
C2951 C 0.0262 0.08193 0.28754 0.0
C2952 C 0.0354 0.08459 0.3414 0.0
C2953 C 0.04444 0.07143 0.3453 0.0
C2954 C 0.02218 0.08427 0.32993 0.0
C2955 C 0.01831 0.07063 0.32173 0.0
C2956 C 0.02755 0.05735 0.32547 0.0
C2957 C 0.04032 0.05784 0.33742 0.0
C2958 C 0.01238 0.09855 0.32659 0.0
C2959 C 0.0241 0.04273 0.3167 0.0
H2960 H 0.96168 0.06159 0.30556 0.0
H2961 H -0.00242 0.08242 0.26928 0.0
H2962 H 0.99101 0.04903 0.33519 0.0
H2963 H 0.98612 0.06822 0.33923 0.0
H2964 H 0.96952 0.05452 0.33248 0.0
H2965 H 0.02711 0.08492 0.27417 0.0
H2966 H 0.03069 0.09246 0.29372 0.0
H2967 H 0.03495 0.07276 0.29107 0.0
H2968 H 0.03883 0.09521 0.34721 0.0
H2969 H 0.04721 0.04762 0.34056 0.0
H2970 H -0.00147 0.09527 0.32826 0.0
H2971 H 0.01435 0.10345 0.31377 0.0
H2972 H 0.01633 0.10786 0.33469 0.0
H2973 H 0.01077 0.03776 0.31889 0.0
H2974 H 0.03279 0.03362 0.32067 0.0
H2975 H 0.0256 0.04566 0.30338 0.0
C2976 C 0.15377 0.72465 0.54535 0.0
C2977 C 0.16864 0.71718 0.54319 0.0
C2978 C 0.1544 0.73908 0.55218 0.0
C2979 C 0.17028 0.74626 0.55694 0.0
C2980 C 0.18538 0.7389 0.55459 0.0
C2981 C 0.18438 0.72444 0.54776 0.0
C2982 C 0.138 0.74653 0.55451 0.0
C2983 C 0.20255 0.74621 0.55947 0.0
C2984 C 0.17134 0.7897 0.56288 0.0
C2985 C 0.16889 0.78931 0.57971 0.0
C2986 C 0.17241 0.7758 0.55532 0.0
C2987 C 0.17093 0.76121 0.56487 0.0
C2988 C 0.16908 0.76086 0.58198 0.0
C2989 C 0.16812 0.77494 0.58919 0.0
C2990 C 0.17445 0.77669 0.53706 0.0
C2991 C 0.1675 0.74559 0.59262 0.0
H2992 H 0.14156 0.71916 0.54185 0.0
H2993 H 0.19594 0.71877 0.54611 0.0
H2994 H 0.13599 0.74769 0.56765 0.0
H2995 H 0.13878 0.7585 0.54818 0.0
H2996 H 0.12675 0.73963 0.54983 0.0
H2997 H 0.21314 0.73928 0.55629 0.0
H2998 H 0.20482 0.75824 0.55339 0.0
H2999 H 0.2028 0.74721 0.57279 0.0
H3000 H 0.17177 0.80085 0.5556 0.0
H3001 H 0.16635 0.77475 0.60223 0.0
H3002 H 0.16275 0.77125 0.53158 0.0
H3003 H 0.18519 0.77001 0.53381 0.0
H3004 H 0.17678 0.78895 0.53157 0.0
H3005 H 0.15567 0.73854 0.58949 0.0
H3006 H 0.16711 0.74741 0.60578 0.0
H3007 H 0.17836 0.73864 0.59042 0.0
C3008 C 0.44671 0.92059 0.83133 0.0
C3009 C 0.44967 0.90497 0.8296 0.0
C3010 C 0.43031 0.92477 0.83463 0.0
C3011 C 0.41655 0.91303 0.83631 0.0
C3012 C 0.41933 0.89732 0.83404 0.0
C3013 C 0.43584 0.89349 0.83064 0.0
C3014 C 0.4278 0.94166 0.83683 0.0
C3015 C 0.40494 0.88449 0.83565 0.0
C3016 C 0.37921 0.91919 0.86317 0.0
C3017 C 0.36668 0.92266 0.85164 0.0
C3018 C 0.39554 0.91617 0.85833 0.0
C3019 C 0.39949 0.91696 0.84152 0.0
C3020 C 0.38698 0.92098 0.82982 0.0
C3021 C 0.37063 0.92367 0.83505 0.0
C3022 C 0.40839 0.91167 0.8712 0.0
C3023 C 0.39073 0.92202 0.81181 0.0
H3024 H 0.45728 0.92956 0.83046 0.0
H3025 H 0.43798 0.8814 0.82924 0.0
H3026 H 0.41725 0.94568 0.82898 0.0
H3027 H 0.42416 0.94276 0.84963 0.0
H3028 H 0.43949 0.94955 0.83388 0.0
H3029 H 0.4094 0.87272 0.83456 0.0
H3030 H 0.39847 0.8844 0.84757 0.0
H3031 H 0.39528 0.88674 0.82608 0.0
H3032 H 0.37599 0.91842 0.876 0.0
H3033 H 0.36074 0.92613 0.82623 0.0
H3034 H 0.41986 0.92013 0.8701 0.0
H3035 H 0.41256 0.89995 0.86938 0.0
H3036 H 0.40318 0.91135 0.88372 0.0
H3037 H 0.40249 0.92981 0.80893 0.0
H3038 H 0.38009 0.92652 0.80437 0.0
H3039 H 0.393 0.91026 0.80819 0.0
C3040 C 0.37799 0.20492 0.09671 0.0
C3041 C 0.38377 0.21374 0.1095 0.0
C3042 C 0.37367 0.18869 0.09942 0.0
C3043 C 0.37528 0.18113 0.11525 0.0
C3044 C 0.38105 0.18998 0.12819 0.0
C3045 C 0.38517 0.20615 0.12516 0.0
C3046 C 0.36748 0.17964 0.08535 0.0
C3047 C 0.38305 0.18233 0.14523 0.0
C3048 C 0.35242 0.14157 0.12921 0.0
C3049 C 0.36574 0.13182 0.12899 0.0
C3050 C 0.35507 0.15757 0.12392 0.0
C3051 C 0.37145 0.16388 0.11838 0.0
C3052 C 0.38467 0.15383 0.11736 0.0
C3053 C 0.38161 0.1379 0.12265 0.0
C3054 C 0.34062 0.16786 0.12507 0.0
C3055 C 0.4023 0.16005 0.11155 0.0
H3056 H 0.37681 0.2107 0.08458 0.0
H3057 H 0.38962 0.21284 0.13512 0.0
H3058 H 0.37634 0.17065 0.0833 0.0
H3059 H 0.35481 0.17337 0.08826 0.0
H3060 H 0.36646 0.18733 0.07389 0.0
H3061 H 0.38754 0.1909 0.15397 0.0
H3062 H 0.37071 0.1763 0.14965 0.0
H3063 H 0.39232 0.17331 0.1452 0.0
H3064 H 0.34019 0.13679 0.13421 0.0
H3065 H 0.39179 0.13021 0.12236 0.0
H3066 H 0.33939 0.17536 0.11353 0.0
H3067 H 0.34334 0.17576 0.13487 0.0
H3068 H 0.32826 0.16092 0.12779 0.0
H3069 H 0.4016 0.16719 0.09972 0.0
H3070 H 0.41069 0.15051 0.11012 0.0
H3071 H 0.40828 0.1678 0.12043 0.0
C3072 C 0.99004 0.9072 0.19523 0.0
C3073 C 0.98796 0.92207 0.20031 0.0
C3074 C 0.00499 0.90423 0.18728 0.0
C3075 C 0.01818 0.91639 0.18438 0.0
C3076 C 0.01623 0.93137 0.1896 0.0
C3077 C 0.00114 0.93403 0.19748 0.0
C3078 C 0.0066 0.88811 0.18184 0.0
C3079 C 0.03005 0.94462 0.18677 0.0
C3080 C 0.06286 0.9054 0.17619 0.0
C3081 C 0.06381 0.90804 0.15922 0.0
C3082 C 0.04809 0.90811 0.18458 0.0
C3083 C 0.03396 0.91351 0.1757 0.0
C3084 C 0.03492 0.9162 0.15852 0.0
C3085 C 0.04989 0.91346 0.15049 0.0
C3086 C 0.04756 0.90513 0.2029 0.0
C3087 C 0.02015 0.92196 0.14863 0.0
H3088 H 0.97992 0.89789 0.19735 0.0
H3089 H -0.00033 0.94555 0.20138 0.0
H3090 H 0.00832 0.8889 0.16843 0.0
H3091 H 0.01804 0.88316 0.18741 0.0
H3092 H -0.00475 0.87989 0.18516 0.0
H3093 H 0.02667 0.9555 0.19182 0.0
H3094 H 0.04213 0.94115 0.19245 0.0
H3095 H 0.03249 0.9472 0.17353 0.0
H3096 H 0.07364 0.90106 0.18284 0.0
H3097 H 0.0508 0.91561 0.13736 0.0
H3098 H 0.03705 0.89613 0.2066 0.0
H3099 H 0.04495 0.91599 0.20841 0.0
H3100 H 0.0597 0.9011 0.20797 0.0
H3101 H 0.00868 0.91362 0.15083 0.0
H3102 H 0.02292 0.92335 0.13536 0.0
H3103 H 0.01698 0.9334 0.15248 0.0
C3104 C 0.38018 0.80828 0.37558 0.0
C3105 C 0.37821 0.79609 0.38808 0.0
C3106 C 0.369 0.82019 0.37416 0.0
C3107 C 0.35536 0.81978 0.38535 0.0
C3108 C 0.35323 0.80746 0.39793 0.0
C3109 C 0.36478 0.79583 0.39923 0.0
C3110 C 0.37188 0.83331 0.36077 0.0
C3111 C 0.33867 0.8065 0.4099 0.0
C3112 C 0.33578 0.85834 0.38804 0.0
C3113 C 0.32238 0.85696 0.37691 0.0
C3114 C 0.3463 0.84607 0.39142 0.0
C3115 C 0.34316 0.83211 0.38355 0.0
C3116 C 0.32906 0.83044 0.37291 0.0
C3117 C 0.31893 0.84297 0.36963 0.0
C3118 C 0.36134 0.8484 0.40263 0.0
C3119 C 0.32521 0.81576 0.36434 0.0
H3120 H 0.39062 0.80864 0.36701 0.0
H3121 H 0.36316 0.78641 0.40889 0.0
H3122 H 0.36029 0.83412 0.35312 0.0
H3123 H 0.37432 0.84465 0.36617 0.0
H3124 H 0.38282 0.83173 0.35281 0.0
H3125 H 0.33883 0.79621 0.41903 0.0
H3126 H 0.33923 0.81728 0.41641 0.0
H3127 H 0.32635 0.80574 0.40329 0.0
H3128 H 0.3386 0.86935 0.39333 0.0
H3129 H 0.30861 0.84211 0.36092 0.0
H3130 H 0.37332 0.84913 0.39549 0.0
H3131 H 0.36165 0.83828 0.41192 0.0
H3132 H 0.36108 0.85927 0.40893 0.0
H3133 H 0.33534 0.81485 0.35526 0.0
H3134 H 0.31276 0.81565 0.35792 0.0
H3135 H 0.32508 0.80523 0.37317 0.0
C3136 C 0.45428 0.13985 0.65596 0.0
C3137 C 0.46611 0.12891 0.66035 0.0
C3138 C 0.43787 0.13502 0.65056 0.0
C3139 C 0.43317 0.11886 0.64962 0.0
C3140 C 0.44488 0.10775 0.65446 0.0
C3141 C 0.4612 0.1129 0.65975 0.0
C3142 C 0.42572 0.14722 0.64543 0.0
C3143 C 0.44032 0.09042 0.65365 0.0
C3144 C 0.38617 0.105 0.64685 0.0
C3145 C 0.38431 0.10375 0.63013 0.0
C3146 C 0.40204 0.10985 0.65343 0.0
C3147 C 0.41627 0.1136 0.64294 0.0
C3148 C 0.4144 0.11224 0.62601 0.0
C3149 C 0.39844 0.10721 0.61984 0.0
C3150 C 0.40352 0.1112 0.67151 0.0
C3151 C 0.4292 0.11625 0.6144 0.0
H3152 H 0.45796 0.15224 0.65635 0.0
H3153 H 0.47022 0.10435 0.66315 0.0
H3154 H 0.42281 0.14697 0.63227 0.0
H3155 H 0.41348 0.14457 0.65211 0.0
H3156 H 0.431 0.15923 0.64765 0.0
H3157 H 0.45058 0.08325 0.65856 0.0
H3158 H 0.42844 0.08666 0.6606 0.0
H3159 H 0.43787 0.08795 0.64082 0.0
H3160 H 0.37509 0.10254 0.65468 0.0
H3161 H 0.39686 0.10617 0.60691 0.0
H3162 H 0.40753 0.12349 0.67381 0.0
H3163 H 0.41346 0.10385 0.67675 0.0
H3164 H 0.39132 0.10754 0.67802 0.0
H3165 H 0.43418 0.12864 0.61502 0.0
H3166 H 0.42558 0.11453 0.60159 0.0
H3167 H 0.43973 0.10887 0.61795 0.0
C3168 C 0.17446 0.26152 0.98047 0.0
C3169 C 0.1587 0.26801 0.98039 0.0
C3170 C 0.17615 0.24719 0.97391 0.0
C3171 C 0.16182 0.23934 0.96682 0.0
C3172 C 0.14581 0.24567 0.967 0.0
C3173 C 0.14441 0.25984 0.97392 0.0
C3174 C 0.19334 0.24064 0.97424 0.0
C3175 C 0.13025 0.23778 0.95938 0.0
C3176 C 0.16748 0.21269 0.9333 0.0
C3177 C 0.16297 0.19793 0.94133 0.0
C3178 C 0.16768 0.22626 0.94158 0.0
C3179 C 0.16361 0.22494 0.95839 0.0
C3180 C 0.16 0.20992 0.96675 0.0
C3181 C 0.15957 0.19656 0.95805 0.0
C3182 C 0.17142 0.24204 0.93215 0.0
C3183 C 0.15592 0.20798 0.98472 0.0
H3184 H 0.18553 0.26772 0.98554 0.0
H3185 H 0.13221 0.2648 0.97374 0.0
H3186 H 0.19217 0.22827 0.97953 0.0
H3187 H 0.19822 0.24073 0.96164 0.0
H3188 H 0.20284 0.24745 0.9814 0.0
H3189 H 0.11866 0.24402 0.96087 0.0
H3190 H 0.13251 0.23722 0.94618 0.0
H3191 H 0.1278 0.22556 0.96489 0.0
H3192 H 0.17019 0.21358 0.92036 0.0
H3193 H 0.15607 0.18506 0.96416 0.0
H3194 H 0.18178 0.249 0.93811 0.0
H3195 H 0.15994 0.24867 0.93204 0.0
H3196 H 0.1752 0.24099 0.91935 0.0
H3197 H 0.16563 0.21488 0.99156 0.0
H3198 H 0.15534 0.19553 0.98974 0.0
H3199 H 0.14343 0.21253 0.98681 0.0
C3200 C 0.31122 0.00583 0.16586 0.0
C3201 C 0.30359 -0.00127 0.15264 0.0
C3202 C 0.31909 0.02116 0.16389 0.0
C3203 C 0.31938 0.02958 0.14833 0.0
C3204 C 0.31162 0.02253 0.13496 0.0
C3205 C 0.30379 0.0072 0.13728 0.0
C3206 C 0.32722 0.02832 0.17845 0.0
C3207 C 0.31181 0.0311 0.11816 0.0
C3208 C 0.32772 0.07392 0.14636 0.0
C3209 C 0.34519 0.07592 0.143 0.0
C3210 C 0.31905 0.0589 0.14789 0.0
C3211 C 0.32814 0.04565 0.14598 0.0
C3212 C 0.34576 0.04772 0.14222 0.0
C3213 C 0.35405 0.06286 0.14075 0.0
C3214 C 0.3003 0.05717 0.152 0.0
C3215 C 0.35595 0.03394 0.14013 0.0
H3216 H 0.31111 -0.00062 0.17777 0.0
H3217 H 0.29795 0.00181 0.12699 0.0
H3218 H 0.34103 0.03133 0.17621 0.0
H3219 H 0.32153 0.03937 0.18038 0.0
H3220 H 0.32564 0.02033 0.18979 0.0
H3221 H 0.30496 0.02408 0.10909 0.0
H3222 H 0.30583 0.04229 0.11848 0.0
H3223 H 0.32516 0.03407 0.11399 0.0
H3224 H 0.32102 0.0841 0.14828 0.0
H3225 H 0.36758 0.06455 0.1381 0.0
H3226 H 0.29825 0.05037 0.16401 0.0
H3227 H 0.29308 0.05054 0.14287 0.0
H3228 H 0.29496 0.06867 0.15245 0.0
H3229 H 0.35614 0.02641 0.15177 0.0
H3230 H 0.36931 0.03763 0.13638 0.0
H3231 H 0.34989 0.02667 0.13087 0.0
C3232 C 0.76913 0.47806 0.87096 0.0
C3233 C 0.76839 0.48423 0.8861 0.0
C3234 C 0.77539 0.46345 0.86958 0.0
C3235 C 0.78102 0.45474 0.88368 0.0
C3236 C 0.77969 0.4606 0.89909 0.0
C3237 C 0.77342 0.47529 0.90012 0.0
C3238 C 0.77661 0.45762 0.8529 0.0
C3239 C 0.78548 0.45162 0.9144 0.0
C3240 C 0.78832 0.41233 0.87829 0.0
C3241 C 0.8057 0.41372 0.87452 0.0
C3242 C 0.78014 0.42548 0.88205 0.0
C3243 C 0.78967 0.44024 0.88198 0.0
C3244 C 0.80744 0.44142 0.87897 0.0
C3245 C 0.81522 0.42812 0.8753 0.0
C3246 C 0.76122 0.42373 0.88531 0.0
C3247 C 0.8181 0.45689 0.87882 0.0
H3248 H 0.76521 0.48483 0.86008 0.0
H3249 H 0.77281 0.47993 0.91189 0.0
H3250 H 0.7902 0.45707 0.84969 0.0
H3251 H 0.7703 0.44558 0.85291 0.0
H3252 H 0.77068 0.46528 0.84331 0.0
H3253 H 0.78203 0.45699 0.92556 0.0
H3254 H 0.77978 0.43933 0.91516 0.0
H3255 H 0.79952 0.45127 0.9141 0.0
H3256 H 0.78107 0.40112 0.87762 0.0
H3257 H 0.82871 0.42901 0.87249 0.0
H3258 H 0.75451 0.4298 0.87505 0.0
H3259 H 0.75829 0.42932 0.89647 0.0
H3260 H 0.75607 0.41126 0.88675 0.0
H3261 H 0.81402 0.46502 0.86861 0.0
H3262 H 0.83191 0.45558 0.87739 0.0
H3263 H 0.81619 0.46239 0.89026 0.0
C3264 C 0.76776 0.5477 0.09837 0.0
C3265 C 0.76588 0.53128 0.09935 0.0
C3266 C 0.7836 0.55584 0.10091 0.0
C3267 C 0.79798 0.54738 0.10464 0.0
C3268 C 0.79621 0.53079 0.1057 0.0
C3269 C 0.78017 0.52292 0.10298 0.0
C3270 C 0.78496 0.57354 0.09952 0.0
C3271 C 0.81125 0.52139 0.10972 0.0
C3272 C 0.83993 0.57139 0.09528 0.0
C3273 C 0.84396 0.577 0.11038 0.0
C3274 C 0.82547 0.56102 0.09341 0.0
C3275 C 0.81485 0.55609 0.10703 0.0
C3276 C 0.81948 0.561 0.12253 0.0
C3277 C 0.83401 0.57147 0.12401 0.0
C3278 C 0.82102 0.5561 0.07667 0.0
C3279 C 0.80858 0.55594 0.13737 0.0
H3280 H 0.75682 0.55428 0.09554 0.0
H3281 H 0.77881 0.51024 0.10383 0.0
H3282 H 0.78969 0.57788 0.11113 0.0
H3283 H 0.79428 0.57821 0.0899 0.0
H3284 H 0.77255 0.57835 0.09657 0.0
H3285 H 0.80772 0.50857 0.11035 0.0
H3286 H 0.82135 0.52444 0.10038 0.0
H3287 H 0.8168 0.52434 0.12158 0.0
H3288 H 0.84783 0.5756 0.08482 0.0
H3289 H 0.83716 0.57591 0.13564 0.0
H3290 H 0.80941 0.56157 0.0722 0.0
H3291 H 0.81813 0.54322 0.07714 0.0
H3292 H 0.83146 0.55963 0.06775 0.0
H3293 H 0.79644 0.56162 0.13624 0.0
H3294 H 0.815 0.55915 0.14878 0.0
H3295 H 0.80531 0.54309 0.13831 0.0
C3296 C 0.66837 0.589 0.3933 0.0
C3297 C 0.68433 0.5832 0.39161 0.0
C3298 C 0.66702 0.60439 0.39718 0.0
C3299 C 0.68199 0.61427 0.39949 0.0
C3300 C 0.69816 0.6085 0.3979 0.0
C3301 C 0.69914 0.59302 0.39397 0.0
C3302 C 0.64954 0.61013 0.39871 0.0
C3303 C 0.71438 0.61873 0.40021 0.0
C3304 C 0.67576 0.65765 0.39412 0.0
C3305 C 0.67344 0.66097 0.41022 0.0
C3306 C 0.67929 0.64265 0.39046 0.0
C3307 C 0.68057 0.63071 0.40329 0.0
C3308 C 0.67903 0.63425 0.41965 0.0
C3309 C 0.67545 0.64938 0.42292 0.0
C3310 C 0.68073 0.63938 0.37286 0.0
C3311 C 0.68024 0.62184 0.43366 0.0
H3312 H 0.65685 0.58153 0.3915 0.0
H3313 H 0.71153 0.58865 0.39269 0.0
H3314 H 0.6479 0.61402 0.41104 0.0
H3315 H 0.64816 0.62041 0.38982 0.0
H3316 H 0.63914 0.60097 0.39659 0.0
H3317 H 0.72595 0.61241 0.39883 0.0
H3318 H 0.71498 0.62912 0.39117 0.0
H3319 H 0.71453 0.62309 0.41247 0.0
H3320 H 0.67421 0.66673 0.38436 0.0
H3321 H 0.67339 0.65198 0.43534 0.0
H3322 H 0.66953 0.6316 0.36951 0.0
H3323 H 0.69228 0.63322 0.37096 0.0
H3324 H 0.68129 0.65028 0.36449 0.0
H3325 H 0.66915 0.613 0.43337 0.0
H3326 H 0.68042 0.62683 0.44564 0.0
H3327 H 0.6919 0.61565 0.43252 0.0
C3328 C 0.20417 0.93606 0.13779 0.0
C3329 C 0.21419 0.92426 0.13367 0.0
C3330 C 0.18639 0.93324 0.13932 0.0
C3331 C 0.17845 0.91828 0.13669 0.0
C3332 C 0.18847 0.90635 0.13246 0.0
C3333 C 0.2062 0.90948 0.13101 0.0
C3334 C 0.17609 0.94627 0.14377 0.0
C3335 C 0.18045 0.89025 0.12952 0.0
C3336 C 0.13468 0.90599 0.15504 0.0
C3337 C 0.1241 0.90849 0.14155 0.0
C3338 C 0.15242 0.90923 0.15367 0.0
C3339 C 0.15965 0.91505 0.1384 0.0
C3340 C 0.14895 0.91758 0.12473 0.0
C3341 C 0.13127 0.91431 0.1265 0.0
C3342 C 0.16341 0.90628 0.1685 0.0
C3343 C 0.15615 0.92366 0.10823 0.0
H3344 H 0.21022 0.94751 0.13985 0.0
H3345 H 0.21381 0.90029 0.1278 0.0
H3346 H 0.16651 0.94871 0.13416 0.0
H3347 H 0.16902 0.94263 0.15527 0.0
H3348 H 0.18418 0.95726 0.14532 0.0
H3349 H 0.19002 0.88229 0.12623 0.0
H3350 H 0.17355 0.88489 0.14061 0.0
H3351 H 0.17094 0.89115 0.11957 0.0
H3352 H 0.12904 0.90132 0.1666 0.0
H3353 H 0.12296 0.91637 0.11615 0.0
H3354 H 0.17111 0.91722 0.17098 0.0
H3355 H 0.17245 0.8975 0.16623 0.0
H3356 H 0.15576 0.90197 0.17952 0.0
H3357 H 0.16368 0.93507 0.10905 0.0
H3358 H 0.14604 0.92522 0.09891 0.0
H3359 H 0.16493 0.91541 0.10405 0.0
C3360 C 0.17412 0.91935 0.59816 0.0
C3361 C 0.19026 0.92605 0.60224 0.0
C3362 C 0.17096 0.90305 0.59781 0.0
C3363 C 0.18443 0.89331 0.60101 0.0
C3364 C 0.20076 0.90004 0.60513 0.0
C3365 C 0.20339 0.91631 0.60598 0.0
C3366 C 0.15321 0.89626 0.59401 0.0
C3367 C 0.21556 0.89011 0.60818 0.0
C3368 C 0.17347 0.8497 0.61177 0.0
C3369 C 0.17384 0.84385 0.59645 0.0
C3370 C 0.17679 0.86577 0.61346 0.0
C3371 C 0.1815 0.87613 0.5996 0.0
C3372 C 0.18284 0.87013 0.58424 0.0
C3373 C 0.17867 0.85411 0.5828 0.0
C3374 C 0.17466 0.8717 0.62995 0.0
C3375 C 0.18822 0.8807 0.56923 0.0
H3376 H 0.16392 0.92686 0.5954 0.0
H3377 H 0.21592 0.9215 0.60901 0.0
H3378 H 0.15331 0.89053 0.58249 0.0
H3379 H 0.14874 0.88713 0.60376 0.0
H3380 H 0.14392 0.90532 0.5928 0.0
H3381 H 0.22745 0.89714 0.61125 0.0
H3382 H 0.2125 0.88094 0.61829 0.0
H3383 H 0.21792 0.88404 0.59718 0.0
H3384 H 0.17 0.84172 0.62236 0.0
H3385 H 0.17872 0.84965 0.57093 0.0
H3386 H 0.16523 0.88062 0.62918 0.0
H3387 H 0.1869 0.87749 0.63396 0.0
H3388 H 0.17029 0.86217 0.63936 0.0
H3389 H 0.17834 0.8889 0.56607 0.0
H3390 H 0.19018 0.874 0.55857 0.0
H3391 H 0.20023 0.88786 0.5716 0.0
C3392 C 0.76972 0.50814 0.36835 0.0
C3393 C 0.76116 0.50184 0.38264 0.0
C3394 C 0.78316 0.50071 0.36208 0.0
C3395 C 0.78791 0.4865 0.37012 0.0
C3396 C 0.77949 0.48024 0.38469 0.0
C3397 C 0.76634 0.48806 0.39084 0.0
C3398 C 0.79208 0.50791 0.34671 0.0
C3399 C 0.78401 0.465 0.39352 0.0
C3400 C 0.80833 0.4567 0.34702 0.0
C3401 C 0.82501 0.4579 0.35298 0.0
C3402 C 0.79624 0.46634 0.35204 0.0
C3403 C 0.80111 0.47769 0.36302 0.0
C3404 C 0.81827 0.47962 0.36823 0.0
C3405 C 0.83001 0.46957 0.36325 0.0
C3406 C 0.77805 0.46379 0.3463 0.0
C3407 C 0.82406 0.49177 0.37966 0.0
H3408 H 0.76583 0.51883 0.36199 0.0
H3409 H 0.75974 0.48308 0.40184 0.0
H3410 H 0.80607 0.50917 0.34866 0.0
H3411 H 0.78961 0.5001 0.3368 0.0
H3412 H 0.78777 0.51959 0.34263 0.0
H3413 H 0.77642 0.46184 0.40483 0.0
H3414 H 0.78177 0.45539 0.38542 0.0
H3415 H 0.79773 0.46579 0.39675 0.0
H3416 H 0.80465 0.44777 0.3389 0.0
H3417 H 0.84294 0.4704 0.36786 0.0
H3418 H 0.77349 0.475 0.34104 0.0
H3419 H 0.76969 0.45947 0.35683 0.0
H3420 H 0.7766 0.45516 0.33703 0.0
H3421 H 0.81958 0.50329 0.37533 0.0
H3422 H 0.83815 0.49309 0.38089 0.0
H3423 H 0.81843 0.48834 0.39189 0.0
C3424 C 0.68256 0.53637 0.88738 0.0
C3425 C 0.69295 0.54557 0.89735 0.0
C3426 C 0.66552 0.53936 0.88441 0.0
C3427 C 0.65875 0.55189 0.89151 0.0
C3428 C 0.66902 0.56098 0.9019 0.0
C3429 C 0.68599 0.55768 0.90473 0.0
C3430 C 0.65489 0.52934 0.87337 0.0
C3431 C 0.66222 0.57445 0.90968 0.0
C3432 C 0.62147 0.57013 0.87018 0.0
C3433 C 0.60777 0.56332 0.87976 0.0
C3434 C 0.63817 0.56652 0.87388 0.0
C3435 C 0.64111 0.55588 0.88754 0.0
C3436 C 0.62724 0.54912 0.89735 0.0
C3437 C 0.61069 0.55302 0.89337 0.0
C3438 C 0.65264 0.57414 0.86325 0.0
C3439 C 0.62986 0.53778 0.91202 0.0
H3440 H 0.6878 0.52695 0.88169 0.0
H3441 H 0.69391 0.56485 0.91246 0.0
H3442 H 0.64297 0.52435 0.87967 0.0
H3443 H 0.65115 0.53664 0.86237 0.0
H3444 H 0.66179 0.51957 0.86945 0.0
H3445 H 0.67163 0.57999 0.91797 0.0
H3446 H 0.65873 0.58351 0.90009 0.0
H3447 H 0.65046 0.57037 0.9167 0.0
H3448 H 0.61905 0.5784 0.85991 0.0
H3449 H 0.59995 0.54803 0.90083 0.0
H3450 H 0.65954 0.56503 0.85803 0.0
H3451 H 0.66191 0.5809 0.87067 0.0
H3452 H 0.64816 0.58215 0.85311 0.0
H3453 H 0.63613 0.52759 0.90828 0.0
H3454 H 0.61769 0.53345 0.91827 0.0
H3455 H 0.63844 0.54351 0.92085 0.0
C3456 C 0.91903 0.71507 0.96052 0.0
C3457 C 0.93598 0.71631 0.96591 0.0
C3458 C 0.91432 0.70707 0.94686 0.0
C3459 C 0.92689 0.70029 0.93826 0.0
C3460 C 0.9442 0.70245 0.94294 0.0
C3461 C 0.94853 0.71037 0.95676 0.0
C3462 C 0.89571 0.705 0.9423 0.0
C3463 C 0.95801 0.69562 0.93391 0.0
C3464 C 0.91142 0.66339 0.91878 0.0
C3465 C 0.90897 0.66916 0.90263 0.0
C3466 C 0.91764 0.67337 0.9304 0.0
C3467 C 0.92164 0.6895 0.92566 0.0
C3468 C 0.91974 0.69527 0.90916 0.0
C3469 C 0.91329 0.685 0.89783 0.0
C3470 C 0.91938 0.66672 0.94785 0.0
C3471 C 0.92403 0.71234 0.90362 0.0
H3472 H 0.90924 0.71967 0.96745 0.0
H3473 H 0.9617 0.7114 0.96073 0.0
H3474 H 0.89402 0.70822 0.9291 0.0
H3475 H 0.89093 0.69251 0.94478 0.0
H3476 H 0.88775 0.71219 0.94922 0.0
H3477 H 0.97096 0.70011 0.93764 0.0
H3478 H 0.9568 0.68268 0.93638 0.0
H3479 H 0.95666 0.69832 0.92058 0.0
H3480 H 0.90806 0.65109 0.92233 0.0
H3481 H 0.91121 0.68936 0.8853 0.0
H3482 H 0.91079 0.67231 0.95577 0.0
H3483 H 0.9326 0.66933 0.95217 0.0
H3484 H 0.91621 0.65384 0.9494 0.0
H3485 H 0.91502 0.71955 0.90921 0.0
H3486 H 0.92335 0.71465 0.89017 0.0
H3487 H 0.93703 0.71625 0.9077 0.0
C3488 C 0.061 0.09274 0.7646 0.0
C3489 C 0.05048 0.10489 0.76612 0.0
C3490 C 0.067 0.08965 0.74931 0.0
C3491 C 0.06212 0.09874 0.73516 0.0
C3492 C 0.05129 0.11087 0.73658 0.0
C3493 C 0.04573 0.1139 0.75206 0.0
C3494 C 0.07876 0.07678 0.74832 0.0
C3495 C 0.04558 0.12065 0.72175 0.0
C3496 C 0.08984 0.10086 0.69731 0.0
C3497 C 0.08112 0.08965 0.68835 0.0
C3498 C 0.08382 0.10392 0.7126 0.0
C3499 C 0.06857 0.09571 0.71889 0.0
C3500 C 0.05961 0.08449 0.7097 0.0
C3501 C 0.06611 0.0815 0.69457 0.0
C3502 C 0.09389 0.11577 0.7221 0.0
C3503 C 0.04318 0.07567 0.71586 0.0
H3504 H 0.06479 0.08579 0.77542 0.0
H3505 H 0.03752 0.12325 0.75314 0.0
H3506 H 0.07308 0.06791 0.74045 0.0
H3507 H 0.09104 0.0817 0.74266 0.0
H3508 H 0.08141 0.07083 0.76047 0.0
H3509 H 0.03671 0.12931 0.72489 0.0
H3510 H 0.0568 0.12704 0.71538 0.0
H3511 H 0.03913 0.11296 0.71307 0.0
H3512 H 0.10154 0.10701 0.69241 0.0
H3513 H 0.05945 0.07287 0.68747 0.0
H3514 H 0.09771 0.11011 0.73403 0.0
H3515 H 0.08588 0.12528 0.72463 0.0
H3516 H 0.10554 0.12107 0.71552 0.0
H3517 H 0.04548 0.06866 0.72749 0.0
H3518 H 0.03754 0.06768 0.70702 0.0
H3519 H 0.03378 0.08405 0.71838 0.0
C3520 C 0.61902 0.36309 0.44195 0.0
C3521 C 0.63534 0.36811 0.44735 0.0
C3522 C 0.61297 0.36873 0.42668 0.0
C3523 C 0.62347 0.37969 0.41655 0.0
C3524 C 0.63981 0.38506 0.42204 0.0
C3525 C 0.64556 0.37919 0.43736 0.0
C3526 C 0.59544 0.36276 0.42126 0.0
C3527 C 0.65133 0.39681 0.41162 0.0
C3528 C 0.61507 0.38203 0.37099 0.0
C3529 C 0.60581 0.39523 0.36876 0.0
C3530 C 0.62091 0.37685 0.38649 0.0
C3531 C 0.61751 0.38518 0.40002 0.0
C3532 C 0.60829 0.39864 0.39775 0.0
C3533 C 0.60251 0.40347 0.38213 0.0
C3534 C 0.63075 0.36249 0.38837 0.0
C3535 C 0.6045 0.40791 0.41182 0.0
H3536 H 0.611 0.35457 0.44957 0.0
H3537 H 0.65817 0.38318 0.44143 0.0
H3538 H 0.5876 0.37273 0.41814 0.0
H3539 H 0.59649 0.35658 0.4101 0.0
H3540 H 0.58867 0.3546 0.43075 0.0
H3541 H 0.66343 0.40021 0.41789 0.0
H3542 H 0.65443 0.39183 0.40014 0.0
H3543 H 0.64474 0.40752 0.40822 0.0
H3544 H 0.61786 0.37589 0.36053 0.0
H3545 H 0.59528 0.41364 0.3803 0.0
H3546 H 0.62412 0.35346 0.39712 0.0
H3547 H 0.64358 0.36552 0.39343 0.0
H3548 H 0.63229 0.35734 0.37664 0.0
H3549 H 0.59689 0.4003 0.42118 0.0
H3550 H 0.59737 0.4182 0.40795 0.0
H3551 H 0.61656 0.41207 0.41768 0.0
C3552 C 0.42058 0.86615 0.1983 0.0
C3553 C 0.42546 0.85305 0.20801 0.0
C3554 C 0.41517 0.86491 0.18218 0.0
C3555 C 0.41479 0.85025 0.17559 0.0
C3556 C 0.41993 0.83703 0.18524 0.0
C3557 C 0.42512 0.83857 0.20137 0.0
C3558 C 0.40963 0.87922 0.17228 0.0
C3559 C 0.4198 0.82123 0.17857 0.0
C3560 C 0.3859 0.84261 0.13967 0.0
C3561 C 0.39742 0.84506 0.12667 0.0
C3562 C 0.39133 0.84447 0.15565 0.0
C3563 C 0.40878 0.84865 0.15866 0.0
C3564 C 0.42047 0.85114 0.14552 0.0
C3565 C 0.4146 0.84942 0.12963 0.0
C3566 C 0.37843 0.8419 0.16931 0.0
C3567 C 0.43917 0.85559 0.14824 0.0
H3568 H 0.42074 0.87737 0.20337 0.0
H3569 H 0.42892 0.82841 0.20878 0.0
H3570 H 0.4174 0.88165 0.16102 0.0
H3571 H 0.39615 0.87708 0.16847 0.0
H3572 H 0.41084 0.8898 0.17916 0.0
H3573 H 0.42459 0.81221 0.18752 0.0
H3574 H 0.40664 0.81721 0.17504 0.0
H3575 H 0.42779 0.82215 0.16744 0.0
H3576 H 0.37263 0.83914 0.13729 0.0
H3577 H 0.42339 0.85156 0.11946 0.0
H3578 H 0.37858 0.85253 0.17603 0.0
H3579 H 0.38181 0.83214 0.17811 0.0
H3580 H 0.36528 0.83911 0.16483 0.0
H3581 H 0.4408 0.86673 0.15411 0.0
H3582 H 0.44659 0.857 0.13671 0.0
H3583 H 0.44458 0.84647 0.15663 0.0
C3584 C 0.86123 0.32903 0.4855 0.0
C3585 C 0.86994 0.31602 0.48244 0.0
C3586 C 0.85887 0.33293 0.50142 0.0
C3587 C 0.86523 0.32353 0.51466 0.0
C3588 C 0.87349 0.31006 0.51172 0.0
C3589 C 0.87581 0.30649 0.49562 0.0
C3590 C 0.85008 0.34746 0.50403 0.0
C3591 C 0.88027 0.29968 0.52556 0.0
C3592 C 0.87564 0.34437 0.55255 0.0
C3593 C 0.86101 0.34013 0.562 0.0
C3594 C 0.87738 0.33869 0.53729 0.0
C3595 C 0.86415 0.32846 0.53142 0.0
C3596 C 0.84951 0.32383 0.54115 0.0
C3597 C 0.84808 0.32982 0.55634 0.0
C3598 C 0.8931 0.34405 0.52724 0.0
C3599 C 0.83522 0.31286 0.53536 0.0
H3600 H 0.8566 0.33645 0.4754 0.0
H3601 H 0.88247 0.29638 0.49336 0.0
H3602 H 0.83928 0.34453 0.51265 0.0
H3603 H 0.85914 0.35608 0.50955 0.0
H3604 H 0.84518 0.3531 0.4925 0.0
H3605 H 0.88517 0.28899 0.52134 0.0
H3606 H 0.89077 0.30627 0.53174 0.0
H3607 H 0.87014 0.2961 0.53476 0.0
H3608 H 0.88549 0.35252 0.55696 0.0
H3609 H 0.83683 0.32657 0.5638 0.0
H3610 H 0.88946 0.35091 0.51591 0.0
H3611 H 0.8993 0.33379 0.52359 0.0
H3612 H 0.90254 0.35143 0.5339 0.0
H3613 H 0.82911 0.31853 0.52448 0.0
H3614 H 0.82531 0.30952 0.54487 0.0
H3615 H 0.84031 0.30207 0.53166 0.0
C3616 C 0.39442 0.08463 0.30527 0.0
C3617 C 0.40969 0.07988 0.29942 0.0
C3618 C 0.39441 0.09409 0.31831 0.0
C3619 C 0.41005 0.09892 0.32567 0.0
C3620 C 0.42551 0.09438 0.31968 0.0
C3621 C 0.42515 0.08494 0.30662 0.0
C3622 C 0.37766 0.09871 0.32439 0.0
C3623 C 0.44241 0.09924 0.32728 0.0
C3624 C 0.41088 0.13344 0.35153 0.0
C3625 C 0.40884 0.12579 0.36716 0.0
C3626 C 0.41154 0.12485 0.33787 0.0
C3627 C 0.41016 0.10826 0.34001 0.0
C3628 C 0.40854 0.10054 0.3559 0.0
C3629 C 0.40793 0.10944 0.36929 0.0
C3630 C 0.41319 0.1335 0.32113 0.0
C3631 C 0.40701 0.08289 0.35873 0.0
H3632 H 0.38242 0.08081 0.29978 0.0
H3633 H 0.43701 0.08136 0.3022 0.0
H3634 H 0.37553 0.09384 0.3372 0.0
H3635 H 0.37798 0.11165 0.32423 0.0
H3636 H 0.36668 0.09449 0.31697 0.0
H3637 H 0.45334 0.09515 0.32086 0.0
H3638 H 0.4442 0.11218 0.32716 0.0
H3639 H 0.44258 0.09437 0.3402 0.0
H3640 H 0.41137 0.14611 0.35001 0.0
H3641 H 0.40638 0.10364 0.38148 0.0
H3642 H 0.40164 0.13054 0.31387 0.0
H3643 H 0.42424 0.12979 0.31461 0.0
H3644 H 0.41483 0.1464 0.3216 0.0
H3645 H 0.39517 0.07805 0.35298 0.0
H3646 H 0.40668 0.07876 0.37189 0.0
H3647 H 0.41787 0.07807 0.35297 0.0
C3648 C 0.64469 0.62044 0.0622 0.0
C3649 C 0.63371 0.63089 0.05464 0.0
C3650 C 0.64103 0.61286 0.07776 0.0
C3651 C 0.62607 0.61586 0.08596 0.0
C3652 C 0.61496 0.6264 0.07841 0.0
C3653 C 0.6189 0.63376 0.06284 0.0
C3654 C 0.65314 0.60164 0.0854 0.0
C3655 C 0.59888 0.6299 0.08677 0.0
C3656 C 0.60706 0.58678 0.11978 0.0
C3657 C 0.61237 0.59405 0.13369 0.0
C3658 C 0.61178 0.59354 0.10417 0.0
C3659 C 0.62196 0.60798 0.10247 0.0
C3660 C 0.62765 0.6152 0.11654 0.0
C3661 C 0.62283 0.60809 0.13201 0.0
C3662 C 0.60556 0.58539 0.0895 0.0
C3663 C 0.63858 0.63056 0.11526 0.0
H3664 H 0.65614 0.61812 0.05594 0.0
H3665 H 0.61034 0.64181 0.05711 0.0
H3666 H 0.65794 0.60564 0.09714 0.0
H3667 H 0.64636 0.58986 0.08811 0.0
H3668 H 0.66421 0.60057 0.07741 0.0
H3669 H 0.59162 0.63842 0.07928 0.0
H3670 H 0.59052 0.61893 0.08948 0.0
H3671 H 0.60209 0.6347 0.09857 0.0
H3672 H 0.5989 0.57595 0.12117 0.0
H3673 H 0.62716 0.61351 0.14283 0.0
H3674 H 0.61647 0.58361 0.08163 0.0
H3675 H 0.59702 0.59284 0.08213 0.0
H3676 H 0.5985 0.57384 0.09294 0.0
H3677 H 0.65026 0.62953 0.10811 0.0
H3678 H 0.64238 0.63436 0.12738 0.0
H3679 H 0.63152 0.63981 0.10868 0.0
C3680 C 0.05537 0.8708 0.75344 0.0
C3681 C 0.06312 0.88298 0.74283 0.0
C3682 C 0.05976 0.86923 0.77001 0.0
C3683 C 0.07228 0.88002 0.77607 0.0
C3684 C 0.08024 0.89225 0.76539 0.0
C3685 C 0.07553 0.89361 0.74893 0.0
C3686 C 0.05092 0.85611 0.78106 0.0
C3687 C 0.09372 0.90394 0.77138 0.0
C3688 C 0.07426 0.8875 0.82073 0.0
C3689 C 0.08814 0.87932 0.82609 0.0
C3690 C 0.06849 0.8873 0.80462 0.0
C3691 C 0.07693 0.87878 0.79364 0.0
C3692 C 0.09057 0.87 0.79922 0.0
C3693 C 0.09599 0.87036 0.81545 0.0
C3694 C 0.05381 0.8967 0.7992 0.0
C3695 C 0.09994 0.86084 0.78789 0.0
H3696 H 0.04575 0.86255 0.74883 0.0
H3697 H 0.08163 0.90302 0.74081 0.0
H3698 H 0.06045 0.84868 0.78697 0.0
H3699 H 0.04411 0.86103 0.79091 0.0
H3700 H 0.04161 0.84858 0.77442 0.0
H3701 H 0.09892 0.91258 0.76144 0.0
H3702 H 0.0883 0.91039 0.78092 0.0
H3703 H 0.10439 0.89775 0.77699 0.0
H3704 H 0.06823 0.89436 0.82911 0.0
H3705 H 0.10683 0.86417 0.8197 0.0
H3706 H 0.04398 0.8893 0.79305 0.0
H3707 H 0.05841 0.90652 0.79023 0.0
H3708 H 0.04777 0.90162 0.80953 0.0
H3709 H 0.0908 0.85297 0.78148 0.0
H3710 H 0.10936 0.85368 0.79442 0.0
H3711 H 0.10676 0.86903 0.77847 0.0
C3712 C 0.96188 0.8757 0.6555 0.0
C3713 C 0.97612 0.88466 0.66104 0.0
C3714 C 0.94766 0.88286 0.64906 0.0
C3715 C 0.94767 0.89937 0.64819 0.0
C3716 C 0.96166 0.90842 0.65441 0.0
C3717 C 0.97573 0.90096 0.66079 0.0
C3718 C 0.93288 0.87281 0.64263 0.0
C3719 C 0.96211 0.92606 0.65365 0.0
C3720 C 0.92083 0.91702 0.61423 0.0
C3721 C 0.90601 0.91943 0.62256 0.0
C3722 C 0.93469 0.91091 0.62252 0.0
C3723 C 0.93364 0.90716 0.63959 0.0
C3724 C 0.91887 0.9101 0.64815 0.0
C3725 C 0.90517 0.91622 0.63948 0.0
C3726 C 0.95016 0.9079 0.61292 0.0
C3727 C 0.91725 0.90617 0.66631 0.0
H3728 H 0.96202 0.86309 0.65574 0.0
H3729 H 0.98664 0.90797 0.66509 0.0
H3730 H 0.92086 0.87505 0.64861 0.0
H3731 H 0.93135 0.87592 0.62938 0.0
H3732 H 0.93463 0.86011 0.64462 0.0
H3733 H 0.97323 0.93128 0.66023 0.0
H3734 H 0.96275 0.931 0.64075 0.0
H3735 H 0.95027 0.92963 0.65894 0.0
H3736 H 0.9213 0.91951 0.60112 0.0
H3737 H 0.89351 0.91787 0.64579 0.0
H3738 H 0.9514 0.89511 0.61346 0.0
H3739 H 0.96189 0.91339 0.6183 0.0
H3740 H 0.94941 0.91249 0.59993 0.0
H3741 H 0.91672 0.89329 0.66912 0.0
H3742 H 0.90561 0.91045 0.67131 0.0
H3743 H 0.92856 0.91134 0.67263 0.0
C3744 C 0.83205 0.23874 0.41641 0.0
C3745 C 0.84865 0.24611 0.41645 0.0
C3746 C 0.82868 0.22417 0.41007 0.0
C3747 C 0.8422 0.21684 0.40355 0.0
C3748 C 0.859 0.22415 0.40369 0.0
C3749 C 0.86203 0.23867 0.41017 0.0
C3750 C 0.81061 0.21669 0.4102 0.0
C3751 C 0.87376 0.21673 0.39678 0.0
C3752 C 0.83795 0.17328 0.39801 0.0
C3753 C 0.83476 0.17339 0.38129 0.0
C3754 C 0.83994 0.18733 0.40556 0.0
C3755 C 0.83879 0.20177 0.39608 0.0
C3756 C 0.83511 0.20185 0.37924 0.0
C3757 C 0.83309 0.18763 0.37207 0.0
C3758 C 0.84376 0.18675 0.42356 0.0
C3759 C 0.83378 0.21698 0.36871 0.0
H3760 H 0.82165 0.24438 0.42129 0.0
H3761 H 0.87489 0.24427 0.41016 0.0
H3762 H 0.80624 0.21543 0.39753 0.0
H3763 H 0.81006 0.20475 0.4166 0.0
H3764 H 0.80163 0.22363 0.41623 0.0
H3765 H 0.8861 0.22377 0.39811 0.0
H3766 H 0.87473 0.20485 0.40299 0.0
H3767 H 0.87157 0.21534 0.38366 0.0
H3768 H 0.83938 0.16221 0.40504 0.0
H3769 H 0.83047 0.18759 0.35916 0.0
H3770 H 0.83462 0.19335 0.42979 0.0
H3771 H 0.85671 0.19245 0.42547 0.0
H3772 H 0.84312 0.17456 0.42937 0.0
H3773 H 0.82418 0.22391 0.37382 0.0
H3774 H 0.83019 0.21497 0.35596 0.0
H3775 H 0.84619 0.22416 0.36856 0.0
C3776 C 0.50613 0.03111 0.21541 0.0
C3777 C 0.50135 0.01512 0.21911 0.0
C3778 C 0.52048 0.03613 0.20571 0.0
C3779 C 0.53053 0.02489 0.19995 0.0
C3780 C 0.52604 0.00873 0.20404 0.0
C3781 C 0.51134 0.00403 0.21339 0.0
C3782 C 0.52462 0.05345 0.20128 0.0
C3783 C 0.5367 0.99642 0.19848 0.0
C3784 C 0.55791 0.03633 0.1623 0.0
C3785 C 0.57372 0.04056 0.16918 0.0
C3786 C 0.54368 0.03135 0.17218 0.0
C3787 C 0.54553 0.03006 0.18934 0.0
C3788 C 0.56165 0.03391 0.19632 0.0
C3789 C 0.57553 0.0393 0.18613 0.0
C3790 C 0.52666 0.02764 0.16426 0.0
C3791 C 0.56425 0.03232 0.21453 0.0
H3792 H 0.49835 0.03971 0.2197 0.0
H3793 H 0.50772 0.99166 0.21632 0.0
H3794 H 0.53764 0.05712 0.20549 0.0
H3795 H 0.52447 0.05597 0.18785 0.0
H3796 H 0.51547 0.06067 0.20669 0.0
H3797 H 0.53201 0.98441 0.20348 0.0
H3798 H 0.53662 0.99685 0.185 0.0
H3799 H 0.55014 -0.00121 0.2023 0.0
H3800 H 0.55672 0.03702 0.14916 0.0
H3801 H 0.58785 0.04253 0.19135 0.0
H3802 H 0.5171 0.03501 0.16876 0.0
H3803 H 0.52202 0.01524 0.1676 0.0
H3804 H 0.5273 0.02966 0.15077 0.0
H3805 H 0.55628 0.04029 0.22035 0.0
H3806 H 0.57776 0.03508 0.21796 0.0
H3807 H 0.56011 0.0202 0.21956 0.0
C3808 C 0.6101 0.73394 0.97046 0.0
C3809 C 0.62383 0.72588 0.97665 0.0
C3810 C 0.61218 0.74999 0.9654 0.0
C3811 C 0.6284 0.75828 0.96662 0.0
C3812 C 0.64216 0.7504 0.97351 0.0
C3813 C 0.63972 0.73427 0.97842 0.0
C3814 C 0.59716 0.75794 0.95813 0.0
C3815 C 0.65959 0.75887 0.97513 0.0
C3816 C 0.63531 0.79339 0.9355 0.0
C3817 C 0.63112 0.8056 0.94445 0.0
C3818 C 0.6353 0.77804 0.94279 0.0
C3819 C 0.63106 0.77484 0.9595 0.0
C3820 C 0.62776 0.78733 0.96882 0.0
C3821 C 0.62778 0.80261 0.96114 0.0
C3822 C 0.63892 0.76511 0.93238 0.0
C3823 C 0.62331 0.78445 0.98667 0.0
H3824 H 0.59774 0.72761 0.96911 0.0
H3825 H 0.6504 0.72817 0.98325 0.0
H3826 H 0.59516 0.76847 0.96448 0.0
H3827 H 0.59977 0.76191 0.94514 0.0
H3828 H 0.5852 0.75006 0.95888 0.0
H3829 H 0.66847 0.75152 0.98221 0.0
H3830 H 0.66512 0.76229 0.96286 0.0
H3831 H 0.65864 0.76979 0.98116 0.0
H3832 H 0.63802 0.79585 0.92261 0.0
H3833 H 0.62446 0.8121 0.96799 0.0
H3834 H 0.62718 0.75719 0.93123 0.0
H3835 H 0.64875 0.75798 0.93819 0.0
H3836 H 0.64335 0.76971 0.91997 0.0
H3837 H 0.61047 0.77809 0.98808 0.0
H3838 H 0.62327 0.79554 0.99261 0.0
H3839 H 0.63247 0.77698 0.99313 0.0
C3840 C 0.96276 0.09776 0.84626 0.0
C3841 C 0.97432 0.1082 0.85374 0.0
C3842 C 0.94525 0.09681 0.84979 0.0
C3843 C 0.93918 0.10648 0.86112 0.0
C3844 C 0.95071 0.11734 0.86839 0.0
C3845 C 0.96812 0.11809 0.86459 0.0
C3846 C 0.9333 0.0852 0.8417 0.0
C3847 C 0.94471 0.12784 0.88055 0.0
C3848 C 0.89197 0.11239 0.86321 0.0
C3849 C 0.88675 0.10185 0.8765 0.0
C3850 C 0.90898 0.11393 0.8579 0.0
C3851 C 0.92095 0.10466 0.86611 0.0
C3852 C 0.91561 0.09387 0.87946 0.0
C3853 C 0.89854 0.09261 0.88449 0.0
C3854 C 0.91419 0.12559 0.84367 0.0
C3855 C 0.92799 0.08388 0.88863 0.0
H3856 H 0.96742 0.09014 0.83781 0.0
H3857 H 0.97693 0.12623 0.8704 0.0
H3858 H 0.92758 0.0762 0.85101 0.0
H3859 H 0.92269 0.0912 0.83572 0.0
H3860 H 0.93986 0.07921 0.83244 0.0
H3861 H 0.95515 0.13617 0.88451 0.0
H3862 H 0.93433 0.13462 0.87526 0.0
H3863 H 0.9394 0.1206 0.89146 0.0
H3864 H 0.88271 0.11947 0.8571 0.0
H3865 H 0.89441 0.08465 0.89491 0.0
H3866 H 0.9204 0.11969 0.83415 0.0
H3867 H 0.92365 0.13476 0.84771 0.0
H3868 H 0.90318 0.13138 0.83818 0.0
H3869 H 0.93426 0.07683 0.88015 0.0
H3870 H 0.92168 0.07581 0.89848 0.0
H3871 H 0.93815 0.09148 0.8941 0.0
C3872 C 0.65514 0.23986 0.55697 0.0
C3873 C 0.67062 0.24895 0.5539 0.0
C3874 C 0.65478 0.22461 0.56469 0.0
C3875 C 0.67029 0.21821 0.56917 0.0
C3876 C 0.68591 0.22755 0.56666 0.0
C3877 C 0.68587 0.24286 0.55918 0.0
C3878 C 0.63785 0.21511 0.56744 0.0
C3879 C 0.70273 0.22109 0.57109 0.0
C3880 C 0.6701 0.18019 0.59666 0.0
C3881 C 0.67062 0.16919 0.58517 0.0
C3882 C 0.66975 0.19622 0.59169 0.0
C3883 C 0.67032 0.20131 0.57486 0.0
C3884 C 0.67098 0.19018 0.56326 0.0
C3885 C 0.67091 0.17426 0.56857 0.0
C3886 C 0.66869 0.20769 0.6044 0.0
C3887 C 0.67174 0.19508 0.5452 0.0
H3888 H 0.64329 0.24455 0.55307 0.0
H3889 H 0.69789 0.24982 0.55685 0.0
H3890 H 0.63673 0.20557 0.55919 0.0
H3891 H 0.63694 0.20954 0.5801 0.0
H3892 H 0.62692 0.22236 0.56512 0.0
H3893 H 0.71361 0.23022 0.56956 0.0
H3894 H 0.70248 0.21587 0.58388 0.0
H3895 H 0.70495 0.21163 0.56324 0.0
H3896 H 0.66992 0.17621 0.6095 0.0
H3897 H 0.67093 0.16567 0.55973 0.0
H3898 H 0.65736 0.2144 0.60213 0.0
H3899 H 0.68006 0.21627 0.60359 0.0
H3900 H 0.66783 0.20179 0.61695 0.0
H3901 H 0.66017 0.20093 0.54138 0.0
H3902 H 0.67271 0.185 0.53783 0.0
H3903 H 0.68289 0.20367 0.54241 0.0
C3904 C 0.49811 0.89108 0.27451 0.0
C3905 C 0.48421 0.88633 0.28488 0.0
C3906 C 0.51475 0.89303 0.28072 0.0
C3907 C 0.51748 0.89021 0.29768 0.0
C3908 C 0.50351 0.88532 0.30816 0.0
C3909 C 0.48707 0.88342 0.30164 0.0
C3910 C 0.52937 0.89818 0.26919 0.0
C3911 C 0.5059 0.88222 0.32633 0.0
C3912 C 0.56048 0.88144 0.31549 0.0
C3913 C 0.56597 0.89571 0.32151 0.0
C3914 C 0.54503 0.87965 0.30703 0.0
C3915 C 0.53488 0.89248 0.30464 0.0
C3916 C 0.54074 0.90711 0.3102 0.0
C3917 C 0.55627 0.90854 0.31858 0.0
C3918 C 0.53927 0.8639 0.30123 0.0
C3919 C 0.53025 0.92103 0.30796 0.0
H3920 H 0.49601 0.89333 0.26154 0.0
H3921 H 0.47642 0.87975 0.30975 0.0
H3922 H 0.53574 0.90949 0.27244 0.0
H3923 H 0.53903 0.88949 0.27031 0.0
H3924 H 0.52516 0.89962 0.2563 0.0
H3925 H 0.49371 0.87838 0.33279 0.0
H3926 H 0.51485 0.87303 0.32891 0.0
H3927 H 0.5116 0.89298 0.33142 0.0
H3928 H 0.56816 0.8716 0.31775 0.0
H3929 H 0.56056 0.9195 0.32342 0.0
H3930 H 0.53558 0.86522 0.28821 0.0
H3931 H 0.52785 0.85874 0.30822 0.0
H3932 H 0.54932 0.85557 0.30275 0.0
H3933 H 0.52642 0.92312 0.29503 0.0
H3934 H 0.53726 0.93188 0.31175 0.0
H3935 H 0.5184 0.91861 0.31529 0.0
C3936 C 0.90939 0.79561 0.05165 0.0
C3937 C 0.89641 0.7868 0.04394 0.0
C3938 C 0.90575 0.80827 0.0603 0.0
C3939 C 0.88871 0.81218 0.06133 0.0
C3940 C 0.87559 0.80352 0.05334 0.0
C3941 C 0.8796 0.79095 0.04471 0.0
C3942 C 0.92009 0.81729 0.06859 0.0
C3943 C 0.85726 0.80731 0.0542 0.0
C3944 C 0.87683 0.83367 0.09736 0.0
C3945 C 0.87678 0.84907 0.09031 0.0
C3946 C 0.88064 0.82154 0.08804 0.0
C3947 C 0.88452 0.82495 0.07128 0.0
C3948 C 0.88445 0.84054 0.06411 0.0
C3949 C 0.88054 0.85243 0.07374 0.0
C3950 C 0.88049 0.80508 0.09614 0.0
C3951 C 0.88859 0.84465 0.04631 0.0
H3952 H 0.92241 0.79251 0.05107 0.0
H3953 H 0.86949 0.78422 0.03879 0.0
H3954 H 0.92033 0.82995 0.06453 0.0
H3955 H 0.91799 0.81603 0.08196 0.0
H3956 H 0.93273 0.8132 0.06605 0.0
H3957 H 0.84866 0.79981 0.04683 0.0
H3958 H 0.85282 0.80569 0.06703 0.0
H3959 H 0.85616 0.81976 0.04982 0.0
H3960 H 0.87375 0.83117 0.11016 0.0
H3961 H 0.88059 0.86441 0.06842 0.0
H3962 H 0.89321 0.80065 0.09498 0.0
H3963 H 0.87118 0.79716 0.08997 0.0
H3964 H 0.87712 0.8044 0.10926 0.0
H3965 H 0.90161 0.84151 0.0437 0.0
H3966 H 0.88787 0.85731 0.0426 0.0
H3967 H 0.87963 0.83778 0.0387 0.0
C3968 C 0.66732 0.93593 0.92412 0.0
C3969 C 0.65851 0.94468 0.91219 0.0
C3970 C 0.66309 0.91978 0.92753 0.0
C3971 C 0.64936 0.91232 0.91919 0.0
C3972 C 0.64003 0.92122 0.90753 0.0
C3973 C 0.64491 0.93726 0.90397 0.0
C3974 C 0.67365 0.91061 0.93969 0.0
C3975 C 0.62498 0.91378 0.89872 0.0
C3976 C 0.64733 0.86865 0.91451 0.0
C3977 C 0.63616 0.86263 0.92705 0.0
C3978 C 0.65214 0.88478 0.91211 0.0
C3979 C 0.64511 0.8951 0.92222 0.0
C3980 C 0.63379 0.88896 0.93497 0.0
C3981 C 0.62968 0.87271 0.9374 0.0
C3982 C 0.66459 0.89077 0.89868 0.0
C3983 C 0.6256 0.89958 0.94566 0.0
H3984 H 0.67794 0.94162 0.93039 0.0
H3985 H 0.638 0.94402 0.89481 0.0
H3986 H 0.66541 0.90454 0.94957 0.0
H3987 H 0.67965 0.90146 0.93361 0.0
H3988 H 0.68383 0.91818 0.94522 0.0
H3989 H 0.61826 0.92255 0.89098 0.0
H3990 H 0.62932 0.90508 0.89086 0.0
H3991 H 0.61577 0.9074 0.90761 0.0
H3992 H 0.6522 0.86067 0.90657 0.0
H3993 H 0.62089 0.86785 0.94697 0.0
H3994 H 0.67535 0.89811 0.90361 0.0
H3995 H 0.65822 0.89828 0.8893 0.0
H3996 H 0.66979 0.88111 0.89271 0.0
H3997 H 0.63552 0.90692 0.95176 0.0
H3998 H 0.61721 0.89292 0.95511 0.0
H3999 H 0.6179 0.90763 0.93806 0.0
C4000 C 0.21105 0.56786 0.09772 0.0
C4001 C 0.2142 0.5598 0.08414 0.0
C4002 C 0.20475 0.58269 0.09589 0.0
C4003 C 0.20167 0.58971 0.08008 0.0
C4004 C 0.20528 0.58184 0.06629 0.0
C4005 C 0.21142 0.56694 0.06849 0.0
C4006 C 0.20094 0.59064 0.11091 0.0
C4007 C 0.20232 0.58903 0.04924 0.0
C4008 C 0.16843 0.61921 0.07782 0.0
C4009 C 0.17856 0.63338 0.07799 0.0
C4010 C 0.17581 0.60494 0.07799 0.0
C4011 C 0.19378 0.60489 0.07812 0.0
C4012 C 0.20408 0.61927 0.07747 0.0
C4013 C 0.19631 0.63338 0.07748 0.0
C4014 C 0.16435 0.58989 0.07871 0.0
C4015 C 0.22328 0.61971 0.07741 0.0
H4016 H 0.21316 0.56244 0.10986 0.0
H4017 H 0.21391 0.56082 0.05792 0.0
H4018 H 0.20786 0.60246 0.11037 0.0
H4019 H 0.18712 0.59222 0.11143 0.0
H4020 H 0.20457 0.58385 0.12231 0.0
H4021 H 0.20684 0.5819 0.03981 0.0
H4022 H 0.18851 0.59022 0.04735 0.0
H4023 H 0.20894 0.60097 0.04749 0.0
H4024 H 0.15469 0.61934 0.07799 0.0
H4025 H 0.20408 0.64439 0.07768 0.0
H4026 H 0.16631 0.58286 0.09042 0.0
H4027 H 0.16762 0.58276 0.06879 0.0
H4028 H 0.15065 0.59202 0.07767 0.0
H4029 H 0.22774 0.61446 0.08929 0.0
H4030 H 0.22939 0.63184 0.07527 0.0
H4031 H 0.22764 0.61264 0.06786 0.0
C4032 C 0.20603 0.4471 0.84164 0.0
C4033 C 0.21823 0.43927 0.85088 0.0
C4034 C 0.18928 0.4403 0.84031 0.0
C4035 C 0.18468 0.42529 0.84832 0.0
C4036 C 0.1968 0.41753 0.85802 0.0
C4037 C 0.21341 0.42463 0.85922 0.0
C4038 C 0.17661 0.44898 0.83001 0.0
C4039 C 0.19238 0.40148 0.86672 0.0
C4040 C 0.13825 0.41021 0.85474 0.0
C4041 C 0.13571 0.40048 0.84207 0.0
C4042 C 0.15405 0.41867 0.85676 0.0
C4043 C 0.16753 0.41726 0.84583 0.0
C4044 C 0.16486 0.4076 0.83285 0.0
C4045 C 0.14893 0.39933 0.83112 0.0
C4046 C 0.15641 0.42883 0.87075 0.0
C4047 C 0.17895 0.40566 0.82104 0.0
H4048 H 0.20962 0.45844 0.83524 0.0
H4049 H 0.22273 0.4185 0.86642 0.0
H4050 H 0.17285 0.44239 0.8194 0.0
H4051 H 0.16487 0.44986 0.83713 0.0
H4052 H 0.18184 0.46096 0.82547 0.0
H4053 H 0.20301 0.39736 0.87442 0.0
H4054 H 0.18098 0.40159 0.87454 0.0
H4055 H 0.18916 0.39289 0.85767 0.0
H4056 H 0.12788 0.41105 0.86312 0.0
H4057 H 0.14686 0.39161 0.82148 0.0
H4058 H 0.16138 0.44088 0.86622 0.0
H4059 H 0.16595 0.42411 0.87939 0.0
H4060 H 0.14434 0.42943 0.87749 0.0
H4061 H 0.18402 0.41726 0.81528 0.0
H4062 H 0.17459 0.39813 0.81129 0.0
H4063 H 0.18963 0.40035 0.82767 0.0
C4064 C 0.30413 0.44975 0.61946 0.0
C4065 C 0.31213 0.45988 0.63014 0.0
C4066 C 0.31137 0.43603 0.61605 0.0
C4067 C 0.32717 0.43258 0.62317 0.0
C4068 C 0.33533 0.4428 0.63392 0.0
C4069 C 0.32761 0.45624 0.63741 0.0
C4070 C 0.3021 0.4252 0.60487 0.0
C4071 C 0.35237 0.43969 0.64147 0.0
C4072 C 0.34107 0.39126 0.62682 0.0
C4073 C 0.35217 0.39184 0.61358 0.0
C4074 C 0.33239 0.40429 0.62979 0.0
C4075 C 0.33523 0.4183 0.61942 0.0
C4076 C 0.34634 0.41883 0.60588 0.0
C4077 C 0.35457 0.40548 0.60303 0.0
C4078 C 0.32052 0.40318 0.64423 0.0
C4079 C 0.35 0.43364 0.59477 0.0
H4080 H 0.29212 0.45249 0.61388 0.0
H4081 H 0.33392 0.46412 0.64554 0.0
H4082 H 0.31008 0.42418 0.59403 0.0
H4083 H 0.29977 0.41329 0.61121 0.0
H4084 H 0.28969 0.42934 0.60068 0.0
H4085 H 0.35672 0.44843 0.65008 0.0
H4086 H 0.35169 0.42785 0.64808 0.0
H4087 H 0.36211 0.43994 0.63176 0.0
H4088 H 0.33939 0.38061 0.63492 0.0
H4089 H 0.36339 0.40582 0.59294 0.0
H4090 H 0.30794 0.40712 0.64039 0.0
H4091 H 0.3258 0.41102 0.65335 0.0
H4092 H 0.31859 0.39106 0.65022 0.0
H4093 H 0.33795 0.43781 0.58971 0.0
H4094 H 0.35855 0.43196 0.58452 0.0
H4095 H 0.35609 0.44301 0.60182 0.0
C4096 C 0.75758 0.0346 0.90435 0.0
C4097 C 0.74459 0.04431 0.90692 0.0
C4098 C 0.77455 0.04088 0.90187 0.0
C4099 C 0.77856 0.05724 0.90194 0.0
C4100 C 0.76554 0.06705 0.90475 0.0
C4101 C 0.74875 0.06047 0.90722 0.0
C4102 C 0.78813 0.03008 0.89896 0.0
C4103 C 0.76929 0.08456 0.90492 0.0
C4104 C 0.82337 0.07543 0.90877 0.0
C4105 C 0.82806 0.08136 0.89296 0.0
C4106 C 0.80755 0.06688 0.91183 0.0
C4107 C 0.79625 0.06432 0.89871 0.0
C4108 C 0.80132 0.06984 0.88261 0.0
C4109 C 0.81721 0.07834 0.87994 0.0
C4110 C 0.80265 0.06119 0.92915 0.0
C4111 C 0.78965 0.0674 0.8683 0.0
H4112 H 0.75448 0.0221 0.90412 0.0
H4113 H 0.73884 0.06809 0.90922 0.0
H4114 H 0.79381 0.03321 0.88671 0.0
H4115 H 0.79854 0.03148 0.90797 0.0
H4116 H 0.78304 0.01758 0.89981 0.0
H4117 H 0.75778 0.09051 0.90761 0.0
H4118 H 0.77913 0.08718 0.9142 0.0
H4119 H 0.77446 0.08962 0.89293 0.0
H4120 H 0.83192 0.07792 0.91873 0.0
H4121 H 0.82103 0.08307 0.86776 0.0
H4122 H 0.798 0.0486 0.92999 0.0
H4123 H 0.79206 0.06771 0.93309 0.0
H4124 H 0.81346 0.06282 0.93772 0.0
H4125 H 0.78498 0.05486 0.86831 0.0
H4126 H 0.79606 0.07125 0.85647 0.0
H4127 H 0.77834 0.07411 0.8693 0.0
C4128 C 0.78122 0.04851 0.36429 0.0
C4129 C 0.79194 0.0398 0.35585 0.0
C4130 C 0.78592 0.06425 0.36673 0.0
C4131 C 0.80191 0.0713 0.36096 0.0
C4132 C 0.81292 0.06246 0.35269 0.0
C4133 C 0.80771 0.04687 0.35008 0.0
C4134 C 0.77368 0.07343 0.37523 0.0
C4135 C 0.83025 0.06945 0.34672 0.0
C4136 C 0.81027 0.11534 0.35235 0.0
C4137 C 0.8193 0.11932 0.36624 0.0
C4138 C 0.80393 0.09982 0.35075 0.0
C4139 C 0.80706 0.08801 0.36324 0.0
C4140 C 0.81591 0.0921 0.37748 0.0
C4141 C 0.82179 0.1078 0.37887 0.0
C4142 C 0.79441 0.096 0.33546 0.0
C4143 C 0.81985 0.07982 0.39088 0.0
H4144 H 0.76896 0.04312 0.36868 0.0
H4145 H 0.81611 0.04013 0.34368 0.0
H4146 H 0.77977 0.07803 0.3862 0.0
H4147 H 0.77039 0.08367 0.36703 0.0
H4148 H 0.76173 0.06624 0.37897 0.0
H4149 H 0.8371 0.06118 0.34009 0.0
H4150 H 0.82901 0.08023 0.33853 0.0
H4151 H 0.83815 0.07288 0.35722 0.0
H4152 H 0.80852 0.12439 0.34262 0.0
H4153 H 0.82904 0.11102 0.38945 0.0
H4154 H 0.78226 0.08889 0.3386 0.0
H4155 H 0.80214 0.08892 0.32822 0.0
H4156 H 0.79156 0.1067 0.32773 0.0
H4157 H 0.80801 0.07273 0.39507 0.0
H4158 H 0.82605 0.08503 0.4015 0.0
H4159 H 0.82845 0.0717 0.38614 0.0
C4160 C 0.22331 0.53438 0.66007 0.0
C4161 C 0.23225 0.53672 0.64527 0.0
C4162 C 0.20612 0.53743 0.6609 0.0
C4163 C 0.19762 0.5428 0.64656 0.0
C4164 C 0.20653 0.5451 0.63157 0.0
C4165 C 0.22375 0.54209 0.63111 0.0
C4166 C 0.19705 0.53493 0.67713 0.0
C4167 C 0.19783 0.55067 0.616 0.0
C4168 C 0.14942 0.53589 0.64646 0.0
C4169 C 0.14456 0.55063 0.64945 0.0
C4170 C 0.16665 0.53323 0.64527 0.0
C4171 C 0.17929 0.54565 0.64721 0.0
C4172 C 0.17439 0.56066 0.65004 0.0
C4173 C 0.15701 0.56297 0.65109 0.0
C4174 C 0.17133 0.51713 0.64204 0.0
C4175 C 0.18749 0.57417 0.65221 0.0
H4176 H 0.22979 0.53032 0.67108 0.0
H4177 H 0.23055 0.54391 0.61962 0.0
H4178 H 0.19189 0.54596 0.68005 0.0
H4179 H 0.18607 0.52601 0.67654 0.0
H4180 H 0.20556 0.53101 0.6872 0.0
H4181 H 0.20659 0.552 0.60536 0.0
H4182 H 0.18688 0.54224 0.61348 0.0
H4183 H 0.19268 0.5621 0.6173 0.0
H4184 H 0.13963 0.52646 0.64502 0.0
H4185 H 0.15308 0.57434 0.65344 0.0
H4186 H 0.17895 0.51222 0.65232 0.0
H4187 H 0.17935 0.51789 0.63093 0.0
H4188 H 0.15993 0.50888 0.64041 0.0
H4189 H 0.19564 0.57125 0.66288 0.0
H4190 H 0.18155 0.58515 0.65403 0.0
H4191 H 0.19594 0.57631 0.64138 0.0
C4192 C 0.29062 0.46533 0.0669 0.0
C4193 C 0.28293 0.47703 0.07427 0.0
C4194 C 0.30542 0.45927 0.07342 0.0
C4195 C 0.31276 0.46507 0.08764 0.0
C4196 C 0.30565 0.47751 0.0946 0.0
C4197 C 0.29079 0.48335 0.08783 0.0
C4198 C 0.31267 0.44605 0.06558 0.0
C4199 C 0.31319 0.48409 0.10968 0.0
C4200 C 0.33575 0.43501 0.11366 0.0
C4201 C 0.35267 0.43889 0.10881 0.0
C4202 C 0.32272 0.4439 0.10739 0.0
C4203 C 0.32677 0.45701 0.09602 0.0
C4204 C 0.34402 0.46145 0.09175 0.0
C4205 C 0.35681 0.45228 0.09821 0.0
C4206 C 0.30452 0.43877 0.11233 0.0
C4207 C 0.34886 0.47538 0.07975 0.0
H4208 H 0.28473 0.46045 0.05635 0.0
H4209 H 0.285 0.49246 0.09356 0.0
H4210 H 0.32652 0.44876 0.06332 0.0
H4211 H 0.31109 0.43518 0.07395 0.0
H4212 H 0.30631 0.44373 0.05387 0.0
H4213 H 0.3075 0.49496 0.11239 0.0
H4214 H 0.31097 0.47527 0.12027 0.0
H4215 H 0.32718 0.48668 0.10831 0.0
H4216 H 0.33271 0.42467 0.12195 0.0
H4217 H 0.36995 0.45513 0.09443 0.0
H4218 H 0.29727 0.43483 0.10164 0.0
H4219 H 0.29823 0.44874 0.11658 0.0
H4220 H 0.30367 0.42902 0.12216 0.0
H4221 H 0.34444 0.47275 0.06741 0.0
H4222 H 0.36286 0.47841 0.07928 0.0
H4223 H 0.34254 0.48574 0.08293 0.0
C4224 C 0.61704 0.84691 0.55914 0.0
C4225 C 0.62115 0.8596 0.54754 0.0
C4226 C 0.61313 0.84932 0.57529 0.0
C4227 C 0.6134 0.86479 0.57996 0.0
C4228 C 0.61773 0.87764 0.56837 0.0
C4229 C 0.6215 0.87489 0.55231 0.0
C4230 C 0.60864 0.83534 0.58735 0.0
C4231 C 0.61827 0.89432 0.57291 0.0
C4232 C 0.58879 0.87384 0.61705 0.0
C4233 C 0.60186 0.87557 0.62847 0.0
C4234 C 0.59226 0.86983 0.60132 0.0
C4235 C 0.60923 0.86763 0.59698 0.0
C4236 C 0.62238 0.86899 0.60868 0.0
C4237 C 0.61849 0.87287 0.62432 0.0
C4238 C 0.5779 0.86851 0.58919 0.0
C4239 C 0.64065 0.8669 0.60454 0.0
H4240 H 0.61672 0.83506 0.55558 0.0
H4241 H 0.62469 0.88478 0.54346 0.0
H4242 H 0.6176 0.83547 0.59778 0.0
H4243 H 0.59566 0.83595 0.5923 0.0
H4244 H 0.60904 0.82407 0.58182 0.0
H4245 H 0.62233 0.903 0.56258 0.0
H4246 H 0.60548 0.89682 0.57704 0.0
H4247 H 0.62718 0.89598 0.58321 0.0
H4248 H 0.57599 0.87615 0.62028 0.0
H4249 H 0.62852 0.87416 0.63327 0.0
H4250 H 0.5776 0.85714 0.58377 0.0
H4251 H 0.58002 0.8779 0.57911 0.0
H4252 H 0.56529 0.86951 0.5948 0.0
H4253 H 0.64149 0.85559 0.59922 0.0
H4254 H 0.64912 0.86725 0.61534 0.0
H4255 H 0.64546 0.87635 0.59524 0.0
C4256 C 0.40265 0.41835 0.8149 0.0
C4257 C 0.41067 0.41099 0.80289 0.0
C4258 C 0.39914 0.41058 0.83036 0.0
C4259 C 0.40347 0.39499 0.83379 0.0
C4260 C 0.41137 0.38743 0.82164 0.0
C4261 C 0.41504 0.39559 0.80638 0.0
C4262 C 0.3911 0.41917 0.84312 0.0
C4263 C 0.41585 0.37071 0.82475 0.0
C4264 C 0.40758 0.38005 0.87829 0.0
C4265 C 0.39142 0.37239 0.88143 0.0
C4266 C 0.41183 0.38725 0.86273 0.0
C4267 C 0.39961 0.38658 0.85006 0.0
C4268 C 0.3834 0.37841 0.85315 0.0
C4269 C 0.37949 0.37146 0.86886 0.0
C4270 C 0.42912 0.39608 0.86 0.0
C4271 C 0.37 0.37747 0.84003 0.0
H4272 H 0.39941 0.43031 0.81231 0.0
H4273 H 0.42116 0.38983 0.79711 0.0
H4274 H 0.37998 0.41198 0.84876 0.0
H4275 H 0.40045 0.4213 0.85297 0.0
H4276 H 0.3869 0.43062 0.83806 0.0
H4277 H 0.42176 0.36645 0.81396 0.0
H4278 H 0.42481 0.36966 0.83514 0.0
H4279 H 0.4042 0.36293 0.82814 0.0
H4280 H 0.4166 0.38095 0.88821 0.0
H4281 H 0.36696 0.36557 0.87149 0.0
H4282 H 0.42758 0.4087 0.85691 0.0
H4283 H 0.43562 0.39183 0.84956 0.0
H4284 H 0.43742 0.39486 0.8709 0.0
H4285 H 0.36594 0.38933 0.83646 0.0
H4286 H 0.35857 0.36965 0.84408 0.0
H4287 H 0.37532 0.37313 0.82901 0.0
C4288 C 0.92486 0.20051 0.99011 0.0
C4289 C 0.92097 0.19458 0.97509 0.0
C4290 C 0.92404 0.19064 0.00464 0.0
C4291 C 0.91926 0.17445 0.00413 0.0
C4292 C 0.91579 0.16832 0.98897 0.0
C4293 C 0.91666 0.17846 0.97464 0.0
C4294 C 0.92779 0.1976 0.02059 0.0
C4295 C 0.9107 0.15111 0.98792 0.0
C4296 C 0.92749 0.14558 0.04042 0.0
C4297 C 0.91132 0.14315 0.04757 0.0
C4298 C 0.93041 0.15596 0.02638 0.0
C4299 C 0.91679 0.16407 0.01948 0.0
C4300 C 0.90054 0.1619 0.02699 0.0
C4301 C 0.89802 0.15145 0.04096 0.0
C4302 C 0.9479 0.15797 0.01871 0.0
C4303 C 0.88572 0.17039 0.02011 0.0
H4304 H 0.92824 0.21294 0.99058 0.0
H4305 H 0.91371 0.17375 0.96308 0.0
H4306 H 0.91609 0.19635 0.02819 0.0
H4307 H 0.93756 0.19121 0.0275 0.0
H4308 H 0.93237 0.21022 0.01883 0.0
H4309 H 0.9094 0.14806 0.97513 0.0
H4310 H 0.92028 0.14395 0.99415 0.0
H4311 H 0.89835 0.14782 0.99424 0.0
H4312 H 0.93769 0.13907 0.04564 0.0
H4313 H 0.88559 0.14962 0.04673 0.0
H4314 H 0.95261 0.17054 0.01734 0.0
H4315 H 0.9472 0.15384 0.00633 0.0
H4316 H 0.95727 0.15136 0.02598 0.0
H4317 H 0.88912 0.18322 0.01907 0.0
H4318 H 0.87407 0.16778 0.02775 0.0
H4319 H 0.88273 0.16698 0.00768 0.0
C4320 C 0.06008 0.6474 0.24439 0.0
C4321 C 0.05051 0.66027 0.24067 0.0
C4322 C 0.06643 0.64407 0.26014 0.0
C4323 C 0.06283 0.65365 0.27258 0.0
C4324 C 0.05303 0.66657 0.26896 0.0
C4325 C 0.04714 0.66983 0.25299 0.0
C4326 C 0.07708 0.63034 0.26344 0.0
C4327 C 0.04865 0.67686 0.28197 0.0
C4328 C 0.06668 0.63442 0.31556 0.0
C4329 C 0.08272 0.64081 0.32014 0.0
C4330 C 0.05971 0.63901 0.30036 0.0
C4331 C 0.06925 0.64998 0.2894 0.0
C4332 C 0.08536 0.6567 0.29419 0.0
C4333 C 0.09185 0.6521 0.30962 0.0
C4334 C 0.04236 0.63178 0.29587 0.0
C4335 C 0.09606 0.66822 0.28277 0.0
H4336 H 0.06284 0.64003 0.23489 0.0
H4337 H 0.03968 0.67975 0.2502 0.0
H4338 H 0.08968 0.63437 0.26838 0.0
H4339 H 0.07078 0.62171 0.27277 0.0
H4340 H 0.07914 0.62433 0.25232 0.0
H4341 H 0.04074 0.68634 0.27722 0.0
H4342 H 0.0416 0.66967 0.29202 0.0
H4343 H 0.06047 0.68224 0.28727 0.0
H4344 H 0.05977 0.62564 0.32384 0.0
H4345 H 0.10434 0.65684 0.31328 0.0
H4346 H 0.04363 0.62428 0.28574 0.0
H4347 H 0.03404 0.64107 0.29152 0.0
H4348 H 0.03601 0.62451 0.30628 0.0
H4349 H 0.0996 0.6624 0.27194 0.0
H4350 H 0.10791 0.67292 0.28864 0.0
H4351 H 0.08865 0.67815 0.27836 0.0
C4352 C 0.60874 0.12181 0.95448 0.0
C4353 C 0.61439 0.13629 0.96013 0.0
C4354 C 0.60487 0.12052 0.93798 0.0
C4355 C 0.60669 0.13404 0.92682 0.0
C4356 C 0.61255 0.14866 0.93237 0.0
C4357 C 0.61632 0.14962 0.94897 0.0
C4358 C 0.59872 0.10469 0.93252 0.0
C4359 C 0.61475 0.1633 0.92079 0.0
C4360 C 0.60994 0.12701 0.88212 0.0
C4361 C 0.59314 0.12835 0.87688 0.0
C4362 C 0.61463 0.12913 0.89827 0.0
C4363 C 0.60223 0.13281 0.90937 0.0
C4364 C 0.58533 0.13459 0.90396 0.0
C4365 C 0.58099 0.13232 0.88774 0.0
C4366 C 0.63275 0.12704 0.90355 0.0
C4367 C 0.57171 0.1384 0.91542 0.0
H4368 H 0.60723 0.11143 0.96297 0.0
H4369 H 0.6207 0.16085 0.9532 0.0
H4370 H 0.58582 0.10516 0.9271 0.0
H4371 H 0.60728 0.10151 0.92294 0.0
H4372 H 0.59816 0.09529 0.9427 0.0
H4373 H 0.61971 0.17372 0.92697 0.0
H4374 H 0.62367 0.1616 0.91086 0.0
H4375 H 0.60236 0.16569 0.91505 0.0
H4376 H 0.6193 0.12406 0.87358 0.0
H4377 H 0.56799 0.13319 0.88361 0.0
H4378 H 0.63293 0.11715 0.91313 0.0
H4379 H 0.63834 0.13771 0.9089 0.0
H4380 H 0.64095 0.12465 0.89329 0.0
H4381 H 0.56952 0.12873 0.92521 0.0
H4382 H 0.55943 0.14017 0.9091 0.0
H4383 H 0.57592 0.14916 0.92134 0.0
C4384 C 0.06127 0.40764 0.24859 0.0
C4385 C 0.04763 0.3973 0.25477 0.0
C4386 C 0.0676 0.40686 0.23283 0.0
C4387 C 0.05998 0.39559 0.2229 0.0
C4388 C 0.04616 0.38515 0.22903 0.0
C4389 C 0.04022 0.38606 0.24494 0.0
C4390 C 0.08249 0.41809 0.22682 0.0
C4391 C 0.03756 0.37313 0.21873 0.0
C4392 C 0.0675 0.40521 0.17752 0.0
C4393 C 0.08089 0.3961 0.17473 0.0
C4394 C 0.06007 0.40468 0.19302 0.0
C4395 C 0.06642 0.39495 0.20604 0.0
C4396 C 0.07966 0.38537 0.2031 0.0
C4397 C 0.08668 0.38602 0.18741 0.0
C4398 C 0.04584 0.41491 0.19557 0.0
C4399 C 0.0869 0.37498 0.21667 0.0
H4400 H 0.06712 0.4163 0.25613 0.0
H4401 H 0.02964 0.37806 0.24961 0.0
H4402 H 0.09312 0.41146 0.22315 0.0
H4403 H 0.07871 0.42545 0.21588 0.0
H4404 H 0.08724 0.4259 0.23619 0.0
H4405 H 0.02698 0.36586 0.22529 0.0
H4406 H 0.03241 0.37907 0.20749 0.0
H4407 H 0.04698 0.36529 0.2149 0.0
H4408 H 0.06311 0.41298 0.16759 0.0
H4409 H 0.09718 0.37913 0.18515 0.0
H4410 H 0.05024 0.42403 0.2037 0.0
H4411 H 0.03484 0.40783 0.20161 0.0
H4412 H 0.04145 0.42078 0.18394 0.0
H4413 H 0.09315 0.38231 0.22578 0.0
H4414 H 0.09641 0.36755 0.21217 0.0
H4415 H 0.07655 0.36727 0.22304 0.0
C4416 C 0.90909 0.80167 0.49027 0.0
C4417 C 0.89379 0.79729 0.49877 0.0
C4418 C 0.90927 0.81105 0.47541 0.0
C4419 C 0.89384 0.81635 0.46906 0.0
C4420 C 0.87828 0.81131 0.47718 0.0
C4421 C 0.87843 0.80176 0.49187 0.0
C4422 C 0.92608 0.81594 0.46695 0.0
C4423 C 0.86155 0.81677 0.47086 0.0
C4424 C 0.89413 0.85579 0.44462 0.0
C4425 C 0.89057 0.85146 0.42893 0.0
C4426 C 0.89575 0.84447 0.4577 0.0
C4427 C 0.89403 0.82839 0.45493 0.0
C4428 C 0.89133 0.82397 0.43891 0.0
C4429 C 0.88951 0.8356 0.42607 0.0
C4430 C 0.89857 0.8497 0.47459 0.0
C4431 C 0.88968 0.80698 0.43544 0.0
H4432 H 0.921 0.79816 0.49545 0.0
H4433 H 0.86655 0.79842 0.49833 0.0
H4434 H 0.92504 0.8143 0.45377 0.0
H4435 H 0.92956 0.82857 0.46806 0.0
H4436 H 0.93653 0.80921 0.47223 0.0
H4437 H 0.85047 0.81089 0.47792 0.0
H4438 H 0.86159 0.8296 0.47153 0.0
H4439 H 0.85983 0.81452 0.45789 0.0
H4440 H 0.89515 0.86811 0.44668 0.0
H4441 H 0.88665 0.83231 0.41391 0.0
H4442 H 0.90995 0.84468 0.4802 0.0
H4443 H 0.88746 0.84534 0.48243 0.0
H4444 H 0.90033 0.86266 0.47454 0.0
H4445 H 0.90029 0.80081 0.44119 0.0
H4446 H 0.88964 0.8056 0.42217 0.0
H4447 H 0.87763 0.80115 0.44078 0.0
C4448 C 0.43285 0.61151 0.69446 0.0
C4449 C 0.42738 0.59595 0.69984 0.0
C4450 C 0.43332 0.61663 0.67781 0.0
C4451 C 0.42822 0.60595 0.66625 0.0
C4452 C 0.42329 0.59011 0.67154 0.0
C4453 C 0.42295 0.58529 0.68827 0.0
C4454 C 0.43865 0.63362 0.67263 0.0
C4455 C 0.41776 0.57838 0.65955 0.0
C4456 C 0.40986 0.62145 0.62599 0.0
C4457 C 0.42343 0.62068 0.61532 0.0
C4458 C 0.41132 0.61686 0.64263 0.0
C4459 C 0.42687 0.61157 0.64874 0.0
C4460 C 0.44084 0.61129 0.63804 0.0
C4461 C 0.43893 0.61587 0.62139 0.0
C4462 C 0.3961 0.6173 0.65359 0.0
C4463 C 0.45759 0.60571 0.6441 0.0
H4464 H 0.43636 0.61983 0.70328 0.0
H4465 H 0.41875 0.57324 0.6923 0.0
H4466 H 0.44875 0.63455 0.66319 0.0
H4467 H 0.42762 0.63936 0.66715 0.0
H4468 H 0.44345 0.64015 0.683 0.0
H4469 H 0.41502 0.56635 0.66554 0.0
H4470 H 0.40612 0.58193 0.6531 0.0
H4471 H 0.42779 0.57817 0.6502 0.0
H4472 H 0.39794 0.62529 0.62116 0.0
H4473 H 0.44932 0.61521 0.61298 0.0
H4474 H 0.3995 0.62483 0.66356 0.0
H4475 H 0.39224 0.60536 0.6593 0.0
H4476 H 0.38499 0.6218 0.64689 0.0
H4477 H 0.46235 0.61231 0.6544 0.0
H4478 H 0.46747 0.60706 0.6344 0.0
H4479 H 0.45571 0.59317 0.64871 0.0
C4480 C 0.4814 0.56722 0.8109 0.0
C4481 C 0.48465 0.57179 0.7944 0.0
C4482 C 0.49475 0.56672 0.82224 0.0
C4483 C 0.51178 0.57027 0.81681 0.0
C4484 C 0.51515 0.57433 0.80004 0.0
C4485 C 0.50149 0.57538 0.78906 0.0
C4486 C 0.49057 0.56289 0.84008 0.0
C4487 C 0.53316 0.57762 0.7937 0.0
C4488 C 0.54534 0.58411 0.84681 0.0
C4489 C 0.55225 0.57011 0.85225 0.0
C4490 C 0.53201 0.5843 0.83545 0.0
C4491 C 0.52599 0.57023 0.82879 0.0
C4492 C 0.53331 0.55613 0.83387 0.0
C4493 C 0.54611 0.55619 0.84579 0.0
C4494 C 0.52423 0.5995 0.83074 0.0
C4495 C 0.52764 0.54099 0.82669 0.0
H4496 H 0.46834 0.56463 0.81504 0.0
H4497 H 0.50397 0.57883 0.77627 0.0
H4498 H 0.49692 0.55245 0.84495 0.0
H4499 H 0.49548 0.57278 0.84705 0.0
H4500 H 0.47665 0.56059 0.84231 0.0
H4501 H 0.53365 0.57935 0.78019 0.0
H4502 H 0.53925 0.5883 0.79865 0.0
H4503 H 0.54084 0.56779 0.79785 0.0
H4504 H 0.55035 0.59493 0.85153 0.0
H4505 H 0.55133 0.54534 0.85012 0.0
H4506 H 0.51029 0.598 0.83306 0.0
H4507 H 0.52607 0.60289 0.81754 0.0
H4508 H 0.52988 0.60923 0.83759 0.0
H4509 H 0.51414 0.5374 0.82996 0.0
H4510 H 0.5355 0.53134 0.83105 0.0
H4511 H 0.52839 0.54267 0.8132 0.0
C4512 C 0.64119 0.22318 0.047 0.0
C4513 C 0.65577 0.21545 0.04431 0.0
C4514 C 0.64237 0.23742 0.0542 0.0
C4515 C 0.65852 0.24417 0.05881 0.0
C4516 C 0.67331 0.23655 0.05596 0.0
C4517 C 0.67177 0.22227 0.04876 0.0
C4518 C 0.62627 0.24517 0.05706 0.0
C4519 C 0.69075 0.24339 0.06065 0.0
C4520 C 0.66131 0.28757 0.06532 0.0
C4521 C 0.65944 0.28709 0.08223 0.0
C4522 C 0.66154 0.2737 0.05754 0.0
C4523 C 0.65979 0.25903 0.06694 0.0
C4524 C 0.65842 0.25856 0.08411 0.0
C4525 C 0.6583 0.27262 0.09154 0.0
C4526 C 0.66307 0.27472 0.03923 0.0
C4527 C 0.65657 0.24321 0.09459 0.0
H4528 H 0.62879 0.21802 0.04361 0.0
H4529 H 0.68311 0.21641 0.04672 0.0
H4530 H 0.62466 0.24621 0.07027 0.0
H4531 H 0.6272 0.25721 0.05089 0.0
H4532 H 0.61474 0.23855 0.05254 0.0
H4533 H 0.70104 0.23624 0.05722 0.0
H4534 H 0.69327 0.25543 0.05467 0.0
H4535 H 0.69129 0.24426 0.07399 0.0
H4536 H 0.66201 0.29879 0.05816 0.0
H4537 H 0.65699 0.27235 0.10464 0.0
H4538 H 0.65114 0.2695 0.03396 0.0
H4539 H 0.67357 0.2679 0.03564 0.0
H4540 H 0.6655 0.287 0.03382 0.0
H4541 H 0.64451 0.23645 0.09154 0.0
H4542 H 0.65648 0.24489 0.10779 0.0
H4543 H 0.66716 0.23602 0.09213 0.0
C4544 C 0.95889 0.42815 0.32901 0.0
C4545 C 0.96164 0.41248 0.32724 0.0
C4546 C 0.94241 0.43268 0.33119 0.0
C4547 C 0.92832 0.42128 0.33166 0.0
C4548 C 0.93093 0.40551 0.32952 0.0
C4549 C 0.94756 0.40131 0.32727 0.0
C4550 C 0.94011 0.44962 0.3334 0.0
C4551 C 0.9162 0.39301 0.32999 0.0
C4552 C 0.88857 0.42871 0.35458 0.0
C4553 C 0.87765 0.433 0.34183 0.0
C4554 C 0.90513 0.42494 0.35144 0.0
C4555 C 0.91093 0.4257 0.33514 0.0
C4556 C 0.90002 0.43041 0.32222 0.0
C4557 C 0.88342 0.43393 0.32575 0.0
C4558 C 0.91624 0.41977 0.36555 0.0
C4559 C 0.90574 0.43137 0.3047 0.0
H4560 H 0.96967 0.43688 0.32895 0.0
H4561 H 0.94954 0.38918 0.32591 0.0
H4562 H 0.93072 0.45415 0.32448 0.0
H4563 H 0.93498 0.45057 0.34574 0.0
H4564 H 0.95225 0.45719 0.33188 0.0
H4565 H 0.92034 0.38132 0.32792 0.0
H4566 H 0.9097 0.39214 0.34197 0.0
H4567 H 0.90666 0.39619 0.32059 0.0
H4568 H 0.88393 0.42799 0.36699 0.0
H4569 H 0.87474 0.437 0.31596 0.0
H4570 H 0.92841 0.42732 0.3653 0.0
H4571 H 0.91945 0.40759 0.36448 0.0
H4572 H 0.90994 0.4202 0.3775 0.0
H4573 H 0.91774 0.43908 0.30297 0.0
H4574 H 0.896 0.43593 0.29615 0.0
H4575 H 0.90845 0.41958 0.30147 0.0
C4576 C 0.87852 0.72136 0.58427 0.0
C4577 C 0.89513 0.7287 0.58419 0.0
C4578 C 0.87482 0.70619 0.59187 0.0
C4579 C 0.88803 0.69822 0.59968 0.0
C4580 C 0.90491 0.70537 0.59923 0.0
C4581 C 0.90828 0.7205 0.59144 0.0
C4582 C 0.85669 0.69888 0.59193 0.0
C4583 C 0.91934 0.69725 0.60747 0.0
C4584 C 0.87643 0.66746 0.63465 0.0
C4585 C 0.87778 0.65359 0.62731 0.0
C4586 C 0.87963 0.68208 0.62576 0.0
C4587 C 0.88407 0.68275 0.60906 0.0
C4588 C 0.88502 0.66869 0.6015 0.0
C4589 C 0.88189 0.65424 0.61077 0.0
C4590 C 0.8785 0.69678 0.63428 0.0
C4591 C 0.88955 0.66893 0.58372 0.0
H4592 H 0.8683 0.72756 0.57862 0.0
H4593 H 0.92115 0.72606 0.59144 0.0
H4594 H 0.85622 0.68711 0.58736 0.0
H4595 H 0.85171 0.69729 0.60459 0.0
H4596 H 0.84812 0.70615 0.58435 0.0
H4597 H 0.93186 0.70409 0.60536 0.0
H4598 H 0.91696 0.69541 0.62078 0.0
H4599 H 0.92002 0.68554 0.60298 0.0
H4600 H 0.87302 0.66679 0.64743 0.0
H4601 H 0.88288 0.6434 0.60521 0.0
H4602 H 0.86907 0.70412 0.62805 0.0
H4603 H 0.891 0.70381 0.63367 0.0
H4604 H 0.87474 0.69421 0.64727 0.0
H4605 H 0.88068 0.67585 0.57617 0.0
H4606 H 0.88908 0.65697 0.57955 0.0
H4607 H 0.90257 0.67472 0.58154 0.0
C4608 C 0.48384 0.42033 0.64411 0.0
C4609 C 0.48612 0.42206 0.66077 0.0
C4610 C 0.4977 0.41824 0.63411 0.0
C4611 C 0.51421 0.41785 0.64094 0.0
C4612 C 0.51661 0.4197 0.65771 0.0
C4613 C 0.50255 0.42179 0.66741 0.0
C4614 C 0.49468 0.41635 0.61627 0.0
C4615 C 0.53402 0.41931 0.66546 0.0
C4616 C 0.54842 0.39759 0.62086 0.0
C4617 C 0.55871 0.41036 0.61363 0.0
C4618 C 0.53359 0.39983 0.62938 0.0
C4619 C 0.52902 0.41524 0.6307 0.0
C4620 C 0.53918 0.42817 0.62301 0.0
C4621 C 0.55396 0.42556 0.61458 0.0
C4622 C 0.52314 0.38574 0.63745 0.0
C4623 C 0.53471 0.44476 0.62409 0.0
H4624 H 0.47119 0.42054 0.63887 0.0
H4625 H 0.50446 0.42313 0.68026 0.0
H4626 H 0.50271 0.42544 0.60873 0.0
H4627 H 0.49845 0.40479 0.61332 0.0
H4628 H 0.48113 0.41725 0.61276 0.0
H4629 H 0.53376 0.42113 0.67863 0.0
H4630 H 0.53911 0.40787 0.66407 0.0
H4631 H 0.54301 0.42852 0.65922 0.0
H4632 H 0.55232 0.38588 0.62026 0.0
H4633 H 0.56199 0.43537 0.6089 0.0
H4634 H 0.50961 0.38592 0.63367 0.0
H4635 H 0.52354 0.38613 0.65086 0.0
H4636 H 0.52785 0.37454 0.63442 0.0
H4637 H 0.5214 0.44598 0.62002 0.0
H4638 H 0.54333 0.45342 0.6166 0.0
H4639 H 0.53552 0.44765 0.63694 0.0
C4640 C 0.87526 0.30248 0.89159 0.0
C4641 C 0.87928 0.29633 0.87701 0.0
C4642 C 0.86532 0.31529 0.89157 0.0
C4643 C 0.85925 0.32212 0.87663 0.0
C4644 C 0.86266 0.31555 0.86195 0.0
C4645 C 0.87261 0.30274 0.86232 0.0
C4646 C 0.86187 0.32191 0.90747 0.0
C4647 C 0.85613 0.32229 0.84579 0.0
C4648 C 0.82482 0.35073 0.87451 0.0
C4649 C 0.83463 0.36504 0.87162 0.0
C4650 C 0.83265 0.3366 0.8768 0.0
C4651 C 0.85066 0.33692 0.87608 0.0
C4652 C 0.86057 0.35148 0.87377 0.0
C4653 C 0.85241 0.36536 0.8717 0.0
C4654 C 0.82164 0.32135 0.87928 0.0
C4655 C 0.87977 0.35237 0.87275 0.0
H4656 H 0.88029 0.29757 0.903 0.0
H4657 H 0.87548 0.29796 0.85102 0.0
H4658 H 0.86869 0.33373 0.90761 0.0
H4659 H 0.84807 0.32325 0.90875 0.0
H4660 H 0.86608 0.3144 0.91815 0.0
H4661 H 0.86151 0.31704 0.83533 0.0
H4662 H 0.84205 0.32017 0.84547 0.0
H4663 H 0.85924 0.33515 0.84424 0.0
H4664 H 0.81105 0.35061 0.87433 0.0
H4665 H 0.85988 0.37653 0.86956 0.0
H4666 H 0.82637 0.31384 0.88968 0.0
H4667 H 0.82229 0.31487 0.86828 0.0
H4668 H 0.8081 0.32319 0.88153 0.0
H4669 H 0.88502 0.34663 0.88405 0.0
H4670 H 0.88558 0.36463 0.87095 0.0
H4671 H 0.88367 0.34596 0.86247 0.0
C4672 C 0.97196 0.62771 0.15614 0.0
C4673 C 0.9741 0.64409 0.15595 0.0
C4674 C 0.95665 0.62008 0.15101 0.0
C4675 C 0.94315 0.62904 0.14552 0.0
C4676 C 0.94503 0.64555 0.14571 0.0
C4677 C 0.96047 0.65287 0.15097 0.0
C4678 C 0.9551 0.60247 0.151 0.0
C4679 C 0.93094 0.65551 0.13985 0.0
C4680 C 0.9111 0.61278 0.11548 0.0
C4681 C 0.8969 0.60829 0.12546 0.0
C4682 C 0.92631 0.61935 0.1219 0.0
C4683 C 0.92737 0.62127 0.13877 0.0
C4684 C 0.91321 0.6162 0.14901 0.0
C4685 C 0.89809 0.60978 0.14219 0.0
C4686 C 0.94104 0.62468 0.11053 0.0
C4687 C 0.91385 0.61806 0.16703 0.0
H4688 H 0.98239 0.62082 0.16002 0.0
H4689 H 0.96199 0.66553 0.15076 0.0
H4690 H 0.94353 0.59736 0.15778 0.0
H4691 H 0.9537 0.5992 0.13831 0.0
H4692 H 0.96637 0.59713 0.15654 0.0
H4693 H 0.93405 0.66809 0.14156 0.0
H4694 H 0.92857 0.65434 0.12672 0.0
H4695 H 0.91892 0.6514 0.14643 0.0
H4696 H 0.91006 0.61152 0.10254 0.0
H4697 H 0.88697 0.60643 0.14979 0.0
H4698 H 0.95266 0.61917 0.11486 0.0
H4699 H 0.94387 0.63755 0.1104 0.0
H4700 H 0.93835 0.62177 0.09785 0.0
H4701 H 0.92503 0.61264 0.1726 0.0
H4702 H 0.90213 0.61267 0.17344 0.0
H4703 H 0.91538 0.63069 0.16902 0.0
C4704 C 0.67873 0.77682 0.46956 0.0
C4705 C 0.66252 0.78109 0.47343 0.0
C4706 C 0.68065 0.76285 0.46237 0.0
C4707 C 0.66602 0.75301 0.45882 0.0
C4708 C 0.64968 0.75703 0.46314 0.0
C4709 C 0.64814 0.77097 0.47044 0.0
C4710 C 0.69829 0.75888 0.45811 0.0
C4711 C 0.63374 0.74688 0.45949 0.0
C4712 C 0.66651 0.72721 0.42384 0.0
C4713 C 0.66687 0.71231 0.43208 0.0
C4714 C 0.66677 0.74061 0.43239 0.0
C4715 C 0.66758 0.73905 0.44962 0.0
C4716 C 0.66875 0.72405 0.45796 0.0
C4717 C 0.66831 0.71082 0.44907 0.0
C4718 C 0.66547 0.75635 0.423 0.0
C4719 C 0.66979 0.72191 0.4763 0.0
H4720 H 0.68992 0.78452 0.4719 0.0
H4721 H 0.63557 0.77416 0.47339 0.0
H4722 H 0.7003 0.74675 0.46304 0.0
H4723 H 0.69967 0.7594 0.44469 0.0
H4724 H 0.70842 0.76703 0.46291 0.0
H4725 H 0.62207 0.75126 0.46431 0.0
H4726 H 0.63234 0.7465 0.44613 0.0
H4727 H 0.63469 0.73469 0.46484 0.0
H4728 H 0.66556 0.72828 0.41068 0.0
H4729 H 0.66844 0.69924 0.45539 0.0
H4730 H 0.67605 0.7648 0.42639 0.0
H4731 H 0.65337 0.76111 0.42616 0.0
H4732 H 0.66581 0.75565 0.40962 0.0
H4733 H 0.67998 0.73018 0.48077 0.0
H4734 H 0.67235 0.70978 0.4808 0.0
H4735 H 0.6576 0.72459 0.48165 0.0
C4736 C 0.81523 0.52994 0.64353 0.0
C4737 C 0.81642 0.52153 0.65881 0.0
C4738 C 0.82308 0.5452 0.64055 0.0
C4739 C 0.83223 0.55226 0.6532 0.0
C4740 C 0.83347 0.54384 0.66865 0.0
C4741 C 0.82559 0.52856 0.67126 0.0
C4742 C 0.82155 0.5538 0.6239 0.0
C4743 C 0.84279 0.55104 0.68259 0.0
C4744 C 0.86568 0.58605 0.6426 0.0
C4745 C 0.85698 0.59892 0.64589 0.0
C4746 C 0.85773 0.57079 0.64477 0.0
C4747 C 0.84061 0.56843 0.65024 0.0
C4748 C 0.83169 0.58149 0.65335 0.0
C4749 C 0.84005 0.59661 0.65119 0.0
C4750 C 0.86775 0.55717 0.64158 0.0
C4751 C 0.8135 0.57945 0.65935 0.0
H4752 H 0.80818 0.52458 0.63384 0.0
H4753 H 0.82644 0.5222 0.68315 0.0
H4754 H 0.81541 0.56481 0.6249 0.0
H4755 H 0.83442 0.55709 0.61861 0.0
H4756 H 0.81399 0.54667 0.61537 0.0
H4757 H 0.84539 0.54213 0.69268 0.0
H4758 H 0.85503 0.5574 0.67843 0.0
H4759 H 0.83494 0.55969 0.68744 0.0
H4760 H 0.87885 0.58798 0.63863 0.0
H4761 H 0.83356 0.60664 0.65404 0.0
H4762 H 0.86144 0.55061 0.63189 0.0
H4763 H 0.86802 0.54894 0.65272 0.0
H4764 H 0.88108 0.56099 0.6378 0.0
H4765 H 0.80539 0.57263 0.65099 0.0
H4766 H 0.80812 0.59085 0.66036 0.0
H4767 H 0.81288 0.57274 0.67149 0.0
C4768 C 0.26555 0.97302 0.39126 0.0
C4769 C 0.26933 0.98338 0.37738 0.0
C4770 C 0.26946 0.95734 0.39189 0.0
C4771 C 0.27755 0.95198 0.37841 0.0
C4772 C 0.28145 0.96241 0.3644 0.0
C4773 C 0.27718 0.97793 0.36401 0.0
C4774 C 0.26491 0.9465 0.40693 0.0
C4775 C 0.29027 0.9572 0.34984 0.0
C4776 C 0.3036 0.91674 0.38247 0.0
C4777 C 0.29292 0.90572 0.37496 0.0
C4778 C 0.29844 0.93167 0.38443 0.0
C4779 C 0.28214 0.93552 0.37883 0.0
C4780 C 0.27094 0.92401 0.37211 0.0
C4781 C 0.27655 0.90925 0.37011 0.0
C4782 C 0.31084 0.94363 0.39149 0.0
C4783 C 0.25339 0.92757 0.36619 0.0
H4784 H 0.25942 0.97714 0.40161 0.0
H4785 H 0.28022 0.98588 0.35328 0.0
H4786 H 0.25648 0.93626 0.40361 0.0
H4787 H 0.27659 0.94193 0.4124 0.0
H4788 H 0.25835 0.9524 0.41625 0.0
H4789 H 0.29258 0.9668 0.33997 0.0
H4790 H 0.30268 0.95282 0.35358 0.0
H4791 H 0.28245 0.94738 0.34487 0.0
H4792 H 0.31634 0.91391 0.38597 0.0
H4793 H 0.26847 0.90063 0.36418 0.0
H4794 H 0.30462 0.94932 0.40116 0.0
H4795 H 0.31502 0.95295 0.38182 0.0
H4796 H 0.3223 0.93835 0.39669 0.0
H4797 H 0.24662 0.93321 0.37555 0.0
H4798 H 0.24554 0.91685 0.36318 0.0
H4799 H 0.25453 0.93591 0.35511 0.0
C4800 C 0.2655 0.03149 0.58971 0.0
C4801 C 0.25947 0.01987 0.60182 0.0
C4802 C 0.28007 0.04157 0.59226 0.0
C4803 C 0.28894 0.03988 0.60722 0.0
C4804 C 0.2834 0.02772 0.61919 0.0
C4805 C 0.26868 0.0179 0.61638 0.0
C4806 C 0.28554 0.05444 0.57921 0.0
C4807 C 0.29266 0.02541 0.63519 0.0
C4808 C 0.33343 0.06077 0.60859 0.0
C4809 C 0.33014 0.07443 0.61559 0.0
C4810 C 0.32022 0.04918 0.60615 0.0
C4811 C 0.30335 0.05148 0.61069 0.0
C4812 C 0.3001 0.0652 0.61806 0.0
C4813 C 0.31359 0.07648 0.6205 0.0
C4814 C 0.32423 0.03466 0.59842 0.0
C4815 C 0.2823 0.06815 0.623 0.0
H4816 H 0.25848 0.03312 0.57842 0.0
H4817 H 0.26419 0.00889 0.62577 0.0
H4818 H 0.28424 0.06601 0.58383 0.0
H4819 H 0.29916 0.05397 0.57609 0.0
H4820 H 0.27784 0.05365 0.56794 0.0
H4821 H 0.28761 0.01462 0.64262 0.0
H4822 H 0.30646 0.02475 0.63304 0.0
H4823 H 0.29138 0.0356 0.64232 0.0
H4824 H 0.34631 0.05935 0.60478 0.0
H4825 H 0.31124 0.08711 0.62594 0.0
H4826 H 0.31776 0.03429 0.58645 0.0
H4827 H 0.31932 0.02402 0.60614 0.0
H4828 H 0.33813 0.03422 0.59654 0.0
H4829 H 0.27395 0.06874 0.61211 0.0
H4830 H 0.28201 0.07924 0.62891 0.0
H4831 H 0.27684 0.05833 0.63154 0.0
C4832 C 0.18673 0.07309 0.91742 0.0
C4833 C 0.18146 0.0686 0.9021 0.0
C4834 C 0.18446 0.08815 0.92195 0.0
C4835 C 0.17681 0.09899 0.91088 0.0
C4836 C 0.17174 0.09462 0.8953 0.0
C4837 C 0.17412 0.0795 0.89111 0.0
C4838 C 0.18992 0.09236 0.9387 0.0
C4839 C 0.16358 0.10587 0.88313 0.0
C4840 C 0.15436 0.13233 0.92591 0.0
C4841 C 0.16633 0.1451 0.9222 0.0
C4842 C 0.15779 0.11717 0.92272 0.0
C4843 C 0.17362 0.11477 0.91566 0.0
C4844 C 0.18596 0.12763 0.91236 0.0
C4845 C 0.18213 0.14269 0.91567 0.0
C4846 C 0.14424 0.10382 0.92633 0.0
C4847 C 0.20291 0.1256 0.90473 0.0
H4848 H 0.19239 0.06475 0.926 0.0
H4849 H 0.17004 0.07617 0.87923 0.0
H4850 H 0.19892 0.10306 0.93772 0.0
H4851 H 0.17866 0.09503 0.94565 0.0
H4852 H 0.19615 0.08278 0.94571 0.0
H4853 H 0.16058 0.10077 0.87143 0.0
H4854 H 0.15161 0.10933 0.88825 0.0
H4855 H 0.17218 0.11672 0.88062 0.0
H4856 H 0.14213 0.13435 0.93092 0.0
H4857 H 0.19119 0.1527 0.91256 0.0
H4858 H 0.14964 0.094 0.93371 0.0
H4859 H 0.13956 0.09933 0.91477 0.0
H4860 H 0.1332 0.10744 0.93297 0.0
H4861 H 0.20931 0.1162 0.9118 0.0
H4862 H 0.21154 0.13655 0.904 0.0
H4863 H 0.20085 0.12196 0.89224 0.0
C4864 C 0.69513 0.42145 0.63526 0.0
C4865 C 0.70824 0.42296 0.62365 0.0
C4866 C 0.67808 0.41814 0.63081 0.0
C4867 C 0.67401 0.41623 0.61432 0.0
C4868 C 0.68719 0.4173 0.60258 0.0
C4869 C 0.70418 0.4207 0.60737 0.0
C4870 C 0.66438 0.41706 0.64371 0.0
C4871 C 0.68332 0.4152 0.58491 0.0
C4872 C 0.62989 0.39653 0.60737 0.0
C4873 C 0.62053 0.40949 0.60358 0.0
C4874 C 0.64751 0.39847 0.61013 0.0
C4875 C 0.65583 0.41378 0.60941 0.0
C4876 C 0.64645 0.42689 0.6052 0.0
C4877 C 0.6289 0.42456 0.60226 0.0
C4878 C 0.65708 0.38419 0.61435 0.0
C4879 C 0.65483 0.44339 0.60432 0.0
H4880 H 0.69812 0.42313 0.64787 0.0
H4881 H 0.71423 0.42179 0.59832 0.0
H4882 H 0.65558 0.42633 0.64081 0.0
H4883 H 0.65671 0.40562 0.6439 0.0
H4884 H 0.66971 0.41838 0.65606 0.0
H4885 H 0.69507 0.41537 0.57749 0.0
H4886 H 0.67556 0.40395 0.58381 0.0
H4887 H 0.67568 0.4247 0.57974 0.0
H4888 H 0.62331 0.3849 0.60853 0.0
H4889 H 0.62157 0.4345 0.59917 0.0
H4890 H 0.66139 0.38399 0.6272 0.0
H4891 H 0.66862 0.38461 0.60662 0.0
H4892 H 0.64911 0.37313 0.61277 0.0
H4893 H 0.65955 0.44606 0.61656 0.0
H4894 H 0.64594 0.45222 0.59998 0.0
H4895 H 0.666 0.44458 0.59605 0.0
C4896 C 0.67618 0.41769 0.10041 0.0
C4897 C 0.69287 0.42271 0.1047 0.0
C4898 C 0.67113 0.40169 0.09974 0.0
C4899 C 0.68326 0.39054 0.10277 0.0
C4900 C 0.70018 0.39559 0.10697 0.0
C4901 C 0.7047 0.41161 0.10819 0.0
C4902 C 0.6528 0.39672 0.09586 0.0
C4903 C 0.71361 0.38413 0.10983 0.0
C4904 C 0.66816 0.34777 0.11379 0.0
C4905 C 0.66784 0.34171 0.09855 0.0
C4906 C 0.67285 0.36367 0.11532 0.0
C4907 C 0.67828 0.37361 0.10138 0.0
C4908 C 0.67873 0.36739 0.08605 0.0
C4909 C 0.67315 0.35159 0.08477 0.0
C4910 C 0.67154 0.36991 0.13178 0.0
C4911 C 0.68489 0.37747 0.07096 0.0
H4912 H 0.667 0.42628 0.09784 0.0
H4913 H 0.71765 0.41551 0.11138 0.0
H4914 H 0.65211 0.39109 0.08426 0.0
H4915 H 0.64738 0.3879 0.10552 0.0
H4916 H 0.64474 0.40674 0.09477 0.0
H4917 H 0.72627 0.38999 0.11262 0.0
H4918 H 0.70978 0.37533 0.12009 0.0
H4919 H 0.71483 0.37769 0.09887 0.0
H4920 H 0.66442 0.34007 0.12451 0.0
H4921 H 0.67265 0.34701 0.07295 0.0
H4922 H 0.66308 0.37963 0.13099 0.0
H4923 H 0.68426 0.37474 0.13571 0.0
H4924 H 0.66642 0.36075 0.14126 0.0
H4925 H 0.67607 0.38669 0.06795 0.0
H4926 H 0.68574 0.37056 0.06027 0.0
H4927 H 0.69763 0.38346 0.07316 0.0
C4928 C 0.25824 0.99256 0.88816 0.0
C4929 C 0.25132 0.98635 0.90325 0.0
C4930 C 0.27137 0.98551 0.88087 0.0
C4931 C 0.27748 0.97178 0.88873 0.0
C4932 C 0.27079 0.96565 0.9041 0.0
C4933 C 0.2579 0.97308 0.91123 0.0
C4934 C 0.27843 0.99255 0.86462 0.0
C4935 C 0.27682 0.95093 0.9128 0.0
C4936 C 0.29679 0.94226 0.86434 0.0
C4937 C 0.31401 0.94446 0.86848 0.0
C4938 C 0.2848 0.95144 0.87042 0.0
C4939 C 0.2903 0.96329 0.88063 0.0
C4940 C 0.30788 0.96614 0.88405 0.0
C4941 C 0.31953 0.95657 0.87803 0.0
C4942 C 0.26618 0.94792 0.86656 0.0
C4943 C 0.3143 0.97882 0.89464 0.0
H4944 H 0.25327 0.00285 0.88196 0.0
H4945 H 0.25258 0.96817 0.92285 0.0
H4946 H 0.29253 0.9944 0.8652 0.0
H4947 H 0.27525 0.98435 0.85519 0.0
H4948 H 0.27327 0.00391 0.86073 0.0
H4949 H 0.27058 0.94788 0.92485 0.0
H4950 H 0.2741 0.94097 0.90523 0.0
H4951 H 0.29081 0.95234 0.91463 0.0
H4952 H 0.29268 0.933 0.85675 0.0
H4953 H 0.33289 0.95815 0.88124 0.0
H4954 H 0.26061 0.95872 0.86148 0.0
H4955 H 0.25911 0.94367 0.87793 0.0
H4956 H 0.26412 0.9389 0.85774 0.0
H4957 H 0.30897 0.99003 0.89048 0.0
H4958 H 0.32843 0.98071 0.89457 0.0
H4959 H 0.30997 0.97558 0.90736 0.0
C4960 C 0.1832 0.06094 0.36959 0.0
C4961 C 0.18935 0.05934 0.38561 0.0
C4962 C 0.16599 0.06301 0.36641 0.0
C4963 C 0.1546 0.06332 0.37957 0.0
C4964 C 0.16064 0.0615 0.39577 0.0
C4965 C 0.17798 0.0596 0.3986 0.0
C4966 C 0.16002 0.06506 0.34897 0.0
C4967 C 0.14882 0.0617 0.4101 0.0
C4968 C 0.1134 0.0827 0.37193 0.0
C4969 C 0.10176 0.06971 0.37035 0.0
C4970 C 0.13068 0.08081 0.37494 0.0
C4971 C 0.13634 0.06555 0.37636 0.0
C4972 C 0.12455 0.05241 0.37467 0.0
C4973 C 0.10737 0.05468 0.3716 0.0
C4974 C 0.14286 0.09512 0.37657 0.0
C4975 C 0.13005 0.03595 0.37633 0.0
H4976 H 0.19191 0.06083 0.35948 0.0
H4977 H 0.18261 0.05836 0.41101 0.0
H4978 H 0.1498 0.05579 0.34674 0.0
H4979 H 0.1545 0.07649 0.34663 0.0
H4980 H 0.1705 0.06457 0.34012 0.0
H4981 H 0.15541 0.05964 0.42195 0.0
H4982 H 0.14332 0.07318 0.40972 0.0
H4983 H 0.13804 0.0526 0.40944 0.0
H4984 H 0.10888 0.0943 0.37088 0.0
H4985 H 0.09817 0.04472 0.37049 0.0
H4986 H 0.15277 0.096 0.36695 0.0
H4987 H 0.14949 0.0941 0.38847 0.0
H4988 H 0.1363 0.1061 0.37558 0.0
H4989 H 0.14002 0.03478 0.36717 0.0
H4990 H 0.11928 0.02702 0.3747 0.0
H4991 H 0.13573 0.03343 0.38853 0.0
C4992 C 0.42398 0.21007 0.46639 0.0
C4993 C 0.44026 0.21109 0.47343 0.0
C4994 C 0.42063 0.2018 0.45265 0.0
C4995 C 0.43392 0.1945 0.44567 0.0
C4996 C 0.45068 0.1966 0.45187 0.0
C4997 C 0.45365 0.20482 0.46573 0.0
C4998 C 0.40257 0.19985 0.44641 0.0
C4999 C 0.46525 0.18927 0.44456 0.0
C5000 C 0.4194 0.1565 0.42792 0.0
C5001 C 0.41813 0.16132 0.41135 0.0
C5002 C 0.42504 0.16711 0.43912 0.0
C5003 C 0.42973 0.18294 0.43354 0.0
C5004 C 0.42928 0.18771 0.41665 0.0
C5005 C 0.42339 0.1768 0.40572 0.0
C5006 C 0.42532 0.1615 0.457 0.0
C5007 C 0.43439 0.20441 0.41022 0.0
H5008 H 0.41357 0.21499 0.47215 0.0
H5009 H 0.46632 0.20571 0.47095 0.0
H5010 H 0.40229 0.20237 0.43299 0.0
H5011 H 0.39731 0.18753 0.44925 0.0
H5012 H 0.39413 0.20762 0.45198 0.0
H5013 H 0.47782 0.19409 0.44895 0.0
H5014 H 0.46396 0.17644 0.44792 0.0
H5015 H 0.465 0.19111 0.43107 0.0
H5016 H 0.41552 0.14443 0.43213 0.0
H5017 H 0.42234 0.18045 0.39286 0.0
H5018 H 0.41618 0.16769 0.46372 0.0
H5019 H 0.43816 0.16424 0.46214 0.0
H5020 H 0.42189 0.14869 0.45923 0.0
H5021 H 0.42478 0.21211 0.41397 0.0
H5022 H 0.43538 0.20576 0.39673 0.0
H5023 H 0.4468 0.20856 0.41545 0.0
C5024 C 0.55139 0.60866 0.25396 0.0
C5025 C 0.55662 0.59964 0.26782 0.0
C5026 C 0.55713 0.6062 0.23836 0.0
C5027 C 0.56854 0.5946 0.23662 0.0
C5028 C 0.57388 0.58548 0.25056 0.0
C5029 C 0.56775 0.58803 0.26598 0.0
C5030 C 0.55098 0.61601 0.22376 0.0
C5031 C 0.58621 0.57314 0.24922 0.0
C5032 C 0.5734 0.57829 0.19567 0.0
C5033 C 0.58824 0.5869 0.18965 0.0
C5034 C 0.56664 0.58085 0.21083 0.0
C5035 C 0.57514 0.59215 0.22023 0.0
C5036 C 0.59016 0.6009 0.21411 0.0
C5037 C 0.59648 0.59821 0.19882 0.0
C5038 C 0.5505 0.57144 0.21684 0.0
C5039 C 0.59972 0.61289 0.22383 0.0
H5040 H 0.54272 0.61759 0.25528 0.0
H5041 H 0.5719 0.58106 0.27664 0.0
H5042 H 0.56197 0.62288 0.21746 0.0
H5043 H 0.54482 0.60832 0.21492 0.0
H5044 H 0.54174 0.62425 0.22713 0.0
H5045 H 0.58911 0.56705 0.26124 0.0
H5046 H 0.58089 0.56429 0.24115 0.0
H5047 H 0.59831 0.57859 0.24363 0.0
H5048 H 0.56711 0.56959 0.18843 0.0
H5049 H 0.60807 0.6047 0.19411 0.0
H5050 H 0.54075 0.57941 0.21961 0.0
H5051 H 0.55306 0.56427 0.2283 0.0
H5052 H 0.54514 0.56352 0.2078 0.0
H5053 H 0.59122 0.62192 0.22668 0.0
H5054 H 0.6111 0.61879 0.21725 0.0
H5055 H 0.6039 0.60716 0.23559 0.0
C5056 C 0.1084 0.82524 0.95124 0.0
C5057 C 0.12228 0.82971 0.96104 0.0
C5058 C 0.1066 0.83238 0.93541 0.0
C5059 C 0.11894 0.84434 0.92922 0.0
C5060 C 0.13329 0.84854 0.93882 0.0
C5061 C 0.13482 0.84115 0.9546 0.0
C5062 C 0.09118 0.82748 0.92551 0.0
C5063 C 0.14669 0.86127 0.93266 0.0
C5064 C 0.11919 0.85579 0.88356 0.0
C5065 C 0.10955 0.86878 0.88256 0.0
C5066 C 0.12257 0.8478 0.89869 0.0
C5067 C 0.11625 0.85305 0.91311 0.0
C5068 C 0.10683 0.86642 0.91213 0.0
C5069 C 0.10354 0.87407 0.89684 0.0
C5070 C 0.13266 0.83361 0.89923 0.0
C5071 C 0.09995 0.87248 0.9272 0.0
H5072 H 0.09869 0.81637 0.95606 0.0
H5073 H 0.1456 0.84468 0.96206 0.0
H5074 H 0.08308 0.83741 0.92338 0.0
H5075 H 0.09518 0.82438 0.91341 0.0
H5076 H 0.08335 0.81731 0.93164 0.0
H5077 H 0.15763 0.86244 0.94117 0.0
H5078 H 0.15153 0.85883 0.92062 0.0
H5079 H 0.14098 0.87265 0.93097 0.0
H5080 H 0.12403 0.85189 0.87247 0.0
H5081 H 0.09596 0.88404 0.89598 0.0
H5082 H 0.12473 0.82313 0.90453 0.0
H5083 H 0.14395 0.83524 0.90721 0.0
H5084 H 0.13705 0.8313 0.88696 0.0
H5085 H 0.09068 0.86347 0.93337 0.0
H5086 H 0.09353 0.8834 0.92438 0.0
H5087 H 0.11044 0.87483 0.93592 0.0
C5088 C 0.91509 0.35966 0.68416 0.0
C5089 C 0.91616 0.37449 0.6901 0.0
C5090 C 0.90677 0.357 0.66945 0.0
C5091 C 0.89927 0.36945 0.66049 0.0
C5092 C 0.90031 0.38446 0.66639 0.0
C5093 C 0.90881 0.38682 0.6811 0.0
C5094 C 0.90596 0.34084 0.6635 0.0
C5095 C 0.89234 0.39798 0.65721 0.0
C5096 C 0.89096 0.36552 0.61559 0.0
C5097 C 0.87372 0.36003 0.61573 0.0
C5098 C 0.89943 0.36879 0.63007 0.0
C5099 C 0.89031 0.36669 0.64497 0.0
C5100 C 0.87274 0.36152 0.64508 0.0
C5101 C 0.86469 0.35815 0.63043 0.0
C5102 C 0.91815 0.37432 0.62945 0.0
C5103 C 0.86252 0.35935 0.66067 0.0
H5104 H 0.92074 0.35008 0.69103 0.0
H5105 H 0.90952 0.3983 0.68564 0.0
H5106 H 0.89247 0.33618 0.66236 0.0
H5107 H 0.91182 0.34145 0.65123 0.0
H5108 H 0.9126 0.33247 0.67181 0.0
H5109 H 0.89431 0.40893 0.66343 0.0
H5110 H 0.89783 0.40019 0.64477 0.0
H5111 H 0.87845 0.39502 0.65583 0.0
H5112 H 0.89777 0.36728 0.60411 0.0
H5113 H 0.85135 0.35384 0.63045 0.0
H5114 H 0.92549 0.3659 0.63697 0.0
H5115 H 0.92028 0.38578 0.63466 0.0
H5116 H 0.9233 0.37557 0.61685 0.0
H5117 H 0.86776 0.35024 0.66917 0.0
H5118 H 0.84884 0.35585 0.65854 0.0
H5119 H 0.8635 0.37039 0.66676 0.0
C5120 C 0.37921 0.8098 0.9975 0.0
C5121 C 0.39329 0.80351 0.99104 0.0
C5122 C 0.37908 0.81349 0.01371 0.0
C5123 C 0.39336 0.81081 0.02374 0.0
C5124 C 0.40731 0.80382 0.01753 0.0
C5125 C 0.40712 0.80025 1.00122 0.0
C5126 C 0.36392 0.82089 0.01989 0.0
C5127 C 0.42271 0.80069 0.02792 0.0
C5128 C 0.39914 0.83795 0.05743 0.0
C5129 C 0.39156 0.82862 0.07059 0.0
C5130 C 0.40049 0.83205 0.04224 0.0
C5131 C 0.39408 0.81642 0.04028 0.0
C5132 C 0.38705 0.80676 0.05381 0.0
C5133 C 0.38583 0.81303 0.06887 0.0
C5134 C 0.40805 0.84275 0.02813 0.0
C5135 C 0.38015 0.79005 0.05221 0.0
H5136 H 0.36841 0.81225 0.98977 0.0
H5137 H 0.41803 0.79534 0.99633 0.0
H5138 H 0.35896 0.81427 0.03128 0.0
H5139 H 0.36789 0.83301 0.0228 0.0
H5140 H 0.35341 0.82133 0.01086 0.0
H5141 H 0.43173 0.79385 0.02181 0.0
H5142 H 0.42952 0.81198 0.03068 0.0
H5143 H 0.41874 0.79422 0.03971 0.0
H5144 H 0.40348 0.85002 0.05899 0.0
H5145 H 0.37993 0.80597 0.0792 0.0
H5146 H 0.39803 0.84501 0.0189 0.0
H5147 H 0.41817 0.83709 0.02212 0.0
H5148 H 0.41356 0.85416 0.03198 0.0
H5149 H 0.36856 0.78994 0.0445 0.0
H5150 H 0.3768 0.78364 0.06422 0.0
H5151 H 0.38962 0.78369 0.04612 0.0
C5152 C 0.9199 0.59418 0.79819 0.0
C5153 C 0.91285 0.57861 0.80054 0.0
C5154 C 0.91755 0.60487 0.80972 0.0
C5155 C 0.90791 0.59988 0.82395 0.0
C5156 C 0.90062 0.58423 0.82635 0.0
C5157 C 0.90318 0.57378 0.81463 0.0
C5158 C 0.92547 0.62149 0.80672 0.0
C5159 C 0.89019 0.57851 0.84136 0.0
C5160 C 0.91478 0.62273 0.86117 0.0
C5161 C 0.90078 0.63173 0.86027 0.0
C5162 C 0.91736 0.61241 0.84933 0.0
C5163 C 0.90555 0.61102 0.8364 0.0
C5164 C 0.89138 0.62014 0.83548 0.0
C5165 C 0.88918 0.6304 0.84745 0.0
C5166 C 0.93256 0.60281 0.85079 0.0
C5167 C 0.87845 0.61895 0.82195 0.0
H5168 H 0.92737 0.59804 0.78735 0.0
H5169 H 0.89766 0.56178 0.81655 0.0
H5170 H 0.91545 0.62981 0.80672 0.0
H5171 H 0.93447 0.6242 0.81669 0.0
H5172 H 0.93245 0.62357 0.79496 0.0
H5173 H 0.88524 0.56602 0.84133 0.0
H5174 H 0.89806 0.57986 0.85244 0.0
H5175 H 0.87923 0.58568 0.84227 0.0
H5176 H 0.92348 0.62355 0.87135 0.0
H5177 H 0.87833 0.63737 0.84692 0.0
H5178 H 0.94039 0.60497 0.83955 0.0
H5179 H 0.9282 0.59016 0.85216 0.0
H5180 H 0.94075 0.60555 0.86136 0.0
H5181 H 0.88487 0.62158 0.80996 0.0
H5182 H 0.86834 0.62709 0.82283 0.0
H5183 H 0.87234 0.60681 0.82232 0.0
C5184 C 0.1047 0.13466 0.5602 0.0
C5185 C 0.11924 0.13226 0.55132 0.0
C5186 C 0.1018 0.12736 0.57597 0.0
C5187 C 0.11369 0.11732 0.58304 0.0
C5188 C 0.12837 0.11477 0.57414 0.0
C5189 C 0.131 0.1223 0.55841 0.0
C5190 C 0.08602 0.13041 0.58508 0.0
C5191 C 0.14128 0.10406 0.58124 0.0
C5192 C 0.11309 0.11022 0.62921 0.0
C5193 C 0.10304 0.09598 0.63158 0.0
C5194 C 0.11693 0.11718 0.61347 0.0
C5195 C 0.11073 0.10958 0.59979 0.0
C5196 C 0.10106 0.09489 0.60216 0.0
C5197 C 0.09726 0.08832 0.61806 0.0
C5198 C 0.12732 0.13281 0.61147 0.0
C5199 C 0.09436 0.08632 0.58794 0.0
H5200 H 0.09555 0.14234 0.55485 0.0
H5201 H 0.14226 0.12034 0.55163 0.0
H5202 H 0.07819 0.11923 0.58829 0.0
H5203 H 0.08967 0.13548 0.59665 0.0
H5204 H 0.07805 0.13857 0.57789 0.0
H5205 H 0.15194 0.10319 0.57269 0.0
H5206 H 0.14662 0.10839 0.59264 0.0
H5207 H 0.13502 0.09214 0.58445 0.0
H5208 H 0.11781 0.11595 0.63973 0.0
H5209 H 0.08943 0.07733 0.61996 0.0
H5210 H 0.11961 0.14173 0.60519 0.0
H5211 H 0.13865 0.13203 0.60374 0.0
H5212 H 0.13168 0.1369 0.62333 0.0
H5213 H 0.08508 0.09329 0.58099 0.0
H5214 H 0.08799 0.07458 0.59186 0.0
H5215 H 0.10492 0.08486 0.57951 0.0
C5216 C 0.55038 0.3958 0.23986 0.0
C5217 C 0.54565 0.38045 0.23607 0.0
C5218 C 0.55704 0.3988 0.25521 0.0
C5219 C 0.55917 0.38614 0.26703 0.0
C5220 C 0.55436 0.37062 0.26331 0.0
C5221 C 0.54758 0.36797 0.2479 0.0
C5222 C 0.56187 0.41553 0.25876 0.0
C5223 C 0.55659 0.35681 0.27555 0.0
C5224 C 0.59173 0.39383 0.30019 0.0
C5225 C 0.58127 0.39646 0.31312 0.0
C5226 C 0.58468 0.39009 0.28521 0.0
C5227 C 0.56675 0.38917 0.28315 0.0
C5228 C 0.55615 0.39168 0.29635 0.0
C5229 C 0.56359 0.39527 0.31124 0.0
C5230 C 0.59641 0.38738 0.27151 0.0
C5231 C 0.53702 0.39094 0.29461 0.0
H5232 H 0.54887 0.40552 0.23081 0.0
H5233 H 0.544 0.35607 0.24506 0.0
H5234 H 0.55495 0.41826 0.2697 0.0
H5235 H 0.5757 0.41713 0.26146 0.0
H5236 H 0.55898 0.42408 0.24842 0.0
H5237 H 0.55203 0.34549 0.27085 0.0
H5238 H 0.57025 0.35648 0.27883 0.0
H5239 H 0.54952 0.35806 0.2869 0.0
H5240 H 0.60543 0.39486 0.30183 0.0
H5241 H 0.55566 0.39747 0.32135 0.0
H5242 H 0.59514 0.39641 0.2612 0.0
H5243 H 0.59279 0.37581 0.26693 0.0
H5244 H 0.60998 0.38781 0.27534 0.0
H5245 H 0.53351 0.40009 0.28513 0.0
H5246 H 0.53058 0.39269 0.30618 0.0
H5247 H 0.53209 0.37945 0.29057 0.0
C5248 C 0.48023 0.41004 0.16487 0.0
C5249 C 0.48847 0.39931 0.15652 0.0
C5250 C 0.46363 0.41371 0.16063 0.0
C5251 C 0.45513 0.40651 0.14771 0.0
C5252 C 0.46329 0.39553 0.13937 0.0
C5253 C 0.47983 0.39205 0.14389 0.0
C5254 C 0.45523 0.42537 0.16988 0.0
C5255 C 0.45463 0.38761 0.12551 0.0
C5256 C 0.40704 0.40461 0.14313 0.0
C5257 C 0.4052 0.41641 0.13059 0.0
C5258 C 0.42319 0.40159 0.14926 0.0
C5259 C 0.43781 0.41061 0.14261 0.0
C5260 C 0.43591 0.42291 0.13029 0.0
C5261 C 0.41958 0.42566 0.12443 0.0
C5262 C 0.42466 0.38838 0.16238 0.0
C5263 C 0.45117 0.43271 0.12281 0.0
H5264 H 0.48677 0.41567 0.17467 0.0
H5265 H 0.48607 0.38372 0.13737 0.0
H5266 H 0.45236 0.43559 0.16145 0.0
H5267 H 0.44293 0.41998 0.17509 0.0
H5268 H 0.46337 0.42961 0.17991 0.0
H5269 H 0.46261 0.37914 0.12045 0.0
H5270 H 0.44235 0.38128 0.12969 0.0
H5271 H 0.45168 0.39653 0.11558 0.0
H5272 H 0.3958 0.39752 0.14782 0.0
H5273 H 0.41805 0.43462 0.11455 0.0
H5274 H 0.43257 0.3925 0.17259 0.0
H5275 H 0.43111 0.37886 0.1574 0.0
H5276 H 0.41202 0.38344 0.16724 0.0
H5277 H 0.4593 0.43766 0.13245 0.0
H5278 H 0.44744 0.44248 0.11416 0.0
H5279 H 0.45904 0.42523 0.11618 0.0
C5280 C 0.37473 0.72921 0.91727 0.0
C5281 C 0.36307 0.73695 0.92573 0.0
C5282 C 0.36996 0.71471 0.91128 0.0
C5283 C 0.35311 0.70778 0.91379 0.0
C5284 C 0.34133 0.71542 0.92249 0.0
C5285 C 0.34645 0.72993 0.92836 0.0
C5286 C 0.3829 0.7069 0.90208 0.0
C5287 C 0.32326 0.70838 0.92539 0.0
C5288 C 0.33799 0.6788 0.88363 0.0
C5289 C 0.34072 0.66451 0.8923 0.0
C5290 C 0.34143 0.69297 0.89069 0.0
C5291 C 0.34776 0.69277 0.90681 0.0
C5292 C 0.34993 0.67827 0.91583 0.0
C5293 C 0.34637 0.66427 0.90843 0.0
C5294 C 0.33887 0.70816 0.88068 0.0
C5295 C 0.35665 0.67758 0.93303 0.0
H5296 H 0.3876 0.73453 0.91521 0.0
H5297 H 0.33737 0.73581 0.93491 0.0
H5298 H 0.38434 0.69497 0.90792 0.0
H5299 H 0.37841 0.70561 0.88945 0.0
H5300 H 0.39559 0.71364 0.90154 0.0
H5301 H 0.31583 0.71555 0.93284 0.0
H5302 H 0.31669 0.70726 0.91356 0.0
H5303 H 0.32327 0.69642 0.93165 0.0
H5304 H 0.33352 0.67883 0.87117 0.0
H5305 H 0.3486 0.65315 0.915 0.0
H5306 H 0.35135 0.71501 0.87848 0.0
H5307 H 0.33078 0.71536 0.8874 0.0
H5308 H 0.33284 0.70622 0.86873 0.0
H5309 H 0.37 0.68288 0.93302 0.0
H5310 H 0.35635 0.66538 0.93878 0.0
H5311 H 0.34908 0.68448 0.94062 0.0
C5312 C 0.02083 0.52036 0.71762 0.0
C5313 C 0.00611 0.51732 0.70841 0.0
C5314 C 0.03659 0.52498 0.71 0.0
C5315 C 0.03748 0.52705 0.69278 0.0
C5316 C 0.02262 0.52398 0.68344 0.0
C5317 C 0.00716 0.51893 0.69137 0.0
C5318 C 0.05224 0.52774 0.72036 0.0
C5319 C 0.02297 0.52642 0.66507 0.0
C5320 C 0.07365 0.55445 0.6736 0.0
C5321 C 0.08433 0.54388 0.66797 0.0
C5322 C 0.05831 0.54913 0.68162 0.0
C5323 C 0.05383 0.53283 0.68451 0.0
C5324 C 0.0648 0.52209 0.67919 0.0
C5325 C 0.0798 0.52777 0.67075 0.0
C5326 C 0.04679 0.56097 0.6868 0.0
C5327 C 0.06065 0.50463 0.68234 0.0
H5328 H 0.02006 0.51903 0.7308 0.0
H5329 H -0.00425 0.51672 0.68422 0.0
H5330 H 0.06243 0.52065 0.7166 0.0
H5331 H 0.05725 0.54022 0.71854 0.0
H5332 H 0.04959 0.52472 0.73353 0.0
H5333 H 0.01029 0.52353 0.6596 0.0
H5334 H 0.02723 0.53881 0.66116 0.0
H5335 H 0.03224 0.51905 0.66012 0.0
H5336 H 0.07731 0.5669 0.67164 0.0
H5337 H 0.08796 0.51962 0.66618 0.0
H5338 H 0.04496 0.55945 0.70019 0.0
H5339 H 0.03405 0.55905 0.68115 0.0
H5340 H 0.05198 0.57322 0.68331 0.0
H5341 H 0.05835 0.50144 0.69553 0.0
H5342 H 0.07103 0.49789 0.67829 0.0
H5343 H 0.04878 0.50101 0.67585 0.0
C5344 C 0.16887 0.23283 0.46647 0.0
C5345 C 0.15383 0.22285 0.46849 0.0
C5346 C 0.16838 0.24878 0.46118 0.0
C5347 C 0.15249 0.25487 0.45769 0.0
C5348 C 0.13724 0.24499 0.46029 0.0
C5349 C 0.13809 0.22914 0.46573 0.0
C5350 C 0.1849 0.25898 0.45876 0.0
C5351 C 0.12003 0.251 0.45665 0.0
C5352 C 0.14766 0.2987 0.45247 0.0
C5353 C 0.14743 0.3015 0.43548 0.0
C5354 C 0.14989 0.28367 0.45995 0.0
C5355 C 0.15176 0.27119 0.45015 0.0
C5356 C 0.15202 0.27414 0.43297 0.0
C5357 C 0.14994 0.28929 0.42587 0.0
C5358 C 0.14971 0.28104 0.47829 0.0
C5359 C 0.15394 0.2612 0.42205 0.0
H5360 H 0.18109 0.22811 0.46867 0.0
H5361 H 0.12639 0.22156 0.46727 0.0
H5362 H 0.18693 0.26248 0.44559 0.0
H5363 H 0.18435 0.26987 0.46492 0.0
H5364 H 0.19604 0.25289 0.46349 0.0
H5365 H 0.10936 0.24208 0.46022 0.0
H5366 H 0.11856 0.26156 0.46315 0.0
H5367 H 0.11902 0.25451 0.44342 0.0
H5368 H 0.14559 0.30817 0.45986 0.0
H5369 H 0.14994 0.29159 0.41273 0.0
H5370 H 0.16098 0.27499 0.48265 0.0
H5371 H 0.13821 0.27335 0.48234 0.0
H5372 H 0.14965 0.29219 0.48413 0.0
H5373 H 0.1657 0.25537 0.42522 0.0
H5374 H 0.1545 0.26557 0.40896 0.0
H5375 H 0.14302 0.25218 0.42393 0.0
C5376 C 0.45686 0.61373 0.33988 0.0
C5377 C 0.46725 0.62297 0.34982 0.0
C5378 C 0.43928 0.61081 0.34287 0.0
C5379 C 0.43195 0.6172 0.35616 0.0
C5380 C 0.4423 0.62677 0.36604 0.0
C5381 C 0.4598 0.62956 0.36273 0.0
C5382 C 0.42859 0.60067 0.33199 0.0
C5383 C 0.43495 0.63381 0.38032 0.0
C5384 C 0.38419 0.62008 0.35893 0.0
C5385 C 0.37932 0.60721 0.37 0.0
C5386 C 0.40124 0.62331 0.35398 0.0
C5387 C 0.41362 0.61336 0.36026 0.0
C5388 C 0.4086 0.60012 0.37116 0.0
C5389 C 0.39147 0.59721 0.3759 0.0
C5390 C 0.40608 0.63756 0.34238 0.0
C5391 C 0.42141 0.58933 0.37826 0.0
H5392 H 0.46249 0.60866 0.32983 0.0
H5393 H 0.46769 0.63675 0.37046 0.0
H5394 H 0.42318 0.58989 0.33918 0.0
H5395 H 0.41771 0.60696 0.32701 0.0
H5396 H 0.43604 0.59723 0.32169 0.0
H5397 H 0.44462 0.64134 0.38655 0.0
H5398 H 0.42439 0.64093 0.37618 0.0
H5399 H 0.42952 0.62434 0.3893 0.0
H5400 H 0.37465 0.62773 0.3544 0.0
H5401 H 0.3876 0.58739 0.38462 0.0
H5402 H 0.41295 0.63415 0.33172 0.0
H5403 H 0.41485 0.64596 0.34851 0.0
H5404 H 0.39479 0.64363 0.338 0.0
H5405 H 0.42863 0.5849 0.36838 0.0
H5406 H 0.4153 0.57916 0.38598 0.0
H5407 H 0.43076 0.59589 0.38579 0.0
C5408 C 0.16171 0.76398 0.05804 0.0
C5409 C 0.15999 0.76861 0.04144 0.0
C5410 C 0.16067 0.74805 0.06375 0.0
C5411 C 0.15863 0.73653 0.05248 0.0
C5412 C 0.15681 0.74119 0.03568 0.0
C5413 C 0.15716 0.7572 0.0304 0.0
C5414 C 0.16197 0.74356 0.08182 0.0
C5415 C 0.15522 0.7293 0.02322 0.0
C5416 C 0.17622 0.69777 0.06622 0.0
C5417 C 0.16134 0.68794 0.06964 0.0
C5418 C 0.17548 0.71345 0.06014 0.0
C5419 C 0.15945 0.71968 0.05818 0.0
C5420 C 0.14435 0.70987 0.06188 0.0
C5421 C 0.14547 0.69399 0.06713 0.0
C5422 C 0.19188 0.72335 0.05588 0.0
C5423 C 0.12704 0.71618 0.0606 0.0
H5424 H 0.16373 0.77284 0.06658 0.0
H5425 H 0.15594 0.76083 0.01754 0.0
H5426 H 0.15138 0.73475 0.08588 0.0
H5427 H 0.17406 0.73813 0.08452 0.0
H5428 H 0.16162 0.75382 0.08906 0.0
H5429 H 0.15366 0.73483 0.01066 0.0
H5430 H 0.16677 0.72273 0.02357 0.0
H5431 H 0.14416 0.72066 0.02612 0.0
H5432 H 0.18849 0.69318 0.06841 0.0
H5433 H 0.13393 0.68635 0.06944 0.0
H5434 H 0.19379 0.73283 0.06415 0.0
H5435 H 0.19123 0.72899 0.04328 0.0
H5436 H 0.20315 0.71638 0.05684 0.0
H5437 H 0.12677 0.72639 0.06792 0.0
H5438 H 0.11665 0.70724 0.06492 0.0
H5439 H 0.12445 0.72034 0.04779 0.0
C5440 C 0.0135 0.34797 0.78513 0.0
C5441 C 0.00568 0.35975 0.77572 0.0
C5442 C 0.02927 0.35119 0.79266 0.0
C5443 C 0.03742 0.36655 0.79073 0.0
C5444 C 0.03011 0.37825 0.78047 0.0
C5445 C 0.01432 0.37471 0.77306 0.0
C5446 C 0.03672 0.33836 0.80343 0.0
C5447 C 0.03848 0.39475 0.77804 0.0
C5448 C 0.06469 0.37918 0.82606 0.0
C5449 C 0.08112 0.37768 0.82041 0.0
C5450 C 0.05039 0.37575 0.81642 0.0
C5451 C 0.05263 0.37072 0.80073 0.0
C5452 C 0.06927 0.36939 0.79488 0.0
C5453 C 0.08337 0.3729 0.80484 0.0
C5454 C 0.03287 0.37737 0.8231 0.0
C5455 C 0.07215 0.36405 0.77824 0.0
H5456 H 0.00699 0.33634 0.78715 0.0
H5457 H 0.00844 0.38387 0.76573 0.0
H5458 H 0.05031 0.33768 0.80032 0.0
H5459 H 0.03622 0.34106 0.81632 0.0
H5460 H 0.02974 0.32672 0.80235 0.0
H5461 H 0.03218 0.40199 0.76832 0.0
H5462 H 0.03789 0.40043 0.78957 0.0
H5463 H 0.05213 0.39464 0.77486 0.0
H5464 H 0.06311 0.38306 0.83806 0.0
H5465 H 0.09615 0.37167 0.80062 0.0
H5466 H 0.02524 0.36587 0.82381 0.0
H5467 H 0.02607 0.38561 0.81481 0.0
H5468 H 0.03338 0.38168 0.83542 0.0
H5469 H 0.06616 0.35197 0.77762 0.0
H5470 H 0.08591 0.3642 0.77527 0.0
H5471 H 0.06601 0.37168 0.76879 0.0
C5472 C 0.37817 0.28725 0.54648 0.0
C5473 C 0.39465 0.28221 0.54748 0.0
C5474 C 0.37391 0.30007 0.5546 0.0
C5475 C 0.38644 0.30804 0.56392 0.0
C5476 C 0.40321 0.30324 0.56466 0.0
C5477 C 0.4071 0.29038 0.55645 0.0
C5478 C 0.3559 0.30485 0.55353 0.0
C5479 C 0.41694 0.31149 0.57442 0.0
C5480 C 0.37999 0.34876 0.57607 0.0
C5481 C 0.37467 0.34543 0.59227 0.0
C5482 C 0.38363 0.33669 0.56657 0.0
C5483 C 0.38188 0.32096 0.57349 0.0
C5484 C 0.3762 0.31757 0.58979 0.0
C5485 C 0.37266 0.32987 0.59898 0.0
C5486 C 0.38969 0.34078 0.54926 0.0
C5487 C 0.37409 0.30096 0.59761 0.0
H5488 H 0.36847 0.28103 0.53957 0.0
H5489 H 0.41989 0.2866 0.55725 0.0
H5490 H 0.34994 0.30325 0.56579 0.0
H5491 H 0.35595 0.31744 0.54924 0.0
H5492 H 0.34786 0.29791 0.54517 0.0
H5493 H 0.42951 0.30675 0.57318 0.0
H5494 H 0.41826 0.3242 0.57046 0.0
H5495 H 0.41334 0.31023 0.58749 0.0
H5496 H 0.38164 0.36086 0.57102 0.0
H5497 H 0.3684 0.3274 0.61148 0.0
H5498 H 0.38141 0.33423 0.54079 0.0
H5499 H 0.40279 0.33725 0.54794 0.0
H5500 H 0.38972 0.35351 0.54551 0.0
H5501 H 0.36525 0.29365 0.5903 0.0
H5502 H 0.36909 0.3003 0.61025 0.0
H5503 H 0.38654 0.29581 0.5979 0.0
C5504 C 0.14087 0.43341 0.41042 0.0
C5505 C 0.1565 0.44228 0.41207 0.0
C5506 C 0.13983 0.41698 0.4118 0.0
C5507 C 0.15478 0.40917 0.41486 0.0
C5508 C 0.17062 0.41802 0.41643 0.0
C5509 C 0.17129 0.43447 0.41504 0.0
C5510 C 0.12268 0.40796 0.41003 0.0
C5511 C 0.18685 0.41009 0.41957 0.0
C5512 C 0.14797 0.367 0.43323 0.0
C5513 C 0.14861 0.35877 0.41939 0.0
C5514 C 0.15048 0.38342 0.43201 0.0
C5515 C 0.1537 0.39173 0.41657 0.0
C5516 C 0.15488 0.38337 0.40262 0.0
C5517 C 0.15232 0.36696 0.40423 0.0
C5518 C 0.14899 0.39189 0.44714 0.0
C5519 C 0.15823 0.39175 0.38594 0.0
H5520 H 0.12936 0.43931 0.40811 0.0
H5521 H 0.18343 0.44121 0.41628 0.0
H5522 H 0.12307 0.40034 0.39989 0.0
H5523 H 0.11959 0.4002 0.42129 0.0
H5524 H 0.11226 0.41578 0.40765 0.0
H5525 H 0.19817 0.41863 0.42029 0.0
H5526 H 0.18574 0.40246 0.43116 0.0
H5527 H 0.18895 0.40246 0.40973 0.0
H5528 H 0.14487 0.36058 0.44488 0.0
H5529 H 0.15282 0.36047 0.39358 0.0
H5530 H 0.13779 0.3989 0.44607 0.0
H5531 H 0.16042 0.40015 0.44848 0.0
H5532 H 0.14752 0.38369 0.45834 0.0
H5533 H 0.14723 0.39844 0.38213 0.0
H5534 H 0.16027 0.38352 0.37663 0.0
H5535 H 0.1696 0.40029 0.38621 0.0
C5536 C 0.72142 0.05059 0.57521 0.0
C5537 C 0.70894 0.03881 0.57156 0.0
C5538 C 0.71703 0.06571 0.57758 0.0
C5539 C 0.6997 0.06893 0.57679 0.0
C5540 C 0.68706 0.05706 0.57306 0.0
C5541 C 0.69188 0.0422 0.57024 0.0
C5542 C 0.73091 0.0782 0.58104 0.0
C5543 C 0.6684 0.05991 0.57253 0.0
C5544 C 0.6858 0.10195 0.5999 0.0
C5545 C 0.68301 0.11338 0.58723 0.0
C5546 C 0.69131 0.08744 0.59669 0.0
C5547 C 0.69465 0.08453 0.58042 0.0
C5548 C 0.69254 0.09632 0.56763 0.0
C5549 C 0.68647 0.11052 0.57117 0.0
C5550 C 0.69306 0.07508 0.61065 0.0
C5551 C 0.69639 0.09382 0.55018 0.0
H5552 H 0.73464 0.04801 0.57613 0.0
H5553 H 0.6822 0.03305 0.56755 0.0
H5554 H 0.73002 0.08873 0.57238 0.0
H5555 H 0.72927 0.08183 0.59347 0.0
H5556 H 0.74385 0.07411 0.58011 0.0
H5557 H 0.66017 0.04943 0.56948 0.0
H5558 H 0.66436 0.06327 0.58452 0.0
H5559 H 0.66623 0.06978 0.56337 0.0
H5560 H 0.68336 0.10429 0.61233 0.0
H5561 H 0.68407 0.11927 0.56135 0.0
H5562 H 0.70626 0.07151 0.61119 0.0
H5563 H 0.68447 0.0645 0.6087 0.0
H5564 H 0.68991 0.07921 0.62258 0.0
H5565 H 0.70934 0.08982 0.54922 0.0
H5566 H 0.69559 0.10465 0.54189 0.0
H5567 H 0.68723 0.08452 0.54594 0.0
C5568 C 0.69634 0.95338 0.34776 0.0
C5569 C 0.70117 0.95373 0.36414 0.0
C5570 C 0.6805 0.94614 0.34346 0.0
C5571 C 0.66919 0.9392 0.35584 0.0
C5572 C 0.67373 0.93996 0.3724 0.0
C5573 C 0.68969 0.94718 0.37635 0.0
C5574 C 0.67611 0.94546 0.32567 0.0
C5575 C 0.66191 0.93279 0.38593 0.0
C5576 C 0.62248 0.93004 0.34582 0.0
C5577 C 0.62178 0.9139 0.34453 0.0
C5578 C 0.63788 0.93851 0.34933 0.0
C5579 C 0.65288 0.93057 0.35149 0.0
C5580 C 0.65222 0.91427 0.34989 0.0
C5581 C 0.63662 0.90612 0.34646 0.0
C5582 C 0.63803 0.95583 0.35112 0.0
C5583 C 0.66792 0.90539 0.35209 0.0
H5584 H 0.70513 0.95838 0.33825 0.0
H5585 H 0.69328 0.94745 0.38904 0.0
H5586 H 0.67474 0.93307 0.32272 0.0
H5587 H 0.66371 0.95036 0.32302 0.0
H5588 H 0.68598 0.952 0.31754 0.0
H5589 H 0.66696 0.93511 0.39817 0.0
H5590 H 0.64924 0.93747 0.38447 0.0
H5591 H 0.65993 0.91993 0.38534 0.0
H5592 H 0.61083 0.9359 0.34455 0.0
H5593 H 0.63591 0.89361 0.34543 0.0
H5594 H 0.6476 0.96247 0.34277 0.0
H5595 H 0.6418 0.95821 0.36371 0.0
H5596 H 0.6254 0.96032 0.34851 0.0
H5597 H 0.67818 0.91088 0.34375 0.0
H5598 H 0.66537 0.89289 0.34972 0.0
H5599 H 0.67276 0.90592 0.3647 0.0
C5600 C 0.7944 0.94538 0.11685 0.0
C5601 C 0.80175 0.95693 0.12632 0.0
C5602 C 0.80286 0.93204 0.11441 0.0
C5603 C 0.81925 0.93048 0.12121 0.0
C5604 C 0.82663 0.94204 0.13092 0.0
C5605 C 0.8177 0.95503 0.13352 0.0
C5606 C 0.79437 0.91972 0.10441 0.0
C5607 C 0.84426 0.94102 0.13803 0.0
C5608 C 0.83868 0.8914 0.12577 0.0
C5609 C 0.84915 0.89264 0.11201 0.0
C5610 C 0.82842 0.90342 0.12868 0.0
C5611 C 0.829 0.91709 0.1177 0.0
C5612 C 0.83948 0.91825 0.10365 0.0
C5613 C 0.84931 0.90589 0.10089 0.0
C5614 C 0.81729 0.90165 0.14369 0.0
C5615 C 0.8408 0.93277 0.09186 0.0
H5616 H 0.78202 0.94677 0.11136 0.0
H5617 H 0.82349 0.96401 0.14072 0.0
H5618 H 0.80184 0.91911 0.09316 0.0
H5619 H 0.79402 0.90804 0.11135 0.0
H5620 H 0.78115 0.92216 0.10091 0.0
H5621 H 0.84775 0.95042 0.14614 0.0
H5622 H 0.8452 0.92952 0.14504 0.0
H5623 H 0.85374 0.94195 0.12801 0.0
H5624 H 0.83873 0.88107 0.13431 0.0
H5625 H 0.85766 0.90677 0.09039 0.0
H5626 H 0.80406 0.90416 0.14038 0.0
H5627 H 0.82209 0.91022 0.15227 0.0
H5628 H 0.81703 0.8897 0.15008 0.0
H5629 H 0.828 0.93522 0.08711 0.0
H5630 H 0.84931 0.93168 0.0814 0.0
H5631 H 0.8458 0.94302 0.09827 0.0
C5632 C 0.25147 0.5384 0.40372 0.0
C5633 C 0.24641 0.52962 0.3907 0.0
C5634 C 0.2665 0.54849 0.40286 0.0
C5635 C 0.27678 0.54975 0.3887 0.0
C5636 C 0.27199 0.54059 0.3757 0.0
C5637 C 0.25683 0.53068 0.37684 0.0
C5638 C 0.27113 0.55812 0.41694 0.0
C5639 C 0.2827 0.5415 0.36046 0.0
C5640 C 0.30548 0.58716 0.3788 0.0
C5641 C 0.32134 0.58262 0.38423 0.0
C5642 C 0.29086 0.5766 0.38027 0.0
C5643 C 0.29219 0.56108 0.38721 0.0
C5644 C 0.30824 0.55644 0.39268 0.0
C5645 C 0.32262 0.56731 0.39118 0.0
C5646 C 0.27399 0.58204 0.37435 0.0
C5647 C 0.31021 0.54001 0.40009 0.0
H5648 H 0.24349 0.53768 0.41447 0.0
H5649 H 0.25305 0.5239 0.36674 0.0
H5650 H 0.28417 0.55606 0.42129 0.0
H5651 H 0.27116 0.57077 0.41285 0.0
H5652 H 0.26212 0.55537 0.42732 0.0
H5653 H 0.27767 0.53304 0.35182 0.0
H5654 H 0.28311 0.55349 0.35421 0.0
H5655 H 0.296 0.53914 0.36364 0.0
H5656 H 0.30461 0.59896 0.37326 0.0
H5657 H 0.3349 0.56392 0.39551 0.0
H5658 H 0.26458 0.58043 0.38446 0.0
H5659 H 0.26886 0.57485 0.36462 0.0
H5660 H 0.27508 0.59455 0.36951 0.0
H5661 H 0.30204 0.53741 0.41107 0.0
H5662 H 0.3236 0.53823 0.40357 0.0
H5663 H 0.3059 0.53143 0.39132 0.0
C5664 C 0.28325 0.54029 0.88042 0.0
C5665 C 0.29243 0.53121 0.87087 0.0
C5666 C 0.28883 0.55599 0.88223 0.0
C5667 C 0.30419 0.5626 0.87465 0.0
C5668 C 0.31369 0.55339 0.86525 0.0
C5669 C 0.30757 0.53785 0.8633 0.0
C5670 C 0.27815 0.56557 0.89199 0.0
C5671 C 0.33032 0.55994 0.85728 0.0
C5672 C 0.31271 0.60654 0.86521 0.0
C5673 C 0.32327 0.61051 0.87815 0.0
C5674 C 0.3059 0.59106 0.86422 0.0
C5675 C 0.3102 0.57926 0.87627 0.0
C5676 C 0.32074 0.58332 0.88951 0.0
C5677 C 0.327 0.599 0.89038 0.0
C5678 C 0.29446 0.58728 0.8501 0.0
C5679 C 0.32596 0.57104 0.90235 0.0
H5680 H 0.27147 0.53523 0.88619 0.0
H5681 H 0.31477 0.53083 0.856 0.0
H5682 H 0.28572 0.57012 0.9022 0.0
H5683 H 0.2743 0.57586 0.88418 0.0
H5684 H 0.26649 0.5587 0.89704 0.0
H5685 H 0.33648 0.55108 0.85087 0.0
H5686 H 0.32814 0.57 0.84836 0.0
H5687 H 0.33928 0.56439 0.86658 0.0
H5688 H 0.31001 0.61559 0.85578 0.0
H5689 H 0.33543 0.60222 0.90019 0.0
H5690 H 0.28248 0.5806 0.8546 0.0
H5691 H 0.30086 0.57978 0.84218 0.0
H5692 H 0.29121 0.59799 0.84259 0.0
H5693 H 0.31453 0.56428 0.90797 0.0
H5694 H 0.33377 0.57621 0.91211 0.0
H5695 H 0.33346 0.56262 0.89664 0.0
C5696 C 0.70969 0.02684 0.15118 0.0
C5697 C 0.71919 0.03288 0.13735 0.0
C5698 C 0.69235 0.02921 0.15246 0.0
C5699 C 0.6843 0.03777 0.13959 0.0
C5700 C 0.69372 0.04368 0.12548 0.0
C5701 C 0.71105 0.04118 0.12454 0.0
C5702 C 0.6827 0.02275 0.16771 0.0
C5703 C 0.68553 0.0528 0.11147 0.0
C5704 C 0.63597 0.03255 0.13779 0.0
C5705 C 0.63156 0.04571 0.14506 0.0
C5706 C 0.65312 0.0299 0.13571 0.0
C5707 C 0.66606 0.04075 0.14101 0.0
C5708 C 0.66157 0.05431 0.148 0.0
C5709 C 0.64431 0.05664 0.14989 0.0
C5710 C 0.65738 0.01541 0.12806 0.0
C5711 C 0.67499 0.06618 0.15373 0.0
H5712 H 0.71586 0.02043 0.16114 0.0
H5713 H 0.71827 0.04587 0.11379 0.0
H5714 H 0.67781 0.03248 0.17379 0.0
H5715 H 0.6715 0.01488 0.16453 0.0
H5716 H 0.69074 0.01612 0.17649 0.0
H5717 H 0.6945 0.05623 0.10117 0.0
H5718 H 0.67433 0.04573 0.10696 0.0
H5719 H 0.68083 0.06357 0.11566 0.0
H5720 H 0.62593 0.02431 0.13385 0.0
H5721 H 0.64068 0.06684 0.15541 0.0
H5722 H 0.66453 0.00793 0.13686 0.0
H5723 H 0.66574 0.01872 0.1173 0.0
H5724 H 0.64582 0.00839 0.12417 0.0
H5725 H 0.68275 0.06054 0.16348 0.0
H5726 H 0.66935 0.07627 0.15852 0.0
H5727 H 0.68375 0.07066 0.14357 0.0
C5728 C 0.7875 0.9863 0.59859 0.0
C5729 C 0.77392 0.97561 0.59475 0.0
C5730 C 0.80423 0.98179 0.59989 0.0
C5731 C 0.80738 0.96623 0.59736 0.0
C5732 C 0.79378 0.95552 0.59309 0.0
C5733 C 0.77725 0.96035 0.5918 0.0
C5734 C 0.81847 0.99354 0.6043 0.0
C5735 C 0.7966 0.9388 0.59031 0.0
C5736 C 0.85083 0.95332 0.58815 0.0
C5737 C 0.85497 0.94567 0.60315 0.0
C5738 C 0.83581 0.96096 0.58628 0.0
C5739 C 0.82469 0.96077 0.59975 0.0
C5740 C 0.82933 0.95373 0.61515 0.0
C5741 C 0.84447 0.94626 0.61665 0.0
C5742 C 0.83139 0.96843 0.56971 0.0
C5743 C 0.8178 0.95321 0.62978 0.0
H5744 H 0.78504 -0.00188 0.60084 0.0
H5745 H 0.76686 0.95202 0.58878 0.0
H5746 H 0.8238 0.9897 0.61634 0.0
H5747 H 0.82897 0.99423 0.59529 0.0
H5748 H 0.81411 0.00543 0.60485 0.0
H5749 H 0.78475 0.93208 0.58662 0.0
H5750 H 0.80637 0.93859 0.58071 0.0
H5751 H 0.80147 0.93275 0.60162 0.0
H5752 H 0.85909 0.9528 0.57778 0.0
H5753 H 0.84769 0.94014 0.62817 0.0
H5754 H 0.82723 0.98031 0.57069 0.0
H5755 H 0.82061 0.96133 0.56452 0.0
H5756 H 0.84231 0.96934 0.56112 0.0
H5757 H 0.81379 0.96503 0.63135 0.0
H5758 H 0.82404 0.94874 0.64117 0.0
H5759 H 0.80609 0.94545 0.62788 0.0
loop_
_geom_bond_atom_site_label_1
_geom_bond_atom_site_label_2
_geom_bond_distance
_geom_bond_site_symmetry_2
_ccdc_geom_bond_type
O0 Cd1 2.300 . S
O0 C7 1.275 . S
Cd1 O0 2.300 . S
Cd1 O9 2.381 . S
Cd1 O10 2.378 . S
O2 Cd3 2.385 1_455 S
O2 C7 1.255 . S
Cd3 O2 2.385 1_655 S
Cd3 O4 2.317 . S
O4 Cd3 2.317 . S
O4 C5 1.232 . S
C5 O4 1.232 . S
C5 O6 1.218 . S
O6 C5 1.218 . S
C7 O0 1.275 . S
C7 O2 1.255 . S
C8 O9 1.258 . S
C8 O10 1.256 . S
O9 Cd1 2.381 . S
O9 C8 1.258 . S
O10 Cd1 2.378 . S
O10 C8 1.256 . S
O11 Cd12 2.300 . S
O11 C18 1.275 . S
Cd12 O11 2.300 . S
Cd12 O20 2.381 . S
Cd12 O21 2.378 . S
O13 Cd14 2.385 . S
O13 C18 1.255 . S
Cd14 O13 2.385 . S
Cd14 O15 2.317 . S
O15 Cd14 2.317 . S
O15 C16 1.232 . S
C16 O15 1.232 . S
C16 O17 1.218 . S
O17 C16 1.218 . S
C18 O11 1.275 . S
C18 O13 1.255 . S
C19 O20 1.258 . S
C19 O21 1.256 . S
O20 Cd12 2.381 . S
O20 C19 1.258 . S
O21 Cd12 2.378 . S
O21 C19 1.256 . S
O22 Cd23 2.300 . S
O22 C29 1.275 . S
Cd23 O22 2.300 . S
Cd23 O31 2.381 . S
Cd23 O32 2.378 . S
O24 Cd25 2.385 . S
O24 C29 1.255 . S
Cd25 O24 2.385 . S
Cd25 O26 2.317 . S
O26 Cd25 2.317 . S
O26 C27 1.232 . S
C27 O26 1.232 . S
C27 O28 1.218 . S
O28 C27 1.218 . S
C29 O22 1.275 . S
C29 O24 1.255 . S
C30 O31 1.258 . S
C30 O32 1.256 . S
O31 Cd23 2.381 . S
O31 C30 1.258 . S
O32 Cd23 2.378 . S
O32 C30 1.256 . S
O33 Cd34 2.300 . S
O33 C40 1.275 . S
Cd34 O33 2.300 . S
Cd34 O42 2.381 . S
Cd34 O43 2.378 . S
O35 Cd36 2.389 . S
O35 C40 1.255 . S
Cd36 O35 2.389 . S
Cd36 O37 2.315 1_554 S
O37 Cd36 2.315 1_556 S
O37 C38 1.232 . S
C38 O37 1.232 . S
C38 O39 1.218 . S
O39 C38 1.218 . S
C40 O33 1.275 . S
C40 O35 1.255 . S
C41 O42 1.258 . S
C41 O43 1.256 . S
O42 Cd34 2.381 . S
O42 C41 1.258 . S
O43 Cd34 2.378 . S
O43 C41 1.256 . S
O44 Cd45 2.300 . S
O44 C51 1.275 . S
Cd45 O44 2.300 . S
Cd45 O53 2.381 . S
Cd45 O54 2.378 . S
O46 Cd47 2.385 . S
O46 C51 1.255 . S
Cd47 O46 2.385 . S
Cd47 O48 2.317 1_455 S
O48 Cd47 2.317 1_655 S
O48 C49 1.232 . S
C49 O48 1.232 . S
C49 O50 1.218 . S
O50 C49 1.218 . S
C51 O44 1.275 . S
C51 O46 1.255 . S
C52 O53 1.258 . S
C52 O54 1.256 . S
O53 Cd45 2.381 . S
O53 C52 1.258 . S
O54 Cd45 2.378 . S
O54 C52 1.256 . S
O55 Cd56 2.300 . S
O55 C62 1.275 . S
Cd56 O55 2.300 . S
Cd56 O64 2.381 . S
Cd56 O65 2.378 . S
O57 Cd58 2.385 . S
O57 C62 1.255 . S
Cd58 O57 2.385 . S
Cd58 O59 2.317 . S
O59 Cd58 2.317 . S
O59 C60 1.232 . S
C60 O59 1.232 . S
C60 O61 1.218 . S
O61 C60 1.218 . S
C62 O55 1.275 . S
C62 O57 1.255 . S
C63 O64 1.258 . S
C63 O65 1.256 . S
O64 Cd56 2.381 . S
O64 C63 1.258 . S
O65 Cd56 2.378 . S
O65 C63 1.256 . S
O66 Cd67 2.300 . S
O66 C73 1.275 . S
Cd67 O66 2.300 . S
Cd67 O75 2.381 . S
Cd67 O76 2.378 . S
O68 Cd69 2.385 . S
O68 C73 1.255 . S
Cd69 O68 2.385 . S
Cd69 O70 2.317 . S
O70 Cd69 2.317 . S
O70 C71 1.232 . S
C71 O70 1.232 . S
C71 O72 1.218 . S
O72 C71 1.218 . S
C73 O66 1.275 . S
C73 O68 1.255 . S
C74 O75 1.258 . S
C74 O76 1.256 . S
O75 Cd67 2.381 . S
O75 C74 1.258 . S
O76 Cd67 2.378 . S
O76 C74 1.256 . S
O77 Cd78 2.300 . S
O77 C84 1.275 . S
Cd78 O77 2.300 . S
Cd78 O86 2.381 . S
Cd78 O87 2.378 . S
O79 Cd80 2.385 . S
O79 C84 1.255 . S
Cd80 O79 2.385 . S
Cd80 O81 2.317 . S
O81 Cd80 2.317 . S
O81 C82 1.232 . S
C82 O81 1.232 . S
C82 O83 1.218 . S
O83 C82 1.218 . S
C84 O77 1.275 . S
C84 O79 1.255 . S
C85 O86 1.258 . S
C85 O87 1.256 . S
O86 Cd78 2.381 . S
O86 C85 1.258 . S
O87 Cd78 2.378 . S
O87 C85 1.256 . S
O88 Cd89 2.300 . S
O88 C95 1.275 . S
Cd89 O88 2.300 . S
Cd89 O97 2.381 1_545 S
Cd89 O98 2.378 1_545 S
O90 Cd91 2.385 . S
O90 C95 1.255 . S
Cd91 O90 2.385 . S
Cd91 O92 2.317 . S
O92 Cd91 2.317 . S
O92 C93 1.232 . S
C93 O92 1.232 . S
C93 O94 1.218 . S
O94 C93 1.218 . S
C95 O88 1.275 . S
C95 O90 1.255 . S
C96 O97 1.258 . S
C96 O98 1.256 . S
O97 Cd89 2.381 1_565 S
O97 C96 1.258 . S
O98 Cd89 2.378 1_565 S
O98 C96 1.256 . S
O99 Cd100 2.300 1_545 S
O99 C106 1.275 . S
Cd100 O99 2.300 1_565 S
Cd100 O108 2.381 . S
Cd100 O109 2.378 . S
O101 Cd102 2.385 . S
O101 C106 1.255 . S
Cd102 O101 2.385 . S
Cd102 O103 2.317 . S
O103 Cd102 2.317 . S
O103 C104 1.232 . S
C104 O103 1.232 . S
C104 O105 1.218 . S
O105 C104 1.218 . S
C106 O99 1.275 . S
C106 O101 1.255 . S
C107 O108 1.258 . S
C107 O109 1.256 . S
O108 Cd100 2.381 . S
O108 C107 1.258 . S
O109 Cd100 2.378 . S
O109 C107 1.256 . S
O110 Cd111 2.300 . S
O110 C117 1.275 . S
Cd111 O110 2.300 . S
Cd111 O119 2.381 . S
Cd111 O120 2.378 . S
O112 Cd113 2.385 1_565 S
O112 C117 1.255 . S
Cd113 O112 2.385 1_545 S
Cd113 O114 2.317 . S
O114 Cd113 2.317 . S
O114 C115 1.232 . S
C115 O114 1.232 . S
C115 O116 1.218 . S
O116 C115 1.218 . S
C117 O110 1.275 . S
C117 O112 1.255 . S
C118 O119 1.258 . S
C118 O120 1.256 . S
O119 Cd111 2.381 . S
O119 C118 1.258 . S
O120 Cd111 2.378 . S
O120 C118 1.256 . S
O121 Cd122 2.300 . S
O121 C128 1.275 . S
Cd122 O121 2.300 . S
Cd122 O130 2.381 1_565 S
Cd122 O131 2.378 1_565 S
O123 Cd124 2.385 . S
O123 C128 1.255 . S
Cd124 O123 2.385 . S
Cd124 O125 2.317 . S
O125 Cd124 2.317 . S
O125 C126 1.232 . S
C126 O125 1.232 . S
C126 O127 1.218 . S
O127 C126 1.218 . S
C128 O121 1.275 . S
C128 O123 1.255 . S
C129 O130 1.258 . S
C129 O131 1.256 . S
O130 Cd122 2.381 1_545 S
O130 C129 1.258 . S
O131 Cd122 2.378 1_545 S
O131 C129 1.256 . S
O132 Cd133 2.300 . S
O132 C139 1.275 . S
Cd133 O132 2.300 . S
Cd133 O141 2.381 1_554 S
Cd133 O142 2.378 1_554 S
O134 Cd135 2.385 . S
O134 C139 1.255 . S
Cd135 O134 2.385 . S
Cd135 O136 2.317 . S
O136 Cd135 2.317 . S
O136 C137 1.232 . S
C137 O136 1.232 . S
C137 O138 1.218 . S
O138 C137 1.218 . S
C139 O132 1.275 . S
C139 O134 1.255 . S
C140 O141 1.258 . S
C140 O142 1.256 . S
O141 Cd133 2.381 1_556 S
O141 C140 1.258 . S
O142 Cd133 2.378 1_556 S
O142 C140 1.256 . S
O143 Cd144 2.300 . S
O143 C150 1.275 . S
Cd144 O143 2.300 . S
Cd144 O152 2.381 . S
Cd144 O153 2.378 . S
O145 Cd146 2.385 . S
O145 C150 1.255 . S
Cd146 O145 2.385 . S
Cd146 O147 2.317 . S
O147 Cd146 2.317 . S
O147 C148 1.232 . S
C148 O147 1.232 . S
C148 O149 1.218 . S
O149 C148 1.218 . S
C150 O143 1.275 . S
C150 O145 1.255 . S
C151 O152 1.258 . S
C151 O153 1.256 . S
O152 Cd144 2.381 . S
O152 C151 1.258 . S
O153 Cd144 2.378 . S
O153 C151 1.256 . S
O154 Cd155 2.300 . S
O154 C161 1.275 . S
Cd155 O154 2.300 . S
Cd155 O163 2.381 . S
Cd155 O164 2.378 . S
O156 Cd157 2.385 . S
O156 C161 1.255 . S
Cd157 O156 2.385 . S
Cd157 O158 2.317 . S
O158 Cd157 2.317 . S
O158 C159 1.232 . S
C159 O158 1.232 . S
C159 O160 1.218 . S
O160 C159 1.218 . S
C161 O154 1.275 . S
C161 O156 1.255 . S
C162 O163 1.258 . S
C162 O164 1.256 . S
O163 Cd155 2.381 . S
O163 C162 1.258 . S
O164 Cd155 2.378 . S
O164 C162 1.256 . S
O165 Cd166 2.300 . S
O165 C172 1.275 . S
Cd166 O165 2.300 . S
Cd166 O174 2.381 . S
Cd166 O175 2.378 1_655 S
O167 Cd168 2.385 . S
O167 C172 1.255 . S
Cd168 O167 2.385 . S
Cd168 O169 2.317 . S
O169 Cd168 2.317 . S
O169 C170 1.232 . S
C170 O169 1.232 . S
C170 O171 1.218 . S
O171 C170 1.218 . S
C172 O165 1.275 . S
C172 O167 1.255 . S
C173 O174 1.258 1_455 S
C173 O175 1.256 . S
O174 Cd166 2.381 . S
O174 C173 1.258 1_655 S
O175 Cd166 2.378 1_455 S
O175 C173 1.256 . S
O176 Cd177 2.300 . S
O176 C183 1.275 . S
Cd177 O176 2.300 . S
Cd177 O185 2.381 . S
Cd177 O186 2.378 . S
O178 Cd179 2.385 . S
O178 C183 1.255 . S
Cd179 O178 2.385 . S
Cd179 O180 2.317 . S
O180 Cd179 2.317 . S
O180 C181 1.232 . S
C181 O180 1.232 . S
C181 O182 1.218 . S
O182 C181 1.218 . S
C183 O176 1.275 . S
C183 O178 1.255 . S
C184 O185 1.258 . S
C184 O186 1.256 . S
O185 Cd177 2.381 . S
O185 C184 1.258 . S
O186 Cd177 2.378 . S
O186 C184 1.256 . S
O187 Cd188 2.300 . S
O187 C194 1.275 . S
Cd188 O187 2.300 . S
Cd188 O196 2.381 . S
Cd188 O197 2.378 . S
O189 Cd190 2.385 . S
O189 C194 1.255 . S
Cd190 O189 2.385 . S
Cd190 O191 2.317 . S
O191 Cd190 2.317 . S
O191 C192 1.232 . S
C192 O191 1.232 . S
C192 O193 1.218 . S
O193 C192 1.218 . S
C194 O187 1.275 . S
C194 O189 1.255 . S
C195 O196 1.258 . S
C195 O197 1.256 . S
O196 Cd188 2.381 . S
O196 C195 1.258 . S
O197 Cd188 2.378 . S
O197 C195 1.256 . S
O198 Cd199 2.300 . S
O198 C205 1.275 . S
Cd199 O198 2.300 . S
Cd199 O207 2.381 . S
Cd199 O208 2.378 . S
O200 Cd201 2.385 . S
O200 C205 1.255 . S
Cd201 O200 2.385 . S
Cd201 O202 2.317 . S
O202 Cd201 2.317 . S
O202 C203 1.232 . S
C203 O202 1.232 . S
C203 O204 1.218 . S
O204 C203 1.218 . S
C205 O198 1.275 . S
C205 O200 1.255 . S
C206 O207 1.258 . S
C206 O208 1.256 . S
O207 Cd199 2.381 . S
O207 C206 1.258 . S
O208 Cd199 2.378 . S
O208 C206 1.256 . S
O209 Cd210 2.300 . S
O209 C216 1.275 . S
Cd210 O209 2.300 . S
Cd210 O218 2.381 . S
Cd210 O219 2.378 . S
O211 Cd212 2.385 . S
O211 C216 1.255 . S
Cd212 O211 2.385 . S
Cd212 O213 2.317 . S
O213 Cd212 2.317 . S
O213 C214 1.232 . S
C214 O213 1.232 . S
C214 O215 1.218 . S
O215 C214 1.218 . S
C216 O209 1.275 . S
C216 O211 1.255 . S
C217 O218 1.258 . S
C217 O219 1.256 . S
O218 Cd210 2.381 . S
O218 C217 1.258 . S
O219 Cd210 2.378 . S
O219 C217 1.256 . S
O220 Cd221 2.300 . S
O220 C227 1.275 . S
Cd221 O220 2.300 . S
Cd221 O229 2.381 . S
Cd221 O230 2.378 . S
O222 Cd223 2.385 . S
O222 C227 1.255 . S
Cd223 O222 2.385 . S
Cd223 O224 2.317 . S
O224 Cd223 2.317 . S
O224 C225 1.232 . S
C225 O224 1.232 . S
C225 O226 1.218 . S
O226 C225 1.218 . S
C227 O220 1.275 . S
C227 O222 1.255 . S
C228 O229 1.258 . S
C228 O230 1.256 . S
O229 Cd221 2.381 . S
O229 C228 1.258 . S
O230 Cd221 2.378 . S
O230 C228 1.256 . S
O231 Cd232 2.300 . S
O231 C238 1.275 . S
Cd232 O231 2.300 . S
Cd232 O240 2.381 . S
Cd232 O241 2.378 . S
O233 Cd234 2.385 . S
O233 C238 1.255 . S
Cd234 O233 2.385 . S
Cd234 O235 2.317 . S
O235 Cd234 2.317 . S
O235 C236 1.232 . S
C236 O235 1.232 . S
C236 O237 1.218 . S
O237 C236 1.218 . S
C238 O231 1.275 . S
C238 O233 1.255 . S
C239 O240 1.258 . S
C239 O241 1.256 . S
O240 Cd232 2.381 . S
O240 C239 1.258 . S
O241 Cd232 2.378 . S
O241 C239 1.256 . S
O242 Cd243 2.300 . S
O242 C249 1.275 . S
Cd243 O242 2.300 . S
Cd243 O251 2.381 . S
Cd243 O252 2.378 . S
O244 Cd245 2.385 . S
O244 C249 1.255 . S
Cd245 O244 2.385 . S
Cd245 O246 2.317 1_554 S
O246 Cd245 2.317 1_556 S
O246 C247 1.232 . S
C247 O246 1.232 . S
C247 O248 1.218 . S
O248 C247 1.218 . S
C249 O242 1.275 . S
C249 O244 1.255 . S
C250 O251 1.258 . S
C250 O252 1.256 . S
O251 Cd243 2.381 . S
O251 C250 1.258 . S
O252 Cd243 2.378 . S
O252 C250 1.256 . S
O253 Cd254 2.300 1_565 S
O253 C260 1.275 . S
Cd254 O253 2.300 1_545 S
Cd254 O262 2.381 . S
Cd254 O263 2.378 . S
O255 Cd256 2.385 . S
O255 C260 1.255 . S
Cd256 O255 2.385 . S
Cd256 O257 2.317 . S
O257 Cd256 2.317 . S
O257 C258 1.232 . S
C258 O257 1.232 . S
C258 O259 1.218 . S
O259 C258 1.218 . S
C260 O253 1.275 . S
C260 O255 1.255 . S
C261 O262 1.258 . S
C261 O263 1.256 . S
O262 Cd254 2.381 . S
O262 C261 1.258 . S
O263 Cd254 2.378 . S
O263 C261 1.256 . S
O264 Cd265 2.264 1_565 S
O264 C271 1.275 . S
Cd265 O264 2.264 1_545 S
Cd265 O273 2.420 . S
Cd265 O274 2.432 . S
O266 Cd267 2.385 . S
O266 C271 1.255 . S
Cd267 O266 2.385 . S
Cd267 O268 2.317 . S
O268 Cd267 2.317 . S
O268 C269 1.232 . S
C269 O268 1.232 . S
C269 O270 1.218 . S
O270 C269 1.218 . S
C271 O264 1.275 . S
C271 O266 1.255 . S
C272 O273 1.258 . S
C272 O274 1.256 . S
O273 Cd265 2.420 . S
O273 C272 1.258 . S
O274 Cd265 2.432 . S
O274 C272 1.256 . S
O275 Cd276 2.300 1_545 S
O275 C282 1.275 . S
Cd276 O275 2.300 1_565 S
Cd276 O284 2.381 . S
Cd276 O285 2.378 . S
O277 Cd278 2.385 . S
O277 C282 1.255 . S
Cd278 O277 2.385 . S
Cd278 O279 2.317 . S
O279 Cd278 2.317 . S
O279 C280 1.232 . S
C280 O279 1.232 . S
C280 O281 1.218 . S
O281 C280 1.218 . S
C282 O275 1.275 . S
C282 O277 1.255 . S
C283 O284 1.258 . S
C283 O285 1.256 . S
O284 Cd276 2.381 . S
O284 C283 1.258 . S
O285 Cd276 2.378 . S
O285 C283 1.256 . S
O286 Cd287 2.300 1_545 S
O286 C293 1.275 . S
Cd287 O286 2.300 1_565 S
Cd287 O295 2.381 . S
Cd287 O296 2.378 . S
O288 Cd289 2.385 . S
O288 C293 1.255 . S
Cd289 O288 2.385 . S
Cd289 O290 2.317 . S
O290 Cd289 2.317 . S
O290 C291 1.232 . S
C291 O290 1.232 . S
C291 O292 1.218 . S
O292 C291 1.218 . S
C293 O286 1.275 . S
C293 O288 1.255 . S
C294 O295 1.258 . S
C294 O296 1.256 . S
O295 Cd287 2.381 . S
O295 C294 1.258 . S
O296 Cd287 2.378 . S
O296 C294 1.256 . S
O297 Cd298 2.295 1_556 S
O297 C304 1.275 . S
Cd298 O297 2.295 1_554 S
Cd298 O306 2.386 . S
Cd298 O307 2.386 . S
O299 Cd300 2.385 . S
O299 C304 1.255 . S
Cd300 O299 2.385 . S
Cd300 O301 2.317 . S
O301 Cd300 2.317 . S
O301 C302 1.232 . S
C302 O301 1.232 . S
C302 O303 1.218 . S
O303 C302 1.218 . S
C304 O297 1.275 . S
C304 O299 1.255 . S
C305 O306 1.258 . S
C305 O307 1.256 . S
O306 Cd298 2.386 . S
O306 C305 1.258 . S
O307 Cd298 2.386 . S
O307 C305 1.256 . S
O308 Cd309 2.300 . S
O308 C315 1.275 . S
Cd309 O308 2.300 . S
Cd309 O317 2.381 . S
Cd309 O318 2.378 . S
O310 Cd311 2.385 . S
O310 C315 1.255 . S
Cd311 O310 2.385 . S
Cd311 O312 2.305 1_455 S
O312 Cd311 2.305 1_655 S
O312 C313 1.243 . S
C313 O312 1.243 . S
C313 O314 1.218 . S
O314 C313 1.218 . S
C315 O308 1.275 . S
C315 O310 1.255 . S
C316 O317 1.258 . S
C316 O318 1.256 . S
O317 Cd309 2.381 . S
O317 C316 1.258 . S
O318 Cd309 2.378 . S
O318 C316 1.256 . S
O319 Cd320 2.300 . S
O319 C326 1.275 . S
Cd320 O319 2.300 . S
Cd320 O328 2.381 . S
Cd320 O329 2.378 . S
O321 Cd322 2.385 . S
O321 C326 1.255 . S
Cd322 O321 2.385 . S
Cd322 O323 2.317 . S
O323 Cd322 2.317 . S
O323 C324 1.232 . S
C324 O323 1.232 . S
C324 O325 1.218 . S
O325 C324 1.218 . S
C326 O319 1.275 . S
C326 O321 1.255 . S
C327 O328 1.258 . S
C327 O329 1.256 . S
O328 Cd320 2.381 . S
O328 C327 1.258 . S
O329 Cd320 2.378 . S
O329 C327 1.256 . S
O330 Cd331 2.300 . S
O330 C337 1.275 . S
Cd331 O330 2.300 . S
Cd331 O339 2.381 . S
Cd331 O340 2.378 . S
O332 Cd333 2.385 . S
O332 C337 1.255 . S
Cd333 O332 2.385 . S
Cd333 O334 2.317 . S
O334 Cd333 2.317 . S
O334 C335 1.232 . S
C335 O334 1.232 . S
C335 O336 1.218 . S
O336 C335 1.218 . S
C337 O330 1.275 . S
C337 O332 1.255 . S
C338 O339 1.258 . S
C338 O340 1.256 . S
O339 Cd331 2.381 . S
O339 C338 1.258 . S
O340 Cd331 2.378 . S
O340 C338 1.256 . S
O341 Cd342 2.300 . S
O341 C348 1.275 . S
Cd342 O341 2.300 . S
Cd342 O350 2.381 . S
Cd342 O351 2.378 . S
O343 Cd344 2.385 . S
O343 C348 1.255 . S
Cd344 O343 2.385 . S
Cd344 O345 2.317 . S
O345 Cd344 2.317 . S
O345 C346 1.232 . S
C346 O345 1.232 . S
C346 O347 1.218 . S
O347 C346 1.218 . S
C348 O341 1.275 . S
C348 O343 1.255 . S
C349 O350 1.241 1_455 S
C349 O351 1.251 1_455 S
O350 Cd342 2.381 . S
O350 C349 1.241 1_655 S
O351 Cd342 2.378 . S
O351 C349 1.251 1_655 S
O352 Cd353 2.300 . S
O352 C359 1.275 . S
Cd353 O352 2.300 . S
Cd353 O361 2.381 . S
Cd353 O362 2.378 . S
O354 Cd355 2.385 . S
O354 C359 1.255 . S
Cd355 O354 2.385 . S
Cd355 O356 2.317 . S
O356 Cd355 2.317 . S
O356 C357 1.232 . S
C357 O356 1.232 . S
C357 O358 1.218 . S
O358 C357 1.218 . S
C359 O352 1.275 . S
C359 O354 1.255 . S
C360 O361 1.258 . S
C360 O362 1.256 . S
O361 Cd353 2.381 . S
O361 C360 1.258 . S
O362 Cd353 2.378 . S
O362 C360 1.256 . S
O363 Cd364 2.300 . S
O363 C370 1.275 . S
Cd364 O363 2.300 . S
Cd364 O372 2.381 . S
Cd364 O373 2.378 . S
O365 Cd366 2.385 . S
O365 C370 1.255 . S
Cd366 O365 2.385 . S
Cd366 O367 2.317 1_556 S
O367 Cd366 2.317 1_554 S
O367 C368 1.232 . S
C368 O367 1.232 . S
C368 O369 1.218 . S
O369 C368 1.218 . S
C370 O363 1.275 . S
C370 O365 1.255 . S
C371 O372 1.258 . S
C371 O373 1.256 . S
O372 Cd364 2.381 . S
O372 C371 1.258 . S
O373 Cd364 2.378 . S
O373 C371 1.256 . S
O374 Cd375 2.300 . S
O374 C381 1.275 . S
Cd375 O374 2.300 . S
Cd375 O383 2.381 . S
Cd375 O384 2.378 . S
O376 Cd377 2.385 . S
O376 C381 1.255 . S
Cd377 O376 2.385 . S
Cd377 O378 2.317 . S
O378 Cd377 2.317 . S
O378 C379 1.232 . S
C379 O378 1.232 . S
C379 O380 1.218 . S
O380 C379 1.218 . S
C381 O374 1.275 . S
C381 O376 1.255 . S
C382 O383 1.258 . S
C382 O384 1.256 . S
O383 Cd375 2.381 . S
O383 C382 1.258 . S
O384 Cd375 2.378 . S
O384 C382 1.256 . S
O385 Cd386 2.300 . S
O385 C392 1.275 . S
Cd386 O385 2.300 . S
Cd386 O394 2.381 . S
Cd386 O395 2.378 . S
O387 Cd388 2.385 . S
O387 C392 1.255 . S
Cd388 O387 2.385 . S
Cd388 O389 2.317 . S
O389 Cd388 2.317 . S
O389 C390 1.232 . S
C390 O389 1.232 . S
C390 O391 1.218 . S
O391 C390 1.218 . S
C392 O385 1.275 . S
C392 O387 1.255 . S
C393 O394 1.258 . S
C393 O395 1.256 . S
O394 Cd386 2.381 . S
O394 C393 1.258 . S
O395 Cd386 2.378 . S
O395 C393 1.256 . S
O396 Cd397 2.300 . S
O396 C403 1.275 . S
Cd397 O396 2.300 . S
Cd397 O405 2.381 . S
Cd397 O406 2.378 . S
O398 Cd399 2.385 . S
O398 C403 1.255 . S
Cd399 O398 2.385 . S
Cd399 O400 2.317 . S
O400 Cd399 2.317 . S
O400 C401 1.232 . S
C401 O400 1.232 . S
C401 O402 1.218 . S
O402 C401 1.218 . S
C403 O396 1.275 . S
C403 O398 1.255 . S
C404 O405 1.258 . S
C404 O406 1.256 . S
O405 Cd397 2.381 . S
O405 C404 1.258 . S
O406 Cd397 2.378 . S
O406 C404 1.256 . S
O407 Cd408 2.300 . S
O407 C414 1.275 . S
Cd408 O407 2.300 . S
Cd408 O416 2.381 . S
Cd408 O417 2.378 . S
O409 Cd410 2.385 . S
O409 C414 1.255 . S
Cd410 O409 2.385 . S
Cd410 O411 2.317 . S
O411 Cd410 2.317 . S
O411 C412 1.232 . S
C412 O411 1.232 . S
C412 O413 1.218 . S
O413 C412 1.218 . S
C414 O407 1.275 . S
C414 O409 1.255 . S
C415 O416 1.258 . S
C415 O417 1.256 . S
O416 Cd408 2.381 . S
O416 C415 1.258 . S
O417 Cd408 2.378 . S
O417 C415 1.256 . S
O418 Cd419 2.300 . S
O418 C425 1.275 . S
Cd419 O418 2.300 . S
Cd419 O427 2.381 . S
Cd419 O428 2.378 . S
O420 Cd421 2.385 . S
O420 C425 1.255 . S
Cd421 O420 2.385 . S
Cd421 O422 2.317 . S
O422 Cd421 2.317 . S
O422 C423 1.232 . S
C423 O422 1.232 . S
C423 O424 1.218 . S
O424 C423 1.218 . S
C425 O418 1.275 . S
C425 O420 1.255 . S
C426 O427 1.258 . S
C426 O428 1.256 . S
O427 Cd419 2.381 . S
O427 C426 1.258 . S
O428 Cd419 2.378 . S
O428 C426 1.256 . S
O429 Cd430 2.300 . S
O429 C436 1.275 . S
Cd430 O429 2.300 . S
Cd430 O438 2.381 . S
Cd430 O439 2.378 . S
O431 Cd432 2.385 . S
O431 C436 1.255 . S
Cd432 O431 2.385 . S
Cd432 O433 2.317 . S
O433 Cd432 2.317 . S
O433 C434 1.232 . S
C434 O433 1.232 . S
C434 O435 1.218 . S
O435 C434 1.218 . S
C436 O429 1.275 . S
C436 O431 1.255 . S
C437 O438 1.258 . S
C437 O439 1.256 . S
O438 Cd430 2.381 . S
O438 C437 1.258 . S
O439 Cd430 2.378 . S
O439 C437 1.256 . S
O440 Cd441 2.300 . S
O440 C447 1.275 . S
Cd441 O440 2.300 . S
Cd441 O449 2.381 . S
Cd441 O450 2.378 . S
O442 Cd443 2.385 . S
O442 C447 1.255 . S
Cd443 O442 2.385 . S
Cd443 O444 2.317 1_455 S
O444 Cd443 2.317 1_655 S
O444 C445 1.232 . S
C445 O444 1.232 . S
C445 O446 1.218 . S
O446 C445 1.218 . S
C447 O440 1.275 . S
C447 O442 1.255 . S
C448 O449 1.258 . S
C448 O450 1.256 . S
O449 Cd441 2.381 . S
O449 C448 1.258 . S
O450 Cd441 2.378 . S
O450 C448 1.256 . S
O451 Cd452 2.300 . S
O451 C458 1.275 . S
Cd452 O451 2.300 . S
Cd452 O460 2.381 . S
Cd452 O461 2.378 . S
O453 Cd454 2.385 . S
O453 C458 1.255 . S
Cd454 O453 2.385 . S
Cd454 O455 2.317 . S
O455 Cd454 2.317 . S
O455 C456 1.232 . S
C456 O455 1.232 . S
C456 O457 1.218 . S
O457 C456 1.218 . S
C458 O451 1.275 . S
C458 O453 1.255 . S
C459 O460 1.258 . S
C459 O461 1.256 . S
O460 Cd452 2.381 . S
O460 C459 1.258 . S
O461 Cd452 2.378 . S
O461 C459 1.256 . S
O462 Cd463 2.300 . S
O462 C469 1.275 . S
Cd463 O462 2.300 . S
Cd463 O471 2.381 . S
Cd463 O472 2.378 . S
O464 Cd465 2.385 1_554 S
O464 C469 1.255 . S
Cd465 O464 2.385 1_556 S
Cd465 O466 2.317 . S
O466 Cd465 2.317 . S
O466 C467 1.232 . S
C467 O466 1.232 . S
C467 O468 1.218 . S
O468 C467 1.218 . S
C469 O462 1.275 . S
C469 O464 1.255 . S
C470 O471 1.258 . S
C470 O472 1.256 . S
O471 Cd463 2.381 . S
O471 C470 1.258 . S
O472 Cd463 2.378 . S
O472 C470 1.256 . S
O473 Cd474 2.300 . S
O473 C480 1.275 . S
Cd474 O473 2.300 . S
Cd474 O482 2.381 . S
Cd474 O483 2.378 . S
O475 Cd476 2.385 . S
O475 C480 1.255 . S
Cd476 O475 2.385 . S
Cd476 O477 2.317 . S
O477 Cd476 2.317 . S
O477 C478 1.232 . S
C478 O477 1.232 . S
C478 O479 1.218 . S
O479 C478 1.218 . S
C480 O473 1.275 . S
C480 O475 1.255 . S
C481 O482 1.258 . S
C481 O483 1.256 . S
O482 Cd474 2.381 . S
O482 C481 1.258 . S
O483 Cd474 2.378 . S
O483 C481 1.256 . S
O484 Cd485 2.300 . S
O484 C491 1.275 . S
Cd485 O484 2.300 . S
Cd485 O493 2.381 . S
Cd485 O494 2.378 . S
O486 Cd487 2.385 . S
O486 C491 1.255 . S
Cd487 O486 2.385 . S
Cd487 O488 2.317 . S
O488 Cd487 2.317 . S
O488 C489 1.232 . S
C489 O488 1.232 . S
C489 O490 1.218 . S
O490 C489 1.218 . S
C491 O484 1.275 . S
C491 O486 1.255 . S
C492 O493 1.258 . S
C492 O494 1.256 . S
O493 Cd485 2.381 . S
O493 C492 1.258 . S
O494 Cd485 2.378 . S
O494 C492 1.256 . S
O495 Cd496 2.300 . S
O495 C502 1.275 . S
Cd496 O495 2.300 . S
Cd496 O504 2.381 . S
Cd496 O505 2.378 . S
O497 Cd498 2.385 . S
O497 C502 1.255 . S
Cd498 O497 2.385 . S
Cd498 O499 2.317 . S
O499 Cd498 2.317 . S
O499 C500 1.232 . S
C500 O499 1.232 . S
C500 O501 1.218 . S
O501 C500 1.218 . S
C502 O495 1.275 . S
C502 O497 1.255 . S
C503 O504 1.258 . S
C503 O505 1.256 . S
O504 Cd496 2.381 . S
O504 C503 1.258 . S
O505 Cd496 2.378 . S
O505 C503 1.256 . S
O506 Cd507 2.300 . S
O506 C513 1.275 . S
Cd507 O506 2.300 . S
Cd507 O515 2.381 . S
Cd507 O516 2.378 . S
O508 Cd509 2.385 . S
O508 C513 1.255 . S
Cd509 O508 2.385 . S
Cd509 O510 2.317 . S
O510 Cd509 2.317 . S
O510 C511 1.232 . S
C511 O510 1.232 . S
C511 O512 1.218 . S
O512 C511 1.218 . S
C513 O506 1.275 . S
C513 O508 1.255 . S
C514 O515 1.258 . S
C514 O516 1.256 . S
O515 Cd507 2.381 . S
O515 C514 1.258 . S
O516 Cd507 2.378 . S
O516 C514 1.256 . S
O517 Cd518 2.300 . S
O517 C524 1.275 . S
Cd518 O517 2.300 . S
Cd518 O526 2.381 . S
Cd518 O527 2.378 . S
O519 Cd520 2.385 . S
O519 C524 1.255 . S
Cd520 O519 2.385 . S
Cd520 O521 2.317 . S
O521 Cd520 2.317 . S
O521 C522 1.232 . S
C522 O521 1.232 . S
C522 O523 1.218 . S
O523 C522 1.218 . S
C524 O517 1.275 . S
C524 O519 1.255 . S
C525 O526 1.258 . S
C525 O527 1.256 . S
O526 Cd518 2.381 . S
O526 C525 1.258 . S
O527 Cd518 2.378 . S
O527 C525 1.256 . S
C528 N529 1.317 . S
C528 N530 1.348 . S
C528 C531 1.485 . S
N529 C528 1.317 . S
N529 N533 1.370 . S
N530 C528 1.348 . S
N530 C532 1.346 . S
C531 C528 1.485 . S
C531 H535 0.960 . S
C531 H536 0.961 . S
C531 H537 0.960 . S
C532 N530 1.346 . S
C532 N533 1.307 . S
C532 C534 1.486 . S
N533 N529 1.370 . S
N533 C532 1.307 . S
C534 C532 1.486 . S
C534 H538 0.960 . S
C534 H539 0.960 . S
C534 H540 0.959 . S
H535 C531 0.960 . S
H536 C531 0.961 . S
H537 C531 0.960 . S
H538 C534 0.960 . S
H539 C534 0.960 . S
H540 C534 0.959 . S
C541 N542 1.317 . S
C541 N543 1.348 . S
C541 C544 1.485 . S
N542 C541 1.317 . S
N542 N546 1.370 . S
N543 C541 1.348 . S
N543 C545 1.346 . S
C544 C541 1.485 . S
C544 H548 0.960 . S
C544 H549 0.961 . S
C544 H550 0.960 . S
C545 N543 1.346 . S
C545 N546 1.307 . S
C545 C547 1.486 . S
N546 N542 1.370 . S
N546 C545 1.307 . S
C547 C545 1.486 . S
C547 H551 0.960 . S
C547 H552 0.960 . S
C547 H553 0.959 . S
H548 C544 0.960 . S
H549 C544 0.961 . S
H550 C544 0.960 . S
H551 C547 0.960 . S
H552 C547 0.960 . S
H553 C547 0.959 . S
C554 N555 1.317 . S
C554 N556 1.348 . S
C554 C557 1.485 . S
N555 C554 1.317 . S
N555 N559 1.370 . S
N556 C554 1.348 . S
N556 C558 1.346 . S
C557 C554 1.485 . S
C557 H561 0.960 . S
C557 H562 0.961 . S
C557 H563 0.960 . S
C558 N556 1.346 . S
C558 N559 1.307 . S
C558 C560 1.486 . S
N559 N555 1.370 . S
N559 C558 1.307 . S
C560 C558 1.486 . S
C560 H564 0.960 . S
C560 H565 0.960 . S
C560 H566 0.959 . S
H561 C557 0.960 . S
H562 C557 0.961 . S
H563 C557 0.960 . S
H564 C560 0.960 . S
H565 C560 0.960 . S
H566 C560 0.959 . S
C567 N568 1.317 . S
C567 N569 1.348 . S
C567 C570 1.485 . S
N568 C567 1.317 . S
N568 N572 1.370 . S
N569 C567 1.348 . S
N569 C571 1.346 . S
C570 C567 1.485 . S
C570 H574 0.960 . S
C570 H575 0.961 . S
C570 H576 0.960 . S
C571 N569 1.346 . S
C571 N572 1.307 . S
C571 C573 1.486 . S
N572 N568 1.370 . S
N572 C571 1.307 . S
C573 C571 1.486 . S
C573 H577 0.960 . S
C573 H578 0.960 . S
C573 H579 0.959 . S
H574 C570 0.960 . S
H575 C570 0.961 . S
H576 C570 0.960 . S
H577 C573 0.960 . S
H578 C573 0.960 . S
H579 C573 0.959 . S
C580 N581 1.317 . S
C580 N582 1.348 . S
C580 C583 1.485 . S
N581 C580 1.317 . S
N581 N585 1.370 . S
N582 C580 1.348 . S
N582 C584 1.346 . S
C583 C580 1.485 . S
C583 H587 0.960 . S
C583 H588 0.961 . S
C583 H589 0.960 . S
C584 N582 1.346 . S
C584 N585 1.307 . S
C584 C586 1.486 . S
N585 N581 1.370 . S
N585 C584 1.307 . S
C586 C584 1.486 . S
C586 H590 0.960 . S
C586 H591 0.960 . S
C586 H592 0.959 . S
H587 C583 0.960 . S
H588 C583 0.961 . S
H589 C583 0.960 . S
H590 C586 0.960 . S
H591 C586 0.960 . S
H592 C586 0.959 . S
C593 N594 1.317 . S
C593 N595 1.348 . S
C593 C596 1.485 . S
N594 C593 1.317 . S
N594 N598 1.370 . S
N595 C593 1.348 . S
N595 C597 1.346 . S
C596 C593 1.485 . S
C596 H600 0.960 . S
C596 H601 0.961 . S
C596 H602 0.960 . S
C597 N595 1.346 . S
C597 N598 1.307 . S
C597 C599 1.486 . S
N598 N594 1.370 . S
N598 C597 1.307 . S
C599 C597 1.486 . S
C599 H603 0.960 . S
C599 H604 0.960 . S
C599 H605 0.959 . S
H600 C596 0.960 . S
H601 C596 0.961 . S
H602 C596 0.960 . S
H603 C599 0.960 . S
H604 C599 0.960 . S
H605 C599 0.959 . S
C606 N607 1.317 . S
C606 N608 1.348 . S
C606 C609 1.485 . S
N607 C606 1.317 . S
N607 N611 1.370 . S
N608 C606 1.348 . S
N608 C610 1.346 . S
C609 C606 1.485 . S
C609 H613 0.960 . S
C609 H614 0.961 . S
C609 H615 0.960 . S
C610 N608 1.346 . S
C610 N611 1.307 . S
C610 C612 1.486 . S
N611 N607 1.370 . S
N611 C610 1.307 . S
C612 C610 1.486 . S
C612 H616 0.960 . S
C612 H617 0.960 . S
C612 H618 0.959 . S
H613 C609 0.960 . S
H614 C609 0.961 . S
H615 C609 0.960 . S
H616 C612 0.960 . S
H617 C612 0.960 . S
H618 C612 0.959 . S
C619 N620 1.317 . S
C619 N621 1.348 . S
C619 C622 1.485 . S
N620 C619 1.317 . S
N620 N624 1.370 . S
N621 C619 1.348 . S
N621 C623 1.346 . S
C622 C619 1.485 . S
C622 H626 0.960 . S
C622 H627 0.961 . S
C622 H628 0.960 . S
C623 N621 1.346 . S
C623 N624 1.307 . S
C623 C625 1.486 . S
N624 N620 1.370 . S
N624 C623 1.307 . S
C625 C623 1.486 . S
C625 H629 0.960 . S
C625 H630 0.960 . S
C625 H631 0.959 . S
H626 C622 0.960 . S
H627 C622 0.961 . S
H628 C622 0.960 . S
H629 C625 0.960 . S
H630 C625 0.960 . S
H631 C625 0.959 . S
C632 N633 1.317 . S
C632 N634 1.348 . S
C632 C635 1.485 . S
N633 C632 1.317 . S
N633 N637 1.370 . S
N634 C632 1.348 . S
N634 C636 1.346 . S
C635 C632 1.485 . S
C635 H639 0.960 . S
C635 H640 0.961 . S
C635 H641 0.960 . S
C636 N634 1.346 . S
C636 N637 1.307 . S
C636 C638 1.486 . S
N637 N633 1.370 . S
N637 C636 1.307 . S
C638 C636 1.486 . S
C638 H642 0.960 . S
C638 H643 0.960 . S
C638 H644 0.959 . S
H639 C635 0.960 . S
H640 C635 0.961 . S
H641 C635 0.960 . S
H642 C638 0.960 . S
H643 C638 0.960 . S
H644 C638 0.959 . S
C645 N646 1.317 . S
C645 N647 1.348 . S
C645 C648 1.485 . S
N646 C645 1.317 . S
N646 N650 1.370 . S
N647 C645 1.348 . S
N647 C649 1.346 . S
C648 C645 1.485 . S
C648 H652 0.960 . S
C648 H653 0.961 . S
C648 H654 0.960 . S
C649 N647 1.346 . S
C649 N650 1.307 . S
C649 C651 1.486 . S
N650 N646 1.370 . S
N650 C649 1.307 . S
C651 C649 1.486 . S
C651 H655 0.960 . S
C651 H656 0.960 . S
C651 H657 0.959 . S
H652 C648 0.960 . S
H653 C648 0.961 . S
H654 C648 0.960 . S
H655 C651 0.960 . S
H656 C651 0.960 . S
H657 C651 0.959 . S
C658 N659 1.317 . S
C658 N660 1.348 . S
C658 C661 1.485 . S
N659 C658 1.317 . S
N659 N663 1.370 . S
N660 C658 1.348 . S
N660 C662 1.346 . S
C661 C658 1.485 . S
C661 H665 0.960 . S
C661 H666 0.961 . S
C661 H667 0.960 . S
C662 N660 1.346 . S
C662 N663 1.307 . S
C662 C664 1.486 . S
N663 N659 1.370 . S
N663 C662 1.307 . S
C664 C662 1.486 . S
C664 H668 0.960 . S
C664 H669 0.960 . S
C664 H670 0.959 . S
H665 C661 0.960 . S
H666 C661 0.961 . S
H667 C661 0.960 . S
H668 C664 0.960 . S
H669 C664 0.960 . S
H670 C664 0.959 . S
C671 N672 1.317 . S
C671 N673 1.348 . S
C671 C674 1.485 . S
N672 C671 1.317 . S
N672 N676 1.370 . S
N673 C671 1.348 . S
N673 C675 1.346 . S
C674 C671 1.485 . S
C674 H678 0.960 . S
C674 H679 0.961 . S
C674 H680 0.960 . S
C675 N673 1.346 . S
C675 N676 1.307 . S
C675 C677 1.486 . S
N676 N672 1.370 . S
N676 C675 1.307 . S
C677 C675 1.486 . S
C677 H681 0.960 . S
C677 H682 0.960 . S
C677 H683 0.959 . S
H678 C674 0.960 . S
H679 C674 0.961 . S
H680 C674 0.960 . S
H681 C677 0.960 . S
H682 C677 0.960 . S
H683 C677 0.959 . S
C684 N685 1.317 . S
C684 N686 1.348 . S
C684 C687 1.485 . S
N685 C684 1.317 . S
N685 N689 1.370 . S
N686 C684 1.348 . S
N686 C688 1.346 . S
C687 C684 1.485 . S
C687 H691 0.960 . S
C687 H692 0.961 . S
C687 H693 0.960 . S
C688 N686 1.346 . S
C688 N689 1.307 . S
C688 C690 1.486 . S
N689 N685 1.370 . S
N689 C688 1.307 . S
C690 C688 1.486 . S
C690 H694 0.960 . S
C690 H695 0.960 . S
C690 H696 0.959 . S
H691 C687 0.960 . S
H692 C687 0.961 . S
H693 C687 0.960 . S
H694 C690 0.960 . S
H695 C690 0.960 . S
H696 C690 0.959 . S
C697 N698 1.317 . S
C697 N699 1.348 . S
C697 C700 1.485 . S
N698 C697 1.317 . S
N698 N702 1.370 . S
N699 C697 1.348 . S
N699 C701 1.346 . S
C700 C697 1.485 . S
C700 H704 0.960 . S
C700 H705 0.961 . S
C700 H706 0.960 . S
C701 N699 1.346 . S
C701 N702 1.307 . S
C701 C703 1.486 . S
N702 N698 1.370 . S
N702 C701 1.307 . S
C703 C701 1.486 . S
C703 H707 0.960 . S
C703 H708 0.960 . S
C703 H709 0.959 . S
H704 C700 0.960 . S
H705 C700 0.961 . S
H706 C700 0.960 . S
H707 C703 0.960 . S
H708 C703 0.960 . S
H709 C703 0.959 . S
C710 N711 1.317 . S
C710 N712 1.348 . S
C710 C713 1.485 . S
N711 C710 1.317 . S
N711 N715 1.370 . S
N712 C710 1.348 . S
N712 C714 1.346 . S
C713 C710 1.485 . S
C713 H717 0.960 . S
C713 H718 0.961 . S
C713 H719 0.960 . S
C714 N712 1.346 . S
C714 N715 1.307 . S
C714 C716 1.486 . S
N715 N711 1.370 . S
N715 C714 1.307 . S
C716 C714 1.486 . S
C716 H720 0.960 . S
C716 H721 0.960 . S
C716 H722 0.959 . S
H717 C713 0.960 . S
H718 C713 0.961 . S
H719 C713 0.960 . S
H720 C716 0.960 . S
H721 C716 0.960 . S
H722 C716 0.959 . S
C723 N724 1.317 . S
C723 N725 1.348 . S
C723 C726 1.485 . S
N724 C723 1.317 . S
N724 N728 1.370 . S
N725 C723 1.348 . S
N725 C727 1.346 . S
C726 C723 1.485 . S
C726 H730 0.960 . S
C726 H731 0.961 . S
C726 H732 0.960 . S
C727 N725 1.346 . S
C727 N728 1.307 . S
C727 C729 1.486 . S
N728 N724 1.370 . S
N728 C727 1.307 . S
C729 C727 1.486 . S
C729 H733 0.960 . S
C729 H734 0.960 . S
C729 H735 0.959 . S
H730 C726 0.960 . S
H731 C726 0.961 . S
H732 C726 0.960 . S
H733 C729 0.960 . S
H734 C729 0.960 . S
H735 C729 0.959 . S
C736 N737 1.317 . S
C736 N738 1.348 . S
C736 C739 1.485 . S
N737 C736 1.317 . S
N737 N741 1.370 . S
N738 C736 1.348 . S
N738 C740 1.346 . S
C739 C736 1.485 . S
C739 H743 0.960 . S
C739 H744 0.961 . S
C739 H745 0.960 . S
C740 N738 1.346 . S
C740 N741 1.307 . S
C740 C742 1.486 . S
N741 N737 1.370 . S
N741 C740 1.307 . S
C742 C740 1.486 . S
C742 H746 0.960 . S
C742 H747 0.960 . S
C742 H748 0.959 . S
H743 C739 0.960 . S
H744 C739 0.961 . S
H745 C739 0.960 . S
H746 C742 0.960 . S
H747 C742 0.960 . S
H748 C742 0.959 . S
C749 N750 1.317 . S
C749 N751 1.348 . S
C749 C752 1.485 . S
N750 C749 1.317 . S
N750 N754 1.370 . S
N751 C749 1.348 . S
N751 C753 1.346 . S
C752 C749 1.485 . S
C752 H756 0.960 . S
C752 H757 0.961 . S
C752 H758 0.960 . S
C753 N751 1.346 . S
C753 N754 1.307 . S
C753 C755 1.486 . S
N754 N750 1.370 . S
N754 C753 1.307 . S
C755 C753 1.486 . S
C755 H759 0.960 . S
C755 H760 0.960 . S
C755 H761 0.959 . S
H756 C752 0.960 . S
H757 C752 0.961 . S
H758 C752 0.960 . S
H759 C755 0.960 . S
H760 C755 0.960 . S
H761 C755 0.959 . S
C762 N763 1.317 . S
C762 N764 1.348 . S
C762 C765 1.485 . S
N763 C762 1.317 . S
N763 N767 1.370 . S
N764 C762 1.348 . S
N764 C766 1.346 . S
C765 C762 1.485 . S
C765 H769 0.960 . S
C765 H770 0.961 . S
C765 H771 0.960 . S
C766 N764 1.346 . S
C766 N767 1.307 . S
C766 C768 1.486 . S
N767 N763 1.370 . S
N767 C766 1.307 . S
C768 C766 1.486 . S
C768 H772 0.960 . S
C768 H773 0.960 . S
C768 H774 0.959 . S
H769 C765 0.960 . S
H770 C765 0.961 . S
H771 C765 0.960 . S
H772 C768 0.960 . S
H773 C768 0.960 . S
H774 C768 0.959 . S
C775 N776 1.317 . S
C775 N777 1.348 . S
C775 C778 1.485 . S
N776 C775 1.317 . S
N776 N780 1.370 . S
N777 C775 1.348 . S
N777 C779 1.346 . S
C778 C775 1.485 . S
C778 H782 0.960 . S
C778 H783 0.961 . S
C778 H784 0.960 . S
C779 N777 1.346 . S
C779 N780 1.307 . S
C779 C781 1.486 . S
N780 N776 1.370 . S
N780 C779 1.307 . S
C781 C779 1.486 . S
C781 H785 0.960 . S
C781 H786 0.960 . S
C781 H787 0.959 . S
H782 C778 0.960 . S
H783 C778 0.961 . S
H784 C778 0.960 . S
H785 C781 0.960 . S
H786 C781 0.960 . S
H787 C781 0.959 . S
C788 N789 1.317 . S
C788 N790 1.348 . S
C788 C791 1.485 . S
N789 C788 1.317 . S
N789 N793 1.370 . S
N790 C788 1.348 . S
N790 C792 1.346 . S
C791 C788 1.485 . S
C791 H795 0.960 . S
C791 H796 0.961 . S
C791 H797 0.960 . S
C792 N790 1.346 . S
C792 N793 1.307 . S
C792 C794 1.486 . S
N793 N789 1.370 . S
N793 C792 1.307 . S
C794 C792 1.486 . S
C794 H798 0.960 . S
C794 H799 0.960 . S
C794 H800 0.959 . S
H795 C791 0.960 . S
H796 C791 0.961 . S
H797 C791 0.960 . S
H798 C794 0.960 . S
H799 C794 0.960 . S
H800 C794 0.959 . S
C801 N802 1.317 . S
C801 N803 1.348 . S
C801 C804 1.485 . S
N802 C801 1.317 . S
N802 N806 1.370 . S
N803 C801 1.348 . S
N803 C805 1.346 . S
C804 C801 1.485 . S
C804 H808 0.960 . S
C804 H809 0.961 . S
C804 H810 0.960 . S
C805 N803 1.346 . S
C805 N806 1.307 . S
C805 C807 1.486 . S
N806 N802 1.370 . S
N806 C805 1.307 . S
C807 C805 1.486 . S
C807 H811 0.960 . S
C807 H812 0.960 . S
C807 H813 0.959 . S
H808 C804 0.960 . S
H809 C804 0.961 . S
H810 C804 0.960 . S
H811 C807 0.960 . S
H812 C807 0.960 . S
H813 C807 0.959 . S
C814 N815 1.317 . S
C814 N816 1.348 . S
C814 C817 1.485 . S
N815 C814 1.317 . S
N815 N819 1.370 . S
N816 C814 1.348 . S
N816 C818 1.346 . S
C817 C814 1.485 . S
C817 H821 0.960 . S
C817 H822 0.961 . S
C817 H823 0.960 . S
C818 N816 1.346 . S
C818 N819 1.307 . S
C818 C820 1.486 . S
N819 N815 1.370 . S
N819 C818 1.307 . S
C820 C818 1.486 . S
C820 H824 0.960 . S
C820 H825 0.960 . S
C820 H826 0.959 . S
H821 C817 0.960 . S
H822 C817 0.961 . S
H823 C817 0.960 . S
H824 C820 0.960 . S
H825 C820 0.960 . S
H826 C820 0.959 . S
C827 N828 1.317 . S
C827 N829 1.348 . S
C827 C830 1.485 . S
N828 C827 1.317 . S
N828 N832 1.370 . S
N829 C827 1.348 . S
N829 C831 1.346 . S
C830 C827 1.485 . S
C830 H834 0.960 . S
C830 H835 0.961 . S
C830 H836 0.960 . S
C831 N829 1.346 . S
C831 N832 1.307 . S
C831 C833 1.486 . S
N832 N828 1.370 . S
N832 C831 1.307 . S
C833 C831 1.486 . S
C833 H837 0.960 . S
C833 H838 0.960 . S
C833 H839 0.959 . S
H834 C830 0.960 . S
H835 C830 0.961 . S
H836 C830 0.960 . S
H837 C833 0.960 . S
H838 C833 0.960 . S
H839 C833 0.959 . S
C840 N841 1.317 . S
C840 N842 1.348 . S
C840 C843 1.485 . S
N841 C840 1.317 . S
N841 N845 1.370 . S
N842 C840 1.348 . S
N842 C844 1.346 . S
C843 C840 1.485 . S
C843 H847 0.960 . S
C843 H848 0.961 . S
C843 H849 0.960 . S
C844 N842 1.346 . S
C844 N845 1.307 . S
C844 C846 1.486 . S
N845 N841 1.370 . S
N845 C844 1.307 . S
C846 C844 1.486 . S
C846 H850 0.960 . S
C846 H851 0.960 . S
C846 H852 0.959 . S
H847 C843 0.960 . S
H848 C843 0.961 . S
H849 C843 0.960 . S
H850 C846 0.960 . S
H851 C846 0.960 . S
H852 C846 0.959 . S
C853 N854 1.317 . S
C853 N855 1.348 . S
C853 C856 1.485 . S
N854 C853 1.317 . S
N854 N858 1.370 . S
N855 C853 1.348 . S
N855 C857 1.346 . S
C856 C853 1.485 . S
C856 H860 0.960 . S
C856 H861 0.961 . S
C856 H862 0.960 . S
C857 N855 1.346 . S
C857 N858 1.307 . S
C857 C859 1.486 . S
N858 N854 1.370 . S
N858 C857 1.307 . S
C859 C857 1.486 . S
C859 H863 0.960 . S
C859 H864 0.960 . S
C859 H865 0.959 . S
H860 C856 0.960 . S
H861 C856 0.961 . S
H862 C856 0.960 . S
H863 C859 0.960 . S
H864 C859 0.960 . S
H865 C859 0.959 . S
C866 N867 1.317 . S
C866 N868 1.348 . S
C866 C869 1.485 . S
N867 C866 1.317 . S
N867 N871 1.370 . S
N868 C866 1.348 . S
N868 C870 1.346 . S
C869 C866 1.485 . S
C869 H873 0.960 . S
C869 H874 0.961 . S
C869 H875 0.960 . S
C870 N868 1.346 . S
C870 N871 1.307 . S
C870 C872 1.486 . S
N871 N867 1.370 . S
N871 C870 1.307 . S
C872 C870 1.486 . S
C872 H876 0.960 . S
C872 H877 0.960 . S
C872 H878 0.959 . S
H873 C869 0.960 . S
H874 C869 0.961 . S
H875 C869 0.960 . S
H876 C872 0.960 . S
H877 C872 0.960 . S
H878 C872 0.959 . S
C879 N880 1.317 . S
C879 N881 1.348 . S
C879 C882 1.485 . S
N880 C879 1.317 . S
N880 N884 1.370 . S
N881 C879 1.348 . S
N881 C883 1.346 . S
C882 C879 1.485 . S
C882 H886 0.960 . S
C882 H887 0.961 . S
C882 H888 0.960 . S
C883 N881 1.346 . S
C883 N884 1.307 . S
C883 C885 1.486 . S
N884 N880 1.370 . S
N884 C883 1.307 . S
C885 C883 1.486 . S
C885 H889 0.960 . S
C885 H890 0.960 . S
C885 H891 0.959 . S
H886 C882 0.960 . S
H887 C882 0.961 . S
H888 C882 0.960 . S
H889 C885 0.960 . S
H890 C885 0.960 . S
H891 C885 0.959 . S
C892 N893 1.317 . S
C892 N894 1.348 . S
C892 C895 1.485 . S
N893 C892 1.317 . S
N893 N897 1.370 . S
N894 C892 1.348 . S
N894 C896 1.346 . S
C895 C892 1.485 . S
C895 H899 0.960 . S
C895 H900 0.961 . S
C895 H901 0.960 . S
C896 N894 1.346 . S
C896 N897 1.307 . S
C896 C898 1.486 . S
N897 N893 1.370 . S
N897 C896 1.307 . S
C898 C896 1.486 . S
C898 H902 0.960 . S
C898 H903 0.960 . S
C898 H904 0.959 . S
H899 C895 0.960 . S
H900 C895 0.961 . S
H901 C895 0.960 . S
H902 C898 0.960 . S
H903 C898 0.960 . S
H904 C898 0.959 . S
C905 N906 1.317 . S
C905 N907 1.348 . S
C905 C908 1.485 . S
N906 C905 1.317 . S
N906 N910 1.370 . S
N907 C905 1.348 . S
N907 C909 1.346 . S
C908 C905 1.485 . S
C908 H912 0.960 . S
C908 H913 0.961 . S
C908 H914 0.960 . S
C909 N907 1.346 . S
C909 N910 1.307 . S
C909 C911 1.486 . S
N910 N906 1.370 . S
N910 C909 1.307 . S
C911 C909 1.486 . S
C911 H915 0.960 . S
C911 H916 0.960 . S
C911 H917 0.959 . S
H912 C908 0.960 . S
H913 C908 0.961 . S
H914 C908 0.960 . S
H915 C911 0.960 . S
H916 C911 0.960 . S
H917 C911 0.959 . S
C918 N919 1.317 . S
C918 N920 1.348 . S
C918 C921 1.485 . S
N919 C918 1.317 . S
N919 N923 1.370 . S
N920 C918 1.348 . S
N920 C922 1.346 . S
C921 C918 1.485 . S
C921 H925 0.960 . S
C921 H926 0.961 . S
C921 H927 0.960 . S
C922 N920 1.346 . S
C922 N923 1.307 . S
C922 C924 1.486 . S
N923 N919 1.370 . S
N923 C922 1.307 . S
C924 C922 1.486 . S
C924 H928 0.960 . S
C924 H929 0.960 . S
C924 H930 0.959 . S
H925 C921 0.960 . S
H926 C921 0.961 . S
H927 C921 0.960 . S
H928 C924 0.960 . S
H929 C924 0.960 . S
H930 C924 0.959 . S
C931 N932 1.317 . S
C931 N933 1.348 . S
C931 C934 1.485 . S
N932 C931 1.317 . S
N932 N936 1.370 . S
N933 C931 1.348 . S
N933 C935 1.346 . S
C934 C931 1.485 . S
C934 H938 0.960 . S
C934 H939 0.961 . S
C934 H940 0.960 . S
C935 N933 1.346 . S
C935 N936 1.307 . S
C935 C937 1.486 . S
N936 N932 1.370 . S
N936 C935 1.307 . S
C937 C935 1.486 . S
C937 H941 0.960 . S
C937 H942 0.960 . S
C937 H943 0.959 . S
H938 C934 0.960 . S
H939 C934 0.961 . S
H940 C934 0.960 . S
H941 C937 0.960 . S
H942 C937 0.960 . S
H943 C937 0.959 . S
C944 N945 1.317 . S
C944 N946 1.348 . S
C944 C947 1.485 . S
N945 C944 1.317 . S
N945 N949 1.370 . S
N946 C944 1.348 . S
N946 C948 1.346 . S
C947 C944 1.485 . S
C947 H951 0.960 . S
C947 H952 0.961 . S
C947 H953 0.960 . S
C948 N946 1.346 . S
C948 N949 1.307 . S
C948 C950 1.486 . S
N949 N945 1.370 . S
N949 C948 1.307 . S
C950 C948 1.486 . S
C950 H954 0.960 . S
C950 H955 0.960 . S
C950 H956 0.959 . S
H951 C947 0.960 . S
H952 C947 0.961 . S
H953 C947 0.960 . S
H954 C950 0.960 . S
H955 C950 0.960 . S
H956 C950 0.959 . S
C957 N958 1.317 . S
C957 N959 1.348 . S
C957 C960 1.485 . S
N958 C957 1.317 . S
N958 N962 1.370 . S
N959 C957 1.348 . S
N959 C961 1.346 . S
C960 C957 1.485 . S
C960 H964 0.960 . S
C960 H965 0.961 . S
C960 H966 0.960 . S
C961 N959 1.346 . S
C961 N962 1.307 . S
C961 C963 1.486 . S
N962 N958 1.370 . S
N962 C961 1.307 . S
C963 C961 1.486 . S
C963 H967 0.960 . S
C963 H968 0.960 . S
C963 H969 0.959 . S
H964 C960 0.960 . S
H965 C960 0.961 . S
H966 C960 0.960 . S
H967 C963 0.960 . S
H968 C963 0.960 . S
H969 C963 0.959 . S
C970 N971 1.317 . S
C970 N972 1.348 . S
C970 C973 1.485 . S
N971 C970 1.317 . S
N971 N975 1.370 . S
N972 C970 1.348 . S
N972 C974 1.346 . S
C973 C970 1.485 . S
C973 H977 0.960 . S
C973 H978 0.961 . S
C973 H979 0.960 . S
C974 N972 1.346 . S
C974 N975 1.307 . S
C974 C976 1.486 . S
N975 N971 1.370 . S
N975 C974 1.307 . S
C976 C974 1.486 . S
C976 H980 0.960 . S
C976 H981 0.960 . S
C976 H982 0.959 . S
H977 C973 0.960 . S
H978 C973 0.961 . S
H979 C973 0.960 . S
H980 C976 0.960 . S
H981 C976 0.960 . S
H982 C976 0.959 . S
C983 N984 1.317 . S
C983 N985 1.348 . S
C983 C986 1.485 . S
N984 C983 1.317 . S
N984 N988 1.370 . S
N985 C983 1.348 . S
N985 C987 1.346 . S
C986 C983 1.485 . S
C986 H990 0.960 . S
C986 H991 0.961 . S
C986 H992 0.960 . S
C987 N985 1.346 . S
C987 N988 1.307 . S
C987 C989 1.486 . S
N988 N984 1.370 . S
N988 C987 1.307 . S
C989 C987 1.486 . S
C989 H993 0.960 . S
C989 H994 0.960 . S
C989 H995 0.959 . S
H990 C986 0.960 . S
H991 C986 0.961 . S
H992 C986 0.960 . S
H993 C989 0.960 . S
H994 C989 0.960 . S
H995 C989 0.959 . S
C996 N997 1.317 . S
C996 N998 1.348 . S
C996 C999 1.485 . S
N997 C996 1.317 . S
N997 N1001 1.370 . S
N998 C996 1.348 . S
N998 C1000 1.346 . S
C999 C996 1.485 . S
C999 H1003 0.960 . S
C999 H1004 0.961 . S
C999 H1005 0.960 . S
C1000 N998 1.346 . S
C1000 N1001 1.307 . S
C1000 C1002 1.486 . S
N1001 N997 1.370 . S
N1001 C1000 1.307 . S
C1002 C1000 1.486 . S
C1002 H1006 0.960 . S
C1002 H1007 0.960 . S
C1002 H1008 0.959 . S
H1003 C999 0.960 . S
H1004 C999 0.961 . S
H1005 C999 0.960 . S
H1006 C1002 0.960 . S
H1007 C1002 0.960 . S
H1008 C1002 0.959 . S
C1009 N1010 1.317 . S
C1009 N1011 1.348 . S
C1009 C1012 1.485 . S
N1010 C1009 1.317 . S
N1010 N1014 1.370 . S
N1011 C1009 1.348 . S
N1011 C1013 1.346 . S
C1012 C1009 1.485 . S
C1012 H1016 0.960 . S
C1012 H1017 0.961 . S
C1012 H1018 0.960 . S
C1013 N1011 1.346 . S
C1013 N1014 1.307 . S
C1013 C1015 1.486 . S
N1014 N1010 1.370 . S
N1014 C1013 1.307 . S
C1015 C1013 1.486 . S
C1015 H1019 0.960 . S
C1015 H1020 0.960 . S
C1015 H1021 0.959 . S
H1016 C1012 0.960 . S
H1017 C1012 0.961 . S
H1018 C1012 0.960 . S
H1019 C1015 0.960 . S
H1020 C1015 0.960 . S
H1021 C1015 0.959 . S
C1022 N1023 1.317 . S
C1022 N1024 1.348 . S
C1022 C1025 1.485 . S
N1023 C1022 1.317 . S
N1023 N1027 1.370 . S
N1024 C1022 1.348 . S
N1024 C1026 1.346 . S
C1025 C1022 1.485 . S
C1025 H1029 0.960 . S
C1025 H1030 0.961 . S
C1025 H1031 0.960 . S
C1026 N1024 1.346 . S
C1026 N1027 1.307 . S
C1026 C1028 1.486 . S
N1027 N1023 1.370 . S
N1027 C1026 1.307 . S
C1028 C1026 1.486 . S
C1028 H1032 0.960 . S
C1028 H1033 0.960 . S
C1028 H1034 0.959 . S
H1029 C1025 0.960 . S
H1030 C1025 0.961 . S
H1031 C1025 0.960 . S
H1032 C1028 0.960 . S
H1033 C1028 0.960 . S
H1034 C1028 0.959 . S
C1035 N1036 1.317 . S
C1035 N1037 1.348 . S
C1035 C1038 1.485 . S
N1036 C1035 1.317 . S
N1036 N1040 1.370 . S
N1037 C1035 1.348 . S
N1037 C1039 1.346 . S
C1038 C1035 1.485 . S
C1038 H1042 0.960 . S
C1038 H1043 0.961 . S
C1038 H1044 0.960 . S
C1039 N1037 1.346 . S
C1039 N1040 1.307 . S
C1039 C1041 1.486 . S
N1040 N1036 1.370 . S
N1040 C1039 1.307 . S
C1041 C1039 1.486 . S
C1041 H1045 0.960 . S
C1041 H1046 0.960 . S
C1041 H1047 0.959 . S
H1042 C1038 0.960 . S
H1043 C1038 0.961 . S
H1044 C1038 0.960 . S
H1045 C1041 0.960 . S
H1046 C1041 0.960 . S
H1047 C1041 0.959 . S
C1048 N1049 1.317 . S
C1048 N1050 1.348 . S
C1048 C1051 1.485 . S
N1049 C1048 1.317 . S
N1049 N1053 1.370 . S
N1050 C1048 1.348 . S
N1050 C1052 1.346 . S
C1051 C1048 1.485 . S
C1051 H1055 0.960 . S
C1051 H1056 0.961 . S
C1051 H1057 0.960 . S
C1052 N1050 1.346 . S
C1052 N1053 1.307 . S
C1052 C1054 1.486 . S
N1053 N1049 1.370 . S
N1053 C1052 1.307 . S
C1054 C1052 1.486 . S
C1054 H1058 0.960 . S
C1054 H1059 0.960 . S
C1054 H1060 0.959 . S
H1055 C1051 0.960 . S
H1056 C1051 0.961 . S
H1057 C1051 0.960 . S
H1058 C1054 0.960 . S
H1059 C1054 0.960 . S
H1060 C1054 0.959 . S
C1061 N1062 1.317 . S
C1061 N1063 1.348 . S
C1061 C1064 1.485 . S
N1062 C1061 1.317 . S
N1062 N1066 1.370 . S
N1063 C1061 1.348 . S
N1063 C1065 1.346 . S
C1064 C1061 1.485 . S
C1064 H1068 0.960 . S
C1064 H1069 0.961 . S
C1064 H1070 0.960 . S
C1065 N1063 1.346 . S
C1065 N1066 1.307 . S
C1065 C1067 1.486 . S
N1066 N1062 1.370 . S
N1066 C1065 1.307 . S
C1067 C1065 1.486 . S
C1067 H1071 0.960 . S
C1067 H1072 0.960 . S
C1067 H1073 0.959 . S
H1068 C1064 0.960 . S
H1069 C1064 0.961 . S
H1070 C1064 0.960 . S
H1071 C1067 0.960 . S
H1072 C1067 0.960 . S
H1073 C1067 0.959 . S
C1074 N1075 1.317 . S
C1074 N1076 1.348 . S
C1074 C1077 1.485 . S
N1075 C1074 1.317 . S
N1075 N1079 1.370 . S
N1076 C1074 1.348 . S
N1076 C1078 1.346 . S
C1077 C1074 1.485 . S
C1077 H1081 0.960 . S
C1077 H1082 0.961 . S
C1077 H1083 0.960 . S
C1078 N1076 1.346 . S
C1078 N1079 1.307 . S
C1078 C1080 1.486 . S
N1079 N1075 1.370 . S
N1079 C1078 1.307 . S
C1080 C1078 1.486 . S
C1080 H1084 0.960 . S
C1080 H1085 0.960 . S
C1080 H1086 0.959 . S
H1081 C1077 0.960 . S
H1082 C1077 0.961 . S
H1083 C1077 0.960 . S
H1084 C1080 0.960 . S
H1085 C1080 0.960 . S
H1086 C1080 0.959 . S
C1087 N1088 1.317 . S
C1087 N1089 1.348 . S
C1087 C1090 1.485 . S
N1088 C1087 1.317 . S
N1088 N1092 1.370 . S
N1089 C1087 1.348 . S
N1089 C1091 1.346 . S
C1090 C1087 1.485 . S
C1090 H1094 0.960 . S
C1090 H1095 0.961 . S
C1090 H1096 0.960 . S
C1091 N1089 1.346 . S
C1091 N1092 1.307 . S
C1091 C1093 1.486 . S
N1092 N1088 1.370 . S
N1092 C1091 1.307 . S
C1093 C1091 1.486 . S
C1093 H1097 0.960 . S
C1093 H1098 0.960 . S
C1093 H1099 0.959 . S
H1094 C1090 0.960 . S
H1095 C1090 0.961 . S
H1096 C1090 0.960 . S
H1097 C1093 0.960 . S
H1098 C1093 0.960 . S
H1099 C1093 0.959 . S
C1100 N1101 1.317 . S
C1100 N1102 1.348 . S
C1100 C1103 1.485 . S
N1101 C1100 1.317 . S
N1101 N1105 1.370 . S
N1102 C1100 1.348 . S
N1102 C1104 1.346 . S
C1103 C1100 1.485 . S
C1103 H1107 0.960 . S
C1103 H1108 0.961 . S
C1103 H1109 0.960 . S
C1104 N1102 1.346 . S
C1104 N1105 1.307 . S
C1104 C1106 1.486 . S
N1105 N1101 1.370 . S
N1105 C1104 1.307 . S
C1106 C1104 1.486 . S
C1106 H1110 0.960 . S
C1106 H1111 0.960 . S
C1106 H1112 0.959 . S
H1107 C1103 0.960 . S
H1108 C1103 0.961 . S
H1109 C1103 0.960 . S
H1110 C1106 0.960 . S
H1111 C1106 0.960 . S
H1112 C1106 0.959 . S
C1113 N1114 1.317 . S
C1113 N1115 1.348 . S
C1113 C1116 1.485 . S
N1114 C1113 1.317 . S
N1114 N1118 1.370 . S
N1115 C1113 1.348 . S
N1115 C1117 1.346 . S
C1116 C1113 1.485 . S
C1116 H1120 0.960 . S
C1116 H1121 0.961 . S
C1116 H1122 0.960 . S
C1117 N1115 1.346 . S
C1117 N1118 1.307 . S
C1117 C1119 1.486 . S
N1118 N1114 1.370 . S
N1118 C1117 1.307 . S
C1119 C1117 1.486 . S
C1119 H1123 0.960 . S
C1119 H1124 0.960 . S
C1119 H1125 0.959 . S
H1120 C1116 0.960 . S
H1121 C1116 0.961 . S
H1122 C1116 0.960 . S
H1123 C1119 0.960 . S
H1124 C1119 0.960 . S
H1125 C1119 0.959 . S
C1126 N1127 1.317 . S
C1126 N1128 1.348 . S
C1126 C1129 1.485 . S
N1127 C1126 1.317 . S
N1127 N1131 1.370 . S
N1128 C1126 1.348 . S
N1128 C1130 1.346 . S
C1129 C1126 1.485 . S
C1129 H1133 0.960 . S
C1129 H1134 0.961 . S
C1129 H1135 0.960 . S
C1130 N1128 1.346 . S
C1130 N1131 1.307 . S
C1130 C1132 1.486 . S
N1131 N1127 1.370 . S
N1131 C1130 1.307 . S
C1132 C1130 1.486 . S
C1132 H1136 0.960 . S
C1132 H1137 0.960 . S
C1132 H1138 0.959 . S
H1133 C1129 0.960 . S
H1134 C1129 0.961 . S
H1135 C1129 0.960 . S
H1136 C1132 0.960 . S
H1137 C1132 0.960 . S
H1138 C1132 0.959 . S
C1139 N1140 1.317 . S
C1139 N1141 1.348 . S
C1139 C1142 1.485 . S
N1140 C1139 1.317 . S
N1140 N1144 1.370 . S
N1141 C1139 1.348 . S
N1141 C1143 1.346 . S
C1142 C1139 1.485 . S
C1142 H1146 0.960 . S
C1142 H1147 0.961 . S
C1142 H1148 0.960 . S
C1143 N1141 1.346 . S
C1143 N1144 1.307 . S
C1143 C1145 1.486 . S
N1144 N1140 1.370 . S
N1144 C1143 1.307 . S
C1145 C1143 1.486 . S
C1145 H1149 0.960 . S
C1145 H1150 0.960 . S
C1145 H1151 0.959 . S
H1146 C1142 0.960 . S
H1147 C1142 0.961 . S
H1148 C1142 0.960 . S
H1149 C1145 0.960 . S
H1150 C1145 0.960 . S
H1151 C1145 0.959 . S
C1152 C1153 1.391 . S
C1152 C1154 1.394 . S
C1152 H1168 0.931 . S
C1153 C1152 1.391 . S
C1153 C1157 1.376 . S
C1154 C1152 1.394 . S
C1154 C1155 1.369 . S
C1154 C1158 1.531 . S
C1155 C1154 1.369 . S
C1155 C1156 1.410 . S
C1155 C1163 1.503 . S
C1156 C1155 1.410 . S
C1156 C1157 1.392 . S
C1156 C1159 1.511 . S
C1157 C1153 1.376 . S
C1157 C1156 1.392 . S
C1157 H1169 0.929 . S
C1158 C1154 1.531 . S
C1158 H1170 0.960 . S
C1158 H1171 0.962 . S
C1158 H1172 0.960 . S
C1159 C1156 1.511 . S
C1159 H1173 0.961 . S
C1159 H1174 0.961 . S
C1159 H1175 0.961 . S
C1160 C1161 1.370 . S
C1160 C1162 1.363 . S
C1160 H1176 0.931 . S
C1161 C1160 1.370 . S
C1161 C1165 1.408 . S
C1162 C1160 1.363 . S
C1162 C1163 1.370 . S
C1162 C1166 1.524 . S
C1163 C1155 1.503 . S
C1163 C1162 1.370 . S
C1163 C1164 1.403 . S
C1164 C1163 1.403 . S
C1164 C1165 1.404 . S
C1164 C1167 1.539 . S
C1165 C1161 1.408 . S
C1165 C1164 1.404 . S
C1165 H1177 0.930 . S
C1166 C1162 1.524 . S
C1166 H1178 0.956 . S
C1166 H1179 0.961 . S
C1166 H1180 0.961 . S
C1167 C1164 1.539 . S
C1167 H1181 0.958 . S
C1167 H1182 0.961 . S
C1167 H1183 0.960 . S
H1168 C1152 0.931 . S
H1169 C1157 0.929 . S
H1170 C1158 0.960 . S
H1171 C1158 0.962 . S
H1172 C1158 0.960 . S
H1173 C1159 0.961 . S
H1174 C1159 0.961 . S
H1175 C1159 0.961 . S
H1176 C1160 0.931 . S
H1177 C1165 0.930 . S
H1178 C1166 0.956 . S
H1179 C1166 0.961 . S
H1180 C1166 0.961 . S
H1181 C1167 0.958 . S
H1182 C1167 0.961 . S
H1183 C1167 0.960 . S
C1184 C1185 1.391 . S
C1184 C1186 1.394 . S
C1184 H1200 0.931 . S
C1185 C1184 1.391 . S
C1185 C1189 1.376 . S
C1186 C1184 1.394 . S
C1186 C1187 1.369 . S
C1186 C1190 1.531 . S
C1187 C1186 1.369 . S
C1187 C1188 1.410 . S
C1187 C1195 1.503 . S
C1188 C1187 1.410 . S
C1188 C1189 1.392 . S
C1188 C1191 1.511 . S
C1189 C1185 1.376 . S
C1189 C1188 1.392 . S
C1189 H1201 0.929 . S
C1190 C1186 1.531 . S
C1190 H1202 0.960 . S
C1190 H1203 0.962 . S
C1190 H1204 0.960 . S
C1191 C1188 1.511 . S
C1191 H1205 0.961 . S
C1191 H1206 0.961 . S
C1191 H1207 0.961 . S
C1192 C1193 1.370 . S
C1192 C1194 1.363 . S
C1192 H1208 0.931 . S
C1193 C1192 1.370 . S
C1193 C1197 1.408 . S
C1194 C1192 1.363 . S
C1194 C1195 1.370 . S
C1194 C1198 1.524 . S
C1195 C1187 1.503 . S
C1195 C1194 1.370 . S
C1195 C1196 1.403 . S
C1196 C1195 1.403 . S
C1196 C1197 1.404 . S
C1196 C1199 1.539 . S
C1197 C1193 1.408 . S
C1197 C1196 1.404 . S
C1197 H1209 0.930 . S
C1198 C1194 1.524 . S
C1198 H1210 0.956 . S
C1198 H1211 0.961 . S
C1198 H1212 0.961 . S
C1199 C1196 1.539 . S
C1199 H1213 0.958 . S
C1199 H1214 0.961 . S
C1199 H1215 0.960 . S
H1200 C1184 0.931 . S
H1201 C1189 0.929 . S
H1202 C1190 0.960 . S
H1203 C1190 0.962 . S
H1204 C1190 0.960 . S
H1205 C1191 0.961 . S
H1206 C1191 0.961 . S
H1207 C1191 0.961 . S
H1208 C1192 0.931 . S
H1209 C1197 0.930 . S
H1210 C1198 0.956 . S
H1211 C1198 0.961 . S
H1212 C1198 0.961 . S
H1213 C1199 0.958 . S
H1214 C1199 0.961 . S
H1215 C1199 0.960 . S
C1216 C1217 1.391 . S
C1216 C1218 1.394 . S
C1216 H1232 0.931 . S
C1217 C1216 1.391 . S
C1217 C1221 1.376 . S
C1218 C1216 1.394 . S
C1218 C1219 1.369 . S
C1218 C1222 1.531 . S
C1219 C1218 1.369 . S
C1219 C1220 1.410 . S
C1219 C1227 1.503 . S
C1220 C1219 1.410 . S
C1220 C1221 1.392 . S
C1220 C1223 1.511 . S
C1221 C1217 1.376 . S
C1221 C1220 1.392 . S
C1221 H1233 0.929 . S
C1222 C1218 1.531 . S
C1222 H1234 0.960 . S
C1222 H1235 0.962 . S
C1222 H1236 0.960 . S
C1223 C1220 1.511 . S
C1223 H1237 0.961 . S
C1223 H1238 0.961 . S
C1223 H1239 0.961 . S
C1224 C1225 1.370 . S
C1224 C1226 1.363 . S
C1224 H1240 0.931 . S
C1225 C1224 1.370 . S
C1225 C1229 1.408 . S
C1226 C1224 1.363 . S
C1226 C1227 1.370 . S
C1226 C1230 1.524 . S
C1227 C1219 1.503 . S
C1227 C1226 1.370 . S
C1227 C1228 1.403 . S
C1228 C1227 1.403 . S
C1228 C1229 1.404 . S
C1228 C1231 1.539 . S
C1229 C1225 1.408 . S
C1229 C1228 1.404 . S
C1229 H1241 0.930 . S
C1230 C1226 1.524 . S
C1230 H1242 0.956 . S
C1230 H1243 0.961 . S
C1230 H1244 0.961 . S
C1231 C1228 1.539 . S
C1231 H1245 0.958 . S
C1231 H1246 0.961 . S
C1231 H1247 0.960 . S
H1232 C1216 0.931 . S
H1233 C1221 0.929 . S
H1234 C1222 0.960 . S
H1235 C1222 0.962 . S
H1236 C1222 0.960 . S
H1237 C1223 0.961 . S
H1238 C1223 0.961 . S
H1239 C1223 0.961 . S
H1240 C1224 0.931 . S
H1241 C1229 0.930 . S
H1242 C1230 0.956 . S
H1243 C1230 0.961 . S
H1244 C1230 0.961 . S
H1245 C1231 0.958 . S
H1246 C1231 0.961 . S
H1247 C1231 0.960 . S
C1248 C1249 1.391 . S
C1248 C1250 1.394 . S
C1248 H1264 0.931 . S
C1249 C1248 1.391 . S
C1249 C1253 1.376 . S
C1250 C1248 1.394 . S
C1250 C1251 1.369 . S
C1250 C1254 1.531 . S
C1251 C1250 1.369 . S
C1251 C1252 1.410 . S
C1251 C1259 1.503 . S
C1252 C1251 1.410 . S
C1252 C1253 1.392 . S
C1252 C1255 1.511 . S
C1253 C1249 1.376 . S
C1253 C1252 1.392 . S
C1253 H1265 0.929 . S
C1254 C1250 1.531 . S
C1254 H1266 0.960 . S
C1254 H1267 0.962 . S
C1254 H1268 0.960 . S
C1255 C1252 1.511 . S
C1255 H1269 0.961 . S
C1255 H1270 0.961 . S
C1255 H1271 0.961 . S
C1256 C1257 1.370 . S
C1256 C1258 1.363 . S
C1256 H1272 0.931 . S
C1257 C1256 1.370 . S
C1257 C1261 1.408 . S
C1258 C1256 1.363 . S
C1258 C1259 1.370 . S
C1258 C1262 1.524 . S
C1259 C1251 1.503 . S
C1259 C1258 1.370 . S
C1259 C1260 1.403 . S
C1260 C1259 1.403 . S
C1260 C1261 1.404 . S
C1260 C1263 1.539 . S
C1261 C1257 1.408 . S
C1261 C1260 1.404 . S
C1261 H1273 0.930 . S
C1262 C1258 1.524 . S
C1262 H1274 0.956 . S
C1262 H1275 0.961 . S
C1262 H1276 0.961 . S
C1263 C1260 1.539 . S
C1263 H1277 0.958 . S
C1263 H1278 0.961 . S
C1263 H1279 0.960 . S
H1264 C1248 0.931 . S
H1265 C1253 0.929 . S
H1266 C1254 0.960 . S
H1267 C1254 0.962 . S
H1268 C1254 0.960 . S
H1269 C1255 0.961 . S
H1270 C1255 0.961 . S
H1271 C1255 0.961 . S
H1272 C1256 0.931 . S
H1273 C1261 0.930 . S
H1274 C1262 0.956 . S
H1275 C1262 0.961 . S
H1276 C1262 0.961 . S
H1277 C1263 0.958 . S
H1278 C1263 0.961 . S
H1279 C1263 0.960 . S
C1280 C1281 1.391 . S
C1280 C1282 1.394 . S
C1280 H1296 0.931 . S
C1281 C1280 1.391 . S
C1281 C1285 1.376 . S
C1282 C1280 1.394 . S
C1282 C1283 1.369 . S
C1282 C1286 1.531 . S
C1283 C1282 1.369 . S
C1283 C1284 1.410 . S
C1283 C1291 1.503 . S
C1284 C1283 1.410 . S
C1284 C1285 1.392 . S
C1284 C1287 1.511 . S
C1285 C1281 1.376 . S
C1285 C1284 1.392 . S
C1285 H1297 0.929 . S
C1286 C1282 1.531 . S
C1286 H1298 0.960 . S
C1286 H1299 0.962 . S
C1286 H1300 0.960 . S
C1287 C1284 1.511 . S
C1287 H1301 0.961 . S
C1287 H1302 0.961 . S
C1287 H1303 0.961 . S
C1288 C1289 1.370 . S
C1288 C1290 1.363 . S
C1288 H1304 0.931 . S
C1289 C1288 1.370 . S
C1289 C1293 1.408 . S
C1290 C1288 1.363 . S
C1290 C1291 1.370 . S
C1290 C1294 1.524 . S
C1291 C1283 1.503 . S
C1291 C1290 1.370 . S
C1291 C1292 1.403 . S
C1292 C1291 1.403 . S
C1292 C1293 1.404 . S
C1292 C1295 1.539 . S
C1293 C1289 1.408 . S
C1293 C1292 1.404 . S
C1293 H1305 0.930 . S
C1294 C1290 1.524 . S
C1294 H1306 0.956 . S
C1294 H1307 0.961 . S
C1294 H1308 0.961 . S
C1295 C1292 1.539 . S
C1295 H1309 0.958 . S
C1295 H1310 0.961 . S
C1295 H1311 0.960 . S
H1296 C1280 0.931 . S
H1297 C1285 0.929 . S
H1298 C1286 0.960 . S
H1299 C1286 0.962 . S
H1300 C1286 0.960 . S
H1301 C1287 0.961 . S
H1302 C1287 0.961 . S
H1303 C1287 0.961 . S
H1304 C1288 0.931 . S
H1305 C1293 0.930 . S
H1306 C1294 0.956 . S
H1307 C1294 0.961 . S
H1308 C1294 0.961 . S
H1309 C1295 0.958 . S
H1310 C1295 0.961 . S
H1311 C1295 0.960 . S
C1312 C1313 1.391 . S
C1312 C1314 1.394 . S
C1312 H1328 0.931 . S
C1313 C1312 1.391 . S
C1313 C1317 1.376 . S
C1314 C1312 1.394 . S
C1314 C1315 1.369 . S
C1314 C1318 1.531 . S
C1315 C1314 1.369 . S
C1315 C1316 1.410 . S
C1315 C1323 1.503 . S
C1316 C1315 1.410 . S
C1316 C1317 1.392 . S
C1316 C1319 1.511 . S
C1317 C1313 1.376 . S
C1317 C1316 1.392 . S
C1317 H1329 0.929 . S
C1318 C1314 1.531 . S
C1318 H1330 0.960 . S
C1318 H1331 0.962 . S
C1318 H1332 0.960 . S
C1319 C1316 1.511 . S
C1319 H1333 0.961 . S
C1319 H1334 0.961 . S
C1319 H1335 0.961 . S
C1320 C1321 1.370 . S
C1320 C1322 1.363 . S
C1320 H1336 0.931 . S
C1321 C1320 1.370 . S
C1321 C1325 1.408 . S
C1322 C1320 1.363 . S
C1322 C1323 1.370 . S
C1322 C1326 1.524 . S
C1323 C1315 1.503 . S
C1323 C1322 1.370 . S
C1323 C1324 1.403 . S
C1324 C1323 1.403 . S
C1324 C1325 1.404 . S
C1324 C1327 1.539 . S
C1325 C1321 1.408 . S
C1325 C1324 1.404 . S
C1325 H1337 0.930 . S
C1326 C1322 1.524 . S
C1326 H1338 0.956 . S
C1326 H1339 0.961 . S
C1326 H1340 0.961 . S
C1327 C1324 1.539 . S
C1327 H1341 0.958 . S
C1327 H1342 0.961 . S
C1327 H1343 0.960 . S
H1328 C1312 0.931 . S
H1329 C1317 0.929 . S
H1330 C1318 0.960 . S
H1331 C1318 0.962 . S
H1332 C1318 0.960 . S
H1333 C1319 0.961 . S
H1334 C1319 0.961 . S
H1335 C1319 0.961 . S
H1336 C1320 0.931 . S
H1337 C1325 0.930 . S
H1338 C1326 0.956 . S
H1339 C1326 0.961 . S
H1340 C1326 0.961 . S
H1341 C1327 0.958 . S
H1342 C1327 0.961 . S
H1343 C1327 0.960 . S
C1344 C1345 1.391 . S
C1344 C1346 1.394 . S
C1344 H1360 0.931 . S
C1345 C1344 1.391 . S
C1345 C1349 1.376 . S
C1346 C1344 1.394 . S
C1346 C1347 1.369 . S
C1346 C1350 1.531 . S
C1347 C1346 1.369 . S
C1347 C1348 1.410 . S
C1347 C1355 1.503 . S
C1348 C1347 1.410 . S
C1348 C1349 1.392 . S
C1348 C1351 1.511 . S
C1349 C1345 1.376 . S
C1349 C1348 1.392 . S
C1349 H1361 0.929 . S
C1350 C1346 1.531 . S
C1350 H1362 0.960 . S
C1350 H1363 0.962 . S
C1350 H1364 0.960 . S
C1351 C1348 1.511 . S
C1351 H1365 0.961 . S
C1351 H1366 0.961 . S
C1351 H1367 0.961 . S
C1352 C1353 1.370 . S
C1352 C1354 1.363 . S
C1352 H1368 0.931 . S
C1353 C1352 1.370 . S
C1353 C1357 1.408 . S
C1354 C1352 1.363 . S
C1354 C1355 1.370 . S
C1354 C1358 1.524 . S
C1355 C1347 1.503 . S
C1355 C1354 1.370 . S
C1355 C1356 1.403 . S
C1356 C1355 1.403 . S
C1356 C1357 1.404 . S
C1356 C1359 1.539 . S
C1357 C1353 1.408 . S
C1357 C1356 1.404 . S
C1357 H1369 0.930 . S
C1358 C1354 1.524 . S
C1358 H1370 0.956 . S
C1358 H1371 0.961 . S
C1358 H1372 0.961 . S
C1359 C1356 1.539 . S
C1359 H1373 0.958 . S
C1359 H1374 0.961 . S
C1359 H1375 0.960 . S
H1360 C1344 0.931 . S
H1361 C1349 0.929 . S
H1362 C1350 0.960 . S
H1363 C1350 0.962 . S
H1364 C1350 0.960 . S
H1365 C1351 0.961 . S
H1366 C1351 0.961 . S
H1367 C1351 0.961 . S
H1368 C1352 0.931 . S
H1369 C1357 0.930 . S
H1370 C1358 0.956 . S
H1371 C1358 0.961 . S
H1372 C1358 0.961 . S
H1373 C1359 0.958 . S
H1374 C1359 0.961 . S
H1375 C1359 0.960 . S
C1376 C1377 1.391 . S
C1376 C1378 1.394 . S
C1376 H1392 0.931 . S
C1377 C1376 1.391 . S
C1377 C1381 1.376 . S
C1378 C1376 1.394 . S
C1378 C1379 1.369 . S
C1378 C1382 1.531 . S
C1379 C1378 1.369 . S
C1379 C1380 1.410 . S
C1379 C1387 1.503 . S
C1380 C1379 1.410 . S
C1380 C1381 1.392 . S
C1380 C1383 1.511 . S
C1381 C1377 1.376 . S
C1381 C1380 1.392 . S
C1381 H1393 0.929 . S
C1382 C1378 1.531 . S
C1382 H1394 0.960 . S
C1382 H1395 0.962 . S
C1382 H1396 0.960 . S
C1383 C1380 1.511 . S
C1383 H1397 0.961 . S
C1383 H1398 0.961 . S
C1383 H1399 0.961 . S
C1384 C1385 1.370 . S
C1384 C1386 1.363 . S
C1384 H1400 0.931 . S
C1385 C1384 1.370 . S
C1385 C1389 1.408 . S
C1386 C1384 1.363 . S
C1386 C1387 1.370 . S
C1386 C1390 1.524 . S
C1387 C1379 1.503 . S
C1387 C1386 1.370 . S
C1387 C1388 1.403 . S
C1388 C1387 1.403 . S
C1388 C1389 1.404 . S
C1388 C1391 1.539 . S
C1389 C1385 1.408 . S
C1389 C1388 1.404 . S
C1389 H1401 0.930 . S
C1390 C1386 1.524 . S
C1390 H1402 0.956 . S
C1390 H1403 0.961 . S
C1390 H1404 0.961 . S
C1391 C1388 1.539 . S
C1391 H1405 0.958 . S
C1391 H1406 0.961 . S
C1391 H1407 0.960 . S
H1392 C1376 0.931 . S
H1393 C1381 0.929 . S
H1394 C1382 0.960 . S
H1395 C1382 0.962 . S
H1396 C1382 0.960 . S
H1397 C1383 0.961 . S
H1398 C1383 0.961 . S
H1399 C1383 0.961 . S
H1400 C1384 0.931 . S
H1401 C1389 0.930 . S
H1402 C1390 0.956 . S
H1403 C1390 0.961 . S
H1404 C1390 0.961 . S
H1405 C1391 0.958 . S
H1406 C1391 0.961 . S
H1407 C1391 0.960 . S
C1408 C1409 1.391 . S
C1408 C1410 1.394 . S
C1408 H1424 0.931 . S
C1409 C1408 1.391 . S
C1409 C1413 1.376 . S
C1410 C1408 1.394 . S
C1410 C1411 1.369 . S
C1410 C1414 1.531 . S
C1411 C1410 1.369 . S
C1411 C1412 1.410 . S
C1411 C1419 1.503 . S
C1412 C1411 1.410 . S
C1412 C1413 1.392 . S
C1412 C1415 1.511 . S
C1413 C1409 1.376 . S
C1413 C1412 1.392 . S
C1413 H1425 0.929 . S
C1414 C1410 1.531 . S
C1414 H1426 0.960 . S
C1414 H1427 0.962 . S
C1414 H1428 0.960 . S
C1415 C1412 1.511 . S
C1415 H1429 0.961 . S
C1415 H1430 0.961 . S
C1415 H1431 0.961 . S
C1416 C1417 1.370 . S
C1416 C1418 1.363 . S
C1416 H1432 0.931 . S
C1417 C1416 1.370 . S
C1417 C1421 1.408 . S
C1418 C1416 1.363 . S
C1418 C1419 1.370 . S
C1418 C1422 1.524 . S
C1419 C1411 1.503 . S
C1419 C1418 1.370 . S
C1419 C1420 1.403 . S
C1420 C1419 1.403 . S
C1420 C1421 1.404 . S
C1420 C1423 1.539 . S
C1421 C1417 1.408 . S
C1421 C1420 1.404 . S
C1421 H1433 0.930 . S
C1422 C1418 1.524 . S
C1422 H1434 0.956 . S
C1422 H1435 0.961 . S
C1422 H1436 0.961 . S
C1423 C1420 1.539 . S
C1423 H1437 0.958 . S
C1423 H1438 0.961 . S
C1423 H1439 0.960 . S
H1424 C1408 0.931 . S
H1425 C1413 0.929 . S
H1426 C1414 0.960 . S
H1427 C1414 0.962 . S
H1428 C1414 0.960 . S
H1429 C1415 0.961 . S
H1430 C1415 0.961 . S
H1431 C1415 0.961 . S
H1432 C1416 0.931 . S
H1433 C1421 0.930 . S
H1434 C1422 0.956 . S
H1435 C1422 0.961 . S
H1436 C1422 0.961 . S
H1437 C1423 0.958 . S
H1438 C1423 0.961 . S
H1439 C1423 0.960 . S
C1440 C1441 1.391 . S
C1440 C1442 1.394 . S
C1440 H1456 0.931 . S
C1441 C1440 1.391 . S
C1441 C1445 1.376 . S
C1442 C1440 1.394 . S
C1442 C1443 1.369 . S
C1442 C1446 1.531 . S
C1443 C1442 1.369 . S
C1443 C1444 1.410 . S
C1443 C1451 1.503 . S
C1444 C1443 1.410 . S
C1444 C1445 1.392 . S
C1444 C1447 1.511 . S
C1445 C1441 1.376 . S
C1445 C1444 1.392 . S
C1445 H1457 0.929 . S
C1446 C1442 1.531 . S
C1446 H1458 0.960 . S
C1446 H1459 0.962 . S
C1446 H1460 0.960 . S
C1447 C1444 1.511 . S
C1447 H1461 0.961 . S
C1447 H1462 0.961 . S
C1447 H1463 0.961 . S
C1448 C1449 1.370 . S
C1448 C1450 1.363 . S
C1448 H1464 0.931 . S
C1449 C1448 1.370 . S
C1449 C1453 1.408 . S
C1450 C1448 1.363 . S
C1450 C1451 1.370 . S
C1450 C1454 1.524 . S
C1451 C1443 1.503 . S
C1451 C1450 1.370 . S
C1451 C1452 1.403 . S
C1452 C1451 1.403 . S
C1452 C1453 1.404 . S
C1452 C1455 1.539 . S
C1453 C1449 1.408 . S
C1453 C1452 1.404 . S
C1453 H1465 0.930 . S
C1454 C1450 1.524 . S
C1454 H1466 0.956 . S
C1454 H1467 0.961 . S
C1454 H1468 0.961 . S
C1455 C1452 1.539 . S
C1455 H1469 0.958 . S
C1455 H1470 0.961 . S
C1455 H1471 0.960 . S
H1456 C1440 0.931 . S
H1457 C1445 0.929 . S
H1458 C1446 0.960 . S
H1459 C1446 0.962 . S
H1460 C1446 0.960 . S
H1461 C1447 0.961 . S
H1462 C1447 0.961 . S
H1463 C1447 0.961 . S
H1464 C1448 0.931 . S
H1465 C1453 0.930 . S
H1466 C1454 0.956 . S
H1467 C1454 0.961 . S
H1468 C1454 0.961 . S
H1469 C1455 0.958 . S
H1470 C1455 0.961 . S
H1471 C1455 0.960 . S
C1472 C1473 1.391 . S
C1472 C1474 1.394 . S
C1472 H1488 0.931 . S
C1473 C1472 1.391 . S
C1473 C1477 1.376 . S
C1474 C1472 1.394 . S
C1474 C1475 1.369 . S
C1474 C1478 1.531 . S
C1475 C1474 1.369 . S
C1475 C1476 1.410 . S
C1475 C1483 1.503 . S
C1476 C1475 1.410 . S
C1476 C1477 1.392 . S
C1476 C1479 1.511 . S
C1477 C1473 1.376 . S
C1477 C1476 1.392 . S
C1477 H1489 0.929 . S
C1478 C1474 1.531 . S
C1478 H1490 0.960 . S
C1478 H1491 0.962 . S
C1478 H1492 0.960 . S
C1479 C1476 1.511 . S
C1479 H1493 0.961 . S
C1479 H1494 0.961 . S
C1479 H1495 0.961 . S
C1480 C1481 1.370 . S
C1480 C1482 1.363 . S
C1480 H1496 0.931 . S
C1481 C1480 1.370 . S
C1481 C1485 1.408 . S
C1482 C1480 1.363 . S
C1482 C1483 1.370 . S
C1482 C1486 1.524 . S
C1483 C1475 1.503 . S
C1483 C1482 1.370 . S
C1483 C1484 1.403 . S
C1484 C1483 1.403 . S
C1484 C1485 1.404 . S
C1484 C1487 1.539 . S
C1485 C1481 1.408 . S
C1485 C1484 1.404 . S
C1485 H1497 0.930 . S
C1486 C1482 1.524 . S
C1486 H1498 0.956 . S
C1486 H1499 0.961 . S
C1486 H1500 0.961 . S
C1487 C1484 1.539 . S
C1487 H1501 0.958 . S
C1487 H1502 0.961 . S
C1487 H1503 0.960 . S
H1488 C1472 0.931 . S
H1489 C1477 0.929 . S
H1490 C1478 0.960 . S
H1491 C1478 0.962 . S
H1492 C1478 0.960 . S
H1493 C1479 0.961 . S
H1494 C1479 0.961 . S
H1495 C1479 0.961 . S
H1496 C1480 0.931 . S
H1497 C1485 0.930 . S
H1498 C1486 0.956 . S
H1499 C1486 0.961 . S
H1500 C1486 0.961 . S
H1501 C1487 0.958 . S
H1502 C1487 0.961 . S
H1503 C1487 0.960 . S
C1504 C1505 1.391 . S
C1504 C1506 1.394 . S
C1504 H1520 0.931 . S
C1505 C1504 1.391 . S
C1505 C1509 1.376 . S
C1506 C1504 1.394 . S
C1506 C1507 1.369 . S
C1506 C1510 1.531 . S
C1507 C1506 1.369 . S
C1507 C1508 1.410 . S
C1507 C1515 1.503 . S
C1508 C1507 1.410 . S
C1508 C1509 1.392 . S
C1508 C1511 1.511 . S
C1509 C1505 1.376 . S
C1509 C1508 1.392 . S
C1509 H1521 0.929 . S
C1510 C1506 1.531 . S
C1510 H1522 0.960 . S
C1510 H1523 0.962 . S
C1510 H1524 0.960 . S
C1511 C1508 1.511 . S
C1511 H1525 0.961 . S
C1511 H1526 0.961 . S
C1511 H1527 0.961 . S
C1512 C1513 1.370 . S
C1512 C1514 1.363 . S
C1512 H1528 0.931 . S
C1513 C1512 1.370 . S
C1513 C1517 1.408 . S
C1514 C1512 1.363 . S
C1514 C1515 1.370 . S
C1514 C1518 1.524 . S
C1515 C1507 1.503 . S
C1515 C1514 1.370 . S
C1515 C1516 1.403 . S
C1516 C1515 1.403 . S
C1516 C1517 1.404 . S
C1516 C1519 1.539 . S
C1517 C1513 1.408 . S
C1517 C1516 1.404 . S
C1517 H1529 0.930 . S
C1518 C1514 1.524 . S
C1518 H1530 0.956 . S
C1518 H1531 0.961 . S
C1518 H1532 0.961 . S
C1519 C1516 1.539 . S
C1519 H1533 0.958 . S
C1519 H1534 0.961 . S
C1519 H1535 0.960 . S
H1520 C1504 0.931 . S
H1521 C1509 0.929 . S
H1522 C1510 0.960 . S
H1523 C1510 0.962 . S
H1524 C1510 0.960 . S
H1525 C1511 0.961 . S
H1526 C1511 0.961 . S
H1527 C1511 0.961 . S
H1528 C1512 0.931 . S
H1529 C1517 0.930 . S
H1530 C1518 0.956 . S
H1531 C1518 0.961 . S
H1532 C1518 0.961 . S
H1533 C1519 0.958 . S
H1534 C1519 0.961 . S
H1535 C1519 0.960 . S
C1536 C1537 1.391 . S
C1536 C1538 1.394 . S
C1536 H1552 0.931 . S
C1537 C1536 1.391 . S
C1537 C1541 1.376 . S
C1538 C1536 1.394 . S
C1538 C1539 1.369 . S
C1538 C1542 1.531 . S
C1539 C1538 1.369 . S
C1539 C1540 1.410 . S
C1539 C1547 1.503 . S
C1540 C1539 1.410 . S
C1540 C1541 1.392 . S
C1540 C1543 1.511 . S
C1541 C1537 1.376 . S
C1541 C1540 1.392 . S
C1541 H1553 0.929 . S
C1542 C1538 1.531 . S
C1542 H1554 0.960 . S
C1542 H1555 0.962 . S
C1542 H1556 0.960 . S
C1543 C1540 1.511 . S
C1543 H1557 0.961 . S
C1543 H1558 0.961 . S
C1543 H1559 0.961 . S
C1544 C1545 1.370 . S
C1544 C1546 1.363 . S
C1544 H1560 0.931 . S
C1545 C1544 1.370 . S
C1545 C1549 1.408 . S
C1546 C1544 1.363 . S
C1546 C1547 1.370 . S
C1546 C1550 1.524 . S
C1547 C1539 1.503 . S
C1547 C1546 1.370 . S
C1547 C1548 1.403 . S
C1548 C1547 1.403 . S
C1548 C1549 1.404 . S
C1548 C1551 1.539 . S
C1549 C1545 1.408 . S
C1549 C1548 1.404 . S
C1549 H1561 0.930 . S
C1550 C1546 1.524 . S
C1550 H1562 0.956 . S
C1550 H1563 0.961 . S
C1550 H1564 0.961 . S
C1551 C1548 1.539 . S
C1551 H1565 0.958 . S
C1551 H1566 0.961 . S
C1551 H1567 0.960 . S
H1552 C1536 0.931 . S
H1553 C1541 0.929 . S
H1554 C1542 0.960 . S
H1555 C1542 0.962 . S
H1556 C1542 0.960 . S
H1557 C1543 0.961 . S
H1558 C1543 0.961 . S
H1559 C1543 0.961 . S
H1560 C1544 0.931 . S
H1561 C1549 0.930 . S
H1562 C1550 0.956 . S
H1563 C1550 0.961 . S
H1564 C1550 0.961 . S
H1565 C1551 0.958 . S
H1566 C1551 0.961 . S
H1567 C1551 0.960 . S
C1568 C1569 1.391 . S
C1568 C1570 1.394 . S
C1568 H1584 0.931 . S
C1569 C1568 1.391 . S
C1569 C1573 1.376 . S
C1570 C1568 1.394 . S
C1570 C1571 1.369 . S
C1570 C1574 1.531 . S
C1571 C1570 1.369 . S
C1571 C1572 1.410 . S
C1571 C1579 1.503 . S
C1572 C1571 1.410 . S
C1572 C1573 1.392 . S
C1572 C1575 1.511 . S
C1573 C1569 1.376 . S
C1573 C1572 1.392 . S
C1573 H1585 0.929 . S
C1574 C1570 1.531 . S
C1574 H1586 0.960 . S
C1574 H1587 0.962 . S
C1574 H1588 0.960 . S
C1575 C1572 1.511 . S
C1575 H1589 0.961 . S
C1575 H1590 0.961 . S
C1575 H1591 0.961 . S
C1576 C1577 1.370 . S
C1576 C1578 1.363 . S
C1576 H1592 0.931 . S
C1577 C1576 1.370 . S
C1577 C1581 1.408 . S
C1578 C1576 1.363 . S
C1578 C1579 1.370 . S
C1578 C1582 1.524 . S
C1579 C1571 1.503 . S
C1579 C1578 1.370 . S
C1579 C1580 1.403 . S
C1580 C1579 1.403 . S
C1580 C1581 1.404 . S
C1580 C1583 1.539 . S
C1581 C1577 1.408 . S
C1581 C1580 1.404 . S
C1581 H1593 0.930 . S
C1582 C1578 1.524 . S
C1582 H1594 0.956 . S
C1582 H1595 0.961 . S
C1582 H1596 0.961 . S
C1583 C1580 1.539 . S
C1583 H1597 0.958 . S
C1583 H1598 0.961 . S
C1583 H1599 0.960 . S
H1584 C1568 0.931 . S
H1585 C1573 0.929 . S
H1586 C1574 0.960 . S
H1587 C1574 0.962 . S
H1588 C1574 0.960 . S
H1589 C1575 0.961 . S
H1590 C1575 0.961 . S
H1591 C1575 0.961 . S
H1592 C1576 0.931 . S
H1593 C1581 0.930 . S
H1594 C1582 0.956 . S
H1595 C1582 0.961 . S
H1596 C1582 0.961 . S
H1597 C1583 0.958 . S
H1598 C1583 0.961 . S
H1599 C1583 0.960 . S
C1600 C1601 1.391 . S
C1600 C1602 1.394 . S
C1600 H1616 0.931 . S
C1601 C1600 1.391 . S
C1601 C1605 1.376 . S
C1602 C1600 1.394 . S
C1602 C1603 1.369 . S
C1602 C1606 1.531 . S
C1603 C1602 1.369 . S
C1603 C1604 1.410 . S
C1603 C1611 1.503 . S
C1604 C1603 1.410 . S
C1604 C1605 1.392 . S
C1604 C1607 1.511 . S
C1605 C1601 1.376 . S
C1605 C1604 1.392 . S
C1605 H1617 0.929 . S
C1606 C1602 1.531 . S
C1606 H1618 0.960 . S
C1606 H1619 0.962 . S
C1606 H1620 0.960 . S
C1607 C1604 1.511 . S
C1607 H1621 0.961 . S
C1607 H1622 0.961 . S
C1607 H1623 0.961 . S
C1608 C1609 1.370 . S
C1608 C1610 1.363 . S
C1608 H1624 0.931 . S
C1609 C1608 1.370 . S
C1609 C1613 1.408 . S
C1610 C1608 1.363 . S
C1610 C1611 1.370 . S
C1610 C1614 1.524 . S
C1611 C1603 1.503 . S
C1611 C1610 1.370 . S
C1611 C1612 1.403 . S
C1612 C1611 1.403 . S
C1612 C1613 1.404 . S
C1612 C1615 1.539 . S
C1613 C1609 1.408 . S
C1613 C1612 1.404 . S
C1613 H1625 0.930 . S
C1614 C1610 1.524 . S
C1614 H1626 0.956 . S
C1614 H1627 0.961 . S
C1614 H1628 0.961 . S
C1615 C1612 1.539 . S
C1615 H1629 0.958 . S
C1615 H1630 0.961 . S
C1615 H1631 0.960 . S
H1616 C1600 0.931 . S
H1617 C1605 0.929 . S
H1618 C1606 0.960 . S
H1619 C1606 0.962 . S
H1620 C1606 0.960 . S
H1621 C1607 0.961 . S
H1622 C1607 0.961 . S
H1623 C1607 0.961 . S
H1624 C1608 0.931 . S
H1625 C1613 0.930 . S
H1626 C1614 0.956 . S
H1627 C1614 0.961 . S
H1628 C1614 0.961 . S
H1629 C1615 0.958 . S
H1630 C1615 0.961 . S
H1631 C1615 0.960 . S
C1632 C1633 1.391 . S
C1632 C1634 1.394 . S
C1632 H1648 0.931 . S
C1633 C1632 1.391 . S
C1633 C1637 1.376 . S
C1634 C1632 1.394 . S
C1634 C1635 1.369 . S
C1634 C1638 1.531 . S
C1635 C1634 1.369 . S
C1635 C1636 1.410 . S
C1635 C1643 1.503 . S
C1636 C1635 1.410 . S
C1636 C1637 1.392 . S
C1636 C1639 1.511 . S
C1637 C1633 1.376 . S
C1637 C1636 1.392 . S
C1637 H1649 0.929 . S
C1638 C1634 1.531 . S
C1638 H1650 0.960 . S
C1638 H1651 0.962 . S
C1638 H1652 0.960 . S
C1639 C1636 1.511 . S
C1639 H1653 0.961 . S
C1639 H1654 0.961 . S
C1639 H1655 0.961 . S
C1640 C1641 1.370 . S
C1640 C1642 1.363 . S
C1640 H1656 0.931 . S
C1641 C1640 1.370 . S
C1641 C1645 1.408 . S
C1642 C1640 1.363 . S
C1642 C1643 1.370 . S
C1642 C1646 1.524 . S
C1643 C1635 1.503 . S
C1643 C1642 1.370 . S
C1643 C1644 1.403 . S
C1644 C1643 1.403 . S
C1644 C1645 1.404 . S
C1644 C1647 1.539 . S
C1645 C1641 1.408 . S
C1645 C1644 1.404 . S
C1645 H1657 0.930 . S
C1646 C1642 1.524 . S
C1646 H1658 0.956 . S
C1646 H1659 0.961 . S
C1646 H1660 0.961 . S
C1647 C1644 1.539 . S
C1647 H1661 0.958 . S
C1647 H1662 0.961 . S
C1647 H1663 0.960 . S
H1648 C1632 0.931 . S
H1649 C1637 0.929 . S
H1650 C1638 0.960 . S
H1651 C1638 0.962 . S
H1652 C1638 0.960 . S
H1653 C1639 0.961 . S
H1654 C1639 0.961 . S
H1655 C1639 0.961 . S
H1656 C1640 0.931 . S
H1657 C1645 0.930 . S
H1658 C1646 0.956 . S
H1659 C1646 0.961 . S
H1660 C1646 0.961 . S
H1661 C1647 0.958 . S
H1662 C1647 0.961 . S
H1663 C1647 0.960 . S
C1664 C1665 1.391 . S
C1664 C1666 1.394 . S
C1664 H1680 0.931 . S
C1665 C1664 1.391 . S
C1665 C1669 1.376 . S
C1666 C1664 1.394 . S
C1666 C1667 1.369 . S
C1666 C1670 1.531 . S
C1667 C1666 1.369 . S
C1667 C1668 1.410 . S
C1667 C1675 1.503 . S
C1668 C1667 1.410 . S
C1668 C1669 1.392 . S
C1668 C1671 1.511 . S
C1669 C1665 1.376 . S
C1669 C1668 1.392 . S
C1669 H1681 0.929 . S
C1670 C1666 1.531 . S
C1670 H1682 0.960 . S
C1670 H1683 0.962 . S
C1670 H1684 0.960 . S
C1671 C1668 1.511 . S
C1671 H1685 0.961 . S
C1671 H1686 0.961 . S
C1671 H1687 0.961 . S
C1672 C1673 1.370 . S
C1672 C1674 1.363 . S
C1672 H1688 0.931 . S
C1673 C1672 1.370 . S
C1673 C1677 1.408 . S
C1674 C1672 1.363 . S
C1674 C1675 1.370 . S
C1674 C1678 1.524 . S
C1675 C1667 1.503 . S
C1675 C1674 1.370 . S
C1675 C1676 1.403 . S
C1676 C1675 1.403 . S
C1676 C1677 1.404 . S
C1676 C1679 1.539 . S
C1677 C1673 1.408 . S
C1677 C1676 1.404 . S
C1677 H1689 0.930 . S
C1678 C1674 1.524 . S
C1678 H1690 0.956 . S
C1678 H1691 0.961 . S
C1678 H1692 0.961 . S
C1679 C1676 1.539 . S
C1679 H1693 0.958 . S
C1679 H1694 0.961 . S
C1679 H1695 0.960 . S
H1680 C1664 0.931 . S
H1681 C1669 0.929 . S
H1682 C1670 0.960 . S
H1683 C1670 0.962 . S
H1684 C1670 0.960 . S
H1685 C1671 0.961 . S
H1686 C1671 0.961 . S
H1687 C1671 0.961 . S
H1688 C1672 0.931 . S
H1689 C1677 0.930 . S
H1690 C1678 0.956 . S
H1691 C1678 0.961 . S
H1692 C1678 0.961 . S
H1693 C1679 0.958 . S
H1694 C1679 0.961 . S
H1695 C1679 0.960 . S
C1696 C1697 1.391 . S
C1696 C1698 1.394 . S
C1696 H1712 0.931 . S
C1697 C1696 1.391 . S
C1697 C1701 1.376 . S
C1698 C1696 1.394 . S
C1698 C1699 1.369 . S
C1698 C1702 1.531 . S
C1699 C1698 1.369 . S
C1699 C1700 1.410 . S
C1699 C1707 1.503 . S
C1700 C1699 1.410 . S
C1700 C1701 1.392 . S
C1700 C1703 1.511 . S
C1701 C1697 1.376 . S
C1701 C1700 1.392 . S
C1701 H1713 0.929 . S
C1702 C1698 1.531 . S
C1702 H1714 0.960 . S
C1702 H1715 0.962 . S
C1702 H1716 0.960 . S
C1703 C1700 1.511 . S
C1703 H1717 0.961 . S
C1703 H1718 0.961 . S
C1703 H1719 0.961 . S
C1704 C1705 1.370 . S
C1704 C1706 1.363 . S
C1704 H1720 0.931 . S
C1705 C1704 1.370 . S
C1705 C1709 1.408 . S
C1706 C1704 1.363 . S
C1706 C1707 1.370 . S
C1706 C1710 1.524 . S
C1707 C1699 1.503 . S
C1707 C1706 1.370 . S
C1707 C1708 1.403 . S
C1708 C1707 1.403 . S
C1708 C1709 1.404 . S
C1708 C1711 1.539 . S
C1709 C1705 1.408 . S
C1709 C1708 1.404 . S
C1709 H1721 0.930 . S
C1710 C1706 1.524 . S
C1710 H1722 0.956 . S
C1710 H1723 0.961 . S
C1710 H1724 0.961 . S
C1711 C1708 1.539 . S
C1711 H1725 0.958 . S
C1711 H1726 0.961 . S
C1711 H1727 0.960 . S
H1712 C1696 0.931 . S
H1713 C1701 0.929 . S
H1714 C1702 0.960 . S
H1715 C1702 0.962 . S
H1716 C1702 0.960 . S
H1717 C1703 0.961 . S
H1718 C1703 0.961 . S
H1719 C1703 0.961 . S
H1720 C1704 0.931 . S
H1721 C1709 0.930 . S
H1722 C1710 0.956 . S
H1723 C1710 0.961 . S
H1724 C1710 0.961 . S
H1725 C1711 0.958 . S
H1726 C1711 0.961 . S
H1727 C1711 0.960 . S
C1728 C1729 1.391 . S
C1728 C1730 1.394 . S
C1728 H1744 0.931 . S
C1729 C1728 1.391 . S
C1729 C1733 1.376 . S
C1730 C1728 1.394 . S
C1730 C1731 1.369 . S
C1730 C1734 1.531 . S
C1731 C1730 1.369 . S
C1731 C1732 1.410 . S
C1731 C1739 1.503 . S
C1732 C1731 1.410 . S
C1732 C1733 1.392 . S
C1732 C1735 1.511 . S
C1733 C1729 1.376 . S
C1733 C1732 1.392 . S
C1733 H1745 0.929 . S
C1734 C1730 1.531 . S
C1734 H1746 0.960 . S
C1734 H1747 0.962 . S
C1734 H1748 0.960 . S
C1735 C1732 1.511 . S
C1735 H1749 0.961 . S
C1735 H1750 0.961 . S
C1735 H1751 0.961 . S
C1736 C1737 1.370 . S
C1736 C1738 1.363 . S
C1736 H1752 0.931 . S
C1737 C1736 1.370 . S
C1737 C1741 1.408 . S
C1738 C1736 1.363 . S
C1738 C1739 1.370 . S
C1738 C1742 1.524 . S
C1739 C1731 1.503 . S
C1739 C1738 1.370 . S
C1739 C1740 1.403 . S
C1740 C1739 1.403 . S
C1740 C1741 1.404 . S
C1740 C1743 1.539 . S
C1741 C1737 1.408 . S
C1741 C1740 1.404 . S
C1741 H1753 0.930 . S
C1742 C1738 1.524 . S
C1742 H1754 0.956 . S
C1742 H1755 0.961 . S
C1742 H1756 0.961 . S
C1743 C1740 1.539 . S
C1743 H1757 0.958 . S
C1743 H1758 0.961 . S
C1743 H1759 0.960 . S
H1744 C1728 0.931 . S
H1745 C1733 0.929 . S
H1746 C1734 0.960 . S
H1747 C1734 0.962 . S
H1748 C1734 0.960 . S
H1749 C1735 0.961 . S
H1750 C1735 0.961 . S
H1751 C1735 0.961 . S
H1752 C1736 0.931 . S
H1753 C1741 0.930 . S
H1754 C1742 0.956 . S
H1755 C1742 0.961 . S
H1756 C1742 0.961 . S
H1757 C1743 0.958 . S
H1758 C1743 0.961 . S
H1759 C1743 0.960 . S
C1760 C1761 1.391 . S
C1760 C1762 1.394 . S
C1760 H1776 0.931 . S
C1761 C1760 1.391 . S
C1761 C1765 1.376 . S
C1762 C1760 1.394 . S
C1762 C1763 1.369 . S
C1762 C1766 1.531 . S
C1763 C1762 1.369 . S
C1763 C1764 1.410 . S
C1763 C1771 1.503 . S
C1764 C1763 1.410 . S
C1764 C1765 1.392 . S
C1764 C1767 1.511 . S
C1765 C1761 1.376 . S
C1765 C1764 1.392 . S
C1765 H1777 0.929 . S
C1766 C1762 1.531 . S
C1766 H1778 0.960 . S
C1766 H1779 0.962 . S
C1766 H1780 0.960 . S
C1767 C1764 1.511 . S
C1767 H1781 0.961 . S
C1767 H1782 0.961 . S
C1767 H1783 0.961 . S
C1768 C1769 1.370 . S
C1768 C1770 1.363 . S
C1768 H1784 0.931 . S
C1769 C1768 1.370 . S
C1769 C1773 1.408 . S
C1770 C1768 1.363 . S
C1770 C1771 1.370 . S
C1770 C1774 1.524 . S
C1771 C1763 1.503 . S
C1771 C1770 1.370 . S
C1771 C1772 1.403 . S
C1772 C1771 1.403 . S
C1772 C1773 1.404 . S
C1772 C1775 1.539 . S
C1773 C1769 1.408 . S
C1773 C1772 1.404 . S
C1773 H1785 0.930 . S
C1774 C1770 1.524 . S
C1774 H1786 0.956 . S
C1774 H1787 0.961 . S
C1774 H1788 0.961 . S
C1775 C1772 1.539 . S
C1775 H1789 0.958 . S
C1775 H1790 0.961 . S
C1775 H1791 0.960 . S
H1776 C1760 0.931 . S
H1777 C1765 0.929 . S
H1778 C1766 0.960 . S
H1779 C1766 0.962 . S
H1780 C1766 0.960 . S
H1781 C1767 0.961 . S
H1782 C1767 0.961 . S
H1783 C1767 0.961 . S
H1784 C1768 0.931 . S
H1785 C1773 0.930 . S
H1786 C1774 0.956 . S
H1787 C1774 0.961 . S
H1788 C1774 0.961 . S
H1789 C1775 0.958 . S
H1790 C1775 0.961 . S
H1791 C1775 0.960 . S
C1792 C1793 1.391 . S
C1792 C1794 1.394 . S
C1792 H1808 0.931 . S
C1793 C1792 1.391 . S
C1793 C1797 1.376 . S
C1794 C1792 1.394 . S
C1794 C1795 1.369 . S
C1794 C1798 1.531 . S
C1795 C1794 1.369 . S
C1795 C1796 1.410 . S
C1795 C1803 1.503 . S
C1796 C1795 1.410 . S
C1796 C1797 1.392 . S
C1796 C1799 1.511 . S
C1797 C1793 1.376 . S
C1797 C1796 1.392 . S
C1797 H1809 0.929 . S
C1798 C1794 1.531 . S
C1798 H1810 0.960 . S
C1798 H1811 0.962 . S
C1798 H1812 0.960 . S
C1799 C1796 1.511 . S
C1799 H1813 0.961 . S
C1799 H1814 0.961 . S
C1799 H1815 0.961 . S
C1800 C1801 1.370 . S
C1800 C1802 1.363 . S
C1800 H1816 0.931 . S
C1801 C1800 1.370 . S
C1801 C1805 1.408 . S
C1802 C1800 1.363 . S
C1802 C1803 1.370 . S
C1802 C1806 1.524 . S
C1803 C1795 1.503 . S
C1803 C1802 1.370 . S
C1803 C1804 1.403 . S
C1804 C1803 1.403 . S
C1804 C1805 1.404 . S
C1804 C1807 1.539 . S
C1805 C1801 1.408 . S
C1805 C1804 1.404 . S
C1805 H1817 0.930 . S
C1806 C1802 1.524 . S
C1806 H1818 0.956 . S
C1806 H1819 0.961 . S
C1806 H1820 0.961 . S
C1807 C1804 1.539 . S
C1807 H1821 0.958 . S
C1807 H1822 0.961 . S
C1807 H1823 0.960 . S
H1808 C1792 0.931 . S
H1809 C1797 0.929 . S
H1810 C1798 0.960 . S
H1811 C1798 0.962 . S
H1812 C1798 0.960 . S
H1813 C1799 0.961 . S
H1814 C1799 0.961 . S
H1815 C1799 0.961 . S
H1816 C1800 0.931 . S
H1817 C1805 0.930 . S
H1818 C1806 0.956 . S
H1819 C1806 0.961 . S
H1820 C1806 0.961 . S
H1821 C1807 0.958 . S
H1822 C1807 0.961 . S
H1823 C1807 0.960 . S
C1824 C1825 1.391 . S
C1824 C1826 1.394 . S
C1824 H1840 0.931 . S
C1825 C1824 1.391 . S
C1825 C1829 1.376 . S
C1826 C1824 1.394 . S
C1826 C1827 1.369 . S
C1826 C1830 1.531 . S
C1827 C1826 1.369 . S
C1827 C1828 1.410 . S
C1827 C1835 1.503 . S
C1828 C1827 1.410 . S
C1828 C1829 1.392 . S
C1828 C1831 1.511 . S
C1829 C1825 1.376 . S
C1829 C1828 1.392 . S
C1829 H1841 0.929 . S
C1830 C1826 1.531 . S
C1830 H1842 0.960 . S
C1830 H1843 0.962 . S
C1830 H1844 0.960 . S
C1831 C1828 1.511 . S
C1831 H1845 0.961 . S
C1831 H1846 0.961 . S
C1831 H1847 0.961 . S
C1832 C1833 1.370 . S
C1832 C1834 1.363 . S
C1832 H1848 0.931 . S
C1833 C1832 1.370 . S
C1833 C1837 1.408 . S
C1834 C1832 1.363 . S
C1834 C1835 1.370 . S
C1834 C1838 1.524 . S
C1835 C1827 1.503 . S
C1835 C1834 1.370 . S
C1835 C1836 1.403 . S
C1836 C1835 1.403 . S
C1836 C1837 1.404 . S
C1836 C1839 1.539 . S
C1837 C1833 1.408 . S
C1837 C1836 1.404 . S
C1837 H1849 0.930 . S
C1838 C1834 1.524 . S
C1838 H1850 0.956 . S
C1838 H1851 0.961 . S
C1838 H1852 0.961 . S
C1839 C1836 1.539 . S
C1839 H1853 0.958 . S
C1839 H1854 0.961 . S
C1839 H1855 0.960 . S
H1840 C1824 0.931 . S
H1841 C1829 0.929 . S
H1842 C1830 0.960 . S
H1843 C1830 0.962 . S
H1844 C1830 0.960 . S
H1845 C1831 0.961 . S
H1846 C1831 0.961 . S
H1847 C1831 0.961 . S
H1848 C1832 0.931 . S
H1849 C1837 0.930 . S
H1850 C1838 0.956 . S
H1851 C1838 0.961 . S
H1852 C1838 0.961 . S
H1853 C1839 0.958 . S
H1854 C1839 0.961 . S
H1855 C1839 0.960 . S
C1856 C1857 1.391 . S
C1856 C1858 1.394 . S
C1856 H1872 0.931 . S
C1857 C1856 1.391 . S
C1857 C1861 1.376 . S
C1858 C1856 1.394 . S
C1858 C1859 1.369 . S
C1858 C1862 1.531 . S
C1859 C1858 1.369 . S
C1859 C1860 1.410 . S
C1859 C1867 1.503 . S
C1860 C1859 1.410 . S
C1860 C1861 1.392 . S
C1860 C1863 1.511 . S
C1861 C1857 1.376 . S
C1861 C1860 1.392 . S
C1861 H1873 0.929 . S
C1862 C1858 1.531 . S
C1862 H1874 0.960 . S
C1862 H1875 0.962 . S
C1862 H1876 0.960 . S
C1863 C1860 1.511 . S
C1863 H1877 0.961 . S
C1863 H1878 0.961 . S
C1863 H1879 0.961 . S
C1864 C1865 1.370 . S
C1864 C1866 1.363 . S
C1864 H1880 0.931 . S
C1865 C1864 1.370 . S
C1865 C1869 1.408 . S
C1866 C1864 1.363 . S
C1866 C1867 1.370 . S
C1866 C1870 1.524 . S
C1867 C1859 1.503 . S
C1867 C1866 1.370 . S
C1867 C1868 1.403 . S
C1868 C1867 1.403 . S
C1868 C1869 1.404 . S
C1868 C1871 1.539 . S
C1869 C1865 1.408 . S
C1869 C1868 1.404 . S
C1869 H1881 0.930 . S
C1870 C1866 1.524 . S
C1870 H1882 0.956 . S
C1870 H1883 0.961 . S
C1870 H1884 0.961 . S
C1871 C1868 1.539 . S
C1871 H1885 0.958 . S
C1871 H1886 0.961 . S
C1871 H1887 0.960 . S
H1872 C1856 0.931 . S
H1873 C1861 0.929 . S
H1874 C1862 0.960 . S
H1875 C1862 0.962 . S
H1876 C1862 0.960 . S
H1877 C1863 0.961 . S
H1878 C1863 0.961 . S
H1879 C1863 0.961 . S
H1880 C1864 0.931 . S
H1881 C1869 0.930 . S
H1882 C1870 0.956 . S
H1883 C1870 0.961 . S
H1884 C1870 0.961 . S
H1885 C1871 0.958 . S
H1886 C1871 0.961 . S
H1887 C1871 0.960 . S
C1888 C1889 1.391 . S
C1888 C1890 1.394 . S
C1888 H1904 0.931 . S
C1889 C1888 1.391 . S
C1889 C1893 1.376 . S
C1890 C1888 1.394 . S
C1890 C1891 1.369 . S
C1890 C1894 1.531 . S
C1891 C1890 1.369 . S
C1891 C1892 1.410 . S
C1891 C1899 1.503 . S
C1892 C1891 1.410 . S
C1892 C1893 1.392 . S
C1892 C1895 1.511 . S
C1893 C1889 1.376 . S
C1893 C1892 1.392 . S
C1893 H1905 0.929 . S
C1894 C1890 1.531 . S
C1894 H1906 0.960 . S
C1894 H1907 0.962 . S
C1894 H1908 0.960 . S
C1895 C1892 1.511 . S
C1895 H1909 0.961 . S
C1895 H1910 0.961 . S
C1895 H1911 0.961 . S
C1896 C1897 1.370 . S
C1896 C1898 1.363 . S
C1896 H1912 0.931 . S
C1897 C1896 1.370 . S
C1897 C1901 1.408 . S
C1898 C1896 1.363 . S
C1898 C1899 1.370 . S
C1898 C1902 1.524 . S
C1899 C1891 1.503 . S
C1899 C1898 1.370 . S
C1899 C1900 1.403 . S
C1900 C1899 1.403 . S
C1900 C1901 1.404 . S
C1900 C1903 1.539 . S
C1901 C1897 1.408 . S
C1901 C1900 1.404 . S
C1901 H1913 0.930 . S
C1902 C1898 1.524 . S
C1902 H1914 0.956 . S
C1902 H1915 0.961 . S
C1902 H1916 0.961 . S
C1903 C1900 1.539 . S
C1903 H1917 0.958 . S
C1903 H1918 0.961 . S
C1903 H1919 0.960 . S
H1904 C1888 0.931 . S
H1905 C1893 0.929 . S
H1906 C1894 0.960 . S
H1907 C1894 0.962 . S
H1908 C1894 0.960 . S
H1909 C1895 0.961 . S
H1910 C1895 0.961 . S
H1911 C1895 0.961 . S
H1912 C1896 0.931 . S
H1913 C1901 0.930 . S
H1914 C1902 0.956 . S
H1915 C1902 0.961 . S
H1916 C1902 0.961 . S
H1917 C1903 0.958 . S
H1918 C1903 0.961 . S
H1919 C1903 0.960 . S
C1920 C1921 1.391 . S
C1920 C1922 1.394 . S
C1920 H1936 0.931 . S
C1921 C1920 1.391 . S
C1921 C1925 1.376 . S
C1922 C1920 1.394 . S
C1922 C1923 1.369 . S
C1922 C1926 1.531 . S
C1923 C1922 1.369 . S
C1923 C1924 1.410 . S
C1923 C1931 1.503 . S
C1924 C1923 1.410 . S
C1924 C1925 1.392 . S
C1924 C1927 1.511 . S
C1925 C1921 1.376 . S
C1925 C1924 1.392 . S
C1925 H1937 0.929 . S
C1926 C1922 1.531 . S
C1926 H1938 0.960 . S
C1926 H1939 0.962 . S
C1926 H1940 0.960 . S
C1927 C1924 1.511 . S
C1927 H1941 0.961 . S
C1927 H1942 0.961 . S
C1927 H1943 0.961 . S
C1928 C1929 1.370 . S
C1928 C1930 1.363 . S
C1928 H1944 0.931 . S
C1929 C1928 1.370 . S
C1929 C1933 1.408 . S
C1930 C1928 1.363 . S
C1930 C1931 1.370 . S
C1930 C1934 1.524 . S
C1931 C1923 1.503 . S
C1931 C1930 1.370 . S
C1931 C1932 1.403 . S
C1932 C1931 1.403 . S
C1932 C1933 1.404 . S
C1932 C1935 1.539 . S
C1933 C1929 1.408 . S
C1933 C1932 1.404 . S
C1933 H1945 0.930 . S
C1934 C1930 1.524 . S
C1934 H1946 0.956 . S
C1934 H1947 0.961 . S
C1934 H1948 0.961 . S
C1935 C1932 1.539 . S
C1935 H1949 0.958 . S
C1935 H1950 0.961 . S
C1935 H1951 0.960 . S
H1936 C1920 0.931 . S
H1937 C1925 0.929 . S
H1938 C1926 0.960 . S
H1939 C1926 0.962 . S
H1940 C1926 0.960 . S
H1941 C1927 0.961 . S
H1942 C1927 0.961 . S
H1943 C1927 0.961 . S
H1944 C1928 0.931 . S
H1945 C1933 0.930 . S
H1946 C1934 0.956 . S
H1947 C1934 0.961 . S
H1948 C1934 0.961 . S
H1949 C1935 0.958 . S
H1950 C1935 0.961 . S
H1951 C1935 0.960 . S
C1952 C1953 1.391 . S
C1952 C1954 1.394 . S
C1952 H1968 0.931 . S
C1953 C1952 1.391 . S
C1953 C1957 1.376 . S
C1954 C1952 1.394 . S
C1954 C1955 1.369 . S
C1954 C1958 1.531 . S
C1955 C1954 1.369 . S
C1955 C1956 1.410 . S
C1955 C1963 1.503 . S
C1956 C1955 1.410 . S
C1956 C1957 1.392 . S
C1956 C1959 1.511 . S
C1957 C1953 1.376 . S
C1957 C1956 1.392 . S
C1957 H1969 0.929 . S
C1958 C1954 1.531 . S
C1958 H1970 0.960 . S
C1958 H1971 0.962 . S
C1958 H1972 0.960 . S
C1959 C1956 1.511 . S
C1959 H1973 0.961 . S
C1959 H1974 0.961 . S
C1959 H1975 0.961 . S
C1960 C1961 1.370 . S
C1960 C1962 1.363 . S
C1960 H1976 0.931 . S
C1961 C1960 1.370 . S
C1961 C1965 1.408 . S
C1962 C1960 1.363 . S
C1962 C1963 1.370 . S
C1962 C1966 1.524 . S
C1963 C1955 1.503 . S
C1963 C1962 1.370 . S
C1963 C1964 1.403 . S
C1964 C1963 1.403 . S
C1964 C1965 1.404 . S
C1964 C1967 1.539 . S
C1965 C1961 1.408 . S
C1965 C1964 1.404 . S
C1965 H1977 0.930 . S
C1966 C1962 1.524 . S
C1966 H1978 0.956 . S
C1966 H1979 0.961 . S
C1966 H1980 0.961 . S
C1967 C1964 1.539 . S
C1967 H1981 0.958 . S
C1967 H1982 0.961 . S
C1967 H1983 0.960 . S
H1968 C1952 0.931 . S
H1969 C1957 0.929 . S
H1970 C1958 0.960 . S
H1971 C1958 0.962 . S
H1972 C1958 0.960 . S
H1973 C1959 0.961 . S
H1974 C1959 0.961 . S
H1975 C1959 0.961 . S
H1976 C1960 0.931 . S
H1977 C1965 0.930 . S
H1978 C1966 0.956 . S
H1979 C1966 0.961 . S
H1980 C1966 0.961 . S
H1981 C1967 0.958 . S
H1982 C1967 0.961 . S
H1983 C1967 0.960 . S
C1984 C1985 1.391 . S
C1984 C1986 1.394 . S
C1984 H2000 0.931 . S
C1985 C1984 1.391 . S
C1985 C1989 1.376 . S
C1986 C1984 1.394 . S
C1986 C1987 1.369 . S
C1986 C1990 1.531 . S
C1987 C1986 1.369 . S
C1987 C1988 1.410 . S
C1987 C1995 1.503 . S
C1988 C1987 1.410 . S
C1988 C1989 1.392 . S
C1988 C1991 1.511 . S
C1989 C1985 1.376 . S
C1989 C1988 1.392 . S
C1989 H2001 0.929 . S
C1990 C1986 1.531 . S
C1990 H2002 0.960 . S
C1990 H2003 0.962 . S
C1990 H2004 0.960 . S
C1991 C1988 1.511 . S
C1991 H2005 0.961 . S
C1991 H2006 0.961 . S
C1991 H2007 0.961 . S
C1992 C1993 1.370 . S
C1992 C1994 1.363 . S
C1992 H2008 0.931 . S
C1993 C1992 1.370 . S
C1993 C1997 1.408 . S
C1994 C1992 1.363 . S
C1994 C1995 1.370 . S
C1994 C1998 1.524 . S
C1995 C1987 1.503 . S
C1995 C1994 1.370 . S
C1995 C1996 1.403 . S
C1996 C1995 1.403 . S
C1996 C1997 1.404 . S
C1996 C1999 1.539 . S
C1997 C1993 1.408 . S
C1997 C1996 1.404 . S
C1997 H2009 0.930 . S
C1998 C1994 1.524 . S
C1998 H2010 0.956 . S
C1998 H2011 0.961 . S
C1998 H2012 0.961 . S
C1999 C1996 1.539 . S
C1999 H2013 0.958 . S
C1999 H2014 0.961 . S
C1999 H2015 0.960 . S
H2000 C1984 0.931 . S
H2001 C1989 0.929 . S
H2002 C1990 0.960 . S
H2003 C1990 0.962 . S
H2004 C1990 0.960 . S
H2005 C1991 0.961 . S
H2006 C1991 0.961 . S
H2007 C1991 0.961 . S
H2008 C1992 0.931 . S
H2009 C1997 0.930 . S
H2010 C1998 0.956 . S
H2011 C1998 0.961 . S
H2012 C1998 0.961 . S
H2013 C1999 0.958 . S
H2014 C1999 0.961 . S
H2015 C1999 0.960 . S
C2016 C2017 1.391 . S
C2016 C2018 1.394 . S
C2016 H2032 0.931 . S
C2017 C2016 1.391 . S
C2017 C2021 1.376 . S
C2018 C2016 1.394 . S
C2018 C2019 1.369 . S
C2018 C2022 1.531 . S
C2019 C2018 1.369 . S
C2019 C2020 1.410 . S
C2019 C2027 1.503 . S
C2020 C2019 1.410 . S
C2020 C2021 1.392 . S
C2020 C2023 1.511 . S
C2021 C2017 1.376 . S
C2021 C2020 1.392 . S
C2021 H2033 0.929 . S
C2022 C2018 1.531 . S
C2022 H2034 0.960 . S
C2022 H2035 0.962 . S
C2022 H2036 0.960 . S
C2023 C2020 1.511 . S
C2023 H2037 0.961 . S
C2023 H2038 0.961 . S
C2023 H2039 0.961 . S
C2024 C2025 1.370 . S
C2024 C2026 1.363 . S
C2024 H2040 0.931 . S
C2025 C2024 1.370 . S
C2025 C2029 1.408 . S
C2026 C2024 1.363 . S
C2026 C2027 1.370 . S
C2026 C2030 1.524 . S
C2027 C2019 1.503 . S
C2027 C2026 1.370 . S
C2027 C2028 1.403 . S
C2028 C2027 1.403 . S
C2028 C2029 1.404 . S
C2028 C2031 1.539 . S
C2029 C2025 1.408 . S
C2029 C2028 1.404 . S
C2029 H2041 0.930 . S
C2030 C2026 1.524 . S
C2030 H2042 0.956 . S
C2030 H2043 0.961 . S
C2030 H2044 0.961 . S
C2031 C2028 1.539 . S
C2031 H2045 0.958 . S
C2031 H2046 0.961 . S
C2031 H2047 0.960 . S
H2032 C2016 0.931 . S
H2033 C2021 0.929 . S
H2034 C2022 0.960 . S
H2035 C2022 0.962 . S
H2036 C2022 0.960 . S
H2037 C2023 0.961 . S
H2038 C2023 0.961 . S
H2039 C2023 0.961 . S
H2040 C2024 0.931 . S
H2041 C2029 0.930 . S
H2042 C2030 0.956 . S
H2043 C2030 0.961 . S
H2044 C2030 0.961 . S
H2045 C2031 0.958 . S
H2046 C2031 0.961 . S
H2047 C2031 0.960 . S
C2048 C2049 1.391 . S
C2048 C2050 1.394 . S
C2048 H2064 0.931 . S
C2049 C2048 1.391 . S
C2049 C2053 1.376 . S
C2050 C2048 1.394 . S
C2050 C2051 1.369 . S
C2050 C2054 1.531 . S
C2051 C2050 1.369 . S
C2051 C2052 1.410 . S
C2051 C2059 1.503 . S
C2052 C2051 1.410 . S
C2052 C2053 1.392 . S
C2052 C2055 1.511 . S
C2053 C2049 1.376 . S
C2053 C2052 1.392 . S
C2053 H2065 0.929 . S
C2054 C2050 1.531 . S
C2054 H2066 0.960 . S
C2054 H2067 0.962 . S
C2054 H2068 0.960 . S
C2055 C2052 1.511 . S
C2055 H2069 0.961 . S
C2055 H2070 0.961 . S
C2055 H2071 0.961 . S
C2056 C2057 1.370 . S
C2056 C2058 1.363 . S
C2056 H2072 0.931 . S
C2057 C2056 1.370 . S
C2057 C2061 1.408 . S
C2058 C2056 1.363 . S
C2058 C2059 1.370 . S
C2058 C2062 1.524 . S
C2059 C2051 1.503 . S
C2059 C2058 1.370 . S
C2059 C2060 1.403 . S
C2060 C2059 1.403 . S
C2060 C2061 1.404 . S
C2060 C2063 1.539 . S
C2061 C2057 1.408 . S
C2061 C2060 1.404 . S
C2061 H2073 0.930 . S
C2062 C2058 1.524 . S
C2062 H2074 0.956 . S
C2062 H2075 0.961 . S
C2062 H2076 0.961 . S
C2063 C2060 1.539 . S
C2063 H2077 0.958 . S
C2063 H2078 0.961 . S
C2063 H2079 0.960 . S
H2064 C2048 0.931 . S
H2065 C2053 0.929 . S
H2066 C2054 0.960 . S
H2067 C2054 0.962 . S
H2068 C2054 0.960 . S
H2069 C2055 0.961 . S
H2070 C2055 0.961 . S
H2071 C2055 0.961 . S
H2072 C2056 0.931 . S
H2073 C2061 0.930 . S
H2074 C2062 0.956 . S
H2075 C2062 0.961 . S
H2076 C2062 0.961 . S
H2077 C2063 0.958 . S
H2078 C2063 0.961 . S
H2079 C2063 0.960 . S
C2080 C2081 1.391 . S
C2080 C2082 1.394 . S
C2080 H2096 0.931 . S
C2081 C2080 1.391 . S
C2081 C2085 1.376 . S
C2082 C2080 1.394 . S
C2082 C2083 1.369 . S
C2082 C2086 1.531 . S
C2083 C2082 1.369 . S
C2083 C2084 1.410 . S
C2083 C2091 1.503 . S
C2084 C2083 1.410 . S
C2084 C2085 1.392 . S
C2084 C2087 1.511 . S
C2085 C2081 1.376 . S
C2085 C2084 1.392 . S
C2085 H2097 0.929 . S
C2086 C2082 1.531 . S
C2086 H2098 0.960 . S
C2086 H2099 0.962 . S
C2086 H2100 0.960 . S
C2087 C2084 1.511 . S
C2087 H2101 0.961 . S
C2087 H2102 0.961 . S
C2087 H2103 0.961 . S
C2088 C2089 1.370 . S
C2088 C2090 1.363 . S
C2088 H2104 0.931 . S
C2089 C2088 1.370 . S
C2089 C2093 1.408 . S
C2090 C2088 1.363 . S
C2090 C2091 1.370 . S
C2090 C2094 1.524 . S
C2091 C2083 1.503 . S
C2091 C2090 1.370 . S
C2091 C2092 1.403 . S
C2092 C2091 1.403 . S
C2092 C2093 1.404 . S
C2092 C2095 1.539 . S
C2093 C2089 1.408 . S
C2093 C2092 1.404 . S
C2093 H2105 0.930 . S
C2094 C2090 1.524 . S
C2094 H2106 0.956 . S
C2094 H2107 0.961 . S
C2094 H2108 0.961 . S
C2095 C2092 1.539 . S
C2095 H2109 0.958 . S
C2095 H2110 0.961 . S
C2095 H2111 0.960 . S
H2096 C2080 0.931 . S
H2097 C2085 0.929 . S
H2098 C2086 0.960 . S
H2099 C2086 0.962 . S
H2100 C2086 0.960 . S
H2101 C2087 0.961 . S
H2102 C2087 0.961 . S
H2103 C2087 0.961 . S
H2104 C2088 0.931 . S
H2105 C2093 0.930 . S
H2106 C2094 0.956 . S
H2107 C2094 0.961 . S
H2108 C2094 0.961 . S
H2109 C2095 0.958 . S
H2110 C2095 0.961 . S
H2111 C2095 0.960 . S
C2112 C2113 1.391 . S
C2112 C2114 1.394 . S
C2112 H2128 0.931 . S
C2113 C2112 1.391 . S
C2113 C2117 1.376 . S
C2114 C2112 1.394 . S
C2114 C2115 1.369 . S
C2114 C2118 1.531 . S
C2115 C2114 1.369 . S
C2115 C2116 1.410 . S
C2115 C2123 1.503 . S
C2116 C2115 1.410 . S
C2116 C2117 1.392 . S
C2116 C2119 1.511 . S
C2117 C2113 1.376 . S
C2117 C2116 1.392 . S
C2117 H2129 0.929 . S
C2118 C2114 1.531 . S
C2118 H2130 0.960 . S
C2118 H2131 0.962 . S
C2118 H2132 0.960 . S
C2119 C2116 1.511 . S
C2119 H2133 0.961 . S
C2119 H2134 0.961 . S
C2119 H2135 0.961 . S
C2120 C2121 1.370 . S
C2120 C2122 1.363 . S
C2120 H2136 0.931 . S
C2121 C2120 1.370 . S
C2121 C2125 1.408 . S
C2122 C2120 1.363 . S
C2122 C2123 1.370 . S
C2122 C2126 1.524 . S
C2123 C2115 1.503 . S
C2123 C2122 1.370 . S
C2123 C2124 1.403 . S
C2124 C2123 1.403 . S
C2124 C2125 1.404 . S
C2124 C2127 1.539 . S
C2125 C2121 1.408 . S
C2125 C2124 1.404 . S
C2125 H2137 0.930 . S
C2126 C2122 1.524 . S
C2126 H2138 0.956 . S
C2126 H2139 0.961 . S
C2126 H2140 0.961 . S
C2127 C2124 1.539 . S
C2127 H2141 0.958 . S
C2127 H2142 0.961 . S
C2127 H2143 0.960 . S
H2128 C2112 0.931 . S
H2129 C2117 0.929 . S
H2130 C2118 0.960 . S
H2131 C2118 0.962 . S
H2132 C2118 0.960 . S
H2133 C2119 0.961 . S
H2134 C2119 0.961 . S
H2135 C2119 0.961 . S
H2136 C2120 0.931 . S
H2137 C2125 0.930 . S
H2138 C2126 0.956 . S
H2139 C2126 0.961 . S
H2140 C2126 0.961 . S
H2141 C2127 0.958 . S
H2142 C2127 0.961 . S
H2143 C2127 0.960 . S
C2144 C2145 1.391 . S
C2144 C2146 1.394 . S
C2144 H2160 0.931 . S
C2145 C2144 1.391 . S
C2145 C2149 1.376 . S
C2146 C2144 1.394 . S
C2146 C2147 1.369 . S
C2146 C2150 1.531 . S
C2147 C2146 1.369 . S
C2147 C2148 1.410 . S
C2147 C2155 1.503 . S
C2148 C2147 1.410 . S
C2148 C2149 1.392 . S
C2148 C2151 1.511 . S
C2149 C2145 1.376 . S
C2149 C2148 1.392 . S
C2149 H2161 0.929 . S
C2150 C2146 1.531 . S
C2150 H2162 0.960 . S
C2150 H2163 0.962 . S
C2150 H2164 0.960 . S
C2151 C2148 1.511 . S
C2151 H2165 0.961 . S
C2151 H2166 0.961 . S
C2151 H2167 0.961 . S
C2152 C2153 1.370 . S
C2152 C2154 1.363 . S
C2152 H2168 0.931 . S
C2153 C2152 1.370 . S
C2153 C2157 1.408 . S
C2154 C2152 1.363 . S
C2154 C2155 1.370 . S
C2154 C2158 1.524 . S
C2155 C2147 1.503 . S
C2155 C2154 1.370 . S
C2155 C2156 1.403 . S
C2156 C2155 1.403 . S
C2156 C2157 1.404 . S
C2156 C2159 1.539 . S
C2157 C2153 1.408 . S
C2157 C2156 1.404 . S
C2157 H2169 0.930 . S
C2158 C2154 1.524 . S
C2158 H2170 0.956 . S
C2158 H2171 0.961 . S
C2158 H2172 0.961 . S
C2159 C2156 1.539 . S
C2159 H2173 0.958 . S
C2159 H2174 0.961 . S
C2159 H2175 0.960 . S
H2160 C2144 0.931 . S
H2161 C2149 0.929 . S
H2162 C2150 0.960 . S
H2163 C2150 0.962 . S
H2164 C2150 0.960 . S
H2165 C2151 0.961 . S
H2166 C2151 0.961 . S
H2167 C2151 0.961 . S
H2168 C2152 0.931 . S
H2169 C2157 0.930 . S
H2170 C2158 0.956 . S
H2171 C2158 0.961 . S
H2172 C2158 0.961 . S
H2173 C2159 0.958 . S
H2174 C2159 0.961 . S
H2175 C2159 0.960 . S
C2176 C2177 1.391 . S
C2176 C2178 1.394 . S
C2176 H2192 0.931 . S
C2177 C2176 1.391 . S
C2177 C2181 1.376 . S
C2178 C2176 1.394 . S
C2178 C2179 1.369 . S
C2178 C2182 1.531 . S
C2179 C2178 1.369 . S
C2179 C2180 1.410 . S
C2179 C2187 1.503 . S
C2180 C2179 1.410 . S
C2180 C2181 1.392 . S
C2180 C2183 1.511 . S
C2181 C2177 1.376 . S
C2181 C2180 1.392 . S
C2181 H2193 0.929 . S
C2182 C2178 1.531 . S
C2182 H2194 0.960 . S
C2182 H2195 0.962 . S
C2182 H2196 0.960 . S
C2183 C2180 1.511 . S
C2183 H2197 0.961 . S
C2183 H2198 0.961 . S
C2183 H2199 0.961 . S
C2184 C2185 1.370 . S
C2184 C2186 1.363 . S
C2184 H2200 0.931 . S
C2185 C2184 1.370 . S
C2185 C2189 1.408 . S
C2186 C2184 1.363 . S
C2186 C2187 1.370 . S
C2186 C2190 1.524 . S
C2187 C2179 1.503 . S
C2187 C2186 1.370 . S
C2187 C2188 1.403 . S
C2188 C2187 1.403 . S
C2188 C2189 1.404 . S
C2188 C2191 1.539 . S
C2189 C2185 1.408 . S
C2189 C2188 1.404 . S
C2189 H2201 0.930 . S
C2190 C2186 1.524 . S
C2190 H2202 0.956 . S
C2190 H2203 0.961 . S
C2190 H2204 0.961 . S
C2191 C2188 1.539 . S
C2191 H2205 0.958 . S
C2191 H2206 0.961 . S
C2191 H2207 0.960 . S
H2192 C2176 0.931 . S
H2193 C2181 0.929 . S
H2194 C2182 0.960 . S
H2195 C2182 0.962 . S
H2196 C2182 0.960 . S
H2197 C2183 0.961 . S
H2198 C2183 0.961 . S
H2199 C2183 0.961 . S
H2200 C2184 0.931 . S
H2201 C2189 0.930 . S
H2202 C2190 0.956 . S
H2203 C2190 0.961 . S
H2204 C2190 0.961 . S
H2205 C2191 0.958 . S
H2206 C2191 0.961 . S
H2207 C2191 0.960 . S
C2208 C2209 1.391 . S
C2208 C2210 1.394 . S
C2208 H2224 0.931 . S
C2209 C2208 1.391 . S
C2209 C2213 1.376 . S
C2210 C2208 1.394 . S
C2210 C2211 1.369 . S
C2210 C2214 1.531 . S
C2211 C2210 1.369 . S
C2211 C2212 1.410 . S
C2211 C2219 1.503 . S
C2212 C2211 1.410 . S
C2212 C2213 1.392 . S
C2212 C2215 1.511 . S
C2213 C2209 1.376 . S
C2213 C2212 1.392 . S
C2213 H2225 0.929 . S
C2214 C2210 1.531 . S
C2214 H2226 0.960 . S
C2214 H2227 0.962 . S
C2214 H2228 0.960 . S
C2215 C2212 1.511 . S
C2215 H2229 0.961 . S
C2215 H2230 0.961 . S
C2215 H2231 0.961 . S
C2216 C2217 1.370 . S
C2216 C2218 1.363 . S
C2216 H2232 0.931 . S
C2217 C2216 1.370 . S
C2217 C2221 1.408 . S
C2218 C2216 1.363 . S
C2218 C2219 1.370 . S
C2218 C2222 1.524 . S
C2219 C2211 1.503 . S
C2219 C2218 1.370 . S
C2219 C2220 1.403 . S
C2220 C2219 1.403 . S
C2220 C2221 1.404 . S
C2220 C2223 1.539 . S
C2221 C2217 1.408 . S
C2221 C2220 1.404 . S
C2221 H2233 0.930 . S
C2222 C2218 1.524 . S
C2222 H2234 0.956 . S
C2222 H2235 0.961 . S
C2222 H2236 0.961 . S
C2223 C2220 1.539 . S
C2223 H2237 0.958 . S
C2223 H2238 0.961 . S
C2223 H2239 0.960 . S
H2224 C2208 0.931 . S
H2225 C2213 0.929 . S
H2226 C2214 0.960 . S
H2227 C2214 0.962 . S
H2228 C2214 0.960 . S
H2229 C2215 0.961 . S
H2230 C2215 0.961 . S
H2231 C2215 0.961 . S
H2232 C2216 0.931 . S
H2233 C2221 0.930 . S
H2234 C2222 0.956 . S
H2235 C2222 0.961 . S
H2236 C2222 0.961 . S
H2237 C2223 0.958 . S
H2238 C2223 0.961 . S
H2239 C2223 0.960 . S
C2240 C2241 1.391 . S
C2240 C2242 1.394 . S
C2240 H2256 0.931 . S
C2241 C2240 1.391 . S
C2241 C2245 1.376 . S
C2242 C2240 1.394 . S
C2242 C2243 1.369 . S
C2242 C2246 1.531 . S
C2243 C2242 1.369 . S
C2243 C2244 1.410 . S
C2243 C2251 1.503 . S
C2244 C2243 1.410 . S
C2244 C2245 1.392 . S
C2244 C2247 1.511 . S
C2245 C2241 1.376 . S
C2245 C2244 1.392 . S
C2245 H2257 0.929 . S
C2246 C2242 1.531 . S
C2246 H2258 0.960 . S
C2246 H2259 0.962 . S
C2246 H2260 0.960 . S
C2247 C2244 1.511 . S
C2247 H2261 0.961 . S
C2247 H2262 0.961 . S
C2247 H2263 0.961 . S
C2248 C2249 1.370 . S
C2248 C2250 1.363 . S
C2248 H2264 0.931 . S
C2249 C2248 1.370 . S
C2249 C2253 1.408 . S
C2250 C2248 1.363 . S
C2250 C2251 1.370 . S
C2250 C2254 1.524 . S
C2251 C2243 1.503 . S
C2251 C2250 1.370 . S
C2251 C2252 1.403 . S
C2252 C2251 1.403 . S
C2252 C2253 1.404 . S
C2252 C2255 1.539 . S
C2253 C2249 1.408 . S
C2253 C2252 1.404 . S
C2253 H2265 0.930 . S
C2254 C2250 1.524 . S
C2254 H2266 0.956 . S
C2254 H2267 0.961 . S
C2254 H2268 0.961 . S
C2255 C2252 1.539 . S
C2255 H2269 0.958 . S
C2255 H2270 0.961 . S
C2255 H2271 0.960 . S
H2256 C2240 0.931 . S
H2257 C2245 0.929 . S
H2258 C2246 0.960 . S
H2259 C2246 0.962 . S
H2260 C2246 0.960 . S
H2261 C2247 0.961 . S
H2262 C2247 0.961 . S
H2263 C2247 0.961 . S
H2264 C2248 0.931 . S
H2265 C2253 0.930 . S
H2266 C2254 0.956 . S
H2267 C2254 0.961 . S
H2268 C2254 0.961 . S
H2269 C2255 0.958 . S
H2270 C2255 0.961 . S
H2271 C2255 0.960 . S
C2272 C2273 1.391 . S
C2272 C2274 1.394 . S
C2272 H2288 0.931 . S
C2273 C2272 1.391 . S
C2273 C2277 1.376 . S
C2274 C2272 1.394 . S
C2274 C2275 1.369 . S
C2274 C2278 1.531 . S
C2275 C2274 1.369 . S
C2275 C2276 1.410 . S
C2275 C2283 1.503 . S
C2276 C2275 1.410 . S
C2276 C2277 1.392 . S
C2276 C2279 1.511 . S
C2277 C2273 1.376 . S
C2277 C2276 1.392 . S
C2277 H2289 0.929 . S
C2278 C2274 1.531 . S
C2278 H2290 0.960 . S
C2278 H2291 0.962 . S
C2278 H2292 0.960 . S
C2279 C2276 1.511 . S
C2279 H2293 0.961 . S
C2279 H2294 0.961 . S
C2279 H2295 0.961 . S
C2280 C2281 1.370 . S
C2280 C2282 1.363 . S
C2280 H2296 0.931 . S
C2281 C2280 1.370 . S
C2281 C2285 1.408 . S
C2282 C2280 1.363 . S
C2282 C2283 1.370 . S
C2282 C2286 1.524 . S
C2283 C2275 1.503 . S
C2283 C2282 1.370 . S
C2283 C2284 1.403 . S
C2284 C2283 1.403 . S
C2284 C2285 1.404 . S
C2284 C2287 1.539 . S
C2285 C2281 1.408 . S
C2285 C2284 1.404 . S
C2285 H2297 0.930 . S
C2286 C2282 1.524 . S
C2286 H2298 0.956 . S
C2286 H2299 0.961 . S
C2286 H2300 0.961 . S
C2287 C2284 1.539 . S
C2287 H2301 0.958 . S
C2287 H2302 0.961 . S
C2287 H2303 0.960 . S
H2288 C2272 0.931 . S
H2289 C2277 0.929 . S
H2290 C2278 0.960 . S
H2291 C2278 0.962 . S
H2292 C2278 0.960 . S
H2293 C2279 0.961 . S
H2294 C2279 0.961 . S
H2295 C2279 0.961 . S
H2296 C2280 0.931 . S
H2297 C2285 0.930 . S
H2298 C2286 0.956 . S
H2299 C2286 0.961 . S
H2300 C2286 0.961 . S
H2301 C2287 0.958 . S
H2302 C2287 0.961 . S
H2303 C2287 0.960 . S
C2304 C2305 1.391 . S
C2304 C2306 1.394 . S
C2304 H2320 0.931 . S
C2305 C2304 1.391 . S
C2305 C2309 1.376 . S
C2306 C2304 1.394 . S
C2306 C2307 1.369 . S
C2306 C2310 1.531 . S
C2307 C2306 1.369 . S
C2307 C2308 1.410 . S
C2307 C2315 1.503 . S
C2308 C2307 1.410 . S
C2308 C2309 1.392 . S
C2308 C2311 1.511 . S
C2309 C2305 1.376 . S
C2309 C2308 1.392 . S
C2309 H2321 0.929 . S
C2310 C2306 1.531 . S
C2310 H2322 0.960 . S
C2310 H2323 0.962 . S
C2310 H2324 0.960 . S
C2311 C2308 1.511 . S
C2311 H2325 0.961 . S
C2311 H2326 0.961 . S
C2311 H2327 0.961 . S
C2312 C2313 1.370 . S
C2312 C2314 1.363 . S
C2312 H2328 0.931 . S
C2313 C2312 1.370 . S
C2313 C2317 1.408 . S
C2314 C2312 1.363 . S
C2314 C2315 1.370 . S
C2314 C2318 1.524 . S
C2315 C2307 1.503 . S
C2315 C2314 1.370 . S
C2315 C2316 1.403 . S
C2316 C2315 1.403 . S
C2316 C2317 1.404 . S
C2316 C2319 1.539 . S
C2317 C2313 1.408 . S
C2317 C2316 1.404 . S
C2317 H2329 0.930 . S
C2318 C2314 1.524 . S
C2318 H2330 0.956 . S
C2318 H2331 0.961 . S
C2318 H2332 0.961 . S
C2319 C2316 1.539 . S
C2319 H2333 0.958 . S
C2319 H2334 0.961 . S
C2319 H2335 0.960 . S
H2320 C2304 0.931 . S
H2321 C2309 0.929 . S
H2322 C2310 0.960 . S
H2323 C2310 0.962 . S
H2324 C2310 0.960 . S
H2325 C2311 0.961 . S
H2326 C2311 0.961 . S
H2327 C2311 0.961 . S
H2328 C2312 0.931 . S
H2329 C2317 0.930 . S
H2330 C2318 0.956 . S
H2331 C2318 0.961 . S
H2332 C2318 0.961 . S
H2333 C2319 0.958 . S
H2334 C2319 0.961 . S
H2335 C2319 0.960 . S
C2336 C2337 1.391 . S
C2336 C2338 1.394 . S
C2336 H2352 0.931 . S
C2337 C2336 1.391 . S
C2337 C2341 1.376 . S
C2338 C2336 1.394 . S
C2338 C2339 1.369 . S
C2338 C2342 1.531 . S
C2339 C2338 1.369 . S
C2339 C2340 1.410 . S
C2339 C2347 1.503 . S
C2340 C2339 1.410 . S
C2340 C2341 1.392 . S
C2340 C2343 1.511 . S
C2341 C2337 1.376 . S
C2341 C2340 1.392 . S
C2341 H2353 0.929 . S
C2342 C2338 1.531 . S
C2342 H2354 0.960 . S
C2342 H2355 0.962 . S
C2342 H2356 0.960 . S
C2343 C2340 1.511 . S
C2343 H2357 0.961 . S
C2343 H2358 0.961 . S
C2343 H2359 0.961 . S
C2344 C2345 1.370 . S
C2344 C2346 1.363 . S
C2344 H2360 0.931 . S
C2345 C2344 1.370 . S
C2345 C2349 1.408 . S
C2346 C2344 1.363 . S
C2346 C2347 1.370 . S
C2346 C2350 1.524 . S
C2347 C2339 1.503 . S
C2347 C2346 1.370 . S
C2347 C2348 1.403 . S
C2348 C2347 1.403 . S
C2348 C2349 1.404 . S
C2348 C2351 1.539 . S
C2349 C2345 1.408 . S
C2349 C2348 1.404 . S
C2349 H2361 0.930 . S
C2350 C2346 1.524 . S
C2350 H2362 0.956 . S
C2350 H2363 0.961 . S
C2350 H2364 0.961 . S
C2351 C2348 1.539 . S
C2351 H2365 0.958 . S
C2351 H2366 0.961 . S
C2351 H2367 0.960 . S
H2352 C2336 0.931 . S
H2353 C2341 0.929 . S
H2354 C2342 0.960 . S
H2355 C2342 0.962 . S
H2356 C2342 0.960 . S
H2357 C2343 0.961 . S
H2358 C2343 0.961 . S
H2359 C2343 0.961 . S
H2360 C2344 0.931 . S
H2361 C2349 0.930 . S
H2362 C2350 0.956 . S
H2363 C2350 0.961 . S
H2364 C2350 0.961 . S
H2365 C2351 0.958 . S
H2366 C2351 0.961 . S
H2367 C2351 0.960 . S
C2368 C2369 1.391 . S
C2368 C2370 1.394 . S
C2368 H2384 0.931 . S
C2369 C2368 1.391 . S
C2369 C2373 1.376 . S
C2370 C2368 1.394 . S
C2370 C2371 1.369 . S
C2370 C2374 1.531 . S
C2371 C2370 1.369 . S
C2371 C2372 1.410 . S
C2371 C2379 1.503 . S
C2372 C2371 1.410 . S
C2372 C2373 1.392 . S
C2372 C2375 1.511 . S
C2373 C2369 1.376 . S
C2373 C2372 1.392 . S
C2373 H2385 0.929 . S
C2374 C2370 1.531 . S
C2374 H2386 0.960 . S
C2374 H2387 0.962 . S
C2374 H2388 0.960 . S
C2375 C2372 1.511 . S
C2375 H2389 0.961 . S
C2375 H2390 0.961 . S
C2375 H2391 0.961 . S
C2376 C2377 1.370 . S
C2376 C2378 1.363 . S
C2376 H2392 0.931 . S
C2377 C2376 1.370 . S
C2377 C2381 1.408 . S
C2378 C2376 1.363 . S
C2378 C2379 1.370 . S
C2378 C2382 1.524 . S
C2379 C2371 1.503 . S
C2379 C2378 1.370 . S
C2379 C2380 1.403 . S
C2380 C2379 1.403 . S
C2380 C2381 1.404 . S
C2380 C2383 1.539 . S
C2381 C2377 1.408 . S
C2381 C2380 1.404 . S
C2381 H2393 0.930 . S
C2382 C2378 1.524 . S
C2382 H2394 0.956 . S
C2382 H2395 0.961 . S
C2382 H2396 0.961 . S
C2383 C2380 1.539 . S
C2383 H2397 0.958 . S
C2383 H2398 0.961 . S
C2383 H2399 0.960 . S
H2384 C2368 0.931 . S
H2385 C2373 0.929 . S
H2386 C2374 0.960 . S
H2387 C2374 0.962 . S
H2388 C2374 0.960 . S
H2389 C2375 0.961 . S
H2390 C2375 0.961 . S
H2391 C2375 0.961 . S
H2392 C2376 0.931 . S
H2393 C2381 0.930 . S
H2394 C2382 0.956 . S
H2395 C2382 0.961 . S
H2396 C2382 0.961 . S
H2397 C2383 0.958 . S
H2398 C2383 0.961 . S
H2399 C2383 0.960 . S
C2400 C2401 1.391 . S
C2400 C2402 1.394 . S
C2400 H2416 0.931 . S
C2401 C2400 1.391 . S
C2401 C2405 1.376 . S
C2402 C2400 1.394 . S
C2402 C2403 1.369 . S
C2402 C2406 1.531 . S
C2403 C2402 1.369 . S
C2403 C2404 1.410 . S
C2403 C2411 1.503 . S
C2404 C2403 1.410 . S
C2404 C2405 1.392 . S
C2404 C2407 1.511 . S
C2405 C2401 1.376 . S
C2405 C2404 1.392 . S
C2405 H2417 0.929 . S
C2406 C2402 1.531 . S
C2406 H2418 0.960 . S
C2406 H2419 0.962 . S
C2406 H2420 0.960 . S
C2407 C2404 1.511 . S
C2407 H2421 0.961 . S
C2407 H2422 0.961 . S
C2407 H2423 0.961 . S
C2408 C2409 1.370 . S
C2408 C2410 1.363 . S
C2408 H2424 0.931 . S
C2409 C2408 1.370 . S
C2409 C2413 1.408 . S
C2410 C2408 1.363 . S
C2410 C2411 1.370 . S
C2410 C2414 1.524 . S
C2411 C2403 1.503 . S
C2411 C2410 1.370 . S
C2411 C2412 1.403 . S
C2412 C2411 1.403 . S
C2412 C2413 1.404 . S
C2412 C2415 1.539 . S
C2413 C2409 1.408 . S
C2413 C2412 1.404 . S
C2413 H2425 0.930 . S
C2414 C2410 1.524 . S
C2414 H2426 0.956 . S
C2414 H2427 0.961 . S
C2414 H2428 0.961 . S
C2415 C2412 1.539 . S
C2415 H2429 0.958 . S
C2415 H2430 0.961 . S
C2415 H2431 0.960 . S
H2416 C2400 0.931 . S
H2417 C2405 0.929 . S
H2418 C2406 0.960 . S
H2419 C2406 0.962 . S
H2420 C2406 0.960 . S
H2421 C2407 0.961 . S
H2422 C2407 0.961 . S
H2423 C2407 0.961 . S
H2424 C2408 0.931 . S
H2425 C2413 0.930 . S
H2426 C2414 0.956 . S
H2427 C2414 0.961 . S
H2428 C2414 0.961 . S
H2429 C2415 0.958 . S
H2430 C2415 0.961 . S
H2431 C2415 0.960 . S
C2432 C2433 1.391 . S
C2432 C2434 1.394 . S
C2432 H2448 0.931 . S
C2433 C2432 1.391 . S
C2433 C2437 1.376 . S
C2434 C2432 1.394 . S
C2434 C2435 1.369 . S
C2434 C2438 1.531 . S
C2435 C2434 1.369 . S
C2435 C2436 1.410 . S
C2435 C2443 1.503 . S
C2436 C2435 1.410 . S
C2436 C2437 1.392 . S
C2436 C2439 1.511 . S
C2437 C2433 1.376 . S
C2437 C2436 1.392 . S
C2437 H2449 0.929 . S
C2438 C2434 1.531 . S
C2438 H2450 0.960 . S
C2438 H2451 0.962 . S
C2438 H2452 0.960 . S
C2439 C2436 1.511 . S
C2439 H2453 0.961 . S
C2439 H2454 0.961 . S
C2439 H2455 0.961 . S
C2440 C2441 1.370 . S
C2440 C2442 1.363 . S
C2440 H2456 0.931 . S
C2441 C2440 1.370 . S
C2441 C2445 1.408 . S
C2442 C2440 1.363 . S
C2442 C2443 1.370 . S
C2442 C2446 1.524 . S
C2443 C2435 1.503 . S
C2443 C2442 1.370 . S
C2443 C2444 1.403 . S
C2444 C2443 1.403 . S
C2444 C2445 1.404 . S
C2444 C2447 1.539 . S
C2445 C2441 1.408 . S
C2445 C2444 1.404 . S
C2445 H2457 0.930 . S
C2446 C2442 1.524 . S
C2446 H2458 0.956 . S
C2446 H2459 0.961 . S
C2446 H2460 0.961 . S
C2447 C2444 1.539 . S
C2447 H2461 0.958 . S
C2447 H2462 0.961 . S
C2447 H2463 0.960 . S
H2448 C2432 0.931 . S
H2449 C2437 0.929 . S
H2450 C2438 0.960 . S
H2451 C2438 0.962 . S
H2452 C2438 0.960 . S
H2453 C2439 0.961 . S
H2454 C2439 0.961 . S
H2455 C2439 0.961 . S
H2456 C2440 0.931 . S
H2457 C2445 0.930 . S
H2458 C2446 0.956 . S
H2459 C2446 0.961 . S
H2460 C2446 0.961 . S
H2461 C2447 0.958 . S
H2462 C2447 0.961 . S
H2463 C2447 0.960 . S
C2464 C2465 1.391 . S
C2464 C2466 1.394 . S
C2464 H2480 0.931 . S
C2465 C2464 1.391 . S
C2465 C2469 1.376 . S
C2466 C2464 1.394 . S
C2466 C2467 1.369 . S
C2466 C2470 1.531 . S
C2467 C2466 1.369 . S
C2467 C2468 1.410 . S
C2467 C2475 1.503 . S
C2468 C2467 1.410 . S
C2468 C2469 1.392 . S
C2468 C2471 1.511 . S
C2469 C2465 1.376 . S
C2469 C2468 1.392 . S
C2469 H2481 0.929 . S
C2470 C2466 1.531 . S
C2470 H2482 0.960 . S
C2470 H2483 0.962 . S
C2470 H2484 0.960 . S
C2471 C2468 1.511 . S
C2471 H2485 0.961 . S
C2471 H2486 0.961 . S
C2471 H2487 0.961 . S
C2472 C2473 1.370 . S
C2472 C2474 1.363 . S
C2472 H2488 0.931 . S
C2473 C2472 1.370 . S
C2473 C2477 1.408 . S
C2474 C2472 1.363 . S
C2474 C2475 1.370 . S
C2474 C2478 1.524 . S
C2475 C2467 1.503 . S
C2475 C2474 1.370 . S
C2475 C2476 1.403 . S
C2476 C2475 1.403 . S
C2476 C2477 1.404 . S
C2476 C2479 1.539 . S
C2477 C2473 1.408 . S
C2477 C2476 1.404 . S
C2477 H2489 0.930 . S
C2478 C2474 1.524 . S
C2478 H2490 0.956 . S
C2478 H2491 0.961 . S
C2478 H2492 0.961 . S
C2479 C2476 1.539 . S
C2479 H2493 0.958 . S
C2479 H2494 0.961 . S
C2479 H2495 0.960 . S
H2480 C2464 0.931 . S
H2481 C2469 0.929 . S
H2482 C2470 0.960 . S
H2483 C2470 0.962 . S
H2484 C2470 0.960 . S
H2485 C2471 0.961 . S
H2486 C2471 0.961 . S
H2487 C2471 0.961 . S
H2488 C2472 0.931 . S
H2489 C2477 0.930 . S
H2490 C2478 0.956 . S
H2491 C2478 0.961 . S
H2492 C2478 0.961 . S
H2493 C2479 0.958 . S
H2494 C2479 0.961 . S
H2495 C2479 0.960 . S
C2496 C2497 1.391 . S
C2496 C2498 1.394 . S
C2496 H2512 0.931 . S
C2497 C2496 1.391 . S
C2497 C2501 1.376 . S
C2498 C2496 1.394 . S
C2498 C2499 1.369 . S
C2498 C2502 1.531 . S
C2499 C2498 1.369 . S
C2499 C2500 1.410 . S
C2499 C2507 1.503 . S
C2500 C2499 1.410 . S
C2500 C2501 1.392 . S
C2500 C2503 1.511 . S
C2501 C2497 1.376 . S
C2501 C2500 1.392 . S
C2501 H2513 0.929 . S
C2502 C2498 1.531 . S
C2502 H2514 0.960 . S
C2502 H2515 0.962 . S
C2502 H2516 0.960 . S
C2503 C2500 1.511 . S
C2503 H2517 0.961 . S
C2503 H2518 0.961 . S
C2503 H2519 0.961 . S
C2504 C2505 1.370 . S
C2504 C2506 1.363 . S
C2504 H2520 0.931 . S
C2505 C2504 1.370 . S
C2505 C2509 1.408 . S
C2506 C2504 1.363 . S
C2506 C2507 1.370 . S
C2506 C2510 1.524 . S
C2507 C2499 1.503 . S
C2507 C2506 1.370 . S
C2507 C2508 1.403 . S
C2508 C2507 1.403 . S
C2508 C2509 1.404 . S
C2508 C2511 1.539 . S
C2509 C2505 1.408 . S
C2509 C2508 1.404 . S
C2509 H2521 0.930 . S
C2510 C2506 1.524 . S
C2510 H2522 0.956 . S
C2510 H2523 0.961 . S
C2510 H2524 0.961 . S
C2511 C2508 1.539 . S
C2511 H2525 0.958 . S
C2511 H2526 0.961 . S
C2511 H2527 0.960 . S
H2512 C2496 0.931 . S
H2513 C2501 0.929 . S
H2514 C2502 0.960 . S
H2515 C2502 0.962 . S
H2516 C2502 0.960 . S
H2517 C2503 0.961 . S
H2518 C2503 0.961 . S
H2519 C2503 0.961 . S
H2520 C2504 0.931 . S
H2521 C2509 0.930 . S
H2522 C2510 0.956 . S
H2523 C2510 0.961 . S
H2524 C2510 0.961 . S
H2525 C2511 0.958 . S
H2526 C2511 0.961 . S
H2527 C2511 0.960 . S
C2528 C2529 1.391 . S
C2528 C2530 1.394 . S
C2528 H2544 0.931 . S
C2529 C2528 1.391 . S
C2529 C2533 1.376 . S
C2530 C2528 1.394 . S
C2530 C2531 1.369 . S
C2530 C2534 1.531 . S
C2531 C2530 1.369 . S
C2531 C2532 1.410 . S
C2531 C2539 1.503 . S
C2532 C2531 1.410 . S
C2532 C2533 1.392 . S
C2532 C2535 1.511 . S
C2533 C2529 1.376 . S
C2533 C2532 1.392 . S
C2533 H2545 0.929 . S
C2534 C2530 1.531 . S
C2534 H2546 0.960 . S
C2534 H2547 0.962 . S
C2534 H2548 0.960 . S
C2535 C2532 1.511 . S
C2535 H2549 0.961 . S
C2535 H2550 0.961 . S
C2535 H2551 0.961 . S
C2536 C2537 1.370 . S
C2536 C2538 1.363 . S
C2536 H2552 0.931 . S
C2537 C2536 1.370 . S
C2537 C2541 1.408 . S
C2538 C2536 1.363 . S
C2538 C2539 1.370 . S
C2538 C2542 1.524 . S
C2539 C2531 1.503 . S
C2539 C2538 1.370 . S
C2539 C2540 1.403 . S
C2540 C2539 1.403 . S
C2540 C2541 1.404 . S
C2540 C2543 1.539 . S
C2541 C2537 1.408 . S
C2541 C2540 1.404 . S
C2541 H2553 0.930 . S
C2542 C2538 1.524 . S
C2542 H2554 0.956 . S
C2542 H2555 0.961 . S
C2542 H2556 0.961 . S
C2543 C2540 1.539 . S
C2543 H2557 0.958 . S
C2543 H2558 0.961 . S
C2543 H2559 0.960 . S
H2544 C2528 0.931 . S
H2545 C2533 0.929 . S
H2546 C2534 0.960 . S
H2547 C2534 0.962 . S
H2548 C2534 0.960 . S
H2549 C2535 0.961 . S
H2550 C2535 0.961 . S
H2551 C2535 0.961 . S
H2552 C2536 0.931 . S
H2553 C2541 0.930 . S
H2554 C2542 0.956 . S
H2555 C2542 0.961 . S
H2556 C2542 0.961 . S
H2557 C2543 0.958 . S
H2558 C2543 0.961 . S
H2559 C2543 0.960 . S
C2560 C2561 1.391 . S
C2560 C2562 1.394 . S
C2560 H2576 0.931 . S
C2561 C2560 1.391 . S
C2561 C2565 1.376 . S
C2562 C2560 1.394 . S
C2562 C2563 1.369 . S
C2562 C2566 1.531 . S
C2563 C2562 1.369 . S
C2563 C2564 1.410 . S
C2563 C2571 1.503 . S
C2564 C2563 1.410 . S
C2564 C2565 1.392 . S
C2564 C2567 1.511 . S
C2565 C2561 1.376 . S
C2565 C2564 1.392 . S
C2565 H2577 0.929 . S
C2566 C2562 1.531 . S
C2566 H2578 0.960 . S
C2566 H2579 0.962 . S
C2566 H2580 0.960 . S
C2567 C2564 1.511 . S
C2567 H2581 0.961 . S
C2567 H2582 0.961 . S
C2567 H2583 0.961 . S
C2568 C2569 1.370 . S
C2568 C2570 1.363 . S
C2568 H2584 0.931 . S
C2569 C2568 1.370 . S
C2569 C2573 1.408 . S
C2570 C2568 1.363 . S
C2570 C2571 1.370 . S
C2570 C2574 1.524 . S
C2571 C2563 1.503 . S
C2571 C2570 1.370 . S
C2571 C2572 1.403 . S
C2572 C2571 1.403 . S
C2572 C2573 1.404 . S
C2572 C2575 1.539 . S
C2573 C2569 1.408 . S
C2573 C2572 1.404 . S
C2573 H2585 0.930 . S
C2574 C2570 1.524 . S
C2574 H2586 0.956 . S
C2574 H2587 0.961 . S
C2574 H2588 0.961 . S
C2575 C2572 1.539 . S
C2575 H2589 0.958 . S
C2575 H2590 0.961 . S
C2575 H2591 0.960 . S
H2576 C2560 0.931 . S
H2577 C2565 0.929 . S
H2578 C2566 0.960 . S
H2579 C2566 0.962 . S
H2580 C2566 0.960 . S
H2581 C2567 0.961 . S
H2582 C2567 0.961 . S
H2583 C2567 0.961 . S
H2584 C2568 0.931 . S
H2585 C2573 0.930 . S
H2586 C2574 0.956 . S
H2587 C2574 0.961 . S
H2588 C2574 0.961 . S
H2589 C2575 0.958 . S
H2590 C2575 0.961 . S
H2591 C2575 0.960 . S
C2592 C2593 1.391 . S
C2592 C2594 1.394 . S
C2592 H2608 0.931 . S
C2593 C2592 1.391 . S
C2593 C2597 1.376 . S
C2594 C2592 1.394 . S
C2594 C2595 1.369 . S
C2594 C2598 1.531 . S
C2595 C2594 1.369 . S
C2595 C2596 1.410 . S
C2595 C2603 1.503 . S
C2596 C2595 1.410 . S
C2596 C2597 1.392 . S
C2596 C2599 1.511 . S
C2597 C2593 1.376 . S
C2597 C2596 1.392 . S
C2597 H2609 0.929 . S
C2598 C2594 1.531 . S
C2598 H2610 0.960 . S
C2598 H2611 0.962 . S
C2598 H2612 0.960 . S
C2599 C2596 1.511 . S
C2599 H2613 0.961 . S
C2599 H2614 0.961 . S
C2599 H2615 0.961 . S
C2600 C2601 1.370 . S
C2600 C2602 1.363 . S
C2600 H2616 0.931 . S
C2601 C2600 1.370 . S
C2601 C2605 1.408 . S
C2602 C2600 1.363 . S
C2602 C2603 1.370 . S
C2602 C2606 1.524 . S
C2603 C2595 1.503 . S
C2603 C2602 1.370 . S
C2603 C2604 1.403 . S
C2604 C2603 1.403 . S
C2604 C2605 1.404 . S
C2604 C2607 1.539 . S
C2605 C2601 1.408 . S
C2605 C2604 1.404 . S
C2605 H2617 0.930 . S
C2606 C2602 1.524 . S
C2606 H2618 0.956 . S
C2606 H2619 0.961 . S
C2606 H2620 0.961 . S
C2607 C2604 1.539 . S
C2607 H2621 0.958 . S
C2607 H2622 0.961 . S
C2607 H2623 0.960 . S
H2608 C2592 0.931 . S
H2609 C2597 0.929 . S
H2610 C2598 0.960 . S
H2611 C2598 0.962 . S
H2612 C2598 0.960 . S
H2613 C2599 0.961 . S
H2614 C2599 0.961 . S
H2615 C2599 0.961 . S
H2616 C2600 0.931 . S
H2617 C2605 0.930 . S
H2618 C2606 0.956 . S
H2619 C2606 0.961 . S
H2620 C2606 0.961 . S
H2621 C2607 0.958 . S
H2622 C2607 0.961 . S
H2623 C2607 0.960 . S
C2624 C2625 1.391 . S
C2624 C2626 1.394 . S
C2624 H2640 0.931 . S
C2625 C2624 1.391 . S
C2625 C2629 1.376 . S
C2626 C2624 1.394 . S
C2626 C2627 1.369 . S
C2626 C2630 1.531 . S
C2627 C2626 1.369 . S
C2627 C2628 1.410 . S
C2627 C2635 1.503 . S
C2628 C2627 1.410 . S
C2628 C2629 1.392 . S
C2628 C2631 1.511 . S
C2629 C2625 1.376 . S
C2629 C2628 1.392 . S
C2629 H2641 0.929 . S
C2630 C2626 1.531 . S
C2630 H2642 0.960 . S
C2630 H2643 0.962 . S
C2630 H2644 0.960 . S
C2631 C2628 1.511 . S
C2631 H2645 0.961 . S
C2631 H2646 0.961 . S
C2631 H2647 0.961 . S
C2632 C2633 1.370 . S
C2632 C2634 1.363 . S
C2632 H2648 0.931 . S
C2633 C2632 1.370 . S
C2633 C2637 1.408 . S
C2634 C2632 1.363 . S
C2634 C2635 1.370 . S
C2634 C2638 1.524 . S
C2635 C2627 1.503 . S
C2635 C2634 1.370 . S
C2635 C2636 1.403 . S
C2636 C2635 1.403 . S
C2636 C2637 1.404 . S
C2636 C2639 1.539 . S
C2637 C2633 1.408 . S
C2637 C2636 1.404 . S
C2637 H2649 0.930 . S
C2638 C2634 1.524 . S
C2638 H2650 0.956 . S
C2638 H2651 0.961 . S
C2638 H2652 0.961 . S
C2639 C2636 1.539 . S
C2639 H2653 0.958 . S
C2639 H2654 0.961 . S
C2639 H2655 0.960 . S
H2640 C2624 0.931 . S
H2641 C2629 0.929 . S
H2642 C2630 0.960 . S
H2643 C2630 0.962 . S
H2644 C2630 0.960 . S
H2645 C2631 0.961 . S
H2646 C2631 0.961 . S
H2647 C2631 0.961 . S
H2648 C2632 0.931 . S
H2649 C2637 0.930 . S
H2650 C2638 0.956 . S
H2651 C2638 0.961 . S
H2652 C2638 0.961 . S
H2653 C2639 0.958 . S
H2654 C2639 0.961 . S
H2655 C2639 0.960 . S
C2656 C2657 1.391 . S
C2656 C2658 1.394 . S
C2656 H2672 0.931 . S
C2657 C2656 1.391 . S
C2657 C2661 1.376 . S
C2658 C2656 1.394 . S
C2658 C2659 1.369 . S
C2658 C2662 1.531 . S
C2659 C2658 1.369 . S
C2659 C2660 1.410 . S
C2659 C2667 1.503 . S
C2660 C2659 1.410 . S
C2660 C2661 1.392 . S
C2660 C2663 1.511 . S
C2661 C2657 1.376 . S
C2661 C2660 1.392 . S
C2661 H2673 0.929 . S
C2662 C2658 1.531 . S
C2662 H2674 0.960 . S
C2662 H2675 0.962 . S
C2662 H2676 0.960 . S
C2663 C2660 1.511 . S
C2663 H2677 0.961 . S
C2663 H2678 0.961 . S
C2663 H2679 0.961 . S
C2664 C2665 1.370 . S
C2664 C2666 1.363 . S
C2664 H2680 0.931 . S
C2665 C2664 1.370 . S
C2665 C2669 1.408 . S
C2666 C2664 1.363 . S
C2666 C2667 1.370 . S
C2666 C2670 1.524 . S
C2667 C2659 1.503 . S
C2667 C2666 1.370 . S
C2667 C2668 1.403 . S
C2668 C2667 1.403 . S
C2668 C2669 1.404 . S
C2668 C2671 1.539 . S
C2669 C2665 1.408 . S
C2669 C2668 1.404 . S
C2669 H2681 0.930 . S
C2670 C2666 1.524 . S
C2670 H2682 0.956 . S
C2670 H2683 0.961 . S
C2670 H2684 0.961 . S
C2671 C2668 1.539 . S
C2671 H2685 0.958 . S
C2671 H2686 0.961 . S
C2671 H2687 0.960 . S
H2672 C2656 0.931 . S
H2673 C2661 0.929 . S
H2674 C2662 0.960 . S
H2675 C2662 0.962 . S
H2676 C2662 0.960 . S
H2677 C2663 0.961 . S
H2678 C2663 0.961 . S
H2679 C2663 0.961 . S
H2680 C2664 0.931 . S
H2681 C2669 0.930 . S
H2682 C2670 0.956 . S
H2683 C2670 0.961 . S
H2684 C2670 0.961 . S
H2685 C2671 0.958 . S
H2686 C2671 0.961 . S
H2687 C2671 0.960 . S
C2688 C2689 1.391 . S
C2688 C2690 1.394 . S
C2688 H2704 0.931 . S
C2689 C2688 1.391 . S
C2689 C2693 1.376 . S
C2690 C2688 1.394 . S
C2690 C2691 1.369 . S
C2690 C2694 1.531 . S
C2691 C2690 1.369 . S
C2691 C2692 1.410 . S
C2691 C2699 1.503 . S
C2692 C2691 1.410 . S
C2692 C2693 1.392 . S
C2692 C2695 1.511 . S
C2693 C2689 1.376 . S
C2693 C2692 1.392 . S
C2693 H2705 0.929 . S
C2694 C2690 1.531 . S
C2694 H2706 0.960 . S
C2694 H2707 0.962 . S
C2694 H2708 0.960 . S
C2695 C2692 1.511 . S
C2695 H2709 0.961 . S
C2695 H2710 0.961 . S
C2695 H2711 0.961 . S
C2696 C2697 1.370 . S
C2696 C2698 1.363 . S
C2696 H2712 0.931 . S
C2697 C2696 1.370 . S
C2697 C2701 1.408 . S
C2698 C2696 1.363 . S
C2698 C2699 1.370 . S
C2698 C2702 1.524 . S
C2699 C2691 1.503 . S
C2699 C2698 1.370 . S
C2699 C2700 1.403 . S
C2700 C2699 1.403 . S
C2700 C2701 1.404 . S
C2700 C2703 1.539 . S
C2701 C2697 1.408 . S
C2701 C2700 1.404 . S
C2701 H2713 0.930 . S
C2702 C2698 1.524 . S
C2702 H2714 0.956 . S
C2702 H2715 0.961 . S
C2702 H2716 0.961 . S
C2703 C2700 1.539 . S
C2703 H2717 0.958 . S
C2703 H2718 0.961 . S
C2703 H2719 0.960 . S
H2704 C2688 0.931 . S
H2705 C2693 0.929 . S
H2706 C2694 0.960 . S
H2707 C2694 0.962 . S
H2708 C2694 0.960 . S
H2709 C2695 0.961 . S
H2710 C2695 0.961 . S
H2711 C2695 0.961 . S
H2712 C2696 0.931 . S
H2713 C2701 0.930 . S
H2714 C2702 0.956 . S
H2715 C2702 0.961 . S
H2716 C2702 0.961 . S
H2717 C2703 0.958 . S
H2718 C2703 0.961 . S
H2719 C2703 0.960 . S
C2720 C2721 1.391 . S
C2720 C2722 1.394 . S
C2720 H2736 0.931 . S
C2721 C2720 1.391 . S
C2721 C2725 1.376 . S
C2722 C2720 1.394 . S
C2722 C2723 1.369 . S
C2722 C2726 1.531 . S
C2723 C2722 1.369 . S
C2723 C2724 1.410 . S
C2723 C2731 1.503 . S
C2724 C2723 1.410 . S
C2724 C2725 1.392 . S
C2724 C2727 1.511 . S
C2725 C2721 1.376 . S
C2725 C2724 1.392 . S
C2725 H2737 0.929 . S
C2726 C2722 1.531 . S
C2726 H2738 0.960 . S
C2726 H2739 0.962 . S
C2726 H2740 0.960 . S
C2727 C2724 1.511 . S
C2727 H2741 0.961 . S
C2727 H2742 0.961 . S
C2727 H2743 0.961 . S
C2728 C2729 1.370 . S
C2728 C2730 1.363 . S
C2728 H2744 0.931 . S
C2729 C2728 1.370 . S
C2729 C2733 1.408 . S
C2730 C2728 1.363 . S
C2730 C2731 1.370 . S
C2730 C2734 1.524 . S
C2731 C2723 1.503 . S
C2731 C2730 1.370 . S
C2731 C2732 1.403 . S
C2732 C2731 1.403 . S
C2732 C2733 1.404 . S
C2732 C2735 1.539 . S
C2733 C2729 1.408 . S
C2733 C2732 1.404 . S
C2733 H2745 0.930 . S
C2734 C2730 1.524 . S
C2734 H2746 0.956 . S
C2734 H2747 0.961 . S
C2734 H2748 0.961 . S
C2735 C2732 1.539 . S
C2735 H2749 0.958 . S
C2735 H2750 0.961 . S
C2735 H2751 0.960 . S
H2736 C2720 0.931 . S
H2737 C2725 0.929 . S
H2738 C2726 0.960 . S
H2739 C2726 0.962 . S
H2740 C2726 0.960 . S
H2741 C2727 0.961 . S
H2742 C2727 0.961 . S
H2743 C2727 0.961 . S
H2744 C2728 0.931 . S
H2745 C2733 0.930 . S
H2746 C2734 0.956 . S
H2747 C2734 0.961 . S
H2748 C2734 0.961 . S
H2749 C2735 0.958 . S
H2750 C2735 0.961 . S
H2751 C2735 0.960 . S
C2752 C2753 1.391 . S
C2752 C2754 1.394 . S
C2752 H2768 0.931 . S
C2753 C2752 1.391 . S
C2753 C2757 1.376 . S
C2754 C2752 1.394 . S
C2754 C2755 1.369 . S
C2754 C2758 1.531 . S
C2755 C2754 1.369 . S
C2755 C2756 1.410 . S
C2755 C2763 1.503 . S
C2756 C2755 1.410 . S
C2756 C2757 1.392 . S
C2756 C2759 1.511 . S
C2757 C2753 1.376 . S
C2757 C2756 1.392 . S
C2757 H2769 0.929 . S
C2758 C2754 1.531 . S
C2758 H2770 0.960 . S
C2758 H2771 0.962 . S
C2758 H2772 0.960 . S
C2759 C2756 1.511 . S
C2759 H2773 0.961 . S
C2759 H2774 0.961 . S
C2759 H2775 0.961 . S
C2760 C2761 1.370 . S
C2760 C2762 1.363 . S
C2760 H2776 0.931 . S
C2761 C2760 1.370 . S
C2761 C2765 1.408 . S
C2762 C2760 1.363 . S
C2762 C2763 1.370 . S
C2762 C2766 1.524 . S
C2763 C2755 1.503 . S
C2763 C2762 1.370 . S
C2763 C2764 1.403 . S
C2764 C2763 1.403 . S
C2764 C2765 1.404 . S
C2764 C2767 1.539 . S
C2765 C2761 1.408 . S
C2765 C2764 1.404 . S
C2765 H2777 0.930 . S
C2766 C2762 1.524 . S
C2766 H2778 0.956 . S
C2766 H2779 0.961 . S
C2766 H2780 0.961 . S
C2767 C2764 1.539 . S
C2767 H2781 0.958 . S
C2767 H2782 0.961 . S
C2767 H2783 0.960 . S
H2768 C2752 0.931 . S
H2769 C2757 0.929 . S
H2770 C2758 0.960 . S
H2771 C2758 0.962 . S
H2772 C2758 0.960 . S
H2773 C2759 0.961 . S
H2774 C2759 0.961 . S
H2775 C2759 0.961 . S
H2776 C2760 0.931 . S
H2777 C2765 0.930 . S
H2778 C2766 0.956 . S
H2779 C2766 0.961 . S
H2780 C2766 0.961 . S
H2781 C2767 0.958 . S
H2782 C2767 0.961 . S
H2783 C2767 0.960 . S
C2784 C2785 1.391 . S
C2784 C2786 1.394 . S
C2784 H2800 0.931 . S
C2785 C2784 1.391 . S
C2785 C2789 1.376 . S
C2786 C2784 1.394 . S
C2786 C2787 1.369 . S
C2786 C2790 1.531 . S
C2787 C2786 1.369 . S
C2787 C2788 1.410 . S
C2787 C2795 1.503 . S
C2788 C2787 1.410 . S
C2788 C2789 1.392 . S
C2788 C2791 1.511 . S
C2789 C2785 1.376 . S
C2789 C2788 1.392 . S
C2789 H2801 0.929 . S
C2790 C2786 1.531 . S
C2790 H2802 0.960 . S
C2790 H2803 0.962 . S
C2790 H2804 0.960 . S
C2791 C2788 1.511 . S
C2791 H2805 0.961 . S
C2791 H2806 0.961 . S
C2791 H2807 0.961 . S
C2792 C2793 1.370 . S
C2792 C2794 1.363 . S
C2792 H2808 0.931 . S
C2793 C2792 1.370 . S
C2793 C2797 1.408 . S
C2794 C2792 1.363 . S
C2794 C2795 1.370 . S
C2794 C2798 1.524 . S
C2795 C2787 1.503 . S
C2795 C2794 1.370 . S
C2795 C2796 1.403 . S
C2796 C2795 1.403 . S
C2796 C2797 1.404 . S
C2796 C2799 1.539 . S
C2797 C2793 1.408 . S
C2797 C2796 1.404 . S
C2797 H2809 0.930 . S
C2798 C2794 1.524 . S
C2798 H2810 0.956 . S
C2798 H2811 0.961 . S
C2798 H2812 0.961 . S
C2799 C2796 1.539 . S
C2799 H2813 0.958 . S
C2799 H2814 0.961 . S
C2799 H2815 0.960 . S
H2800 C2784 0.931 . S
H2801 C2789 0.929 . S
H2802 C2790 0.960 . S
H2803 C2790 0.962 . S
H2804 C2790 0.960 . S
H2805 C2791 0.961 . S
H2806 C2791 0.961 . S
H2807 C2791 0.961 . S
H2808 C2792 0.931 . S
H2809 C2797 0.930 . S
H2810 C2798 0.956 . S
H2811 C2798 0.961 . S
H2812 C2798 0.961 . S
H2813 C2799 0.958 . S
H2814 C2799 0.961 . S
H2815 C2799 0.960 . S
C2816 C2817 1.391 . S
C2816 C2818 1.394 . S
C2816 H2832 0.931 . S
C2817 C2816 1.391 . S
C2817 C2821 1.376 . S
C2818 C2816 1.394 . S
C2818 C2819 1.369 . S
C2818 C2822 1.531 . S
C2819 C2818 1.369 . S
C2819 C2820 1.410 . S
C2819 C2827 1.503 . S
C2820 C2819 1.410 . S
C2820 C2821 1.392 . S
C2820 C2823 1.511 . S
C2821 C2817 1.376 . S
C2821 C2820 1.392 . S
C2821 H2833 0.929 . S
C2822 C2818 1.531 . S
C2822 H2834 0.960 . S
C2822 H2835 0.962 . S
C2822 H2836 0.960 . S
C2823 C2820 1.511 . S
C2823 H2837 0.961 . S
C2823 H2838 0.961 . S
C2823 H2839 0.961 . S
C2824 C2825 1.370 . S
C2824 C2826 1.363 . S
C2824 H2840 0.931 . S
C2825 C2824 1.370 . S
C2825 C2829 1.408 . S
C2826 C2824 1.363 . S
C2826 C2827 1.370 . S
C2826 C2830 1.524 . S
C2827 C2819 1.503 . S
C2827 C2826 1.370 . S
C2827 C2828 1.403 . S
C2828 C2827 1.403 . S
C2828 C2829 1.404 . S
C2828 C2831 1.539 . S
C2829 C2825 1.408 . S
C2829 C2828 1.404 . S
C2829 H2841 0.930 . S
C2830 C2826 1.524 . S
C2830 H2842 0.956 . S
C2830 H2843 0.961 . S
C2830 H2844 0.961 . S
C2831 C2828 1.539 . S
C2831 H2845 0.958 . S
C2831 H2846 0.961 . S
C2831 H2847 0.960 . S
H2832 C2816 0.931 . S
H2833 C2821 0.929 . S
H2834 C2822 0.960 . S
H2835 C2822 0.962 . S
H2836 C2822 0.960 . S
H2837 C2823 0.961 . S
H2838 C2823 0.961 . S
H2839 C2823 0.961 . S
H2840 C2824 0.931 . S
H2841 C2829 0.930 . S
H2842 C2830 0.956 . S
H2843 C2830 0.961 . S
H2844 C2830 0.961 . S
H2845 C2831 0.958 . S
H2846 C2831 0.961 . S
H2847 C2831 0.960 . S
C2848 C2849 1.391 . S
C2848 C2850 1.394 . S
C2848 H2864 0.931 . S
C2849 C2848 1.391 . S
C2849 C2853 1.376 . S
C2850 C2848 1.394 . S
C2850 C2851 1.369 . S
C2850 C2854 1.531 . S
C2851 C2850 1.369 . S
C2851 C2852 1.410 . S
C2851 C2859 1.503 . S
C2852 C2851 1.410 . S
C2852 C2853 1.392 . S
C2852 C2855 1.511 . S
C2853 C2849 1.376 . S
C2853 C2852 1.392 . S
C2853 H2865 0.929 . S
C2854 C2850 1.531 . S
C2854 H2866 0.960 . S
C2854 H2867 0.962 . S
C2854 H2868 0.960 . S
C2855 C2852 1.511 . S
C2855 H2869 0.961 . S
C2855 H2870 0.961 . S
C2855 H2871 0.961 . S
C2856 C2857 1.370 . S
C2856 C2858 1.363 . S
C2856 H2872 0.931 . S
C2857 C2856 1.370 . S
C2857 C2861 1.408 . S
C2858 C2856 1.363 . S
C2858 C2859 1.370 . S
C2858 C2862 1.524 . S
C2859 C2851 1.503 . S
C2859 C2858 1.370 . S
C2859 C2860 1.403 . S
C2860 C2859 1.403 . S
C2860 C2861 1.404 . S
C2860 C2863 1.539 . S
C2861 C2857 1.408 . S
C2861 C2860 1.404 . S
C2861 H2873 0.930 . S
C2862 C2858 1.524 . S
C2862 H2874 0.956 . S
C2862 H2875 0.961 . S
C2862 H2876 0.961 . S
C2863 C2860 1.539 . S
C2863 H2877 0.958 . S
C2863 H2878 0.961 . S
C2863 H2879 0.960 . S
H2864 C2848 0.931 . S
H2865 C2853 0.929 . S
H2866 C2854 0.960 . S
H2867 C2854 0.962 . S
H2868 C2854 0.960 . S
H2869 C2855 0.961 . S
H2870 C2855 0.961 . S
H2871 C2855 0.961 . S
H2872 C2856 0.931 . S
H2873 C2861 0.930 . S
H2874 C2862 0.956 . S
H2875 C2862 0.961 . S
H2876 C2862 0.961 . S
H2877 C2863 0.958 . S
H2878 C2863 0.961 . S
H2879 C2863 0.960 . S
C2880 C2881 1.391 . S
C2880 C2882 1.394 . S
C2880 H2896 0.931 . S
C2881 C2880 1.391 . S
C2881 C2885 1.376 . S
C2882 C2880 1.394 . S
C2882 C2883 1.369 . S
C2882 C2886 1.531 . S
C2883 C2882 1.369 . S
C2883 C2884 1.410 . S
C2883 C2891 1.503 . S
C2884 C2883 1.410 . S
C2884 C2885 1.392 . S
C2884 C2887 1.511 . S
C2885 C2881 1.376 . S
C2885 C2884 1.392 . S
C2885 H2897 0.929 . S
C2886 C2882 1.531 . S
C2886 H2898 0.960 . S
C2886 H2899 0.962 . S
C2886 H2900 0.960 . S
C2887 C2884 1.511 . S
C2887 H2901 0.961 . S
C2887 H2902 0.961 . S
C2887 H2903 0.961 . S
C2888 C2889 1.370 . S
C2888 C2890 1.363 . S
C2888 H2904 0.931 . S
C2889 C2888 1.370 . S
C2889 C2893 1.408 . S
C2890 C2888 1.363 . S
C2890 C2891 1.370 . S
C2890 C2894 1.524 . S
C2891 C2883 1.503 . S
C2891 C2890 1.370 . S
C2891 C2892 1.403 . S
C2892 C2891 1.403 . S
C2892 C2893 1.404 . S
C2892 C2895 1.539 . S
C2893 C2889 1.408 . S
C2893 C2892 1.404 . S
C2893 H2905 0.930 . S
C2894 C2890 1.524 . S
C2894 H2906 0.956 . S
C2894 H2907 0.961 . S
C2894 H2908 0.961 . S
C2895 C2892 1.539 . S
C2895 H2909 0.958 . S
C2895 H2910 0.961 . S
C2895 H2911 0.960 . S
H2896 C2880 0.931 . S
H2897 C2885 0.929 . S
H2898 C2886 0.960 . S
H2899 C2886 0.962 . S
H2900 C2886 0.960 . S
H2901 C2887 0.961 . S
H2902 C2887 0.961 . S
H2903 C2887 0.961 . S
H2904 C2888 0.931 . S
H2905 C2893 0.930 . S
H2906 C2894 0.956 . S
H2907 C2894 0.961 . S
H2908 C2894 0.961 . S
H2909 C2895 0.958 . S
H2910 C2895 0.961 . S
H2911 C2895 0.960 . S
C2912 C2913 1.391 . S
C2912 C2914 1.394 . S
C2912 H2928 0.931 . S
C2913 C2912 1.391 . S
C2913 C2917 1.376 . S
C2914 C2912 1.394 . S
C2914 C2915 1.369 . S
C2914 C2918 1.531 . S
C2915 C2914 1.369 . S
C2915 C2916 1.410 . S
C2915 C2923 1.503 . S
C2916 C2915 1.410 . S
C2916 C2917 1.392 . S
C2916 C2919 1.511 . S
C2917 C2913 1.376 . S
C2917 C2916 1.392 . S
C2917 H2929 0.929 . S
C2918 C2914 1.531 . S
C2918 H2930 0.960 . S
C2918 H2931 0.962 . S
C2918 H2932 0.960 . S
C2919 C2916 1.511 . S
C2919 H2933 0.961 . S
C2919 H2934 0.961 . S
C2919 H2935 0.961 . S
C2920 C2921 1.370 . S
C2920 C2922 1.363 . S
C2920 H2936 0.931 . S
C2921 C2920 1.370 . S
C2921 C2925 1.408 . S
C2922 C2920 1.363 . S
C2922 C2923 1.370 . S
C2922 C2926 1.524 . S
C2923 C2915 1.503 . S
C2923 C2922 1.370 . S
C2923 C2924 1.403 . S
C2924 C2923 1.403 . S
C2924 C2925 1.404 . S
C2924 C2927 1.539 . S
C2925 C2921 1.408 . S
C2925 C2924 1.404 . S
C2925 H2937 0.930 . S
C2926 C2922 1.524 . S
C2926 H2938 0.956 . S
C2926 H2939 0.961 . S
C2926 H2940 0.961 . S
C2927 C2924 1.539 . S
C2927 H2941 0.958 . S
C2927 H2942 0.961 . S
C2927 H2943 0.960 . S
H2928 C2912 0.931 . S
H2929 C2917 0.929 . S
H2930 C2918 0.960 . S
H2931 C2918 0.962 . S
H2932 C2918 0.960 . S
H2933 C2919 0.961 . S
H2934 C2919 0.961 . S
H2935 C2919 0.961 . S
H2936 C2920 0.931 . S
H2937 C2925 0.930 . S
H2938 C2926 0.956 . S
H2939 C2926 0.961 . S
H2940 C2926 0.961 . S
H2941 C2927 0.958 . S
H2942 C2927 0.961 . S
H2943 C2927 0.960 . S
C2944 C2945 1.391 . S
C2944 C2946 1.394 . S
C2944 H2960 0.931 . S
C2945 C2944 1.391 . S
C2945 C2949 1.376 . S
C2946 C2944 1.394 . S
C2946 C2947 1.369 . S
C2946 C2950 1.531 . S
C2947 C2946 1.369 . S
C2947 C2948 1.410 . S
C2947 C2955 1.503 . S
C2948 C2947 1.410 . S
C2948 C2949 1.392 . S
C2948 C2951 1.511 . S
C2949 C2945 1.376 . S
C2949 C2948 1.392 . S
C2949 H2961 0.929 . S
C2950 C2946 1.531 . S
C2950 H2962 0.960 . S
C2950 H2963 0.962 . S
C2950 H2964 0.960 . S
C2951 C2948 1.511 . S
C2951 H2965 0.961 . S
C2951 H2966 0.961 . S
C2951 H2967 0.961 . S
C2952 C2953 1.370 . S
C2952 C2954 1.363 . S
C2952 H2968 0.931 . S
C2953 C2952 1.370 . S
C2953 C2957 1.408 . S
C2954 C2952 1.363 . S
C2954 C2955 1.370 . S
C2954 C2958 1.524 . S
C2955 C2947 1.503 . S
C2955 C2954 1.370 . S
C2955 C2956 1.403 . S
C2956 C2955 1.403 . S
C2956 C2957 1.404 . S
C2956 C2959 1.539 . S
C2957 C2953 1.408 . S
C2957 C2956 1.404 . S
C2957 H2969 0.930 . S
C2958 C2954 1.524 . S
C2958 H2970 0.956 . S
C2958 H2971 0.961 . S
C2958 H2972 0.961 . S
C2959 C2956 1.539 . S
C2959 H2973 0.958 . S
C2959 H2974 0.961 . S
C2959 H2975 0.960 . S
H2960 C2944 0.931 . S
H2961 C2949 0.929 . S
H2962 C2950 0.960 . S
H2963 C2950 0.962 . S
H2964 C2950 0.960 . S
H2965 C2951 0.961 . S
H2966 C2951 0.961 . S
H2967 C2951 0.961 . S
H2968 C2952 0.931 . S
H2969 C2957 0.930 . S
H2970 C2958 0.956 . S
H2971 C2958 0.961 . S
H2972 C2958 0.961 . S
H2973 C2959 0.958 . S
H2974 C2959 0.961 . S
H2975 C2959 0.960 . S
C2976 C2977 1.391 . S
C2976 C2978 1.394 . S
C2976 H2992 0.931 . S
C2977 C2976 1.391 . S
C2977 C2981 1.376 . S
C2978 C2976 1.394 . S
C2978 C2979 1.369 . S
C2978 C2982 1.531 . S
C2979 C2978 1.369 . S
C2979 C2980 1.410 . S
C2979 C2987 1.503 . S
C2980 C2979 1.410 . S
C2980 C2981 1.392 . S
C2980 C2983 1.511 . S
C2981 C2977 1.376 . S
C2981 C2980 1.392 . S
C2981 H2993 0.929 . S
C2982 C2978 1.531 . S
C2982 H2994 0.960 . S
C2982 H2995 0.962 . S
C2982 H2996 0.960 . S
C2983 C2980 1.511 . S
C2983 H2997 0.961 . S
C2983 H2998 0.961 . S
C2983 H2999 0.961 . S
C2984 C2985 1.370 . S
C2984 C2986 1.363 . S
C2984 H3000 0.931 . S
C2985 C2984 1.370 . S
C2985 C2989 1.408 . S
C2986 C2984 1.363 . S
C2986 C2987 1.370 . S
C2986 C2990 1.524 . S
C2987 C2979 1.503 . S
C2987 C2986 1.370 . S
C2987 C2988 1.403 . S
C2988 C2987 1.403 . S
C2988 C2989 1.404 . S
C2988 C2991 1.539 . S
C2989 C2985 1.408 . S
C2989 C2988 1.404 . S
C2989 H3001 0.930 . S
C2990 C2986 1.524 . S
C2990 H3002 0.956 . S
C2990 H3003 0.961 . S
C2990 H3004 0.961 . S
C2991 C2988 1.539 . S
C2991 H3005 0.958 . S
C2991 H3006 0.961 . S
C2991 H3007 0.960 . S
H2992 C2976 0.931 . S
H2993 C2981 0.929 . S
H2994 C2982 0.960 . S
H2995 C2982 0.962 . S
H2996 C2982 0.960 . S
H2997 C2983 0.961 . S
H2998 C2983 0.961 . S
H2999 C2983 0.961 . S
H3000 C2984 0.931 . S
H3001 C2989 0.930 . S
H3002 C2990 0.956 . S
H3003 C2990 0.961 . S
H3004 C2990 0.961 . S
H3005 C2991 0.958 . S
H3006 C2991 0.961 . S
H3007 C2991 0.960 . S
C3008 C3009 1.391 . S
C3008 C3010 1.394 . S
C3008 H3024 0.931 . S
C3009 C3008 1.391 . S
C3009 C3013 1.376 . S
C3010 C3008 1.394 . S
C3010 C3011 1.369 . S
C3010 C3014 1.531 . S
C3011 C3010 1.369 . S
C3011 C3012 1.410 . S
C3011 C3019 1.503 . S
C3012 C3011 1.410 . S
C3012 C3013 1.392 . S
C3012 C3015 1.511 . S
C3013 C3009 1.376 . S
C3013 C3012 1.392 . S
C3013 H3025 0.929 . S
C3014 C3010 1.531 . S
C3014 H3026 0.960 . S
C3014 H3027 0.962 . S
C3014 H3028 0.960 . S
C3015 C3012 1.511 . S
C3015 H3029 0.961 . S
C3015 H3030 0.961 . S
C3015 H3031 0.961 . S
C3016 C3017 1.370 . S
C3016 C3018 1.363 . S
C3016 H3032 0.931 . S
C3017 C3016 1.370 . S
C3017 C3021 1.408 . S
C3018 C3016 1.363 . S
C3018 C3019 1.370 . S
C3018 C3022 1.524 . S
C3019 C3011 1.503 . S
C3019 C3018 1.370 . S
C3019 C3020 1.403 . S
C3020 C3019 1.403 . S
C3020 C3021 1.404 . S
C3020 C3023 1.539 . S
C3021 C3017 1.408 . S
C3021 C3020 1.404 . S
C3021 H3033 0.930 . S
C3022 C3018 1.524 . S
C3022 H3034 0.956 . S
C3022 H3035 0.961 . S
C3022 H3036 0.961 . S
C3023 C3020 1.539 . S
C3023 H3037 0.958 . S
C3023 H3038 0.961 . S
C3023 H3039 0.960 . S
H3024 C3008 0.931 . S
H3025 C3013 0.929 . S
H3026 C3014 0.960 . S
H3027 C3014 0.962 . S
H3028 C3014 0.960 . S
H3029 C3015 0.961 . S
H3030 C3015 0.961 . S
H3031 C3015 0.961 . S
H3032 C3016 0.931 . S
H3033 C3021 0.930 . S
H3034 C3022 0.956 . S
H3035 C3022 0.961 . S
H3036 C3022 0.961 . S
H3037 C3023 0.958 . S
H3038 C3023 0.961 . S
H3039 C3023 0.960 . S
C3040 C3041 1.391 . S
C3040 C3042 1.394 . S
C3040 H3056 0.931 . S
C3041 C3040 1.391 . S
C3041 C3045 1.376 . S
C3042 C3040 1.394 . S
C3042 C3043 1.369 . S
C3042 C3046 1.531 . S
C3043 C3042 1.369 . S
C3043 C3044 1.410 . S
C3043 C3051 1.503 . S
C3044 C3043 1.410 . S
C3044 C3045 1.392 . S
C3044 C3047 1.511 . S
C3045 C3041 1.376 . S
C3045 C3044 1.392 . S
C3045 H3057 0.929 . S
C3046 C3042 1.531 . S
C3046 H3058 0.960 . S
C3046 H3059 0.962 . S
C3046 H3060 0.960 . S
C3047 C3044 1.511 . S
C3047 H3061 0.961 . S
C3047 H3062 0.961 . S
C3047 H3063 0.961 . S
C3048 C3049 1.370 . S
C3048 C3050 1.363 . S
C3048 H3064 0.931 . S
C3049 C3048 1.370 . S
C3049 C3053 1.408 . S
C3050 C3048 1.363 . S
C3050 C3051 1.370 . S
C3050 C3054 1.524 . S
C3051 C3043 1.503 . S
C3051 C3050 1.370 . S
C3051 C3052 1.403 . S
C3052 C3051 1.403 . S
C3052 C3053 1.404 . S
C3052 C3055 1.539 . S
C3053 C3049 1.408 . S
C3053 C3052 1.404 . S
C3053 H3065 0.930 . S
C3054 C3050 1.524 . S
C3054 H3066 0.956 . S
C3054 H3067 0.961 . S
C3054 H3068 0.961 . S
C3055 C3052 1.539 . S
C3055 H3069 0.958 . S
C3055 H3070 0.961 . S
C3055 H3071 0.960 . S
H3056 C3040 0.931 . S
H3057 C3045 0.929 . S
H3058 C3046 0.960 . S
H3059 C3046 0.962 . S
H3060 C3046 0.960 . S
H3061 C3047 0.961 . S
H3062 C3047 0.961 . S
H3063 C3047 0.961 . S
H3064 C3048 0.931 . S
H3065 C3053 0.930 . S
H3066 C3054 0.956 . S
H3067 C3054 0.961 . S
H3068 C3054 0.961 . S
H3069 C3055 0.958 . S
H3070 C3055 0.961 . S
H3071 C3055 0.960 . S
C3072 C3073 1.391 . S
C3072 C3074 1.394 . S
C3072 H3088 0.931 . S
C3073 C3072 1.391 . S
C3073 C3077 1.376 . S
C3074 C3072 1.394 . S
C3074 C3075 1.369 . S
C3074 C3078 1.531 . S
C3075 C3074 1.369 . S
C3075 C3076 1.410 . S
C3075 C3083 1.503 . S
C3076 C3075 1.410 . S
C3076 C3077 1.392 . S
C3076 C3079 1.511 . S
C3077 C3073 1.376 . S
C3077 C3076 1.392 . S
C3077 H3089 0.929 1_455 S
C3078 C3074 1.531 . S
C3078 H3090 0.960 . S
C3078 H3091 0.962 . S
C3078 H3092 0.960 . S
C3079 C3076 1.511 . S
C3079 H3093 0.961 . S
C3079 H3094 0.961 . S
C3079 H3095 0.961 . S
C3080 C3081 1.370 . S
C3080 C3082 1.363 . S
C3080 H3096 0.931 . S
C3081 C3080 1.370 . S
C3081 C3085 1.408 . S
C3082 C3080 1.363 . S
C3082 C3083 1.370 . S
C3082 C3086 1.524 . S
C3083 C3075 1.503 . S
C3083 C3082 1.370 . S
C3083 C3084 1.403 . S
C3084 C3083 1.403 . S
C3084 C3085 1.404 . S
C3084 C3087 1.539 . S
C3085 C3081 1.408 . S
C3085 C3084 1.404 . S
C3085 H3097 0.930 . S
C3086 C3082 1.524 . S
C3086 H3098 0.956 . S
C3086 H3099 0.961 . S
C3086 H3100 0.961 . S
C3087 C3084 1.539 . S
C3087 H3101 0.958 . S
C3087 H3102 0.961 . S
C3087 H3103 0.960 . S
H3088 C3072 0.931 . S
H3089 C3077 0.929 1_655 S
H3090 C3078 0.960 . S
H3091 C3078 0.962 . S
H3092 C3078 0.960 . S
H3093 C3079 0.961 . S
H3094 C3079 0.961 . S
H3095 C3079 0.961 . S
H3096 C3080 0.931 . S
H3097 C3085 0.930 . S
H3098 C3086 0.956 . S
H3099 C3086 0.961 . S
H3100 C3086 0.961 . S
H3101 C3087 0.958 . S
H3102 C3087 0.961 . S
H3103 C3087 0.960 . S
C3104 C3105 1.391 . S
C3104 C3106 1.394 . S
C3104 H3120 0.931 . S
C3105 C3104 1.391 . S
C3105 C3109 1.376 . S
C3106 C3104 1.394 . S
C3106 C3107 1.369 . S
C3106 C3110 1.531 . S
C3107 C3106 1.369 . S
C3107 C3108 1.410 . S
C3107 C3115 1.503 . S
C3108 C3107 1.410 . S
C3108 C3109 1.392 . S
C3108 C3111 1.511 . S
C3109 C3105 1.376 . S
C3109 C3108 1.392 . S
C3109 H3121 0.929 . S
C3110 C3106 1.531 . S
C3110 H3122 0.960 . S
C3110 H3123 0.962 . S
C3110 H3124 0.960 . S
C3111 C3108 1.511 . S
C3111 H3125 0.961 . S
C3111 H3126 0.961 . S
C3111 H3127 0.961 . S
C3112 C3113 1.370 . S
C3112 C3114 1.363 . S
C3112 H3128 0.931 . S
C3113 C3112 1.370 . S
C3113 C3117 1.408 . S
C3114 C3112 1.363 . S
C3114 C3115 1.370 . S
C3114 C3118 1.524 . S
C3115 C3107 1.503 . S
C3115 C3114 1.370 . S
C3115 C3116 1.403 . S
C3116 C3115 1.403 . S
C3116 C3117 1.404 . S
C3116 C3119 1.539 . S
C3117 C3113 1.408 . S
C3117 C3116 1.404 . S
C3117 H3129 0.930 . S
C3118 C3114 1.524 . S
C3118 H3130 0.956 . S
C3118 H3131 0.961 . S
C3118 H3132 0.961 . S
C3119 C3116 1.539 . S
C3119 H3133 0.958 . S
C3119 H3134 0.961 . S
C3119 H3135 0.960 . S
H3120 C3104 0.931 . S
H3121 C3109 0.929 . S
H3122 C3110 0.960 . S
H3123 C3110 0.962 . S
H3124 C3110 0.960 . S
H3125 C3111 0.961 . S
H3126 C3111 0.961 . S
H3127 C3111 0.961 . S
H3128 C3112 0.931 . S
H3129 C3117 0.930 . S
H3130 C3118 0.956 . S
H3131 C3118 0.961 . S
H3132 C3118 0.961 . S
H3133 C3119 0.958 . S
H3134 C3119 0.961 . S
H3135 C3119 0.960 . S
C3136 C3137 1.391 . S
C3136 C3138 1.394 . S
C3136 H3152 0.931 . S
C3137 C3136 1.391 . S
C3137 C3141 1.376 . S
C3138 C3136 1.394 . S
C3138 C3139 1.369 . S
C3138 C3142 1.531 . S
C3139 C3138 1.369 . S
C3139 C3140 1.410 . S
C3139 C3147 1.503 . S
C3140 C3139 1.410 . S
C3140 C3141 1.392 . S
C3140 C3143 1.511 . S
C3141 C3137 1.376 . S
C3141 C3140 1.392 . S
C3141 H3153 0.929 . S
C3142 C3138 1.531 . S
C3142 H3154 0.960 . S
C3142 H3155 0.962 . S
C3142 H3156 0.960 . S
C3143 C3140 1.511 . S
C3143 H3157 0.961 . S
C3143 H3158 0.961 . S
C3143 H3159 0.961 . S
C3144 C3145 1.370 . S
C3144 C3146 1.363 . S
C3144 H3160 0.931 . S
C3145 C3144 1.370 . S
C3145 C3149 1.408 . S
C3146 C3144 1.363 . S
C3146 C3147 1.370 . S
C3146 C3150 1.524 . S
C3147 C3139 1.503 . S
C3147 C3146 1.370 . S
C3147 C3148 1.403 . S
C3148 C3147 1.403 . S
C3148 C3149 1.404 . S
C3148 C3151 1.539 . S
C3149 C3145 1.408 . S
C3149 C3148 1.404 . S
C3149 H3161 0.930 . S
C3150 C3146 1.524 . S
C3150 H3162 0.956 . S
C3150 H3163 0.961 . S
C3150 H3164 0.961 . S
C3151 C3148 1.539 . S
C3151 H3165 0.958 . S
C3151 H3166 0.961 . S
C3151 H3167 0.960 . S
H3152 C3136 0.931 . S
H3153 C3141 0.929 . S
H3154 C3142 0.960 . S
H3155 C3142 0.962 . S
H3156 C3142 0.960 . S
H3157 C3143 0.961 . S
H3158 C3143 0.961 . S
H3159 C3143 0.961 . S
H3160 C3144 0.931 . S
H3161 C3149 0.930 . S
H3162 C3150 0.956 . S
H3163 C3150 0.961 . S
H3164 C3150 0.961 . S
H3165 C3151 0.958 . S
H3166 C3151 0.961 . S
H3167 C3151 0.960 . S
C3168 C3169 1.391 . S
C3168 C3170 1.394 . S
C3168 H3184 0.931 . S
C3169 C3168 1.391 . S
C3169 C3173 1.376 . S
C3170 C3168 1.394 . S
C3170 C3171 1.369 . S
C3170 C3174 1.531 . S
C3171 C3170 1.369 . S
C3171 C3172 1.410 . S
C3171 C3179 1.503 . S
C3172 C3171 1.410 . S
C3172 C3173 1.392 . S
C3172 C3175 1.511 . S
C3173 C3169 1.376 . S
C3173 C3172 1.392 . S
C3173 H3185 0.929 . S
C3174 C3170 1.531 . S
C3174 H3186 0.960 . S
C3174 H3187 0.962 . S
C3174 H3188 0.960 . S
C3175 C3172 1.511 . S
C3175 H3189 0.961 . S
C3175 H3190 0.961 . S
C3175 H3191 0.961 . S
C3176 C3177 1.370 . S
C3176 C3178 1.363 . S
C3176 H3192 0.931 . S
C3177 C3176 1.370 . S
C3177 C3181 1.408 . S
C3178 C3176 1.363 . S
C3178 C3179 1.370 . S
C3178 C3182 1.524 . S
C3179 C3171 1.503 . S
C3179 C3178 1.370 . S
C3179 C3180 1.403 . S
C3180 C3179 1.403 . S
C3180 C3181 1.404 . S
C3180 C3183 1.539 . S
C3181 C3177 1.408 . S
C3181 C3180 1.404 . S
C3181 H3193 0.930 . S
C3182 C3178 1.524 . S
C3182 H3194 0.956 . S
C3182 H3195 0.961 . S
C3182 H3196 0.961 . S
C3183 C3180 1.539 . S
C3183 H3197 0.958 1_556 S
C3183 H3198 0.967 . S
C3183 H3199 0.960 . S
H3184 C3168 0.931 . S
H3185 C3173 0.929 . S
H3186 C3174 0.960 . S
H3187 C3174 0.962 . S
H3188 C3174 0.960 . S
H3189 C3175 0.961 . S
H3190 C3175 0.961 . S
H3191 C3175 0.961 . S
H3192 C3176 0.931 . S
H3193 C3181 0.930 . S
H3194 C3182 0.956 . S
H3195 C3182 0.961 . S
H3196 C3182 0.961 . S
H3197 C3183 0.958 1_554 S
H3198 C3183 0.967 . S
H3199 C3183 0.960 . S
C3200 C3201 1.391 . S
C3200 C3202 1.394 . S
C3200 H3216 0.931 . S
C3201 C3200 1.391 . S
C3201 C3205 1.376 . S
C3202 C3200 1.394 . S
C3202 C3203 1.369 . S
C3202 C3206 1.531 . S
C3203 C3202 1.369 . S
C3203 C3204 1.410 . S
C3203 C3211 1.503 . S
C3204 C3203 1.410 . S
C3204 C3205 1.392 . S
C3204 C3207 1.511 . S
C3205 C3201 1.376 . S
C3205 C3204 1.392 . S
C3205 H3217 0.929 . S
C3206 C3202 1.531 . S
C3206 H3218 0.960 . S
C3206 H3219 0.962 . S
C3206 H3220 0.960 . S
C3207 C3204 1.511 . S
C3207 H3221 0.961 . S
C3207 H3222 0.961 . S
C3207 H3223 0.961 . S
C3208 C3209 1.370 . S
C3208 C3210 1.363 . S
C3208 H3224 0.931 . S
C3209 C3208 1.370 . S
C3209 C3213 1.408 . S
C3210 C3208 1.363 . S
C3210 C3211 1.370 . S
C3210 C3214 1.524 . S
C3211 C3203 1.503 . S
C3211 C3210 1.370 . S
C3211 C3212 1.403 . S
C3212 C3211 1.403 . S
C3212 C3213 1.404 . S
C3212 C3215 1.539 . S
C3213 C3209 1.408 . S
C3213 C3212 1.404 . S
C3213 H3225 0.930 . S
C3214 C3210 1.524 . S
C3214 H3226 0.956 . S
C3214 H3227 0.961 . S
C3214 H3228 0.961 . S
C3215 C3212 1.539 . S
C3215 H3229 0.958 . S
C3215 H3230 0.961 . S
C3215 H3231 0.960 . S
H3216 C3200 0.931 . S
H3217 C3205 0.929 . S
H3218 C3206 0.960 . S
H3219 C3206 0.962 . S
H3220 C3206 0.960 . S
H3221 C3207 0.961 . S
H3222 C3207 0.961 . S
H3223 C3207 0.961 . S
H3224 C3208 0.931 . S
H3225 C3213 0.930 . S
H3226 C3214 0.956 . S
H3227 C3214 0.961 . S
H3228 C3214 0.961 . S
H3229 C3215 0.958 . S
H3230 C3215 0.961 . S
H3231 C3215 0.960 . S
C3232 C3233 1.391 . S
C3232 C3234 1.394 . S
C3232 H3248 0.931 . S
C3233 C3232 1.391 . S
C3233 C3237 1.376 . S
C3234 C3232 1.394 . S
C3234 C3235 1.369 . S
C3234 C3238 1.531 . S
C3235 C3234 1.369 . S
C3235 C3236 1.410 . S
C3235 C3243 1.503 . S
C3236 C3235 1.410 . S
C3236 C3237 1.392 . S
C3236 C3239 1.511 . S
C3237 C3233 1.376 . S
C3237 C3236 1.392 . S
C3237 H3249 0.929 . S
C3238 C3234 1.531 . S
C3238 H3250 0.960 . S
C3238 H3251 0.962 . S
C3238 H3252 0.960 . S
C3239 C3236 1.511 . S
C3239 H3253 0.961 . S
C3239 H3254 0.961 . S
C3239 H3255 0.961 . S
C3240 C3241 1.370 . S
C3240 C3242 1.363 . S
C3240 H3256 0.931 . S
C3241 C3240 1.370 . S
C3241 C3245 1.408 . S
C3242 C3240 1.363 . S
C3242 C3243 1.370 . S
C3242 C3246 1.524 . S
C3243 C3235 1.503 . S
C3243 C3242 1.370 . S
C3243 C3244 1.403 . S
C3244 C3243 1.403 . S
C3244 C3245 1.404 . S
C3244 C3247 1.539 . S
C3245 C3241 1.408 . S
C3245 C3244 1.404 . S
C3245 H3257 0.930 . S
C3246 C3242 1.524 . S
C3246 H3258 0.956 . S
C3246 H3259 0.961 . S
C3246 H3260 0.961 . S
C3247 C3244 1.539 . S
C3247 H3261 0.958 . S
C3247 H3262 0.961 . S
C3247 H3263 0.960 . S
H3248 C3232 0.931 . S
H3249 C3237 0.929 . S
H3250 C3238 0.960 . S
H3251 C3238 0.962 . S
H3252 C3238 0.960 . S
H3253 C3239 0.961 . S
H3254 C3239 0.961 . S
H3255 C3239 0.961 . S
H3256 C3240 0.931 . S
H3257 C3245 0.930 . S
H3258 C3246 0.956 . S
H3259 C3246 0.961 . S
H3260 C3246 0.961 . S
H3261 C3247 0.958 . S
H3262 C3247 0.961 . S
H3263 C3247 0.960 . S
C3264 C3265 1.391 . S
C3264 C3266 1.394 . S
C3264 H3280 0.931 . S
C3265 C3264 1.391 . S
C3265 C3269 1.376 . S
C3266 C3264 1.394 . S
C3266 C3267 1.369 . S
C3266 C3270 1.531 . S
C3267 C3266 1.369 . S
C3267 C3268 1.410 . S
C3267 C3275 1.503 . S
C3268 C3267 1.410 . S
C3268 C3269 1.392 . S
C3268 C3271 1.511 . S
C3269 C3265 1.376 . S
C3269 C3268 1.392 . S
C3269 H3281 0.929 . S
C3270 C3266 1.531 . S
C3270 H3282 0.960 . S
C3270 H3283 0.962 . S
C3270 H3284 0.960 . S
C3271 C3268 1.511 . S
C3271 H3285 0.961 . S
C3271 H3286 0.961 . S
C3271 H3287 0.961 . S
C3272 C3273 1.370 . S
C3272 C3274 1.363 . S
C3272 H3288 0.931 . S
C3273 C3272 1.370 . S
C3273 C3277 1.408 . S
C3274 C3272 1.363 . S
C3274 C3275 1.370 . S
C3274 C3278 1.524 . S
C3275 C3267 1.503 . S
C3275 C3274 1.370 . S
C3275 C3276 1.403 . S
C3276 C3275 1.403 . S
C3276 C3277 1.404 . S
C3276 C3279 1.539 . S
C3277 C3273 1.408 . S
C3277 C3276 1.404 . S
C3277 H3289 0.930 . S
C3278 C3274 1.524 . S
C3278 H3290 0.956 . S
C3278 H3291 0.961 . S
C3278 H3292 0.961 . S
C3279 C3276 1.539 . S
C3279 H3293 0.958 . S
C3279 H3294 0.961 . S
C3279 H3295 0.960 . S
H3280 C3264 0.931 . S
H3281 C3269 0.929 . S
H3282 C3270 0.960 . S
H3283 C3270 0.962 . S
H3284 C3270 0.960 . S
H3285 C3271 0.961 . S
H3286 C3271 0.961 . S
H3287 C3271 0.961 . S
H3288 C3272 0.931 . S
H3289 C3277 0.930 . S
H3290 C3278 0.956 . S
H3291 C3278 0.961 . S
H3292 C3278 0.961 . S
H3293 C3279 0.958 . S
H3294 C3279 0.961 . S
H3295 C3279 0.960 . S
C3296 C3297 1.391 . S
C3296 C3298 1.394 . S
C3296 H3312 0.931 . S
C3297 C3296 1.391 . S
C3297 C3301 1.376 . S
C3298 C3296 1.394 . S
C3298 C3299 1.369 . S
C3298 C3302 1.531 . S
C3299 C3298 1.369 . S
C3299 C3300 1.410 . S
C3299 C3307 1.503 . S
C3300 C3299 1.410 . S
C3300 C3301 1.392 . S
C3300 C3303 1.511 . S
C3301 C3297 1.376 . S
C3301 C3300 1.392 . S
C3301 H3313 0.929 . S
C3302 C3298 1.531 . S
C3302 H3314 0.960 . S
C3302 H3315 0.962 . S
C3302 H3316 0.960 . S
C3303 C3300 1.511 . S
C3303 H3317 0.961 . S
C3303 H3318 0.961 . S
C3303 H3319 0.961 . S
C3304 C3305 1.370 . S
C3304 C3306 1.363 . S
C3304 H3320 0.931 . S
C3305 C3304 1.370 . S
C3305 C3309 1.408 . S
C3306 C3304 1.363 . S
C3306 C3307 1.370 . S
C3306 C3310 1.524 . S
C3307 C3299 1.503 . S
C3307 C3306 1.370 . S
C3307 C3308 1.403 . S
C3308 C3307 1.403 . S
C3308 C3309 1.404 . S
C3308 C3311 1.539 . S
C3309 C3305 1.408 . S
C3309 C3308 1.404 . S
C3309 H3321 0.930 . S
C3310 C3306 1.524 . S
C3310 H3322 0.956 . S
C3310 H3323 0.961 . S
C3310 H3324 0.961 . S
C3311 C3308 1.539 . S
C3311 H3325 0.958 . S
C3311 H3326 0.961 . S
C3311 H3327 0.960 . S
H3312 C3296 0.931 . S
H3313 C3301 0.929 . S
H3314 C3302 0.960 . S
H3315 C3302 0.962 . S
H3316 C3302 0.960 . S
H3317 C3303 0.961 . S
H3318 C3303 0.961 . S
H3319 C3303 0.961 . S
H3320 C3304 0.931 . S
H3321 C3309 0.930 . S
H3322 C3310 0.956 . S
H3323 C3310 0.961 . S
H3324 C3310 0.961 . S
H3325 C3311 0.958 . S
H3326 C3311 0.961 . S
H3327 C3311 0.960 . S
C3328 C3329 1.391 . S
C3328 C3330 1.394 . S
C3328 H3344 0.931 . S
C3329 C3328 1.391 . S
C3329 C3333 1.376 . S
C3330 C3328 1.394 . S
C3330 C3331 1.369 . S
C3330 C3334 1.531 . S
C3331 C3330 1.369 . S
C3331 C3332 1.410 . S
C3331 C3339 1.503 . S
C3332 C3331 1.410 . S
C3332 C3333 1.392 . S
C3332 C3335 1.511 . S
C3333 C3329 1.376 . S
C3333 C3332 1.392 . S
C3333 H3345 0.929 . S
C3334 C3330 1.531 . S
C3334 H3346 0.960 . S
C3334 H3347 0.962 . S
C3334 H3348 0.960 . S
C3335 C3332 1.511 . S
C3335 H3349 0.961 . S
C3335 H3350 0.961 . S
C3335 H3351 0.961 . S
C3336 C3337 1.370 . S
C3336 C3338 1.363 . S
C3336 H3352 0.931 . S
C3337 C3336 1.370 . S
C3337 C3341 1.408 . S
C3338 C3336 1.363 . S
C3338 C3339 1.370 . S
C3338 C3342 1.524 . S
C3339 C3331 1.503 . S
C3339 C3338 1.370 . S
C3339 C3340 1.403 . S
C3340 C3339 1.403 . S
C3340 C3341 1.404 . S
C3340 C3343 1.539 . S
C3341 C3337 1.408 . S
C3341 C3340 1.404 . S
C3341 H3353 0.930 . S
C3342 C3338 1.524 . S
C3342 H3354 0.956 . S
C3342 H3355 0.961 . S
C3342 H3356 0.961 . S
C3343 C3340 1.539 . S
C3343 H3357 0.958 . S
C3343 H3358 0.961 . S
C3343 H3359 0.960 . S
H3344 C3328 0.931 . S
H3345 C3333 0.929 . S
H3346 C3334 0.960 . S
H3347 C3334 0.962 . S
H3348 C3334 0.960 . S
H3349 C3335 0.961 . S
H3350 C3335 0.961 . S
H3351 C3335 0.961 . S
H3352 C3336 0.931 . S
H3353 C3341 0.930 . S
H3354 C3342 0.956 . S
H3355 C3342 0.961 . S
H3356 C3342 0.961 . S
H3357 C3343 0.958 . S
H3358 C3343 0.961 . S
H3359 C3343 0.960 . S
C3360 C3361 1.391 . S
C3360 C3362 1.394 . S
C3360 H3376 0.931 . S
C3361 C3360 1.391 . S
C3361 C3365 1.376 . S
C3362 C3360 1.394 . S
C3362 C3363 1.369 . S
C3362 C3366 1.531 . S
C3363 C3362 1.369 . S
C3363 C3364 1.410 . S
C3363 C3371 1.503 . S
C3364 C3363 1.410 . S
C3364 C3365 1.392 . S
C3364 C3367 1.511 . S
C3365 C3361 1.376 . S
C3365 C3364 1.392 . S
C3365 H3377 0.929 . S
C3366 C3362 1.531 . S
C3366 H3378 0.960 . S
C3366 H3379 0.962 . S
C3366 H3380 0.960 . S
C3367 C3364 1.511 . S
C3367 H3381 0.961 . S
C3367 H3382 0.961 . S
C3367 H3383 0.961 . S
C3368 C3369 1.370 . S
C3368 C3370 1.363 . S
C3368 H3384 0.931 . S
C3369 C3368 1.370 . S
C3369 C3373 1.408 . S
C3370 C3368 1.363 . S
C3370 C3371 1.370 . S
C3370 C3374 1.524 . S
C3371 C3363 1.503 . S
C3371 C3370 1.370 . S
C3371 C3372 1.403 . S
C3372 C3371 1.403 . S
C3372 C3373 1.404 . S
C3372 C3375 1.539 . S
C3373 C3369 1.408 . S
C3373 C3372 1.404 . S
C3373 H3385 0.930 . S
C3374 C3370 1.524 . S
C3374 H3386 0.956 . S
C3374 H3387 0.961 . S
C3374 H3388 0.961 . S
C3375 C3372 1.539 . S
C3375 H3389 0.958 . S
C3375 H3390 0.961 . S
C3375 H3391 0.960 . S
H3376 C3360 0.931 . S
H3377 C3365 0.929 . S
H3378 C3366 0.960 . S
H3379 C3366 0.962 . S
H3380 C3366 0.960 . S
H3381 C3367 0.961 . S
H3382 C3367 0.961 . S
H3383 C3367 0.961 . S
H3384 C3368 0.931 . S
H3385 C3373 0.930 . S
H3386 C3374 0.956 . S
H3387 C3374 0.961 . S
H3388 C3374 0.961 . S
H3389 C3375 0.958 . S
H3390 C3375 0.961 . S
H3391 C3375 0.960 . S
C3392 C3393 1.391 . S
C3392 C3394 1.394 . S
C3392 H3408 0.931 . S
C3393 C3392 1.391 . S
C3393 C3397 1.376 . S
C3394 C3392 1.394 . S
C3394 C3395 1.369 . S
C3394 C3398 1.531 . S
C3395 C3394 1.369 . S
C3395 C3396 1.410 . S
C3395 C3403 1.503 . S
C3396 C3395 1.410 . S
C3396 C3397 1.392 . S
C3396 C3399 1.511 . S
C3397 C3393 1.376 . S
C3397 C3396 1.392 . S
C3397 H3409 0.929 . S
C3398 C3394 1.531 . S
C3398 H3410 0.960 . S
C3398 H3411 0.962 . S
C3398 H3412 0.960 . S
C3399 C3396 1.511 . S
C3399 H3413 0.961 . S
C3399 H3414 0.961 . S
C3399 H3415 0.961 . S
C3400 C3401 1.370 . S
C3400 C3402 1.363 . S
C3400 H3416 0.931 . S
C3401 C3400 1.370 . S
C3401 C3405 1.408 . S
C3402 C3400 1.363 . S
C3402 C3403 1.370 . S
C3402 C3406 1.524 . S
C3403 C3395 1.503 . S
C3403 C3402 1.370 . S
C3403 C3404 1.403 . S
C3404 C3403 1.403 . S
C3404 C3405 1.404 . S
C3404 C3407 1.539 . S
C3405 C3401 1.408 . S
C3405 C3404 1.404 . S
C3405 H3417 0.930 . S
C3406 C3402 1.524 . S
C3406 H3418 0.956 . S
C3406 H3419 0.961 . S
C3406 H3420 0.961 . S
C3407 C3404 1.539 . S
C3407 H3421 0.958 . S
C3407 H3422 0.961 . S
C3407 H3423 0.960 . S
H3408 C3392 0.931 . S
H3409 C3397 0.929 . S
H3410 C3398 0.960 . S
H3411 C3398 0.962 . S
H3412 C3398 0.960 . S
H3413 C3399 0.961 . S
H3414 C3399 0.961 . S
H3415 C3399 0.961 . S
H3416 C3400 0.931 . S
H3417 C3405 0.930 . S
H3418 C3406 0.956 . S
H3419 C3406 0.961 . S
H3420 C3406 0.961 . S
H3421 C3407 0.958 . S
H3422 C3407 0.961 . S
H3423 C3407 0.960 . S
C3424 C3425 1.391 . S
C3424 C3426 1.394 . S
C3424 H3440 0.931 . S
C3425 C3424 1.391 . S
C3425 C3429 1.376 . S
C3426 C3424 1.394 . S
C3426 C3427 1.369 . S
C3426 C3430 1.531 . S
C3427 C3426 1.369 . S
C3427 C3428 1.410 . S
C3427 C3435 1.503 . S
C3428 C3427 1.410 . S
C3428 C3429 1.392 . S
C3428 C3431 1.511 . S
C3429 C3425 1.376 . S
C3429 C3428 1.392 . S
C3429 H3441 0.929 . S
C3430 C3426 1.531 . S
C3430 H3442 0.960 . S
C3430 H3443 0.962 . S
C3430 H3444 0.960 . S
C3431 C3428 1.511 . S
C3431 H3445 0.961 . S
C3431 H3446 0.961 . S
C3431 H3447 0.961 . S
C3432 C3433 1.370 . S
C3432 C3434 1.363 . S
C3432 H3448 0.931 . S
C3433 C3432 1.370 . S
C3433 C3437 1.408 . S
C3434 C3432 1.363 . S
C3434 C3435 1.370 . S
C3434 C3438 1.524 . S
C3435 C3427 1.503 . S
C3435 C3434 1.370 . S
C3435 C3436 1.403 . S
C3436 C3435 1.403 . S
C3436 C3437 1.404 . S
C3436 C3439 1.539 . S
C3437 C3433 1.408 . S
C3437 C3436 1.404 . S
C3437 H3449 0.930 . S
C3438 C3434 1.524 . S
C3438 H3450 0.956 . S
C3438 H3451 0.961 . S
C3438 H3452 0.961 . S
C3439 C3436 1.539 . S
C3439 H3453 0.958 . S
C3439 H3454 0.961 . S
C3439 H3455 0.960 . S
H3440 C3424 0.931 . S
H3441 C3429 0.929 . S
H3442 C3430 0.960 . S
H3443 C3430 0.962 . S
H3444 C3430 0.960 . S
H3445 C3431 0.961 . S
H3446 C3431 0.961 . S
H3447 C3431 0.961 . S
H3448 C3432 0.931 . S
H3449 C3437 0.930 . S
H3450 C3438 0.956 . S
H3451 C3438 0.961 . S
H3452 C3438 0.961 . S
H3453 C3439 0.958 . S
H3454 C3439 0.961 . S
H3455 C3439 0.960 . S
C3456 C3457 1.391 . S
C3456 C3458 1.394 . S
C3456 H3472 0.931 . S
C3457 C3456 1.391 . S
C3457 C3461 1.376 . S
C3458 C3456 1.394 . S
C3458 C3459 1.369 . S
C3458 C3462 1.531 . S
C3459 C3458 1.369 . S
C3459 C3460 1.410 . S
C3459 C3467 1.503 . S
C3460 C3459 1.410 . S
C3460 C3461 1.392 . S
C3460 C3463 1.511 . S
C3461 C3457 1.376 . S
C3461 C3460 1.392 . S
C3461 H3473 0.929 . S
C3462 C3458 1.531 . S
C3462 H3474 0.960 . S
C3462 H3475 0.962 . S
C3462 H3476 0.960 . S
C3463 C3460 1.511 . S
C3463 H3477 0.961 . S
C3463 H3478 0.961 . S
C3463 H3479 0.961 . S
C3464 C3465 1.370 . S
C3464 C3466 1.363 . S
C3464 H3480 0.931 . S
C3465 C3464 1.370 . S
C3465 C3469 1.408 . S
C3466 C3464 1.363 . S
C3466 C3467 1.370 . S
C3466 C3470 1.524 . S
C3467 C3459 1.503 . S
C3467 C3466 1.370 . S
C3467 C3468 1.403 . S
C3468 C3467 1.403 . S
C3468 C3469 1.404 . S
C3468 C3471 1.539 . S
C3469 C3465 1.408 . S
C3469 C3468 1.404 . S
C3469 H3481 0.930 . S
C3470 C3466 1.524 . S
C3470 H3482 0.956 . S
C3470 H3483 0.961 . S
C3470 H3484 0.961 . S
C3471 C3468 1.539 . S
C3471 H3485 0.958 . S
C3471 H3486 0.961 . S
C3471 H3487 0.960 . S
H3472 C3456 0.931 . S
H3473 C3461 0.929 . S
H3474 C3462 0.960 . S
H3475 C3462 0.962 . S
H3476 C3462 0.960 . S
H3477 C3463 0.961 . S
H3478 C3463 0.961 . S
H3479 C3463 0.961 . S
H3480 C3464 0.931 . S
H3481 C3469 0.930 . S
H3482 C3470 0.956 . S
H3483 C3470 0.961 . S
H3484 C3470 0.961 . S
H3485 C3471 0.958 . S
H3486 C3471 0.961 . S
H3487 C3471 0.960 . S
C3488 C3489 1.391 . S
C3488 C3490 1.394 . S
C3488 H3504 0.931 . S
C3489 C3488 1.391 . S
C3489 C3493 1.376 . S
C3490 C3488 1.394 . S
C3490 C3491 1.369 . S
C3490 C3494 1.531 . S
C3491 C3490 1.369 . S
C3491 C3492 1.410 . S
C3491 C3499 1.503 . S
C3492 C3491 1.410 . S
C3492 C3493 1.392 . S
C3492 C3495 1.511 . S
C3493 C3489 1.376 . S
C3493 C3492 1.392 . S
C3493 H3505 0.929 . S
C3494 C3490 1.531 . S
C3494 H3506 0.960 . S
C3494 H3507 0.962 . S
C3494 H3508 0.960 . S
C3495 C3492 1.511 . S
C3495 H3509 0.961 . S
C3495 H3510 0.961 . S
C3495 H3511 0.961 . S
C3496 C3497 1.370 . S
C3496 C3498 1.363 . S
C3496 H3512 0.931 . S
C3497 C3496 1.370 . S
C3497 C3501 1.408 . S
C3498 C3496 1.363 . S
C3498 C3499 1.370 . S
C3498 C3502 1.524 . S
C3499 C3491 1.503 . S
C3499 C3498 1.370 . S
C3499 C3500 1.403 . S
C3500 C3499 1.403 . S
C3500 C3501 1.404 . S
C3500 C3503 1.539 . S
C3501 C3497 1.408 . S
C3501 C3500 1.404 . S
C3501 H3513 0.930 . S
C3502 C3498 1.524 . S
C3502 H3514 0.956 . S
C3502 H3515 0.961 . S
C3502 H3516 0.961 . S
C3503 C3500 1.539 . S
C3503 H3517 0.958 . S
C3503 H3518 0.961 . S
C3503 H3519 0.960 . S
H3504 C3488 0.931 . S
H3505 C3493 0.929 . S
H3506 C3494 0.960 . S
H3507 C3494 0.962 . S
H3508 C3494 0.960 . S
H3509 C3495 0.961 . S
H3510 C3495 0.961 . S
H3511 C3495 0.961 . S
H3512 C3496 0.931 . S
H3513 C3501 0.930 . S
H3514 C3502 0.956 . S
H3515 C3502 0.961 . S
H3516 C3502 0.961 . S
H3517 C3503 0.958 . S
H3518 C3503 0.961 . S
H3519 C3503 0.960 . S
C3520 C3521 1.391 . S
C3520 C3522 1.394 . S
C3520 H3536 0.931 . S
C3521 C3520 1.391 . S
C3521 C3525 1.376 . S
C3522 C3520 1.394 . S
C3522 C3523 1.369 . S
C3522 C3526 1.531 . S
C3523 C3522 1.369 . S
C3523 C3524 1.410 . S
C3523 C3531 1.503 . S
C3524 C3523 1.410 . S
C3524 C3525 1.392 . S
C3524 C3527 1.511 . S
C3525 C3521 1.376 . S
C3525 C3524 1.392 . S
C3525 H3537 0.929 . S
C3526 C3522 1.531 . S
C3526 H3538 0.960 . S
C3526 H3539 0.962 . S
C3526 H3540 0.960 . S
C3527 C3524 1.511 . S
C3527 H3541 0.961 . S
C3527 H3542 0.961 . S
C3527 H3543 0.961 . S
C3528 C3529 1.370 . S
C3528 C3530 1.363 . S
C3528 H3544 0.931 . S
C3529 C3528 1.370 . S
C3529 C3533 1.408 . S
C3530 C3528 1.363 . S
C3530 C3531 1.370 . S
C3530 C3534 1.524 . S
C3531 C3523 1.503 . S
C3531 C3530 1.370 . S
C3531 C3532 1.403 . S
C3532 C3531 1.403 . S
C3532 C3533 1.404 . S
C3532 C3535 1.539 . S
C3533 C3529 1.408 . S
C3533 C3532 1.404 . S
C3533 H3545 0.930 . S
C3534 C3530 1.524 . S
C3534 H3546 0.956 . S
C3534 H3547 0.961 . S
C3534 H3548 0.961 . S
C3535 C3532 1.539 . S
C3535 H3549 0.958 . S
C3535 H3550 0.961 . S
C3535 H3551 0.960 . S
H3536 C3520 0.931 . S
H3537 C3525 0.929 . S
H3538 C3526 0.960 . S
H3539 C3526 0.962 . S
H3540 C3526 0.960 . S
H3541 C3527 0.961 . S
H3542 C3527 0.961 . S
H3543 C3527 0.961 . S
H3544 C3528 0.931 . S
H3545 C3533 0.930 . S
H3546 C3534 0.956 . S
H3547 C3534 0.961 . S
H3548 C3534 0.961 . S
H3549 C3535 0.958 . S
H3550 C3535 0.961 . S
H3551 C3535 0.960 . S
C3552 C3553 1.391 . S
C3552 C3554 1.394 . S
C3552 H3568 0.931 . S
C3553 C3552 1.391 . S
C3553 C3557 1.376 . S
C3554 C3552 1.394 . S
C3554 C3555 1.369 . S
C3554 C3558 1.531 . S
C3555 C3554 1.369 . S
C3555 C3556 1.410 . S
C3555 C3563 1.503 . S
C3556 C3555 1.410 . S
C3556 C3557 1.392 . S
C3556 C3559 1.511 . S
C3557 C3553 1.376 . S
C3557 C3556 1.392 . S
C3557 H3569 0.929 . S
C3558 C3554 1.531 . S
C3558 H3570 0.960 . S
C3558 H3571 0.962 . S
C3558 H3572 0.960 . S
C3559 C3556 1.511 . S
C3559 H3573 0.961 . S
C3559 H3574 0.961 . S
C3559 H3575 0.961 . S
C3560 C3561 1.370 . S
C3560 C3562 1.363 . S
C3560 H3576 0.931 . S
C3561 C3560 1.370 . S
C3561 C3565 1.408 . S
C3562 C3560 1.363 . S
C3562 C3563 1.370 . S
C3562 C3566 1.524 . S
C3563 C3555 1.503 . S
C3563 C3562 1.370 . S
C3563 C3564 1.403 . S
C3564 C3563 1.403 . S
C3564 C3565 1.404 . S
C3564 C3567 1.539 . S
C3565 C3561 1.408 . S
C3565 C3564 1.404 . S
C3565 H3577 0.930 . S
C3566 C3562 1.524 . S
C3566 H3578 0.956 . S
C3566 H3579 0.961 . S
C3566 H3580 0.961 . S
C3567 C3564 1.539 . S
C3567 H3581 0.958 . S
C3567 H3582 0.961 . S
C3567 H3583 0.960 . S
H3568 C3552 0.931 . S
H3569 C3557 0.929 . S
H3570 C3558 0.960 . S
H3571 C3558 0.962 . S
H3572 C3558 0.960 . S
H3573 C3559 0.961 . S
H3574 C3559 0.961 . S
H3575 C3559 0.961 . S
H3576 C3560 0.931 . S
H3577 C3565 0.930 . S
H3578 C3566 0.956 . S
H3579 C3566 0.961 . S
H3580 C3566 0.961 . S
H3581 C3567 0.958 . S
H3582 C3567 0.961 . S
H3583 C3567 0.960 . S
C3584 C3585 1.391 . S
C3584 C3586 1.394 . S
C3584 H3600 0.931 . S
C3585 C3584 1.391 . S
C3585 C3589 1.376 . S
C3586 C3584 1.394 . S
C3586 C3587 1.369 . S
C3586 C3590 1.531 . S
C3587 C3586 1.369 . S
C3587 C3588 1.410 . S
C3587 C3595 1.503 . S
C3588 C3587 1.410 . S
C3588 C3589 1.392 . S
C3588 C3591 1.511 . S
C3589 C3585 1.376 . S
C3589 C3588 1.392 . S
C3589 H3601 0.929 . S
C3590 C3586 1.531 . S
C3590 H3602 0.960 . S
C3590 H3603 0.962 . S
C3590 H3604 0.960 . S
C3591 C3588 1.511 . S
C3591 H3605 0.961 . S
C3591 H3606 0.961 . S
C3591 H3607 0.961 . S
C3592 C3593 1.370 . S
C3592 C3594 1.363 . S
C3592 H3608 0.931 . S
C3593 C3592 1.370 . S
C3593 C3597 1.408 . S
C3594 C3592 1.363 . S
C3594 C3595 1.370 . S
C3594 C3598 1.524 . S
C3595 C3587 1.503 . S
C3595 C3594 1.370 . S
C3595 C3596 1.403 . S
C3596 C3595 1.403 . S
C3596 C3597 1.404 . S
C3596 C3599 1.539 . S
C3597 C3593 1.408 . S
C3597 C3596 1.404 . S
C3597 H3609 0.930 . S
C3598 C3594 1.524 . S
C3598 H3610 0.956 . S
C3598 H3611 0.961 . S
C3598 H3612 0.961 . S
C3599 C3596 1.539 . S
C3599 H3613 0.958 . S
C3599 H3614 0.961 . S
C3599 H3615 0.960 . S
H3600 C3584 0.931 . S
H3601 C3589 0.929 . S
H3602 C3590 0.960 . S
H3603 C3590 0.962 . S
H3604 C3590 0.960 . S
H3605 C3591 0.961 . S
H3606 C3591 0.961 . S
H3607 C3591 0.961 . S
H3608 C3592 0.931 . S
H3609 C3597 0.930 . S
H3610 C3598 0.956 . S
H3611 C3598 0.961 . S
H3612 C3598 0.961 . S
H3613 C3599 0.958 . S
H3614 C3599 0.961 . S
H3615 C3599 0.960 . S
C3616 C3617 1.391 . S
C3616 C3618 1.394 . S
C3616 H3632 0.931 . S
C3617 C3616 1.391 . S
C3617 C3621 1.376 . S
C3618 C3616 1.394 . S
C3618 C3619 1.369 . S
C3618 C3622 1.531 . S
C3619 C3618 1.369 . S
C3619 C3620 1.410 . S
C3619 C3627 1.503 . S
C3620 C3619 1.410 . S
C3620 C3621 1.392 . S
C3620 C3623 1.511 . S
C3621 C3617 1.376 . S
C3621 C3620 1.392 . S
C3621 H3633 0.929 . S
C3622 C3618 1.531 . S
C3622 H3634 0.960 . S
C3622 H3635 0.962 . S
C3622 H3636 0.960 . S
C3623 C3620 1.511 . S
C3623 H3637 0.961 . S
C3623 H3638 0.961 . S
C3623 H3639 0.961 . S
C3624 C3625 1.370 . S
C3624 C3626 1.363 . S
C3624 H3640 0.931 . S
C3625 C3624 1.370 . S
C3625 C3629 1.408 . S
C3626 C3624 1.363 . S
C3626 C3627 1.370 . S
C3626 C3630 1.524 . S
C3627 C3619 1.503 . S
C3627 C3626 1.370 . S
C3627 C3628 1.403 . S
C3628 C3627 1.403 . S
C3628 C3629 1.404 . S
C3628 C3631 1.539 . S
C3629 C3625 1.408 . S
C3629 C3628 1.404 . S
C3629 H3641 0.930 . S
C3630 C3626 1.524 . S
C3630 H3642 0.956 . S
C3630 H3643 0.961 . S
C3630 H3644 0.961 . S
C3631 C3628 1.539 . S
C3631 H3645 0.958 . S
C3631 H3646 0.961 . S
C3631 H3647 0.960 . S
H3632 C3616 0.931 . S
H3633 C3621 0.929 . S
H3634 C3622 0.960 . S
H3635 C3622 0.962 . S
H3636 C3622 0.960 . S
H3637 C3623 0.961 . S
H3638 C3623 0.961 . S
H3639 C3623 0.961 . S
H3640 C3624 0.931 . S
H3641 C3629 0.930 . S
H3642 C3630 0.956 . S
H3643 C3630 0.961 . S
H3644 C3630 0.961 . S
H3645 C3631 0.958 . S
H3646 C3631 0.961 . S
H3647 C3631 0.960 . S
C3648 C3649 1.391 . S
C3648 C3650 1.394 . S
C3648 H3664 0.931 . S
C3649 C3648 1.391 . S
C3649 C3653 1.376 . S
C3650 C3648 1.394 . S
C3650 C3651 1.369 . S
C3650 C3654 1.531 . S
C3651 C3650 1.369 . S
C3651 C3652 1.410 . S
C3651 C3659 1.503 . S
C3652 C3651 1.410 . S
C3652 C3653 1.392 . S
C3652 C3655 1.511 . S
C3653 C3649 1.376 . S
C3653 C3652 1.392 . S
C3653 H3665 0.929 . S
C3654 C3650 1.531 . S
C3654 H3666 0.960 . S
C3654 H3667 0.962 . S
C3654 H3668 0.960 . S
C3655 C3652 1.511 . S
C3655 H3669 0.961 . S
C3655 H3670 0.961 . S
C3655 H3671 0.961 . S
C3656 C3657 1.370 . S
C3656 C3658 1.363 . S
C3656 H3672 0.931 . S
C3657 C3656 1.370 . S
C3657 C3661 1.408 . S
C3658 C3656 1.363 . S
C3658 C3659 1.370 . S
C3658 C3662 1.524 . S
C3659 C3651 1.503 . S
C3659 C3658 1.370 . S
C3659 C3660 1.403 . S
C3660 C3659 1.403 . S
C3660 C3661 1.404 . S
C3660 C3663 1.539 . S
C3661 C3657 1.408 . S
C3661 C3660 1.404 . S
C3661 H3673 0.930 . S
C3662 C3658 1.524 . S
C3662 H3674 0.956 . S
C3662 H3675 0.961 . S
C3662 H3676 0.961 . S
C3663 C3660 1.539 . S
C3663 H3677 0.958 . S
C3663 H3678 0.961 . S
C3663 H3679 0.960 . S
H3664 C3648 0.931 . S
H3665 C3653 0.929 . S
H3666 C3654 0.960 . S
H3667 C3654 0.962 . S
H3668 C3654 0.960 . S
H3669 C3655 0.961 . S
H3670 C3655 0.961 . S
H3671 C3655 0.961 . S
H3672 C3656 0.931 . S
H3673 C3661 0.930 . S
H3674 C3662 0.956 . S
H3675 C3662 0.961 . S
H3676 C3662 0.961 . S
H3677 C3663 0.958 . S
H3678 C3663 0.961 . S
H3679 C3663 0.960 . S
C3680 C3681 1.391 . S
C3680 C3682 1.394 . S
C3680 H3696 0.931 . S
C3681 C3680 1.391 . S
C3681 C3685 1.376 . S
C3682 C3680 1.394 . S
C3682 C3683 1.369 . S
C3682 C3686 1.531 . S
C3683 C3682 1.369 . S
C3683 C3684 1.410 . S
C3683 C3691 1.503 . S
C3684 C3683 1.410 . S
C3684 C3685 1.392 . S
C3684 C3687 1.511 . S
C3685 C3681 1.376 . S
C3685 C3684 1.392 . S
C3685 H3697 0.929 . S
C3686 C3682 1.531 . S
C3686 H3698 0.960 . S
C3686 H3699 0.962 . S
C3686 H3700 0.960 . S
C3687 C3684 1.511 . S
C3687 H3701 0.961 . S
C3687 H3702 0.961 . S
C3687 H3703 0.961 . S
C3688 C3689 1.370 . S
C3688 C3690 1.363 . S
C3688 H3704 0.931 . S
C3689 C3688 1.370 . S
C3689 C3693 1.408 . S
C3690 C3688 1.363 . S
C3690 C3691 1.370 . S
C3690 C3694 1.524 . S
C3691 C3683 1.503 . S
C3691 C3690 1.370 . S
C3691 C3692 1.403 . S
C3692 C3691 1.403 . S
C3692 C3693 1.404 . S
C3692 C3695 1.539 . S
C3693 C3689 1.408 . S
C3693 C3692 1.404 . S
C3693 H3705 0.930 . S
C3694 C3690 1.524 . S
C3694 H3706 0.956 . S
C3694 H3707 0.961 . S
C3694 H3708 0.961 . S
C3695 C3692 1.539 . S
C3695 H3709 0.958 . S
C3695 H3710 0.961 . S
C3695 H3711 0.960 . S
H3696 C3680 0.931 . S
H3697 C3685 0.929 . S
H3698 C3686 0.960 . S
H3699 C3686 0.962 . S
H3700 C3686 0.960 . S
H3701 C3687 0.961 . S
H3702 C3687 0.961 . S
H3703 C3687 0.961 . S
H3704 C3688 0.931 . S
H3705 C3693 0.930 . S
H3706 C3694 0.956 . S
H3707 C3694 0.961 . S
H3708 C3694 0.961 . S
H3709 C3695 0.958 . S
H3710 C3695 0.961 . S
H3711 C3695 0.960 . S
C3712 C3713 1.391 . S
C3712 C3714 1.394 . S
C3712 H3728 0.931 . S
C3713 C3712 1.391 . S
C3713 C3717 1.376 . S
C3714 C3712 1.394 . S
C3714 C3715 1.369 . S
C3714 C3718 1.531 . S
C3715 C3714 1.369 . S
C3715 C3716 1.410 . S
C3715 C3723 1.503 . S
C3716 C3715 1.410 . S
C3716 C3717 1.392 . S
C3716 C3719 1.511 . S
C3717 C3713 1.376 . S
C3717 C3716 1.392 . S
C3717 H3729 0.929 . S
C3718 C3714 1.531 . S
C3718 H3730 0.960 . S
C3718 H3731 0.962 . S
C3718 H3732 0.960 . S
C3719 C3716 1.511 . S
C3719 H3733 0.961 . S
C3719 H3734 0.961 . S
C3719 H3735 0.961 . S
C3720 C3721 1.370 . S
C3720 C3722 1.363 . S
C3720 H3736 0.931 . S
C3721 C3720 1.370 . S
C3721 C3725 1.408 . S
C3722 C3720 1.363 . S
C3722 C3723 1.370 . S
C3722 C3726 1.524 . S
C3723 C3715 1.503 . S
C3723 C3722 1.370 . S
C3723 C3724 1.403 . S
C3724 C3723 1.403 . S
C3724 C3725 1.404 . S
C3724 C3727 1.539 . S
C3725 C3721 1.408 . S
C3725 C3724 1.404 . S
C3725 H3737 0.930 . S
C3726 C3722 1.524 . S
C3726 H3738 0.956 . S
C3726 H3739 0.961 . S
C3726 H3740 0.961 . S
C3727 C3724 1.539 . S
C3727 H3741 0.958 . S
C3727 H3742 0.961 . S
C3727 H3743 0.960 . S
H3728 C3712 0.931 . S
H3729 C3717 0.929 . S
H3730 C3718 0.960 . S
H3731 C3718 0.962 . S
H3732 C3718 0.960 . S
H3733 C3719 0.961 . S
H3734 C3719 0.961 . S
H3735 C3719 0.961 . S
H3736 C3720 0.931 . S
H3737 C3725 0.930 . S
H3738 C3726 0.956 . S
H3739 C3726 0.961 . S
H3740 C3726 0.961 . S
H3741 C3727 0.958 . S
H3742 C3727 0.961 . S
H3743 C3727 0.960 . S
C3744 C3745 1.391 . S
C3744 C3746 1.394 . S
C3744 H3760 0.931 . S
C3745 C3744 1.391 . S
C3745 C3749 1.376 . S
C3746 C3744 1.394 . S
C3746 C3747 1.369 . S
C3746 C3750 1.531 . S
C3747 C3746 1.369 . S
C3747 C3748 1.410 . S
C3747 C3755 1.503 . S
C3748 C3747 1.410 . S
C3748 C3749 1.392 . S
C3748 C3751 1.511 . S
C3749 C3745 1.376 . S
C3749 C3748 1.392 . S
C3749 H3761 0.929 . S
C3750 C3746 1.531 . S
C3750 H3762 0.960 . S
C3750 H3763 0.962 . S
C3750 H3764 0.960 . S
C3751 C3748 1.511 . S
C3751 H3765 0.961 . S
C3751 H3766 0.961 . S
C3751 H3767 0.961 . S
C3752 C3753 1.370 . S
C3752 C3754 1.363 . S
C3752 H3768 0.931 . S
C3753 C3752 1.370 . S
C3753 C3757 1.408 . S
C3754 C3752 1.363 . S
C3754 C3755 1.370 . S
C3754 C3758 1.524 . S
C3755 C3747 1.503 . S
C3755 C3754 1.370 . S
C3755 C3756 1.403 . S
C3756 C3755 1.403 . S
C3756 C3757 1.404 . S
C3756 C3759 1.539 . S
C3757 C3753 1.408 . S
C3757 C3756 1.404 . S
C3757 H3769 0.930 . S
C3758 C3754 1.524 . S
C3758 H3770 0.956 . S
C3758 H3771 0.961 . S
C3758 H3772 0.961 . S
C3759 C3756 1.539 . S
C3759 H3773 0.958 . S
C3759 H3774 0.961 . S
C3759 H3775 0.960 . S
H3760 C3744 0.931 . S
H3761 C3749 0.929 . S
H3762 C3750 0.960 . S
H3763 C3750 0.962 . S
H3764 C3750 0.960 . S
H3765 C3751 0.961 . S
H3766 C3751 0.961 . S
H3767 C3751 0.961 . S
H3768 C3752 0.931 . S
H3769 C3757 0.930 . S
H3770 C3758 0.956 . S
H3771 C3758 0.961 . S
H3772 C3758 0.961 . S
H3773 C3759 0.958 . S
H3774 C3759 0.961 . S
H3775 C3759 0.960 . S
C3776 C3777 1.391 . S
C3776 C3778 1.394 . S
C3776 H3792 0.931 . S
C3777 C3776 1.391 . S
C3777 C3781 1.376 . S
C3778 C3776 1.394 . S
C3778 C3779 1.369 . S
C3778 C3782 1.531 . S
C3779 C3778 1.369 . S
C3779 C3780 1.410 . S
C3779 C3787 1.503 . S
C3780 C3779 1.410 . S
C3780 C3781 1.392 . S
C3780 C3783 1.511 . S
C3781 C3777 1.376 . S
C3781 C3780 1.392 . S
C3781 H3793 0.929 . S
C3782 C3778 1.531 . S
C3782 H3794 0.960 . S
C3782 H3795 0.962 . S
C3782 H3796 0.960 . S
C3783 C3780 1.511 . S
C3783 H3797 0.961 . S
C3783 H3798 0.961 . S
C3783 H3799 0.961 . S
C3784 C3785 1.370 . S
C3784 C3786 1.363 . S
C3784 H3800 0.931 . S
C3785 C3784 1.370 . S
C3785 C3789 1.408 . S
C3786 C3784 1.363 . S
C3786 C3787 1.370 . S
C3786 C3790 1.524 . S
C3787 C3779 1.503 . S
C3787 C3786 1.370 . S
C3787 C3788 1.403 . S
C3788 C3787 1.403 . S
C3788 C3789 1.404 . S
C3788 C3791 1.539 . S
C3789 C3785 1.408 . S
C3789 C3788 1.404 . S
C3789 H3801 0.930 . S
C3790 C3786 1.524 . S
C3790 H3802 0.956 . S
C3790 H3803 0.961 . S
C3790 H3804 0.961 . S
C3791 C3788 1.539 . S
C3791 H3805 0.958 . S
C3791 H3806 0.961 . S
C3791 H3807 0.960 . S
H3792 C3776 0.931 . S
H3793 C3781 0.929 . S
H3794 C3782 0.960 . S
H3795 C3782 0.962 . S
H3796 C3782 0.960 . S
H3797 C3783 0.961 . S
H3798 C3783 0.961 . S
H3799 C3783 0.961 . S
H3800 C3784 0.931 . S
H3801 C3789 0.930 . S
H3802 C3790 0.956 . S
H3803 C3790 0.961 . S
H3804 C3790 0.961 . S
H3805 C3791 0.958 . S
H3806 C3791 0.961 . S
H3807 C3791 0.960 . S
C3808 C3809 1.391 . S
C3808 C3810 1.394 . S
C3808 H3824 0.931 . S
C3809 C3808 1.391 . S
C3809 C3813 1.376 . S
C3810 C3808 1.394 . S
C3810 C3811 1.369 . S
C3810 C3814 1.531 . S
C3811 C3810 1.369 . S
C3811 C3812 1.410 . S
C3811 C3819 1.503 . S
C3812 C3811 1.410 . S
C3812 C3813 1.392 . S
C3812 C3815 1.511 . S
C3813 C3809 1.376 . S
C3813 C3812 1.392 . S
C3813 H3825 0.929 . S
C3814 C3810 1.531 . S
C3814 H3826 0.960 . S
C3814 H3827 0.962 . S
C3814 H3828 0.960 . S
C3815 C3812 1.511 . S
C3815 H3829 0.961 . S
C3815 H3830 0.961 . S
C3815 H3831 0.961 . S
C3816 C3817 1.370 . S
C3816 C3818 1.363 . S
C3816 H3832 0.931 . S
C3817 C3816 1.370 . S
C3817 C3821 1.408 . S
C3818 C3816 1.363 . S
C3818 C3819 1.370 . S
C3818 C3822 1.524 . S
C3819 C3811 1.503 . S
C3819 C3818 1.370 . S
C3819 C3820 1.403 . S
C3820 C3819 1.403 . S
C3820 C3821 1.404 . S
C3820 C3823 1.539 . S
C3821 C3817 1.408 . S
C3821 C3820 1.404 . S
C3821 H3833 0.930 . S
C3822 C3818 1.524 . S
C3822 H3834 0.956 . S
C3822 H3835 0.961 . S
C3822 H3836 0.961 . S
C3823 C3820 1.539 . S
C3823 H3837 0.958 . S
C3823 H3838 0.961 . S
C3823 H3839 0.960 . S
H3824 C3808 0.931 . S
H3825 C3813 0.929 . S
H3826 C3814 0.960 . S
H3827 C3814 0.962 . S
H3828 C3814 0.960 . S
H3829 C3815 0.961 . S
H3830 C3815 0.961 . S
H3831 C3815 0.961 . S
H3832 C3816 0.931 . S
H3833 C3821 0.930 . S
H3834 C3822 0.956 . S
H3835 C3822 0.961 . S
H3836 C3822 0.961 . S
H3837 C3823 0.958 . S
H3838 C3823 0.961 . S
H3839 C3823 0.960 . S
C3840 C3841 1.391 . S
C3840 C3842 1.394 . S
C3840 H3856 0.931 . S
C3841 C3840 1.391 . S
C3841 C3845 1.376 . S
C3842 C3840 1.394 . S
C3842 C3843 1.369 . S
C3842 C3846 1.531 . S
C3843 C3842 1.369 . S
C3843 C3844 1.410 . S
C3843 C3851 1.503 . S
C3844 C3843 1.410 . S
C3844 C3845 1.392 . S
C3844 C3847 1.511 . S
C3845 C3841 1.376 . S
C3845 C3844 1.392 . S
C3845 H3857 0.929 . S
C3846 C3842 1.531 . S
C3846 H3858 0.960 . S
C3846 H3859 0.962 . S
C3846 H3860 0.960 . S
C3847 C3844 1.511 . S
C3847 H3861 0.961 . S
C3847 H3862 0.961 . S
C3847 H3863 0.961 . S
C3848 C3849 1.370 . S
C3848 C3850 1.363 . S
C3848 H3864 0.931 . S
C3849 C3848 1.370 . S
C3849 C3853 1.408 . S
C3850 C3848 1.363 . S
C3850 C3851 1.370 . S
C3850 C3854 1.524 . S
C3851 C3843 1.503 . S
C3851 C3850 1.370 . S
C3851 C3852 1.403 . S
C3852 C3851 1.403 . S
C3852 C3853 1.404 . S
C3852 C3855 1.539 . S
C3853 C3849 1.408 . S
C3853 C3852 1.404 . S
C3853 H3865 0.930 . S
C3854 C3850 1.524 . S
C3854 H3866 0.956 . S
C3854 H3867 0.961 . S
C3854 H3868 0.961 . S
C3855 C3852 1.539 . S
C3855 H3869 0.958 . S
C3855 H3870 0.961 . S
C3855 H3871 0.960 . S
H3856 C3840 0.931 . S
H3857 C3845 0.929 . S
H3858 C3846 0.960 . S
H3859 C3846 0.962 . S
H3860 C3846 0.960 . S
H3861 C3847 0.961 . S
H3862 C3847 0.961 . S
H3863 C3847 0.961 . S
H3864 C3848 0.931 . S
H3865 C3853 0.930 . S
H3866 C3854 0.956 . S
H3867 C3854 0.961 . S
H3868 C3854 0.961 . S
H3869 C3855 0.958 . S
H3870 C3855 0.961 . S
H3871 C3855 0.960 . S
C3872 C3873 1.391 . S
C3872 C3874 1.394 . S
C3872 H3888 0.931 . S
C3873 C3872 1.391 . S
C3873 C3877 1.376 . S
C3874 C3872 1.394 . S
C3874 C3875 1.369 . S
C3874 C3878 1.531 . S
C3875 C3874 1.369 . S
C3875 C3876 1.410 . S
C3875 C3883 1.503 . S
C3876 C3875 1.410 . S
C3876 C3877 1.392 . S
C3876 C3879 1.511 . S
C3877 C3873 1.376 . S
C3877 C3876 1.392 . S
C3877 H3889 0.929 . S
C3878 C3874 1.531 . S
C3878 H3890 0.960 . S
C3878 H3891 0.962 . S
C3878 H3892 0.960 . S
C3879 C3876 1.511 . S
C3879 H3893 0.961 . S
C3879 H3894 0.961 . S
C3879 H3895 0.961 . S
C3880 C3881 1.370 . S
C3880 C3882 1.363 . S
C3880 H3896 0.931 . S
C3881 C3880 1.370 . S
C3881 C3885 1.408 . S
C3882 C3880 1.363 . S
C3882 C3883 1.370 . S
C3882 C3886 1.524 . S
C3883 C3875 1.503 . S
C3883 C3882 1.370 . S
C3883 C3884 1.403 . S
C3884 C3883 1.403 . S
C3884 C3885 1.404 . S
C3884 C3887 1.539 . S
C3885 C3881 1.408 . S
C3885 C3884 1.404 . S
C3885 H3897 0.930 . S
C3886 C3882 1.524 . S
C3886 H3898 0.956 . S
C3886 H3899 0.961 . S
C3886 H3900 0.961 . S
C3887 C3884 1.539 . S
C3887 H3901 0.958 . S
C3887 H3902 0.961 . S
C3887 H3903 0.960 . S
H3888 C3872 0.931 . S
H3889 C3877 0.929 . S
H3890 C3878 0.960 . S
H3891 C3878 0.962 . S
H3892 C3878 0.960 . S
H3893 C3879 0.961 . S
H3894 C3879 0.961 . S
H3895 C3879 0.961 . S
H3896 C3880 0.931 . S
H3897 C3885 0.930 . S
H3898 C3886 0.956 . S
H3899 C3886 0.961 . S
H3900 C3886 0.961 . S
H3901 C3887 0.958 . S
H3902 C3887 0.961 . S
H3903 C3887 0.960 . S
C3904 C3905 1.391 . S
C3904 C3906 1.394 . S
C3904 H3920 0.931 . S
C3905 C3904 1.391 . S
C3905 C3909 1.376 . S
C3906 C3904 1.394 . S
C3906 C3907 1.369 . S
C3906 C3910 1.531 . S
C3907 C3906 1.369 . S
C3907 C3908 1.410 . S
C3907 C3915 1.503 . S
C3908 C3907 1.410 . S
C3908 C3909 1.392 . S
C3908 C3911 1.511 . S
C3909 C3905 1.376 . S
C3909 C3908 1.392 . S
C3909 H3921 0.929 . S
C3910 C3906 1.531 . S
C3910 H3922 0.960 . S
C3910 H3923 0.962 . S
C3910 H3924 0.960 . S
C3911 C3908 1.511 . S
C3911 H3925 0.961 . S
C3911 H3926 0.961 . S
C3911 H3927 0.961 . S
C3912 C3913 1.370 . S
C3912 C3914 1.363 . S
C3912 H3928 0.931 . S
C3913 C3912 1.370 . S
C3913 C3917 1.408 . S
C3914 C3912 1.363 . S
C3914 C3915 1.370 . S
C3914 C3918 1.524 . S
C3915 C3907 1.503 . S
C3915 C3914 1.370 . S
C3915 C3916 1.403 . S
C3916 C3915 1.403 . S
C3916 C3917 1.404 . S
C3916 C3919 1.539 . S
C3917 C3913 1.408 . S
C3917 C3916 1.404 . S
C3917 H3929 0.930 . S
C3918 C3914 1.524 . S
C3918 H3930 0.956 . S
C3918 H3931 0.961 . S
C3918 H3932 0.961 . S
C3919 C3916 1.539 . S
C3919 H3933 0.958 . S
C3919 H3934 0.961 . S
C3919 H3935 0.960 . S
H3920 C3904 0.931 . S
H3921 C3909 0.929 . S
H3922 C3910 0.960 . S
H3923 C3910 0.962 . S
H3924 C3910 0.960 . S
H3925 C3911 0.961 . S
H3926 C3911 0.961 . S
H3927 C3911 0.961 . S
H3928 C3912 0.931 . S
H3929 C3917 0.930 . S
H3930 C3918 0.956 . S
H3931 C3918 0.961 . S
H3932 C3918 0.961 . S
H3933 C3919 0.958 . S
H3934 C3919 0.961 . S
H3935 C3919 0.960 . S
C3936 C3937 1.391 . S
C3936 C3938 1.394 . S
C3936 H3952 0.931 . S
C3937 C3936 1.391 . S
C3937 C3941 1.376 . S
C3938 C3936 1.394 . S
C3938 C3939 1.369 . S
C3938 C3942 1.531 . S
C3939 C3938 1.369 . S
C3939 C3940 1.410 . S
C3939 C3947 1.503 . S
C3940 C3939 1.410 . S
C3940 C3941 1.392 . S
C3940 C3943 1.511 . S
C3941 C3937 1.376 . S
C3941 C3940 1.392 . S
C3941 H3953 0.929 . S
C3942 C3938 1.531 . S
C3942 H3954 0.960 . S
C3942 H3955 0.962 . S
C3942 H3956 0.960 . S
C3943 C3940 1.511 . S
C3943 H3957 0.961 . S
C3943 H3958 0.961 . S
C3943 H3959 0.961 . S
C3944 C3945 1.370 . S
C3944 C3946 1.363 . S
C3944 H3960 0.931 . S
C3945 C3944 1.370 . S
C3945 C3949 1.408 . S
C3946 C3944 1.363 . S
C3946 C3947 1.370 . S
C3946 C3950 1.524 . S
C3947 C3939 1.503 . S
C3947 C3946 1.370 . S
C3947 C3948 1.403 . S
C3948 C3947 1.403 . S
C3948 C3949 1.404 . S
C3948 C3951 1.539 . S
C3949 C3945 1.408 . S
C3949 C3948 1.404 . S
C3949 H3961 0.930 . S
C3950 C3946 1.524 . S
C3950 H3962 0.956 . S
C3950 H3963 0.961 . S
C3950 H3964 0.961 . S
C3951 C3948 1.539 . S
C3951 H3965 0.958 . S
C3951 H3966 0.961 . S
C3951 H3967 0.960 . S
H3952 C3936 0.931 . S
H3953 C3941 0.929 . S
H3954 C3942 0.960 . S
H3955 C3942 0.962 . S
H3956 C3942 0.960 . S
H3957 C3943 0.961 . S
H3958 C3943 0.961 . S
H3959 C3943 0.961 . S
H3960 C3944 0.931 . S
H3961 C3949 0.930 . S
H3962 C3950 0.956 . S
H3963 C3950 0.961 . S
H3964 C3950 0.961 . S
H3965 C3951 0.958 . S
H3966 C3951 0.961 . S
H3967 C3951 0.960 . S
C3968 C3969 1.391 . S
C3968 C3970 1.394 . S
C3968 H3984 0.931 . S
C3969 C3968 1.391 . S
C3969 C3973 1.376 . S
C3970 C3968 1.394 . S
C3970 C3971 1.369 . S
C3970 C3974 1.531 . S
C3971 C3970 1.369 . S
C3971 C3972 1.410 . S
C3971 C3979 1.503 . S
C3972 C3971 1.410 . S
C3972 C3973 1.392 . S
C3972 C3975 1.511 . S
C3973 C3969 1.376 . S
C3973 C3972 1.392 . S
C3973 H3985 0.929 . S
C3974 C3970 1.531 . S
C3974 H3986 0.960 . S
C3974 H3987 0.962 . S
C3974 H3988 0.960 . S
C3975 C3972 1.511 . S
C3975 H3989 0.961 . S
C3975 H3990 0.961 . S
C3975 H3991 0.961 . S
C3976 C3977 1.370 . S
C3976 C3978 1.363 . S
C3976 H3992 0.931 . S
C3977 C3976 1.370 . S
C3977 C3981 1.408 . S
C3978 C3976 1.363 . S
C3978 C3979 1.370 . S
C3978 C3982 1.524 . S
C3979 C3971 1.503 . S
C3979 C3978 1.370 . S
C3979 C3980 1.403 . S
C3980 C3979 1.403 . S
C3980 C3981 1.404 . S
C3980 C3983 1.539 . S
C3981 C3977 1.408 . S
C3981 C3980 1.404 . S
C3981 H3993 0.930 . S
C3982 C3978 1.524 . S
C3982 H3994 0.956 . S
C3982 H3995 0.961 . S
C3982 H3996 0.961 . S
C3983 C3980 1.539 . S
C3983 H3997 0.958 . S
C3983 H3998 0.961 . S
C3983 H3999 0.960 . S
H3984 C3968 0.931 . S
H3985 C3973 0.929 . S
H3986 C3974 0.960 . S
H3987 C3974 0.962 . S
H3988 C3974 0.960 . S
H3989 C3975 0.961 . S
H3990 C3975 0.961 . S
H3991 C3975 0.961 . S
H3992 C3976 0.931 . S
H3993 C3981 0.930 . S
H3994 C3982 0.956 . S
H3995 C3982 0.961 . S
H3996 C3982 0.961 . S
H3997 C3983 0.958 . S
H3998 C3983 0.961 . S
H3999 C3983 0.960 . S
C4000 C4001 1.391 . S
C4000 C4002 1.394 . S
C4000 H4016 0.931 . S
C4001 C4000 1.391 . S
C4001 C4005 1.376 . S
C4002 C4000 1.394 . S
C4002 C4003 1.369 . S
C4002 C4006 1.531 . S
C4003 C4002 1.369 . S
C4003 C4004 1.410 . S
C4003 C4011 1.503 . S
C4004 C4003 1.410 . S
C4004 C4005 1.392 . S
C4004 C4007 1.511 . S
C4005 C4001 1.376 . S
C4005 C4004 1.392 . S
C4005 H4017 0.929 . S
C4006 C4002 1.531 . S
C4006 H4018 0.960 . S
C4006 H4019 0.962 . S
C4006 H4020 0.960 . S
C4007 C4004 1.511 . S
C4007 H4021 0.961 . S
C4007 H4022 0.961 . S
C4007 H4023 0.961 . S
C4008 C4009 1.370 . S
C4008 C4010 1.363 . S
C4008 H4024 0.931 . S
C4009 C4008 1.370 . S
C4009 C4013 1.408 . S
C4010 C4008 1.363 . S
C4010 C4011 1.370 . S
C4010 C4014 1.524 . S
C4011 C4003 1.503 . S
C4011 C4010 1.370 . S
C4011 C4012 1.403 . S
C4012 C4011 1.403 . S
C4012 C4013 1.404 . S
C4012 C4015 1.539 . S
C4013 C4009 1.408 . S
C4013 C4012 1.404 . S
C4013 H4025 0.930 . S
C4014 C4010 1.524 . S
C4014 H4026 0.956 . S
C4014 H4027 0.961 . S
C4014 H4028 0.961 . S
C4015 C4012 1.539 . S
C4015 H4029 0.958 . S
C4015 H4030 0.961 . S
C4015 H4031 0.960 . S
H4016 C4000 0.931 . S
H4017 C4005 0.929 . S
H4018 C4006 0.960 . S
H4019 C4006 0.962 . S
H4020 C4006 0.960 . S
H4021 C4007 0.961 . S
H4022 C4007 0.961 . S
H4023 C4007 0.961 . S
H4024 C4008 0.931 . S
H4025 C4013 0.930 . S
H4026 C4014 0.956 . S
H4027 C4014 0.961 . S
H4028 C4014 0.961 . S
H4029 C4015 0.958 . S
H4030 C4015 0.961 . S
H4031 C4015 0.960 . S
C4032 C4033 1.391 . S
C4032 C4034 1.394 . S
C4032 H4048 0.931 . S
C4033 C4032 1.391 . S
C4033 C4037 1.376 . S
C4034 C4032 1.394 . S
C4034 C4035 1.369 . S
C4034 C4038 1.531 . S
C4035 C4034 1.369 . S
C4035 C4036 1.410 . S
C4035 C4043 1.503 . S
C4036 C4035 1.410 . S
C4036 C4037 1.392 . S
C4036 C4039 1.511 . S
C4037 C4033 1.376 . S
C4037 C4036 1.392 . S
C4037 H4049 0.929 . S
C4038 C4034 1.531 . S
C4038 H4050 0.960 . S
C4038 H4051 0.962 . S
C4038 H4052 0.960 . S
C4039 C4036 1.511 . S
C4039 H4053 0.961 . S
C4039 H4054 0.961 . S
C4039 H4055 0.961 . S
C4040 C4041 1.370 . S
C4040 C4042 1.363 . S
C4040 H4056 0.931 . S
C4041 C4040 1.370 . S
C4041 C4045 1.408 . S
C4042 C4040 1.363 . S
C4042 C4043 1.370 . S
C4042 C4046 1.524 . S
C4043 C4035 1.503 . S
C4043 C4042 1.370 . S
C4043 C4044 1.403 . S
C4044 C4043 1.403 . S
C4044 C4045 1.404 . S
C4044 C4047 1.539 . S
C4045 C4041 1.408 . S
C4045 C4044 1.404 . S
C4045 H4057 0.930 . S
C4046 C4042 1.524 . S
C4046 H4058 0.956 . S
C4046 H4059 0.961 . S
C4046 H4060 0.961 . S
C4047 C4044 1.539 . S
C4047 H4061 0.958 . S
C4047 H4062 0.961 . S
C4047 H4063 0.960 . S
H4048 C4032 0.931 . S
H4049 C4037 0.929 . S
H4050 C4038 0.960 . S
H4051 C4038 0.962 . S
H4052 C4038 0.960 . S
H4053 C4039 0.961 . S
H4054 C4039 0.961 . S
H4055 C4039 0.961 . S
H4056 C4040 0.931 . S
H4057 C4045 0.930 . S
H4058 C4046 0.956 . S
H4059 C4046 0.961 . S
H4060 C4046 0.961 . S
H4061 C4047 0.958 . S
H4062 C4047 0.961 . S
H4063 C4047 0.960 . S
C4064 C4065 1.391 . S
C4064 C4066 1.394 . S
C4064 H4080 0.931 . S
C4065 C4064 1.391 . S
C4065 C4069 1.376 . S
C4066 C4064 1.394 . S
C4066 C4067 1.369 . S
C4066 C4070 1.531 . S
C4067 C4066 1.369 . S
C4067 C4068 1.410 . S
C4067 C4075 1.503 . S
C4068 C4067 1.410 . S
C4068 C4069 1.392 . S
C4068 C4071 1.511 . S
C4069 C4065 1.376 . S
C4069 C4068 1.392 . S
C4069 H4081 0.929 . S
C4070 C4066 1.531 . S
C4070 H4082 0.960 . S
C4070 H4083 0.962 . S
C4070 H4084 0.960 . S
C4071 C4068 1.511 . S
C4071 H4085 0.961 . S
C4071 H4086 0.961 . S
C4071 H4087 0.961 . S
C4072 C4073 1.370 . S
C4072 C4074 1.363 . S
C4072 H4088 0.931 . S
C4073 C4072 1.370 . S
C4073 C4077 1.408 . S
C4074 C4072 1.363 . S
C4074 C4075 1.370 . S
C4074 C4078 1.524 . S
C4075 C4067 1.503 . S
C4075 C4074 1.370 . S
C4075 C4076 1.403 . S
C4076 C4075 1.403 . S
C4076 C4077 1.404 . S
C4076 C4079 1.539 . S
C4077 C4073 1.408 . S
C4077 C4076 1.404 . S
C4077 H4089 0.930 . S
C4078 C4074 1.524 . S
C4078 H4090 0.956 . S
C4078 H4091 0.961 . S
C4078 H4092 0.961 . S
C4079 C4076 1.539 . S
C4079 H4093 0.958 . S
C4079 H4094 0.961 . S
C4079 H4095 0.960 . S
H4080 C4064 0.931 . S
H4081 C4069 0.929 . S
H4082 C4070 0.960 . S
H4083 C4070 0.962 . S
H4084 C4070 0.960 . S
H4085 C4071 0.961 . S
H4086 C4071 0.961 . S
H4087 C4071 0.961 . S
H4088 C4072 0.931 . S
H4089 C4077 0.930 . S
H4090 C4078 0.956 . S
H4091 C4078 0.961 . S
H4092 C4078 0.961 . S
H4093 C4079 0.958 . S
H4094 C4079 0.961 . S
H4095 C4079 0.960 . S
C4096 C4097 1.391 . S
C4096 C4098 1.394 . S
C4096 H4112 0.931 . S
C4097 C4096 1.391 . S
C4097 C4101 1.376 . S
C4098 C4096 1.394 . S
C4098 C4099 1.369 . S
C4098 C4102 1.531 . S
C4099 C4098 1.369 . S
C4099 C4100 1.410 . S
C4099 C4107 1.503 . S
C4100 C4099 1.410 . S
C4100 C4101 1.392 . S
C4100 C4103 1.511 . S
C4101 C4097 1.376 . S
C4101 C4100 1.392 . S
C4101 H4113 0.929 . S
C4102 C4098 1.531 . S
C4102 H4114 0.960 . S
C4102 H4115 0.962 . S
C4102 H4116 0.960 . S
C4103 C4100 1.511 . S
C4103 H4117 0.961 . S
C4103 H4118 0.961 . S
C4103 H4119 0.961 . S
C4104 C4105 1.370 . S
C4104 C4106 1.363 . S
C4104 H4120 0.931 . S
C4105 C4104 1.370 . S
C4105 C4109 1.408 . S
C4106 C4104 1.363 . S
C4106 C4107 1.370 . S
C4106 C4110 1.524 . S
C4107 C4099 1.503 . S
C4107 C4106 1.370 . S
C4107 C4108 1.403 . S
C4108 C4107 1.403 . S
C4108 C4109 1.404 . S
C4108 C4111 1.539 . S
C4109 C4105 1.408 . S
C4109 C4108 1.404 . S
C4109 H4121 0.930 . S
C4110 C4106 1.524 . S
C4110 H4122 0.956 . S
C4110 H4123 0.961 . S
C4110 H4124 0.961 . S
C4111 C4108 1.539 . S
C4111 H4125 0.958 . S
C4111 H4126 0.961 . S
C4111 H4127 0.960 . S
H4112 C4096 0.931 . S
H4113 C4101 0.929 . S
H4114 C4102 0.960 . S
H4115 C4102 0.962 . S
H4116 C4102 0.960 . S
H4117 C4103 0.961 . S
H4118 C4103 0.961 . S
H4119 C4103 0.961 . S
H4120 C4104 0.931 . S
H4121 C4109 0.930 . S
H4122 C4110 0.956 . S
H4123 C4110 0.961 . S
H4124 C4110 0.961 . S
H4125 C4111 0.958 . S
H4126 C4111 0.961 . S
H4127 C4111 0.960 . S
C4128 C4129 1.391 . S
C4128 C4130 1.394 . S
C4128 H4144 0.931 . S
C4129 C4128 1.391 . S
C4129 C4133 1.376 . S
C4130 C4128 1.394 . S
C4130 C4131 1.369 . S
C4130 C4134 1.531 . S
C4131 C4130 1.369 . S
C4131 C4132 1.410 . S
C4131 C4139 1.503 . S
C4132 C4131 1.410 . S
C4132 C4133 1.392 . S
C4132 C4135 1.511 . S
C4133 C4129 1.376 . S
C4133 C4132 1.392 . S
C4133 H4145 0.929 . S
C4134 C4130 1.531 . S
C4134 H4146 0.960 . S
C4134 H4147 0.962 . S
C4134 H4148 0.960 . S
C4135 C4132 1.511 . S
C4135 H4149 0.961 . S
C4135 H4150 0.961 . S
C4135 H4151 0.961 . S
C4136 C4137 1.370 . S
C4136 C4138 1.363 . S
C4136 H4152 0.931 . S
C4137 C4136 1.370 . S
C4137 C4141 1.408 . S
C4138 C4136 1.363 . S
C4138 C4139 1.370 . S
C4138 C4142 1.524 . S
C4139 C4131 1.503 . S
C4139 C4138 1.370 . S
C4139 C4140 1.403 . S
C4140 C4139 1.403 . S
C4140 C4141 1.404 . S
C4140 C4143 1.539 . S
C4141 C4137 1.408 . S
C4141 C4140 1.404 . S
C4141 H4153 0.930 . S
C4142 C4138 1.524 . S
C4142 H4154 0.956 . S
C4142 H4155 0.961 . S
C4142 H4156 0.961 . S
C4143 C4140 1.539 . S
C4143 H4157 0.958 . S
C4143 H4158 0.961 . S
C4143 H4159 0.960 . S
H4144 C4128 0.931 . S
H4145 C4133 0.929 . S
H4146 C4134 0.960 . S
H4147 C4134 0.962 . S
H4148 C4134 0.960 . S
H4149 C4135 0.961 . S
H4150 C4135 0.961 . S
H4151 C4135 0.961 . S
H4152 C4136 0.931 . S
H4153 C4141 0.930 . S
H4154 C4142 0.956 . S
H4155 C4142 0.961 . S
H4156 C4142 0.961 . S
H4157 C4143 0.958 . S
H4158 C4143 0.961 . S
H4159 C4143 0.960 . S
C4160 C4161 1.391 . S
C4160 C4162 1.394 . S
C4160 H4176 0.931 . S
C4161 C4160 1.391 . S
C4161 C4165 1.376 . S
C4162 C4160 1.394 . S
C4162 C4163 1.369 . S
C4162 C4166 1.531 . S
C4163 C4162 1.369 . S
C4163 C4164 1.410 . S
C4163 C4171 1.503 . S
C4164 C4163 1.410 . S
C4164 C4165 1.392 . S
C4164 C4167 1.511 . S
C4165 C4161 1.376 . S
C4165 C4164 1.392 . S
C4165 H4177 0.929 . S
C4166 C4162 1.531 . S
C4166 H4178 0.960 . S
C4166 H4179 0.962 . S
C4166 H4180 0.960 . S
C4167 C4164 1.511 . S
C4167 H4181 0.961 . S
C4167 H4182 0.961 . S
C4167 H4183 0.961 . S
C4168 C4169 1.370 . S
C4168 C4170 1.363 . S
C4168 H4184 0.931 . S
C4169 C4168 1.370 . S
C4169 C4173 1.408 . S
C4170 C4168 1.363 . S
C4170 C4171 1.370 . S
C4170 C4174 1.524 . S
C4171 C4163 1.503 . S
C4171 C4170 1.370 . S
C4171 C4172 1.403 . S
C4172 C4171 1.403 . S
C4172 C4173 1.404 . S
C4172 C4175 1.539 . S
C4173 C4169 1.408 . S
C4173 C4172 1.404 . S
C4173 H4185 0.930 . S
C4174 C4170 1.524 . S
C4174 H4186 0.956 . S
C4174 H4187 0.961 . S
C4174 H4188 0.961 . S
C4175 C4172 1.539 . S
C4175 H4189 0.958 . S
C4175 H4190 0.961 . S
C4175 H4191 0.960 . S
H4176 C4160 0.931 . S
H4177 C4165 0.929 . S
H4178 C4166 0.960 . S
H4179 C4166 0.962 . S
H4180 C4166 0.960 . S
H4181 C4167 0.961 . S
H4182 C4167 0.961 . S
H4183 C4167 0.961 . S
H4184 C4168 0.931 . S
H4185 C4173 0.930 . S
H4186 C4174 0.956 . S
H4187 C4174 0.961 . S
H4188 C4174 0.961 . S
H4189 C4175 0.958 . S
H4190 C4175 0.961 . S
H4191 C4175 0.960 . S
C4192 C4193 1.391 . S
C4192 C4194 1.394 . S
C4192 H4208 0.931 . S
C4193 C4192 1.391 . S
C4193 C4197 1.376 . S
C4194 C4192 1.394 . S
C4194 C4195 1.369 . S
C4194 C4198 1.531 . S
C4195 C4194 1.369 . S
C4195 C4196 1.410 . S
C4195 C4203 1.503 . S
C4196 C4195 1.410 . S
C4196 C4197 1.392 . S
C4196 C4199 1.511 . S
C4197 C4193 1.376 . S
C4197 C4196 1.392 . S
C4197 H4209 0.929 . S
C4198 C4194 1.531 . S
C4198 H4210 0.960 . S
C4198 H4211 0.962 . S
C4198 H4212 0.960 . S
C4199 C4196 1.511 . S
C4199 H4213 0.961 . S
C4199 H4214 0.961 . S
C4199 H4215 0.961 . S
C4200 C4201 1.370 . S
C4200 C4202 1.363 . S
C4200 H4216 0.931 . S
C4201 C4200 1.370 . S
C4201 C4205 1.408 . S
C4202 C4200 1.363 . S
C4202 C4203 1.370 . S
C4202 C4206 1.524 . S
C4203 C4195 1.503 . S
C4203 C4202 1.370 . S
C4203 C4204 1.403 . S
C4204 C4203 1.403 . S
C4204 C4205 1.404 . S
C4204 C4207 1.539 . S
C4205 C4201 1.408 . S
C4205 C4204 1.404 . S
C4205 H4217 0.930 . S
C4206 C4202 1.524 . S
C4206 H4218 0.956 . S
C4206 H4219 0.961 . S
C4206 H4220 0.961 . S
C4207 C4204 1.539 . S
C4207 H4221 0.958 . S
C4207 H4222 0.961 . S
C4207 H4223 0.960 . S
H4208 C4192 0.931 . S
H4209 C4197 0.929 . S
H4210 C4198 0.960 . S
H4211 C4198 0.962 . S
H4212 C4198 0.960 . S
H4213 C4199 0.961 . S
H4214 C4199 0.961 . S
H4215 C4199 0.961 . S
H4216 C4200 0.931 . S
H4217 C4205 0.930 . S
H4218 C4206 0.956 . S
H4219 C4206 0.961 . S
H4220 C4206 0.961 . S
H4221 C4207 0.958 . S
H4222 C4207 0.961 . S
H4223 C4207 0.960 . S
C4224 C4225 1.391 . S
C4224 C4226 1.394 . S
C4224 H4240 0.931 . S
C4225 C4224 1.391 . S
C4225 C4229 1.376 . S
C4226 C4224 1.394 . S
C4226 C4227 1.369 . S
C4226 C4230 1.531 . S
C4227 C4226 1.369 . S
C4227 C4228 1.410 . S
C4227 C4235 1.503 . S
C4228 C4227 1.410 . S
C4228 C4229 1.392 . S
C4228 C4231 1.511 . S
C4229 C4225 1.376 . S
C4229 C4228 1.392 . S
C4229 H4241 0.929 . S
C4230 C4226 1.531 . S
C4230 H4242 0.960 . S
C4230 H4243 0.962 . S
C4230 H4244 0.960 . S
C4231 C4228 1.511 . S
C4231 H4245 0.961 . S
C4231 H4246 0.961 . S
C4231 H4247 0.961 . S
C4232 C4233 1.370 . S
C4232 C4234 1.363 . S
C4232 H4248 0.931 . S
C4233 C4232 1.370 . S
C4233 C4237 1.408 . S
C4234 C4232 1.363 . S
C4234 C4235 1.370 . S
C4234 C4238 1.524 . S
C4235 C4227 1.503 . S
C4235 C4234 1.370 . S
C4235 C4236 1.403 . S
C4236 C4235 1.403 . S
C4236 C4237 1.404 . S
C4236 C4239 1.539 . S
C4237 C4233 1.408 . S
C4237 C4236 1.404 . S
C4237 H4249 0.930 . S
C4238 C4234 1.524 . S
C4238 H4250 0.956 . S
C4238 H4251 0.961 . S
C4238 H4252 0.961 . S
C4239 C4236 1.539 . S
C4239 H4253 0.958 . S
C4239 H4254 0.961 . S
C4239 H4255 0.960 . S
H4240 C4224 0.931 . S
H4241 C4229 0.929 . S
H4242 C4230 0.960 . S
H4243 C4230 0.962 . S
H4244 C4230 0.960 . S
H4245 C4231 0.961 . S
H4246 C4231 0.961 . S
H4247 C4231 0.961 . S
H4248 C4232 0.931 . S
H4249 C4237 0.930 . S
H4250 C4238 0.956 . S
H4251 C4238 0.961 . S
H4252 C4238 0.961 . S
H4253 C4239 0.958 . S
H4254 C4239 0.961 . S
H4255 C4239 0.960 . S
C4256 C4257 1.391 . S
C4256 C4258 1.394 . S
C4256 H4272 0.931 . S
C4257 C4256 1.391 . S
C4257 C4261 1.376 . S
C4258 C4256 1.394 . S
C4258 C4259 1.369 . S
C4258 C4262 1.531 . S
C4259 C4258 1.369 . S
C4259 C4260 1.410 . S
C4259 C4267 1.503 . S
C4260 C4259 1.410 . S
C4260 C4261 1.392 . S
C4260 C4263 1.511 . S
C4261 C4257 1.376 . S
C4261 C4260 1.392 . S
C4261 H4273 0.929 . S
C4262 C4258 1.531 . S
C4262 H4274 0.960 . S
C4262 H4275 0.962 . S
C4262 H4276 0.960 . S
C4263 C4260 1.511 . S
C4263 H4277 0.961 . S
C4263 H4278 0.961 . S
C4263 H4279 0.961 . S
C4264 C4265 1.370 . S
C4264 C4266 1.363 . S
C4264 H4280 0.931 . S
C4265 C4264 1.370 . S
C4265 C4269 1.408 . S
C4266 C4264 1.363 . S
C4266 C4267 1.370 . S
C4266 C4270 1.524 . S
C4267 C4259 1.503 . S
C4267 C4266 1.370 . S
C4267 C4268 1.403 . S
C4268 C4267 1.403 . S
C4268 C4269 1.404 . S
C4268 C4271 1.539 . S
C4269 C4265 1.408 . S
C4269 C4268 1.404 . S
C4269 H4281 0.930 . S
C4270 C4266 1.524 . S
C4270 H4282 0.956 . S
C4270 H4283 0.961 . S
C4270 H4284 0.961 . S
C4271 C4268 1.539 . S
C4271 H4285 0.958 . S
C4271 H4286 0.961 . S
C4271 H4287 0.960 . S
H4272 C4256 0.931 . S
H4273 C4261 0.929 . S
H4274 C4262 0.960 . S
H4275 C4262 0.962 . S
H4276 C4262 0.960 . S
H4277 C4263 0.961 . S
H4278 C4263 0.961 . S
H4279 C4263 0.961 . S
H4280 C4264 0.931 . S
H4281 C4269 0.930 . S
H4282 C4270 0.956 . S
H4283 C4270 0.961 . S
H4284 C4270 0.961 . S
H4285 C4271 0.958 . S
H4286 C4271 0.961 . S
H4287 C4271 0.960 . S
C4288 C4289 1.391 . S
C4288 C4290 1.394 . S
C4288 H4304 0.931 . S
C4289 C4288 1.391 . S
C4289 C4293 1.376 . S
C4290 C4288 1.394 . S
C4290 C4291 1.369 . S
C4290 C4294 1.531 . S
C4291 C4290 1.369 . S
C4291 C4292 1.410 . S
C4291 C4299 1.503 . S
C4292 C4291 1.410 . S
C4292 C4293 1.392 . S
C4292 C4295 1.511 . S
C4293 C4289 1.376 . S
C4293 C4292 1.392 . S
C4293 H4305 0.929 1_554 S
C4294 C4290 1.531 . S
C4294 H4306 0.960 . S
C4294 H4307 0.962 . S
C4294 H4308 0.960 . S
C4295 C4292 1.511 . S
C4295 H4309 0.961 . S
C4295 H4310 0.961 . S
C4295 H4311 0.961 . S
C4296 C4297 1.370 . S
C4296 C4298 1.363 . S
C4296 H4312 0.931 . S
C4297 C4296 1.370 . S
C4297 C4301 1.408 . S
C4298 C4296 1.363 . S
C4298 C4299 1.370 . S
C4298 C4302 1.524 . S
C4299 C4291 1.503 . S
C4299 C4298 1.370 . S
C4299 C4300 1.403 . S
C4300 C4299 1.403 . S
C4300 C4301 1.404 . S
C4300 C4303 1.539 . S
C4301 C4297 1.408 . S
C4301 C4300 1.404 . S
C4301 H4313 0.930 . S
C4302 C4298 1.524 . S
C4302 H4314 0.956 . S
C4302 H4315 0.961 . S
C4302 H4316 0.961 . S
C4303 C4300 1.539 . S
C4303 H4317 0.958 . S
C4303 H4318 0.961 . S
C4303 H4319 0.960 . S
H4304 C4288 0.931 . S
H4305 C4293 0.929 1_556 S
H4306 C4294 0.960 . S
H4307 C4294 0.962 . S
H4308 C4294 0.960 . S
H4309 C4295 0.961 . S
H4310 C4295 0.961 . S
H4311 C4295 0.961 . S
H4312 C4296 0.931 . S
H4313 C4301 0.930 . S
H4314 C4302 0.956 . S
H4315 C4302 0.961 . S
H4316 C4302 0.961 . S
H4317 C4303 0.958 . S
H4318 C4303 0.961 . S
H4319 C4303 0.960 . S
C4320 C4321 1.391 . S
C4320 C4322 1.394 . S
C4320 H4336 0.931 . S
C4321 C4320 1.391 . S
C4321 C4325 1.376 . S
C4322 C4320 1.394 . S
C4322 C4323 1.369 . S
C4322 C4326 1.531 . S
C4323 C4322 1.369 . S
C4323 C4324 1.410 . S
C4323 C4331 1.503 . S
C4324 C4323 1.410 . S
C4324 C4325 1.392 . S
C4324 C4327 1.511 . S
C4325 C4321 1.376 . S
C4325 C4324 1.392 . S
C4325 H4337 0.929 . S
C4326 C4322 1.531 . S
C4326 H4338 0.960 . S
C4326 H4339 0.962 . S
C4326 H4340 0.960 . S
C4327 C4324 1.511 . S
C4327 H4341 0.961 . S
C4327 H4342 0.961 . S
C4327 H4343 0.961 . S
C4328 C4329 1.370 . S
C4328 C4330 1.363 . S
C4328 H4344 0.931 . S
C4329 C4328 1.370 . S
C4329 C4333 1.408 . S
C4330 C4328 1.363 . S
C4330 C4331 1.370 . S
C4330 C4334 1.524 . S
C4331 C4323 1.503 . S
C4331 C4330 1.370 . S
C4331 C4332 1.403 . S
C4332 C4331 1.403 . S
C4332 C4333 1.404 . S
C4332 C4335 1.539 . S
C4333 C4329 1.408 . S
C4333 C4332 1.404 . S
C4333 H4345 0.930 . S
C4334 C4330 1.524 . S
C4334 H4346 0.956 . S
C4334 H4347 0.961 . S
C4334 H4348 0.961 . S
C4335 C4332 1.539 . S
C4335 H4349 0.958 . S
C4335 H4350 0.961 . S
C4335 H4351 0.960 . S
H4336 C4320 0.931 . S
H4337 C4325 0.929 . S
H4338 C4326 0.960 . S
H4339 C4326 0.962 . S
H4340 C4326 0.960 . S
H4341 C4327 0.961 . S
H4342 C4327 0.961 . S
H4343 C4327 0.961 . S
H4344 C4328 0.931 . S
H4345 C4333 0.930 . S
H4346 C4334 0.956 . S
H4347 C4334 0.961 . S
H4348 C4334 0.961 . S
H4349 C4335 0.958 . S
H4350 C4335 0.961 . S
H4351 C4335 0.960 . S
C4352 C4353 1.391 . S
C4352 C4354 1.394 . S
C4352 H4368 0.931 . S
C4353 C4352 1.391 . S
C4353 C4357 1.376 . S
C4354 C4352 1.394 . S
C4354 C4355 1.369 . S
C4354 C4358 1.531 . S
C4355 C4354 1.369 . S
C4355 C4356 1.410 . S
C4355 C4363 1.503 . S
C4356 C4355 1.410 . S
C4356 C4357 1.392 . S
C4356 C4359 1.511 . S
C4357 C4353 1.376 . S
C4357 C4356 1.392 . S
C4357 H4369 0.929 . S
C4358 C4354 1.531 . S
C4358 H4370 0.960 . S
C4358 H4371 0.962 . S
C4358 H4372 0.960 . S
C4359 C4356 1.511 . S
C4359 H4373 0.961 . S
C4359 H4374 0.961 . S
C4359 H4375 0.961 . S
C4360 C4361 1.370 . S
C4360 C4362 1.363 . S
C4360 H4376 0.931 . S
C4361 C4360 1.370 . S
C4361 C4365 1.408 . S
C4362 C4360 1.363 . S
C4362 C4363 1.370 . S
C4362 C4366 1.524 . S
C4363 C4355 1.503 . S
C4363 C4362 1.370 . S
C4363 C4364 1.403 . S
C4364 C4363 1.403 . S
C4364 C4365 1.404 . S
C4364 C4367 1.539 . S
C4365 C4361 1.408 . S
C4365 C4364 1.404 . S
C4365 H4377 0.930 . S
C4366 C4362 1.524 . S
C4366 H4378 0.956 . S
C4366 H4379 0.961 . S
C4366 H4380 0.961 . S
C4367 C4364 1.539 . S
C4367 H4381 0.958 . S
C4367 H4382 0.961 . S
C4367 H4383 0.960 . S
H4368 C4352 0.931 . S
H4369 C4357 0.929 . S
H4370 C4358 0.960 . S
H4371 C4358 0.962 . S
H4372 C4358 0.960 . S
H4373 C4359 0.961 . S
H4374 C4359 0.961 . S
H4375 C4359 0.961 . S
H4376 C4360 0.931 . S
H4377 C4365 0.930 . S
H4378 C4366 0.956 . S
H4379 C4366 0.961 . S
H4380 C4366 0.961 . S
H4381 C4367 0.958 . S
H4382 C4367 0.961 . S
H4383 C4367 0.960 . S
C4384 C4385 1.391 . S
C4384 C4386 1.394 . S
C4384 H4400 0.931 . S
C4385 C4384 1.391 . S
C4385 C4389 1.376 . S
C4386 C4384 1.394 . S
C4386 C4387 1.369 . S
C4386 C4390 1.531 . S
C4387 C4386 1.369 . S
C4387 C4388 1.410 . S
C4387 C4395 1.503 . S
C4388 C4387 1.410 . S
C4388 C4389 1.392 . S
C4388 C4391 1.511 . S
C4389 C4385 1.376 . S
C4389 C4388 1.392 . S
C4389 H4401 0.929 . S
C4390 C4386 1.531 . S
C4390 H4402 0.960 . S
C4390 H4403 0.962 . S
C4390 H4404 0.960 . S
C4391 C4388 1.511 . S
C4391 H4405 0.961 . S
C4391 H4406 0.961 . S
C4391 H4407 0.961 . S
C4392 C4393 1.370 . S
C4392 C4394 1.363 . S
C4392 H4408 0.931 . S
C4393 C4392 1.370 . S
C4393 C4397 1.408 . S
C4394 C4392 1.363 . S
C4394 C4395 1.370 . S
C4394 C4398 1.524 . S
C4395 C4387 1.503 . S
C4395 C4394 1.370 . S
C4395 C4396 1.403 . S
C4396 C4395 1.403 . S
C4396 C4397 1.404 . S
C4396 C4399 1.539 . S
C4397 C4393 1.408 . S
C4397 C4396 1.404 . S
C4397 H4409 0.930 . S
C4398 C4394 1.524 . S
C4398 H4410 0.956 . S
C4398 H4411 0.961 . S
C4398 H4412 0.961 . S
C4399 C4396 1.539 . S
C4399 H4413 0.958 . S
C4399 H4414 0.961 . S
C4399 H4415 0.960 . S
H4400 C4384 0.931 . S
H4401 C4389 0.929 . S
H4402 C4390 0.960 . S
H4403 C4390 0.962 . S
H4404 C4390 0.960 . S
H4405 C4391 0.961 . S
H4406 C4391 0.961 . S
H4407 C4391 0.961 . S
H4408 C4392 0.931 . S
H4409 C4397 0.930 . S
H4410 C4398 0.956 . S
H4411 C4398 0.961 . S
H4412 C4398 0.961 . S
H4413 C4399 0.958 . S
H4414 C4399 0.961 . S
H4415 C4399 0.960 . S
C4416 C4417 1.391 . S
C4416 C4418 1.394 . S
C4416 H4432 0.931 . S
C4417 C4416 1.391 . S
C4417 C4421 1.376 . S
C4418 C4416 1.394 . S
C4418 C4419 1.369 . S
C4418 C4422 1.531 . S
C4419 C4418 1.369 . S
C4419 C4420 1.410 . S
C4419 C4427 1.503 . S
C4420 C4419 1.410 . S
C4420 C4421 1.392 . S
C4420 C4423 1.511 . S
C4421 C4417 1.376 . S
C4421 C4420 1.392 . S
C4421 H4433 0.929 . S
C4422 C4418 1.531 . S
C4422 H4434 0.960 . S
C4422 H4435 0.962 . S
C4422 H4436 0.960 . S
C4423 C4420 1.511 . S
C4423 H4437 0.961 . S
C4423 H4438 0.961 . S
C4423 H4439 0.961 . S
C4424 C4425 1.370 . S
C4424 C4426 1.363 . S
C4424 H4440 0.931 . S
C4425 C4424 1.370 . S
C4425 C4429 1.408 . S
C4426 C4424 1.363 . S
C4426 C4427 1.370 . S
C4426 C4430 1.524 . S
C4427 C4419 1.503 . S
C4427 C4426 1.370 . S
C4427 C4428 1.403 . S
C4428 C4427 1.403 . S
C4428 C4429 1.404 . S
C4428 C4431 1.539 . S
C4429 C4425 1.408 . S
C4429 C4428 1.404 . S
C4429 H4441 0.930 . S
C4430 C4426 1.524 . S
C4430 H4442 0.956 . S
C4430 H4443 0.961 . S
C4430 H4444 0.961 . S
C4431 C4428 1.539 . S
C4431 H4445 0.958 . S
C4431 H4446 0.961 . S
C4431 H4447 0.960 . S
H4432 C4416 0.931 . S
H4433 C4421 0.929 . S
H4434 C4422 0.960 . S
H4435 C4422 0.962 . S
H4436 C4422 0.960 . S
H4437 C4423 0.961 . S
H4438 C4423 0.961 . S
H4439 C4423 0.961 . S
H4440 C4424 0.931 . S
H4441 C4429 0.930 . S
H4442 C4430 0.956 . S
H4443 C4430 0.961 . S
H4444 C4430 0.961 . S
H4445 C4431 0.958 . S
H4446 C4431 0.961 . S
H4447 C4431 0.960 . S
C4448 C4449 1.391 . S
C4448 C4450 1.394 . S
C4448 H4464 0.931 . S
C4449 C4448 1.391 . S
C4449 C4453 1.376 . S
C4450 C4448 1.394 . S
C4450 C4451 1.369 . S
C4450 C4454 1.531 . S
C4451 C4450 1.369 . S
C4451 C4452 1.410 . S
C4451 C4459 1.503 . S
C4452 C4451 1.410 . S
C4452 C4453 1.392 . S
C4452 C4455 1.511 . S
C4453 C4449 1.376 . S
C4453 C4452 1.392 . S
C4453 H4465 0.929 . S
C4454 C4450 1.531 . S
C4454 H4466 0.960 . S
C4454 H4467 0.962 . S
C4454 H4468 0.960 . S
C4455 C4452 1.511 . S
C4455 H4469 0.961 . S
C4455 H4470 0.961 . S
C4455 H4471 0.961 . S
C4456 C4457 1.370 . S
C4456 C4458 1.363 . S
C4456 H4472 0.931 . S
C4457 C4456 1.370 . S
C4457 C4461 1.408 . S
C4458 C4456 1.363 . S
C4458 C4459 1.370 . S
C4458 C4462 1.524 . S
C4459 C4451 1.503 . S
C4459 C4458 1.370 . S
C4459 C4460 1.403 . S
C4460 C4459 1.403 . S
C4460 C4461 1.404 . S
C4460 C4463 1.539 . S
C4461 C4457 1.408 . S
C4461 C4460 1.404 . S
C4461 H4473 0.930 . S
C4462 C4458 1.524 . S
C4462 H4474 0.956 . S
C4462 H4475 0.961 . S
C4462 H4476 0.961 . S
C4463 C4460 1.539 . S
C4463 H4477 0.958 . S
C4463 H4478 0.961 . S
C4463 H4479 0.960 . S
H4464 C4448 0.931 . S
H4465 C4453 0.929 . S
H4466 C4454 0.960 . S
H4467 C4454 0.962 . S
H4468 C4454 0.960 . S
H4469 C4455 0.961 . S
H4470 C4455 0.961 . S
H4471 C4455 0.961 . S
H4472 C4456 0.931 . S
H4473 C4461 0.930 . S
H4474 C4462 0.956 . S
H4475 C4462 0.961 . S
H4476 C4462 0.961 . S
H4477 C4463 0.958 . S
H4478 C4463 0.961 . S
H4479 C4463 0.960 . S
C4480 C4481 1.391 . S
C4480 C4482 1.394 . S
C4480 H4496 0.931 . S
C4481 C4480 1.391 . S
C4481 C4485 1.376 . S
C4482 C4480 1.394 . S
C4482 C4483 1.369 . S
C4482 C4486 1.531 . S
C4483 C4482 1.369 . S
C4483 C4484 1.410 . S
C4483 C4491 1.503 . S
C4484 C4483 1.410 . S
C4484 C4485 1.392 . S
C4484 C4487 1.511 . S
C4485 C4481 1.376 . S
C4485 C4484 1.392 . S
C4485 H4497 0.929 . S
C4486 C4482 1.531 . S
C4486 H4498 0.960 . S
C4486 H4499 0.962 . S
C4486 H4500 0.960 . S
C4487 C4484 1.511 . S
C4487 H4501 0.961 . S
C4487 H4502 0.961 . S
C4487 H4503 0.961 . S
C4488 C4489 1.370 . S
C4488 C4490 1.363 . S
C4488 H4504 0.931 . S
C4489 C4488 1.370 . S
C4489 C4493 1.408 . S
C4490 C4488 1.363 . S
C4490 C4491 1.370 . S
C4490 C4494 1.524 . S
C4491 C4483 1.503 . S
C4491 C4490 1.370 . S
C4491 C4492 1.403 . S
C4492 C4491 1.403 . S
C4492 C4493 1.404 . S
C4492 C4495 1.539 . S
C4493 C4489 1.408 . S
C4493 C4492 1.404 . S
C4493 H4505 0.930 . S
C4494 C4490 1.524 . S
C4494 H4506 0.956 . S
C4494 H4507 0.961 . S
C4494 H4508 0.961 . S
C4495 C4492 1.539 . S
C4495 H4509 0.958 . S
C4495 H4510 0.961 . S
C4495 H4511 0.960 . S
H4496 C4480 0.931 . S
H4497 C4485 0.929 . S
H4498 C4486 0.960 . S
H4499 C4486 0.962 . S
H4500 C4486 0.960 . S
H4501 C4487 0.961 . S
H4502 C4487 0.961 . S
H4503 C4487 0.961 . S
H4504 C4488 0.931 . S
H4505 C4493 0.930 . S
H4506 C4494 0.956 . S
H4507 C4494 0.961 . S
H4508 C4494 0.961 . S
H4509 C4495 0.958 . S
H4510 C4495 0.961 . S
H4511 C4495 0.960 . S
C4512 C4513 1.391 . S
C4512 C4514 1.394 . S
C4512 H4528 0.931 . S
C4513 C4512 1.391 . S
C4513 C4517 1.376 . S
C4514 C4512 1.394 . S
C4514 C4515 1.369 . S
C4514 C4518 1.531 . S
C4515 C4514 1.369 . S
C4515 C4516 1.410 . S
C4515 C4523 1.503 . S
C4516 C4515 1.410 . S
C4516 C4517 1.392 . S
C4516 C4519 1.511 . S
C4517 C4513 1.376 . S
C4517 C4516 1.392 . S
C4517 H4529 0.929 . S
C4518 C4514 1.531 . S
C4518 H4530 0.960 . S
C4518 H4531 0.962 . S
C4518 H4532 0.960 . S
C4519 C4516 1.511 . S
C4519 H4533 0.961 . S
C4519 H4534 0.961 . S
C4519 H4535 0.961 . S
C4520 C4521 1.370 . S
C4520 C4522 1.363 . S
C4520 H4536 0.931 . S
C4521 C4520 1.370 . S
C4521 C4525 1.408 . S
C4522 C4520 1.363 . S
C4522 C4523 1.370 . S
C4522 C4526 1.524 . S
C4523 C4515 1.503 . S
C4523 C4522 1.370 . S
C4523 C4524 1.403 . S
C4524 C4523 1.403 . S
C4524 C4525 1.404 . S
C4524 C4527 1.539 . S
C4525 C4521 1.408 . S
C4525 C4524 1.404 . S
C4525 H4537 0.930 . S
C4526 C4522 1.524 . S
C4526 H4538 0.956 . S
C4526 H4539 0.961 . S
C4526 H4540 0.961 . S
C4527 C4524 1.539 . S
C4527 H4541 0.958 . S
C4527 H4542 0.961 . S
C4527 H4543 0.960 . S
H4528 C4512 0.931 . S
H4529 C4517 0.929 . S
H4530 C4518 0.960 . S
H4531 C4518 0.962 . S
H4532 C4518 0.960 . S
H4533 C4519 0.961 . S
H4534 C4519 0.961 . S
H4535 C4519 0.961 . S
H4536 C4520 0.931 . S
H4537 C4525 0.930 . S
H4538 C4526 0.956 . S
H4539 C4526 0.961 . S
H4540 C4526 0.961 . S
H4541 C4527 0.958 . S
H4542 C4527 0.961 . S
H4543 C4527 0.960 . S
C4544 C4545 1.391 . S
C4544 C4546 1.394 . S
C4544 H4560 0.931 . S
C4545 C4544 1.391 . S
C4545 C4549 1.376 . S
C4546 C4544 1.394 . S
C4546 C4547 1.369 . S
C4546 C4550 1.531 . S
C4547 C4546 1.369 . S
C4547 C4548 1.410 . S
C4547 C4555 1.503 . S
C4548 C4547 1.410 . S
C4548 C4549 1.392 . S
C4548 C4551 1.511 . S
C4549 C4545 1.376 . S
C4549 C4548 1.392 . S
C4549 H4561 0.929 . S
C4550 C4546 1.531 . S
C4550 H4562 0.960 . S
C4550 H4563 0.962 . S
C4550 H4564 0.960 . S
C4551 C4548 1.511 . S
C4551 H4565 0.961 . S
C4551 H4566 0.961 . S
C4551 H4567 0.961 . S
C4552 C4553 1.370 . S
C4552 C4554 1.363 . S
C4552 H4568 0.931 . S
C4553 C4552 1.370 . S
C4553 C4557 1.408 . S
C4554 C4552 1.363 . S
C4554 C4555 1.370 . S
C4554 C4558 1.524 . S
C4555 C4547 1.503 . S
C4555 C4554 1.370 . S
C4555 C4556 1.403 . S
C4556 C4555 1.403 . S
C4556 C4557 1.404 . S
C4556 C4559 1.539 . S
C4557 C4553 1.408 . S
C4557 C4556 1.404 . S
C4557 H4569 0.930 . S
C4558 C4554 1.524 . S
C4558 H4570 0.956 . S
C4558 H4571 0.961 . S
C4558 H4572 0.961 . S
C4559 C4556 1.539 . S
C4559 H4573 0.958 . S
C4559 H4574 0.961 . S
C4559 H4575 0.960 . S
H4560 C4544 0.931 . S
H4561 C4549 0.929 . S
H4562 C4550 0.960 . S
H4563 C4550 0.962 . S
H4564 C4550 0.960 . S
H4565 C4551 0.961 . S
H4566 C4551 0.961 . S
H4567 C4551 0.961 . S
H4568 C4552 0.931 . S
H4569 C4557 0.930 . S
H4570 C4558 0.956 . S
H4571 C4558 0.961 . S
H4572 C4558 0.961 . S
H4573 C4559 0.958 . S
H4574 C4559 0.961 . S
H4575 C4559 0.960 . S
C4576 C4577 1.391 . S
C4576 C4578 1.394 . S
C4576 H4592 0.931 . S
C4577 C4576 1.391 . S
C4577 C4581 1.376 . S
C4578 C4576 1.394 . S
C4578 C4579 1.369 . S
C4578 C4582 1.531 . S
C4579 C4578 1.369 . S
C4579 C4580 1.410 . S
C4579 C4587 1.503 . S
C4580 C4579 1.410 . S
C4580 C4581 1.392 . S
C4580 C4583 1.511 . S
C4581 C4577 1.376 . S
C4581 C4580 1.392 . S
C4581 H4593 0.929 . S
C4582 C4578 1.531 . S
C4582 H4594 0.960 . S
C4582 H4595 0.962 . S
C4582 H4596 0.960 . S
C4583 C4580 1.511 . S
C4583 H4597 0.961 . S
C4583 H4598 0.961 . S
C4583 H4599 0.961 . S
C4584 C4585 1.370 . S
C4584 C4586 1.363 . S
C4584 H4600 0.931 . S
C4585 C4584 1.370 . S
C4585 C4589 1.408 . S
C4586 C4584 1.363 . S
C4586 C4587 1.370 . S
C4586 C4590 1.524 . S
C4587 C4579 1.503 . S
C4587 C4586 1.370 . S
C4587 C4588 1.403 . S
C4588 C4587 1.403 . S
C4588 C4589 1.404 . S
C4588 C4591 1.539 . S
C4589 C4585 1.408 . S
C4589 C4588 1.404 . S
C4589 H4601 0.930 . S
C4590 C4586 1.524 . S
C4590 H4602 0.956 . S
C4590 H4603 0.961 . S
C4590 H4604 0.961 . S
C4591 C4588 1.539 . S
C4591 H4605 0.958 . S
C4591 H4606 0.961 . S
C4591 H4607 0.960 . S
H4592 C4576 0.931 . S
H4593 C4581 0.929 . S
H4594 C4582 0.960 . S
H4595 C4582 0.962 . S
H4596 C4582 0.960 . S
H4597 C4583 0.961 . S
H4598 C4583 0.961 . S
H4599 C4583 0.961 . S
H4600 C4584 0.931 . S
H4601 C4589 0.930 . S
H4602 C4590 0.956 . S
H4603 C4590 0.961 . S
H4604 C4590 0.961 . S
H4605 C4591 0.958 . S
H4606 C4591 0.961 . S
H4607 C4591 0.960 . S
C4608 C4609 1.391 . S
C4608 C4610 1.394 . S
C4608 H4624 0.931 . S
C4609 C4608 1.391 . S
C4609 C4613 1.376 . S
C4610 C4608 1.394 . S
C4610 C4611 1.369 . S
C4610 C4614 1.531 . S
C4611 C4610 1.369 . S
C4611 C4612 1.410 . S
C4611 C4619 1.503 . S
C4612 C4611 1.410 . S
C4612 C4613 1.392 . S
C4612 C4615 1.511 . S
C4613 C4609 1.376 . S
C4613 C4612 1.392 . S
C4613 H4625 0.929 . S
C4614 C4610 1.531 . S
C4614 H4626 0.960 . S
C4614 H4627 0.962 . S
C4614 H4628 0.960 . S
C4615 C4612 1.511 . S
C4615 H4629 0.961 . S
C4615 H4630 0.961 . S
C4615 H4631 0.961 . S
C4616 C4617 1.370 . S
C4616 C4618 1.363 . S
C4616 H4632 0.931 . S
C4617 C4616 1.370 . S
C4617 C4621 1.408 . S
C4618 C4616 1.363 . S
C4618 C4619 1.370 . S
C4618 C4622 1.524 . S
C4619 C4611 1.503 . S
C4619 C4618 1.370 . S
C4619 C4620 1.403 . S
C4620 C4619 1.403 . S
C4620 C4621 1.404 . S
C4620 C4623 1.539 . S
C4621 C4617 1.408 . S
C4621 C4620 1.404 . S
C4621 H4633 0.930 . S
C4622 C4618 1.524 . S
C4622 H4634 0.956 . S
C4622 H4635 0.961 . S
C4622 H4636 0.961 . S
C4623 C4620 1.539 . S
C4623 H4637 0.958 . S
C4623 H4638 0.961 . S
C4623 H4639 0.960 . S
H4624 C4608 0.931 . S
H4625 C4613 0.929 . S
H4626 C4614 0.960 . S
H4627 C4614 0.962 . S
H4628 C4614 0.960 . S
H4629 C4615 0.961 . S
H4630 C4615 0.961 . S
H4631 C4615 0.961 . S
H4632 C4616 0.931 . S
H4633 C4621 0.930 . S
H4634 C4622 0.956 . S
H4635 C4622 0.961 . S
H4636 C4622 0.961 . S
H4637 C4623 0.958 . S
H4638 C4623 0.961 . S
H4639 C4623 0.960 . S
C4640 C4641 1.391 . S
C4640 C4642 1.394 . S
C4640 H4656 0.931 . S
C4641 C4640 1.391 . S
C4641 C4645 1.376 . S
C4642 C4640 1.394 . S
C4642 C4643 1.369 . S
C4642 C4646 1.531 . S
C4643 C4642 1.369 . S
C4643 C4644 1.410 . S
C4643 C4651 1.503 . S
C4644 C4643 1.410 . S
C4644 C4645 1.392 . S
C4644 C4647 1.511 . S
C4645 C4641 1.376 . S
C4645 C4644 1.392 . S
C4645 H4657 0.929 . S
C4646 C4642 1.531 . S
C4646 H4658 0.960 . S
C4646 H4659 0.962 . S
C4646 H4660 0.960 . S
C4647 C4644 1.511 . S
C4647 H4661 0.961 . S
C4647 H4662 0.961 . S
C4647 H4663 0.961 . S
C4648 C4649 1.370 . S
C4648 C4650 1.363 . S
C4648 H4664 0.931 . S
C4649 C4648 1.370 . S
C4649 C4653 1.408 . S
C4650 C4648 1.363 . S
C4650 C4651 1.370 . S
C4650 C4654 1.524 . S
C4651 C4643 1.503 . S
C4651 C4650 1.370 . S
C4651 C4652 1.403 . S
C4652 C4651 1.403 . S
C4652 C4653 1.404 . S
C4652 C4655 1.539 . S
C4653 C4649 1.408 . S
C4653 C4652 1.404 . S
C4653 H4665 0.930 . S
C4654 C4650 1.524 . S
C4654 H4666 0.956 . S
C4654 H4667 0.961 . S
C4654 H4668 0.961 . S
C4655 C4652 1.539 . S
C4655 H4669 0.958 . S
C4655 H4670 0.961 . S
C4655 H4671 0.960 . S
H4656 C4640 0.931 . S
H4657 C4645 0.929 . S
H4658 C4646 0.960 . S
H4659 C4646 0.962 . S
H4660 C4646 0.960 . S
H4661 C4647 0.961 . S
H4662 C4647 0.961 . S
H4663 C4647 0.961 . S
H4664 C4648 0.931 . S
H4665 C4653 0.930 . S
H4666 C4654 0.956 . S
H4667 C4654 0.961 . S
H4668 C4654 0.961 . S
H4669 C4655 0.958 . S
H4670 C4655 0.961 . S
H4671 C4655 0.960 . S
C4672 C4673 1.391 . S
C4672 C4674 1.394 . S
C4672 H4688 0.931 . S
C4673 C4672 1.391 . S
C4673 C4677 1.376 . S
C4674 C4672 1.394 . S
C4674 C4675 1.369 . S
C4674 C4678 1.531 . S
C4675 C4674 1.369 . S
C4675 C4676 1.410 . S
C4675 C4683 1.503 . S
C4676 C4675 1.410 . S
C4676 C4677 1.392 . S
C4676 C4679 1.511 . S
C4677 C4673 1.376 . S
C4677 C4676 1.392 . S
C4677 H4689 0.929 . S
C4678 C4674 1.531 . S
C4678 H4690 0.960 . S
C4678 H4691 0.962 . S
C4678 H4692 0.960 . S
C4679 C4676 1.511 . S
C4679 H4693 0.961 . S
C4679 H4694 0.961 . S
C4679 H4695 0.961 . S
C4680 C4681 1.370 . S
C4680 C4682 1.363 . S
C4680 H4696 0.931 . S
C4681 C4680 1.370 . S
C4681 C4685 1.408 . S
C4682 C4680 1.363 . S
C4682 C4683 1.370 . S
C4682 C4686 1.524 . S
C4683 C4675 1.503 . S
C4683 C4682 1.370 . S
C4683 C4684 1.403 . S
C4684 C4683 1.403 . S
C4684 C4685 1.404 . S
C4684 C4687 1.539 . S
C4685 C4681 1.408 . S
C4685 C4684 1.404 . S
C4685 H4697 0.930 . S
C4686 C4682 1.524 . S
C4686 H4698 0.956 . S
C4686 H4699 0.961 . S
C4686 H4700 0.961 . S
C4687 C4684 1.539 . S
C4687 H4701 0.958 . S
C4687 H4702 0.961 . S
C4687 H4703 0.960 . S
H4688 C4672 0.931 . S
H4689 C4677 0.929 . S
H4690 C4678 0.960 . S
H4691 C4678 0.962 . S
H4692 C4678 0.960 . S
H4693 C4679 0.961 . S
H4694 C4679 0.961 . S
H4695 C4679 0.961 . S
H4696 C4680 0.931 . S
H4697 C4685 0.930 . S
H4698 C4686 0.956 . S
H4699 C4686 0.961 . S
H4700 C4686 0.961 . S
H4701 C4687 0.958 . S
H4702 C4687 0.961 . S
H4703 C4687 0.960 . S
C4704 C4705 1.391 . S
C4704 C4706 1.394 . S
C4704 H4720 0.931 . S
C4705 C4704 1.391 . S
C4705 C4709 1.376 . S
C4706 C4704 1.394 . S
C4706 C4707 1.369 . S
C4706 C4710 1.531 . S
C4707 C4706 1.369 . S
C4707 C4708 1.410 . S
C4707 C4715 1.503 . S
C4708 C4707 1.410 . S
C4708 C4709 1.392 . S
C4708 C4711 1.511 . S
C4709 C4705 1.376 . S
C4709 C4708 1.392 . S
C4709 H4721 0.929 . S
C4710 C4706 1.531 . S
C4710 H4722 0.960 . S
C4710 H4723 0.962 . S
C4710 H4724 0.960 . S
C4711 C4708 1.511 . S
C4711 H4725 0.961 . S
C4711 H4726 0.961 . S
C4711 H4727 0.961 . S
C4712 C4713 1.370 . S
C4712 C4714 1.363 . S
C4712 H4728 0.931 . S
C4713 C4712 1.370 . S
C4713 C4717 1.408 . S
C4714 C4712 1.363 . S
C4714 C4715 1.370 . S
C4714 C4718 1.524 . S
C4715 C4707 1.503 . S
C4715 C4714 1.370 . S
C4715 C4716 1.403 . S
C4716 C4715 1.403 . S
C4716 C4717 1.404 . S
C4716 C4719 1.539 . S
C4717 C4713 1.408 . S
C4717 C4716 1.404 . S
C4717 H4729 0.930 . S
C4718 C4714 1.524 . S
C4718 H4730 0.956 . S
C4718 H4731 0.961 . S
C4718 H4732 0.961 . S
C4719 C4716 1.539 . S
C4719 H4733 0.958 . S
C4719 H4734 0.961 . S
C4719 H4735 0.960 . S
H4720 C4704 0.931 . S
H4721 C4709 0.929 . S
H4722 C4710 0.960 . S
H4723 C4710 0.962 . S
H4724 C4710 0.960 . S
H4725 C4711 0.961 . S
H4726 C4711 0.961 . S
H4727 C4711 0.961 . S
H4728 C4712 0.931 . S
H4729 C4717 0.930 . S
H4730 C4718 0.956 . S
H4731 C4718 0.961 . S
H4732 C4718 0.961 . S
H4733 C4719 0.958 . S
H4734 C4719 0.961 . S
H4735 C4719 0.960 . S
C4736 C4737 1.391 . S
C4736 C4738 1.394 . S
C4736 H4752 0.931 . S
C4737 C4736 1.391 . S
C4737 C4741 1.376 . S
C4738 C4736 1.394 . S
C4738 C4739 1.369 . S
C4738 C4742 1.531 . S
C4739 C4738 1.369 . S
C4739 C4740 1.410 . S
C4739 C4747 1.503 . S
C4740 C4739 1.410 . S
C4740 C4741 1.392 . S
C4740 C4743 1.511 . S
C4741 C4737 1.376 . S
C4741 C4740 1.392 . S
C4741 H4753 0.929 . S
C4742 C4738 1.531 . S
C4742 H4754 0.960 . S
C4742 H4755 0.962 . S
C4742 H4756 0.960 . S
C4743 C4740 1.511 . S
C4743 H4757 0.961 . S
C4743 H4758 0.961 . S
C4743 H4759 0.961 . S
C4744 C4745 1.370 . S
C4744 C4746 1.363 . S
C4744 H4760 0.931 . S
C4745 C4744 1.370 . S
C4745 C4749 1.408 . S
C4746 C4744 1.363 . S
C4746 C4747 1.370 . S
C4746 C4750 1.524 . S
C4747 C4739 1.503 . S
C4747 C4746 1.370 . S
C4747 C4748 1.403 . S
C4748 C4747 1.403 . S
C4748 C4749 1.404 . S
C4748 C4751 1.539 . S
C4749 C4745 1.408 . S
C4749 C4748 1.404 . S
C4749 H4761 0.930 . S
C4750 C4746 1.524 . S
C4750 H4762 0.956 . S
C4750 H4763 0.961 . S
C4750 H4764 0.961 . S
C4751 C4748 1.539 . S
C4751 H4765 0.958 . S
C4751 H4766 0.961 . S
C4751 H4767 0.960 . S
H4752 C4736 0.931 . S
H4753 C4741 0.929 . S
H4754 C4742 0.960 . S
H4755 C4742 0.962 . S
H4756 C4742 0.960 . S
H4757 C4743 0.961 . S
H4758 C4743 0.961 . S
H4759 C4743 0.961 . S
H4760 C4744 0.931 . S
H4761 C4749 0.930 . S
H4762 C4750 0.956 . S
H4763 C4750 0.961 . S
H4764 C4750 0.961 . S
H4765 C4751 0.958 . S
H4766 C4751 0.961 . S
H4767 C4751 0.960 . S
C4768 C4769 1.391 . S
C4768 C4770 1.394 . S
C4768 H4784 0.931 . S
C4769 C4768 1.391 . S
C4769 C4773 1.376 . S
C4770 C4768 1.394 . S
C4770 C4771 1.369 . S
C4770 C4774 1.531 . S
C4771 C4770 1.369 . S
C4771 C4772 1.410 . S
C4771 C4779 1.503 . S
C4772 C4771 1.410 . S
C4772 C4773 1.392 . S
C4772 C4775 1.511 . S
C4773 C4769 1.376 . S
C4773 C4772 1.392 . S
C4773 H4785 0.929 . S
C4774 C4770 1.531 . S
C4774 H4786 0.960 . S
C4774 H4787 0.962 . S
C4774 H4788 0.960 . S
C4775 C4772 1.511 . S
C4775 H4789 0.961 . S
C4775 H4790 0.961 . S
C4775 H4791 0.961 . S
C4776 C4777 1.370 . S
C4776 C4778 1.363 . S
C4776 H4792 0.931 . S
C4777 C4776 1.370 . S
C4777 C4781 1.408 . S
C4778 C4776 1.363 . S
C4778 C4779 1.370 . S
C4778 C4782 1.524 . S
C4779 C4771 1.503 . S
C4779 C4778 1.370 . S
C4779 C4780 1.403 . S
C4780 C4779 1.403 . S
C4780 C4781 1.404 . S
C4780 C4783 1.539 . S
C4781 C4777 1.408 . S
C4781 C4780 1.404 . S
C4781 H4793 0.930 . S
C4782 C4778 1.524 . S
C4782 H4794 0.956 . S
C4782 H4795 0.961 . S
C4782 H4796 0.961 . S
C4783 C4780 1.539 . S
C4783 H4797 0.958 . S
C4783 H4798 0.961 . S
C4783 H4799 0.960 . S
H4784 C4768 0.931 . S
H4785 C4773 0.929 . S
H4786 C4774 0.960 . S
H4787 C4774 0.962 . S
H4788 C4774 0.960 . S
H4789 C4775 0.961 . S
H4790 C4775 0.961 . S
H4791 C4775 0.961 . S
H4792 C4776 0.931 . S
H4793 C4781 0.930 . S
H4794 C4782 0.956 . S
H4795 C4782 0.961 . S
H4796 C4782 0.961 . S
H4797 C4783 0.958 . S
H4798 C4783 0.961 . S
H4799 C4783 0.960 . S
C4800 C4801 1.391 . S
C4800 C4802 1.394 . S
C4800 H4816 0.931 . S
C4801 C4800 1.391 . S
C4801 C4805 1.376 . S
C4802 C4800 1.394 . S
C4802 C4803 1.369 . S
C4802 C4806 1.531 . S
C4803 C4802 1.369 . S
C4803 C4804 1.410 . S
C4803 C4811 1.503 . S
C4804 C4803 1.410 . S
C4804 C4805 1.392 . S
C4804 C4807 1.511 . S
C4805 C4801 1.376 . S
C4805 C4804 1.392 . S
C4805 H4817 0.929 . S
C4806 C4802 1.531 . S
C4806 H4818 0.960 . S
C4806 H4819 0.962 . S
C4806 H4820 0.960 . S
C4807 C4804 1.511 . S
C4807 H4821 0.961 . S
C4807 H4822 0.961 . S
C4807 H4823 0.961 . S
C4808 C4809 1.370 . S
C4808 C4810 1.363 . S
C4808 H4824 0.931 . S
C4809 C4808 1.370 . S
C4809 C4813 1.408 . S
C4810 C4808 1.363 . S
C4810 C4811 1.370 . S
C4810 C4814 1.524 . S
C4811 C4803 1.503 . S
C4811 C4810 1.370 . S
C4811 C4812 1.403 . S
C4812 C4811 1.403 . S
C4812 C4813 1.404 . S
C4812 C4815 1.539 . S
C4813 C4809 1.408 . S
C4813 C4812 1.404 . S
C4813 H4825 0.930 . S
C4814 C4810 1.524 . S
C4814 H4826 0.956 . S
C4814 H4827 0.961 . S
C4814 H4828 0.961 . S
C4815 C4812 1.539 . S
C4815 H4829 0.958 . S
C4815 H4830 0.961 . S
C4815 H4831 0.960 . S
H4816 C4800 0.931 . S
H4817 C4805 0.929 . S
H4818 C4806 0.960 . S
H4819 C4806 0.962 . S
H4820 C4806 0.960 . S
H4821 C4807 0.961 . S
H4822 C4807 0.961 . S
H4823 C4807 0.961 . S
H4824 C4808 0.931 . S
H4825 C4813 0.930 . S
H4826 C4814 0.956 . S
H4827 C4814 0.961 . S
H4828 C4814 0.961 . S
H4829 C4815 0.958 . S
H4830 C4815 0.961 . S
H4831 C4815 0.960 . S
C4832 C4833 1.391 . S
C4832 C4834 1.394 . S
C4832 H4848 0.931 . S
C4833 C4832 1.391 . S
C4833 C4837 1.376 . S
C4834 C4832 1.394 . S
C4834 C4835 1.369 . S
C4834 C4838 1.531 . S
C4835 C4834 1.369 . S
C4835 C4836 1.410 . S
C4835 C4843 1.503 . S
C4836 C4835 1.410 . S
C4836 C4837 1.392 . S
C4836 C4839 1.511 . S
C4837 C4833 1.376 . S
C4837 C4836 1.392 . S
C4837 H4849 0.929 . S
C4838 C4834 1.531 . S
C4838 H4850 0.960 . S
C4838 H4851 0.962 . S
C4838 H4852 0.960 . S
C4839 C4836 1.511 . S
C4839 H4853 0.961 . S
C4839 H4854 0.961 . S
C4839 H4855 0.961 . S
C4840 C4841 1.370 . S
C4840 C4842 1.363 . S
C4840 H4856 0.931 . S
C4841 C4840 1.370 . S
C4841 C4845 1.408 . S
C4842 C4840 1.363 . S
C4842 C4843 1.370 . S
C4842 C4846 1.524 . S
C4843 C4835 1.503 . S
C4843 C4842 1.370 . S
C4843 C4844 1.403 . S
C4844 C4843 1.403 . S
C4844 C4845 1.404 . S
C4844 C4847 1.539 . S
C4845 C4841 1.408 . S
C4845 C4844 1.404 . S
C4845 H4857 0.930 . S
C4846 C4842 1.524 . S
C4846 H4858 0.956 . S
C4846 H4859 0.961 . S
C4846 H4860 0.961 . S
C4847 C4844 1.539 . S
C4847 H4861 0.958 . S
C4847 H4862 0.961 . S
C4847 H4863 0.960 . S
H4848 C4832 0.931 . S
H4849 C4837 0.929 . S
H4850 C4838 0.960 . S
H4851 C4838 0.962 . S
H4852 C4838 0.960 . S
H4853 C4839 0.961 . S
H4854 C4839 0.961 . S
H4855 C4839 0.961 . S
H4856 C4840 0.931 . S
H4857 C4845 0.930 . S
H4858 C4846 0.956 . S
H4859 C4846 0.961 . S
H4860 C4846 0.961 . S
H4861 C4847 0.958 . S
H4862 C4847 0.961 . S
H4863 C4847 0.960 . S
C4864 C4865 1.391 . S
C4864 C4866 1.394 . S
C4864 H4880 0.931 . S
C4865 C4864 1.391 . S
C4865 C4869 1.376 . S
C4866 C4864 1.394 . S
C4866 C4867 1.369 . S
C4866 C4870 1.531 . S
C4867 C4866 1.369 . S
C4867 C4868 1.410 . S
C4867 C4875 1.503 . S
C4868 C4867 1.410 . S
C4868 C4869 1.392 . S
C4868 C4871 1.511 . S
C4869 C4865 1.376 . S
C4869 C4868 1.392 . S
C4869 H4881 0.929 . S
C4870 C4866 1.531 . S
C4870 H4882 0.960 . S
C4870 H4883 0.962 . S
C4870 H4884 0.960 . S
C4871 C4868 1.511 . S
C4871 H4885 0.961 . S
C4871 H4886 0.961 . S
C4871 H4887 0.961 . S
C4872 C4873 1.370 . S
C4872 C4874 1.363 . S
C4872 H4888 0.931 . S
C4873 C4872 1.370 . S
C4873 C4877 1.408 . S
C4874 C4872 1.363 . S
C4874 C4875 1.370 . S
C4874 C4878 1.524 . S
C4875 C4867 1.503 . S
C4875 C4874 1.370 . S
C4875 C4876 1.403 . S
C4876 C4875 1.403 . S
C4876 C4877 1.404 . S
C4876 C4879 1.539 . S
C4877 C4873 1.408 . S
C4877 C4876 1.404 . S
C4877 H4889 0.930 . S
C4878 C4874 1.524 . S
C4878 H4890 0.956 . S
C4878 H4891 0.961 . S
C4878 H4892 0.961 . S
C4879 C4876 1.539 . S
C4879 H4893 0.958 . S
C4879 H4894 0.961 . S
C4879 H4895 0.960 . S
H4880 C4864 0.931 . S
H4881 C4869 0.929 . S
H4882 C4870 0.960 . S
H4883 C4870 0.962 . S
H4884 C4870 0.960 . S
H4885 C4871 0.961 . S
H4886 C4871 0.961 . S
H4887 C4871 0.961 . S
H4888 C4872 0.931 . S
H4889 C4877 0.930 . S
H4890 C4878 0.956 . S
H4891 C4878 0.961 . S
H4892 C4878 0.961 . S
H4893 C4879 0.958 . S
H4894 C4879 0.961 . S
H4895 C4879 0.960 . S
C4896 C4897 1.391 . S
C4896 C4898 1.394 . S
C4896 H4912 0.931 . S
C4897 C4896 1.391 . S
C4897 C4901 1.376 . S
C4898 C4896 1.394 . S
C4898 C4899 1.369 . S
C4898 C4902 1.531 . S
C4899 C4898 1.369 . S
C4899 C4900 1.410 . S
C4899 C4907 1.503 . S
C4900 C4899 1.410 . S
C4900 C4901 1.392 . S
C4900 C4903 1.511 . S
C4901 C4897 1.376 . S
C4901 C4900 1.392 . S
C4901 H4913 0.929 . S
C4902 C4898 1.531 . S
C4902 H4914 0.960 . S
C4902 H4915 0.962 . S
C4902 H4916 0.960 . S
C4903 C4900 1.511 . S
C4903 H4917 0.961 . S
C4903 H4918 0.961 . S
C4903 H4919 0.961 . S
C4904 C4905 1.370 . S
C4904 C4906 1.363 . S
C4904 H4920 0.931 . S
C4905 C4904 1.370 . S
C4905 C4909 1.408 . S
C4906 C4904 1.363 . S
C4906 C4907 1.370 . S
C4906 C4910 1.524 . S
C4907 C4899 1.503 . S
C4907 C4906 1.370 . S
C4907 C4908 1.403 . S
C4908 C4907 1.403 . S
C4908 C4909 1.404 . S
C4908 C4911 1.539 . S
C4909 C4905 1.408 . S
C4909 C4908 1.404 . S
C4909 H4921 0.930 . S
C4910 C4906 1.524 . S
C4910 H4922 0.956 . S
C4910 H4923 0.961 . S
C4910 H4924 0.961 . S
C4911 C4908 1.539 . S
C4911 H4925 0.958 . S
C4911 H4926 0.961 . S
C4911 H4927 0.960 . S
H4912 C4896 0.931 . S
H4913 C4901 0.929 . S
H4914 C4902 0.960 . S
H4915 C4902 0.962 . S
H4916 C4902 0.960 . S
H4917 C4903 0.961 . S
H4918 C4903 0.961 . S
H4919 C4903 0.961 . S
H4920 C4904 0.931 . S
H4921 C4909 0.930 . S
H4922 C4910 0.956 . S
H4923 C4910 0.961 . S
H4924 C4910 0.961 . S
H4925 C4911 0.958 . S
H4926 C4911 0.961 . S
H4927 C4911 0.960 . S
C4928 C4929 1.391 . S
C4928 C4930 1.394 . S
C4928 H4944 0.931 . S
C4929 C4928 1.391 . S
C4929 C4933 1.376 . S
C4930 C4928 1.394 . S
C4930 C4931 1.369 . S
C4930 C4934 1.531 . S
C4931 C4930 1.369 . S
C4931 C4932 1.410 . S
C4931 C4939 1.503 . S
C4932 C4931 1.410 . S
C4932 C4933 1.392 . S
C4932 C4935 1.511 . S
C4933 C4929 1.376 . S
C4933 C4932 1.392 . S
C4933 H4945 0.929 . S
C4934 C4930 1.531 . S
C4934 H4946 0.960 . S
C4934 H4947 0.962 . S
C4934 H4948 0.938 1_565 S
C4935 C4932 1.511 . S
C4935 H4949 0.961 . S
C4935 H4950 0.961 . S
C4935 H4951 0.961 . S
C4936 C4937 1.370 . S
C4936 C4938 1.363 . S
C4936 H4952 0.931 . S
C4937 C4936 1.370 . S
C4937 C4941 1.408 . S
C4938 C4936 1.363 . S
C4938 C4939 1.370 . S
C4938 C4942 1.524 . S
C4939 C4931 1.503 . S
C4939 C4938 1.370 . S
C4939 C4940 1.403 . S
C4940 C4939 1.403 . S
C4940 C4941 1.404 . S
C4940 C4943 1.539 . S
C4941 C4937 1.408 . S
C4941 C4940 1.404 . S
C4941 H4953 0.930 . S
C4942 C4938 1.524 . S
C4942 H4954 0.956 . S
C4942 H4955 0.961 . S
C4942 H4956 0.961 . S
C4943 C4940 1.539 . S
C4943 H4957 0.958 . S
C4943 H4958 0.961 . S
C4943 H4959 0.960 . S
H4944 C4928 0.931 . S
H4945 C4933 0.929 . S
H4946 C4934 0.960 . S
H4947 C4934 0.962 . S
H4948 C4934 0.938 1_545 S
H4949 C4935 0.961 . S
H4950 C4935 0.961 . S
H4951 C4935 0.961 . S
H4952 C4936 0.931 . S
H4953 C4941 0.930 . S
H4954 C4942 0.956 . S
H4955 C4942 0.961 . S
H4956 C4942 0.961 . S
H4957 C4943 0.958 . S
H4958 C4943 0.961 . S
H4959 C4943 0.960 . S
C4960 C4961 1.391 . S
C4960 C4962 1.394 . S
C4960 H4976 0.931 . S
C4961 C4960 1.391 . S
C4961 C4965 1.376 . S
C4962 C4960 1.394 . S
C4962 C4963 1.369 . S
C4962 C4966 1.531 . S
C4963 C4962 1.369 . S
C4963 C4964 1.410 . S
C4963 C4971 1.503 . S
C4964 C4963 1.410 . S
C4964 C4965 1.392 . S
C4964 C4967 1.511 . S
C4965 C4961 1.376 . S
C4965 C4964 1.392 . S
C4965 H4977 0.929 . S
C4966 C4962 1.531 . S
C4966 H4978 0.960 . S
C4966 H4979 0.962 . S
C4966 H4980 0.960 . S
C4967 C4964 1.511 . S
C4967 H4981 0.961 . S
C4967 H4982 0.961 . S
C4967 H4983 0.961 . S
C4968 C4969 1.370 . S
C4968 C4970 1.363 . S
C4968 H4984 0.931 . S
C4969 C4968 1.370 . S
C4969 C4973 1.408 . S
C4970 C4968 1.363 . S
C4970 C4971 1.370 . S
C4970 C4974 1.524 . S
C4971 C4963 1.503 . S
C4971 C4970 1.370 . S
C4971 C4972 1.403 . S
C4972 C4971 1.403 . S
C4972 C4973 1.404 . S
C4972 C4975 1.539 . S
C4973 C4969 1.408 . S
C4973 C4972 1.404 . S
C4973 H4985 0.930 . S
C4974 C4970 1.524 . S
C4974 H4986 0.956 . S
C4974 H4987 0.961 . S
C4974 H4988 0.961 . S
C4975 C4972 1.539 . S
C4975 H4989 0.958 . S
C4975 H4990 0.961 . S
C4975 H4991 0.960 . S
H4976 C4960 0.931 . S
H4977 C4965 0.929 . S
H4978 C4966 0.960 . S
H4979 C4966 0.962 . S
H4980 C4966 0.960 . S
H4981 C4967 0.961 . S
H4982 C4967 0.961 . S
H4983 C4967 0.961 . S
H4984 C4968 0.931 . S
H4985 C4973 0.930 . S
H4986 C4974 0.956 . S
H4987 C4974 0.961 . S
H4988 C4974 0.961 . S
H4989 C4975 0.958 . S
H4990 C4975 0.961 . S
H4991 C4975 0.960 . S
C4992 C4993 1.391 . S
C4992 C4994 1.394 . S
C4992 H5008 0.931 . S
C4993 C4992 1.391 . S
C4993 C4997 1.376 . S
C4994 C4992 1.394 . S
C4994 C4995 1.369 . S
C4994 C4998 1.531 . S
C4995 C4994 1.369 . S
C4995 C4996 1.410 . S
C4995 C5003 1.503 . S
C4996 C4995 1.410 . S
C4996 C4997 1.392 . S
C4996 C4999 1.511 . S
C4997 C4993 1.376 . S
C4997 C4996 1.392 . S
C4997 H5009 0.929 . S
C4998 C4994 1.531 . S
C4998 H5010 0.960 . S
C4998 H5011 0.962 . S
C4998 H5012 0.960 . S
C4999 C4996 1.511 . S
C4999 H5013 0.961 . S
C4999 H5014 0.961 . S
C4999 H5015 0.961 . S
C5000 C5001 1.370 . S
C5000 C5002 1.363 . S
C5000 H5016 0.931 . S
C5001 C5000 1.370 . S
C5001 C5005 1.408 . S
C5002 C5000 1.363 . S
C5002 C5003 1.370 . S
C5002 C5006 1.524 . S
C5003 C4995 1.503 . S
C5003 C5002 1.370 . S
C5003 C5004 1.403 . S
C5004 C5003 1.403 . S
C5004 C5005 1.404 . S
C5004 C5007 1.539 . S
C5005 C5001 1.408 . S
C5005 C5004 1.404 . S
C5005 H5017 0.930 . S
C5006 C5002 1.524 . S
C5006 H5018 0.956 . S
C5006 H5019 0.961 . S
C5006 H5020 0.961 . S
C5007 C5004 1.539 . S
C5007 H5021 0.958 . S
C5007 H5022 0.961 . S
C5007 H5023 0.960 . S
H5008 C4992 0.931 . S
H5009 C4997 0.929 . S
H5010 C4998 0.960 . S
H5011 C4998 0.962 . S
H5012 C4998 0.960 . S
H5013 C4999 0.961 . S
H5014 C4999 0.961 . S
H5015 C4999 0.961 . S
H5016 C5000 0.931 . S
H5017 C5005 0.930 . S
H5018 C5006 0.956 . S
H5019 C5006 0.961 . S
H5020 C5006 0.961 . S
H5021 C5007 0.958 . S
H5022 C5007 0.961 . S
H5023 C5007 0.960 . S
C5024 C5025 1.391 . S
C5024 C5026 1.394 . S
C5024 H5040 0.931 . S
C5025 C5024 1.391 . S
C5025 C5029 1.376 . S
C5026 C5024 1.394 . S
C5026 C5027 1.369 . S
C5026 C5030 1.531 . S
C5027 C5026 1.369 . S
C5027 C5028 1.410 . S
C5027 C5035 1.503 . S
C5028 C5027 1.410 . S
C5028 C5029 1.392 . S
C5028 C5031 1.511 . S
C5029 C5025 1.376 . S
C5029 C5028 1.392 . S
C5029 H5041 0.929 . S
C5030 C5026 1.531 . S
C5030 H5042 0.960 . S
C5030 H5043 0.962 . S
C5030 H5044 0.960 . S
C5031 C5028 1.511 . S
C5031 H5045 0.961 . S
C5031 H5046 0.961 . S
C5031 H5047 0.961 . S
C5032 C5033 1.370 . S
C5032 C5034 1.363 . S
C5032 H5048 0.931 . S
C5033 C5032 1.370 . S
C5033 C5037 1.408 . S
C5034 C5032 1.363 . S
C5034 C5035 1.370 . S
C5034 C5038 1.524 . S
C5035 C5027 1.503 . S
C5035 C5034 1.370 . S
C5035 C5036 1.403 . S
C5036 C5035 1.403 . S
C5036 C5037 1.404 . S
C5036 C5039 1.539 . S
C5037 C5033 1.408 . S
C5037 C5036 1.404 . S
C5037 H5049 0.930 . S
C5038 C5034 1.524 . S
C5038 H5050 0.956 . S
C5038 H5051 0.961 . S
C5038 H5052 0.961 . S
C5039 C5036 1.539 . S
C5039 H5053 0.958 . S
C5039 H5054 0.961 . S
C5039 H5055 0.960 . S
H5040 C5024 0.931 . S
H5041 C5029 0.929 . S
H5042 C5030 0.960 . S
H5043 C5030 0.962 . S
H5044 C5030 0.960 . S
H5045 C5031 0.961 . S
H5046 C5031 0.961 . S
H5047 C5031 0.961 . S
H5048 C5032 0.931 . S
H5049 C5037 0.930 . S
H5050 C5038 0.956 . S
H5051 C5038 0.961 . S
H5052 C5038 0.961 . S
H5053 C5039 0.958 . S
H5054 C5039 0.961 . S
H5055 C5039 0.960 . S
C5056 C5057 1.391 . S
C5056 C5058 1.394 . S
C5056 H5072 0.931 . S
C5057 C5056 1.391 . S
C5057 C5061 1.376 . S
C5058 C5056 1.394 . S
C5058 C5059 1.369 . S
C5058 C5062 1.531 . S
C5059 C5058 1.369 . S
C5059 C5060 1.410 . S
C5059 C5067 1.503 . S
C5060 C5059 1.410 . S
C5060 C5061 1.392 . S
C5060 C5063 1.511 . S
C5061 C5057 1.376 . S
C5061 C5060 1.392 . S
C5061 H5073 0.929 . S
C5062 C5058 1.531 . S
C5062 H5074 0.960 . S
C5062 H5075 0.962 . S
C5062 H5076 0.960 . S
C5063 C5060 1.511 . S
C5063 H5077 0.961 . S
C5063 H5078 0.961 . S
C5063 H5079 0.961 . S
C5064 C5065 1.370 . S
C5064 C5066 1.363 . S
C5064 H5080 0.931 . S
C5065 C5064 1.370 . S
C5065 C5069 1.408 . S
C5066 C5064 1.363 . S
C5066 C5067 1.370 . S
C5066 C5070 1.524 . S
C5067 C5059 1.503 . S
C5067 C5066 1.370 . S
C5067 C5068 1.403 . S
C5068 C5067 1.403 . S
C5068 C5069 1.404 . S
C5068 C5071 1.539 . S
C5069 C5065 1.408 . S
C5069 C5068 1.404 . S
C5069 H5081 0.930 . S
C5070 C5066 1.524 . S
C5070 H5082 0.956 . S
C5070 H5083 0.961 . S
C5070 H5084 0.961 . S
C5071 C5068 1.539 . S
C5071 H5085 0.958 . S
C5071 H5086 0.961 . S
C5071 H5087 0.960 . S
H5072 C5056 0.931 . S
H5073 C5061 0.929 . S
H5074 C5062 0.960 . S
H5075 C5062 0.962 . S
H5076 C5062 0.960 . S
H5077 C5063 0.961 . S
H5078 C5063 0.961 . S
H5079 C5063 0.961 . S
H5080 C5064 0.931 . S
H5081 C5069 0.930 . S
H5082 C5070 0.956 . S
H5083 C5070 0.961 . S
H5084 C5070 0.961 . S
H5085 C5071 0.958 . S
H5086 C5071 0.961 . S
H5087 C5071 0.960 . S
C5088 C5089 1.391 . S
C5088 C5090 1.394 . S
C5088 H5104 0.931 . S
C5089 C5088 1.391 . S
C5089 C5093 1.376 . S
C5090 C5088 1.394 . S
C5090 C5091 1.369 . S
C5090 C5094 1.531 . S
C5091 C5090 1.369 . S
C5091 C5092 1.410 . S
C5091 C5099 1.503 . S
C5092 C5091 1.410 . S
C5092 C5093 1.392 . S
C5092 C5095 1.511 . S
C5093 C5089 1.376 . S
C5093 C5092 1.392 . S
C5093 H5105 0.929 . S
C5094 C5090 1.531 . S
C5094 H5106 0.960 . S
C5094 H5107 0.962 . S
C5094 H5108 0.960 . S
C5095 C5092 1.511 . S
C5095 H5109 0.961 . S
C5095 H5110 0.961 . S
C5095 H5111 0.961 . S
C5096 C5097 1.370 . S
C5096 C5098 1.363 . S
C5096 H5112 0.931 . S
C5097 C5096 1.370 . S
C5097 C5101 1.408 . S
C5098 C5096 1.363 . S
C5098 C5099 1.370 . S
C5098 C5102 1.524 . S
C5099 C5091 1.503 . S
C5099 C5098 1.370 . S
C5099 C5100 1.403 . S
C5100 C5099 1.403 . S
C5100 C5101 1.404 . S
C5100 C5103 1.539 . S
C5101 C5097 1.408 . S
C5101 C5100 1.404 . S
C5101 H5113 0.930 . S
C5102 C5098 1.524 . S
C5102 H5114 0.956 . S
C5102 H5115 0.961 . S
C5102 H5116 0.961 . S
C5103 C5100 1.539 . S
C5103 H5117 0.958 . S
C5103 H5118 0.961 . S
C5103 H5119 0.960 . S
H5104 C5088 0.931 . S
H5105 C5093 0.929 . S
H5106 C5094 0.960 . S
H5107 C5094 0.962 . S
H5108 C5094 0.960 . S
H5109 C5095 0.961 . S
H5110 C5095 0.961 . S
H5111 C5095 0.961 . S
H5112 C5096 0.931 . S
H5113 C5101 0.930 . S
H5114 C5102 0.956 . S
H5115 C5102 0.961 . S
H5116 C5102 0.961 . S
H5117 C5103 0.958 . S
H5118 C5103 0.961 . S
H5119 C5103 0.960 . S
C5120 C5121 1.391 . S
C5120 C5122 1.394 . S
C5120 H5136 0.931 . S
C5121 C5120 1.391 . S
C5121 C5125 1.376 . S
C5122 C5120 1.394 . S
C5122 C5123 1.369 . S
C5122 C5126 1.531 . S
C5123 C5122 1.369 . S
C5123 C5124 1.410 . S
C5123 C5131 1.503 . S
C5124 C5123 1.410 . S
C5124 C5125 1.392 . S
C5124 C5127 1.511 . S
C5125 C5121 1.376 . S
C5125 C5124 1.392 . S
C5125 H5137 0.929 . S
C5126 C5122 1.531 . S
C5126 H5138 0.960 . S
C5126 H5139 0.962 . S
C5126 H5140 0.960 . S
C5127 C5124 1.511 . S
C5127 H5141 0.961 . S
C5127 H5142 0.961 . S
C5127 H5143 0.961 . S
C5128 C5129 1.370 . S
C5128 C5130 1.363 . S
C5128 H5144 0.931 . S
C5129 C5128 1.370 . S
C5129 C5133 1.408 . S
C5130 C5128 1.363 . S
C5130 C5131 1.370 . S
C5130 C5134 1.524 . S
C5131 C5123 1.503 . S
C5131 C5130 1.370 . S
C5131 C5132 1.403 . S
C5132 C5131 1.403 . S
C5132 C5133 1.404 . S
C5132 C5135 1.539 . S
C5133 C5129 1.408 . S
C5133 C5132 1.404 . S
C5133 H5145 0.930 . S
C5134 C5130 1.524 . S
C5134 H5146 0.956 . S
C5134 H5147 0.961 . S
C5134 H5148 0.961 . S
C5135 C5132 1.539 . S
C5135 H5149 0.958 . S
C5135 H5150 0.961 . S
C5135 H5151 0.960 . S
H5136 C5120 0.931 . S
H5137 C5125 0.929 . S
H5138 C5126 0.960 . S
H5139 C5126 0.962 . S
H5140 C5126 0.960 . S
H5141 C5127 0.961 . S
H5142 C5127 0.961 . S
H5143 C5127 0.961 . S
H5144 C5128 0.931 . S
H5145 C5133 0.930 . S
H5146 C5134 0.956 . S
H5147 C5134 0.961 . S
H5148 C5134 0.961 . S
H5149 C5135 0.958 . S
H5150 C5135 0.961 . S
H5151 C5135 0.960 . S
C5152 C5153 1.391 . S
C5152 C5154 1.394 . S
C5152 H5168 0.931 . S
C5153 C5152 1.391 . S
C5153 C5157 1.376 . S
C5154 C5152 1.394 . S
C5154 C5155 1.369 . S
C5154 C5158 1.531 . S
C5155 C5154 1.369 . S
C5155 C5156 1.410 . S
C5155 C5163 1.503 . S
C5156 C5155 1.410 . S
C5156 C5157 1.392 . S
C5156 C5159 1.511 . S
C5157 C5153 1.376 . S
C5157 C5156 1.392 . S
C5157 H5169 0.929 . S
C5158 C5154 1.531 . S
C5158 H5170 0.960 . S
C5158 H5171 0.962 . S
C5158 H5172 0.960 . S
C5159 C5156 1.511 . S
C5159 H5173 0.961 . S
C5159 H5174 0.961 . S
C5159 H5175 0.961 . S
C5160 C5161 1.370 . S
C5160 C5162 1.363 . S
C5160 H5176 0.931 . S
C5161 C5160 1.370 . S
C5161 C5165 1.408 . S
C5162 C5160 1.363 . S
C5162 C5163 1.370 . S
C5162 C5166 1.524 . S
C5163 C5155 1.503 . S
C5163 C5162 1.370 . S
C5163 C5164 1.403 . S
C5164 C5163 1.403 . S
C5164 C5165 1.404 . S
C5164 C5167 1.539 . S
C5165 C5161 1.408 . S
C5165 C5164 1.404 . S
C5165 H5177 0.930 . S
C5166 C5162 1.524 . S
C5166 H5178 0.956 . S
C5166 H5179 0.961 . S
C5166 H5180 0.961 . S
C5167 C5164 1.539 . S
C5167 H5181 0.958 . S
C5167 H5182 0.961 . S
C5167 H5183 0.960 . S
H5168 C5152 0.931 . S
H5169 C5157 0.929 . S
H5170 C5158 0.960 . S
H5171 C5158 0.962 . S
H5172 C5158 0.960 . S
H5173 C5159 0.961 . S
H5174 C5159 0.961 . S
H5175 C5159 0.961 . S
H5176 C5160 0.931 . S
H5177 C5165 0.930 . S
H5178 C5166 0.956 . S
H5179 C5166 0.961 . S
H5180 C5166 0.961 . S
H5181 C5167 0.958 . S
H5182 C5167 0.961 . S
H5183 C5167 0.960 . S
C5184 C5185 1.391 . S
C5184 C5186 1.394 . S
C5184 H5200 0.931 . S
C5185 C5184 1.391 . S
C5185 C5189 1.376 . S
C5186 C5184 1.394 . S
C5186 C5187 1.369 . S
C5186 C5190 1.531 . S
C5187 C5186 1.369 . S
C5187 C5188 1.410 . S
C5187 C5195 1.503 . S
C5188 C5187 1.410 . S
C5188 C5189 1.392 . S
C5188 C5191 1.511 . S
C5189 C5185 1.376 . S
C5189 C5188 1.392 . S
C5189 H5201 0.929 . S
C5190 C5186 1.531 . S
C5190 H5202 0.960 . S
C5190 H5203 0.962 . S
C5190 H5204 0.960 . S
C5191 C5188 1.511 . S
C5191 H5205 0.961 . S
C5191 H5206 0.961 . S
C5191 H5207 0.961 . S
C5192 C5193 1.370 . S
C5192 C5194 1.363 . S
C5192 H5208 0.931 . S
C5193 C5192 1.370 . S
C5193 C5197 1.408 . S
C5194 C5192 1.363 . S
C5194 C5195 1.370 . S
C5194 C5198 1.524 . S
C5195 C5187 1.503 . S
C5195 C5194 1.370 . S
C5195 C5196 1.403 . S
C5196 C5195 1.403 . S
C5196 C5197 1.404 . S
C5196 C5199 1.539 . S
C5197 C5193 1.408 . S
C5197 C5196 1.404 . S
C5197 H5209 0.930 . S
C5198 C5194 1.524 . S
C5198 H5210 0.956 . S
C5198 H5211 0.961 . S
C5198 H5212 0.961 . S
C5199 C5196 1.539 . S
C5199 H5213 0.958 . S
C5199 H5214 0.961 . S
C5199 H5215 0.960 . S
H5200 C5184 0.931 . S
H5201 C5189 0.929 . S
H5202 C5190 0.960 . S
H5203 C5190 0.962 . S
H5204 C5190 0.960 . S
H5205 C5191 0.961 . S
H5206 C5191 0.961 . S
H5207 C5191 0.961 . S
H5208 C5192 0.931 . S
H5209 C5197 0.930 . S
H5210 C5198 0.956 . S
H5211 C5198 0.961 . S
H5212 C5198 0.961 . S
H5213 C5199 0.958 . S
H5214 C5199 0.961 . S
H5215 C5199 0.960 . S
C5216 C5217 1.391 . S
C5216 C5218 1.394 . S
C5216 H5232 0.931 . S
C5217 C5216 1.391 . S
C5217 C5221 1.376 . S
C5218 C5216 1.394 . S
C5218 C5219 1.369 . S
C5218 C5222 1.531 . S
C5219 C5218 1.369 . S
C5219 C5220 1.410 . S
C5219 C5227 1.503 . S
C5220 C5219 1.410 . S
C5220 C5221 1.392 . S
C5220 C5223 1.511 . S
C5221 C5217 1.376 . S
C5221 C5220 1.392 . S
C5221 H5233 0.929 . S
C5222 C5218 1.531 . S
C5222 H5234 0.960 . S
C5222 H5235 0.962 . S
C5222 H5236 0.960 . S
C5223 C5220 1.511 . S
C5223 H5237 0.961 . S
C5223 H5238 0.961 . S
C5223 H5239 0.961 . S
C5224 C5225 1.370 . S
C5224 C5226 1.363 . S
C5224 H5240 0.931 . S
C5225 C5224 1.370 . S
C5225 C5229 1.408 . S
C5226 C5224 1.363 . S
C5226 C5227 1.370 . S
C5226 C5230 1.524 . S
C5227 C5219 1.503 . S
C5227 C5226 1.370 . S
C5227 C5228 1.403 . S
C5228 C5227 1.403 . S
C5228 C5229 1.404 . S
C5228 C5231 1.539 . S
C5229 C5225 1.408 . S
C5229 C5228 1.404 . S
C5229 H5241 0.930 . S
C5230 C5226 1.524 . S
C5230 H5242 0.956 . S
C5230 H5243 0.961 . S
C5230 H5244 0.961 . S
C5231 C5228 1.539 . S
C5231 H5245 0.958 . S
C5231 H5246 0.961 . S
C5231 H5247 0.960 . S
H5232 C5216 0.931 . S
H5233 C5221 0.929 . S
H5234 C5222 0.960 . S
H5235 C5222 0.962 . S
H5236 C5222 0.960 . S
H5237 C5223 0.961 . S
H5238 C5223 0.961 . S
H5239 C5223 0.961 . S
H5240 C5224 0.931 . S
H5241 C5229 0.930 . S
H5242 C5230 0.956 . S
H5243 C5230 0.961 . S
H5244 C5230 0.961 . S
H5245 C5231 0.958 . S
H5246 C5231 0.961 . S
H5247 C5231 0.960 . S
C5248 C5249 1.391 . S
C5248 C5250 1.394 . S
C5248 H5264 0.931 . S
C5249 C5248 1.391 . S
C5249 C5253 1.376 . S
C5250 C5248 1.394 . S
C5250 C5251 1.369 . S
C5250 C5254 1.531 . S
C5251 C5250 1.369 . S
C5251 C5252 1.410 . S
C5251 C5259 1.503 . S
C5252 C5251 1.410 . S
C5252 C5253 1.392 . S
C5252 C5255 1.511 . S
C5253 C5249 1.376 . S
C5253 C5252 1.392 . S
C5253 H5265 0.929 . S
C5254 C5250 1.531 . S
C5254 H5266 0.960 . S
C5254 H5267 0.962 . S
C5254 H5268 0.960 . S
C5255 C5252 1.511 . S
C5255 H5269 0.961 . S
C5255 H5270 0.961 . S
C5255 H5271 0.961 . S
C5256 C5257 1.370 . S
C5256 C5258 1.363 . S
C5256 H5272 0.931 . S
C5257 C5256 1.370 . S
C5257 C5261 1.408 . S
C5258 C5256 1.363 . S
C5258 C5259 1.370 . S
C5258 C5262 1.524 . S
C5259 C5251 1.503 . S
C5259 C5258 1.370 . S
C5259 C5260 1.403 . S
C5260 C5259 1.403 . S
C5260 C5261 1.404 . S
C5260 C5263 1.539 . S
C5261 C5257 1.408 . S
C5261 C5260 1.404 . S
C5261 H5273 0.930 . S
C5262 C5258 1.524 . S
C5262 H5274 0.956 . S
C5262 H5275 0.961 . S
C5262 H5276 0.961 . S
C5263 C5260 1.539 . S
C5263 H5277 0.958 . S
C5263 H5278 0.961 . S
C5263 H5279 0.960 . S
H5264 C5248 0.931 . S
H5265 C5253 0.929 . S
H5266 C5254 0.960 . S
H5267 C5254 0.962 . S
H5268 C5254 0.960 . S
H5269 C5255 0.961 . S
H5270 C5255 0.961 . S
H5271 C5255 0.961 . S
H5272 C5256 0.931 . S
H5273 C5261 0.930 . S
H5274 C5262 0.956 . S
H5275 C5262 0.961 . S
H5276 C5262 0.961 . S
H5277 C5263 0.958 . S
H5278 C5263 0.961 . S
H5279 C5263 0.960 . S
C5280 C5281 1.391 . S
C5280 C5282 1.394 . S
C5280 H5296 0.931 . S
C5281 C5280 1.391 . S
C5281 C5285 1.376 . S
C5282 C5280 1.394 . S
C5282 C5283 1.369 . S
C5282 C5286 1.531 . S
C5283 C5282 1.369 . S
C5283 C5284 1.410 . S
C5283 C5291 1.503 . S
C5284 C5283 1.410 . S
C5284 C5285 1.392 . S
C5284 C5287 1.511 . S
C5285 C5281 1.376 . S
C5285 C5284 1.392 . S
C5285 H5297 0.929 . S
C5286 C5282 1.531 . S
C5286 H5298 0.960 . S
C5286 H5299 0.962 . S
C5286 H5300 0.960 . S
C5287 C5284 1.511 . S
C5287 H5301 0.961 . S
C5287 H5302 0.961 . S
C5287 H5303 0.961 . S
C5288 C5289 1.370 . S
C5288 C5290 1.363 . S
C5288 H5304 0.931 . S
C5289 C5288 1.370 . S
C5289 C5293 1.408 . S
C5290 C5288 1.363 . S
C5290 C5291 1.370 . S
C5290 C5294 1.524 . S
C5291 C5283 1.503 . S
C5291 C5290 1.370 . S
C5291 C5292 1.403 . S
C5292 C5291 1.403 . S
C5292 C5293 1.404 . S
C5292 C5295 1.539 . S
C5293 C5289 1.408 . S
C5293 C5292 1.404 . S
C5293 H5305 0.930 . S
C5294 C5290 1.524 . S
C5294 H5306 0.956 . S
C5294 H5307 0.961 . S
C5294 H5308 0.961 . S
C5295 C5292 1.539 . S
C5295 H5309 0.958 . S
C5295 H5310 0.961 . S
C5295 H5311 0.960 . S
H5296 C5280 0.931 . S
H5297 C5285 0.929 . S
H5298 C5286 0.960 . S
H5299 C5286 0.962 . S
H5300 C5286 0.960 . S
H5301 C5287 0.961 . S
H5302 C5287 0.961 . S
H5303 C5287 0.961 . S
H5304 C5288 0.931 . S
H5305 C5293 0.930 . S
H5306 C5294 0.956 . S
H5307 C5294 0.961 . S
H5308 C5294 0.961 . S
H5309 C5295 0.958 . S
H5310 C5295 0.961 . S
H5311 C5295 0.960 . S
C5312 C5313 1.391 . S
C5312 C5314 1.394 . S
C5312 H5328 0.931 . S
C5313 C5312 1.391 . S
C5313 C5317 1.376 . S
C5314 C5312 1.394 . S
C5314 C5315 1.369 . S
C5314 C5318 1.531 . S
C5315 C5314 1.369 . S
C5315 C5316 1.410 . S
C5315 C5323 1.503 . S
C5316 C5315 1.410 . S
C5316 C5317 1.392 . S
C5316 C5319 1.511 . S
C5317 C5313 1.376 . S
C5317 C5316 1.392 . S
C5317 H5329 0.929 . S
C5318 C5314 1.531 . S
C5318 H5330 0.960 . S
C5318 H5331 0.962 . S
C5318 H5332 0.960 . S
C5319 C5316 1.511 . S
C5319 H5333 0.961 . S
C5319 H5334 0.961 . S
C5319 H5335 0.961 . S
C5320 C5321 1.370 . S
C5320 C5322 1.363 . S
C5320 H5336 0.931 . S
C5321 C5320 1.370 . S
C5321 C5325 1.408 . S
C5322 C5320 1.363 . S
C5322 C5323 1.370 . S
C5322 C5326 1.524 . S
C5323 C5315 1.503 . S
C5323 C5322 1.370 . S
C5323 C5324 1.403 . S
C5324 C5323 1.403 . S
C5324 C5325 1.404 . S
C5324 C5327 1.539 . S
C5325 C5321 1.408 . S
C5325 C5324 1.404 . S
C5325 H5337 0.930 . S
C5326 C5322 1.524 . S
C5326 H5338 0.956 . S
C5326 H5339 0.961 . S
C5326 H5340 0.961 . S
C5327 C5324 1.539 . S
C5327 H5341 0.958 . S
C5327 H5342 0.961 . S
C5327 H5343 0.960 . S
H5328 C5312 0.931 . S
H5329 C5317 0.929 . S
H5330 C5318 0.960 . S
H5331 C5318 0.962 . S
H5332 C5318 0.960 . S
H5333 C5319 0.961 . S
H5334 C5319 0.961 . S
H5335 C5319 0.961 . S
H5336 C5320 0.931 . S
H5337 C5325 0.930 . S
H5338 C5326 0.956 . S
H5339 C5326 0.961 . S
H5340 C5326 0.961 . S
H5341 C5327 0.958 . S
H5342 C5327 0.961 . S
H5343 C5327 0.960 . S
C5344 C5345 1.391 . S
C5344 C5346 1.394 . S
C5344 H5360 0.931 . S
C5345 C5344 1.391 . S
C5345 C5349 1.376 . S
C5346 C5344 1.394 . S
C5346 C5347 1.369 . S
C5346 C5350 1.531 . S
C5347 C5346 1.369 . S
C5347 C5348 1.410 . S
C5347 C5355 1.503 . S
C5348 C5347 1.410 . S
C5348 C5349 1.392 . S
C5348 C5351 1.511 . S
C5349 C5345 1.376 . S
C5349 C5348 1.392 . S
C5349 H5361 0.929 . S
C5350 C5346 1.531 . S
C5350 H5362 0.960 . S
C5350 H5363 0.962 . S
C5350 H5364 0.960 . S
C5351 C5348 1.511 . S
C5351 H5365 0.961 . S
C5351 H5366 0.961 . S
C5351 H5367 0.961 . S
C5352 C5353 1.370 . S
C5352 C5354 1.363 . S
C5352 H5368 0.931 . S
C5353 C5352 1.370 . S
C5353 C5357 1.408 . S
C5354 C5352 1.363 . S
C5354 C5355 1.370 . S
C5354 C5358 1.524 . S
C5355 C5347 1.503 . S
C5355 C5354 1.370 . S
C5355 C5356 1.403 . S
C5356 C5355 1.403 . S
C5356 C5357 1.404 . S
C5356 C5359 1.539 . S
C5357 C5353 1.408 . S
C5357 C5356 1.404 . S
C5357 H5369 0.930 . S
C5358 C5354 1.524 . S
C5358 H5370 0.956 . S
C5358 H5371 0.961 . S
C5358 H5372 0.961 . S
C5359 C5356 1.539 . S
C5359 H5373 0.958 . S
C5359 H5374 0.961 . S
C5359 H5375 0.960 . S
H5360 C5344 0.931 . S
H5361 C5349 0.929 . S
H5362 C5350 0.960 . S
H5363 C5350 0.962 . S
H5364 C5350 0.960 . S
H5365 C5351 0.961 . S
H5366 C5351 0.961 . S
H5367 C5351 0.961 . S
H5368 C5352 0.931 . S
H5369 C5357 0.930 . S
H5370 C5358 0.956 . S
H5371 C5358 0.961 . S
H5372 C5358 0.961 . S
H5373 C5359 0.958 . S
H5374 C5359 0.961 . S
H5375 C5359 0.960 . S
C5376 C5377 1.391 . S
C5376 C5378 1.394 . S
C5376 H5392 0.931 . S
C5377 C5376 1.391 . S
C5377 C5381 1.376 . S
C5378 C5376 1.394 . S
C5378 C5379 1.369 . S
C5378 C5382 1.531 . S
C5379 C5378 1.369 . S
C5379 C5380 1.410 . S
C5379 C5387 1.503 . S
C5380 C5379 1.410 . S
C5380 C5381 1.392 . S
C5380 C5383 1.511 . S
C5381 C5377 1.376 . S
C5381 C5380 1.392 . S
C5381 H5393 0.929 . S
C5382 C5378 1.531 . S
C5382 H5394 0.960 . S
C5382 H5395 0.962 . S
C5382 H5396 0.960 . S
C5383 C5380 1.511 . S
C5383 H5397 0.961 . S
C5383 H5398 0.961 . S
C5383 H5399 0.961 . S
C5384 C5385 1.370 . S
C5384 C5386 1.363 . S
C5384 H5400 0.931 . S
C5385 C5384 1.370 . S
C5385 C5389 1.408 . S
C5386 C5384 1.363 . S
C5386 C5387 1.370 . S
C5386 C5390 1.524 . S
C5387 C5379 1.503 . S
C5387 C5386 1.370 . S
C5387 C5388 1.403 . S
C5388 C5387 1.403 . S
C5388 C5389 1.404 . S
C5388 C5391 1.539 . S
C5389 C5385 1.408 . S
C5389 C5388 1.404 . S
C5389 H5401 0.930 . S
C5390 C5386 1.524 . S
C5390 H5402 0.956 . S
C5390 H5403 0.961 . S
C5390 H5404 0.961 . S
C5391 C5388 1.539 . S
C5391 H5405 0.958 . S
C5391 H5406 0.961 . S
C5391 H5407 0.960 . S
H5392 C5376 0.931 . S
H5393 C5381 0.929 . S
H5394 C5382 0.960 . S
H5395 C5382 0.962 . S
H5396 C5382 0.960 . S
H5397 C5383 0.961 . S
H5398 C5383 0.961 . S
H5399 C5383 0.961 . S
H5400 C5384 0.931 . S
H5401 C5389 0.930 . S
H5402 C5390 0.956 . S
H5403 C5390 0.961 . S
H5404 C5390 0.961 . S
H5405 C5391 0.958 . S
H5406 C5391 0.961 . S
H5407 C5391 0.960 . S
C5408 C5409 1.391 . S
C5408 C5410 1.394 . S
C5408 H5424 0.931 . S
C5409 C5408 1.391 . S
C5409 C5413 1.376 . S
C5410 C5408 1.394 . S
C5410 C5411 1.369 . S
C5410 C5414 1.531 . S
C5411 C5410 1.369 . S
C5411 C5412 1.410 . S
C5411 C5419 1.503 . S
C5412 C5411 1.410 . S
C5412 C5413 1.392 . S
C5412 C5415 1.511 . S
C5413 C5409 1.376 . S
C5413 C5412 1.392 . S
C5413 H5425 0.929 . S
C5414 C5410 1.531 . S
C5414 H5426 0.960 . S
C5414 H5427 0.962 . S
C5414 H5428 0.960 . S
C5415 C5412 1.511 . S
C5415 H5429 0.961 . S
C5415 H5430 0.961 . S
C5415 H5431 0.961 . S
C5416 C5417 1.370 . S
C5416 C5418 1.363 . S
C5416 H5432 0.931 . S
C5417 C5416 1.370 . S
C5417 C5421 1.408 . S
C5418 C5416 1.363 . S
C5418 C5419 1.370 . S
C5418 C5422 1.524 . S
C5419 C5411 1.503 . S
C5419 C5418 1.370 . S
C5419 C5420 1.403 . S
C5420 C5419 1.403 . S
C5420 C5421 1.404 . S
C5420 C5423 1.539 . S
C5421 C5417 1.408 . S
C5421 C5420 1.404 . S
C5421 H5433 0.930 . S
C5422 C5418 1.524 . S
C5422 H5434 0.956 . S
C5422 H5435 0.961 . S
C5422 H5436 0.961 . S
C5423 C5420 1.539 . S
C5423 H5437 0.958 . S
C5423 H5438 0.961 . S
C5423 H5439 0.960 . S
H5424 C5408 0.931 . S
H5425 C5413 0.929 . S
H5426 C5414 0.960 . S
H5427 C5414 0.962 . S
H5428 C5414 0.960 . S
H5429 C5415 0.961 . S
H5430 C5415 0.961 . S
H5431 C5415 0.961 . S
H5432 C5416 0.931 . S
H5433 C5421 0.930 . S
H5434 C5422 0.956 . S
H5435 C5422 0.961 . S
H5436 C5422 0.961 . S
H5437 C5423 0.958 . S
H5438 C5423 0.961 . S
H5439 C5423 0.960 . S
C5440 C5441 1.391 . S
C5440 C5442 1.394 . S
C5440 H5456 0.931 . S
C5441 C5440 1.391 . S
C5441 C5445 1.376 . S
C5442 C5440 1.394 . S
C5442 C5443 1.369 . S
C5442 C5446 1.531 . S
C5443 C5442 1.369 . S
C5443 C5444 1.410 . S
C5443 C5451 1.503 . S
C5444 C5443 1.410 . S
C5444 C5445 1.392 . S
C5444 C5447 1.511 . S
C5445 C5441 1.376 . S
C5445 C5444 1.392 . S
C5445 H5457 0.929 . S
C5446 C5442 1.531 . S
C5446 H5458 0.960 . S
C5446 H5459 0.962 . S
C5446 H5460 0.960 . S
C5447 C5444 1.511 . S
C5447 H5461 0.961 . S
C5447 H5462 0.961 . S
C5447 H5463 0.961 . S
C5448 C5449 1.370 . S
C5448 C5450 1.363 . S
C5448 H5464 0.931 . S
C5449 C5448 1.370 . S
C5449 C5453 1.408 . S
C5450 C5448 1.363 . S
C5450 C5451 1.370 . S
C5450 C5454 1.524 . S
C5451 C5443 1.503 . S
C5451 C5450 1.370 . S
C5451 C5452 1.403 . S
C5452 C5451 1.403 . S
C5452 C5453 1.404 . S
C5452 C5455 1.539 . S
C5453 C5449 1.408 . S
C5453 C5452 1.404 . S
C5453 H5465 0.930 . S
C5454 C5450 1.524 . S
C5454 H5466 0.956 . S
C5454 H5467 0.961 . S
C5454 H5468 0.961 . S
C5455 C5452 1.539 . S
C5455 H5469 0.958 . S
C5455 H5470 0.961 . S
C5455 H5471 0.960 . S
H5456 C5440 0.931 . S
H5457 C5445 0.929 . S
H5458 C5446 0.960 . S
H5459 C5446 0.962 . S
H5460 C5446 0.960 . S
H5461 C5447 0.961 . S
H5462 C5447 0.961 . S
H5463 C5447 0.961 . S
H5464 C5448 0.931 . S
H5465 C5453 0.930 . S
H5466 C5454 0.956 . S
H5467 C5454 0.961 . S
H5468 C5454 0.961 . S
H5469 C5455 0.958 . S
H5470 C5455 0.961 . S
H5471 C5455 0.960 . S
C5472 C5473 1.391 . S
C5472 C5474 1.394 . S
C5472 H5488 0.931 . S
C5473 C5472 1.391 . S
C5473 C5477 1.376 . S
C5474 C5472 1.394 . S
C5474 C5475 1.369 . S
C5474 C5478 1.531 . S
C5475 C5474 1.369 . S
C5475 C5476 1.410 . S
C5475 C5483 1.503 . S
C5476 C5475 1.410 . S
C5476 C5477 1.392 . S
C5476 C5479 1.511 . S
C5477 C5473 1.376 . S
C5477 C5476 1.392 . S
C5477 H5489 0.929 . S
C5478 C5474 1.531 . S
C5478 H5490 0.960 . S
C5478 H5491 0.962 . S
C5478 H5492 0.960 . S
C5479 C5476 1.511 . S
C5479 H5493 0.961 . S
C5479 H5494 0.961 . S
C5479 H5495 0.961 . S
C5480 C5481 1.370 . S
C5480 C5482 1.363 . S
C5480 H5496 0.931 . S
C5481 C5480 1.370 . S
C5481 C5485 1.408 . S
C5482 C5480 1.363 . S
C5482 C5483 1.370 . S
C5482 C5486 1.524 . S
C5483 C5475 1.503 . S
C5483 C5482 1.370 . S
C5483 C5484 1.403 . S
C5484 C5483 1.403 . S
C5484 C5485 1.404 . S
C5484 C5487 1.539 . S
C5485 C5481 1.408 . S
C5485 C5484 1.404 . S
C5485 H5497 0.930 . S
C5486 C5482 1.524 . S
C5486 H5498 0.956 . S
C5486 H5499 0.961 . S
C5486 H5500 0.961 . S
C5487 C5484 1.539 . S
C5487 H5501 0.958 . S
C5487 H5502 0.961 . S
C5487 H5503 0.960 . S
H5488 C5472 0.931 . S
H5489 C5477 0.929 . S
H5490 C5478 0.960 . S
H5491 C5478 0.962 . S
H5492 C5478 0.960 . S
H5493 C5479 0.961 . S
H5494 C5479 0.961 . S
H5495 C5479 0.961 . S
H5496 C5480 0.931 . S
H5497 C5485 0.930 . S
H5498 C5486 0.956 . S
H5499 C5486 0.961 . S
H5500 C5486 0.961 . S
H5501 C5487 0.958 . S
H5502 C5487 0.961 . S
H5503 C5487 0.960 . S
C5504 C5505 1.391 . S
C5504 C5506 1.394 . S
C5504 H5520 0.931 . S
C5505 C5504 1.391 . S
C5505 C5509 1.376 . S
C5506 C5504 1.394 . S
C5506 C5507 1.369 . S
C5506 C5510 1.531 . S
C5507 C5506 1.369 . S
C5507 C5508 1.410 . S
C5507 C5515 1.503 . S
C5508 C5507 1.410 . S
C5508 C5509 1.392 . S
C5508 C5511 1.511 . S
C5509 C5505 1.376 . S
C5509 C5508 1.392 . S
C5509 H5521 0.929 . S
C5510 C5506 1.531 . S
C5510 H5522 0.960 . S
C5510 H5523 0.962 . S
C5510 H5524 0.960 . S
C5511 C5508 1.511 . S
C5511 H5525 0.961 . S
C5511 H5526 0.961 . S
C5511 H5527 0.961 . S
C5512 C5513 1.370 . S
C5512 C5514 1.363 . S
C5512 H5528 0.931 . S
C5513 C5512 1.370 . S
C5513 C5517 1.408 . S
C5514 C5512 1.363 . S
C5514 C5515 1.370 . S
C5514 C5518 1.524 . S
C5515 C5507 1.503 . S
C5515 C5514 1.370 . S
C5515 C5516 1.403 . S
C5516 C5515 1.403 . S
C5516 C5517 1.404 . S
C5516 C5519 1.539 . S
C5517 C5513 1.408 . S
C5517 C5516 1.404 . S
C5517 H5529 0.930 . S
C5518 C5514 1.524 . S
C5518 H5530 0.956 . S
C5518 H5531 0.961 . S
C5518 H5532 0.961 . S
C5519 C5516 1.539 . S
C5519 H5533 0.958 . S
C5519 H5534 0.961 . S
C5519 H5535 0.960 . S
H5520 C5504 0.931 . S
H5521 C5509 0.929 . S
H5522 C5510 0.960 . S
H5523 C5510 0.962 . S
H5524 C5510 0.960 . S
H5525 C5511 0.961 . S
H5526 C5511 0.961 . S
H5527 C5511 0.961 . S
H5528 C5512 0.931 . S
H5529 C5517 0.930 . S
H5530 C5518 0.956 . S
H5531 C5518 0.961 . S
H5532 C5518 0.961 . S
H5533 C5519 0.958 . S
H5534 C5519 0.961 . S
H5535 C5519 0.960 . S
C5536 C5537 1.391 . S
C5536 C5538 1.394 . S
C5536 H5552 0.931 . S
C5537 C5536 1.391 . S
C5537 C5541 1.376 . S
C5538 C5536 1.394 . S
C5538 C5539 1.369 . S
C5538 C5542 1.531 . S
C5539 C5538 1.369 . S
C5539 C5540 1.410 . S
C5539 C5547 1.503 . S
C5540 C5539 1.410 . S
C5540 C5541 1.392 . S
C5540 C5543 1.511 . S
C5541 C5537 1.376 . S
C5541 C5540 1.392 . S
C5541 H5553 0.929 . S
C5542 C5538 1.531 . S
C5542 H5554 0.960 . S
C5542 H5555 0.962 . S
C5542 H5556 0.960 . S
C5543 C5540 1.511 . S
C5543 H5557 0.961 . S
C5543 H5558 0.961 . S
C5543 H5559 0.961 . S
C5544 C5545 1.370 . S
C5544 C5546 1.363 . S
C5544 H5560 0.931 . S
C5545 C5544 1.370 . S
C5545 C5549 1.408 . S
C5546 C5544 1.363 . S
C5546 C5547 1.370 . S
C5546 C5550 1.524 . S
C5547 C5539 1.503 . S
C5547 C5546 1.370 . S
C5547 C5548 1.403 . S
C5548 C5547 1.403 . S
C5548 C5549 1.404 . S
C5548 C5551 1.539 . S
C5549 C5545 1.408 . S
C5549 C5548 1.404 . S
C5549 H5561 0.930 . S
C5550 C5546 1.524 . S
C5550 H5562 0.956 . S
C5550 H5563 0.961 . S
C5550 H5564 0.961 . S
C5551 C5548 1.539 . S
C5551 H5565 0.958 . S
C5551 H5566 0.961 . S
C5551 H5567 0.960 . S
H5552 C5536 0.931 . S
H5553 C5541 0.929 . S
H5554 C5542 0.960 . S
H5555 C5542 0.962 . S
H5556 C5542 0.960 . S
H5557 C5543 0.961 . S
H5558 C5543 0.961 . S
H5559 C5543 0.961 . S
H5560 C5544 0.931 . S
H5561 C5549 0.930 . S
H5562 C5550 0.956 . S
H5563 C5550 0.961 . S
H5564 C5550 0.961 . S
H5565 C5551 0.958 . S
H5566 C5551 0.961 . S
H5567 C5551 0.960 . S
C5568 C5569 1.391 . S
C5568 C5570 1.394 . S
C5568 H5584 0.931 . S
C5569 C5568 1.391 . S
C5569 C5573 1.376 . S
C5570 C5568 1.394 . S
C5570 C5571 1.369 . S
C5570 C5574 1.531 . S
C5571 C5570 1.369 . S
C5571 C5572 1.410 . S
C5571 C5579 1.503 . S
C5572 C5571 1.410 . S
C5572 C5573 1.392 . S
C5572 C5575 1.511 . S
C5573 C5569 1.376 . S
C5573 C5572 1.392 . S
C5573 H5585 0.929 . S
C5574 C5570 1.531 . S
C5574 H5586 0.960 . S
C5574 H5587 0.962 . S
C5574 H5588 0.960 . S
C5575 C5572 1.511 . S
C5575 H5589 0.961 . S
C5575 H5590 0.961 . S
C5575 H5591 0.961 . S
C5576 C5577 1.370 . S
C5576 C5578 1.363 . S
C5576 H5592 0.931 . S
C5577 C5576 1.370 . S
C5577 C5581 1.408 . S
C5578 C5576 1.363 . S
C5578 C5579 1.370 . S
C5578 C5582 1.524 . S
C5579 C5571 1.503 . S
C5579 C5578 1.370 . S
C5579 C5580 1.403 . S
C5580 C5579 1.403 . S
C5580 C5581 1.404 . S
C5580 C5583 1.539 . S
C5581 C5577 1.408 . S
C5581 C5580 1.404 . S
C5581 H5593 0.930 . S
C5582 C5578 1.524 . S
C5582 H5594 0.956 . S
C5582 H5595 0.961 . S
C5582 H5596 0.961 . S
C5583 C5580 1.539 . S
C5583 H5597 0.958 . S
C5583 H5598 0.961 . S
C5583 H5599 0.960 . S
H5584 C5568 0.931 . S
H5585 C5573 0.929 . S
H5586 C5574 0.960 . S
H5587 C5574 0.962 . S
H5588 C5574 0.960 . S
H5589 C5575 0.961 . S
H5590 C5575 0.961 . S
H5591 C5575 0.961 . S
H5592 C5576 0.931 . S
H5593 C5581 0.930 . S
H5594 C5582 0.956 . S
H5595 C5582 0.961 . S
H5596 C5582 0.961 . S
H5597 C5583 0.958 . S
H5598 C5583 0.961 . S
H5599 C5583 0.960 . S
C5600 C5601 1.391 . S
C5600 C5602 1.394 . S
C5600 H5616 0.931 . S
C5601 C5600 1.391 . S
C5601 C5605 1.376 . S
C5602 C5600 1.394 . S
C5602 C5603 1.369 . S
C5602 C5606 1.531 . S
C5603 C5602 1.369 . S
C5603 C5604 1.410 . S
C5603 C5611 1.503 . S
C5604 C5603 1.410 . S
C5604 C5605 1.392 . S
C5604 C5607 1.511 . S
C5605 C5601 1.376 . S
C5605 C5604 1.392 . S
C5605 H5617 0.929 . S
C5606 C5602 1.531 . S
C5606 H5618 0.960 . S
C5606 H5619 0.962 . S
C5606 H5620 0.960 . S
C5607 C5604 1.511 . S
C5607 H5621 0.961 . S
C5607 H5622 0.961 . S
C5607 H5623 0.961 . S
C5608 C5609 1.370 . S
C5608 C5610 1.363 . S
C5608 H5624 0.931 . S
C5609 C5608 1.370 . S
C5609 C5613 1.408 . S
C5610 C5608 1.363 . S
C5610 C5611 1.370 . S
C5610 C5614 1.524 . S
C5611 C5603 1.503 . S
C5611 C5610 1.370 . S
C5611 C5612 1.403 . S
C5612 C5611 1.403 . S
C5612 C5613 1.404 . S
C5612 C5615 1.539 . S
C5613 C5609 1.408 . S
C5613 C5612 1.404 . S
C5613 H5625 0.930 . S
C5614 C5610 1.524 . S
C5614 H5626 0.956 . S
C5614 H5627 0.961 . S
C5614 H5628 0.961 . S
C5615 C5612 1.539 . S
C5615 H5629 0.958 . S
C5615 H5630 0.961 . S
C5615 H5631 0.960 . S
H5616 C5600 0.931 . S
H5617 C5605 0.929 . S
H5618 C5606 0.960 . S
H5619 C5606 0.962 . S
H5620 C5606 0.960 . S
H5621 C5607 0.961 . S
H5622 C5607 0.961 . S
H5623 C5607 0.961 . S
H5624 C5608 0.931 . S
H5625 C5613 0.930 . S
H5626 C5614 0.956 . S
H5627 C5614 0.961 . S
H5628 C5614 0.961 . S
H5629 C5615 0.958 . S
H5630 C5615 0.961 . S
H5631 C5615 0.960 . S
C5632 C5633 1.391 . S
C5632 C5634 1.394 . S
C5632 H5648 0.931 . S
C5633 C5632 1.391 . S
C5633 C5637 1.376 . S
C5634 C5632 1.394 . S
C5634 C5635 1.369 . S
C5634 C5638 1.531 . S
C5635 C5634 1.369 . S
C5635 C5636 1.410 . S
C5635 C5643 1.503 . S
C5636 C5635 1.410 . S
C5636 C5637 1.392 . S
C5636 C5639 1.511 . S
C5637 C5633 1.376 . S
C5637 C5636 1.392 . S
C5637 H5649 0.929 . S
C5638 C5634 1.531 . S
C5638 H5650 0.960 . S
C5638 H5651 0.962 . S
C5638 H5652 0.960 . S
C5639 C5636 1.511 . S
C5639 H5653 0.961 . S
C5639 H5654 0.961 . S
C5639 H5655 0.961 . S
C5640 C5641 1.370 . S
C5640 C5642 1.363 . S
C5640 H5656 0.931 . S
C5641 C5640 1.370 . S
C5641 C5645 1.408 . S
C5642 C5640 1.363 . S
C5642 C5643 1.370 . S
C5642 C5646 1.524 . S
C5643 C5635 1.503 . S
C5643 C5642 1.370 . S
C5643 C5644 1.403 . S
C5644 C5643 1.403 . S
C5644 C5645 1.404 . S
C5644 C5647 1.539 . S
C5645 C5641 1.408 . S
C5645 C5644 1.404 . S
C5645 H5657 0.930 . S
C5646 C5642 1.524 . S
C5646 H5658 0.956 . S
C5646 H5659 0.961 . S
C5646 H5660 0.961 . S
C5647 C5644 1.539 . S
C5647 H5661 0.958 . S
C5647 H5662 0.961 . S
C5647 H5663 0.960 . S
H5648 C5632 0.931 . S
H5649 C5637 0.929 . S
H5650 C5638 0.960 . S
H5651 C5638 0.962 . S
H5652 C5638 0.960 . S
H5653 C5639 0.961 . S
H5654 C5639 0.961 . S
H5655 C5639 0.961 . S
H5656 C5640 0.931 . S
H5657 C5645 0.930 . S
H5658 C5646 0.956 . S
H5659 C5646 0.961 . S
H5660 C5646 0.961 . S
H5661 C5647 0.958 . S
H5662 C5647 0.961 . S
H5663 C5647 0.960 . S
C5664 C5665 1.391 . S
C5664 C5666 1.394 . S
C5664 H5680 0.931 . S
C5665 C5664 1.391 . S
C5665 C5669 1.376 . S
C5666 C5664 1.394 . S
C5666 C5667 1.369 . S
C5666 C5670 1.531 . S
C5667 C5666 1.369 . S
C5667 C5668 1.410 . S
C5667 C5675 1.503 . S
C5668 C5667 1.410 . S
C5668 C5669 1.392 . S
C5668 C5671 1.511 . S
C5669 C5665 1.376 . S
C5669 C5668 1.392 . S
C5669 H5681 0.929 . S
C5670 C5666 1.531 . S
C5670 H5682 0.960 . S
C5670 H5683 0.962 . S
C5670 H5684 0.960 . S
C5671 C5668 1.511 . S
C5671 H5685 0.961 . S
C5671 H5686 0.961 . S
C5671 H5687 0.961 . S
C5672 C5673 1.370 . S
C5672 C5674 1.363 . S
C5672 H5688 0.931 . S
C5673 C5672 1.370 . S
C5673 C5677 1.408 . S
C5674 C5672 1.363 . S
C5674 C5675 1.370 . S
C5674 C5678 1.524 . S
C5675 C5667 1.503 . S
C5675 C5674 1.370 . S
C5675 C5676 1.403 . S
C5676 C5675 1.403 . S
C5676 C5677 1.404 . S
C5676 C5679 1.539 . S
C5677 C5673 1.408 . S
C5677 C5676 1.404 . S
C5677 H5689 0.930 . S
C5678 C5674 1.524 . S
C5678 H5690 0.956 . S
C5678 H5691 0.961 . S
C5678 H5692 0.961 . S
C5679 C5676 1.539 . S
C5679 H5693 0.958 . S
C5679 H5694 0.961 . S
C5679 H5695 0.960 . S
H5680 C5664 0.931 . S
H5681 C5669 0.929 . S
H5682 C5670 0.960 . S
H5683 C5670 0.962 . S
H5684 C5670 0.960 . S
H5685 C5671 0.961 . S
H5686 C5671 0.961 . S
H5687 C5671 0.961 . S
H5688 C5672 0.931 . S
H5689 C5677 0.930 . S
H5690 C5678 0.956 . S
H5691 C5678 0.961 . S
H5692 C5678 0.961 . S
H5693 C5679 0.958 . S
H5694 C5679 0.961 . S
H5695 C5679 0.960 . S
C5696 C5697 1.391 . S
C5696 C5698 1.394 . S
C5696 H5712 0.931 . S
C5697 C5696 1.391 . S
C5697 C5701 1.376 . S
C5698 C5696 1.394 . S
C5698 C5699 1.369 . S
C5698 C5702 1.531 . S
C5699 C5698 1.369 . S
C5699 C5700 1.410 . S
C5699 C5707 1.503 . S
C5700 C5699 1.410 . S
C5700 C5701 1.392 . S
C5700 C5703 1.511 . S
C5701 C5697 1.376 . S
C5701 C5700 1.392 . S
C5701 H5713 0.929 . S
C5702 C5698 1.531 . S
C5702 H5714 0.960 . S
C5702 H5715 0.962 . S
C5702 H5716 0.960 . S
C5703 C5700 1.511 . S
C5703 H5717 0.961 . S
C5703 H5718 0.961 . S
C5703 H5719 0.961 . S
C5704 C5705 1.370 . S
C5704 C5706 1.363 . S
C5704 H5720 0.931 . S
C5705 C5704 1.370 . S
C5705 C5709 1.408 . S
C5706 C5704 1.363 . S
C5706 C5707 1.370 . S
C5706 C5710 1.524 . S
C5707 C5699 1.503 . S
C5707 C5706 1.370 . S
C5707 C5708 1.403 . S
C5708 C5707 1.403 . S
C5708 C5709 1.404 . S
C5708 C5711 1.539 . S
C5709 C5705 1.408 . S
C5709 C5708 1.404 . S
C5709 H5721 0.930 . S
C5710 C5706 1.524 . S
C5710 H5722 0.956 . S
C5710 H5723 0.961 . S
C5710 H5724 0.961 . S
C5711 C5708 1.539 . S
C5711 H5725 0.958 . S
C5711 H5726 0.961 . S
C5711 H5727 0.960 . S
H5712 C5696 0.931 . S
H5713 C5701 0.929 . S
H5714 C5702 0.960 . S
H5715 C5702 0.962 . S
H5716 C5702 0.960 . S
H5717 C5703 0.961 . S
H5718 C5703 0.961 . S
H5719 C5703 0.961 . S
H5720 C5704 0.931 . S
H5721 C5709 0.930 . S
H5722 C5710 0.956 . S
H5723 C5710 0.961 . S
H5724 C5710 0.961 . S
H5725 C5711 0.958 . S
H5726 C5711 0.961 . S
H5727 C5711 0.960 . S
C5728 C5729 1.391 . S
C5728 C5730 1.394 . S
C5728 H5744 0.931 . S
C5729 C5728 1.391 . S
C5729 C5733 1.376 . S
C5730 C5728 1.394 . S
C5730 C5731 1.369 . S
C5730 C5734 1.531 . S
C5731 C5730 1.369 . S
C5731 C5732 1.410 . S
C5731 C5739 1.503 . S
C5732 C5731 1.410 . S
C5732 C5733 1.392 . S
C5732 C5735 1.511 . S
C5733 C5729 1.376 . S
C5733 C5732 1.392 . S
C5733 H5745 0.929 . S
C5734 C5730 1.531 . S
C5734 H5746 0.960 . S
C5734 H5747 0.962 . S
C5734 H5748 0.960 . S
C5735 C5732 1.511 . S
C5735 H5749 0.961 . S
C5735 H5750 0.961 . S
C5735 H5751 0.961 . S
C5736 C5737 1.370 . S
C5736 C5738 1.363 . S
C5736 H5752 0.931 . S
C5737 C5736 1.370 . S
C5737 C5741 1.408 . S
C5738 C5736 1.363 . S
C5738 C5739 1.370 . S
C5738 C5742 1.524 . S
C5739 C5731 1.503 . S
C5739 C5738 1.370 . S
C5739 C5740 1.403 . S
C5740 C5739 1.403 . S
C5740 C5741 1.404 . S
C5740 C5743 1.539 . S
C5741 C5737 1.408 . S
C5741 C5740 1.404 . S
C5741 H5753 0.930 . S
C5742 C5738 1.524 . S
C5742 H5754 0.956 . S
C5742 H5755 0.961 . S
C5742 H5756 0.961 . S
C5743 C5740 1.539 . S
C5743 H5757 0.958 . S
C5743 H5758 0.961 . S
C5743 H5759 0.960 . S
H5744 C5728 0.931 . S
H5745 C5733 0.929 . S
H5746 C5734 0.960 . S
H5747 C5734 0.962 . S
H5748 C5734 0.960 . S
H5749 C5735 0.961 . S
H5750 C5735 0.961 . S
H5751 C5735 0.961 . S
H5752 C5736 0.931 . S
H5753 C5741 0.930 . S
H5754 C5742 0.956 . S
H5755 C5742 0.961 . S
H5756 C5742 0.961 . S
H5757 C5743 0.958 . S
H5758 C5743 0.961 . S
H5759 C5743 0.960 . S
C1153 C491 1.388 . S
C1161 N533 1.539 . S
C1185 C271 1.651 . S
C1193 N546 1.647 . S
C1225 N559 1.577 . S
C1217 C513 1.573 . S
C1249 C293 1.540 . S
C1257 N572 1.582 . S
C1281 C524 1.617 . S
C1289 N585 1.641 . S
C1313 C260 1.450 . S
C1321 N598 1.528 . S
C1345 C502 1.600 . S
C1353 N611 1.642 . S
C1377 C282 1.511 . S
C1385 N624 1.566 . S
C1409 C183 1.707 . S
C1417 N633 1.741 . S
C1441 C447 1.721 . S
C1449 N650 1.801 . S
C1473 C205 1.475 . S
C1481 N663 1.479 . S
C1505 C436 1.402 . S
C1513 N676 1.468 . S
C1537 C249 1.473 . S
C1545 N685 1.558 . S
C1577 N702 1.340 . S
C1569 C458 1.317 . S
C1609 N715 1.605 . S
C1601 C227 1.576 . S
C1633 C315 1.631 . S
C1641 N728 1.635 . S
C1673 N741 1.327 . S
C1665 C216 1.302 . S
C1705 N754 1.612 . S
C1697 C469 1.609 . S
C1729 C238 1.526 . S
C1737 N767 1.522 . S
C1761 C326 1.461 . S
C1769 N780 1.476 . S
C1801 N789 1.679 . S
C1793 C304 1.647 . S
C1825 C392 1.519 . S
C1833 N802 1.529 . S
C1865 N819 1.446 . S
C1857 C106 1.364 . S
C1897 N832 1.613 . S
C1889 C414 1.581 . S
C1929 N841 1.678 . S
C1921 C128 1.657 . S
C1961 N854 1.676 . S
C1953 C425 1.642 . S
C1985 C95 1.558 . S
C1993 N867 1.541 . S
C2025 N884 1.428 . S
C2017 C403 1.402 . S
C2049 C117 1.430 . S
C2057 N897 1.470 . S
C2089 N910 1.498 . S
C2081 C18 1.458 . S
C2121 N923 1.497 . S
C2113 C348 1.473 . S
C2145 C40 1.731 . S
C2153 N936 1.769 . S
C2185 N949 1.598 . S
C2177 C337 1.588 . S
C2217 N962 1.663 . S
C2209 C84 1.538 . S
C2241 C359 1.769 . S
C2249 N975 1.798 . S
C2281 N988 1.763 . S
C2273 C62 1.748 . S
C2313 N1001 1.372 . S
C2305 C150 1.224 . S
C2337 C51 1.814 . S
C2345 N1014 1.830 . S
C2377 N1027 1.765 . S
C2369 C370 1.728 . S
C2401 C73 1.330 . S
C2409 N1040 1.399 . S
C2441 N1053 1.749 . S
C2433 C161 1.712 . S
C2465 C139 1.491 . S
C2473 N1066 1.532 . S
C2497 C194 1.667 . S
C2505 N1079 1.745 . S
C2537 N1092 1.474 . S
C2529 C172 1.403 . S
C2561 C480 1.476 . S
C2569 N1101 1.556 . S
C2593 C29 1.497 . S
C2601 N1118 1.497 . S
C2633 N1131 1.576 . S
C2625 C7 1.540 . S
C2665 N1144 1.716 . S
C2657 C381 1.600 . S
C2689 C368 1.519 . S
C2697 N529 1.648 . S
C2721 C151 1.538 . S
C2729 N542 1.545 . S
C2753 C379 1.218 . S
C2761 N556 1.595 . S
C2793 N569 1.784 . S
C2785 C360 1.778 . S
C2817 C159 1.826 . S
C2825 N581 1.893 . S
C2849 C338 1.536 . S
C2857 N595 1.547 . S
C2889 N608 1.574 . S
C2881 C140 1.574 . S
C2913 C346 1.464 . S
C2921 N620 1.605 . S
C2945 C349 1.652 . S
C2953 N634 1.644 . S
C2985 N647 1.776 . S
C2977 C162 1.776 . S
C3009 C335 1.386 . S
C3017 N659 1.475 . S
C3049 N673 1.697 . S
C3041 C137 1.617 . S
C3073 C148 1.082 1_455 S
C3081 N686 1.530 . S
C3105 C382 1.597 . S
C3113 N698 1.683 . S
C3145 N711 1.789 . S
C3137 C357 1.677 . S
C3177 N725 1.698 . S
C3169 C371 1.708 . S
C3201 C129 1.525 . S
C3209 N672 1.544 . S
C3233 C393 1.373 . S
C3241 N738 1.371 . S
C3265 C401 1.387 . S
C3273 N751 1.564 . S
C3305 N763 1.475 . S
C3297 C412 1.376 . S
C3337 N689 1.501 . S
C3329 C126 1.253 . S
C3361 C107 1.599 . S
C3369 N646 1.603 . S
C3393 C415 1.442 . S
C3401 N777 1.451 . S
C3433 N793 1.414 . S
C3425 C390 1.326 . S
C3465 N803 1.457 . S
C3457 C467 1.327 . S
C3489 C316 1.522 . S
C3497 N816 1.517 . S
C3529 N828 1.785 . S
C3521 C478 1.424 . S
C3561 N845 1.482 . S
C3553 C459 1.432 . S
C3585 C324 1.327 . S
C3593 N855 1.435 . S
C3617 C434 1.295 . S
C3625 N871 1.682 . S
C3649 C305 1.577 . S
C3657 N880 1.577 . S
C3689 N894 1.597 . S
C3681 C448 1.602 . S
C3721 N906 1.527 . S
C3713 C445 1.377 . S
C3745 C327 1.614 . S
C3753 N920 1.602 . S
C3785 N933 1.651 . S
C3777 C437 1.591 . S
C3809 C302 1.400 . S
C3817 N946 1.538 . S
C3849 N958 1.552 . S
C3841 C313 1.350 . S
C3873 C481 1.542 . S
C3881 N971 1.552 . S
C3913 N985 1.610 . S
C3905 C456 1.223 . S
C3937 C470 1.525 . S
C3945 N998 1.516 . S
C3969 C294 1.546 . S
C3977 N945 1.555 . S
C4001 C492 1.522 . S
C4009 N1011 1.574 . S
C4033 C500 1.294 . S
C4041 N1023 1.499 . S
C4073 N1036 1.344 . S
C4065 C514 1.342 . S
C4097 C291 1.226 . S
C4105 N959 1.565 . S
C4129 C272 1.523 . S
C4137 N919 1.500 . S
C4169 N1049 1.424 . S
C4161 C511 1.206 . S
C4193 C489 1.285 . S
C4201 N1063 1.663 . S
C4233 N594 1.615 . S
C4225 C60 1.495 . S
C4265 N607 1.578 . S
C4257 C74 1.533 . S
C4297 N621 1.595 . S
C4289 C82 1.203 1_554 S
C4329 N582 1.828 . S
C4321 C52 1.859 . S
C4361 N568 1.764 . S
C4353 C38 1.708 . S
C4385 C8 1.521 . S
C4393 N530 1.519 . S
C4417 C19 1.560 . S
C4425 N543 1.570 . S
C4449 C27 1.532 . S
C4457 N555 1.585 . S
C4481 C30 1.607 . S
C4489 N790 1.619 . S
C4513 C41 1.694 . S
C4521 N1076 1.688 . S
C4545 C5 1.307 . S
C4553 N776 1.405 . S
C4577 C16 1.621 . S
C4585 N1089 1.685 . S
C4609 C71 1.227 . S
C4617 N1102 1.527 . S
C4649 N737 1.587 . S
C4641 C85 1.544 . S
C4673 C49 1.689 . S
C4681 N750 1.738 . S
C4705 C63 1.646 . S
C4713 N764 1.639 . S
C4745 N1088 1.526 . S
C4737 C426 1.505 . S
C4769 C96 1.447 . S
C4777 N699 1.445 . S
C4801 C104 1.357 . S
C4809 N712 1.585 . S
C4833 C115 1.350 . S
C4841 N724 1.580 . S
C4873 N1105 1.468 . S
C4865 C423 1.297 . S
C4905 N1075 1.480 . S
C4897 C404 1.460 . S
C4937 N660 1.467 . S
C4929 C118 1.471 . S
C4961 C93 1.307 . S
C4969 N637 1.498 . S
C4993 C225 1.325 . S
C5001 N868 1.465 . S
C5025 C239 1.458 . S
C5033 N881 1.464 . S
C5057 C247 1.406 . S
C5065 N893 1.699 . S
C5089 C217 1.442 . S
C5097 N858 1.493 . S
C5129 N842 1.444 . S
C5121 C203 1.306 1_554 S
C5161 N806 1.653 . S
C5153 C170 1.183 . S
C5193 N815 1.581 . S
C5185 C184 1.577 . S
C5217 C195 1.628 . S
C5225 N829 1.639 . S
C5257 N1062 1.521 . S
C5249 C192 1.257 . S
C5281 C206 1.643 . S
C5289 N1115 1.610 . S
C5313 C173 1.545 . S
C5321 N1050 1.607 . S
C5353 N1128 1.617 . S
C5345 C181 1.481 . S
C5377 C236 1.190 . S
C5385 N1140 1.425 . S
C5417 N1010 1.533 . S
C5409 C250 1.474 . S
C5441 C214 1.301 1_455 S
C5449 N1024 1.586 . S
C5473 C228 1.519 . S
C5481 N1037 1.529 . S
C5505 C522 1.421 . S
C5513 N1127 1.604 . S
C5545 N972 1.526 . S
C5537 C261 1.497 . S
C5569 C269 1.360 . S
C5577 N984 1.513 . S
C5601 C283 1.310 . S
C5609 N997 1.323 . S
C5633 C525 1.480 . S
C5641 N1141 1.487 . S
C5665 C503 1.505 . S
C5673 N1114 1.482 . S
C5705 N932 1.440 . S
C5697 C280 1.224 . S
C5737 N907 1.643 . S
C5729 C258 1.196 . S
