# Generated by pormake.
# Topology anh, (6,3)-cn, num edge types: 1
# Building blocks:
#     Node 0, Type 0, BuildingBlock: BETFAJ_clean_sbu_0, # of connection points: 6
#     Node 1, Type 0, BuildingBlock: BETFAJ_clean_sbu_0, # of connection points: 6
#     Node 2, Type 0, BuildingBlock: BETFAJ_clean_sbu_0, # of connection points: 6
#     Node 3, Type 1, BuildingBlock: VETTIZ_charged_linker_0, # of connection points: 3
#     Node 4, Type 1, BuildingBlock: VETTIZ_charged_linker_0, # of connection points: 3
#     Node 5, Type 1, BuildingBlock: VETTIZ_charged_linker_0, # of connection points: 3
#     Node 6, Type 1, BuildingBlock: VETTIZ_charged_linker_0, # of connection points: 3
#     Node 7, Type 1, BuildingBlock: VETTIZ_charged_linker_0, # of connection points: 3
#     Node 8, Type 1, BuildingBlock: VETTIZ_charged_linker_0, # of connection points: 3
#     Edge 9, Type (0, 1), BuildingBlock: OJICUG_clean_linker_0, # of connection points: 2
#     Edge 10, Type (0, 1), BuildingBlock: OJICUG_clean_linker_0, # of connection points: 2
#     Edge 11, Type (0, 1), BuildingBlock: OJICUG_clean_linker_0, # of connection points: 2
#     Edge 12, Type (0, 1), BuildingBlock: OJICUG_clean_linker_0, # of connection points: 2
#     Edge 13, Type (0, 1), BuildingBlock: OJICUG_clean_linker_0, # of connection points: 2
#     Edge 14, Type (0, 1), BuildingBlock: OJICUG_clean_linker_0, # of connection points: 2
#     Edge 15, Type (0, 1), BuildingBlock: OJICUG_clean_linker_0, # of connection points: 2
#     Edge 16, Type (0, 1), BuildingBlock: OJICUG_clean_linker_0, # of connection points: 2
#     Edge 17, Type (0, 1), BuildingBlock: OJICUG_clean_linker_0, # of connection points: 2
#     Edge 18, Type (0, 1), BuildingBlock: OJICUG_clean_linker_0, # of connection points: 2
#     Edge 19, Type (0, 1), BuildingBlock: OJICUG_clean_linker_0, # of connection points: 2
#     Edge 20, Type (0, 1), BuildingBlock: OJICUG_clean_linker_0, # of connection points: 2
#     Edge 21, Type (0, 1), BuildingBlock: OJICUG_clean_linker_0, # of connection points: 2
#     Edge 22, Type (0, 1), BuildingBlock: OJICUG_clean_linker_0, # of connection points: 2
#     Edge 23, Type (0, 1), BuildingBlock: OJICUG_clean_linker_0, # of connection points: 2
#     Edge 24, Type (0, 1), BuildingBlock: OJICUG_clean_linker_0, # of connection points: 2
#     Edge 25, Type (0, 1), BuildingBlock: OJICUG_clean_linker_0, # of connection points: 2
#     Edge 26, Type (0, 1), BuildingBlock: OJICUG_clean_linker_0, # of connection points: 2
# Relax obj value: 0.218
# Max RMSD: 0.227
# Mean RMSD: 0.168
data_MOF--net-anh--node1-BETFAJ_clean_sbu_0--node2-VETTIZ_charged_linker_0--edge1-OJICUG_clean_linker_0
_symmetry_space_group_name_H-M    P1
_symmetry_Int_Tables_number       1
_symmetry_cell_setting            triclinic
loop_
_symmetry_equiv_pos_as_xyz
'x, y, z'
_cell_length_a     28.004916
_cell_length_b     35.209832
_cell_length_c     52.724117
_cell_angle_alpha  91.962201
_cell_angle_beta   89.3031
_cell_angle_gamma 130.9962
loop_
_atom_site_label
_atom_site_type_symbol
_atom_site_fract_x
_atom_site_fract_y
_atom_site_fract_z
_atom_type_partial_charge
Sm0 Sm 0.16446 0.52028 0.1351 0.0
Sm1 Sm 1.07089 0.52971 0.15399 0.0
C2 C 0.26162 0.5367 0.11386 0.0
C3 C 0.32754 0.57175 0.12281 0.0
C4 C 0.37663 0.5875 0.10637 0.0
C5 C 0.43839 0.6166 0.11584 0.0
C6 C 0.45147 0.62976 0.14191 0.0
C7 C 0.40279 0.61669 0.15799 0.0
C8 C 0.34131 0.58831 0.14844 0.0
C9 C 0.15512 0.52084 0.18702 0.0
C10 C 0.21184 0.635 0.14669 0.0
C11 C 0.97936 0.51301 0.18127 0.0
C12 C 0.91239 0.46749 0.18393 0.0
C13 C 0.89375 0.41933 0.18304 0.0
C14 C 0.83028 0.37634 0.17898 0.0
C15 C 0.78459 0.38095 0.17654 0.0
C16 C 0.8024 0.42856 0.18021 0.0
C17 C 0.86597 0.4716 0.18368 0.0
C18 C 1.08489 0.53467 0.10238 0.0
C19 C 1.02231 0.4154 0.1395 0.0
O20 O 0.23966 0.55756 0.10601 0.0
O21 O 0.22242 0.49888 0.12858 0.0
O22 O 0.15597 0.54848 0.17229 0.0
O23 O 0.16317 0.49306 0.17465 0.0
O24 O 0.22141 0.60695 0.13454 0.0
O25 O 0.15841 0.61386 0.1588 0.0
O26 O 1.02094 0.51118 0.19053 0.0
O27 O 0.99487 0.53321 0.15895 0.0
O28 O 1.08175 0.50436 0.11599 0.0
O29 O 1.07545 0.5611 0.1156 0.0
O30 O 1.01271 0.44317 0.15183 0.0
O31 O 1.07643 0.43656 0.12804 0.0
H32 H 0.36681 0.57551 0.08651 0.0
H33 H 0.47498 0.62547 0.10313 0.0
H34 H 0.41169 0.62608 0.17814 0.0
H35 H 0.3039 0.5772 0.16132 0.0
H36 H 0.92845 0.41495 0.18388 0.0
H37 H 0.81744 0.34001 0.17612 0.0
H38 H 0.76792 0.43304 0.17798 0.0
H39 H 0.87924 0.50827 0.18439 0.0
Sm40 Sm 0.6835 0.05333 0.4793 0.0
Sm41 Sm 0.59904 0.07434 0.46523 0.0
C42 C 0.73628 0.02012 0.4991 0.0
C43 C 0.72052 0.97165 0.5033 0.0
C44 C 0.71357 0.95597 0.52819 0.0
C45 C 0.69924 0.91066 0.53278 0.0
C46 C 0.69193 0.88002 0.51256 0.0
C47 C 0.69948 0.89587 0.48761 0.0
C48 C 0.71344 0.94118 0.483 0.0
C49 C 0.67215 0.05846 0.42816 0.0
C50 C 0.52973 0.95764 0.4708 0.0
C51 C 0.54563 0.10625 0.44438 0.0
C52 C 0.55296 0.15161 0.44644 0.0
C53 C 0.60852 0.19701 0.45671 0.0
C54 C 0.61341 0.23899 0.46026 0.0
C55 C 0.56238 0.23604 0.45395 0.0
C56 C 0.50723 0.19072 0.44318 0.0
C57 C 0.50267 0.1489 0.4394 0.0
C58 C 0.60973 0.07038 0.51654 0.0
C59 C 0.75421 0.17026 0.47343 0.0
O60 O 0.70519 0.02948 0.51252 0.0
O61 O 0.74544 0.03486 0.47576 0.0
O62 O 0.62734 0.03593 0.44362 0.0
O63 O 0.72551 0.07849 0.43924 0.0
O64 O 0.5822 0.97482 0.48278 0.0
O65 O 0.52746 0.98857 0.4586 0.0
O66 O 0.59231 0.11149 0.43402 0.0
O67 O 0.52347 0.0787 0.46444 0.0
O68 O 0.6546 0.09125 0.50111 0.0
O69 O 0.55788 0.05375 0.50537 0.0
O70 O 0.69998 0.1532 0.46324 0.0
O71 O 0.75905 0.13946 0.48405 0.0
H72 H 0.71946 0.97894 0.54419 0.0
H73 H 0.69484 0.89997 0.55225 0.0
H74 H 0.69385 0.87296 0.47165 0.0
H75 H 0.71865 0.95224 0.46355 0.0
H76 H 0.64739 0.19952 0.46262 0.0
H77 H 0.65607 0.27305 0.469 0.0
H78 H 0.46723 0.18738 0.43807 0.0
H79 H 0.45932 0.11407 0.43153 0.0
Sm80 Sm 0.64622 0.5588 0.81676 0.0
Sm81 Sm 0.55728 0.44942 0.83084 0.0
C82 C 0.70031 0.64579 0.7956 0.0
C83 C 0.68822 0.68029 0.79181 0.0
C84 C 0.68807 0.69362 0.76708 0.0
C85 C 0.67702 0.72621 0.76277 0.0
C86 C 0.66615 0.7465 0.78312 0.0
C87 C 0.66679 0.73349 0.80796 0.0
C88 C 0.67741 0.70046 0.81227 0.0
C89 C 0.6441 0.54394 0.86737 0.0
C90 C 0.49248 0.50017 0.82836 0.0
C91 C 0.50816 0.36228 0.85037 0.0
C92 C 0.52413 0.33019 0.84626 0.0
C93 C 0.50287 0.2916 0.86277 0.0
C94 C 0.51933 0.26187 0.85872 0.0
C95 C 0.55755 0.27047 0.83811 0.0
C96 C 0.57878 0.30949 0.82174 0.0
C97 C 0.56245 0.33906 0.82582 0.0
C98 C 0.56404 0.46408 0.77974 0.0
C99 C 0.71194 0.50901 0.82116 0.0
O100 O 0.66332 0.60241 0.78308 0.0
O101 O 0.71376 0.64237 0.81864 0.0
O102 O 0.59588 0.51974 0.85305 0.0
O103 O 0.69515 0.57961 0.85555 0.0
O104 O 0.54668 0.53822 0.81768 0.0
O105 O 0.48665 0.46281 0.83787 0.0
O106 O 0.55181 0.40573 0.862 0.0
O107 O 0.4834 0.36604 0.83078 0.0
O108 O 0.61028 0.48857 0.79503 0.0
O109 O 0.51206 0.42814 0.79094 0.0
O110 O 0.65668 0.47081 0.831 0.0
O111 O 0.71912 0.54689 0.81152 0.0
H112 H 0.69668 0.67885 0.75103 0.0
H113 H 0.67786 0.7361 0.74344 0.0
H114 H 0.65824 0.74831 0.824 0.0
H115 H 0.67706 0.69074 0.83158 0.0
H116 H 0.47367 0.28452 0.87878 0.0
H117 H 0.50256 0.23246 0.87181 0.0
H118 H 0.6071 0.31669 0.80537 0.0
H119 H 0.57951 0.36878 0.81287 0.0
C120 C 0.77452 0.16305 0.15326 0.0
C121 C 0.83019 0.20827 0.16442 0.0
C122 C 0.84233 0.20977 0.19036 0.0
C123 C 0.7432 0.1245 0.19449 0.0
C124 C 0.73196 0.12106 0.1687 0.0
C125 C 0.6716 0.06834 0.16083 0.0
H126 H 0.40155 0.83957 0.2019 0.0
C127 C 0.6885 0.07736 0.20599 0.0
C128 C 0.64543 0.04357 0.18652 0.0
H129 H 0.4616 0.87494 0.12418 0.0
H130 H 0.55465 0.96067 0.13777 0.0
H131 H 0.53533 0.88806 0.22439 0.0
H132 H 0.43343 0.9396 0.21809 0.0
H133 H 0.47984 0.97011 0.24577 0.0
H134 H 0.42046 0.90212 0.24392 0.0
H135 H 0.4643 0.86256 0.24129 0.0
H136 H 0.54077 0.9154 0.25395 0.0
C137 C 0.69057 0.04299 0.14446 0.0
C138 C 0.62658 0.07177 0.14689 0.0
C139 C 0.68031 0.06779 0.30232 0.0
C140 C 0.63136 0.03407 0.31926 0.0
C141 C 0.57092 0.99342 0.30895 0.0
C142 C 0.56038 0.98515 0.2827 0.0
C143 C 0.61019 0.01829 0.2662 0.0
C144 C 0.6682 0.05975 0.27609 0.0
C145 C 0.71311 0.09416 0.25569 0.0
C146 C 0.67307 0.06513 0.23188 0.0
C147 C 0.61369 0.02016 0.23821 0.0
C148 C 0.77128 0.0978 0.25678 0.0
C149 C 0.72878 0.1453 0.25974 0.0
C150 C 0.43413 0.86568 0.18763 0.0
C151 C 0.42359 0.85028 0.16195 0.0
C152 C 0.46853 0.88562 0.14417 0.0
C153 C 0.52269 0.93522 0.15209 0.0
C154 C 0.533 0.94938 0.17813 0.0
C155 C 0.48856 0.91428 0.19523 0.0
C156 C 0.50683 0.93327 0.2222 0.0
C157 C 0.57077 0.98497 0.21889 0.0
C158 C 0.58635 0.99556 0.19304 0.0
C159 C 0.51188 0.89811 0.23642 0.0
C160 C 0.45765 0.93624 0.23327 0.0
H161 H 0.81158 0.17282 0.22504 0.0
H162 H 0.76463 0.16063 0.13321 0.0
H163 H 0.61925 0.09452 0.15849 0.0
H164 H 0.57956 0.03435 0.14327 0.0
H165 H 0.64646 0.08993 0.12837 0.0
H166 H 0.73222 0.05035 0.15298 0.0
H167 H 0.70337 0.05787 0.12502 0.0
H168 H 0.65292 1.00171 0.14306 0.0
H169 H 0.72739 0.09977 0.30907 0.0
H170 H 0.53101 0.96783 0.32106 0.0
H171 H 0.51366 0.95304 0.2763 0.0
H172 H 0.75636 0.06042 0.26046 0.0
H173 H 0.80467 0.12448 0.27223 0.0
H174 H 0.79708 0.10923 0.23869 0.0
H175 H 0.69291 0.14168 0.2716 0.0
H176 H 0.72832 0.1604 0.24176 0.0
H177 H 0.77541 0.17393 0.26937 0.0
H178 H 0.88467 0.24384 0.1993 0.0
C179 C 0.79943 0.1685 0.20536 0.0
C180 C 0.648 0.6697 0.52653 0.0
C181 C 0.65313 0.70523 0.54251 0.0
C182 C 0.65349 0.70145 0.56901 0.0
C183 C 0.6396 0.62629 0.56349 0.0
C184 C 0.64091 0.63035 0.53745 0.0
C185 C 0.63272 0.58803 0.52366 0.0
H186 H 0.56405 0.36396 0.53107 0.0
C187 C 0.6282 0.58018 0.56897 0.0
C188 C 0.62368 0.55713 0.54574 0.0
H189 H 0.60842 0.4469 0.46346 0.0
H190 H 0.62392 0.51355 0.48875 0.0
H191 H 0.67766 0.45946 0.56389 0.0
H192 H 0.47974 0.38242 0.5574 0.0
H193 H 0.49993 0.4008 0.58953 0.0
H194 H 0.50815 0.35806 0.57519 0.0
H195 H 0.61699 0.39877 0.57674 0.0
H196 H 0.65131 0.45613 0.59477 0.0
C197 C 0.6942 0.61092 0.50909 0.0
C198 C 0.57296 0.55859 0.5065 0.0
C199 C 0.60532 0.53023 0.66059 0.0
C200 C 0.58739 0.48675 0.67149 0.0
C201 C 0.5741 0.44771 0.6557 0.0
C202 C 0.57903 0.45201 0.62932 0.0
C203 C 0.59673 0.49561 0.61857 0.0
C204 C 0.60896 0.53357 0.63414 0.0
C205 C 0.62318 0.5756 0.61927 0.0
C206 C 0.61911 0.55715 0.59223 0.0
C207 C 0.60417 0.51062 0.59202 0.0
C208 C 0.69117 0.62443 0.62639 0.0
C209 C 0.57083 0.57829 0.62484 0.0
C210 C 0.57639 0.39623 0.52167 0.0
C211 C 0.58393 0.40001 0.49531 0.0
C212 C 0.60192 0.44322 0.48379 0.0
C213 C 0.61088 0.4817 0.49849 0.0
C214 C 0.60268 0.47709 0.52496 0.0
C215 C 0.58659 0.43505 0.53603 0.0
C216 C 0.58323 0.43706 0.56436 0.0
C217 C 0.59936 0.48706 0.56869 0.0
C218 C 0.61001 0.51037 0.54562 0.0
C219 C 0.63448 0.43755 0.57574 0.0
C220 C 0.5145 0.39222 0.57225 0.0
H221 H 0.64722 0.66177 0.59982 0.0
H222 H 0.64793 0.67179 0.50609 0.0
H223 H 0.53315 0.55127 0.51708 0.0
H224 H 0.55587 0.52138 0.49997 0.0
H225 H 0.5819 0.58034 0.48959 0.0
H226 H 0.73646 0.64356 0.51999 0.0
H227 H 0.69405 0.62444 0.49038 0.0
H228 H 0.70216 0.58425 0.50624 0.0
H229 H 0.61468 0.56036 0.67237 0.0
H230 H 0.56029 0.41395 0.66384 0.0
H231 H 0.5685 0.42104 0.61834 0.0
H232 H 0.72336 0.61643 0.62827 0.0
H233 H 0.69201 0.64118 0.6448 0.0
H234 H 0.71271 0.65309 0.61177 0.0
H235 H 0.52612 0.54145 0.63085 0.0
H236 H 0.55698 0.58688 0.60787 0.0
H237 H 0.58571 0.60658 0.64024 0.0
H238 H 0.659 0.72897 0.58174 0.0
C239 C 0.64688 0.66242 0.57953 0.0
C240 C 0.24625 0.50793 0.83415 0.0
C241 C 0.28966 0.50756 0.84831 0.0
C242 C 0.28911 0.51172 0.87486 0.0
C243 C 0.20487 0.515 0.87353 0.0
C244 C 0.2036 0.51142 0.84732 0.0
C245 C 0.15217 0.51162 0.83698 0.0
H246 H 0.9078 0.51142 0.87208 0.0
C247 C 0.15598 0.51713 0.88247 0.0
C248 C 0.12328 0.51496 0.86131 0.0
H249 H 0.95761 0.51154 0.79456 0.0
H250 H 1.04331 0.51346 0.80931 0.0
H251 H 0.91652 0.43551 0.89196 0.0
H252 H 1.04368 0.59613 0.88999 0.0
H253 H 1.06143 0.58501 0.919 0.0
H254 H 0.98262 0.56171 0.9131 0.0
H255 H 0.91074 0.47325 0.91314 0.0
H256 H 0.95664 0.456 0.92121 0.0
C257 C 1.10233 0.46251 0.8216 0.0
C258 C 0.18358 0.55808 0.82086 0.0
C259 C 0.13494 0.52948 0.97829 0.0
C260 C 1.09455 0.5319 -0.00705 0.0
C261 C 1.04857 0.52968 0.98052 0.0
C262 C 1.04309 0.52566 0.95411 0.0
C263 C 1.08413 0.52395 0.93955 0.0
C264 C 0.12897 0.52577 0.95166 0.0
C265 C 0.16806 0.52328 0.93302 0.0
C266 C 0.13952 0.5201 0.90768 0.0
C267 C 1.09051 0.52043 0.91177 0.0
C268 C 0.15648 0.47452 0.93789 0.0
C269 C 0.23781 0.57302 0.93634 0.0
C270 C 0.93637 0.51154 0.85796 0.0
C271 C 0.92448 0.51071 0.8322 0.0
C272 C 0.96492 0.51207 0.81473 0.0
C273 C 1.01448 0.51301 0.82323 0.0
C274 C 1.02489 0.51349 0.84953 0.0
C275 C 0.98563 0.51343 0.86597 0.0
C276 C 1.00204 0.51676 0.89306 0.0
C277 C 1.05671 0.5178 0.89104 0.0
C278 C 1.07186 0.5155 0.86558 0.0
C279 C 0.94367 0.46825 0.90572 0.0
C280 C 1.02314 0.56714 0.90461 0.0
H281 H 0.25167 0.51849 0.90753 0.0
H282 H 0.24486 0.50474 0.81364 0.0
H283 H 0.22104 0.59304 0.83207 0.0
H284 H 0.14872 0.5611 0.81446 0.0
H285 H 0.20569 0.55607 0.80382 0.0
H286 H 1.08166 0.4294 0.83339 0.0
H287 H 0.12392 0.4597 0.80463 0.0
H288 H 1.06329 0.46057 0.81512 0.0
H289 H 0.17083 0.53108 0.98727 0.0
H290 H 1.01593 0.53034 0.99131 0.0
H291 H 1.0066 0.52385 0.94622 0.0
H292 H 0.10894 0.445 0.94605 0.0
H293 H 0.19208 0.48195 0.95141 0.0
H294 H 0.15635 0.45651 0.92025 0.0
H295 H 0.2404 0.60514 0.94183 0.0
H296 H 0.26496 0.5846 0.91859 0.0
H297 H 0.26269 0.57019 0.95137 0.0
H298 H 0.3212 0.51196 0.88633 0.0
C299 C 0.24803 0.51551 0.88729 0.0
C300 C 1.0161 0.41952 0.46 0.0
C301 C 0.97297 0.37082 0.44837 0.0
C302 C 0.97805 0.36438 0.42237 0.0
C303 C 1.06479 0.45388 0.41906 0.0
C304 C 1.06223 0.46078 0.44486 0.0
C305 C 0.1132 0.51587 0.45311 0.0
H306 H 0.34293 0.75889 0.41475 0.0
C307 C 0.1142 0.50335 0.40807 0.0
C308 C 0.1436 0.54054 0.42777 0.0
H309 H 0.29419 0.71279 0.49223 0.0
H310 H 0.21528 0.6247 0.47745 0.0
H311 H 0.34867 0.67678 0.39748 0.0
H312 H 0.20436 0.68667 0.39209 0.0
H313 H 0.20088 0.65849 0.36329 0.0
H314 H 0.27254 0.72112 0.3722 0.0
H315 H 0.35151 0.71507 0.37483 0.0
H316 H 0.31257 0.64998 0.36764 0.0
C317 C 0.16001 0.52045 0.47104 0.0
C318 C 1.08143 0.53462 0.46545 0.0
C319 C 0.13719 0.51172 0.31219 0.0
C320 C 0.17453 0.55205 0.29578 0.0
C321 C 0.2176 0.60158 0.30614 0.0
C322 C 0.22302 0.61083 0.33242 0.0
C323 C 0.18479 0.57017 0.34863 0.0
C324 C 0.14292 0.52169 0.33842 0.0
C325 C 0.10494 0.48333 0.35843 0.0
C326 C 0.1313 0.51681 0.38242 0.0
C327 C 0.17791 0.56742 0.37653 0.0
C328 C 0.12044 0.44829 0.3574 0.0
C329 C 1.03424 0.45634 0.35366 0.0
C330 C 0.31505 0.72999 0.42862 0.0
C331 C 0.32412 0.74282 0.45459 0.0
C332 C 0.28785 0.70378 0.47204 0.0
C333 C 0.24219 0.6528 0.46343 0.0
C334 C 0.23362 0.64078 0.43715 0.0
C335 C 0.27071 0.67955 0.42044 0.0
C336 C 0.25874 0.66142 0.39333 0.0
C337 C 0.20836 0.60522 0.39613 0.0
C338 C 0.19238 0.59245 0.42177 0.0
C339 C 0.3209 0.67671 0.38252 0.0
C340 C 0.23321 0.68311 0.37927 0.0
H341 H 1.02376 0.39741 0.38799 0.0
H342 H 1.01333 0.42526 0.48008 0.0
H343 H 1.04245 0.5245 0.45305 0.0
H344 H 0.11462 0.57588 0.46843 0.0
H345 H 1.06106 0.51722 0.48408 0.0
H346 H 0.17173 0.49761 0.4634 0.0
H347 H 0.13928 0.50669 0.49013 0.0
H348 H 0.20549 0.55935 0.47313 0.0
H349 H 1.10308 0.47328 0.30478 0.0
H350 H 0.2474 0.63325 0.29387 0.0
H351 H 0.2566 0.6494 0.33902 0.0
H352 H 0.1695 0.46854 0.35076 0.0
H353 H 1.08781 0.41538 0.3442 0.0
H354 H 0.11914 0.43485 0.37628 0.0
H355 H 1.02916 0.48241 0.34569 0.0
H356 H 1.0062 0.44326 0.37118 0.0
H357 H 1.01175 0.42391 0.33996 0.0
H358 H 0.94558 0.32729 0.41318 0.0
C359 C 1.0235 0.40533 0.40775 0.0
C360 C 0.63816 0.92106 0.77025 0.0
C361 C 0.64448 0.8916 0.7543 0.0
C362 C 0.6521 0.89994 0.72806 0.0
C363 C 0.64391 0.96391 0.73358 0.0
C364 C 0.63778 0.9569 0.75944 0.0
C365 C 0.62968 0.99079 0.7731 0.0
H366 H 0.61488 0.17582 0.76522 0.0
C367 C 0.63997 1.00255 0.72804 0.0
C368 C 0.63186 0.01888 0.75111 0.0
H369 H 0.59765 0.10235 0.83289 0.0
H370 H 0.61003 0.0498 0.8079 0.0
H371 H 0.72626 0.18375 0.73772 0.0
H372 H 0.52332 0.07927 0.73377 0.0
H373 H 0.54702 0.07631 0.70339 0.0
H374 H 0.56978 0.1349 0.71552 0.0
H375 H 0.68031 0.19757 0.72476 0.0
H376 H 0.70343 0.16897 0.70545 0.0
C377 C 0.6862 0.02645 0.79169 0.0
C378 C 0.56445 0.95733 0.78605 0.0
C379 C 0.64525 0.0453 0.63632 0.0
C380 C 0.63652 0.07599 0.62511 0.0
C381 C 0.62993 0.10553 0.64067 0.0
C382 C 0.63126 0.10413 0.66714 0.0
C383 C 0.6382 0.07218 0.67819 0.0
C384 C 0.64515 0.04353 0.66283 0.0
C385 C 0.64854 1.00982 0.67787 0.0
C386 C 0.64196 0.0227 0.70478 0.0
C387 C 0.63655 0.0595 0.70481 0.0
C388 C 0.71439 0.02583 0.67356 0.0
C389 C 0.59157 0.95443 0.66973 0.0
C390 C 0.61466 0.14886 0.77469 0.0
C391 C 0.60656 0.14364 0.80097 0.0
C392 C 0.6044 0.1071 0.81261 0.0
C393 C 0.61161 0.0768 0.79808 0.0
C394 C 0.61986 0.08262 0.77164 0.0
C395 C 0.62048 0.11794 0.76048 0.0
C396 C 0.62522 0.11723 0.73216 0.0
C397 C 0.62967 0.07692 0.72801 0.0
C398 C 0.6269 0.05669 0.75111 0.0
C399 C 0.68673 0.16959 0.7244 0.0
C400 C 0.56358 0.10148 0.72043 0.0
H401 H 0.65764 0.93982 0.69755 0.0
H402 H 0.63231 0.91559 0.79051 0.0
H403 H 0.52825 0.92373 0.77375 0.0
H404 H 0.54598 0.97672 0.7894 0.0
H405 H 0.56657 0.94379 0.80437 0.0
H406 H 0.73126 0.04151 0.7824 0.0
H407 H 0.68083 1.00624 0.80871 0.0
H408 H 0.69243 0.05969 0.79792 0.0
H409 H 0.64949 0.02169 0.62469 0.0
H410 H 0.62332 0.1295 0.63229 0.0
H411 H 0.62596 0.1275 0.67794 0.0
H412 H 0.75128 0.06719 0.67119 0.0
H413 H 0.71422 1.00694 0.65621 0.0
H414 H 0.73121 0.01835 0.6899 0.0
H415 H 0.54964 0.94994 0.66459 0.0
H416 H 0.57483 0.92781 0.68508 0.0
H417 H 0.60313 0.94197 0.65294 0.0
H418 H 0.65857 0.87873 0.71543 0.0
C419 C 0.65193 0.93576 0.71767 0.0
C420 C 0.59997 0.36964 0.13112 0.0
C421 C 0.59907 0.33312 0.11876 0.0
C422 C 0.59135 0.32708 0.09208 0.0
C423 C 0.59957 0.40009 0.09071 0.0
C424 C 0.60182 0.40315 0.11691 0.0
C425 C 0.61542 0.4495 0.12754 0.0
H426 H 0.65234 0.65379 0.10683 0.0
C427 C 0.61331 0.44579 0.08181 0.0
C428 C 0.62337 0.47498 0.10343 0.0
H429 H 0.63683 0.59179 0.17909 0.0
H430 H 0.643 0.53348 0.15778 0.0
H431 H 0.759 0.65028 0.08374 0.0
H432 H 0.55795 0.55892 0.07854 0.0
H433 H 0.58304 0.55936 0.04782 0.0
H434 H 0.61322 0.61784 0.06323 0.0
H435 H 0.72311 0.66313 0.06184 0.0
H436 H 0.73881 0.62212 0.05317 0.0
C437 C 0.67775 0.48116 0.14348 0.0
C438 C 0.55662 0.43235 0.14255 0.0
C439 C 0.62256 0.47712 0.98729 0.0
C440 C 0.63912 0.51866 0.97449 0.0
C441 C 0.65505 0.56037 0.98847 0.0
C442 C 0.65463 0.56107 0.0149 0.0
C443 C 0.63828 0.51966 0.02759 0.0
C444 C 0.62313 0.4787 0.01395 0.0
C445 C 0.61109 0.43985 0.03116 0.0
C446 C 0.61983 0.46391 0.0572 0.0
C447 C 0.6355 0.51049 0.05477 0.0
C448 C 0.66194 0.43553 0.02597 0.0
C449 C 0.54238 0.39008 0.0266 0.0
C450 C 0.65283 0.62937 0.1185 0.0
C451 C 0.64141 0.62643 0.14475 0.0
C452 C 0.64304 0.59376 0.15873 0.0
C453 C 0.64599 0.5595 0.14626 0.0
C454 C 0.64819 0.55839 0.11961 0.0
C455 C 0.65507 0.59477 0.10636 0.0
C456 C 0.6557 0.58769 0.07815 0.0
C457 C 0.64447 0.53932 0.07657 0.0
C458 C 0.63965 0.52214 0.1008 0.0
C459 C 0.72224 0.63312 0.06853 0.0
C460 C 0.60004 0.58089 0.06609 0.0
H461 H 0.58804 0.35526 0.0577 0.0
H462 H 0.60709 0.37658 0.15145 0.0
H463 H 0.51225 0.40041 0.13236 0.0
H464 H 0.55339 0.46184 0.14485 0.0
H465 H 0.55598 0.41948 0.16159 0.0
H466 H 0.71046 0.47587 0.13603 0.0
H467 H 0.6683 0.47022 0.16363 0.0
H468 H 0.70521 0.52214 0.14272 0.0
H469 H 0.61103 0.44496 0.97681 0.0
H470 H 0.66763 0.59252 0.97884 0.0
H471 H 0.66685 0.59388 0.02437 0.0
H472 H 0.70799 0.47265 0.02118 0.0
H473 H 0.64762 0.40875 0.00979 0.0
H474 H 0.67247 0.42397 0.04269 0.0
H475 H 0.50949 0.39749 0.0255 0.0
H476 H 0.52484 0.36369 0.04211 0.0
H477 H 0.53811 0.37093 0.00848 0.0
H478 H 0.58979 0.29895 0.082 0.0
C479 C 0.59128 0.36028 0.07799 0.0
C480 C 0.56905 0.6843 0.14136 0.0
C481 C 0.51103 0.646 0.15258 0.0
H482 H 0.66142 0.7119 0.13244 0.0
C483 C 0.50748 0.61402 0.16922 0.0
H484 H 0.57329 0.71025 0.12894 0.0
C485 C 0.55671 0.6135 0.17043 0.0
C486 C 0.61019 0.64527 0.15507 0.0
H487 H 0.46341 0.58454 0.17841 0.0
H488 H 0.54798 0.58315 0.1804 0.0
C489 C 0.61922 0.68486 0.14326 0.0
C490 C 0.80503 0.25901 0.46332 0.0
C491 C 0.81105 0.22484 0.47184 0.0
H492 H 0.8524 0.33306 0.45014 0.0
C493 C 0.87227 0.24282 0.47688 0.0
H494 H 0.75892 0.24681 0.4593 0.0
C495 C 0.92601 0.29263 0.47168 0.0
C496 C 0.91959 0.32565 0.4618 0.0
H497 H 0.87885 0.21768 0.48341 0.0
H498 H 0.9725 0.30432 0.47378 0.0
C499 C 0.85862 0.30875 0.45838 0.0
C500 C 0.6858 0.8266 0.79241 0.0
C501 C 0.65471 0.7813 0.7781 0.0
H502 H 0.70706 0.89735 0.7961 0.0
C503 C 0.61508 0.77061 0.7578 0.0
H504 H 0.71674 0.83592 0.80815 0.0
C505 C 0.60943 0.80546 0.75102 0.0
C506 C 0.64341 0.85206 0.7643 0.0
H507 H 0.58931 0.73556 0.74678 0.0
H508 H 0.57957 0.79643 0.73489 0.0
C509 C 0.6802 0.86171 0.78556 0.0
C510 C 0.72373 0.33196 0.13782 0.0
C511 C 0.72328 0.34063 0.16395 0.0
H512 H 0.68137 0.32083 0.10199 0.0
C513 C 0.66723 0.32466 0.17502 0.0
H514 H 0.76636 0.3434 0.12893 0.0
C515 C 0.61677 0.30933 0.15954 0.0
C516 C 0.62434 0.31364 0.13301 0.0
H517 H 0.66554 0.33022 0.19524 0.0
H518 H 0.57697 0.3029 0.16837 0.0
C519 C 0.67443 0.31865 0.12231 0.0
C520 C 0.42064 0.88383 0.45463 0.0
C521 C 0.47404 0.90246 0.4694 0.0
H522 H 0.33132 0.81902 0.43885 0.0
C523 C 0.47429 0.86763 0.4817 0.0
H524 H 0.41826 0.90923 0.445 0.0
C525 C 0.42358 0.81548 0.47835 0.0
C526 C 0.37193 0.79716 0.46249 0.0
H527 H 0.51444 0.88055 0.49331 0.0
H528 H 0.42627 0.78953 0.4871 0.0
C529 C 0.37053 0.83201 0.45116 0.0
C530 C 0.52846 0.18565 0.83562 0.0
C531 C 0.57373 0.23817 0.83285 0.0
H532 H 0.50399 0.11429 0.82796 0.0
C533 C 0.63318 0.25923 0.82293 0.0
H534 H 0.48208 0.16806 0.84304 0.0
C535 C 0.6452 0.2284 0.81409 0.0
C536 C 0.59857 0.17589 0.81541 0.0
H537 H 0.66982 0.29955 0.82113 0.0
H538 H 0.69011 0.24547 0.80523 0.0
C539 C 0.5409 0.15478 0.82703 0.0
C540 C 0.63246 0.80044 0.53633 0.0
C541 C 0.6771 0.83206 0.51784 0.0
H542 H 0.58891 0.73506 0.55809 0.0
C543 C 0.70953 0.81879 0.50558 0.0
H544 H 0.60562 0.80894 0.54568 0.0
C545 C 0.6999 0.77622 0.51272 0.0
C546 C 0.65772 0.74627 0.53223 0.0
H547 H 0.74434 0.84251 0.49129 0.0
H548 H 0.72753 0.76809 0.50382 0.0
C549 C 0.62284 0.75808 0.5434 0.0
C550 C 0.75824 0.46902 0.83314 0.0
C551 C 0.76608 0.50831 0.82145 0.0
H552 H 0.80012 0.43865 0.84516 0.0
C553 C 0.82621 0.54646 0.81089 0.0
H554 H 0.71337 0.43861 0.84149 0.0
C555 C 0.87657 0.54592 0.81268 0.0
C556 C 0.86888 0.50736 0.82521 0.0
H557 H 0.83492 0.57747 0.80167 0.0
H558 H 0.92239 0.57695 0.80523 0.0
C559 C 0.80836 0.46878 0.83511 0.0
C560 C 0.25732 0.72153 0.16266 0.0
C561 C 0.264 0.69107 0.1481 0.0
H562 H 0.30151 0.79535 0.17791 0.0
C563 C 0.32219 0.71465 0.13593 0.0
H564 H 0.21337 0.70509 0.1722 0.0
C565 C 0.37298 0.76683 0.13913 0.0
C566 C 0.36709 0.79675 0.15473 0.0
H567 H 0.32924 0.69259 0.12447 0.0
H568 H 0.41778 0.78328 0.13038 0.0
C569 C 0.30805 0.77347 0.16595 0.0
C570 C 0.6193 0.32866 0.45674 0.0
C571 C 0.56466 0.27848 0.46086 0.0
H572 H 0.66765 0.40694 0.464 0.0
C573 C 0.51379 0.26909 0.47374 0.0
H574 H 0.65905 0.33697 0.44671 0.0
C575 C 0.51886 0.30891 0.48363 0.0
C576 C 0.57457 0.35897 0.4806 0.0
H577 H 0.47132 0.23093 0.47744 0.0
H578 H 0.48014 0.30059 0.49458 0.0
C579 C 0.62404 0.36863 0.46639 0.0
C580 C 0.37964 0.45977 0.84135 0.0
C581 C 0.43769 0.5001 0.83043 0.0
H582 H 0.28803 0.42983 0.85461 0.0
C583 C 0.44259 0.54052 0.82224 0.0
H584 H 0.37285 0.42775 0.84793 0.0
C585 C 0.39271 0.54135 0.82584 0.0
C586 C 0.33557 0.50162 0.83757 0.0
H587 H 0.48599 0.57254 0.81375 0.0
H588 H 0.40029 0.57442 0.82064 0.0
C589 C 0.33011 0.46064 0.84491 0.0
C590 C 0.90741 0.33721 0.14116 0.0
C591 C 0.97135 0.3595 0.13985 0.0
H592 H 0.81183 0.27089 0.14897 0.0
C593 C 0.98605 0.32847 0.14205 0.0
H594 H 0.89445 0.35997 0.13923 0.0
C595 C 0.93864 0.27742 0.14771 0.0
C596 C 0.87528 0.25597 0.15061 0.0
H597 H 1.03478 0.34445 0.1413 0.0
H598 H 0.95208 0.25544 0.15144 0.0
C599 C 0.85988 0.286 0.14635 0.0
C600 C 1.09937 0.50496 0.06154 0.0
C601 C 1.09184 0.53622 0.07456 0.0
H602 H 0.10647 0.47921 0.02537 0.0
C603 C 1.0901 0.56862 0.06073 0.0
H604 H 1.10138 0.47989 0.0718 0.0
C605 C 1.09339 0.56845 0.0343 0.0
C606 C 1.09854 0.53589 0.0211 0.0
H607 H 1.08509 0.59354 0.0703 0.0
H608 H 1.09099 0.59338 0.02412 0.0
C609 C 1.10283 0.50486 0.03501 0.0
C610 C 0.61469 1.00511 0.38943 0.0
C611 C 0.66265 0.05273 0.40055 0.0
H612 H 0.57 0.96115 0.35534 0.0
C613 C 0.70095 0.09446 0.38518 0.0
H614 H 0.58507 0.97232 0.40103 0.0
C615 C 0.69034 0.08878 0.35892 0.0
C616 C 0.64267 0.04082 0.3474 0.0
H617 H 0.73796 0.13163 0.39357 0.0
H618 H 0.71912 0.12228 0.34786 0.0
C619 C 0.60568 0.99901 0.36315 0.0
C620 C 0.51851 0.4343 0.73591 0.0
C621 C 0.5699 0.47038 0.75211 0.0
H622 H 0.48429 0.41112 0.69749 0.0
C623 C 0.62702 0.51215 0.74165 0.0
H624 H 0.474 0.40171 0.7435 0.0
C625 C 0.63242 0.51798 0.71541 0.0
C626 C 0.58129 0.48149 0.69924 0.0
H627 H 0.66753 0.54025 0.75371 0.0
H628 H 0.67687 0.55045 0.7077 0.0
C629 C 0.52438 0.43957 0.70966 0.0
C630 C 0.56878 0.05998 0.56024 0.0
C631 C 0.61727 0.07213 0.54427 0.0
H632 H 0.53763 0.05249 0.59851 0.0
C633 C 0.67259 0.08591 0.55504 0.0
H634 H 0.52569 0.04931 0.55244 0.0
C635 C 0.6788 0.08672 0.58139 0.0
C636 C 0.6305 0.07507 0.5973 0.0
H637 H 0.71083 0.0958 0.54312 0.0
H638 H 0.72158 0.09707 0.58936 0.0
C639 C 0.57562 0.06194 0.58654 0.0
C640 C 0.58686 0.4935 0.90586 0.0
C641 C 0.643 0.53438 0.8944 0.0
H642 H 0.54208 0.45569 0.94061 0.0
C643 C 0.6987 0.5669 0.90907 0.0
H644 H 0.54336 0.46779 0.89488 0.0
C645 C 0.6978 0.5601 0.93499 0.0
C646 C 0.6414 0.52028 0.94662 0.0
H647 H 0.74271 0.59847 0.90067 0.0
H648 H 0.74084 0.58677 0.94614 0.0
C649 C 0.58618 0.4863 0.93185 0.0
C650 C 0.15955 0.56487 0.22604 0.0
C651 C 0.15777 0.52721 0.21483 0.0
H652 H 0.16594 0.60201 0.26046 0.0
C653 C 0.16003 0.49682 0.23036 0.0
H654 H 0.15758 0.58869 0.21449 0.0
C655 C 0.1648 0.50446 0.25673 0.0
C656 C 0.16783 0.54283 0.26792 0.0
H657 H 0.15864 0.46749 0.22213 0.0
H658 H 0.16738 0.48103 0.26833 0.0
C659 C 0.16472 0.57271 0.25232 0.0
loop_
_geom_bond_atom_site_label_1
_geom_bond_atom_site_label_2
_geom_bond_distance
_geom_bond_site_symmetry_2
_ccdc_geom_bond_type
Sm0 C2 2.846 . S
Sm0 O20 2.543 . S
Sm0 O21 2.450 . S
Sm0 O22 2.681 . S
Sm0 O23 2.464 . S
Sm0 O24 2.396 . S
Sm0 O28 2.386 . S
Sm0 O31 2.408 1_455 S
Sm1 C11 2.846 . S
Sm1 O22 2.386 1_655 S
Sm1 O25 2.408 1_655 S
Sm1 O26 2.543 . S
Sm1 O27 2.450 . S
Sm1 O28 2.681 1_655 S
Sm1 O29 2.464 . S
Sm1 O30 2.396 . S
C2 Sm0 2.846 . S
C2 C3 1.506 . S
C2 O20 1.261 . S
C2 O21 1.242 . S
C3 C2 1.506 . S
C3 C4 1.358 . S
C3 C8 1.382 . S
C4 C3 1.358 . S
C4 C5 1.385 . S
C4 H32 0.930 . S
C5 C4 1.385 . S
C5 C6 1.395 . S
C5 H33 0.929 . S
C6 C5 1.395 . S
C6 C7 1.335 . S
C7 C6 1.335 . S
C7 C8 1.398 . S
C7 H34 0.930 . S
C8 C3 1.382 . S
C8 C7 1.398 . S
C8 H35 0.929 . S
C9 O22 1.271 . S
C9 O23 1.251 . S
C10 O24 1.252 . S
C10 O25 1.272 . S
C11 Sm1 2.846 . S
C11 C12 1.506 . S
C11 O26 1.261 . S
C11 O27 1.242 . S
C12 C11 1.506 . S
C12 C13 1.358 . S
C12 C17 1.382 . S
C13 C12 1.358 . S
C13 C14 1.385 . S
C13 H36 0.930 . S
C14 C13 1.385 . S
C14 C15 1.395 . S
C14 H37 0.929 . S
C15 C14 1.395 . S
C15 C16 1.335 . S
C16 C15 1.335 . S
C16 C17 1.398 . S
C16 H38 0.930 . S
C17 C12 1.382 . S
C17 C16 1.398 . S
C17 H39 0.929 . S
C18 O28 1.271 . S
C18 O29 1.251 1_455 S
C19 O30 1.252 . S
C19 O31 1.272 . S
O20 Sm0 2.543 . S
O20 C2 1.261 . S
O21 Sm0 2.450 . S
O21 C2 1.242 . S
O22 Sm0 2.681 . S
O22 Sm1 2.386 1_455 S
O22 C9 1.271 . S
O23 Sm0 2.464 . S
O23 C9 1.251 . S
O24 Sm0 2.396 . S
O24 C10 1.252 . S
O25 Sm1 2.408 1_455 S
O25 C10 1.272 . S
O26 Sm1 2.543 . S
O26 C11 1.261 . S
O27 Sm1 2.450 . S
O27 C11 1.242 . S
O28 Sm0 2.386 . S
O28 Sm1 2.681 1_455 S
O28 C18 1.271 . S
O29 Sm1 2.464 . S
O29 C18 1.251 1_655 S
O30 Sm1 2.396 . S
O30 C19 1.252 . S
O31 Sm0 2.408 1_655 S
O31 C19 1.272 . S
H32 C4 0.930 . S
H33 C5 0.929 . S
H34 C7 0.930 . S
H35 C8 0.929 . S
H36 C13 0.930 . S
H37 C14 0.929 . S
H38 C16 0.930 . S
H39 C17 0.929 . S
Sm40 C42 2.846 . S
Sm40 O60 2.543 . S
Sm40 O61 2.450 . S
Sm40 O62 2.681 1_565 S
Sm40 O63 2.464 . S
Sm40 O64 2.396 . S
Sm40 O68 2.386 . S
Sm40 O71 2.408 1_565 S
Sm41 C51 2.846 . S
Sm41 O62 2.386 . S
Sm41 O65 2.408 1_545 S
Sm41 O66 2.543 . S
Sm41 O67 2.450 . S
Sm41 O68 2.681 1_545 S
Sm41 O69 2.464 . S
Sm41 O70 2.396 . S
C42 Sm40 2.846 . S
C42 C43 1.506 . S
C42 O60 1.261 . S
C42 O61 1.242 . S
C43 C42 1.506 . S
C43 C44 1.358 . S
C43 C48 1.382 . S
C44 C43 1.358 . S
C44 C45 1.385 . S
C44 H72 0.930 . S
C45 C44 1.385 . S
C45 C46 1.395 . S
C45 H73 0.929 . S
C46 C45 1.395 . S
C46 C47 1.335 . S
C47 C46 1.335 . S
C47 C48 1.398 . S
C47 H74 0.930 . S
C48 C43 1.382 . S
C48 C47 1.398 . S
C48 H75 0.929 . S
C49 O62 1.271 . S
C49 O63 1.251 1_545 S
C50 O64 1.252 . S
C50 O65 1.272 . S
C51 Sm41 2.846 . S
C51 C52 1.506 . S
C51 O66 1.261 . S
C51 O67 1.242 . S
C52 C51 1.506 . S
C52 C53 1.358 . S
C52 C57 1.382 . S
C53 C52 1.358 . S
C53 C54 1.385 . S
C53 H76 0.930 . S
C54 C53 1.385 . S
C54 C55 1.395 . S
C54 H77 0.929 . S
C55 C54 1.395 . S
C55 C56 1.335 . S
C56 C55 1.335 . S
C56 C57 1.398 . S
C56 H78 0.930 . S
C57 C52 1.382 . S
C57 C56 1.398 . S
C57 H79 0.929 . S
C58 O68 1.271 1_545 S
C58 O69 1.251 . S
C59 O70 1.252 . S
C59 O71 1.272 . S
O60 Sm40 2.543 . S
O60 C42 1.261 . S
O61 Sm40 2.450 . S
O61 C42 1.242 . S
O62 Sm40 2.681 1_545 S
O62 Sm41 2.386 . S
O62 C49 1.271 . S
O63 Sm40 2.464 . S
O63 C49 1.251 1_565 S
O64 Sm40 2.396 . S
O64 C50 1.252 . S
O65 Sm41 2.408 1_565 S
O65 C50 1.272 . S
O66 Sm41 2.543 . S
O66 C51 1.261 . S
O67 Sm41 2.450 . S
O67 C51 1.242 . S
O68 Sm40 2.386 . S
O68 Sm41 2.681 1_565 S
O68 C58 1.271 1_565 S
O69 Sm41 2.464 . S
O69 C58 1.251 . S
O70 Sm41 2.396 . S
O70 C59 1.252 . S
O71 Sm40 2.408 1_545 S
O71 C59 1.272 . S
H72 C44 0.930 . S
H73 C45 0.929 . S
H74 C47 0.930 . S
H75 C48 0.929 . S
H76 C53 0.930 . S
H77 C54 0.929 . S
H78 C56 0.930 . S
H79 C57 0.929 . S
Sm80 C82 2.846 . S
Sm80 O100 2.543 . S
Sm80 O101 2.450 . S
Sm80 O102 2.681 . S
Sm80 O103 2.464 . S
Sm80 O104 2.396 . S
Sm80 O108 2.386 . S
Sm80 O111 2.408 . S
Sm81 C91 2.846 . S
Sm81 O102 2.386 . S
Sm81 O105 2.408 . S
Sm81 O106 2.543 . S
Sm81 O107 2.450 . S
Sm81 O108 2.681 . S
Sm81 O109 2.464 . S
Sm81 O110 2.396 . S
C82 Sm80 2.846 . S
C82 C83 1.506 . S
C82 O100 1.261 . S
C82 O101 1.242 . S
C83 C82 1.506 . S
C83 C84 1.358 . S
C83 C88 1.382 . S
C84 C83 1.358 . S
C84 C85 1.385 . S
C84 H112 0.930 . S
C85 C84 1.385 . S
C85 C86 1.395 . S
C85 H113 0.929 . S
C86 C85 1.395 . S
C86 C87 1.335 . S
C87 C86 1.335 . S
C87 C88 1.398 . S
C87 H114 0.930 . S
C88 C83 1.382 . S
C88 C87 1.398 . S
C88 H115 0.929 . S
C89 O102 1.271 . S
C89 O103 1.251 . S
C90 O104 1.252 . S
C90 O105 1.272 . S
C91 Sm81 2.846 . S
C91 C92 1.506 . S
C91 O106 1.261 . S
C91 O107 1.242 . S
C92 C91 1.506 . S
C92 C93 1.358 . S
C92 C97 1.382 . S
C93 C92 1.358 . S
C93 C94 1.385 . S
C93 H116 0.930 . S
C94 C93 1.385 . S
C94 C95 1.395 . S
C94 H117 0.929 . S
C95 C94 1.395 . S
C95 C96 1.335 . S
C96 C95 1.335 . S
C96 C97 1.398 . S
C96 H118 0.930 . S
C97 C92 1.382 . S
C97 C96 1.398 . S
C97 H119 0.929 . S
C98 O108 1.271 . S
C98 O109 1.251 . S
C99 O110 1.252 . S
C99 O111 1.272 . S
O100 Sm80 2.543 . S
O100 C82 1.261 . S
O101 Sm80 2.450 . S
O101 C82 1.242 . S
O102 Sm80 2.681 . S
O102 Sm81 2.386 . S
O102 C89 1.271 . S
O103 Sm80 2.464 . S
O103 C89 1.251 . S
O104 Sm80 2.396 . S
O104 C90 1.252 . S
O105 Sm81 2.408 . S
O105 C90 1.272 . S
O106 Sm81 2.543 . S
O106 C91 1.261 . S
O107 Sm81 2.450 . S
O107 C91 1.242 . S
O108 Sm80 2.386 . S
O108 Sm81 2.681 . S
O108 C98 1.271 . S
O109 Sm81 2.464 . S
O109 C98 1.251 . S
O110 Sm81 2.396 . S
O110 C99 1.252 . S
O111 Sm80 2.408 . S
O111 C99 1.272 . S
H112 C84 0.930 . S
H113 C85 0.929 . S
H114 C87 0.930 . S
H115 C88 0.929 . S
H116 C93 0.930 . S
H117 C94 0.929 . S
H118 C96 0.930 . S
H119 C97 0.929 . S
C120 C121 1.391 . S
C120 C124 1.391 . S
C120 H162 0.948 . S
C121 C120 1.391 . S
C121 C122 1.391 . S
C122 C121 1.391 . S
C122 H178 0.947 . S
C122 C179 1.392 . S
C123 C124 1.391 . S
C123 C127 1.397 . S
C123 C179 1.419 . S
C124 C120 1.391 . S
C124 C123 1.391 . S
C124 C125 1.399 . S
C125 C124 1.399 . S
C125 C128 1.396 . S
C125 C137 1.453 . S
C125 C138 1.684 . S
H126 C150 0.948 . S
C127 C123 1.397 . S
C127 C128 1.394 . S
C127 C146 1.723 . S
C128 C125 1.396 . S
C128 C127 1.394 . S
C128 C158 1.723 1_545 S
H129 C152 0.947 . S
H130 C153 0.948 . S
H131 C159 0.982 . S
H132 C160 0.979 . S
H133 C160 0.980 . S
H134 C160 0.983 . S
H135 C159 0.979 . S
H136 C159 0.977 . S
C137 C125 1.453 . S
C137 H166 0.982 . S
C137 H167 0.979 . S
C137 H168 0.977 1_545 S
C138 C125 1.684 . S
C138 H163 0.979 . S
C138 H164 0.980 . S
C138 H165 0.983 . S
C139 C140 1.391 . S
C139 C144 1.391 . S
C139 H169 0.948 . S
C140 C139 1.391 . S
C140 C141 1.391 1_545 S
C141 C140 1.391 1_565 S
C141 C142 1.392 . S
C141 H170 0.947 . S
C142 C141 1.392 . S
C142 C143 1.419 1_565 S
C142 H171 0.948 . S
C143 C142 1.419 1_545 S
C143 C144 1.391 . S
C143 C147 1.397 . S
C144 C139 1.391 . S
C144 C143 1.391 . S
C144 C145 1.399 . S
C145 C144 1.399 . S
C145 C146 1.396 . S
C145 C148 1.453 . S
C145 C149 1.684 . S
C146 C127 1.723 . S
C146 C145 1.396 . S
C146 C147 1.394 . S
C147 C143 1.397 . S
C147 C146 1.394 . S
C147 C157 1.723 1_545 S
C148 C145 1.453 . S
C148 H172 0.982 . S
C148 H173 0.979 . S
C148 H174 0.977 . S
C149 C145 1.684 . S
C149 H175 0.979 . S
C149 H176 0.980 . S
C149 H177 0.983 . S
C150 H126 0.948 . S
C150 C151 1.391 . S
C150 C155 1.391 . S
C151 C150 1.391 . S
C151 C152 1.391 . S
C152 H129 0.947 . S
C152 C151 1.391 . S
C152 C153 1.392 . S
C153 H130 0.948 . S
C153 C152 1.392 . S
C153 C154 1.419 . S
C154 C153 1.419 . S
C154 C155 1.391 . S
C154 C158 1.397 . S
C155 C150 1.391 . S
C155 C154 1.391 . S
C155 C156 1.399 . S
C156 C155 1.399 . S
C156 C157 1.396 . S
C156 C159 1.453 . S
C156 C160 1.684 . S
C157 C147 1.723 1_565 S
C157 C156 1.396 . S
C157 C158 1.394 . S
C158 C128 1.723 1_565 S
C158 C154 1.397 . S
C158 C157 1.394 . S
C159 H131 0.982 . S
C159 H135 0.979 . S
C159 H136 0.977 . S
C159 C156 1.453 . S
C160 H132 0.979 . S
C160 H133 0.980 . S
C160 H134 0.983 . S
C160 C156 1.684 . S
H161 C179 0.948 . S
H162 C120 0.948 . S
H163 C138 0.979 . S
H164 C138 0.980 . S
H165 C138 0.983 . S
H166 C137 0.982 . S
H167 C137 0.979 . S
H168 C137 0.977 1_565 S
H169 C139 0.948 . S
H170 C141 0.947 . S
H171 C142 0.948 . S
H172 C148 0.982 . S
H173 C148 0.979 . S
H174 C148 0.977 . S
H175 C149 0.979 . S
H176 C149 0.980 . S
H177 C149 0.983 . S
H178 C122 0.947 . S
C179 C122 1.392 . S
C179 C123 1.419 . S
C179 H161 0.948 . S
C180 C181 1.391 . S
C180 C184 1.391 . S
C180 H222 0.948 . S
C181 C180 1.391 . S
C181 C182 1.391 . S
C182 C181 1.391 . S
C182 H238 0.947 . S
C182 C239 1.392 . S
C183 C184 1.391 . S
C183 C187 1.397 . S
C183 C239 1.419 . S
C184 C180 1.391 . S
C184 C183 1.391 . S
C184 C185 1.399 . S
C185 C184 1.399 . S
C185 C188 1.396 . S
C185 C197 1.453 . S
C185 C198 1.684 . S
H186 C210 0.948 . S
C187 C183 1.397 . S
C187 C188 1.394 . S
C187 C206 1.723 . S
C188 C185 1.396 . S
C188 C187 1.394 . S
C188 C218 1.723 . S
H189 C212 0.947 . S
H190 C213 0.948 . S
H191 C219 0.982 . S
H192 C220 0.979 . S
H193 C220 0.980 . S
H194 C220 0.983 . S
H195 C219 0.979 . S
H196 C219 0.977 . S
C197 C185 1.453 . S
C197 H226 0.982 . S
C197 H227 0.979 . S
C197 H228 0.977 . S
C198 C185 1.684 . S
C198 H223 0.979 . S
C198 H224 0.980 . S
C198 H225 0.983 . S
C199 C200 1.391 . S
C199 C204 1.391 . S
C199 H229 0.948 . S
C200 C199 1.391 . S
C200 C201 1.391 . S
C201 C200 1.391 . S
C201 C202 1.392 . S
C201 H230 0.947 . S
C202 C201 1.392 . S
C202 C203 1.419 . S
C202 H231 0.948 . S
C203 C202 1.419 . S
C203 C204 1.391 . S
C203 C207 1.397 . S
C204 C199 1.391 . S
C204 C203 1.391 . S
C204 C205 1.399 . S
C205 C204 1.399 . S
C205 C206 1.396 . S
C205 C208 1.453 . S
C205 C209 1.684 . S
C206 C187 1.723 . S
C206 C205 1.396 . S
C206 C207 1.394 . S
C207 C203 1.397 . S
C207 C206 1.394 . S
C207 C217 1.723 . S
C208 C205 1.453 . S
C208 H232 0.982 . S
C208 H233 0.979 . S
C208 H234 0.977 . S
C209 C205 1.684 . S
C209 H235 0.979 . S
C209 H236 0.980 . S
C209 H237 0.983 . S
C210 H186 0.948 . S
C210 C211 1.391 . S
C210 C215 1.391 . S
C211 C210 1.391 . S
C211 C212 1.391 . S
C212 H189 0.947 . S
C212 C211 1.391 . S
C212 C213 1.392 . S
C213 H190 0.948 . S
C213 C212 1.392 . S
C213 C214 1.419 . S
C214 C213 1.419 . S
C214 C215 1.391 . S
C214 C218 1.397 . S
C215 C210 1.391 . S
C215 C214 1.391 . S
C215 C216 1.399 . S
C216 C215 1.399 . S
C216 C217 1.396 . S
C216 C219 1.453 . S
C216 C220 1.684 . S
C217 C207 1.723 . S
C217 C216 1.396 . S
C217 C218 1.394 . S
C218 C188 1.723 . S
C218 C214 1.397 . S
C218 C217 1.394 . S
C219 H191 0.982 . S
C219 H195 0.979 . S
C219 H196 0.977 . S
C219 C216 1.453 . S
C220 H192 0.979 . S
C220 H193 0.980 . S
C220 H194 0.983 . S
C220 C216 1.684 . S
H221 C239 0.948 . S
H222 C180 0.948 . S
H223 C198 0.979 . S
H224 C198 0.980 . S
H225 C198 0.983 . S
H226 C197 0.982 . S
H227 C197 0.979 . S
H228 C197 0.977 . S
H229 C199 0.948 . S
H230 C201 0.947 . S
H231 C202 0.948 . S
H232 C208 0.982 . S
H233 C208 0.979 . S
H234 C208 0.977 . S
H235 C209 0.979 . S
H236 C209 0.980 . S
H237 C209 0.983 . S
H238 C182 0.947 . S
C239 C182 1.392 . S
C239 C183 1.419 . S
C239 H221 0.948 . S
C240 C241 1.391 . S
C240 C244 1.391 . S
C240 H282 0.948 . S
C241 C240 1.391 . S
C241 C242 1.391 . S
C242 C241 1.391 . S
C242 H298 0.947 . S
C242 C299 1.392 . S
C243 C244 1.391 . S
C243 C247 1.397 . S
C243 C299 1.419 . S
C244 C240 1.391 . S
C244 C243 1.391 . S
C244 C245 1.399 . S
C245 C244 1.399 . S
C245 C248 1.396 . S
C245 C257 1.453 . S
C245 C258 1.684 . S
H246 C270 0.948 . S
C247 C243 1.397 . S
C247 C248 1.394 . S
C247 C266 1.723 . S
C248 C245 1.396 . S
C248 C247 1.394 . S
C248 C278 1.723 . S
H249 C272 0.947 . S
H250 C273 0.948 1_455 S
H251 C279 0.982 . S
H252 C280 0.979 . S
H253 C280 0.980 . S
H254 C280 0.983 . S
H255 C279 0.979 . S
H256 C279 0.977 . S
C257 C245 1.453 . S
C257 H286 0.982 . S
C257 H287 0.979 . S
C257 H288 0.977 . S
C258 C245 1.684 . S
C258 H283 0.979 . S
C258 H284 0.980 . S
C258 H285 0.983 . S
C259 C260 1.406 . S
C259 C264 1.391 . S
C259 H289 0.948 . S
C260 C259 1.406 . S
C260 C261 1.402 . S
C261 C260 1.402 . S
C261 C262 1.392 . S
C261 H290 0.947 1_455 S
C262 C261 1.392 . S
C262 C263 1.419 . S
C262 H291 0.948 1_455 S
C263 C262 1.419 . S
C263 C264 1.391 . S
C263 C267 1.397 . S
C264 C259 1.391 . S
C264 C263 1.391 . S
C264 C265 1.399 . S
C265 C264 1.399 . S
C265 C266 1.396 . S
C265 C268 1.453 . S
C265 C269 1.684 . S
C266 C247 1.723 . S
C266 C265 1.396 . S
C266 C267 1.394 . S
C267 C263 1.397 . S
C267 C266 1.394 . S
C267 C277 1.723 1_455 S
C268 C265 1.453 . S
C268 H292 0.982 . S
C268 H293 0.979 . S
C268 H294 0.977 . S
C269 C265 1.684 . S
C269 H295 0.979 . S
C269 H296 0.980 . S
C269 H297 0.983 . S
C270 H246 0.948 . S
C270 C271 1.391 . S
C270 C275 1.391 . S
C271 C270 1.391 . S
C271 C272 1.391 . S
C272 H249 0.947 . S
C272 C271 1.391 . S
C272 C273 1.392 . S
C273 H250 0.948 1_655 S
C273 C272 1.392 . S
C273 C274 1.419 . S
C274 C273 1.419 . S
C274 C275 1.391 . S
C274 C278 1.397 1_655 S
C275 C270 1.391 . S
C275 C274 1.391 . S
C275 C276 1.399 . S
C276 C275 1.399 . S
C276 C277 1.396 . S
C276 C279 1.453 . S
C276 C280 1.684 . S
C277 C267 1.723 1_655 S
C277 C276 1.396 . S
C277 C278 1.394 1_655 S
C278 C248 1.723 . S
C278 C274 1.397 1_455 S
C278 C277 1.394 1_455 S
C279 H251 0.982 . S
C279 H255 0.979 . S
C279 H256 0.977 . S
C279 C276 1.453 . S
C280 H252 0.979 . S
C280 H253 0.980 . S
C280 H254 0.983 . S
C280 C276 1.684 . S
H281 C299 0.948 . S
H282 C240 0.948 . S
H283 C258 0.979 . S
H284 C258 0.980 . S
H285 C258 0.983 . S
H286 C257 0.982 . S
H287 C257 0.979 . S
H288 C257 0.977 . S
H289 C259 0.948 . S
H290 C261 0.947 1_655 S
H291 C262 0.948 1_655 S
H292 C268 0.982 . S
H293 C268 0.979 . S
H294 C268 0.977 . S
H295 C269 0.979 . S
H296 C269 0.980 . S
H297 C269 0.983 . S
H298 C242 0.947 . S
C299 C242 1.392 . S
C299 C243 1.419 . S
C299 H281 0.948 . S
C300 C301 1.391 . S
C300 C304 1.391 . S
C300 H342 0.948 . S
C301 C300 1.391 . S
C301 C302 1.391 . S
C302 C301 1.391 . S
C302 H358 0.947 . S
C302 C359 1.392 . S
C303 C304 1.391 . S
C303 C307 1.397 . S
C303 C359 1.419 . S
C304 C300 1.391 . S
C304 C303 1.391 . S
C304 C305 1.399 . S
C305 C304 1.399 . S
C305 C308 1.396 . S
C305 C317 1.453 . S
C305 C318 1.684 . S
H306 C330 0.948 . S
C307 C303 1.397 . S
C307 C308 1.394 . S
C307 C326 1.723 . S
C308 C305 1.396 . S
C308 C307 1.394 . S
C308 C338 1.723 1_655 S
H309 C332 0.947 . S
H310 C333 0.948 . S
H311 C339 0.982 . S
H312 C340 0.979 . S
H313 C340 0.980 . S
H314 C340 0.983 . S
H315 C339 0.979 . S
H316 C339 0.977 . S
C317 C305 1.453 . S
C317 H346 0.982 1_655 S
C317 H347 0.979 . S
C317 H348 0.977 1_655 S
C318 C305 1.684 . S
C318 H343 0.979 . S
C318 H344 0.980 . S
C318 H345 0.983 . S
C319 C320 1.391 1_655 S
C319 C324 1.391 . S
C319 H349 0.948 . S
C320 C319 1.391 1_455 S
C320 C321 1.391 . S
C321 C320 1.391 . S
C321 C322 1.392 . S
C321 H350 0.947 . S
C322 C321 1.392 . S
C322 C323 1.419 . S
C322 H351 0.948 . S
C323 C322 1.419 . S
C323 C324 1.391 1_455 S
C323 C327 1.397 . S
C324 C319 1.391 . S
C324 C323 1.391 1_655 S
C324 C325 1.399 . S
C325 C324 1.399 . S
C325 C326 1.396 . S
C325 C328 1.453 . S
C325 C329 1.684 . S
C326 C307 1.723 . S
C326 C325 1.396 . S
C326 C327 1.394 1_655 S
C327 C323 1.397 . S
C327 C326 1.394 1_455 S
C327 C337 1.723 . S
C328 C325 1.453 . S
C328 H352 0.982 . S
C328 H353 0.979 . S
C328 H354 0.977 . S
C329 C325 1.684 . S
C329 H355 0.979 . S
C329 H356 0.980 . S
C329 H357 0.983 . S
C330 H306 0.948 . S
C330 C331 1.391 . S
C330 C335 1.391 . S
C331 C330 1.391 . S
C331 C332 1.391 . S
C332 H309 0.947 . S
C332 C331 1.391 . S
C332 C333 1.392 . S
C333 H310 0.948 . S
C333 C332 1.392 . S
C333 C334 1.419 . S
C334 C333 1.419 . S
C334 C335 1.391 . S
C334 C338 1.397 . S
C335 C330 1.391 . S
C335 C334 1.391 . S
C335 C336 1.399 . S
C336 C335 1.399 . S
C336 C337 1.396 . S
C336 C339 1.453 . S
C336 C340 1.684 . S
C337 C327 1.723 . S
C337 C336 1.396 . S
C337 C338 1.394 . S
C338 C308 1.723 1_455 S
C338 C334 1.397 . S
C338 C337 1.394 . S
C339 H311 0.982 . S
C339 H315 0.979 . S
C339 H316 0.977 . S
C339 C336 1.453 . S
C340 H312 0.979 . S
C340 H313 0.980 . S
C340 H314 0.983 . S
C340 C336 1.684 . S
H341 C359 0.948 . S
H342 C300 0.948 . S
H343 C318 0.979 . S
H344 C318 0.980 . S
H345 C318 0.983 . S
H346 C317 0.982 1_455 S
H347 C317 0.979 . S
H348 C317 0.977 1_455 S
H349 C319 0.948 . S
H350 C321 0.947 . S
H351 C322 0.948 . S
H352 C328 0.982 . S
H353 C328 0.979 . S
H354 C328 0.977 . S
H355 C329 0.979 . S
H356 C329 0.980 . S
H357 C329 0.983 . S
H358 C302 0.947 . S
C359 C302 1.392 . S
C359 C303 1.419 . S
C359 H341 0.948 . S
C360 C361 1.391 . S
C360 C364 1.391 . S
C360 H402 0.948 . S
C361 C360 1.391 . S
C361 C362 1.391 . S
C362 C361 1.391 . S
C362 H418 0.947 . S
C362 C419 1.392 . S
C363 C364 1.391 . S
C363 C367 1.397 . S
C363 C419 1.419 . S
C364 C360 1.391 . S
C364 C363 1.391 . S
C364 C365 1.399 . S
C365 C364 1.399 . S
C365 C368 1.396 . S
C365 C377 1.453 1_565 S
C365 C378 1.684 . S
H366 C390 0.948 . S
C367 C363 1.397 . S
C367 C368 1.394 . S
C367 C386 1.723 . S
C368 C365 1.396 . S
C368 C367 1.394 . S
C368 C398 1.723 1_565 S
H369 C392 0.947 . S
H370 C393 0.948 . S
H371 C399 0.982 . S
H372 C400 0.979 . S
H373 C400 0.980 . S
H374 C400 0.983 . S
H375 C399 0.979 . S
H376 C399 0.977 . S
C377 C365 1.453 1_545 S
C377 H406 0.982 . S
C377 H407 0.979 1_545 S
C377 H408 0.977 . S
C378 C365 1.684 . S
C378 H403 0.979 . S
C378 H404 0.980 . S
C378 H405 0.983 . S
C379 C380 1.391 . S
C379 C384 1.391 . S
C379 H409 0.948 . S
C380 C379 1.391 . S
C380 C381 1.391 1_565 S
C381 C380 1.391 1_545 S
C381 C382 1.392 . S
C381 H410 0.947 . S
C382 C381 1.392 . S
C382 C383 1.419 . S
C382 H411 0.948 . S
C383 C382 1.419 . S
C383 C384 1.391 1_545 S
C383 C387 1.397 . S
C384 C379 1.391 . S
C384 C383 1.391 1_565 S
C384 C385 1.399 . S
C385 C384 1.399 . S
C385 C386 1.396 . S
C385 C388 1.453 . S
C385 C389 1.684 . S
C386 C367 1.723 . S
C386 C385 1.396 . S
C386 C387 1.394 1_565 S
C387 C383 1.397 . S
C387 C386 1.394 1_545 S
C387 C397 1.723 . S
C388 C385 1.453 . S
C388 H412 0.982 . S
C388 H413 0.979 . S
C388 H414 0.977 . S
C389 C385 1.684 . S
C389 H415 0.979 . S
C389 H416 0.980 . S
C389 H417 0.983 . S
C390 H366 0.948 . S
C390 C391 1.391 . S
C390 C395 1.391 . S
C391 C390 1.391 . S
C391 C392 1.391 . S
C392 H369 0.947 . S
C392 C391 1.391 . S
C392 C393 1.392 . S
C393 H370 0.948 . S
C393 C392 1.392 . S
C393 C394 1.419 . S
C394 C393 1.419 . S
C394 C395 1.391 . S
C394 C398 1.397 . S
C395 C390 1.391 . S
C395 C394 1.391 . S
C395 C396 1.399 . S
C396 C395 1.399 . S
C396 C397 1.396 . S
C396 C399 1.453 . S
C396 C400 1.684 . S
C397 C387 1.723 . S
C397 C396 1.396 . S
C397 C398 1.394 . S
C398 C368 1.723 1_545 S
C398 C394 1.397 . S
C398 C397 1.394 . S
C399 H371 0.982 . S
C399 H375 0.979 . S
C399 H376 0.977 . S
C399 C396 1.453 . S
C400 H372 0.979 . S
C400 H373 0.980 . S
C400 H374 0.983 . S
C400 C396 1.684 . S
H401 C419 0.948 . S
H402 C360 0.948 . S
H403 C378 0.979 . S
H404 C378 0.980 . S
H405 C378 0.983 . S
H406 C377 0.982 . S
H407 C377 0.979 1_565 S
H408 C377 0.977 . S
H409 C379 0.948 . S
H410 C381 0.947 . S
H411 C382 0.948 . S
H412 C388 0.982 . S
H413 C388 0.979 . S
H414 C388 0.977 . S
H415 C389 0.979 . S
H416 C389 0.980 . S
H417 C389 0.983 . S
H418 C362 0.947 . S
C419 C362 1.392 . S
C419 C363 1.419 . S
C419 H401 0.948 . S
C420 C421 1.391 . S
C420 C424 1.391 . S
C420 H462 0.948 . S
C421 C420 1.391 . S
C421 C422 1.391 . S
C422 C421 1.391 . S
C422 H478 0.947 . S
C422 C479 1.392 . S
C423 C424 1.391 . S
C423 C427 1.397 . S
C423 C479 1.419 . S
C424 C420 1.391 . S
C424 C423 1.391 . S
C424 C425 1.399 . S
C425 C424 1.399 . S
C425 C428 1.396 . S
C425 C437 1.453 . S
C425 C438 1.684 . S
H426 C450 0.948 . S
C427 C423 1.397 . S
C427 C428 1.394 . S
C427 C446 1.723 . S
C428 C425 1.396 . S
C428 C427 1.394 . S
C428 C458 1.723 . S
H429 C452 0.947 . S
H430 C453 0.948 . S
H431 C459 0.982 . S
H432 C460 0.979 . S
H433 C460 0.980 . S
H434 C460 0.983 . S
H435 C459 0.979 . S
H436 C459 0.977 . S
C437 C425 1.453 . S
C437 H466 0.982 . S
C437 H467 0.979 . S
C437 H468 0.977 . S
C438 C425 1.684 . S
C438 H463 0.979 . S
C438 H464 0.980 . S
C438 H465 0.983 . S
C439 C440 1.391 . S
C439 C444 1.391 1_556 S
C439 H469 0.948 . S
C440 C439 1.391 . S
C440 C441 1.391 . S
C441 C440 1.391 . S
C441 C442 1.392 1_556 S
C441 H470 0.947 . S
C442 C441 1.392 1_554 S
C442 C443 1.419 . S
C442 H471 0.948 . S
C443 C442 1.419 . S
C443 C444 1.391 . S
C443 C447 1.397 . S
C444 C439 1.391 1_554 S
C444 C443 1.391 . S
C444 C445 1.399 . S
C445 C444 1.399 . S
C445 C446 1.396 . S
C445 C448 1.453 . S
C445 C449 1.684 . S
C446 C427 1.723 . S
C446 C445 1.396 . S
C446 C447 1.394 . S
C447 C443 1.397 . S
C447 C446 1.394 . S
C447 C457 1.723 . S
C448 C445 1.453 . S
C448 H472 0.982 . S
C448 H473 0.979 . S
C448 H474 0.977 . S
C449 C445 1.684 . S
C449 H475 0.979 . S
C449 H476 0.980 . S
C449 H477 0.983 . S
C450 H426 0.948 . S
C450 C451 1.391 . S
C450 C455 1.391 . S
C451 C450 1.391 . S
C451 C452 1.391 . S
C452 H429 0.947 . S
C452 C451 1.391 . S
C452 C453 1.392 . S
C453 H430 0.948 . S
C453 C452 1.392 . S
C453 C454 1.419 . S
C454 C453 1.419 . S
C454 C455 1.391 . S
C454 C458 1.397 . S
C455 C450 1.391 . S
C455 C454 1.391 . S
C455 C456 1.399 . S
C456 C455 1.399 . S
C456 C457 1.396 . S
C456 C459 1.453 . S
C456 C460 1.684 . S
C457 C447 1.723 . S
C457 C456 1.396 . S
C457 C458 1.394 . S
C458 C428 1.723 . S
C458 C454 1.397 . S
C458 C457 1.394 . S
C459 H431 0.982 . S
C459 H435 0.979 . S
C459 H436 0.977 . S
C459 C456 1.453 . S
C460 H432 0.979 . S
C460 H433 0.980 . S
C460 H434 0.983 . S
C460 C456 1.684 . S
H461 C479 0.948 . S
H462 C420 0.948 . S
H463 C438 0.979 . S
H464 C438 0.980 . S
H465 C438 0.983 . S
H466 C437 0.982 . S
H467 C437 0.979 . S
H468 C437 0.977 . S
H469 C439 0.948 . S
H470 C441 0.947 . S
H471 C442 0.948 . S
H472 C448 0.982 . S
H473 C448 0.979 . S
H474 C448 0.977 . S
H475 C449 0.979 . S
H476 C449 0.980 . S
H477 C449 0.983 . S
H478 C422 0.947 . S
C479 C422 1.392 . S
C479 C423 1.419 . S
C479 H461 0.948 . S
C480 C481 1.387 . S
C480 H484 0.950 . S
C480 C489 1.390 . S
C481 C480 1.387 . S
C481 C483 1.387 . S
H482 C489 0.950 . S
C483 C481 1.387 . S
C483 C485 1.390 . S
C483 H487 0.950 . S
H484 C480 0.950 . S
C485 C483 1.390 . S
C485 C486 1.387 . S
C485 H488 0.950 . S
C486 C485 1.387 . S
C486 C489 1.387 . S
H487 C483 0.950 . S
H488 C485 0.950 . S
C489 C480 1.390 . S
C489 H482 0.950 . S
C489 C486 1.387 . S
C490 C491 1.387 . S
C490 H494 0.950 . S
C490 C499 1.390 . S
C491 C490 1.387 . S
C491 C493 1.387 . S
H492 C499 0.950 . S
C493 C491 1.387 . S
C493 C495 1.390 . S
C493 H497 0.950 . S
H494 C490 0.950 . S
C495 C493 1.390 . S
C495 C496 1.387 . S
C495 H498 0.950 . S
C496 C495 1.387 . S
C496 C499 1.387 . S
H497 C493 0.950 . S
H498 C495 0.950 . S
C499 C490 1.390 . S
C499 H492 0.950 . S
C499 C496 1.387 . S
C500 C501 1.387 . S
C500 H504 0.950 . S
C500 C509 1.390 . S
C501 C500 1.387 . S
C501 C503 1.387 . S
H502 C509 0.950 . S
C503 C501 1.387 . S
C503 C505 1.390 . S
C503 H507 0.950 . S
H504 C500 0.950 . S
C505 C503 1.390 . S
C505 C506 1.387 . S
C505 H508 0.950 . S
C506 C505 1.387 . S
C506 C509 1.387 . S
H507 C503 0.950 . S
H508 C505 0.950 . S
C509 C500 1.390 . S
C509 H502 0.950 . S
C509 C506 1.387 . S
C510 C511 1.387 . S
C510 H514 0.950 . S
C510 C519 1.390 . S
C511 C510 1.387 . S
C511 C513 1.387 . S
H512 C519 0.950 . S
C513 C511 1.387 . S
C513 C515 1.390 . S
C513 H517 0.950 . S
H514 C510 0.950 . S
C515 C513 1.390 . S
C515 C516 1.387 . S
C515 H518 0.950 . S
C516 C515 1.387 . S
C516 C519 1.387 . S
H517 C513 0.950 . S
H518 C515 0.950 . S
C519 C510 1.390 . S
C519 H512 0.950 . S
C519 C516 1.387 . S
C520 C521 1.387 . S
C520 H524 0.950 . S
C520 C529 1.390 . S
C521 C520 1.387 . S
C521 C523 1.387 . S
H522 C529 0.950 . S
C523 C521 1.387 . S
C523 C525 1.390 . S
C523 H527 0.950 . S
H524 C520 0.950 . S
C525 C523 1.390 . S
C525 C526 1.387 . S
C525 H528 0.950 . S
C526 C525 1.387 . S
C526 C529 1.387 . S
H527 C523 0.950 . S
H528 C525 0.950 . S
C529 C520 1.390 . S
C529 H522 0.950 . S
C529 C526 1.387 . S
C530 C531 1.387 . S
C530 H534 0.950 . S
C530 C539 1.390 . S
C531 C530 1.387 . S
C531 C533 1.387 . S
H532 C539 0.950 . S
C533 C531 1.387 . S
C533 C535 1.390 . S
C533 H537 0.950 . S
H534 C530 0.950 . S
C535 C533 1.390 . S
C535 C536 1.387 . S
C535 H538 0.950 . S
C536 C535 1.387 . S
C536 C539 1.387 . S
H537 C533 0.950 . S
H538 C535 0.950 . S
C539 C530 1.390 . S
C539 H532 0.950 . S
C539 C536 1.387 . S
C540 C541 1.387 . S
C540 H544 0.950 . S
C540 C549 1.390 . S
C541 C540 1.387 . S
C541 C543 1.387 . S
H542 C549 0.950 . S
C543 C541 1.387 . S
C543 C545 1.390 . S
C543 H547 0.950 . S
H544 C540 0.950 . S
C545 C543 1.390 . S
C545 C546 1.387 . S
C545 H548 0.950 . S
C546 C545 1.387 . S
C546 C549 1.387 . S
H547 C543 0.950 . S
H548 C545 0.950 . S
C549 C540 1.390 . S
C549 H542 0.950 . S
C549 C546 1.387 . S
C550 C551 1.387 . S
C550 H554 0.950 . S
C550 C559 1.390 . S
C551 C550 1.387 . S
C551 C553 1.387 . S
H552 C559 0.950 . S
C553 C551 1.387 . S
C553 C555 1.390 . S
C553 H557 0.950 . S
H554 C550 0.950 . S
C555 C553 1.390 . S
C555 C556 1.387 . S
C555 H558 0.950 . S
C556 C555 1.387 . S
C556 C559 1.387 . S
H557 C553 0.950 . S
H558 C555 0.950 . S
C559 C550 1.390 . S
C559 H552 0.950 . S
C559 C556 1.387 . S
C560 C561 1.387 . S
C560 H564 0.950 . S
C560 C569 1.390 . S
C561 C560 1.387 . S
C561 C563 1.387 . S
H562 C569 0.950 . S
C563 C561 1.387 . S
C563 C565 1.390 . S
C563 H567 0.950 . S
H564 C560 0.950 . S
C565 C563 1.390 . S
C565 C566 1.387 . S
C565 H568 0.950 . S
C566 C565 1.387 . S
C566 C569 1.387 . S
H567 C563 0.950 . S
H568 C565 0.950 . S
C569 C560 1.390 . S
C569 H562 0.950 . S
C569 C566 1.387 . S
C570 C571 1.387 . S
C570 H574 0.950 . S
C570 C579 1.390 . S
C571 C570 1.387 . S
C571 C573 1.387 . S
H572 C579 0.950 . S
C573 C571 1.387 . S
C573 C575 1.390 . S
C573 H577 0.950 . S
H574 C570 0.950 . S
C575 C573 1.390 . S
C575 C576 1.387 . S
C575 H578 0.950 . S
C576 C575 1.387 . S
C576 C579 1.387 . S
H577 C573 0.950 . S
H578 C575 0.950 . S
C579 C570 1.390 . S
C579 H572 0.950 . S
C579 C576 1.387 . S
C580 C581 1.387 . S
C580 H584 0.950 . S
C580 C589 1.390 . S
C581 C580 1.387 . S
C581 C583 1.387 . S
H582 C589 0.950 . S
C583 C581 1.387 . S
C583 C585 1.390 . S
C583 H587 0.950 . S
H584 C580 0.950 . S
C585 C583 1.390 . S
C585 C586 1.387 . S
C585 H588 0.950 . S
C586 C585 1.387 . S
C586 C589 1.387 . S
H587 C583 0.950 . S
H588 C585 0.950 . S
C589 C580 1.390 . S
C589 H582 0.950 . S
C589 C586 1.387 . S
C590 C591 1.387 . S
C590 H594 0.950 . S
C590 C599 1.390 . S
C591 C590 1.387 . S
C591 C593 1.387 . S
H592 C599 0.950 . S
C593 C591 1.387 . S
C593 C595 1.390 . S
C593 H597 0.950 . S
H594 C590 0.950 . S
C595 C593 1.390 . S
C595 C596 1.387 . S
C595 H598 0.950 . S
C596 C595 1.387 . S
C596 C599 1.387 . S
H597 C593 0.950 . S
H598 C595 0.950 . S
C599 C590 1.390 . S
C599 H592 0.950 . S
C599 C596 1.387 . S
C600 C601 1.387 . S
C600 H604 0.950 . S
C600 C609 1.390 . S
C601 C600 1.387 . S
C601 C603 1.387 . S
H602 C609 0.950 . S
C603 C601 1.387 . S
C603 C605 1.390 . S
C603 H607 0.950 . S
H604 C600 0.950 . S
C605 C603 1.390 . S
C605 C606 1.387 . S
C605 H608 0.950 . S
C606 C605 1.387 . S
C606 C609 1.387 . S
H607 C603 0.950 . S
H608 C605 0.950 . S
C609 C600 1.390 . S
C609 H602 0.950 . S
C609 C606 1.387 . S
C610 C611 1.387 1_565 S
C610 H614 0.950 . S
C610 C619 1.390 . S
C611 C610 1.387 1_545 S
C611 C613 1.387 . S
H612 C619 0.950 . S
C613 C611 1.387 . S
C613 C615 1.390 . S
C613 H617 0.950 . S
H614 C610 0.950 . S
C615 C613 1.390 . S
C615 C616 1.387 . S
C615 H618 0.950 . S
C616 C615 1.387 . S
C616 C619 1.387 1_545 S
H617 C613 0.950 . S
H618 C615 0.950 . S
C619 C610 1.390 . S
C619 H612 0.950 . S
C619 C616 1.387 1_565 S
C620 C621 1.387 . S
C620 H624 0.950 . S
C620 C629 1.390 . S
C621 C620 1.387 . S
C621 C623 1.387 . S
H622 C629 0.950 . S
C623 C621 1.387 . S
C623 C625 1.390 . S
C623 H627 0.950 . S
H624 C620 0.950 . S
C625 C623 1.390 . S
C625 C626 1.387 . S
C625 H628 0.950 . S
C626 C625 1.387 . S
C626 C629 1.387 . S
H627 C623 0.950 . S
H628 C625 0.950 . S
C629 C620 1.390 . S
C629 H622 0.950 . S
C629 C626 1.387 . S
C630 C631 1.387 1_565 S
C630 H634 0.950 . S
C630 C639 1.390 . S
C631 C630 1.387 1_545 S
C631 C633 1.387 . S
H632 C639 0.950 . S
C633 C631 1.387 . S
C633 C635 1.391 . S
C633 H637 0.950 . S
H634 C630 0.950 . S
C635 C633 1.391 . S
C635 C636 1.391 1_545 S
C635 H638 0.946 . S
C636 C635 1.391 1_565 S
C636 C639 1.387 . S
H637 C633 0.950 . S
H638 C635 0.946 . S
C639 C630 1.390 . S
C639 H632 0.950 . S
C639 C636 1.387 . S
C640 C641 1.387 . S
C640 H644 0.950 . S
C640 C649 1.390 . S
C641 C640 1.387 . S
C641 C643 1.387 . S
H642 C649 0.950 . S
C643 C641 1.387 . S
C643 C645 1.390 . S
C643 H647 0.950 . S
H644 C640 0.950 . S
C645 C643 1.390 . S
C645 C646 1.387 . S
C645 H648 0.950 . S
C646 C645 1.387 . S
C646 C649 1.387 . S
H647 C643 0.950 . S
H648 C645 0.950 . S
C649 C640 1.390 . S
C649 H642 0.950 . S
C649 C646 1.387 . S
C650 C651 1.387 . S
C650 H654 0.950 . S
C650 C659 1.390 . S
C651 C650 1.387 . S
C651 C653 1.387 1_455 S
H652 C659 0.950 . S
C653 C651 1.387 1_655 S
C653 C655 1.390 . S
C653 H657 0.950 . S
H654 C650 0.950 . S
C655 C653 1.390 . S
C655 C656 1.390 1_655 S
C655 H658 0.950 . S
C656 C655 1.390 1_455 S
C656 C659 1.388 . S
H657 C653 0.950 . S
H658 C655 0.950 . S
C659 C650 1.390 . S
C659 H652 0.950 . S
C659 C656 1.388 . S
C481 C6 0.908 . S
C486 C451 0.989 . S
C491 C59 2.023 . S
C496 C301 1.845 . S
C501 C86 1.365 . S
C506 C361 1.395 . S
C511 C15 0.665 . S
C516 C421 0.605 . S
C526 C331 2.132 . S
C521 C50 2.159 . S
C536 C391 1.390 . S
C531 C95 1.367 . S
C541 C46 1.296 . S
C546 C181 1.287 . S
C551 C99 3.180 . S
C556 C271 3.174 . S
C561 C10 2.191 . S
C566 C151 2.193 . S
C576 C211 1.392 . S
C571 C55 1.355 . S
C586 C241 2.934 . S
C581 C90 3.119 . S
C591 C19 2.022 . S
C596 C121 1.853 . S
C606 C260 1.742 1_554 S
C601 C18 1.724 . S
C611 C49 1.323 . S
C616 C140 1.337 . S
C621 C98 1.452 . S
C626 C200 1.474 . S
C636 C380 1.459 . S
C631 C58 1.442 . S
C646 C440 1.076 . S
C641 C89 1.076 . S
C651 C9 1.315 . S
C656 C320 1.323 . S
