# Generated by pormake.
# Topology nom, (4,4)-cn, num edge types: 1
# Building blocks:
#     Node 0, Type 0, BuildingBlock: KUFVIS_clean_linker_0, # of connection points: 4
#     Node 1, Type 0, BuildingBlock: KUFVIS_clean_linker_0, # of connection points: 4
#     Node 2, Type 0, BuildingBlock: KUFVIS_clean_linker_0, # of connection points: 4
#     Node 3, Type 0, BuildingBlock: KUFVIS_clean_linker_0, # of connection points: 4
#     Node 4, Type 0, BuildingBlock: KUFVIS_clean_linker_0, # of connection points: 4
#     Node 5, Type 0, BuildingBlock: KUFVIS_clean_linker_0, # of connection points: 4
#     Node 6, Type 1, BuildingBlock: UXUYUI_clean_sbu_0, # of connection points: 4
#     Node 7, Type 1, BuildingBlock: UXUYUI_clean_sbu_0, # of connection points: 4
#     Node 8, Type 1, BuildingBlock: UXUYUI_clean_sbu_0, # of connection points: 4
#     Node 9, Type 1, BuildingBlock: UXUYUI_clean_sbu_0, # of connection points: 4
#     Node 10, Type 1, BuildingBlock: UXUYUI_clean_sbu_0, # of connection points: 4
#     Node 11, Type 1, BuildingBlock: UXUYUI_clean_sbu_0, # of connection points: 4
#     Edge 12, Type (0, 1), BuildingBlock: OJICUG_clean_linker_0, # of connection points: 2
#     Edge 13, Type (0, 1), BuildingBlock: OJICUG_clean_linker_0, # of connection points: 2
#     Edge 14, Type (0, 1), BuildingBlock: OJICUG_clean_linker_0, # of connection points: 2
#     Edge 15, Type (0, 1), BuildingBlock: OJICUG_clean_linker_0, # of connection points: 2
#     Edge 16, Type (0, 1), BuildingBlock: OJICUG_clean_linker_0, # of connection points: 2
#     Edge 17, Type (0, 1), BuildingBlock: OJICUG_clean_linker_0, # of connection points: 2
#     Edge 18, Type (0, 1), BuildingBlock: OJICUG_clean_linker_0, # of connection points: 2
#     Edge 19, Type (0, 1), BuildingBlock: OJICUG_clean_linker_0, # of connection points: 2
#     Edge 20, Type (0, 1), BuildingBlock: OJICUG_clean_linker_0, # of connection points: 2
#     Edge 21, Type (0, 1), BuildingBlock: OJICUG_clean_linker_0, # of connection points: 2
#     Edge 22, Type (0, 1), BuildingBlock: OJICUG_clean_linker_0, # of connection points: 2
#     Edge 23, Type (0, 1), BuildingBlock: OJICUG_clean_linker_0, # of connection points: 2
#     Edge 24, Type (0, 1), BuildingBlock: OJICUG_clean_linker_0, # of connection points: 2
#     Edge 25, Type (0, 1), BuildingBlock: OJICUG_clean_linker_0, # of connection points: 2
#     Edge 26, Type (0, 1), BuildingBlock: OJICUG_clean_linker_0, # of connection points: 2
#     Edge 27, Type (0, 1), BuildingBlock: OJICUG_clean_linker_0, # of connection points: 2
#     Edge 28, Type (0, 1), BuildingBlock: OJICUG_clean_linker_0, # of connection points: 2
#     Edge 29, Type (0, 1), BuildingBlock: OJICUG_clean_linker_0, # of connection points: 2
#     Edge 30, Type (0, 1), BuildingBlock: OJICUG_clean_linker_0, # of connection points: 2
#     Edge 31, Type (0, 1), BuildingBlock: OJICUG_clean_linker_0, # of connection points: 2
#     Edge 32, Type (0, 1), BuildingBlock: OJICUG_clean_linker_0, # of connection points: 2
#     Edge 33, Type (0, 1), BuildingBlock: OJICUG_clean_linker_0, # of connection points: 2
#     Edge 34, Type (0, 1), BuildingBlock: OJICUG_clean_linker_0, # of connection points: 2
#     Edge 35, Type (0, 1), BuildingBlock: OJICUG_clean_linker_0, # of connection points: 2
# Relax obj value: 0.035
# Max RMSD: 0.147
# Mean RMSD: 0.094
data_MOF--net-nom--node1-UXUYUI_clean_sbu_0--node2-KUFVIS_clean_linker_0--edge1-OJICUG_clean_linker_0
_symmetry_space_group_name_H-M    P1
_symmetry_Int_Tables_number       1
_symmetry_cell_setting            triclinic
loop_
_symmetry_equiv_pos_as_xyz
'x, y, z'
_cell_length_a     43.488729
_cell_length_b     43.520197
_cell_length_c     45.344339
_cell_angle_alpha  89.728754
_cell_angle_beta   90.142395
_cell_angle_gamma 119.99829
loop_
_atom_site_label
_atom_site_type_symbol
_atom_site_fract_x
_atom_site_fract_y
_atom_site_fract_z
_atom_type_partial_charge
H0 H 0.16025 0.60596 0.34151 0.0
H1 H 0.07375 0.57867 0.28196 0.0
H2 H 0.05362 0.5396 0.37201 0.0
H3 H 1.00303 0.54344 0.36343 0.0
H4 H 0.91788 0.47821 0.30493 0.0
H5 H 1.02525 0.52287 0.27484 0.0
C6 C 0.13189 0.59207 0.33723 0.0
C7 C 0.10822 0.57287 0.35986 0.0
C8 C 0.11956 0.59416 0.30927 0.0
C9 C 0.08292 0.57646 0.30367 0.0
C10 C 0.0584 0.55635 0.32615 0.0
C11 C 0.07158 0.55513 0.35441 0.0
C12 C 1.01938 0.5357 0.32002 0.0
C13 C 0.99435 0.53078 0.34214 0.0
C14 C 0.95784 0.50937 0.33678 0.0
C15 C 0.9462 0.49369 0.30919 0.0
C16 C 0.97025 0.49895 0.28668 0.0
C17 C 1.00681 0.51982 0.29215 0.0
H18 H 0.59715 0.15027 0.51218 0.0
H19 H 0.52709 0.07225 0.45044 0.0
H20 H 0.54323 0.04109 0.53762 0.0
H21 H 0.4903 0.99448 0.53011 0.0
H22 H 0.44969 0.91251 0.46524 0.0
H23 H 0.52041 0.01945 0.43805 0.0
C24 C 0.57959 0.12266 0.50648 0.0
C25 C 0.57124 0.0965 0.52783 0.0
C26 C 0.56405 0.11405 0.47852 0.0
C27 C 0.5398 0.07838 0.47185 0.0
C28 C 0.53223 0.05107 0.49272 0.0
C29 C 0.54814 0.06085 0.52092 0.0
C30 C 0.50842 1.01265 0.48511 0.0
C31 C 0.48932 0.98693 0.50729 0.0
C32 C 0.469 0.95084 0.50012 0.0
C33 C 0.46578 0.94042 0.47075 0.0
C34 C 0.48354 0.96518 0.44843 0.0
C35 C 0.50555 1.00103 0.45558 0.0
H36 H 0.5809 0.44984 0.63537 0.0
H37 H 0.52218 0.47644 0.69548 0.0
H38 H 0.54452 0.52027 0.60688 0.0
H39 H 0.4924 0.52069 0.61532 0.0
H40 H 0.47633 0.58531 0.67758 0.0
H41 H 0.53114 0.53152 0.70507 0.0
C42 C 0.56711 0.4643 0.64002 0.0
C43 C 0.56392 0.48502 0.61797 0.0
C44 C 0.5523 0.46134 0.66784 0.0
C45 C 0.53398 0.47949 0.6739 0.0
C46 C 0.53099 0.50132 0.6521 0.0
C47 C 0.54582 0.50344 0.62393 0.0
C48 C 0.5143 0.52331 0.65913 0.0
C49 C 0.49625 0.53174 0.63727 0.0
C50 C 0.48326 0.55478 0.64372 0.0
C51 C 0.48729 0.56844 0.67219 0.0
C52 C 0.50373 0.55938 0.69425 0.0
C53 C 0.51745 0.53718 0.68778 0.0
H54 H 0.16235 0.58837 0.80185 0.0
H55 H 0.08008 0.52643 0.864 0.0
H56 H 0.05355 0.5392 0.77431 0.0
H57 H 1.0055 0.48293 0.78589 0.0
H58 H 0.92267 0.45889 0.84864 0.0
H59 H 0.03033 0.53234 0.87206 0.0
C60 C 0.13428 0.57267 0.80706 0.0
C61 C 0.10911 0.5651 0.78492 0.0
C62 C 0.12393 0.5588 0.83544 0.0
C63 C 0.08773 0.53758 0.84204 0.0
C64 C 0.06166 0.53073 0.8203 0.0
C65 C 0.07283 0.54417 0.79149 0.0
C66 C 1.02305 0.51042 0.8279 0.0
C67 C 0.99742 0.48722 0.80734 0.0
C68 C 0.96124 0.46846 0.81494 0.0
C69 C 0.9506 0.47337 0.84272 0.0
C70 C 0.97539 0.49609 0.86322 0.0
C71 C 1.0115 0.51448 0.85596 0.0
H72 H 0.52241 0.91641 0.01273 0.0
H73 H 0.56493 1.00085 0.94934 0.0
H74 H 0.54727 0.02045 0.03975 0.0
H75 H 0.59712 0.07365 0.02989 0.0
H76 H 0.61006 0.15482 0.96917 0.0
H77 H 0.55477 0.04638 0.94118 0.0
C78 C 0.5329 0.94427 0.00751 0.0
C79 C 0.53476 0.96737 0.0296 0.0
C80 C 0.54315 0.95604 0.97861 0.0
C81 C 0.55609 0.99192 0.97165 0.0
C82 C 0.55847 1.01604 0.99368 0.0
C83 C 0.54686 1.00303 0.02259 0.0
C84 C 0.57304 0.05459 0.98673 0.0
C85 C 0.59181 0.08084 0.00836 0.0
C86 C 0.60441 0.11679 0.00211 0.0
C87 C 0.59916 0.12685 0.97415 0.0
C88 C 0.58206 0.10169 0.95204 0.0
C89 C 0.56873 0.0656 0.95837 0.0
H90 H 0.50549 0.6215 0.13377 0.0
H91 H 0.55807 0.58842 0.1956 0.0
H92 H 0.53639 0.54671 0.10661 0.0
H93 H 0.58918 0.54681 0.11602 0.0
H94 H 0.60003 0.47666 0.17629 0.0
H95 H 0.54576 0.53082 0.20431 0.0
C96 C 0.51775 0.60566 0.13887 0.0
C97 C 0.51974 0.58417 0.11713 0.0
C98 C 0.53149 0.60726 0.16704 0.0
C99 C 0.54724 0.5867 0.17374 0.0
C100 C 0.5495 0.56461 0.15201 0.0
C101 C 0.53575 0.56384 0.12356 0.0
C102 C 0.56489 0.54144 0.15906 0.0
C103 C 0.58381 0.53411 0.13747 0.0
C104 C 0.59579 0.51015 0.1435 0.0
C105 C 0.58971 0.49423 0.17131 0.0
C106 C 0.57243 0.50217 0.19336 0.0
C107 C 0.55993 0.52564 0.18724 0.0
Li108 Li 0.65531 0.42157 0.43024 0.0
Li109 Li 0.64736 0.3683 0.40647 0.0
Li110 Li 0.70289 0.42651 0.40087 0.0
Li111 Li 0.64866 0.4169 0.37668 0.0
C112 C 0.68411 0.39864 0.46689 0.0
N113 N 0.68469 0.40308 0.52766 0.0
C114 C 0.65583 0.37275 0.48338 0.0
C115 C 0.71283 0.42664 0.48129 0.0
C116 C 0.65658 0.3755 0.51409 0.0
C117 C 0.71259 0.42845 0.51204 0.0
C118 C 0.58246 0.3631 0.39361 0.0
C119 C 0.55066 0.32002 0.35563 0.0
N120 N 0.51969 0.31679 0.36556 0.0
C121 C 0.55034 0.35945 0.40337 0.0
C122 C 0.58267 0.3433 0.36949 0.0
C123 C 0.51888 0.33586 0.38893 0.0
C124 C 0.66279 0.47085 0.47491 0.0
N125 N 0.64136 0.43801 0.4636 0.0
C126 C 0.5957 0.42747 0.49814 0.0
C127 C 0.60838 0.41631 0.47469 0.0
C128 C 0.61728 0.46125 0.51033 0.0
C129 C 0.65129 0.48301 0.4985 0.0
H130 H 0.68872 0.48772 0.4656 0.0
H131 H 0.59196 0.39027 0.46531 0.0
C132 C 0.64559 0.30273 0.39953 0.0
N133 N 0.62761 0.3181 0.41074 0.0
C134 C 0.63335 0.26668 0.40432 0.0
C135 C 0.58391 0.26274 0.43168 0.0
C136 C 0.59702 0.29883 0.42622 0.0
C137 C 0.60248 0.24626 0.42115 0.0
H138 H 0.67003 0.31872 0.38761 0.0
H139 H 0.58339 0.31175 0.43519 0.0
C140 C 0.70965 0.49203 0.39703 0.0
N141 N 0.76587 0.56033 0.38998 0.0
C142 C 0.71158 0.5119 0.37207 0.0
C143 C 0.73626 0.50701 0.41847 0.0
C144 C 0.74023 0.54636 0.36889 0.0
C145 C 0.76448 0.54154 0.41448 0.0
C146 C 0.69448 0.39899 0.3441 0.0
C147 C 0.70476 0.43093 0.32932 0.0
C148 C 0.70472 0.37555 0.33297 0.0
C149 C 0.72516 0.43895 0.30369 0.0
C150 C 0.72513 0.38451 0.30728 0.0
N151 N 0.73485 0.41577 0.29329 0.0
C152 C 0.77042 0.43508 0.41431 0.0
C153 C 0.772 0.47351 0.37647 0.0
C154 C 0.8069 0.44806 0.41125 0.0
N155 N 0.75367 0.44771 0.39688 0.0
C156 C 0.80842 0.48734 0.37278 0.0
C157 C 0.82635 0.47433 0.39002 0.0
H158 H 0.7553 0.41437 0.43023 0.0
H159 H 0.75837 0.48313 0.36264 0.0
C160 C 0.61648 0.45172 0.35072 0.0
N161 N 0.62694 0.42768 0.34503 0.0
C162 C 0.6013 0.46214 0.32851 0.0
C163 C 0.60681 0.42187 0.29529 0.0
C164 C 0.62168 0.41208 0.3182 0.0
C165 C 0.59678 0.44759 0.30017 0.0
H166 H 0.62046 0.46317 0.37249 0.0
H167 H 0.62961 0.3925 0.31445 0.0
O168 O 0.68336 0.39693 0.43677 0.0
O169 O 0.61347 0.38635 0.40745 0.0
O170 O 0.68182 0.45817 0.40043 0.0
O171 O 0.67455 0.39065 0.3693 0.0
H172 H 0.63333 0.35102 0.47256 0.0
H173 H 0.735 0.44682 0.46888 0.0
H174 H 0.63475 0.35577 0.52712 0.0
H175 H 0.73456 0.45006 0.52348 0.0
H176 H 0.55044 0.30453 0.33696 0.0
H177 H 0.54972 0.37474 0.42188 0.0
H178 H 0.60722 0.34584 0.36148 0.0
H179 H 0.49383 0.33274 0.39627 0.0
H180 H 0.56958 0.40959 0.507 0.0
H181 H 0.66869 0.50927 0.50724 0.0
H182 H 0.64842 0.25515 0.39552 0.0
H183 H 0.56041 0.24839 0.44521 0.0
H184 H 0.69128 0.50085 0.35524 0.0
H185 H 0.73558 0.49188 0.43766 0.0
H186 H 0.74209 0.56197 0.34964 0.0
H187 H 0.78538 0.55332 0.43079 0.0
H188 H 0.69732 0.4495 0.33766 0.0
H189 H 0.697 0.35067 0.34402 0.0
H190 H 0.73335 0.46365 0.29212 0.0
H191 H 0.73324 0.3666 0.29845 0.0
H192 H 0.81962 0.43725 0.42502 0.0
H193 H 0.82207 0.50699 0.35569 0.0
H194 H 0.59348 0.4816 0.33344 0.0
H195 H 0.60431 0.41021 0.27375 0.0
Li196 Li 0.26773 0.64611 0.59873 0.0
Li197 Li 0.31351 0.63966 0.57432 0.0
Li198 Li 0.31236 0.69489 0.57022 0.0
Li199 Li 0.26781 0.64182 0.54573 0.0
C200 C 0.32869 0.66301 0.63199 0.0
N201 N 0.34684 0.64159 0.68343 0.0
C202 C 0.30834 0.62799 0.64189 0.0
C203 C 0.35824 0.68714 0.64827 0.0
C204 C 0.31796 0.61767 0.66793 0.0
C205 C 0.36699 0.6758 0.67422 0.0
C206 C 0.25409 0.5747 0.56089 0.0
C207 C 0.26556 0.5442 0.52194 0.0
N208 N 0.23863 0.51278 0.53212 0.0
C209 C 0.22654 0.54213 0.57095 0.0
C210 C 0.27379 0.5758 0.53617 0.0
C211 C 0.21914 0.51111 0.55612 0.0
C212 C 0.2019 0.60754 0.62664 0.0
N213 N 0.2361 0.63334 0.63125 0.0
C214 C 0.22297 0.64018 0.68105 0.0
C215 C 0.2469 0.64998 0.65767 0.0
C216 C 0.18741 0.61332 0.67713 0.0
C217 C 0.17697 0.59708 0.64936 0.0
H218 H 0.19402 0.59515 0.60521 0.0
H219 H 0.27414 0.67075 0.66066 0.0
C220 C 0.37762 0.63873 0.56656 0.0
N221 N 0.34412 0.61985 0.57751 0.0
C222 C 0.40174 0.62667 0.57057 0.0
C223 C 0.35613 0.57545 0.59634 0.0
C224 C 0.33288 0.5884 0.59171 0.0
C225 C 0.39138 0.59497 0.58622 0.0
H226 H 0.38588 0.66365 0.55535 0.0
H227 H 0.30614 0.57385 0.60029 0.0
C228 C 0.25114 0.69749 0.58346 0.0
N229 N 0.23247 0.74172 0.61201 0.0
C230 C 0.22224 0.70037 0.57353 0.0
C231 C 0.27055 0.7171 0.60793 0.0
C232 C 0.21323 0.72289 0.58826 0.0
C233 C 0.26068 0.7393 0.62206 0.0
C234 C 0.32836 0.68756 0.51255 0.0
C235 C 0.30717 0.70125 0.50256 0.0
C236 C 0.35828 0.69391 0.49634 0.0
C237 C 0.31631 0.72115 0.47651 0.0
C238 C 0.36654 0.71392 0.47039 0.0
N239 N 0.34556 0.72702 0.4611 0.0
C240 C 0.37466 0.76183 0.57789 0.0
C241 C 0.32808 0.7642 0.55276 0.0
C242 C 0.39708 0.79835 0.57389 0.0
N243 N 0.34106 0.74549 0.56696 0.0
C244 C 0.34958 0.80065 0.54815 0.0
C245 C 0.38486 0.81822 0.5583 0.0
H246 H 0.3843 0.74632 0.58914 0.0
H247 H 0.30131 0.75069 0.5442 0.0
C248 C 0.20204 0.61404 0.51792 0.0
N249 N 0.23633 0.62288 0.51312 0.0
C250 C 0.17737 0.60091 0.49495 0.0
C251 C 0.22376 0.60584 0.46262 0.0
C252 C 0.24741 0.61849 0.4863 0.0
C253 C 0.18818 0.59706 0.46667 0.0
H254 H 0.19396 0.61744 0.53964 0.0
H255 H 0.27474 0.62534 0.48313 0.0
O256 O 0.32001 0.67385 0.60648 0.0
O257 O 0.26145 0.60521 0.57524 0.0
O258 O 0.26008 0.6754 0.56925 0.0
O259 O 0.32015 0.66811 0.53807 0.0
H260 H 0.28531 0.60894 0.62967 0.0
H261 H 0.37426 0.71435 0.64092 0.0
H262 H 0.30245 0.59065 0.67582 0.0
H263 H 0.3898 0.69419 0.68704 0.0
H264 H 0.28058 0.54467 0.5028 0.0
H265 H 0.21105 0.54087 0.59006 0.0
H266 H 0.29524 0.60071 0.52805 0.0
H267 H 0.19789 0.4857 0.56368 0.0
H268 H 0.23252 0.65307 0.70214 0.0
H269 H 0.14983 0.5766 0.64517 0.0
H270 H 0.42846 0.64246 0.56207 0.0
H271 H 0.34698 0.55124 0.60896 0.0
H272 H 0.20696 0.68534 0.55463 0.0
H273 H 0.29301 0.71526 0.61594 0.0
H274 H 0.19093 0.72539 0.5808 0.0
H275 H 0.27546 0.75462 0.64101 0.0
H276 H 0.28382 0.69651 0.5147 0.0
H277 H 0.37495 0.68347 0.50375 0.0
H278 H 0.30014 0.73189 0.46855 0.0
H279 H 0.38962 0.71904 0.45762 0.0
H280 H 0.42393 0.81072 0.58238 0.0
H281 H 0.33906 0.81451 0.53553 0.0
H282 H 0.15018 0.59398 0.49931 0.0
H283 H 0.23362 0.60395 0.44121 0.0
Li284 Li 0.70824 0.30349 0.73969 0.0
Li285 Li 0.6519 0.25665 0.76334 0.0
Li286 Li 0.65921 0.25775 0.71062 0.0
Li287 Li 0.64883 0.30123 0.73404 0.0
C288 C 0.69316 0.22588 0.72942 0.0
N289 N 0.70011 0.1727 0.70284 0.0
C290 C 0.6706 0.19046 0.73736 0.0
C291 C 0.71931 0.2343 0.70803 0.0
C292 C 0.67455 0.16395 0.72366 0.0
C293 C 0.72238 0.20701 0.69484 0.0
C294 C 0.67876 0.30882 0.80037 0.0
C295 C 0.65047 0.3025 0.84745 0.0
N296 N 0.67954 0.30516 0.86118 0.0
C297 C 0.7084 0.31159 0.81493 0.0
C298 C 0.64958 0.30436 0.81671 0.0
C299 C 0.70827 0.30966 0.8457 0.0
C300 C 0.77302 0.36867 0.74511 0.0
N301 N 0.75829 0.3328 0.74485 0.0
C302 C 0.81454 0.33791 0.75546 0.0
C303 C 0.77826 0.31722 0.7496 0.0
C304 C 0.83043 0.37505 0.75695 0.0
C305 C 0.8092 0.3904 0.75114 0.0
H306 H 0.75642 0.38031 0.74146 0.0
H307 H 0.76584 0.28864 0.74963 0.0
C308 C 0.59936 0.20931 0.80386 0.0
N309 N 0.63431 0.22561 0.79647 0.0
C310 C 0.58648 0.18539 0.82743 0.0
C311 C 0.64564 0.19477 0.83482 0.0
C312 C 0.65744 0.2188 0.81133 0.0
C313 C 0.60973 0.17776 0.84313 0.0
H314 H 0.58137 0.21455 0.79132 0.0
H315 H 0.68503 0.2319 0.80475 0.0
C316 C 0.69801 0.31721 0.67533 0.0
N317 N 0.72306 0.33238 0.61806 0.0
C318 C 0.67556 0.31521 0.65236 0.0
C319 C 0.73325 0.32704 0.66913 0.0
C320 C 0.68871 0.32292 0.62357 0.0
C321 C 0.7454 0.33459 0.64005 0.0
C322 C 0.58459 0.24626 0.72755 0.0
C323 C 0.56868 0.23573 0.6998 0.0
C324 C 0.56772 0.25483 0.74957 0.0
C325 C 0.53613 0.23392 0.69459 0.0
C326 C 0.53523 0.25276 0.74347 0.0
N327 N 0.52023 0.24242 0.71634 0.0
C328 C 0.61848 0.19251 0.68336 0.0
C329 C 0.66642 0.23231 0.65319 0.0
C330 C 0.60693 0.16623 0.66184 0.0
N331 N 0.64728 0.22507 0.67849 0.0
C332 C 0.65549 0.20705 0.63086 0.0
C333 C 0.62506 0.17352 0.63483 0.0
H334 H 0.60438 0.18697 0.70408 0.0
H335 H 0.69022 0.25753 0.65017 0.0
C336 C 0.62983 0.35337 0.75084 0.0
N337 N 0.62723 0.33021 0.72957 0.0
C338 C 0.61377 0.37414 0.74684 0.0
C339 C 0.59234 0.34637 0.69945 0.0
C340 C 0.60912 0.32664 0.70418 0.0
C341 C 0.59458 0.37061 0.72085 0.0
H342 H 0.64458 0.35592 0.7708 0.0
H343 H 0.60752 0.30829 0.68755 0.0
O344 O 0.68903 0.25211 0.74195 0.0
O345 O 0.67801 0.3097 0.77025 0.0
O346 O 0.68585 0.31034 0.70375 0.0
O347 O 0.61667 0.24858 0.733 0.0
H348 H 0.64998 0.18347 0.75365 0.0
H349 H 0.73663 0.26155 0.70132 0.0
H350 H 0.65716 0.13639 0.72946 0.0
H351 H 0.74233 0.21311 0.6781 0.0
H352 H 0.62801 0.29888 0.86038 0.0
H353 H 0.73111 0.31484 0.80261 0.0
H354 H 0.62641 0.30208 0.80577 0.0
H355 H 0.73096 0.31162 0.85727 0.0
H356 H 0.82979 0.32483 0.75947 0.0
H357 H 0.81999 0.4188 0.75255 0.0
H358 H 0.55858 0.17266 0.8331 0.0
H359 H 0.66451 0.18998 0.84666 0.0
H360 H 0.64819 0.30734 0.6566 0.0
H361 H 0.75104 0.32867 0.6865 0.0
H362 H 0.67157 0.32131 0.60559 0.0
H363 H 0.77257 0.34214 0.63495 0.0
H364 H 0.58151 0.22957 0.68229 0.0
H365 H 0.57991 0.2637 0.77098 0.0
H366 H 0.52361 0.22595 0.67319 0.0
H367 H 0.52205 0.25956 0.76026 0.0
H368 H 0.58388 0.14058 0.66632 0.0
H369 H 0.67034 0.21423 0.61043 0.0
H370 H 0.6163 0.39269 0.76381 0.0
H371 H 0.57856 0.34335 0.67879 0.0
Li372 Li 0.42767 0.64785 0.92864 0.0
Li373 Li 0.43881 0.7035 0.90251 0.0
Li374 Li 0.37983 0.64518 0.89972 0.0
Li375 Li 0.43181 0.65171 0.87559 0.0
C376 C 0.4054 0.67909 0.9645 0.0
N377 N 0.41149 0.68396 0.02517 0.0
C378 C 0.43421 0.7084 0.97756 0.0
C379 C 0.37957 0.65236 0.98226 0.0
C380 C 0.43683 0.71036 0.00829 0.0
C381 C 0.38317 0.65528 0.01291 0.0
C382 C 0.49805 0.68227 0.89311 0.0
C383 C 0.54607 0.70517 0.85793 0.0
N384 N 0.555 0.681 0.86751 0.0
C385 C 0.50768 0.65763 0.90259 0.0
C386 C 0.51736 0.70624 0.87059 0.0
C387 C 0.53658 0.65744 0.88939 0.0
C388 C 0.42261 0.59752 0.97179 0.0
N389 N 0.44156 0.63181 0.96253 0.0
C390 C 0.48551 0.64476 -0.00045 0.0
C391 C 0.47246 0.65539 0.97585 0.0
C392 C 0.46643 0.60956 0.00971 0.0
C393 C 0.43447 0.58584 -0.00433 0.0
H394 H 0.39861 0.57907 0.96045 0.0
H395 H 0.4872 0.68239 0.96776 0.0
C396 C 0.44194 0.76982 0.90895 0.0
N397 N 0.46177 0.7539 0.90556 0.0
C398 C 0.45839 0.80627 0.91442 0.0
C399 C 0.51537 0.80946 0.91141 0.0
C400 C 0.49782 0.77295 0.9064 0.0
C401 C 0.49567 0.82656 0.91634 0.0
H402 H 0.41327 0.75393 0.90852 0.0
H403 H 0.513 0.75964 0.90422 0.0
C404 C 0.36751 0.57926 0.8977 0.0
N405 N 0.30505 0.51509 0.89282 0.0
C406 C 0.35968 0.5596 0.87168 0.0
C407 C 0.34354 0.56622 0.92122 0.0
C408 C 0.32798 0.52722 0.86966 0.0
C409 C 0.31211 0.53377 0.91832 0.0
C410 C 0.41079 0.68884 0.83877 0.0
C411 C 0.38984 0.66349 0.81778 0.0
C412 C 0.43454 0.7236 0.82979 0.0
C413 C 0.39318 0.6733 0.78806 0.0
C414 C 0.43706 0.73237 0.79987 0.0
N415 N 0.41652 0.70725 0.7798 0.0
C416 C 0.31093 0.63358 0.91601 0.0
C417 C 0.31296 0.60461 0.87258 0.0
C418 C 0.27437 0.62004 0.91234 0.0
N419 N 0.32941 0.62577 0.89614 0.0
C420 C 0.27656 0.59001 0.8684 0.0
C421 C 0.25679 0.59788 0.88826 0.0
H422 H 0.32466 0.65075 0.93443 0.0
H423 H 0.32815 0.59918 0.85684 0.0
C424 C 0.45164 0.60703 0.84839 0.0
N425 N 0.45019 0.63713 0.84354 0.0
C426 C 0.46543 0.59434 0.82699 0.0
C427 C 0.47694 0.64441 0.79618 0.0
C428 C 0.46338 0.65635 0.81835 0.0
C429 C 0.47787 0.61281 0.80021 0.0
H430 H 0.44227 0.59295 0.86909 0.0
H431 H 0.46387 0.68116 0.81545 0.0
O432 O 0.40289 0.67625 0.93447 0.0
O433 O 0.46924 0.68222 0.90522 0.0
O434 O 0.39828 0.61122 0.90001 0.0
O435 O 0.40771 0.67996 0.86802 0.0
H436 H 0.45455 0.72922 0.96413 0.0
H437 H 0.35707 0.62956 0.9725 0.0
H438 H 0.45908 0.7328 0.01871 0.0
H439 H 0.36346 0.63473 0.02694 0.0
H440 H 0.56107 0.72339 0.84033 0.0
H441 H 0.49273 0.63851 0.91966 0.0
H442 H 0.50976 0.72492 0.86246 0.0
H443 H 0.54424 0.63843 0.89642 0.0
H444 H 0.51004 0.66397 0.01006 0.0
H445 H 0.41912 0.55844 0.00279 0.0
H446 H 0.44195 0.81795 0.91862 0.0
H447 H 0.5441 0.8239 0.91234 0.0
H448 H 0.37753 0.56944 0.85304 0.0
H449 H 0.34884 0.58129 0.94133 0.0
H450 H 0.32153 0.51183 0.84962 0.0
H451 H 0.29325 0.5235 0.9363 0.0
H452 H 0.37164 0.63642 0.82424 0.0
H453 H 0.45093 0.74358 0.84572 0.0
H454 H 0.37729 0.65391 0.77155 0.0
H455 H 0.45538 0.75914 0.79261 0.0
H456 H 0.26005 0.62694 0.92799 0.0
H457 H 0.26422 0.57373 0.84918 0.0
H458 H 0.46634 0.57034 0.83143 0.0
H459 H 0.48595 0.65954 0.77589 0.0
Li460 Li 0.76606 0.42751 0.07359 0.0
Li461 Li 0.815 0.42007 0.09914 0.0
Li462 Li 0.81365 0.42682 0.04572 0.0
Li463 Li 0.76939 0.3737 0.06879 0.0
C464 C 0.83819 0.49256 0.06199 0.0
N465 N 0.8791 0.55414 0.03027 0.0
C466 C 0.87474 0.51257 0.06697 0.0
C467 C 0.82238 0.50391 0.04101 0.0
C468 C 0.89499 0.54362 0.05066 0.0
C469 C 0.84354 0.53511 0.02517 0.0
C470 C 0.73633 0.36392 0.11855 0.0
C471 C 0.71773 0.3109 0.14751 0.0
N472 N 0.68324 0.30098 0.14202 0.0
C473 C 0.70073 0.35333 0.11332 0.0
C474 C 0.74498 0.34267 0.13588 0.0
C475 C 0.67426 0.32137 0.12535 0.0
C476 C 0.70403 0.43167 0.06334 0.0
N477 N 0.73595 0.44723 0.07732 0.0
C478 C 0.72361 0.48939 0.09994 0.0
C479 C 0.74632 0.4759 0.09497 0.0
C480 C 0.68984 0.4731 0.08669 0.0
C481 C 0.68044 0.44423 0.06773 0.0
H482 H 0.69654 0.40888 0.04941 0.0
H483 H 0.77187 0.48766 0.10584 0.0
C484 C 0.88131 0.447 0.12652 0.0
N485 N 0.84589 0.43201 0.13174 0.0
C486 C 0.90512 0.45626 0.15002 0.0
C487 C 0.85535 0.43379 0.18366 0.0
C488 C 0.83257 0.4253 0.15955 0.0
C489 C 0.89215 0.44956 0.17903 0.0
H490 H 0.89099 0.45169 0.10406 0.0
H491 H 0.80428 0.4135 0.16297 0.0
C492 C 0.755 0.38605 0.00982 0.0
N493 N 0.7414 0.35544 0.95458 0.0
C494 C 0.76935 0.3649 0.00169 0.0
C495 C 0.73367 0.39159 0.98989 0.0
C496 C 0.76217 0.34965 0.97367 0.0
C497 C 0.72713 0.37591 0.96205 0.0
C498 C 0.83551 0.37132 0.06993 0.0
C499 C 0.8476 0.36275 0.04444 0.0
C500 C 0.83939 0.35872 0.0973 0.0
C501 C 0.86264 0.34101 0.04669 0.0
C502 C 0.8546 0.33707 0.09863 0.0
N503 N 0.86578 0.3287 0.07351 0.0
C504 C 0.87993 0.45473 0.01946 0.0
C505 C 0.83654 0.45398 0.98728 0.0
C506 C 0.90557 0.46885 -0.00269 0.0
N507 N 0.84614 0.4472 0.01397 0.0
C508 C 0.8612 0.46764 0.96434 0.0
C509 C 0.89624 0.47492 0.96908 0.0
H510 H 0.88686 0.44952 0.04111 0.0
H511 H 0.80966 0.44836 0.98364 0.0
C512 C 0.70696 0.31218 0.05172 0.0
N513 N 0.73888 0.323 0.06483 0.0
C514 C 0.68344 0.27621 0.04688 0.0
C515 C 0.72522 0.26269 0.07027 0.0
C516 C 0.74803 0.29903 0.07458 0.0
C517 C 0.69256 0.25083 0.05589 0.0
H518 H 0.69989 0.33161 0.04466 0.0
H519 H 0.77292 0.30789 0.08574 0.0
O520 O 0.81804 0.46147 0.07696 0.0
O521 O 0.7626 0.39454 0.1062 0.0
O522 O 0.76175 0.40145 0.03707 0.0
O523 O 0.82136 0.39317 0.06818 0.0
H524 H 0.88737 0.50405 0.08306 0.0
H525 H 0.79414 0.4885 0.03672 0.0
H526 H 0.92334 0.55931 0.05416 0.0
H527 H 0.83172 0.54412 0.00874 0.0
H528 H 0.72402 0.29406 0.1608 0.0
H529 H 0.69363 0.36943 0.09983 0.0
H530 H 0.77242 0.3504 0.13999 0.0
H531 H 0.64658 0.31272 0.12133 0.0
H532 H 0.7318 0.51128 0.1151 0.0
H533 H 0.65481 0.43102 0.05691 0.0
H534 H 0.93327 0.46824 0.14557 0.0
H535 H 0.84434 0.42875 0.20572 0.0
H536 H 0.78563 0.36013 0.0169 0.0
H537 H 0.7224 0.40796 -0.00415 0.0
H538 H 0.77308 0.33318 0.96711 0.0
H539 H 0.71072 0.38003 0.94638 0.0
H540 H 0.84558 0.37291 0.02314 0.0
H541 H 0.83039 0.3652 0.11728 0.0
H542 H 0.87196 0.33404 0.02713 0.0
H543 H 0.85751 0.32691 0.11963 0.0
H544 H 0.93231 0.47462 0.00222 0.0
H545 H 0.8525 0.47135 0.94291 0.0
H546 H 0.65884 0.26855 0.03533 0.0
H547 H 0.73317 0.24411 0.07802 0.0
Li548 Li 0.42176 0.80222 0.26613 0.0
Li549 Li 0.37163 0.75682 0.23905 0.0
Li550 Li 0.43045 0.76062 0.23799 0.0
Li551 Li 0.42225 0.80521 0.21185 0.0
C552 C 0.39817 0.74403 0.30144 0.0
N553 N 0.39902 0.7336 0.36154 0.0
C554 C 0.36643 0.72785 0.31744 0.0
C555 C 0.43026 0.75451 0.31596 0.0
C556 C 0.36744 0.7229 0.34782 0.0
C557 C 0.43017 0.74913 0.34636 0.0
C558 C 0.36918 0.81955 0.25538 0.0
C559 C 0.3517 0.86303 0.26555 0.0
N560 N 0.33064 0.84226 0.28789 0.0
C561 C 0.34734 0.79865 0.27841 0.0
C562 C 0.37137 0.852 0.24885 0.0
C563 C 0.32808 0.81057 0.29459 0.0
C564 C 0.46614 0.86515 0.29641 0.0
N565 N 0.43595 0.83314 0.2993 0.0
C566 C 0.42425 0.8497 0.34624 0.0
C567 C 0.41515 0.82504 0.32367 0.0
C568 C 0.45497 0.8832 0.34369 0.0
C569 C 0.47636 0.89066 0.31857 0.0
H570 H 0.48185 0.87121 0.27654 0.0
H571 H 0.39099 0.7998 0.3254 0.0
C572 C 0.30991 0.69175 0.24971 0.0
N573 N 0.32144 0.725 0.23914 0.0
C574 C 0.27375 0.66857 0.25437 0.0
C575 C 0.26173 0.7136 0.23564 0.0
C576 C 0.29819 0.73589 0.23124 0.0
C577 C 0.24914 0.67972 0.24806 0.0
H578 H 0.32902 0.68381 0.25579 0.0
H579 H 0.30802 0.7624 0.22265 0.0
C580 C 0.4948 0.81904 0.23756 0.0
N581 N 0.56302 0.82998 0.23465 0.0
C582 C 0.51119 0.82298 0.21023 0.0
C583 C 0.51335 0.82131 0.26342 0.0
C584 C 0.54562 0.82829 0.20921 0.0
C585 C 0.54776 0.82669 0.26149 0.0
C586 C 0.37668 0.74435 0.17972 0.0
C587 C 0.3724 0.71659 0.16162 0.0
C588 C 0.3591 0.76296 0.1728 0.0
C589 C 0.35048 0.70783 0.13683 0.0
C590 C 0.3374 0.75337 0.14784 0.0
N591 N 0.33357 0.72624 0.13052 0.0
C592 C 0.45748 0.71428 0.25557 0.0
C593 C 0.46778 0.73578 0.20639 0.0
C594 C 0.47481 0.69501 0.25014 0.0
N595 N 0.45444 0.7342 0.23375 0.0
C596 C 0.4856 0.71743 0.20013 0.0
C597 C 0.48926 0.6966 0.2221 0.0
H598 H 0.44606 0.71286 0.277 0.0
H599 H 0.46424 0.75113 0.18927 0.0
C600 C 0.44543 0.87062 0.18259 0.0
N601 N 0.43841 0.83668 0.17923 0.0
C602 C 0.46153 0.89534 0.15979 0.0
C603 C 0.46258 0.84947 0.13064 0.0
C604 C 0.44624 0.82566 0.15382 0.0
C605 C 0.47098 0.88495 0.13368 0.0
H606 H 0.43969 0.87879 0.20335 0.0
H607 H 0.44099 0.79869 0.15197 0.0
O608 O 0.39774 0.7493 0.27169 0.0
O609 O 0.38846 0.80848 0.23935 0.0
O610 O 0.46089 0.81328 0.23899 0.0
O611 O 0.39811 0.75318 0.20401 0.0
H612 H 0.34129 0.71941 0.3066 0.0
H613 H 0.45497 0.76673 0.30389 0.0
H614 H 0.34311 0.7106 0.3605 0.0
H615 H 0.45487 0.75729 0.35789 0.0
H616 H 0.35316 0.88809 0.26074 0.0
H617 H 0.34546 0.77359 0.28389 0.0
H618 H 0.38804 0.8685 0.23105 0.0
H619 H 0.31115 0.79465 0.31252 0.0
H620 H 0.4073 0.84262 0.36548 0.0
H621 H 0.50013 0.91622 0.31569 0.0
H622 H 0.26543 0.64295 0.26436 0.0
H623 H 0.2437 0.72315 0.23021 0.0
H624 H 0.49733 0.82151 0.19 0.0
H625 H 0.50141 0.81917 0.28477 0.0
H626 H 0.55848 0.83103 0.18819 0.0
H627 H 0.56236 0.82835 0.28134 0.0
H628 H 0.38591 0.702 0.16668 0.0
H629 H 0.3622 0.78462 0.18646 0.0
H630 H 0.34692 0.6864 0.12261 0.0
H631 H 0.32362 0.76752 0.14222 0.0
H632 H 0.4768 0.67902 0.26758 0.0
H633 H 0.49545 0.71868 0.17799 0.0
H634 H 0.46781 0.92252 0.16298 0.0
H635 H 0.46913 0.84037 0.11069 0.0
C636 C 0.16154 0.59939 0.26988 0.0
C637 C 0.14619 0.61524 0.28662 0.0
H638 H 0.20602 0.60747 0.24379 0.0
C639 C 0.16225 0.65232 0.28701 0.0
H640 H 0.14984 0.5708 0.26978 0.0
C641 C 0.19452 0.67336 0.27249 0.0
C642 C 0.21148 0.65763 0.25758 0.0
H643 H 0.15119 0.66501 0.30037 0.0
H644 H 0.20746 0.70189 0.27493 0.0
C645 C 0.19387 0.62039 0.25539 0.0
C646 C 0.54646 0.15046 0.44721 0.0
C647 C 0.57286 0.14352 0.45752 0.0
H648 H 0.53504 0.18841 0.42717 0.0
C649 C 0.60865 0.16855 0.45218 0.0
H650 H 0.51869 0.13168 0.45128 0.0
C651 C 0.61807 0.20102 0.43881 0.0
C652 C 0.5919 0.20932 0.43041 0.0
H653 H 0.62949 0.16383 0.46003 0.0
H654 H 0.64602 0.22046 0.43688 0.0
C655 C 0.5559 0.18313 0.43381 0.0
C656 C 0.43114 0.53836 0.61059 0.0
C657 C 0.46396 0.56435 0.62193 0.0
H658 H 0.38239 0.52759 0.58984 0.0
C659 C 0.47475 0.6003 0.61741 0.0
H660 H 0.42212 0.51047 0.61403 0.0
C661 C 0.45202 0.61016 0.60404 0.0
C662 C 0.41786 0.58426 0.59484 0.0
H663 H 0.49989 0.62083 0.62613 0.0
H664 H 0.46037 0.63811 0.60292 0.0
C665 C 0.40826 0.54823 0.59716 0.0
C666 C 0.9127 0.40742 0.8043 0.0
C667 C 0.93341 0.44279 0.79499 0.0
H668 H 0.86403 0.35858 0.79993 0.0
C669 C 0.9224 0.4546 0.77048 0.0
H670 H 0.9205 0.39793 0.82345 0.0
C671 C 0.88979 0.43199 0.75683 0.0
C672 C 0.86772 0.39724 0.76754 0.0
H673 H 0.93776 0.48195 0.76321 0.0
H674 H 0.8812 0.4422 0.73872 0.0
C675 C 0.88028 0.3849 0.79075 0.0
C676 C 0.51253 0.91907 0.93447 0.0
C677 C 0.53862 0.92931 0.9564 0.0
H678 H 0.47868 0.87857 0.90401 0.0
C679 C 0.55418 0.90828 0.96162 0.0
H680 H 0.49987 0.9347 0.93033 0.0
C681 C 0.54175 0.87601 0.94711 0.0
C682 C 0.51344 0.86399 0.92694 0.0
H683 H 0.5741 0.91551 0.97869 0.0
H684 H 0.55261 0.85937 0.95352 0.0
C685 C 0.50003 0.88665 0.91982 0.0
C686 C 0.60513 0.46674 0.1151 0.0
C687 C 0.61641 0.50223 0.12202 0.0
H688 H 0.61944 0.42974 0.09856 0.0
C689 C 0.65045 0.52877 0.11336 0.0
H690 H 0.57906 0.4458 0.1218 0.0
C691 C 0.67384 0.51961 0.10013 0.0
C692 C 0.66345 0.48376 0.09523 0.0
H693 H 0.65983 0.55628 0.11877 0.0
H694 H 0.70057 0.54043 0.09498 0.0
C695 C 0.62833 0.45759 0.10176 0.0
C696 C 0.46518 0.89945 0.52707 0.0
C697 C 0.45191 0.92259 0.52258 0.0
H698 H 0.45446 0.84836 0.5417 0.0
C699 C 0.41839 0.91349 0.53379 0.0
H700 H 0.49075 0.90576 0.51807 0.0
C701 C 0.39738 0.88046 0.54744 0.0
C702 C 0.40949 0.85593 0.54983 0.0
H703 H 0.40747 0.93076 0.53012 0.0
H704 H 0.37098 0.87344 0.55475 0.0
C705 C 0.44427 0.86651 0.5406 0.0
C706 C 0.5349 0.40195 0.68825 0.0
C707 C 0.55691 0.43886 0.68977 0.0
H708 H 0.52929 0.35113 0.69764 0.0
C709 C 0.58861 0.45303 0.70596 0.0
H710 H 0.51066 0.39054 0.67538 0.0
C711 C 0.59957 0.43058 0.71844 0.0
C712 C 0.57911 0.39365 0.71456 0.0
H713 H 0.60633 0.48148 0.70678 0.0
H714 H 0.62541 0.44228 0.72887 0.0
C715 C 0.54583 0.37951 0.70064 0.0
C716 C 0.16291 0.54031 0.86058 0.0
C717 C 0.15213 0.56554 0.85693 0.0
H718 H 0.20481 0.53082 0.87381 0.0
C719 C 0.17362 0.59995 0.86794 0.0
H720 H 0.14698 0.51382 0.85174 0.0
C721 C 0.2066 0.60971 0.88062 0.0
C722 C 0.21884 0.58534 0.88192 0.0
H723 H 0.16601 0.61995 0.86479 0.0
H724 H 0.22368 0.63705 0.88714 0.0
C725 C 0.19607 0.55016 0.87291 0.0
C726 C 0.66196 0.15885 0.02558 0.0
C727 C 0.62523 0.14522 0.02344 0.0
H728 H 0.71224 0.2032 0.03732 0.0
C729 C 0.61025 0.16422 0.03578 0.0
H730 H 0.67406 0.14491 0.01557 0.0
C731 C 0.63196 0.19751 0.04835 0.0
C732 C 0.66913 0.2127 0.04833 0.0
H733 H 0.58198 0.15432 0.03395 0.0
H734 H 0.61972 0.21211 0.05673 0.0
C735 C 0.68377 0.19232 0.03794 0.0
C736 C 0.49988 0.6166 0.20869 0.0
C737 C 0.52828 0.63073 0.18866 0.0
H738 H 0.46515 0.62666 0.23526 0.0
C739 C 0.54739 0.6675 0.18381 0.0
H740 H 0.48436 0.58819 0.21223 0.0
C741 C 0.53639 0.68945 0.19675 0.0
C742 C 0.50589 0.67498 0.21461 0.0
H743 H 0.56908 0.67884 0.16811 0.0
H744 H 0.55041 0.71745 0.19125 0.0
C745 C 0.48881 0.63861 0.22169 0.0
C746 C 0.92145 0.52985 0.36349 0.0
C747 C 0.93045 0.5035 0.35878 0.0
H748 H 0.88131 0.54138 0.37763 0.0
C749 C 0.90746 0.46884 0.36884 0.0
H750 H 0.93856 0.55661 0.35544 0.0
C751 C 0.87465 0.45998 0.38123 0.0
C752 C 0.86407 0.48557 0.3835 0.0
H753 H 0.91368 0.448 0.36493 0.0
H754 H 0.85648 0.43245 0.38672 0.0
C755 C 0.88849 0.52096 0.37576 0.0
C756 C 0.14616 0.55939 0.39239 0.0
C757 C 0.1228 0.57261 0.3892 0.0
H758 H 0.1841 0.55547 0.41978 0.0
C759 C 0.11811 0.59061 0.41274 0.0
H760 H 0.15015 0.54547 0.37439 0.0
C761 C 0.13827 0.59731 0.43847 0.0
C762 C 0.16323 0.58578 0.44118 0.0
H763 H 0.10057 0.60145 0.41049 0.0
H764 H 0.13567 0.61323 0.45548 0.0
C765 C 0.1659 0.56558 0.41822 0.0
C766 C 0.62114 0.1267 0.56341 0.0
C767 C 0.5845 0.1079 0.558 0.0
H768 H 0.66279 0.16092 0.59263 0.0
C769 C 0.56108 0.10675 0.5797 0.0
H770 H 0.63961 0.12803 0.54676 0.0
C771 C 0.57422 0.12655 0.60549 0.0
C772 C 0.61109 0.14753 0.61017 0.0
H773 H 0.53272 0.09288 0.57565 0.0
H774 H 0.55542 0.12725 0.62068 0.0
C775 C 0.63432 0.14597 0.58944 0.0
C776 C 0.52333 0.60817 0.73058 0.0
C777 C 0.50393 0.57181 0.72437 0.0
H778 H 0.53145 0.64963 0.76017 0.0
C779 C 0.47922 0.54845 0.74493 0.0
H780 H 0.54233 0.62657 0.71476 0.0
C781 C 0.47206 0.5616 0.77045 0.0
C782 C 0.48977 0.59836 0.77591 0.0
H783 H 0.46356 0.52036 0.74017 0.0
H784 H 0.45098 0.54311 0.78481 0.0
C785 C 0.51663 0.62131 0.75631 0.0
C786 C 0.94091 0.51362 0.89572 0.0
C787 C 0.96252 0.49841 0.89263 0.0
H788 H 0.90399 0.51936 0.92286 0.0
C789 C 0.96563 0.47911 0.9161 0.0
H790 H 0.93799 0.52833 0.87764 0.0
C791 C 0.94543 0.47298 0.94163 0.0
C792 C 0.92195 0.48631 0.94418 0.0
H793 H 0.98168 0.46661 0.91381 0.0
H794 H 0.94657 0.45587 0.95847 0.0
C795 C 0.92109 0.50796 0.92141 0.0
C796 C 0.53631 0.9321 0.07221 0.0
C797 C 0.52318 0.9528 0.05965 0.0
H798 H 0.53014 0.89463 0.1056 0.0
C799 C 0.49537 0.95454 0.07374 0.0
H800 H 0.55797 0.93061 0.06187 0.0
C801 C 0.47925 0.93373 0.09884 0.0
C802 C 0.49071 0.9109 0.10996 0.0
H803 H 0.48467 0.97015 0.0643 0.0
H804 H 0.45661 0.93396 0.10851 0.0
C805 C 0.52022 0.91133 0.09705 0.0
C806 C 0.58875 0.51041 0.24657 0.0
C807 C 0.57049 0.4875 0.22316 0.0
H808 H 0.61205 0.51586 0.28916 0.0
C809 C 0.55656 0.45086 0.22687 0.0
H810 H 0.60013 0.53882 0.244 0.0
C811 C 0.56306 0.43757 0.25276 0.0
C812 C 0.58406 0.46074 0.27528 0.0
H813 H 0.54235 0.43274 0.20904 0.0
H814 H 0.55296 0.40929 0.25456 0.0
C815 C 0.59561 0.49717 0.27239 0.0
C816 C 0.44458 0.93473 0.40582 0.0
C817 C 0.47883 0.95209 0.41793 0.0
H818 H 0.41038 0.89989 0.3724 0.0
C819 C 0.50639 0.9504 0.4034 0.0
H820 H 0.42296 0.93564 0.41684 0.0
C821 C 0.49913 0.92943 0.37817 0.0
C822 C 0.4642 0.90987 0.36731 0.0
H823 H 0.53287 0.96322 0.41272 0.0
H824 H 0.52034 0.92676 0.36832 0.0
C825 C 0.43736 0.91396 0.38068 0.0
C826 C 0.61481 0.4946 0.58654 0.0
C827 C 0.5792 0.48607 0.58871 0.0
H828 H 0.65472 0.49335 0.56 0.0
C829 C 0.55712 0.47298 0.56389 0.0
H830 H 0.63223 0.5046 0.60552 0.0
C831 C 0.56988 0.46621 0.53786 0.0
C832 C 0.60498 0.47278 0.53625 0.0
H833 H 0.52949 0.46594 0.5652 0.0
H834 H 0.55199 0.45478 0.51932 0.0
C835 C 0.62764 0.48817 0.56052 0.0
C836 C 0.11746 0.55348 0.73266 0.0
C837 C 0.122 0.57781 0.75477 0.0
H838 H 0.13513 0.54548 0.69094 0.0
C839 C 0.14471 0.61416 0.74967 0.0
H840 H 0.10047 0.52526 0.7364 0.0
C841 C 0.16432 0.62589 0.72361 0.0
C842 C 0.16209 0.60141 0.70234 0.0
H843 H 0.14863 0.63335 0.76654 0.0
H844 H 0.18228 0.65406 0.72067 0.0
C845 C 0.13743 0.56514 0.70669 0.0
C846 C 0.59985 0.10854 0.89917 0.0
C847 C 0.58167 0.11452 0.9219 0.0
H848 H 0.62318 0.12416 0.85619 0.0
C849 C 0.56919 0.13832 0.91718 0.0
H850 H 0.61009 0.09063 0.90248 0.0
C851 C 0.57665 0.15747 0.89083 0.0
C852 C 0.59713 0.15347 0.86891 0.0
H853 H 0.55534 0.14351 0.93455 0.0
H854 H 0.56826 0.17696 0.88839 0.0
C855 C 0.60772 0.12804 0.87292 0.0
C856 C 0.52801 0.6005 0.06385 0.0
C857 C 0.50512 0.58405 0.08776 0.0
H858 H 0.53357 0.62165 0.02012 0.0
C859 C 0.46892 0.57303 0.08488 0.0
H860 H 0.55611 0.60961 0.06584 0.0
C861 C 0.45602 0.57977 0.05888 0.0
C862 C 0.47925 0.59819 0.03553 0.0
H863 H 0.45097 0.56066 0.10328 0.0
H864 H 0.42826 0.57231 0.05769 0.0
C865 C 0.5152 0.60772 0.03794 0.0
C866 C 0.96641 0.50597 0.23218 0.0
C867 C 0.95603 0.48394 0.25722 0.0
H868 H 0.95397 0.51232 0.18758 0.0
C869 C 0.92769 0.44893 0.25492 0.0
H870 H 0.98799 0.53315 0.23345 0.0
C871 C 0.90813 0.43714 0.22891 0.0
C872 C 0.91661 0.46005 0.20459 0.0
H873 H 0.91945 0.43127 0.27383 0.0
H874 H 0.88545 0.41051 0.2282 0.0
C875 C 0.94683 0.49409 0.20601 0.0
loop_
_geom_bond_atom_site_label_1
_geom_bond_atom_site_label_2
_geom_bond_distance
_geom_bond_site_symmetry_2
_ccdc_geom_bond_type
H0 C6 0.930 . S
H1 C9 0.931 . S
H2 C11 0.931 . S
H3 C13 0.930 . S
H4 C15 0.930 . S
H5 C17 0.931 1_455 S
C6 H0 0.930 . S
C6 C7 1.380 . S
C6 C8 1.394 . S
C7 C6 1.380 . S
C7 C11 1.382 . S
C8 C6 1.394 . S
C8 C9 1.400 . S
C9 H1 0.931 . S
C9 C8 1.400 . S
C9 C10 1.375 . S
C10 C9 1.375 . S
C10 C11 1.415 . S
C10 C12 1.501 1_455 S
C11 H2 0.931 . S
C11 C7 1.382 . S
C11 C10 1.415 . S
C12 C10 1.501 1_655 S
C12 C13 1.384 . S
C12 C17 1.408 . S
C13 H3 0.930 . S
C13 C12 1.384 . S
C13 C14 1.389 . S
C14 C13 1.389 . S
C14 C15 1.405 . S
C15 H4 0.930 . S
C15 C14 1.405 . S
C15 C16 1.364 . S
C16 C15 1.364 . S
C16 C17 1.400 . S
C17 H5 0.931 1_655 S
C17 C12 1.408 . S
C17 C16 1.400 . S
H18 C24 0.930 . S
H19 C27 0.931 . S
H20 C29 0.931 . S
H21 C31 0.930 . S
H22 C33 0.930 . S
H23 C35 0.931 1_545 S
C24 H18 0.930 . S
C24 C25 1.380 . S
C24 C26 1.394 . S
C25 C24 1.380 . S
C25 C29 1.382 . S
C26 C24 1.394 . S
C26 C27 1.400 . S
C27 H19 0.931 . S
C27 C26 1.400 . S
C27 C28 1.375 . S
C28 C27 1.375 . S
C28 C29 1.415 . S
C28 C30 1.501 1_545 S
C29 H20 0.931 . S
C29 C25 1.382 . S
C29 C28 1.415 . S
C30 C28 1.501 1_565 S
C30 C31 1.384 . S
C30 C35 1.408 . S
C31 H21 0.930 . S
C31 C30 1.384 . S
C31 C32 1.389 . S
C32 C31 1.389 . S
C32 C33 1.405 . S
C33 H22 0.930 . S
C33 C32 1.405 . S
C33 C34 1.364 . S
C34 C33 1.364 . S
C34 C35 1.400 . S
C35 H23 0.931 1_565 S
C35 C30 1.408 . S
C35 C34 1.400 . S
H36 C42 0.930 . S
H37 C45 0.931 . S
H38 C47 0.931 . S
H39 C49 0.930 . S
H40 C51 0.930 . S
H41 C53 0.931 . S
C42 H36 0.930 . S
C42 C43 1.380 . S
C42 C44 1.394 . S
C43 C42 1.380 . S
C43 C47 1.382 . S
C44 C42 1.394 . S
C44 C45 1.400 . S
C45 H37 0.931 . S
C45 C44 1.400 . S
C45 C46 1.375 . S
C46 C45 1.375 . S
C46 C47 1.415 . S
C46 C48 1.501 . S
C47 H38 0.931 . S
C47 C43 1.382 . S
C47 C46 1.415 . S
C48 C46 1.501 . S
C48 C49 1.384 . S
C48 C53 1.408 . S
C49 H39 0.930 . S
C49 C48 1.384 . S
C49 C50 1.389 . S
C50 C49 1.389 . S
C50 C51 1.405 . S
C51 H40 0.930 . S
C51 C50 1.405 . S
C51 C52 1.364 . S
C52 C51 1.364 . S
C52 C53 1.400 . S
C53 H41 0.931 . S
C53 C48 1.408 . S
C53 C52 1.400 . S
H54 C60 0.930 . S
H55 C63 0.931 . S
H56 C65 0.931 . S
H57 C67 0.930 . S
H58 C69 0.930 . S
H59 C71 0.931 1_455 S
C60 H54 0.930 . S
C60 C61 1.380 . S
C60 C62 1.394 . S
C61 C60 1.380 . S
C61 C65 1.382 . S
C62 C60 1.394 . S
C62 C63 1.400 . S
C63 H55 0.931 . S
C63 C62 1.400 . S
C63 C64 1.375 . S
C64 C63 1.375 . S
C64 C65 1.415 . S
C64 C66 1.501 1_455 S
C65 H56 0.931 . S
C65 C61 1.382 . S
C65 C64 1.415 . S
C66 C64 1.501 1_655 S
C66 C67 1.384 . S
C66 C71 1.408 . S
C67 H57 0.930 . S
C67 C66 1.384 . S
C67 C68 1.389 . S
C68 C67 1.389 . S
C68 C69 1.405 . S
C69 H58 0.930 . S
C69 C68 1.405 . S
C69 C70 1.364 . S
C70 C69 1.364 . S
C70 C71 1.400 . S
C71 H59 0.931 1_655 S
C71 C66 1.408 . S
C71 C70 1.400 . S
H72 C78 0.930 . S
H73 C81 0.931 . S
H74 C83 0.931 1_545 S
H75 C85 0.930 . S
H76 C87 0.930 . S
H77 C89 0.931 . S
C78 H72 0.930 . S
C78 C79 1.380 . S
C78 C80 1.394 1_554 S
C79 C78 1.380 . S
C79 C83 1.382 . S
C80 C78 1.394 1_556 S
C80 C81 1.400 . S
C81 H73 0.931 . S
C81 C80 1.400 . S
C81 C82 1.375 . S
C82 C81 1.375 . S
C82 C83 1.415 1_556 S
C82 C84 1.501 1_565 S
C83 H74 0.931 1_565 S
C83 C79 1.382 . S
C83 C82 1.415 1_554 S
C84 C82 1.501 1_545 S
C84 C85 1.384 1_556 S
C84 C89 1.408 . S
C85 H75 0.930 . S
C85 C84 1.384 1_554 S
C85 C86 1.389 . S
C86 C85 1.389 . S
C86 C87 1.407 1_554 S
C87 H76 0.930 . S
C87 C86 1.407 1_556 S
C87 C88 1.364 . S
C88 C87 1.364 . S
C88 C89 1.400 . S
C89 H77 0.931 . S
C89 C84 1.408 . S
C89 C88 1.400 . S
H90 C96 0.930 . S
H91 C99 0.931 . S
H92 C101 0.931 . S
H93 C103 0.930 . S
H94 C105 0.930 . S
H95 C107 0.931 . S
C96 H90 0.930 . S
C96 C97 1.380 . S
C96 C98 1.394 . S
C97 C96 1.380 . S
C97 C101 1.382 . S
C98 C96 1.394 . S
C98 C99 1.400 . S
C99 H91 0.931 . S
C99 C98 1.400 . S
C99 C100 1.375 . S
C100 C99 1.375 . S
C100 C101 1.415 . S
C100 C102 1.501 . S
C101 H92 0.931 . S
C101 C97 1.382 . S
C101 C100 1.415 . S
C102 C100 1.501 . S
C102 C103 1.384 . S
C102 C107 1.408 . S
C103 H93 0.930 . S
C103 C102 1.384 . S
C103 C104 1.389 . S
C104 C103 1.389 . S
C104 C105 1.405 . S
C105 H94 0.930 . S
C105 C104 1.405 . S
C105 C106 1.364 . S
C106 C105 1.364 . S
C106 C107 1.400 . S
C107 H95 0.931 . S
C107 C102 1.408 . S
C107 C106 1.400 . S
Li108 N125 1.990 . S
Li108 O168 1.956 . S
Li108 O169 1.970 . S
Li108 O170 1.961 . S
Li109 N133 1.990 . S
Li109 O168 1.970 . S
Li109 O169 1.956 . S
Li109 O171 1.961 . S
Li110 N155 1.990 . S
Li110 O168 1.961 . S
Li110 O170 1.956 . S
Li110 O171 1.970 . S
Li111 N161 1.990 . S
Li111 O169 1.961 . S
Li111 O170 1.970 . S
Li111 O171 1.956 . S
C112 C114 1.348 . S
C112 C115 1.356 . S
C112 O168 1.325 . S
N113 C116 1.314 . S
N113 C117 1.279 . S
C114 C112 1.348 . S
C114 C116 1.353 . S
C114 H172 0.929 . S
C115 C112 1.356 . S
C115 C117 1.358 . S
C115 H173 0.930 . S
C116 N113 1.314 . S
C116 C114 1.353 . S
C116 H174 0.930 . S
C117 N113 1.279 . S
C117 C115 1.358 . S
C117 H175 0.930 . S
C118 C121 1.348 . S
C118 C122 1.356 . S
C118 O169 1.325 . S
C119 N120 1.279 . S
C119 C122 1.358 . S
C119 H176 0.930 . S
N120 C119 1.279 . S
N120 C123 1.314 . S
C121 C118 1.348 . S
C121 C123 1.353 . S
C121 H177 0.929 . S
C122 C118 1.356 . S
C122 C119 1.358 . S
C122 H178 0.930 . S
C123 N120 1.314 . S
C123 C121 1.353 . S
C123 H179 0.930 . S
C124 N125 1.314 . S
C124 C129 1.353 . S
C124 H130 0.930 . S
N125 Li108 1.990 . S
N125 C124 1.314 . S
N125 C127 1.279 . S
C126 C127 1.358 . S
C126 C128 1.356 . S
C126 H180 0.930 . S
C127 N125 1.279 . S
C127 C126 1.358 . S
C127 H131 0.930 . S
C128 C126 1.356 . S
C128 C129 1.348 . S
C129 C124 1.353 . S
C129 C128 1.348 . S
C129 H181 0.929 . S
H130 C124 0.930 . S
H131 C127 0.930 . S
C132 N133 1.314 . S
C132 C134 1.353 . S
C132 H138 0.930 . S
N133 Li109 1.990 . S
N133 C132 1.314 . S
N133 C136 1.279 . S
C134 C132 1.353 . S
C134 C137 1.348 . S
C134 H182 0.929 . S
C135 C136 1.358 . S
C135 C137 1.356 . S
C135 H183 0.930 . S
C136 N133 1.279 . S
C136 C135 1.358 . S
C136 H139 0.930 . S
C137 C134 1.348 . S
C137 C135 1.356 . S
H138 C132 0.930 . S
H139 C136 0.930 . S
C140 C142 1.348 . S
C140 C143 1.356 . S
C140 O170 1.325 . S
N141 C144 1.314 . S
N141 C145 1.279 . S
C142 C140 1.348 . S
C142 C144 1.353 . S
C142 H184 0.929 . S
C143 C140 1.356 . S
C143 C145 1.358 . S
C143 H185 0.930 . S
C144 N141 1.314 . S
C144 C142 1.353 . S
C144 H186 0.930 . S
C145 N141 1.279 . S
C145 C143 1.358 . S
C145 H187 0.930 . S
C146 C147 1.348 . S
C146 C148 1.356 . S
C146 O171 1.325 . S
C147 C146 1.348 . S
C147 C149 1.353 . S
C147 H188 0.929 . S
C148 C146 1.356 . S
C148 C150 1.358 . S
C148 H189 0.930 . S
C149 C147 1.353 . S
C149 N151 1.314 . S
C149 H190 0.930 . S
C150 C148 1.358 . S
C150 N151 1.279 . S
C150 H191 0.930 . S
N151 C149 1.314 . S
N151 C150 1.279 . S
C152 C154 1.353 . S
C152 N155 1.314 . S
C152 H158 0.930 . S
C153 N155 1.279 . S
C153 C156 1.358 . S
C153 H159 0.930 . S
C154 C152 1.353 . S
C154 C157 1.348 . S
C154 H192 0.929 . S
N155 Li110 1.990 . S
N155 C152 1.314 . S
N155 C153 1.279 . S
C156 C153 1.358 . S
C156 C157 1.356 . S
C156 H193 0.930 . S
C157 C154 1.348 . S
C157 C156 1.356 . S
H158 C152 0.930 . S
H159 C153 0.930 . S
C160 N161 1.314 . S
C160 C162 1.353 . S
C160 H166 0.930 . S
N161 Li111 1.990 . S
N161 C160 1.314 . S
N161 C164 1.279 . S
C162 C160 1.353 . S
C162 C165 1.348 . S
C162 H194 0.929 . S
C163 C164 1.358 . S
C163 C165 1.356 . S
C163 H195 0.930 . S
C164 N161 1.279 . S
C164 C163 1.358 . S
C164 H167 0.930 . S
C165 C162 1.348 . S
C165 C163 1.356 . S
H166 C160 0.930 . S
H167 C164 0.930 . S
O168 Li108 1.956 . S
O168 Li109 1.970 . S
O168 Li110 1.961 . S
O168 C112 1.325 . S
O169 Li108 1.970 . S
O169 Li109 1.956 . S
O169 Li111 1.961 . S
O169 C118 1.325 . S
O170 Li108 1.961 . S
O170 Li110 1.956 . S
O170 Li111 1.970 . S
O170 C140 1.325 . S
O171 Li109 1.961 . S
O171 Li110 1.970 . S
O171 Li111 1.956 . S
O171 C146 1.325 . S
H172 C114 0.929 . S
H173 C115 0.930 . S
H174 C116 0.930 . S
H175 C117 0.930 . S
H176 C119 0.930 . S
H177 C121 0.929 . S
H178 C122 0.930 . S
H179 C123 0.930 . S
H180 C126 0.930 . S
H181 C129 0.929 . S
H182 C134 0.929 . S
H183 C135 0.930 . S
H184 C142 0.929 . S
H185 C143 0.930 . S
H186 C144 0.930 . S
H187 C145 0.930 . S
H188 C147 0.929 . S
H189 C148 0.930 . S
H190 C149 0.930 . S
H191 C150 0.930 . S
H192 C154 0.929 . S
H193 C156 0.930 . S
H194 C162 0.929 . S
H195 C163 0.930 . S
Li196 N213 1.990 . S
Li196 O256 1.956 . S
Li196 O257 1.970 . S
Li196 O258 1.961 . S
Li197 N221 1.990 . S
Li197 O256 1.970 . S
Li197 O257 1.956 . S
Li197 O259 1.961 . S
Li198 N243 1.990 . S
Li198 O256 1.961 . S
Li198 O258 1.956 . S
Li198 O259 1.970 . S
Li199 N249 1.990 . S
Li199 O257 1.961 . S
Li199 O258 1.970 . S
Li199 O259 1.956 . S
C200 C202 1.348 . S
C200 C203 1.356 . S
C200 O256 1.325 . S
N201 C204 1.314 . S
N201 C205 1.279 . S
C202 C200 1.348 . S
C202 C204 1.353 . S
C202 H260 0.929 . S
C203 C200 1.356 . S
C203 C205 1.358 . S
C203 H261 0.930 . S
C204 N201 1.314 . S
C204 C202 1.353 . S
C204 H262 0.930 . S
C205 N201 1.279 . S
C205 C203 1.358 . S
C205 H263 0.930 . S
C206 C209 1.348 . S
C206 C210 1.356 . S
C206 O257 1.325 . S
C207 N208 1.279 . S
C207 C210 1.358 . S
C207 H264 0.930 . S
N208 C207 1.279 . S
N208 C211 1.314 . S
C209 C206 1.348 . S
C209 C211 1.353 . S
C209 H265 0.929 . S
C210 C206 1.356 . S
C210 C207 1.358 . S
C210 H266 0.930 . S
C211 N208 1.314 . S
C211 C209 1.353 . S
C211 H267 0.930 . S
C212 N213 1.314 . S
C212 C217 1.353 . S
C212 H218 0.930 . S
N213 Li196 1.990 . S
N213 C212 1.314 . S
N213 C215 1.279 . S
C214 C215 1.358 . S
C214 C216 1.356 . S
C214 H268 0.930 . S
C215 N213 1.279 . S
C215 C214 1.358 . S
C215 H219 0.930 . S
C216 C214 1.356 . S
C216 C217 1.348 . S
C217 C212 1.353 . S
C217 C216 1.348 . S
C217 H269 0.929 . S
H218 C212 0.930 . S
H219 C215 0.930 . S
C220 N221 1.314 . S
C220 C222 1.353 . S
C220 H226 0.930 . S
N221 Li197 1.990 . S
N221 C220 1.314 . S
N221 C224 1.279 . S
C222 C220 1.353 . S
C222 C225 1.348 . S
C222 H270 0.929 . S
C223 C224 1.358 . S
C223 C225 1.356 . S
C223 H271 0.930 . S
C224 N221 1.279 . S
C224 C223 1.358 . S
C224 H227 0.930 . S
C225 C222 1.348 . S
C225 C223 1.356 . S
H226 C220 0.930 . S
H227 C224 0.930 . S
C228 C230 1.348 . S
C228 C231 1.356 . S
C228 O258 1.325 . S
N229 C232 1.314 . S
N229 C233 1.279 . S
C230 C228 1.348 . S
C230 C232 1.353 . S
C230 H272 0.929 . S
C231 C228 1.356 . S
C231 C233 1.358 . S
C231 H273 0.930 . S
C232 N229 1.314 . S
C232 C230 1.353 . S
C232 H274 0.930 . S
C233 N229 1.279 . S
C233 C231 1.358 . S
C233 H275 0.930 . S
C234 C235 1.348 . S
C234 C236 1.356 . S
C234 O259 1.325 . S
C235 C234 1.348 . S
C235 C237 1.353 . S
C235 H276 0.929 . S
C236 C234 1.356 . S
C236 C238 1.358 . S
C236 H277 0.930 . S
C237 C235 1.353 . S
C237 N239 1.314 . S
C237 H278 0.930 . S
C238 C236 1.358 . S
C238 N239 1.279 . S
C238 H279 0.930 . S
N239 C237 1.314 . S
N239 C238 1.279 . S
C240 C242 1.353 . S
C240 N243 1.314 . S
C240 H246 0.930 . S
C241 N243 1.279 . S
C241 C244 1.358 . S
C241 H247 0.930 . S
C242 C240 1.353 . S
C242 C245 1.348 . S
C242 H280 0.929 . S
N243 Li198 1.990 . S
N243 C240 1.314 . S
N243 C241 1.279 . S
C244 C241 1.358 . S
C244 C245 1.356 . S
C244 H281 0.930 . S
C245 C242 1.348 . S
C245 C244 1.356 . S
H246 C240 0.930 . S
H247 C241 0.930 . S
C248 N249 1.314 . S
C248 C250 1.353 . S
C248 H254 0.930 . S
N249 Li199 1.990 . S
N249 C248 1.314 . S
N249 C252 1.279 . S
C250 C248 1.353 . S
C250 C253 1.348 . S
C250 H282 0.929 . S
C251 C252 1.358 . S
C251 C253 1.356 . S
C251 H283 0.930 . S
C252 N249 1.279 . S
C252 C251 1.358 . S
C252 H255 0.930 . S
C253 C250 1.348 . S
C253 C251 1.356 . S
H254 C248 0.930 . S
H255 C252 0.930 . S
O256 Li196 1.956 . S
O256 Li197 1.970 . S
O256 Li198 1.961 . S
O256 C200 1.325 . S
O257 Li196 1.970 . S
O257 Li197 1.956 . S
O257 Li199 1.961 . S
O257 C206 1.325 . S
O258 Li196 1.961 . S
O258 Li198 1.956 . S
O258 Li199 1.970 . S
O258 C228 1.325 . S
O259 Li197 1.961 . S
O259 Li198 1.970 . S
O259 Li199 1.956 . S
O259 C234 1.325 . S
H260 C202 0.929 . S
H261 C203 0.930 . S
H262 C204 0.930 . S
H263 C205 0.930 . S
H264 C207 0.930 . S
H265 C209 0.929 . S
H266 C210 0.930 . S
H267 C211 0.930 . S
H268 C214 0.930 . S
H269 C217 0.929 . S
H270 C222 0.929 . S
H271 C223 0.930 . S
H272 C230 0.929 . S
H273 C231 0.930 . S
H274 C232 0.930 . S
H275 C233 0.930 . S
H276 C235 0.929 . S
H277 C236 0.930 . S
H278 C237 0.930 . S
H279 C238 0.930 . S
H280 C242 0.929 . S
H281 C244 0.930 . S
H282 C250 0.929 . S
H283 C251 0.930 . S
Li284 N301 1.990 . S
Li284 O344 1.956 . S
Li284 O345 1.970 . S
Li284 O346 1.961 . S
Li285 N309 1.990 . S
Li285 O344 1.970 . S
Li285 O345 1.956 . S
Li285 O347 1.961 . S
Li286 N331 1.990 . S
Li286 O344 1.961 . S
Li286 O346 1.956 . S
Li286 O347 1.970 . S
Li287 N337 1.990 . S
Li287 O345 1.961 . S
Li287 O346 1.970 . S
Li287 O347 1.956 . S
C288 C290 1.348 . S
C288 C291 1.356 . S
C288 O344 1.325 . S
N289 C292 1.314 . S
N289 C293 1.279 . S
C290 C288 1.348 . S
C290 C292 1.353 . S
C290 H348 0.929 . S
C291 C288 1.356 . S
C291 C293 1.358 . S
C291 H349 0.930 . S
C292 N289 1.314 . S
C292 C290 1.353 . S
C292 H350 0.930 . S
C293 N289 1.279 . S
C293 C291 1.358 . S
C293 H351 0.930 . S
C294 C297 1.348 . S
C294 C298 1.356 . S
C294 O345 1.325 . S
C295 N296 1.279 . S
C295 C298 1.358 . S
C295 H352 0.930 . S
N296 C295 1.279 . S
N296 C299 1.314 . S
C297 C294 1.348 . S
C297 C299 1.353 . S
C297 H353 0.929 . S
C298 C294 1.356 . S
C298 C295 1.358 . S
C298 H354 0.930 . S
C299 N296 1.314 . S
C299 C297 1.353 . S
C299 H355 0.930 . S
C300 N301 1.314 . S
C300 C305 1.353 . S
C300 H306 0.930 . S
N301 Li284 1.990 . S
N301 C300 1.314 . S
N301 C303 1.279 . S
C302 C303 1.358 . S
C302 C304 1.356 . S
C302 H356 0.930 . S
C303 N301 1.279 . S
C303 C302 1.358 . S
C303 H307 0.930 . S
C304 C302 1.356 . S
C304 C305 1.348 . S
C305 C300 1.353 . S
C305 C304 1.348 . S
C305 H357 0.929 . S
H306 C300 0.930 . S
H307 C303 0.930 . S
C308 N309 1.314 . S
C308 C310 1.353 . S
C308 H314 0.930 . S
N309 Li285 1.990 . S
N309 C308 1.314 . S
N309 C312 1.279 . S
C310 C308 1.353 . S
C310 C313 1.348 . S
C310 H358 0.929 . S
C311 C312 1.358 . S
C311 C313 1.356 . S
C311 H359 0.930 . S
C312 N309 1.279 . S
C312 C311 1.358 . S
C312 H315 0.930 . S
C313 C310 1.348 . S
C313 C311 1.356 . S
H314 C308 0.930 . S
H315 C312 0.930 . S
C316 C318 1.348 . S
C316 C319 1.356 . S
C316 O346 1.325 . S
N317 C320 1.314 . S
N317 C321 1.279 . S
C318 C316 1.348 . S
C318 C320 1.353 . S
C318 H360 0.929 . S
C319 C316 1.356 . S
C319 C321 1.358 . S
C319 H361 0.930 . S
C320 N317 1.314 . S
C320 C318 1.353 . S
C320 H362 0.930 . S
C321 N317 1.279 . S
C321 C319 1.358 . S
C321 H363 0.930 . S
C322 C323 1.348 . S
C322 C324 1.356 . S
C322 O347 1.325 . S
C323 C322 1.348 . S
C323 C325 1.353 . S
C323 H364 0.929 . S
C324 C322 1.356 . S
C324 C326 1.358 . S
C324 H365 0.930 . S
C325 C323 1.353 . S
C325 N327 1.314 . S
C325 H366 0.930 . S
C326 C324 1.358 . S
C326 N327 1.279 . S
C326 H367 0.930 . S
N327 C325 1.314 . S
N327 C326 1.279 . S
C328 C330 1.353 . S
C328 N331 1.314 . S
C328 H334 0.930 . S
C329 N331 1.279 . S
C329 C332 1.358 . S
C329 H335 0.930 . S
C330 C328 1.353 . S
C330 C333 1.348 . S
C330 H368 0.929 . S
N331 Li286 1.990 . S
N331 C328 1.314 . S
N331 C329 1.279 . S
C332 C329 1.358 . S
C332 C333 1.356 . S
C332 H369 0.930 . S
C333 C330 1.348 . S
C333 C332 1.356 . S
H334 C328 0.930 . S
H335 C329 0.930 . S
C336 N337 1.314 . S
C336 C338 1.353 . S
C336 H342 0.930 . S
N337 Li287 1.990 . S
N337 C336 1.314 . S
N337 C340 1.279 . S
C338 C336 1.353 . S
C338 C341 1.348 . S
C338 H370 0.929 . S
C339 C340 1.358 . S
C339 C341 1.356 . S
C339 H371 0.930 . S
C340 N337 1.279 . S
C340 C339 1.358 . S
C340 H343 0.930 . S
C341 C338 1.348 . S
C341 C339 1.356 . S
H342 C336 0.930 . S
H343 C340 0.930 . S
O344 Li284 1.956 . S
O344 Li285 1.970 . S
O344 Li286 1.961 . S
O344 C288 1.325 . S
O345 Li284 1.970 . S
O345 Li285 1.956 . S
O345 Li287 1.961 . S
O345 C294 1.325 . S
O346 Li284 1.961 . S
O346 Li286 1.956 . S
O346 Li287 1.970 . S
O346 C316 1.325 . S
O347 Li285 1.961 . S
O347 Li286 1.970 . S
O347 Li287 1.956 . S
O347 C322 1.325 . S
H348 C290 0.929 . S
H349 C291 0.930 . S
H350 C292 0.930 . S
H351 C293 0.930 . S
H352 C295 0.930 . S
H353 C297 0.929 . S
H354 C298 0.930 . S
H355 C299 0.930 . S
H356 C302 0.930 . S
H357 C305 0.929 . S
H358 C310 0.929 . S
H359 C311 0.930 . S
H360 C318 0.929 . S
H361 C319 0.930 . S
H362 C320 0.930 . S
H363 C321 0.930 . S
H364 C323 0.929 . S
H365 C324 0.930 . S
H366 C325 0.930 . S
H367 C326 0.930 . S
H368 C330 0.929 . S
H369 C332 0.930 . S
H370 C338 0.929 . S
H371 C339 0.930 . S
Li372 N389 1.990 . S
Li372 O432 1.956 . S
Li372 O433 1.970 . S
Li372 O434 1.961 . S
Li373 N397 1.990 . S
Li373 O432 1.970 . S
Li373 O433 1.956 . S
Li373 O435 1.961 . S
Li374 N419 1.990 . S
Li374 O432 1.961 . S
Li374 O434 1.956 . S
Li374 O435 1.970 . S
Li375 N425 1.990 . S
Li375 O433 1.961 . S
Li375 O434 1.970 . S
Li375 O435 1.956 . S
C376 C378 1.348 . S
C376 C379 1.356 . S
C376 O432 1.325 . S
N377 C380 1.314 . S
N377 C381 1.279 . S
C378 C376 1.348 . S
C378 C380 1.353 1_556 S
C378 H436 0.929 . S
C379 C376 1.356 . S
C379 C381 1.358 1_556 S
C379 H437 0.930 . S
C380 N377 1.314 . S
C380 C378 1.353 1_554 S
C380 H438 0.930 . S
C381 N377 1.279 . S
C381 C379 1.358 1_554 S
C381 H439 0.930 . S
C382 C385 1.348 . S
C382 C386 1.356 . S
C382 O433 1.325 . S
C383 N384 1.279 . S
C383 C386 1.358 . S
C383 H440 0.930 . S
N384 C383 1.279 . S
N384 C387 1.314 . S
C385 C382 1.348 . S
C385 C387 1.353 . S
C385 H441 0.929 . S
C386 C382 1.356 . S
C386 C383 1.358 . S
C386 H442 0.930 . S
C387 N384 1.314 . S
C387 C385 1.353 . S
C387 H443 0.930 . S
C388 N389 1.314 . S
C388 C393 1.353 . S
C388 H394 0.930 . S
N389 Li372 1.990 . S
N389 C388 1.314 . S
N389 C391 1.279 1_556 S
C390 C391 1.358 . S
C390 C392 1.356 . S
C390 H444 0.930 . S
C391 N389 1.279 1_554 S
C391 C390 1.358 . S
C391 H395 0.930 . S
C392 C390 1.356 . S
C392 C393 1.348 1_554 S
C393 C388 1.353 . S
C393 C392 1.348 1_556 S
C393 H445 0.929 . S
H394 C388 0.930 . S
H395 C391 0.930 . S
C396 N397 1.314 . S
C396 C398 1.353 . S
C396 H402 0.930 . S
N397 Li373 1.990 . S
N397 C396 1.314 . S
N397 C400 1.279 . S
C398 C396 1.353 . S
C398 C401 1.348 . S
C398 H446 0.929 . S
C399 C400 1.358 . S
C399 C401 1.356 . S
C399 H447 0.930 . S
C400 N397 1.279 . S
C400 C399 1.358 . S
C400 H403 0.930 . S
C401 C398 1.348 . S
C401 C399 1.356 . S
H402 C396 0.930 . S
H403 C400 0.930 . S
C404 C406 1.348 . S
C404 C407 1.356 . S
C404 O434 1.325 . S
N405 C408 1.314 . S
N405 C409 1.279 . S
C406 C404 1.348 . S
C406 C408 1.353 . S
C406 H448 0.929 . S
C407 C404 1.356 . S
C407 C409 1.358 . S
C407 H449 0.930 . S
C408 N405 1.314 . S
C408 C406 1.353 . S
C408 H450 0.930 . S
C409 N405 1.279 . S
C409 C407 1.358 . S
C409 H451 0.930 . S
C410 C411 1.348 . S
C410 C412 1.356 . S
C410 O435 1.325 . S
C411 C410 1.348 . S
C411 C413 1.353 . S
C411 H452 0.929 . S
C412 C410 1.356 . S
C412 C414 1.358 . S
C412 H453 0.930 . S
C413 C411 1.353 . S
C413 N415 1.314 . S
C413 H454 0.930 . S
C414 C412 1.358 . S
C414 N415 1.279 . S
C414 H455 0.930 . S
N415 C413 1.314 . S
N415 C414 1.279 . S
C416 C418 1.353 . S
C416 N419 1.314 . S
C416 H422 0.930 . S
C417 N419 1.279 . S
C417 C420 1.358 . S
C417 H423 0.930 . S
C418 C416 1.353 . S
C418 C421 1.348 . S
C418 H456 0.929 . S
N419 Li374 1.990 . S
N419 C416 1.314 . S
N419 C417 1.279 . S
C420 C417 1.358 . S
C420 C421 1.356 . S
C420 H457 0.930 . S
C421 C418 1.348 . S
C421 C420 1.356 . S
H422 C416 0.930 . S
H423 C417 0.930 . S
C424 N425 1.314 . S
C424 C426 1.353 . S
C424 H430 0.930 . S
N425 Li375 1.990 . S
N425 C424 1.314 . S
N425 C428 1.279 . S
C426 C424 1.353 . S
C426 C429 1.348 . S
C426 H458 0.929 . S
C427 C428 1.358 . S
C427 C429 1.356 . S
C427 H459 0.930 . S
C428 N425 1.279 . S
C428 C427 1.358 . S
C428 H431 0.930 . S
C429 C426 1.348 . S
C429 C427 1.356 . S
H430 C424 0.930 . S
H431 C428 0.930 . S
O432 Li372 1.956 . S
O432 Li373 1.970 . S
O432 Li374 1.961 . S
O432 C376 1.325 . S
O433 Li372 1.970 . S
O433 Li373 1.956 . S
O433 Li375 1.961 . S
O433 C382 1.325 . S
O434 Li372 1.961 . S
O434 Li374 1.956 . S
O434 Li375 1.970 . S
O434 C404 1.325 . S
O435 Li373 1.961 . S
O435 Li374 1.970 . S
O435 Li375 1.956 . S
O435 C410 1.325 . S
H436 C378 0.929 . S
H437 C379 0.930 . S
H438 C380 0.930 . S
H439 C381 0.930 . S
H440 C383 0.930 . S
H441 C385 0.929 . S
H442 C386 0.930 . S
H443 C387 0.930 . S
H444 C390 0.930 . S
H445 C393 0.929 . S
H446 C398 0.929 . S
H447 C399 0.930 . S
H448 C406 0.929 . S
H449 C407 0.930 . S
H450 C408 0.930 . S
H451 C409 0.930 . S
H452 C411 0.929 . S
H453 C412 0.930 . S
H454 C413 0.930 . S
H455 C414 0.930 . S
H456 C418 0.929 . S
H457 C420 0.930 . S
H458 C426 0.929 . S
H459 C427 0.930 . S
Li460 N477 1.990 . S
Li460 O520 1.956 . S
Li460 O521 1.970 . S
Li460 O522 1.961 . S
Li461 N485 1.990 . S
Li461 O520 1.970 . S
Li461 O521 1.956 . S
Li461 O523 1.961 . S
Li462 N507 1.990 . S
Li462 O520 1.961 . S
Li462 O522 1.956 . S
Li462 O523 1.970 . S
Li463 N513 1.990 . S
Li463 O521 1.961 . S
Li463 O522 1.970 . S
Li463 O523 1.956 . S
C464 C466 1.348 . S
C464 C467 1.356 . S
C464 O520 1.325 . S
N465 C468 1.314 . S
N465 C469 1.279 . S
C466 C464 1.348 . S
C466 C468 1.353 . S
C466 H524 0.929 . S
C467 C464 1.356 . S
C467 C469 1.358 . S
C467 H525 0.930 . S
C468 N465 1.314 . S
C468 C466 1.353 . S
C468 H526 0.930 . S
C469 N465 1.279 . S
C469 C467 1.358 . S
C469 H527 0.930 . S
C470 C473 1.348 . S
C470 C474 1.356 . S
C470 O521 1.325 . S
C471 N472 1.279 . S
C471 C474 1.358 . S
C471 H528 0.930 . S
N472 C471 1.279 . S
N472 C475 1.314 . S
C473 C470 1.348 . S
C473 C475 1.353 . S
C473 H529 0.929 . S
C474 C470 1.356 . S
C474 C471 1.358 . S
C474 H530 0.930 . S
C475 N472 1.314 . S
C475 C473 1.353 . S
C475 H531 0.930 . S
C476 N477 1.314 . S
C476 C481 1.353 . S
C476 H482 0.930 . S
N477 Li460 1.990 . S
N477 C476 1.314 . S
N477 C479 1.279 . S
C478 C479 1.358 . S
C478 C480 1.356 . S
C478 H532 0.930 . S
C479 N477 1.279 . S
C479 C478 1.358 . S
C479 H483 0.930 . S
C480 C478 1.356 . S
C480 C481 1.348 . S
C481 C476 1.353 . S
C481 C480 1.348 . S
C481 H533 0.929 . S
H482 C476 0.930 . S
H483 C479 0.930 . S
C484 N485 1.314 . S
C484 C486 1.353 . S
C484 H490 0.930 . S
N485 Li461 1.990 . S
N485 C484 1.314 . S
N485 C488 1.279 . S
C486 C484 1.353 . S
C486 C489 1.348 . S
C486 H534 0.929 . S
C487 C488 1.358 . S
C487 C489 1.356 . S
C487 H535 0.930 . S
C488 N485 1.279 . S
C488 C487 1.358 . S
C488 H491 0.930 . S
C489 C486 1.348 . S
C489 C487 1.356 . S
H490 C484 0.930 . S
H491 C488 0.930 . S
C492 C494 1.348 . S
C492 C495 1.356 . S
C492 O522 1.325 . S
N493 C496 1.314 . S
N493 C497 1.279 . S
C494 C492 1.348 . S
C494 C496 1.353 1_554 S
C494 H536 0.929 . S
C495 C492 1.356 . S
C495 C497 1.358 1_554 S
C495 H537 0.930 . S
C496 N493 1.314 . S
C496 C494 1.353 1_556 S
C496 H538 0.930 . S
C497 N493 1.279 . S
C497 C495 1.358 1_556 S
C497 H539 0.930 . S
C498 C499 1.348 . S
C498 C500 1.356 . S
C498 O523 1.325 . S
C499 C498 1.348 . S
C499 C501 1.353 . S
C499 H540 0.929 . S
C500 C498 1.356 . S
C500 C502 1.358 . S
C500 H541 0.930 . S
C501 C499 1.353 . S
C501 N503 1.314 . S
C501 H542 0.930 . S
C502 C500 1.358 . S
C502 N503 1.279 . S
C502 H543 0.930 . S
N503 C501 1.314 . S
N503 C502 1.279 . S
C504 C506 1.353 1_554 S
C504 N507 1.314 . S
C504 H510 0.930 . S
C505 N507 1.279 1_556 S
C505 C508 1.358 . S
C505 H511 0.930 . S
C506 C504 1.353 1_556 S
C506 C509 1.348 . S
C506 H544 0.929 . S
N507 Li462 1.990 . S
N507 C504 1.314 . S
N507 C505 1.279 1_554 S
C508 C505 1.358 . S
C508 C509 1.356 . S
C508 H545 0.930 . S
C509 C506 1.348 . S
C509 C508 1.356 . S
H510 C504 0.930 . S
H511 C505 0.930 . S
C512 N513 1.314 . S
C512 C514 1.353 . S
C512 H518 0.930 . S
N513 Li463 1.990 . S
N513 C512 1.314 . S
N513 C516 1.279 . S
C514 C512 1.353 . S
C514 C517 1.348 . S
C514 H546 0.929 . S
C515 C516 1.358 . S
C515 C517 1.356 . S
C515 H547 0.930 . S
C516 N513 1.279 . S
C516 C515 1.358 . S
C516 H519 0.930 . S
C517 C514 1.348 . S
C517 C515 1.356 . S
H518 C512 0.930 . S
H519 C516 0.930 . S
O520 Li460 1.956 . S
O520 Li461 1.970 . S
O520 Li462 1.961 . S
O520 C464 1.325 . S
O521 Li460 1.970 . S
O521 Li461 1.956 . S
O521 Li463 1.961 . S
O521 C470 1.325 . S
O522 Li460 1.961 . S
O522 Li462 1.956 . S
O522 Li463 1.970 . S
O522 C492 1.325 . S
O523 Li461 1.961 . S
O523 Li462 1.970 . S
O523 Li463 1.956 . S
O523 C498 1.325 . S
H524 C466 0.929 . S
H525 C467 0.930 . S
H526 C468 0.930 . S
H527 C469 0.930 . S
H528 C471 0.930 . S
H529 C473 0.929 . S
H530 C474 0.930 . S
H531 C475 0.930 . S
H532 C478 0.930 . S
H533 C481 0.929 . S
H534 C486 0.929 . S
H535 C487 0.930 . S
H536 C494 0.929 . S
H537 C495 0.930 . S
H538 C496 0.930 . S
H539 C497 0.930 . S
H540 C499 0.929 . S
H541 C500 0.930 . S
H542 C501 0.930 . S
H543 C502 0.930 . S
H544 C506 0.929 . S
H545 C508 0.930 . S
H546 C514 0.929 . S
H547 C515 0.930 . S
Li548 N565 1.990 . S
Li548 O608 1.956 . S
Li548 O609 1.970 . S
Li548 O610 1.961 . S
Li549 N573 1.990 . S
Li549 O608 1.970 . S
Li549 O609 1.956 . S
Li549 O611 1.961 . S
Li550 N595 1.990 . S
Li550 O608 1.961 . S
Li550 O610 1.956 . S
Li550 O611 1.970 . S
Li551 N601 1.990 . S
Li551 O609 1.961 . S
Li551 O610 1.970 . S
Li551 O611 1.956 . S
C552 C554 1.348 . S
C552 C555 1.356 . S
C552 O608 1.325 . S
N553 C556 1.314 . S
N553 C557 1.279 . S
C554 C552 1.348 . S
C554 C556 1.353 . S
C554 H612 0.929 . S
C555 C552 1.356 . S
C555 C557 1.358 . S
C555 H613 0.930 . S
C556 N553 1.314 . S
C556 C554 1.353 . S
C556 H614 0.930 . S
C557 N553 1.279 . S
C557 C555 1.358 . S
C557 H615 0.930 . S
C558 C561 1.348 . S
C558 C562 1.356 . S
C558 O609 1.325 . S
C559 N560 1.279 . S
C559 C562 1.358 . S
C559 H616 0.930 . S
N560 C559 1.279 . S
N560 C563 1.314 . S
C561 C558 1.348 . S
C561 C563 1.353 . S
C561 H617 0.929 . S
C562 C558 1.356 . S
C562 C559 1.358 . S
C562 H618 0.930 . S
C563 N560 1.314 . S
C563 C561 1.353 . S
C563 H619 0.930 . S
C564 N565 1.314 . S
C564 C569 1.353 . S
C564 H570 0.930 . S
N565 Li548 1.990 . S
N565 C564 1.314 . S
N565 C567 1.279 . S
C566 C567 1.358 . S
C566 C568 1.356 . S
C566 H620 0.930 . S
C567 N565 1.279 . S
C567 C566 1.358 . S
C567 H571 0.930 . S
C568 C566 1.356 . S
C568 C569 1.348 . S
C569 C564 1.353 . S
C569 C568 1.348 . S
C569 H621 0.929 . S
H570 C564 0.930 . S
H571 C567 0.930 . S
C572 N573 1.314 . S
C572 C574 1.353 . S
C572 H578 0.930 . S
N573 Li549 1.990 . S
N573 C572 1.314 . S
N573 C576 1.279 . S
C574 C572 1.353 . S
C574 C577 1.348 . S
C574 H622 0.929 . S
C575 C576 1.358 . S
C575 C577 1.356 . S
C575 H623 0.930 . S
C576 N573 1.279 . S
C576 C575 1.358 . S
C576 H579 0.930 . S
C577 C574 1.348 . S
C577 C575 1.356 . S
H578 C572 0.930 . S
H579 C576 0.930 . S
C580 C582 1.348 . S
C580 C583 1.356 . S
C580 O610 1.325 . S
N581 C584 1.314 . S
N581 C585 1.279 . S
C582 C580 1.348 . S
C582 C584 1.353 . S
C582 H624 0.929 . S
C583 C580 1.356 . S
C583 C585 1.358 . S
C583 H625 0.930 . S
C584 N581 1.314 . S
C584 C582 1.353 . S
C584 H626 0.930 . S
C585 N581 1.279 . S
C585 C583 1.358 . S
C585 H627 0.930 . S
C586 C587 1.348 . S
C586 C588 1.356 . S
C586 O611 1.325 . S
C587 C586 1.348 . S
C587 C589 1.353 . S
C587 H628 0.929 . S
C588 C586 1.356 . S
C588 C590 1.358 . S
C588 H629 0.930 . S
C589 C587 1.353 . S
C589 N591 1.314 . S
C589 H630 0.930 . S
C590 C588 1.358 . S
C590 N591 1.279 . S
C590 H631 0.930 . S
N591 C589 1.314 . S
N591 C590 1.279 . S
C592 C594 1.353 . S
C592 N595 1.314 . S
C592 H598 0.930 . S
C593 N595 1.279 . S
C593 C596 1.358 . S
C593 H599 0.930 . S
C594 C592 1.353 . S
C594 C597 1.348 . S
C594 H632 0.929 . S
N595 Li550 1.990 . S
N595 C592 1.314 . S
N595 C593 1.279 . S
C596 C593 1.358 . S
C596 C597 1.356 . S
C596 H633 0.930 . S
C597 C594 1.348 . S
C597 C596 1.356 . S
H598 C592 0.930 . S
H599 C593 0.930 . S
C600 N601 1.314 . S
C600 C602 1.353 . S
C600 H606 0.930 . S
N601 Li551 1.990 . S
N601 C600 1.314 . S
N601 C604 1.279 . S
C602 C600 1.353 . S
C602 C605 1.348 . S
C602 H634 0.929 . S
C603 C604 1.358 . S
C603 C605 1.356 . S
C603 H635 0.930 . S
C604 N601 1.279 . S
C604 C603 1.358 . S
C604 H607 0.930 . S
C605 C602 1.348 . S
C605 C603 1.356 . S
H606 C600 0.930 . S
H607 C604 0.930 . S
O608 Li548 1.956 . S
O608 Li549 1.970 . S
O608 Li550 1.961 . S
O608 C552 1.325 . S
O609 Li548 1.970 . S
O609 Li549 1.956 . S
O609 Li551 1.961 . S
O609 C558 1.325 . S
O610 Li548 1.961 . S
O610 Li550 1.956 . S
O610 Li551 1.970 . S
O610 C580 1.325 . S
O611 Li549 1.961 . S
O611 Li550 1.970 . S
O611 Li551 1.956 . S
O611 C586 1.325 . S
H612 C554 0.929 . S
H613 C555 0.930 . S
H614 C556 0.930 . S
H615 C557 0.930 . S
H616 C559 0.930 . S
H617 C561 0.929 . S
H618 C562 0.930 . S
H619 C563 0.930 . S
H620 C566 0.930 . S
H621 C569 0.929 . S
H622 C574 0.929 . S
H623 C575 0.930 . S
H624 C582 0.929 . S
H625 C583 0.930 . S
H626 C584 0.930 . S
H627 C585 0.930 . S
H628 C587 0.929 . S
H629 C588 0.930 . S
H630 C589 0.930 . S
H631 C590 0.930 . S
H632 C594 0.929 . S
H633 C596 0.930 . S
H634 C602 0.929 . S
H635 C603 0.930 . S
C636 C637 1.387 . S
C636 H640 0.950 . S
C636 C645 1.390 . S
C637 C636 1.387 . S
C637 C639 1.387 . S
H638 C645 0.950 . S
C639 C637 1.387 . S
C639 C641 1.390 . S
C639 H643 0.950 . S
H640 C636 0.950 . S
C641 C639 1.390 . S
C641 C642 1.387 . S
C641 H644 0.950 . S
C642 C641 1.387 . S
C642 C645 1.387 . S
H643 C639 0.950 . S
H644 C641 0.950 . S
C645 C636 1.390 . S
C645 H638 0.950 . S
C645 C642 1.387 . S
C646 C647 1.387 . S
C646 H650 0.950 . S
C646 C655 1.390 . S
C647 C646 1.387 . S
C647 C649 1.387 . S
H648 C655 0.950 . S
C649 C647 1.387 . S
C649 C651 1.390 . S
C649 H653 0.950 . S
H650 C646 0.950 . S
C651 C649 1.390 . S
C651 C652 1.387 . S
C651 H654 0.950 . S
C652 C651 1.387 . S
C652 C655 1.387 . S
H653 C649 0.950 . S
H654 C651 0.950 . S
C655 C646 1.390 . S
C655 H648 0.950 . S
C655 C652 1.387 . S
C656 C657 1.387 . S
C656 H660 0.950 . S
C656 C665 1.390 . S
C657 C656 1.387 . S
C657 C659 1.387 . S
H658 C665 0.950 . S
C659 C657 1.387 . S
C659 C661 1.390 . S
C659 H663 0.950 . S
H660 C656 0.950 . S
C661 C659 1.390 . S
C661 C662 1.387 . S
C661 H664 0.950 . S
C662 C661 1.387 . S
C662 C665 1.387 . S
H663 C659 0.950 . S
H664 C661 0.950 . S
C665 C656 1.390 . S
C665 H658 0.950 . S
C665 C662 1.387 . S
C666 C667 1.387 . S
C666 H670 0.950 . S
C666 C675 1.390 . S
C667 C666 1.387 . S
C667 C669 1.387 . S
H668 C675 0.950 . S
C669 C667 1.387 . S
C669 C671 1.390 . S
C669 H673 0.950 . S
H670 C666 0.950 . S
C671 C669 1.390 . S
C671 C672 1.387 . S
C671 H674 0.950 . S
C672 C671 1.387 . S
C672 C675 1.387 . S
H673 C669 0.950 . S
H674 C671 0.950 . S
C675 C666 1.390 . S
C675 H668 0.950 . S
C675 C672 1.387 . S
C676 C677 1.387 . S
C676 H680 0.950 . S
C676 C685 1.390 . S
C677 C676 1.387 . S
C677 C679 1.387 . S
H678 C685 0.950 . S
C679 C677 1.387 . S
C679 C681 1.390 . S
C679 H683 0.950 1_556 S
H680 C676 0.950 . S
C681 C679 1.390 . S
C681 C682 1.387 . S
C681 H684 0.950 . S
C682 C681 1.387 . S
C682 C685 1.387 . S
H683 C679 0.950 1_554 S
H684 C681 0.950 . S
C685 C676 1.390 . S
C685 H678 0.950 . S
C685 C682 1.387 . S
C686 C687 1.387 . S
C686 H690 0.950 . S
C686 C695 1.390 . S
C687 C686 1.387 . S
C687 C689 1.387 . S
H688 C695 0.950 . S
C689 C687 1.387 . S
C689 C691 1.390 . S
C689 H693 0.950 . S
H690 C686 0.950 . S
C691 C689 1.390 . S
C691 C692 1.387 . S
C691 H694 0.950 . S
C692 C691 1.387 . S
C692 C695 1.387 . S
H693 C689 0.950 . S
H694 C691 0.950 . S
C695 C686 1.390 . S
C695 H688 0.950 . S
C695 C692 1.387 . S
C696 C697 1.387 . S
C696 H700 0.950 . S
C696 C705 1.390 . S
C697 C696 1.387 . S
C697 C699 1.387 . S
H698 C705 0.950 . S
C699 C697 1.387 . S
C699 C701 1.390 . S
C699 H703 0.950 . S
H700 C696 0.950 . S
C701 C699 1.390 . S
C701 C702 1.387 . S
C701 H704 0.950 . S
C702 C701 1.387 . S
C702 C705 1.387 . S
H703 C699 0.950 . S
H704 C701 0.950 . S
C705 C696 1.390 . S
C705 H698 0.950 . S
C705 C702 1.387 . S
C706 C707 1.387 . S
C706 H710 0.950 . S
C706 C715 1.390 . S
C707 C706 1.387 . S
C707 C709 1.387 . S
H708 C715 0.950 . S
C709 C707 1.387 . S
C709 C711 1.390 . S
C709 H713 0.950 . S
H710 C706 0.950 . S
C711 C709 1.390 . S
C711 C712 1.387 . S
C711 H714 0.950 . S
C712 C711 1.387 . S
C712 C715 1.387 . S
H713 C709 0.950 . S
H714 C711 0.950 . S
C715 C706 1.390 . S
C715 H708 0.950 . S
C715 C712 1.387 . S
C716 C717 1.387 . S
C716 H720 0.950 . S
C716 C725 1.390 . S
C717 C716 1.387 . S
C717 C719 1.387 . S
H718 C725 0.950 . S
C719 C717 1.387 . S
C719 C721 1.390 . S
C719 H723 0.950 . S
H720 C716 0.950 . S
C721 C719 1.390 . S
C721 C722 1.387 . S
C721 H724 0.950 . S
C722 C721 1.387 . S
C722 C725 1.387 . S
H723 C719 0.950 . S
H724 C721 0.950 . S
C725 C716 1.390 . S
C725 H718 0.950 . S
C725 C722 1.387 . S
C726 C727 1.387 . S
C726 H730 0.950 1_554 S
C726 C735 1.390 . S
C727 C726 1.387 . S
C727 C729 1.387 . S
H728 C735 0.950 . S
C729 C727 1.387 . S
C729 C731 1.390 . S
C729 H733 0.950 . S
H730 C726 0.950 1_556 S
C731 C729 1.390 . S
C731 C732 1.387 . S
C731 H734 0.950 . S
C732 C731 1.387 . S
C732 C735 1.387 . S
H733 C729 0.950 . S
H734 C731 0.950 . S
C735 C726 1.390 . S
C735 H728 0.950 . S
C735 C732 1.387 . S
C736 C737 1.387 . S
C736 H740 0.950 . S
C736 C745 1.390 . S
C737 C736 1.387 . S
C737 C739 1.387 . S
H738 C745 0.950 . S
C739 C737 1.387 . S
C739 C741 1.390 . S
C739 H743 0.950 . S
H740 C736 0.950 . S
C741 C739 1.390 . S
C741 C742 1.387 . S
C741 H744 0.950 . S
C742 C741 1.387 . S
C742 C745 1.387 . S
H743 C739 0.950 . S
H744 C741 0.950 . S
C745 C736 1.390 . S
C745 H738 0.950 . S
C745 C742 1.387 . S
C746 C747 1.387 . S
C746 H750 0.950 . S
C746 C755 1.390 . S
C747 C746 1.387 . S
C747 C749 1.387 . S
H748 C755 0.950 . S
C749 C747 1.387 . S
C749 C751 1.390 . S
C749 H753 0.950 . S
H750 C746 0.950 . S
C751 C749 1.390 . S
C751 C752 1.387 . S
C751 H754 0.950 . S
C752 C751 1.387 . S
C752 C755 1.387 . S
H753 C749 0.950 . S
H754 C751 0.950 . S
C755 C746 1.390 . S
C755 H748 0.950 . S
C755 C752 1.387 . S
C756 C757 1.387 . S
C756 H760 0.950 . S
C756 C765 1.390 . S
C757 C756 1.387 . S
C757 C759 1.387 . S
H758 C765 0.950 . S
C759 C757 1.387 . S
C759 C761 1.390 . S
C759 H763 0.950 . S
H760 C756 0.950 . S
C761 C759 1.390 . S
C761 C762 1.387 . S
C761 H764 0.950 . S
C762 C761 1.387 . S
C762 C765 1.387 . S
H763 C759 0.950 . S
H764 C761 0.950 . S
C765 C756 1.390 . S
C765 H758 0.950 . S
C765 C762 1.387 . S
C766 C767 1.387 . S
C766 H770 0.950 . S
C766 C775 1.390 . S
C767 C766 1.387 . S
C767 C769 1.387 . S
H768 C775 0.950 . S
C769 C767 1.387 . S
C769 C771 1.390 . S
C769 H773 0.950 . S
H770 C766 0.950 . S
C771 C769 1.390 . S
C771 C772 1.387 . S
C771 H774 0.950 . S
C772 C771 1.387 . S
C772 C775 1.387 . S
H773 C769 0.950 . S
H774 C771 0.950 . S
C775 C766 1.390 . S
C775 H768 0.950 . S
C775 C772 1.387 . S
C776 C777 1.387 . S
C776 H780 0.950 . S
C776 C785 1.390 . S
C777 C776 1.387 . S
C777 C779 1.387 . S
H778 C785 0.950 . S
C779 C777 1.387 . S
C779 C781 1.390 . S
C779 H783 0.950 . S
H780 C776 0.950 . S
C781 C779 1.390 . S
C781 C782 1.387 . S
C781 H784 0.950 . S
C782 C781 1.387 . S
C782 C785 1.387 . S
H783 C779 0.950 . S
H784 C781 0.950 . S
C785 C776 1.390 . S
C785 H778 0.950 . S
C785 C782 1.387 . S
C786 C787 1.387 . S
C786 H790 0.950 . S
C786 C795 1.390 . S
C787 C786 1.387 . S
C787 C789 1.387 . S
H788 C795 0.950 . S
C789 C787 1.387 . S
C789 C791 1.390 . S
C789 H793 0.950 . S
H790 C786 0.950 . S
C791 C789 1.390 . S
C791 C792 1.387 . S
C791 H794 0.950 . S
C792 C791 1.387 . S
C792 C795 1.387 . S
H793 C789 0.950 . S
H794 C791 0.950 . S
C795 C786 1.390 . S
C795 H788 0.950 . S
C795 C792 1.387 . S
C796 C797 1.387 . S
C796 H800 0.950 . S
C796 C805 1.390 . S
C797 C796 1.387 . S
C797 C799 1.387 . S
H798 C805 0.950 . S
C799 C797 1.387 . S
C799 C801 1.390 . S
C799 H803 0.950 . S
H800 C796 0.950 . S
C801 C799 1.390 . S
C801 C802 1.387 . S
C801 H804 0.950 . S
C802 C801 1.387 . S
C802 C805 1.387 . S
H803 C799 0.950 . S
H804 C801 0.950 . S
C805 C796 1.390 . S
C805 H798 0.950 . S
C805 C802 1.387 . S
C806 C807 1.387 . S
C806 H810 0.950 . S
C806 C815 1.390 . S
C807 C806 1.387 . S
C807 C809 1.387 . S
H808 C815 0.950 . S
C809 C807 1.387 . S
C809 C811 1.390 . S
C809 H813 0.950 . S
H810 C806 0.950 . S
C811 C809 1.390 . S
C811 C812 1.387 . S
C811 H814 0.950 . S
C812 C811 1.387 . S
C812 C815 1.387 . S
H813 C809 0.950 . S
H814 C811 0.950 . S
C815 C806 1.390 . S
C815 H808 0.950 . S
C815 C812 1.387 . S
C816 C817 1.387 . S
C816 H820 0.950 . S
C816 C825 1.390 . S
C817 C816 1.387 . S
C817 C819 1.387 . S
H818 C825 0.950 . S
C819 C817 1.387 . S
C819 C821 1.390 . S
C819 H823 0.950 . S
H820 C816 0.950 . S
C821 C819 1.390 . S
C821 C822 1.387 . S
C821 H824 0.950 . S
C822 C821 1.387 . S
C822 C825 1.387 . S
H823 C819 0.950 . S
H824 C821 0.950 . S
C825 C816 1.390 . S
C825 H818 0.950 . S
C825 C822 1.387 . S
C826 C827 1.387 . S
C826 H830 0.950 . S
C826 C835 1.390 . S
C827 C826 1.387 . S
C827 C829 1.387 . S
H828 C835 0.950 . S
C829 C827 1.387 . S
C829 C831 1.390 . S
C829 H833 0.950 . S
H830 C826 0.950 . S
C831 C829 1.390 . S
C831 C832 1.387 . S
C831 H834 0.950 . S
C832 C831 1.387 . S
C832 C835 1.387 . S
H833 C829 0.950 . S
H834 C831 0.950 . S
C835 C826 1.390 . S
C835 H828 0.950 . S
C835 C832 1.387 . S
C836 C837 1.387 . S
C836 H840 0.950 . S
C836 C845 1.390 . S
C837 C836 1.387 . S
C837 C839 1.387 . S
H838 C845 0.950 . S
C839 C837 1.387 . S
C839 C841 1.390 . S
C839 H843 0.950 . S
H840 C836 0.950 . S
C841 C839 1.390 . S
C841 C842 1.387 . S
C841 H844 0.950 . S
C842 C841 1.387 . S
C842 C845 1.387 . S
H843 C839 0.950 . S
H844 C841 0.950 . S
C845 C836 1.390 . S
C845 H838 0.950 . S
C845 C842 1.387 . S
C846 C847 1.387 . S
C846 H850 0.950 . S
C846 C855 1.390 . S
C847 C846 1.387 . S
C847 C849 1.387 . S
H848 C855 0.950 . S
C849 C847 1.387 . S
C849 C851 1.390 . S
C849 H853 0.950 . S
H850 C846 0.950 . S
C851 C849 1.390 . S
C851 C852 1.387 . S
C851 H854 0.950 . S
C852 C851 1.387 . S
C852 C855 1.387 . S
H853 C849 0.950 . S
H854 C851 0.950 . S
C855 C846 1.390 . S
C855 H848 0.950 . S
C855 C852 1.387 . S
C856 C857 1.387 . S
C856 H860 0.950 . S
C856 C865 1.390 . S
C857 C856 1.387 . S
C857 C859 1.387 . S
H858 C865 0.950 . S
C859 C857 1.387 . S
C859 C861 1.390 . S
C859 H863 0.950 . S
H860 C856 0.950 . S
C861 C859 1.390 . S
C861 C862 1.387 . S
C861 H864 0.950 . S
C862 C861 1.387 . S
C862 C865 1.387 . S
H863 C859 0.950 . S
H864 C861 0.950 . S
C865 C856 1.390 . S
C865 H858 0.950 . S
C865 C862 1.387 . S
C866 C867 1.387 . S
C866 H870 0.950 . S
C866 C875 1.390 . S
C867 C866 1.387 . S
C867 C869 1.387 . S
H868 C875 0.950 . S
C869 C867 1.387 . S
C869 C871 1.390 . S
C869 H873 0.950 . S
H870 C866 0.950 . S
C871 C869 1.390 . S
C871 C872 1.387 . S
C871 H874 0.950 . S
C872 C871 1.387 . S
C872 C875 1.387 . S
H873 C869 0.950 . S
H874 C871 0.950 . S
C875 C866 1.390 . S
C875 H868 0.950 . S
C875 C872 1.387 . S
C642 C577 1.609 . S
C637 C8 1.594 . S
C647 C26 1.596 . S
C652 C137 1.610 . S
C657 C50 1.597 . S
C662 C225 1.617 . S
C667 C68 1.590 . S
C672 C304 1.611 . S
C682 C401 1.609 . S
C677 C80 1.596 . S
C687 C104 1.589 . S
C692 C480 1.612 . S
C697 C32 1.594 . S
C702 C245 1.618 . S
C707 C44 1.596 . S
C712 C341 1.609 . S
C717 C62 1.595 . S
C722 C421 1.608 . S
C732 C517 1.611 . S
C727 C86 1.588 . S
C742 C597 1.609 . S
C737 C98 1.593 . S
C752 C157 1.611 . S
C747 C14 1.591 . S
C757 C7 1.486 . S
C762 C253 1.552 . S
C767 C25 1.484 . S
C772 C333 1.551 . S
C782 C429 1.546 . S
C777 C52 1.485 . S
C787 C70 1.490 . S
C792 C509 1.552 . S
C802 C605 1.548 . S
C797 C79 1.479 . S
C812 C165 1.547 . S
C807 C106 1.483 . S
C822 C568 1.545 . S
C817 C34 1.483 . S
C827 C43 1.484 . S
C832 C128 1.551 . S
C842 C216 1.552 . S
C837 C61 1.483 . S
C847 C88 1.483 . S
C852 C313 1.546 . S
C857 C97 1.480 . S
C862 C392 1.548 . S
C867 C16 1.487 . S
C872 C489 1.551 . S
