# Generated by pormake.
# Topology pyr, (3,6)-cn, num edge types: 1
# Building blocks:
#     Node 0, Type 0, BuildingBlock: KAKCAD_clean_linker_0, # of connection points: 3
#     Node 1, Type 0, BuildingBlock: KAKCAD_clean_linker_0, # of connection points: 3
#     Node 2, Type 0, BuildingBlock: KAKCAD_clean_linker_0, # of connection points: 3
#     Node 3, Type 0, BuildingBlock: KAKCAD_clean_linker_0, # of connection points: 3
#     Node 4, Type 0, BuildingBlock: KAKCAD_clean_linker_0, # of connection points: 3
#     Node 5, Type 0, BuildingBlock: KAKCAD_clean_linker_0, # of connection points: 3
#     Node 6, Type 0, BuildingBlock: KAKCAD_clean_linker_0, # of connection points: 3
#     Node 7, Type 0, BuildingBlock: KAKCAD_clean_linker_0, # of connection points: 3
#     Node 8, Type 1, BuildingBlock: BETFEN_clean_sbu_0, # of connection points: 6
#     Node 9, Type 1, BuildingBlock: BETFEN_clean_sbu_0, # of connection points: 6
#     Node 10, Type 1, BuildingBlock: BETFEN_clean_sbu_0, # of connection points: 6
#     Node 11, Type 1, BuildingBlock: BETFEN_clean_sbu_0, # of connection points: 6
#     Edge 12, Type (0, 1), BuildingBlock: TEMPAE_clean_linker_10, # of connection points: 2
#     Edge 13, Type (0, 1), BuildingBlock: TEMPAE_clean_linker_10, # of connection points: 2
#     Edge 14, Type (0, 1), BuildingBlock: TEMPAE_clean_linker_10, # of connection points: 2
#     Edge 15, Type (0, 1), BuildingBlock: TEMPAE_clean_linker_10, # of connection points: 2
#     Edge 16, Type (0, 1), BuildingBlock: TEMPAE_clean_linker_10, # of connection points: 2
#     Edge 17, Type (0, 1), BuildingBlock: TEMPAE_clean_linker_10, # of connection points: 2
#     Edge 18, Type (0, 1), BuildingBlock: TEMPAE_clean_linker_10, # of connection points: 2
#     Edge 19, Type (0, 1), BuildingBlock: TEMPAE_clean_linker_10, # of connection points: 2
#     Edge 20, Type (0, 1), BuildingBlock: TEMPAE_clean_linker_10, # of connection points: 2
#     Edge 21, Type (0, 1), BuildingBlock: TEMPAE_clean_linker_10, # of connection points: 2
#     Edge 22, Type (0, 1), BuildingBlock: TEMPAE_clean_linker_10, # of connection points: 2
#     Edge 23, Type (0, 1), BuildingBlock: TEMPAE_clean_linker_10, # of connection points: 2
#     Edge 24, Type (0, 1), BuildingBlock: TEMPAE_clean_linker_10, # of connection points: 2
#     Edge 25, Type (0, 1), BuildingBlock: TEMPAE_clean_linker_10, # of connection points: 2
#     Edge 26, Type (0, 1), BuildingBlock: TEMPAE_clean_linker_10, # of connection points: 2
#     Edge 27, Type (0, 1), BuildingBlock: TEMPAE_clean_linker_10, # of connection points: 2
#     Edge 28, Type (0, 1), BuildingBlock: TEMPAE_clean_linker_10, # of connection points: 2
#     Edge 29, Type (0, 1), BuildingBlock: TEMPAE_clean_linker_10, # of connection points: 2
#     Edge 30, Type (0, 1), BuildingBlock: TEMPAE_clean_linker_10, # of connection points: 2
#     Edge 31, Type (0, 1), BuildingBlock: TEMPAE_clean_linker_10, # of connection points: 2
#     Edge 32, Type (0, 1), BuildingBlock: TEMPAE_clean_linker_10, # of connection points: 2
#     Edge 33, Type (0, 1), BuildingBlock: TEMPAE_clean_linker_10, # of connection points: 2
#     Edge 34, Type (0, 1), BuildingBlock: TEMPAE_clean_linker_10, # of connection points: 2
#     Edge 35, Type (0, 1), BuildingBlock: TEMPAE_clean_linker_10, # of connection points: 2
# Relax obj value: 0.131
# Max RMSD: 0.233
# Mean RMSD: 0.112
data_MOF--net-pyr--node1-BETFEN_clean_sbu_0--node2-KAKCAD_clean_linker_0--edge1-TEMPAE_clean_linker_10
_symmetry_space_group_name_H-M    P1
_symmetry_Int_Tables_number       1
_symmetry_cell_setting            triclinic
loop_
_symmetry_equiv_pos_as_xyz
'x, y, z'
_cell_length_a     45.872557
_cell_length_b     50.175685
_cell_length_c     47.58515
_cell_angle_alpha  91.401554
_cell_angle_beta   99.009872
_cell_angle_gamma 108.17766
loop_
_atom_site_label
_atom_site_type_symbol
_atom_site_fract_x
_atom_site_fract_y
_atom_site_fract_z
_atom_type_partial_charge
C0 C 0.28331 0.27562 0.34187 0.0
C1 C 0.29886 0.26332 0.36289 0.0
C2 C 0.29942 0.29253 0.32288 0.0
C3 C 0.33167 0.29793 0.32457 0.0
C4 C 0.34758 0.28687 0.3466 0.0
C5 C 0.33132 0.26973 0.36561 0.0
C6 C 0.34749 0.3125 0.30155 0.0
C7 C 0.33803 0.3339 0.28836 0.0
C8 C 0.34685 0.34306 0.26238 0.0
C9 C 0.36755 0.33231 0.25077 0.0
C10 C 0.37802 0.31144 0.26404 0.0
C11 C 0.3681 0.30186 0.28954 0.0
C12 C 0.39485 0.29625 0.24901 0.0
C13 C 0.38429 0.28714 0.21998 0.0
C14 C 0.41941 0.28834 0.26399 0.0
C15 C 0.43236 0.27085 0.25043 0.0
C16 C 0.42087 0.2608 0.22167 0.0
C17 C 0.32999 0.35956 0.24497 0.0
C18 C 0.29739 0.35157 0.242 0.0
C19 C 0.34547 0.38149 0.22941 0.0
C20 C 0.32851 0.39486 0.21096 0.0
C21 C 0.29583 0.38612 0.20748 0.0
C22 C 0.28056 0.36467 0.22352 0.0
C23 C 0.39709 0.26961 0.2065 0.0
H24 H 0.25838 0.27147 0.33954 0.0
H25 H 0.28615 0.30019 0.30598 0.0
H26 H 0.37244 0.29082 0.34866 0.0
H27 H 0.34393 0.26052 0.3816 0.0
H28 H 0.32211 0.34227 0.29738 0.0
H29 H 0.37422 0.28431 0.29859 0.0
H30 H 0.37381 0.33873 0.23035 0.0
H31 H 0.36496 0.29234 0.20798 0.0
H32 H 0.42811 0.29519 0.28635 0.0
H33 H 0.45094 0.26475 0.26261 0.0
H34 H 0.28466 0.33441 0.25323 0.0
H35 H 0.37058 0.38804 0.23128 0.0
H36 H 0.38721 0.26185 0.18451 0.0
H37 H 0.25541 0.35778 0.22153 0.0
H38 H 0.34078 0.4114 0.19883 0.0
C39 C 0.32373 0.86664 0.78069 0.0
C40 C 0.35596 0.88038 0.7875 0.0
C41 C 0.30981 0.85684 0.75249 0.0
C42 C 0.32808 0.86019 0.73095 0.0
C43 C 0.36038 0.87351 0.73792 0.0
C44 C 0.37417 0.8837 0.76594 0.0
C45 C 0.31364 0.85021 0.70107 0.0
C46 C 0.28902 0.85874 0.6876 0.0
C47 C 0.27672 0.85102 0.65849 0.0
C48 C 0.28883 0.83382 0.64314 0.0
C49 C 0.31349 0.82526 0.65664 0.0
C50 C 0.32582 0.83357 0.68546 0.0
C51 C 0.3277 0.80841 0.641 0.0
C52 C 0.31188 0.77985 0.63301 0.0
C53 C 0.35894 0.81993 0.63794 0.0
C54 C 0.37474 0.80282 0.6284 0.0
C55 C 0.35968 0.77377 0.62222 0.0
C56 C 0.25326 0.86313 0.64402 0.0
C57 C 0.22934 0.86583 0.65792 0.0
C58 C 0.25644 0.87462 0.61758 0.0
C59 C 0.23705 0.88968 0.60598 0.0
C60 C 0.21427 0.89362 0.6207 0.0
C61 C 0.21012 0.88099 0.64642 0.0
C62 C 0.3278 0.76258 0.62372 0.0
H63 H 0.3093 0.86401 0.79705 0.0
H64 H 0.28485 0.84653 0.74752 0.0
H65 H 0.37486 0.87649 0.72158 0.0
H66 H 0.39911 0.89416 0.77082 0.0
H67 H 0.28063 0.87269 0.6995 0.0
H68 H 0.34502 0.82702 0.69579 0.0
H69 H 0.27965 0.82763 0.6207 0.0
H70 H 0.28782 0.77061 0.63558 0.0
H71 H 0.37147 0.84199 0.64406 0.0
H72 H 0.39907 0.8122 0.62681 0.0
H73 H 0.22597 0.85678 0.67807 0.0
H74 H 0.27487 0.87317 0.60652 0.0
H75 H 0.31559 0.74026 0.61925 0.0
H76 H 0.19227 0.88321 0.65787 0.0
H77 H 0.24075 0.89926 0.58613 0.0
C78 C 0.72634 0.40856 0.86987 0.0
C79 C 0.74829 0.39536 0.88059 0.0
C80 C 0.69665 0.3927 0.85539 0.0
C81 C 0.68812 0.36321 0.85103 0.0
C82 C 0.7102 0.3501 0.8615 0.0
C83 C 0.73969 0.36588 0.87621 0.0
C84 C 0.65639 0.34607 0.83578 0.0
C85 C 0.64115 0.35613 0.81249 0.0
C86 C 0.61158 0.33995 0.79768 0.0
C87 C 0.59699 0.31297 0.80648 0.0
C88 C 0.6119 0.30249 0.82995 0.0
C89 C 0.64136 0.31935 0.84435 0.0
C90 C 0.59754 0.27419 0.84032 0.0
C91 C 0.56774 0.26647 0.84787 0.0
C92 C 0.61534 0.25595 0.84587 0.0
C93 C 0.60419 0.23121 0.85943 0.0
C94 C 0.57495 0.22398 0.86815 0.0
C95 C 0.59698 0.35189 0.77289 0.0
C96 C 0.59335 0.37853 0.77641 0.0
C97 C 0.59026 0.3387 0.74515 0.0
C98 C 0.58135 0.35239 0.7214 0.0
C99 C 0.57842 0.37938 0.72491 0.0
C100 C 0.58394 0.39197 0.75282 0.0
C101 C 0.55667 0.24177 0.86179 0.0
H102 H 0.73211 0.43121 0.87249 0.0
H103 H 0.68025 0.4036 0.84796 0.0
H104 H 0.70484 0.32754 0.85822 0.0
H105 H 0.7556 0.35479 0.88449 0.0
H106 H 0.65267 0.37643 0.80523 0.0
H107 H 0.65237 0.31172 0.86285 0.0
H108 H 0.5743 0.30027 0.79516 0.0
H109 H 0.55357 0.28014 0.84414 0.0
H110 H 0.6384 0.26125 0.84034 0.0
H111 H 0.61909 0.21829 0.86408 0.0
H112 H 0.5986 0.38933 0.79749 0.0
H113 H 0.59322 0.31834 0.74172 0.0
H114 H 0.5339 0.23676 0.86789 0.0
H115 H 0.58221 0.41278 0.75638 0.0
H116 H 0.57711 0.342 0.70025 0.0
C117 C 0.87242 0.59997 0.23266 0.0
C118 C 0.90275 0.6132 0.22676 0.0
C119 C 0.86081 0.61058 0.25492 0.0
C120 C 0.879 0.63479 0.27308 0.0
C121 C 0.90948 0.64778 0.26742 0.0
C122 C 0.92085 0.63751 0.24481 0.0
C123 C 0.86643 0.64646 0.29734 0.0
C124 C 0.84071 0.62924 0.30923 0.0
C125 C 0.82852 0.64021 0.33087 0.0
C126 C 0.84315 0.66835 0.34162 0.0
C127 C 0.86847 0.68642 0.33087 0.0
C128 C 0.87974 0.67521 0.30864 0.0
C129 C 0.88241 0.71683 0.34347 0.0
C130 C 0.86345 0.7309 0.35393 0.0
C131 C 0.91464 0.73166 0.34696 0.0
C132 C 0.92736 0.75891 0.36127 0.0
C133 C 0.90839 0.77207 0.37294 0.0
C134 C 0.79999 0.62348 0.34263 0.0
C135 C 0.77565 0.63485 0.34383 0.0
C136 C 0.79817 0.59827 0.35576 0.0
C137 C 0.77335 0.58549 0.37045 0.0
C138 C 0.74932 0.59728 0.37214 0.0
C139 C 0.75081 0.62198 0.35811 0.0
C140 C 0.87621 0.7577 0.36867 0.0
H141 H 0.85725 0.58101 0.22026 0.0
H142 H 0.83714 0.59963 0.25745 0.0
H143 H 0.92517 0.66601 0.28059 0.0
H144 H 0.94405 0.64918 0.24153 0.0
H145 H 0.8298 0.60734 0.30171 0.0
H146 H 0.89838 0.68935 0.29968 0.0
H147 H 0.83471 0.67606 0.35913 0.0
H148 H 0.83845 0.72114 0.35097 0.0
H149 H 0.93027 0.72189 0.33948 0.0
H150 H 0.95227 0.76932 0.36406 0.0
H151 H 0.7762 0.65429 0.33418 0.0
H152 H 0.81655 0.58901 0.35564 0.0
H153 H 0.8607 0.76729 0.37672 0.0
H154 H 0.73325 0.6321 0.35898 0.0
H155 H 0.77312 0.56638 0.38064 0.0
C156 C 0.7304 0.73153 0.68175 0.0
C157 C 0.74015 0.76106 0.68252 0.0
C158 C 0.71083 0.7174 0.70027 0.0
C159 C 0.7005 0.73261 0.71961 0.0
C160 C 0.70943 0.76207 0.71943 0.0
C161 C 0.72886 0.77606 0.70107 0.0
C162 C 0.68294 0.71862 0.74184 0.0
C163 C 0.69247 0.69867 0.75768 0.0
C164 C 0.68075 0.68997 0.78273 0.0
C165 C 0.65912 0.70145 0.79179 0.0
C166 C 0.64931 0.72141 0.77611 0.0
C167 C 0.66022 0.72874 0.75048 0.0
C168 C 0.63203 0.73805 0.78853 0.0
C169 C 0.60783 0.72555 0.80363 0.0
C170 C 0.64146 0.76737 0.78692 0.0
C171 C 0.62741 0.78384 0.80022 0.0
C172 C 0.60358 0.77155 0.81568 0.0
C173 C 0.69469 0.67213 0.80125 0.0
C174 C 0.70124 0.64922 0.78924 0.0
C175 C 0.70449 0.67966 0.83069 0.0
C176 C 0.7219 0.66557 0.84741 0.0
C177 C 0.72994 0.64369 0.83506 0.0
C178 C 0.71866 0.63514 0.80597 0.0
C179 C 0.59374 0.74218 0.81712 0.0
H180 H 0.7388 0.71948 0.66761 0.0
H181 H 0.70426 0.69469 0.69984 0.0
H182 H 0.70248 0.77458 0.73435 0.0
H183 H 0.73563 0.79881 0.70183 0.0
H184 H 0.71099 0.69169 0.75188 0.0
H185 H 0.65249 0.7439 0.73812 0.0
H186 H 0.65132 0.69603 0.81187 0.0
H187 H 0.60001 0.70301 0.80522 0.0
H188 H 0.66066 0.7779 0.77628 0.0
H189 H 0.63619 0.80645 0.79934 0.0
H190 H 0.69367 0.64273 0.76669 0.0
H191 H 0.70026 0.69748 0.84054 0.0
H192 H 0.57537 0.73212 0.82886 0.0
H193 H 0.72408 0.61806 0.79595 0.0
H194 H 0.73055 0.67289 0.86968 0.0
C195 C 0.70139 0.1463 0.26116 0.0
C196 C 0.70034 0.16524 0.24006 0.0
C197 C 0.71588 0.15603 0.28906 0.0
C198 C 0.72956 0.18498 0.2967 0.0
C199 C 0.72876 0.20407 0.27569 0.0
C200 C 0.71434 0.19426 0.24755 0.0
C201 C 0.74262 0.19475 0.32701 0.0
C202 C 0.7602 0.18053 0.34342 0.0
C203 C 0.76736 0.18526 0.37331 0.0
C204 C 0.75826 0.20606 0.38657 0.0
C205 C 0.74212 0.22164 0.37013 0.0
C206 C 0.73435 0.21578 0.34039 0.0
C207 C 0.73052 0.24224 0.3837 0.0
C208 C 0.71318 0.23471 0.40576 0.0
C209 C 0.73373 0.26842 0.37245 0.0
C210 C 0.71854 0.28611 0.38202 0.0
C211 C 0.69962 0.27788 0.40287 0.0
C212 C 0.78304 0.16742 0.3902 0.0
C213 C 0.77684 0.13913 0.38064 0.0
C214 C 0.80489 0.17841 0.41523 0.0
C215 C 0.82095 0.16179 0.42962 0.0
C216 C 0.81604 0.13397 0.419 0.0
C217 C 0.79346 0.12287 0.39445 0.0
C218 C 0.69779 0.25234 0.41522 0.0
H219 H 0.69012 0.12387 0.25636 0.0
H220 H 0.7154 0.14084 0.30492 0.0
H221 H 0.73918 0.22651 0.28105 0.0
H222 H 0.71406 0.20936 0.23172 0.0
H223 H 0.76761 0.16512 0.33268 0.0
H224 H 0.72008 0.22638 0.32789 0.0
H225 H 0.76305 0.20978 0.4096 0.0
H226 H 0.71007 0.21449 0.41456 0.0
H227 H 0.74726 0.27481 0.35562 0.0
H228 H 0.72097 0.30593 0.37254 0.0
H229 H 0.75941 0.12946 0.36206 0.0
H230 H 0.81026 0.20006 0.42332 0.0
H231 H 0.68319 0.24526 0.43115 0.0
H232 H 0.78909 0.1018 0.38514 0.0
H233 H 0.83753 0.17098 0.44886 0.0
C234 C 0.29222 0.6355 0.18327 0.0
C235 C 0.28734 0.62907 0.15362 0.0
C236 C 0.32194 0.65067 0.19817 0.0
C237 C 0.34725 0.66016 0.18364 0.0
C238 C 0.34242 0.65347 0.15405 0.0
C239 C 0.31285 0.6379 0.13925 0.0
C240 C 0.37839 0.67784 0.19902 0.0
C241 C 0.39242 0.66945 0.22409 0.0
C242 C 0.42194 0.68601 0.23855 0.0
C243 C 0.4374 0.71178 0.22786 0.0
C244 C 0.42365 0.72047 0.20242 0.0
C245 C 0.39414 0.7032 0.18841 0.0
C246 C 0.43925 0.74723 0.18967 0.0
C247 C 0.45269 0.77304 0.20629 0.0
C248 C 0.43818 0.74742 0.15993 0.0
C249 C 0.44898 0.77261 0.14703 0.0
C250 C 0.46143 0.79863 0.16339 0.0
C251 C 0.43631 0.67497 0.26405 0.0
C252 C 0.43252 0.68226 0.29162 0.0
C253 C 0.44951 0.65361 0.26044 0.0
C254 C 0.4582 0.63945 0.28377 0.0
C255 C 0.45361 0.64603 0.31138 0.0
C256 C 0.44109 0.66801 0.315 0.0
C257 C 0.46352 0.79841 0.19331 0.0
H258 H 0.27299 0.62888 0.1949 0.0
H259 H 0.32498 0.65564 0.22094 0.0
H260 H 0.36155 0.66039 0.14234 0.0
H261 H 0.30975 0.63344 0.11639 0.0
H262 H 0.38056 0.64965 0.23215 0.0
H263 H 0.38292 0.70983 0.16933 0.0
H264 H 0.46025 0.72453 0.23882 0.0
H265 H 0.45379 0.77375 0.22921 0.0
H266 H 0.4283 0.72798 0.1464 0.0
H267 H 0.44659 0.77168 0.124 0.0
H268 H 0.42186 0.69829 0.2949 0.0
H269 H 0.45206 0.64716 0.23931 0.0
H270 H 0.47334 0.81789 0.20675 0.0
H271 H 0.43746 0.67397 0.33588 0.0
H272 H 0.46728 0.62247 0.27986 0.0
C273 C 0.15435 0.26685 0.67825 0.0
C274 C 0.12334 0.25695 0.66362 0.0
C275 C 0.16687 0.29393 0.69255 0.0
C276 C 0.14873 0.31195 0.69329 0.0
C277 C 0.11741 0.30179 0.67952 0.0
C278 C 0.105 0.27482 0.66469 0.0
C279 C 0.16366 0.34213 0.70547 0.0
C280 C 0.1903 0.35863 0.69555 0.0
C281 C 0.20529 0.38704 0.70529 0.0
C282 C 0.19291 0.39925 0.72598 0.0
C283 C 0.16634 0.38316 0.73756 0.0
C284 C 0.15196 0.35447 0.72645 0.0
C285 C 0.15397 0.39582 0.76133 0.0
C286 C 0.17276 0.41978 0.77957 0.0
C287 C 0.12318 0.38385 0.76666 0.0
C288 C 0.11211 0.39472 0.78911 0.0
C289 C 0.13083 0.4187 0.80732 0.0
C290 C 0.23398 0.40291 0.69322 0.0
C291 C 0.25767 0.39076 0.69178 0.0
C292 C 0.23652 0.42823 0.68007 0.0
C293 C 0.26129 0.44031 0.6651 0.0
C294 C 0.28461 0.4277 0.66312 0.0
C295 C 0.28248 0.40292 0.67719 0.0
C296 C 0.16146 0.43101 0.80169 0.0
H297 H 0.16935 0.25397 0.67788 0.0
H298 H 0.19111 0.30102 0.70273 0.0
H299 H 0.10282 0.31512 0.67931 0.0
H300 H 0.08098 0.26798 0.65395 0.0
H301 H 0.19913 0.34929 0.67935 0.0
H302 H 0.13216 0.3411 0.73459 0.0
H303 H 0.2043 0.42122 0.73304 0.0
H304 H 0.19667 0.42999 0.77724 0.0
H305 H 0.10702 0.36591 0.75341 0.0
H306 H 0.08863 0.38371 0.79216 0.0
H307 H 0.25664 0.37126 0.7015 0.0
H308 H 0.21869 0.43812 0.68038 0.0
H309 H 0.17712 0.44969 0.81421 0.0
H310 H 0.29948 0.39221 0.67614 0.0
H311 H 0.26204 0.45951 0.65492 0.0
Pr312 Pr 0.99698 1.00357 0.53897 0.0
Pr313 Pr 0.0328 0.02355 0.50043 0.0
C314 C 0.96626 0.97472 0.57843 0.0
C315 C 0.94026 0.94928 0.58069 0.0
C316 C 0.91902 0.95091 0.5983 0.0
C317 C 0.89483 0.92695 0.6019 0.0
C318 C 0.89147 0.90084 0.58802 0.0
C319 C 0.91252 0.89929 0.56999 0.0
C320 C 0.93667 0.92338 0.56623 0.0
C321 C 0.02794 0.06197 0.55405 0.0
C322 C 0.06612 0.99756 0.54916 0.0
C323 C 0.06551 0.05227 0.46208 0.0
C324 C 0.09547 0.07377 0.46078 0.0
C325 C 0.11163 0.07074 0.43891 0.0
C326 C 0.13915 0.09161 0.43599 0.0
C327 C 0.15097 0.11598 0.45487 0.0
C328 C 0.13518 0.11863 0.47732 0.0
C329 C 0.10769 0.09761 0.48034 0.0
C330 C 1.00169 0.96515 0.486 0.0
C331 C 0.96161 0.02686 0.48928 0.0
O332 O 0.95915 0.99535 0.56621 0.0
O333 O 0.99141 0.97127 0.5717 0.0
O334 O 0.04112 0.04493 0.54622 0.0
O335 O 0.99864 0.04913 0.55317 0.0
O336 O 0.07281 0.02028 0.53528 0.0
O337 O 0.03677 0.98367 0.54927 0.0
O338 O 0.06646 0.02764 0.46932 0.0
O339 O 0.04502 0.06031 0.47311 0.0
O340 O 0.98862 0.98262 0.4929 0.0
O341 O 0.03128 0.97745 0.48779 0.0
O342 O 0.95588 1.00587 0.50551 0.0
O343 O 0.99048 0.0402 0.48658 0.0
H344 H 0.92146 0.97068 0.60965 0.0
H345 H 0.87929 0.92872 0.61629 0.0
H346 H 0.91036 0.87946 0.55894 0.0
H347 H 0.95269 0.92169 0.55232 0.0
H348 H 0.10256 0.05249 0.42364 0.0
H349 H 0.1505 0.08915 0.41823 0.0
H350 H 0.14388 0.1371 0.49229 0.0
H351 H 0.09573 0.10024 0.4976 0.0
Pr352 Pr 0.48974 0.01972 0.02982 0.0
Pr353 Pr 0.54346 1.01187 1.01344 0.0
C354 C 0.44684 0.0286 0.05824 0.0
C355 C 0.44574 0.05132 0.07787 0.0
C356 C 0.42242 0.06384 0.0712 0.0
C357 C 0.42197 0.08647 0.0886 0.0
C358 C 0.44471 0.09689 0.11322 0.0
C359 C 0.46784 0.08402 0.12007 0.0
C360 C 0.46845 0.06155 0.10251 0.0
C361 C 0.51122 0.05613 0.98794 0.0
C362 C 0.55886 0.05761 0.06519 0.0
C363 C 0.5861 1.00194 0.98549 0.0
C364 C 0.58607 0.97672 0.9693 0.0
C365 C 0.56388 0.95067 0.97162 0.0
C366 C 0.56271 0.92678 0.95526 0.0
C367 C 0.58358 0.92858 0.93612 0.0
C368 C 0.60569 0.95485 0.93382 0.0
C369 C 0.60691 0.97873 0.95032 0.0
C370 C 0.52148 0.97513 0.05485 0.0
C371 C 0.47428 0.9752 0.97658 0.0
O372 O 0.46487 0.01394 0.06774 0.0
O373 O 0.44818 0.03454 0.03182 0.0
O374 O 0.52839 0.05158 1.00957 0.0
O375 O 0.48233 0.0413 0.98721 0.0
O376 O 0.56975 0.05267 0.04242 0.0
O377 O 0.52986 0.04395 0.0675 0.0
O378 O 0.56573 0.01357 0.97408 0.0
O379 O 0.58725 1.00027 1.01298 0.0
O380 O 0.50456 0.97984 0.03313 0.0
O381 O 0.55038 0.9902 0.05604 0.0
O382 O 0.46221 0.98107 0.99822 0.0
O383 O 0.50402 0.98716 0.97579 0.0
H384 H 0.40483 0.05642 0.05221 0.0
H385 H 0.40414 0.09616 0.08238 0.0
H386 H 0.48547 0.09125 0.13905 0.0
H387 H 0.48686 0.05239 0.10814 0.0
H388 H 0.54733 0.94887 0.986 0.0
H389 H 0.54562 0.90688 0.95778 0.0
H390 H 0.62173 0.95707 0.91892 0.0
H391 H 0.62386 0.9988 0.948 0.0
Pr392 Pr 0.52652 0.5444 0.53161 0.0
Pr393 Pr 0.50667 0.47792 0.50222 0.0
C394 C 0.52692 0.59761 0.53907 0.0
C395 C 0.51458 0.61479 0.55627 0.0
C396 C 0.5296 0.64385 0.56062 0.0
C397 C 0.51531 0.66119 0.57242 0.0
C398 C 0.48556 0.64969 0.57971 0.0
C399 C 0.47149 0.6203 0.57691 0.0
C400 C 0.48596 0.60298 0.5654 0.0
C401 C 0.54385 0.50775 0.56992 0.0
C402 C 0.46078 0.49472 0.54471 0.0
C403 C 0.50682 0.42472 0.49571 0.0
C404 C 0.52047 0.40843 0.47898 0.0
C405 C 0.53912 0.42128 0.45926 0.0
C406 C 0.55636 0.40705 0.44701 0.0
C407 C 0.5553 0.37983 0.45447 0.0
C408 C 0.53549 0.36668 0.47336 0.0
C409 C 0.51825 0.38092 0.48554 0.0
C410 C 0.48985 0.51452 0.46347 0.0
C411 C 0.57234 0.5277 0.48907 0.0
O412 O 0.50596 0.5786 0.52075 0.0
O413 O 0.5496 0.58909 0.55179 0.0
O414 O 0.53029 0.50263 0.54433 0.0
O415 O 0.55072 0.53462 0.57672 0.0
O416 O 0.4672 0.4748 0.53014 0.0
O417 O 0.47796 0.52182 0.54637 0.0
O418 O 0.5271 0.44377 0.51444 0.0
O419 O 0.48458 0.43328 0.48208 0.0
O420 O 0.50296 0.51979 0.48924 0.0
O421 O 0.48327 0.48765 0.45682 0.0
O422 O 0.5656 0.54762 0.5033 0.0
O423 O 0.55544 0.50052 0.4877 0.0
H424 H 0.55176 0.65327 0.55378 0.0
H425 H 0.52708 0.68368 0.57492 0.0
H426 H 0.44853 0.61074 0.58212 0.0
H427 H 0.47403 0.58051 0.56226 0.0
H428 H 0.54126 0.44268 0.45421 0.0
H429 H 0.57112 0.4176 0.43227 0.0
H430 H 0.53445 0.3459 0.47984 0.0
H431 H 0.50427 0.3709 0.50106 0.0
Pr432 Pr 1.01476 0.54049 0.99964 0.0
Pr433 Pr 0.01971 0.49335 0.03406 0.0
C434 C 0.99595 0.57834 0.96883 0.0
C435 C 0.96683 0.58481 0.96125 0.0
C436 C 0.96657 0.60805 0.94571 0.0
C437 C 0.93856 0.61319 0.9364 0.0
C438 C 0.91031 0.5951 0.94246 0.0
C439 C 0.9108 0.57204 0.95853 0.0
C440 C 0.9389 0.56697 0.96792 0.0
C441 C 0.07492 0.55048 0.03043 0.0
C442 C 0.98968 0.53686 0.06327 0.0
C443 C 0.03851 0.45563 0.06513 0.0
C444 C 0.06826 0.4512 0.07564 0.0
C445 C 0.06888 0.42964 0.09354 0.0
C446 C 0.09726 0.42675 0.1059 0.0
C447 C 0.12555 0.44553 0.10069 0.0
C448 C 0.12479 0.46676 0.08211 0.0
C449 C 0.09628 0.46956 0.06965 0.0
C450 C 0.95951 0.48327 1.00345 0.0
C451 C 0.0453 0.49726 0.97055 0.0
O452 O 0.99574 0.55417 0.95788 0.0
O453 O 1.00958 0.58381 0.99553 0.0
O454 O 0.05004 0.53955 0.03986 0.0
O455 O 0.06929 0.55852 1.00503 0.0
O456 O 1.00426 0.51815 0.06885 0.0
O457 O 0.98719 0.54599 0.0373 0.0
O458 O 0.03504 0.4782 0.07632 0.0
O459 O 0.0285 0.45141 0.03762 0.0
O460 O 0.98433 0.49422 0.9939 0.0
O461 O 0.96531 0.47504 0.02872 0.0
O462 O 0.0312 0.51634 0.96501 0.0
O463 O 0.04725 0.4878 0.99639 0.0
H464 H 0.98794 0.62187 0.94023 0.0
H465 H 0.93892 0.63086 0.92366 0.0
H466 H 0.88949 0.55785 0.96372 0.0
H467 H 0.93878 0.54889 0.97995 0.0
H468 H 0.04742 0.41534 0.09836 0.0
H469 H 0.09708 0.40984 0.11967 0.0
H470 H 0.14618 0.48161 0.07783 0.0
H471 H 0.09609 0.48636 0.05583 0.0
C472 C 0.29054 0.24256 0.40977 0.0
C473 C 0.28064 0.24236 0.38032 0.0
C474 C 0.27271 0.22294 0.42614 0.0
C475 C 0.24447 0.20274 0.41264 0.0
C476 C 0.23471 0.20222 0.38285 0.0
C477 C 0.25295 0.22193 0.3671 0.0
C478 C 0.28382 0.22399 0.45784 0.0
C479 C 0.20484 0.18093 0.36756 0.0
C480 C 0.20389 0.13382 0.44131 0.0
C481 C 0.17813 0.13938 0.44944 0.0
C482 C 0.22717 0.15495 0.43132 0.0
C483 C 0.22446 0.18221 0.42929 0.0
C484 C 0.19971 0.18844 0.43941 0.0
C485 C 0.17683 0.16692 0.44941 0.0
C486 C 0.25339 0.14755 0.42103 0.0
C487 C 0.19596 0.21722 0.43756 0.0
H488 H 0.3119 0.25835 0.42008 0.0
H489 H 0.24555 0.22125 0.34423 0.0
H490 H 0.26669 0.22859 0.46964 0.0
H491 H 0.28556 0.20323 0.46381 0.0
H492 H 0.30687 0.24027 0.46491 0.0
H493 H 0.20068 0.18333 0.34426 0.0
H494 H 0.20552 0.15929 0.37075 0.0
H495 H 0.18476 0.18317 0.37658 0.0
H496 H 0.20522 0.11263 0.44175 0.0
H497 H 0.15688 0.17131 0.4555 0.0
H498 H 0.27603 0.16405 0.42887 0.0
H499 H 0.2496 0.14634 0.39736 0.0
H500 H 0.25487 0.12699 0.42808 0.0
H501 H 0.21842 0.2339 0.44555 0.0
H502 H 0.17822 0.21976 0.44991 0.0
H503 H 0.18863 0.2205 0.41491 0.0
C504 C 0.38897 0.92033 0.8219 0.0
C505 C 0.37072 0.89199 0.81689 0.0
C506 C 0.40409 0.9317 0.84945 0.0
C507 C 0.40125 0.91413 0.87237 0.0
C508 C 0.38265 0.88549 0.86745 0.0
C509 C 0.36729 0.87478 0.83967 0.0
C510 C 0.42334 0.96247 0.85394 0.0
C511 C 0.37959 0.86609 0.89134 0.0
C512 C 0.46768 0.94259 0.93422 0.0
C513 C 0.4544 0.95625 0.95213 0.0
C514 C 0.44998 0.92713 0.90898 0.0
C515 C 0.41848 0.9259 0.90128 0.0
C516 C 0.40457 0.93857 0.91997 0.0
C517 C 0.4227 0.95341 0.9454 0.0
C518 C 0.46544 0.91335 0.8899 0.0
C519 C 0.37116 0.93799 0.91226 0.0
H520 H 0.3913 0.9336 0.8042 0.0
H521 H 0.35328 0.85279 0.83559 0.0
H522 H 0.41537 0.9732 0.87044 0.0
H523 H 0.44811 0.96463 0.8618 0.0
H524 H 0.42195 0.97348 0.83405 0.0
H525 H 0.36354 0.84457 0.88407 0.0
H526 H 0.4028 0.86464 0.9004 0.0
H527 H 0.37091 0.87468 0.90883 0.0
H528 H 0.49214 0.94447 0.93964 0.0
H529 H 0.41245 0.96405 0.95925 0.0
H530 H 0.46811 0.92469 0.87025 0.0
H531 H 0.45077 0.89128 0.88325 0.0
H532 H 0.48884 0.91346 0.90054 0.0
H533 H 0.36894 0.9509 0.89393 0.0
H534 H 0.363 0.94637 0.93029 0.0
H535 H 0.35558 0.91623 0.90553 0.0
C536 C 0.54944 0.40968 0.69953 0.0
C537 C 0.57109 0.39509 0.69973 0.0
C538 C 0.54394 0.42619 0.67698 0.0
C539 C 0.56085 0.42872 0.65411 0.0
C540 C 0.5823 0.41359 0.6539 0.0
C541 C 0.58697 0.39685 0.67652 0.0
C542 C 0.52044 0.44145 0.67797 0.0
C543 C 0.60118 0.41587 0.63027 0.0
C544 C 0.53169 0.45832 0.58553 0.0
C545 C 0.54944 0.48691 0.59012 0.0
C546 C 0.53533 0.43905 0.60589 0.0
C547 C 0.55745 0.44851 0.63144 0.0
C548 C 0.57585 0.4773 0.63579 0.0
C549 C 0.57141 0.4961 0.61529 0.0
C550 C 0.51486 0.40874 0.60044 0.0
C551 C 0.59999 0.4884 0.66238 0.0
H552 H 0.5368 0.40827 0.71717 0.0
H553 H 0.60398 0.38594 0.67656 0.0
H554 H 0.53245 0.46451 0.68019 0.0
H555 H 0.5034 0.4366 0.65775 0.0
H556 H 0.50757 0.43574 0.69603 0.0
H557 H 0.61568 0.40172 0.63234 0.0
H558 H 0.58558 0.41068 0.6092 0.0
H559 H 0.61673 0.43785 0.63051 0.0
H560 H 0.51416 0.45117 0.56647 0.0
H561 H 0.58515 0.51818 0.61905 0.0
H562 H 0.49957 0.40349 0.61677 0.0
H563 H 0.52932 0.39459 0.60235 0.0
H564 H 0.50001 0.40436 0.57896 0.0
H565 H 0.58849 0.48592 0.68144 0.0
H566 H 0.6135 0.51097 0.66194 0.0
H567 H 0.61644 0.47609 0.66494 0.0
C568 C 0.94762 0.60848 0.20204 0.0
C569 C 0.91531 0.60188 0.20225 0.0
C570 C 0.9595 0.59855 0.17942 0.0
C571 C 0.93903 0.58062 0.15607 0.0
C572 C 0.90651 0.5735 0.15617 0.0
C573 C 0.89521 0.58433 0.17867 0.0
C574 C 0.99429 0.60739 0.18056 0.0
C575 C 0.88339 0.55415 0.13238 0.0
C576 C 0.9676 0.57252 0.08438 0.0
C577 C 0.97607 0.54785 0.08666 0.0
C578 C 0.95588 0.58339 0.10656 0.0
C579 C 0.9516 0.56917 0.1319 0.0
C580 C 0.95963 0.544 0.13407 0.0
C581 C 0.97193 0.53395 0.11187 0.0
C582 C 0.9485 0.6105 0.10299 0.0
C583 C 0.95507 0.52744 0.15997 0.0
H584 H 0.96412 0.62127 0.21978 0.0
H585 H 0.87029 0.57906 0.17736 0.0
H586 H 1.00225 0.58866 0.18194 0.0
H587 H 1.00037 0.61714 0.16069 0.0
H588 H 1.00726 0.6226 0.1991 0.0
H589 H 0.85896 0.54951 0.13585 0.0
H590 H 0.88558 0.5638 0.11177 0.0
H591 H 0.88845 0.53402 0.13045 0.0
H592 H 0.97067 0.58376 0.06534 0.0
H593 H 0.97809 0.51486 0.11422 0.0
H594 H 0.96241 0.62626 0.12077 0.0
H595 H 0.92358 0.60693 0.10395 0.0
H596 H 0.95346 0.61941 0.08246 0.0
H597 H 0.9697 0.54045 0.17934 0.0
H598 H 0.96115 0.50777 0.15819 0.0
H599 H 0.93045 0.52191 0.16303 0.0
C600 C 0.43463 0.24006 0.17911 0.0
C601 C 0.43154 0.23939 0.20798 0.0
C602 C 0.43992 0.21774 0.16473 0.0
C603 C 0.44259 0.19434 0.17968 0.0
C604 C 0.4415 0.19433 0.20924 0.0
C605 C 0.4358 0.21679 0.22301 0.0
C606 C 0.44091 0.21851 0.13318 0.0
C607 C 0.44467 0.16991 0.22598 0.0
C608 C 0.41613 0.12402 0.13638 0.0
C609 C 0.44445 0.12134 0.13137 0.0
C610 C 0.4153 0.14758 0.15225 0.0
C611 C 0.44353 0.16884 0.16381 0.0
C612 C 0.47228 0.16599 0.15954 0.0
C613 C 0.47239 0.14236 0.14319 0.0
C614 C 0.38413 0.14991 0.15626 0.0
C615 C 0.50284 0.18809 0.17184 0.0
H616 H 0.43199 0.25772 0.16749 0.0
H617 H 0.43317 0.21591 0.24524 0.0
H618 H 0.46192 0.21405 0.12845 0.0
H619 H 0.42029 0.2019 0.12115 0.0
H620 H 0.44095 0.23915 0.12522 0.0
H621 H 0.44718 0.17467 0.24933 0.0
H622 H 0.42374 0.15125 0.21915 0.0
H623 H 0.46514 0.16417 0.22171 0.0
H624 H 0.39448 0.10764 0.12785 0.0
H625 H 0.49438 0.14067 0.13917 0.0
H626 H 0.3811 0.1692 0.14709 0.0
H627 H 0.38313 0.15181 0.17933 0.0
H628 H 0.36435 0.13148 0.14596 0.0
H629 H 0.50418 0.20822 0.16214 0.0
H630 H 0.52322 0.18188 0.16806 0.0
H631 H 0.50443 0.19205 0.19516 0.0
C632 C 0.19186 0.93198 0.62858 0.0
C633 C 0.19559 0.91169 0.60993 0.0
C634 C 0.17327 0.94857 0.61916 0.0
C635 C 0.15788 0.94458 0.59046 0.0
C636 C 0.16229 0.92469 0.5713 0.0
C637 C 0.18124 0.90853 0.58127 0.0
C638 C 0.16931 0.96972 0.64014 0.0
C639 C 0.14601 0.91971 0.54059 0.0
C640 C 0.0817 0.96009 0.57447 0.0
C641 C 0.09039 0.98559 0.5616 0.0
C642 C 0.10355 0.94675 0.58418 0.0
C643 C 0.13499 0.95931 0.58115 0.0
C644 C 0.14419 0.98545 0.56893 0.0
C645 C 0.1217 0.9983 0.5592 0.0
C646 C 0.09282 0.91886 0.59709 0.0
C647 C 0.17761 0.99951 0.56564 0.0
H648 H 0.20343 0.9348 0.65065 0.0
H649 H 0.18406 0.89279 0.56686 0.0
H650 H 0.17408 0.99063 0.63133 0.0
H651 H 0.14487 0.9631 0.64386 0.0
H652 H 0.18496 0.97194 0.661 0.0
H653 H 0.15361 0.90495 0.52799 0.0
H654 H 0.12047 0.91084 0.53972 0.0
H655 H 0.15052 0.93988 0.53034 0.0
H656 H 0.05756 0.95013 0.57646 0.0
H657 H 0.12854 0.018 0.54926 0.0
H658 H 0.10615 0.92021 0.61893 0.0
H659 H 0.09735 0.90233 0.58419 0.0
H660 H 0.06759 0.91217 0.59828 0.0
H661 H 0.1932 1.00218 0.58656 0.0
H662 H 0.18123 0.02044 0.55697 0.0
H663 H 0.1847 0.986 0.55108 0.0
C664 C 0.7838 0.43542 0.91543 0.0
C665 C 0.77983 0.412 0.89663 0.0
C666 C 0.81305 0.45005 0.93192 0.0
C667 C 0.83891 0.4408 0.93001 0.0
C668 C 0.83531 0.41778 0.91049 0.0
C669 C 0.80599 0.40388 0.89391 0.0
C670 C 0.81603 0.47485 0.95205 0.0
C671 C 0.86224 0.40719 0.90776 0.0
C672 C 0.92275 0.48542 0.95931 0.0
C673 C 0.92817 0.47401 0.98547 0.0
C674 C 0.89337 0.47576 0.94154 0.0
C675 C 0.86915 0.45366 0.94982 0.0
C676 C 0.8744 0.44255 0.97655 0.0
C677 C 0.90372 0.45307 0.99415 0.0
C678 C 0.8885 0.48879 0.91366 0.0
C679 C 0.84935 0.41887 0.98616 0.0
H680 H 0.76386 0.44186 0.91798 0.0
H681 H 0.80355 0.38638 0.87895 0.0
H682 H 0.82032 0.46937 0.97443 0.0
H683 H 0.83623 0.4931 0.9492 0.0
H684 H 0.79475 0.4813 0.9488 0.0
H685 H 0.85593 0.38973 0.89085 0.0
H686 H 0.88218 0.42455 0.90284 0.0
H687 H 0.87023 0.39961 0.92836 0.0
H688 H 0.94153 0.50183 0.95267 0.0
H689 H 0.90777 0.44423 1.0144 0.0
H690 H 0.86706 0.49492 0.91152 0.0
H691 H 0.88531 0.47315 0.89562 0.0
H692 H 0.9085 0.50767 0.91177 0.0
H693 H 0.82797 0.4248 0.986 0.0
H694 H 0.85679 0.41323 1.00794 0.0
H695 H 0.84312 0.39993 0.97109 0.0
C696 C 0.6926 0.58448 0.37901 0.0
C697 C 0.72329 0.58468 0.38894 0.0
C698 C 0.66839 0.57424 0.39506 0.0
C699 C 0.67454 0.56394 0.42215 0.0
C700 C 0.70533 0.56371 0.43216 0.0
C701 C 0.72908 0.57386 0.41554 0.0
C702 C 0.63611 0.57473 0.38304 0.0
C703 C 0.71341 0.55326 0.46087 0.0
C704 C 0.61895 0.56471 0.47511 0.0
C705 C 0.59943 0.53653 0.47294 0.0
C706 C 0.6435 0.57367 0.45921 0.0
C707 C 0.64903 0.55422 0.44019 0.0
C708 C 0.62961 0.52569 0.43807 0.0
C709 C 0.60532 0.51724 0.45438 0.0
C710 C 0.66343 0.60421 0.46261 0.0
C711 C 0.63414 0.50405 0.41812 0.0
H712 H 0.68737 0.59229 0.35843 0.0
H713 H 0.75254 0.57406 0.42385 0.0
H714 H 0.61905 0.55331 0.38208 0.0
H715 H 0.62909 0.58858 0.39728 0.0
H716 H 0.63466 0.58238 0.36132 0.0
H717 H 0.73802 0.55358 0.46541 0.0
H718 H 0.70946 0.56657 0.47791 0.0
H719 H 0.69799 0.53146 0.4619 0.0
H720 H 0.61499 0.58002 0.48921 0.0
H721 H 0.59059 0.49545 0.45219 0.0
H722 H 0.66094 0.61376 0.44196 0.0
H723 H 0.68834 0.60596 0.46879 0.0
H724 H 0.65708 0.61658 0.47895 0.0
H725 H 0.63056 0.50996 0.39583 0.0
H726 H 0.61783 0.48261 0.41934 0.0
H727 H 0.65836 0.50346 0.42322 0.0
C728 C 0.25108 0.38087 0.16839 0.0
C729 C 0.27706 0.39861 0.18695 0.0
C730 C 0.23 0.39171 0.1519 0.0
C731 C 0.23505 0.42105 0.15404 0.0
C732 C 0.26245 0.43928 0.17118 0.0
C733 C 0.28325 0.4278 0.1875 0.0
C734 C 0.20123 0.37152 0.13371 0.0
C735 C 0.26878 0.47069 0.17373 0.0
C736 C 0.17974 0.44435 0.09978 0.0
C737 C 0.15553 0.44287 0.11503 0.0
C738 C 0.20683 0.43891 0.11267 0.0
C739 C 0.20958 0.43178 0.14135 0.0
C740 C 0.18596 0.43184 0.15723 0.0
C741 C 0.1593 0.43747 0.1439 0.0
C742 C 0.23167 0.43933 0.09515 0.0
C743 C 0.18802 0.42448 0.18792 0.0
H744 H 0.24663 0.35831 0.16756 0.0
H745 H 0.30339 0.44153 0.20182 0.0
H746 H 0.18039 0.37115 0.14302 0.0
H747 H 0.19795 0.37853 0.11185 0.0
H748 H 0.20235 0.34974 0.13218 0.0
H749 H 0.29317 0.48217 0.18396 0.0
H750 H 0.26416 0.47852 0.15243 0.0
H751 H 0.25291 0.47568 0.18685 0.0
H752 H 0.17695 0.44855 0.07746 0.0
H753 H 0.14099 0.43701 0.15596 0.0
H754 H 0.23077 0.41743 0.0897 0.0
H755 H 0.25518 0.45049 0.10751 0.0
H756 H 0.22852 0.4496 0.07499 0.0
H757 H 0.1869 0.40211 0.18898 0.0
H758 H 0.16888 0.42763 0.19788 0.0
H759 H 0.2106 0.43747 0.20072 0.0
C760 C 0.56944 0.1733 0.87737 0.0
C761 C 0.5644 0.19862 0.88476 0.0
C762 C 0.56105 0.14976 0.89358 0.0
C763 C 0.54743 0.15141 0.91807 0.0
C764 C 0.5421 0.17683 0.92555 0.0
C765 C 0.55049 0.19998 0.90882 0.0
C766 C 0.56684 0.12309 0.88448 0.0
C767 C 0.52785 0.17972 0.95152 0.0
C768 C 0.4999 0.08366 0.94656 0.0
C769 C 0.52112 0.07994 0.96959 0.0
C770 C 0.50822 0.10655 0.92956 0.0
C771 C 0.53852 0.12652 0.93569 0.0
C772 C 0.56016 0.12272 0.9588 0.0
C773 C 0.55126 0.09948 0.97536 0.0
C774 C 0.48442 0.10947 0.90509 0.0
C775 C 0.59265 0.14343 0.96626 0.0
H776 H 0.57984 0.1718 0.85869 0.0
H777 H 0.54685 0.21946 0.91505 0.0
H778 H 0.58263 0.11757 0.90181 0.0
H779 H 0.54461 0.10538 0.88055 0.0
H780 H 0.57736 0.12504 0.86482 0.0
H781 H 0.52521 0.20082 0.95455 0.0
H782 H 0.5046 0.16354 0.94961 0.0
H783 H 0.5426 0.17607 0.97089 0.0
H784 H 0.47659 0.06866 0.94185 0.0
H785 H 0.56782 0.09684 0.99311 0.0
H786 H 0.49369 0.11019 0.88484 0.0
H787 H 0.4796 0.12954 0.90849 0.0
H788 H 0.46211 0.09187 0.90265 0.0
H789 H 0.60477 0.1448 0.94766 0.0
H790 H 0.60678 0.13752 0.98472 0.0
H791 H 0.59147 0.16471 0.97144 0.0
C792 C 0.91361 0.80423 0.41671 0.0
C793 C 0.92173 0.80034 0.38994 0.0
C794 C 0.92556 0.83053 0.43297 0.0
C795 C 0.94562 0.85414 0.42209 0.0
C796 C 0.95356 0.8504 0.39487 0.0
C797 C 0.94196 0.82363 0.37942 0.0
C798 C 0.91707 0.83289 0.4621 0.0
C799 C 0.9742 0.87484 0.3819 0.0
C800 C 0.95593 0.92871 0.45439 0.0
C801 C 0.98571 0.93621 0.47127 0.0
C802 C 0.94268 0.90231 0.43823 0.0
C803 C 0.95907 0.88237 0.43951 0.0
C804 C 0.98866 0.8896 0.4574 0.0
C805 C 1.00171 0.91639 0.47254 0.0
C806 C 0.91148 0.89607 0.41909 0.0
C807 C 1.00678 0.86906 0.46047 0.0
H808 H 0.89823 0.78643 0.42525 0.0
H809 H 0.94821 0.82106 0.35872 0.0
H810 H 0.93852 0.83992 0.47851 0.0
H811 H 0.90518 0.84897 0.46293 0.0
H812 H 0.90158 0.81263 0.46777 0.0
H813 H 0.97691 0.86903 0.36001 0.0
H814 H 0.96435 0.89245 0.38103 0.0
H815 H 0.9976 0.88268 0.39544 0.0
H816 H 0.94346 0.9439 0.45295 0.0
H817 H 0.02468 0.92186 0.48556 0.0
H818 H 0.8947 0.87672 0.42499 0.0
H819 H 0.91389 0.89213 0.39664 0.0
H820 H 0.90166 0.91361 0.42028 0.0
H821 H 0.99216 0.84874 0.46681 0.0
H822 H 0.02846 0.87705 0.47657 0.0
H823 H 1.01312 0.86474 0.43968 0.0
C824 C 0.40761 0.75955 0.63241 0.0
C825 C 0.37786 0.75508 0.61636 0.0
C826 C 0.4253 0.74224 0.62741 0.0
C827 C 0.41281 0.7197 0.60605 0.0
C828 C 0.38261 0.71472 0.59006 0.0
C829 C 0.36549 0.73255 0.59536 0.0
C830 C 0.45747 0.74824 0.64483 0.0
C831 C 0.36854 0.69074 0.56718 0.0
C832 C 0.46913 0.69252 0.57324 0.0
C833 C 0.46811 0.66831 0.58774 0.0
C834 C 0.4514 0.7095 0.57915 0.0
C835 C 0.43185 0.70193 0.59983 0.0
C836 C 0.43075 0.67764 0.61469 0.0
C837 C 0.44905 0.66118 0.60857 0.0
C838 C 0.45335 0.73541 0.56305 0.0
C839 C 0.41007 0.66892 0.63685 0.0
H840 H 0.41703 0.7765 0.64915 0.0
H841 H 0.34259 0.72907 0.58281 0.0
H842 H 0.45904 0.7295 0.65608 0.0
H843 H 0.47507 0.75274 0.63054 0.0
H844 H 0.46359 0.76642 0.66089 0.0
H845 H 0.34432 0.68907 0.55744 0.0
H846 H 0.38292 0.69371 0.5501 0.0
H847 H 0.36839 0.67056 0.57627 0.0
H848 H 0.48325 0.69787 0.55668 0.0
H849 H 0.44836 0.64267 0.62006 0.0
H850 H 0.46048 0.75433 0.57827 0.0
H851 H 0.43011 0.73365 0.55075 0.0
H852 H 0.4702 0.73866 0.54804 0.0
H853 H 0.4165 0.68592 0.65423 0.0
H854 H 0.41171 0.64932 0.64632 0.0
H855 H 0.38545 0.66555 0.62711 0.0
C856 C 0.78818 0.79997 0.67819 0.0
C857 C 0.76318 0.77673 0.66525 0.0
C858 C 0.80875 0.81694 0.66215 0.0
C859 C 0.80434 0.81046 0.63235 0.0
C860 C 0.78003 0.78624 0.6193 0.0
C861 C 0.75966 0.76957 0.63597 0.0
C862 C 0.83452 0.84246 0.67698 0.0
C863 C 0.77482 0.7786 0.58763 0.0
C864 C 0.8371 0.87603 0.59522 0.0
C865 C 0.86714 0.87524 0.59395 0.0
C866 C 0.81542 0.85389 0.60566 0.0
C867 C 0.82404 0.83041 0.61505 0.0
C868 C 0.85347 0.8285 0.61172 0.0
C869 C 0.87474 0.85101 0.6012 0.0
C870 C 0.78419 0.85667 0.60867 0.0
C871 C 0.86343 0.80374 0.62131 0.0
H872 H 0.79135 0.80518 0.70096 0.0
H873 H 0.74034 0.75158 0.62594 0.0
H874 H 0.85736 0.84208 0.67239 0.0
H875 H 0.8308 0.86187 0.66879 0.0
H876 H 0.83567 0.84371 0.70049 0.0
H877 H 0.75735 0.75747 0.58137 0.0
H878 H 0.7665 0.79438 0.57585 0.0
H879 H 0.79699 0.77895 0.58085 0.0
H880 H 0.83098 0.89454 0.58911 0.0
H881 H 0.89797 0.85033 0.60032 0.0
H882 H 0.78351 0.86051 0.6316 0.0
H883 H 0.76516 0.83692 0.6005 0.0
H884 H 0.77958 0.87431 0.59711 0.0
H885 H 0.86897 0.8053 0.64496 0.0
H886 H 0.8844 0.80302 0.61277 0.0
H887 H 0.84435 0.78367 0.61449 0.0
C888 C 0.68486 0.12926 0.19863 0.0
C889 C 0.68322 0.15436 0.21084 0.0
C890 C 0.66527 0.11616 0.1732 0.0
C891 C 0.64402 0.12884 0.15923 0.0
C892 C 0.6437 0.15515 0.17033 0.0
C893 C 0.66317 0.16753 0.1962 0.0
C894 C 0.66619 0.08801 0.16211 0.0
C895 C 0.62178 0.16955 0.15565 0.0
C896 C 0.60748 0.09708 0.08402 0.0
C897 C 0.57935 0.07782 0.08856 0.0
C898 C 0.62811 0.11508 0.1066 0.0
C899 C 0.62061 0.11327 0.13436 0.0
C900 C 0.59172 0.09456 0.13885 0.0
C901 C 0.5713 0.07721 0.1158 0.0
C902 C 0.65834 0.13532 0.10093 0.0
C903 C 0.58303 0.09182 0.16823 0.0
H904 H 0.70085 0.11933 0.2095 0.0
H905 H 0.66164 0.18686 0.20555 0.0
H906 H 0.64356 0.07161 0.16265 0.0
H907 H 0.66973 0.08864 0.13958 0.0
H908 H 0.685 0.0816 0.17486 0.0
H909 H 0.62747 0.19155 0.1647 0.0
H910 H 0.62251 0.1697 0.13245 0.0
H911 H 0.59755 0.15778 0.15805 0.0
H912 H 0.61356 0.0979 0.06287 0.0
H913 H 0.54953 0.06239 0.11939 0.0
H914 H 0.67808 0.12846 0.11086 0.0
H915 H 0.66206 0.15668 0.11071 0.0
H916 H 0.65892 0.13659 0.07774 0.0
H917 H 0.59939 0.08351 0.18219 0.0
H918 H 0.55892 0.07752 0.16776 0.0
H919 H 0.58505 0.11272 0.17807 0.0
C920 C 0.44033 0.62144 0.35583 0.0
C921 C 0.46046 0.62911 0.33582 0.0
C922 C 0.44539 0.60415 0.3778 0.0
C923 C 0.47124 0.59405 0.38005 0.0
C924 C 0.49204 0.6022 0.36035 0.0
C925 C 0.48644 0.61953 0.3386 0.0
C926 C 0.42257 0.5961 0.39822 0.0
C927 C 0.51996 0.59211 0.36186 0.0
C928 C 0.49832 0.56431 0.44936 0.0
C929 C 0.48442 0.53522 0.4429 0.0
C930 C 0.49392 0.58371 0.42941 0.0
C931 C 0.47561 0.57385 0.402 0.0
C932 C 0.46171 0.54443 0.39537 0.0
C933 C 0.46623 0.52559 0.41583 0.0
C934 C 0.50919 0.61479 0.43756 0.0
C935 C 0.44225 0.53278 0.36648 0.0
H936 H 0.41995 0.62827 0.35385 0.0
H937 H 0.50249 0.62555 0.32367 0.0
H938 H 0.41057 0.57304 0.39559 0.0
H939 H 0.43508 0.60131 0.42058 0.0
H940 H 0.4047 0.60692 0.39477 0.0
H941 H 0.53465 0.60119 0.34578 0.0
H942 H 0.53452 0.59777 0.38341 0.0
H943 H 0.51211 0.56884 0.35829 0.0
H944 H 0.51324 0.57193 0.46978 0.0
H945 H 0.4556 0.50314 0.41048 0.0
H946 H 0.49149 0.62579 0.43442 0.0
H947 H 0.52636 0.62385 0.42351 0.0
H948 H 0.52132 0.61916 0.46011 0.0
H949 H 0.42243 0.54119 0.3624 0.0
H950 H 0.4329 0.50942 0.36465 0.0
H951 H 0.45646 0.53958 0.34953 0.0
C952 C 0.08634 0.42484 0.83175 0.0
C953 C 0.11859 0.43056 0.83174 0.0
C954 C 0.07471 0.43514 0.85432 0.0
C955 C 0.09539 0.45261 0.87784 0.0
C956 C 0.12787 0.4589 0.87794 0.0
C957 C 0.1389 0.44769 0.85547 0.0
C958 C 0.03994 0.42717 0.85295 0.0
C959 C 0.15124 0.47773 0.90192 0.0
C960 C 0.06372 0.50022 0.92222 0.0
C961 C 0.05889 0.48613 0.94722 0.0
C962 C 0.07591 0.48995 0.90005 0.0
C963 C 0.08309 0.46436 0.90204 0.0
C964 C 0.07813 0.44996 0.92718 0.0
C965 C 0.06656 0.46105 0.94934 0.0
C966 C 0.08124 0.50672 0.87438 0.0
C967 C 0.08458 0.42242 0.93055 0.0
H968 H 0.06969 0.41242 0.81387 0.0
H969 H 0.16376 0.45232 0.85694 0.0
H970 H 0.0334 0.41737 0.87268 0.0
H971 H 0.0327 0.4463 0.85172 0.0
H972 H 0.02672 0.41227 0.83425 0.0
H973 H 0.17563 0.48185 0.89855 0.0
H974 H 0.14682 0.49815 0.90402 0.0
H975 H 0.14864 0.46794 0.92241 0.0
H976 H 0.05818 0.51962 0.91999 0.0
H977 H 0.06294 0.44964 0.96821 0.0
H978 H 0.06645 0.49411 0.85485 0.0
H979 H 0.10585 0.51164 0.87146 0.0
H980 H 0.07588 0.52673 0.87633 0.0
H981 H 0.07043 0.40695 0.91261 0.0
H982 H 0.07921 0.41344 0.95096 0.0
H983 H 0.10941 0.42541 0.92971 0.0
C984 C 0.58607 0.81373 0.8198 0.0
C985 C 0.59119 0.79001 0.83187 0.0
C986 C 0.58062 0.83453 0.83645 0.0
C987 C 0.57987 0.83131 0.8658 0.0
C988 C 0.58238 0.80631 0.87757 0.0
C989 C 0.58816 0.78595 0.86046 0.0
C990 C 0.57803 0.86086 0.82306 0.0
C991 C 0.58116 0.80192 0.90869 0.0
C992 C 0.61002 0.89868 0.91423 0.0
C993 C 0.58237 0.90318 0.91865 0.0
C994 C 0.60941 0.8752 0.89731 0.0
C995 C 0.58042 0.85551 0.88473 0.0
C996 C 0.55237 0.85958 0.88951 0.0
C997 C 0.55367 0.88347 0.9063 0.0
C998 C 0.63987 0.87168 0.89261 0.0
C999 C 0.52105 0.83892 0.87661 0.0
H1000 H 0.58774 0.81667 0.79754 0.0
H1001 H 0.59219 0.76773 0.86998 0.0
H1002 H 0.55779 0.86612 0.82865 0.0
H1003 H 0.59923 0.87881 0.83153 0.0
H1004 H 0.57559 0.85874 0.79944 0.0
H1005 H 0.57871 0.77984 0.91345 0.0
H1006 H 0.60291 0.81592 0.92195 0.0
H1007 H 0.56145 0.80751 0.91514 0.0
H1008 H 0.63226 0.91349 0.92413 0.0
H1009 H 0.53218 0.88694 0.90934 0.0
H1010 H 0.64101 0.87137 0.86948 0.0
H1011 H 0.64143 0.85129 0.89997 0.0
H1012 H 0.6604 0.88882 0.90405 0.0
H1013 H 0.518 0.83832 0.85299 0.0
H1014 H 0.50147 0.84442 0.88354 0.0
H1015 H 0.51976 0.81742 0.88265 0.0
C1016 C 0.82312 0.08744 0.43081 0.0
C1017 C 0.83534 0.11697 0.43225 0.0
C1018 C 0.84206 0.07102 0.43982 0.0
C1019 C 0.87367 0.08441 0.45192 0.0
C1020 C 0.88578 0.11413 0.45509 0.0
C1021 C 0.86669 0.13003 0.44471 0.0
C1022 C 0.82852 0.03934 0.43546 0.0
C1023 C 0.91913 0.12919 0.46887 0.0
C1024 C 0.91718 0.04268 0.49655 0.0
C1025 C 0.93685 0.03856 0.47835 0.0
C1026 C 0.89634 0.05751 0.48821 0.0
C1027 C 0.89439 0.06739 0.46059 0.0
C1028 C 0.9132 0.062 0.44163 0.0
C1029 C 0.93482 0.04819 0.45103 0.0
C1030 C 0.87766 0.06385 0.50943 0.0
C1031 C 0.91092 0.07129 0.41165 0.0
H1032 H 0.79878 0.07697 0.42214 0.0
H1033 H 0.87675 0.1527 0.44568 0.0
H1034 H 0.84158 0.03113 0.42155 0.0
H1035 H 0.83096 0.02986 0.45614 0.0
H1036 H 0.80349 0.0322 0.42553 0.0
H1037 H 0.92396 0.15224 0.47246 0.0
H1038 H 0.9246 0.12073 0.48967 0.0
H1039 H 0.93513 0.12558 0.45508 0.0
H1040 H 0.9193 0.03563 0.51792 0.0
H1041 H 0.9502 0.04498 0.43709 0.0
H1042 H 0.85247 0.05645 0.50031 0.0
H1043 H 0.88455 0.08695 0.51427 0.0
H1044 H 0.8812 0.0539 0.52974 0.0
H1045 H 0.88626 0.0641 0.40072 0.0
H1046 H 0.92486 0.063 0.39876 0.0
H1047 H 0.91935 0.09459 0.41233 0.0
C1048 C 0.2307 0.62408 0.14085 0.0
C1049 C 0.25555 0.61436 0.13741 0.0
C1050 C 0.20106 0.61192 0.1241 0.0
C1051 C 0.19595 0.58916 0.10371 0.0
C1052 C 0.22068 0.57853 0.10094 0.0
C1053 C 0.25027 0.59147 0.1176 0.0
C1054 C 0.17548 0.62411 0.12754 0.0
C1055 C 0.21604 0.55389 0.07997 0.0
C1056 C 0.1111 0.54745 0.07457 0.0
C1057 C 0.1062 0.55917 0.0485 0.0
C1058 C 0.1405 0.55617 0.0923 0.0
C1059 C 0.16532 0.57775 0.08414 0.0
C1060 C 0.1605 0.58941 0.05766 0.0
C1061 C 0.13112 0.57973 0.04002 0.0
C1062 C 0.14487 0.54254 0.11988 0.0
C1063 C 0.18617 0.61265 0.04826 0.0
H1064 H 0.23475 0.64192 0.15596 0.0
H1065 H 0.26936 0.58373 0.11509 0.0
H1066 H 0.16824 0.63273 0.10733 0.0
H1067 H 0.15474 0.60741 0.13207 0.0
H1068 H 0.18289 0.64118 0.145 0.0
H1069 H 0.23678 0.54665 0.08211 0.0
H1070 H 0.19558 0.53602 0.08309 0.0
H1071 H 0.21119 0.55989 0.05787 0.0
H1072 H 0.09191 0.5314 0.0811 0.0
H1073 H 0.12744 0.58886 0.01988 0.0
H1074 H 0.14992 0.5583 0.13823 0.0
H1075 H 0.16511 0.53471 0.12114 0.0
H1076 H 0.12396 0.52466 0.12208 0.0
H1077 H 0.19358 0.63128 0.0639 0.0
H1078 H 0.17882 0.61916 0.02686 0.0
H1079 H 0.20681 0.60575 0.04761 0.0
C1080 C 0.30485 0.45066 0.61951 0.0
C1081 C 0.31053 0.43958 0.64599 0.0
C1082 C 0.32847 0.4603 0.60264 0.0
C1083 C 0.35902 0.45926 0.61227 0.0
C1084 C 0.36505 0.44861 0.6392 0.0
C1085 C 0.34097 0.43891 0.6555 0.0
C1086 C 0.32051 0.47114 0.57413 0.0
C1087 C 0.39709 0.44728 0.65081 0.0
C1088 C 0.41379 0.458 0.55858 0.0
C1089 C 0.43378 0.48602 0.56098 0.0
C1090 C 0.38934 0.44924 0.57464 0.0
C1091 C 0.38444 0.46872 0.59408 0.0
C1092 C 0.40436 0.49708 0.59645 0.0
C1093 C 0.42849 0.50534 0.57996 0.0
C1094 C 0.36885 0.41888 0.57095 0.0
C1095 C 0.40053 0.51874 0.61686 0.0
H1096 H 0.28158 0.45111 0.6115 0.0
H1097 H 0.34614 0.43088 0.67597 0.0
H1098 H 0.33627 0.49284 0.57326 0.0
H1099 H 0.32408 0.45783 0.55686 0.0
H1100 H 0.29604 0.47125 0.5698 0.0
H1101 H 0.39846 0.43927 0.67237 0.0
H1102 H 0.40357 0.43336 0.63619 0.0
H1103 H 0.41459 0.46851 0.65201 0.0
H1104 H 0.4173 0.44268 0.54417 0.0
H1105 H 0.44359 0.52701 0.58235 0.0
H1106 H 0.34405 0.41762 0.56503 0.0
H1107 H 0.37124 0.40902 0.59143 0.0
H1108 H 0.37474 0.40648 0.55432 0.0
H1109 H 0.3765 0.51985 0.61204 0.0
H1110 H 0.41723 0.54004 0.61586 0.0
H1111 H 0.40407 0.51247 0.63901 0.0
C1112 C 0.77736 0.62863 0.83982 0.0
C1113 C 0.7525 0.63187 0.8518 0.0
C1114 C 0.80087 0.6204 0.85605 0.0
C1115 C 0.79951 0.61522 0.885 0.0
C1116 C 0.7739 0.61741 0.89697 0.0
C1117 C 0.75072 0.62583 0.88024 0.0
C1118 C 0.82789 0.61845 0.84252 0.0
C1119 C 0.77153 0.61178 0.92768 0.0
C1120 C 0.85446 0.57712 0.91819 0.0
C1121 C 0.88045 0.59976 0.93082 0.0
C1122 C 0.82723 0.58166 0.90436 0.0
C1123 C 0.8261 0.60948 0.90302 0.0
C1124 C 0.85172 0.63226 0.91689 0.0
C1125 C 0.87852 0.6271 0.93068 0.0
C1126 C 0.80031 0.55682 0.89002 0.0
C1127 C 0.85139 0.66224 0.91604 0.0
H1128 H 0.77917 0.63369 0.81801 0.0
H1129 H 0.7314 0.62806 0.88951 0.0
H1130 H 0.84967 0.63467 0.85319 0.0
H1131 H 0.83115 0.59763 0.84538 0.0
H1132 H 0.82455 0.62156 0.81934 0.0
H1133 H 0.74887 0.61199 0.93302 0.0
H1134 H 0.77446 0.59109 0.9322 0.0
H1135 H 0.79052 0.62802 0.94199 0.0
H1136 H 0.85583 0.55594 0.91803 0.0
H1137 H 0.89831 0.64461 0.9409 0.0
H1138 H 0.79834 0.55733 0.86652 0.0
H1139 H 0.77808 0.55788 0.8956 0.0
H1140 H 0.80326 0.53644 0.89606 0.0
H1141 H 0.85063 0.6684 0.89376 0.0
H1142 H 0.87224 0.67731 0.9296 0.0
H1143 H 0.83025 0.66415 0.92329 0.0
C1144 C 0.48552 0.82704 0.12472 0.0
C1145 C 0.47122 0.82565 0.14898 0.0
C1146 C 0.49322 0.85163 0.10996 0.0
C1147 C 0.48676 0.87581 0.11959 0.0
C1148 C 0.47278 0.87477 0.14429 0.0
C1149 C 0.46518 0.84982 0.1586 0.0
C1150 C 0.5082 0.85166 0.08387 0.0
C1151 C 0.46555 0.89999 0.15546 0.0
C1152 C 0.5328 0.94646 0.0952 0.0
C1153 C 0.51166 0.9506 0.07235 0.0
C1154 C 0.5248 0.92264 0.11105 0.0
C1155 C 0.4949 0.90216 0.10391 0.0
C1156 C 0.47323 0.90648 0.08115 0.0
C1157 C 0.48181 0.93063 0.06574 0.0
C1158 C 0.54864 0.91916 0.13517 0.0
C1159 C 0.44116 0.88527 0.07265 0.0
H1160 H 0.49087 0.80883 0.11723 0.0
H1161 H 0.45381 0.84909 0.17701 0.0
H1162 H 0.49358 0.8565 0.06509 0.0
H1163 H 0.53121 0.86835 0.08708 0.0
H1164 H 0.51152 0.83116 0.07894 0.0
H1165 H 0.4552 0.89608 0.17517 0.0
H1166 H 0.48711 0.91838 0.16011 0.0
H1167 H 0.44905 0.9057 0.13897 0.0
H1168 H 0.55588 0.96178 0.10058 0.0
H1169 H 0.46531 0.93359 0.04812 0.0
H1170 H 0.55467 0.89998 0.13036 0.0
H1171 H 0.53882 0.91634 0.15518 0.0
H1172 H 0.57035 0.93749 0.13887 0.0
H1173 H 0.44315 0.86479 0.06549 0.0
H1174 H 0.42664 0.89208 0.05518 0.0
H1175 H 0.42901 0.88172 0.0913 0.0
C1176 C 0.11639 0.2046 0.65844 0.0
C1177 C 0.11059 0.22842 0.64697 0.0
C1178 C 0.10458 0.17778 0.64315 0.0
C1179 C 0.08689 0.17436 0.61522 0.0
C1180 C 0.0815 0.19845 0.60329 0.0
C1181 C 0.09304 0.22492 0.6193 0.0
C1182 C 0.11047 0.15289 0.65723 0.0
C1183 C 0.06338 0.19627 0.57353 0.0
C1184 C 0.07452 0.10679 0.56737 0.0
C1185 C 0.04398 0.0906 0.56963 0.0
C1186 C 0.08867 0.13409 0.58167 0.0
C1187 C 0.07232 0.1454 0.59932 0.0
C1188 C 0.04166 0.12886 0.60186 0.0
C1189 C 0.02789 0.1021 0.58685 0.0
C1190 C 0.12106 0.15097 0.57765 0.0
C1191 C 0.02327 0.13937 0.62065 0.0
H1192 H 0.12968 0.2068 0.67979 0.0
H1193 H 0.0887 0.24307 0.60991 0.0
H1194 H 0.08795 0.13711 0.65941 0.0
H1195 H 0.1221 0.14253 0.64376 0.0
H1196 H 0.12518 0.15896 0.67872 0.0
H1197 H 0.06298 0.21711 0.56646 0.0
H1198 H 0.07369 0.18649 0.5582 0.0
H1199 H 0.03903 0.18249 0.57267 0.0
H1200 H 0.08717 0.09834 0.55404 0.0
H1201 H 1.00434 0.08993 0.58893 0.0
H1202 H 0.13714 0.15533 0.59843 0.0
H1203 H 0.12106 0.17158 0.56971 0.0
H1204 H 0.13023 0.13991 0.56237 0.0
H1205 H 0.03646 0.14451 0.64279 0.0
H1206 H 1.00012 0.1237 0.62115 0.0
H1207 H 0.01971 0.15899 0.61293 0.0
C1208 C 0.67601 0.29857 0.43842 0.0
C1209 C 0.68009 0.29484 0.41017 0.0
C1210 C 0.65609 0.31313 0.44515 0.0
C1211 C 0.63997 0.32428 0.4231 0.0
C1212 C 0.6444 0.32104 0.39463 0.0
C1213 C 0.66431 0.30627 0.38849 0.0
C1214 C 0.65192 0.31623 0.47579 0.0
C1215 C 0.62764 0.33269 0.37056 0.0
C1216 C 0.5658 0.33697 0.4364 0.0
C1217 C 0.57638 0.36593 0.44437 0.0
C1218 C 0.5862 0.32319 0.42913 0.0
C1219 C 0.6179 0.3388 0.42973 0.0
C1220 C 0.62858 0.36815 0.43707 0.0
C1221 C 0.6077 0.38136 0.44437 0.0
C1222 C 0.57396 0.29186 0.42131 0.0
C1223 C 0.6622 0.38548 0.43781 0.0
H1224 H 0.68838 0.29004 0.45529 0.0
H1225 H 0.66688 0.30304 0.36653 0.0
H1226 H 0.6579 0.33881 0.48286 0.0
H1227 H 0.62717 0.30591 0.47762 0.0
H1228 H 0.66661 0.30681 0.49048 0.0
H1229 H 0.63461 0.32933 0.34977 0.0
H1230 H 0.60211 0.32248 0.36853 0.0
H1231 H 0.63247 0.35558 0.37524 0.0
H1232 H 0.54155 0.32501 0.43603 0.0
H1233 H 0.61616 0.40366 0.45093 0.0
H1234 H 0.58631 0.28103 0.43665 0.0
H1235 H 0.57854 0.28717 0.39982 0.0
H1236 H 0.54855 0.28291 0.42132 0.0
H1237 H 0.67745 0.3782 0.45416 0.0
H1238 H 0.66647 0.40827 0.4428 0.0
H1239 H 0.66919 0.38264 0.41694 0.0
loop_
_geom_bond_atom_site_label_1
_geom_bond_atom_site_label_2
_geom_bond_distance
_geom_bond_site_symmetry_2
_ccdc_geom_bond_type
C0 C1 1.386 . S
C0 C2 1.397 . S
C0 H24 0.931 . S
C1 C0 1.386 . S
C1 C5 1.397 . S
C2 C0 1.397 . S
C2 C3 1.384 . S
C2 H25 0.930 . S
C3 C2 1.384 . S
C3 C4 1.377 . S
C3 C6 1.481 . S
C4 C3 1.377 . S
C4 C5 1.389 . S
C4 H26 0.929 . S
C5 C1 1.397 . S
C5 C4 1.389 . S
C5 H27 0.931 . S
C6 C3 1.481 . S
C6 C7 1.387 . S
C6 C11 1.390 . S
C7 C6 1.387 . S
C7 C8 1.401 . S
C7 H28 0.930 . S
C8 C7 1.401 . S
C8 C9 1.376 . S
C8 C17 1.511 . S
C9 C8 1.376 . S
C9 C10 1.392 . S
C9 H30 0.931 . S
C10 C9 1.392 . S
C10 C11 1.361 . S
C10 C12 1.500 . S
C11 C6 1.390 . S
C11 C10 1.361 . S
C11 H29 0.931 . S
C12 C10 1.500 . S
C12 C13 1.371 . S
C12 C14 1.365 . S
C13 C12 1.371 . S
C13 C23 1.386 . S
C13 H31 0.931 . S
C14 C12 1.365 . S
C14 C15 1.409 . S
C14 H32 0.929 . S
C15 C14 1.409 . S
C15 C16 1.380 . S
C15 H33 0.930 . S
C16 C15 1.380 . S
C16 C23 1.357 . S
C17 C8 1.511 . S
C17 C18 1.341 . S
C17 C19 1.371 . S
C18 C17 1.341 . S
C18 C22 1.394 . S
C18 H34 0.930 . S
C19 C17 1.371 . S
C19 C20 1.392 . S
C19 H35 0.931 . S
C20 C19 1.392 . S
C20 C21 1.331 . S
C20 H38 0.932 . S
C21 C20 1.331 . S
C21 C22 1.336 . S
C22 C18 1.394 . S
C22 C21 1.336 . S
C22 H37 0.929 . S
C23 C13 1.386 . S
C23 C16 1.357 . S
C23 H36 0.928 . S
H24 C0 0.931 . S
H25 C2 0.930 . S
H26 C4 0.929 . S
H27 C5 0.931 . S
H28 C7 0.930 . S
H29 C11 0.931 . S
H30 C9 0.931 . S
H31 C13 0.931 . S
H32 C14 0.929 . S
H33 C15 0.930 . S
H34 C18 0.930 . S
H35 C19 0.931 . S
H36 C23 0.928 . S
H37 C22 0.929 . S
H38 C20 0.932 . S
C39 C40 1.386 . S
C39 C41 1.397 . S
C39 H63 0.931 . S
C40 C39 1.386 . S
C40 C44 1.397 . S
C41 C39 1.397 . S
C41 C42 1.384 . S
C41 H64 0.930 . S
C42 C41 1.384 . S
C42 C43 1.377 . S
C42 C45 1.481 . S
C43 C42 1.377 . S
C43 C44 1.389 . S
C43 H65 0.929 . S
C44 C40 1.397 . S
C44 C43 1.389 . S
C44 H66 0.931 . S
C45 C42 1.481 . S
C45 C46 1.387 . S
C45 C50 1.390 . S
C46 C45 1.387 . S
C46 C47 1.401 . S
C46 H67 0.930 . S
C47 C46 1.401 . S
C47 C48 1.376 . S
C47 C56 1.511 . S
C48 C47 1.376 . S
C48 C49 1.392 . S
C48 H69 0.931 . S
C49 C48 1.392 . S
C49 C50 1.361 . S
C49 C51 1.500 . S
C50 C45 1.390 . S
C50 C49 1.361 . S
C50 H68 0.931 . S
C51 C49 1.500 . S
C51 C52 1.371 . S
C51 C53 1.365 . S
C52 C51 1.371 . S
C52 C62 1.386 . S
C52 H70 0.931 . S
C53 C51 1.365 . S
C53 C54 1.409 . S
C53 H71 0.929 . S
C54 C53 1.409 . S
C54 C55 1.380 . S
C54 H72 0.930 . S
C55 C54 1.380 . S
C55 C62 1.357 . S
C56 C47 1.511 . S
C56 C57 1.341 . S
C56 C58 1.371 . S
C57 C56 1.341 . S
C57 C61 1.394 . S
C57 H73 0.930 . S
C58 C56 1.371 . S
C58 C59 1.392 . S
C58 H74 0.931 . S
C59 C58 1.392 . S
C59 C60 1.331 . S
C59 H77 0.932 . S
C60 C59 1.331 . S
C60 C61 1.336 . S
C61 C57 1.394 . S
C61 C60 1.336 . S
C61 H76 0.929 . S
C62 C52 1.386 . S
C62 C55 1.357 . S
C62 H75 0.928 . S
H63 C39 0.931 . S
H64 C41 0.930 . S
H65 C43 0.929 . S
H66 C44 0.931 . S
H67 C46 0.930 . S
H68 C50 0.931 . S
H69 C48 0.931 . S
H70 C52 0.931 . S
H71 C53 0.929 . S
H72 C54 0.930 . S
H73 C57 0.930 . S
H74 C58 0.931 . S
H75 C62 0.928 . S
H76 C61 0.929 . S
H77 C59 0.932 . S
C78 C79 1.386 . S
C78 C80 1.397 . S
C78 H102 0.931 . S
C79 C78 1.386 . S
C79 C83 1.397 . S
C80 C78 1.397 . S
C80 C81 1.384 . S
C80 H103 0.930 . S
C81 C80 1.384 . S
C81 C82 1.377 . S
C81 C84 1.481 . S
C82 C81 1.377 . S
C82 C83 1.389 . S
C82 H104 0.929 . S
C83 C79 1.397 . S
C83 C82 1.389 . S
C83 H105 0.931 . S
C84 C81 1.481 . S
C84 C85 1.387 . S
C84 C89 1.390 . S
C85 C84 1.387 . S
C85 C86 1.401 . S
C85 H106 0.930 . S
C86 C85 1.401 . S
C86 C87 1.376 . S
C86 C95 1.511 . S
C87 C86 1.376 . S
C87 C88 1.392 . S
C87 H108 0.931 . S
C88 C87 1.392 . S
C88 C89 1.361 . S
C88 C90 1.500 . S
C89 C84 1.390 . S
C89 C88 1.361 . S
C89 H107 0.931 . S
C90 C88 1.500 . S
C90 C91 1.371 . S
C90 C92 1.365 . S
C91 C90 1.371 . S
C91 C101 1.386 . S
C91 H109 0.931 . S
C92 C90 1.365 . S
C92 C93 1.409 . S
C92 H110 0.929 . S
C93 C92 1.409 . S
C93 C94 1.380 . S
C93 H111 0.930 . S
C94 C93 1.380 . S
C94 C101 1.357 . S
C95 C86 1.511 . S
C95 C96 1.341 . S
C95 C97 1.371 . S
C96 C95 1.341 . S
C96 C100 1.394 . S
C96 H112 0.930 . S
C97 C95 1.371 . S
C97 C98 1.392 . S
C97 H113 0.931 . S
C98 C97 1.392 . S
C98 C99 1.331 . S
C98 H116 0.932 . S
C99 C98 1.331 . S
C99 C100 1.336 . S
C100 C96 1.394 . S
C100 C99 1.336 . S
C100 H115 0.929 . S
C101 C91 1.386 . S
C101 C94 1.357 . S
C101 H114 0.928 . S
H102 C78 0.931 . S
H103 C80 0.930 . S
H104 C82 0.929 . S
H105 C83 0.931 . S
H106 C85 0.930 . S
H107 C89 0.931 . S
H108 C87 0.931 . S
H109 C91 0.931 . S
H110 C92 0.929 . S
H111 C93 0.930 . S
H112 C96 0.930 . S
H113 C97 0.931 . S
H114 C101 0.928 . S
H115 C100 0.929 . S
H116 C98 0.932 . S
C117 C118 1.386 . S
C117 C119 1.397 . S
C117 H141 0.931 . S
C118 C117 1.386 . S
C118 C122 1.397 . S
C119 C117 1.397 . S
C119 C120 1.384 . S
C119 H142 0.930 . S
C120 C119 1.384 . S
C120 C121 1.377 . S
C120 C123 1.481 . S
C121 C120 1.377 . S
C121 C122 1.389 . S
C121 H143 0.929 . S
C122 C118 1.397 . S
C122 C121 1.389 . S
C122 H144 0.931 . S
C123 C120 1.481 . S
C123 C124 1.387 . S
C123 C128 1.390 . S
C124 C123 1.387 . S
C124 C125 1.401 . S
C124 H145 0.930 . S
C125 C124 1.401 . S
C125 C126 1.376 . S
C125 C134 1.511 . S
C126 C125 1.376 . S
C126 C127 1.392 . S
C126 H147 0.931 . S
C127 C126 1.392 . S
C127 C128 1.361 . S
C127 C129 1.500 . S
C128 C123 1.390 . S
C128 C127 1.361 . S
C128 H146 0.931 . S
C129 C127 1.500 . S
C129 C130 1.371 . S
C129 C131 1.365 . S
C130 C129 1.371 . S
C130 C140 1.386 . S
C130 H148 0.931 . S
C131 C129 1.365 . S
C131 C132 1.409 . S
C131 H149 0.929 . S
C132 C131 1.409 . S
C132 C133 1.380 . S
C132 H150 0.930 . S
C133 C132 1.380 . S
C133 C140 1.357 . S
C134 C125 1.511 . S
C134 C135 1.341 . S
C134 C136 1.371 . S
C135 C134 1.341 . S
C135 C139 1.394 . S
C135 H151 0.930 . S
C136 C134 1.371 . S
C136 C137 1.392 . S
C136 H152 0.931 . S
C137 C136 1.392 . S
C137 C138 1.331 . S
C137 H155 0.932 . S
C138 C137 1.331 . S
C138 C139 1.336 . S
C139 C135 1.394 . S
C139 C138 1.336 . S
C139 H154 0.929 . S
C140 C130 1.386 . S
C140 C133 1.357 . S
C140 H153 0.928 . S
H141 C117 0.931 . S
H142 C119 0.930 . S
H143 C121 0.929 . S
H144 C122 0.931 . S
H145 C124 0.930 . S
H146 C128 0.931 . S
H147 C126 0.931 . S
H148 C130 0.931 . S
H149 C131 0.929 . S
H150 C132 0.930 . S
H151 C135 0.930 . S
H152 C136 0.931 . S
H153 C140 0.928 . S
H154 C139 0.929 . S
H155 C137 0.932 . S
C156 C157 1.386 . S
C156 C158 1.397 . S
C156 H180 0.931 . S
C157 C156 1.386 . S
C157 C161 1.397 . S
C158 C156 1.397 . S
C158 C159 1.384 . S
C158 H181 0.930 . S
C159 C158 1.384 . S
C159 C160 1.377 . S
C159 C162 1.481 . S
C160 C159 1.377 . S
C160 C161 1.389 . S
C160 H182 0.929 . S
C161 C157 1.397 . S
C161 C160 1.389 . S
C161 H183 0.931 . S
C162 C159 1.481 . S
C162 C163 1.387 . S
C162 C167 1.390 . S
C163 C162 1.387 . S
C163 C164 1.401 . S
C163 H184 0.930 . S
C164 C163 1.401 . S
C164 C165 1.376 . S
C164 C173 1.511 . S
C165 C164 1.376 . S
C165 C166 1.392 . S
C165 H186 0.931 . S
C166 C165 1.392 . S
C166 C167 1.361 . S
C166 C168 1.500 . S
C167 C162 1.390 . S
C167 C166 1.361 . S
C167 H185 0.931 . S
C168 C166 1.500 . S
C168 C169 1.371 . S
C168 C170 1.365 . S
C169 C168 1.371 . S
C169 C179 1.386 . S
C169 H187 0.931 . S
C170 C168 1.365 . S
C170 C171 1.409 . S
C170 H188 0.929 . S
C171 C170 1.409 . S
C171 C172 1.380 . S
C171 H189 0.930 . S
C172 C171 1.380 . S
C172 C179 1.357 . S
C173 C164 1.511 . S
C173 C174 1.341 . S
C173 C175 1.371 . S
C174 C173 1.341 . S
C174 C178 1.394 . S
C174 H190 0.930 . S
C175 C173 1.371 . S
C175 C176 1.392 . S
C175 H191 0.931 . S
C176 C175 1.392 . S
C176 C177 1.331 . S
C176 H194 0.932 . S
C177 C176 1.331 . S
C177 C178 1.336 . S
C178 C174 1.394 . S
C178 C177 1.336 . S
C178 H193 0.929 . S
C179 C169 1.386 . S
C179 C172 1.357 . S
C179 H192 0.928 . S
H180 C156 0.931 . S
H181 C158 0.930 . S
H182 C160 0.929 . S
H183 C161 0.931 . S
H184 C163 0.930 . S
H185 C167 0.931 . S
H186 C165 0.931 . S
H187 C169 0.931 . S
H188 C170 0.929 . S
H189 C171 0.930 . S
H190 C174 0.930 . S
H191 C175 0.931 . S
H192 C179 0.928 . S
H193 C178 0.929 . S
H194 C176 0.932 . S
C195 C196 1.386 . S
C195 C197 1.397 . S
C195 H219 0.931 . S
C196 C195 1.386 . S
C196 C200 1.397 . S
C197 C195 1.397 . S
C197 C198 1.384 . S
C197 H220 0.930 . S
C198 C197 1.384 . S
C198 C199 1.377 . S
C198 C201 1.481 . S
C199 C198 1.377 . S
C199 C200 1.389 . S
C199 H221 0.929 . S
C200 C196 1.397 . S
C200 C199 1.389 . S
C200 H222 0.931 . S
C201 C198 1.481 . S
C201 C202 1.387 . S
C201 C206 1.390 . S
C202 C201 1.387 . S
C202 C203 1.401 . S
C202 H223 0.930 . S
C203 C202 1.401 . S
C203 C204 1.376 . S
C203 C212 1.511 . S
C204 C203 1.376 . S
C204 C205 1.392 . S
C204 H225 0.931 . S
C205 C204 1.392 . S
C205 C206 1.361 . S
C205 C207 1.500 . S
C206 C201 1.390 . S
C206 C205 1.361 . S
C206 H224 0.931 . S
C207 C205 1.500 . S
C207 C208 1.371 . S
C207 C209 1.365 . S
C208 C207 1.371 . S
C208 C218 1.386 . S
C208 H226 0.931 . S
C209 C207 1.365 . S
C209 C210 1.409 . S
C209 H227 0.929 . S
C210 C209 1.409 . S
C210 C211 1.380 . S
C210 H228 0.930 . S
C211 C210 1.380 . S
C211 C218 1.357 . S
C212 C203 1.511 . S
C212 C213 1.341 . S
C212 C214 1.371 . S
C213 C212 1.341 . S
C213 C217 1.394 . S
C213 H229 0.930 . S
C214 C212 1.371 . S
C214 C215 1.392 . S
C214 H230 0.931 . S
C215 C214 1.392 . S
C215 C216 1.331 . S
C215 H233 0.932 . S
C216 C215 1.331 . S
C216 C217 1.336 . S
C217 C213 1.394 . S
C217 C216 1.336 . S
C217 H232 0.929 . S
C218 C208 1.386 . S
C218 C211 1.357 . S
C218 H231 0.928 . S
H219 C195 0.931 . S
H220 C197 0.930 . S
H221 C199 0.929 . S
H222 C200 0.931 . S
H223 C202 0.930 . S
H224 C206 0.931 . S
H225 C204 0.931 . S
H226 C208 0.931 . S
H227 C209 0.929 . S
H228 C210 0.930 . S
H229 C213 0.930 . S
H230 C214 0.931 . S
H231 C218 0.928 . S
H232 C217 0.929 . S
H233 C215 0.932 . S
C234 C235 1.386 . S
C234 C236 1.397 . S
C234 H258 0.931 . S
C235 C234 1.386 . S
C235 C239 1.397 . S
C236 C234 1.397 . S
C236 C237 1.384 . S
C236 H259 0.930 . S
C237 C236 1.384 . S
C237 C238 1.377 . S
C237 C240 1.481 . S
C238 C237 1.377 . S
C238 C239 1.389 . S
C238 H260 0.929 . S
C239 C235 1.397 . S
C239 C238 1.389 . S
C239 H261 0.931 . S
C240 C237 1.481 . S
C240 C241 1.387 . S
C240 C245 1.390 . S
C241 C240 1.387 . S
C241 C242 1.401 . S
C241 H262 0.930 . S
C242 C241 1.401 . S
C242 C243 1.376 . S
C242 C251 1.511 . S
C243 C242 1.376 . S
C243 C244 1.392 . S
C243 H264 0.931 . S
C244 C243 1.392 . S
C244 C245 1.361 . S
C244 C246 1.500 . S
C245 C240 1.390 . S
C245 C244 1.361 . S
C245 H263 0.931 . S
C246 C244 1.500 . S
C246 C247 1.371 . S
C246 C248 1.365 . S
C247 C246 1.371 . S
C247 C257 1.386 . S
C247 H265 0.931 . S
C248 C246 1.365 . S
C248 C249 1.409 . S
C248 H266 0.929 . S
C249 C248 1.409 . S
C249 C250 1.380 . S
C249 H267 0.930 . S
C250 C249 1.380 . S
C250 C257 1.357 . S
C251 C242 1.511 . S
C251 C252 1.341 . S
C251 C253 1.371 . S
C252 C251 1.341 . S
C252 C256 1.394 . S
C252 H268 0.930 . S
C253 C251 1.371 . S
C253 C254 1.392 . S
C253 H269 0.931 . S
C254 C253 1.392 . S
C254 C255 1.331 . S
C254 H272 0.932 . S
C255 C254 1.331 . S
C255 C256 1.336 . S
C256 C252 1.394 . S
C256 C255 1.336 . S
C256 H271 0.929 . S
C257 C247 1.386 . S
C257 C250 1.357 . S
C257 H270 0.928 . S
H258 C234 0.931 . S
H259 C236 0.930 . S
H260 C238 0.929 . S
H261 C239 0.931 . S
H262 C241 0.930 . S
H263 C245 0.931 . S
H264 C243 0.931 . S
H265 C247 0.931 . S
H266 C248 0.929 . S
H267 C249 0.930 . S
H268 C252 0.930 . S
H269 C253 0.931 . S
H270 C257 0.928 . S
H271 C256 0.929 . S
H272 C254 0.932 . S
C273 C274 1.386 . S
C273 C275 1.397 . S
C273 H297 0.931 . S
C274 C273 1.386 . S
C274 C278 1.397 . S
C275 C273 1.397 . S
C275 C276 1.384 . S
C275 H298 0.930 . S
C276 C275 1.384 . S
C276 C277 1.377 . S
C276 C279 1.481 . S
C277 C276 1.377 . S
C277 C278 1.389 . S
C277 H299 0.929 . S
C278 C274 1.397 . S
C278 C277 1.389 . S
C278 H300 0.931 . S
C279 C276 1.481 . S
C279 C280 1.387 . S
C279 C284 1.390 . S
C280 C279 1.387 . S
C280 C281 1.401 . S
C280 H301 0.930 . S
C281 C280 1.401 . S
C281 C282 1.376 . S
C281 C290 1.511 . S
C282 C281 1.376 . S
C282 C283 1.392 . S
C282 H303 0.931 . S
C283 C282 1.392 . S
C283 C284 1.361 . S
C283 C285 1.500 . S
C284 C279 1.390 . S
C284 C283 1.361 . S
C284 H302 0.931 . S
C285 C283 1.500 . S
C285 C286 1.371 . S
C285 C287 1.365 . S
C286 C285 1.371 . S
C286 C296 1.386 . S
C286 H304 0.931 . S
C287 C285 1.365 . S
C287 C288 1.409 . S
C287 H305 0.929 . S
C288 C287 1.409 . S
C288 C289 1.380 . S
C288 H306 0.930 . S
C289 C288 1.380 . S
C289 C296 1.357 . S
C290 C281 1.511 . S
C290 C291 1.341 . S
C290 C292 1.371 . S
C291 C290 1.341 . S
C291 C295 1.394 . S
C291 H307 0.930 . S
C292 C290 1.371 . S
C292 C293 1.392 . S
C292 H308 0.931 . S
C293 C292 1.392 . S
C293 C294 1.331 . S
C293 H311 0.932 . S
C294 C293 1.331 . S
C294 C295 1.336 . S
C295 C291 1.394 . S
C295 C294 1.336 . S
C295 H310 0.929 . S
C296 C286 1.386 . S
C296 C289 1.357 . S
C296 H309 0.928 . S
H297 C273 0.931 . S
H298 C275 0.930 . S
H299 C277 0.929 . S
H300 C278 0.931 . S
H301 C280 0.930 . S
H302 C284 0.931 . S
H303 C282 0.931 . S
H304 C286 0.931 . S
H305 C287 0.929 . S
H306 C288 0.930 . S
H307 C291 0.930 . S
H308 C292 0.931 . S
H309 C296 0.928 . S
H310 C295 0.929 . S
H311 C293 0.932 . S
Pr312 C314 2.880 . S
Pr312 O332 2.562 . S
Pr312 O333 2.490 . S
Pr312 O334 2.695 1_665 S
Pr312 O335 2.512 1_665 S
Pr312 O337 2.437 1_655 S
Pr312 O340 2.436 . S
Pr312 O342 2.438 1_565 S
Pr313 C323 2.880 . S
Pr313 O334 2.436 . S
Pr313 O336 2.438 1_545 S
Pr313 O338 2.562 . S
Pr313 O339 2.490 . S
Pr313 O340 2.695 1_445 S
Pr313 O341 2.520 1_545 S
Pr313 O343 2.437 1_455 S
C314 Pr312 2.880 . S
C314 C315 1.491 . S
C314 O332 1.254 . S
C314 O333 1.225 . S
C315 C314 1.491 . S
C315 C316 1.392 . S
C315 C320 1.356 . S
C316 C315 1.392 . S
C316 C317 1.368 . S
C316 H344 0.929 . S
C317 C316 1.368 . S
C317 C318 1.386 . S
C317 H345 0.929 . S
C318 C317 1.386 . S
C318 C319 1.373 . S
C319 C318 1.373 . S
C319 C320 1.409 . S
C319 H346 0.931 . S
C320 C315 1.356 . S
C320 C319 1.409 . S
C320 H347 0.930 . S
C321 O334 1.270 . S
C321 O335 1.248 . S
C322 O336 1.267 . S
C322 O337 1.278 . S
C323 Pr313 2.880 . S
C323 C324 1.491 . S
C323 O338 1.254 . S
C323 O339 1.225 . S
C324 C323 1.491 . S
C324 C325 1.392 . S
C324 C329 1.356 . S
C325 C324 1.392 . S
C325 C326 1.368 . S
C325 H348 0.929 . S
C326 C325 1.368 . S
C326 C327 1.386 . S
C326 H349 0.929 . S
C327 C326 1.386 . S
C327 C328 1.373 . S
C328 C327 1.373 . S
C328 C329 1.409 . S
C328 H350 0.931 . S
C329 C324 1.356 . S
C329 C328 1.409 . S
C329 H351 0.930 . S
C330 O340 1.270 . S
C330 O341 1.228 1_655 S
C331 O342 1.267 . S
C331 O343 1.278 . S
O332 Pr312 2.562 . S
O332 C314 1.254 . S
O333 Pr312 2.490 . S
O333 C314 1.225 . S
O334 Pr312 2.695 1_445 S
O334 Pr313 2.436 . S
O334 C321 1.270 . S
O335 Pr312 2.512 1_445 S
O335 C321 1.248 . S
O336 Pr313 2.438 1_565 S
O336 C322 1.267 . S
O337 Pr312 2.437 1_455 S
O337 C322 1.278 . S
O338 Pr313 2.562 . S
O338 C323 1.254 . S
O339 Pr313 2.490 . S
O339 C323 1.225 . S
O340 Pr312 2.436 . S
O340 Pr313 2.695 1_665 S
O340 C330 1.270 . S
O341 Pr313 2.520 1_565 S
O341 C330 1.228 1_455 S
O342 Pr312 2.438 1_545 S
O342 C331 1.267 . S
O343 Pr313 2.437 1_655 S
O343 C331 1.278 . S
H344 C316 0.929 . S
H345 C317 0.929 . S
H346 C319 0.931 . S
H347 C320 0.930 . S
H348 C325 0.929 . S
H349 C326 0.929 . S
H350 C328 0.931 . S
H351 C329 0.930 . S
Pr352 C354 2.894 . S
Pr352 O372 2.581 . S
Pr352 O373 2.497 . S
Pr352 O374 2.684 1_554 S
Pr352 O375 2.499 1_554 S
Pr352 O377 2.445 . S
Pr352 O380 2.443 1_545 S
Pr352 O382 2.424 1_544 S
Pr353 C363 2.848 1_554 S
Pr353 O374 2.418 1_564 S
Pr353 O376 2.469 1_565 S
Pr353 O378 2.521 1_554 S
Pr353 O379 2.474 1_554 S
Pr353 O380 2.721 . S
Pr353 O381 2.542 . S
Pr353 O383 2.418 1_554 S
C354 Pr352 2.894 . S
C354 C355 1.491 . S
C354 O372 1.254 . S
C354 O373 1.225 . S
C355 C354 1.491 . S
C355 C356 1.392 . S
C355 C360 1.356 . S
C356 C355 1.392 . S
C356 C357 1.368 . S
C356 H384 0.929 . S
C357 C356 1.368 . S
C357 C358 1.386 . S
C357 H385 0.929 . S
C358 C357 1.386 . S
C358 C359 1.373 . S
C359 C358 1.373 . S
C359 C360 1.409 . S
C359 H386 0.931 . S
C360 C355 1.356 . S
C360 C359 1.409 . S
C360 H387 0.930 . S
C361 O374 1.270 . S
C361 O375 1.248 . S
C362 O376 1.267 . S
C362 O377 1.278 . S
C363 Pr353 2.848 1_556 S
C363 C364 1.491 . S
C363 O378 1.254 . S
C363 O379 1.225 . S
C364 C363 1.491 . S
C364 C365 1.392 . S
C364 C369 1.356 . S
C365 C364 1.392 . S
C365 C366 1.368 . S
C365 H388 0.929 . S
C366 C365 1.368 . S
C366 C367 1.386 . S
C366 H389 0.929 . S
C367 C366 1.386 . S
C367 C368 1.373 . S
C368 C367 1.373 . S
C368 C369 1.409 . S
C368 H390 0.931 . S
C369 C364 1.356 . S
C369 C368 1.409 . S
C369 H391 0.930 . S
C370 O380 1.270 . S
C370 O381 1.248 . S
C371 O382 1.267 . S
C371 O383 1.278 . S
O372 Pr352 2.581 . S
O372 C354 1.254 . S
O373 Pr352 2.497 . S
O373 C354 1.225 . S
O374 Pr352 2.684 1_556 S
O374 Pr353 2.418 1_546 S
O374 C361 1.270 . S
O375 Pr352 2.499 1_556 S
O375 C361 1.248 . S
O376 Pr353 2.469 1_545 S
O376 C362 1.267 . S
O377 Pr352 2.445 . S
O377 C362 1.278 . S
O378 Pr353 2.521 1_556 S
O378 C363 1.254 . S
O379 Pr353 2.474 1_556 S
O379 C363 1.225 . S
O380 Pr352 2.443 1_565 S
O380 Pr353 2.721 . S
O380 C370 1.270 . S
O381 Pr353 2.542 . S
O381 C370 1.248 . S
O382 Pr352 2.424 1_566 S
O382 C371 1.267 . S
O383 Pr353 2.418 1_556 S
O383 C371 1.278 . S
H384 C356 0.929 . S
H385 C357 0.929 . S
H386 C359 0.931 . S
H387 C360 0.930 . S
H388 C365 0.929 . S
H389 C366 0.929 . S
H390 C368 0.931 . S
H391 C369 0.930 . S
Pr392 C394 2.880 . S
Pr392 O412 2.562 . S
Pr392 O413 2.490 . S
Pr392 O414 2.695 . S
Pr392 O415 2.512 . S
Pr392 O417 2.437 . S
Pr392 O420 2.436 . S
Pr392 O422 2.438 . S
Pr393 C403 2.880 . S
Pr393 O414 2.436 . S
Pr393 O416 2.438 . S
Pr393 O418 2.562 . S
Pr393 O419 2.490 . S
Pr393 O420 2.695 . S
Pr393 O421 2.512 . S
Pr393 O423 2.437 . S
C394 Pr392 2.880 . S
C394 C395 1.491 . S
C394 O412 1.254 . S
C394 O413 1.225 . S
C395 C394 1.491 . S
C395 C396 1.392 . S
C395 C400 1.356 . S
C396 C395 1.392 . S
C396 C397 1.368 . S
C396 H424 0.929 . S
C397 C396 1.368 . S
C397 C398 1.386 . S
C397 H425 0.929 . S
C398 C397 1.386 . S
C398 C399 1.373 . S
C399 C398 1.373 . S
C399 C400 1.409 . S
C399 H426 0.931 . S
C400 C395 1.356 . S
C400 C399 1.409 . S
C400 H427 0.930 . S
C401 O414 1.270 . S
C401 O415 1.248 . S
C402 O416 1.267 . S
C402 O417 1.278 . S
C403 Pr393 2.880 . S
C403 C404 1.491 . S
C403 O418 1.254 . S
C403 O419 1.225 . S
C404 C403 1.491 . S
C404 C405 1.392 . S
C404 C409 1.356 . S
C405 C404 1.392 . S
C405 C406 1.368 . S
C405 H428 0.929 . S
C406 C405 1.368 . S
C406 C407 1.386 . S
C406 H429 0.929 . S
C407 C406 1.386 . S
C407 C408 1.373 . S
C408 C407 1.373 . S
C408 C409 1.409 . S
C408 H430 0.931 . S
C409 C404 1.356 . S
C409 C408 1.409 . S
C409 H431 0.930 . S
C410 O420 1.270 . S
C410 O421 1.248 . S
C411 O422 1.267 . S
C411 O423 1.278 . S
O412 Pr392 2.562 . S
O412 C394 1.254 . S
O413 Pr392 2.490 . S
O413 C394 1.225 . S
O414 Pr392 2.695 . S
O414 Pr393 2.436 . S
O414 C401 1.270 . S
O415 Pr392 2.512 . S
O415 C401 1.248 . S
O416 Pr393 2.438 . S
O416 C402 1.267 . S
O417 Pr392 2.437 . S
O417 C402 1.278 . S
O418 Pr393 2.562 . S
O418 C403 1.254 . S
O419 Pr393 2.490 . S
O419 C403 1.225 . S
O420 Pr392 2.436 . S
O420 Pr393 2.695 . S
O420 C410 1.270 . S
O421 Pr393 2.512 . S
O421 C410 1.248 . S
O422 Pr392 2.438 . S
O422 C411 1.267 . S
O423 Pr393 2.437 . S
O423 C411 1.278 . S
H424 C396 0.929 . S
H425 C397 0.929 . S
H426 C399 0.931 . S
H427 C400 0.930 . S
H428 C405 0.929 . S
H429 C406 0.929 . S
H430 C408 0.931 . S
H431 C409 0.930 . S
Pr432 C434 2.909 . S
Pr432 O452 2.599 . S
Pr432 O453 2.506 . S
Pr432 O454 2.675 1_656 S
Pr432 O455 2.490 1_656 S
Pr432 O457 2.458 1_556 S
Pr432 O460 2.450 . S
Pr432 O462 2.408 1_655 S
Pr433 C443 2.880 . S
Pr433 O454 2.436 . S
Pr433 O456 2.438 1_455 S
Pr433 O458 2.562 . S
Pr433 O459 2.490 . S
Pr433 O460 2.695 1_454 S
Pr433 O461 2.512 1_454 S
Pr433 O463 2.437 1_554 S
C434 Pr432 2.909 . S
C434 C435 1.491 . S
C434 O452 1.254 . S
C434 O453 1.225 . S
C435 C434 1.491 . S
C435 C436 1.392 . S
C435 C440 1.356 . S
C436 C435 1.392 . S
C436 C437 1.368 . S
C436 H464 0.929 . S
C437 C436 1.368 . S
C437 C438 1.386 . S
C437 H465 0.929 . S
C438 C437 1.386 . S
C438 C439 1.373 . S
C439 C438 1.373 . S
C439 C440 1.409 . S
C439 H466 0.931 . S
C440 C435 1.356 . S
C440 C439 1.409 . S
C440 H467 0.930 . S
C441 O454 1.270 . S
C441 O455 1.248 . S
C442 O456 1.267 . S
C442 O457 1.278 . S
C443 Pr433 2.880 . S
C443 C444 1.491 . S
C443 O458 1.254 . S
C443 O459 1.225 . S
C444 C443 1.491 . S
C444 C445 1.392 . S
C444 C449 1.356 . S
C445 C444 1.392 . S
C445 C446 1.368 . S
C445 H468 0.929 . S
C446 C445 1.368 . S
C446 C447 1.386 . S
C446 H469 0.929 . S
C447 C446 1.386 . S
C447 C448 1.373 . S
C448 C447 1.373 . S
C448 C449 1.409 . S
C448 H470 0.931 . S
C449 C444 1.356 . S
C449 C448 1.409 . S
C449 H471 0.930 . S
C450 O460 1.270 . S
C450 O461 1.248 . S
C451 O462 1.267 . S
C451 O463 1.278 . S
O452 Pr432 2.599 . S
O452 C434 1.254 . S
O453 Pr432 2.506 . S
O453 C434 1.225 . S
O454 Pr432 2.675 1_454 S
O454 Pr433 2.436 . S
O454 C441 1.270 . S
O455 Pr432 2.490 1_454 S
O455 C441 1.248 . S
O456 Pr433 2.438 1_655 S
O456 C442 1.267 . S
O457 Pr432 2.458 1_554 S
O457 C442 1.278 . S
O458 Pr433 2.562 . S
O458 C443 1.254 . S
O459 Pr433 2.490 . S
O459 C443 1.225 . S
O460 Pr432 2.450 . S
O460 Pr433 2.695 1_656 S
O460 C450 1.270 . S
O461 Pr433 2.512 1_656 S
O461 C450 1.248 . S
O462 Pr432 2.408 1_455 S
O462 C451 1.267 . S
O463 Pr433 2.437 1_556 S
O463 C451 1.278 . S
H464 C436 0.929 . S
H465 C437 0.929 . S
H466 C439 0.931 . S
H467 C440 0.930 . S
H468 C445 0.929 . S
H469 C446 0.929 . S
H470 C448 0.931 . S
H471 C449 0.930 . S
C472 C473 1.391 . S
C472 C474 1.394 . S
C472 H488 0.931 . S
C473 C472 1.391 . S
C473 C477 1.376 . S
C474 C472 1.394 . S
C474 C475 1.369 . S
C474 C478 1.531 . S
C475 C474 1.369 . S
C475 C476 1.410 . S
C475 C483 1.503 . S
C476 C475 1.410 . S
C476 C477 1.392 . S
C476 C479 1.511 . S
C477 C473 1.376 . S
C477 C476 1.392 . S
C477 H489 0.929 . S
C478 C474 1.531 . S
C478 H490 0.960 . S
C478 H491 0.962 . S
C478 H492 0.960 . S
C479 C476 1.511 . S
C479 H493 0.961 . S
C479 H494 0.961 . S
C479 H495 0.961 . S
C480 C481 1.370 . S
C480 C482 1.363 . S
C480 H496 0.931 . S
C481 C480 1.370 . S
C481 C485 1.408 . S
C482 C480 1.363 . S
C482 C483 1.370 . S
C482 C486 1.524 . S
C483 C475 1.503 . S
C483 C482 1.370 . S
C483 C484 1.403 . S
C484 C483 1.403 . S
C484 C485 1.404 . S
C484 C487 1.539 . S
C485 C481 1.408 . S
C485 C484 1.404 . S
C485 H497 0.930 . S
C486 C482 1.524 . S
C486 H498 0.956 . S
C486 H499 0.961 . S
C486 H500 0.961 . S
C487 C484 1.539 . S
C487 H501 0.958 . S
C487 H502 0.961 . S
C487 H503 0.960 . S
H488 C472 0.931 . S
H489 C477 0.929 . S
H490 C478 0.960 . S
H491 C478 0.962 . S
H492 C478 0.960 . S
H493 C479 0.961 . S
H494 C479 0.961 . S
H495 C479 0.961 . S
H496 C480 0.931 . S
H497 C485 0.930 . S
H498 C486 0.956 . S
H499 C486 0.961 . S
H500 C486 0.961 . S
H501 C487 0.958 . S
H502 C487 0.961 . S
H503 C487 0.960 . S
C504 C505 1.391 . S
C504 C506 1.394 . S
C504 H520 0.931 . S
C505 C504 1.391 . S
C505 C509 1.376 . S
C506 C504 1.394 . S
C506 C507 1.369 . S
C506 C510 1.531 . S
C507 C506 1.369 . S
C507 C508 1.410 . S
C507 C515 1.503 . S
C508 C507 1.410 . S
C508 C509 1.392 . S
C508 C511 1.511 . S
C509 C505 1.376 . S
C509 C508 1.392 . S
C509 H521 0.929 . S
C510 C506 1.531 . S
C510 H522 0.960 . S
C510 H523 0.962 . S
C510 H524 0.960 . S
C511 C508 1.511 . S
C511 H525 0.961 . S
C511 H526 0.961 . S
C511 H527 0.961 . S
C512 C513 1.370 . S
C512 C514 1.363 . S
C512 H528 0.931 . S
C513 C512 1.370 . S
C513 C517 1.408 . S
C514 C512 1.363 . S
C514 C515 1.370 . S
C514 C518 1.524 . S
C515 C507 1.503 . S
C515 C514 1.370 . S
C515 C516 1.403 . S
C516 C515 1.403 . S
C516 C517 1.404 . S
C516 C519 1.539 . S
C517 C513 1.408 . S
C517 C516 1.404 . S
C517 H529 0.930 . S
C518 C514 1.524 . S
C518 H530 0.956 . S
C518 H531 0.961 . S
C518 H532 0.961 . S
C519 C516 1.539 . S
C519 H533 0.958 . S
C519 H534 0.961 . S
C519 H535 0.960 . S
H520 C504 0.931 . S
H521 C509 0.929 . S
H522 C510 0.960 . S
H523 C510 0.962 . S
H524 C510 0.960 . S
H525 C511 0.961 . S
H526 C511 0.961 . S
H527 C511 0.961 . S
H528 C512 0.931 . S
H529 C517 0.930 . S
H530 C518 0.956 . S
H531 C518 0.961 . S
H532 C518 0.961 . S
H533 C519 0.958 . S
H534 C519 0.961 . S
H535 C519 0.960 . S
C536 C537 1.391 . S
C536 C538 1.394 . S
C536 H552 0.931 . S
C537 C536 1.391 . S
C537 C541 1.376 . S
C538 C536 1.394 . S
C538 C539 1.369 . S
C538 C542 1.531 . S
C539 C538 1.369 . S
C539 C540 1.410 . S
C539 C547 1.503 . S
C540 C539 1.410 . S
C540 C541 1.392 . S
C540 C543 1.511 . S
C541 C537 1.376 . S
C541 C540 1.392 . S
C541 H553 0.929 . S
C542 C538 1.531 . S
C542 H554 0.960 . S
C542 H555 0.962 . S
C542 H556 0.960 . S
C543 C540 1.511 . S
C543 H557 0.961 . S
C543 H558 0.961 . S
C543 H559 0.961 . S
C544 C545 1.370 . S
C544 C546 1.363 . S
C544 H560 0.931 . S
C545 C544 1.370 . S
C545 C549 1.408 . S
C546 C544 1.363 . S
C546 C547 1.370 . S
C546 C550 1.524 . S
C547 C539 1.503 . S
C547 C546 1.370 . S
C547 C548 1.403 . S
C548 C547 1.403 . S
C548 C549 1.404 . S
C548 C551 1.539 . S
C549 C545 1.408 . S
C549 C548 1.404 . S
C549 H561 0.930 . S
C550 C546 1.524 . S
C550 H562 0.956 . S
C550 H563 0.961 . S
C550 H564 0.961 . S
C551 C548 1.539 . S
C551 H565 0.958 . S
C551 H566 0.961 . S
C551 H567 0.960 . S
H552 C536 0.931 . S
H553 C541 0.929 . S
H554 C542 0.960 . S
H555 C542 0.962 . S
H556 C542 0.960 . S
H557 C543 0.961 . S
H558 C543 0.961 . S
H559 C543 0.961 . S
H560 C544 0.931 . S
H561 C549 0.930 . S
H562 C550 0.956 . S
H563 C550 0.961 . S
H564 C550 0.961 . S
H565 C551 0.958 . S
H566 C551 0.961 . S
H567 C551 0.960 . S
C568 C569 1.391 . S
C568 C570 1.394 . S
C568 H584 0.931 . S
C569 C568 1.391 . S
C569 C573 1.376 . S
C570 C568 1.394 . S
C570 C571 1.369 . S
C570 C574 1.531 . S
C571 C570 1.369 . S
C571 C572 1.410 . S
C571 C579 1.503 . S
C572 C571 1.410 . S
C572 C573 1.392 . S
C572 C575 1.511 . S
C573 C569 1.376 . S
C573 C572 1.392 . S
C573 H585 0.929 . S
C574 C570 1.531 . S
C574 H586 0.960 . S
C574 H587 0.962 . S
C574 H588 0.960 . S
C575 C572 1.511 . S
C575 H589 0.961 . S
C575 H590 0.961 . S
C575 H591 0.961 . S
C576 C577 1.370 . S
C576 C578 1.363 . S
C576 H592 0.931 . S
C577 C576 1.370 . S
C577 C581 1.408 . S
C578 C576 1.363 . S
C578 C579 1.370 . S
C578 C582 1.524 . S
C579 C571 1.503 . S
C579 C578 1.370 . S
C579 C580 1.403 . S
C580 C579 1.403 . S
C580 C581 1.404 . S
C580 C583 1.539 . S
C581 C577 1.408 . S
C581 C580 1.404 . S
C581 H593 0.930 . S
C582 C578 1.524 . S
C582 H594 0.956 . S
C582 H595 0.961 . S
C582 H596 0.961 . S
C583 C580 1.539 . S
C583 H597 0.958 . S
C583 H598 0.961 . S
C583 H599 0.960 . S
H584 C568 0.931 . S
H585 C573 0.929 . S
H586 C574 0.960 . S
H587 C574 0.962 . S
H588 C574 0.960 . S
H589 C575 0.961 . S
H590 C575 0.961 . S
H591 C575 0.961 . S
H592 C576 0.931 . S
H593 C581 0.930 . S
H594 C582 0.956 . S
H595 C582 0.961 . S
H596 C582 0.961 . S
H597 C583 0.958 . S
H598 C583 0.961 . S
H599 C583 0.960 . S
C600 C601 1.391 . S
C600 C602 1.394 . S
C600 H616 0.931 . S
C601 C600 1.391 . S
C601 C605 1.376 . S
C602 C600 1.394 . S
C602 C603 1.369 . S
C602 C606 1.531 . S
C603 C602 1.369 . S
C603 C604 1.410 . S
C603 C611 1.503 . S
C604 C603 1.410 . S
C604 C605 1.392 . S
C604 C607 1.511 . S
C605 C601 1.376 . S
C605 C604 1.392 . S
C605 H617 0.929 . S
C606 C602 1.531 . S
C606 H618 0.960 . S
C606 H619 0.962 . S
C606 H620 0.960 . S
C607 C604 1.511 . S
C607 H621 0.961 . S
C607 H622 0.961 . S
C607 H623 0.961 . S
C608 C609 1.370 . S
C608 C610 1.363 . S
C608 H624 0.931 . S
C609 C608 1.370 . S
C609 C613 1.408 . S
C610 C608 1.363 . S
C610 C611 1.370 . S
C610 C614 1.524 . S
C611 C603 1.503 . S
C611 C610 1.370 . S
C611 C612 1.403 . S
C612 C611 1.403 . S
C612 C613 1.404 . S
C612 C615 1.539 . S
C613 C609 1.408 . S
C613 C612 1.404 . S
C613 H625 0.930 . S
C614 C610 1.524 . S
C614 H626 0.956 . S
C614 H627 0.961 . S
C614 H628 0.961 . S
C615 C612 1.539 . S
C615 H629 0.958 . S
C615 H630 0.961 . S
C615 H631 0.960 . S
H616 C600 0.931 . S
H617 C605 0.929 . S
H618 C606 0.960 . S
H619 C606 0.962 . S
H620 C606 0.960 . S
H621 C607 0.961 . S
H622 C607 0.961 . S
H623 C607 0.961 . S
H624 C608 0.931 . S
H625 C613 0.930 . S
H626 C614 0.956 . S
H627 C614 0.961 . S
H628 C614 0.961 . S
H629 C615 0.958 . S
H630 C615 0.961 . S
H631 C615 0.960 . S
C632 C633 1.391 . S
C632 C634 1.394 . S
C632 H648 0.931 . S
C633 C632 1.391 . S
C633 C637 1.376 . S
C634 C632 1.394 . S
C634 C635 1.369 . S
C634 C638 1.531 . S
C635 C634 1.369 . S
C635 C636 1.410 . S
C635 C643 1.503 . S
C636 C635 1.410 . S
C636 C637 1.392 . S
C636 C639 1.511 . S
C637 C633 1.376 . S
C637 C636 1.392 . S
C637 H649 0.929 . S
C638 C634 1.531 . S
C638 H650 0.960 . S
C638 H651 0.962 . S
C638 H652 0.960 . S
C639 C636 1.511 . S
C639 H653 0.961 . S
C639 H654 0.961 . S
C639 H655 0.961 . S
C640 C641 1.370 . S
C640 C642 1.363 . S
C640 H656 0.931 . S
C641 C640 1.370 . S
C641 C645 1.408 . S
C642 C640 1.363 . S
C642 C643 1.370 . S
C642 C646 1.524 . S
C643 C635 1.503 . S
C643 C642 1.370 . S
C643 C644 1.403 . S
C644 C643 1.403 . S
C644 C645 1.404 . S
C644 C647 1.539 . S
C645 C641 1.408 . S
C645 C644 1.404 . S
C645 H657 0.930 . S
C646 C642 1.524 . S
C646 H658 0.956 . S
C646 H659 0.961 . S
C646 H660 0.961 . S
C647 C644 1.539 . S
C647 H661 0.958 . S
C647 H662 0.961 . S
C647 H663 0.960 . S
H648 C632 0.931 . S
H649 C637 0.929 . S
H650 C638 0.960 . S
H651 C638 0.962 . S
H652 C638 0.960 . S
H653 C639 0.961 . S
H654 C639 0.961 . S
H655 C639 0.961 . S
H656 C640 0.931 . S
H657 C645 0.930 . S
H658 C646 0.956 . S
H659 C646 0.961 . S
H660 C646 0.961 . S
H661 C647 0.958 . S
H662 C647 0.961 . S
H663 C647 0.960 . S
C664 C665 1.391 . S
C664 C666 1.394 . S
C664 H680 0.931 . S
C665 C664 1.391 . S
C665 C669 1.376 . S
C666 C664 1.394 . S
C666 C667 1.369 . S
C666 C670 1.531 . S
C667 C666 1.369 . S
C667 C668 1.410 . S
C667 C675 1.503 . S
C668 C667 1.410 . S
C668 C669 1.392 . S
C668 C671 1.511 . S
C669 C665 1.376 . S
C669 C668 1.392 . S
C669 H681 0.929 . S
C670 C666 1.531 . S
C670 H682 0.960 . S
C670 H683 0.962 . S
C670 H684 0.960 . S
C671 C668 1.511 . S
C671 H685 0.961 . S
C671 H686 0.961 . S
C671 H687 0.961 . S
C672 C673 1.370 . S
C672 C674 1.363 . S
C672 H688 0.931 . S
C673 C672 1.370 . S
C673 C677 1.408 . S
C674 C672 1.363 . S
C674 C675 1.370 . S
C674 C678 1.524 . S
C675 C667 1.503 . S
C675 C674 1.370 . S
C675 C676 1.403 . S
C676 C675 1.403 . S
C676 C677 1.404 . S
C676 C679 1.539 . S
C677 C673 1.408 . S
C677 C676 1.404 . S
C677 H689 0.930 . S
C678 C674 1.524 . S
C678 H690 0.956 . S
C678 H691 0.961 . S
C678 H692 0.961 . S
C679 C676 1.539 . S
C679 H693 0.958 . S
C679 H694 0.961 . S
C679 H695 0.960 . S
H680 C664 0.931 . S
H681 C669 0.929 . S
H682 C670 0.960 . S
H683 C670 0.962 . S
H684 C670 0.960 . S
H685 C671 0.961 . S
H686 C671 0.961 . S
H687 C671 0.961 . S
H688 C672 0.931 . S
H689 C677 0.930 . S
H690 C678 0.956 . S
H691 C678 0.961 . S
H692 C678 0.961 . S
H693 C679 0.958 . S
H694 C679 0.961 . S
H695 C679 0.960 . S
C696 C697 1.391 . S
C696 C698 1.394 . S
C696 H712 0.931 . S
C697 C696 1.391 . S
C697 C701 1.376 . S
C698 C696 1.394 . S
C698 C699 1.369 . S
C698 C702 1.531 . S
C699 C698 1.369 . S
C699 C700 1.410 . S
C699 C707 1.503 . S
C700 C699 1.410 . S
C700 C701 1.392 . S
C700 C703 1.511 . S
C701 C697 1.376 . S
C701 C700 1.392 . S
C701 H713 0.929 . S
C702 C698 1.531 . S
C702 H714 0.960 . S
C702 H715 0.962 . S
C702 H716 0.960 . S
C703 C700 1.511 . S
C703 H717 0.961 . S
C703 H718 0.961 . S
C703 H719 0.961 . S
C704 C705 1.370 . S
C704 C706 1.363 . S
C704 H720 0.931 . S
C705 C704 1.370 . S
C705 C709 1.408 . S
C706 C704 1.363 . S
C706 C707 1.370 . S
C706 C710 1.524 . S
C707 C699 1.503 . S
C707 C706 1.370 . S
C707 C708 1.403 . S
C708 C707 1.403 . S
C708 C709 1.404 . S
C708 C711 1.539 . S
C709 C705 1.408 . S
C709 C708 1.404 . S
C709 H721 0.930 . S
C710 C706 1.524 . S
C710 H722 0.956 . S
C710 H723 0.961 . S
C710 H724 0.961 . S
C711 C708 1.539 . S
C711 H725 0.958 . S
C711 H726 0.961 . S
C711 H727 0.960 . S
H712 C696 0.931 . S
H713 C701 0.929 . S
H714 C702 0.960 . S
H715 C702 0.962 . S
H716 C702 0.960 . S
H717 C703 0.961 . S
H718 C703 0.961 . S
H719 C703 0.961 . S
H720 C704 0.931 . S
H721 C709 0.930 . S
H722 C710 0.956 . S
H723 C710 0.961 . S
H724 C710 0.961 . S
H725 C711 0.958 . S
H726 C711 0.961 . S
H727 C711 0.960 . S
C728 C729 1.391 . S
C728 C730 1.394 . S
C728 H744 0.931 . S
C729 C728 1.391 . S
C729 C733 1.376 . S
C730 C728 1.394 . S
C730 C731 1.369 . S
C730 C734 1.531 . S
C731 C730 1.369 . S
C731 C732 1.410 . S
C731 C739 1.503 . S
C732 C731 1.410 . S
C732 C733 1.392 . S
C732 C735 1.511 . S
C733 C729 1.376 . S
C733 C732 1.392 . S
C733 H745 0.929 . S
C734 C730 1.531 . S
C734 H746 0.960 . S
C734 H747 0.962 . S
C734 H748 0.960 . S
C735 C732 1.511 . S
C735 H749 0.961 . S
C735 H750 0.961 . S
C735 H751 0.961 . S
C736 C737 1.370 . S
C736 C738 1.363 . S
C736 H752 0.931 . S
C737 C736 1.370 . S
C737 C741 1.408 . S
C738 C736 1.363 . S
C738 C739 1.370 . S
C738 C742 1.524 . S
C739 C731 1.503 . S
C739 C738 1.370 . S
C739 C740 1.403 . S
C740 C739 1.403 . S
C740 C741 1.404 . S
C740 C743 1.539 . S
C741 C737 1.408 . S
C741 C740 1.404 . S
C741 H753 0.930 . S
C742 C738 1.524 . S
C742 H754 0.956 . S
C742 H755 0.961 . S
C742 H756 0.961 . S
C743 C740 1.539 . S
C743 H757 0.958 . S
C743 H758 0.961 . S
C743 H759 0.960 . S
H744 C728 0.931 . S
H745 C733 0.929 . S
H746 C734 0.960 . S
H747 C734 0.962 . S
H748 C734 0.960 . S
H749 C735 0.961 . S
H750 C735 0.961 . S
H751 C735 0.961 . S
H752 C736 0.931 . S
H753 C741 0.930 . S
H754 C742 0.956 . S
H755 C742 0.961 . S
H756 C742 0.961 . S
H757 C743 0.958 . S
H758 C743 0.961 . S
H759 C743 0.960 . S
C760 C761 1.391 . S
C760 C762 1.394 . S
C760 H776 0.931 . S
C761 C760 1.391 . S
C761 C765 1.376 . S
C762 C760 1.394 . S
C762 C763 1.369 . S
C762 C766 1.531 . S
C763 C762 1.369 . S
C763 C764 1.410 . S
C763 C771 1.503 . S
C764 C763 1.410 . S
C764 C765 1.392 . S
C764 C767 1.511 . S
C765 C761 1.376 . S
C765 C764 1.392 . S
C765 H777 0.929 . S
C766 C762 1.531 . S
C766 H778 0.960 . S
C766 H779 0.962 . S
C766 H780 0.960 . S
C767 C764 1.511 . S
C767 H781 0.961 . S
C767 H782 0.961 . S
C767 H783 0.961 . S
C768 C769 1.370 . S
C768 C770 1.363 . S
C768 H784 0.931 . S
C769 C768 1.370 . S
C769 C773 1.408 . S
C770 C768 1.363 . S
C770 C771 1.370 . S
C770 C774 1.524 . S
C771 C763 1.503 . S
C771 C770 1.370 . S
C771 C772 1.403 . S
C772 C771 1.403 . S
C772 C773 1.404 . S
C772 C775 1.539 . S
C773 C769 1.408 . S
C773 C772 1.404 . S
C773 H785 0.930 . S
C774 C770 1.524 . S
C774 H786 0.956 . S
C774 H787 0.961 . S
C774 H788 0.961 . S
C775 C772 1.539 . S
C775 H789 0.958 . S
C775 H790 0.961 . S
C775 H791 0.960 . S
H776 C760 0.931 . S
H777 C765 0.929 . S
H778 C766 0.960 . S
H779 C766 0.962 . S
H780 C766 0.960 . S
H781 C767 0.961 . S
H782 C767 0.961 . S
H783 C767 0.961 . S
H784 C768 0.931 . S
H785 C773 0.930 . S
H786 C774 0.956 . S
H787 C774 0.961 . S
H788 C774 0.961 . S
H789 C775 0.958 . S
H790 C775 0.961 . S
H791 C775 0.960 . S
C792 C793 1.391 . S
C792 C794 1.394 . S
C792 H808 0.931 . S
C793 C792 1.391 . S
C793 C797 1.376 . S
C794 C792 1.394 . S
C794 C795 1.369 . S
C794 C798 1.531 . S
C795 C794 1.369 . S
C795 C796 1.410 . S
C795 C803 1.503 . S
C796 C795 1.410 . S
C796 C797 1.392 . S
C796 C799 1.511 . S
C797 C793 1.376 . S
C797 C796 1.392 . S
C797 H809 0.929 . S
C798 C794 1.531 . S
C798 H810 0.960 . S
C798 H811 0.962 . S
C798 H812 0.960 . S
C799 C796 1.511 . S
C799 H813 0.961 . S
C799 H814 0.961 . S
C799 H815 0.961 . S
C800 C801 1.370 . S
C800 C802 1.363 . S
C800 H816 0.931 . S
C801 C800 1.370 . S
C801 C805 1.408 . S
C802 C800 1.363 . S
C802 C803 1.370 . S
C802 C806 1.524 . S
C803 C795 1.503 . S
C803 C802 1.370 . S
C803 C804 1.403 . S
C804 C803 1.403 . S
C804 C805 1.404 . S
C804 C807 1.539 . S
C805 C801 1.408 . S
C805 C804 1.404 . S
C805 H817 0.930 . S
C806 C802 1.524 . S
C806 H818 0.956 . S
C806 H819 0.961 . S
C806 H820 0.961 . S
C807 C804 1.539 . S
C807 H821 0.958 . S
C807 H822 0.961 . S
C807 H823 0.960 . S
H808 C792 0.931 . S
H809 C797 0.929 . S
H810 C798 0.960 . S
H811 C798 0.962 . S
H812 C798 0.960 . S
H813 C799 0.961 . S
H814 C799 0.961 . S
H815 C799 0.961 . S
H816 C800 0.931 . S
H817 C805 0.930 . S
H818 C806 0.956 . S
H819 C806 0.961 . S
H820 C806 0.961 . S
H821 C807 0.958 . S
H822 C807 0.961 . S
H823 C807 0.960 . S
C824 C825 1.391 . S
C824 C826 1.394 . S
C824 H840 0.931 . S
C825 C824 1.391 . S
C825 C829 1.376 . S
C826 C824 1.394 . S
C826 C827 1.369 . S
C826 C830 1.531 . S
C827 C826 1.369 . S
C827 C828 1.410 . S
C827 C835 1.503 . S
C828 C827 1.410 . S
C828 C829 1.392 . S
C828 C831 1.511 . S
C829 C825 1.376 . S
C829 C828 1.392 . S
C829 H841 0.929 . S
C830 C826 1.531 . S
C830 H842 0.960 . S
C830 H843 0.962 . S
C830 H844 0.960 . S
C831 C828 1.511 . S
C831 H845 0.961 . S
C831 H846 0.961 . S
C831 H847 0.961 . S
C832 C833 1.370 . S
C832 C834 1.363 . S
C832 H848 0.931 . S
C833 C832 1.370 . S
C833 C837 1.408 . S
C834 C832 1.363 . S
C834 C835 1.370 . S
C834 C838 1.524 . S
C835 C827 1.503 . S
C835 C834 1.370 . S
C835 C836 1.403 . S
C836 C835 1.403 . S
C836 C837 1.404 . S
C836 C839 1.539 . S
C837 C833 1.408 . S
C837 C836 1.404 . S
C837 H849 0.930 . S
C838 C834 1.524 . S
C838 H850 0.956 . S
C838 H851 0.961 . S
C838 H852 0.961 . S
C839 C836 1.539 . S
C839 H853 0.958 . S
C839 H854 0.961 . S
C839 H855 0.960 . S
H840 C824 0.931 . S
H841 C829 0.929 . S
H842 C830 0.960 . S
H843 C830 0.962 . S
H844 C830 0.960 . S
H845 C831 0.961 . S
H846 C831 0.961 . S
H847 C831 0.961 . S
H848 C832 0.931 . S
H849 C837 0.930 . S
H850 C838 0.956 . S
H851 C838 0.961 . S
H852 C838 0.961 . S
H853 C839 0.958 . S
H854 C839 0.961 . S
H855 C839 0.960 . S
C856 C857 1.391 . S
C856 C858 1.394 . S
C856 H872 0.931 . S
C857 C856 1.391 . S
C857 C861 1.376 . S
C858 C856 1.394 . S
C858 C859 1.369 . S
C858 C862 1.531 . S
C859 C858 1.369 . S
C859 C860 1.410 . S
C859 C867 1.503 . S
C860 C859 1.410 . S
C860 C861 1.392 . S
C860 C863 1.511 . S
C861 C857 1.376 . S
C861 C860 1.392 . S
C861 H873 0.929 . S
C862 C858 1.531 . S
C862 H874 0.960 . S
C862 H875 0.962 . S
C862 H876 0.960 . S
C863 C860 1.511 . S
C863 H877 0.961 . S
C863 H878 0.961 . S
C863 H879 0.961 . S
C864 C865 1.370 . S
C864 C866 1.363 . S
C864 H880 0.931 . S
C865 C864 1.370 . S
C865 C869 1.408 . S
C866 C864 1.363 . S
C866 C867 1.370 . S
C866 C870 1.524 . S
C867 C859 1.503 . S
C867 C866 1.370 . S
C867 C868 1.403 . S
C868 C867 1.403 . S
C868 C869 1.404 . S
C868 C871 1.539 . S
C869 C865 1.408 . S
C869 C868 1.404 . S
C869 H881 0.930 . S
C870 C866 1.524 . S
C870 H882 0.956 . S
C870 H883 0.961 . S
C870 H884 0.961 . S
C871 C868 1.539 . S
C871 H885 0.958 . S
C871 H886 0.961 . S
C871 H887 0.960 . S
H872 C856 0.931 . S
H873 C861 0.929 . S
H874 C862 0.960 . S
H875 C862 0.962 . S
H876 C862 0.960 . S
H877 C863 0.961 . S
H878 C863 0.961 . S
H879 C863 0.961 . S
H880 C864 0.931 . S
H881 C869 0.930 . S
H882 C870 0.956 . S
H883 C870 0.961 . S
H884 C870 0.961 . S
H885 C871 0.958 . S
H886 C871 0.961 . S
H887 C871 0.960 . S
C888 C889 1.391 . S
C888 C890 1.394 . S
C888 H904 0.931 . S
C889 C888 1.391 . S
C889 C893 1.376 . S
C890 C888 1.394 . S
C890 C891 1.369 . S
C890 C894 1.531 . S
C891 C890 1.369 . S
C891 C892 1.410 . S
C891 C899 1.503 . S
C892 C891 1.410 . S
C892 C893 1.392 . S
C892 C895 1.511 . S
C893 C889 1.376 . S
C893 C892 1.392 . S
C893 H905 0.929 . S
C894 C890 1.531 . S
C894 H906 0.960 . S
C894 H907 0.962 . S
C894 H908 0.960 . S
C895 C892 1.511 . S
C895 H909 0.961 . S
C895 H910 0.961 . S
C895 H911 0.961 . S
C896 C897 1.370 . S
C896 C898 1.363 . S
C896 H912 0.931 . S
C897 C896 1.370 . S
C897 C901 1.408 . S
C898 C896 1.363 . S
C898 C899 1.370 . S
C898 C902 1.524 . S
C899 C891 1.503 . S
C899 C898 1.370 . S
C899 C900 1.403 . S
C900 C899 1.403 . S
C900 C901 1.404 . S
C900 C903 1.539 . S
C901 C897 1.408 . S
C901 C900 1.404 . S
C901 H913 0.930 . S
C902 C898 1.524 . S
C902 H914 0.956 . S
C902 H915 0.961 . S
C902 H916 0.961 . S
C903 C900 1.539 . S
C903 H917 0.958 . S
C903 H918 0.961 . S
C903 H919 0.960 . S
H904 C888 0.931 . S
H905 C893 0.929 . S
H906 C894 0.960 . S
H907 C894 0.962 . S
H908 C894 0.960 . S
H909 C895 0.961 . S
H910 C895 0.961 . S
H911 C895 0.961 . S
H912 C896 0.931 . S
H913 C901 0.930 . S
H914 C902 0.956 . S
H915 C902 0.961 . S
H916 C902 0.961 . S
H917 C903 0.958 . S
H918 C903 0.961 . S
H919 C903 0.960 . S
C920 C921 1.391 . S
C920 C922 1.394 . S
C920 H936 0.931 . S
C921 C920 1.391 . S
C921 C925 1.376 . S
C922 C920 1.394 . S
C922 C923 1.369 . S
C922 C926 1.531 . S
C923 C922 1.369 . S
C923 C924 1.410 . S
C923 C931 1.503 . S
C924 C923 1.410 . S
C924 C925 1.392 . S
C924 C927 1.511 . S
C925 C921 1.376 . S
C925 C924 1.392 . S
C925 H937 0.929 . S
C926 C922 1.531 . S
C926 H938 0.960 . S
C926 H939 0.962 . S
C926 H940 0.960 . S
C927 C924 1.511 . S
C927 H941 0.961 . S
C927 H942 0.961 . S
C927 H943 0.961 . S
C928 C929 1.370 . S
C928 C930 1.363 . S
C928 H944 0.931 . S
C929 C928 1.370 . S
C929 C933 1.408 . S
C930 C928 1.363 . S
C930 C931 1.370 . S
C930 C934 1.524 . S
C931 C923 1.503 . S
C931 C930 1.370 . S
C931 C932 1.403 . S
C932 C931 1.403 . S
C932 C933 1.404 . S
C932 C935 1.539 . S
C933 C929 1.408 . S
C933 C932 1.404 . S
C933 H945 0.930 . S
C934 C930 1.524 . S
C934 H946 0.956 . S
C934 H947 0.961 . S
C934 H948 0.961 . S
C935 C932 1.539 . S
C935 H949 0.958 . S
C935 H950 0.961 . S
C935 H951 0.960 . S
H936 C920 0.931 . S
H937 C925 0.929 . S
H938 C926 0.960 . S
H939 C926 0.962 . S
H940 C926 0.960 . S
H941 C927 0.961 . S
H942 C927 0.961 . S
H943 C927 0.961 . S
H944 C928 0.931 . S
H945 C933 0.930 . S
H946 C934 0.956 . S
H947 C934 0.961 . S
H948 C934 0.961 . S
H949 C935 0.958 . S
H950 C935 0.961 . S
H951 C935 0.960 . S
C952 C953 1.391 . S
C952 C954 1.394 . S
C952 H968 0.931 . S
C953 C952 1.391 . S
C953 C957 1.376 . S
C954 C952 1.394 . S
C954 C955 1.369 . S
C954 C958 1.531 . S
C955 C954 1.369 . S
C955 C956 1.410 . S
C955 C963 1.503 . S
C956 C955 1.410 . S
C956 C957 1.392 . S
C956 C959 1.511 . S
C957 C953 1.376 . S
C957 C956 1.392 . S
C957 H969 0.929 . S
C958 C954 1.531 . S
C958 H970 0.960 . S
C958 H971 0.962 . S
C958 H972 0.960 . S
C959 C956 1.511 . S
C959 H973 0.961 . S
C959 H974 0.961 . S
C959 H975 0.961 . S
C960 C961 1.370 . S
C960 C962 1.363 . S
C960 H976 0.931 . S
C961 C960 1.370 . S
C961 C965 1.408 . S
C962 C960 1.363 . S
C962 C963 1.370 . S
C962 C966 1.524 . S
C963 C955 1.503 . S
C963 C962 1.370 . S
C963 C964 1.403 . S
C964 C963 1.403 . S
C964 C965 1.404 . S
C964 C967 1.539 . S
C965 C961 1.408 . S
C965 C964 1.404 . S
C965 H977 0.930 . S
C966 C962 1.524 . S
C966 H978 0.956 . S
C966 H979 0.961 . S
C966 H980 0.961 . S
C967 C964 1.539 . S
C967 H981 0.958 . S
C967 H982 0.961 . S
C967 H983 0.960 . S
H968 C952 0.931 . S
H969 C957 0.929 . S
H970 C958 0.960 . S
H971 C958 0.962 . S
H972 C958 0.960 . S
H973 C959 0.961 . S
H974 C959 0.961 . S
H975 C959 0.961 . S
H976 C960 0.931 . S
H977 C965 0.930 . S
H978 C966 0.956 . S
H979 C966 0.961 . S
H980 C966 0.961 . S
H981 C967 0.958 . S
H982 C967 0.961 . S
H983 C967 0.960 . S
C984 C985 1.391 . S
C984 C986 1.394 . S
C984 H1000 0.931 . S
C985 C984 1.391 . S
C985 C989 1.376 . S
C986 C984 1.394 . S
C986 C987 1.369 . S
C986 C990 1.531 . S
C987 C986 1.369 . S
C987 C988 1.410 . S
C987 C995 1.503 . S
C988 C987 1.410 . S
C988 C989 1.392 . S
C988 C991 1.511 . S
C989 C985 1.376 . S
C989 C988 1.392 . S
C989 H1001 0.929 . S
C990 C986 1.531 . S
C990 H1002 0.960 . S
C990 H1003 0.962 . S
C990 H1004 0.960 . S
C991 C988 1.511 . S
C991 H1005 0.961 . S
C991 H1006 0.961 . S
C991 H1007 0.961 . S
C992 C993 1.370 . S
C992 C994 1.363 . S
C992 H1008 0.931 . S
C993 C992 1.370 . S
C993 C997 1.408 . S
C994 C992 1.363 . S
C994 C995 1.370 . S
C994 C998 1.524 . S
C995 C987 1.503 . S
C995 C994 1.370 . S
C995 C996 1.403 . S
C996 C995 1.403 . S
C996 C997 1.404 . S
C996 C999 1.539 . S
C997 C993 1.408 . S
C997 C996 1.404 . S
C997 H1009 0.930 . S
C998 C994 1.524 . S
C998 H1010 0.956 . S
C998 H1011 0.961 . S
C998 H1012 0.961 . S
C999 C996 1.539 . S
C999 H1013 0.958 . S
C999 H1014 0.961 . S
C999 H1015 0.960 . S
H1000 C984 0.931 . S
H1001 C989 0.929 . S
H1002 C990 0.960 . S
H1003 C990 0.962 . S
H1004 C990 0.960 . S
H1005 C991 0.961 . S
H1006 C991 0.961 . S
H1007 C991 0.961 . S
H1008 C992 0.931 . S
H1009 C997 0.930 . S
H1010 C998 0.956 . S
H1011 C998 0.961 . S
H1012 C998 0.961 . S
H1013 C999 0.958 . S
H1014 C999 0.961 . S
H1015 C999 0.960 . S
C1016 C1017 1.391 . S
C1016 C1018 1.394 . S
C1016 H1032 0.931 . S
C1017 C1016 1.391 . S
C1017 C1021 1.376 . S
C1018 C1016 1.394 . S
C1018 C1019 1.369 . S
C1018 C1022 1.531 . S
C1019 C1018 1.369 . S
C1019 C1020 1.410 . S
C1019 C1027 1.503 . S
C1020 C1019 1.410 . S
C1020 C1021 1.392 . S
C1020 C1023 1.511 . S
C1021 C1017 1.376 . S
C1021 C1020 1.392 . S
C1021 H1033 0.929 . S
C1022 C1018 1.531 . S
C1022 H1034 0.960 . S
C1022 H1035 0.962 . S
C1022 H1036 0.960 . S
C1023 C1020 1.511 . S
C1023 H1037 0.961 . S
C1023 H1038 0.961 . S
C1023 H1039 0.961 . S
C1024 C1025 1.370 . S
C1024 C1026 1.363 . S
C1024 H1040 0.931 . S
C1025 C1024 1.370 . S
C1025 C1029 1.408 . S
C1026 C1024 1.363 . S
C1026 C1027 1.370 . S
C1026 C1030 1.524 . S
C1027 C1019 1.503 . S
C1027 C1026 1.370 . S
C1027 C1028 1.403 . S
C1028 C1027 1.403 . S
C1028 C1029 1.404 . S
C1028 C1031 1.539 . S
C1029 C1025 1.408 . S
C1029 C1028 1.404 . S
C1029 H1041 0.930 . S
C1030 C1026 1.524 . S
C1030 H1042 0.956 . S
C1030 H1043 0.961 . S
C1030 H1044 0.961 . S
C1031 C1028 1.539 . S
C1031 H1045 0.958 . S
C1031 H1046 0.961 . S
C1031 H1047 0.960 . S
H1032 C1016 0.931 . S
H1033 C1021 0.929 . S
H1034 C1022 0.960 . S
H1035 C1022 0.962 . S
H1036 C1022 0.960 . S
H1037 C1023 0.961 . S
H1038 C1023 0.961 . S
H1039 C1023 0.961 . S
H1040 C1024 0.931 . S
H1041 C1029 0.930 . S
H1042 C1030 0.956 . S
H1043 C1030 0.961 . S
H1044 C1030 0.961 . S
H1045 C1031 0.958 . S
H1046 C1031 0.961 . S
H1047 C1031 0.960 . S
C1048 C1049 1.391 . S
C1048 C1050 1.394 . S
C1048 H1064 0.931 . S
C1049 C1048 1.391 . S
C1049 C1053 1.376 . S
C1050 C1048 1.394 . S
C1050 C1051 1.369 . S
C1050 C1054 1.531 . S
C1051 C1050 1.369 . S
C1051 C1052 1.410 . S
C1051 C1059 1.503 . S
C1052 C1051 1.410 . S
C1052 C1053 1.392 . S
C1052 C1055 1.511 . S
C1053 C1049 1.376 . S
C1053 C1052 1.392 . S
C1053 H1065 0.929 . S
C1054 C1050 1.531 . S
C1054 H1066 0.960 . S
C1054 H1067 0.962 . S
C1054 H1068 0.960 . S
C1055 C1052 1.511 . S
C1055 H1069 0.961 . S
C1055 H1070 0.961 . S
C1055 H1071 0.961 . S
C1056 C1057 1.370 . S
C1056 C1058 1.363 . S
C1056 H1072 0.931 . S
C1057 C1056 1.370 . S
C1057 C1061 1.408 . S
C1058 C1056 1.363 . S
C1058 C1059 1.370 . S
C1058 C1062 1.524 . S
C1059 C1051 1.503 . S
C1059 C1058 1.370 . S
C1059 C1060 1.403 . S
C1060 C1059 1.403 . S
C1060 C1061 1.404 . S
C1060 C1063 1.539 . S
C1061 C1057 1.408 . S
C1061 C1060 1.404 . S
C1061 H1073 0.930 . S
C1062 C1058 1.524 . S
C1062 H1074 0.956 . S
C1062 H1075 0.961 . S
C1062 H1076 0.961 . S
C1063 C1060 1.539 . S
C1063 H1077 0.958 . S
C1063 H1078 0.961 . S
C1063 H1079 0.960 . S
H1064 C1048 0.931 . S
H1065 C1053 0.929 . S
H1066 C1054 0.960 . S
H1067 C1054 0.962 . S
H1068 C1054 0.960 . S
H1069 C1055 0.961 . S
H1070 C1055 0.961 . S
H1071 C1055 0.961 . S
H1072 C1056 0.931 . S
H1073 C1061 0.930 . S
H1074 C1062 0.956 . S
H1075 C1062 0.961 . S
H1076 C1062 0.961 . S
H1077 C1063 0.958 . S
H1078 C1063 0.961 . S
H1079 C1063 0.960 . S
C1080 C1081 1.391 . S
C1080 C1082 1.394 . S
C1080 H1096 0.931 . S
C1081 C1080 1.391 . S
C1081 C1085 1.376 . S
C1082 C1080 1.394 . S
C1082 C1083 1.369 . S
C1082 C1086 1.531 . S
C1083 C1082 1.369 . S
C1083 C1084 1.410 . S
C1083 C1091 1.503 . S
C1084 C1083 1.410 . S
C1084 C1085 1.392 . S
C1084 C1087 1.511 . S
C1085 C1081 1.376 . S
C1085 C1084 1.392 . S
C1085 H1097 0.929 . S
C1086 C1082 1.531 . S
C1086 H1098 0.960 . S
C1086 H1099 0.962 . S
C1086 H1100 0.960 . S
C1087 C1084 1.511 . S
C1087 H1101 0.961 . S
C1087 H1102 0.961 . S
C1087 H1103 0.961 . S
C1088 C1089 1.370 . S
C1088 C1090 1.363 . S
C1088 H1104 0.931 . S
C1089 C1088 1.370 . S
C1089 C1093 1.408 . S
C1090 C1088 1.363 . S
C1090 C1091 1.370 . S
C1090 C1094 1.524 . S
C1091 C1083 1.503 . S
C1091 C1090 1.370 . S
C1091 C1092 1.403 . S
C1092 C1091 1.403 . S
C1092 C1093 1.404 . S
C1092 C1095 1.539 . S
C1093 C1089 1.408 . S
C1093 C1092 1.404 . S
C1093 H1105 0.930 . S
C1094 C1090 1.524 . S
C1094 H1106 0.956 . S
C1094 H1107 0.961 . S
C1094 H1108 0.961 . S
C1095 C1092 1.539 . S
C1095 H1109 0.958 . S
C1095 H1110 0.961 . S
C1095 H1111 0.960 . S
H1096 C1080 0.931 . S
H1097 C1085 0.929 . S
H1098 C1086 0.960 . S
H1099 C1086 0.962 . S
H1100 C1086 0.960 . S
H1101 C1087 0.961 . S
H1102 C1087 0.961 . S
H1103 C1087 0.961 . S
H1104 C1088 0.931 . S
H1105 C1093 0.930 . S
H1106 C1094 0.956 . S
H1107 C1094 0.961 . S
H1108 C1094 0.961 . S
H1109 C1095 0.958 . S
H1110 C1095 0.961 . S
H1111 C1095 0.960 . S
C1112 C1113 1.391 . S
C1112 C1114 1.394 . S
C1112 H1128 0.931 . S
C1113 C1112 1.391 . S
C1113 C1117 1.376 . S
C1114 C1112 1.394 . S
C1114 C1115 1.369 . S
C1114 C1118 1.531 . S
C1115 C1114 1.369 . S
C1115 C1116 1.410 . S
C1115 C1123 1.503 . S
C1116 C1115 1.410 . S
C1116 C1117 1.392 . S
C1116 C1119 1.511 . S
C1117 C1113 1.376 . S
C1117 C1116 1.392 . S
C1117 H1129 0.929 . S
C1118 C1114 1.531 . S
C1118 H1130 0.960 . S
C1118 H1131 0.962 . S
C1118 H1132 0.960 . S
C1119 C1116 1.511 . S
C1119 H1133 0.961 . S
C1119 H1134 0.961 . S
C1119 H1135 0.961 . S
C1120 C1121 1.370 . S
C1120 C1122 1.363 . S
C1120 H1136 0.931 . S
C1121 C1120 1.370 . S
C1121 C1125 1.408 . S
C1122 C1120 1.363 . S
C1122 C1123 1.370 . S
C1122 C1126 1.524 . S
C1123 C1115 1.503 . S
C1123 C1122 1.370 . S
C1123 C1124 1.403 . S
C1124 C1123 1.403 . S
C1124 C1125 1.404 . S
C1124 C1127 1.539 . S
C1125 C1121 1.408 . S
C1125 C1124 1.404 . S
C1125 H1137 0.930 . S
C1126 C1122 1.524 . S
C1126 H1138 0.956 . S
C1126 H1139 0.961 . S
C1126 H1140 0.961 . S
C1127 C1124 1.539 . S
C1127 H1141 0.958 . S
C1127 H1142 0.961 . S
C1127 H1143 0.960 . S
H1128 C1112 0.931 . S
H1129 C1117 0.929 . S
H1130 C1118 0.960 . S
H1131 C1118 0.962 . S
H1132 C1118 0.960 . S
H1133 C1119 0.961 . S
H1134 C1119 0.961 . S
H1135 C1119 0.961 . S
H1136 C1120 0.931 . S
H1137 C1125 0.930 . S
H1138 C1126 0.956 . S
H1139 C1126 0.961 . S
H1140 C1126 0.961 . S
H1141 C1127 0.958 . S
H1142 C1127 0.961 . S
H1143 C1127 0.960 . S
C1144 C1145 1.391 . S
C1144 C1146 1.394 . S
C1144 H1160 0.931 . S
C1145 C1144 1.391 . S
C1145 C1149 1.376 . S
C1146 C1144 1.394 . S
C1146 C1147 1.369 . S
C1146 C1150 1.531 . S
C1147 C1146 1.369 . S
C1147 C1148 1.410 . S
C1147 C1155 1.503 . S
C1148 C1147 1.410 . S
C1148 C1149 1.392 . S
C1148 C1151 1.511 . S
C1149 C1145 1.376 . S
C1149 C1148 1.392 . S
C1149 H1161 0.929 . S
C1150 C1146 1.531 . S
C1150 H1162 0.960 . S
C1150 H1163 0.962 . S
C1150 H1164 0.960 . S
C1151 C1148 1.511 . S
C1151 H1165 0.961 . S
C1151 H1166 0.961 . S
C1151 H1167 0.961 . S
C1152 C1153 1.370 . S
C1152 C1154 1.363 . S
C1152 H1168 0.931 . S
C1153 C1152 1.370 . S
C1153 C1157 1.408 . S
C1154 C1152 1.363 . S
C1154 C1155 1.370 . S
C1154 C1158 1.524 . S
C1155 C1147 1.503 . S
C1155 C1154 1.370 . S
C1155 C1156 1.403 . S
C1156 C1155 1.403 . S
C1156 C1157 1.404 . S
C1156 C1159 1.539 . S
C1157 C1153 1.408 . S
C1157 C1156 1.404 . S
C1157 H1169 0.930 . S
C1158 C1154 1.524 . S
C1158 H1170 0.956 . S
C1158 H1171 0.961 . S
C1158 H1172 0.961 . S
C1159 C1156 1.539 . S
C1159 H1173 0.958 . S
C1159 H1174 0.961 . S
C1159 H1175 0.960 . S
H1160 C1144 0.931 . S
H1161 C1149 0.929 . S
H1162 C1150 0.960 . S
H1163 C1150 0.962 . S
H1164 C1150 0.960 . S
H1165 C1151 0.961 . S
H1166 C1151 0.961 . S
H1167 C1151 0.961 . S
H1168 C1152 0.931 . S
H1169 C1157 0.930 . S
H1170 C1158 0.956 . S
H1171 C1158 0.961 . S
H1172 C1158 0.961 . S
H1173 C1159 0.958 . S
H1174 C1159 0.961 . S
H1175 C1159 0.960 . S
C1176 C1177 1.391 . S
C1176 C1178 1.394 . S
C1176 H1192 0.931 . S
C1177 C1176 1.391 . S
C1177 C1181 1.376 . S
C1178 C1176 1.394 . S
C1178 C1179 1.369 . S
C1178 C1182 1.531 . S
C1179 C1178 1.369 . S
C1179 C1180 1.410 . S
C1179 C1187 1.503 . S
C1180 C1179 1.410 . S
C1180 C1181 1.392 . S
C1180 C1183 1.511 . S
C1181 C1177 1.376 . S
C1181 C1180 1.392 . S
C1181 H1193 0.929 . S
C1182 C1178 1.531 . S
C1182 H1194 0.960 . S
C1182 H1195 0.962 . S
C1182 H1196 0.960 . S
C1183 C1180 1.511 . S
C1183 H1197 0.961 . S
C1183 H1198 0.961 . S
C1183 H1199 0.961 . S
C1184 C1185 1.370 . S
C1184 C1186 1.363 . S
C1184 H1200 0.931 . S
C1185 C1184 1.370 . S
C1185 C1189 1.408 . S
C1186 C1184 1.363 . S
C1186 C1187 1.370 . S
C1186 C1190 1.524 . S
C1187 C1179 1.503 . S
C1187 C1186 1.370 . S
C1187 C1188 1.403 . S
C1188 C1187 1.403 . S
C1188 C1189 1.404 . S
C1188 C1191 1.539 . S
C1189 C1185 1.408 . S
C1189 C1188 1.404 . S
C1189 H1201 0.930 . S
C1190 C1186 1.524 . S
C1190 H1202 0.956 . S
C1190 H1203 0.961 . S
C1190 H1204 0.961 . S
C1191 C1188 1.539 . S
C1191 H1205 0.958 . S
C1191 H1206 0.961 . S
C1191 H1207 0.960 . S
H1192 C1176 0.931 . S
H1193 C1181 0.929 . S
H1194 C1182 0.960 . S
H1195 C1182 0.962 . S
H1196 C1182 0.960 . S
H1197 C1183 0.961 . S
H1198 C1183 0.961 . S
H1199 C1183 0.961 . S
H1200 C1184 0.931 . S
H1201 C1189 0.930 . S
H1202 C1190 0.956 . S
H1203 C1190 0.961 . S
H1204 C1190 0.961 . S
H1205 C1191 0.958 . S
H1206 C1191 0.961 . S
H1207 C1191 0.960 . S
C1208 C1209 1.391 . S
C1208 C1210 1.394 . S
C1208 H1224 0.931 . S
C1209 C1208 1.391 . S
C1209 C1213 1.376 . S
C1210 C1208 1.394 . S
C1210 C1211 1.369 . S
C1210 C1214 1.531 . S
C1211 C1210 1.369 . S
C1211 C1212 1.410 . S
C1211 C1219 1.503 . S
C1212 C1211 1.410 . S
C1212 C1213 1.392 . S
C1212 C1215 1.511 . S
C1213 C1209 1.376 . S
C1213 C1212 1.392 . S
C1213 H1225 0.929 . S
C1214 C1210 1.531 . S
C1214 H1226 0.960 . S
C1214 H1227 0.962 . S
C1214 H1228 0.960 . S
C1215 C1212 1.511 . S
C1215 H1229 0.961 . S
C1215 H1230 0.961 . S
C1215 H1231 0.961 . S
C1216 C1217 1.370 . S
C1216 C1218 1.363 . S
C1216 H1232 0.931 . S
C1217 C1216 1.370 . S
C1217 C1221 1.408 . S
C1218 C1216 1.363 . S
C1218 C1219 1.370 . S
C1218 C1222 1.524 . S
C1219 C1211 1.503 . S
C1219 C1218 1.370 . S
C1219 C1220 1.403 . S
C1220 C1219 1.403 . S
C1220 C1221 1.404 . S
C1220 C1223 1.539 . S
C1221 C1217 1.408 . S
C1221 C1220 1.404 . S
C1221 H1233 0.930 . S
C1222 C1218 1.524 . S
C1222 H1234 0.956 . S
C1222 H1235 0.961 . S
C1222 H1236 0.961 . S
C1223 C1220 1.539 . S
C1223 H1237 0.958 . S
C1223 H1238 0.961 . S
C1223 H1239 0.960 . S
H1224 C1208 0.931 . S
H1225 C1213 0.929 . S
H1226 C1214 0.960 . S
H1227 C1214 0.962 . S
H1228 C1214 0.960 . S
H1229 C1215 0.961 . S
H1230 C1215 0.961 . S
H1231 C1215 0.961 . S
H1232 C1216 0.931 . S
H1233 C1221 0.930 . S
H1234 C1222 0.956 . S
H1235 C1222 0.961 . S
H1236 C1222 0.961 . S
H1237 C1223 0.958 . S
H1238 C1223 0.961 . S
H1239 C1223 0.960 . S
C473 C1 1.060 . S
C481 C327 1.075 . S
C505 C40 1.605 . S
C513 C371 1.618 . S
C545 C401 2.172 . S
C537 C99 2.136 . S
C569 C118 2.780 . S
C577 C442 2.744 . S
C609 C358 0.776 . S
C601 C16 0.785 . S
C641 C322 2.558 . S
C633 C60 2.504 . S
C673 C450 1.164 . S
C665 C79 1.153 . S
C705 C411 2.251 . S
C697 C138 2.271 . S
C729 C21 1.048 . S
C737 C447 0.994 . S
C769 C361 2.064 . S
C761 C94 2.097 . S
C793 C133 2.090 . S
C801 C330 2.048 . S
C825 C55 1.941 . S
C833 C398 1.937 . S
C865 C318 1.088 . S
C857 C157 1.023 . S
C889 C196 1.587 . S
C897 C362 1.628 . S
C921 C255 2.150 . S
C929 C410 2.169 . S
C953 C289 2.777 . S
C961 C451 2.746 . S
C985 C172 0.804 . S
C993 C367 0.758 . S
C1025 C331 2.563 . S
C1017 C216 2.508 . S
C1057 C441 1.167 . S
C1049 C235 1.156 . S
C1089 C402 2.236 . S
C1081 C294 2.302 . S
C1113 C177 0.952 . S
C1121 C438 1.037 . S
C1153 C370 2.065 . S
C1145 C250 2.079 . S
C1185 C321 2.046 . S
C1177 C274 2.115 . S
C1209 C211 1.937 . S
C1217 C407 1.942 . S
