# Generated by pormake.
# Topology hwx, (6,3)-cn, num edge types: 1
# Building blocks:
#     Node 0, Type 0, BuildingBlock: OJICUG_clean_sbu_0, # of connection points: 6
#     Node 1, Type 0, BuildingBlock: OJICUG_clean_sbu_0, # of connection points: 6
#     Node 2, Type 0, BuildingBlock: OJICUG_clean_sbu_0, # of connection points: 6
#     Node 3, Type 0, BuildingBlock: OJICUG_clean_sbu_0, # of connection points: 6
#     Node 4, Type 1, BuildingBlock: BELTOD_clean_linker_0, # of connection points: 3
#     Node 5, Type 1, BuildingBlock: BELTOD_clean_linker_0, # of connection points: 3
#     Node 6, Type 1, BuildingBlock: BELTOD_clean_linker_0, # of connection points: 3
#     Node 7, Type 1, BuildingBlock: BELTOD_clean_linker_0, # of connection points: 3
#     Node 8, Type 1, BuildingBlock: BELTOD_clean_linker_0, # of connection points: 3
#     Node 9, Type 1, BuildingBlock: BELTOD_clean_linker_0, # of connection points: 3
#     Node 10, Type 1, BuildingBlock: BELTOD_clean_linker_0, # of connection points: 3
#     Node 11, Type 1, BuildingBlock: BELTOD_clean_linker_0, # of connection points: 3
#     Edge 12, Type (0, 1), BuildingBlock: MIFKUJ_clean_linker_0, # of connection points: 2
#     Edge 13, Type (0, 1), BuildingBlock: MIFKUJ_clean_linker_0, # of connection points: 2
#     Edge 14, Type (0, 1), BuildingBlock: MIFKUJ_clean_linker_0, # of connection points: 2
#     Edge 15, Type (0, 1), BuildingBlock: MIFKUJ_clean_linker_0, # of connection points: 2
#     Edge 16, Type (0, 1), BuildingBlock: MIFKUJ_clean_linker_0, # of connection points: 2
#     Edge 17, Type (0, 1), BuildingBlock: MIFKUJ_clean_linker_0, # of connection points: 2
#     Edge 18, Type (0, 1), BuildingBlock: MIFKUJ_clean_linker_0, # of connection points: 2
#     Edge 19, Type (0, 1), BuildingBlock: MIFKUJ_clean_linker_0, # of connection points: 2
#     Edge 20, Type (0, 1), BuildingBlock: MIFKUJ_clean_linker_0, # of connection points: 2
#     Edge 21, Type (0, 1), BuildingBlock: MIFKUJ_clean_linker_0, # of connection points: 2
#     Edge 22, Type (0, 1), BuildingBlock: MIFKUJ_clean_linker_0, # of connection points: 2
#     Edge 23, Type (0, 1), BuildingBlock: MIFKUJ_clean_linker_0, # of connection points: 2
#     Edge 24, Type (0, 1), BuildingBlock: MIFKUJ_clean_linker_0, # of connection points: 2
#     Edge 25, Type (0, 1), BuildingBlock: MIFKUJ_clean_linker_0, # of connection points: 2
#     Edge 26, Type (0, 1), BuildingBlock: MIFKUJ_clean_linker_0, # of connection points: 2
#     Edge 27, Type (0, 1), BuildingBlock: MIFKUJ_clean_linker_0, # of connection points: 2
#     Edge 28, Type (0, 1), BuildingBlock: MIFKUJ_clean_linker_0, # of connection points: 2
#     Edge 29, Type (0, 1), BuildingBlock: MIFKUJ_clean_linker_0, # of connection points: 2
#     Edge 30, Type (0, 1), BuildingBlock: MIFKUJ_clean_linker_0, # of connection points: 2
#     Edge 31, Type (0, 1), BuildingBlock: MIFKUJ_clean_linker_0, # of connection points: 2
#     Edge 32, Type (0, 1), BuildingBlock: MIFKUJ_clean_linker_0, # of connection points: 2
#     Edge 33, Type (0, 1), BuildingBlock: MIFKUJ_clean_linker_0, # of connection points: 2
#     Edge 34, Type (0, 1), BuildingBlock: MIFKUJ_clean_linker_0, # of connection points: 2
#     Edge 35, Type (0, 1), BuildingBlock: MIFKUJ_clean_linker_0, # of connection points: 2
# Relax obj value: 0.069
# Max RMSD: 0.096
# Mean RMSD: 0.086
data_MOF--net-hwx--node1-OJICUG_clean_sbu_0--node2-BELTOD_clean_linker_0--edge1-MIFKUJ_clean_linker_0
_symmetry_space_group_name_H-M    P1
_symmetry_Int_Tables_number       1
_symmetry_cell_setting            triclinic
loop_
_symmetry_equiv_pos_as_xyz
'x, y, z'
_cell_length_a     71.35627
_cell_length_b     71.335029
_cell_length_c     31.848995
_cell_angle_alpha  89.423221
_cell_angle_beta   90.556364
_cell_angle_gamma 90.007386
loop_
_atom_site_label
_atom_site_type_symbol
_atom_site_fract_x
_atom_site_fract_y
_atom_site_fract_z
_atom_type_partial_charge
Sc0 Sc 0.20822 0.21105 0.06027 0.0
Sc1 Sc 0.17966 0.1788 0.00557 0.0
Sc2 Sc 0.20763 0.21161 0.95032 0.0
O3 O 0.1985 0.20042 0.00534 0.0
C4 C 0.20448 0.24849 0.0053 0.0
C5 C 0.16498 0.20514 0.07907 0.0
C6 C 0.16404 0.20553 0.93184 0.0
C7 C 0.20662 0.16707 0.08157 0.0
C8 C 0.24529 0.20963 0.00549 0.0
C9 C 0.20579 0.16795 0.92872 0.0
O10 O 0.2061 0.23979 0.04006 0.0
O11 O 0.16269 0.19164 0.05366 0.0
O12 O 0.17966 0.21361 0.92568 0.0
O13 O 0.21171 0.18383 0.08839 0.0
O14 O 0.23663 0.21068 0.97038 0.0
O15 O 0.19443 0.16353 0.95773 0.0
O16 O 0.2369 0.20944 0.04056 0.0
O17 O 0.19544 0.16274 0.05188 0.0
O18 O 0.21153 0.18461 0.9227 0.0
O19 O 0.18039 0.21378 0.08393 0.0
O20 O 0.20452 0.24019 0.97024 0.0
O21 O 0.16183 0.19246 0.9589 0.0
Sc22 Sc 0.27886 0.71987 0.44409 0.0
Sc23 Sc 0.3113 0.69219 0.50159 0.0
Sc24 Sc 0.27673 0.7182 0.55417 0.0
O25 O 0.28897 0.71004 0.49994 0.0
C26 C 0.27832 0.75639 0.50084 0.0
C27 C 0.32277 0.7193 0.42571 0.0
C28 C 0.32048 0.71916 0.57811 0.0
C29 C 0.28625 0.67663 0.42556 0.0
C30 C 0.24085 0.71434 0.49488 0.0
C31 C 0.28524 0.67527 0.57429 0.0
O32 O 0.27934 0.74845 0.46533 0.0
O33 O 0.32702 0.7077 0.45483 0.0
O34 O 0.30337 0.72329 0.58389 0.0
O35 O 0.27788 0.69211 0.41829 0.0
O36 O 0.24859 0.71418 0.53094 0.0
O37 O 0.29873 0.67421 0.54859 0.0
O38 O 0.25002 0.71654 0.46127 0.0
O39 O 0.29869 0.67456 0.45424 0.0
O40 O 0.27564 0.69009 0.57889 0.0
O41 O 0.30609 0.72467 0.41878 0.0
O42 O 0.27677 0.74729 0.53519 0.0
O43 O 0.32578 0.70831 0.54904 0.0
Sc44 Sc 0.76499 0.7625 0.94481 0.0
Sc45 Sc 0.7931 0.79288 0.00491 0.0
Sc46 Sc 0.76172 0.7621 0.05541 0.0
O47 O 0.77328 0.77248 0.00173 0.0
C48 C 0.7263 0.76508 0.99343 0.0
C49 C 0.7696 0.80611 0.92425 0.0
C50 C 0.76399 0.80592 0.07426 0.0
C51 C 0.80932 0.7663 0.93381 0.0
C52 C 0.76623 0.72516 0.00103 0.0
C53 C 0.80442 0.76697 0.08357 0.0
O54 O 0.73579 0.76516 0.95985 0.0
O55 O 0.78064 0.80926 0.95488 0.0
O56 O 0.75722 0.78966 0.08081 0.0
O57 O 0.79354 0.75914 0.92398 0.0
O58 O 0.76522 0.7335 0.03601 0.0
O59 O 0.80813 0.77908 0.05534 0.0
O60 O 0.76583 0.73376 0.96591 0.0
O61 O 0.81117 0.77865 0.96206 0.0
O62 O 0.7883 0.75963 0.08747 0.0
O63 O 0.76297 0.78996 0.91668 0.0
O64 O 0.73372 0.76349 0.02975 0.0
O65 O 0.77691 0.80914 0.04794 0.0
Sc66 Sc 0.7188 0.27631 0.55947 0.0
Sc67 Sc 0.69325 0.30824 0.49604 0.0
Sc68 Sc 0.72376 0.27571 0.44988 0.0
O69 O 0.71189 0.28675 0.50179 0.0
C70 C 0.75834 0.27735 0.51433 0.0
C71 C 0.71658 0.32043 0.57651 0.0
C72 C 0.72364 0.31907 0.4266 0.0
C73 C 0.67517 0.28297 0.56927 0.0
C74 C 0.71678 0.23901 0.50472 0.0
C75 C 0.68124 0.28212 0.42007 0.0
O76 O 0.74837 0.27828 0.54712 0.0
O77 O 0.70756 0.32468 0.54311 0.0
O78 O 0.73071 0.30279 0.42493 0.0
O79 O 0.69002 0.27375 0.5775 0.0
O80 O 0.71826 0.24736 0.4695 0.0
O81 O 0.67726 0.2938 0.44857 0.0
O82 O 0.71751 0.24758 0.53948 0.0
O83 O 0.67458 0.29623 0.54222 0.0
O84 O 0.69751 0.27514 0.41588 0.0
O85 O 0.72067 0.30366 0.58683 0.0
O86 O 0.75133 0.27541 0.47779 0.0
O87 O 0.70954 0.32296 0.44906 0.0
P88 P 0.27765 0.49578 0.00875 0.0
H89 H 0.29501 0.49904 0.09144 0.0
H90 H 0.2889 0.51911 0.15104 0.0
H91 H 0.241 0.54278 0.08527 0.0
H92 H 0.24778 0.52309 0.02483 0.0
H93 H 0.28768 0.45639 0.00038 0.0
H94 H 0.26951 0.42744 0.00388 0.0
H95 H 0.21884 0.45945 0.02003 0.0
H96 H 0.2372 0.4886 0.01807 0.0
H97 H 0.30352 0.51955 0.96297 0.0
H98 H 0.24568 0.50271 0.95066 0.0
O99 O 0.3002 0.48969 0.01282 0.0
H100 H 0.30034 0.53916 0.90017 0.0
H101 H 0.2424 0.52239 0.88765 0.0
C102 C 0.27208 0.50985 0.05343 0.0
C103 C 0.2832 0.50855 0.08979 0.0
C104 C 0.27953 0.51992 0.12414 0.0
C105 C 0.26443 0.53262 0.12308 0.0
C106 C 0.25291 0.53339 0.08696 0.0
C107 C 0.25671 0.52209 0.05241 0.0
C108 C 0.26382 0.47468 0.00904 0.0
C109 C 0.27269 0.45729 0.0048 0.0
C110 C 0.26233 0.44074 0.00688 0.0
C111 C 0.24286 0.44132 0.01246 0.0
C112 C 0.23386 0.45873 0.01569 0.0
C113 C 0.24433 0.47533 0.01447 0.0
C114 C 0.27496 0.50936 0.96111 0.0
C115 C 0.29019 0.51986 0.94646 0.0
C116 C 0.28837 0.53104 0.91047 0.0
C117 C 0.27117 0.53216 0.88874 0.0
C118 C 0.25582 0.5218 0.90378 0.0
C119 C 0.25772 0.51046 0.9397 0.0
P120 P 0.98418 0.76739 0.51293 0.0
H121 H 0.98009 0.78693 0.59251 0.0
H122 H 0.96294 0.77938 0.65623 0.0
H123 H 0.94916 0.7249 0.60612 0.0
H124 H 0.96573 0.73297 0.54159 0.0
H125 H 0.01799 0.78179 0.47399 0.0
H126 H 0.04944 0.76901 0.46607 0.0
H127 H 0.03234 0.7182 0.53003 0.0
H128 H 0.00089 0.7312 0.53829 0.0
H129 H 0.94366 0.76796 0.50375 0.0
H130 H 0.99105 0.75248 0.42844 0.0
O131 O 0.98578 0.79073 0.511 0.0
H132 H 0.9225 0.76046 0.44575 0.0
H133 H 0.96986 0.74487 0.37013 0.0
C134 C 0.97395 0.76061 0.56219 0.0
C135 C 0.97352 0.77331 0.59538 0.0
C136 C 0.96383 0.76887 0.63204 0.0
C137 C 0.95456 0.75154 0.6363 0.0
C138 C 0.95586 0.73848 0.60363 0.0
C139 C 0.96544 0.74301 0.56685 0.0
C140 C 0.00724 0.75763 0.50757 0.0
C141 C 0.02102 0.76794 0.48651 0.0
C142 C 0.03894 0.76053 0.4816 0.0
C143 C 0.04337 0.74259 0.49746 0.0
C144 C 0.0294 0.73215 0.51795 0.0
C145 C 0.01142 0.73958 0.52269 0.0
C146 C 0.96888 0.76039 0.47076 0.0
C147 C 0.94949 0.76262 0.47498 0.0
C148 C 0.9374 0.75827 0.44183 0.0
C149 C 0.94452 0.75187 0.40355 0.0
C150 C 0.964 0.74975 0.3993 0.0
C151 C 0.9761 0.754 0.43268 0.0
P152 P 0.82894 0.46692 0.99727 0.0
H153 H 0.83897 0.46214 0.90942 0.0
H154 H 0.82315 0.44683 0.85037 0.0
H155 H 0.77737 0.43158 0.93175 0.0
H156 H 0.79331 0.44663 0.99043 0.0
H157 H 0.84985 0.50021 0.02246 0.0
H158 H 0.84224 0.53366 0.0207 0.0
H159 H 0.78811 0.52088 0.96597 0.0
H160 H 0.79598 0.48762 0.96706 0.0
H161 H 0.83809 0.43212 0.0411 0.0
H162 H 0.80192 0.47965 0.06028 0.0
O163 O 0.85205 0.46389 0.99365 0.0
H164 H 0.82543 0.41693 0.10389 0.0
H165 H 0.78953 0.46479 0.12342 0.0
C166 C 0.81756 0.45507 0.95447 0.0
C167 C 0.82562 0.45533 0.91453 0.0
C168 C 0.81648 0.44674 0.88077 0.0
C169 C 0.79907 0.43786 0.88648 0.0
C170 C 0.79093 0.43796 0.92652 0.0
C171 C 0.80006 0.44656 0.96014 0.0
C172 C 0.82366 0.49152 0.99403 0.0
C173 C 0.83645 0.50467 0.00962 0.0
C174 C 0.83201 0.52376 0.00893 0.0
C175 C 0.8146 0.52994 0.99297 0.0
C176 C 0.80178 0.51663 0.97766 0.0
C177 C 0.80626 0.49758 0.97832 0.0
C178 C 0.82117 0.4571 0.04636 0.0
C179 C 0.82771 0.43944 0.05933 0.0
C180 C 0.82049 0.43081 0.09528 0.0
C181 C 0.80649 0.43967 0.11874 0.0
C182 C 0.80017 0.45752 0.10587 0.0
C183 C 0.80739 0.46611 0.06989 0.0
P184 P 0.02042 0.31512 0.50123 0.0
H185 H 0.04431 0.32866 0.43309 0.0
H186 H 0.05874 0.31306 0.37393 0.0
H187 H 0.03167 0.26115 0.40997 0.0
H188 H 0.01802 0.27679 0.47042 0.0
H189 H 0.99364 0.32763 0.56297 0.0
H190 H 0.95946 0.32554 0.56732 0.0
H191 H 0.95759 0.29957 0.44539 0.0
H192 H 0.99162 0.30175 0.44114 0.0
H193 H 0.0569 0.31727 0.54206 0.0
H194 H 0.00561 0.28624 0.55873 0.0
O195 O 0.02707 0.33754 0.50211 0.0
H196 H 0.07088 0.3008 0.60216 0.0
H197 H 0.01909 0.27037 0.62013 0.0
C198 C 0.02997 0.3039 0.45586 0.0
C199 C 0.0414 0.31395 0.42815 0.0
C200 C 0.04955 0.305 0.39406 0.0
C201 C 0.04631 0.28582 0.38686 0.0
C202 C 0.03468 0.27585 0.41472 0.0
C203 C 0.02673 0.28479 0.44911 0.0
C204 C 0.99521 0.31451 0.50218 0.0
C205 C 0.98583 0.32157 0.5371 0.0
C206 C 0.96632 0.32046 0.53946 0.0
C207 C 0.95588 0.31225 0.50683 0.0
C208 C 0.96531 0.30567 0.47133 0.0
C209 C 0.98481 0.3069 0.46891 0.0
C210 C 0.03009 0.30337 0.5467 0.0
C211 C 0.04855 0.30713 0.55917 0.0
C212 C 0.05648 0.29775 0.59369 0.0
C213 C 0.04604 0.2844 0.61647 0.0
C214 C 0.02759 0.28046 0.60329 0.0
C215 C 0.01975 0.28973 0.56844 0.0
P216 P 0.7612 0.98503 0.49052 0.0
H217 H 0.77949 0.97959 0.40999 0.0
H218 H 0.772 0.96014 0.34963 0.0
H219 H 0.72121 0.94164 0.41027 0.0
H220 H 0.72901 0.96098 0.47103 0.0
H221 H 0.75836 0.01294 0.55543 0.0
H222 H 0.74261 0.04322 0.55848 0.0
H223 H 0.71811 0.03366 0.43583 0.0
H224 H 0.73437 0.00359 0.43257 0.0
H225 H 0.78728 0.96169 0.53876 0.0
H226 H 0.72885 0.97689 0.5437 0.0
O227 O 0.78362 0.99149 0.48719 0.0
H228 H 0.78356 0.94179 0.60102 0.0
H229 H 0.72501 0.95692 0.60613 0.0
C230 C 0.75501 0.9714 0.44531 0.0
C231 C 0.76674 0.97137 0.41033 0.0
C232 C 0.76233 0.96037 0.37562 0.0
C233 C 0.74602 0.94929 0.37519 0.0
C234 C 0.734 0.94981 0.40991 0.0
C235 C 0.73844 0.96085 0.44464 0.0
C236 C 0.74744 0.006 0.49398 0.0
C237 C 0.74936 0.01725 0.52949 0.0
C238 C 0.74023 0.0345 0.53129 0.0
C239 C 0.72903 0.04083 0.49744 0.0
C240 C 0.72675 0.02924 0.46227 0.0
C241 C 0.73596 0.01198 0.46049 0.0
C242 C 0.75841 0.97095 0.53711 0.0
C243 C 0.77369 0.96089 0.55353 0.0
C244 C 0.77157 0.94958 0.58917 0.0
C245 C 0.75403 0.94795 0.60862 0.0
C246 C 0.73867 0.9579 0.59174 0.0
C247 C 0.74086 0.96935 0.55624 0.0
P248 P 0.49913 0.27031 0.99812 0.0
H249 H 0.49677 0.29319 0.9217 0.0
H250 H 0.5138 0.29223 0.85553 0.0
H251 H 0.54109 0.24102 0.8963 0.0
H252 H 0.52375 0.24193 0.96215 0.0
H253 H 0.46677 0.2755 0.05089 0.0
H254 H 0.43653 0.25975 0.05525 0.0
H255 H 0.45385 0.22081 0.96001 0.0
H256 H 0.48413 0.23689 0.95548 0.0
H257 H 0.53844 0.27912 0.00891 0.0
H258 H 0.4967 0.24699 0.07526 0.0
O259 O 0.49452 0.29297 0.00547 0.0
H260 H 0.56124 0.27231 0.06445 0.0
H261 H 0.51956 0.24001 0.13106 0.0
C262 C 0.50937 0.26788 0.9471 0.0
C263 C 0.50625 0.28164 0.91617 0.0
C264 C 0.51602 0.2811 0.87844 0.0
C265 C 0.529 0.26671 0.87098 0.0
C266 C 0.53116 0.25226 0.90102 0.0
C267 C 0.52136 0.25283 0.93879 0.0
C268 C 0.47749 0.2576 0.00229 0.0
C269 C 0.46408 0.26355 0.03101 0.0
C270 C 0.44687 0.2544 0.03377 0.0
C271 C 0.44278 0.23904 0.0079 0.0
C272 C 0.45652 0.23274 0.97997 0.0
C273 C 0.47382 0.2419 0.97738 0.0
C274 C 0.51597 0.26339 0.03767 0.0
C275 C 0.53429 0.27031 0.03512 0.0
C276 C 0.54733 0.26633 0.06683 0.0
C277 C 0.54224 0.2555 0.10203 0.0
C278 C 0.52386 0.24844 0.10438 0.0
C279 C 0.51081 0.25237 0.07239 0.0
P280 P 0.31565 0.01986 0.51059 0.0
H281 H 0.32051 0.01762 0.60141 0.0
H282 H 0.30474 0.03312 0.6597 0.0
H283 H 0.26803 0.06145 0.57101 0.0
H284 H 0.28388 0.04626 0.51331 0.0
H285 H 0.33782 0.9889 0.47908 0.0
H286 H 0.33336 0.9549 0.48025 0.0
H287 H 0.28098 0.9621 0.54517 0.0
H288 H 0.28567 0.99605 0.5443 0.0
H289 H 0.32901 0.05048 0.45746 0.0
H290 H 0.28397 0.0102 0.45563 0.0
O291 O 0.3385 0.02432 0.51607 0.0
H292 H 0.31645 0.0652 0.39362 0.0
H293 H 0.27101 0.02511 0.39228 0.0
C294 C 0.30354 0.03092 0.55304 0.0
C295 C 0.30906 0.02719 0.59465 0.0
C296 C 0.29997 0.03594 0.62788 0.0
C297 C 0.28523 0.04861 0.61992 0.0
C298 C 0.27954 0.05202 0.57814 0.0
C299 C 0.28859 0.04324 0.54503 0.0
C300 C 0.31229 0.99491 0.51239 0.0
C301 C 0.32546 0.98312 0.49384 0.0
C302 C 0.32282 0.96372 0.49425 0.0
C303 C 0.30686 0.95581 0.51301 0.0
C304 C 0.29357 0.96774 0.53116 0.0
C305 C 0.29622 0.98715 0.53062 0.0
C306 C 0.30762 0.02906 0.46079 0.0
C307 C 0.31656 0.04464 0.44295 0.0
C308 C 0.30924 0.05315 0.40668 0.0
C309 C 0.29267 0.04638 0.38791 0.0
C310 C 0.28393 0.03052 0.40556 0.0
C311 C 0.29131 0.02198 0.44182 0.0
P312 P 0.46886 0.83052 0.00118 0.0
H313 H 0.44053 0.84309 0.06031 0.0
H314 H 0.42562 0.82788 0.12046 0.0
H315 H 0.4592 0.77836 0.10099 0.0
H316 H 0.47427 0.79382 0.0413 0.0
H317 H 0.49464 0.82423 0.93148 0.0
H318 H 0.52793 0.81669 0.92923 0.0
H319 H 0.53127 0.82072 0.06447 0.0
H320 H 0.49776 0.82763 0.0665 0.0
H321 H 0.44146 0.84662 0.94186 0.0
H322 H 0.46985 0.79385 0.96144 0.0
O323 O 0.46592 0.8537 0.00299 0.0
H324 H 0.42521 0.83382 0.88053 0.0
H325 H 0.45351 0.78087 0.90045 0.0
C326 C 0.4587 0.81969 0.04684 0.0
C327 C 0.44483 0.82905 0.06931 0.0
C328 C 0.43624 0.82028 0.10351 0.0
C329 C 0.44127 0.80192 0.11558 0.0
C330 C 0.45524 0.79261 0.09295 0.0
C331 C 0.46379 0.8014 0.0587 0.0
C332 C 0.4936 0.8258 0.9993 0.0
C333 C 0.50247 0.8233 0.9607 0.0
C334 C 0.5216 0.81921 0.95941 0.0
C335 C 0.53225 0.8179 0.99672 0.0
C336 C 0.5234 0.82118 0.03524 0.0
C337 C 0.50425 0.82519 0.03645 0.0
C338 C 0.45703 0.82125 0.95578 0.0
C339 C 0.44424 0.8323 0.93288 0.0
C340 C 0.43489 0.82493 0.89797 0.0
C341 C 0.43816 0.80637 0.88551 0.0
C342 C 0.45092 0.79531 0.90882 0.0
C343 C 0.46018 0.80267 0.94382 0.0
H344 H 0.14326 0.18509 0.13334 0.0
H345 H 0.11997 0.19774 0.18163 0.0
H346 H 0.12725 0.25278 0.12623 0.0
H347 H 0.15137 0.24032 0.08031 0.0
H348 H 0.12884 0.25652 0.20341 0.0
H349 H 0.08557 0.22395 0.11493 0.0
H350 H 0.07231 0.19712 0.07651 0.0
H351 H 0.0652 0.16695 0.19262 0.0
H352 H 0.07866 0.19351 0.23171 0.0
H353 H 0.05292 0.29974 0.30766 0.0
H354 H 0.0704 0.28489 0.25141 0.0
H355 H 0.0774 0.23514 0.32787 0.0
H356 H 0.06064 0.25009 0.38507 0.0
H357 H 0.06733 0.22872 0.23985 0.0
H358 H 0.11146 0.26334 0.32612 0.0
H359 H 0.1237 0.29158 0.36099 0.0
H360 H 0.12759 0.31982 0.24168 0.0
H361 H 0.11502 0.29187 0.20618 0.0
C362 C 0.13957 0.1998 0.13123 0.0
C363 C 0.14898 0.2118 0.1034 0.0
C364 C 0.1262 0.20703 0.15861 0.0
C365 C 0.12167 0.22625 0.15751 0.0
C366 C 0.13053 0.23796 0.12803 0.0
C367 C 0.14423 0.23085 0.10166 0.0
C368 C 0.10901 0.23457 0.1892 0.0
C369 C 0.11523 0.25058 0.2106 0.0
C370 C 0.0914 0.22666 0.19961 0.0
C371 C 0.08329 0.21066 0.17621 0.0
C372 C 0.08132 0.21154 0.13225 0.0
C373 C 0.07374 0.19639 0.11035 0.0
C374 C 0.06796 0.18032 0.1321 0.0
C375 C 0.06971 0.1794 0.17581 0.0
C376 C 0.07729 0.1945 0.19786 0.0
C377 C 0.05825 0.28568 0.31274 0.0
C378 C 0.0555 0.27622 0.35121 0.0
C379 C 0.06808 0.27717 0.28037 0.0
C380 C 0.07522 0.25898 0.28566 0.0
C381 C 0.07189 0.24917 0.32319 0.0
C382 C 0.06224 0.25774 0.3558 0.0
C383 C 0.08716 0.25065 0.25305 0.0
C384 C 0.08086 0.23464 0.23194 0.0
C385 C 0.10453 0.25876 0.24214 0.0
C386 C 0.11205 0.27559 0.26357 0.0
C387 C 0.11471 0.27564 0.30737 0.0
C388 C 0.12175 0.29159 0.32724 0.0
C389 C 0.12635 0.30751 0.30359 0.0
C390 C 0.12396 0.3075 0.25999 0.0
C391 C 0.11688 0.29161 0.23999 0.0
H392 H 0.13181 0.31983 0.31903 0.0
H393 H 0.0621 0.16861 0.11509 0.0
H394 H 0.25483 0.67009 0.62492 0.0
H395 H 0.2489 0.64403 0.67317 0.0
H396 H 0.29989 0.61721 0.63388 0.0
H397 H 0.30578 0.64304 0.58479 0.0
H398 H 0.27254 0.59183 0.64471 0.0
H399 H 0.2985 0.64306 0.72383 0.0
H400 H 0.30015 0.67558 0.74915 0.0
H401 H 0.24558 0.66983 0.80349 0.0
H402 H 0.24351 0.63733 0.77798 0.0
H403 H 0.29535 0.53569 0.82324 0.0
H404 H 0.2938 0.55821 0.76497 0.0
H405 H 0.24126 0.57919 0.81115 0.0
H406 H 0.24289 0.55684 0.87003 0.0
H407 H 0.26618 0.60714 0.79554 0.0
H408 H 0.24196 0.55431 0.72202 0.0
H409 H 0.24118 0.52165 0.6975 0.0
H410 H 0.29326 0.53006 0.63358 0.0
H411 H 0.2945 0.56271 0.65822 0.0
C412 C 0.26475 0.65861 0.62627 0.0
C413 C 0.28091 0.65879 0.60127 0.0
C414 C 0.26134 0.64372 0.65395 0.0
C415 C 0.27412 0.62883 0.65767 0.0
C416 C 0.28986 0.62858 0.6316 0.0
C417 C 0.29323 0.6434 0.60364 0.0
C418 C 0.27158 0.61398 0.69009 0.0
C419 C 0.2713 0.59515 0.67773 0.0
C420 C 0.26951 0.61834 0.73308 0.0
C421 C 0.27077 0.63784 0.7486 0.0
C422 C 0.2868 0.64878 0.74091 0.0
C423 C 0.28782 0.6672 0.75533 0.0
C424 C 0.27295 0.67478 0.7778 0.0
C425 C 0.25707 0.66394 0.78601 0.0
C426 C 0.25597 0.64552 0.7716 0.0
C427 C 0.28341 0.54503 0.82082 0.0
C428 C 0.26928 0.54457 0.85127 0.0
C429 C 0.28245 0.55777 0.78732 0.0
C430 C 0.26734 0.57029 0.78357 0.0
C431 C 0.253 0.5696 0.8134 0.0
C432 C 0.25389 0.55676 0.84684 0.0
C433 C 0.2673 0.58496 0.75025 0.0
C434 C 0.26717 0.60379 0.76247 0.0
C435 C 0.2691 0.58056 0.70724 0.0
C436 C 0.2684 0.56093 0.69227 0.0
C437 C 0.25333 0.54916 0.70302 0.0
C438 C 0.25279 0.53065 0.68904 0.0
C439 C 0.26718 0.52377 0.66407 0.0
C440 C 0.28213 0.5354 0.65295 0.0
C441 C 0.28275 0.55392 0.66687 0.0
H442 H 0.26674 0.50944 0.65327 0.0
H443 H 0.27377 0.68905 0.78895 0.0
H444 H 0.84173 0.77578 0.08045 0.0
H445 H 0.86594 0.76856 0.13284 0.0
H446 H 0.82536 0.73893 0.2079 0.0
H447 H 0.80098 0.74611 0.15578 0.0
H448 H 0.84556 0.7643 0.25334 0.0
H449 H 0.85799 0.7145 0.15894 0.0
H450 H 0.86388 0.70023 0.09031 0.0
H451 H 0.91427 0.73262 0.07772 0.0
H452 H 0.90855 0.7473 0.14625 0.0
H453 H 0.91107 0.73329 0.4046 0.0
H454 H 0.8879 0.73131 0.3477 0.0
H455 H 0.92544 0.76098 0.26502 0.0
H456 H 0.9487 0.76295 0.32179 0.0
H457 H 0.90618 0.73319 0.2239 0.0
H458 H 0.89232 0.78457 0.31578 0.0
H459 H 0.88616 0.79916 0.38413 0.0
H460 H 0.83796 0.76388 0.40052 0.0
H461 H 0.84402 0.74887 0.3325 0.0
C462 C 0.83794 0.76761 0.10793 0.0
C463 C 0.81937 0.76161 0.11397 0.0
C464 C 0.85184 0.7634 0.13772 0.0
C465 C 0.84744 0.75312 0.17409 0.0
C466 C 0.82901 0.74686 0.17997 0.0
C467 C 0.81512 0.75096 0.15008 0.0
C468 C 0.86186 0.7499 0.20711 0.0
C469 C 0.85866 0.75717 0.24713 0.0
C470 C 0.87911 0.74101 0.19862 0.0
C471 C 0.88274 0.73213 0.15757 0.0
C472 C 0.87026 0.7187 0.14141 0.0
C473 C 0.87358 0.7105 0.10253 0.0
C474 C 0.88941 0.71554 0.07954 0.0
C475 C 0.902 0.72874 0.09552 0.0
C476 C 0.89874 0.73699 0.13444 0.0
C477 C 0.91444 0.73923 0.37417 0.0
C478 C 0.93159 0.74847 0.36775 0.0
C479 C 0.90123 0.73806 0.3417 0.0
C480 C 0.90486 0.74628 0.3024 0.0
C481 C 0.92238 0.75456 0.29516 0.0
C482 C 0.93565 0.75566 0.32759 0.0
C483 C 0.88986 0.74761 0.27005 0.0
C484 C 0.89298 0.7401 0.23016 0.0
C485 C 0.8725 0.75633 0.27857 0.0
C486 C 0.86874 0.76546 0.31928 0.0
C487 C 0.88049 0.77983 0.33411 0.0
C488 C 0.87701 0.78819 0.37277 0.0
C489 C 0.86171 0.78242 0.39671 0.0
C490 C 0.84983 0.76831 0.38197 0.0
C491 C 0.85327 0.75988 0.34337 0.0
H492 H 0.85903 0.78891 0.42663 0.0
H493 H 0.89194 0.70918 0.0494 0.0
H494 H 0.72377 0.35733 0.55722 0.0
H495 H 0.73596 0.38145 0.60488 0.0
H496 H 0.73539 0.34148 0.70737 0.0
H497 H 0.72351 0.31741 0.66027 0.0
H498 H 0.7203 0.37692 0.72733 0.0
H499 H 0.77466 0.34944 0.66038 0.0
H500 H 0.79448 0.34121 0.60026 0.0
H501 H 0.79833 0.39932 0.56499 0.0
H502 H 0.77827 0.40787 0.62453 0.0
H503 H 0.78144 0.40395 0.8879 0.0
H504 H 0.76528 0.38832 0.83025 0.0
H505 H 0.77888 0.43436 0.7471 0.0
H506 H 0.79514 0.45017 0.80495 0.0
H507 H 0.78496 0.40124 0.71013 0.0
H508 H 0.7345 0.42936 0.7822 0.0
H509 H 0.71528 0.43805 0.84289 0.0
H510 H 0.70359 0.37997 0.86776 0.0
H511 H 0.72298 0.3709 0.8076 0.0
C512 C 0.72611 0.35378 0.59 0.0
C513 C 0.72279 0.33547 0.605 0.0
C514 C 0.73312 0.36751 0.61706 0.0
C515 C 0.73661 0.36317 0.65951 0.0
C516 C 0.73276 0.34509 0.67471 0.0
C517 C 0.72607 0.33134 0.64769 0.0
C518 C 0.74478 0.37711 0.68842 0.0
C519 C 0.73444 0.38225 0.72369 0.0
C520 C 0.763 0.38448 0.68277 0.0
C521 C 0.77476 0.37927 0.64657 0.0
C522 C 0.77953 0.36044 0.6395 0.0
C523 C 0.79085 0.35572 0.6056 0.0
C524 C 0.79763 0.36974 0.57881 0.0
C525 C 0.79305 0.38849 0.58575 0.0
C526 C 0.7817 0.39327 0.61954 0.0
C527 C 0.78083 0.41087 0.85749 0.0
C528 C 0.78945 0.42836 0.85107 0.0
C529 C 0.77158 0.40191 0.82454 0.0
C530 C 0.77059 0.41033 0.78454 0.0
C531 C 0.77941 0.42766 0.77777 0.0
C532 C 0.78874 0.43663 0.81079 0.0
C533 C 0.76068 0.40063 0.74985 0.0
C534 C 0.77067 0.39629 0.71346 0.0
C535 C 0.74207 0.39408 0.75432 0.0
C536 C 0.73031 0.39945 0.79049 0.0
C537 C 0.72794 0.41843 0.80078 0.0
C538 C 0.717 0.42342 0.83507 0.0
C539 C 0.70824 0.40957 0.85921 0.0
C540 C 0.71038 0.39069 0.84904 0.0
C541 C 0.72133 0.38561 0.81481 0.0
H542 H 0.69977 0.41346 0.88574 0.0
H543 H 0.80652 0.3661 0.55281 0.0
H544 H 0.68568 0.26635 0.34307 0.0
H545 H 0.66129 0.25843 0.29192 0.0
H546 H 0.61885 0.27708 0.37741 0.0
H547 H 0.64321 0.2853 0.42884 0.0
H548 H 0.61063 0.24194 0.33473 0.0
H549 H 0.62797 0.30556 0.30666 0.0
H550 H 0.64935 0.33204 0.29325 0.0
H551 H 0.6695 0.30502 0.18262 0.0
H552 H 0.64841 0.27819 0.19575 0.0
H553 H 0.53582 0.25823 0.18629 0.0
H554 H 0.55916 0.2582 0.24303 0.0
H555 H 0.60272 0.24697 0.15374 0.0
H556 H 0.57945 0.24685 0.0969 0.0
H557 H 0.61034 0.27743 0.19991 0.0
H558 H 0.59052 0.21428 0.22674 0.0
H559 H 0.56795 0.18886 0.24073 0.0
H560 H 0.5512 0.21579 0.35433 0.0
H561 H 0.57349 0.24153 0.34073 0.0
C562 C 0.67117 0.26866 0.35121 0.0
C563 C 0.66639 0.27658 0.38992 0.0
C564 C 0.65727 0.26412 0.32193 0.0
C565 C 0.63833 0.26723 0.33096 0.0
C566 C 0.63342 0.27455 0.37002 0.0
C567 C 0.64735 0.27936 0.39917 0.0
C568 C 0.62383 0.26379 0.29851 0.0
C569 C 0.61038 0.24979 0.30537 0.0
C570 C 0.6238 0.27388 0.26011 0.0
C571 C 0.63677 0.28977 0.25246 0.0
C572 C 0.63713 0.30515 0.27976 0.0
C573 C 0.64915 0.32024 0.27215 0.0
C574 C 0.66078 0.3202 0.23714 0.0
C575 C 0.66048 0.30502 0.20974 0.0
C576 C 0.64849 0.28986 0.21725 0.0
C577 C 0.5503 0.25525 0.1789 0.0
C578 C 0.55584 0.25271 0.13708 0.0
C579 C 0.56362 0.25525 0.21137 0.0
C580 C 0.58267 0.2526 0.20258 0.0
C581 C 0.5881 0.24914 0.16114 0.0
C582 C 0.57481 0.24914 0.12872 0.0
C583 C 0.59712 0.25537 0.23565 0.0
C584 C 0.6106 0.26939 0.22902 0.0
C585 C 0.59702 0.24537 0.27428 0.0
C586 C 0.58356 0.22993 0.28248 0.0
C587 C 0.5819 0.21488 0.2545 0.0
C588 C 0.56919 0.20039 0.26241 0.0
C589 C 0.55811 0.20073 0.29833 0.0
C590 C 0.55977 0.21555 0.32648 0.0
C591 C 0.57246 0.23008 0.31871 0.0
H592 H 0.54828 0.1895 0.30441 0.0
H593 H 0.66993 0.33198 0.23116 0.0
H594 H 0.20605 0.12971 0.94077 0.0
H595 H 0.21762 0.10591 0.89216 0.0
H596 H 0.2318 0.14938 0.80294 0.0
H597 H 0.22054 0.17312 0.85103 0.0
H598 H 0.21188 0.11889 0.76788 0.0
H599 H 0.26524 0.13129 0.85959 0.0
H600 H 0.28122 0.13288 0.92846 0.0
H601 H 0.27082 0.07424 0.94929 0.0
H602 H 0.25454 0.07238 0.8807 0.0
H603 H 0.27577 0.08558 0.62254 0.0
H604 H 0.26008 0.10217 0.67875 0.0
H605 H 0.25837 0.05121 0.75271 0.0
H606 H 0.27419 0.03443 0.69625 0.0
H607 H 0.26844 0.08072 0.80025 0.0
H608 H 0.21888 0.06706 0.70486 0.0
H609 H 0.2027 0.0651 0.6363 0.0
H610 H 0.20476 0.12502 0.6231 0.0
H611 H 0.22122 0.12734 0.6913 0.0
C612 C 0.21159 0.13416 0.91075 0.0
C613 C 0.21244 0.15331 0.89982 0.0
C614 C 0.21823 0.12057 0.88313 0.0
C615 C 0.22556 0.12594 0.84406 0.0
C616 C 0.22615 0.14498 0.83293 0.0
C617 C 0.2198 0.15853 0.86059 0.0
C618 C 0.23286 0.11192 0.81445 0.0
C619 C 0.22427 0.11056 0.77483 0.0
C620 C 0.24863 0.10064 0.8242 0.0
C621 C 0.25846 0.10175 0.8653 0.0
C622 C 0.26621 0.11878 0.87903 0.0
C623 C 0.27535 0.11972 0.91797 0.0
C624 C 0.27698 0.10369 0.94331 0.0
C625 C 0.26951 0.08666 0.92968 0.0
C626 C 0.26033 0.08565 0.89077 0.0
C627 C 0.2719 0.07784 0.65057 0.0
C628 C 0.27603 0.05864 0.65476 0.0
C629 C 0.26295 0.08734 0.68272 0.0
C630 C 0.25774 0.07785 0.71962 0.0
C631 C 0.26219 0.05878 0.7244 0.0
C632 C 0.27125 0.04923 0.6922 0.0
C633 C 0.2478 0.08809 0.75305 0.0
C634 C 0.25584 0.08874 0.79343 0.0
C635 C 0.2314 0.09864 0.74412 0.0
C636 C 0.2214 0.09735 0.70312 0.0
C637 C 0.216 0.07981 0.68722 0.0
C638 C 0.20676 0.07864 0.64843 0.0
C639 C 0.20273 0.09493 0.62533 0.0
C640 C 0.2079 0.11242 0.64102 0.0
C641 C 0.21716 0.11367 0.67978 0.0
H642 H 0.19558 0.09399 0.5953 0.0
H643 H 0.28406 0.10444 0.97344 0.0
H644 H 0.36089 0.71257 0.42867 0.0
H645 H 0.38457 0.72415 0.37929 0.0
H646 H 0.34166 0.75406 0.30983 0.0
H647 H 0.31811 0.74271 0.3583 0.0
H648 H 0.36412 0.73329 0.25894 0.0
H649 H 0.37083 0.77694 0.37435 0.0
H650 H 0.37716 0.78524 0.44813 0.0
H651 H 0.43188 0.76049 0.44099 0.0
H652 H 0.42576 0.75182 0.36727 0.0
H653 H 0.4038 0.80217 0.13185 0.0
H654 H 0.38733 0.78571 0.18792 0.0
H655 H 0.43968 0.76282 0.23385 0.0
H656 H 0.45641 0.77971 0.17814 0.0
H657 H 0.41689 0.7751 0.29825 0.0
H658 H 0.41166 0.73515 0.17989 0.0
H659 H 0.40534 0.72697 0.10607 0.0
H660 H 0.34802 0.74412 0.11874 0.0
H661 H 0.35405 0.75267 0.19249 0.0
C662 C 0.35653 0.72167 0.40297 0.0
C663 C 0.33755 0.72664 0.39748 0.0
C664 C 0.37008 0.72828 0.37486 0.0
C665 C 0.36483 0.73992 0.34089 0.0
C666 C 0.34599 0.745 0.33568 0.0
C667 C 0.33253 0.73851 0.36364 0.0
C668 C 0.37867 0.74677 0.30991 0.0
C669 C 0.37563 0.74248 0.26751 0.0
C670 C 0.39405 0.75822 0.32132 0.0
C671 C 0.39775 0.76352 0.3655 0.0
C672 C 0.38415 0.77312 0.38863 0.0
C673 C 0.38771 0.77792 0.43041 0.0
C674 C 0.40488 0.77334 0.44928 0.0
C675 C 0.41856 0.764 0.42636 0.0
C676 C 0.41506 0.75914 0.38458 0.0
C677 C 0.41187 0.79384 0.15415 0.0
C678 C 0.43142 0.79224 0.15051 0.0
C679 C 0.40242 0.7843 0.18597 0.0
C680 C 0.41226 0.77285 0.2147 0.0
C681 C 0.43182 0.77151 0.21185 0.0
C682 C 0.44132 0.78105 0.17986 0.0
C683 C 0.40187 0.76216 0.24715 0.0
C684 C 0.40559 0.76565 0.28974 0.0
C685 C 0.38709 0.74991 0.236 0.0
C686 C 0.38335 0.74466 0.19169 0.0
C687 C 0.39773 0.7373 0.16687 0.0
C688 C 0.3942 0.73258 0.12504 0.0
C689 C 0.3763 0.73505 0.10771 0.0
C690 C 0.36188 0.74221 0.13221 0.0
C691 C 0.36534 0.74698 0.17405 0.0
H692 H 0.37359 0.73139 0.07531 0.0
H693 H 0.40761 0.77706 0.48163 0.0
H694 H 0.786 0.8407 0.91898 0.0
H695 H 0.7787 0.86593 0.86929 0.0
H696 H 0.73415 0.83265 0.81574 0.0
H697 H 0.74169 0.8071 0.86467 0.0
H698 H 0.75444 0.84693 0.75604 0.0
H699 H 0.72498 0.8716 0.8766 0.0
H700 H 0.7222 0.88082 0.95066 0.0
H701 H 0.76639 0.92106 0.93472 0.0
H702 H 0.76963 0.91189 0.86067 0.0
H703 H 0.72628 0.92234 0.62283 0.0
H704 H 0.72428 0.89971 0.68101 0.0
H705 H 0.77483 0.92251 0.73551 0.0
H706 H 0.77681 0.94529 0.67772 0.0
H707 H 0.74711 0.91365 0.7954 0.0
H708 H 0.77819 0.88543 0.67647 0.0
H709 H 0.78024 0.87588 0.60245 0.0
H710 H 0.73095 0.84193 0.61649 0.0
H711 H 0.72846 0.85151 0.69049 0.0
C712 C 0.77454 0.83878 0.8969 0.0
C713 C 0.76449 0.82183 0.8957 0.0
C714 C 0.77029 0.85329 0.86864 0.0
C715 C 0.75571 0.85128 0.8391 0.0
C716 C 0.74545 0.83451 0.83828 0.0
C717 C 0.7498 0.81991 0.86627 0.0
C718 C 0.75203 0.86624 0.80739 0.0
C719 C 0.75243 0.86145 0.76477 0.0
C720 C 0.74965 0.88524 0.81867 0.0
C721 C 0.74764 0.89095 0.86311 0.0
C722 C 0.7342 0.88233 0.88893 0.0
C723 C 0.73252 0.88756 0.93092 0.0
C724 C 0.74414 0.90149 0.94741 0.0
C725 C 0.75741 0.91026 0.9219 0.0
C726 C 0.75915 0.90507 0.8799 0.0
C727 C 0.73676 0.92274 0.64764 0.0
C728 C 0.75179 0.93545 0.64563 0.0
C729 C 0.73564 0.90978 0.68071 0.0
C730 C 0.7495 0.90938 0.71228 0.0
C731 C 0.76401 0.92262 0.7114 0.0
C732 C 0.76521 0.93549 0.67823 0.0
C733 C 0.74977 0.89427 0.74444 0.0
C734 C 0.7488 0.89906 0.78697 0.0
C735 C 0.75142 0.87523 0.73318 0.0
C736 C 0.75302 0.86935 0.68883 0.0
C737 C 0.76771 0.87605 0.66367 0.0
C738 C 0.76897 0.87061 0.62174 0.0
C739 C 0.75571 0.85835 0.60474 0.0
C740 C 0.74119 0.85146 0.62968 0.0
C741 C 0.73986 0.85688 0.67161 0.0
H742 H 0.7567 0.85416 0.57227 0.0
H743 H 0.74283 0.90551 0.97993 0.0
H744 H 0.81159 0.7421 0.86751 0.0
H745 H 0.83909 0.7353 0.82522 0.0
H746 H 0.87288 0.77063 0.90489 0.0
H747 H 0.8455 0.77768 0.94704 0.0
H748 H 0.87715 0.78002 0.8252 0.0
H749 H 0.88147 0.72314 0.90432 0.0
H750 H 0.87061 0.69378 0.93741 0.0
H751 H 0.85395 0.67277 0.81682 0.0
H752 H 0.86495 0.70199 0.78289 0.0
H753 H 0.96102 0.76083 0.71864 0.0
H754 H 0.93875 0.75915 0.77645 0.0
H755 H 0.89851 0.73202 0.69558 0.0
H756 H 0.92037 0.73413 0.63728 0.0
H757 H 0.89963 0.71752 0.78063 0.0
H758 H 0.89502 0.7764 0.70343 0.0
H759 H 0.9079 0.80553 0.67294 0.0
H760 H 0.92621 0.823 0.79528 0.0
H761 H 0.91368 0.7938 0.82641 0.0
C762 C 0.8249 0.74825 0.8764 0.0
C763 C 0.82624 0.76062 0.91043 0.0
C764 C 0.84066 0.74424 0.85234 0.0
C765 C 0.85806 0.75241 0.862 0.0
C766 C 0.85958 0.7642 0.89683 0.0
C767 C 0.84387 0.76823 0.92087 0.0
C768 C 0.87419 0.75013 0.83349 0.0
C769 C 0.88229 0.76634 0.81617 0.0
C770 C 0.88069 0.73231 0.82107 0.0
C771 C 0.87386 0.7148 0.84115 0.0
C772 C 0.87537 0.71231 0.88489 0.0
C773 C 0.86925 0.69567 0.90378 0.0
C774 C 0.86146 0.68146 0.87929 0.0
C775 C 0.85994 0.6838 0.83577 0.0
C776 C 0.86621 0.70036 0.81666 0.0
C777 C 0.94749 0.75439 0.71318 0.0
C778 C 0.94241 0.74784 0.67312 0.0
C779 C 0.93485 0.75331 0.74633 0.0
C780 C 0.91697 0.7456 0.74006 0.0
C781 C 0.91229 0.73794 0.70101 0.0
C782 C 0.92485 0.73913 0.66774 0.0
C783 C 0.90246 0.74739 0.77259 0.0
C784 C 0.89459 0.73115 0.79027 0.0
C785 C 0.89627 0.7652 0.78577 0.0
C786 C 0.90361 0.78284 0.76716 0.0
C787 C 0.90193 0.78639 0.72377 0.0
C788 C 0.90915 0.80291 0.70638 0.0
C789 C 0.91792 0.81608 0.73214 0.0
C790 C 0.91944 0.81277 0.77536 0.0
C791 C 0.91228 0.79624 0.79289 0.0
H792 H 0.9235 0.82887 0.71862 0.0
H793 H 0.85665 0.66862 0.89403 0.0
H794 H 0.70629 0.34925 0.38969 0.0
H795 H 0.72022 0.37222 0.34124 0.0
H796 H 0.77406 0.34547 0.35673 0.0
H797 H 0.76023 0.3223 0.40446 0.0
H798 H 0.77377 0.38701 0.35934 0.0
H799 H 0.75401 0.33439 0.27704 0.0
H800 H 0.73198 0.31065 0.25023 0.0
H801 H 0.69608 0.35416 0.20146 0.0
H802 H 0.71773 0.3782 0.22886 0.0
H803 H 0.82404 0.41874 0.18015 0.0
H804 H 0.80946 0.40091 0.2371 0.0
H805 H 0.75503 0.42098 0.19731 0.0
H806 H 0.76942 0.43831 0.13948 0.0
H807 H 0.7546 0.38412 0.20934 0.0
H808 H 0.77621 0.43701 0.28708 0.0
H809 H 0.79904 0.46029 0.31271 0.0
H810 H 0.83203 0.41632 0.36935 0.0
H811 H 0.80954 0.39274 0.34353 0.0
C812 C 0.72113 0.34843 0.38313 0.0
C813 C 0.73216 0.33395 0.40053 0.0
C814 C 0.72904 0.3615 0.35547 0.0
C815 C 0.74813 0.36045 0.34554 0.0
C816 C 0.75932 0.3465 0.36425 0.0
C817 C 0.75137 0.33324 0.3912 0.0
C818 C 0.75623 0.37324 0.31379 0.0
C819 C 0.76972 0.38636 0.32646 0.0
C820 C 0.75064 0.37248 0.27117 0.0
C821 C 0.73735 0.35809 0.25558 0.0
C822 C 0.74128 0.33891 0.2612 0.0
C823 C 0.72889 0.32539 0.24578 0.0
C824 C 0.71261 0.33089 0.22427 0.0
C825 C 0.70867 0.34992 0.21825 0.0
C826 C 0.72098 0.3635 0.23376 0.0
C827 C 0.80896 0.41936 0.18355 0.0
C828 C 0.79789 0.42993 0.15524 0.0
C829 C 0.80067 0.40933 0.21639 0.0
C830 C 0.78116 0.40976 0.22172 0.0
C831 C 0.77011 0.42052 0.19389 0.0
C832 C 0.77838 0.43053 0.16105 0.0
C833 C 0.77218 0.3981 0.25469 0.0
C834 C 0.75854 0.38505 0.24225 0.0
C835 C 0.77768 0.39894 0.29748 0.0
C836 C 0.79128 0.41308 0.31297 0.0
C837 C 0.78842 0.43228 0.30466 0.0
C838 C 0.80128 0.44554 0.3193 0.0
C839 C 0.817 0.43978 0.34254 0.0
C840 C 0.81986 0.42076 0.35128 0.0
C841 C 0.80705 0.40744 0.33668 0.0
H842 H 0.82694 0.45007 0.35386 0.0
H843 H 0.70313 0.32039 0.21209 0.0
H844 H 0.13252 0.18577 0.90914 0.0
H845 H 0.10712 0.1964 0.86181 0.0
H846 H 0.13379 0.25043 0.85008 0.0
H847 H 0.1591 0.23996 0.89655 0.0
H848 H 0.09439 0.25222 0.86123 0.0
H849 H 0.14111 0.21963 0.77741 0.0
H850 H 0.15988 0.19194 0.75888 0.0
H851 H 0.10951 0.16016 0.73898 0.0
H852 H 0.09045 0.18763 0.75798 0.0
H853 H 0.06958 0.29906 0.6761 0.0
H854 H 0.0846 0.28288 0.73495 0.0
H855 H 0.05589 0.23177 0.70206 0.0
H856 H 0.04168 0.24762 0.64125 0.0
H857 H 0.09051 0.22409 0.71955 0.0
H858 H 0.04348 0.25797 0.79024 0.0
H859 H 0.02415 0.2852 0.80913 0.0
H860 H 0.07304 0.3136 0.85573 0.0
H861 H 0.09272 0.28665 0.83657 0.0
C862 C 0.13281 0.19996 0.89676 0.0
C863 C 0.14787 0.21198 0.90619 0.0
C864 C 0.11835 0.20598 0.86975 0.0
C865 C 0.11867 0.22417 0.85243 0.0
C866 C 0.13329 0.23637 0.8632 0.0
C867 C 0.14781 0.2303 0.88953 0.0
C868 C 0.10451 0.23044 0.82109 0.0
C869 C 0.09346 0.2461 0.83022 0.0
C870 C 0.10292 0.22202 0.78123 0.0
C871 C 0.11438 0.20558 0.76963 0.0
C872 C 0.13405 0.20669 0.76944 0.0
C873 C 0.14474 0.19105 0.75879 0.0
C874 C 0.1359 0.17428 0.74791 0.0
C875 C 0.11634 0.17314 0.74752 0.0
C876 C 0.10559 0.18874 0.75822 0.0
C877 C 0.06654 0.28434 0.68104 0.0
C878 C 0.05444 0.27466 0.6537 0.0
C879 C 0.07492 0.27516 0.71523 0.0
C880 C 0.07111 0.25617 0.72353 0.0
C881 C 0.05894 0.24646 0.69652 0.0
C882 C 0.05069 0.2556 0.66195 0.0
C883 C 0.0807 0.24636 0.75908 0.0
C884 C 0.09094 0.23002 0.75079 0.0
C885 C 0.08138 0.25405 0.79991 0.0
C886 C 0.06959 0.2703 0.81175 0.0
C887 C 0.05013 0.27006 0.80428 0.0
C888 C 0.03911 0.28545 0.81507 0.0
C889 C 0.04737 0.30113 0.83357 0.0
C890 C 0.06666 0.30144 0.8414 0.0
C891 C 0.07775 0.2861 0.83065 0.0
H892 H 0.03881 0.31303 0.84189 0.0
H893 H 0.14419 0.16219 0.73966 0.0
H894 H 0.26591 0.67668 0.35236 0.0
H895 H 0.25867 0.65014 0.30753 0.0
H896 H 0.28771 0.61307 0.39403 0.0
H897 H 0.29549 0.6397 0.43864 0.0
H898 H 0.29784 0.60581 0.31808 0.0
H899 H 0.23906 0.61314 0.38421 0.0
H900 H 0.21123 0.62986 0.40969 0.0
H901 H 0.19581 0.64461 0.28298 0.0
H902 H 0.22371 0.62821 0.25672 0.0
H903 H 0.26857 0.52529 0.20745 0.0
H904 H 0.26846 0.54791 0.26456 0.0
H905 H 0.25309 0.59188 0.17704 0.0
H906 H 0.25384 0.56957 0.11939 0.0
H907 H 0.2345 0.59312 0.25909 0.0
H908 H 0.29625 0.58805 0.19637 0.0
H909 H 0.32386 0.57027 0.17317 0.0
H910 H 0.33287 0.54974 0.29896 0.0
H911 H 0.30511 0.56717 0.32275 0.0
C912 C 0.27067 0.66288 0.36209 0.0
C913 C 0.28133 0.66035 0.39911 0.0
C914 C 0.2664 0.64767 0.3365 0.0
C915 C 0.27239 0.62954 0.34769 0.0
C916 C 0.28289 0.62692 0.38481 0.0
C917 C 0.28734 0.64217 0.41025 0.0
C918 C 0.26864 0.61356 0.31931 0.0
C919 C 0.28391 0.60283 0.30595 0.0
C920 C 0.2505 0.60977 0.30294 0.0
C921 C 0.23359 0.61955 0.31851 0.0
C922 C 0.22981 0.62006 0.36177 0.0
C923 C 0.21401 0.62947 0.37636 0.0
C924 C 0.20178 0.63833 0.34798 0.0
C925 C 0.2053 0.63775 0.30493 0.0
C926 C 0.2211 0.62837 0.29017 0.0
C927 C 0.2651 0.53975 0.20027 0.0
C928 C 0.26151 0.54564 0.15864 0.0
C929 C 0.26487 0.5526 0.23303 0.0
C930 C 0.26089 0.57154 0.22485 0.0
C931 C 0.2561 0.57728 0.18392 0.0
C932 C 0.25651 0.56447 0.15102 0.0
C933 C 0.26371 0.58568 0.25795 0.0
C934 C 0.24832 0.59604 0.27193 0.0
C935 C 0.28168 0.589 0.27542 0.0
C936 C 0.2985 0.57873 0.26123 0.0
C937 C 0.30403 0.57962 0.219 0.0
C938 C 0.31972 0.56963 0.20575 0.0
C939 C 0.33008 0.55884 0.23454 0.0
C940 C 0.32481 0.55807 0.27667 0.0
C941 C 0.30911 0.56801 0.29006 0.0
H942 H 0.34222 0.55111 0.22423 0.0
H943 H 0.18956 0.64561 0.35935 0.0
H944 H 0.31432 0.74366 0.64179 0.0
H945 H 0.33736 0.75882 0.6867 0.0
H946 H 0.38192 0.73011 0.62326 0.0
H947 H 0.35882 0.71459 0.57788 0.0
H948 H 0.38624 0.72934 0.7093 0.0
H949 H 0.37521 0.77546 0.60284 0.0
H950 H 0.35603 0.79535 0.55548 0.0
H951 H 0.33184 0.82258 0.66165 0.0
H952 H 0.35068 0.80267 0.70972 0.0
H953 H 0.45234 0.78458 0.82305 0.0
H954 H 0.43524 0.77045 0.76436 0.0
H955 H 0.38404 0.79592 0.80671 0.0
H956 H 0.40105 0.81014 0.86524 0.0
H957 H 0.38675 0.79859 0.72292 0.0
H958 H 0.39461 0.74975 0.8284 0.0
H959 H 0.41288 0.72921 0.87622 0.0
H960 H 0.44261 0.70686 0.77137 0.0
H961 H 0.42467 0.72747 0.72297 0.0
C962 C 0.329 0.74048 0.63719 0.0
C963 C 0.33469 0.7279 0.60601 0.0
C964 C 0.34217 0.74928 0.66284 0.0
C965 C 0.36135 0.74583 0.65785 0.0
C966 C 0.36716 0.73304 0.62738 0.0
C967 C 0.35394 0.72421 0.6015 0.0
C968 C 0.37513 0.75542 0.6853 0.0
C969 C 0.38668 0.7445 0.71166 0.0
C970 C 0.37543 0.77519 0.68874 0.0
C971 C 0.3643 0.78747 0.65993 0.0
C972 C 0.36573 0.78561 0.61612 0.0
C973 C 0.35492 0.7969 0.58913 0.0
C974 C 0.3427 0.8102 0.60554 0.0
C975 C 0.34131 0.81228 0.64898 0.0
C976 C 0.35208 0.80101 0.67612 0.0
C977 C 0.43743 0.78713 0.81986 0.0
C978 C 0.42801 0.79839 0.84889 0.0
C979 C 0.42769 0.77908 0.78628 0.0
C980 C 0.40832 0.78196 0.78141 0.0
C981 C 0.39899 0.79355 0.80978 0.0
C982 C 0.40873 0.80169 0.8432 0.0
C983 C 0.39756 0.77248 0.74764 0.0
C984 C 0.38656 0.78345 0.72007 0.0
C985 C 0.39775 0.75275 0.74309 0.0
C986 C 0.40846 0.7403 0.77214 0.0
C987 C 0.40514 0.74056 0.81559 0.0
C988 C 0.41542 0.72889 0.84279 0.0
C989 C 0.42894 0.71678 0.82686 0.0
C990 C 0.43216 0.71627 0.78367 0.0
C991 C 0.42194 0.72793 0.75635 0.0
H992 H 0.43688 0.70775 0.84796 0.0
H993 H 0.33432 0.81891 0.58459 0.0
H994 H 0.76638 0.84327 0.05562 0.0
H995 H 0.75797 0.8695 0.10034 0.0
H996 H 0.73821 0.83075 0.19495 0.0
H997 H 0.74603 0.80442 0.14976 0.0
H998 H 0.71646 0.86121 0.19198 0.0
H999 H 0.78288 0.84894 0.19916 0.0
H1000 H 0.81449 0.84452 0.1702 0.0
H1001 H 0.81303 0.90023 0.1179 0.0
H1002 H 0.78129 0.90488 0.14612 0.0
H1003 H 0.73351 0.91309 0.37867 0.0
H1004 H 0.73104 0.89093 0.32095 0.0
H1005 H 0.74793 0.93421 0.23363 0.0
H1006 H 0.75025 0.95654 0.29121 0.0
H1007 H 0.76938 0.90339 0.22805 0.0
H1008 H 0.70377 0.91659 0.22993 0.0
H1009 H 0.67262 0.92041 0.26154 0.0
H1010 H 0.6729 0.86257 0.30019 0.0
H1011 H 0.70419 0.85846 0.26933 0.0
C1012 C 0.76007 0.84033 0.08578 0.0
C1013 C 0.75715 0.82176 0.09948 0.0
C1014 C 0.75527 0.85533 0.11129 0.0
C1015 C 0.74786 0.85206 0.15137 0.0
C1016 C 0.74399 0.83359 0.1642 0.0
C1017 C 0.74853 0.81856 0.1384 0.0
C1018 C 0.74549 0.86774 0.18109 0.0
C1019 C 0.72804 0.87038 0.20012 0.0
C1020 C 0.76052 0.87991 0.1911 0.0
C1021 C 0.77965 0.87718 0.17435 0.0
C1022 C 0.78926 0.86019 0.18124 0.0
C1023 C 0.8072 0.85766 0.165 0.0
C1024 C 0.81574 0.87207 0.14212 0.0
C1025 C 0.80638 0.88907 0.13556 0.0
C1026 C 0.78842 0.89167 0.15169 0.0
C1027 C 0.73622 0.91804 0.34705 0.0
C1028 C 0.74222 0.93654 0.33955 0.0
C1029 C 0.7348 0.90534 0.31407 0.0
C1030 C 0.73924 0.91094 0.27298 0.0
C1031 C 0.74448 0.9296 0.26514 0.0
C1032 C 0.74589 0.94231 0.29808 0.0
C1033 C 0.74036 0.89688 0.23918 0.0
C1034 C 0.75767 0.89445 0.21951 0.0
C1035 C 0.72525 0.88485 0.22902 0.0
C1036 C 0.70641 0.88726 0.24758 0.0
C1037 C 0.69727 0.90472 0.24547 0.0
C1038 C 0.67957 0.90693 0.2632 0.0
C1039 C 0.67081 0.89175 0.28294 0.0
C1040 C 0.67971 0.87432 0.28491 0.0
C1041 C 0.69742 0.87204 0.26725 0.0
H1042 H 0.6571 0.89349 0.29664 0.0
H1043 H 0.82963 0.87008 0.12957 0.0
H1044 H 0.64015 0.2986 0.56082 0.0
H1045 H 0.61326 0.29386 0.60678 0.0
H1046 H 0.64463 0.25305 0.67929 0.0
H1047 H 0.67157 0.25764 0.63383 0.0
H1048 H 0.59155 0.26249 0.63267 0.0
H1049 H 0.63713 0.26332 0.7825 0.0
H1050 H 0.66795 0.27504 0.80637 0.0
H1051 H 0.66506 0.31962 0.71492 0.0
H1052 H 0.63412 0.30833 0.69097 0.0
H1053 H 0.53949 0.23816 0.81888 0.0
H1054 H 0.56238 0.23971 0.76195 0.0
H1055 H 0.56955 0.29892 0.78309 0.0
H1056 H 0.54705 0.29743 0.84019 0.0
H1057 H 0.60278 0.28041 0.78099 0.0
H1058 H 0.54607 0.28443 0.69841 0.0
H1059 H 0.51497 0.27401 0.67359 0.0
H1060 H 0.53894 0.22276 0.62928 0.0
H1061 H 0.57016 0.23276 0.65439 0.0
C1062 C 0.64129 0.28844 0.58622 0.0
C1063 C 0.65815 0.27871 0.59394 0.0
C1064 C 0.62585 0.28568 0.61228 0.0
C1065 C 0.62707 0.27326 0.6466 0.0
C1066 C 0.6435 0.26282 0.65313 0.0
C1067 C 0.6589 0.26551 0.62708 0.0
C1068 C 0.61183 0.27243 0.67773 0.0
C1069 C 0.59397 0.26633 0.66515 0.0
C1070 C 0.615 0.27768 0.71992 0.0
C1071 C 0.63341 0.28486 0.73468 0.0
C1072 C 0.64305 0.27567 0.76763 0.0
C1073 C 0.66053 0.28224 0.78116 0.0
C1074 C 0.66849 0.29803 0.76208 0.0
C1075 C 0.65892 0.30735 0.72957 0.0
C1076 C 0.64142 0.30087 0.71598 0.0
C1077 C 0.54588 0.25151 0.81116 0.0
C1078 C 0.54143 0.26768 0.83394 0.0
C1079 C 0.55884 0.2524 0.77852 0.0
C1080 C 0.5676 0.26945 0.7683 0.0
C1081 C 0.56292 0.28564 0.79047 0.0
C1082 C 0.54993 0.28479 0.82286 0.0
C1083 C 0.58243 0.27035 0.73614 0.0
C1084 C 0.60031 0.27645 0.7486 0.0
C1085 C 0.57917 0.26527 0.69386 0.0
C1086 C 0.56042 0.25926 0.67867 0.0
C1087 C 0.54468 0.27086 0.68371 0.0
C1088 C 0.52704 0.26505 0.66952 0.0
C1089 C 0.52497 0.24771 0.64997 0.0
C1090 C 0.54056 0.23617 0.64448 0.0
C1091 C 0.55823 0.24191 0.65866 0.0
H1092 H 0.51129 0.24324 0.639 0.0
H1093 H 0.68204 0.30307 0.77254 0.0
H1094 H 0.20437 0.1287 0.07265 0.0
H1095 H 0.21905 0.10462 0.11767 0.0
H1096 H 0.24128 0.14775 0.19803 0.0
H1097 H 0.22704 0.17169 0.15344 0.0
H1098 H 0.26768 0.12284 0.1797 0.0
H1099 H 0.20282 0.12101 0.2251 0.0
H1100 H 0.1688 0.11672 0.21453 0.0
H1101 H 0.17815 0.06069 0.17134 0.0
H1102 H 0.21226 0.06475 0.18118 0.0
H1103 H 0.28948 0.08418 0.37611 0.0
H1104 H 0.2753 0.10093 0.31683 0.0
H1105 H 0.26159 0.04837 0.25823 0.0
H1106 H 0.27602 0.03138 0.31761 0.0
H1107 H 0.2322 0.07323 0.25486 0.0
H1108 H 0.29689 0.07381 0.21971 0.0
H1109 H 0.33079 0.07818 0.23167 0.0
H1110 H 0.3219 0.13662 0.25555 0.0
H1111 H 0.28791 0.13255 0.24435 0.0
C1112 C 0.2123 0.13302 0.10005 0.0
C1113 C 0.21455 0.15216 0.10929 0.0
C1114 C 0.22067 0.11925 0.12575 0.0
C1115 C 0.23126 0.1244 0.16123 0.0
C1116 C 0.23329 0.14344 0.17066 0.0
C1117 C 0.22506 0.15714 0.14509 0.0
C1118 C 0.24057 0.11023 0.18876 0.0
C1119 C 0.2599 0.11204 0.19625 0.0
C1120 C 0.23056 0.09569 0.20918 0.0
C1121 C 0.21008 0.09326 0.20337 0.0
C1122 C 0.19762 0.10784 0.21302 0.0
C1123 C 0.17833 0.10544 0.20723 0.0
C1124 C 0.17132 0.08847 0.19214 0.0
C1125 C 0.1836 0.07384 0.18294 0.0
C1126 C 0.20291 0.07618 0.18863 0.0
C1127 C 0.28372 0.07614 0.35038 0.0
C1128 C 0.28409 0.05643 0.3514 0.0
C1129 C 0.27555 0.08574 0.31655 0.0
C1130 C 0.26763 0.0759 0.28282 0.0
C1131 C 0.26768 0.05623 0.28389 0.0
C1132 C 0.27589 0.04656 0.31785 0.0
C1133 C 0.25913 0.08638 0.24699 0.0
C1134 C 0.24003 0.08382 0.23777 0.0
C1135 C 0.26933 0.10028 0.22493 0.0
C1136 C 0.28982 0.10284 0.2314 0.0
C1137 C 0.30215 0.08757 0.22778 0.0
C1138 C 0.32139 0.09 0.23439 0.0
C1139 C 0.32849 0.10766 0.24442 0.0
C1140 C 0.31638 0.12295 0.24778 0.0
C1141 C 0.29712 0.12059 0.24124 0.0
H1142 H 0.34339 0.10951 0.24954 0.0
H1143 H 0.15638 0.08664 0.18768 0.0
H1144 H 0.21372 0.27195 0.06932 0.0
H1145 H 0.21274 0.30604 0.06919 0.0
H1146 H 0.19008 0.30607 0.94302 0.0
H1147 H 0.19171 0.27181 0.94238 0.0
H1148 H 0.21632 0.33018 0.94665 0.0
H1149 H 0.16334 0.31911 0.03078 0.0
H1150 H 0.14432 0.30509 0.08716 0.0
H1151 H 0.18077 0.32921 0.18006 0.0
H1152 H 0.20021 0.34313 0.12426 0.0
H1153 H 0.21397 0.43 0.96209 0.0
H1154 H 0.19963 0.39863 0.96037 0.0
H1155 H 0.23367 0.38169 0.0668 0.0
H1156 H 0.24822 0.41279 0.06803 0.0
H1157 H 0.19469 0.36794 0.0669 0.0
H1158 H 0.25031 0.3729 0.97785 0.0
H1159 H 0.26813 0.38728 0.9199 0.0
H1160 H 0.22326 0.37486 0.83373 0.0
H1161 H 0.20505 0.36066 0.89141 0.0
C1162 C 0.20835 0.27918 0.04165 0.0
C1163 C 0.20285 0.26916 0.00581 0.0
C1164 C 0.20764 0.29871 0.04175 0.0
C1165 C 0.20101 0.30869 0.00638 0.0
C1166 C 0.19519 0.2987 0.97075 0.0
C1167 C 0.19616 0.27913 0.9704 0.0
C1168 C 0.20168 0.32951 0.00563 0.0
C1169 C 0.2111 0.33843 0.97248 0.0
C1170 C 0.19499 0.34039 0.03937 0.0
C1171 C 0.18331 0.3321 0.07322 0.0
C1172 C 0.16739 0.32133 0.06322 0.0
C1173 C 0.15652 0.3134 0.09509 0.0
C1174 C 0.16134 0.31624 0.13717 0.0
C1175 C 0.17704 0.32703 0.14745 0.0
C1176 C 0.18798 0.33496 0.11569 0.0
C1177 C 0.21804 0.41964 0.98557 0.0
C1178 C 0.23222 0.42362 0.01502 0.0
C1179 C 0.20988 0.40181 0.98459 0.0
C1180 C 0.21564 0.38791 0.01345 0.0
C1181 C 0.22898 0.39228 0.04446 0.0
C1182 C 0.23734 0.40995 0.04498 0.0
C1183 C 0.20964 0.36822 0.0086 0.0
C1184 C 0.19934 0.35959 0.04069 0.0
C1185 C 0.21521 0.35761 0.97363 0.0
C1186 C 0.22624 0.36595 0.93897 0.0
C1187 C 0.24419 0.37339 0.94661 0.0
C1188 C 0.25436 0.38148 0.91381 0.0
C1189 C 0.24681 0.38204 0.87318 0.0
C1190 C 0.22908 0.37446 0.86524 0.0
C1191 C 0.21882 0.36639 0.89796 0.0
H1192 H 0.25471 0.38831 0.84782 0.0
H1193 H 0.1529 0.3101 0.1618 0.0
H1194 H 0.21619 0.70409 0.55655 0.0
H1195 H 0.18192 0.7046 0.5525 0.0
H1196 H 0.1845 0.72222 0.42278 0.0
H1197 H 0.21867 0.72166 0.42628 0.0
H1198 H 0.1624 0.74516 0.47235 0.0
H1199 H 0.16976 0.68012 0.44223 0.0
H1200 H 0.18154 0.64797 0.4537 0.0
H1201 H 0.15309 0.64494 0.57178 0.0
H1202 H 0.14135 0.6772 0.56128 0.0
H1203 H 0.06595 0.74413 0.42876 0.0
H1204 H 0.09896 0.73522 0.42489 0.0
H1205 H 0.09745 0.71538 0.5532 0.0
H1206 H 0.0644 0.72434 0.55738 0.0
H1207 H 0.11893 0.69247 0.50234 0.0
H1208 H 0.11313 0.758 0.53413 0.0
H1209 H 0.10166 0.79031 0.52325 0.0
H1210 H 0.12787 0.79254 0.4025 0.0
H1211 H 0.13925 0.76011 0.4124 0.0
C1212 C 0.20948 0.70787 0.52702 0.0
C1213 C 0.22018 0.71295 0.49183 0.0
C1214 C 0.18991 0.70806 0.52472 0.0
C1215 C 0.18075 0.71342 0.48732 0.0
C1216 C 0.19136 0.71804 0.4519 0.0
C1217 C 0.21089 0.71767 0.454 0.0
C1218 C 0.16016 0.71562 0.48602 0.0
C1219 C 0.15288 0.73358 0.4782 0.0
C1220 C 0.14785 0.70058 0.49475 0.0
C1221 C 0.15483 0.68115 0.50116 0.0
C1222 C 0.16616 0.67267 0.47083 0.0
C1223 C 0.1728 0.65441 0.47712 0.0
C1224 C 0.16811 0.64444 0.51351 0.0
C1225 C 0.15673 0.65269 0.54363 0.0
C1226 C 0.15006 0.67096 0.53751 0.0
C1227 C 0.07262 0.73778 0.45608 0.0
C1228 C 0.06267 0.73517 0.49356 0.0
C1229 C 0.09144 0.73262 0.45376 0.0
C1230 C 0.10068 0.72489 0.48896 0.0
C1231 C 0.09054 0.72132 0.5257 0.0
C1232 C 0.07168 0.72644 0.52802 0.0
C1233 C 0.12121 0.722 0.48844 0.0
C1234 C 0.12847 0.70399 0.49618 0.0
C1235 C 0.13359 0.73701 0.47973 0.0
C1236 C 0.12686 0.75656 0.47382 0.0
C1237 C 0.11632 0.76533 0.50511 0.0
C1238 C 0.10985 0.78367 0.49915 0.0
C1239 C 0.11399 0.79345 0.46216 0.0
C1240 C 0.12465 0.78493 0.4311 0.0
C1241 C 0.13111 0.76657 0.43688 0.0
H1242 H 0.10898 0.80765 0.4576 0.0
H1243 H 0.17327 0.6303 0.51833 0.0
H1244 H 0.77942 0.70299 0.06522 0.0
H1245 H 0.78657 0.66948 0.063 0.0
H1246 H 0.7664 0.66734 0.93508 0.0
H1247 H 0.75939 0.70092 0.93674 0.0
H1248 H 0.75467 0.63656 0.98756 0.0
H1249 H 0.80952 0.67016 0.94719 0.0
H1250 H 0.83409 0.69413 0.95468 0.0
H1251 H 0.85406 0.66713 0.06762 0.0
H1252 H 0.82904 0.64342 0.06181 0.0
H1253 H 0.79657 0.5501 0.93117 0.0
H1254 H 0.78741 0.58311 0.93243 0.0
H1255 H 0.81231 0.58853 0.05566 0.0
H1256 H 0.82135 0.55547 0.05489 0.0
H1257 H 0.82137 0.61783 0.00397 0.0
H1258 H 0.76559 0.58467 0.0448 0.0
H1259 H 0.74043 0.56121 0.03718 0.0
H1260 H 0.72272 0.58719 0.92124 0.0
H1261 H 0.74796 0.61066 0.92787 0.0
C1262 C 0.77628 0.69536 0.03677 0.0
C1263 C 0.76894 0.70462 0.00106 0.0
C1264 C 0.78043 0.67625 0.03555 0.0
C1265 C 0.77711 0.66605 0.99879 0.0
C1266 C 0.76904 0.67503 0.9637 0.0
C1267 C 0.76515 0.6942 0.96467 0.0
C1268 C 0.78299 0.64624 0.99633 0.0
C1269 C 0.76926 0.63243 0.99066 0.0
C1270 C 0.80202 0.64098 0.00091 0.0
C1271 C 0.81721 0.65514 0.00437 0.0
C1272 C 0.81897 0.66946 0.97396 0.0
C1273 C 0.833 0.68301 0.97789 0.0
C1274 C 0.84564 0.68217 0.01161 0.0
C1275 C 0.84423 0.66781 0.04157 0.0
C1276 C 0.83007 0.65434 0.03805 0.0
C1277 C 0.79999 0.55828 0.95867 0.0
C1278 C 0.80962 0.55014 0.99302 0.0
C1279 C 0.79477 0.57714 0.95929 0.0
C1280 C 0.79901 0.58819 0.99433 0.0
C1281 C 0.80893 0.58023 0.02831 0.0
C1282 C 0.81414 0.56136 0.02774 0.0
C1283 C 0.79303 0.60804 0.99565 0.0
C1284 C 0.80677 0.62191 0.00096 0.0
C1285 C 0.77401 0.61335 0.99058 0.0
C1286 C 0.75878 0.5993 0.98663 0.0
C1287 C 0.75643 0.58529 0.01751 0.0
C1288 C 0.74214 0.57201 0.0134 0.0
C1289 C 0.73002 0.57268 0.97869 0.0
C1290 C 0.73213 0.58667 0.94808 0.0
C1291 C 0.74642 0.59997 0.95201 0.0
H1292 H 0.71896 0.56239 0.97557 0.0
H1293 H 0.85656 0.69263 0.01441 0.0
H1294 H 0.77908 0.28396 0.58577 0.0
H1295 H 0.81245 0.29167 0.59035 0.0
H1296 H 0.81736 0.28497 0.4565 0.0
H1297 H 0.78414 0.27738 0.45139 0.0
H1298 H 0.84416 0.27248 0.56927 0.0
H1299 H 0.84647 0.31991 0.41927 0.0
H1300 H 0.82522 0.34064 0.37867 0.0
H1301 H 0.79197 0.34933 0.48837 0.0
H1302 H 0.8133 0.32909 0.52997 0.0
H1303 H 0.93511 0.28125 0.48877 0.0
H1304 H 0.90129 0.2771 0.49605 0.0
H1305 H 0.89634 0.33371 0.54099 0.0
H1306 H 0.93024 0.33805 0.53322 0.0
H1307 H 0.86895 0.325 0.48274 0.0
H1308 H 0.89395 0.29943 0.60995 0.0
H1309 H 0.91491 0.27989 0.6541 0.0
H1310 H 0.89268 0.23016 0.5974 0.0
H1311 H 0.87177 0.24942 0.55242 0.0
C1312 C 0.78728 0.28394 0.55733 0.0
C1313 C 0.77886 0.28012 0.51817 0.0
C1314 C 0.80634 0.28836 0.56005 0.0
C1315 C 0.81726 0.28916 0.52368 0.0
C1316 C 0.80908 0.28472 0.48484 0.0
C1317 C 0.79008 0.28028 0.48206 0.0
C1318 C 0.83718 0.29483 0.52596 0.0
C1319 C 0.84958 0.28399 0.55049 0.0
C1320 C 0.84412 0.31018 0.5022 0.0
C1321 C 0.83144 0.32281 0.47768 0.0
C1322 C 0.83472 0.32635 0.43485 0.0
C1323 C 0.82265 0.33803 0.41165 0.0
C1324 C 0.80726 0.34629 0.43094 0.0
C1325 C 0.80391 0.34292 0.47349 0.0
C1326 C 0.81599 0.33135 0.49689 0.0
C1327 C 0.9268 0.29287 0.49982 0.0
C1328 C 0.9353 0.30998 0.51042 0.0
C1329 C 0.90752 0.29044 0.5043 0.0
C1330 C 0.89637 0.30504 0.51946 0.0
C1331 C 0.90474 0.32226 0.52939 0.0
C1332 C 0.92408 0.32467 0.52518 0.0
C1333 C 0.87598 0.30219 0.5248 0.0
C1334 C 0.86349 0.31358 0.50175 0.0
C1335 C 0.86891 0.28756 0.55045 0.0
C1336 C 0.88139 0.27589 0.57758 0.0
C1337 C 0.89363 0.28433 0.60666 0.0
C1338 C 0.90549 0.2733 0.63188 0.0
C1339 C 0.90515 0.25379 0.6285 0.0
C1340 C 0.89293 0.24527 0.59996 0.0
C1341 C 0.88106 0.25624 0.57462 0.0
H1342 H 0.91434 0.24528 0.64806 0.0
H1343 H 0.79795 0.35534 0.41296 0.0
H1344 H 0.71773 0.21505 0.43815 0.0
H1345 H 0.71429 0.18105 0.43958 0.0
H1346 H 0.70604 0.18225 0.57354 0.0
H1347 H 0.70982 0.21627 0.57264 0.0
H1348 H 0.73059 0.15626 0.55406 0.0
H1349 H 0.66948 0.17314 0.5057 0.0
H1350 H 0.646 0.18936 0.4612 0.0
H1351 H 0.66672 0.16123 0.35251 0.0
H1352 H 0.69053 0.14503 0.39626 0.0
H1353 H 0.71283 0.05923 0.56296 0.0
H1354 H 0.70494 0.09256 0.56609 0.0
H1355 H 0.71954 0.0993 0.43574 0.0
H1356 H 0.72777 0.06614 0.43247 0.0
H1357 H 0.68832 0.12093 0.45873 0.0
H1358 H 0.75169 0.10758 0.50658 0.0
H1359 H 0.77524 0.09142 0.55105 0.0
H1360 H 0.74961 0.11342 0.6616 0.0
H1361 H 0.7257 0.12947 0.61774 0.0
C1362 C 0.71508 0.20813 0.46794 0.0
C1363 C 0.71412 0.21842 0.50531 0.0
C1364 C 0.71298 0.18868 0.46863 0.0
C1365 C 0.70966 0.17914 0.50659 0.0
C1366 C 0.70854 0.18935 0.54389 0.0
C1367 C 0.71073 0.20881 0.54328 0.0
C1368 C 0.7085 0.1584 0.5076 0.0
C1369 C 0.72104 0.14856 0.53387 0.0
C1370 C 0.69628 0.14836 0.48069 0.0
C1371 C 0.6819 0.15797 0.45425 0.0
C1372 C 0.66913 0.1705 0.47226 0.0
C1373 C 0.65574 0.17969 0.44717 0.0
C1374 C 0.6549 0.17636 0.40404 0.0
C1375 C 0.6674 0.1638 0.38593 0.0
C1376 C 0.68083 0.1546 0.41087 0.0
C1377 C 0.71417 0.06777 0.53484 0.0
C1378 C 0.72117 0.06009 0.49763 0.0
C1379 C 0.70955 0.08676 0.53663 0.0
C1380 C 0.71189 0.09837 0.50127 0.0
C1381 C 0.71761 0.09052 0.46332 0.0
C1382 C 0.72227 0.07155 0.46151 0.0
C1383 C 0.71047 0.11897 0.50491 0.0
C1384 C 0.69757 0.12873 0.47941 0.0
C1385 C 0.72231 0.129 0.53259 0.0
C1386 C 0.73679 0.11953 0.55893 0.0
C1387 C 0.75099 0.10884 0.54039 0.0
C1388 C 0.76441 0.09972 0.56547 0.0
C1389 C 0.76389 0.10135 0.60913 0.0
C1390 C 0.74997 0.11214 0.62778 0.0
C1391 C 0.73649 0.12126 0.60283 0.0
H1392 H 0.7743 0.09428 0.62851 0.0
H1393 H 0.64453 0.18349 0.38467 0.0
H1394 H 0.26886 0.20872 0.07378 0.0
H1395 H 0.303 0.20955 0.07435 0.0
H1396 H 0.30314 0.20997 0.93896 0.0
H1397 H 0.26887 0.20899 0.93788 0.0
H1398 H 0.3309 0.18689 0.97371 0.0
H1399 H 0.30838 0.24995 0.98784 0.0
H1400 H 0.28957 0.27518 0.01887 0.0
H1401 H 0.31713 0.26627 0.13786 0.0
H1402 H 0.33592 0.24077 0.10766 0.0
H1403 H 0.42107 0.22849 0.94097 0.0
H1404 H 0.38826 0.21863 0.94193 0.0
H1405 H 0.38867 0.22089 0.07724 0.0
H1406 H 0.42153 0.23059 0.07655 0.0
H1407 H 0.36065 0.24137 0.04344 0.0
H1408 H 0.38474 0.17933 0.02764 0.0
H1409 H 0.40352 0.15428 0.99589 0.0
H1410 H 0.37347 0.16141 0.87938 0.0
H1411 H 0.35467 0.18671 0.91025 0.0
C1412 C 0.27608 0.20886 0.04403 0.0
C1413 C 0.26606 0.20901 0.00575 0.0
C1414 C 0.29562 0.20933 0.04447 0.0
C1415 C 0.30555 0.21004 0.00671 0.0
C1416 C 0.2957 0.20945 0.96843 0.0
C1417 C 0.27611 0.20901 0.96792 0.0
C1418 C 0.32615 0.21246 0.00732 0.0
C1419 C 0.33746 0.19887 0.98854 0.0
C1420 C 0.33463 0.22794 0.0274 0.0
C1421 C 0.32341 0.24332 0.0456 0.0
C1422 C 0.31032 0.25326 0.02071 0.0
C1423 C 0.29968 0.26763 0.03813 0.0
C1424 C 0.30211 0.27229 0.08034 0.0
C1425 C 0.31523 0.26262 0.10518 0.0
C1426 C 0.32589 0.24822 0.08793 0.0
C1427 C 0.41432 0.2264 0.97097 0.0
C1428 C 0.42383 0.23047 0.00868 0.0
C1429 C 0.39556 0.22079 0.97147 0.0
C1430 C 0.38604 0.21904 0.00966 0.0
C1431 C 0.39575 0.22225 0.04742 0.0
C1432 C 0.41449 0.22785 0.04696 0.0
C1433 C 0.36554 0.21572 0.01007 0.0
C1434 C 0.35419 0.22926 0.02887 0.0
C1435 C 0.3571 0.20024 0.98988 0.0
C1436 C 0.36842 0.18506 0.97116 0.0
C1437 C 0.38225 0.17569 0.99513 0.0
C1438 C 0.39287 0.16141 0.97731 0.0
C1439 C 0.38973 0.15629 0.93561 0.0
C1440 C 0.37591 0.16541 0.91166 0.0
C1441 C 0.36525 0.17971 0.92932 0.0
H1442 H 0.39796 0.14523 0.92188 0.0
H1443 H 0.29387 0.28342 0.09377 0.0
H1444 H 0.27357 0.77903 0.56894 0.0
H1445 H 0.27822 0.81291 0.57251 0.0
H1446 H 0.29187 0.8145 0.44093 0.0
H1447 H 0.28731 0.78062 0.4369 0.0
H1448 H 0.31729 0.83397 0.49098 0.0
H1449 H 0.25033 0.82963 0.47078 0.0
H1450 H 0.21851 0.81853 0.48746 0.0
H1451 H 0.22273 0.84317 0.60965 0.0
H1452 H 0.2547 0.8542 0.5939 0.0
H1453 H 0.31269 0.93136 0.4489 0.0
H1454 H 0.30804 0.89743 0.44943 0.0
H1455 H 0.28986 0.89969 0.57809 0.0
H1456 H 0.2945 0.93369 0.57777 0.0
H1457 H 0.26715 0.87797 0.53297 0.0
H1458 H 0.33322 0.8831 0.55412 0.0
H1459 H 0.36541 0.89382 0.53989 0.0
H1460 H 0.36356 0.86736 0.41942 0.0
H1461 H 0.33124 0.85671 0.43268 0.0
C1462 C 0.27743 0.78657 0.54063 0.0
C1463 C 0.28 0.77707 0.50257 0.0
C1464 C 0.28006 0.80594 0.54277 0.0
C1465 C 0.2853 0.81618 0.50694 0.0
C1466 C 0.28782 0.80681 0.46892 0.0
C1467 C 0.2851 0.78746 0.46666 0.0
C1468 C 0.28845 0.83665 0.5092 0.0
C1469 C 0.30628 0.84365 0.49961 0.0
C1470 C 0.27423 0.84912 0.52188 0.0
C1471 C 0.25498 0.84257 0.53131 0.0
C1472 C 0.24454 0.83255 0.50134 0.0
C1473 C 0.22646 0.82629 0.5106 0.0
C1474 C 0.21862 0.8301 0.54963 0.0
C1475 C 0.22883 0.84021 0.57945 0.0
C1476 C 0.24692 0.84648 0.57036 0.0
C1477 C 0.30789 0.92461 0.47745 0.0
C1478 C 0.30403 0.93519 0.51335 0.0
C1479 C 0.30523 0.90522 0.47771 0.0
C1480 C 0.29882 0.896 0.51398 0.0
C1481 C 0.29482 0.90653 0.54977 0.0
C1482 C 0.29742 0.92595 0.5495 0.0
C1483 C 0.29596 0.87541 0.51418 0.0
C1484 C 0.2782 0.86834 0.52438 0.0
C1485 C 0.3103 0.86285 0.50238 0.0
C1486 C 0.32973 0.86927 0.49423 0.0
C1487 C 0.33961 0.87971 0.52444 0.0
C1488 C 0.3579 0.88575 0.51658 0.0
C1489 C 0.3665 0.88132 0.47873 0.0
C1490 C 0.35686 0.8708 0.4487 0.0
C1491 C 0.33856 0.86475 0.45639 0.0
H1492 H 0.38066 0.886 0.47271 0.0
H1493 H 0.20462 0.82524 0.55674 0.0
H1494 H 0.70664 0.781 0.92827 0.0
H1495 H 0.67335 0.78921 0.92648 0.0
H1496 H 0.66649 0.76478 0.04975 0.0
H1497 H 0.69982 0.75668 0.05213 0.0
H1498 H 0.63736 0.75577 0.98904 0.0
H1499 H 0.67077 0.80884 0.04632 0.0
H1500 H 0.69536 0.83313 0.04549 0.0
H1501 H 0.67278 0.85566 0.93016 0.0
H1502 H 0.6482 0.8313 0.93 0.0
H1503 H 0.5514 0.79452 0.05053 0.0
H1504 H 0.58428 0.78531 0.04761 0.0
H1505 H 0.59144 0.81946 0.93633 0.0
H1506 H 0.55873 0.82945 0.94015 0.0
H1507 H 0.62064 0.82333 0.98757 0.0
H1508 H 0.58678 0.77182 0.92992 0.0
H1509 H 0.56264 0.74712 0.92719 0.0
H1510 H 0.58615 0.72125 0.03803 0.0
H1511 H 0.61028 0.74596 0.04178 0.0
C1512 C 0.69801 0.77713 0.95477 0.0
C1513 C 0.70587 0.76825 0.99044 0.0
C1514 C 0.67903 0.78191 0.95374 0.0
C1515 C 0.66759 0.7777 0.98811 0.0
C1516 C 0.67517 0.76813 0.02298 0.0
C1517 C 0.6942 0.76359 0.02431 0.0
C1518 C 0.64789 0.78403 0.98853 0.0
C1519 C 0.63364 0.77052 0.98918 0.0
C1520 C 0.64319 0.80329 0.98751 0.0
C1521 C 0.65777 0.81813 0.98792 0.0
C1522 C 0.67113 0.81888 0.02061 0.0
C1523 C 0.68505 0.83268 0.02035 0.0
C1524 C 0.68566 0.8459 0.98772 0.0
C1525 C 0.6723 0.84539 0.95538 0.0
C1526 C 0.65836 0.8316 0.95546 0.0
C1527 C 0.56002 0.80031 0.02577 0.0
C1528 C 0.5524 0.81268 0.99549 0.0
C1529 C 0.57876 0.79484 0.02385 0.0
C1530 C 0.59023 0.80144 0.99132 0.0
C1531 C 0.58281 0.8141 0.96155 0.0
C1532 C 0.56406 0.81966 0.96357 0.0
C1533 C 0.60995 0.79506 0.98841 0.0
C1534 C 0.62425 0.80856 0.98727 0.0
C1535 C 0.6147 0.77577 0.98852 0.0
C1536 C 0.60023 0.76085 0.98635 0.0
C1537 C 0.58671 0.76095 0.95391 0.0
C1538 C 0.57305 0.74693 0.95214 0.0
C1539 C 0.57284 0.73265 0.98248 0.0
C1540 C 0.58632 0.73233 0.01459 0.0
C1541 C 0.60001 0.74634 0.01653 0.0
H1542 H 0.56225 0.7218 0.98105 0.0
H1543 H 0.69646 0.85656 0.98755 0.0
loop_
_geom_bond_atom_site_label_1
_geom_bond_atom_site_label_2
_geom_bond_distance
_geom_bond_site_symmetry_2
_ccdc_geom_bond_type
Sc0 O3 2.025 . S
Sc0 O10 2.105 . S
Sc0 O13 2.105 . S
Sc0 O16 2.105 . S
Sc0 O19 2.105 . S
Sc1 O3 2.025 . S
Sc1 O11 2.105 . S
Sc1 O15 2.105 1_554 S
Sc1 O17 2.105 . S
Sc1 O21 2.105 1_554 S
Sc2 O3 2.025 1_556 S
Sc2 O12 2.105 . S
Sc2 O14 2.105 . S
Sc2 O18 2.105 . S
Sc2 O20 2.105 . S
O3 Sc0 2.025 . S
O3 Sc1 2.025 . S
O3 Sc2 2.025 1_554 S
C4 O10 1.268 . S
C4 O20 1.268 1_554 S
C5 O11 1.268 . S
C5 O19 1.268 . S
C6 O12 1.268 . S
C6 O21 1.268 . S
C7 O13 1.268 . S
C7 O17 1.268 . S
C8 O14 1.268 1_554 S
C8 O16 1.268 . S
C9 O15 1.268 . S
C9 O18 1.268 . S
O10 Sc0 2.105 . S
O10 C4 1.268 . S
O11 Sc1 2.105 . S
O11 C5 1.268 . S
O12 Sc2 2.105 . S
O12 C6 1.268 . S
O13 Sc0 2.105 . S
O13 C7 1.268 . S
O14 Sc2 2.105 . S
O14 C8 1.268 1_556 S
O15 Sc1 2.105 1_556 S
O15 C9 1.268 . S
O16 Sc0 2.105 . S
O16 C8 1.268 . S
O17 Sc1 2.105 . S
O17 C7 1.268 . S
O18 Sc2 2.105 . S
O18 C9 1.268 . S
O19 Sc0 2.105 . S
O19 C5 1.268 . S
O20 Sc2 2.105 . S
O20 C4 1.268 1_556 S
O21 Sc1 2.105 1_556 S
O21 C6 1.268 . S
Sc22 O25 2.025 . S
Sc22 O32 2.105 . S
Sc22 O35 2.105 . S
Sc22 O38 2.105 . S
Sc22 O41 2.105 . S
Sc23 O25 2.025 . S
Sc23 O33 2.105 . S
Sc23 O37 2.105 . S
Sc23 O39 2.105 . S
Sc23 O43 2.105 . S
Sc24 O25 2.025 . S
Sc24 O34 2.105 . S
Sc24 O36 2.105 . S
Sc24 O40 2.105 . S
Sc24 O42 2.105 . S
O25 Sc22 2.025 . S
O25 Sc23 2.025 . S
O25 Sc24 2.025 . S
C26 O32 1.268 . S
C26 O42 1.268 . S
C27 O33 1.268 . S
C27 O41 1.268 . S
C28 O34 1.268 . S
C28 O43 1.268 . S
C29 O35 1.268 . S
C29 O39 1.268 . S
C30 O36 1.268 . S
C30 O38 1.268 . S
C31 O37 1.268 . S
C31 O40 1.268 . S
O32 Sc22 2.105 . S
O32 C26 1.268 . S
O33 Sc23 2.105 . S
O33 C27 1.268 . S
O34 Sc24 2.105 . S
O34 C28 1.268 . S
O35 Sc22 2.105 . S
O35 C29 1.268 . S
O36 Sc24 2.105 . S
O36 C30 1.268 . S
O37 Sc23 2.105 . S
O37 C31 1.268 . S
O38 Sc22 2.105 . S
O38 C30 1.268 . S
O39 Sc23 2.105 . S
O39 C29 1.268 . S
O40 Sc24 2.105 . S
O40 C31 1.268 . S
O41 Sc22 2.105 . S
O41 C27 1.268 . S
O42 Sc24 2.105 . S
O42 C26 1.268 . S
O43 Sc23 2.105 . S
O43 C28 1.268 . S
Sc44 O47 2.025 1_556 S
Sc44 O54 2.105 . S
Sc44 O57 2.105 . S
Sc44 O60 2.105 . S
Sc44 O63 2.105 . S
Sc45 O47 2.025 . S
Sc45 O55 2.105 1_554 S
Sc45 O59 2.105 . S
Sc45 O61 2.105 1_554 S
Sc45 O65 2.105 . S
Sc46 O47 2.025 . S
Sc46 O56 2.105 . S
Sc46 O58 2.105 . S
Sc46 O62 2.105 . S
Sc46 O64 2.105 . S
O47 Sc44 2.025 1_554 S
O47 Sc45 2.025 . S
O47 Sc46 2.025 . S
C48 O54 1.268 1_554 S
C48 O64 1.268 . S
C49 O55 1.268 . S
C49 O63 1.268 . S
C50 O56 1.268 . S
C50 O65 1.268 . S
C51 O57 1.268 . S
C51 O61 1.268 . S
C52 O58 1.268 . S
C52 O60 1.268 1_554 S
C53 O59 1.268 . S
C53 O62 1.268 . S
O54 Sc44 2.105 . S
O54 C48 1.268 1_556 S
O55 Sc45 2.105 1_556 S
O55 C49 1.268 . S
O56 Sc46 2.105 . S
O56 C50 1.268 . S
O57 Sc44 2.105 . S
O57 C51 1.268 . S
O58 Sc46 2.105 . S
O58 C52 1.268 . S
O59 Sc45 2.105 . S
O59 C53 1.268 . S
O60 Sc44 2.105 . S
O60 C52 1.268 1_556 S
O61 Sc45 2.105 1_556 S
O61 C51 1.268 . S
O62 Sc46 2.105 . S
O62 C53 1.268 . S
O63 Sc44 2.105 . S
O63 C49 1.268 . S
O64 Sc46 2.105 . S
O64 C48 1.268 . S
O65 Sc45 2.105 . S
O65 C50 1.268 . S
Sc66 O69 2.025 . S
Sc66 O76 2.105 . S
Sc66 O79 2.105 . S
Sc66 O82 2.105 . S
Sc66 O85 2.105 . S
Sc67 O69 2.025 . S
Sc67 O77 2.105 . S
Sc67 O81 2.105 . S
Sc67 O83 2.105 . S
Sc67 O87 2.105 . S
Sc68 O69 2.025 . S
Sc68 O78 2.105 . S
Sc68 O80 2.105 . S
Sc68 O84 2.105 . S
Sc68 O86 2.105 . S
O69 Sc66 2.025 . S
O69 Sc67 2.025 . S
O69 Sc68 2.025 . S
C70 O76 1.268 . S
C70 O86 1.268 . S
C71 O77 1.268 . S
C71 O85 1.268 . S
C72 O78 1.268 . S
C72 O87 1.268 . S
C73 O79 1.268 . S
C73 O83 1.268 . S
C74 O80 1.268 . S
C74 O82 1.268 . S
C75 O81 1.268 . S
C75 O84 1.268 . S
O76 Sc66 2.105 . S
O76 C70 1.268 . S
O77 Sc67 2.105 . S
O77 C71 1.268 . S
O78 Sc68 2.105 . S
O78 C72 1.268 . S
O79 Sc66 2.105 . S
O79 C73 1.268 . S
O80 Sc68 2.105 . S
O80 C74 1.268 . S
O81 Sc67 2.105 . S
O81 C75 1.268 . S
O82 Sc66 2.105 . S
O82 C74 1.268 . S
O83 Sc67 2.105 . S
O83 C73 1.268 . S
O84 Sc68 2.105 . S
O84 C75 1.268 . S
O85 Sc66 2.105 . S
O85 C71 1.268 . S
O86 Sc68 2.105 . S
O86 C70 1.268 . S
O87 Sc67 2.105 . S
O87 C72 1.268 . S
P88 O99 1.490 . S
P88 C102 1.812 . S
P88 C108 1.803 . S
P88 C114 1.819 1_554 S
H89 C103 0.941 . S
H90 C104 0.939 . S
H91 C106 0.940 . S
H92 C107 0.940 . S
H93 C109 0.939 . S
H94 C110 0.942 . S
H95 C112 0.940 . S
H96 C113 0.939 . S
H97 C115 0.941 . S
H98 C119 0.939 . S
O99 P88 1.490 . S
H100 C116 0.939 . S
H101 C118 0.940 . S
C102 P88 1.812 . S
C102 C103 1.389 . S
C102 C107 1.391 . S
C103 H89 0.941 . S
C103 C102 1.389 . S
C103 C104 1.397 . S
C104 H90 0.939 . S
C104 C103 1.397 . S
C104 C105 1.378 . S
C105 C104 1.378 . S
C105 C106 1.378 . S
C106 H91 0.940 . S
C106 C105 1.378 . S
C106 C107 1.396 . S
C107 H92 0.940 . S
C107 C102 1.391 . S
C107 C106 1.396 . S
C108 P88 1.803 . S
C108 C109 1.378 1_554 S
C108 C113 1.400 . S
C109 H93 0.939 . S
C109 C108 1.378 1_556 S
C109 C110 1.361 . S
C110 H94 0.942 . S
C110 C109 1.361 . S
C110 C111 1.369 1_556 S
C111 C110 1.369 1_554 S
C111 C112 1.404 . S
C112 H95 0.940 . S
C112 C111 1.404 . S
C112 C113 1.389 . S
C113 H96 0.939 . S
C113 C108 1.400 . S
C113 C112 1.389 . S
C114 P88 1.819 1_556 S
C114 C115 1.391 . S
C114 C119 1.391 . S
C115 H97 0.941 . S
C115 C114 1.391 . S
C115 C116 1.396 . S
C116 H100 0.939 . S
C116 C115 1.396 . S
C116 C117 1.397 . S
C117 C116 1.397 . S
C117 C118 1.385 . S
C118 H101 0.940 . S
C118 C117 1.385 . S
C118 C119 1.388 . S
C119 H98 0.939 . S
C119 C114 1.391 . S
C119 C118 1.388 . S
P120 O131 1.490 . S
P120 C134 1.812 . S
P120 C140 1.803 1_655 S
P120 C146 1.819 . S
H121 C135 0.941 . S
H122 C136 0.939 . S
H123 C138 0.940 . S
H124 C139 0.940 . S
H125 C141 0.939 . S
H126 C142 0.942 . S
H127 C144 0.940 . S
H128 C145 0.901 1_655 S
H129 C147 0.941 . S
H130 C151 0.939 . S
O131 P120 1.490 . S
H132 C148 0.939 . S
H133 C150 0.940 . S
C134 P120 1.812 . S
C134 C135 1.389 . S
C134 C139 1.391 . S
C135 H121 0.941 . S
C135 C134 1.389 . S
C135 C136 1.397 . S
C136 H122 0.939 . S
C136 C135 1.397 . S
C136 C137 1.378 . S
C137 C136 1.378 . S
C137 C138 1.378 . S
C138 H123 0.940 . S
C138 C137 1.378 . S
C138 C139 1.396 . S
C139 H124 0.940 . S
C139 C134 1.391 . S
C139 C138 1.396 . S
C140 P120 1.803 1_455 S
C140 C141 1.378 . S
C140 C145 1.400 . S
C141 H125 0.939 . S
C141 C140 1.378 . S
C141 C142 1.361 . S
C142 H126 0.942 . S
C142 C141 1.361 . S
C142 C143 1.369 . S
C143 C142 1.369 . S
C143 C144 1.404 . S
C144 H127 0.940 . S
C144 C143 1.404 . S
C144 C145 1.389 . S
C145 H128 0.901 1_455 S
C145 C140 1.400 . S
C145 C144 1.389 . S
C146 P120 1.819 . S
C146 C147 1.391 . S
C146 C151 1.391 . S
C147 H129 0.941 . S
C147 C146 1.391 . S
C147 C148 1.396 . S
C148 H132 0.939 . S
C148 C147 1.396 . S
C148 C149 1.397 . S
C149 C148 1.397 . S
C149 C150 1.385 . S
C150 H133 0.940 . S
C150 C149 1.385 . S
C150 C151 1.388 . S
C151 H130 0.939 . S
C151 C146 1.391 . S
C151 C150 1.388 . S
P152 O163 1.490 . S
P152 C166 1.812 . S
P152 C172 1.803 . S
P152 C178 1.819 1_556 S
H153 C167 0.941 . S
H154 C168 0.939 . S
H155 C170 0.940 . S
H156 C171 0.940 . S
H157 C173 0.939 . S
H158 C174 0.942 . S
H159 C176 0.940 . S
H160 C177 0.939 . S
H161 C179 0.941 . S
H162 C183 0.939 . S
O163 P152 1.490 . S
H164 C180 0.939 . S
H165 C182 0.940 . S
C166 P152 1.812 . S
C166 C167 1.389 . S
C166 C171 1.391 . S
C167 H153 0.941 . S
C167 C166 1.389 . S
C167 C168 1.397 . S
C168 H154 0.939 . S
C168 C167 1.397 . S
C168 C169 1.378 . S
C169 C168 1.378 . S
C169 C170 1.378 . S
C170 H155 0.940 . S
C170 C169 1.378 . S
C170 C171 1.396 . S
C171 H156 0.940 . S
C171 C166 1.391 . S
C171 C170 1.396 . S
C172 P152 1.803 . S
C172 C173 1.378 1_556 S
C172 C177 1.400 . S
C173 H157 0.939 . S
C173 C172 1.378 1_554 S
C173 C174 1.361 . S
C174 H158 0.942 . S
C174 C173 1.361 . S
C174 C175 1.369 . S
C175 C174 1.369 . S
C175 C176 1.404 1_554 S
C176 H159 0.940 . S
C176 C175 1.404 1_556 S
C176 C177 1.389 . S
C177 H160 0.939 . S
C177 C172 1.400 . S
C177 C176 1.389 . S
C178 P152 1.819 1_554 S
C178 C179 1.391 . S
C178 C183 1.391 . S
C179 H161 0.941 . S
C179 C178 1.391 . S
C179 C180 1.396 . S
C180 H164 0.939 . S
C180 C179 1.396 . S
C180 C181 1.397 . S
C181 C180 1.397 . S
C181 C182 1.385 . S
C182 H165 0.940 . S
C182 C181 1.385 . S
C182 C183 1.388 . S
C183 H162 0.939 . S
C183 C178 1.391 . S
C183 C182 1.388 . S
P184 O195 1.490 . S
P184 C198 1.812 . S
P184 C204 1.803 1_455 S
P184 C210 1.819 . S
H185 C199 0.941 . S
H186 C200 0.939 . S
H187 C202 0.940 . S
H188 C203 0.940 . S
H189 C205 0.939 . S
H190 C206 0.942 . S
H191 C208 0.940 . S
H192 C209 0.939 . S
H193 C211 0.941 . S
H194 C215 0.939 . S
O195 P184 1.490 . S
H196 C212 0.939 . S
H197 C214 0.940 . S
C198 P184 1.812 . S
C198 C199 1.389 . S
C198 C203 1.391 . S
C199 H185 0.941 . S
C199 C198 1.389 . S
C199 C200 1.397 . S
C200 H186 0.939 . S
C200 C199 1.397 . S
C200 C201 1.378 . S
C201 C200 1.378 . S
C201 C202 1.378 . S
C202 H187 0.940 . S
C202 C201 1.378 . S
C202 C203 1.396 . S
C203 H188 0.940 . S
C203 C198 1.391 . S
C203 C202 1.396 . S
C204 P184 1.803 1_655 S
C204 C205 1.378 . S
C204 C209 1.400 . S
C205 H189 0.939 . S
C205 C204 1.378 . S
C205 C206 1.361 . S
C206 H190 0.942 . S
C206 C205 1.361 . S
C206 C207 1.369 . S
C207 C206 1.369 . S
C207 C208 1.404 . S
C208 H191 0.940 . S
C208 C207 1.404 . S
C208 C209 1.389 . S
C209 H192 0.939 . S
C209 C204 1.400 . S
C209 C208 1.389 . S
C210 P184 1.819 . S
C210 C211 1.391 . S
C210 C215 1.391 . S
C211 H193 0.941 . S
C211 C210 1.391 . S
C211 C212 1.396 . S
C212 H196 0.939 . S
C212 C211 1.396 . S
C212 C213 1.397 . S
C213 C212 1.397 . S
C213 C214 1.385 . S
C214 H197 0.940 . S
C214 C213 1.385 . S
C214 C215 1.388 . S
C215 H194 0.939 . S
C215 C210 1.391 . S
C215 C214 1.388 . S
P216 O227 1.490 . S
P216 C230 1.812 . S
P216 C236 1.803 1_565 S
P216 C242 1.819 . S
H217 C231 0.941 . S
H218 C232 0.939 . S
H219 C234 0.940 . S
H220 C235 0.940 . S
H221 C237 0.939 . S
H222 C238 0.942 . S
H223 C240 0.940 . S
H224 C241 0.901 1_565 S
H225 C243 0.941 . S
H226 C247 0.939 . S
O227 P216 1.490 . S
H228 C244 0.939 . S
H229 C246 0.940 . S
C230 P216 1.812 . S
C230 C231 1.389 . S
C230 C235 1.391 . S
C231 H217 0.941 . S
C231 C230 1.389 . S
C231 C232 1.397 . S
C232 H218 0.939 . S
C232 C231 1.397 . S
C232 C233 1.378 . S
C233 C232 1.378 . S
C233 C234 1.378 . S
C234 H219 0.940 . S
C234 C233 1.378 . S
C234 C235 1.396 . S
C235 H220 0.940 . S
C235 C230 1.391 . S
C235 C234 1.396 . S
C236 P216 1.803 1_545 S
C236 C237 1.378 . S
C236 C241 1.400 . S
C237 H221 0.939 . S
C237 C236 1.378 . S
C237 C238 1.361 . S
C238 H222 0.942 . S
C238 C237 1.361 . S
C238 C239 1.369 . S
C239 C238 1.369 . S
C239 C240 1.404 . S
C240 H223 0.940 . S
C240 C239 1.404 . S
C240 C241 1.389 . S
C241 H224 0.901 1_545 S
C241 C236 1.400 . S
C241 C240 1.389 . S
C242 P216 1.819 . S
C242 C243 1.391 . S
C242 C247 1.391 . S
C243 H225 0.941 . S
C243 C242 1.391 . S
C243 C244 1.396 . S
C244 H228 0.939 . S
C244 C243 1.396 . S
C244 C245 1.397 . S
C245 C244 1.397 . S
C245 C246 1.385 . S
C246 H229 0.940 . S
C246 C245 1.385 . S
C246 C247 1.388 . S
C247 H226 0.939 . S
C247 C242 1.391 . S
C247 C246 1.388 . S
P248 O259 1.490 . S
P248 C262 1.812 . S
P248 C268 1.803 . S
P248 C274 1.819 1_556 S
H249 C263 0.941 . S
H250 C264 0.939 . S
H251 C266 0.940 . S
H252 C267 0.940 . S
H253 C269 0.939 . S
H254 C270 0.942 . S
H255 C272 0.940 . S
H256 C273 0.939 . S
H257 C275 0.941 . S
H258 C279 0.939 . S
O259 P248 1.490 . S
H260 C276 0.939 . S
H261 C278 0.940 . S
C262 P248 1.812 . S
C262 C263 1.389 . S
C262 C267 1.391 . S
C263 H249 0.941 . S
C263 C262 1.389 . S
C263 C264 1.397 . S
C264 H250 0.939 . S
C264 C263 1.397 . S
C264 C265 1.378 . S
C265 C264 1.378 . S
C265 C266 1.378 . S
C266 H251 0.940 . S
C266 C265 1.378 . S
C266 C267 1.396 . S
C267 H252 0.940 . S
C267 C262 1.391 . S
C267 C266 1.396 . S
C268 P248 1.803 . S
C268 C269 1.378 1_556 S
C268 C273 1.400 . S
C269 H253 0.939 . S
C269 C268 1.378 1_554 S
C269 C270 1.361 . S
C270 H254 0.942 . S
C270 C269 1.361 . S
C270 C271 1.369 . S
C271 C270 1.369 . S
C271 C272 1.404 1_554 S
C272 H255 0.940 . S
C272 C271 1.404 1_556 S
C272 C273 1.389 . S
C273 H256 0.939 . S
C273 C268 1.400 . S
C273 C272 1.389 . S
C274 P248 1.819 1_554 S
C274 C275 1.391 . S
C274 C279 1.391 . S
C275 H257 0.941 . S
C275 C274 1.391 . S
C275 C276 1.396 . S
C276 H260 0.939 . S
C276 C275 1.396 . S
C276 C277 1.397 . S
C277 C276 1.397 . S
C277 C278 1.385 . S
C278 H261 0.940 . S
C278 C277 1.385 . S
C278 C279 1.388 . S
C279 H258 0.939 . S
C279 C274 1.391 . S
C279 C278 1.388 . S
P280 O291 1.490 . S
P280 C294 1.812 . S
P280 C300 1.803 1_545 S
P280 C306 1.819 . S
H281 C295 0.941 . S
H282 C296 0.939 . S
H283 C298 0.940 . S
H284 C299 0.940 . S
H285 C301 0.939 . S
H286 C302 0.942 . S
H287 C304 0.940 . S
H288 C305 0.939 . S
H289 C307 0.941 . S
H290 C311 0.939 . S
O291 P280 1.490 . S
H292 C308 0.939 . S
H293 C310 0.940 . S
C294 P280 1.812 . S
C294 C295 1.389 . S
C294 C299 1.391 . S
C295 H281 0.941 . S
C295 C294 1.389 . S
C295 C296 1.397 . S
C296 H282 0.939 . S
C296 C295 1.397 . S
C296 C297 1.378 . S
C297 C296 1.378 . S
C297 C298 1.378 . S
C298 H283 0.940 . S
C298 C297 1.378 . S
C298 C299 1.396 . S
C299 H284 0.940 . S
C299 C294 1.391 . S
C299 C298 1.396 . S
C300 P280 1.803 1_565 S
C300 C301 1.378 . S
C300 C305 1.400 . S
C301 H285 0.939 . S
C301 C300 1.378 . S
C301 C302 1.361 . S
C302 H286 0.942 . S
C302 C301 1.361 . S
C302 C303 1.369 . S
C303 C302 1.369 . S
C303 C304 1.404 . S
C304 H287 0.940 . S
C304 C303 1.404 . S
C304 C305 1.389 . S
C305 H288 0.939 . S
C305 C300 1.400 . S
C305 C304 1.389 . S
C306 P280 1.819 . S
C306 C307 1.391 . S
C306 C311 1.391 . S
C307 H289 0.941 . S
C307 C306 1.391 . S
C307 C308 1.396 . S
C308 H292 0.939 . S
C308 C307 1.396 . S
C308 C309 1.397 . S
C309 C308 1.397 . S
C309 C310 1.385 . S
C310 H293 0.940 . S
C310 C309 1.385 . S
C310 C311 1.388 . S
C311 H290 0.939 . S
C311 C306 1.391 . S
C311 C310 1.388 . S
P312 O323 1.490 . S
P312 C326 1.812 . S
P312 C332 1.803 . S
P312 C338 1.819 1_554 S
H313 C327 0.941 . S
H314 C328 0.939 . S
H315 C330 0.940 . S
H316 C331 0.940 . S
H317 C333 0.939 . S
H318 C334 0.942 . S
H319 C336 0.940 . S
H320 C337 0.939 . S
H321 C339 0.941 . S
H322 C343 0.939 . S
O323 P312 1.490 . S
H324 C340 0.939 . S
H325 C342 0.940 . S
C326 P312 1.812 . S
C326 C327 1.389 . S
C326 C331 1.391 . S
C327 H313 0.941 . S
C327 C326 1.389 . S
C327 C328 1.397 . S
C328 H314 0.939 . S
C328 C327 1.397 . S
C328 C329 1.378 . S
C329 C328 1.378 . S
C329 C330 1.378 . S
C330 H315 0.940 . S
C330 C329 1.378 . S
C330 C331 1.396 . S
C331 H316 0.940 . S
C331 C326 1.391 . S
C331 C330 1.396 . S
C332 P312 1.803 . S
C332 C333 1.378 1_554 S
C332 C337 1.400 . S
C333 H317 0.939 . S
C333 C332 1.378 1_556 S
C333 C334 1.361 . S
C334 H318 0.942 . S
C334 C333 1.361 . S
C334 C335 1.369 1_556 S
C335 C334 1.369 1_554 S
C335 C336 1.404 . S
C336 H319 0.940 . S
C336 C335 1.404 . S
C336 C337 1.389 . S
C337 H320 0.939 . S
C337 C332 1.400 . S
C337 C336 1.389 . S
C338 P312 1.819 1_556 S
C338 C339 1.391 . S
C338 C343 1.391 . S
C339 H321 0.941 . S
C339 C338 1.391 . S
C339 C340 1.396 . S
C340 H324 0.939 . S
C340 C339 1.396 . S
C340 C341 1.397 . S
C341 C340 1.397 . S
C341 C342 1.385 . S
C342 H325 0.940 . S
C342 C341 1.385 . S
C342 C343 1.388 . S
C343 H322 0.939 . S
C343 C338 1.391 . S
C343 C342 1.388 . S
H344 C362 0.951 . S
H345 C364 0.951 . S
H346 C366 0.950 . S
H347 C367 0.950 . S
H348 C369 0.950 . S
H349 C372 0.950 . S
H350 C373 0.950 . S
H351 C375 0.950 . S
H352 C376 0.950 . S
H353 C377 0.951 . S
H354 C379 0.951 . S
H355 C381 0.950 . S
H356 C382 0.950 . S
H357 C384 0.950 . S
H358 C387 0.950 . S
H359 C388 0.950 . S
H360 C390 0.950 . S
H361 C391 0.950 . S
C362 H344 0.951 . S
C362 C363 1.366 . S
C362 C364 1.388 . S
C363 C362 1.366 . S
C363 C367 1.385 . S
C364 H345 0.951 . S
C364 C362 1.388 . S
C364 C365 1.366 . S
C365 C364 1.366 . S
C365 C366 1.414 . S
C365 C368 1.499 . S
C366 H346 0.950 . S
C366 C365 1.414 . S
C366 C367 1.374 . S
C367 H347 0.950 . S
C367 C363 1.385 . S
C367 C366 1.374 . S
C368 C365 1.499 . S
C368 C369 1.373 . S
C368 C370 1.389 . S
C369 H348 0.950 . S
C369 C368 1.373 . S
C369 C385 1.377 . S
C370 C368 1.389 . S
C370 C371 1.524 . S
C370 C384 1.377 . S
C371 C370 1.524 . S
C371 C372 1.397 . S
C371 C376 1.363 . S
C372 H349 0.950 . S
C372 C371 1.397 . S
C372 C373 1.334 . S
C373 H350 0.950 . S
C373 C372 1.334 . S
C373 C374 1.287 . S
C374 C373 1.287 . S
C374 C375 1.524 . S
C374 H393 0.913 . S
C375 H351 0.950 . S
C375 C374 1.524 . S
C375 C376 1.415 . S
C376 H352 0.950 . S
C376 C371 1.363 . S
C376 C375 1.415 . S
C377 H353 0.951 . S
C377 C378 1.366 . S
C377 C379 1.388 . S
C378 C377 1.366 . S
C378 C382 1.385 . S
C379 H354 0.951 . S
C379 C377 1.388 . S
C379 C380 1.366 . S
C380 C379 1.366 . S
C380 C381 1.414 . S
C380 C383 1.499 . S
C381 H355 0.950 . S
C381 C380 1.414 . S
C381 C382 1.374 . S
C382 H356 0.950 . S
C382 C378 1.385 . S
C382 C381 1.374 . S
C383 C380 1.499 . S
C383 C384 1.373 . S
C383 C385 1.389 . S
C384 H357 0.950 . S
C384 C370 1.377 . S
C384 C383 1.373 . S
C385 C369 1.377 . S
C385 C383 1.389 . S
C385 C386 1.524 . S
C386 C385 1.524 . S
C386 C387 1.397 . S
C386 C391 1.363 . S
C387 H358 0.950 . S
C387 C386 1.397 . S
C387 C388 1.334 . S
C388 H359 0.950 . S
C388 C387 1.334 . S
C388 C389 1.287 . S
C389 C388 1.287 . S
C389 C390 1.524 . S
C389 H392 0.999 . S
C390 H360 0.950 . S
C390 C389 1.524 . S
C390 C391 1.415 . S
C391 H361 0.950 . S
C391 C386 1.363 . S
C391 C390 1.415 . S
H392 C389 0.999 . S
H393 C374 0.913 . S
H394 C412 0.951 . S
H395 C414 0.951 . S
H396 C416 0.950 . S
H397 C417 0.950 . S
H398 C419 0.950 . S
H399 C422 0.950 . S
H400 C423 0.950 . S
H401 C425 0.950 . S
H402 C426 0.950 . S
H403 C427 0.951 . S
H404 C429 0.951 . S
H405 C431 0.950 . S
H406 C432 0.950 . S
H407 C434 0.950 . S
H408 C437 0.950 . S
H409 C438 0.950 . S
H410 C440 0.950 . S
H411 C441 0.950 . S
C412 H394 0.951 . S
C412 C413 1.366 . S
C412 C414 1.388 . S
C413 C412 1.366 . S
C413 C417 1.385 . S
C414 H395 0.951 . S
C414 C412 1.388 . S
C414 C415 1.366 . S
C415 C414 1.366 . S
C415 C416 1.414 . S
C415 C418 1.499 . S
C416 H396 0.950 . S
C416 C415 1.414 . S
C416 C417 1.374 . S
C417 H397 0.950 . S
C417 C413 1.385 . S
C417 C416 1.374 . S
C418 C415 1.499 . S
C418 C419 1.373 . S
C418 C420 1.389 . S
C419 H398 0.950 . S
C419 C418 1.373 . S
C419 C435 1.377 . S
C420 C418 1.389 . S
C420 C421 1.524 . S
C420 C434 1.377 . S
C421 C420 1.524 . S
C421 C422 1.397 . S
C421 C426 1.363 . S
C422 H399 0.950 . S
C422 C421 1.397 . S
C422 C423 1.334 . S
C423 H400 0.950 . S
C423 C422 1.334 . S
C423 C424 1.287 . S
C424 C423 1.287 . S
C424 C425 1.524 . S
C424 H443 0.913 . S
C425 H401 0.950 . S
C425 C424 1.524 . S
C425 C426 1.415 . S
C426 H402 0.950 . S
C426 C421 1.363 . S
C426 C425 1.415 . S
C427 H403 0.951 . S
C427 C428 1.366 . S
C427 C429 1.388 . S
C428 C427 1.366 . S
C428 C432 1.385 . S
C429 H404 0.951 . S
C429 C427 1.388 . S
C429 C430 1.366 . S
C430 C429 1.366 . S
C430 C431 1.414 . S
C430 C433 1.499 . S
C431 H405 0.950 . S
C431 C430 1.414 . S
C431 C432 1.374 . S
C432 H406 0.950 . S
C432 C428 1.385 . S
C432 C431 1.374 . S
C433 C430 1.499 . S
C433 C434 1.373 . S
C433 C435 1.389 . S
C434 H407 0.950 . S
C434 C420 1.377 . S
C434 C433 1.373 . S
C435 C419 1.377 . S
C435 C433 1.389 . S
C435 C436 1.524 . S
C436 C435 1.524 . S
C436 C437 1.397 . S
C436 C441 1.363 . S
C437 H408 0.950 . S
C437 C436 1.397 . S
C437 C438 1.334 . S
C438 H409 0.950 . S
C438 C437 1.334 . S
C438 C439 1.287 . S
C439 C438 1.287 . S
C439 C440 1.524 . S
C439 H442 0.999 . S
C440 H410 0.950 . S
C440 C439 1.524 . S
C440 C441 1.415 . S
C441 H411 0.950 . S
C441 C436 1.363 . S
C441 C440 1.415 . S
H442 C439 0.999 . S
H443 C424 0.913 . S
H444 C462 0.951 . S
H445 C464 0.951 . S
H446 C466 0.950 . S
H447 C467 0.950 . S
H448 C469 0.950 . S
H449 C472 0.950 . S
H450 C473 0.950 . S
H451 C475 0.950 . S
H452 C476 0.950 . S
H453 C477 0.951 . S
H454 C479 0.951 . S
H455 C481 0.950 . S
H456 C482 0.950 . S
H457 C484 0.950 . S
H458 C487 0.950 . S
H459 C488 0.950 . S
H460 C490 0.950 . S
H461 C491 0.950 . S
C462 H444 0.951 . S
C462 C463 1.366 . S
C462 C464 1.388 . S
C463 C462 1.366 . S
C463 C467 1.385 . S
C464 H445 0.951 . S
C464 C462 1.388 . S
C464 C465 1.366 . S
C465 C464 1.366 . S
C465 C466 1.414 . S
C465 C468 1.499 . S
C466 H446 0.950 . S
C466 C465 1.414 . S
C466 C467 1.374 . S
C467 H447 0.950 . S
C467 C463 1.385 . S
C467 C466 1.374 . S
C468 C465 1.499 . S
C468 C469 1.373 . S
C468 C470 1.389 . S
C469 H448 0.950 . S
C469 C468 1.373 . S
C469 C485 1.377 . S
C470 C468 1.389 . S
C470 C471 1.524 . S
C470 C484 1.377 . S
C471 C470 1.524 . S
C471 C472 1.397 . S
C471 C476 1.363 . S
C472 H449 0.950 . S
C472 C471 1.397 . S
C472 C473 1.334 . S
C473 H450 0.950 . S
C473 C472 1.334 . S
C473 C474 1.287 . S
C474 C473 1.287 . S
C474 C475 1.524 . S
C474 H493 0.913 . S
C475 H451 0.950 . S
C475 C474 1.524 . S
C475 C476 1.415 . S
C476 H452 0.950 . S
C476 C471 1.363 . S
C476 C475 1.415 . S
C477 H453 0.951 . S
C477 C478 1.366 . S
C477 C479 1.388 . S
C478 C477 1.366 . S
C478 C482 1.385 . S
C479 H454 0.951 . S
C479 C477 1.388 . S
C479 C480 1.366 . S
C480 C479 1.366 . S
C480 C481 1.414 . S
C480 C483 1.499 . S
C481 H455 0.950 . S
C481 C480 1.414 . S
C481 C482 1.374 . S
C482 H456 0.950 . S
C482 C478 1.385 . S
C482 C481 1.374 . S
C483 C480 1.499 . S
C483 C484 1.373 . S
C483 C485 1.389 . S
C484 H457 0.950 . S
C484 C470 1.377 . S
C484 C483 1.373 . S
C485 C469 1.377 . S
C485 C483 1.389 . S
C485 C486 1.524 . S
C486 C485 1.524 . S
C486 C487 1.397 . S
C486 C491 1.363 . S
C487 H458 0.950 . S
C487 C486 1.397 . S
C487 C488 1.334 . S
C488 H459 0.950 . S
C488 C487 1.334 . S
C488 C489 1.287 . S
C489 C488 1.287 . S
C489 C490 1.524 . S
C489 H492 0.999 . S
C490 H460 0.950 . S
C490 C489 1.524 . S
C490 C491 1.415 . S
C491 H461 0.950 . S
C491 C486 1.363 . S
C491 C490 1.415 . S
H492 C489 0.999 . S
H493 C474 0.913 . S
H494 C512 0.951 . S
H495 C514 0.951 . S
H496 C516 0.950 . S
H497 C517 0.950 . S
H498 C519 0.950 . S
H499 C522 0.950 . S
H500 C523 0.950 . S
H501 C525 0.950 . S
H502 C526 0.950 . S
H503 C527 0.951 . S
H504 C529 0.951 . S
H505 C531 0.950 . S
H506 C532 0.950 . S
H507 C534 0.950 . S
H508 C537 0.950 . S
H509 C538 0.950 . S
H510 C540 0.950 . S
H511 C541 0.950 . S
C512 H494 0.951 . S
C512 C513 1.366 . S
C512 C514 1.388 . S
C513 C512 1.366 . S
C513 C517 1.385 . S
C514 H495 0.951 . S
C514 C512 1.388 . S
C514 C515 1.366 . S
C515 C514 1.366 . S
C515 C516 1.414 . S
C515 C518 1.499 . S
C516 H496 0.950 . S
C516 C515 1.414 . S
C516 C517 1.374 . S
C517 H497 0.950 . S
C517 C513 1.385 . S
C517 C516 1.374 . S
C518 C515 1.499 . S
C518 C519 1.373 . S
C518 C520 1.389 . S
C519 H498 0.950 . S
C519 C518 1.373 . S
C519 C535 1.377 . S
C520 C518 1.389 . S
C520 C521 1.524 . S
C520 C534 1.377 . S
C521 C520 1.524 . S
C521 C522 1.397 . S
C521 C526 1.363 . S
C522 H499 0.950 . S
C522 C521 1.397 . S
C522 C523 1.334 . S
C523 H500 0.950 . S
C523 C522 1.334 . S
C523 C524 1.287 . S
C524 C523 1.287 . S
C524 C525 1.524 . S
C524 H543 0.913 . S
C525 H501 0.950 . S
C525 C524 1.524 . S
C525 C526 1.415 . S
C526 H502 0.950 . S
C526 C521 1.363 . S
C526 C525 1.415 . S
C527 H503 0.951 . S
C527 C528 1.366 . S
C527 C529 1.388 . S
C528 C527 1.366 . S
C528 C532 1.385 . S
C529 H504 0.951 . S
C529 C527 1.388 . S
C529 C530 1.366 . S
C530 C529 1.366 . S
C530 C531 1.414 . S
C530 C533 1.499 . S
C531 H505 0.950 . S
C531 C530 1.414 . S
C531 C532 1.374 . S
C532 H506 0.950 . S
C532 C528 1.385 . S
C532 C531 1.374 . S
C533 C530 1.499 . S
C533 C534 1.373 . S
C533 C535 1.389 . S
C534 H507 0.950 . S
C534 C520 1.377 . S
C534 C533 1.373 . S
C535 C519 1.377 . S
C535 C533 1.389 . S
C535 C536 1.524 . S
C536 C535 1.524 . S
C536 C537 1.397 . S
C536 C541 1.363 . S
C537 H508 0.950 . S
C537 C536 1.397 . S
C537 C538 1.334 . S
C538 H509 0.950 . S
C538 C537 1.334 . S
C538 C539 1.287 . S
C539 C538 1.287 . S
C539 C540 1.524 . S
C539 H542 0.999 . S
C540 H510 0.950 . S
C540 C539 1.524 . S
C540 C541 1.415 . S
C541 H511 0.950 . S
C541 C536 1.363 . S
C541 C540 1.415 . S
H542 C539 0.999 . S
H543 C524 0.913 . S
H544 C562 0.951 . S
H545 C564 0.951 . S
H546 C566 0.950 . S
H547 C567 0.950 . S
H548 C569 0.950 . S
H549 C572 0.950 . S
H550 C573 0.950 . S
H551 C575 0.950 . S
H552 C576 0.950 . S
H553 C577 0.951 . S
H554 C579 0.951 . S
H555 C581 0.950 . S
H556 C582 0.950 . S
H557 C584 0.950 . S
H558 C587 0.950 . S
H559 C588 0.950 . S
H560 C590 0.950 . S
H561 C591 0.950 . S
C562 H544 0.951 . S
C562 C563 1.366 . S
C562 C564 1.388 . S
C563 C562 1.366 . S
C563 C567 1.385 . S
C564 H545 0.951 . S
C564 C562 1.388 . S
C564 C565 1.366 . S
C565 C564 1.366 . S
C565 C566 1.414 . S
C565 C568 1.499 . S
C566 H546 0.950 . S
C566 C565 1.414 . S
C566 C567 1.374 . S
C567 H547 0.950 . S
C567 C563 1.385 . S
C567 C566 1.374 . S
C568 C565 1.499 . S
C568 C569 1.373 . S
C568 C570 1.389 . S
C569 H548 0.950 . S
C569 C568 1.373 . S
C569 C585 1.377 . S
C570 C568 1.389 . S
C570 C571 1.524 . S
C570 C584 1.377 . S
C571 C570 1.524 . S
C571 C572 1.397 . S
C571 C576 1.363 . S
C572 H549 0.950 . S
C572 C571 1.397 . S
C572 C573 1.334 . S
C573 H550 0.950 . S
C573 C572 1.334 . S
C573 C574 1.287 . S
C574 C573 1.287 . S
C574 C575 1.524 . S
C574 H593 0.913 . S
C575 H551 0.950 . S
C575 C574 1.524 . S
C575 C576 1.415 . S
C576 H552 0.950 . S
C576 C571 1.363 . S
C576 C575 1.415 . S
C577 H553 0.951 . S
C577 C578 1.366 . S
C577 C579 1.388 . S
C578 C577 1.366 . S
C578 C582 1.385 . S
C579 H554 0.951 . S
C579 C577 1.388 . S
C579 C580 1.366 . S
C580 C579 1.366 . S
C580 C581 1.414 . S
C580 C583 1.499 . S
C581 H555 0.950 . S
C581 C580 1.414 . S
C581 C582 1.374 . S
C582 H556 0.950 . S
C582 C578 1.385 . S
C582 C581 1.374 . S
C583 C580 1.499 . S
C583 C584 1.373 . S
C583 C585 1.389 . S
C584 H557 0.950 . S
C584 C570 1.377 . S
C584 C583 1.373 . S
C585 C569 1.377 . S
C585 C583 1.389 . S
C585 C586 1.524 . S
C586 C585 1.524 . S
C586 C587 1.397 . S
C586 C591 1.363 . S
C587 H558 0.950 . S
C587 C586 1.397 . S
C587 C588 1.334 . S
C588 H559 0.950 . S
C588 C587 1.334 . S
C588 C589 1.287 . S
C589 C588 1.287 . S
C589 C590 1.524 . S
C589 H592 0.999 . S
C590 H560 0.950 . S
C590 C589 1.524 . S
C590 C591 1.415 . S
C591 H561 0.950 . S
C591 C586 1.363 . S
C591 C590 1.415 . S
H592 C589 0.999 . S
H593 C574 0.913 . S
H594 C612 0.951 . S
H595 C614 0.951 . S
H596 C616 0.950 . S
H597 C617 0.950 . S
H598 C619 0.950 . S
H599 C622 0.950 . S
H600 C623 0.950 . S
H601 C625 0.950 . S
H602 C626 0.950 . S
H603 C627 0.951 . S
H604 C629 0.951 . S
H605 C631 0.950 . S
H606 C632 0.950 . S
H607 C634 0.950 . S
H608 C637 0.950 . S
H609 C638 0.950 . S
H610 C640 0.950 . S
H611 C641 0.950 . S
C612 H594 0.951 . S
C612 C613 1.366 . S
C612 C614 1.388 . S
C613 C612 1.366 . S
C613 C617 1.385 . S
C614 H595 0.951 . S
C614 C612 1.388 . S
C614 C615 1.366 . S
C615 C614 1.366 . S
C615 C616 1.414 . S
C615 C618 1.499 . S
C616 H596 0.950 . S
C616 C615 1.414 . S
C616 C617 1.374 . S
C617 H597 0.950 . S
C617 C613 1.385 . S
C617 C616 1.374 . S
C618 C615 1.499 . S
C618 C619 1.373 . S
C618 C620 1.389 . S
C619 H598 0.950 . S
C619 C618 1.373 . S
C619 C635 1.377 . S
C620 C618 1.389 . S
C620 C621 1.524 . S
C620 C634 1.377 . S
C621 C620 1.524 . S
C621 C622 1.397 . S
C621 C626 1.363 . S
C622 H599 0.950 . S
C622 C621 1.397 . S
C622 C623 1.334 . S
C623 H600 0.950 . S
C623 C622 1.334 . S
C623 C624 1.287 . S
C624 C623 1.287 . S
C624 C625 1.524 . S
C624 H643 0.913 . S
C625 H601 0.950 . S
C625 C624 1.524 . S
C625 C626 1.415 . S
C626 H602 0.950 . S
C626 C621 1.363 . S
C626 C625 1.415 . S
C627 H603 0.951 . S
C627 C628 1.366 . S
C627 C629 1.388 . S
C628 C627 1.366 . S
C628 C632 1.385 . S
C629 H604 0.951 . S
C629 C627 1.388 . S
C629 C630 1.366 . S
C630 C629 1.366 . S
C630 C631 1.414 . S
C630 C633 1.499 . S
C631 H605 0.950 . S
C631 C630 1.414 . S
C631 C632 1.374 . S
C632 H606 0.950 . S
C632 C628 1.385 . S
C632 C631 1.374 . S
C633 C630 1.499 . S
C633 C634 1.373 . S
C633 C635 1.389 . S
C634 H607 0.950 . S
C634 C620 1.377 . S
C634 C633 1.373 . S
C635 C619 1.377 . S
C635 C633 1.389 . S
C635 C636 1.524 . S
C636 C635 1.524 . S
C636 C637 1.397 . S
C636 C641 1.363 . S
C637 H608 0.950 . S
C637 C636 1.397 . S
C637 C638 1.334 . S
C638 H609 0.950 . S
C638 C637 1.334 . S
C638 C639 1.287 . S
C639 C638 1.287 . S
C639 C640 1.524 . S
C639 H642 0.999 . S
C640 H610 0.950 . S
C640 C639 1.524 . S
C640 C641 1.415 . S
C641 H611 0.950 . S
C641 C636 1.363 . S
C641 C640 1.415 . S
H642 C639 0.999 . S
H643 C624 0.913 . S
H644 C662 0.951 . S
H645 C664 0.951 . S
H646 C666 0.950 . S
H647 C667 0.950 . S
H648 C669 0.950 . S
H649 C672 0.950 . S
H650 C673 0.950 . S
H651 C675 0.950 . S
H652 C676 0.950 . S
H653 C677 0.951 . S
H654 C679 0.951 . S
H655 C681 0.950 . S
H656 C682 0.950 . S
H657 C684 0.950 . S
H658 C687 0.950 . S
H659 C688 0.950 . S
H660 C690 0.950 . S
H661 C691 0.950 . S
C662 H644 0.951 . S
C662 C663 1.366 . S
C662 C664 1.388 . S
C663 C662 1.366 . S
C663 C667 1.385 . S
C664 H645 0.951 . S
C664 C662 1.388 . S
C664 C665 1.366 . S
C665 C664 1.366 . S
C665 C666 1.414 . S
C665 C668 1.499 . S
C666 H646 0.950 . S
C666 C665 1.414 . S
C666 C667 1.374 . S
C667 H647 0.950 . S
C667 C663 1.385 . S
C667 C666 1.374 . S
C668 C665 1.499 . S
C668 C669 1.373 . S
C668 C670 1.389 . S
C669 H648 0.950 . S
C669 C668 1.373 . S
C669 C685 1.377 . S
C670 C668 1.389 . S
C670 C671 1.524 . S
C670 C684 1.377 . S
C671 C670 1.524 . S
C671 C672 1.397 . S
C671 C676 1.363 . S
C672 H649 0.950 . S
C672 C671 1.397 . S
C672 C673 1.334 . S
C673 H650 0.950 . S
C673 C672 1.334 . S
C673 C674 1.287 . S
C674 C673 1.287 . S
C674 C675 1.524 . S
C674 H693 0.913 . S
C675 H651 0.950 . S
C675 C674 1.524 . S
C675 C676 1.415 . S
C676 H652 0.950 . S
C676 C671 1.363 . S
C676 C675 1.415 . S
C677 H653 0.951 . S
C677 C678 1.366 . S
C677 C679 1.388 . S
C678 C677 1.366 . S
C678 C682 1.385 . S
C679 H654 0.951 . S
C679 C677 1.388 . S
C679 C680 1.366 . S
C680 C679 1.366 . S
C680 C681 1.414 . S
C680 C683 1.499 . S
C681 H655 0.950 . S
C681 C680 1.414 . S
C681 C682 1.374 . S
C682 H656 0.950 . S
C682 C678 1.385 . S
C682 C681 1.374 . S
C683 C680 1.499 . S
C683 C684 1.373 . S
C683 C685 1.389 . S
C684 H657 0.950 . S
C684 C670 1.377 . S
C684 C683 1.373 . S
C685 C669 1.377 . S
C685 C683 1.389 . S
C685 C686 1.524 . S
C686 C685 1.524 . S
C686 C687 1.397 . S
C686 C691 1.363 . S
C687 H658 0.950 . S
C687 C686 1.397 . S
C687 C688 1.334 . S
C688 H659 0.950 . S
C688 C687 1.334 . S
C688 C689 1.287 . S
C689 C688 1.287 . S
C689 C690 1.524 . S
C689 H692 0.999 . S
C690 H660 0.950 . S
C690 C689 1.524 . S
C690 C691 1.415 . S
C691 H661 0.950 . S
C691 C686 1.363 . S
C691 C690 1.415 . S
H692 C689 0.999 . S
H693 C674 0.913 . S
H694 C712 0.951 . S
H695 C714 0.951 . S
H696 C716 0.950 . S
H697 C717 0.950 . S
H698 C719 0.950 . S
H699 C722 0.950 . S
H700 C723 0.950 . S
H701 C725 0.950 . S
H702 C726 0.950 . S
H703 C727 0.951 . S
H704 C729 0.951 . S
H705 C731 0.950 . S
H706 C732 0.950 . S
H707 C734 0.950 . S
H708 C737 0.950 . S
H709 C738 0.950 . S
H710 C740 0.950 . S
H711 C741 0.950 . S
C712 H694 0.951 . S
C712 C713 1.366 . S
C712 C714 1.388 . S
C713 C712 1.366 . S
C713 C717 1.385 . S
C714 H695 0.951 . S
C714 C712 1.388 . S
C714 C715 1.366 . S
C715 C714 1.366 . S
C715 C716 1.414 . S
C715 C718 1.499 . S
C716 H696 0.950 . S
C716 C715 1.414 . S
C716 C717 1.374 . S
C717 H697 0.950 . S
C717 C713 1.385 . S
C717 C716 1.374 . S
C718 C715 1.499 . S
C718 C719 1.373 . S
C718 C720 1.389 . S
C719 H698 0.950 . S
C719 C718 1.373 . S
C719 C735 1.377 . S
C720 C718 1.389 . S
C720 C721 1.524 . S
C720 C734 1.377 . S
C721 C720 1.524 . S
C721 C722 1.397 . S
C721 C726 1.363 . S
C722 H699 0.950 . S
C722 C721 1.397 . S
C722 C723 1.334 . S
C723 H700 0.950 . S
C723 C722 1.334 . S
C723 C724 1.287 . S
C724 C723 1.287 . S
C724 C725 1.524 . S
C724 H743 0.913 . S
C725 H701 0.950 . S
C725 C724 1.524 . S
C725 C726 1.415 . S
C726 H702 0.950 . S
C726 C721 1.363 . S
C726 C725 1.415 . S
C727 H703 0.951 . S
C727 C728 1.366 . S
C727 C729 1.388 . S
C728 C727 1.366 . S
C728 C732 1.385 . S
C729 H704 0.951 . S
C729 C727 1.388 . S
C729 C730 1.366 . S
C730 C729 1.366 . S
C730 C731 1.414 . S
C730 C733 1.499 . S
C731 H705 0.950 . S
C731 C730 1.414 . S
C731 C732 1.374 . S
C732 H706 0.950 . S
C732 C728 1.385 . S
C732 C731 1.374 . S
C733 C730 1.499 . S
C733 C734 1.373 . S
C733 C735 1.389 . S
C734 H707 0.950 . S
C734 C720 1.377 . S
C734 C733 1.373 . S
C735 C719 1.377 . S
C735 C733 1.389 . S
C735 C736 1.524 . S
C736 C735 1.524 . S
C736 C737 1.397 . S
C736 C741 1.363 . S
C737 H708 0.950 . S
C737 C736 1.397 . S
C737 C738 1.334 . S
C738 H709 0.950 . S
C738 C737 1.334 . S
C738 C739 1.287 . S
C739 C738 1.287 . S
C739 C740 1.524 . S
C739 H742 0.999 . S
C740 H710 0.950 . S
C740 C739 1.524 . S
C740 C741 1.415 . S
C741 H711 0.950 . S
C741 C736 1.363 . S
C741 C740 1.415 . S
H742 C739 0.999 . S
H743 C724 0.913 . S
H744 C762 0.951 . S
H745 C764 0.951 . S
H746 C766 0.950 . S
H747 C767 0.950 . S
H748 C769 0.950 . S
H749 C772 0.950 . S
H750 C773 0.950 . S
H751 C775 0.950 . S
H752 C776 0.950 . S
H753 C777 0.951 . S
H754 C779 0.951 . S
H755 C781 0.950 . S
H756 C782 0.950 . S
H757 C784 0.950 . S
H758 C787 0.950 . S
H759 C788 0.950 . S
H760 C790 0.950 . S
H761 C791 0.950 . S
C762 H744 0.951 . S
C762 C763 1.366 . S
C762 C764 1.388 . S
C763 C762 1.366 . S
C763 C767 1.385 . S
C764 H745 0.951 . S
C764 C762 1.388 . S
C764 C765 1.366 . S
C765 C764 1.366 . S
C765 C766 1.414 . S
C765 C768 1.499 . S
C766 H746 0.950 . S
C766 C765 1.414 . S
C766 C767 1.374 . S
C767 H747 0.950 . S
C767 C763 1.385 . S
C767 C766 1.374 . S
C768 C765 1.499 . S
C768 C769 1.373 . S
C768 C770 1.389 . S
C769 H748 0.950 . S
C769 C768 1.373 . S
C769 C785 1.377 . S
C770 C768 1.389 . S
C770 C771 1.524 . S
C770 C784 1.377 . S
C771 C770 1.524 . S
C771 C772 1.397 . S
C771 C776 1.363 . S
C772 H749 0.950 . S
C772 C771 1.397 . S
C772 C773 1.334 . S
C773 H750 0.950 . S
C773 C772 1.334 . S
C773 C774 1.287 . S
C774 C773 1.287 . S
C774 C775 1.524 . S
C774 H793 0.913 . S
C775 H751 0.950 . S
C775 C774 1.524 . S
C775 C776 1.415 . S
C776 H752 0.950 . S
C776 C771 1.363 . S
C776 C775 1.415 . S
C777 H753 0.951 . S
C777 C778 1.366 . S
C777 C779 1.388 . S
C778 C777 1.366 . S
C778 C782 1.385 . S
C779 H754 0.951 . S
C779 C777 1.388 . S
C779 C780 1.366 . S
C780 C779 1.366 . S
C780 C781 1.414 . S
C780 C783 1.499 . S
C781 H755 0.950 . S
C781 C780 1.414 . S
C781 C782 1.374 . S
C782 H756 0.950 . S
C782 C778 1.385 . S
C782 C781 1.374 . S
C783 C780 1.499 . S
C783 C784 1.373 . S
C783 C785 1.389 . S
C784 H757 0.950 . S
C784 C770 1.377 . S
C784 C783 1.373 . S
C785 C769 1.377 . S
C785 C783 1.389 . S
C785 C786 1.524 . S
C786 C785 1.524 . S
C786 C787 1.397 . S
C786 C791 1.363 . S
C787 H758 0.950 . S
C787 C786 1.397 . S
C787 C788 1.334 . S
C788 H759 0.950 . S
C788 C787 1.334 . S
C788 C789 1.287 . S
C789 C788 1.287 . S
C789 C790 1.524 . S
C789 H792 0.999 . S
C790 H760 0.950 . S
C790 C789 1.524 . S
C790 C791 1.415 . S
C791 H761 0.950 . S
C791 C786 1.363 . S
C791 C790 1.415 . S
H792 C789 0.999 . S
H793 C774 0.913 . S
H794 C812 0.951 . S
H795 C814 0.951 . S
H796 C816 0.950 . S
H797 C817 0.950 . S
H798 C819 0.950 . S
H799 C822 0.950 . S
H800 C823 0.950 . S
H801 C825 0.950 . S
H802 C826 0.950 . S
H803 C827 0.951 . S
H804 C829 0.951 . S
H805 C831 0.950 . S
H806 C832 0.950 . S
H807 C834 0.950 . S
H808 C837 0.950 . S
H809 C838 0.950 . S
H810 C840 0.950 . S
H811 C841 0.950 . S
C812 H794 0.951 . S
C812 C813 1.366 . S
C812 C814 1.388 . S
C813 C812 1.366 . S
C813 C817 1.385 . S
C814 H795 0.951 . S
C814 C812 1.388 . S
C814 C815 1.366 . S
C815 C814 1.366 . S
C815 C816 1.414 . S
C815 C818 1.499 . S
C816 H796 0.950 . S
C816 C815 1.414 . S
C816 C817 1.374 . S
C817 H797 0.950 . S
C817 C813 1.385 . S
C817 C816 1.374 . S
C818 C815 1.499 . S
C818 C819 1.373 . S
C818 C820 1.389 . S
C819 H798 0.950 . S
C819 C818 1.373 . S
C819 C835 1.377 . S
C820 C818 1.389 . S
C820 C821 1.524 . S
C820 C834 1.377 . S
C821 C820 1.524 . S
C821 C822 1.397 . S
C821 C826 1.363 . S
C822 H799 0.950 . S
C822 C821 1.397 . S
C822 C823 1.334 . S
C823 H800 0.950 . S
C823 C822 1.334 . S
C823 C824 1.287 . S
C824 C823 1.287 . S
C824 C825 1.524 . S
C824 H843 0.913 . S
C825 H801 0.950 . S
C825 C824 1.524 . S
C825 C826 1.415 . S
C826 H802 0.950 . S
C826 C821 1.363 . S
C826 C825 1.415 . S
C827 H803 0.951 . S
C827 C828 1.366 . S
C827 C829 1.388 . S
C828 C827 1.366 . S
C828 C832 1.385 . S
C829 H804 0.951 . S
C829 C827 1.388 . S
C829 C830 1.366 . S
C830 C829 1.366 . S
C830 C831 1.414 . S
C830 C833 1.499 . S
C831 H805 0.950 . S
C831 C830 1.414 . S
C831 C832 1.374 . S
C832 H806 0.950 . S
C832 C828 1.385 . S
C832 C831 1.374 . S
C833 C830 1.499 . S
C833 C834 1.373 . S
C833 C835 1.389 . S
C834 H807 0.950 . S
C834 C820 1.377 . S
C834 C833 1.373 . S
C835 C819 1.377 . S
C835 C833 1.389 . S
C835 C836 1.524 . S
C836 C835 1.524 . S
C836 C837 1.397 . S
C836 C841 1.363 . S
C837 H808 0.950 . S
C837 C836 1.397 . S
C837 C838 1.334 . S
C838 H809 0.950 . S
C838 C837 1.334 . S
C838 C839 1.287 . S
C839 C838 1.287 . S
C839 C840 1.524 . S
C839 H842 0.999 . S
C840 H810 0.950 . S
C840 C839 1.524 . S
C840 C841 1.415 . S
C841 H811 0.950 . S
C841 C836 1.363 . S
C841 C840 1.415 . S
H842 C839 0.999 . S
H843 C824 0.913 . S
H844 C862 0.951 . S
H845 C864 0.951 . S
H846 C866 0.950 . S
H847 C867 0.950 . S
H848 C869 0.950 . S
H849 C872 0.950 . S
H850 C873 0.950 . S
H851 C875 0.950 . S
H852 C876 0.950 . S
H853 C877 0.951 . S
H854 C879 0.951 . S
H855 C881 0.950 . S
H856 C882 0.950 . S
H857 C884 0.950 . S
H858 C887 0.950 . S
H859 C888 0.950 . S
H860 C890 0.950 . S
H861 C891 0.950 . S
C862 H844 0.951 . S
C862 C863 1.366 . S
C862 C864 1.388 . S
C863 C862 1.366 . S
C863 C867 1.385 . S
C864 H845 0.951 . S
C864 C862 1.388 . S
C864 C865 1.366 . S
C865 C864 1.366 . S
C865 C866 1.414 . S
C865 C868 1.499 . S
C866 H846 0.950 . S
C866 C865 1.414 . S
C866 C867 1.374 . S
C867 H847 0.950 . S
C867 C863 1.385 . S
C867 C866 1.374 . S
C868 C865 1.499 . S
C868 C869 1.373 . S
C868 C870 1.389 . S
C869 H848 0.950 . S
C869 C868 1.373 . S
C869 C885 1.377 . S
C870 C868 1.389 . S
C870 C871 1.524 . S
C870 C884 1.377 . S
C871 C870 1.524 . S
C871 C872 1.397 . S
C871 C876 1.363 . S
C872 H849 0.950 . S
C872 C871 1.397 . S
C872 C873 1.334 . S
C873 H850 0.950 . S
C873 C872 1.334 . S
C873 C874 1.287 . S
C874 C873 1.287 . S
C874 C875 1.524 . S
C874 H893 0.913 . S
C875 H851 0.950 . S
C875 C874 1.524 . S
C875 C876 1.415 . S
C876 H852 0.950 . S
C876 C871 1.363 . S
C876 C875 1.415 . S
C877 H853 0.951 . S
C877 C878 1.366 . S
C877 C879 1.388 . S
C878 C877 1.366 . S
C878 C882 1.385 . S
C879 H854 0.951 . S
C879 C877 1.388 . S
C879 C880 1.366 . S
C880 C879 1.366 . S
C880 C881 1.414 . S
C880 C883 1.499 . S
C881 H855 0.950 . S
C881 C880 1.414 . S
C881 C882 1.374 . S
C882 H856 0.950 . S
C882 C878 1.385 . S
C882 C881 1.374 . S
C883 C880 1.499 . S
C883 C884 1.373 . S
C883 C885 1.389 . S
C884 H857 0.950 . S
C884 C870 1.377 . S
C884 C883 1.373 . S
C885 C869 1.377 . S
C885 C883 1.389 . S
C885 C886 1.524 . S
C886 C885 1.524 . S
C886 C887 1.397 . S
C886 C891 1.363 . S
C887 H858 0.950 . S
C887 C886 1.397 . S
C887 C888 1.334 . S
C888 H859 0.950 . S
C888 C887 1.334 . S
C888 C889 1.287 . S
C889 C888 1.287 . S
C889 C890 1.524 . S
C889 H892 0.999 . S
C890 H860 0.950 . S
C890 C889 1.524 . S
C890 C891 1.415 . S
C891 H861 0.950 . S
C891 C886 1.363 . S
C891 C890 1.415 . S
H892 C889 0.999 . S
H893 C874 0.913 . S
H894 C912 0.951 . S
H895 C914 0.951 . S
H896 C916 0.950 . S
H897 C917 0.950 . S
H898 C919 0.950 . S
H899 C922 0.950 . S
H900 C923 0.950 . S
H901 C925 0.950 . S
H902 C926 0.950 . S
H903 C927 0.951 . S
H904 C929 0.951 . S
H905 C931 0.950 . S
H906 C932 0.950 . S
H907 C934 0.950 . S
H908 C937 0.950 . S
H909 C938 0.950 . S
H910 C940 0.950 . S
H911 C941 0.950 . S
C912 H894 0.951 . S
C912 C913 1.366 . S
C912 C914 1.388 . S
C913 C912 1.366 . S
C913 C917 1.385 . S
C914 H895 0.951 . S
C914 C912 1.388 . S
C914 C915 1.366 . S
C915 C914 1.366 . S
C915 C916 1.414 . S
C915 C918 1.499 . S
C916 H896 0.950 . S
C916 C915 1.414 . S
C916 C917 1.374 . S
C917 H897 0.950 . S
C917 C913 1.385 . S
C917 C916 1.374 . S
C918 C915 1.499 . S
C918 C919 1.373 . S
C918 C920 1.389 . S
C919 H898 0.950 . S
C919 C918 1.373 . S
C919 C935 1.377 . S
C920 C918 1.389 . S
C920 C921 1.524 . S
C920 C934 1.377 . S
C921 C920 1.524 . S
C921 C922 1.397 . S
C921 C926 1.363 . S
C922 H899 0.950 . S
C922 C921 1.397 . S
C922 C923 1.334 . S
C923 H900 0.950 . S
C923 C922 1.334 . S
C923 C924 1.287 . S
C924 C923 1.287 . S
C924 C925 1.524 . S
C924 H943 0.913 . S
C925 H901 0.950 . S
C925 C924 1.524 . S
C925 C926 1.415 . S
C926 H902 0.950 . S
C926 C921 1.363 . S
C926 C925 1.415 . S
C927 H903 0.951 . S
C927 C928 1.366 . S
C927 C929 1.388 . S
C928 C927 1.366 . S
C928 C932 1.385 . S
C929 H904 0.951 . S
C929 C927 1.388 . S
C929 C930 1.366 . S
C930 C929 1.366 . S
C930 C931 1.414 . S
C930 C933 1.499 . S
C931 H905 0.950 . S
C931 C930 1.414 . S
C931 C932 1.374 . S
C932 H906 0.950 . S
C932 C928 1.385 . S
C932 C931 1.374 . S
C933 C930 1.499 . S
C933 C934 1.373 . S
C933 C935 1.389 . S
C934 H907 0.950 . S
C934 C920 1.377 . S
C934 C933 1.373 . S
C935 C919 1.377 . S
C935 C933 1.389 . S
C935 C936 1.524 . S
C936 C935 1.524 . S
C936 C937 1.397 . S
C936 C941 1.363 . S
C937 H908 0.950 . S
C937 C936 1.397 . S
C937 C938 1.334 . S
C938 H909 0.950 . S
C938 C937 1.334 . S
C938 C939 1.287 . S
C939 C938 1.287 . S
C939 C940 1.524 . S
C939 H942 0.999 . S
C940 H910 0.950 . S
C940 C939 1.524 . S
C940 C941 1.415 . S
C941 H911 0.950 . S
C941 C936 1.363 . S
C941 C940 1.415 . S
H942 C939 0.999 . S
H943 C924 0.913 . S
H944 C962 0.951 . S
H945 C964 0.951 . S
H946 C966 0.950 . S
H947 C967 0.950 . S
H948 C969 0.950 . S
H949 C972 0.950 . S
H950 C973 0.950 . S
H951 C975 0.950 . S
H952 C976 0.950 . S
H953 C977 0.951 . S
H954 C979 0.951 . S
H955 C981 0.950 . S
H956 C982 0.950 . S
H957 C984 0.950 . S
H958 C987 0.950 . S
H959 C988 0.950 . S
H960 C990 0.950 . S
H961 C991 0.950 . S
C962 H944 0.951 . S
C962 C963 1.366 . S
C962 C964 1.388 . S
C963 C962 1.366 . S
C963 C967 1.385 . S
C964 H945 0.951 . S
C964 C962 1.388 . S
C964 C965 1.366 . S
C965 C964 1.366 . S
C965 C966 1.414 . S
C965 C968 1.499 . S
C966 H946 0.950 . S
C966 C965 1.414 . S
C966 C967 1.374 . S
C967 H947 0.950 . S
C967 C963 1.385 . S
C967 C966 1.374 . S
C968 C965 1.499 . S
C968 C969 1.373 . S
C968 C970 1.389 . S
C969 H948 0.950 . S
C969 C968 1.373 . S
C969 C985 1.377 . S
C970 C968 1.389 . S
C970 C971 1.524 . S
C970 C984 1.377 . S
C971 C970 1.524 . S
C971 C972 1.397 . S
C971 C976 1.363 . S
C972 H949 0.950 . S
C972 C971 1.397 . S
C972 C973 1.334 . S
C973 H950 0.950 . S
C973 C972 1.334 . S
C973 C974 1.287 . S
C974 C973 1.287 . S
C974 C975 1.524 . S
C974 H993 0.913 . S
C975 H951 0.950 . S
C975 C974 1.524 . S
C975 C976 1.415 . S
C976 H952 0.950 . S
C976 C971 1.363 . S
C976 C975 1.415 . S
C977 H953 0.951 . S
C977 C978 1.366 . S
C977 C979 1.388 . S
C978 C977 1.366 . S
C978 C982 1.385 . S
C979 H954 0.951 . S
C979 C977 1.388 . S
C979 C980 1.366 . S
C980 C979 1.366 . S
C980 C981 1.414 . S
C980 C983 1.499 . S
C981 H955 0.950 . S
C981 C980 1.414 . S
C981 C982 1.374 . S
C982 H956 0.950 . S
C982 C978 1.385 . S
C982 C981 1.374 . S
C983 C980 1.499 . S
C983 C984 1.373 . S
C983 C985 1.389 . S
C984 H957 0.950 . S
C984 C970 1.377 . S
C984 C983 1.373 . S
C985 C969 1.377 . S
C985 C983 1.389 . S
C985 C986 1.524 . S
C986 C985 1.524 . S
C986 C987 1.397 . S
C986 C991 1.363 . S
C987 H958 0.950 . S
C987 C986 1.397 . S
C987 C988 1.334 . S
C988 H959 0.950 . S
C988 C987 1.334 . S
C988 C989 1.287 . S
C989 C988 1.287 . S
C989 C990 1.524 . S
C989 H992 0.999 . S
C990 H960 0.950 . S
C990 C989 1.524 . S
C990 C991 1.415 . S
C991 H961 0.950 . S
C991 C986 1.363 . S
C991 C990 1.415 . S
H992 C989 0.999 . S
H993 C974 0.913 . S
H994 C1012 0.951 . S
H995 C1014 0.951 . S
H996 C1016 0.950 . S
H997 C1017 0.950 . S
H998 C1019 0.950 . S
H999 C1022 0.950 . S
H1000 C1023 0.950 . S
H1001 C1025 0.950 . S
H1002 C1026 0.950 . S
H1003 C1027 0.951 . S
H1004 C1029 0.951 . S
H1005 C1031 0.950 . S
H1006 C1032 0.950 . S
H1007 C1034 0.950 . S
H1008 C1037 0.950 . S
H1009 C1038 0.950 . S
H1010 C1040 0.950 . S
H1011 C1041 0.950 . S
C1012 H994 0.951 . S
C1012 C1013 1.366 . S
C1012 C1014 1.388 . S
C1013 C1012 1.366 . S
C1013 C1017 1.385 . S
C1014 H995 0.951 . S
C1014 C1012 1.388 . S
C1014 C1015 1.366 . S
C1015 C1014 1.366 . S
C1015 C1016 1.414 . S
C1015 C1018 1.499 . S
C1016 H996 0.950 . S
C1016 C1015 1.414 . S
C1016 C1017 1.374 . S
C1017 H997 0.950 . S
C1017 C1013 1.385 . S
C1017 C1016 1.374 . S
C1018 C1015 1.499 . S
C1018 C1019 1.373 . S
C1018 C1020 1.389 . S
C1019 H998 0.950 . S
C1019 C1018 1.373 . S
C1019 C1035 1.377 . S
C1020 C1018 1.389 . S
C1020 C1021 1.524 . S
C1020 C1034 1.377 . S
C1021 C1020 1.524 . S
C1021 C1022 1.397 . S
C1021 C1026 1.363 . S
C1022 H999 0.950 . S
C1022 C1021 1.397 . S
C1022 C1023 1.334 . S
C1023 H1000 0.950 . S
C1023 C1022 1.334 . S
C1023 C1024 1.287 . S
C1024 C1023 1.287 . S
C1024 C1025 1.524 . S
C1024 H1043 0.913 . S
C1025 H1001 0.950 . S
C1025 C1024 1.524 . S
C1025 C1026 1.415 . S
C1026 H1002 0.950 . S
C1026 C1021 1.363 . S
C1026 C1025 1.415 . S
C1027 H1003 0.951 . S
C1027 C1028 1.366 . S
C1027 C1029 1.388 . S
C1028 C1027 1.366 . S
C1028 C1032 1.385 . S
C1029 H1004 0.951 . S
C1029 C1027 1.388 . S
C1029 C1030 1.366 . S
C1030 C1029 1.366 . S
C1030 C1031 1.414 . S
C1030 C1033 1.499 . S
C1031 H1005 0.950 . S
C1031 C1030 1.414 . S
C1031 C1032 1.374 . S
C1032 H1006 0.950 . S
C1032 C1028 1.385 . S
C1032 C1031 1.374 . S
C1033 C1030 1.499 . S
C1033 C1034 1.373 . S
C1033 C1035 1.389 . S
C1034 H1007 0.950 . S
C1034 C1020 1.377 . S
C1034 C1033 1.373 . S
C1035 C1019 1.377 . S
C1035 C1033 1.389 . S
C1035 C1036 1.524 . S
C1036 C1035 1.524 . S
C1036 C1037 1.397 . S
C1036 C1041 1.363 . S
C1037 H1008 0.950 . S
C1037 C1036 1.397 . S
C1037 C1038 1.334 . S
C1038 H1009 0.950 . S
C1038 C1037 1.334 . S
C1038 C1039 1.287 . S
C1039 C1038 1.287 . S
C1039 C1040 1.524 . S
C1039 H1042 0.999 . S
C1040 H1010 0.950 . S
C1040 C1039 1.524 . S
C1040 C1041 1.415 . S
C1041 H1011 0.950 . S
C1041 C1036 1.363 . S
C1041 C1040 1.415 . S
H1042 C1039 0.999 . S
H1043 C1024 0.913 . S
H1044 C1062 0.951 . S
H1045 C1064 0.951 . S
H1046 C1066 0.950 . S
H1047 C1067 0.950 . S
H1048 C1069 0.950 . S
H1049 C1072 0.950 . S
H1050 C1073 0.950 . S
H1051 C1075 0.950 . S
H1052 C1076 0.950 . S
H1053 C1077 0.951 . S
H1054 C1079 0.951 . S
H1055 C1081 0.950 . S
H1056 C1082 0.950 . S
H1057 C1084 0.950 . S
H1058 C1087 0.950 . S
H1059 C1088 0.950 . S
H1060 C1090 0.950 . S
H1061 C1091 0.950 . S
C1062 H1044 0.951 . S
C1062 C1063 1.366 . S
C1062 C1064 1.388 . S
C1063 C1062 1.366 . S
C1063 C1067 1.385 . S
C1064 H1045 0.951 . S
C1064 C1062 1.388 . S
C1064 C1065 1.366 . S
C1065 C1064 1.366 . S
C1065 C1066 1.414 . S
C1065 C1068 1.499 . S
C1066 H1046 0.950 . S
C1066 C1065 1.414 . S
C1066 C1067 1.374 . S
C1067 H1047 0.950 . S
C1067 C1063 1.385 . S
C1067 C1066 1.374 . S
C1068 C1065 1.499 . S
C1068 C1069 1.373 . S
C1068 C1070 1.389 . S
C1069 H1048 0.950 . S
C1069 C1068 1.373 . S
C1069 C1085 1.377 . S
C1070 C1068 1.389 . S
C1070 C1071 1.524 . S
C1070 C1084 1.377 . S
C1071 C1070 1.524 . S
C1071 C1072 1.397 . S
C1071 C1076 1.363 . S
C1072 H1049 0.950 . S
C1072 C1071 1.397 . S
C1072 C1073 1.334 . S
C1073 H1050 0.950 . S
C1073 C1072 1.334 . S
C1073 C1074 1.287 . S
C1074 C1073 1.287 . S
C1074 C1075 1.524 . S
C1074 H1093 0.913 . S
C1075 H1051 0.950 . S
C1075 C1074 1.524 . S
C1075 C1076 1.415 . S
C1076 H1052 0.950 . S
C1076 C1071 1.363 . S
C1076 C1075 1.415 . S
C1077 H1053 0.951 . S
C1077 C1078 1.366 . S
C1077 C1079 1.388 . S
C1078 C1077 1.366 . S
C1078 C1082 1.385 . S
C1079 H1054 0.951 . S
C1079 C1077 1.388 . S
C1079 C1080 1.366 . S
C1080 C1079 1.366 . S
C1080 C1081 1.414 . S
C1080 C1083 1.499 . S
C1081 H1055 0.950 . S
C1081 C1080 1.414 . S
C1081 C1082 1.374 . S
C1082 H1056 0.950 . S
C1082 C1078 1.385 . S
C1082 C1081 1.374 . S
C1083 C1080 1.499 . S
C1083 C1084 1.373 . S
C1083 C1085 1.389 . S
C1084 H1057 0.950 . S
C1084 C1070 1.377 . S
C1084 C1083 1.373 . S
C1085 C1069 1.377 . S
C1085 C1083 1.389 . S
C1085 C1086 1.524 . S
C1086 C1085 1.524 . S
C1086 C1087 1.397 . S
C1086 C1091 1.363 . S
C1087 H1058 0.950 . S
C1087 C1086 1.397 . S
C1087 C1088 1.334 . S
C1088 H1059 0.950 . S
C1088 C1087 1.334 . S
C1088 C1089 1.287 . S
C1089 C1088 1.287 . S
C1089 C1090 1.524 . S
C1089 H1092 0.999 . S
C1090 H1060 0.950 . S
C1090 C1089 1.524 . S
C1090 C1091 1.415 . S
C1091 H1061 0.950 . S
C1091 C1086 1.363 . S
C1091 C1090 1.415 . S
H1092 C1089 0.999 . S
H1093 C1074 0.913 . S
H1094 C1112 0.951 . S
H1095 C1114 0.951 . S
H1096 C1116 0.950 . S
H1097 C1117 0.950 . S
H1098 C1119 0.950 . S
H1099 C1122 0.950 . S
H1100 C1123 0.950 . S
H1101 C1125 0.950 . S
H1102 C1126 0.950 . S
H1103 C1127 0.951 . S
H1104 C1129 0.951 . S
H1105 C1131 0.950 . S
H1106 C1132 0.950 . S
H1107 C1134 0.950 . S
H1108 C1137 0.950 . S
H1109 C1138 0.950 . S
H1110 C1140 0.950 . S
H1111 C1141 0.950 . S
C1112 H1094 0.951 . S
C1112 C1113 1.366 . S
C1112 C1114 1.388 . S
C1113 C1112 1.366 . S
C1113 C1117 1.385 . S
C1114 H1095 0.951 . S
C1114 C1112 1.388 . S
C1114 C1115 1.366 . S
C1115 C1114 1.366 . S
C1115 C1116 1.414 . S
C1115 C1118 1.499 . S
C1116 H1096 0.950 . S
C1116 C1115 1.414 . S
C1116 C1117 1.374 . S
C1117 H1097 0.950 . S
C1117 C1113 1.385 . S
C1117 C1116 1.374 . S
C1118 C1115 1.499 . S
C1118 C1119 1.373 . S
C1118 C1120 1.389 . S
C1119 H1098 0.950 . S
C1119 C1118 1.373 . S
C1119 C1135 1.377 . S
C1120 C1118 1.389 . S
C1120 C1121 1.524 . S
C1120 C1134 1.377 . S
C1121 C1120 1.524 . S
C1121 C1122 1.397 . S
C1121 C1126 1.363 . S
C1122 H1099 0.950 . S
C1122 C1121 1.397 . S
C1122 C1123 1.334 . S
C1123 H1100 0.950 . S
C1123 C1122 1.334 . S
C1123 C1124 1.287 . S
C1124 C1123 1.287 . S
C1124 C1125 1.524 . S
C1124 H1143 0.913 . S
C1125 H1101 0.950 . S
C1125 C1124 1.524 . S
C1125 C1126 1.415 . S
C1126 H1102 0.950 . S
C1126 C1121 1.363 . S
C1126 C1125 1.415 . S
C1127 H1103 0.951 . S
C1127 C1128 1.366 . S
C1127 C1129 1.388 . S
C1128 C1127 1.366 . S
C1128 C1132 1.385 . S
C1129 H1104 0.951 . S
C1129 C1127 1.388 . S
C1129 C1130 1.366 . S
C1130 C1129 1.366 . S
C1130 C1131 1.414 . S
C1130 C1133 1.499 . S
C1131 H1105 0.950 . S
C1131 C1130 1.414 . S
C1131 C1132 1.374 . S
C1132 H1106 0.950 . S
C1132 C1128 1.385 . S
C1132 C1131 1.374 . S
C1133 C1130 1.499 . S
C1133 C1134 1.373 . S
C1133 C1135 1.389 . S
C1134 H1107 0.950 . S
C1134 C1120 1.377 . S
C1134 C1133 1.373 . S
C1135 C1119 1.377 . S
C1135 C1133 1.389 . S
C1135 C1136 1.524 . S
C1136 C1135 1.524 . S
C1136 C1137 1.397 . S
C1136 C1141 1.363 . S
C1137 H1108 0.950 . S
C1137 C1136 1.397 . S
C1137 C1138 1.334 . S
C1138 H1109 0.950 . S
C1138 C1137 1.334 . S
C1138 C1139 1.287 . S
C1139 C1138 1.287 . S
C1139 C1140 1.524 . S
C1139 H1142 0.999 . S
C1140 H1110 0.950 . S
C1140 C1139 1.524 . S
C1140 C1141 1.415 . S
C1141 H1111 0.950 . S
C1141 C1136 1.363 . S
C1141 C1140 1.415 . S
H1142 C1139 0.999 . S
H1143 C1124 0.913 . S
H1144 C1162 0.951 . S
H1145 C1164 0.951 . S
H1146 C1166 0.950 . S
H1147 C1167 0.950 . S
H1148 C1169 0.950 . S
H1149 C1172 0.950 . S
H1150 C1173 0.950 . S
H1151 C1175 0.950 . S
H1152 C1176 0.950 . S
H1153 C1177 0.951 . S
H1154 C1179 0.951 . S
H1155 C1181 0.950 . S
H1156 C1182 0.950 . S
H1157 C1184 0.950 . S
H1158 C1187 0.950 . S
H1159 C1188 0.950 . S
H1160 C1190 0.950 . S
H1161 C1191 0.950 . S
C1162 H1144 0.951 . S
C1162 C1163 1.366 . S
C1162 C1164 1.388 . S
C1163 C1162 1.366 . S
C1163 C1167 1.385 1_554 S
C1164 H1145 0.951 . S
C1164 C1162 1.388 . S
C1164 C1165 1.366 . S
C1165 C1164 1.366 . S
C1165 C1166 1.414 1_554 S
C1165 C1168 1.499 . S
C1166 H1146 0.950 . S
C1166 C1165 1.414 1_556 S
C1166 C1167 1.374 . S
C1167 H1147 0.950 . S
C1167 C1163 1.385 1_556 S
C1167 C1166 1.374 . S
C1168 C1165 1.499 . S
C1168 C1169 1.373 1_554 S
C1168 C1170 1.389 . S
C1169 H1148 0.950 . S
C1169 C1168 1.373 1_556 S
C1169 C1185 1.377 . S
C1170 C1168 1.389 . S
C1170 C1171 1.524 . S
C1170 C1184 1.377 . S
C1171 C1170 1.524 . S
C1171 C1172 1.397 . S
C1171 C1176 1.363 . S
C1172 H1149 0.950 . S
C1172 C1171 1.397 . S
C1172 C1173 1.334 . S
C1173 H1150 0.950 . S
C1173 C1172 1.334 . S
C1173 C1174 1.287 . S
C1174 C1173 1.287 . S
C1174 C1175 1.524 . S
C1174 H1193 0.913 . S
C1175 H1151 0.950 . S
C1175 C1174 1.524 . S
C1175 C1176 1.415 . S
C1176 H1152 0.950 . S
C1176 C1171 1.363 . S
C1176 C1175 1.415 . S
C1177 H1153 0.951 . S
C1177 C1178 1.366 1_556 S
C1177 C1179 1.388 . S
C1178 C1177 1.366 1_554 S
C1178 C1182 1.385 . S
C1179 H1154 0.951 . S
C1179 C1177 1.388 . S
C1179 C1180 1.367 1_556 S
C1180 C1179 1.367 1_554 S
C1180 C1181 1.413 . S
C1180 C1183 1.499 . S
C1181 H1155 0.950 . S
C1181 C1180 1.413 . S
C1181 C1182 1.374 . S
C1182 H1156 0.950 . S
C1182 C1178 1.385 . S
C1182 C1181 1.374 . S
C1183 C1180 1.499 . S
C1183 C1184 1.383 . S
C1183 C1185 1.380 1_554 S
C1184 H1157 0.950 . S
C1184 C1170 1.377 . S
C1184 C1183 1.383 . S
C1185 C1169 1.377 . S
C1185 C1183 1.380 1_556 S
C1185 C1186 1.524 . S
C1186 C1185 1.524 . S
C1186 C1187 1.397 . S
C1186 C1191 1.363 . S
C1187 H1158 0.950 . S
C1187 C1186 1.397 . S
C1187 C1188 1.334 . S
C1188 H1159 0.950 . S
C1188 C1187 1.334 . S
C1188 C1189 1.287 . S
C1189 C1188 1.287 . S
C1189 C1190 1.524 . S
C1189 H1192 0.999 . S
C1190 H1160 0.950 . S
C1190 C1189 1.524 . S
C1190 C1191 1.415 . S
C1191 H1161 0.950 . S
C1191 C1186 1.363 . S
C1191 C1190 1.415 . S
H1192 C1189 0.999 . S
H1193 C1174 0.913 . S
H1194 C1212 0.951 . S
H1195 C1214 0.951 . S
H1196 C1216 0.950 . S
H1197 C1217 0.950 . S
H1198 C1219 0.950 . S
H1199 C1222 0.950 . S
H1200 C1223 0.950 . S
H1201 C1225 0.950 . S
H1202 C1226 0.950 . S
H1203 C1227 0.951 . S
H1204 C1229 0.951 . S
H1205 C1231 0.950 . S
H1206 C1232 0.950 . S
H1207 C1234 0.950 . S
H1208 C1237 0.950 . S
H1209 C1238 0.950 . S
H1210 C1240 0.950 . S
H1211 C1241 0.950 . S
C1212 H1194 0.951 . S
C1212 C1213 1.366 . S
C1212 C1214 1.388 . S
C1213 C1212 1.366 . S
C1213 C1217 1.385 . S
C1214 H1195 0.951 . S
C1214 C1212 1.388 . S
C1214 C1215 1.366 . S
C1215 C1214 1.366 . S
C1215 C1216 1.414 . S
C1215 C1218 1.499 . S
C1216 H1196 0.950 . S
C1216 C1215 1.414 . S
C1216 C1217 1.374 . S
C1217 H1197 0.950 . S
C1217 C1213 1.385 . S
C1217 C1216 1.374 . S
C1218 C1215 1.499 . S
C1218 C1219 1.373 . S
C1218 C1220 1.389 . S
C1219 H1198 0.950 . S
C1219 C1218 1.373 . S
C1219 C1235 1.377 . S
C1220 C1218 1.389 . S
C1220 C1221 1.524 . S
C1220 C1234 1.377 . S
C1221 C1220 1.524 . S
C1221 C1222 1.397 . S
C1221 C1226 1.363 . S
C1222 H1199 0.950 . S
C1222 C1221 1.397 . S
C1222 C1223 1.334 . S
C1223 H1200 0.950 . S
C1223 C1222 1.334 . S
C1223 C1224 1.287 . S
C1224 C1223 1.287 . S
C1224 C1225 1.524 . S
C1224 H1243 0.913 . S
C1225 H1201 0.950 . S
C1225 C1224 1.524 . S
C1225 C1226 1.415 . S
C1226 H1202 0.950 . S
C1226 C1221 1.363 . S
C1226 C1225 1.415 . S
C1227 H1203 0.951 . S
C1227 C1228 1.366 . S
C1227 C1229 1.388 . S
C1228 C1227 1.366 . S
C1228 C1232 1.385 . S
C1229 H1204 0.951 . S
C1229 C1227 1.388 . S
C1229 C1230 1.366 . S
C1230 C1229 1.366 . S
C1230 C1231 1.414 . S
C1230 C1233 1.499 . S
C1231 H1205 0.950 . S
C1231 C1230 1.414 . S
C1231 C1232 1.374 . S
C1232 H1206 0.950 . S
C1232 C1228 1.385 . S
C1232 C1231 1.374 . S
C1233 C1230 1.499 . S
C1233 C1234 1.373 . S
C1233 C1235 1.389 . S
C1234 H1207 0.950 . S
C1234 C1220 1.377 . S
C1234 C1233 1.373 . S
C1235 C1219 1.377 . S
C1235 C1233 1.389 . S
C1235 C1236 1.524 . S
C1236 C1235 1.524 . S
C1236 C1237 1.397 . S
C1236 C1241 1.363 . S
C1237 H1208 0.950 . S
C1237 C1236 1.397 . S
C1237 C1238 1.334 . S
C1238 H1209 0.950 . S
C1238 C1237 1.334 . S
C1238 C1239 1.287 . S
C1239 C1238 1.287 . S
C1239 C1240 1.524 . S
C1239 H1242 0.999 . S
C1240 H1210 0.950 . S
C1240 C1239 1.524 . S
C1240 C1241 1.415 . S
C1241 H1211 0.950 . S
C1241 C1236 1.363 . S
C1241 C1240 1.415 . S
H1242 C1239 0.999 . S
H1243 C1224 0.913 . S
H1244 C1262 0.951 . S
H1245 C1264 0.951 . S
H1246 C1266 0.950 . S
H1247 C1267 0.950 . S
H1248 C1269 0.950 . S
H1249 C1272 0.950 . S
H1250 C1273 0.950 . S
H1251 C1275 0.950 . S
H1252 C1276 0.950 . S
H1253 C1277 0.951 . S
H1254 C1279 0.951 . S
H1255 C1281 0.950 . S
H1256 C1282 0.950 . S
H1257 C1284 0.950 . S
H1258 C1287 0.950 . S
H1259 C1288 0.950 . S
H1260 C1290 0.950 . S
H1261 C1291 0.950 . S
C1262 H1244 0.951 . S
C1262 C1263 1.366 . S
C1262 C1264 1.388 . S
C1263 C1262 1.366 . S
C1263 C1267 1.385 1_554 S
C1264 H1245 0.951 . S
C1264 C1262 1.388 . S
C1264 C1265 1.366 . S
C1265 C1264 1.366 . S
C1265 C1266 1.414 1_554 S
C1265 C1268 1.499 . S
C1266 H1246 0.950 . S
C1266 C1265 1.414 1_556 S
C1266 C1267 1.374 . S
C1267 H1247 0.950 . S
C1267 C1263 1.385 1_556 S
C1267 C1266 1.374 . S
C1268 C1265 1.499 . S
C1268 C1269 1.373 1_554 S
C1268 C1270 1.391 . S
C1269 H1248 0.950 . S
C1269 C1268 1.373 1_556 S
C1269 C1285 1.377 1_556 S
C1270 C1268 1.391 . S
C1270 C1271 1.524 . S
C1270 C1284 1.377 . S
C1271 C1270 1.524 . S
C1271 C1272 1.397 1_554 S
C1271 C1276 1.363 . S
C1272 H1249 0.950 . S
C1272 C1271 1.397 1_556 S
C1272 C1273 1.334 . S
C1273 H1250 0.950 . S
C1273 C1272 1.334 . S
C1273 C1274 1.287 . S
C1274 C1273 1.287 . S
C1274 C1275 1.524 1_556 S
C1274 H1293 0.913 . S
C1275 H1251 0.950 . S
C1275 C1274 1.524 1_554 S
C1275 C1276 1.415 . S
C1276 H1252 0.950 . S
C1276 C1271 1.363 . S
C1276 C1275 1.415 . S
C1277 H1253 0.951 . S
C1277 C1278 1.366 1_556 S
C1277 C1279 1.388 . S
C1278 C1277 1.366 1_554 S
C1278 C1282 1.385 . S
C1279 H1254 0.951 . S
C1279 C1277 1.388 . S
C1279 C1280 1.366 1_556 S
C1280 C1279 1.366 1_554 S
C1280 C1281 1.414 . S
C1280 C1283 1.499 . S
C1281 H1255 0.950 . S
C1281 C1280 1.414 . S
C1281 C1282 1.374 . S
C1282 H1256 0.950 . S
C1282 C1278 1.385 . S
C1282 C1281 1.374 . S
C1283 C1280 1.499 . S
C1283 C1284 1.373 . S
C1283 C1285 1.389 . S
C1284 H1257 0.950 . S
C1284 C1270 1.377 . S
C1284 C1283 1.373 . S
C1285 C1269 1.377 1_554 S
C1285 C1283 1.389 . S
C1285 C1286 1.524 . S
C1286 C1285 1.524 . S
C1286 C1287 1.397 . S
C1286 C1291 1.363 1_554 S
C1287 H1258 0.950 . S
C1287 C1286 1.397 . S
C1287 C1288 1.334 . S
C1288 H1259 0.950 . S
C1288 C1287 1.334 . S
C1288 C1289 1.287 . S
C1289 C1288 1.287 . S
C1289 C1290 1.524 1_554 S
C1289 H1292 0.999 . S
C1290 H1260 0.950 . S
C1290 C1289 1.524 1_556 S
C1290 C1291 1.415 . S
C1291 H1261 0.950 . S
C1291 C1286 1.363 1_556 S
C1291 C1290 1.415 . S
H1292 C1289 0.999 . S
H1293 C1274 0.913 . S
H1294 C1312 0.951 . S
H1295 C1314 0.951 . S
H1296 C1316 0.950 . S
H1297 C1317 0.950 . S
H1298 C1319 0.950 . S
H1299 C1322 0.950 . S
H1300 C1323 0.950 . S
H1301 C1325 0.950 . S
H1302 C1326 0.950 . S
H1303 C1327 0.951 . S
H1304 C1329 0.951 . S
H1305 C1331 0.950 . S
H1306 C1332 0.950 . S
H1307 C1334 0.950 . S
H1308 C1337 0.950 . S
H1309 C1338 0.950 . S
H1310 C1340 0.950 . S
H1311 C1341 0.950 . S
C1312 H1294 0.951 . S
C1312 C1313 1.366 . S
C1312 C1314 1.388 . S
C1313 C1312 1.366 . S
C1313 C1317 1.385 . S
C1314 H1295 0.951 . S
C1314 C1312 1.388 . S
C1314 C1315 1.366 . S
C1315 C1314 1.366 . S
C1315 C1316 1.414 . S
C1315 C1318 1.499 . S
C1316 H1296 0.950 . S
C1316 C1315 1.414 . S
C1316 C1317 1.374 . S
C1317 H1297 0.950 . S
C1317 C1313 1.385 . S
C1317 C1316 1.374 . S
C1318 C1315 1.499 . S
C1318 C1319 1.373 . S
C1318 C1320 1.389 . S
C1319 H1298 0.950 . S
C1319 C1318 1.373 . S
C1319 C1335 1.377 . S
C1320 C1318 1.389 . S
C1320 C1321 1.524 . S
C1320 C1334 1.377 . S
C1321 C1320 1.524 . S
C1321 C1322 1.397 . S
C1321 C1326 1.363 . S
C1322 H1299 0.950 . S
C1322 C1321 1.397 . S
C1322 C1323 1.334 . S
C1323 H1300 0.950 . S
C1323 C1322 1.334 . S
C1323 C1324 1.287 . S
C1324 C1323 1.287 . S
C1324 C1325 1.524 . S
C1324 H1343 0.913 . S
C1325 H1301 0.950 . S
C1325 C1324 1.524 . S
C1325 C1326 1.415 . S
C1326 H1302 0.950 . S
C1326 C1321 1.363 . S
C1326 C1325 1.415 . S
C1327 H1303 0.951 . S
C1327 C1328 1.366 . S
C1327 C1329 1.388 . S
C1328 C1327 1.366 . S
C1328 C1332 1.385 . S
C1329 H1304 0.951 . S
C1329 C1327 1.388 . S
C1329 C1330 1.366 . S
C1330 C1329 1.366 . S
C1330 C1331 1.414 . S
C1330 C1333 1.499 . S
C1331 H1305 0.950 . S
C1331 C1330 1.414 . S
C1331 C1332 1.374 . S
C1332 H1306 0.950 . S
C1332 C1328 1.385 . S
C1332 C1331 1.374 . S
C1333 C1330 1.499 . S
C1333 C1334 1.373 . S
C1333 C1335 1.389 . S
C1334 H1307 0.950 . S
C1334 C1320 1.377 . S
C1334 C1333 1.373 . S
C1335 C1319 1.377 . S
C1335 C1333 1.389 . S
C1335 C1336 1.524 . S
C1336 C1335 1.524 . S
C1336 C1337 1.397 . S
C1336 C1341 1.363 . S
C1337 H1308 0.950 . S
C1337 C1336 1.397 . S
C1337 C1338 1.334 . S
C1338 H1309 0.950 . S
C1338 C1337 1.334 . S
C1338 C1339 1.287 . S
C1339 C1338 1.287 . S
C1339 C1340 1.524 . S
C1339 H1342 0.999 . S
C1340 H1310 0.950 . S
C1340 C1339 1.524 . S
C1340 C1341 1.415 . S
C1341 H1311 0.950 . S
C1341 C1336 1.363 . S
C1341 C1340 1.415 . S
H1342 C1339 0.999 . S
H1343 C1324 0.913 . S
H1344 C1362 0.951 . S
H1345 C1364 0.951 . S
H1346 C1366 0.950 . S
H1347 C1367 0.950 . S
H1348 C1369 0.950 . S
H1349 C1372 0.950 . S
H1350 C1373 0.950 . S
H1351 C1375 0.950 . S
H1352 C1376 0.950 . S
H1353 C1377 0.951 . S
H1354 C1379 0.951 . S
H1355 C1381 0.950 . S
H1356 C1382 0.950 . S
H1357 C1384 0.950 . S
H1358 C1387 0.950 . S
H1359 C1388 0.950 . S
H1360 C1390 0.950 . S
H1361 C1391 0.950 . S
C1362 H1344 0.951 . S
C1362 C1363 1.366 . S
C1362 C1364 1.388 . S
C1363 C1362 1.366 . S
C1363 C1367 1.385 . S
C1364 H1345 0.951 . S
C1364 C1362 1.388 . S
C1364 C1365 1.366 . S
C1365 C1364 1.366 . S
C1365 C1366 1.414 . S
C1365 C1368 1.499 . S
C1366 H1346 0.950 . S
C1366 C1365 1.414 . S
C1366 C1367 1.374 . S
C1367 H1347 0.950 . S
C1367 C1363 1.385 . S
C1367 C1366 1.374 . S
C1368 C1365 1.499 . S
C1368 C1369 1.373 . S
C1368 C1370 1.389 . S
C1369 H1348 0.950 . S
C1369 C1368 1.373 . S
C1369 C1385 1.377 . S
C1370 C1368 1.389 . S
C1370 C1371 1.524 . S
C1370 C1384 1.377 . S
C1371 C1370 1.524 . S
C1371 C1372 1.397 . S
C1371 C1376 1.363 . S
C1372 H1349 0.950 . S
C1372 C1371 1.397 . S
C1372 C1373 1.334 . S
C1373 H1350 0.950 . S
C1373 C1372 1.334 . S
C1373 C1374 1.287 . S
C1374 C1373 1.287 . S
C1374 C1375 1.524 . S
C1374 H1393 0.913 . S
C1375 H1351 0.950 . S
C1375 C1374 1.524 . S
C1375 C1376 1.415 . S
C1376 H1352 0.950 . S
C1376 C1371 1.363 . S
C1376 C1375 1.415 . S
C1377 H1353 0.951 . S
C1377 C1378 1.366 . S
C1377 C1379 1.388 . S
C1378 C1377 1.366 . S
C1378 C1382 1.385 . S
C1379 H1354 0.951 . S
C1379 C1377 1.388 . S
C1379 C1380 1.366 . S
C1380 C1379 1.366 . S
C1380 C1381 1.414 . S
C1380 C1383 1.499 . S
C1381 H1355 0.950 . S
C1381 C1380 1.414 . S
C1381 C1382 1.374 . S
C1382 H1356 0.950 . S
C1382 C1378 1.385 . S
C1382 C1381 1.374 . S
C1383 C1380 1.499 . S
C1383 C1384 1.373 . S
C1383 C1385 1.389 . S
C1384 H1357 0.950 . S
C1384 C1370 1.377 . S
C1384 C1383 1.373 . S
C1385 C1369 1.377 . S
C1385 C1383 1.389 . S
C1385 C1386 1.524 . S
C1386 C1385 1.524 . S
C1386 C1387 1.397 . S
C1386 C1391 1.363 . S
C1387 H1358 0.950 . S
C1387 C1386 1.397 . S
C1387 C1388 1.334 . S
C1388 H1359 0.950 . S
C1388 C1387 1.334 . S
C1388 C1389 1.287 . S
C1389 C1388 1.287 . S
C1389 C1390 1.524 . S
C1389 H1392 0.999 . S
C1390 H1360 0.950 . S
C1390 C1389 1.524 . S
C1390 C1391 1.415 . S
C1391 H1361 0.950 . S
C1391 C1386 1.363 . S
C1391 C1390 1.415 . S
H1392 C1389 0.999 . S
H1393 C1374 0.913 . S
H1394 C1412 0.951 . S
H1395 C1414 0.951 . S
H1396 C1416 0.950 . S
H1397 C1417 0.950 . S
H1398 C1419 0.950 . S
H1399 C1422 0.950 . S
H1400 C1423 0.950 . S
H1401 C1425 0.943 1_554 S
H1402 C1426 0.968 . S
H1403 C1427 0.951 . S
H1404 C1429 0.951 . S
H1405 C1431 0.950 . S
H1406 C1432 0.950 . S
H1407 C1434 0.950 . S
H1408 C1437 0.950 . S
H1409 C1438 0.950 . S
H1410 C1440 0.950 . S
H1411 C1441 0.950 1_556 S
C1412 H1394 0.951 . S
C1412 C1413 1.366 . S
C1412 C1414 1.388 . S
C1413 C1412 1.366 . S
C1413 C1417 1.385 1_554 S
C1414 H1395 0.951 . S
C1414 C1412 1.388 . S
C1414 C1415 1.366 . S
C1415 C1414 1.366 . S
C1415 C1416 1.414 1_554 S
C1415 C1418 1.499 . S
C1416 H1396 0.950 . S
C1416 C1415 1.414 1_556 S
C1416 C1417 1.374 . S
C1417 H1397 0.950 . S
C1417 C1413 1.385 1_556 S
C1417 C1416 1.374 . S
C1418 C1415 1.499 . S
C1418 C1419 1.375 . S
C1418 C1420 1.388 1_554 S
C1419 H1398 0.950 . S
C1419 C1418 1.375 . S
C1419 C1435 1.377 . S
C1420 C1418 1.388 1_556 S
C1420 C1421 1.524 . S
C1420 C1434 1.377 . S
C1421 C1420 1.524 . S
C1421 C1422 1.397 . S
C1421 C1426 1.352 1_556 S
C1422 H1399 0.950 . S
C1422 C1421 1.397 . S
C1422 C1423 1.334 . S
C1423 H1400 0.950 . S
C1423 C1422 1.334 . S
C1423 C1424 1.287 . S
C1424 C1423 1.287 . S
C1424 C1425 1.524 . S
C1424 H1443 0.913 . S
C1425 H1401 0.943 1_556 S
C1425 C1424 1.524 . S
C1425 C1426 1.408 1_556 S
C1426 H1402 0.968 . S
C1426 C1421 1.352 1_554 S
C1426 C1425 1.408 1_554 S
C1427 H1403 0.951 . S
C1427 C1428 1.366 1_556 S
C1427 C1429 1.388 . S
C1428 C1427 1.366 1_554 S
C1428 C1432 1.385 . S
C1429 H1404 0.951 . S
C1429 C1427 1.388 . S
C1429 C1430 1.366 1_556 S
C1430 C1429 1.366 1_554 S
C1430 C1431 1.414 . S
C1430 C1433 1.499 . S
C1431 H1405 0.950 . S
C1431 C1430 1.414 . S
C1431 C1432 1.374 . S
C1432 H1406 0.950 . S
C1432 C1428 1.385 . S
C1432 C1431 1.374 . S
C1433 C1430 1.499 . S
C1433 C1434 1.373 1_554 S
C1433 C1435 1.389 . S
C1434 H1407 0.950 . S
C1434 C1420 1.377 . S
C1434 C1433 1.373 1_556 S
C1435 C1419 1.377 . S
C1435 C1433 1.389 . S
C1435 C1436 1.524 . S
C1436 C1435 1.524 . S
C1436 C1437 1.397 . S
C1436 C1441 1.363 . S
C1437 H1408 0.950 . S
C1437 C1436 1.397 . S
C1437 C1438 1.334 . S
C1438 H1409 0.950 . S
C1438 C1437 1.334 . S
C1438 C1439 1.287 . S
C1439 C1438 1.287 . S
C1439 C1440 1.524 . S
C1439 H1442 0.999 . S
C1440 H1410 0.950 . S
C1440 C1439 1.524 . S
C1440 C1441 1.415 . S
C1441 H1411 0.950 1_554 S
C1441 C1436 1.363 . S
C1441 C1440 1.415 . S
H1442 C1439 0.999 . S
H1443 C1424 0.913 . S
H1444 C1462 0.951 . S
H1445 C1464 0.951 . S
H1446 C1466 0.950 . S
H1447 C1467 0.950 . S
H1448 C1469 0.950 . S
H1449 C1472 0.950 . S
H1450 C1473 0.950 . S
H1451 C1475 0.950 . S
H1452 C1476 0.950 . S
H1453 C1477 0.951 . S
H1454 C1479 0.951 . S
H1455 C1481 0.950 . S
H1456 C1482 0.950 . S
H1457 C1484 0.950 . S
H1458 C1487 0.950 . S
H1459 C1488 0.950 . S
H1460 C1490 0.950 . S
H1461 C1491 0.950 . S
C1462 H1444 0.951 . S
C1462 C1463 1.366 . S
C1462 C1464 1.388 . S
C1463 C1462 1.366 . S
C1463 C1467 1.385 . S
C1464 H1445 0.951 . S
C1464 C1462 1.388 . S
C1464 C1465 1.366 . S
C1465 C1464 1.366 . S
C1465 C1466 1.414 . S
C1465 C1468 1.499 . S
C1466 H1446 0.950 . S
C1466 C1465 1.414 . S
C1466 C1467 1.374 . S
C1467 H1447 0.950 . S
C1467 C1463 1.385 . S
C1467 C1466 1.374 . S
C1468 C1465 1.499 . S
C1468 C1469 1.373 . S
C1468 C1470 1.389 . S
C1469 H1448 0.950 . S
C1469 C1468 1.373 . S
C1469 C1485 1.377 . S
C1470 C1468 1.389 . S
C1470 C1471 1.524 . S
C1470 C1484 1.377 . S
C1471 C1470 1.524 . S
C1471 C1472 1.397 . S
C1471 C1476 1.363 . S
C1472 H1449 0.950 . S
C1472 C1471 1.397 . S
C1472 C1473 1.334 . S
C1473 H1450 0.950 . S
C1473 C1472 1.334 . S
C1473 C1474 1.287 . S
C1474 C1473 1.287 . S
C1474 C1475 1.524 . S
C1474 H1493 0.913 . S
C1475 H1451 0.950 . S
C1475 C1474 1.524 . S
C1475 C1476 1.415 . S
C1476 H1452 0.950 . S
C1476 C1471 1.363 . S
C1476 C1475 1.415 . S
C1477 H1453 0.951 . S
C1477 C1478 1.366 . S
C1477 C1479 1.388 . S
C1478 C1477 1.366 . S
C1478 C1482 1.385 . S
C1479 H1454 0.951 . S
C1479 C1477 1.388 . S
C1479 C1480 1.366 . S
C1480 C1479 1.366 . S
C1480 C1481 1.414 . S
C1480 C1483 1.499 . S
C1481 H1455 0.950 . S
C1481 C1480 1.414 . S
C1481 C1482 1.374 . S
C1482 H1456 0.950 . S
C1482 C1478 1.385 . S
C1482 C1481 1.374 . S
C1483 C1480 1.499 . S
C1483 C1484 1.373 . S
C1483 C1485 1.389 . S
C1484 H1457 0.950 . S
C1484 C1470 1.377 . S
C1484 C1483 1.373 . S
C1485 C1469 1.377 . S
C1485 C1483 1.389 . S
C1485 C1486 1.524 . S
C1486 C1485 1.524 . S
C1486 C1487 1.397 . S
C1486 C1491 1.363 . S
C1487 H1458 0.950 . S
C1487 C1486 1.397 . S
C1487 C1488 1.334 . S
C1488 H1459 0.950 . S
C1488 C1487 1.334 . S
C1488 C1489 1.287 . S
C1489 C1488 1.287 . S
C1489 C1490 1.524 . S
C1489 H1492 0.999 . S
C1490 H1460 0.950 . S
C1490 C1489 1.524 . S
C1490 C1491 1.415 . S
C1491 H1461 0.950 . S
C1491 C1486 1.363 . S
C1491 C1490 1.415 . S
H1492 C1489 0.999 . S
H1493 C1474 0.913 . S
H1494 C1512 0.951 . S
H1495 C1514 0.951 . S
H1496 C1516 0.950 . S
H1497 C1517 0.950 . S
H1498 C1519 0.950 . S
H1499 C1522 0.950 . S
H1500 C1523 0.950 . S
H1501 C1525 0.950 . S
H1502 C1526 0.950 . S
H1503 C1527 0.951 . S
H1504 C1529 0.951 . S
H1505 C1531 0.950 . S
H1506 C1532 0.950 . S
H1507 C1534 0.950 . S
H1508 C1537 0.950 . S
H1509 C1538 0.950 . S
H1510 C1540 0.950 . S
H1511 C1541 0.950 . S
C1512 H1494 0.951 . S
C1512 C1513 1.366 1_556 S
C1512 C1514 1.388 . S
C1513 C1512 1.366 1_554 S
C1513 C1517 1.385 . S
C1514 H1495 0.951 . S
C1514 C1512 1.388 . S
C1514 C1515 1.366 1_556 S
C1515 C1514 1.366 1_554 S
C1515 C1516 1.414 . S
C1515 C1518 1.499 . S
C1516 H1496 0.950 . S
C1516 C1515 1.414 . S
C1516 C1517 1.374 . S
C1517 H1497 0.950 . S
C1517 C1513 1.385 . S
C1517 C1516 1.374 . S
C1518 C1515 1.499 . S
C1518 C1519 1.373 1_554 S
C1518 C1520 1.389 . S
C1519 H1498 0.950 . S
C1519 C1518 1.373 1_556 S
C1519 C1535 1.377 . S
C1520 C1518 1.389 . S
C1520 C1521 1.524 . S
C1520 C1534 1.377 . S
C1521 C1520 1.524 . S
C1521 C1522 1.397 . S
C1521 C1526 1.363 . S
C1522 H1499 0.950 . S
C1522 C1521 1.397 . S
C1522 C1523 1.334 . S
C1523 H1500 0.950 . S
C1523 C1522 1.334 . S
C1523 C1524 1.287 . S
C1524 C1523 1.287 . S
C1524 C1525 1.524 . S
C1524 H1543 0.913 . S
C1525 H1501 0.950 . S
C1525 C1524 1.524 . S
C1525 C1526 1.415 . S
C1526 H1502 0.950 . S
C1526 C1521 1.363 . S
C1526 C1525 1.415 . S
C1527 H1503 0.951 . S
C1527 C1528 1.366 . S
C1527 C1529 1.388 . S
C1528 C1527 1.366 . S
C1528 C1532 1.385 1_554 S
C1529 H1504 0.951 . S
C1529 C1527 1.388 . S
C1529 C1530 1.364 1_554 S
C1530 C1529 1.364 1_556 S
C1530 C1531 1.415 . S
C1530 C1533 1.498 . S
C1531 H1505 0.950 . S
C1531 C1530 1.415 . S
C1531 C1532 1.374 . S
C1532 H1506 0.950 . S
C1532 C1528 1.385 1_556 S
C1532 C1531 1.374 . S
C1533 C1530 1.498 . S
C1533 C1534 1.362 1_556 S
C1533 C1535 1.400 . S
C1534 H1507 0.950 . S
C1534 C1520 1.377 . S
C1534 C1533 1.362 1_554 S
C1535 C1519 1.377 . S
C1535 C1533 1.400 . S
C1535 C1536 1.524 . S
C1536 C1535 1.524 . S
C1536 C1537 1.397 . S
C1536 C1541 1.363 . S
C1537 H1508 0.950 . S
C1537 C1536 1.397 . S
C1537 C1538 1.334 . S
C1538 H1509 0.950 . S
C1538 C1537 1.334 . S
C1538 C1539 1.287 . S
C1539 C1538 1.287 . S
C1539 C1540 1.524 . S
C1539 H1542 0.999 . S
C1540 H1510 0.950 . S
C1540 C1539 1.524 . S
C1540 C1541 1.415 . S
C1541 H1511 0.950 . S
C1541 C1536 1.363 . S
C1541 C1540 1.415 . S
H1542 C1539 0.999 . S
H1543 C1524 0.913 . S
C363 C5 1.409 . S
C378 C201 1.425 . S
C413 C31 1.421 . S
C428 C117 1.381 . S
C478 C149 1.378 . S
C463 C53 1.415 . S
C513 C71 1.403 . S
C528 C169 1.419 . S
C578 C277 1.381 . S
C563 C75 1.421 . S
C628 C297 1.424 . S
C613 C9 1.409 . S
C678 C329 1.419 . S
C663 C27 1.403 . S
C728 C245 1.377 . S
C713 C49 1.415 . S
C763 C51 1.409 . S
C778 C137 1.383 . S
C813 C72 1.421 . S
C828 C181 1.431 . S
C863 C6 1.416 . S
C878 C213 1.427 . S
C928 C105 1.378 . S
C913 C29 1.403 . S
C963 C28 1.421 . S
C978 C341 1.431 . S
C1028 C233 1.382 . S
C1013 C50 1.409 . S
C1078 C265 1.378 . S
C1063 C73 1.404 . S
C1113 C7 1.416 . S
C1128 C309 1.427 . S
C1178 C111 1.436 . S
C1163 C4 1.480 . S
C1228 C143 1.437 . S
C1213 C30 1.480 . S
C1263 C52 1.479 . S
C1278 C175 1.482 . S
C1313 C70 1.480 . S
C1328 C207 1.482 . S
C1378 C239 1.437 . S
C1363 C74 1.479 . S
C1413 C8 1.480 . S
C1428 C271 1.436 . S
C1463 C26 1.480 . S
C1478 C303 1.483 . S
C1513 C48 1.480 . S
C1528 C335 1.482 . S
