# Generated by pormake.
# Topology zzz, (3,6)-cn, num edge types: 1
# Building blocks:
#     Node 0, Type 0, BuildingBlock: ESEHIV_clean_linker_0, # of connection points: 3
#     Node 1, Type 0, BuildingBlock: ESEHIV_clean_linker_0, # of connection points: 3
#     Node 2, Type 0, BuildingBlock: ESEHIV_clean_linker_0, # of connection points: 3
#     Node 3, Type 0, BuildingBlock: ESEHIV_clean_linker_0, # of connection points: 3
#     Node 4, Type 0, BuildingBlock: ESEHIV_clean_linker_0, # of connection points: 3
#     Node 5, Type 0, BuildingBlock: ESEHIV_clean_linker_0, # of connection points: 3
#     Node 6, Type 0, BuildingBlock: ESEHIV_clean_linker_0, # of connection points: 3
#     Node 7, Type 0, BuildingBlock: ESEHIV_clean_linker_0, # of connection points: 3
#     Node 8, Type 1, BuildingBlock: CUKXOW_clean_sbu_0, # of connection points: 6
#     Node 9, Type 1, BuildingBlock: CUKXOW_clean_sbu_0, # of connection points: 6
#     Node 10, Type 1, BuildingBlock: CUKXOW_clean_sbu_0, # of connection points: 6
#     Node 11, Type 1, BuildingBlock: CUKXOW_clean_sbu_0, # of connection points: 6
#     Edge 12, Type (0, 1), BuildingBlock: ZUJKAS_clean_linker_0, # of connection points: 2
#     Edge 13, Type (0, 1), BuildingBlock: ZUJKAS_clean_linker_0, # of connection points: 2
#     Edge 14, Type (0, 1), BuildingBlock: ZUJKAS_clean_linker_0, # of connection points: 2
#     Edge 15, Type (0, 1), BuildingBlock: ZUJKAS_clean_linker_0, # of connection points: 2
#     Edge 16, Type (0, 1), BuildingBlock: ZUJKAS_clean_linker_0, # of connection points: 2
#     Edge 17, Type (0, 1), BuildingBlock: ZUJKAS_clean_linker_0, # of connection points: 2
#     Edge 18, Type (0, 1), BuildingBlock: ZUJKAS_clean_linker_0, # of connection points: 2
#     Edge 19, Type (0, 1), BuildingBlock: ZUJKAS_clean_linker_0, # of connection points: 2
#     Edge 20, Type (0, 1), BuildingBlock: ZUJKAS_clean_linker_0, # of connection points: 2
#     Edge 21, Type (0, 1), BuildingBlock: ZUJKAS_clean_linker_0, # of connection points: 2
#     Edge 22, Type (0, 1), BuildingBlock: ZUJKAS_clean_linker_0, # of connection points: 2
#     Edge 23, Type (0, 1), BuildingBlock: ZUJKAS_clean_linker_0, # of connection points: 2
#     Edge 24, Type (0, 1), BuildingBlock: ZUJKAS_clean_linker_0, # of connection points: 2
#     Edge 25, Type (0, 1), BuildingBlock: ZUJKAS_clean_linker_0, # of connection points: 2
#     Edge 26, Type (0, 1), BuildingBlock: ZUJKAS_clean_linker_0, # of connection points: 2
#     Edge 27, Type (0, 1), BuildingBlock: ZUJKAS_clean_linker_0, # of connection points: 2
#     Edge 28, Type (0, 1), BuildingBlock: ZUJKAS_clean_linker_0, # of connection points: 2
#     Edge 29, Type (0, 1), BuildingBlock: ZUJKAS_clean_linker_0, # of connection points: 2
#     Edge 30, Type (0, 1), BuildingBlock: ZUJKAS_clean_linker_0, # of connection points: 2
#     Edge 31, Type (0, 1), BuildingBlock: ZUJKAS_clean_linker_0, # of connection points: 2
#     Edge 32, Type (0, 1), BuildingBlock: ZUJKAS_clean_linker_0, # of connection points: 2
#     Edge 33, Type (0, 1), BuildingBlock: ZUJKAS_clean_linker_0, # of connection points: 2
#     Edge 34, Type (0, 1), BuildingBlock: ZUJKAS_clean_linker_0, # of connection points: 2
#     Edge 35, Type (0, 1), BuildingBlock: ZUJKAS_clean_linker_0, # of connection points: 2
# Relax obj value: 0.214
# Max RMSD: 0.230
# Mean RMSD: 0.186
data_MOF--net-zzz--node1-CUKXOW_clean_sbu_0--node2-ESEHIV_clean_linker_0--edge1-ZUJKAS_clean_linker_0
_symmetry_space_group_name_H-M    P1
_symmetry_Int_Tables_number       1
_symmetry_cell_setting            triclinic
loop_
_symmetry_equiv_pos_as_xyz
'x, y, z'
_cell_length_a     59.267966
_cell_length_b     57.923554
_cell_length_c     20.7756
_cell_angle_alpha  92.56934
_cell_angle_beta   88.353223
_cell_angle_gamma 95.441112
loop_
_atom_site_label
_atom_site_type_symbol
_atom_site_fract_x
_atom_site_fract_y
_atom_site_fract_z
_atom_type_partial_charge
H0 H 0.803 0.45724 0.14767 0.0
H1 H 0.75572 0.45 0.99406 0.0
H2 H 0.73253 0.46465 0.18943 0.0
C3 C 0.78576 0.45705 0.13128 0.0
C4 C 0.76827 0.46093 0.17602 0.0
C5 C 0.78133 0.45308 0.06579 0.0
C6 C 0.75908 0.45292 0.04495 0.0
C7 C 0.74129 0.45732 0.08891 0.0
C8 C 0.74595 0.46099 0.15502 0.0
H9 H 0.90595 0.80153 0.10291 0.0
H10 H 0.92051 0.74787 0.96397 0.0
H11 H 0.90712 0.73177 0.16319 0.0
C12 C 0.90715 0.78326 0.091 0.0
C13 C 0.90461 0.76725 0.13994 0.0
C14 C 0.91351 0.77649 0.02808 0.0
C15 C 0.91569 0.753 0.01284 0.0
C16 C 0.91354 0.73654 0.06121 0.0
C17 C 0.90786 0.74388 0.12478 0.0
H18 H 0.69423 0.97902 0.17473 0.0
H19 H 0.74493 0.97626 0.02357 0.0
H20 H 0.76352 0.97329 0.22221 0.0
C21 C 0.71165 0.9773 0.15921 0.0
C22 C 0.72809 0.97585 0.20556 0.0
C23 C 0.71755 0.97744 0.09356 0.0
C24 C 0.74022 0.9758 0.07435 0.0
C25 C 0.75695 0.9742 0.12027 0.0
C26 C 0.75079 0.97427 0.18626 0.0
H27 H 0.58418 0.70904 0.18254 0.0
H28 H 0.59891 0.7791 0.25629 0.0
H29 H 0.58525 0.76512 0.0544 0.0
C30 C 0.58731 0.72741 0.17383 0.0
C31 C 0.58486 0.73519 0.11187 0.0
C32 C 0.59226 0.7431 0.22585 0.0
C33 C 0.59546 0.76699 0.21571 0.0
C34 C 0.59322 0.77517 0.1535 0.0
C35 C 0.5879 0.75907 0.10196 0.0
H36 H 0.21025 0.56552 0.23063 0.0
H37 H 0.25763 0.57141 0.38404 0.0
H38 H 0.28062 0.55794 0.18807 0.0
C39 C 0.22752 0.56576 0.24676 0.0
C40 C 0.24492 0.5619 0.20163 0.0
C41 C 0.23189 0.56886 0.31258 0.0
C42 C 0.25424 0.56937 0.33299 0.0
C43 C 0.27203 0.5656 0.28849 0.0
C44 C 0.26719 0.56138 0.22266 0.0
H45 H 0.10013 0.20357 0.27947 0.0
H46 H 0.09241 0.26391 0.40274 0.0
H47 H 0.10605 0.27104 0.19942 0.0
C48 C 0.10109 0.2223 0.28655 0.0
C49 C 0.10465 0.23617 0.23286 0.0
C50 C 0.09636 0.23209 0.34783 0.0
C51 C 0.09642 0.25626 0.3557 0.0
C52 C 0.10011 0.27048 0.30257 0.0
C53 C 0.10394 0.2603 0.24096 0.0
H54 H 0.31482 0.01871 0.18433 0.0
H55 H 0.26657 0.01595 0.34202 0.0
H56 H 0.24442 0.0222 0.1474 0.0
C57 C 0.29746 0.01889 0.20233 0.0
C58 C 0.28023 0.02109 0.15907 0.0
C59 C 0.29263 0.01673 0.26809 0.0
C60 C 0.2702 0.01739 0.29088 0.0
C61 C 0.25246 0.01915 0.24796 0.0
C62 C 0.25771 0.02122 0.1816 0.0
H63 H 0.41891 0.29643 0.17776 0.0
H64 H 0.40997 0.22445 0.11542 0.0
H65 H 0.43937 0.24476 0.29961 0.0
C66 C 0.42013 0.27832 0.18728 0.0
C67 C 0.4301 0.27262 0.24393 0.0
C68 C 0.41276 0.26113 0.14102 0.0
C69 C 0.41496 0.23771 0.15207 0.0
C70 C 0.42438 0.23165 0.2098 0.0
C71 C 0.43173 0.24924 0.2556 0.0
Tb72 Tb 0.99012 0.98527 0.62827 0.0
C73 C 0.03909 0.00612 0.59162 0.0
Tb74 Tb 0.01453 0.02162 0.7237 0.0
O75 O 0.98881 0.01135 0.5559 0.0
O76 O 0.98921 0.02085 0.65395 0.0
O77 O 0.02346 0.9884 0.58179 0.0
C78 C 0.03602 0.05927 0.78082 0.0
O79 O 0.03771 0.02198 0.63957 0.0
C80 C 0.01402 0.97807 0.75345 0.0
C81 C 0.96546 0.00084 0.76014 0.0
O82 O 0.04352 0.03892 0.77541 0.0
O83 O 0.01632 0.05835 0.75472 0.0
O84 O 0.01518 0.99531 0.79585 0.0
O85 O 0.01536 0.98612 0.69807 0.0
O86 O 0.98093 0.01878 0.7694 0.0
O87 O 0.96695 0.98502 0.71216 0.0
C88 C 0.97018 0.94606 0.57532 0.0
O89 O 0.96217 0.96618 0.57537 0.0
O90 O 0.98946 0.9482 0.60385 0.0
C91 C 0.99027 0.02865 0.59821 0.0
Tb92 Tb 0.50286 0.02262 0.63884 0.0
C93 C 0.54514 0.99462 0.6218 0.0
Tb94 Tb 0.50971 0.98608 0.73949 0.0
O95 O 0.53366 0.0435 0.66977 0.0
O96 O 0.51455 0.02253 0.73378 0.0
O97 O 0.53073 0.00628 0.59118 0.0
C98 C 0.52601 0.95998 0.82645 0.0
O99 O 0.54116 0.98743 0.6813 0.0
C100 C 0.47976 0.97345 0.65127 0.0
C101 C 0.46741 0.01401 0.75667 0.0
O102 O 0.51936 0.95282 0.76941 0.0
O103 O 0.52311 0.98184 0.83518 0.0
O104 O 0.47883 0.96528 0.70864 0.0
O105 O 0.49802 0.9862 0.64473 0.0
O106 O 0.48178 0.00226 0.78714 0.0
O107 O 0.47148 0.02143 0.69742 0.0
C108 C 0.48625 0.04794 0.55043 0.0
O109 O 0.49326 0.05566 0.60668 0.0
O110 O 0.48901 0.02601 0.54336 0.0
C111 C 0.53278 0.03534 0.72718 0.0
Tb112 Tb 0.51982 0.51933 0.65558 0.0
C113 C 0.46651 0.51909 0.63689 0.0
Tb114 Tb 0.48599 0.48759 0.73616 0.0
O115 O 0.53012 0.48909 0.59854 0.0
O116 O 0.49755 0.48925 0.63962 0.0
O117 O 0.48673 0.53127 0.63412 0.0
C118 C 0.46371 0.44884 0.77877 0.0
O119 O 0.4632 0.4992 0.66679 0.0
C120 C 0.49518 0.53 0.78283 0.0
C121 C 0.53979 0.48795 0.7558 0.0
O122 O 0.459 0.4698 0.7953 0.0
O123 O 0.48105 0.44981 0.73917 0.0
O124 O 0.47627 0.51763 0.79623 0.0
O125 O 0.50817 0.51748 0.7519 0.0
O126 O 0.5189 0.47821 0.76836 0.0
O127 O 0.54407 0.50536 0.71625 0.0
C128 C 0.54311 0.55687 0.6088 0.0
O129 O 0.53809 0.55373 0.66905 0.0
O130 O 0.53513 0.53876 0.5746 0.0
C131 C 0.51101 0.47676 0.61013 0.0
Tb132 Tb 0.98545 0.50117 0.65046 0.0
C133 C 0.0246 0.47226 0.59953 0.0
Tb134 Tb 0.02858 0.50205 0.73294 0.0
O135 O 0.00525 0.51947 0.57464 0.0
O136 O 0.0143 0.52432 0.671 0.0
O137 O 0.00251 0.47442 0.59773 0.0
C138 C 0.07088 0.50791 0.7763 0.0
O139 O 0.03804 0.48343 0.64337 0.0
C140 C 0.99398 0.47396 0.76973 0.0
C141 C 0.9891 0.53095 0.78378 0.0
O142 O 0.05808 0.48843 0.77402 0.0
O143 O 0.05977 0.52408 0.75477 0.0
O144 O 0.00936 0.48326 0.80881 0.0
O145 O 0.99973 0.47895 0.71285 0.0
O146 O 0.01099 0.52802 0.78799 0.0
O147 O 0.97595 0.52066 0.73806 0.0
C148 C 0.94337 0.49587 0.60524 0.0
O149 O 0.95769 0.51406 0.59889 0.0
O150 O 0.9528 0.48066 0.63663 0.0
C151 C 0.02028 0.52913 0.61423 0.0
H152 H 0.21733 0.04273 0.20848 0.0
H153 H 0.17842 0.0407 0.25206 0.0
H154 H 0.19497 0.99145 0.38901 0.0
H155 H 0.23307 0.99194 0.34274 0.0
H156 H 0.15525 0.97876 0.34247 0.0
H157 H 0.1586 0.07239 0.41571 0.0
H158 H 0.16309 0.06685 0.33089 0.0
H159 H 0.18333 0.05887 0.38686 0.0
C160 C 0.2126 0.03123 0.2473 0.0
C161 C 0.22855 0.01782 0.27276 0.0
C162 C 0.19041 0.03035 0.27281 0.0
C163 C 0.18389 0.01638 0.32498 0.0
C164 C 0.19961 0.00255 0.3492 0.0
H165 H 0.08067 0.02834 0.61668 0.0
H166 H 0.11432 0.0308 0.54593 0.0
C167 C 0.22157 0.00311 0.32315 0.0
C168 C 0.16084 0.01594 0.35523 0.0
H169 H 0.12413 0.04977 0.43546 0.0
C170 C 0.14839 0.99431 0.36262 0.0
C171 C 0.15199 0.03622 0.38199 0.0
C172 C 0.165 0.05987 0.3791 0.0
C173 C 0.1278 0.99224 0.39784 0.0
C174 C 0.11886 0.01253 0.42419 0.0
C175 C 0.13093 0.03425 0.41498 0.0
C176 C 0.09795 0.01153 0.46559 0.0
C177 C 0.11652 0.96823 0.40915 0.0
C178 C 0.0774 0.00018 0.44381 0.0
C179 C 0.05824 0.9983 0.48481 0.0
C180 C 0.05914 0.00831 0.54768 0.0
C181 C 0.07946 0.02043 0.56851 0.0
C182 C 0.0987 0.02189 0.52802 0.0
H183 H 0.12855 0.95473 0.40122 0.0
H184 H 0.10932 0.96703 0.45895 0.0
H185 H 0.10254 0.96421 0.37486 0.0
H186 H 0.07618 0.99269 0.39521 0.0
H187 H 0.04267 0.98921 0.4671 0.0
H188 H 0.39358 0.19331 0.19747 0.0
H189 H 0.39797 0.15402 0.23281 0.0
H190 H 0.46666 0.17613 0.28674 0.0
H191 H 0.46256 0.2149 0.25032 0.0
H192 H 0.46158 0.13131 0.22855 0.0
H193 H 0.39796 0.14333 0.42735 0.0
H194 H 0.38907 0.14566 0.34605 0.0
H195 H 0.40967 0.16715 0.38004 0.0
C196 C 0.40972 0.18956 0.21568 0.0
C197 C 0.42761 0.2072 0.22227 0.0
C198 C 0.41216 0.16722 0.23622 0.0
C199 C 0.43251 0.16232 0.26342 0.0
C200 C 0.45077 0.17956 0.26618 0.0
H201 H 0.48188 0.09407 0.5599 0.0
H202 H 0.46509 0.11753 0.48254 0.0
C203 C 0.44836 0.20176 0.24583 0.0
C204 C 0.43472 0.14011 0.29434 0.0
H205 H 0.42012 0.11225 0.43295 0.0
C206 C 0.45217 0.12672 0.27241 0.0
C207 C 0.42243 0.13432 0.3517 0.0
C208 C 0.4038 0.14835 0.3782 0.0
C209 C 0.4587 0.10869 0.30863 0.0
C210 C 0.44728 0.10382 0.36784 0.0
C211 C 0.4288 0.1161 0.38745 0.0
C212 C 0.45643 0.08883 0.41467 0.0
C213 C 0.47883 0.09614 0.28581 0.0
C214 C 0.45697 0.06486 0.40227 0.0
C215 C 0.46673 0.05141 0.4464 0.0
C216 C 0.47597 0.0618 0.50344 0.0
C217 C 0.47501 0.08567 0.51613 0.0
C218 C 0.46533 0.09906 0.47214 0.0
H219 H 0.48733 0.10376 0.24227 0.0
H220 H 0.49141 0.09662 0.32455 0.0
H221 H 0.47315 0.07767 0.27398 0.0
H222 H 0.44989 0.05661 0.35858 0.0
H223 H 0.46703 0.03295 0.43601 0.0
H224 H 0.301 0.53211 0.2624 0.0
H225 H 0.33638 0.52754 0.31697 0.0
H226 H 0.3306 0.59235 0.42391 0.0
H227 H 0.29512 0.5968 0.37034 0.0
H228 H 0.37809 0.55411 0.33198 0.0
H229 H 0.33054 0.54564 0.56525 0.0
H230 H 0.31658 0.54489 0.48908 0.0
H231 H 0.32745 0.57216 0.52629 0.0
C232 C 0.30754 0.54559 0.29659 0.0
C233 C 0.29521 0.56467 0.31275 0.0
C234 C 0.3277 0.54293 0.32788 0.0
C235 C 0.33582 0.55934 0.37557 0.0
C236 C 0.32434 0.5792 0.38844 0.0
H237 H 0.46586 0.55844 0.56789 0.0
H238 H 0.4348 0.56954 0.50402 0.0
C239 C 0.30414 0.58176 0.35767 0.0
C240 C 0.35542 0.55498 0.41468 0.0
H241 H 0.37038 0.54623 0.56862 0.0
C242 C 0.37647 0.55244 0.38374 0.0
C243 C 0.35315 0.55248 0.48211 0.0
C244 C 0.33068 0.55371 0.51769 0.0
C245 C 0.39533 0.54752 0.41849 0.0
C246 C 0.39313 0.54548 0.4861 0.0
C247 C 0.37209 0.54805 0.51691 0.0
C248 C 0.412 0.53928 0.52549 0.0
C249 C 0.41723 0.54385 0.38231 0.0
C250 C 0.40923 0.519 0.56045 0.0
C251 C 0.42678 0.51275 0.59751 0.0
C252 C 0.44755 0.52667 0.60051 0.0
C253 C 0.45015 0.54725 0.56641 0.0
C254 C 0.43248 0.55354 0.52943 0.0
H255 H 0.4146 0.54059 0.32982 0.0
H256 H 0.42923 0.55963 0.3888 0.0
H257 H 0.42519 0.52899 0.40105 0.0
H258 H 0.39353 0.5078 0.55841 0.0
H259 H 0.42412 0.4968 0.62305 0.0
H260 H 0.07347 0.29604 0.23472 0.0
H261 H 0.06343 0.33541 0.26297 0.0
H262 H 0.10979 0.34035 0.42028 0.0
H263 H 0.11986 0.30105 0.3923 0.0
H264 H 0.04452 0.34404 0.39099 0.0
H265 H 0.11991 0.40514 0.33724 0.0
H266 H 0.11506 0.37677 0.29738 0.0
H267 H 0.12568 0.37962 0.37772 0.0
C268 C 0.08205 0.30584 0.27397 0.0
C269 C 0.0974 0.29556 0.31148 0.0
C270 C 0.07626 0.32825 0.29014 0.0
C271 C 0.08603 0.34081 0.34329 0.0
C272 C 0.10235 0.33108 0.37843 0.0
H273 H 0.06512 0.45376 0.6065 0.0
H274 H 0.07963 0.42354 0.53551 0.0
C275 C 0.10797 0.30862 0.36272 0.0
C276 C 0.07682 0.36239 0.36823 0.0
H277 H 0.09165 0.41942 0.40883 0.0
C278 C 0.05463 0.36066 0.39393 0.0
C279 C 0.09022 0.38387 0.37251 0.0
C280 C 0.114 0.38663 0.34431 0.0
C281 C 0.04578 0.37959 0.42678 0.0
C282 C 0.05931 0.40107 0.43217 0.0
C283 C 0.08129 0.40299 0.40448 0.0
C284 C 0.05151 0.42114 0.47056 0.0
C285 C 0.02254 0.37595 0.45851 0.0
C286 C 0.03122 0.43035 0.45652 0.0
C287 C 0.02267 0.44737 0.49768 0.0
C288 C 0.03452 0.45581 0.55284 0.0
C289 C 0.05551 0.44756 0.56458 0.0
C290 C 0.06387 0.43032 0.52393 0.0
H291 H 0.01696 0.35724 0.46349 0.0
H292 H 0.02224 0.38473 0.5071 0.0
H293 H 0.01004 0.38336 0.42856 0.0
H294 H 0.02172 0.42399 0.41458 0.0
H295 H 0.00664 0.45366 0.48672 0.0
H296 H 0.77367 0.94608 0.02583 0.0
H297 H 0.81176 0.94953 0.97668 0.0
H298 H 0.83199 0.00545 0.11325 0.0
H299 H 0.7939 0.00177 0.1633 0.0
H300 H 0.82909 0.98894 0.91903 0.0
H301 H 0.8866 0.9675 0.10966 0.0
H302 H 0.85633 0.95996 0.11402 0.0
H303 H 0.86789 0.98915 0.13367 0.0
C304 C 0.78641 0.95877 0.04617 0.0
C305 C 0.78088 0.97371 0.09817 0.0
C306 C 0.80813 0.96073 0.01814 0.0
C307 C 0.82475 0.97768 0.04144 0.0
C308 C 0.81958 0.99195 0.09527 0.0
H309 H 0.95332 0.03041 0.85973 0.0
H310 H 0.91989 0.02529 0.93196 0.0
C311 C 0.79783 0.98987 0.12375 0.0
C312 C 0.84646 0.98195 0.00475 0.0
H313 H 0.90403 0.98298 0.01431 0.0
C314 C 0.84546 0.98756 0.93991 0.0
C315 C 0.8678 0.98036 0.03224 0.0
C316 C 0.86982 0.97373 0.10107 0.0
C317 C 0.86517 0.99147 0.90166 0.0
C318 C 0.88645 0.98959 0.92881 0.0
C319 C 0.8876 0.98442 0.99389 0.0
C320 C 0.9075 0.992 0.88889 0.0
C321 C 0.86316 0.99759 0.83232 0.0
C322 C 0.91165 0.97477 0.84172 0.0
C323 C 0.93059 0.97761 0.80044 0.0
C324 C 0.94577 0.9978 0.80552 0.0
C325 C 0.94189 0.01475 0.85419 0.0
C326 C 0.92288 0.01185 0.89564 0.0
H327 H 0.84607 0.00275 0.82232 0.0
H328 H 0.87605 0.01198 0.81981 0.0
H329 H 0.86627 0.98228 0.80038 0.0
H330 H 0.90003 0.95924 0.83627 0.0
H331 H 0.93318 0.964 0.76429 0.0
H332 H 0.5741 0.80862 0.22858 0.0
H333 H 0.56769 0.84766 0.19727 0.0
H334 H 0.60593 0.83725 0.02034 0.0
H335 H 0.61327 0.79868 0.05253 0.0
H336 H 0.61034 0.88372 0.06813 0.0
H337 H 0.52022 0.8465 0.05789 0.0
H338 H 0.53308 0.84687 0.13518 0.0
H339 H 0.54305 0.82882 0.06981 0.0
C340 C 0.58186 0.81496 0.18415 0.0
C341 C 0.59379 0.80038 0.14234 0.0
C342 C 0.57801 0.83721 0.16608 0.0
C343 C 0.58583 0.84507 0.10574 0.0
C344 C 0.59958 0.83144 0.06689 0.0
H345 H 0.53105 0.91412 0.81182 0.0
H346 H 0.54677 0.88943 0.88804 0.0
C347 C 0.60359 0.80932 0.08509 0.0
C348 C 0.57709 0.86557 0.07836 0.0
H349 H 0.52903 0.88322 0.01713 0.0
C350 C 0.59251 0.8839 0.05798 0.0
C351 C 0.55382 0.86554 0.06447 0.0
C352 C 0.53655 0.84585 0.08242 0.0
C353 C 0.58537 0.90176 0.02199 0.0
C354 C 0.56225 0.90123 0.00657 0.0
C355 C 0.54673 0.88353 0.02942 0.0
C356 C 0.55409 0.91702 0.96025 0.0
C357 C 0.60268 0.92032 0.99751 0.0
C358 C 0.55307 0.94075 0.97569 0.0
C359 C 0.54399 0.95493 0.93206 0.0
C360 C 0.53581 0.94547 0.87276 0.0
C361 C 0.53714 0.92182 0.85731 0.0
C362 C 0.54614 0.90772 0.90073 0.0
H363 H 0.6203 0.91689 0.00805 0.0
H364 H 0.60123 0.92162 0.94465 0.0
H365 H 0.59937 0.93737 0.02052 0.0
H366 H 0.55891 0.94817 0.02171 0.0
H367 H 0.54323 0.97319 0.94482 0.0
H368 H 0.73062 0.4812 0.98617 0.0
H369 H 0.69362 0.48202 0.93836 0.0
H370 H 0.66292 0.43878 0.08681 0.0
H371 H 0.70022 0.43787 0.13527 0.0
H372 H 0.6664 0.44227 0.89183 0.0
H373 H 0.62165 0.49263 0.08237 0.0
H374 H 0.65215 0.49274 0.07857 0.0
H375 H 0.63497 0.46791 0.10704 0.0
C376 C 0.716 0.47188 0.00881 0.0
C377 C 0.71834 0.45926 0.06409 0.0
C378 C 0.69487 0.47243 0.98153 0.0
C379 C 0.67554 0.46049 0.00902 0.0
C380 C 0.67761 0.44834 0.06528 0.0
H381 H 0.53807 0.45893 0.85723 0.0
H382 H 0.56986 0.44895 0.92017 0.0
C383 C 0.69887 0.44782 0.09287 0.0
C384 C 0.65362 0.46018 0.97629 0.0
H385 H 0.60168 0.48124 0.9881 0.0
C386 C 0.65215 0.45058 0.91312 0.0
C387 C 0.63502 0.47088 0.00438 0.0
C388 C 0.63591 0.48179 0.07167 0.0
C389 C 0.63288 0.45205 0.87648 0.0
C390 C 0.61472 0.46371 0.90341 0.0
C391 C 0.61569 0.47237 0.9676 0.0
C392 C 0.59549 0.46877 0.86397 0.0
C393 C 0.63224 0.44142 0.80884 0.0
C394 C 0.5994 0.48325 0.81169 0.0
C395 C 0.58136 0.48903 0.77578 0.0
C396 C 0.55896 0.48048 0.79151 0.0
C397 C 0.55511 0.46573 0.84354 0.0
C398 C 0.57322 0.46005 0.87973 0.0
H399 H 0.64403 0.42764 0.80218 0.0
H400 H 0.61487 0.43388 0.79685 0.0
H401 H 0.63752 0.45508 0.77426 0.0
H402 H 0.61644 0.49046 0.79936 0.0
H403 H 0.58499 0.50046 0.73619 0.0
H404 H 0.89477 0.69562 0.11193 0.0
H405 H 0.90678 0.65663 0.091 0.0
H406 H 0.95726 0.68387 0.95357 0.0
H407 H 0.94696 0.72276 0.97819 0.0
H408 H 0.90603 0.62911 0.99039 0.0
H409 H 0.99556 0.647 0.05249 0.0
H410 H 0.9752 0.66766 0.07175 0.0
H411 H 0.98949 0.66707 0.9938 0.0
C412 C 0.90873 0.69337 0.07815 0.0
C413 C 0.9198 0.71248 0.04674 0.0
C414 C 0.91548 0.67102 0.06595 0.0
C415 C 0.93335 0.66735 0.02193 0.0
C416 C 0.94397 0.68628 0.98942 0.0
H417 H 0.9542 0.55642 0.76221 0.0
H418 H 0.93942 0.58634 0.83272 0.0
C419 C 0.9376 0.70857 0.00245 0.0
C420 C 0.94033 0.64371 0.00669 0.0
H421 H 0.98734 0.61545 0.97174 0.0
C422 C 0.92378 0.62595 0.98767 0.0
C423 C 0.96338 0.6391 0.00545 0.0
C424 C 0.98182 0.65619 0.03282 0.0
C425 C 0.92985 0.60447 0.96225 0.0
C426 C 0.95311 0.60109 0.95285 0.0
C427 C 0.9695 0.61811 0.97713 0.0
C428 C 0.9609 0.58132 0.91271 0.0
C429 C 0.91119 0.58582 0.94523 0.0
C430 C 0.97857 0.56894 0.93281 0.0
C431 C 0.98767 0.55231 0.8913 0.0
C432 C 0.97901 0.54754 0.82942 0.0
C433 C 0.961 0.55948 0.81002 0.0
C434 C 0.95232 0.57645 0.85074 0.0
H435 H 0.89646 0.5868 0.97922 0.0
H436 H 0.90516 0.58854 0.89631 0.0
H437 H 0.91702 0.56818 0.94617 0.0
H438 H 0.98562 0.57245 0.98015 0.0
H439 H 0.00152 0.54328 0.90748 0.0
H440 H 0.05947 0.23624 0.42762 0.0
H441 H 0.04076 0.20661 0.49608 0.0
H442 H 0.09445 0.16274 0.45143 0.0
H443 H 0.11358 0.19255 0.38415 0.0
H444 H 0.02592 0.16451 0.43943 0.0
H445 H 0.08125 0.1516 0.64242 0.0
H446 H 0.08411 0.17769 0.5971 0.0
H447 H 0.09627 0.152 0.56613 0.0
C448 C 0.0678 0.2207 0.43447 0.0
C449 C 0.08797 0.21667 0.40025 0.0
C450 C 0.05699 0.20373 0.47335 0.0
C451 C 0.06625 0.18253 0.4791 0.0
C452 C 0.08719 0.17912 0.44862 0.0
H453 H 0.01144 0.04331 0.48792 0.0
H454 H 0.02775 0.08264 0.46561 0.0
C455 C 0.098 0.19608 0.40968 0.0
C456 C 0.05244 0.16269 0.50741 0.0
H457 H 0.05401 0.11938 0.61293 0.0
C458 C 0.03185 0.15492 0.47829 0.0
C459 C 0.06014 0.15026 0.55822 0.0
C460 C 0.08155 0.15844 0.59324 0.0
C461 C 0.0194 0.13433 0.49613 0.0
C462 C 0.02785 0.12114 0.54396 0.0
C463 C 0.04774 0.12951 0.57578 0.0
C464 C 0.01723 0.09773 0.55749 0.0
C465 C 0.99765 0.12641 0.46238 0.0
C466 C 0.0058 0.09336 0.61634 0.0
C467 C 0.9962 0.07095 0.62877 0.0
C468 C 0.99837 0.05263 0.58312 0.0
C469 C 0.00947 0.05717 0.52384 0.0
C470 C 0.01886 0.07955 0.51117 0.0
H471 H 0.99083 0.14083 0.43787 0.0
H472 H 0.00091 0.11261 0.42542 0.0
H473 H 0.98458 0.11903 0.49705 0.0
H474 H 0.00429 0.10726 0.65242 0.0
H475 H 0.98713 0.06791 0.67403 0.0
H476 H 0.30235 0.03756 0.38666 0.0
H477 H 0.33355 0.03046 0.45656 0.0
H478 H 0.35531 0.97928 0.317 0.0
H479 H 0.32419 0.98597 0.24779 0.0
H480 H 0.35122 0.9651 0.44801 0.0
H481 H 0.40278 0.04975 0.42007 0.0
H482 H 0.3733 0.05085 0.44222 0.0
H483 H 0.38102 0.03896 0.36435 0.0
C484 C 0.31377 0.02474 0.37122 0.0
C485 C 0.31099 0.01245 0.31165 0.0
C486 C 0.33163 0.02086 0.41079 0.0
C487 C 0.34683 0.00457 0.39134 0.0
C488 C 0.34384 0.99204 0.33249 0.0
H489 H 0.47886 0.98055 0.52319 0.0
H490 H 0.44582 0.9879 0.46119 0.0
C491 C 0.32613 0.99597 0.29295 0.0
C492 C 0.36566 -2e-05 0.4325 0.0
H493 H 0.41676 0.02332 0.48863 0.0
C494 C 0.3655 0.97784 0.45732 0.0
C495 C 0.38433 0.0166 0.44356 0.0
C496 C 0.38561 0.04036 0.41592 0.0
C497 C 0.38363 0.97179 0.49288 0.0
C498 C 0.40222 0.98846 0.50446 0.0
C499 C 0.40238 0.01064 0.47978 0.0
C500 C 0.42189 0.98309 0.54125 0.0
C501 C 0.38303 0.94743 0.51623 0.0
C502 C 0.41925 0.97777 0.6064 0.0
C503 C 0.43802 0.97353 0.64157 0.0
C504 C 0.45973 0.97492 0.61225 0.0
C505 C 0.46228 0.97968 0.54676 0.0
C506 C 0.44349 0.98387 0.51152 0.0
H507 H 0.37034 0.93532 0.49045 0.0
H508 H 0.39992 0.94069 0.50986 0.0
H509 H 0.37838 0.94756 0.56836 0.0
H510 H 0.40276 0.97745 0.63043 0.0
H511 H 0.43568 0.9701 0.69228 0.0
H512 H 0.45724 0.31095 0.21113 0.0
H513 H 0.47246 0.34312 0.28172 0.0
H514 H 0.44132 0.30902 0.44671 0.0
H515 H 0.42597 0.27652 0.37586 0.0
H516 H 0.44626 0.37097 0.35873 0.0
H517 H 0.50675 0.32859 0.50387 0.0
H518 H 0.49559 0.31572 0.42916 0.0
H519 H 0.47837 0.31455 0.50168 0.0
C520 C 0.45363 0.31027 0.26246 0.0
C521 C 0.44022 0.29136 0.28801 0.0
C522 C 0.46245 0.32858 0.30272 0.0
C523 C 0.45815 0.32836 0.36938 0.0
C524 C 0.44515 0.30931 0.39545 0.0
H525 H 0.46915 0.45339 0.61537 0.0
H526 H 0.45673 0.41607 0.5625 0.0
C527 C 0.43635 0.29084 0.35503 0.0
C528 C 0.46607 0.34892 0.41029 0.0
H529 H 0.50125 0.36777 0.53305 0.0
C530 C 0.45826 0.37026 0.39691 0.0
C531 C 0.48185 0.34792 0.45962 0.0
C532 C 0.49133 0.32553 0.47434 0.0
C533 C 0.46584 0.39071 0.43139 0.0
C534 C 0.48135 0.3897 0.4814 0.0
C535 C 0.48924 0.36838 0.49487 0.0
C536 C 0.48962 0.4108 0.51949 0.0
C537 C 0.45753 0.41333 0.4131 0.0
C538 C 0.51244 0.41973 0.5147 0.0
C539 C 0.51967 0.44101 0.54555 0.0
C540 C 0.50416 0.45352 0.58162 0.0
C541 C 0.48151 0.44409 0.58808 0.0
C542 C 0.47435 0.42284 0.55766 0.0
H543 H 0.45007 0.41195 0.36446 0.0
H544 H 0.44421 0.41821 0.44841 0.0
H545 H 0.47153 0.42749 0.41385 0.0
H546 H 0.52445 0.4106 0.48543 0.0
H547 H 0.53723 0.4479 0.54001 0.0
H548 H 0.1932 0.53991 0.31453 0.0
H549 H 0.16032 0.54182 0.38724 0.0
H550 H 0.1941 0.60076 0.49075 0.0
H551 H 0.22738 0.5991 0.41715 0.0
H552 H 0.16472 0.55046 0.55431 0.0
H553 H 0.12432 0.60953 0.39784 0.0
H554 H 0.141 0.58814 0.35926 0.0
H555 H 0.15465 0.61139 0.4081 0.0
C556 C 0.19367 0.55334 0.35263 0.0
C557 C 0.21269 0.56959 0.35966 0.0
C558 C 0.17496 0.55427 0.39434 0.0
C559 C 0.17489 0.57144 0.44392 0.0
C560 C 0.19401 0.58737 0.45261 0.0
H561 H 0.04942 0.55807 0.6867 0.0
H562 H 0.0883 0.5731 0.65643 0.0
C563 C 0.2129 0.5864 0.41075 0.0
C564 C 0.15404 0.57289 0.48363 0.0
H565 H 0.10016 0.58779 0.47067 0.0
C566 C 0.15072 0.55919 0.53765 0.0
C567 C 0.13596 0.58424 0.46113 0.0
C568 C 0.13902 0.5993 0.40356 0.0
C569 C 0.12914 0.55517 0.56701 0.0
C570 C 0.11065 0.56514 0.54122 0.0
C571 C 0.1144 0.58017 0.49012 0.0
C572 C 0.08698 0.55747 0.55987 0.0
C573 C 0.12589 0.53897 0.62215 0.0
C574 C 0.07332 0.54426 0.51507 0.0
C575 C 0.05134 0.53558 0.53236 0.0
C576 C 0.04272 0.53996 0.59478 0.0
C577 C 0.05604 0.55394 0.63887 0.0
C578 C 0.07812 0.5626 0.62162 0.0
H579 H 0.14162 0.53089 0.63222 0.0
H580 H 0.12071 0.54876 0.66641 0.0
H581 H 0.11219 0.525 0.61148 0.0
H582 H 0.07989 0.54018 0.46711 0.0
H583 H 0.04136 0.52488 0.49748 0.0
H584 H 0.90361 0.77891 0.89971 0.0
H585 H 0.9194 0.80861 0.82496 0.0
H586 H 0.95821 0.84351 0.97909 0.0
H587 H 0.94287 0.81425 0.05296 0.0
H588 H 0.91824 0.86073 0.84492 0.0
H589 H 0.00468 0.83183 0.82604 0.0
H590 H 0.98 0.8128 0.84843 0.0
H591 H 0.99347 0.83287 0.90728 0.0
C592 C 0.91549 0.79299 0.91731 0.0
C593 C 0.92181 0.79446 0.98224 0.0
C594 C 0.92445 0.80985 0.87478 0.0
C595 C 0.94012 0.82801 0.89662 0.0
C596 C 0.94631 0.82948 0.96129 0.0
H597 H 0.98598 0.96568 0.85386 0.0
H598 H 0.9668 0.92733 0.8731 0.0
C599 C 0.93731 0.81288 0.00359 0.0
C600 C 0.95003 0.8461 0.85359 0.0
H601 H 0.00159 0.87232 0.80823 0.0
C602 C 0.93637 0.86302 0.83514 0.0
C603 C 0.97361 0.84881 0.84007 0.0
C604 C 0.98879 0.83049 0.8559 0.0
C605 C 0.94605 0.88364 0.80865 0.0
C606 C 0.96993 0.88743 0.80175 0.0
C607 C 0.98332 0.86955 0.81456 0.0
C608 C 0.98144 0.91059 0.78862 0.0
C609 C 0.93072 0.90157 0.79064 0.0
C610 C 0.99687 0.91365 0.73649 0.0
C611 C 0.00811 0.93555 0.72599 0.0
C612 C 0.00407 0.95457 0.7675 0.0
C613 C 0.9893 0.95128 0.82096 0.0
C614 C 0.97806 0.92948 0.83138 0.0
H615 H 0.91368 0.89333 0.77757 0.0
H616 H 0.92847 0.91377 0.83257 0.0
H617 H 0.93801 0.9117 0.74959 0.0
H618 H 6e-05 0.89916 0.70378 0.0
H619 H 0.01984 0.93768 0.68527 0.0
H620 H 0.67476 0.95556 0.08528 0.0
H621 H 0.64439 0.96528 0.01667 0.0
H622 H 0.69047 0.01722 0.92739 0.0
H623 H 0.72085 0.0078 0.99642 0.0
H624 H 0.64862 0.0328 0.98151 0.0
H625 H 0.63426 0.95387 0.81961 0.0
H626 H 0.63636 0.9491 0.90411 0.0
H627 H 0.66068 0.96152 0.86013 0.0
C628 C 0.67847 0.96883 0.05039 0.0
C629 C 0.70013 0.98096 0.04616 0.0
C630 C 0.66118 0.97424 0.01102 0.0
C631 C 0.6653 0.99184 0.96683 0.0
C632 C 0.68707 0.00348 0.96105 0.0
H633 H 0.57668 0.03797 0.68446 0.0
H634 H 0.60947 0.02845 0.74385 0.0
C635 C 0.70441 0.99799 0.00014 0.0
C636 C 0.64645 0.99946 0.93065 0.0
H637 H 0.60771 0.98189 0.81591 0.0
C638 C 0.63973 0.02174 0.94506 0.0
C639 C 0.63495 0.98491 0.88335 0.0
C640 C 0.64194 0.96105 0.86529 0.0
C641 C 0.62154 0.02977 0.91379 0.0
C642 C 0.60991 0.01514 0.86707 0.0
C643 C 0.61674 0.99297 0.85205 0.0
C644 C 0.59055 0.0226 0.83312 0.0
C645 C 0.61481 0.05382 0.93053 0.0
C646 C 0.56929 0.02281 0.86437 0.0
C647 C 0.55057 0.0282 0.83059 0.0
C648 C 0.55294 0.03337 0.7653 0.0
C649 C 0.57447 0.03416 0.73496 0.0
C650 C 0.59313 0.02857 0.76854 0.0
H651 H 0.62722 0.06401 0.96225 0.0
H652 H 0.61323 0.06337 0.88593 0.0
H653 H 0.59799 0.0525 0.95571 0.0
H654 H 0.56707 0.01818 0.91426 0.0
H655 H 0.53413 0.02772 0.85491 0.0
H656 H 0.55041 0.73863 0.02906 0.0
H657 H 0.53277 0.70774 0.95711 0.0
H658 H 0.5826 0.66255 0.00777 0.0
H659 H 0.60048 0.69333 0.07919 0.0
H660 H 0.56088 0.67039 0.8526 0.0
H661 H 0.50806 0.6402 0.06454 0.0
H662 H 0.51689 0.67057 0.05444 0.0
H663 H 0.53717 0.65142 0.07632 0.0
C664 C 0.55802 0.72236 0.02331 0.0
C665 C 0.57675 0.71831 0.05992 0.0
C666 C 0.54787 0.70475 0.98249 0.0
C667 C 0.55641 0.68298 0.97763 0.0
C668 C 0.57585 0.67932 0.0111 0.0
H669 H 0.53803 0.5498 0.79606 0.0
H670 H 0.5503 0.58913 0.83528 0.0
C671 C 0.58596 0.69684 0.05194 0.0
C672 C 0.54382 0.6632 0.94331 0.0
H673 H 0.50699 0.61563 0.97107 0.0
C674 C 0.54884 0.65855 0.87799 0.0
C675 C 0.528 0.64804 0.97671 0.0
C676 C 0.52202 0.65268 0.04689 0.0
C677 C 0.53901 0.63842 0.84567 0.0
C678 C 0.52418 0.62249 0.88021 0.0
C679 C 0.51836 0.62783 0.94472 0.0
C680 C 0.51632 0.5992 0.85261 0.0
C681 C 0.54493 0.63424 0.77525 0.0
C682 C 0.49311 0.59149 0.85124 0.0
C683 C 0.48603 0.56886 0.82882 0.0
C684 C 0.50211 0.55372 0.80773 0.0
C685 C 0.52527 0.56136 0.81032 0.0
C686 C 0.53231 0.58386 0.8325 0.0
H687 H 0.54927 0.65088 0.75111 0.0
H688 H 0.56003 0.62427 0.77096 0.0
H689 H 0.5308 0.62421 0.74941 0.0
H690 H 0.48052 0.60296 0.86759 0.0
H691 H 0.46808 0.56326 0.82758 0.0
H692 H 0.81972 0.48197 0.05343 0.0
H693 H 0.85243 0.47687 0.98147 0.0
H694 H 0.81879 0.41311 0.90195 0.0
H695 H 0.78564 0.4183 0.9738 0.0
H696 H 0.86917 0.41676 0.96323 0.0
H697 H 0.85396 0.47536 0.76735 0.0
H698 H 0.84707 0.48537 0.84826 0.0
H699 H 0.83117 0.46024 0.81322 0.0
C700 C 0.81925 0.46695 0.02031 0.0
C701 C 0.80031 0.45044 0.01922 0.0
C702 C 0.83783 0.46413 0.97914 0.0
C703 C 0.83786 0.4447 0.93652 0.0
C704 C 0.81889 0.42828 0.93442 0.0
H705 H 0.96348 0.44613 0.69834 0.0
H706 H 0.92412 0.43325 0.72999 0.0
C707 C 0.80007 0.43127 0.97521 0.0
C708 C 0.85859 0.44123 0.89789 0.0
H709 H 0.89209 0.46633 0.77934 0.0
C710 C 0.87403 0.42706 0.92185 0.0
C711 C 0.8647 0.45463 0.84394 0.0
C712 C 0.84834 0.46968 0.81612 0.0
C713 C 0.89618 0.42737 0.89616 0.0
C714 C 0.9029 0.4423 0.84573 0.0
C715 C 0.88687 0.45497 0.81826 0.0
C716 C 0.92701 0.44769 0.82758 0.0
C717 C 0.9126 0.41267 0.92524 0.0
C718 C 0.9415 0.45994 0.87208 0.0
C719 C 0.96362 0.46775 0.85368 0.0
C720 C 0.97153 0.46349 0.79041 0.0
C721 C 0.95741 0.45025 0.74676 0.0
C722 C 0.93511 0.44268 0.76492 0.0
H723 H 0.90359 0.39763 0.94953 0.0
H724 H 0.9245 0.40619 0.88789 0.0
H725 H 0.92268 0.42336 0.96182 0.0
H726 H 0.93541 0.46425 0.9204 0.0
H727 H 0.97421 0.47788 0.88828 0.0
H728 H 0.13283 0.20379 0.1918 0.0
H729 H 0.12804 0.17738 0.09689 0.0
H730 H 0.07341 0.2148 0.0357 0.0
H731 H 0.07845 0.24148 0.12995 0.0
H732 H 0.08827 0.15056 0.08768 0.0
H733 H 0.10412 0.19886 0.86412 0.0
H734 H 0.11444 0.21012 0.94143 0.0
H735 H 0.08544 0.21223 0.92092 0.0
C736 C 0.12038 0.20686 0.15672 0.0
C737 C 0.10597 0.22458 0.1681 0.0
C738 C 0.11764 0.19178 0.10263 0.0
C739 C 0.10041 0.19414 0.05909 0.0
C740 C 0.08712 0.21292 0.06783 0.0
H741 H 0.02107 0.1022 0.79803 0.0
H742 H 0.03893 0.13553 0.86089 0.0
C743 C 0.08999 0.22815 0.12178 0.0
C744 C 0.09379 0.17486 0.01202 0.0
H745 H 0.08269 0.1616 0.85349 0.0
C746 C 0.08741 0.1529 0.03632 0.0
C747 C 0.09236 0.17804 0.94522 0.0
C748 C 0.09965 0.20104 0.91621 0.0
C749 C 0.07909 0.13418 0.99607 0.0
C750 C 0.07747 0.13736 0.92935 0.0
C751 C 0.08405 0.15923 0.90469 0.0
C752 C 0.06813 0.11824 0.88534 0.0
C753 C 0.07129 0.11136 0.02579 0.0
C754 C 0.07896 0.09775 0.87698 0.0
C755 C 0.06873 0.07869 0.84167 0.0
C756 C 0.0476 0.07991 0.81383 0.0
C757 C 0.03729 0.10079 0.81958 0.0
C758 C 0.0475 0.11983 0.8551 0.0
H759 H 0.06881 0.11335 0.07889 0.0
H760 H 0.05513 0.10365 0.00474 0.0
H761 H 0.08429 0.099 0.01588 0.0
H762 H 0.09507 0.09633 0.89915 0.0
H763 H 0.07712 0.06285 0.83733 0.0
H764 H 0.29009 0.98547 0.07866 0.0
H765 H 0.31629 0.989 0.98596 0.0
H766 H 0.31321 0.06319 0.99466 0.0
H767 H 0.28731 0.05964 0.08881 0.0
H768 H 0.32312 0.00889 0.86438 0.0
H769 H 0.37715 0.05449 0.05466 0.0
H770 H 0.34973 0.0397 0.07277 0.0
H771 H 0.35185 0.06758 0.03726 0.0
C772 C 0.29408 0.00236 0.05854 0.0
C773 C 0.28679 0.02229 0.09041 0.0
C774 C 0.30914 0.0044 0.00582 0.0
C775 C 0.31712 0.02641 0.98458 0.0
C776 C 0.3075 0.04608 0.0111 0.0
H777 H 0.43304 0.036 0.70842 0.0
H778 H 0.39595 0.04109 0.75844 0.0
C779 C 0.29252 0.04404 0.06426 0.0
C780 C 0.33825 0.02877 0.94465 0.0
H781 H 0.39477 0.04606 0.95561 0.0
C782 C 0.33875 0.01734 0.88366 0.0
C783 C 0.35869 0.0394 0.97079 0.0
C784 C 0.35952 0.05084 0.03761 0.0
C785 C 0.35927 0.01575 0.84878 0.0
C786 C 0.37969 0.02614 0.87545 0.0
C787 C 0.37905 0.03818 0.93539 0.0
C788 C 0.40215 0.0233 0.84462 0.0
C789 C 0.3591 0.002 0.78533 0.0
C790 C 0.41818 0.01216 0.87729 0.0
C791 C 0.43951 0.00944 0.84926 0.0
C792 C 0.44526 0.01789 0.78802 0.0
C793 C 0.42922 0.02929 0.7557 0.0
C794 C 0.4079 0.03205 0.78391 0.0
H795 H 0.34281 0.99114 0.77816 0.0
H796 H 0.36155 0.01413 0.74535 0.0
H797 H 0.37313 0.99056 0.78219 0.0
H798 H 0.41408 0.00536 0.92437 0.0
H799 H 0.45138 0.00052 0.87545 0.0
H800 H 0.43598 0.25893 0.02729 0.0
H801 H 0.43478 0.2872 0.94361 0.0
H802 H 0.37423 0.31113 0.03303 0.0
H803 H 0.37563 0.28313 0.11732 0.0
H804 H 0.40171 0.30738 0.85586 0.0
H805 H 0.42906 0.3615 0.07342 0.0
H806 H 0.4284 0.33028 0.07039 0.0
H807 H 0.4025 0.34393 0.08037 0.0
C808 C 0.42167 0.26925 0.02676 0.0
C809 C 0.40594 0.269 0.07858 0.0
C810 C 0.42106 0.2855 0.97919 0.0
C811 C 0.40466 0.30149 0.98304 0.0
C812 C 0.38708 0.29899 0.02958 0.0
H813 H 0.42669 0.44417 0.85998 0.0
H814 H 0.40828 0.4081 0.90259 0.0
C815 C 0.38778 0.28289 0.07739 0.0
C816 C 0.409 0.32347 0.94925 0.0
H817 H 0.42874 0.38024 0.97631 0.0
C818 C 0.40738 0.32341 0.88204 0.0
C819 C 0.41653 0.34428 0.98373 0.0
C820 C 0.41943 0.34514 0.05588 0.0
C821 C 0.41322 0.34373 0.84826 0.0
C822 C 0.42133 0.36438 0.88268 0.0
C823 C 0.4224 0.36446 0.95003 0.0
C824 C 0.43041 0.38575 0.85029 0.0
C825 C 0.41066 0.34287 0.77616 0.0
C826 C 0.44891 0.38518 0.80671 0.0
C827 C 0.45937 0.40571 0.78235 0.0
C828 C 0.4517 0.42721 0.8018 0.0
C829 C 0.43294 0.4278 0.8444 0.0
C830 C 0.4224 0.40723 0.86852 0.0
H831 H 0.39753 0.32892 0.76057 0.0
H832 H 0.40605 0.35968 0.75925 0.0
H833 H 0.42698 0.33905 0.75242 0.0
H834 H 0.45583 0.36894 0.79333 0.0
H835 H 0.47384 0.40479 0.74956 0.0
H836 H 0.22589 0.59004 0.12232 0.0
H837 H 0.20384 0.57752 0.02709 0.0
H838 H 0.22571 0.50884 0.03571 0.0
H839 H 0.24786 0.52141 0.13139 0.0
H840 H 0.21071 0.55184 0.90011 0.0
H841 H 0.15569 0.50391 0.08165 0.0
H842 H 0.17758 0.52628 0.10476 0.0
H843 H 0.18502 0.49826 0.07602 0.0
C844 C 0.22676 0.57257 0.10212 0.0
C845 C 0.23853 0.55666 0.13391 0.0
C846 C 0.21413 0.56541 0.04788 0.0
C847 C 0.21291 0.54219 0.02499 0.0
C848 C 0.22638 0.52682 0.05293 0.0
H849 H 0.09632 0.47504 0.81822 0.0
H850 H 0.13348 0.48126 0.86814 0.0
C851 C 0.23916 0.53403 0.10715 0.0
C852 C 0.19482 0.53354 0.9798 0.0
H853 H 0.14201 0.50444 0.97759 0.0
C854 C 0.19581 0.54118 0.91654 0.0
C855 C 0.17537 0.51973 0.00159 0.0
C856 C 0.17312 0.51162 0.06976 0.0
C857 C 0.17766 0.53561 0.87467 0.0
C858 C 0.1578 0.5226 0.89742 0.0
C859 C 0.1572 0.51436 0.96004 0.0
C860 C 0.1368 0.51855 0.85936 0.0
C861 C 0.17995 0.54375 0.80663 0.0
C862 C 0.12633 0.53738 0.83726 0.0
C863 C 0.10518 0.53382 0.80837 0.0
C864 C 0.09395 0.5114 0.80202 0.0
C865 C 0.1046 0.49251 0.82276 0.0
C866 C 0.12583 0.49605 0.85116 0.0
H867 H 0.19801 0.54581 0.79019 0.0
H868 H 0.17035 0.53147 0.7725 0.0
H869 H 0.17325 0.56095 0.80495 0.0
H870 H 0.13407 0.55496 0.84455 0.0
H871 H 0.09732 0.54869 0.7928 0.0
H872 H 0.92977 0.75745 0.24147 0.0
H873 H 0.93528 0.78118 0.34088 0.0
H874 H 0.88251 0.82267 0.28836 0.0
H875 H 0.87636 0.79847 0.19014 0.0
H876 H 0.95056 0.82572 0.32354 0.0
H877 H 0.8739 0.82385 0.48214 0.0
H878 H 0.87816 0.80133 0.42115 0.0
H879 H 0.86773 0.82808 0.39971 0.0
C880 C 0.91852 0.77084 0.25269 0.0
C881 C 0.9028 0.77629 0.20768 0.0
C882 C 0.9218 0.7845 0.3094 0.0
C883 C 0.90936 0.80375 0.32205 0.0
C884 C 0.89208 0.80773 0.28031 0.0
H885 H 0.93245 0.93972 0.5018 0.0
H886 H 0.91673 0.90336 0.4479 0.0
C887 C 0.88871 0.794 0.22382 0.0
C888 C 0.91751 0.82216 0.36998 0.0
H889 H 0.90056 0.858 0.49347 0.0
C890 C 0.93976 0.83245 0.3616 0.0
C891 C 0.90328 0.83119 0.4188 0.0
C892 C 0.87951 0.82038 0.43141 0.0
C893 C 0.94793 0.852 0.39899 0.0
C894 C 0.9336 0.8613 0.44706 0.0
C895 C 0.91149 0.85079 0.45655 0.0
C896 C 0.94126 0.88247 0.48589 0.0
C897 C 0.97152 0.86315 0.38469 0.0
C898 C 0.95985 0.88257 0.52622 0.0
C899 C 0.96896 0.90327 0.55623 0.0
C900 C 0.95946 0.92414 0.54695 0.0
C901 C 0.94015 0.92385 0.50926 0.0
C902 C 0.93111 0.90312 0.47882 0.0
H903 H 0.97829 0.85706 0.33713 0.0
H904 H 0.97172 0.88235 0.38528 0.0
H905 H 0.98312 0.85865 0.42222 0.0
H906 H 0.96769 0.86674 0.53302 0.0
H907 H 0.98369 0.90299 0.58577 0.0
H908 H 0.71668 0.01343 0.27567 0.0
H909 H 0.69195 0.01287 0.37163 0.0
H910 H 0.69611 0.93915 0.38209 0.0
H911 H 0.72069 0.93975 0.28486 0.0
H912 H 0.65363 0.94928 0.36868 0.0
H913 H 0.6912 0.00684 0.56387 0.0
H914 H 0.69344 0.02116 0.48893 0.0
H915 H 0.70809 0.99566 0.49788 0.0
C916 C 0.71322 0.99737 0.30052 0.0
C917 C 0.72067 0.97668 0.27375 0.0
C918 C 0.69912 0.99703 0.35545 0.0
C919 C 0.69228 0.97599 0.38449 0.0
C920 C 0.70132 0.9556 0.36078 0.0
H921 H 0.58171 0.97822 0.67578 0.0
H922 H 0.61806 0.97123 0.62362 0.0
C923 C 0.71547 0.95595 0.30566 0.0
C924 C 0.6725 0.97477 0.43 0.0
H925 H 0.64985 0.0028 0.56104 0.0
C926 C 0.653 0.96059 0.41163 0.0
C927 C 0.67163 0.9894 0.48622 0.0
C928 C 0.69232 0.00392 0.51069 0.0
C929 C 0.63233 0.96175 0.4455 0.0
C930 C 0.63102 0.97778 0.49845 0.0
C931 C 0.65081 0.99083 0.51959 0.0
C932 C 0.60904 0.98203 0.53021 0.0
C933 C 0.61192 0.94617 0.42333 0.0
C934 C 0.59207 0.99076 0.49509 0.0
C935 C 0.57125 0.99477 0.52463 0.0
C936 C 0.56704 0.99016 0.58991 0.0
C937 C 0.58424 0.98168 0.62516 0.0
C938 C 0.60509 0.97776 0.59559 0.0
H939 H 0.61698 0.93059 0.39541 0.0
H940 H 0.60092 0.94041 0.46487 0.0
H941 H 0.60182 0.95588 0.39151 0.0
H942 H 0.59499 0.99458 0.44482 0.0
H943 H 0.55847 0.00147 0.49623 0.0
H944 H 0.62766 0.7393 0.30524 0.0
H945 H 0.62687 0.71409 0.39786 0.0
H946 H 0.55449 0.69931 0.38023 0.0
H947 H 0.55526 0.72482 0.2898 0.0
H948 H 0.56675 0.70021 0.50524 0.0
H949 H 0.6208 0.64522 0.35137 0.0
H950 H 0.63285 0.67405 0.37287 0.0
H951 H 0.60894 0.66995 0.32091 0.0
C952 C 0.61156 0.73132 0.32311 0.0
C953 C 0.59151 0.73384 0.29085 0.0
C954 C 0.61112 0.71674 0.37532 0.0
C955 C 0.59069 0.70436 0.39489 0.0
C956 C 0.57046 0.7086 0.36597 0.0
H957 H 0.5475 0.56838 0.48345 0.0
H958 H 0.56281 0.60557 0.44157 0.0
C959 C 0.57088 0.72318 0.31439 0.0
C960 C 0.59017 0.68485 0.43903 0.0
H961 H 0.60392 0.62903 0.44357 0.0
C962 C 0.57521 0.68477 0.49268 0.0
C963 C 0.6011 0.66465 0.42202 0.0
C964 C 0.61671 0.66325 0.36349 0.0
C965 C 0.56967 0.66459 0.52713 0.0
C966 C 0.57991 0.64413 0.5084 0.0
C967 C 0.59607 0.64472 0.45764 0.0
C968 C 0.57206 0.62128 0.53489 0.0
C969 C 0.55171 0.66498 0.58014 0.0
C970 C 0.57255 0.61756 0.60114 0.0
C971 C 0.56349 0.59637 0.62517 0.0
C972 C 0.5542 0.57849 0.58318 0.0
C973 C 0.55457 0.58189 0.51678 0.0
C974 C 0.56335 0.60312 0.49288 0.0
H975 H 0.54223 0.68061 0.57934 0.0
H976 H 0.5394 0.64933 0.57609 0.0
H977 H 0.55988 0.66513 0.62755 0.0
H978 H 0.57968 0.63107 0.63432 0.0
H979 H 0.56354 0.59405 0.67661 0.0
H980 H 0.76694 0.43059 0.27221 0.0
H981 H 0.78898 0.43594 0.37096 0.0
H982 H 0.80828 0.50721 0.32584 0.0
H983 H 0.78599 0.5019 0.22827 0.0
H984 H 0.83395 0.44509 0.35913 0.0
H985 H 0.80137 0.51375 0.51904 0.0
H986 H 0.7846 0.49871 0.4561 0.0
H987 H 0.80498 0.52273 0.43764 0.0
C988 C 0.77494 0.44767 0.28547 0.0
C989 C 0.77452 0.46597 0.24369 0.0
C990 C 0.78767 0.45069 0.34147 0.0
C991 C 0.80017 0.47205 0.35628 0.0
C992 C 0.79836 0.49077 0.31664 0.0
H993 H 0.92333 0.52518 0.53063 0.0
H994 H 0.88648 0.51817 0.4791 0.0
C995 C 0.78562 0.48776 0.26083 0.0
C996 C 0.81811 0.47367 0.40526 0.0
H997 H 0.84114 0.50807 0.5291 0.0
C998 C 0.83523 0.45852 0.3973 0.0
C999 C 0.81993 0.49132 0.45466 0.0
C1000 C 0.80159 0.50739 0.46778 0.0
C1001 C 0.85467 0.4613 0.43491 0.0
C1002 C 0.8569 0.47952 0.48263 0.0
C1003 C 0.83941 0.49415 0.49236 0.0
C1004 C 0.87802 0.48455 0.51941 0.0
C1005 C 0.87321 0.44549 0.42084 0.0
C1006 C 0.88522 0.4682 0.56035 0.0
C1007 C 0.90632 0.47211 0.58946 0.0
C1008 C 0.92046 0.49249 0.57838 0.0
C1009 C 0.91281 0.50927 0.53965 0.0
C1010 C 0.89175 0.50532 0.51043 0.0
H1011 H 0.87081 0.43542 0.37436 0.0
H1012 H 0.89008 0.45561 0.41928 0.0
H1013 H 0.87323 0.43298 0.45975 0.0
H1014 H 0.87473 0.45222 0.56874 0.0
H1015 H 0.91173 0.45901 0.61972 0.0
loop_
_geom_bond_atom_site_label_1
_geom_bond_atom_site_label_2
_geom_bond_distance
_geom_bond_site_symmetry_2
_ccdc_geom_bond_type
H0 C3 0.931 . S
H1 C6 0.928 . S
H2 C8 0.930 . S
C3 H0 0.931 . S
C3 C4 1.413 . S
C3 C5 1.360 . S
C4 C3 1.413 . S
C4 C8 1.429 . S
C5 C3 1.360 . S
C5 C6 1.372 1_554 S
C6 H1 0.928 . S
C6 C5 1.372 1_556 S
C6 C7 1.404 1_556 S
C7 C6 1.404 1_554 S
C7 C8 1.391 . S
C8 H2 0.930 . S
C8 C4 1.429 . S
C8 C7 1.391 . S
H9 C12 0.931 . S
H10 C15 0.928 . S
H11 C17 0.930 . S
C12 H9 0.931 . S
C12 C13 1.413 . S
C12 C14 1.360 1_554 S
C13 C12 1.413 . S
C13 C17 1.429 . S
C14 C12 1.360 1_556 S
C14 C15 1.372 . S
C15 H10 0.928 . S
C15 C14 1.372 . S
C15 C16 1.404 1_556 S
C16 C15 1.404 1_554 S
C16 C17 1.391 . S
C17 H11 0.930 . S
C17 C13 1.429 . S
C17 C16 1.391 . S
H18 C21 0.931 . S
H19 C24 0.928 1_556 S
H20 C26 0.932 . S
C21 H18 0.931 . S
C21 C22 1.414 . S
C21 C23 1.360 . S
C22 C21 1.414 . S
C22 C26 1.430 1_565 S
C23 C21 1.360 . S
C23 C24 1.374 . S
C24 H19 0.928 1_554 S
C24 C23 1.374 . S
C24 C25 1.403 . S
C25 C24 1.403 . S
C25 C26 1.391 1_565 S
C26 H20 0.932 . S
C26 C22 1.430 1_545 S
C26 C25 1.391 1_545 S
H27 C30 0.931 . S
H28 C33 0.928 . S
H29 C35 0.930 1_556 S
C30 H27 0.931 . S
C30 C31 1.413 . S
C30 C32 1.360 . S
C31 C30 1.413 . S
C31 C35 1.429 . S
C32 C30 1.360 . S
C32 C33 1.372 . S
C33 H28 0.928 . S
C33 C32 1.372 . S
C33 C34 1.404 . S
C34 C33 1.404 . S
C34 C35 1.391 . S
C35 H29 0.930 1_554 S
C35 C31 1.429 . S
C35 C34 1.391 . S
H36 C39 0.931 . S
H37 C42 0.928 . S
H38 C44 0.930 . S
C39 H36 0.931 . S
C39 C40 1.413 . S
C39 C41 1.360 . S
C40 C39 1.413 . S
C40 C44 1.429 . S
C41 C39 1.360 . S
C41 C42 1.372 . S
C42 H37 0.928 . S
C42 C41 1.372 . S
C42 C43 1.404 . S
C43 C42 1.404 . S
C43 C44 1.391 . S
C44 H38 0.930 . S
C44 C40 1.429 . S
C44 C43 1.391 . S
H45 C48 0.931 . S
H46 C51 0.928 . S
H47 C53 0.930 . S
C48 H45 0.931 . S
C48 C49 1.413 . S
C48 C50 1.360 . S
C49 C48 1.413 . S
C49 C53 1.429 . S
C50 C48 1.360 . S
C50 C51 1.372 . S
C51 H46 0.928 . S
C51 C50 1.372 . S
C51 C52 1.404 . S
C52 C51 1.404 . S
C52 C53 1.391 . S
C53 H47 0.930 . S
C53 C49 1.429 . S
C53 C52 1.391 . S
H54 C57 0.931 . S
H55 C60 0.928 . S
H56 C62 0.930 . S
C57 H54 0.931 . S
C57 C58 1.413 . S
C57 C59 1.360 . S
C58 C57 1.413 . S
C58 C62 1.429 . S
C59 C57 1.360 . S
C59 C60 1.372 . S
C60 H55 0.928 . S
C60 C59 1.372 . S
C60 C61 1.404 . S
C61 C60 1.404 . S
C61 C62 1.391 . S
C62 H56 0.930 . S
C62 C58 1.429 . S
C62 C61 1.391 . S
H63 C66 0.931 . S
H64 C69 0.928 . S
H65 C71 0.930 . S
C66 H63 0.931 . S
C66 C67 1.413 . S
C66 C68 1.360 . S
C67 C66 1.413 . S
C67 C71 1.429 . S
C68 C66 1.360 . S
C68 C69 1.372 . S
C69 H64 0.928 . S
C69 C68 1.372 . S
C69 C70 1.404 . S
C70 C69 1.404 . S
C70 C71 1.391 . S
C71 H65 0.930 . S
C71 C67 1.429 . S
C71 C70 1.391 . S
Tb72 O75 2.453 1_665 S
Tb72 O76 2.596 1_665 S
Tb72 O77 2.374 1_655 S
Tb72 O85 2.343 . S
Tb72 O87 2.353 1_565 S
Tb72 O89 2.427 . S
Tb72 O90 2.513 . S
C73 O77 1.251 . S
C73 O79 1.263 . S
Tb74 O76 2.343 . S
Tb74 O79 2.353 1_545 S
Tb74 O82 2.427 . S
Tb74 O83 2.513 . S
Tb74 O84 2.453 1_545 S
Tb74 O85 2.596 1_445 S
Tb74 O86 2.374 1_455 S
O75 Tb72 2.453 1_445 S
O75 C91 1.245 . S
O76 Tb72 2.596 1_445 S
O76 Tb74 2.343 . S
O76 C91 1.259 . S
O77 Tb72 2.374 1_455 S
O77 C73 1.251 . S
C78 O82 1.275 . S
C78 O83 1.246 . S
O79 C73 1.263 . S
O79 Tb74 2.353 1_565 S
C80 O84 1.245 1_655 S
C80 O85 1.259 . S
C81 O86 1.250 . S
C81 O87 1.263 . S
O82 Tb74 2.427 . S
O82 C78 1.275 . S
O83 Tb74 2.513 . S
O83 C78 1.246 . S
O84 Tb74 2.453 1_565 S
O84 C80 1.245 1_455 S
O85 Tb72 2.343 . S
O85 Tb74 2.596 1_665 S
O85 C80 1.259 . S
O86 Tb74 2.374 1_655 S
O86 C81 1.250 . S
O87 Tb72 2.353 1_545 S
O87 C81 1.263 . S
C88 O89 1.275 . S
C88 O90 1.246 . S
O89 Tb72 2.427 . S
O89 C88 1.275 . S
O90 Tb72 2.513 . S
O90 C88 1.246 . S
C91 O75 1.245 . S
C91 O76 1.259 . S
Tb92 O95 2.453 . S
Tb92 O96 2.575 1_545 S
Tb92 O97 2.374 . S
Tb92 O105 2.343 . S
Tb92 O107 2.353 . S
Tb92 O109 2.427 . S
Tb92 O110 2.513 . S
C93 O97 1.251 . S
C93 O99 1.263 1_545 S
Tb94 O96 2.359 . S
Tb94 O99 2.353 . S
Tb94 O102 2.427 . S
Tb94 O103 2.513 . S
Tb94 O104 2.453 . S
Tb94 O105 2.596 1_565 S
Tb94 O106 2.374 . S
O95 Tb92 2.453 . S
O95 C111 1.245 . S
O96 Tb92 2.575 1_565 S
O96 Tb94 2.359 . S
O96 C111 1.249 1_565 S
O97 Tb92 2.374 . S
O97 C93 1.251 . S
C98 O102 1.275 . S
C98 O103 1.246 . S
O99 C93 1.263 1_565 S
O99 Tb94 2.353 . S
C100 O104 1.245 . S
C100 O105 1.259 1_565 S
C101 O106 1.250 1_545 S
C101 O107 1.263 . S
O102 Tb94 2.427 . S
O102 C98 1.275 . S
O103 Tb94 2.513 . S
O103 C98 1.246 . S
O104 Tb94 2.453 . S
O104 C100 1.245 . S
O105 Tb92 2.343 . S
O105 Tb94 2.596 1_545 S
O105 C100 1.259 1_545 S
O106 Tb94 2.374 . S
O106 C101 1.250 1_565 S
O107 Tb92 2.353 . S
O107 C101 1.263 . S
C108 O109 1.275 . S
C108 O110 1.246 . S
O109 Tb92 2.427 . S
O109 C108 1.275 . S
O110 Tb92 2.513 . S
O110 C108 1.246 . S
C111 O95 1.245 . S
C111 O96 1.249 1_545 S
Tb112 O115 2.453 . S
Tb112 O116 2.596 . S
Tb112 O117 2.374 . S
Tb112 O125 2.343 . S
Tb112 O127 2.353 . S
Tb112 O129 2.427 . S
Tb112 O130 2.513 . S
C113 O117 1.251 . S
C113 O119 1.263 . S
Tb114 O116 2.343 . S
Tb114 O119 2.353 . S
Tb114 O122 2.427 . S
Tb114 O123 2.513 . S
Tb114 O124 2.453 . S
Tb114 O125 2.596 . S
Tb114 O126 2.374 . S
O115 Tb112 2.453 . S
O115 C131 1.245 . S
O116 Tb112 2.596 . S
O116 Tb114 2.343 . S
O116 C131 1.259 . S
O117 Tb112 2.374 . S
O117 C113 1.251 . S
C118 O122 1.275 . S
C118 O123 1.246 . S
O119 C113 1.263 . S
O119 Tb114 2.353 . S
C120 O124 1.245 . S
C120 O125 1.259 . S
C121 O126 1.250 . S
C121 O127 1.263 . S
O122 Tb114 2.427 . S
O122 C118 1.275 . S
O123 Tb114 2.513 . S
O123 C118 1.246 . S
O124 Tb114 2.453 . S
O124 C120 1.245 . S
O125 Tb112 2.343 . S
O125 Tb114 2.596 . S
O125 C120 1.259 . S
O126 Tb114 2.374 . S
O126 C121 1.250 . S
O127 Tb112 2.353 . S
O127 C121 1.263 . S
C128 O129 1.275 . S
C128 O130 1.246 . S
O129 Tb112 2.427 . S
O129 C128 1.275 . S
O130 Tb112 2.513 . S
O130 C128 1.246 . S
C131 O115 1.245 . S
C131 O116 1.259 . S
Tb132 O135 2.453 1_655 S
Tb132 O136 2.596 1_655 S
Tb132 O137 2.374 1_655 S
Tb132 O145 2.343 . S
Tb132 O147 2.353 . S
Tb132 O149 2.427 . S
Tb132 O150 2.513 . S
C133 O137 1.251 . S
C133 O139 1.263 . S
Tb134 O136 2.343 . S
Tb134 O139 2.353 . S
Tb134 O142 2.427 . S
Tb134 O143 2.513 . S
Tb134 O144 2.453 1_455 S
Tb134 O145 2.596 1_455 S
Tb134 O146 2.374 . S
O135 Tb132 2.453 1_455 S
O135 C151 1.245 . S
O136 Tb132 2.596 1_455 S
O136 Tb134 2.343 . S
O136 C151 1.259 . S
O137 Tb132 2.374 1_455 S
O137 C133 1.251 . S
C138 O142 1.275 . S
C138 O143 1.246 . S
O139 C133 1.263 . S
O139 Tb134 2.353 . S
C140 O144 1.245 . S
C140 O145 1.259 . S
C141 O146 1.250 1_655 S
C141 O147 1.263 . S
O142 Tb134 2.427 . S
O142 C138 1.275 . S
O143 Tb134 2.513 . S
O143 C138 1.246 . S
O144 Tb134 2.453 1_655 S
O144 C140 1.245 . S
O145 Tb132 2.343 . S
O145 Tb134 2.596 1_655 S
O145 C140 1.259 . S
O146 Tb134 2.374 . S
O146 C141 1.250 1_455 S
O147 Tb132 2.353 . S
O147 C141 1.263 . S
C148 O149 1.275 . S
C148 O150 1.246 . S
O149 Tb132 2.427 . S
O149 C148 1.275 . S
O150 Tb132 2.513 . S
O150 C148 1.246 . S
C151 O135 1.245 . S
C151 O136 1.259 . S
H152 C160 0.929 . S
H153 C162 0.930 . S
H154 C164 0.930 . S
H155 C167 0.929 . S
H156 C170 0.930 . S
H157 C172 0.960 . S
H158 C172 0.960 . S
H159 C172 0.960 . S
C160 H152 0.929 . S
C160 C161 1.377 . S
C160 C162 1.384 . S
C161 C160 1.377 . S
C161 C167 1.390 1_545 S
C162 H153 0.930 . S
C162 C160 1.384 . S
C162 C163 1.372 . S
C163 C162 1.372 . S
C163 C164 1.400 1_545 S
C163 C168 1.490 . S
C164 H154 0.930 . S
C164 C163 1.400 1_565 S
C164 C167 1.386 . S
H165 C181 0.930 . S
H166 C182 0.931 . S
C167 H155 0.929 . S
C167 C161 1.390 1_565 S
C167 C164 1.386 . S
C168 C163 1.490 . S
C168 C170 1.395 1_545 S
C168 C171 1.403 . S
H169 C175 0.930 . S
C170 H156 0.930 . S
C170 C168 1.395 1_565 S
C170 C173 1.403 . S
C171 C168 1.403 . S
C171 C172 1.524 . S
C171 C175 1.400 . S
C172 H157 0.960 . S
C172 H158 0.960 . S
C172 H159 0.960 . S
C172 C171 1.524 . S
C173 C170 1.403 . S
C173 C174 1.392 1_565 S
C173 C177 1.495 . S
C174 C173 1.392 1_545 S
C174 C175 1.385 . S
C174 C176 1.478 1_545 S
C175 H169 0.930 . S
C175 C171 1.400 . S
C175 C174 1.385 . S
C176 C174 1.478 1_565 S
C176 C178 1.370 1_565 S
C176 C182 1.394 . S
C177 C173 1.495 . S
C177 H183 0.959 . S
C177 H184 0.961 . S
C177 H185 0.960 . S
C178 C176 1.370 1_545 S
C178 C179 1.394 . S
C178 H186 0.930 . S
C179 C178 1.394 . S
C179 C180 1.383 1_545 S
C179 H187 0.929 . S
C180 C179 1.383 1_565 S
C180 C181 1.377 . S
C181 H165 0.930 . S
C181 C180 1.377 . S
C181 C182 1.379 . S
C182 H166 0.931 . S
C182 C176 1.394 . S
C182 C181 1.379 . S
H183 C177 0.959 . S
H184 C177 0.961 . S
H185 C177 0.960 . S
H186 C178 0.930 . S
H187 C179 0.929 . S
H188 C196 0.929 . S
H189 C198 0.930 . S
H190 C200 0.930 . S
H191 C203 0.929 . S
H192 C206 0.930 . S
H193 C208 0.960 . S
H194 C208 0.960 . S
H195 C208 0.960 . S
C196 H188 0.929 . S
C196 C197 1.377 . S
C196 C198 1.384 . S
C197 C196 1.377 . S
C197 C203 1.390 . S
C198 H189 0.930 . S
C198 C196 1.384 . S
C198 C199 1.372 . S
C199 C198 1.372 . S
C199 C200 1.400 . S
C199 C204 1.490 . S
C200 H190 0.930 . S
C200 C199 1.400 . S
C200 C203 1.386 . S
H201 C217 0.930 . S
H202 C218 0.931 . S
C203 H191 0.929 . S
C203 C197 1.390 . S
C203 C200 1.386 . S
C204 C199 1.490 . S
C204 C206 1.395 . S
C204 C207 1.403 . S
H205 C211 0.930 . S
C206 H192 0.930 . S
C206 C204 1.395 . S
C206 C209 1.403 . S
C207 C204 1.403 . S
C207 C208 1.524 . S
C207 C211 1.400 . S
C208 H193 0.960 . S
C208 H194 0.960 . S
C208 H195 0.960 . S
C208 C207 1.524 . S
C209 C206 1.403 . S
C209 C210 1.392 . S
C209 C213 1.495 . S
C210 C209 1.392 . S
C210 C211 1.385 . S
C210 C212 1.478 . S
C211 H205 0.930 . S
C211 C207 1.400 . S
C211 C210 1.385 . S
C212 C210 1.478 . S
C212 C214 1.381 . S
C212 C218 1.383 . S
C213 C209 1.495 . S
C213 H219 0.959 . S
C213 H220 0.961 . S
C213 H221 0.960 . S
C214 C212 1.381 . S
C214 C215 1.394 . S
C214 H222 0.930 . S
C215 C214 1.394 . S
C215 C216 1.383 . S
C215 H223 0.929 . S
C216 C215 1.383 . S
C216 C217 1.377 . S
C217 H201 0.930 . S
C217 C216 1.377 . S
C217 C218 1.379 . S
C218 H202 0.931 . S
C218 C212 1.383 . S
C218 C217 1.379 . S
H219 C213 0.959 . S
H220 C213 0.961 . S
H221 C213 0.960 . S
H222 C214 0.930 . S
H223 C215 0.929 . S
H224 C232 0.929 . S
H225 C234 0.930 . S
H226 C236 0.930 . S
H227 C239 0.929 . S
H228 C242 0.930 . S
H229 C244 0.960 . S
H230 C244 0.960 . S
H231 C244 0.960 . S
C232 H224 0.929 . S
C232 C233 1.377 . S
C232 C234 1.384 . S
C233 C232 1.377 . S
C233 C239 1.390 . S
C234 H225 0.930 . S
C234 C232 1.384 . S
C234 C235 1.372 . S
C235 C234 1.372 . S
C235 C236 1.400 . S
C235 C240 1.490 . S
C236 H226 0.930 . S
C236 C235 1.400 . S
C236 C239 1.386 . S
H237 C253 0.930 . S
H238 C254 0.931 . S
C239 H227 0.929 . S
C239 C233 1.390 . S
C239 C236 1.386 . S
C240 C235 1.490 . S
C240 C242 1.395 . S
C240 C243 1.403 . S
H241 C247 0.930 . S
C242 H228 0.930 . S
C242 C240 1.395 . S
C242 C245 1.403 . S
C243 C240 1.403 . S
C243 C244 1.524 . S
C243 C247 1.400 . S
C244 H229 0.960 . S
C244 H230 0.960 . S
C244 H231 0.960 . S
C244 C243 1.524 . S
C245 C242 1.403 . S
C245 C246 1.392 . S
C245 C249 1.495 . S
C246 C245 1.392 . S
C246 C247 1.385 . S
C246 C248 1.478 . S
C247 H241 0.930 . S
C247 C243 1.400 . S
C247 C246 1.385 . S
C248 C246 1.478 . S
C248 C250 1.381 . S
C248 C254 1.383 . S
C249 C245 1.495 . S
C249 H255 0.959 . S
C249 H256 0.961 . S
C249 H257 0.960 . S
C250 C248 1.381 . S
C250 C251 1.394 . S
C250 H258 0.930 . S
C251 C250 1.394 . S
C251 C252 1.383 . S
C251 H259 0.929 . S
C252 C251 1.383 . S
C252 C253 1.377 . S
C253 H237 0.930 . S
C253 C252 1.377 . S
C253 C254 1.379 . S
C254 H238 0.931 . S
C254 C248 1.383 . S
C254 C253 1.379 . S
H255 C249 0.959 . S
H256 C249 0.961 . S
H257 C249 0.960 . S
H258 C250 0.930 . S
H259 C251 0.929 . S
H260 C268 0.929 . S
H261 C270 0.930 . S
H262 C272 0.930 . S
H263 C275 0.929 . S
H264 C278 0.930 . S
H265 C280 0.960 . S
H266 C280 0.960 . S
H267 C280 0.960 . S
C268 H260 0.929 . S
C268 C269 1.377 . S
C268 C270 1.384 . S
C269 C268 1.377 . S
C269 C275 1.390 . S
C270 H261 0.930 . S
C270 C268 1.384 . S
C270 C271 1.372 . S
C271 C270 1.372 . S
C271 C272 1.400 . S
C271 C276 1.490 . S
C272 H262 0.930 . S
C272 C271 1.400 . S
C272 C275 1.386 . S
H273 C289 0.930 . S
H274 C290 0.931 . S
C275 H263 0.929 . S
C275 C269 1.390 . S
C275 C272 1.386 . S
C276 C271 1.490 . S
C276 C278 1.395 . S
C276 C279 1.403 . S
H277 C283 0.930 . S
C278 H264 0.930 . S
C278 C276 1.395 . S
C278 C281 1.403 . S
C279 C276 1.403 . S
C279 C280 1.524 . S
C279 C283 1.400 . S
C280 H265 0.960 . S
C280 H266 0.960 . S
C280 H267 0.960 . S
C280 C279 1.524 . S
C281 C278 1.403 . S
C281 C282 1.392 . S
C281 C285 1.495 . S
C282 C281 1.392 . S
C282 C283 1.385 . S
C282 C284 1.478 . S
C283 H277 0.930 . S
C283 C279 1.400 . S
C283 C282 1.385 . S
C284 C282 1.478 . S
C284 C286 1.381 . S
C284 C290 1.383 . S
C285 C281 1.495 . S
C285 H291 0.959 . S
C285 H292 0.961 . S
C285 H293 0.960 . S
C286 C284 1.381 . S
C286 C287 1.394 . S
C286 H294 0.930 . S
C287 C286 1.394 . S
C287 C288 1.383 . S
C287 H295 0.929 . S
C288 C287 1.383 . S
C288 C289 1.377 . S
C289 H273 0.930 . S
C289 C288 1.377 . S
C289 C290 1.379 . S
C290 H274 0.931 . S
C290 C284 1.383 . S
C290 C289 1.379 . S
H291 C285 0.959 . S
H292 C285 0.961 . S
H293 C285 0.960 . S
H294 C286 0.930 . S
H295 C287 0.929 . S
H296 C304 0.929 . S
H297 C306 0.930 . S
H298 C308 0.930 . S
H299 C311 0.929 . S
H300 C314 0.930 . S
H301 C316 0.960 . S
H302 C316 0.960 . S
H303 C316 0.960 . S
C304 H296 0.929 . S
C304 C305 1.375 1_565 S
C304 C306 1.384 1_554 S
C305 C304 1.375 1_545 S
C305 C311 1.392 . S
C306 H297 0.930 . S
C306 C304 1.384 1_556 S
C306 C307 1.340 1_565 S
C307 C306 1.340 1_545 S
C307 C308 1.433 1_556 S
C307 C312 1.489 . S
C308 H298 0.930 . S
C308 C307 1.433 1_554 S
C308 C311 1.386 . S
H309 C325 0.930 . S
H310 C326 0.931 . S
C311 H299 0.929 . S
C311 C305 1.392 . S
C311 C308 1.386 . S
C312 C307 1.489 . S
C312 C314 1.395 1_545 S
C312 C315 1.403 . S
H313 C319 0.930 . S
C314 H300 0.930 . S
C314 C312 1.395 1_565 S
C314 C317 1.403 . S
C315 C312 1.403 . S
C315 C316 1.524 1_556 S
C315 C319 1.400 . S
C316 H301 0.960 . S
C316 H302 0.960 . S
C316 H303 0.960 . S
C316 C315 1.524 1_554 S
C317 C314 1.403 . S
C317 C318 1.392 1_565 S
C317 C321 1.495 . S
C318 C317 1.392 1_545 S
C318 C319 1.385 . S
C318 C320 1.478 . S
C319 H313 0.930 . S
C319 C315 1.400 . S
C319 C318 1.385 . S
C320 C318 1.478 . S
C320 C322 1.381 1_545 S
C320 C326 1.383 . S
C321 C317 1.495 . S
C321 H327 0.959 . S
C321 H328 0.961 . S
C321 H329 0.960 . S
C322 C320 1.381 1_565 S
C322 C323 1.394 . S
C322 H330 0.930 . S
C323 C322 1.394 . S
C323 C324 1.383 1_565 S
C323 H331 0.929 . S
C324 C323 1.383 1_545 S
C324 C325 1.377 . S
C325 H309 0.930 . S
C325 C324 1.377 . S
C325 C326 1.379 . S
C326 H310 0.931 . S
C326 C320 1.383 . S
C326 C325 1.379 . S
H327 C321 0.959 . S
H328 C321 0.961 . S
H329 C321 0.960 . S
H330 C322 0.930 . S
H331 C323 0.929 . S
H332 C340 0.929 . S
H333 C342 0.930 . S
H334 C344 0.930 . S
H335 C347 0.929 . S
H336 C350 0.930 1_554 S
H337 C352 0.960 . S
H338 C352 0.960 . S
H339 C352 0.960 . S
C340 H332 0.929 . S
C340 C341 1.377 . S
C340 C342 1.384 . S
C341 C340 1.377 . S
C341 C347 1.390 1_554 S
C342 H333 0.930 . S
C342 C340 1.384 . S
C342 C343 1.372 1_554 S
C343 C342 1.372 1_556 S
C343 C344 1.400 . S
C343 C348 1.490 . S
C344 H334 0.930 . S
C344 C343 1.400 . S
C344 C347 1.386 . S
H345 C361 0.930 . S
H346 C362 0.931 . S
C347 H335 0.929 . S
C347 C341 1.390 1_556 S
C347 C344 1.386 . S
C348 C343 1.490 . S
C348 C350 1.395 . S
C348 C351 1.403 . S
H349 C355 0.930 . S
C350 H336 0.930 1_556 S
C350 C348 1.395 . S
C350 C353 1.403 . S
C351 C348 1.403 . S
C351 C352 1.524 . S
C351 C355 1.400 . S
C352 H337 0.960 . S
C352 H338 0.960 . S
C352 H339 0.960 . S
C352 C351 1.524 . S
C353 C350 1.403 . S
C353 C354 1.392 . S
C353 C357 1.495 . S
C354 C353 1.392 . S
C354 C355 1.385 . S
C354 C356 1.478 . S
C355 H349 0.930 . S
C355 C351 1.400 . S
C355 C354 1.385 . S
C356 C354 1.478 . S
C356 C358 1.381 . S
C356 C362 1.383 . S
C357 C353 1.495 . S
C357 H363 0.959 1_556 S
C357 H364 0.961 . S
C357 H365 0.960 . S
C358 C356 1.381 . S
C358 C359 1.394 . S
C358 H366 0.930 . S
C359 C358 1.394 . S
C359 C360 1.383 . S
C359 H367 0.929 . S
C360 C359 1.383 . S
C360 C361 1.377 . S
C361 H345 0.930 . S
C361 C360 1.377 . S
C361 C362 1.379 . S
C362 H346 0.931 . S
C362 C356 1.383 . S
C362 C361 1.379 . S
H363 C357 0.959 1_554 S
H364 C357 0.961 . S
H365 C357 0.960 . S
H366 C358 0.930 . S
H367 C359 0.929 . S
H368 C376 0.929 . S
H369 C378 0.930 . S
H370 C380 0.930 . S
H371 C383 0.929 . S
H372 C386 0.930 . S
H373 C388 0.960 . S
H374 C388 0.960 . S
H375 C388 0.960 . S
C376 H368 0.929 . S
C376 C377 1.377 1_556 S
C376 C378 1.384 . S
C377 C376 1.377 1_554 S
C377 C383 1.390 . S
C378 H369 0.930 . S
C378 C376 1.384 . S
C378 C379 1.372 . S
C379 C378 1.372 . S
C379 C380 1.400 1_556 S
C379 C384 1.490 . S
C380 H370 0.930 . S
C380 C379 1.400 1_554 S
C380 C383 1.386 . S
H381 C397 0.930 . S
H382 C398 0.931 . S
C383 H371 0.929 . S
C383 C377 1.390 . S
C383 C380 1.386 . S
C384 C379 1.490 . S
C384 C386 1.395 . S
C384 C387 1.403 . S
H385 C391 0.930 . S
C386 H372 0.930 . S
C386 C384 1.395 . S
C386 C389 1.403 . S
C387 C384 1.403 . S
C387 C388 1.524 1_556 S
C387 C391 1.400 . S
C388 H373 0.960 . S
C388 H374 0.960 . S
C388 H375 0.960 . S
C388 C387 1.524 1_554 S
C389 C386 1.403 . S
C389 C390 1.392 . S
C389 C393 1.495 . S
C390 C389 1.392 . S
C390 C391 1.385 . S
C390 C392 1.478 . S
C391 H385 0.930 . S
C391 C387 1.400 . S
C391 C390 1.385 . S
C392 C390 1.478 . S
C392 C394 1.381 . S
C392 C398 1.383 . S
C393 C389 1.495 . S
C393 H399 0.959 . S
C393 H400 0.961 . S
C393 H401 0.960 . S
C394 C392 1.381 . S
C394 C395 1.394 . S
C394 H402 0.930 . S
C395 C394 1.394 . S
C395 C396 1.383 . S
C395 H403 0.929 . S
C396 C395 1.383 . S
C396 C397 1.377 . S
C397 H381 0.930 . S
C397 C396 1.377 . S
C397 C398 1.379 . S
C398 H382 0.931 . S
C398 C392 1.383 . S
C398 C397 1.379 . S
H399 C393 0.959 . S
H400 C393 0.961 . S
H401 C393 0.960 . S
H402 C394 0.930 . S
H403 C395 0.929 . S
H404 C412 0.929 . S
H405 C414 0.930 1_554 S
H406 C416 0.930 . S
H407 C419 0.929 . S
H408 C422 0.930 . S
H409 C424 0.960 . S
H410 C424 0.960 . S
H411 C424 0.960 . S
C412 H404 0.929 . S
C412 C413 1.377 1_554 S
C412 C414 1.384 1_554 S
C413 C412 1.377 1_556 S
C413 C419 1.390 . S
C414 H405 0.930 1_556 S
C414 C412 1.384 1_556 S
C414 C415 1.372 . S
C415 C414 1.372 . S
C415 C416 1.400 . S
C415 C420 1.490 . S
C416 H406 0.930 . S
C416 C415 1.400 . S
C416 C419 1.386 . S
H417 C433 0.930 . S
H418 C434 0.931 . S
C419 H407 0.929 . S
C419 C413 1.390 . S
C419 C416 1.386 . S
C420 C415 1.490 . S
C420 C422 1.395 . S
C420 C423 1.403 . S
H421 C427 0.930 . S
C422 H408 0.930 . S
C422 C420 1.395 . S
C422 C425 1.403 . S
C423 C420 1.403 . S
C423 C424 1.524 . S
C423 C427 1.400 . S
C424 H409 0.960 . S
C424 H410 0.960 . S
C424 H411 0.960 . S
C424 C423 1.524 . S
C425 C422 1.403 . S
C425 C426 1.392 . S
C425 C429 1.495 . S
C426 C425 1.392 . S
C426 C427 1.385 . S
C426 C428 1.478 . S
C427 H421 0.930 . S
C427 C423 1.400 . S
C427 C426 1.385 . S
C428 C426 1.478 . S
C428 C430 1.381 . S
C428 C434 1.383 . S
C429 C425 1.495 . S
C429 H435 0.959 . S
C429 H436 0.961 . S
C429 H437 0.960 . S
C430 C428 1.381 . S
C430 C431 1.394 . S
C430 H438 0.930 . S
C431 C430 1.394 . S
C431 C432 1.383 . S
C431 H439 0.929 . S
C432 C431 1.383 . S
C432 C433 1.377 . S
C433 H417 0.930 . S
C433 C432 1.377 . S
C433 C434 1.379 . S
C434 H418 0.931 . S
C434 C428 1.383 . S
C434 C433 1.379 . S
H435 C429 0.959 . S
H436 C429 0.961 . S
H437 C429 0.960 . S
H438 C430 0.930 . S
H439 C431 0.929 . S
H440 C448 0.929 . S
H441 C450 0.930 . S
H442 C452 0.930 . S
H443 C455 0.929 . S
H444 C458 0.930 . S
H445 C460 0.960 . S
H446 C460 0.960 . S
H447 C460 0.960 . S
C448 H440 0.929 . S
C448 C449 1.377 . S
C448 C450 1.384 . S
C449 C448 1.377 . S
C449 C455 1.390 . S
C450 H441 0.930 . S
C450 C448 1.384 . S
C450 C451 1.372 . S
C451 C450 1.372 . S
C451 C452 1.400 . S
C451 C456 1.490 . S
C452 H442 0.930 . S
C452 C451 1.400 . S
C452 C455 1.386 . S
H453 C469 0.930 . S
H454 C470 0.931 . S
C455 H443 0.929 . S
C455 C449 1.390 . S
C455 C452 1.386 . S
C456 C451 1.490 . S
C456 C458 1.395 . S
C456 C459 1.403 . S
H457 C463 0.930 . S
C458 H444 0.930 . S
C458 C456 1.395 . S
C458 C461 1.403 . S
C459 C456 1.403 . S
C459 C460 1.524 . S
C459 C463 1.400 . S
C460 H445 0.960 . S
C460 H446 0.960 . S
C460 H447 0.960 . S
C460 C459 1.524 . S
C461 C458 1.403 . S
C461 C462 1.392 . S
C461 C465 1.495 . S
C462 C461 1.392 . S
C462 C463 1.385 . S
C462 C464 1.478 . S
C463 H457 0.930 . S
C463 C459 1.400 . S
C463 C462 1.385 . S
C464 C462 1.478 . S
C464 C466 1.381 . S
C464 C470 1.383 . S
C465 C461 1.495 . S
C465 H471 0.959 . S
C465 H472 0.961 . S
C465 H473 0.960 . S
C466 C464 1.381 . S
C466 C467 1.394 . S
C466 H474 0.930 . S
C467 C466 1.394 . S
C467 C468 1.383 . S
C467 H475 0.929 1_455 S
C468 C467 1.383 . S
C468 C469 1.377 . S
C469 H453 0.930 . S
C469 C468 1.377 . S
C469 C470 1.379 . S
C470 H454 0.931 . S
C470 C464 1.383 . S
C470 C469 1.379 . S
H471 C465 0.959 . S
H472 C465 0.961 . S
H473 C465 0.960 . S
H474 C466 0.930 . S
H475 C467 0.929 1_655 S
H476 C484 0.929 . S
H477 C486 0.930 . S
H478 C488 0.930 . S
H479 C491 0.929 . S
H480 C494 0.930 . S
H481 C496 0.960 . S
H482 C496 0.960 . S
H483 C496 0.960 . S
C484 H476 0.929 . S
C484 C485 1.377 . S
C484 C486 1.384 . S
C485 C484 1.377 . S
C485 C491 1.390 1_545 S
C486 H477 0.930 . S
C486 C484 1.384 . S
C486 C487 1.372 . S
C487 C486 1.372 . S
C487 C488 1.400 1_545 S
C487 C492 1.490 . S
C488 H478 0.930 . S
C488 C487 1.400 1_565 S
C488 C491 1.386 . S
H489 C505 0.930 . S
H490 C506 0.931 . S
C491 H479 0.929 . S
C491 C485 1.390 1_565 S
C491 C488 1.386 . S
C492 C487 1.490 . S
C492 C494 1.395 1_545 S
C492 C495 1.403 . S
H493 C499 0.930 . S
C494 H480 0.930 . S
C494 C492 1.395 1_565 S
C494 C497 1.403 . S
C495 C492 1.403 . S
C495 C496 1.524 . S
C495 C499 1.400 . S
C496 H481 0.960 . S
C496 H482 0.960 . S
C496 H483 0.960 . S
C496 C495 1.524 . S
C497 C494 1.403 . S
C497 C498 1.392 1_565 S
C497 C501 1.495 . S
C498 C497 1.392 1_545 S
C498 C499 1.385 . S
C498 C500 1.485 . S
C499 H493 0.930 . S
C499 C495 1.400 . S
C499 C498 1.385 . S
C500 C498 1.485 . S
C500 C502 1.405 . S
C500 C506 1.354 1_545 S
C501 C497 1.495 . S
C501 H507 0.959 . S
C501 H508 0.961 . S
C501 H509 0.960 . S
C502 C500 1.405 . S
C502 C503 1.394 . S
C502 H510 0.930 . S
C503 C502 1.394 . S
C503 C504 1.392 . S
C503 H511 0.929 . S
C504 C503 1.392 . S
C504 C505 1.370 1_545 S
C505 H489 0.930 . S
C505 C504 1.370 1_565 S
C505 C506 1.379 . S
C506 H490 0.931 . S
C506 C500 1.354 1_565 S
C506 C505 1.379 . S
H507 C501 0.959 . S
H508 C501 0.961 . S
H509 C501 0.960 . S
H510 C502 0.930 . S
H511 C503 0.929 . S
H512 C520 0.929 . S
H513 C522 0.930 . S
H514 C524 0.930 . S
H515 C527 0.929 . S
H516 C530 0.930 . S
H517 C532 0.960 . S
H518 C532 0.960 . S
H519 C532 0.960 . S
C520 H512 0.929 . S
C520 C521 1.377 . S
C520 C522 1.384 . S
C521 C520 1.377 . S
C521 C527 1.390 . S
C522 H513 0.930 . S
C522 C520 1.384 . S
C522 C523 1.372 . S
C523 C522 1.372 . S
C523 C524 1.400 . S
C523 C528 1.490 . S
C524 H514 0.930 . S
C524 C523 1.400 . S
C524 C527 1.386 . S
H525 C541 0.930 . S
H526 C542 0.931 . S
C527 H515 0.929 . S
C527 C521 1.390 . S
C527 C524 1.386 . S
C528 C523 1.490 . S
C528 C530 1.395 . S
C528 C531 1.403 . S
H529 C535 0.930 . S
C530 H516 0.930 . S
C530 C528 1.395 . S
C530 C533 1.403 . S
C531 C528 1.403 . S
C531 C532 1.524 . S
C531 C535 1.400 . S
C532 H517 0.960 . S
C532 H518 0.960 . S
C532 H519 0.960 . S
C532 C531 1.524 . S
C533 C530 1.403 . S
C533 C534 1.392 . S
C533 C537 1.495 . S
C534 C533 1.392 . S
C534 C535 1.385 . S
C534 C536 1.478 . S
C535 H529 0.930 . S
C535 C531 1.400 . S
C535 C534 1.385 . S
C536 C534 1.478 . S
C536 C538 1.381 . S
C536 C542 1.383 . S
C537 C533 1.495 . S
C537 H543 0.959 . S
C537 H544 0.961 . S
C537 H545 0.960 . S
C538 C536 1.381 . S
C538 C539 1.394 . S
C538 H546 0.930 . S
C539 C538 1.394 . S
C539 C540 1.383 . S
C539 H547 0.929 . S
C540 C539 1.383 . S
C540 C541 1.377 . S
C541 H525 0.930 . S
C541 C540 1.377 . S
C541 C542 1.379 . S
C542 H526 0.931 . S
C542 C536 1.383 . S
C542 C541 1.379 . S
H543 C537 0.959 . S
H544 C537 0.961 . S
H545 C537 0.960 . S
H546 C538 0.930 . S
H547 C539 0.929 . S
H548 C556 0.929 . S
H549 C558 0.930 . S
H550 C560 0.930 . S
H551 C563 0.929 . S
H552 C566 0.930 . S
H553 C568 0.960 . S
H554 C568 0.960 . S
H555 C568 0.960 . S
C556 H548 0.929 . S
C556 C557 1.377 . S
C556 C558 1.384 . S
C557 C556 1.377 . S
C557 C563 1.390 . S
C558 H549 0.930 . S
C558 C556 1.384 . S
C558 C559 1.372 . S
C559 C558 1.372 . S
C559 C560 1.400 . S
C559 C564 1.490 . S
C560 H550 0.930 . S
C560 C559 1.400 . S
C560 C563 1.386 . S
H561 C577 0.930 . S
H562 C578 0.931 . S
C563 H551 0.929 . S
C563 C557 1.390 . S
C563 C560 1.386 . S
C564 C559 1.490 . S
C564 C566 1.395 . S
C564 C567 1.403 . S
H565 C571 0.930 . S
C566 H552 0.930 . S
C566 C564 1.395 . S
C566 C569 1.403 . S
C567 C564 1.403 . S
C567 C568 1.524 . S
C567 C571 1.400 . S
C568 H553 0.960 . S
C568 H554 0.960 . S
C568 H555 0.960 . S
C568 C567 1.524 . S
C569 C566 1.403 . S
C569 C570 1.392 . S
C569 C573 1.495 . S
C570 C569 1.392 . S
C570 C571 1.385 . S
C570 C572 1.478 . S
C571 H565 0.930 . S
C571 C567 1.400 . S
C571 C570 1.385 . S
C572 C570 1.478 . S
C572 C574 1.381 . S
C572 C578 1.383 . S
C573 C569 1.495 . S
C573 H579 0.959 . S
C573 H580 0.961 . S
C573 H581 0.960 . S
C574 C572 1.381 . S
C574 C575 1.394 . S
C574 H582 0.930 . S
C575 C574 1.394 . S
C575 C576 1.383 . S
C575 H583 0.929 . S
C576 C575 1.383 . S
C576 C577 1.377 . S
C577 H561 0.930 . S
C577 C576 1.377 . S
C577 C578 1.379 . S
C578 H562 0.931 . S
C578 C572 1.383 . S
C578 C577 1.379 . S
H579 C573 0.959 . S
H580 C573 0.961 . S
H581 C573 0.960 . S
H582 C574 0.930 . S
H583 C575 0.929 . S
H584 C592 0.929 . S
H585 C594 0.930 . S
H586 C596 0.930 . S
H587 C599 0.929 . S
H588 C602 0.930 . S
H589 C604 0.960 . S
H590 C604 0.960 . S
H591 C604 0.960 . S
C592 H584 0.929 . S
C592 C593 1.377 . S
C592 C594 1.384 . S
C593 C592 1.377 . S
C593 C599 1.390 . S
C594 H585 0.930 . S
C594 C592 1.384 . S
C594 C595 1.372 . S
C595 C594 1.372 . S
C595 C596 1.400 . S
C595 C600 1.490 . S
C596 H586 0.930 . S
C596 C595 1.400 . S
C596 C599 1.386 . S
H597 C613 0.930 1_455 S
H598 C614 0.931 . S
C599 H587 0.929 . S
C599 C593 1.390 . S
C599 C596 1.386 . S
C600 C595 1.490 . S
C600 C602 1.395 . S
C600 C603 1.403 . S
H601 C607 0.930 . S
C602 H588 0.930 . S
C602 C600 1.395 . S
C602 C605 1.403 . S
C603 C600 1.403 . S
C603 C604 1.524 . S
C603 C607 1.400 . S
C604 H589 0.960 . S
C604 H590 0.960 . S
C604 H591 0.960 . S
C604 C603 1.524 . S
C605 C602 1.403 . S
C605 C606 1.392 . S
C605 C609 1.495 . S
C606 C605 1.392 . S
C606 C607 1.385 . S
C606 C608 1.478 . S
C607 H601 0.930 . S
C607 C603 1.400 . S
C607 C606 1.385 . S
C608 C606 1.478 . S
C608 C610 1.381 . S
C608 C614 1.383 . S
C609 C605 1.495 . S
C609 H615 0.959 . S
C609 H616 0.961 . S
C609 H617 0.960 . S
C610 C608 1.381 . S
C610 C611 1.394 . S
C610 H618 0.930 . S
C611 C610 1.394 . S
C611 C612 1.383 . S
C611 H619 0.929 . S
C612 C611 1.383 . S
C612 C613 1.377 . S
C613 H597 0.930 1_655 S
C613 C612 1.377 . S
C613 C614 1.379 . S
C614 H598 0.931 . S
C614 C608 1.383 . S
C614 C613 1.379 . S
H615 C609 0.959 . S
H616 C609 0.961 . S
H617 C609 0.960 . S
H618 C610 0.930 . S
H619 C611 0.929 . S
H620 C628 0.929 . S
H621 C630 0.930 . S
H622 C632 0.930 . S
H623 C635 0.929 . S
H624 C638 0.930 1_554 S
H625 C640 0.960 . S
H626 C640 0.960 . S
H627 C640 0.960 1_545 S
C628 H620 0.929 . S
C628 C629 1.390 . S
C628 C630 1.384 . S
C629 C628 1.390 . S
C629 C635 1.375 1_564 S
C630 H621 0.930 . S
C630 C628 1.384 . S
C630 C631 1.369 1_564 S
C631 C630 1.369 1_546 S
C631 C632 1.402 . S
C631 C636 1.491 . S
C632 H622 0.930 . S
C632 C631 1.402 . S
C632 C635 1.386 . S
H633 C649 0.930 . S
H634 C650 0.931 . S
C635 H623 0.929 . S
C635 C629 1.375 1_546 S
C635 C632 1.386 . S
C636 C631 1.491 . S
C636 C638 1.395 . S
C636 C639 1.403 1_545 S
H637 C643 0.930 . S
C638 H624 0.930 1_556 S
C638 C636 1.395 . S
C638 C641 1.403 . S
C639 C636 1.403 1_565 S
C639 C640 1.524 . S
C639 C643 1.400 . S
C640 H625 0.960 . S
C640 H626 0.960 . S
C640 H627 0.960 1_565 S
C640 C639 1.524 . S
C641 C638 1.403 . S
C641 C642 1.392 . S
C641 C645 1.495 . S
C642 C641 1.392 . S
C642 C643 1.385 1_545 S
C642 C644 1.478 . S
C643 H637 0.930 . S
C643 C639 1.400 . S
C643 C642 1.385 1_565 S
C644 C642 1.478 . S
C644 C646 1.381 1_545 S
C644 C650 1.383 . S
C645 C641 1.495 . S
C645 H651 0.959 1_556 S
C645 H652 0.961 . S
C645 H653 0.960 . S
C646 C644 1.381 1_565 S
C646 C647 1.394 . S
C646 H654 0.930 . S
C647 C646 1.394 . S
C647 C648 1.383 1_565 S
C647 H655 0.929 . S
C648 C647 1.383 1_545 S
C648 C649 1.377 . S
C649 H633 0.930 . S
C649 C648 1.377 . S
C649 C650 1.379 . S
C650 H634 0.931 . S
C650 C644 1.383 . S
C650 C649 1.379 . S
H651 C645 0.959 1_554 S
H652 C645 0.961 . S
H653 C645 0.960 . S
H654 C646 0.930 . S
H655 C647 0.929 . S
H656 C664 0.929 . S
H657 C666 0.930 . S
H658 C668 0.930 . S
H659 C671 0.929 . S
H660 C674 0.930 . S
H661 C676 0.960 . S
H662 C676 0.960 1_554 S
H663 C676 0.960 . S
C664 H656 0.929 . S
C664 C665 1.377 . S
C664 C666 1.384 1_554 S
C665 C664 1.377 . S
C665 C671 1.387 1_554 S
C666 H657 0.930 . S
C666 C664 1.384 1_556 S
C666 C667 1.372 . S
C667 C666 1.372 . S
C667 C668 1.400 . S
C667 C672 1.490 . S
C668 H658 0.930 . S
C668 C667 1.400 . S
C668 C671 1.386 . S
H669 C685 0.930 . S
H670 C686 0.931 . S
C671 H659 0.929 . S
C671 C665 1.387 1_556 S
C671 C668 1.386 . S
C672 C667 1.490 . S
C672 C674 1.395 . S
C672 C675 1.403 . S
H673 C679 0.930 . S
C674 H660 0.930 . S
C674 C672 1.395 . S
C674 C677 1.403 . S
C675 C672 1.403 . S
C675 C676 1.524 . S
C675 C679 1.400 . S
C676 H661 0.960 . S
C676 H662 0.960 1_556 S
C676 H663 0.960 . S
C676 C675 1.524 . S
C677 C674 1.403 . S
C677 C678 1.392 . S
C677 C681 1.495 . S
C678 C677 1.392 . S
C678 C679 1.385 . S
C678 C680 1.478 . S
C679 H673 0.930 . S
C679 C675 1.400 . S
C679 C678 1.385 . S
C680 C678 1.478 . S
C680 C682 1.381 . S
C680 C686 1.383 . S
C681 C677 1.495 . S
C681 H687 0.959 . S
C681 H688 0.961 . S
C681 H689 0.960 . S
C682 C680 1.381 . S
C682 C683 1.394 . S
C682 H690 0.930 . S
C683 C682 1.394 . S
C683 C684 1.383 . S
C683 H691 0.929 . S
C684 C683 1.383 . S
C684 C685 1.377 . S
C685 H669 0.930 . S
C685 C684 1.377 . S
C685 C686 1.379 . S
C686 H670 0.931 . S
C686 C680 1.383 . S
C686 C685 1.379 . S
H687 C681 0.959 . S
H688 C681 0.961 . S
H689 C681 0.960 . S
H690 C682 0.930 . S
H691 C683 0.929 . S
H692 C700 0.929 . S
H693 C702 0.930 1_554 S
H694 C704 0.930 . S
H695 C707 0.929 . S
H696 C710 0.930 . S
H697 C712 0.960 . S
H698 C712 0.960 . S
H699 C712 0.960 . S
C700 H692 0.929 . S
C700 C701 1.377 1_554 S
C700 C702 1.384 1_554 S
C701 C700 1.377 1_556 S
C701 C707 1.390 . S
C702 H693 0.930 1_556 S
C702 C700 1.384 1_556 S
C702 C703 1.372 . S
C703 C702 1.372 . S
C703 C704 1.400 . S
C703 C708 1.490 . S
C704 H694 0.930 . S
C704 C703 1.400 . S
C704 C707 1.386 . S
H705 C721 0.930 . S
H706 C722 0.931 . S
C707 H695 0.929 . S
C707 C701 1.390 . S
C707 C704 1.386 . S
C708 C703 1.490 . S
C708 C710 1.395 . S
C708 C711 1.403 . S
H709 C715 0.930 . S
C710 H696 0.930 . S
C710 C708 1.395 . S
C710 C713 1.403 . S
C711 C708 1.403 . S
C711 C712 1.524 . S
C711 C715 1.400 . S
C712 H697 0.960 . S
C712 H698 0.960 . S
C712 H699 0.960 . S
C712 C711 1.524 . S
C713 C710 1.403 . S
C713 C714 1.392 . S
C713 C717 1.495 . S
C714 C713 1.392 . S
C714 C715 1.385 . S
C714 C716 1.478 . S
C715 H709 0.930 . S
C715 C711 1.400 . S
C715 C714 1.385 . S
C716 C714 1.478 . S
C716 C718 1.381 . S
C716 C722 1.383 . S
C717 C713 1.495 . S
C717 H723 0.959 . S
C717 H724 0.961 . S
C717 H725 0.960 . S
C718 C716 1.381 . S
C718 C719 1.394 . S
C718 H726 0.930 . S
C719 C718 1.394 . S
C719 C720 1.383 . S
C719 H727 0.929 . S
C720 C719 1.383 . S
C720 C721 1.377 . S
C721 H705 0.930 . S
C721 C720 1.377 . S
C721 C722 1.379 . S
C722 H706 0.931 . S
C722 C716 1.383 . S
C722 C721 1.379 . S
H723 C717 0.959 . S
H724 C717 0.961 . S
H725 C717 0.960 . S
H726 C718 0.930 . S
H727 C719 0.929 . S
H728 C736 0.929 . S
H729 C738 0.930 . S
H730 C740 0.930 . S
H731 C743 0.929 . S
H732 C746 0.930 . S
H733 C748 0.960 . S
H734 C748 0.960 1_554 S
H735 C748 0.960 . S
C736 H728 0.929 . S
C736 C737 1.377 . S
C736 C738 1.384 . S
C737 C736 1.377 . S
C737 C743 1.390 . S
C738 H729 0.930 . S
C738 C736 1.384 . S
C738 C739 1.372 . S
C739 C738 1.372 . S
C739 C740 1.400 . S
C739 C744 1.490 . S
C740 H730 0.930 . S
C740 C739 1.400 . S
C740 C743 1.386 . S
H741 C757 0.930 . S
H742 C758 0.931 . S
C743 H731 0.929 . S
C743 C737 1.390 . S
C743 C740 1.386 . S
C744 C739 1.490 . S
C744 C746 1.395 . S
C744 C747 1.403 . S
H745 C751 0.930 . S
C746 H732 0.930 . S
C746 C744 1.395 . S
C746 C749 1.403 . S
C747 C744 1.403 . S
C747 C748 1.524 1_554 S
C747 C751 1.400 1_554 S
C748 H733 0.960 . S
C748 H734 0.960 1_556 S
C748 H735 0.960 . S
C748 C747 1.524 1_556 S
C749 C746 1.403 . S
C749 C750 1.392 . S
C749 C753 1.495 . S
C750 C749 1.392 . S
C750 C751 1.385 1_554 S
C750 C752 1.478 1_554 S
C751 H745 0.930 . S
C751 C747 1.400 1_556 S
C751 C750 1.385 1_556 S
C752 C750 1.478 1_556 S
C752 C754 1.381 . S
C752 C758 1.383 . S
C753 C749 1.495 . S
C753 H759 0.959 . S
C753 H760 0.961 . S
C753 H761 0.960 . S
C754 C752 1.381 . S
C754 C755 1.394 . S
C754 H762 0.930 . S
C755 C754 1.394 . S
C755 C756 1.383 . S
C755 H763 0.929 . S
C756 C755 1.383 . S
C756 C757 1.377 . S
C757 H741 0.930 . S
C757 C756 1.377 . S
C757 C758 1.379 . S
C758 H742 0.931 . S
C758 C752 1.383 . S
C758 C757 1.379 . S
H759 C753 0.959 . S
H760 C753 0.961 . S
H761 C753 0.960 . S
H762 C754 0.930 . S
H763 C755 0.929 . S
H764 C772 0.929 . S
H765 C774 0.930 . S
H766 C776 0.930 . S
H767 C779 0.929 . S
H768 C782 0.930 . S
H769 C784 0.960 . S
H770 C784 0.960 . S
H771 C784 0.960 . S
C772 H764 0.929 . S
C772 C773 1.377 1_565 S
C772 C774 1.384 . S
C773 C772 1.377 1_545 S
C773 C779 1.390 . S
C774 H765 0.930 . S
C774 C772 1.384 . S
C774 C775 1.372 1_565 S
C775 C774 1.372 1_545 S
C775 C776 1.400 . S
C775 C780 1.490 . S
C776 H766 0.930 . S
C776 C775 1.400 . S
C776 C779 1.386 . S
H777 C793 0.930 . S
H778 C794 0.931 . S
C779 H767 0.929 . S
C779 C773 1.390 . S
C779 C776 1.386 . S
C780 C775 1.490 . S
C780 C782 1.395 1_544 S
C780 C783 1.403 . S
H781 C787 0.934 . S
C782 H768 0.930 . S
C782 C780 1.395 1_566 S
C782 C785 1.403 . S
C783 C780 1.403 . S
C783 C784 1.524 . S
C783 C787 1.409 . S
C784 H769 0.960 . S
C784 H770 0.960 . S
C784 H771 0.960 . S
C784 C783 1.524 . S
C785 C782 1.403 . S
C785 C786 1.392 1_565 S
C785 C789 1.495 . S
C786 C785 1.392 1_545 S
C786 C787 1.372 1_556 S
C786 C788 1.478 . S
C787 H781 0.934 . S
C787 C783 1.409 . S
C787 C786 1.372 1_554 S
C788 C786 1.478 . S
C788 C790 1.381 1_545 S
C788 C794 1.383 . S
C789 C785 1.495 . S
C789 H795 0.959 . S
C789 H796 0.961 . S
C789 H797 0.960 . S
C790 C788 1.381 1_565 S
C790 C791 1.394 . S
C790 H798 0.930 . S
C791 C790 1.394 . S
C791 C792 1.383 1_565 S
C791 H799 0.929 . S
C792 C791 1.383 1_545 S
C792 C793 1.377 . S
C793 H777 0.930 . S
C793 C792 1.377 . S
C793 C794 1.379 . S
C794 H778 0.931 . S
C794 C788 1.383 . S
C794 C793 1.379 . S
H795 C789 0.959 . S
H796 C789 0.961 . S
H797 C789 0.960 . S
H798 C790 0.930 . S
H799 C791 0.929 . S
H800 C808 0.929 . S
H801 C810 0.930 . S
H802 C812 0.930 . S
H803 C815 0.929 . S
H804 C818 0.930 . S
H805 C820 0.960 . S
H806 C820 0.960 . S
H807 C820 0.960 . S
C808 H800 0.929 . S
C808 C809 1.377 . S
C808 C810 1.384 . S
C809 C808 1.377 . S
C809 C815 1.390 . S
C810 H801 0.930 . S
C810 C808 1.384 . S
C810 C811 1.372 . S
C811 C810 1.372 . S
C811 C812 1.400 . S
C811 C816 1.490 . S
C812 H802 0.930 . S
C812 C811 1.400 . S
C812 C815 1.386 . S
H813 C829 0.930 . S
H814 C830 0.931 . S
C815 H803 0.929 . S
C815 C809 1.390 . S
C815 C812 1.386 . S
C816 C811 1.490 . S
C816 C818 1.395 1_554 S
C816 C819 1.403 . S
H817 C823 0.930 . S
C818 H804 0.930 . S
C818 C816 1.395 1_556 S
C818 C821 1.403 . S
C819 C816 1.403 . S
C819 C820 1.524 . S
C819 C823 1.400 . S
C820 H805 0.960 . S
C820 H806 0.960 . S
C820 H807 0.960 . S
C820 C819 1.524 . S
C821 C818 1.403 . S
C821 C822 1.392 . S
C821 C825 1.495 . S
C822 C821 1.392 . S
C822 C823 1.385 1_556 S
C822 C824 1.478 . S
C823 H817 0.930 . S
C823 C819 1.400 . S
C823 C822 1.385 1_554 S
C824 C822 1.478 . S
C824 C826 1.381 . S
C824 C830 1.383 . S
C825 C821 1.495 . S
C825 H831 0.959 . S
C825 H832 0.961 . S
C825 H833 0.960 . S
C826 C824 1.381 . S
C826 C827 1.394 . S
C826 H834 0.930 . S
C827 C826 1.394 . S
C827 C828 1.383 . S
C827 H835 0.929 . S
C828 C827 1.383 . S
C828 C829 1.377 . S
C829 H813 0.930 . S
C829 C828 1.377 . S
C829 C830 1.379 . S
C830 H814 0.931 . S
C830 C824 1.383 . S
C830 C829 1.379 . S
H831 C825 0.959 . S
H832 C825 0.961 . S
H833 C825 0.960 . S
H834 C826 0.930 . S
H835 C827 0.929 . S
H836 C844 0.929 . S
H837 C846 0.930 . S
H838 C848 0.930 . S
H839 C851 0.929 . S
H840 C854 0.930 . S
H841 C856 0.960 . S
H842 C856 0.960 . S
H843 C856 0.960 . S
C844 H836 0.929 . S
C844 C845 1.377 . S
C844 C846 1.384 . S
C845 C844 1.377 . S
C845 C851 1.390 . S
C846 H837 0.930 . S
C846 C844 1.384 . S
C846 C847 1.372 . S
C847 C846 1.372 . S
C847 C848 1.400 . S
C847 C852 1.490 . S
C848 H838 0.930 . S
C848 C847 1.400 . S
C848 C851 1.386 . S
H849 C865 0.930 . S
H850 C866 0.931 . S
C851 H839 0.929 . S
C851 C845 1.390 . S
C851 C848 1.386 . S
C852 C847 1.490 . S
C852 C854 1.395 1_554 S
C852 C855 1.403 . S
H853 C859 0.930 . S
C854 H840 0.930 . S
C854 C852 1.395 1_556 S
C854 C857 1.403 . S
C855 C852 1.403 . S
C855 C856 1.524 . S
C855 C859 1.400 . S
C856 H841 0.960 . S
C856 H842 0.960 . S
C856 H843 0.960 . S
C856 C855 1.524 . S
C857 C854 1.403 . S
C857 C858 1.392 . S
C857 C861 1.495 . S
C858 C857 1.392 . S
C858 C859 1.385 1_556 S
C858 C860 1.478 . S
C859 H853 0.930 . S
C859 C855 1.400 . S
C859 C858 1.385 1_554 S
C860 C858 1.478 . S
C860 C862 1.381 . S
C860 C866 1.383 . S
C861 C857 1.495 . S
C861 H867 0.959 . S
C861 H868 0.961 . S
C861 H869 0.960 . S
C862 C860 1.381 . S
C862 C863 1.394 . S
C862 H870 0.930 . S
C863 C862 1.394 . S
C863 C864 1.383 . S
C863 H871 0.929 . S
C864 C863 1.383 . S
C864 C865 1.377 . S
C865 H849 0.930 . S
C865 C864 1.377 . S
C865 C866 1.379 . S
C866 H850 0.931 . S
C866 C860 1.383 . S
C866 C865 1.379 . S
H867 C861 0.959 . S
H868 C861 0.961 . S
H869 C861 0.960 . S
H870 C862 0.930 . S
H871 C863 0.929 . S
H872 C880 0.929 . S
H873 C882 0.930 . S
H874 C884 0.930 . S
H875 C887 0.929 . S
H876 C890 0.930 . S
H877 C892 0.960 . S
H878 C892 0.960 . S
H879 C892 0.960 . S
C880 H872 0.929 . S
C880 C881 1.377 . S
C880 C882 1.384 . S
C881 C880 1.377 . S
C881 C887 1.390 . S
C882 H873 0.930 . S
C882 C880 1.384 . S
C882 C883 1.372 . S
C883 C882 1.372 . S
C883 C884 1.400 . S
C883 C888 1.490 . S
C884 H874 0.930 . S
C884 C883 1.400 . S
C884 C887 1.386 . S
H885 C901 0.930 . S
H886 C902 0.931 . S
C887 H875 0.929 . S
C887 C881 1.390 . S
C887 C884 1.386 . S
C888 C883 1.490 . S
C888 C890 1.395 . S
C888 C891 1.403 . S
H889 C895 0.930 . S
C890 H876 0.930 . S
C890 C888 1.395 . S
C890 C893 1.403 . S
C891 C888 1.403 . S
C891 C892 1.524 . S
C891 C895 1.400 . S
C892 H877 0.960 . S
C892 H878 0.960 . S
C892 H879 0.960 . S
C892 C891 1.524 . S
C893 C890 1.403 . S
C893 C894 1.392 . S
C893 C897 1.495 . S
C894 C893 1.392 . S
C894 C895 1.385 . S
C894 C896 1.478 . S
C895 H889 0.930 . S
C895 C891 1.400 . S
C895 C894 1.385 . S
C896 C894 1.478 . S
C896 C898 1.381 . S
C896 C902 1.383 . S
C897 C893 1.495 . S
C897 H903 0.959 . S
C897 H904 0.961 . S
C897 H905 0.960 . S
C898 C896 1.381 . S
C898 C899 1.394 . S
C898 H906 0.930 . S
C899 C898 1.394 . S
C899 C900 1.383 . S
C899 H907 0.929 . S
C900 C899 1.383 . S
C900 C901 1.377 . S
C901 H885 0.930 . S
C901 C900 1.377 . S
C901 C902 1.379 . S
C902 H886 0.931 . S
C902 C896 1.383 . S
C902 C901 1.379 . S
H903 C897 0.959 . S
H904 C897 0.961 . S
H905 C897 0.960 . S
H906 C898 0.930 . S
H907 C899 0.929 . S
H908 C916 0.929 . S
H909 C918 0.930 . S
H910 C920 0.930 . S
H911 C923 0.929 . S
H912 C926 0.930 . S
H913 C928 0.960 . S
H914 C928 0.960 . S
H915 C928 0.960 . S
C916 H908 0.929 . S
C916 C917 1.385 . S
C916 C918 1.384 . S
C917 C916 1.385 . S
C917 C923 1.383 1_545 S
C918 H909 0.930 . S
C918 C916 1.384 . S
C918 C919 1.372 . S
C919 C918 1.372 . S
C919 C920 1.400 1_545 S
C919 C924 1.490 . S
C920 H910 0.930 . S
C920 C919 1.400 1_565 S
C920 C923 1.386 . S
H921 C937 0.930 . S
H922 C938 0.931 . S
C923 H911 0.929 . S
C923 C917 1.383 1_565 S
C923 C920 1.386 . S
C924 C919 1.490 . S
C924 C926 1.395 . S
C924 C927 1.403 1_545 S
H925 C931 0.930 . S
C926 H912 0.930 . S
C926 C924 1.395 . S
C926 C929 1.403 . S
C927 C924 1.403 1_565 S
C927 C928 1.524 . S
C927 C931 1.400 . S
C928 H913 0.960 . S
C928 H914 0.960 . S
C928 H915 0.960 . S
C928 C927 1.524 . S
C929 C926 1.403 . S
C929 C930 1.392 . S
C929 C933 1.495 . S
C930 C929 1.392 . S
C930 C931 1.385 1_545 S
C930 C932 1.478 . S
C931 H925 0.930 . S
C931 C927 1.400 . S
C931 C930 1.385 1_565 S
C932 C930 1.478 . S
C932 C934 1.381 . S
C932 C938 1.383 1_545 S
C933 C929 1.495 . S
C933 H939 0.959 . S
C933 H940 0.961 . S
C933 H941 0.960 . S
C934 C932 1.381 . S
C934 C935 1.394 . S
C934 H942 0.930 . S
C935 C934 1.394 . S
C935 C936 1.383 . S
C935 H943 0.929 . S
C936 C935 1.383 . S
C936 C937 1.377 1_545 S
C937 H921 0.930 . S
C937 C936 1.377 1_565 S
C937 C938 1.379 . S
C938 H922 0.931 . S
C938 C932 1.383 1_565 S
C938 C937 1.379 . S
H939 C933 0.959 . S
H940 C933 0.961 . S
H941 C933 0.960 . S
H942 C934 0.930 . S
H943 C935 0.929 . S
H944 C952 0.929 . S
H945 C954 0.930 . S
H946 C956 0.930 . S
H947 C959 0.929 . S
H948 C962 0.930 . S
H949 C964 0.960 . S
H950 C964 0.960 . S
H951 C964 0.960 . S
C952 H944 0.929 . S
C952 C953 1.377 . S
C952 C954 1.384 . S
C953 C952 1.377 . S
C953 C959 1.390 . S
C954 H945 0.930 . S
C954 C952 1.384 . S
C954 C955 1.372 . S
C955 C954 1.372 . S
C955 C956 1.400 . S
C955 C960 1.490 . S
C956 H946 0.930 . S
C956 C955 1.400 . S
C956 C959 1.386 . S
H957 C973 0.930 . S
H958 C974 0.931 . S
C959 H947 0.929 . S
C959 C953 1.390 . S
C959 C956 1.386 . S
C960 C955 1.490 . S
C960 C962 1.395 . S
C960 C963 1.403 . S
H961 C967 0.930 . S
C962 H948 0.930 . S
C962 C960 1.395 . S
C962 C965 1.403 . S
C963 C960 1.403 . S
C963 C964 1.524 . S
C963 C967 1.400 . S
C964 H949 0.960 . S
C964 H950 0.960 . S
C964 H951 0.960 . S
C964 C963 1.524 . S
C965 C962 1.403 . S
C965 C966 1.392 . S
C965 C969 1.495 . S
C966 C965 1.392 . S
C966 C967 1.385 . S
C966 C968 1.478 . S
C967 H961 0.930 . S
C967 C963 1.400 . S
C967 C966 1.385 . S
C968 C966 1.478 . S
C968 C970 1.381 . S
C968 C974 1.383 . S
C969 C965 1.495 . S
C969 H975 0.959 . S
C969 H976 0.961 . S
C969 H977 0.960 . S
C970 C968 1.381 . S
C970 C971 1.394 . S
C970 H978 0.930 . S
C971 C970 1.394 . S
C971 C972 1.383 . S
C971 H979 0.929 . S
C972 C971 1.383 . S
C972 C973 1.377 . S
C973 H957 0.930 . S
C973 C972 1.377 . S
C973 C974 1.379 . S
C974 H958 0.931 . S
C974 C968 1.383 . S
C974 C973 1.379 . S
H975 C969 0.959 . S
H976 C969 0.961 . S
H977 C969 0.960 . S
H978 C970 0.930 . S
H979 C971 0.929 . S
H980 C988 0.929 . S
H981 C990 0.930 . S
H982 C992 0.930 . S
H983 C995 0.929 . S
H984 C998 0.930 . S
H985 C1000 0.960 . S
H986 C1000 0.960 . S
H987 C1000 0.960 . S
C988 H980 0.929 . S
C988 C989 1.377 . S
C988 C990 1.384 . S
C989 C988 1.377 . S
C989 C995 1.390 . S
C990 H981 0.930 . S
C990 C988 1.384 . S
C990 C991 1.372 . S
C991 C990 1.372 . S
C991 C992 1.400 . S
C991 C996 1.490 . S
C992 H982 0.930 . S
C992 C991 1.400 . S
C992 C995 1.386 . S
H993 C1009 0.930 . S
H994 C1010 0.931 . S
C995 H983 0.929 . S
C995 C989 1.390 . S
C995 C992 1.386 . S
C996 C991 1.490 . S
C996 C998 1.395 . S
C996 C999 1.403 . S
H997 C1003 0.930 . S
C998 H984 0.930 . S
C998 C996 1.395 . S
C998 C1001 1.403 . S
C999 C996 1.403 . S
C999 C1000 1.524 . S
C999 C1003 1.400 . S
C1000 H985 0.960 . S
C1000 H986 0.960 . S
C1000 H987 0.960 . S
C1000 C999 1.524 . S
C1001 C998 1.403 . S
C1001 C1002 1.392 . S
C1001 C1005 1.495 . S
C1002 C1001 1.392 . S
C1002 C1003 1.385 . S
C1002 C1004 1.478 . S
C1003 H997 0.930 . S
C1003 C999 1.400 . S
C1003 C1002 1.385 . S
C1004 C1002 1.478 . S
C1004 C1006 1.381 . S
C1004 C1010 1.383 . S
C1005 C1001 1.495 . S
C1005 H1011 0.959 . S
C1005 H1012 0.961 . S
C1005 H1013 0.960 . S
C1006 C1004 1.381 . S
C1006 C1007 1.394 . S
C1006 H1014 0.930 . S
C1007 C1006 1.394 . S
C1007 C1008 1.383 . S
C1007 H1015 0.929 . S
C1008 C1007 1.383 . S
C1008 C1009 1.377 . S
C1009 H993 0.930 . S
C1009 C1008 1.377 . S
C1009 C1010 1.379 . S
C1010 H994 0.931 . S
C1010 C1004 1.383 . S
C1010 C1009 1.379 . S
H1011 C1005 0.959 . S
H1012 C1005 0.961 . S
H1013 C1005 0.960 . S
H1014 C1006 0.930 . S
H1015 C1007 0.929 . S
C161 C61 1.388 . S
C180 C73 1.386 . S
C216 C108 1.776 . S
C197 C70 1.731 . S
C252 C113 1.216 . S
C233 C43 1.217 . S
C288 C133 1.555 . S
C269 C52 1.523 . S
C324 C81 1.407 . S
C305 C25 1.391 1_545 S
C341 C34 1.715 . S
C360 C98 1.784 . S
C377 C7 1.217 . S
C396 C121 1.231 . S
C413 C16 1.522 1_556 S
C432 C141 1.569 . S
C468 C91 0.860 . S
C449 C50 0.896 . S
C504 C100 0.529 1_545 S
C485 C59 0.520 . S
C540 C131 1.035 . S
C521 C67 1.027 . S
C557 C41 0.649 . S
C576 C151 0.717 . S
C593 C14 0.905 . S
C612 C80 0.883 . S
C648 C111 0.509 . S
C629 C23 0.521 . S
C684 C120 1.067 . S
C665 C31 1.030 . S
C701 C5 0.650 1_556 S
C720 C140 0.624 . S
C737 C49 1.651 . S
C756 C78 1.660 . S
C773 C58 1.299 . S
C792 C101 1.361 . S
C828 C118 1.718 . S
C809 C68 1.654 . S
C864 C138 1.581 . S
C845 C40 1.537 . S
C881 C13 1.655 . S
C900 C88 1.660 . S
C936 C93 1.342 . S
C917 C22 1.310 1_545 S
C972 C128 1.718 . S
C953 C32 1.648 . S
C989 C4 1.543 . S
C1008 C148 1.546 . S
