# Generated by pormake.
# Topology ssa, (4,4)-cn, num edge types: 1
# Building blocks:
#     Node 0, Type 0, BuildingBlock: ESEHIV_clean_sbu_0, # of connection points: 4
#     Node 1, Type 0, BuildingBlock: ESEHIV_clean_sbu_0, # of connection points: 4
#     Node 2, Type 0, BuildingBlock: ESEHIV_clean_sbu_0, # of connection points: 4
#     Node 3, Type 0, BuildingBlock: ESEHIV_clean_sbu_0, # of connection points: 4
#     Node 4, Type 0, BuildingBlock: ESEHIV_clean_sbu_0, # of connection points: 4
#     Node 5, Type 0, BuildingBlock: ESEHIV_clean_sbu_0, # of connection points: 4
#     Node 6, Type 1, BuildingBlock: AZAVOO_clean_linker_0, # of connection points: 4
#     Node 7, Type 1, BuildingBlock: AZAVOO_clean_linker_0, # of connection points: 4
#     Node 8, Type 1, BuildingBlock: AZAVOO_clean_linker_0, # of connection points: 4
#     Node 9, Type 1, BuildingBlock: AZAVOO_clean_linker_0, # of connection points: 4
#     Node 10, Type 1, BuildingBlock: AZAVOO_clean_linker_0, # of connection points: 4
#     Node 11, Type 1, BuildingBlock: AZAVOO_clean_linker_0, # of connection points: 4
#     Edge 12, Type (0, 1), BuildingBlock: MIFKUJ_clean_linker_0, # of connection points: 2
#     Edge 13, Type (0, 1), BuildingBlock: MIFKUJ_clean_linker_0, # of connection points: 2
#     Edge 14, Type (0, 1), BuildingBlock: MIFKUJ_clean_linker_0, # of connection points: 2
#     Edge 15, Type (0, 1), BuildingBlock: MIFKUJ_clean_linker_0, # of connection points: 2
#     Edge 16, Type (0, 1), BuildingBlock: MIFKUJ_clean_linker_0, # of connection points: 2
#     Edge 17, Type (0, 1), BuildingBlock: MIFKUJ_clean_linker_0, # of connection points: 2
#     Edge 18, Type (0, 1), BuildingBlock: MIFKUJ_clean_linker_0, # of connection points: 2
#     Edge 19, Type (0, 1), BuildingBlock: MIFKUJ_clean_linker_0, # of connection points: 2
#     Edge 20, Type (0, 1), BuildingBlock: MIFKUJ_clean_linker_0, # of connection points: 2
#     Edge 21, Type (0, 1), BuildingBlock: MIFKUJ_clean_linker_0, # of connection points: 2
#     Edge 22, Type (0, 1), BuildingBlock: MIFKUJ_clean_linker_0, # of connection points: 2
#     Edge 23, Type (0, 1), BuildingBlock: MIFKUJ_clean_linker_0, # of connection points: 2
#     Edge 24, Type (0, 1), BuildingBlock: MIFKUJ_clean_linker_0, # of connection points: 2
#     Edge 25, Type (0, 1), BuildingBlock: MIFKUJ_clean_linker_0, # of connection points: 2
#     Edge 26, Type (0, 1), BuildingBlock: MIFKUJ_clean_linker_0, # of connection points: 2
#     Edge 27, Type (0, 1), BuildingBlock: MIFKUJ_clean_linker_0, # of connection points: 2
#     Edge 28, Type (0, 1), BuildingBlock: MIFKUJ_clean_linker_0, # of connection points: 2
#     Edge 29, Type (0, 1), BuildingBlock: MIFKUJ_clean_linker_0, # of connection points: 2
#     Edge 30, Type (0, 1), BuildingBlock: MIFKUJ_clean_linker_0, # of connection points: 2
#     Edge 31, Type (0, 1), BuildingBlock: MIFKUJ_clean_linker_0, # of connection points: 2
#     Edge 32, Type (0, 1), BuildingBlock: MIFKUJ_clean_linker_0, # of connection points: 2
#     Edge 33, Type (0, 1), BuildingBlock: MIFKUJ_clean_linker_0, # of connection points: 2
#     Edge 34, Type (0, 1), BuildingBlock: MIFKUJ_clean_linker_0, # of connection points: 2
#     Edge 35, Type (0, 1), BuildingBlock: MIFKUJ_clean_linker_0, # of connection points: 2
# Relax obj value: 0.066
# Max RMSD: 0.229
# Mean RMSD: 0.155
data_MOF--net-ssa--node1-ESEHIV_clean_sbu_0--node2-AZAVOO_clean_linker_0--edge1-MIFKUJ_clean_linker_0
_symmetry_space_group_name_H-M    P1
_symmetry_Int_Tables_number       1
_symmetry_cell_setting            triclinic
loop_
_symmetry_equiv_pos_as_xyz
'x, y, z'
_cell_length_a     62.001499
_cell_length_b     65.898952
_cell_length_c     60.79937
_cell_angle_alpha  88.591716
_cell_angle_beta   92.974437
_cell_angle_gamma 121.93772
loop_
_atom_site_label
_atom_site_type_symbol
_atom_site_fract_x
_atom_site_fract_y
_atom_site_fract_z
_atom_type_partial_charge
Cu0 Cu 0.16177 0.56408 0.99697 0.0
N1 N 0.16408 0.54944 0.97212 0.0
N2 N 0.15164 0.52103 0.94668 0.0
C3 C 0.14604 0.52724 0.96554 0.0
C4 C 0.17423 0.54019 0.94116 0.0
C5 C 0.18193 0.55772 0.95699 0.0
O6 O 0.12973 0.56289 0.99474 0.0
C7 C 0.18255 0.5438 0.02379 0.0
O8 O 0.19825 0.55135 0.0076 0.0
H9 H 0.12868 0.51623 0.97414 0.0
H10 H 0.19912 0.57527 0.95732 0.0
N11 N 0.18798 0.59588 1.00006 0.0
N12 N 0.21392 0.63026 0.01795 0.0
C13 C 0.19749 0.60649 0.01974 0.0
C14 C 0.19864 0.61347 0.98509 0.0
C15 C 0.21473 0.6348 0.99612 0.0
C16 C 0.12202 0.56592 0.97585 0.0
O17 O 0.13591 0.56985 0.95882 0.0
H18 H 0.19116 0.59704 0.03516 0.0
H19 H 0.19421 0.61114 0.96754 0.0
O20 O 0.16415 0.54722 0.02267 0.0
H21 H 0.18442 0.5415 0.92675 0.0
H22 H 0.22558 0.65229 0.98868 0.0
Cu23 Cu 0.588 0.01747 0.55721 0.0
N24 N 0.61153 0.02144 0.53717 0.0
N25 N 0.63103 0.01112 0.5141 0.0
C26 C 0.61096 0.00336 0.52687 0.0
C27 C 0.64471 0.03517 0.51644 0.0
C28 C 0.63259 0.04149 0.53071 0.0
O29 O 0.55569 0.98959 0.54766 0.0
C30 C 0.61769 0.01159 0.59119 0.0
O31 O 0.62655 0.00518 0.57539 0.0
H32 H 0.59653 0.9848 0.52951 0.0
H33 H 0.63887 0.05933 0.53628 0.0
N34 N 0.58583 0.04449 0.55777 0.0
N35 N 0.57959 0.07183 0.57186 0.0
C36 C 0.58132 0.05254 0.57597 0.0
C37 C 0.5872 0.05922 0.54144 0.0
C38 C 0.58326 0.07614 0.55011 0.0
C39 C 0.53531 0.9897 0.54433 0.0
O40 O 0.53474 0.00841 0.55029 0.0
H41 H 0.57845 0.04376 0.59178 0.0
H42 H 0.59042 0.05754 0.52445 0.0
O43 O 0.59942 0.01477 0.58678 0.0
H44 H 0.66227 0.04736 0.50855 0.0
H45 H 0.58302 0.09039 0.54109 0.0
Cu46 Cu 0.60936 0.50372 0.09636 0.0
N47 N 0.60445 0.47388 0.09083 0.0
N48 N 0.59567 0.44222 0.07084 0.0
C49 C 0.59755 0.46356 0.07084 0.0
C50 C 0.60155 0.43895 0.0918 0.0
C51 C 0.60707 0.45862 0.10412 0.0
O52 O 0.62797 0.52378 0.07181 0.0
C53 C 0.5628 0.485 0.11382 0.0
O54 O 0.5709 0.47216 0.12375 0.0
H55 H 0.59376 0.47159 0.05662 0.0
H56 H 0.6126 0.46157 0.12146 0.0
N57 N 0.62783 0.51723 0.1227 0.0
N58 N 0.64135 0.54082 0.15251 0.0
C59 C 0.62542 0.53286 0.13444 0.0
C60 C 0.64575 0.51486 0.1337 0.0
C61 C 0.65417 0.52943 0.1521 0.0
C62 C 0.64985 0.52685 0.06981 0.0
O63 O 0.65833 0.51779 0.08486 0.0
H64 H 0.6121 0.53818 0.12959 0.0
H65 H 0.65251 0.50367 0.12856 0.0
O66 O 0.57659 0.50024 0.09953 0.0
H67 H 0.6022 0.42366 0.09775 0.0
H68 H 0.66904 0.53182 0.16386 0.0
Cu69 Cu 0.03128 0.475 0.54325 0.0
N70 N 0.02545 0.45392 0.52054 0.0
N71 N 0.03416 0.43718 0.49367 0.0
C72 C 0.04369 0.45487 0.50875 0.0
C73 C 0.00874 0.42469 0.49583 0.0
C74 C 0.00343 0.43504 0.51255 0.0
O75 O 0.06 0.50625 0.53604 0.0
C76 C 0.0377 0.44504 0.57464 0.0
O77 O 0.04243 0.43611 0.5578 0.0
H78 H 0.06362 0.46842 0.51103 0.0
H79 H 0.98488 0.42917 0.51853 0.0
N80 N 0.00367 0.47847 0.54548 0.0
N81 N 0.97764 0.48655 0.56182 0.0
C82 C 0.99666 0.48238 0.56465 0.0
C83 C 0.98862 0.4802 0.52978 0.0
C84 C 0.97247 0.48524 0.53986 0.0
C85 C 0.08304 0.51192 0.53579 0.0
O86 O 0.08926 0.49667 0.5431 0.0
H87 H 0.00627 0.48327 0.58031 0.0
H88 H 0.9898 0.47859 0.51228 0.0
O89 O 0.03482 0.46267 0.57171 0.0
H90 H 0.99509 0.409 0.48634 0.0
H91 H 0.95835 0.48806 0.53166 0.0
Cu92 Cu 0.5922 0.04322 0.0988 0.0
N93 N 0.5816 0.06489 0.09522 0.0
N94 N 0.5719 0.09007 0.07898 0.0
C95 C 0.58335 0.0776 0.077 0.0
C96 C 0.56282 0.08514 0.09942 0.0
C97 C 0.56886 0.06962 0.10938 0.0
O98 O 0.60771 0.04229 0.07228 0.0
C99 C 0.54112 0.00311 0.10358 0.0
O100 O 0.53389 0.01331 0.08863 0.0
H101 H 0.59205 0.07701 0.06228 0.0
H102 H 0.56378 0.06184 0.1256 0.0
N103 N 0.61748 0.05315 0.12098 0.0
N104 N 0.64508 0.05035 0.14391 0.0
C105 C 0.62955 0.04156 0.12572 0.0
C106 C 0.62558 0.07004 0.13666 0.0
C107 C 0.64264 0.0683 0.15094 0.0
C108 C 0.59797 0.03825 0.05275 0.0
O109 O 0.57395 0.03145 0.04941 0.0
H110 H 0.62579 0.026 0.11663 0.0
H111 H 0.61886 0.0821 0.13808 0.0
O112 O 0.56468 0.01242 0.10857 0.0
H113 H 0.55233 0.09201 0.10663 0.0
H114 H 0.65199 0.07898 0.1656 0.0
Cu115 Cu 0.55179 0.52916 0.58794 0.0
N116 N 0.56243 0.56145 0.58625 0.0
N117 N 0.57623 0.59674 0.57007 0.0
C118 C 0.57444 0.57551 0.56907 0.0
C119 C 0.56473 0.59603 0.58857 0.0
C120 C 0.55627 0.57417 0.59861 0.0
O121 O 0.53654 0.51523 0.55911 0.0
C122 C 0.60333 0.54256 0.59828 0.0
O123 O 0.60987 0.56315 0.58911 0.0
H124 H 0.58032 0.56965 0.55536 0.0
H125 H 0.54527 0.56755 0.61318 0.0
N126 N 0.52801 0.51345 0.60948 0.0
N127 N 0.51124 0.49047 0.63902 0.0
C128 C 0.53255 0.50444 0.62798 0.0
C129 C 0.50292 0.50509 0.60881 0.0
C130 C 0.49249 0.49083 0.62704 0.0
C131 C 0.52169 0.52132 0.55031 0.0
O132 O 0.51677 0.53509 0.56152 0.0
H133 H 0.55083 0.50669 0.63241 0.0
H134 H 0.49266 0.50804 0.5955 0.0
O135 O 0.5801 0.52561 0.59734 0.0
H136 H 0.56199 0.60998 0.59405 0.0
H137 H 0.47256 0.4808 0.63073 0.0
H138 H 0.29494 0.42053 0.44429 0.0
H139 H 0.15204 0.43542 0.23136 0.0
H140 H 0.35568 0.48845 0.3123 0.0
H141 H 0.39315 0.49702 0.33487 0.0
H142 H 0.356 0.42232 0.35264 0.0
H143 H 0.31942 0.41363 0.32838 0.0
H144 H 0.31698 0.46723 0.35794 0.0
H145 H 0.31502 0.45421 0.39632 0.0
H146 H 0.25984 0.38144 0.37614 0.0
H147 H 0.26196 0.39467 0.33796 0.0
H148 H 0.27119 0.4689 0.34586 0.0
H149 H 0.23749 0.46361 0.36885 0.0
H150 H 0.18517 0.39562 0.33718 0.0
H151 H 0.21914 0.4014 0.31387 0.0
H152 H 0.25436 0.47902 0.30019 0.0
H153 H 0.21868 0.48127 0.28406 0.0
H154 H 0.19406 0.41741 0.24601 0.0
H155 H 0.22963 0.41522 0.26249 0.0
H156 H 0.29457 0.49565 0.26631 0.0
H157 H 0.28177 0.50593 0.23114 0.0
H158 H 0.26404 0.43871 0.20364 0.0
H159 H 0.27662 0.42836 0.23916 0.0
H160 H 0.34433 0.49579 0.26926 0.0
H161 H 0.37806 0.50405 0.24461 0.0
H162 H 0.35224 0.42884 0.24479 0.0
H163 H 0.31953 0.42115 0.27018 0.0
O164 O 0.29602 0.42527 0.42897 0.0
O165 O 0.27344 0.38764 0.41708 0.0
O166 O 0.17917 0.46721 0.25854 0.0
O167 O 0.16604 0.43472 0.23829 0.0
C168 C 0.31034 0.44658 0.30867 0.0
C169 C 0.2895 0.43965 0.32211 0.0
C170 C 0.268 0.43985 0.31356 0.0
C171 C 0.26691 0.4463 0.29148 0.0
C172 C 0.2874 0.45279 0.27788 0.0
C173 C 0.30896 0.45263 0.28633 0.0
C174 C 0.33462 0.45044 0.31882 0.0
C175 C 0.356 0.47376 0.32035 0.0
C176 C 0.37729 0.47869 0.33361 0.0
C177 C 0.37743 0.4605 0.34614 0.0
C178 C 0.35672 0.43682 0.34325 0.0
C179 C 0.33563 0.43181 0.32952 0.0
C180 C 0.28968 0.43186 0.34521 0.0
C181 C 0.30466 0.44847 0.36186 0.0
C182 C 0.30341 0.441 0.38375 0.0
C183 C 0.28717 0.4168 0.38929 0.0
C184 C 0.27254 0.40019 0.37244 0.0
C185 C 0.27371 0.40769 0.35063 0.0
C186 C 0.24762 0.43548 0.32831 0.0
C187 C 0.25252 0.45274 0.34408 0.0
C188 C 0.23323 0.44963 0.35724 0.0
C189 C 0.20861 0.42913 0.35493 0.0
C190 C 0.20383 0.41171 0.33922 0.0
C191 C 0.2232 0.41488 0.326 0.0
C192 C 0.24448 0.44691 0.28256 0.0
C193 C 0.24106 0.46539 0.28856 0.0
C194 C 0.22075 0.4667 0.27924 0.0
C195 C 0.20354 0.44954 0.26369 0.0
C196 C 0.20695 0.43092 0.2579 0.0
C197 C 0.22722 0.4296 0.26729 0.0
C198 C 0.28642 0.46125 0.25525 0.0
C199 C 0.28865 0.48346 0.25251 0.0
C200 C 0.28111 0.48919 0.23253 0.0
C201 C 0.27155 0.47292 0.21487 0.0
C202 C 0.27135 0.45153 0.21705 0.0
C203 C 0.27865 0.44566 0.23721 0.0
C204 C 0.32961 0.45789 0.27155 0.0
C205 C 0.34614 0.48118 0.26401 0.0
C206 C 0.36528 0.48581 0.2498 0.0
C207 C 0.36802 0.46714 0.24266 0.0
C208 C 0.35117 0.44379 0.25024 0.0
C209 C 0.33231 0.43927 0.26465 0.0
C210 C 0.28516 0.40894 0.41257 0.0
C211 C 0.18222 0.45109 0.25343 0.0
H212 H 0.88352 0.26767 0.96539 0.0
H213 H 0.71917 0.07991 0.78798 0.0
H214 H 0.88131 0.28542 0.85093 0.0
H215 H 0.92179 0.32126 0.86247 0.0
H216 H 0.96243 0.29423 0.83084 0.0
H217 H 0.92183 0.2579 0.82003 0.0
H218 H 0.83755 0.24589 0.87593 0.0
H219 H 0.85125 0.25633 0.91463 0.0
H220 H 0.91116 0.24234 0.90682 0.0
H221 H 0.89708 0.23166 0.86821 0.0
H222 H 0.78934 0.2062 0.84772 0.0
H223 H 0.75838 0.18076 0.87471 0.0
H224 H 0.8081 0.15669 0.89834 0.0
H225 H 0.8391 0.1824 0.87124 0.0
H226 H 0.78359 0.19858 0.79955 0.0
H227 H 0.7452 0.16151 0.78677 0.0
H228 H 0.77869 0.12143 0.8107 0.0
H229 H 0.81718 0.15873 0.82302 0.0
H230 H 0.8207 0.23331 0.77092 0.0
H231 H 0.79491 0.21065 0.73828 0.0
H232 H 0.82078 0.16158 0.74812 0.0
H233 H 0.84655 0.18441 0.78041 0.0
H234 H 0.87784 0.28565 0.7988 0.0
H235 H 0.90453 0.31347 0.77079 0.0
H236 H 0.91515 0.25892 0.74487 0.0
H237 H 0.89019 0.23197 0.77421 0.0
O238 O 0.87835 0.26335 0.95007 0.0
O239 O 0.90892 0.25605 0.94515 0.0
O240 O 0.71875 0.1165 0.77919 0.0
O241 O 0.73392 0.09478 0.79325 0.0
C242 C 0.87398 0.24659 0.8289 0.0
C243 C 0.85806 0.23173 0.84577 0.0
C244 C 0.83442 0.21081 0.84021 0.0
C245 C 0.82738 0.20404 0.81794 0.0
C246 C 0.84346 0.21854 0.80111 0.0
C247 C 0.8664 0.24022 0.80644 0.0
C248 C 0.89858 0.2689 0.83485 0.0
C249 C 0.89893 0.28713 0.84662 0.0
C250 C 0.92201 0.30758 0.85314 0.0
C251 C 0.94514 0.31039 0.84758 0.0
C252 C 0.94481 0.29249 0.83521 0.0
C253 C 0.92169 0.2718 0.82906 0.0
C254 C 0.86627 0.23795 0.8693 0.0
C255 C 0.85353 0.24495 0.88266 0.0
C256 C 0.86145 0.25098 0.90474 0.0
C257 C 0.88231 0.25017 0.91383 0.0
C258 C 0.89503 0.24315 0.90035 0.0
C259 C 0.88705 0.23706 0.87829 0.0
C260 C 0.81645 0.19614 0.85751 0.0
C261 C 0.79356 0.19546 0.85877 0.0
C262 C 0.77583 0.1808 0.8741 0.0
C263 C 0.78067 0.16654 0.88858 0.0
C264 C 0.80388 0.16758 0.88754 0.0
C265 C 0.82159 0.18222 0.87208 0.0
C266 C 0.80318 0.18132 0.81208 0.0
C267 C 0.78255 0.18176 0.80207 0.0
C268 C 0.76066 0.16057 0.79478 0.0
C269 C 0.75893 0.1385 0.79762 0.0
C270 C 0.77942 0.13811 0.80821 0.0
C271 C 0.80137 0.15936 0.81536 0.0
C272 C 0.83539 0.21042 0.77799 0.0
C273 C 0.82164 0.21831 0.76539 0.0
C274 C 0.80669 0.20516 0.74697 0.0
C275 C 0.80552 0.18413 0.74088 0.0
C276 C 0.82138 0.17777 0.75228 0.0
C277 C 0.8362 0.19083 0.77071 0.0
C278 C 0.88195 0.25669 0.78861 0.0
C279 C 0.88612 0.27978 0.78717 0.0
C280 C 0.90119 0.2956 0.77091 0.0
C281 C 0.91203 0.28856 0.7553 0.0
C282 C 0.90756 0.26525 0.75671 0.0
C283 C 0.8929 0.24961 0.7733 0.0
C284 C 0.89073 0.25668 0.93727 0.0
C285 C 0.73595 0.116 0.78945 0.0
H286 H 0.69352 0.76806 0.17922 0.0
H287 H 0.73141 0.96981 0.33479 0.0
H288 H 0.63901 0.75515 0.30105 0.0
H289 H 0.63235 0.71746 0.28752 0.0
H290 H 0.71357 0.74773 0.29152 0.0
H291 H 0.72002 0.78534 0.30523 0.0
H292 H 0.65685 0.782 0.26078 0.0
H293 H 0.6647 0.77138 0.22508 0.0
H294 H 0.74535 0.82196 0.23633 0.0
H295 H 0.73724 0.83216 0.27216 0.0
H296 H 0.66442 0.83089 0.25887 0.0
H297 H 0.66845 0.86264 0.23437 0.0
H298 H 0.74154 0.91238 0.26583 0.0
H299 H 0.73789 0.88028 0.28974 0.0
H300 H 0.65894 0.85649 0.30072 0.0
H301 H 0.66571 0.89646 0.3036 0.0
H302 H 0.73605 0.91999 0.34149 0.0
H303 H 0.72926 0.88008 0.33812 0.0
H304 H 0.63981 0.82245 0.34307 0.0
H305 H 0.63436 0.842 0.37402 0.0
H306 H 0.70904 0.86207 0.40085 0.0
H307 H 0.71441 0.84269 0.36948 0.0
H308 H 0.63107 0.76885 0.3387 0.0
H309 H 0.61669 0.74046 0.36929 0.0
H310 H 0.69504 0.76952 0.39171 0.0
H311 H 0.70908 0.79707 0.36048 0.0
O312 O 0.69084 0.77258 0.19339 0.0
O313 O 0.73209 0.79903 0.19984 0.0
O314 O 0.69141 0.94064 0.31454 0.0
O315 O 0.72765 0.95358 0.33421 0.0
C316 C 0.68407 0.79674 0.30837 0.0
C317 C 0.6918 0.81362 0.29104 0.0
C318 C 0.69506 0.83617 0.29461 0.0
C319 C 0.69076 0.84189 0.31554 0.0
C320 C 0.68308 0.82507 0.33279 0.0
C321 C 0.67963 0.80246 0.32923 0.0
C322 C 0.67997 0.77287 0.30421 0.0
C323 C 0.65528 0.75338 0.29963 0.0
C324 C 0.65155 0.73199 0.2917 0.0
C325 C 0.67246 0.72975 0.28832 0.0
C326 C 0.6971 0.74889 0.29414 0.0
C327 C 0.70083 0.77035 0.30194 0.0
C328 C 0.6965 0.8077 0.2691 0.0
C329 C 0.6762 0.79067 0.25554 0.0
C330 C 0.68074 0.78469 0.23513 0.0
C331 C 0.70567 0.79578 0.22786 0.0
C332 C 0.72593 0.81305 0.24144 0.0
C333 C 0.72136 0.81895 0.26188 0.0
C334 C 0.70078 0.8533 0.27618 0.0
C335 C 0.68181 0.84834 0.25982 0.0
C336 C 0.68406 0.86652 0.24595 0.0
C337 C 0.70515 0.88996 0.24847 0.0
C338 C 0.72501 0.89448 0.26373 0.0
C339 C 0.723 0.87617 0.27727 0.0
C340 C 0.69363 0.86544 0.31919 0.0
C341 C 0.67568 0.87027 0.30978 0.0
C342 C 0.67962 0.89311 0.31142 0.0
C343 C 0.70152 0.91147 0.32266 0.0
C344 C 0.71904 0.90631 0.33265 0.0
C345 C 0.71515 0.88349 0.33088 0.0
C346 C 0.67745 0.83116 0.35413 0.0
C347 C 0.6546 0.83036 0.35604 0.0
C348 C 0.65156 0.84156 0.37374 0.0
C349 C 0.67139 0.85379 0.38978 0.0
C350 C 0.69358 0.85306 0.38859 0.0
C351 C 0.69657 0.84178 0.37087 0.0
C352 C 0.67108 0.7848 0.34734 0.0
C353 C 0.64506 0.76882 0.35012 0.0
C354 C 0.63692 0.75279 0.36774 0.0
C355 C 0.65468 0.75267 0.38306 0.0
C356 C 0.68081 0.76878 0.38007 0.0
C357 C 0.68891 0.78464 0.36233 0.0
C358 C 0.71043 0.7893 0.20621 0.0
C359 C 0.70641 0.93604 0.32358 0.0
H360 H 0.83872 0.59901 0.67754 0.0
H361 H 0.98947 0.56082 0.87617 0.0
H362 H 0.82915 0.60949 0.80267 0.0
H363 H 0.79296 0.60318 0.77893 0.0
H364 H 0.76342 0.52723 0.77824 0.0
H365 H 0.79904 0.53374 0.80253 0.0
H366 H 0.86384 0.61463 0.7721 0.0
H367 H 0.85525 0.61507 0.7324 0.0
H368 H 0.83041 0.54028 0.72859 0.0
H369 H 0.83868 0.54002 0.76838 0.0
H370 H 0.91185 0.61121 0.77444 0.0
H371 H 0.93003 0.60429 0.74267 0.0
H372 H 0.89967 0.53132 0.76384 0.0
H373 H 0.88177 0.53845 0.79535 0.0
H374 H 0.93421 0.61659 0.83113 0.0
H375 H 0.97239 0.6183 0.84672 0.0
H376 H 0.92904 0.54142 0.85417 0.0
H377 H 0.89105 0.54003 0.83872 0.0
H378 H 0.90272 0.61386 0.86916 0.0
H379 H 0.92695 0.61096 0.90074 0.0
H380 H 0.87733 0.53405 0.89932 0.0
H381 H 0.85402 0.5371 0.8672 0.0
H382 H 0.83853 0.61064 0.84627 0.0
H383 H 0.8099 0.60859 0.87392 0.0
H384 H 0.78807 0.53593 0.8888 0.0
H385 H 0.81583 0.53774 0.86056 0.0
O386 O 0.84114 0.59819 0.69332 0.0
O387 O 0.83203 0.56073 0.69189 0.0
O388 O 0.99655 0.60007 0.86477 0.0
O389 O 0.97498 0.56061 0.86914 0.0
C390 C 0.84149 0.57618 0.81259 0.0
C391 C 0.85825 0.57747 0.79695 0.0
C392 C 0.88046 0.57775 0.80389 0.0
C393 C 0.88637 0.57757 0.82651 0.0
C394 C 0.86988 0.57675 0.84229 0.0
C395 C 0.84728 0.57591 0.83534 0.0
C396 C 0.81655 0.57205 0.80443 0.0
C397 C 0.81422 0.59142 0.79816 0.0
C398 C 0.79377 0.58779 0.78428 0.0
C399 C 0.77549 0.56473 0.77631 0.0
C400 C 0.77693 0.54519 0.78414 0.0
C401 C 0.79726 0.54884 0.79813 0.0
C402 C 0.85189 0.57732 0.77304 0.0
C403 C 0.85631 0.59833 0.76267 0.0
C404 C 0.85145 0.59853 0.74 0.0
C405 C 0.84228 0.57774 0.72731 0.0
C406 C 0.83757 0.55662 0.73787 0.0
C407 C 0.84225 0.5564 0.76056 0.0
C408 C 0.89569 0.57538 0.78727 0.0
C409 C 0.90973 0.59395 0.77244 0.0
C410 C 0.91987 0.58989 0.75424 0.0
C411 C 0.9162 0.56722 0.75069 0.0
C412 C 0.90319 0.54908 0.76624 0.0
C413 C 0.893 0.55312 0.78432 0.0
C414 C 0.90994 0.57821 0.83383 0.0
C415 C 0.93313 0.60014 0.83591 0.0
C416 C 0.95484 0.60105 0.84491 0.0
C417 C 0.95372 0.57999 0.85186 0.0
C418 C 0.93056 0.55798 0.84911 0.0
C419 C 0.90886 0.55711 0.8402 0.0
C420 C 0.87653 0.57571 0.86591 0.0
C421 C 0.89625 0.59649 0.87641 0.0
C422 C 0.91015 0.59477 0.89444 0.0
C423 C 0.90435 0.57222 0.90223 0.0
C424 C 0.88248 0.55164 0.89346 0.0
C425 C 0.86879 0.55337 0.87533 0.0
C426 C 0.82962 0.57448 0.85172 0.0
C427 C 0.82741 0.59423 0.85539 0.0
C428 C 0.81106 0.59303 0.8711 0.0
C429 C 0.79699 0.57217 0.88356 0.0
C430 C 0.79899 0.55232 0.8796 0.0
C431 C 0.81494 0.55338 0.86362 0.0
C432 C 0.83807 0.57825 0.70312 0.0
C433 C 0.97644 0.58093 0.86225 0.0
H434 H 0.29729 0.80092 0.45984 0.0
H435 H 0.17382 0.61976 0.2738 0.0
H436 H 0.30997 0.82565 0.34518 0.0
H437 H 0.34253 0.85629 0.36993 0.0
H438 H 0.39599 0.83749 0.35063 0.0
H439 H 0.36271 0.80593 0.32685 0.0
H440 H 0.26545 0.77854 0.36682 0.0
H441 H 0.27214 0.78775 0.40626 0.0
H442 H 0.34166 0.78727 0.40704 0.0
H443 H 0.3345 0.77766 0.36771 0.0
H444 H 0.22499 0.72985 0.33909 0.0
H445 H 0.19932 0.69857 0.36555 0.0
H446 H 0.26593 0.69748 0.38843 0.0
H447 H 0.2909 0.72765 0.36118 0.0
H448 H 0.22961 0.73779 0.28592 0.0
H449 H 0.19402 0.69972 0.27144 0.0
H450 H 0.23031 0.66356 0.29939 0.0
H451 H 0.26591 0.7018 0.31358 0.0
H452 H 0.27299 0.78182 0.26154 0.0
H453 H 0.26546 0.77072 0.22241 0.0
H454 H 0.29061 0.72146 0.23543 0.0
H455 H 0.29755 0.73234 0.27442 0.0
H456 H 0.31529 0.82779 0.28852 0.0
H457 H 0.34427 0.85509 0.26097 0.0
H458 H 0.37435 0.80949 0.25483 0.0
H459 H 0.34491 0.78216 0.28188 0.0
O460 O 0.29487 0.79702 0.4443 0.0
O461 O 0.33057 0.79678 0.44377 0.0
O462 O 0.16991 0.65454 0.26514 0.0
O463 O 0.18768 0.63506 0.27929 0.0
C464 C 0.31238 0.79041 0.32545 0.0
C465 C 0.29577 0.77269 0.3403 0.0
C466 C 0.27573 0.75023 0.33234 0.0
C467 C 0.27184 0.74573 0.30944 0.0
C468 C 0.28872 0.76324 0.29464 0.0
C469 C 0.30923 0.78548 0.30264 0.0
C470 C 0.3339 0.81342 0.33441 0.0
C471 C 0.32895 0.82868 0.3458 0.0
C472 C 0.34766 0.84622 0.35995 0.0
C473 C 0.37178 0.84904 0.36266 0.0
C474 C 0.37741 0.83536 0.34939 0.0
C475 C 0.35856 0.81759 0.33547 0.0
C476 C 0.29956 0.77758 0.3644 0.0
C477 C 0.28202 0.78029 0.37559 0.0
C478 C 0.28594 0.78562 0.39809 0.0
C479 C 0.30749 0.78833 0.40979 0.0
C480 C 0.3249 0.78536 0.39853 0.0
C481 C 0.32089 0.77992 0.37606 0.0
C482 C 0.25982 0.73106 0.3482 0.0
C483 C 0.23391 0.72264 0.34969 0.0
C484 C 0.21935 0.70493 0.36499 0.0
C485 C 0.2305 0.69543 0.37921 0.0
C486 C 0.25652 0.70399 0.37756 0.0
C487 C 0.27093 0.72145 0.36214 0.0
C488 C 0.25026 0.72252 0.30085 0.0
C489 C 0.22983 0.72162 0.28886 0.0
C490 C 0.20953 0.69986 0.28064 0.0
C491 C 0.2093 0.67858 0.28429 0.0
C492 C 0.22986 0.67959 0.29631 0.0
C493 C 0.25018 0.70139 0.30448 0.0
C494 C 0.28557 0.7577 0.27077 0.0
C495 C 0.27699 0.76875 0.25583 0.0
C496 C 0.27282 0.76247 0.23351 0.0
C497 C 0.27721 0.74504 0.22585 0.0
C498 C 0.28654 0.73458 0.24086 0.0
C499 C 0.29063 0.74082 0.2631 0.0
C500 C 0.32796 0.80298 0.28713 0.0
C501 C 0.32828 0.82385 0.28128 0.0
C502 C 0.34492 0.83944 0.26559 0.0
C503 C 0.36159 0.83445 0.25552 0.0
C504 C 0.36148 0.8137 0.26186 0.0
C505 C 0.34481 0.79814 0.27745 0.0
C506 C 0.31176 0.79428 0.43363 0.0
C507 C 0.18775 0.6554 0.27563 0.0
H508 H 0.52194 0.27488 0.66702 0.0
H509 H 0.48733 0.08797 0.83506 0.0
H510 H 0.55006 0.2937 0.78569 0.0
H511 H 0.54911 0.32827 0.77152 0.0
H512 H 0.47274 0.29703 0.79365 0.0
H513 H 0.4738 0.26225 0.80755 0.0
H514 H 0.54638 0.25459 0.75589 0.0
H515 H 0.54337 0.26495 0.71739 0.0
H516 H 0.4663 0.24677 0.72594 0.0
H517 H 0.46948 0.2362 0.76434 0.0
H518 H 0.55099 0.21437 0.78263 0.0
H519 H 0.55487 0.19238 0.75293 0.0
H520 H 0.4777 0.16753 0.72979 0.0
H521 H 0.47394 0.18963 0.7598 0.0
H522 H 0.55085 0.20719 0.83073 0.0
H523 H 0.55002 0.17048 0.84019 0.0
H524 H 0.4712 0.12863 0.81691 0.0
H525 H 0.47221 0.1655 0.80779 0.0
H526 H 0.55675 0.24883 0.85665 0.0
H527 H 0.56476 0.236 0.89269 0.0
H528 H 0.4865 0.17712 0.89204 0.0
H529 H 0.47862 0.19025 0.85608 0.0
H530 H 0.55412 0.29182 0.8344 0.0
H531 H 0.56133 0.31725 0.86601 0.0
H532 H 0.4873 0.2642 0.88895 0.0
H533 H 0.48028 0.23883 0.85722 0.0
O534 O 0.52271 0.27067 0.68228 0.0
O535 O 0.48325 0.26131 0.68759 0.0
O536 O 0.52873 0.1251 0.84322 0.0
O537 O 0.48821 0.10277 0.83142 0.0
C538 C 0.5115 0.25319 0.80329 0.0
C539 C 0.50994 0.23824 0.78619 0.0
C540 C 0.51055 0.21752 0.79128 0.0
C541 C 0.51181 0.21126 0.81348 0.0
C542 C 0.51349 0.22622 0.83061 0.0
C543 C 0.51348 0.24728 0.82551 0.0
C544 C 0.51199 0.27548 0.7976 0.0
C545 C 0.53329 0.29452 0.78778 0.0
C546 C 0.53273 0.31429 0.77978 0.0
C547 C 0.5108 0.31537 0.78139 0.0
C548 C 0.4898 0.2966 0.79196 0.0
C549 C 0.49043 0.27685 0.80007 0.0
C550 C 0.50812 0.24457 0.76284 0.0
C551 C 0.52884 0.25276 0.74937 0.0
C552 C 0.52708 0.25872 0.72741 0.0
C553 C 0.50458 0.25667 0.71858 0.0
C554 C 0.48389 0.24854 0.73221 0.0
C555 C 0.48566 0.24252 0.75414 0.0
C556 C 0.51215 0.20347 0.77343 0.0
C557 C 0.53483 0.20397 0.77129 0.0
C558 C 0.53699 0.19137 0.75435 0.0
C559 C 0.51654 0.17814 0.7391 0.0
C560 C 0.49381 0.17771 0.74123 0.0
C561 C 0.4916 0.19022 0.75834 0.0
C562 C 0.51153 0.18898 0.81875 0.0
C563 C 0.5334 0.19007 0.82779 0.0
C564 C 0.53288 0.16908 0.83312 0.0
C565 C 0.5105 0.14661 0.82936 0.0
C566 C 0.48872 0.14563 0.82006 0.0
C567 C 0.48925 0.16664 0.8148 0.0
C568 C 0.51711 0.22048 0.85378 0.0
C569 C 0.54122 0.23349 0.86453 0.0
C570 C 0.54581 0.226 0.88499 0.0
C571 C 0.52631 0.20545 0.8951 0.0
C572 C 0.50185 0.19313 0.88474 0.0
C573 C 0.49731 0.20055 0.86421 0.0
C574 C 0.51665 0.26355 0.8435 0.0
C575 C 0.53928 0.28591 0.84604 0.0
C576 C 0.54336 0.30039 0.8641 0.0
C577 C 0.5249 0.29269 0.88 0.0
C578 C 0.50198 0.27048 0.87711 0.0
C579 C 0.49788 0.25606 0.85898 0.0
C580 C 0.50277 0.263 0.69524 0.0
C581 C 0.50981 0.12425 0.8351 0.0
H582 H 0.21468 0.52744 0.02759 0.0
H583 H 0.22526 0.51175 0.06035 0.0
H584 H 0.17239 0.51953 0.09712 0.0
H585 H 0.16162 0.53535 0.06423 0.0
H586 H 0.21987 0.53921 0.11827 0.0
H587 H 0.15797 0.46491 0.08386 0.0
H588 H 0.13785 0.43566 0.05347 0.0
H589 H 0.20561 0.43359 0.04957 0.0
H590 H 0.2263 0.46311 0.07974 0.0
H591 H 0.23562 0.48458 0.21372 0.0
H592 H 0.21665 0.4932 0.18144 0.0
H593 H 0.26199 0.48022 0.13918 0.0
H594 H 0.28054 0.47091 0.17159 0.0
H595 H 0.2154 0.46175 0.12143 0.0
H596 H 0.27852 0.53768 0.15324 0.0
H597 H 0.29993 0.56767 0.18295 0.0
H598 H 0.23152 0.56771 0.19078 0.0
H599 H 0.20958 0.53745 0.16131 0.0
C600 C 0.2051 0.52563 0.04258 0.0
C601 C 0.18734 0.53267 0.04334 0.0
C602 C 0.21109 0.51654 0.06126 0.0
C603 C 0.19948 0.51431 0.08111 0.0
C604 C 0.18149 0.52104 0.08191 0.0
C605 C 0.1753 0.52999 0.06311 0.0
C606 C 0.20734 0.50626 0.10124 0.0
C607 C 0.21844 0.52207 0.11916 0.0
C608 C 0.20617 0.48421 0.10206 0.0
C609 C 0.19376 0.46639 0.08395 0.0
C610 C 0.16866 0.45837 0.07641 0.0
C611 C 0.15714 0.44171 0.05924 0.0
C612 C 0.17046 0.43281 0.04956 0.0
C613 C 0.19532 0.44052 0.05707 0.0
C614 C 0.20694 0.45719 0.07423 0.0
C615 C 0.2416 0.48367 0.19752 0.0
C616 C 0.25984 0.47749 0.19509 0.0
C617 C 0.23075 0.48858 0.17911 0.0
C618 C 0.23829 0.48787 0.1579 0.0
C619 C 0.25598 0.481 0.15539 0.0
C620 C 0.26661 0.47575 0.17385 0.0
C621 C 0.22809 0.49478 0.13845 0.0
C622 C 0.21663 0.4788 0.12064 0.0
C623 C 0.22913 0.51679 0.13762 0.0
C624 C 0.24234 0.53513 0.15522 0.0
C625 C 0.26799 0.54396 0.1614 0.0
C626 C 0.28023 0.56103 0.17818 0.0
C627 C 0.26707 0.56954 0.18878 0.0
C628 C 0.24167 0.56107 0.18258 0.0
C629 C 0.22934 0.54398 0.16582 0.0
H630 H 0.27658 0.58275 0.20177 0.0
H631 H 0.16151 0.41991 0.03628 0.0
H632 H 0.60569 0.02732 0.62708 0.0
H633 H 0.63528 0.05325 0.65642 0.0
H634 H 0.69439 0.04567 0.63115 0.0
H635 H 0.66483 0.01931 0.60205 0.0
H636 H 0.69926 0.05015 0.67566 0.0
H637 H 0.68676 0.09066 0.61358 0.0
H638 H 0.661 0.09926 0.58724 0.0
H639 H 0.63478 0.1211 0.64047 0.0
H640 H 0.6601 0.11223 0.66719 0.0
H641 H 0.81021 0.15899 0.7082 0.0
H642 H 0.77588 0.12703 0.68531 0.0
H643 H 0.72139 0.13842 0.71494 0.0
H644 H 0.75552 0.17024 0.73794 0.0
H645 H 0.71216 0.13115 0.67049 0.0
H646 H 0.72833 0.09392 0.73243 0.0
H647 H 0.75507 0.08588 0.75805 0.0
H648 H 0.77493 0.05816 0.70479 0.0
H649 H 0.74875 0.06651 0.67871 0.0
C650 C 0.62477 0.03058 0.62813 0.0
C651 C 0.63306 0.02163 0.61196 0.0
C652 C 0.64169 0.0455 0.64486 0.0
C653 C 0.6672 0.05192 0.64555 0.0
C654 C 0.67483 0.04111 0.63078 0.0
C655 C 0.65787 0.02604 0.61413 0.0
C656 C 0.68654 0.07183 0.65982 0.0
C657 C 0.70219 0.06789 0.67447 0.0
C658 C 0.69009 0.09491 0.65845 0.0
C659 C 0.67515 0.10058 0.64239 0.0
C660 C 0.6754 0.09716 0.61968 0.0
C661 C 0.66089 0.1021 0.60469 0.0
C662 C 0.6463 0.11074 0.61218 0.0
C663 C 0.64614 0.11443 0.6347 0.0
C664 C 0.66055 0.10945 0.64977 0.0
C665 C 0.79094 0.15481 0.70967 0.0
C666 C 0.78557 0.16716 0.72481 0.0
C667 C 0.77136 0.13654 0.69665 0.0
C668 C 0.74606 0.13015 0.69868 0.0
C669 C 0.74078 0.14309 0.71312 0.0
C670 C 0.76034 0.16137 0.72613 0.0
C671 C 0.72503 0.10953 0.68622 0.0
C672 C 0.70908 0.11336 0.67188 0.0
C673 C 0.72128 0.0864 0.68784 0.0
C674 C 0.73673 0.08103 0.70357 0.0
C675 C 0.73853 0.08627 0.72613 0.0
C676 C 0.75358 0.08164 0.74075 0.0
C677 C 0.76669 0.07153 0.73305 0.0
C678 C 0.76477 0.066 0.71072 0.0
C679 C 0.74983 0.07067 0.69601 0.0
H680 H 0.77832 0.06796 0.7444 0.0
H681 H 0.63513 0.1146 0.60054 0.0
H682 H 0.62403 0.57119 0.14788 0.0
H683 H 0.63043 0.60158 0.17348 0.0
H684 H 0.67337 0.58282 0.21824 0.0
H685 H 0.6661 0.55128 0.19302 0.0
H686 H 0.64235 0.59148 0.24025 0.0
H687 H 0.704 0.63198 0.18597 0.0
H688 H 0.71995 0.64306 0.14854 0.0
H689 H 0.67252 0.67172 0.13507 0.0
H690 H 0.65599 0.6605 0.17233 0.0
H691 H 0.69386 0.70331 0.29916 0.0
H692 H 0.68955 0.66978 0.27832 0.0
H693 H 0.63897 0.67529 0.23057 0.0
H694 H 0.64327 0.70872 0.25115 0.0
H695 H 0.67824 0.67399 0.21188 0.0
H696 H 0.61509 0.63092 0.26608 0.0
H697 H 0.60001 0.62003 0.3038 0.0
H698 H 0.65239 0.59702 0.3179 0.0
H699 H 0.66805 0.6081 0.28033 0.0
C700 C 0.63457 0.57306 0.16319 0.0
C701 C 0.64468 0.55861 0.16811 0.0
C702 C 0.63842 0.59076 0.17781 0.0
C703 C 0.65281 0.59481 0.19757 0.0
C704 C 0.66237 0.58012 0.20296 0.0
C705 C 0.65837 0.5622 0.18837 0.0
C706 C 0.65804 0.61469 0.2123 0.0
C707 C 0.65062 0.60961 0.23417 0.0
C708 C 0.66862 0.63832 0.20431 0.0
C709 C 0.67862 0.64524 0.1819 0.0
C710 C 0.69684 0.6405 0.17498 0.0
C711 C 0.706 0.64683 0.1538 0.0
C712 C 0.69722 0.65805 0.13942 0.0
C713 C 0.67929 0.66302 0.14622 0.0
C714 C 0.67004 0.6567 0.16738 0.0
C715 C 0.68172 0.69722 0.28428 0.0
C716 C 0.66876 0.70849 0.27684 0.0
C717 C 0.6792 0.67806 0.27247 0.0
C718 C 0.66387 0.67005 0.25296 0.0
C719 C 0.65084 0.68119 0.24561 0.0
C720 C 0.65315 0.70014 0.25748 0.0
C721 C 0.66202 0.65065 0.23962 0.0
C722 C 0.6702 0.65589 0.218 0.0
C723 C 0.65237 0.6273 0.24793 0.0
C724 C 0.64295 0.62061 0.27049 0.0
C725 C 0.62357 0.62376 0.27729 0.0
C726 C 0.61488 0.6175 0.29863 0.0
C727 C 0.62529 0.60791 0.31326 0.0
C728 C 0.64437 0.60449 0.30656 0.0
C729 C 0.65315 0.61075 0.28524 0.0
H730 H 0.61853 0.60307 0.32977 0.0
H731 H 0.70434 0.66293 0.12303 0.0
H732 H 0.97412 0.47359 0.6046 0.0
H733 H 0.96091 0.48803 0.63437 0.0
H734 H 0.94327 0.52829 0.58785 0.0
H735 H 0.95755 0.51455 0.55789 0.0
H736 H 0.9702 0.55518 0.62277 0.0
H737 H 0.89565 0.47798 0.61243 0.0
H738 H 0.87049 0.4342 0.60754 0.0
H739 H 0.8975 0.42539 0.67135 0.0
H740 H 0.92311 0.46914 0.67651 0.0
H741 H 0.91166 0.58077 0.70863 0.0
H742 H 0.92055 0.5682 0.67447 0.0
H743 H 0.94645 0.52805 0.71197 0.0
H744 H 0.93806 0.54085 0.74619 0.0
H745 H 0.91112 0.50147 0.67897 0.0
H746 H 0.98832 0.57918 0.68745 0.0
H747 H 0.01323 0.62301 0.692 0.0
H748 H 0.97996 0.63067 0.63109 0.0
H749 H 0.95457 0.58682 0.62633 0.0
C750 C 0.96744 0.48551 0.60064 0.0
C751 C 0.96708 0.49306 0.57887 0.0
C752 C 0.95961 0.49355 0.61768 0.0
C753 C 0.95085 0.50907 0.61333 0.0
C754 C 0.94989 0.51626 0.59155 0.0
C755 C 0.95783 0.50824 0.57443 0.0
C756 C 0.94401 0.51856 0.63184 0.0
C757 C 0.95687 0.54344 0.63482 0.0
C758 C 0.92692 0.50325 0.64775 0.0
C759 C 0.91143 0.47688 0.64479 0.0
C760 C 0.89636 0.46672 0.62536 0.0
C761 C 0.882 0.4419 0.62255 0.0
C762 C 0.88243 0.42702 0.63911 0.0
C763 C 0.89719 0.43693 0.65853 0.0
C764 C 0.9116 0.46175 0.66142 0.0
C765 C 0.91981 0.56972 0.70963 0.0
C766 C 0.92413 0.56178 0.73013 0.0
C767 C 0.92474 0.56246 0.69008 0.0
C768 C 0.93411 0.54717 0.69071 0.0
C769 C 0.93906 0.53972 0.71115 0.0
C770 C 0.93423 0.54703 0.73067 0.0
C771 C 0.93776 0.538 0.67012 0.0
C772 C 0.92421 0.51318 0.66676 0.0
C773 C 0.95407 0.55337 0.65383 0.0
C774 C 0.96932 0.57971 0.65667 0.0
C775 C 0.98613 0.59019 0.67513 0.0
C776 C 1.00038 0.61504 0.67772 0.0
C777 C 0.99812 0.62961 0.66188 0.0
C778 C 0.98165 0.61936 0.64337 0.0
C779 C 0.96735 0.59451 0.64071 0.0
H780 H 0.00917 0.64885 0.66391 0.0
H781 H 0.8713 0.40781 0.6369 0.0
H782 H 0.5491 0.98768 0.14345 0.0
H783 H 0.5175 0.95719 0.16706 0.0
H784 H 0.45843 0.94162 0.11734 0.0
H785 H 0.49 0.97316 0.09402 0.0
H786 H 0.44213 0.94315 0.15428 0.0
H787 H 0.48276 0.90303 0.13029 0.0
H788 H 0.51847 0.89774 0.12386 0.0
H789 H 0.53859 0.9056 0.19311 0.0
H790 H 0.50317 0.91117 0.19994 0.0
H791 H 0.37415 0.82196 0.21769 0.0
H792 H 0.40318 0.84838 0.18996 0.0
H793 H 0.41688 0.90986 0.2262 0.0
H794 H 0.38826 0.88358 0.25429 0.0
H795 H 0.45336 0.88215 0.19333 0.0
H796 H 0.42518 0.95324 0.18905 0.0
H797 H 0.38725 0.95563 0.19352 0.0
H798 H 0.33877 0.88132 0.17648 0.0
H799 H 0.37638 0.87858 0.1716 0.0
C800 C 0.52943 0.9776 0.13738 0.0
C801 C 0.52209 0.98282 0.11678 0.0
C802 C 0.51132 0.96001 0.15091 0.0
C803 C 0.4855 0.9467 0.14394 0.0
C804 C 0.47819 0.95158 0.12316 0.0
C805 C 0.49627 0.96955 0.10977 0.0
C806 C 0.46605 0.92857 0.15875 0.0
C807 C 0.44461 0.92978 0.16271 0.0
C808 C 0.46897 0.91084 0.16971 0.0
C809 C 0.49037 0.90762 0.1656 0.0
C810 C 0.49489 0.90376 0.14412 0.0
C811 C 0.51505 0.90068 0.14042 0.0
C812 C 0.53073 0.90127 0.15807 0.0
C813 C 0.52637 0.90507 0.17946 0.0
C814 C 0.50623 0.90815 0.18326 0.0
C815 C 0.3835 0.84111 0.21993 0.0
C816 C 0.37888 0.8506 0.23833 0.0
C817 C 0.40003 0.85619 0.20398 0.0
C818 C 0.41211 0.88109 0.20592 0.0
C819 C 0.4075 0.89067 0.2242 0.0
C820 C 0.39105 0.87561 0.24022 0.0
C821 C 0.42981 0.89706 0.18899 0.0
C822 C 0.45091 0.89548 0.18475 0.0
C823 C 0.42637 0.91414 0.17749 0.0
C824 C 0.40362 0.91567 0.18019 0.0
C825 C 0.40642 0.93744 0.18618 0.0
C826 C 0.38498 0.93885 0.18879 0.0
C827 C 0.36062 0.91862 0.18536 0.0
C828 C 0.35765 0.89696 0.17923 0.0
C829 C 0.37902 0.89546 0.17657 0.0
H830 H 0.34404 0.91975 0.18739 0.0
H831 H 0.54624 0.89874 0.15519 0.0
H832 H 0.54646 0.50032 0.6718 0.0
H833 H 0.54505 0.4728 0.70027 0.0
H834 H 0.46976 0.41874 0.67621 0.0
H835 H 0.4709 0.44635 0.64792 0.0
H836 H 0.47396 0.41738 0.72059 0.0
H837 H 0.52208 0.41923 0.66004 0.0
H838 H 0.5558 0.43846 0.63322 0.0
H839 H 0.61278 0.46698 0.68607 0.0
H840 H 0.57934 0.44822 0.71325 0.0
H841 H 0.47128 0.31257 0.75653 0.0
H842 H 0.47041 0.34474 0.73649 0.0
H843 H 0.54649 0.39533 0.76191 0.0
H844 H 0.5475 0.36316 0.78197 0.0
H845 H 0.54285 0.40038 0.7189 0.0
H846 H 0.49419 0.39503 0.77964 0.0
H847 H 0.46003 0.375 0.80596 0.0
H848 H 0.40372 0.35254 0.75276 0.0
H849 H 0.43755 0.37215 0.72607 0.0
C850 C 0.52951 0.48266 0.67277 0.0
C851 C 0.50891 0.47542 0.6575 0.0
C852 C 0.52874 0.46697 0.68901 0.0
C853 C 0.50755 0.44356 0.69008 0.0
C854 C 0.48635 0.4367 0.67566 0.0
C855 C 0.487 0.45251 0.65952 0.0
C856 C 0.50824 0.42582 0.7052 0.0
C857 C 0.48888 0.41348 0.72012 0.0
C858 C 0.52804 0.42113 0.70492 0.0
C859 C 0.54821 0.43244 0.68866 0.0
C860 C 0.5418 0.42973 0.66594 0.0
C861 C 0.56085 0.44053 0.65069 0.0
C862 C 0.5864 0.4539 0.65795 0.0
C863 C 0.59296 0.45659 0.68049 0.0
C864 C 0.57398 0.44586 0.69583 0.0
C865 C 0.48763 0.33063 0.75823 0.0
C866 C 0.50945 0.33531 0.77087 0.0
C867 C 0.48712 0.34902 0.74674 0.0
C868 C 0.50831 0.37254 0.74782 0.0
C869 C 0.52993 0.37734 0.76079 0.0
C870 C 0.53049 0.35894 0.77222 0.0
C871 C 0.50849 0.39178 0.73434 0.0
C872 C 0.52804 0.40439 0.71962 0.0
C873 C 0.48883 0.39664 0.73482 0.0
C874 C 0.46842 0.3849 0.75083 0.0
C875 C 0.47452 0.38567 0.77353 0.0
C876 C 0.45522 0.37441 0.78852 0.0
C877 C 0.42972 0.36246 0.78103 0.0
C878 C 0.42348 0.36179 0.75854 0.0
C879 C 0.44271 0.373 0.74347 0.0
H880 H 0.4148 0.35376 0.79267 0.0
H881 H 0.60111 0.46214 0.6461 0.0
H882 H 0.59828 0.96568 0.49966 0.0
H883 H 0.60874 0.93987 0.48111 0.0
H884 H 0.68751 0.99703 0.48111 0.0
H885 H 0.67743 0.02295 0.50038 0.0
H886 H 0.66749 0.97291 0.44027 0.0
H887 H 0.67235 0.95432 0.51639 0.0
H888 H 0.65697 0.94311 0.55398 0.0
H889 H 0.59286 0.87674 0.52963 0.0
H890 H 0.60766 0.88771 0.49181 0.0
H891 H 0.70864 0.89905 0.4023 0.0
H892 H 0.70481 0.92647 0.42571 0.0
H893 H 0.6267 0.8718 0.43649 0.0
H894 H 0.63066 0.84397 0.41366 0.0
H895 H 0.64974 0.89632 0.47356 0.0
H896 H 0.64173 0.91492 0.39807 0.0
H897 H 0.65347 0.92647 0.3596 0.0
H898 H 0.72013 0.99224 0.3817 0.0
H899 H 0.70905 0.98091 0.42034 0.0
C900 C 0.61791 0.9728 0.49602 0.0
C901 C 0.63705 0.9964 0.50183 0.0
C902 C 0.62382 0.95799 0.48532 0.0
C903 C 0.64893 0.96646 0.48006 0.0
C904 C 0.66802 0.99017 0.48516 0.0
C905 C 0.66216 0.00499 0.49607 0.0
C906 C 0.65503 0.9505 0.46895 0.0
C907 C 0.66414 0.95639 0.44768 0.0
C908 C 0.64988 0.92866 0.47848 0.0
C909 C 0.64102 0.92193 0.50123 0.0
C910 C 0.65487 0.93741 0.51901 0.0
C911 C 0.64627 0.93109 0.54037 0.0
C912 C 0.62392 0.90925 0.54418 0.0
C913 C 0.61016 0.89366 0.52665 0.0
C914 C 0.61866 0.89991 0.50525 0.0
C915 C 0.69083 0.89265 0.4101 0.0
C916 C 0.66992 0.86933 0.40611 0.0
C917 C 0.68859 0.90845 0.42325 0.0
C918 C 0.66535 0.90131 0.43252 0.0
C919 C 0.64478 0.87772 0.42939 0.0
C920 C 0.64702 0.86188 0.41626 0.0
C921 C 0.66211 0.91865 0.44474 0.0
C922 C 0.65346 0.91299 0.46622 0.0
C923 C 0.6674 0.9406 0.4353 0.0
C924 C 0.6747 0.94695 0.41212 0.0
C925 C 0.65909 0.93169 0.39475 0.0
C926 C 0.66558 0.93823 0.37291 0.0
C927 C 0.68749 0.96009 0.36824 0.0
C928 C 0.70314 0.97533 0.38537 0.0
C929 C 0.69679 0.96885 0.40724 0.0
H930 H 0.69224 0.96533 0.35133 0.0
H931 H 0.6173 0.90439 0.56073 0.0
H932 H 0.63459 0.53868 0.03076 0.0
H933 H 0.6581 0.55238 0.99679 0.0
H934 H 0.72142 0.55256 0.03001 0.0
H935 H 0.69847 0.53947 0.06379 0.0
H936 H 0.73861 0.58984 0.00408 0.0
H937 H 0.67711 0.50502 0.99736 0.0
H938 H 0.63424 0.46858 0.99661 0.0
H939 H 0.61051 0.49715 0.94305 0.0
H940 H 0.65334 0.53385 0.94355 0.0
H941 H 0.79772 0.5593 0.92624 0.0
H942 H 0.77116 0.55763 0.95554 0.0
H943 H 0.73298 0.58082 0.90985 0.0
H944 H 0.75999 0.58299 0.88045 0.0
H945 H 0.70061 0.5373 0.93826 0.0
H946 H 0.7684 0.61985 0.94226 0.0
H947 H 0.8133 0.65298 0.9437 0.0
H948 H 0.82687 0.62531 0.00398 0.0
H949 H 0.78213 0.59179 0.00272 0.0
C950 C 0.65369 0.54205 0.03087 0.0
C951 C 0.66459 0.53782 0.04992 0.0
C952 C 0.66704 0.54972 0.01143 0.0
C953 C 0.69143 0.55321 0.01077 0.0
C954 C 0.70267 0.55002 0.03008 0.0
C955 C 0.68942 0.5424 0.0494 0.0
C956 C 0.705 0.5589 0.98992 0.0
C957 C 0.73024 0.57838 0.98968 0.0
C958 C 0.69403 0.54419 0.97096 0.0
C959 C 0.66827 0.52227 0.97069 0.0
C960 C 0.66268 0.5036 0.98555 0.0
C961 C 0.6384 0.48288 0.98515 0.0
C962 C 0.61959 0.48059 0.96988 0.0
C963 C 0.62507 0.49898 0.95491 0.0
C964 C 0.64935 0.51973 0.95522 0.0
C965 C 0.78365 0.56402 0.92245 0.0
C966 C 0.78083 0.57124 0.90113 0.0
C967 C 0.76859 0.56315 0.93917 0.0
C968 C 0.75022 0.56917 0.93481 0.0
C969 C 0.74712 0.57615 0.91348 0.0
C970 C 0.76256 0.57747 0.8968 0.0
C971 C 0.73425 0.56784 0.95273 0.0
C972 C 0.70866 0.54914 0.95243 0.0
C973 C 0.74505 0.58295 0.97138 0.0
C974 C 0.77193 0.60321 0.97231 0.0
C975 C 0.781 0.62072 0.95573 0.0
C976 C 0.80642 0.63959 0.95653 0.0
C977 C 0.82294 0.64123 0.9739 0.0
C978 C 0.81405 0.62402 0.99053 0.0
C979 C 0.78865 0.6051 0.9898 0.0
H980 H 0.84262 0.65585 0.97449 0.0
H981 H 0.6008 0.46454 0.96959 0.0
H982 H 0.07902 0.55015 0.52445 0.0
H983 H 0.10567 0.58291 0.4998 0.0
H984 H 0.15444 0.55513 0.49411 0.0
H985 H 0.12813 0.52253 0.51919 0.0
H986 H 0.18203 0.6027 0.49488 0.0
H987 H 0.10694 0.54299 0.45586 0.0
H988 H 0.06096 0.51558 0.448 0.0
H989 H 0.05133 0.5754 0.44151 0.0
H990 H 0.09727 0.60316 0.44959 0.0
H991 H 0.23379 0.65695 0.3924 0.0
H992 H 0.21025 0.62768 0.42084 0.0
H993 H 0.16853 0.66176 0.43178 0.0
H994 H 0.1926 0.69171 0.40386 0.0
H995 H 0.13771 0.61155 0.42844 0.0
H996 H 0.21389 0.67117 0.46769 0.0
H997 H 0.26026 0.69765 0.47426 0.0
H998 H 0.26789 0.63659 0.47889 0.0
H999 H 0.22156 0.60974 0.47202 0.0
C1000 C 0.09564 0.5512 0.51822 0.0
C1001 C 0.10134 0.53362 0.52365 0.0
C1002 C 0.11079 0.56988 0.50403 0.0
C1003 C 0.13171 0.57117 0.49465 0.0
C1004 C 0.13829 0.55442 0.50101 0.0
C1005 C 0.12326 0.53581 0.5154 0.0
C1006 C 0.14585 0.58923 0.47742 0.0
C1007 C 0.17235 0.60444 0.48025 0.0
C1008 C 0.13321 0.59177 0.45841 0.0
C1009 C 0.10555 0.57514 0.4535 0.0
C1010 C 0.09501 0.55029 0.45286 0.0
C1011 C 0.06894 0.53469 0.44836 0.0
C1012 C 0.05321 0.54374 0.4443 0.0
C1013 C 0.06354 0.56842 0.44468 0.0
C1014 C 0.0896 0.58409 0.44921 0.0
C1015 C 0.21985 0.65848 0.401 0.0
C1016 C 0.21529 0.67689 0.39587 0.0
C1017 C 0.20631 0.64162 0.41719 0.0
C1018 C 0.18781 0.64269 0.42855 0.0
C1019 C 0.18273 0.66063 0.42318 0.0
C1020 C 0.19644 0.67766 0.40712 0.0
C1021 C 0.17377 0.62502 0.44601 0.0
C1022 C 0.14731 0.60984 0.44314 0.0
C1023 C 0.18646 0.62236 0.46485 0.0
C1024 C 0.21429 0.63846 0.46913 0.0
C1025 C 0.22548 0.66339 0.46993 0.0
C1026 C 0.25175 0.67847 0.47374 0.0
C1027 C 0.26702 0.66881 0.47693 0.0
C1028 C 0.25604 0.64405 0.47638 0.0
C1029 C 0.22977 0.62889 0.47255 0.0
H1030 H 0.28736 0.68051 0.47988 0.0
H1031 H 0.03303 0.53165 0.44082 0.0
H1032 H 0.60094 0.11146 0.04376 0.0
H1033 H 0.5934 0.13274 0.01399 0.0
H1034 H 0.5278 0.12231 0.04601 0.0
H1035 H 0.53464 0.10018 0.07547 0.0
H1036 H 0.51728 0.11201 0.00291 0.0
H1037 H 0.58397 0.17729 0.04635 0.0
H1038 H 0.62591 0.19971 0.06609 0.0
H1039 H 0.66282 0.20717 0.00595 0.0
H1040 H 0.62108 0.18456 0.98589 0.0
H1041 H 0.49822 0.18875 0.93193 0.0
H1042 H 0.50651 0.17125 0.96483 0.0
H1043 H 0.57478 0.1827 0.93713 0.0
H1044 H 0.56679 0.2005 0.90445 0.0
H1045 H 0.58354 0.19336 0.97926 0.0
H1046 H 0.51849 0.12728 0.936 0.0
H1047 H 0.47724 0.10361 0.91544 0.0
H1048 H 0.43798 0.09621 0.9741 0.0
H1049 H 0.47904 0.12013 0.99495 0.0
C1050 C 0.58485 0.11358 0.0445 0.0
C1051 C 0.5684 0.10401 0.06209 0.0
C1052 C 0.5807 0.12599 0.02753 0.0
C1053 C 0.56017 0.12936 0.02786 0.0
C1054 C 0.54381 0.12001 0.04544 0.0
C1055 C 0.54791 0.10753 0.06241 0.0
C1056 C 0.55532 0.14199 0.00954 0.0
C1057 C 0.53161 0.12997 0.99798 0.0
C1058 C 0.57427 0.16514 0.00269 0.0
C1059 C 0.59939 0.17909 0.01465 0.0
C1060 C 0.60103 0.18361 0.03736 0.0
C1061 C 0.62477 0.19636 0.0486 0.0
C1062 C 0.64701 0.20482 0.03729 0.0
C1063 C 0.64557 0.20061 0.01469 0.0
C1064 C 0.62188 0.18786 0.00337 0.0
C1065 C 0.51501 0.18756 0.93291 0.0
C1066 C 0.53184 0.19599 0.91561 0.0
C1067 C 0.51972 0.17753 0.95169 0.0
C1068 C 0.54111 0.17534 0.95335 0.0
C1069 C 0.5582 0.18422 0.93628 0.0
C1070 C 0.55363 0.19445 0.91762 0.0
C1071 C 0.54548 0.16338 0.9726 0.0
C1072 C 0.56912 0.17549 0.9843 0.0
C1073 C 0.52655 0.14019 0.97945 0.0
C1074 C 0.50184 0.12571 0.96697 0.0
C1075 C 0.50106 0.12075 0.94447 0.0
C1076 C 0.47772 0.10727 0.93277 0.0
C1077 C 0.455 0.09847 0.94344 0.0
C1078 C 0.45559 0.10307 0.96585 0.0
C1079 C 0.47889 0.11658 0.97762 0.0
H1080 H 0.43695 0.08803 0.93436 0.0
H1081 H 0.66537 0.21466 0.04603 0.0
H1082 H 0.51841 0.48595 0.52431 0.0
H1083 H 0.49706 0.47312 0.48757 0.0
H1084 H 0.47912 0.52804 0.48861 0.0
H1085 H 0.49982 0.54057 0.52497 0.0
H1086 H 0.43828 0.48677 0.47773 0.0
H1087 H 0.52516 0.53256 0.45635 0.0
H1088 H 0.56977 0.54333 0.45622 0.0
H1089 H 0.54538 0.47353 0.43151 0.0
H1090 H 0.50056 0.46224 0.43178 0.0
H1091 H 0.40048 0.49988 0.3729 0.0
H1092 H 0.42907 0.50802 0.4048 0.0
H1093 H 0.42721 0.44281 0.3934 0.0
H1094 H 0.39932 0.43494 0.3604 0.0
H1095 H 0.47646 0.48267 0.40952 0.0
H1096 H 0.38784 0.44051 0.4276 0.0
H1097 H 0.34514 0.43473 0.4257 0.0
H1098 H 0.37525 0.50322 0.45624 0.0
H1099 H 0.41825 0.50965 0.45786 0.0
C1100 C 0.51003 0.49532 0.51657 0.0
C1101 C 0.51048 0.51403 0.52766 0.0
C1102 C 0.49793 0.48804 0.49558 0.0
C1103 C 0.48641 0.49958 0.48537 0.0
C1104 C 0.48764 0.51872 0.49622 0.0
C1105 C 0.49948 0.52583 0.51708 0.0
C1106 C 0.47186 0.49132 0.46391 0.0
C1107 C 0.44672 0.48596 0.46284 0.0
C1108 C 0.48263 0.48973 0.44453 0.0
C1109 C 0.50951 0.49645 0.44436 0.0
C1110 C 0.5293 0.51943 0.45109 0.0
C1111 C 0.55462 0.52565 0.45095 0.0
C1112 C 0.5604 0.50909 0.44394 0.0
C1113 C 0.54087 0.48631 0.43699 0.0
C1114 C 0.5155 0.48 0.43712 0.0
C1115 C 0.40672 0.48757 0.37656 0.0
C1116 C 0.39741 0.46666 0.36397 0.0
C1117 C 0.42295 0.49219 0.39502 0.0
C1118 C 0.42993 0.47584 0.40165 0.0
C1119 C 0.42194 0.4556 0.38858 0.0
C1120 C 0.40577 0.45102 0.36987 0.0
C1121 C 0.4433 0.47894 0.42341 0.0
C1122 C 0.46801 0.48313 0.42454 0.0
C1123 C 0.43237 0.47994 0.4429 0.0
C1124 C 0.4063 0.4756 0.44275 0.0
C1125 C 0.38537 0.45436 0.43385 0.0
C1126 C 0.3611 0.45099 0.4328 0.0
C1127 C 0.35749 0.46862 0.44083 0.0
C1128 C 0.37809 0.48959 0.45003 0.0
C1129 C 0.40241 0.4931 0.45102 0.0
H1130 H 0.33876 0.46611 0.43995 0.0
H1131 H 0.58002 0.51394 0.44383 0.0
H1132 H 0.14988 0.51406 0.90255 0.0
H1133 H 0.11978 0.47753 0.88196 0.0
H1134 H 0.08654 0.44203 0.94269 0.0
H1135 H 0.11711 0.47797 0.96331 0.0
H1136 H 0.08871 0.41208 0.91655 0.0
H1137 H 0.06067 0.46776 0.90934 0.0
H1138 H 0.06482 0.50618 0.89951 0.0
H1139 H 0.07559 0.49665 0.83219 0.0
H1140 H 0.07185 0.4583 0.84171 0.0
H1141 H 0.9593 0.3276 0.88938 0.0
H1142 H 0.99939 0.36296 0.90243 0.0
H1143 H 0.02592 0.37667 0.83634 0.0
H1144 H 0.9858 0.34096 0.8232 0.0
H1145 H 0.03127 0.41745 0.86 0.0
H1146 H 0.05207 0.35718 0.86839 0.0
H1147 H 0.04508 0.31816 0.88018 0.0
H1148 H 0.0449 0.33583 0.94765 0.0
H1149 H 0.0515 0.37483 0.93623 0.0
C1150 C 0.13649 0.49834 0.91153 0.0
C1151 C 0.13566 0.49906 0.93456 0.0
C1152 C 0.11915 0.47753 0.89973 0.0
C1153 C 0.1006 0.45716 0.91074 0.0
C1154 C 0.10057 0.45754 0.9338 0.0
C1155 C 0.11791 0.47822 0.94556 0.0
C1156 C 0.0803 0.4358 0.89845 0.0
C1157 C 0.07615 0.41328 0.90421 0.0
C1158 C 0.06414 0.43735 0.88205 0.0
C1159 C 0.06631 0.46034 0.87629 0.0
C1160 C 0.06413 0.47396 0.89248 0.0
C1161 C 0.06637 0.4957 0.88696 0.0
C1162 C 0.07055 0.50389 0.86525 0.0
C1163 C 0.07242 0.49031 0.84901 0.0
C1164 C 0.07023 0.46858 0.85445 0.0
C1165 C 0.9737 0.33817 0.87765 0.0
C1166 C 0.96953 0.33165 0.85531 0.0
C1167 C 0.99658 0.35824 0.88512 0.0
C1168 C 0.0156 0.37228 0.87034 0.0
C1169 C 0.01146 0.36596 0.84796 0.0
C1170 C 0.98867 0.3456 0.84053 0.0
C1171 C 0.03949 0.39384 0.87846 0.0
C1172 C 0.04421 0.41635 0.87198 0.0
C1173 C 0.05591 0.39226 0.89446 0.0
C1174 C 0.05211 0.36888 0.90142 0.0
C1175 C 0.05034 0.35268 0.88573 0.0
C1176 C 0.04648 0.33057 0.89235 0.0
C1177 C 0.0445 0.3245 0.91465 0.0
C1178 C 0.04643 0.34055 0.93038 0.0
C1179 C 0.05026 0.36268 0.92384 0.0
H1180 H 0.04151 0.30737 0.91974 0.0
H1181 H 0.07228 0.52072 0.86101 0.0
H1182 H 0.09055 0.55124 0.93944 0.0
H1183 H 0.05256 0.55302 0.93235 0.0
H1184 H 0.0617 0.58218 0.99739 0.0
H1185 H 0.09926 0.57918 0.00498 0.0
H1186 H 0.01335 0.55375 0.98776 0.0
H1187 H 0.08056 0.61864 0.9505 0.0
H1188 H 0.11722 0.63945 0.92674 0.0
H1189 H 0.07003 0.59792 0.87114 0.0
H1190 H 0.03318 0.57659 0.89463 0.0
H1191 H 0.93299 0.59875 0.93867 0.0
H1192 H 0.96916 0.59848 0.95711 0.0
H1193 H 0.9559 0.54147 0.91428 0.0
H1194 H 0.91997 0.54138 0.89607 0.0
H1195 H 0.00845 0.5904 0.91686 0.0
H1196 H 0.94226 0.52311 0.9584 0.0
H1197 H 0.90676 0.50563 0.98351 0.0
H1198 H 0.95463 0.55784 0.03288 0.0
H1199 H 0.99033 0.57586 0.0079 0.0
C1200 C 0.08436 0.55787 0.9523 0.0
C1201 C 0.09796 0.56534 0.97266 0.0
C1202 C 0.06273 0.55903 0.94819 0.0
C1203 C 0.0547 0.56848 0.96406 0.0
C1204 C 0.06766 0.57505 0.9848 0.0
C1205 C 0.08908 0.57334 0.98913 0.0
C1206 C 0.03313 0.57183 0.95853 0.0
C1207 C 0.01253 0.56215 0.97244 0.0
C1208 C 0.03202 0.58304 0.93865 0.0
C1209 C 0.05411 0.59593 0.92438 0.0
C1210 C 0.07803 0.61385 0.93323 0.0
C1211 C 0.09885 0.62574 0.91981 0.0
C1212 C 0.09596 0.61999 0.89745 0.0
C1213 C 0.07224 0.60236 0.88846 0.0
C1214 C 0.05136 0.59039 0.90182 0.0
C1215 C 0.93752 0.58587 0.93352 0.0
C1216 C 0.92351 0.57001 0.91598 0.0
C1217 C 0.95809 0.58572 0.94407 0.0
C1218 C 0.96503 0.56992 0.93701 0.0
C1219 C 0.95066 0.55366 0.92001 0.0
C1220 C 0.93 0.55356 0.90973 0.0
C1221 C 0.9886 0.57158 0.94566 0.0
C1222 C 0.0096 0.58236 0.93232 0.0
C1223 C 0.99025 0.56193 0.96621 0.0
C1224 C 0.96883 0.55103 0.98118 0.0
C1225 C 0.94512 0.53104 0.97451 0.0
C1226 C 0.92499 0.52098 0.98874 0.0
C1227 C 0.92841 0.53067 0.00975 0.0
C1228 C 0.95199 0.55039 0.01659 0.0
C1229 C 0.97218 0.56052 0.00241 0.0
H1230 H 0.9128 0.52286 0.02075 0.0
H1231 H 0.11211 0.62921 0.88708 0.0
H1232 H 0.49463 0.99012 0.52544 0.0
H1233 H 0.465 0.9637 0.49651 0.0
H1234 H 0.49895 0.92095 0.50155 0.0
H1235 H 0.52931 0.94786 0.53006 0.0
H1236 H 0.4963 0.93162 0.46077 0.0
H1237 H 0.43688 0.89986 0.51751 0.0
H1238 H 0.4132 0.90048 0.54856 0.0
H1239 H 0.3809 0.93241 0.50721 0.0
H1240 H 0.40466 0.93228 0.47596 0.0
H1241 H 0.40187 0.83926 0.38958 0.0
H1242 H 0.42875 0.86204 0.42143 0.0
H1243 H 0.4081 0.9146 0.41027 0.0
H1244 H 0.38178 0.89238 0.37774 0.0
H1245 H 0.40314 0.89726 0.45453 0.0
H1246 H 0.4646 0.92934 0.39806 0.0
H1247 H 0.48774 0.92684 0.3675 0.0
H1248 H 0.51539 0.8915 0.40976 0.0
H1249 H 0.4921 0.89347 0.4405 0.0
C1250 C 0.49549 0.97482 0.52074 0.0
C1251 C 0.51446 0.97119 0.52996 0.0
C1252 C 0.47842 0.95964 0.50421 0.0
C1253 C 0.47964 0.94025 0.49686 0.0
C1254 C 0.49771 0.93585 0.50687 0.0
C1255 C 0.51498 0.95119 0.52325 0.0
C1256 C 0.46367 0.92595 0.47745 0.0
C1257 C 0.47585 0.92373 0.45963 0.0
C1258 C 0.43706 0.91611 0.47567 0.0
C1259 C 0.42274 0.91625 0.49443 0.0
C1260 C 0.42489 0.90719 0.51508 0.0
C1261 C 0.41142 0.90742 0.53271 0.0
C1262 C 0.3956 0.91653 0.52987 0.0
C1263 C 0.39318 0.92538 0.50938 0.0
C1264 C 0.40662 0.9252 0.4917 0.0
C1265 C 0.4035 0.85599 0.39346 0.0
C1266 C 0.38978 0.86407 0.38091 0.0
C1267 C 0.4187 0.86885 0.41184 0.0
C1268 C 0.42038 0.88996 0.41815 0.0
C1269 C 0.40692 0.89825 0.40567 0.0
C1270 C 0.39189 0.88552 0.38711 0.0
C1271 C 0.43586 0.90311 0.43806 0.0
C1272 C 0.42357 0.90509 0.45587 0.0
C1273 C 0.46231 0.91247 0.43997 0.0
C1274 C 0.47639 0.91133 0.42151 0.0
C1275 C 0.47543 0.92084 0.40078 0.0
C1276 C 0.48861 0.91956 0.38343 0.0
C1277 C 0.50297 0.90896 0.38666 0.0
C1278 C 0.50423 0.89967 0.40727 0.0
C1279 C 0.49106 0.90088 0.42466 0.0
H1280 H 0.51317 0.90799 0.37322 0.0
H1281 H 0.38519 0.91669 0.54355 0.0
H1282 H 0.57351 0.39397 0.07139 0.0
H1283 H 0.56044 0.36742 0.03945 0.0
H1284 H 0.58892 0.42825 0.99612 0.0
H1285 H 0.60212 0.45481 0.02783 0.0
H1286 H 0.54278 0.39327 0.98199 0.0
H1287 H 0.6214 0.40025 0.00603 0.0
H1288 H 0.65174 0.39829 0.03251 0.0
H1289 H 0.59854 0.32326 0.04173 0.0
H1290 H 0.56773 0.32485 0.01551 0.0
H1291 H 0.54652 0.34113 0.8826 0.0
H1292 H 0.55712 0.36542 0.91582 0.0
H1293 H 0.5254 0.30175 0.95569 0.0
H1294 H 0.51535 0.2774 0.92258 0.0
H1295 H 0.57146 0.33674 0.9723 0.0
H1296 H 0.49346 0.32998 0.94652 0.0
H1297 H 0.46408 0.3326 0.91937 0.0
H1298 H 0.51716 0.40805 0.91278 0.0
H1299 H 0.54703 0.40582 0.93967 0.0
C1300 C 0.57726 0.40171 0.05508 0.0
C1301 C 0.58879 0.42652 0.05219 0.0
C1302 C 0.56973 0.38652 0.03684 0.0
C1303 C 0.57381 0.39589 0.0154 0.0
C1304 C 0.58546 0.42064 0.0125 0.0
C1305 C 0.59293 0.43579 0.03068 0.0
C1306 C 0.56565 0.37999 0.9959 0.0
C1307 C 0.54926 0.38108 0.97976 0.0
C1308 C 0.57367 0.36373 0.99323 0.0
C1309 C 0.59215 0.36273 0.009 0.0
C1310 C 0.61609 0.38338 0.01385 0.0
C1311 C 0.63338 0.38232 0.02878 0.0
C1312 C 0.62704 0.36068 0.03885 0.0
C1313 C 0.60341 0.34002 0.03395 0.0
C1314 C 0.58603 0.34099 0.01904 0.0
C1315 C 0.54183 0.33231 0.89845 0.0
C1316 C 0.53005 0.30735 0.89997 0.0
C1317 C 0.54771 0.34618 0.91739 0.0
C1318 C 0.54183 0.33535 0.9382 0.0
C1319 C 0.53001 0.31044 0.93978 0.0
C1320 C 0.52408 0.29655 0.92084 0.0
C1321 C 0.5487 0.35011 0.95836 0.0
C1322 C 0.56485 0.34882 0.97461 0.0
C1323 C 0.54057 0.36628 0.96107 0.0
C1324 C 0.52259 0.36769 0.94497 0.0
C1325 C 0.49896 0.3471 0.93915 0.0
C1326 C 0.4822 0.34852 0.92383 0.0
C1327 C 0.48878 0.37047 0.91431 0.0
C1328 C 0.5121 0.39105 0.92015 0.0
C1329 C 0.52894 0.38973 0.93544 0.0
H1330 H 0.47577 0.37153 0.90246 0.0
H1331 H 0.64047 0.3599 0.0504 0.0
H1332 H 0.0821 0.44709 0.50097 0.0
H1333 H 0.10825 0.44314 0.47501 0.0
H1334 H 0.04563 0.41319 0.42667 0.0
H1335 H 0.01915 0.41727 0.45279 0.0
H1336 H 0.07202 0.38974 0.42784 0.0
H1337 H 0.09134 0.46967 0.42092 0.0
H1338 H 0.10226 0.50937 0.43353 0.0
H1339 H 0.17266 0.52193 0.46325 0.0
H1340 H 0.16204 0.48212 0.45095 0.0
H1341 H 0.15875 0.41207 0.34216 0.0
H1342 H 0.12579 0.41029 0.36413 0.0
H1343 H 0.179 0.43894 0.42012 0.0
H1344 H 0.21183 0.44025 0.39852 0.0
H1345 H 0.15431 0.46315 0.41122 0.0
H1346 H 0.13291 0.38144 0.41905 0.0
H1347 H 0.12136 0.34183 0.40542 0.0
H1348 H 0.05401 0.33311 0.37243 0.0
H1349 H 0.06536 0.37285 0.38563 0.0
C1350 C 0.07386 0.43977 0.4848 0.0
C1351 C 0.04868 0.43289 0.47879 0.0
C1352 C 0.08882 0.43744 0.46999 0.0
C1353 C 0.07903 0.42831 0.44877 0.0
C1354 C 0.05356 0.4204 0.44295 0.0
C1355 C 0.03847 0.4227 0.45787 0.0
C1356 C 0.09594 0.42782 0.43271 0.0
C1357 C 0.0898 0.40583 0.42385 0.0
C1358 C 0.11924 0.44882 0.42771 0.0
C1359 C 0.1258 0.47282 0.43513 0.0
C1360 C 0.10907 0.48081 0.43028 0.0
C1361 C 0.11523 0.50337 0.43736 0.0
C1362 C 0.13813 0.51817 0.44924 0.0
C1363 C 0.15493 0.51044 0.45405 0.0
C1364 C 0.14887 0.4879 0.44698 0.0
C1365 C 0.16331 0.41757 0.35927 0.0
C1366 C 0.18799 0.42643 0.36854 0.0
C1367 C 0.14447 0.41663 0.37176 0.0
C1368 C 0.14999 0.42452 0.39373 0.0
C1369 C 0.17442 0.43292 0.40314 0.0
C1370 C 0.19318 0.43374 0.39073 0.0
C1371 C 0.13073 0.42499 0.40679 0.0
C1372 C 0.13643 0.44707 0.41503 0.0
C1373 C 0.10699 0.40412 0.41101 0.0
C1374 C 0.10014 0.38023 0.40311 0.0
C1375 C 0.11576 0.37117 0.40872 0.0
C1376 C 0.10922 0.34868 0.40111 0.0
C1377 C 0.08701 0.33499 0.38801 0.0
C1378 C 0.07124 0.34375 0.38255 0.0
C1379 C 0.07771 0.36625 0.3901 0.0
H1380 H 0.08197 0.31758 0.38214 0.0
H1381 H 0.14292 0.53566 0.45464 0.0
H1382 H 0.64873 0.05476 0.0546 0.0
H1383 H 0.67833 0.0732 0.02509 0.0
H1384 H 0.61618 0.05765 0.97904 0.0
H1385 H 0.58618 0.03914 0.00863 0.0
H1386 H 0.65423 0.05102 0.96149 0.0
H1387 H 0.64766 0.11076 0.99856 0.0
H1388 H 0.64735 0.13262 0.03077 0.0
H1389 H 0.72417 0.15326 0.04905 0.0
H1390 H 0.72484 0.13132 0.01704 0.0
H1391 H 0.72902 0.13828 0.88152 0.0
H1392 H 0.69727 0.11353 0.90821 0.0
H1393 H 0.75693 0.13353 0.95841 0.0
H1394 H 0.7888 0.15889 0.93192 0.0
H1395 H 0.71891 0.13719 0.9732 0.0
H1396 H 0.72551 0.07799 0.93484 0.0
H1397 H 0.72524 0.05629 0.90226 0.0
H1398 H 0.64777 0.03472 0.88583 0.0
H1399 H 0.64769 0.05658 0.91816 0.0
C1400 C 0.64119 0.05487 0.03815 0.0
C1401 C 0.61506 0.04568 0.03405 0.0
C1402 C 0.6582 0.06548 0.0213 0.0
C1403 C 0.64949 0.0671 0.99997 0.0
C1404 C 0.62327 0.05662 0.99543 0.0
C1405 C 0.60617 0.04607 0.01236 0.0
C1406 C 0.66807 0.0813 0.98301 0.0
C1407 C 0.66818 0.06993 0.96386 0.0
C1408 C 0.68648 0.10588 0.98632 0.0
C1409 C 0.68621 0.11921 0.00552 0.0
C1410 C 0.66441 0.11981 0.00955 0.0
C1411 C 0.66418 0.13223 0.02775 0.0
C1412 C 0.68569 0.14424 0.04199 0.0
C1413 C 0.70751 0.14392 0.03802 0.0
C1414 C 0.70784 0.13152 0.01983 0.0
C1415 C 0.7354 0.1375 0.89827 0.0
C1416 C 0.76146 0.15064 0.90461 0.0
C1417 C 0.71722 0.12313 0.91345 0.0
C1418 C 0.72471 0.12148 0.93528 0.0
C1419 C 0.75071 0.13447 0.94164 0.0
C1420 C 0.76892 0.14882 0.92644 0.0
C1421 C 0.70538 0.10692 0.95167 0.0
C1422 C 0.70504 0.11828 0.97076 0.0
C1423 C 0.68672 0.08238 0.94819 0.0
C1424 C 0.68668 0.06912 0.92881 0.0
C1425 C 0.70848 0.06878 0.92418 0.0
C1426 C 0.70838 0.05642 0.90578 0.0
C1427 C 0.68653 0.04418 0.89195 0.0
C1428 C 0.6647 0.04423 0.89654 0.0
C1429 C 0.66471 0.05658 0.91491 0.0
H1430 H 0.68649 0.03463 0.87771 0.0
H1431 H 0.68547 0.15385 0.05608 0.0
H1432 H 0.55605 0.62252 0.55531 0.0
H1433 H 0.5697 0.64989 0.52374 0.0
H1434 H 0.63119 0.63857 0.51507 0.0
H1435 H 0.6174 0.61105 0.54642 0.0
H1436 H 0.64531 0.68718 0.51134 0.0
H1437 H 0.58279 0.60963 0.48319 0.0
H1438 H 0.54131 0.57156 0.48142 0.0
H1439 H 0.50345 0.60965 0.46768 0.0
H1440 H 0.54471 0.64802 0.4698 0.0
H1441 H 0.67608 0.72859 0.40168 0.0
H1442 H 0.66283 0.70291 0.43415 0.0
H1443 H 0.60014 0.71302 0.44021 0.0
H1444 H 0.61364 0.73931 0.40813 0.0
H1445 H 0.58637 0.6652 0.44549 0.0
H1446 H 0.65045 0.74318 0.47324 0.0
H1447 H 0.69262 0.78052 0.47464 0.0
H1448 H 0.72831 0.74049 0.48849 0.0
H1449 H 0.68635 0.70285 0.48685 0.0
C1450 C 0.5727 0.62623 0.54686 0.0
C1451 C 0.58569 0.61471 0.55321 0.0
C1452 C 0.58037 0.64168 0.52879 0.0
C1453 C 0.60133 0.64608 0.51702 0.0
C1454 C 0.61495 0.63537 0.52393 0.0
C1455 C 0.60704 0.61964 0.54174 0.0
C1456 C 0.60852 0.66113 0.49701 0.0
C1457 C 0.63254 0.68229 0.49686 0.0
C1458 C 0.5917 0.65478 0.47825 0.0
C1459 C 0.56683 0.63174 0.47692 0.0
C1460 C 0.5656 0.60992 0.48002 0.0
C1461 C 0.54213 0.58827 0.47891 0.0
C1462 C 0.51975 0.58819 0.47449 0.0
C1463 C 0.5208 0.60975 0.47115 0.0
C1464 C 0.54423 0.63146 0.4723 0.0
C1465 C 0.65961 0.72557 0.41 0.0
C1466 C 0.64604 0.73619 0.40229 0.0
C1467 C 0.65198 0.71077 0.4285 0.0
C1468 C 0.6306 0.70621 0.43966 0.0
C1469 C 0.61665 0.71626 0.43177 0.0
C1470 C 0.62436 0.73122 0.41336 0.0
C1471 C 0.62315 0.69135 0.45985 0.0
C1472 C 0.5991 0.67017 0.46001 0.0
C1473 C 0.64003 0.69756 0.47857 0.0
C1474 C 0.66527 0.72018 0.4797 0.0
C1475 C 0.6673 0.74232 0.4764 0.0
C1476 C 0.69116 0.76354 0.47727 0.0
C1477 C 0.71313 0.76288 0.4816 0.0
C1478 C 0.71128 0.74098 0.48512 0.0
C1479 C 0.68746 0.7197 0.48423 0.0
H1480 H 0.73159 0.77933 0.48227 0.0
H1481 H 0.5016 0.57142 0.47359 0.0
H1482 H 0.5561 0.09635 0.56316 0.0
H1483 H 0.54304 0.11433 0.59011 0.0
H1484 H 0.57574 0.0925 0.64275 0.0
H1485 H 0.58881 0.07459 0.61603 0.0
H1486 H 0.52831 0.08088 0.6514 0.0
H1487 H 0.60499 0.15021 0.62657 0.0
H1488 H 0.63342 0.17845 0.59892 0.0
H1489 H 0.57712 0.19518 0.57893 0.0
H1490 H 0.54819 0.16676 0.60627 0.0
H1491 H 0.53754 0.15072 0.74156 0.0
H1492 H 0.54513 0.13194 0.71128 0.0
H1493 H 0.50926 0.15729 0.66527 0.0
H1494 H 0.50213 0.17669 0.69555 0.0
H1495 H 0.55434 0.1662 0.65108 0.0
H1496 H 0.47893 0.09879 0.67836 0.0
H1497 H 0.45108 0.07071 0.70639 0.0
H1498 H 0.50541 0.05038 0.72215 0.0
H1499 H 0.53377 0.07859 0.69443 0.0
C1500 C 0.56082 0.09568 0.58044 0.0
C1501 C 0.57341 0.08393 0.58743 0.0
C1502 C 0.55328 0.1059 0.59583 0.0
C1503 C 0.5584 0.10472 0.61844 0.0
C1504 C 0.57137 0.09341 0.6254 0.0
C1505 C 0.5788 0.08314 0.61008 0.0
C1506 C 0.54984 0.11478 0.635 0.0
C1507 C 0.53418 0.09959 0.65146 0.0
C1508 C 0.5569 0.13901 0.63466 0.0
C1509 C 0.57432 0.15617 0.61829 0.0
C1510 C 0.59858 0.15977 0.61616 0.0
C1511 C 0.61481 0.17583 0.60056 0.0
C1512 C 0.60705 0.18855 0.58713 0.0
C1513 C 0.58308 0.18528 0.58932 0.0
C1514 C 0.56677 0.16921 0.60487 0.0
C1515 C 0.53124 0.15228 0.725 0.0
C1516 C 0.51931 0.16523 0.72091 0.0
C1517 C 0.53539 0.14137 0.70774 0.0
C1518 C 0.52756 0.14306 0.68605 0.0
C1519 C 0.51536 0.15572 0.68191 0.0
C1520 C 0.51114 0.16662 0.69922 0.0
C1521 C 0.53316 0.13238 0.66771 0.0
C1522 C 0.54824 0.14744 0.6509 0.0
C1523 C 0.52563 0.10802 0.66776 0.0
C1524 C 0.50857 0.09096 0.68441 0.0
C1525 C 0.48503 0.08847 0.68791 0.0
C1526 C 0.46914 0.0725 0.70373 0.0
C1527 C 0.47649 0.05881 0.71607 0.0
C1528 C 0.49974 0.06101 0.71259 0.0
C1529 C 0.51572 0.07697 0.6968 0.0
H1530 H 0.46416 0.04646 0.72831 0.0
H1531 H 0.61964 0.20098 0.57507 0.0
H1532 H 0.5465 0.5162 0.10591 0.0
H1533 H 0.51118 0.51565 0.12307 0.0
H1534 H 0.49252 0.45027 0.15669 0.0
H1535 H 0.52718 0.45049 0.13948 0.0
H1536 H 0.45043 0.44847 0.14272 0.0
H1537 H 0.52936 0.50489 0.18152 0.0
H1538 H 0.57282 0.54053 0.18475 0.0
H1539 H 0.54452 0.58512 0.16333 0.0
H1540 H 0.50094 0.54966 0.1596 0.0
H1541 H 0.39597 0.44592 0.24223 0.0
H1542 H 0.42686 0.45159 0.2157 0.0
H1543 H 0.41802 0.50539 0.18236 0.0
H1544 H 0.38601 0.49907 0.20821 0.0
H1545 H 0.47156 0.51649 0.19151 0.0
H1546 H 0.39063 0.45794 0.15756 0.0
H1547 H 0.34803 0.42113 0.1568 0.0
H1548 H 0.38145 0.37934 0.17189 0.0
H1549 H 0.42426 0.41597 0.17309 0.0
C1550 C 0.53454 0.50151 0.11665 0.0
C1551 C 0.53973 0.48348 0.12148 0.0
C1552 C 0.5145 0.50129 0.12655 0.0
C1553 C 0.49943 0.48308 0.14141 0.0
C1554 C 0.50388 0.46451 0.14532 0.0
C1555 C 0.52381 0.46473 0.13551 0.0
C1556 C 0.47983 0.48367 0.15394 0.0
C1557 C 0.45508 0.46337 0.15335 0.0
C1558 C 0.48578 0.50325 0.1676 0.0
C1559 C 0.51194 0.52459 0.17 0.0
C1560 C 0.53244 0.52227 0.17732 0.0
C1561 C 0.55709 0.54244 0.17926 0.0
C1562 C 0.56144 0.56506 0.17418 0.0
C1563 C 0.54113 0.56757 0.1672 0.0
C1564 C 0.51645 0.54745 0.16516 0.0
C1565 C 0.40026 0.45878 0.22915 0.0
C1566 C 0.38816 0.47181 0.22729 0.0
C1567 C 0.41814 0.46214 0.21411 0.0
C1568 C 0.42457 0.47881 0.19705 0.0
C1569 C 0.4133 0.49248 0.19548 0.0
C1570 C 0.3951 0.48889 0.21036 0.0
C1571 C 0.44246 0.48113 0.18053 0.0
C1572 C 0.46684 0.50188 0.18046 0.0
C1573 C 0.43635 0.46183 0.1665 0.0
C1574 C 0.41064 0.43973 0.16557 0.0
C1575 C 0.38889 0.44093 0.16089 0.0
C1576 C 0.3647 0.42009 0.16035 0.0
C1577 C 0.36203 0.39791 0.16434 0.0
C1578 C 0.38355 0.39653 0.16882 0.0
C1579 C 0.40778 0.41732 0.1694 0.0
H1580 H 0.34329 0.38179 0.16391 0.0
H1581 H 0.58052 0.58066 0.17572 0.0
H1582 H 0.04585 0.40971 0.58878 0.0
H1583 H 0.0294 0.38466 0.62148 0.0
H1584 H 0.99653 0.42487 0.6405 0.0
H1585 H 0.01376 0.45051 0.60844 0.0
H1586 H 0.01246 0.41353 0.67571 0.0
H1587 H 0.96155 0.36989 0.61186 0.0
H1588 H 0.95297 0.35212 0.57478 0.0
H1589 H 0.98217 0.30845 0.59692 0.0
H1590 H 0.99124 0.32621 0.63408 0.0
H1591 H 0.9063 0.32287 0.73389 0.0
H1592 H 0.93257 0.35086 0.70571 0.0
H1593 H 0.97881 0.31988 0.70715 0.0
H1594 H 0.95368 0.29266 0.73637 0.0
H1595 H 0.95874 0.32593 0.66298 0.0
H1596 H 0.00543 0.36906 0.72904 0.0
H1597 H 0.00985 0.38631 0.76575 0.0
H1598 H 0.98351 0.43056 0.73849 0.0
H1599 H 0.97852 0.41327 0.70167 0.0
C1600 C 0.03549 0.41346 0.60013 0.0
C1601 C 0.03098 0.43201 0.59589 0.0
C1602 C 0.02591 0.399 0.61876 0.0
C1603 C 0.01114 0.40244 0.63324 0.0
C1604 C 0.00775 0.42173 0.6296 0.0
C1605 C 0.01764 0.43641 0.61119 0.0
C1606 C 0.99814 0.38536 0.65153 0.0
C1607 C 1.00062 0.3944 0.67283 0.0
C1608 C 0.98279 0.3603 0.64797 0.0
C1609 C 0.97735 0.34958 0.62566 0.0
C1610 C 0.96632 0.35663 0.60877 0.0
C1611 C 0.96134 0.34654 0.58775 0.0
C1612 C 0.9671 0.32922 0.58347 0.0
C1613 C 0.97777 0.32191 0.60024 0.0
C1614 C 0.98283 0.33197 0.62128 0.0
C1615 C 0.92232 0.32219 0.72864 0.0
C1616 C 0.9278 0.30541 0.73767 0.0
C1617 C 0.9372 0.33814 0.71235 0.0
C1618 C 0.95763 0.33745 0.70443 0.0
C1619 C 0.96304 0.32061 0.71304 0.0
C1620 C 0.94847 0.30493 0.72965 0.0
C1621 C 0.97307 0.35419 0.68691 0.0
C1622 C 0.9709 0.34505 0.66579 0.0
C1623 C 0.98822 0.37915 0.69053 0.0
C1624 C 0.99137 0.3897 0.71263 0.0
C1625 C 1.00035 0.38231 0.73091 0.0
C1626 C 0.00301 0.39213 0.75173 0.0
C1627 C 0.99691 0.40948 0.75446 0.0
C1628 C 0.9882 0.4171 0.73636 0.0
C1629 C 0.98548 0.40731 0.7155 0.0
H1630 H 0.99898 0.41707 0.7706 0.0
H1631 H 0.96322 0.32143 0.56719 0.0
H1632 H 0.66404 0.02697 0.12452 0.0
H1633 H 0.67973 0.00359 0.1429 0.0
H1634 H 0.67241 0.02707 0.2061 0.0
H1635 H 0.65615 0.05024 0.18778 0.0
H1636 H 0.71771 0.02374 0.20181 0.0
H1637 H 0.62588 0.97682 0.19056 0.0
H1638 H 0.58635 0.96167 0.1675 0.0
H1639 H 0.61075 0.92799 0.12408 0.0
H1640 H 0.65054 0.94317 0.14676 0.0
H1641 H 0.71165 0.92993 0.26711 0.0
H1642 H 0.70636 0.96078 0.24933 0.0
H1643 H 0.69267 0.92584 0.18648 0.0
H1644 H 0.69693 0.89437 0.20452 0.0
H1645 H 0.65893 0.93634 0.19067 0.0
H1646 H 0.74964 0.9811 0.20155 0.0
H1647 H 0.79072 0.99774 0.22244 0.0
H1648 H 0.77075 0.03625 0.26435 0.0
H1649 H 0.72939 0.0196 0.24389 0.0
C1650 C 0.66594 0.02733 0.14232 0.0
C1651 C 0.65837 0.04009 0.1547 0.0
C1652 C 0.67506 0.01409 0.15278 0.0
C1653 C 0.67687 0.01338 0.17582 0.0
C1654 C 0.67111 0.02743 0.18827 0.0
C1655 C 0.66187 0.04067 0.17778 0.0
C1656 C 0.68228 0.99611 0.18671 0.0
C1657 C 0.7048 0.0046 0.19966 0.0
C1658 C 0.66564 0.97123 0.18339 0.0
C1659 C 0.64128 0.96132 0.17023 0.0
C1660 C 0.62285 0.96626 0.17605 0.0
C1661 C 0.60041 0.95768 0.16305 0.0
C1662 C 0.59613 0.94401 0.14427 0.0
C1663 C 0.61414 0.93865 0.13859 0.0
C1664 C 0.63661 0.9472 0.15153 0.0
C1665 C 0.708 0.92913 0.24943 0.0
C1666 C 0.70492 0.90994 0.2371 0.0
C1667 C 0.70502 0.94679 0.23926 0.0
C1668 C 0.69946 0.9459 0.21647 0.0
C1669 C 0.69695 0.92696 0.20407 0.0
C1670 C 0.69948 0.90905 0.21432 0.0
C1671 C 0.69467 0.9638 0.20579 0.0
C1672 C 0.67206 0.95543 0.19289 0.0
C1673 C 0.71141 0.98878 0.20903 0.0
C1674 C 0.73632 0.99893 0.2213 0.0
C1675 C 0.75393 0.99299 0.21532 0.0
C1676 C 0.77728 0.00244 0.22707 0.0
C1677 C 0.78331 0.018 0.24475 0.0
C1678 C 0.76604 0.02418 0.25067 0.0
C1679 C 0.74265 0.01476 0.23898 0.0
H1680 H 0.8014 0.02529 0.25383 0.0
H1681 H 0.57885 0.93754 0.13412 0.0
H1682 H 0.59427 0.50557 0.62594 0.0
H1683 H 0.62298 0.50592 0.65527 0.0
H1684 H 0.68227 0.57594 0.63492 0.0
H1685 H 0.65391 0.57574 0.60545 0.0
H1686 H 0.70121 0.5488 0.64622 0.0
H1687 H 0.64208 0.56636 0.67691 0.0
H1688 H 0.59984 0.558 0.68607 0.0
H1689 H 0.58597 0.49583 0.72245 0.0
H1690 H 0.62781 0.50346 0.71304 0.0
H1691 H 0.78275 0.59363 0.74076 0.0
H1692 H 0.75298 0.58675 0.7099 0.0
H1693 H 0.69652 0.52021 0.73895 0.0
H1694 H 0.72571 0.52772 0.77063 0.0
H1695 H 0.67457 0.54148 0.72299 0.0
H1696 H 0.73245 0.52316 0.69447 0.0
H1697 H 0.77309 0.52837 0.68434 0.0
H1698 H 0.78835 0.5886 0.64408 0.0
H1699 H 0.74799 0.584 0.65422 0.0
C1700 C 0.61358 0.52086 0.62741 0.0
C1701 C 0.62173 0.54075 0.61344 0.0
C1702 C 0.62989 0.52106 0.64428 0.0
C1703 C 0.65458 0.54111 0.64754 0.0
C1704 C 0.66323 0.56033 0.6328 0.0
C1705 C 0.64697 0.56018 0.61594 0.0
C1706 C 0.67114 0.5427 0.66679 0.0
C1707 C 0.69551 0.54743 0.66303 0.0
C1708 C 0.66331 0.54003 0.6887 0.0
C1709 C 0.63796 0.53531 0.69402 0.0
C1710 C 0.62989 0.55074 0.68663 0.0
C1711 C 0.60602 0.54614 0.69189 0.0
C1712 C 0.5902 0.52637 0.70478 0.0
C1713 C 0.59818 0.5111 0.71239 0.0
C1714 C 0.62195 0.51552 0.70707 0.0
C1715 C 0.76382 0.57777 0.74088 0.0
C1716 C 0.75664 0.56126 0.75829 0.0
C1717 C 0.74695 0.57363 0.72296 0.0
C1718 C 0.72267 0.55268 0.7218 0.0
C1719 C 0.71522 0.53642 0.73936 0.0
C1720 C 0.73199 0.54067 0.75742 0.0
C1721 C 0.70491 0.548 0.70248 0.0
C1722 C 0.68029 0.54268 0.70621 0.0
C1723 C 0.7124 0.54983 0.68053 0.0
C1724 C 0.73724 0.55331 0.67522 0.0
C1725 C 0.74461 0.53769 0.68367 0.0
C1726 C 0.76756 0.5405 0.67787 0.0
C1727 C 0.78321 0.55874 0.6635 0.0
C1728 C 0.77614 0.57443 0.65514 0.0
C1729 C 0.75324 0.57174 0.66091 0.0
H1730 H 0.80078 0.56068 0.65875 0.0
H1731 H 0.57178 0.52291 0.70893 0.0
H1732 H 0.22521 0.62151 0.05925 0.0
H1733 H 0.23762 0.64747 0.0913 0.0
H1734 H 0.24155 0.70345 0.05019 0.0
H1735 H 0.22819 0.67715 0.01787 0.0
H1736 H 0.28366 0.71659 0.08718 0.0
H1737 H 0.1935 0.67959 0.07321 0.0
H1738 H 0.15012 0.6458 0.06392 0.0
H1739 H 0.15311 0.60843 0.12172 0.0
H1740 H 0.1967 0.64185 0.13116 0.0
H1741 H 0.28619 0.77243 0.18858 0.0
H1742 H 0.27634 0.75866 0.15019 0.0
H1743 H 0.24563 0.68602 0.17213 0.0
H1744 H 0.25436 0.69945 0.21029 0.0
H1745 H 0.21559 0.68755 0.14072 0.0
H1746 H 0.30645 0.72112 0.1523 0.0
H1747 H 0.35053 0.75349 0.16185 0.0
H1748 H 0.34689 0.79635 0.10917 0.0
H1749 H 0.30264 0.76432 0.0995 0.0
C1750 C 0.22874 0.63933 0.05692 0.0
C1751 C 0.22518 0.64704 0.03603 0.0
C1752 C 0.23603 0.65421 0.07524 0.0
C1753 C 0.2402 0.67721 0.07307 0.0
C1754 C 0.23838 0.6857 0.05211 0.0
C1755 C 0.23081 0.67067 0.03368 0.0
C1756 C 0.2443 0.69121 0.09317 0.0
C1757 C 0.2687 0.71069 0.09872 0.0
C1758 C 0.22479 0.68319 0.10824 0.0
C1759 C 0.19845 0.66316 0.10279 0.0
C1760 C 0.18499 0.66409 0.08384 0.0
C1761 C 0.16035 0.64501 0.07857 0.0
C1762 C 0.14889 0.62496 0.0922 0.0
C1763 C 0.16202 0.62397 0.11117 0.0
C1764 C 0.18669 0.64299 0.1165 0.0
C1765 C 0.2771 0.75351 0.18518 0.0
C1766 C 0.27127 0.73706 0.20249 0.0
C1767 C 0.27169 0.74569 0.16325 0.0
C1768 C 0.26049 0.72133 0.15827 0.0
C1769 C 0.25431 0.70491 0.17555 0.0
C1770 C 0.25959 0.71266 0.19738 0.0
C1771 C 0.25524 0.71258 0.13519 0.0
C1772 C 0.23051 0.69396 0.12904 0.0
C1773 C 0.27451 0.72135 0.11969 0.0
C1774 C 0.30117 0.74047 0.12535 0.0
C1775 C 0.315 0.73752 0.14286 0.0
C1776 C 0.34002 0.75579 0.14828 0.0
C1777 C 0.35148 0.777 0.13617 0.0
C1778 C 0.33797 0.77994 0.11856 0.0
C1779 C 0.31293 0.76173 0.1131 0.0
H1780 H 0.37084 0.79112 0.1404 0.0
H1781 H 0.12981 0.61021 0.08809 0.0
loop_
_geom_bond_atom_site_label_1
_geom_bond_atom_site_label_2
_geom_bond_distance
_geom_bond_site_symmetry_2
_ccdc_geom_bond_type
Cu0 N1 1.999 1_554 S
Cu0 O6 1.974 1_554 S
Cu0 N11 1.985 . S
Cu0 O20 1.959 . S
N1 Cu0 1.999 1_556 S
N1 C3 1.263 . S
N1 C5 1.389 . S
N2 C3 1.358 . S
N2 C4 1.400 . S
C3 N1 1.263 . S
C3 N2 1.358 . S
C3 H9 0.930 . S
C4 N2 1.400 . S
C4 C5 1.351 . S
C4 H21 0.930 . S
C5 N1 1.389 . S
C5 C4 1.351 . S
C5 H10 0.930 1_556 S
O6 Cu0 1.974 1_556 S
O6 C16 1.282 . S
C7 O8 1.261 . S
C7 O20 1.251 . S
O8 C7 1.261 . S
H9 C3 0.930 . S
H10 C5 0.930 1_554 S
N11 Cu0 1.985 . S
N11 C13 1.335 . S
N11 C14 1.390 . S
N12 C13 1.345 . S
N12 C15 1.336 . S
C13 N11 1.335 . S
C13 N12 1.345 . S
C13 H18 0.930 . S
C14 N11 1.390 . S
C14 C15 1.346 . S
C14 H19 0.930 1_554 S
C15 N12 1.336 . S
C15 C14 1.346 . S
C15 H22 0.929 . S
C16 O6 1.282 . S
C16 O17 1.216 . S
O17 C16 1.216 . S
H18 C13 0.930 . S
H19 C14 0.930 1_556 S
O20 Cu0 1.959 . S
O20 C7 1.251 . S
H21 C4 0.930 . S
H22 C15 0.929 . S
Cu23 N24 1.999 . S
Cu23 O29 1.974 . S
Cu23 N34 1.985 1_565 S
Cu23 O43 1.959 1_565 S
N24 Cu23 1.999 . S
N24 C26 1.263 . S
N24 C28 1.389 . S
N25 C26 1.358 . S
N25 C27 1.400 . S
C26 N24 1.263 . S
C26 N25 1.358 . S
C26 H32 0.930 . S
C27 N25 1.400 . S
C27 C28 1.351 . S
C27 H44 0.930 . S
C28 N24 1.389 . S
C28 C27 1.351 . S
C28 H33 0.930 . S
O29 Cu23 1.974 . S
O29 C39 1.282 . S
C30 O31 1.261 . S
C30 O43 1.251 . S
O31 C30 1.261 . S
H32 C26 0.930 . S
H33 C28 0.930 . S
N34 Cu23 1.985 1_545 S
N34 C36 1.335 . S
N34 C37 1.390 . S
N35 C36 1.345 . S
N35 C38 1.336 . S
C36 N34 1.335 . S
C36 N35 1.345 . S
C36 H41 0.930 . S
C37 N34 1.390 . S
C37 C38 1.346 . S
C37 H42 0.930 . S
C38 N35 1.336 . S
C38 C37 1.346 . S
C38 H45 0.929 . S
C39 O29 1.282 . S
C39 O40 1.216 1_565 S
O40 C39 1.216 1_545 S
H41 C36 0.930 . S
H42 C37 0.930 . S
O43 Cu23 1.959 1_545 S
O43 C30 1.251 . S
H44 C27 0.930 . S
H45 C38 0.929 . S
Cu46 N47 1.999 . S
Cu46 O52 1.974 . S
Cu46 N57 1.985 . S
Cu46 O66 1.959 . S
N47 Cu46 1.999 . S
N47 C49 1.263 . S
N47 C51 1.389 . S
N48 C49 1.358 . S
N48 C50 1.400 . S
C49 N47 1.263 . S
C49 N48 1.358 . S
C49 H55 0.930 . S
C50 N48 1.400 . S
C50 C51 1.351 . S
C50 H67 0.930 . S
C51 N47 1.389 . S
C51 C50 1.351 . S
C51 H56 0.930 . S
O52 Cu46 1.974 . S
O52 C62 1.282 . S
C53 O54 1.261 . S
C53 O66 1.251 . S
O54 C53 1.261 . S
H55 C49 0.930 . S
H56 C51 0.930 . S
N57 Cu46 1.985 . S
N57 C59 1.335 . S
N57 C60 1.390 . S
N58 C59 1.345 . S
N58 C61 1.336 . S
C59 N57 1.335 . S
C59 N58 1.345 . S
C59 H64 0.930 . S
C60 N57 1.390 . S
C60 C61 1.346 . S
C60 H65 0.930 . S
C61 N58 1.336 . S
C61 C60 1.346 . S
C61 H68 0.929 . S
C62 O52 1.282 . S
C62 O63 1.216 . S
O63 C62 1.216 . S
H64 C59 0.930 . S
H65 C60 0.930 . S
O66 Cu46 1.959 . S
O66 C53 1.251 . S
H67 C50 0.930 . S
H68 C61 0.929 . S
Cu69 N70 1.999 1_655 S
Cu69 O75 1.974 1_655 S
Cu69 N80 1.985 . S
Cu69 O89 1.959 . S
N70 Cu69 1.999 1_455 S
N70 C72 1.263 . S
N70 C74 1.389 1_455 S
N71 C72 1.358 . S
N71 C73 1.400 . S
C72 N70 1.263 . S
C72 N71 1.358 . S
C72 H78 0.930 . S
C73 N71 1.400 . S
C73 C74 1.351 1_455 S
C73 H90 0.930 1_455 S
C74 N70 1.389 1_655 S
C74 C73 1.351 1_655 S
C74 H79 0.930 . S
O75 Cu69 1.974 1_455 S
O75 C85 1.282 . S
C76 O77 1.261 1_655 S
C76 O89 1.251 . S
O77 C76 1.261 1_455 S
H78 C72 0.930 . S
H79 C74 0.930 . S
N80 Cu69 1.985 . S
N80 C82 1.335 . S
N80 C83 1.390 . S
N81 C82 1.345 . S
N81 C84 1.336 . S
C82 N80 1.335 . S
C82 N81 1.345 . S
C82 H87 0.930 . S
C83 N80 1.390 . S
C83 C84 1.346 . S
C83 H88 0.930 1_655 S
C84 N81 1.336 . S
C84 C83 1.346 . S
C84 H91 0.929 . S
C85 O75 1.282 . S
C85 O86 1.216 . S
O86 C85 1.216 . S
H87 C82 0.930 . S
H88 C83 0.930 1_455 S
O89 Cu69 1.959 . S
O89 C76 1.251 . S
H90 C73 0.930 1_655 S
H91 C84 0.929 . S
Cu92 N93 1.999 . S
Cu92 O98 1.974 . S
Cu92 N103 1.985 . S
Cu92 O112 1.959 . S
N93 Cu92 1.999 . S
N93 C95 1.263 . S
N93 C97 1.389 . S
N94 C95 1.358 . S
N94 C96 1.400 . S
C95 N93 1.263 . S
C95 N94 1.358 . S
C95 H101 0.930 . S
C96 N94 1.400 . S
C96 C97 1.351 . S
C96 H113 0.930 . S
C97 N93 1.389 . S
C97 C96 1.351 . S
C97 H102 0.930 . S
O98 Cu92 1.974 . S
O98 C108 1.282 . S
C99 O100 1.261 . S
C99 O112 1.251 . S
O100 C99 1.261 . S
H101 C95 0.930 . S
H102 C97 0.930 . S
N103 Cu92 1.985 . S
N103 C105 1.335 . S
N103 C106 1.390 . S
N104 C105 1.345 . S
N104 C107 1.336 . S
C105 N103 1.335 . S
C105 N104 1.345 . S
C105 H110 0.930 . S
C106 N103 1.390 . S
C106 C107 1.346 . S
C106 H111 0.930 . S
C107 N104 1.336 . S
C107 C106 1.346 . S
C107 H114 0.929 . S
C108 O98 1.282 . S
C108 O109 1.216 . S
O109 C108 1.216 . S
H110 C105 0.930 . S
H111 C106 0.930 . S
O112 Cu92 1.959 . S
O112 C99 1.251 . S
H113 C96 0.930 . S
H114 C107 0.929 . S
Cu115 N116 1.999 . S
Cu115 O121 1.974 . S
Cu115 N126 1.985 . S
Cu115 O135 1.959 . S
N116 Cu115 1.999 . S
N116 C118 1.263 . S
N116 C120 1.389 . S
N117 C118 1.358 . S
N117 C119 1.400 . S
C118 N116 1.263 . S
C118 N117 1.358 . S
C118 H124 0.930 . S
C119 N117 1.400 . S
C119 C120 1.351 . S
C119 H136 0.930 . S
C120 N116 1.389 . S
C120 C119 1.351 . S
C120 H125 0.930 . S
O121 Cu115 1.974 . S
O121 C131 1.282 . S
C122 O123 1.261 . S
C122 O135 1.251 . S
O123 C122 1.261 . S
H124 C118 0.930 . S
H125 C120 0.930 . S
N126 Cu115 1.985 . S
N126 C128 1.335 . S
N126 C129 1.390 . S
N127 C128 1.345 . S
N127 C130 1.336 . S
C128 N126 1.335 . S
C128 N127 1.345 . S
C128 H133 0.930 . S
C129 N126 1.390 . S
C129 C130 1.346 . S
C129 H134 0.930 . S
C130 N127 1.336 . S
C130 C129 1.346 . S
C130 H137 0.929 . S
C131 O121 1.282 . S
C131 O132 1.216 . S
O132 C131 1.216 . S
H133 C128 0.930 . S
H134 C129 0.930 . S
O135 Cu115 1.959 . S
O135 C122 1.251 . S
H136 C119 0.930 . S
H137 C130 0.929 . S
H138 O164 0.856 . S
H139 O167 0.854 . S
H140 C175 0.930 . S
H141 C176 0.930 . S
H142 C178 0.930 . S
H143 C179 0.930 . S
H144 C181 0.931 . S
H145 C182 0.930 . S
H146 C184 0.930 . S
H147 C185 0.929 . S
H148 C187 0.930 . S
H149 C188 0.931 . S
H150 C190 0.930 . S
H151 C191 0.929 . S
H152 C193 0.931 . S
H153 C194 0.930 . S
H154 C196 0.930 . S
H155 C197 0.932 . S
H156 C199 0.930 . S
H157 C200 0.929 . S
H158 C202 0.931 . S
H159 C203 0.930 . S
H160 C205 0.929 . S
H161 C206 0.931 . S
H162 C208 0.930 . S
H163 C209 0.929 . S
O164 H138 0.856 . S
O164 C210 1.300 . S
O165 C210 1.209 . S
O166 C211 1.199 . S
O167 H139 0.854 . S
O167 C211 1.297 . S
C168 C169 1.404 . S
C168 C173 1.397 . S
C168 C174 1.492 . S
C169 C168 1.404 . S
C169 C170 1.396 . S
C169 C180 1.492 . S
C170 C169 1.396 . S
C170 C171 1.397 . S
C170 C186 1.509 . S
C171 C170 1.397 . S
C171 C172 1.412 . S
C171 C192 1.485 . S
C172 C171 1.412 . S
C172 C173 1.388 . S
C172 C198 1.490 . S
C173 C168 1.397 . S
C173 C172 1.388 . S
C173 C204 1.519 . S
C174 C168 1.492 . S
C174 C175 1.363 . S
C174 C179 1.390 . S
C175 H140 0.930 . S
C175 C174 1.363 . S
C175 C176 1.372 . S
C176 H141 0.930 . S
C176 C175 1.372 . S
C176 C177 1.383 . S
C177 C176 1.383 . S
C177 C178 1.395 . S
C178 H142 0.930 . S
C178 C177 1.395 . S
C178 C179 1.362 . S
C179 H143 0.930 . S
C179 C174 1.390 . S
C179 C178 1.362 . S
C180 C169 1.492 . S
C180 C181 1.377 . S
C180 C185 1.397 . S
C181 H144 0.931 . S
C181 C180 1.377 . S
C181 C182 1.376 . S
C182 H145 0.930 . S
C182 C181 1.376 . S
C182 C183 1.376 . S
C183 C182 1.376 . S
C183 C184 1.378 . S
C183 C210 1.486 . S
C184 H146 0.930 . S
C184 C183 1.378 . S
C184 C185 1.376 . S
C185 H147 0.929 . S
C185 C180 1.397 . S
C185 C184 1.376 . S
C186 C170 1.509 . S
C186 C187 1.391 . S
C186 C191 1.386 . S
C187 H148 0.930 . S
C187 C186 1.391 . S
C187 C188 1.375 . S
C188 H149 0.931 . S
C188 C187 1.375 . S
C188 C189 1.375 . S
C189 C188 1.375 . S
C189 C190 1.361 . S
C190 H150 0.930 . S
C190 C189 1.361 . S
C190 C191 1.399 . S
C191 H151 0.929 . S
C191 C186 1.386 . S
C191 C190 1.399 . S
C192 C171 1.485 . S
C192 C193 1.394 . S
C192 C197 1.360 . S
C193 H152 0.931 . S
C193 C192 1.394 . S
C193 C194 1.372 . S
C194 H153 0.930 . S
C194 C193 1.372 . S
C194 C195 1.397 . S
C195 C194 1.397 . S
C195 C196 1.390 . S
C195 C211 1.476 . S
C196 H154 0.930 . S
C196 C195 1.390 . S
C196 C197 1.366 . S
C197 H155 0.932 . S
C197 C192 1.360 . S
C197 C196 1.366 . S
C198 C172 1.490 . S
C198 C199 1.380 . S
C198 C203 1.386 . S
C199 H156 0.930 . S
C199 C198 1.380 . S
C199 C200 1.381 . S
C200 H157 0.929 . S
C200 C199 1.381 . S
C200 C201 1.371 . S
C201 C200 1.371 . S
C201 C202 1.380 . S
C202 H158 0.931 . S
C202 C201 1.380 . S
C202 C203 1.387 . S
C203 H159 0.930 . S
C203 C198 1.386 . S
C203 C202 1.387 . S
C204 C173 1.519 . S
C204 C205 1.377 . S
C204 C209 1.361 . S
C205 H160 0.929 . S
C205 C204 1.377 . S
C205 C206 1.386 . S
C206 H161 0.931 . S
C206 C205 1.386 . S
C206 C207 1.363 . S
C207 C206 1.363 . S
C207 C208 1.385 . S
C208 H162 0.930 . S
C208 C207 1.385 . S
C208 C209 1.396 . S
C209 H163 0.929 . S
C209 C204 1.361 . S
C209 C208 1.396 . S
C210 O164 1.300 . S
C210 O165 1.209 . S
C210 C183 1.486 . S
C211 O166 1.199 . S
C211 O167 1.297 . S
C211 C195 1.476 . S
H212 O238 0.856 . S
H213 O241 0.854 . S
H214 C249 0.930 . S
H215 C250 0.930 . S
H216 C252 0.930 . S
H217 C253 0.930 . S
H218 C255 0.931 . S
H219 C256 0.930 . S
H220 C258 0.930 . S
H221 C259 0.929 . S
H222 C261 0.930 . S
H223 C262 0.931 . S
H224 C264 0.930 . S
H225 C265 0.929 . S
H226 C267 0.931 . S
H227 C268 0.930 . S
H228 C270 0.930 . S
H229 C271 0.932 . S
H230 C273 0.930 . S
H231 C274 0.929 . S
H232 C276 0.931 . S
H233 C277 0.930 . S
H234 C279 0.929 . S
H235 C280 0.931 . S
H236 C282 0.930 . S
H237 C283 0.929 . S
O238 H212 0.856 . S
O238 C284 1.300 . S
O239 C284 1.209 . S
O240 C285 1.199 . S
O241 H213 0.854 . S
O241 C285 1.297 . S
C242 C243 1.404 . S
C242 C247 1.397 . S
C242 C248 1.492 . S
C243 C242 1.404 . S
C243 C244 1.396 . S
C243 C254 1.492 . S
C244 C243 1.396 . S
C244 C245 1.397 . S
C244 C260 1.509 . S
C245 C244 1.397 . S
C245 C246 1.412 . S
C245 C266 1.485 . S
C246 C245 1.412 . S
C246 C247 1.388 . S
C246 C272 1.490 . S
C247 C242 1.397 . S
C247 C246 1.388 . S
C247 C278 1.519 . S
C248 C242 1.492 . S
C248 C249 1.363 . S
C248 C253 1.390 . S
C249 H214 0.930 . S
C249 C248 1.363 . S
C249 C250 1.372 . S
C250 H215 0.930 . S
C250 C249 1.372 . S
C250 C251 1.383 . S
C251 C250 1.383 . S
C251 C252 1.395 . S
C252 H216 0.930 . S
C252 C251 1.395 . S
C252 C253 1.362 . S
C253 H217 0.930 . S
C253 C248 1.390 . S
C253 C252 1.362 . S
C254 C243 1.492 . S
C254 C255 1.377 . S
C254 C259 1.397 . S
C255 H218 0.931 . S
C255 C254 1.377 . S
C255 C256 1.376 . S
C256 H219 0.930 . S
C256 C255 1.376 . S
C256 C257 1.376 . S
C257 C256 1.376 . S
C257 C258 1.378 . S
C257 C284 1.486 . S
C258 H220 0.930 . S
C258 C257 1.378 . S
C258 C259 1.376 . S
C259 H221 0.929 . S
C259 C254 1.397 . S
C259 C258 1.376 . S
C260 C244 1.509 . S
C260 C261 1.391 . S
C260 C265 1.386 . S
C261 H222 0.930 . S
C261 C260 1.391 . S
C261 C262 1.375 . S
C262 H223 0.931 . S
C262 C261 1.375 . S
C262 C263 1.375 . S
C263 C262 1.375 . S
C263 C264 1.361 . S
C264 H224 0.930 . S
C264 C263 1.361 . S
C264 C265 1.399 . S
C265 H225 0.929 . S
C265 C260 1.386 . S
C265 C264 1.399 . S
C266 C245 1.485 . S
C266 C267 1.394 . S
C266 C271 1.360 . S
C267 H226 0.931 . S
C267 C266 1.394 . S
C267 C268 1.372 . S
C268 H227 0.930 . S
C268 C267 1.372 . S
C268 C269 1.397 . S
C269 C268 1.397 . S
C269 C270 1.390 . S
C269 C285 1.476 . S
C270 H228 0.930 . S
C270 C269 1.390 . S
C270 C271 1.366 . S
C271 H229 0.932 . S
C271 C266 1.360 . S
C271 C270 1.366 . S
C272 C246 1.490 . S
C272 C273 1.380 . S
C272 C277 1.386 . S
C273 H230 0.930 . S
C273 C272 1.380 . S
C273 C274 1.381 . S
C274 H231 0.929 . S
C274 C273 1.381 . S
C274 C275 1.371 . S
C275 C274 1.371 . S
C275 C276 1.380 . S
C276 H232 0.931 . S
C276 C275 1.380 . S
C276 C277 1.387 . S
C277 H233 0.930 . S
C277 C272 1.386 . S
C277 C276 1.387 . S
C278 C247 1.519 . S
C278 C279 1.377 . S
C278 C283 1.361 . S
C279 H234 0.929 . S
C279 C278 1.377 . S
C279 C280 1.386 . S
C280 H235 0.931 . S
C280 C279 1.386 . S
C280 C281 1.363 . S
C281 C280 1.363 . S
C281 C282 1.385 . S
C282 H236 0.930 . S
C282 C281 1.385 . S
C282 C283 1.396 . S
C283 H237 0.929 . S
C283 C278 1.361 . S
C283 C282 1.396 . S
C284 O238 1.300 . S
C284 O239 1.209 . S
C284 C257 1.486 . S
C285 O240 1.199 . S
C285 O241 1.297 . S
C285 C269 1.476 . S
H286 O312 0.856 . S
H287 O315 0.854 . S
H288 C323 0.930 . S
H289 C324 0.930 . S
H290 C326 0.930 . S
H291 C327 0.930 . S
H292 C329 0.931 . S
H293 C330 0.930 . S
H294 C332 0.930 . S
H295 C333 0.929 . S
H296 C335 0.930 . S
H297 C336 0.931 . S
H298 C338 0.930 . S
H299 C339 0.929 . S
H300 C341 0.931 . S
H301 C342 0.930 . S
H302 C344 0.930 . S
H303 C345 0.932 . S
H304 C347 0.930 . S
H305 C348 0.929 . S
H306 C350 0.931 . S
H307 C351 0.930 . S
H308 C353 0.929 . S
H309 C354 0.931 . S
H310 C356 0.930 . S
H311 C357 0.929 . S
O312 H286 0.856 . S
O312 C358 1.300 . S
O313 C358 1.209 . S
O314 C359 1.199 . S
O315 H287 0.854 . S
O315 C359 1.297 . S
C316 C317 1.404 . S
C316 C321 1.397 . S
C316 C322 1.492 . S
C317 C316 1.404 . S
C317 C318 1.396 . S
C317 C328 1.492 . S
C318 C317 1.396 . S
C318 C319 1.397 . S
C318 C334 1.509 . S
C319 C318 1.397 . S
C319 C320 1.412 . S
C319 C340 1.485 . S
C320 C319 1.412 . S
C320 C321 1.388 . S
C320 C346 1.490 . S
C321 C316 1.397 . S
C321 C320 1.388 . S
C321 C352 1.519 . S
C322 C316 1.492 . S
C322 C323 1.363 . S
C322 C327 1.390 . S
C323 H288 0.930 . S
C323 C322 1.363 . S
C323 C324 1.372 . S
C324 H289 0.930 . S
C324 C323 1.372 . S
C324 C325 1.383 . S
C325 C324 1.383 . S
C325 C326 1.395 . S
C326 H290 0.930 . S
C326 C325 1.395 . S
C326 C327 1.362 . S
C327 H291 0.930 . S
C327 C322 1.390 . S
C327 C326 1.362 . S
C328 C317 1.492 . S
C328 C329 1.377 . S
C328 C333 1.397 . S
C329 H292 0.931 . S
C329 C328 1.377 . S
C329 C330 1.376 . S
C330 H293 0.930 . S
C330 C329 1.376 . S
C330 C331 1.376 . S
C331 C330 1.376 . S
C331 C332 1.378 . S
C331 C358 1.486 . S
C332 H294 0.930 . S
C332 C331 1.378 . S
C332 C333 1.376 . S
C333 H295 0.929 . S
C333 C328 1.397 . S
C333 C332 1.376 . S
C334 C318 1.509 . S
C334 C335 1.391 . S
C334 C339 1.386 . S
C335 H296 0.930 . S
C335 C334 1.391 . S
C335 C336 1.375 . S
C336 H297 0.931 . S
C336 C335 1.375 . S
C336 C337 1.375 . S
C337 C336 1.375 . S
C337 C338 1.361 . S
C338 H298 0.930 . S
C338 C337 1.361 . S
C338 C339 1.399 . S
C339 H299 0.929 . S
C339 C334 1.386 . S
C339 C338 1.399 . S
C340 C319 1.485 . S
C340 C341 1.394 . S
C340 C345 1.360 . S
C341 H300 0.931 . S
C341 C340 1.394 . S
C341 C342 1.372 . S
C342 H301 0.930 . S
C342 C341 1.372 . S
C342 C343 1.397 . S
C343 C342 1.397 . S
C343 C344 1.390 . S
C343 C359 1.476 . S
C344 H302 0.930 . S
C344 C343 1.390 . S
C344 C345 1.366 . S
C345 H303 0.932 . S
C345 C340 1.360 . S
C345 C344 1.366 . S
C346 C320 1.490 . S
C346 C347 1.380 . S
C346 C351 1.386 . S
C347 H304 0.930 . S
C347 C346 1.380 . S
C347 C348 1.381 . S
C348 H305 0.929 . S
C348 C347 1.381 . S
C348 C349 1.371 . S
C349 C348 1.371 . S
C349 C350 1.380 . S
C350 H306 0.931 . S
C350 C349 1.380 . S
C350 C351 1.387 . S
C351 H307 0.930 . S
C351 C346 1.386 . S
C351 C350 1.387 . S
C352 C321 1.519 . S
C352 C353 1.377 . S
C352 C357 1.361 . S
C353 H308 0.929 . S
C353 C352 1.377 . S
C353 C354 1.386 . S
C354 H309 0.931 . S
C354 C353 1.386 . S
C354 C355 1.363 . S
C355 C354 1.363 . S
C355 C356 1.385 . S
C356 H310 0.930 . S
C356 C355 1.385 . S
C356 C357 1.396 . S
C357 H311 0.929 . S
C357 C352 1.361 . S
C357 C356 1.396 . S
C358 O312 1.300 . S
C358 O313 1.209 . S
C358 C331 1.486 . S
C359 O314 1.199 . S
C359 O315 1.297 . S
C359 C343 1.476 . S
H360 O386 0.856 . S
H361 O389 0.854 . S
H362 C397 0.930 . S
H363 C398 0.930 . S
H364 C400 0.930 . S
H365 C401 0.930 . S
H366 C403 0.931 . S
H367 C404 0.930 . S
H368 C406 0.930 . S
H369 C407 0.929 . S
H370 C409 0.930 . S
H371 C410 0.931 . S
H372 C412 0.930 . S
H373 C413 0.929 . S
H374 C415 0.931 . S
H375 C416 0.930 1_455 S
H376 C418 0.930 . S
H377 C419 0.932 . S
H378 C421 0.930 . S
H379 C422 0.929 . S
H380 C424 0.931 . S
H381 C425 0.930 . S
H382 C427 0.929 . S
H383 C428 0.931 . S
H384 C430 0.930 . S
H385 C431 0.929 . S
O386 H360 0.856 . S
O386 C432 1.300 . S
O387 C432 1.209 . S
O388 C433 1.199 . S
O389 H361 0.854 . S
O389 C433 1.297 . S
C390 C391 1.404 . S
C390 C395 1.397 . S
C390 C396 1.492 . S
C391 C390 1.404 . S
C391 C392 1.396 . S
C391 C402 1.492 . S
C392 C391 1.396 . S
C392 C393 1.397 . S
C392 C408 1.509 . S
C393 C392 1.397 . S
C393 C394 1.412 . S
C393 C414 1.485 . S
C394 C393 1.412 . S
C394 C395 1.388 . S
C394 C420 1.490 . S
C395 C390 1.397 . S
C395 C394 1.388 . S
C395 C426 1.519 . S
C396 C390 1.492 . S
C396 C397 1.363 . S
C396 C401 1.390 . S
C397 H362 0.930 . S
C397 C396 1.363 . S
C397 C398 1.372 . S
C398 H363 0.930 . S
C398 C397 1.372 . S
C398 C399 1.383 . S
C399 C398 1.383 . S
C399 C400 1.395 . S
C400 H364 0.930 . S
C400 C399 1.395 . S
C400 C401 1.362 . S
C401 H365 0.930 . S
C401 C396 1.390 . S
C401 C400 1.362 . S
C402 C391 1.492 . S
C402 C403 1.377 . S
C402 C407 1.397 . S
C403 H366 0.931 . S
C403 C402 1.377 . S
C403 C404 1.376 . S
C404 H367 0.930 . S
C404 C403 1.376 . S
C404 C405 1.376 . S
C405 C404 1.376 . S
C405 C406 1.378 . S
C405 C432 1.486 . S
C406 H368 0.930 . S
C406 C405 1.378 . S
C406 C407 1.376 . S
C407 H369 0.929 . S
C407 C402 1.397 . S
C407 C406 1.376 . S
C408 C392 1.509 . S
C408 C409 1.391 . S
C408 C413 1.386 . S
C409 H370 0.930 . S
C409 C408 1.391 . S
C409 C410 1.375 . S
C410 H371 0.931 . S
C410 C409 1.375 . S
C410 C411 1.375 . S
C411 C410 1.375 . S
C411 C412 1.361 . S
C412 H372 0.930 . S
C412 C411 1.361 . S
C412 C413 1.399 . S
C413 H373 0.929 . S
C413 C408 1.386 . S
C413 C412 1.399 . S
C414 C393 1.485 . S
C414 C415 1.394 . S
C414 C419 1.360 . S
C415 H374 0.931 . S
C415 C414 1.394 . S
C415 C416 1.372 . S
C416 H375 0.930 1_655 S
C416 C415 1.372 . S
C416 C417 1.397 . S
C417 C416 1.397 . S
C417 C418 1.390 . S
C417 C433 1.476 1_655 S
C418 H376 0.930 . S
C418 C417 1.390 . S
C418 C419 1.366 . S
C419 H377 0.932 . S
C419 C414 1.360 . S
C419 C418 1.366 . S
C420 C394 1.490 . S
C420 C421 1.380 . S
C420 C425 1.386 . S
C421 H378 0.930 . S
C421 C420 1.380 . S
C421 C422 1.381 . S
C422 H379 0.929 . S
C422 C421 1.381 . S
C422 C423 1.371 . S
C423 C422 1.371 . S
C423 C424 1.380 . S
C424 H380 0.931 . S
C424 C423 1.380 . S
C424 C425 1.387 . S
C425 H381 0.930 . S
C425 C420 1.386 . S
C425 C424 1.387 . S
C426 C395 1.519 . S
C426 C427 1.377 . S
C426 C431 1.361 . S
C427 H382 0.929 . S
C427 C426 1.377 . S
C427 C428 1.386 . S
C428 H383 0.931 . S
C428 C427 1.386 . S
C428 C429 1.363 . S
C429 C428 1.363 . S
C429 C430 1.385 . S
C430 H384 0.930 . S
C430 C429 1.385 . S
C430 C431 1.396 . S
C431 H385 0.929 . S
C431 C426 1.361 . S
C431 C430 1.396 . S
C432 O386 1.300 . S
C432 O387 1.209 . S
C432 C405 1.486 . S
C433 O388 1.199 . S
C433 O389 1.297 . S
C433 C417 1.476 1_455 S
H434 O460 0.856 . S
H435 O463 0.854 . S
H436 C471 0.930 . S
H437 C472 0.930 . S
H438 C474 0.930 . S
H439 C475 0.930 . S
H440 C477 0.931 . S
H441 C478 0.930 . S
H442 C480 0.930 . S
H443 C481 0.929 . S
H444 C483 0.930 . S
H445 C484 0.931 . S
H446 C486 0.930 . S
H447 C487 0.929 . S
H448 C489 0.931 . S
H449 C490 0.930 . S
H450 C492 0.930 . S
H451 C493 0.932 . S
H452 C495 0.930 . S
H453 C496 0.929 . S
H454 C498 0.931 . S
H455 C499 0.930 . S
H456 C501 0.929 . S
H457 C502 0.931 . S
H458 C504 0.930 . S
H459 C505 0.929 . S
O460 H434 0.856 . S
O460 C506 1.300 . S
O461 C506 1.209 . S
O462 C507 1.199 . S
O463 H435 0.854 . S
O463 C507 1.297 . S
C464 C465 1.404 . S
C464 C469 1.397 . S
C464 C470 1.492 . S
C465 C464 1.404 . S
C465 C466 1.396 . S
C465 C476 1.492 . S
C466 C465 1.396 . S
C466 C467 1.397 . S
C466 C482 1.509 . S
C467 C466 1.397 . S
C467 C468 1.412 . S
C467 C488 1.485 . S
C468 C467 1.412 . S
C468 C469 1.388 . S
C468 C494 1.490 . S
C469 C464 1.397 . S
C469 C468 1.388 . S
C469 C500 1.519 . S
C470 C464 1.492 . S
C470 C471 1.363 . S
C470 C475 1.390 . S
C471 H436 0.930 . S
C471 C470 1.363 . S
C471 C472 1.372 . S
C472 H437 0.930 . S
C472 C471 1.372 . S
C472 C473 1.383 . S
C473 C472 1.383 . S
C473 C474 1.395 . S
C474 H438 0.930 . S
C474 C473 1.395 . S
C474 C475 1.362 . S
C475 H439 0.930 . S
C475 C470 1.390 . S
C475 C474 1.362 . S
C476 C465 1.492 . S
C476 C477 1.377 . S
C476 C481 1.397 . S
C477 H440 0.931 . S
C477 C476 1.377 . S
C477 C478 1.376 . S
C478 H441 0.930 . S
C478 C477 1.376 . S
C478 C479 1.376 . S
C479 C478 1.376 . S
C479 C480 1.378 . S
C479 C506 1.486 . S
C480 H442 0.930 . S
C480 C479 1.378 . S
C480 C481 1.376 . S
C481 H443 0.929 . S
C481 C476 1.397 . S
C481 C480 1.376 . S
C482 C466 1.509 . S
C482 C483 1.391 . S
C482 C487 1.386 . S
C483 H444 0.930 . S
C483 C482 1.391 . S
C483 C484 1.375 . S
C484 H445 0.931 . S
C484 C483 1.375 . S
C484 C485 1.375 . S
C485 C484 1.375 . S
C485 C486 1.361 . S
C486 H446 0.930 . S
C486 C485 1.361 . S
C486 C487 1.399 . S
C487 H447 0.929 . S
C487 C482 1.386 . S
C487 C486 1.399 . S
C488 C467 1.485 . S
C488 C489 1.394 . S
C488 C493 1.360 . S
C489 H448 0.931 . S
C489 C488 1.394 . S
C489 C490 1.372 . S
C490 H449 0.930 . S
C490 C489 1.372 . S
C490 C491 1.397 . S
C491 C490 1.397 . S
C491 C492 1.390 . S
C491 C507 1.476 . S
C492 H450 0.930 . S
C492 C491 1.390 . S
C492 C493 1.366 . S
C493 H451 0.932 . S
C493 C488 1.360 . S
C493 C492 1.366 . S
C494 C468 1.490 . S
C494 C495 1.380 . S
C494 C499 1.386 . S
C495 H452 0.930 . S
C495 C494 1.380 . S
C495 C496 1.381 . S
C496 H453 0.929 . S
C496 C495 1.381 . S
C496 C497 1.371 . S
C497 C496 1.371 . S
C497 C498 1.380 . S
C498 H454 0.931 . S
C498 C497 1.380 . S
C498 C499 1.387 . S
C499 H455 0.930 . S
C499 C494 1.386 . S
C499 C498 1.387 . S
C500 C469 1.519 . S
C500 C501 1.377 . S
C500 C505 1.361 . S
C501 H456 0.929 . S
C501 C500 1.377 . S
C501 C502 1.386 . S
C502 H457 0.931 . S
C502 C501 1.386 . S
C502 C503 1.363 . S
C503 C502 1.363 . S
C503 C504 1.385 . S
C504 H458 0.930 . S
C504 C503 1.385 . S
C504 C505 1.396 . S
C505 H459 0.929 . S
C505 C500 1.361 . S
C505 C504 1.396 . S
C506 O460 1.300 . S
C506 O461 1.209 . S
C506 C479 1.486 . S
C507 O462 1.199 . S
C507 O463 1.297 . S
C507 C491 1.476 . S
H508 O534 0.856 . S
H509 O537 0.854 . S
H510 C545 0.930 . S
H511 C546 0.930 . S
H512 C548 0.930 . S
H513 C549 0.930 . S
H514 C551 0.931 . S
H515 C552 0.930 . S
H516 C554 0.930 . S
H517 C555 0.929 . S
H518 C557 0.930 . S
H519 C558 0.931 . S
H520 C560 0.930 . S
H521 C561 0.929 . S
H522 C563 0.931 . S
H523 C564 0.930 . S
H524 C566 0.930 . S
H525 C567 0.932 . S
H526 C569 0.930 . S
H527 C570 0.929 . S
H528 C572 0.931 . S
H529 C573 0.930 . S
H530 C575 0.929 . S
H531 C576 0.931 . S
H532 C578 0.930 . S
H533 C579 0.929 . S
O534 H508 0.856 . S
O534 C580 1.300 . S
O535 C580 1.209 . S
O536 C581 1.199 . S
O537 H509 0.854 . S
O537 C581 1.297 . S
C538 C539 1.404 . S
C538 C543 1.397 . S
C538 C544 1.492 . S
C539 C538 1.404 . S
C539 C540 1.396 . S
C539 C550 1.492 . S
C540 C539 1.396 . S
C540 C541 1.397 . S
C540 C556 1.509 . S
C541 C540 1.397 . S
C541 C542 1.412 . S
C541 C562 1.485 . S
C542 C541 1.412 . S
C542 C543 1.388 . S
C542 C568 1.490 . S
C543 C538 1.397 . S
C543 C542 1.388 . S
C543 C574 1.519 . S
C544 C538 1.492 . S
C544 C545 1.363 . S
C544 C549 1.390 . S
C545 H510 0.930 . S
C545 C544 1.363 . S
C545 C546 1.372 . S
C546 H511 0.930 . S
C546 C545 1.372 . S
C546 C547 1.383 . S
C547 C546 1.383 . S
C547 C548 1.395 . S
C548 H512 0.930 . S
C548 C547 1.395 . S
C548 C549 1.362 . S
C549 H513 0.930 . S
C549 C544 1.390 . S
C549 C548 1.362 . S
C550 C539 1.492 . S
C550 C551 1.377 . S
C550 C555 1.397 . S
C551 H514 0.931 . S
C551 C550 1.377 . S
C551 C552 1.376 . S
C552 H515 0.930 . S
C552 C551 1.376 . S
C552 C553 1.376 . S
C553 C552 1.376 . S
C553 C554 1.378 . S
C553 C580 1.486 . S
C554 H516 0.930 . S
C554 C553 1.378 . S
C554 C555 1.376 . S
C555 H517 0.929 . S
C555 C550 1.397 . S
C555 C554 1.376 . S
C556 C540 1.509 . S
C556 C557 1.391 . S
C556 C561 1.386 . S
C557 H518 0.930 . S
C557 C556 1.391 . S
C557 C558 1.375 . S
C558 H519 0.931 . S
C558 C557 1.375 . S
C558 C559 1.375 . S
C559 C558 1.375 . S
C559 C560 1.361 . S
C560 H520 0.930 . S
C560 C559 1.361 . S
C560 C561 1.399 . S
C561 H521 0.929 . S
C561 C556 1.386 . S
C561 C560 1.399 . S
C562 C541 1.485 . S
C562 C563 1.394 . S
C562 C567 1.360 . S
C563 H522 0.931 . S
C563 C562 1.394 . S
C563 C564 1.372 . S
C564 H523 0.930 . S
C564 C563 1.372 . S
C564 C565 1.397 . S
C565 C564 1.397 . S
C565 C566 1.390 . S
C565 C581 1.476 . S
C566 H524 0.930 . S
C566 C565 1.390 . S
C566 C567 1.366 . S
C567 H525 0.932 . S
C567 C562 1.360 . S
C567 C566 1.366 . S
C568 C542 1.490 . S
C568 C569 1.380 . S
C568 C573 1.386 . S
C569 H526 0.930 . S
C569 C568 1.380 . S
C569 C570 1.381 . S
C570 H527 0.929 . S
C570 C569 1.381 . S
C570 C571 1.371 . S
C571 C570 1.371 . S
C571 C572 1.380 . S
C572 H528 0.931 . S
C572 C571 1.380 . S
C572 C573 1.387 . S
C573 H529 0.930 . S
C573 C568 1.386 . S
C573 C572 1.387 . S
C574 C543 1.519 . S
C574 C575 1.377 . S
C574 C579 1.361 . S
C575 H530 0.929 . S
C575 C574 1.377 . S
C575 C576 1.386 . S
C576 H531 0.931 . S
C576 C575 1.386 . S
C576 C577 1.363 . S
C577 C576 1.363 . S
C577 C578 1.385 . S
C578 H532 0.930 . S
C578 C577 1.385 . S
C578 C579 1.396 . S
C579 H533 0.929 . S
C579 C574 1.361 . S
C579 C578 1.396 . S
C580 O534 1.300 . S
C580 O535 1.209 . S
C580 C553 1.486 . S
C581 O536 1.199 . S
C581 O537 1.297 . S
C581 C565 1.476 . S
H582 C600 0.951 . S
H583 C602 0.951 . S
H584 C604 0.950 . S
H585 C605 0.950 . S
H586 C607 0.950 . S
H587 C610 0.950 . S
H588 C611 0.950 . S
H589 C613 0.950 . S
H590 C614 0.950 . S
H591 C615 0.951 . S
H592 C617 0.951 . S
H593 C619 0.950 . S
H594 C620 0.950 . S
H595 C622 0.950 . S
H596 C625 0.950 . S
H597 C626 0.950 . S
H598 C628 0.950 . S
H599 C629 0.950 . S
C600 H582 0.951 . S
C600 C601 1.366 . S
C600 C602 1.388 . S
C601 C600 1.366 . S
C601 C605 1.385 . S
C602 H583 0.951 . S
C602 C600 1.388 . S
C602 C603 1.366 . S
C603 C602 1.366 . S
C603 C604 1.414 . S
C603 C606 1.499 . S
C604 H584 0.950 . S
C604 C603 1.414 . S
C604 C605 1.374 . S
C605 H585 0.950 . S
C605 C601 1.385 . S
C605 C604 1.374 . S
C606 C603 1.499 . S
C606 C607 1.373 . S
C606 C608 1.389 . S
C607 H586 0.950 . S
C607 C606 1.373 . S
C607 C623 1.377 . S
C608 C606 1.389 . S
C608 C609 1.524 . S
C608 C622 1.377 . S
C609 C608 1.524 . S
C609 C610 1.397 . S
C609 C614 1.363 . S
C610 H587 0.950 . S
C610 C609 1.397 . S
C610 C611 1.334 . S
C611 H588 0.950 . S
C611 C610 1.334 . S
C611 C612 1.287 . S
C612 C611 1.287 . S
C612 C613 1.524 . S
C612 H631 0.913 . S
C613 H589 0.950 . S
C613 C612 1.524 . S
C613 C614 1.415 . S
C614 H590 0.950 . S
C614 C609 1.363 . S
C614 C613 1.415 . S
C615 H591 0.951 . S
C615 C616 1.366 . S
C615 C617 1.388 . S
C616 C615 1.366 . S
C616 C620 1.385 . S
C617 H592 0.951 . S
C617 C615 1.388 . S
C617 C618 1.366 . S
C618 C617 1.366 . S
C618 C619 1.414 . S
C618 C621 1.499 . S
C619 H593 0.950 . S
C619 C618 1.414 . S
C619 C620 1.374 . S
C620 H594 0.950 . S
C620 C616 1.385 . S
C620 C619 1.374 . S
C621 C618 1.499 . S
C621 C622 1.373 . S
C621 C623 1.389 . S
C622 H595 0.950 . S
C622 C608 1.377 . S
C622 C621 1.373 . S
C623 C607 1.377 . S
C623 C621 1.389 . S
C623 C624 1.524 . S
C624 C623 1.524 . S
C624 C625 1.397 . S
C624 C629 1.363 . S
C625 H596 0.950 . S
C625 C624 1.397 . S
C625 C626 1.334 . S
C626 H597 0.950 . S
C626 C625 1.334 . S
C626 C627 1.287 . S
C627 C626 1.287 . S
C627 C628 1.524 . S
C627 H630 0.999 . S
C628 H598 0.950 . S
C628 C627 1.524 . S
C628 C629 1.415 . S
C629 H599 0.950 . S
C629 C624 1.363 . S
C629 C628 1.415 . S
H630 C627 0.999 . S
H631 C612 0.913 . S
H632 C650 0.951 . S
H633 C652 0.951 . S
H634 C654 0.950 . S
H635 C655 0.950 . S
H636 C657 0.950 . S
H637 C660 0.950 . S
H638 C661 0.950 . S
H639 C663 0.950 . S
H640 C664 0.950 . S
H641 C665 0.951 . S
H642 C667 0.951 . S
H643 C669 0.950 . S
H644 C670 0.950 . S
H645 C672 0.950 . S
H646 C675 0.950 . S
H647 C676 0.950 . S
H648 C678 0.950 . S
H649 C679 0.950 . S
C650 H632 0.951 . S
C650 C651 1.366 . S
C650 C652 1.388 . S
C651 C650 1.366 . S
C651 C655 1.385 . S
C652 H633 0.951 . S
C652 C650 1.388 . S
C652 C653 1.366 . S
C653 C652 1.366 . S
C653 C654 1.414 . S
C653 C656 1.499 . S
C654 H634 0.950 . S
C654 C653 1.414 . S
C654 C655 1.374 . S
C655 H635 0.950 . S
C655 C651 1.385 . S
C655 C654 1.374 . S
C656 C653 1.499 . S
C656 C657 1.373 . S
C656 C658 1.389 . S
C657 H636 0.950 . S
C657 C656 1.373 . S
C657 C673 1.377 . S
C658 C656 1.389 . S
C658 C659 1.524 . S
C658 C672 1.377 . S
C659 C658 1.524 . S
C659 C660 1.397 . S
C659 C664 1.363 . S
C660 H637 0.950 . S
C660 C659 1.397 . S
C660 C661 1.334 . S
C661 H638 0.950 . S
C661 C660 1.334 . S
C661 C662 1.287 . S
C662 C661 1.287 . S
C662 C663 1.524 . S
C662 H681 0.913 . S
C663 H639 0.950 . S
C663 C662 1.524 . S
C663 C664 1.415 . S
C664 H640 0.950 . S
C664 C659 1.363 . S
C664 C663 1.415 . S
C665 H641 0.951 . S
C665 C666 1.366 . S
C665 C667 1.388 . S
C666 C665 1.366 . S
C666 C670 1.385 . S
C667 H642 0.951 . S
C667 C665 1.388 . S
C667 C668 1.366 . S
C668 C667 1.366 . S
C668 C669 1.414 . S
C668 C671 1.499 . S
C669 H643 0.950 . S
C669 C668 1.414 . S
C669 C670 1.374 . S
C670 H644 0.950 . S
C670 C666 1.385 . S
C670 C669 1.374 . S
C671 C668 1.499 . S
C671 C672 1.373 . S
C671 C673 1.389 . S
C672 H645 0.950 . S
C672 C658 1.377 . S
C672 C671 1.373 . S
C673 C657 1.377 . S
C673 C671 1.389 . S
C673 C674 1.524 . S
C674 C673 1.524 . S
C674 C675 1.397 . S
C674 C679 1.363 . S
C675 H646 0.950 . S
C675 C674 1.397 . S
C675 C676 1.334 . S
C676 H647 0.950 . S
C676 C675 1.334 . S
C676 C677 1.287 . S
C677 C676 1.287 . S
C677 C678 1.524 . S
C677 H680 0.999 . S
C678 H648 0.950 . S
C678 C677 1.524 . S
C678 C679 1.415 . S
C679 H649 0.950 . S
C679 C674 1.363 . S
C679 C678 1.415 . S
H680 C677 0.999 . S
H681 C662 0.913 . S
H682 C700 0.951 . S
H683 C702 0.951 . S
H684 C704 0.950 . S
H685 C705 0.950 . S
H686 C707 0.950 . S
H687 C710 0.950 . S
H688 C711 0.950 . S
H689 C713 0.950 . S
H690 C714 0.950 . S
H691 C715 0.951 . S
H692 C717 0.951 . S
H693 C719 0.950 . S
H694 C720 0.950 . S
H695 C722 0.950 . S
H696 C725 0.950 . S
H697 C726 0.950 . S
H698 C728 0.950 . S
H699 C729 0.950 . S
C700 H682 0.951 . S
C700 C701 1.366 . S
C700 C702 1.388 . S
C701 C700 1.366 . S
C701 C705 1.385 . S
C702 H683 0.951 . S
C702 C700 1.388 . S
C702 C703 1.366 . S
C703 C702 1.366 . S
C703 C704 1.414 . S
C703 C706 1.499 . S
C704 H684 0.950 . S
C704 C703 1.414 . S
C704 C705 1.374 . S
C705 H685 0.950 . S
C705 C701 1.385 . S
C705 C704 1.374 . S
C706 C703 1.499 . S
C706 C707 1.373 . S
C706 C708 1.389 . S
C707 H686 0.950 . S
C707 C706 1.373 . S
C707 C723 1.377 . S
C708 C706 1.389 . S
C708 C709 1.524 . S
C708 C722 1.377 . S
C709 C708 1.524 . S
C709 C710 1.397 . S
C709 C714 1.363 . S
C710 H687 0.950 . S
C710 C709 1.397 . S
C710 C711 1.334 . S
C711 H688 0.950 . S
C711 C710 1.334 . S
C711 C712 1.287 . S
C712 C711 1.287 . S
C712 C713 1.524 . S
C712 H731 0.913 . S
C713 H689 0.950 . S
C713 C712 1.524 . S
C713 C714 1.415 . S
C714 H690 0.950 . S
C714 C709 1.363 . S
C714 C713 1.415 . S
C715 H691 0.951 . S
C715 C716 1.366 . S
C715 C717 1.388 . S
C716 C715 1.366 . S
C716 C720 1.385 . S
C717 H692 0.951 . S
C717 C715 1.388 . S
C717 C718 1.366 . S
C718 C717 1.366 . S
C718 C719 1.414 . S
C718 C721 1.499 . S
C719 H693 0.950 . S
C719 C718 1.414 . S
C719 C720 1.374 . S
C720 H694 0.950 . S
C720 C716 1.385 . S
C720 C719 1.374 . S
C721 C718 1.499 . S
C721 C722 1.373 . S
C721 C723 1.389 . S
C722 H695 0.950 . S
C722 C708 1.377 . S
C722 C721 1.373 . S
C723 C707 1.377 . S
C723 C721 1.389 . S
C723 C724 1.524 . S
C724 C723 1.524 . S
C724 C725 1.397 . S
C724 C729 1.363 . S
C725 H696 0.950 . S
C725 C724 1.397 . S
C725 C726 1.334 . S
C726 H697 0.950 . S
C726 C725 1.334 . S
C726 C727 1.287 . S
C727 C726 1.287 . S
C727 C728 1.524 . S
C727 H730 0.999 . S
C728 H698 0.950 . S
C728 C727 1.524 . S
C728 C729 1.415 . S
C729 H699 0.950 . S
C729 C724 1.363 . S
C729 C728 1.415 . S
H730 C727 0.999 . S
H731 C712 0.913 . S
H732 C750 0.951 . S
H733 C752 0.951 . S
H734 C754 0.950 . S
H735 C755 0.950 . S
H736 C757 0.950 . S
H737 C760 0.950 . S
H738 C761 0.950 . S
H739 C763 0.950 . S
H740 C764 0.950 . S
H741 C765 0.951 . S
H742 C767 0.951 . S
H743 C769 0.950 . S
H744 C770 0.950 . S
H745 C772 0.950 . S
H746 C775 0.941 . S
H747 C776 0.950 . S
H748 C778 0.950 . S
H749 C779 0.950 . S
C750 H732 0.951 . S
C750 C751 1.366 . S
C750 C752 1.388 . S
C751 C750 1.366 . S
C751 C755 1.385 . S
C752 H733 0.951 . S
C752 C750 1.388 . S
C752 C753 1.366 . S
C753 C752 1.366 . S
C753 C754 1.414 . S
C753 C756 1.499 . S
C754 H734 0.950 . S
C754 C753 1.414 . S
C754 C755 1.374 . S
C755 H735 0.950 . S
C755 C751 1.385 . S
C755 C754 1.374 . S
C756 C753 1.499 . S
C756 C757 1.373 . S
C756 C758 1.389 . S
C757 H736 0.950 . S
C757 C756 1.373 . S
C757 C773 1.377 . S
C758 C756 1.389 . S
C758 C759 1.524 . S
C758 C772 1.377 . S
C759 C758 1.524 . S
C759 C760 1.397 . S
C759 C764 1.363 . S
C760 H737 0.950 . S
C760 C759 1.397 . S
C760 C761 1.334 . S
C761 H738 0.950 . S
C761 C760 1.334 . S
C761 C762 1.287 . S
C762 C761 1.287 . S
C762 C763 1.524 . S
C762 H781 0.913 . S
C763 H739 0.950 . S
C763 C762 1.524 . S
C763 C764 1.415 . S
C764 H740 0.950 . S
C764 C759 1.363 . S
C764 C763 1.415 . S
C765 H741 0.951 . S
C765 C766 1.366 . S
C765 C767 1.388 . S
C766 C765 1.366 . S
C766 C770 1.385 . S
C767 H742 0.951 . S
C767 C765 1.388 . S
C767 C768 1.366 . S
C768 C767 1.366 . S
C768 C769 1.414 . S
C768 C771 1.499 . S
C769 H743 0.950 . S
C769 C768 1.414 . S
C769 C770 1.374 . S
C770 H744 0.950 . S
C770 C766 1.385 . S
C770 C769 1.374 . S
C771 C768 1.499 . S
C771 C772 1.373 . S
C771 C773 1.389 . S
C772 H745 0.950 . S
C772 C758 1.377 . S
C772 C771 1.373 . S
C773 C757 1.377 . S
C773 C771 1.389 . S
C773 C774 1.524 . S
C774 C773 1.524 . S
C774 C775 1.397 1_655 S
C774 C779 1.363 . S
C775 H746 0.941 . S
C775 C774 1.397 1_455 S
C775 C776 1.334 . S
C776 H747 0.950 . S
C776 C775 1.334 . S
C776 C777 1.287 . S
C777 C776 1.287 . S
C777 C778 1.524 . S
C777 H780 0.999 . S
C778 H748 0.950 . S
C778 C777 1.524 . S
C778 C779 1.415 1_455 S
C779 H749 0.950 . S
C779 C774 1.363 . S
C779 C778 1.415 1_655 S
H780 C777 0.999 . S
H781 C762 0.913 . S
H782 C800 0.951 . S
H783 C802 0.951 . S
H784 C804 0.950 . S
H785 C805 0.950 . S
H786 C807 0.950 . S
H787 C810 0.950 . S
H788 C811 0.950 . S
H789 C813 0.950 . S
H790 C814 0.950 . S
H791 C815 0.951 . S
H792 C817 0.951 . S
H793 C819 0.950 . S
H794 C820 0.950 . S
H795 C822 0.950 . S
H796 C825 0.950 . S
H797 C826 0.950 . S
H798 C828 0.950 . S
H799 C829 0.950 . S
C800 H782 0.951 . S
C800 C801 1.366 . S
C800 C802 1.388 1_545 S
C801 C800 1.366 . S
C801 C805 1.385 1_545 S
C802 H783 0.951 . S
C802 C800 1.388 1_565 S
C802 C803 1.366 . S
C803 C802 1.366 . S
C803 C804 1.414 . S
C803 C806 1.499 . S
C804 H784 0.950 . S
C804 C803 1.414 . S
C804 C805 1.374 . S
C805 H785 0.950 . S
C805 C801 1.385 1_565 S
C805 C804 1.374 . S
C806 C803 1.499 . S
C806 C807 1.373 . S
C806 C808 1.389 . S
C807 H786 0.950 . S
C807 C806 1.373 . S
C807 C823 1.377 . S
C808 C806 1.389 . S
C808 C809 1.524 . S
C808 C822 1.377 . S
C809 C808 1.524 . S
C809 C810 1.397 . S
C809 C814 1.363 . S
C810 H787 0.950 . S
C810 C809 1.397 . S
C810 C811 1.334 . S
C811 H788 0.950 . S
C811 C810 1.334 . S
C811 C812 1.287 . S
C812 C811 1.287 . S
C812 C813 1.524 . S
C812 H831 0.913 . S
C813 H789 0.950 . S
C813 C812 1.524 . S
C813 C814 1.415 . S
C814 H790 0.950 . S
C814 C809 1.363 . S
C814 C813 1.415 . S
C815 H791 0.951 . S
C815 C816 1.366 . S
C815 C817 1.388 . S
C816 C815 1.366 . S
C816 C820 1.385 . S
C817 H792 0.951 . S
C817 C815 1.388 . S
C817 C818 1.366 . S
C818 C817 1.366 . S
C818 C819 1.414 . S
C818 C821 1.499 . S
C819 H793 0.950 . S
C819 C818 1.414 . S
C819 C820 1.374 . S
C820 H794 0.950 . S
C820 C816 1.385 . S
C820 C819 1.374 . S
C821 C818 1.499 . S
C821 C822 1.373 . S
C821 C823 1.389 . S
C822 H795 0.950 . S
C822 C808 1.377 . S
C822 C821 1.373 . S
C823 C807 1.377 . S
C823 C821 1.389 . S
C823 C824 1.524 . S
C824 C823 1.524 . S
C824 C825 1.397 . S
C824 C829 1.363 . S
C825 H796 0.950 . S
C825 C824 1.397 . S
C825 C826 1.334 . S
C826 H797 0.950 . S
C826 C825 1.334 . S
C826 C827 1.287 . S
C827 C826 1.287 . S
C827 C828 1.524 . S
C827 H830 0.999 . S
C828 H798 0.950 . S
C828 C827 1.524 . S
C828 C829 1.415 . S
C829 H799 0.950 . S
C829 C824 1.363 . S
C829 C828 1.415 . S
H830 C827 0.999 . S
H831 C812 0.913 . S
H832 C850 0.951 . S
H833 C852 0.951 . S
H834 C854 0.950 . S
H835 C855 0.950 . S
H836 C857 0.950 . S
H837 C860 0.950 . S
H838 C861 0.950 . S
H839 C863 0.950 . S
H840 C864 0.950 . S
H841 C865 0.951 . S
H842 C867 0.951 . S
H843 C869 0.950 . S
H844 C870 0.950 . S
H845 C872 0.950 . S
H846 C875 0.950 . S
H847 C876 0.950 . S
H848 C878 0.950 . S
H849 C879 0.950 . S
C850 H832 0.951 . S
C850 C851 1.366 . S
C850 C852 1.388 . S
C851 C850 1.366 . S
C851 C855 1.385 . S
C852 H833 0.951 . S
C852 C850 1.388 . S
C852 C853 1.366 . S
C853 C852 1.366 . S
C853 C854 1.414 . S
C853 C856 1.499 . S
C854 H834 0.950 . S
C854 C853 1.414 . S
C854 C855 1.374 . S
C855 H835 0.950 . S
C855 C851 1.385 . S
C855 C854 1.374 . S
C856 C853 1.499 . S
C856 C857 1.373 . S
C856 C858 1.389 . S
C857 H836 0.950 . S
C857 C856 1.373 . S
C857 C873 1.377 . S
C858 C856 1.389 . S
C858 C859 1.524 . S
C858 C872 1.377 . S
C859 C858 1.524 . S
C859 C860 1.397 . S
C859 C864 1.363 . S
C860 H837 0.950 . S
C860 C859 1.397 . S
C860 C861 1.334 . S
C861 H838 0.950 . S
C861 C860 1.334 . S
C861 C862 1.287 . S
C862 C861 1.287 . S
C862 C863 1.524 . S
C862 H881 0.913 . S
C863 H839 0.950 . S
C863 C862 1.524 . S
C863 C864 1.415 . S
C864 H840 0.950 . S
C864 C859 1.363 . S
C864 C863 1.415 . S
C865 H841 0.951 . S
C865 C866 1.366 . S
C865 C867 1.388 . S
C866 C865 1.366 . S
C866 C870 1.385 . S
C867 H842 0.951 . S
C867 C865 1.388 . S
C867 C868 1.366 . S
C868 C867 1.366 . S
C868 C869 1.414 . S
C868 C871 1.499 . S
C869 H843 0.950 . S
C869 C868 1.414 . S
C869 C870 1.374 . S
C870 H844 0.950 . S
C870 C866 1.385 . S
C870 C869 1.374 . S
C871 C868 1.499 . S
C871 C872 1.373 . S
C871 C873 1.389 . S
C872 H845 0.950 . S
C872 C858 1.377 . S
C872 C871 1.373 . S
C873 C857 1.377 . S
C873 C871 1.389 . S
C873 C874 1.524 . S
C874 C873 1.524 . S
C874 C875 1.397 . S
C874 C879 1.363 . S
C875 H846 0.950 . S
C875 C874 1.397 . S
C875 C876 1.334 . S
C876 H847 0.950 . S
C876 C875 1.334 . S
C876 C877 1.287 . S
C877 C876 1.287 . S
C877 C878 1.524 . S
C877 H880 0.999 . S
C878 H848 0.950 . S
C878 C877 1.524 . S
C878 C879 1.415 . S
C879 H849 0.950 . S
C879 C874 1.363 . S
C879 C878 1.415 . S
H880 C877 0.999 . S
H881 C862 0.913 . S
H882 C900 0.951 . S
H883 C902 0.951 . S
H884 C904 0.950 . S
H885 C905 0.950 . S
H886 C907 0.950 . S
H887 C910 0.950 . S
H888 C911 0.950 . S
H889 C913 0.950 . S
H890 C914 0.950 . S
H891 C915 0.951 . S
H892 C917 0.951 . S
H893 C919 0.950 . S
H894 C920 0.950 . S
H895 C922 0.950 . S
H896 C925 0.950 . S
H897 C926 0.950 . S
H898 C928 0.950 . S
H899 C929 0.950 . S
C900 H882 0.951 . S
C900 C901 1.366 . S
C900 C902 1.388 . S
C901 C900 1.366 . S
C901 C905 1.385 . S
C902 H883 0.951 . S
C902 C900 1.388 . S
C902 C903 1.366 . S
C903 C902 1.366 . S
C903 C904 1.414 . S
C903 C906 1.499 . S
C904 H884 0.950 . S
C904 C903 1.414 . S
C904 C905 1.374 . S
C905 H885 0.950 . S
C905 C901 1.385 . S
C905 C904 1.374 . S
C906 C903 1.499 . S
C906 C907 1.373 . S
C906 C908 1.389 . S
C907 H886 0.950 . S
C907 C906 1.373 . S
C907 C923 1.377 . S
C908 C906 1.389 . S
C908 C909 1.524 . S
C908 C922 1.377 . S
C909 C908 1.524 . S
C909 C910 1.397 . S
C909 C914 1.363 . S
C910 H887 0.950 . S
C910 C909 1.397 . S
C910 C911 1.334 . S
C911 H888 0.950 . S
C911 C910 1.334 . S
C911 C912 1.287 . S
C912 C911 1.287 . S
C912 C913 1.524 . S
C912 H931 0.913 . S
C913 H889 0.950 . S
C913 C912 1.524 . S
C913 C914 1.415 . S
C914 H890 0.950 . S
C914 C909 1.363 . S
C914 C913 1.415 . S
C915 H891 0.951 . S
C915 C916 1.366 . S
C915 C917 1.388 . S
C916 C915 1.366 . S
C916 C920 1.385 . S
C917 H892 0.951 . S
C917 C915 1.388 . S
C917 C918 1.366 . S
C918 C917 1.366 . S
C918 C919 1.414 . S
C918 C921 1.499 . S
C919 H893 0.950 . S
C919 C918 1.414 . S
C919 C920 1.374 . S
C920 H894 0.950 . S
C920 C916 1.385 . S
C920 C919 1.374 . S
C921 C918 1.499 . S
C921 C922 1.373 . S
C921 C923 1.389 . S
C922 H895 0.950 . S
C922 C908 1.377 . S
C922 C921 1.373 . S
C923 C907 1.377 . S
C923 C921 1.389 . S
C923 C924 1.524 . S
C924 C923 1.524 . S
C924 C925 1.397 . S
C924 C929 1.363 . S
C925 H896 0.950 . S
C925 C924 1.397 . S
C925 C926 1.334 . S
C926 H897 0.950 . S
C926 C925 1.334 . S
C926 C927 1.287 . S
C927 C926 1.287 . S
C927 C928 1.524 . S
C927 H930 0.999 . S
C928 H898 0.950 . S
C928 C927 1.524 . S
C928 C929 1.415 . S
C929 H899 0.950 . S
C929 C924 1.363 . S
C929 C928 1.415 . S
H930 C927 0.999 . S
H931 C912 0.913 . S
H932 C950 0.951 . S
H933 C952 0.954 . S
H934 C954 0.950 . S
H935 C955 0.950 . S
H936 C957 0.950 1_554 S
H937 C960 0.950 . S
H938 C961 0.950 . S
H939 C963 0.950 . S
H940 C964 0.950 . S
H941 C965 0.951 . S
H942 C967 0.951 . S
H943 C969 0.950 . S
H944 C970 0.950 . S
H945 C972 0.950 . S
H946 C975 0.950 . S
H947 C976 0.950 . S
H948 C978 0.950 . S
H949 C979 0.964 . S
C950 H932 0.951 . S
C950 C951 1.366 . S
C950 C952 1.388 . S
C951 C950 1.366 . S
C951 C955 1.385 . S
C952 H933 0.954 . S
C952 C950 1.388 . S
C952 C953 1.366 . S
C953 C952 1.366 . S
C953 C954 1.414 . S
C953 C956 1.499 1_554 S
C954 H934 0.950 . S
C954 C953 1.414 . S
C954 C955 1.374 . S
C955 H935 0.950 . S
C955 C951 1.385 . S
C955 C954 1.374 . S
C956 C953 1.499 1_556 S
C956 C957 1.373 . S
C956 C958 1.389 . S
C957 H936 0.950 1_556 S
C957 C956 1.373 . S
C957 C973 1.377 . S
C958 C956 1.389 . S
C958 C959 1.524 . S
C958 C972 1.377 . S
C959 C958 1.524 . S
C959 C960 1.397 . S
C959 C964 1.363 . S
C960 H937 0.950 . S
C960 C959 1.397 . S
C960 C961 1.334 . S
C961 H938 0.950 . S
C961 C960 1.334 . S
C961 C962 1.287 . S
C962 C961 1.287 . S
C962 C963 1.524 . S
C962 H981 0.913 . S
C963 H939 0.950 . S
C963 C962 1.524 . S
C963 C964 1.415 . S
C964 H940 0.950 . S
C964 C959 1.363 . S
C964 C963 1.415 . S
C965 H941 0.951 . S
C965 C966 1.366 . S
C965 C967 1.388 . S
C966 C965 1.366 . S
C966 C970 1.385 . S
C967 H942 0.951 . S
C967 C965 1.388 . S
C967 C968 1.366 . S
C968 C967 1.366 . S
C968 C969 1.414 . S
C968 C971 1.499 . S
C969 H943 0.950 . S
C969 C968 1.414 . S
C969 C970 1.374 . S
C970 H944 0.950 . S
C970 C966 1.385 . S
C970 C969 1.374 . S
C971 C968 1.499 . S
C971 C972 1.373 . S
C971 C973 1.389 . S
C972 H945 0.950 . S
C972 C958 1.377 . S
C972 C971 1.373 . S
C973 C957 1.377 . S
C973 C971 1.389 . S
C973 C974 1.524 . S
C974 C973 1.524 . S
C974 C975 1.397 . S
C974 C979 1.339 1_556 S
C975 H946 0.950 . S
C975 C974 1.397 . S
C975 C976 1.334 . S
C976 H947 0.950 . S
C976 C975 1.334 . S
C976 C977 1.290 1_556 S
C977 C976 1.290 1_554 S
C977 C978 1.522 . S
C977 H980 0.998 . S
C978 H948 0.950 . S
C978 C977 1.522 . S
C978 C979 1.427 . S
C979 H949 0.964 . S
C979 C974 1.339 1_554 S
C979 C978 1.427 . S
H980 C977 0.998 . S
H981 C962 0.913 . S
H982 C1000 0.951 . S
H983 C1002 0.951 . S
H984 C1004 0.950 . S
H985 C1005 0.950 . S
H986 C1007 0.950 . S
H987 C1010 0.950 . S
H988 C1011 0.950 . S
H989 C1013 0.950 . S
H990 C1014 0.950 . S
H991 C1015 0.951 . S
H992 C1017 0.951 . S
H993 C1019 0.950 . S
H994 C1020 0.950 . S
H995 C1022 0.950 . S
H996 C1025 0.950 . S
H997 C1026 0.950 . S
H998 C1028 0.950 . S
H999 C1029 0.950 . S
C1000 H982 0.951 . S
C1000 C1001 1.366 . S
C1000 C1002 1.388 . S
C1001 C1000 1.366 . S
C1001 C1005 1.385 . S
C1002 H983 0.951 . S
C1002 C1000 1.388 . S
C1002 C1003 1.366 . S
C1003 C1002 1.366 . S
C1003 C1004 1.414 . S
C1003 C1006 1.499 . S
C1004 H984 0.950 . S
C1004 C1003 1.414 . S
C1004 C1005 1.374 . S
C1005 H985 0.950 . S
C1005 C1001 1.385 . S
C1005 C1004 1.374 . S
C1006 C1003 1.499 . S
C1006 C1007 1.373 . S
C1006 C1008 1.389 . S
C1007 H986 0.950 . S
C1007 C1006 1.373 . S
C1007 C1023 1.377 . S
C1008 C1006 1.389 . S
C1008 C1009 1.524 . S
C1008 C1022 1.377 . S
C1009 C1008 1.524 . S
C1009 C1010 1.397 . S
C1009 C1014 1.363 . S
C1010 H987 0.950 . S
C1010 C1009 1.397 . S
C1010 C1011 1.334 . S
C1011 H988 0.950 . S
C1011 C1010 1.334 . S
C1011 C1012 1.287 . S
C1012 C1011 1.287 . S
C1012 C1013 1.524 . S
C1012 H1031 0.913 1_455 S
C1013 H989 0.950 . S
C1013 C1012 1.524 . S
C1013 C1014 1.415 . S
C1014 H990 0.950 . S
C1014 C1009 1.363 . S
C1014 C1013 1.415 . S
C1015 H991 0.951 . S
C1015 C1016 1.366 . S
C1015 C1017 1.388 . S
C1016 C1015 1.366 . S
C1016 C1020 1.385 . S
C1017 H992 0.951 . S
C1017 C1015 1.388 . S
C1017 C1018 1.366 . S
C1018 C1017 1.366 . S
C1018 C1019 1.414 . S
C1018 C1021 1.499 . S
C1019 H993 0.950 . S
C1019 C1018 1.414 . S
C1019 C1020 1.374 . S
C1020 H994 0.950 . S
C1020 C1016 1.385 . S
C1020 C1019 1.374 . S
C1021 C1018 1.499 . S
C1021 C1022 1.373 . S
C1021 C1023 1.389 . S
C1022 H995 0.950 . S
C1022 C1008 1.377 . S
C1022 C1021 1.373 . S
C1023 C1007 1.377 . S
C1023 C1021 1.389 . S
C1023 C1024 1.524 . S
C1024 C1023 1.524 . S
C1024 C1025 1.397 . S
C1024 C1029 1.363 . S
C1025 H996 0.950 . S
C1025 C1024 1.397 . S
C1025 C1026 1.334 . S
C1026 H997 0.950 . S
C1026 C1025 1.334 . S
C1026 C1027 1.287 . S
C1027 C1026 1.287 . S
C1027 C1028 1.524 . S
C1027 H1030 0.999 . S
C1028 H998 0.950 . S
C1028 C1027 1.524 . S
C1028 C1029 1.415 . S
C1029 H999 0.950 . S
C1029 C1024 1.363 . S
C1029 C1028 1.415 . S
H1030 C1027 0.999 . S
H1031 C1012 0.913 1_655 S
H1032 C1050 0.951 . S
H1033 C1052 0.951 1_556 S
H1034 C1054 0.950 . S
H1035 C1055 0.950 . S
H1036 C1057 0.950 1_554 S
H1037 C1060 0.950 1_554 S
H1038 C1061 0.950 1_554 S
H1039 C1063 0.950 . S
H1040 C1064 0.950 . S
H1041 C1065 0.951 . S
H1042 C1067 0.951 . S
H1043 C1069 0.950 . S
H1044 C1070 0.950 . S
H1045 C1072 0.950 . S
H1046 C1075 0.950 . S
H1047 C1076 0.950 . S
H1048 C1078 0.950 1_554 S
H1049 C1079 0.950 1_554 S
C1050 H1032 0.951 . S
C1050 C1051 1.366 . S
C1050 C1052 1.388 . S
C1051 C1050 1.366 . S
C1051 C1055 1.385 . S
C1052 H1033 0.951 1_554 S
C1052 C1050 1.388 . S
C1052 C1053 1.366 . S
C1053 C1052 1.366 . S
C1053 C1054 1.414 . S
C1053 C1056 1.499 1_554 S
C1054 H1034 0.950 . S
C1054 C1053 1.414 . S
C1054 C1055 1.374 . S
C1055 H1035 0.950 . S
C1055 C1051 1.385 . S
C1055 C1054 1.374 . S
C1056 C1053 1.499 1_556 S
C1056 C1057 1.373 . S
C1056 C1058 1.389 . S
C1057 H1036 0.950 1_556 S
C1057 C1056 1.373 . S
C1057 C1073 1.377 . S
C1058 C1056 1.389 . S
C1058 C1059 1.524 . S
C1058 C1072 1.377 . S
C1059 C1058 1.524 . S
C1059 C1060 1.397 . S
C1059 C1064 1.363 . S
C1060 H1037 0.950 1_556 S
C1060 C1059 1.397 . S
C1060 C1061 1.334 . S
C1061 H1038 0.950 1_556 S
C1061 C1060 1.334 . S
C1061 C1062 1.287 . S
C1062 C1061 1.287 . S
C1062 C1063 1.524 . S
C1062 H1081 0.913 . S
C1063 H1039 0.950 . S
C1063 C1062 1.524 . S
C1063 C1064 1.415 . S
C1064 H1040 0.950 . S
C1064 C1059 1.363 . S
C1064 C1063 1.415 . S
C1065 H1041 0.951 . S
C1065 C1066 1.366 . S
C1065 C1067 1.388 . S
C1066 C1065 1.366 . S
C1066 C1070 1.385 . S
C1067 H1042 0.951 . S
C1067 C1065 1.388 . S
C1067 C1068 1.366 . S
C1068 C1067 1.366 . S
C1068 C1069 1.414 . S
C1068 C1071 1.499 . S
C1069 H1043 0.950 . S
C1069 C1068 1.414 . S
C1069 C1070 1.374 . S
C1070 H1044 0.950 . S
C1070 C1066 1.385 . S
C1070 C1069 1.374 . S
C1071 C1068 1.499 . S
C1071 C1072 1.373 . S
C1071 C1073 1.389 . S
C1072 H1045 0.950 . S
C1072 C1058 1.377 . S
C1072 C1071 1.373 . S
C1073 C1057 1.377 . S
C1073 C1071 1.389 . S
C1073 C1074 1.524 . S
C1074 C1073 1.524 . S
C1074 C1075 1.397 . S
C1074 C1079 1.363 . S
C1075 H1046 0.950 . S
C1075 C1074 1.397 . S
C1075 C1076 1.334 . S
C1076 H1047 0.950 . S
C1076 C1075 1.334 . S
C1076 C1077 1.287 . S
C1077 C1076 1.287 . S
C1077 C1078 1.524 . S
C1077 H1080 0.999 . S
C1078 H1048 0.950 1_556 S
C1078 C1077 1.524 . S
C1078 C1079 1.415 . S
C1079 H1049 0.950 1_556 S
C1079 C1074 1.363 . S
C1079 C1078 1.415 . S
H1080 C1077 0.999 . S
H1081 C1062 0.913 . S
H1082 C1100 0.951 . S
H1083 C1102 0.951 . S
H1084 C1104 0.950 . S
H1085 C1105 0.950 . S
H1086 C1107 0.950 . S
H1087 C1110 0.950 . S
H1088 C1111 0.950 . S
H1089 C1113 0.950 . S
H1090 C1114 0.950 . S
H1091 C1115 0.951 . S
H1092 C1117 0.951 . S
H1093 C1119 0.950 . S
H1094 C1120 0.950 . S
H1095 C1122 0.950 . S
H1096 C1125 0.950 . S
H1097 C1126 0.950 . S
H1098 C1128 0.950 . S
H1099 C1129 0.950 . S
C1100 H1082 0.951 . S
C1100 C1101 1.366 . S
C1100 C1102 1.388 . S
C1101 C1100 1.366 . S
C1101 C1105 1.385 . S
C1102 H1083 0.951 . S
C1102 C1100 1.388 . S
C1102 C1103 1.366 . S
C1103 C1102 1.366 . S
C1103 C1104 1.414 . S
C1103 C1106 1.499 . S
C1104 H1084 0.950 . S
C1104 C1103 1.414 . S
C1104 C1105 1.374 . S
C1105 H1085 0.950 . S
C1105 C1101 1.385 . S
C1105 C1104 1.374 . S
C1106 C1103 1.499 . S
C1106 C1107 1.373 . S
C1106 C1108 1.389 . S
C1107 H1086 0.950 . S
C1107 C1106 1.373 . S
C1107 C1123 1.377 . S
C1108 C1106 1.389 . S
C1108 C1109 1.524 . S
C1108 C1122 1.377 . S
C1109 C1108 1.524 . S
C1109 C1110 1.397 . S
C1109 C1114 1.363 . S
C1110 H1087 0.950 . S
C1110 C1109 1.397 . S
C1110 C1111 1.334 . S
C1111 H1088 0.950 . S
C1111 C1110 1.334 . S
C1111 C1112 1.287 . S
C1112 C1111 1.287 . S
C1112 C1113 1.524 . S
C1112 H1131 0.913 . S
C1113 H1089 0.950 . S
C1113 C1112 1.524 . S
C1113 C1114 1.415 . S
C1114 H1090 0.950 . S
C1114 C1109 1.363 . S
C1114 C1113 1.415 . S
C1115 H1091 0.951 . S
C1115 C1116 1.366 . S
C1115 C1117 1.388 . S
C1116 C1115 1.366 . S
C1116 C1120 1.385 . S
C1117 H1092 0.951 . S
C1117 C1115 1.388 . S
C1117 C1118 1.366 . S
C1118 C1117 1.366 . S
C1118 C1119 1.414 . S
C1118 C1121 1.499 . S
C1119 H1093 0.950 . S
C1119 C1118 1.414 . S
C1119 C1120 1.374 . S
C1120 H1094 0.950 . S
C1120 C1116 1.385 . S
C1120 C1119 1.374 . S
C1121 C1118 1.499 . S
C1121 C1122 1.373 . S
C1121 C1123 1.389 . S
C1122 H1095 0.950 . S
C1122 C1108 1.377 . S
C1122 C1121 1.373 . S
C1123 C1107 1.377 . S
C1123 C1121 1.389 . S
C1123 C1124 1.524 . S
C1124 C1123 1.524 . S
C1124 C1125 1.397 . S
C1124 C1129 1.363 . S
C1125 H1096 0.950 . S
C1125 C1124 1.397 . S
C1125 C1126 1.334 . S
C1126 H1097 0.950 . S
C1126 C1125 1.334 . S
C1126 C1127 1.287 . S
C1127 C1126 1.287 . S
C1127 C1128 1.524 . S
C1127 H1130 0.999 . S
C1128 H1098 0.950 . S
C1128 C1127 1.524 . S
C1128 C1129 1.415 . S
C1129 H1099 0.950 . S
C1129 C1124 1.363 . S
C1129 C1128 1.415 . S
H1130 C1127 0.999 . S
H1131 C1112 0.913 . S
H1132 C1150 0.951 . S
H1133 C1152 0.951 . S
H1134 C1154 0.950 . S
H1135 C1155 0.950 . S
H1136 C1157 0.950 . S
H1137 C1160 0.950 . S
H1138 C1161 0.950 . S
H1139 C1163 0.950 . S
H1140 C1164 0.950 . S
H1141 C1165 0.951 . S
H1142 C1167 0.951 . S
H1143 C1169 0.950 . S
H1144 C1170 0.950 . S
H1145 C1172 0.950 . S
H1146 C1175 0.950 . S
H1147 C1176 0.950 . S
H1148 C1178 0.950 . S
H1149 C1179 0.950 . S
C1150 H1132 0.951 . S
C1150 C1151 1.366 . S
C1150 C1152 1.388 . S
C1151 C1150 1.366 . S
C1151 C1155 1.385 . S
C1152 H1133 0.951 . S
C1152 C1150 1.388 . S
C1152 C1153 1.366 . S
C1153 C1152 1.366 . S
C1153 C1154 1.414 . S
C1153 C1156 1.499 . S
C1154 H1134 0.950 . S
C1154 C1153 1.414 . S
C1154 C1155 1.374 . S
C1155 H1135 0.950 . S
C1155 C1151 1.385 . S
C1155 C1154 1.374 . S
C1156 C1153 1.499 . S
C1156 C1157 1.373 . S
C1156 C1158 1.389 . S
C1157 H1136 0.950 . S
C1157 C1156 1.373 . S
C1157 C1173 1.377 . S
C1158 C1156 1.389 . S
C1158 C1159 1.524 . S
C1158 C1172 1.377 . S
C1159 C1158 1.524 . S
C1159 C1160 1.397 . S
C1159 C1164 1.363 . S
C1160 H1137 0.950 . S
C1160 C1159 1.397 . S
C1160 C1161 1.334 . S
C1161 H1138 0.950 . S
C1161 C1160 1.334 . S
C1161 C1162 1.287 . S
C1162 C1161 1.287 . S
C1162 C1163 1.524 . S
C1162 H1181 0.913 . S
C1163 H1139 0.950 . S
C1163 C1162 1.524 . S
C1163 C1164 1.415 . S
C1164 H1140 0.950 . S
C1164 C1159 1.363 . S
C1164 C1163 1.415 . S
C1165 H1141 0.951 . S
C1165 C1166 1.366 . S
C1165 C1167 1.388 1_655 S
C1166 C1165 1.366 . S
C1166 C1170 1.385 . S
C1167 H1142 0.951 . S
C1167 C1165 1.388 1_455 S
C1167 C1168 1.366 . S
C1168 C1167 1.366 . S
C1168 C1169 1.414 . S
C1168 C1171 1.499 . S
C1169 H1143 0.950 . S
C1169 C1168 1.414 . S
C1169 C1170 1.374 1_455 S
C1170 H1144 0.950 . S
C1170 C1166 1.385 . S
C1170 C1169 1.374 1_655 S
C1171 C1168 1.499 . S
C1171 C1172 1.373 . S
C1171 C1173 1.389 . S
C1172 H1145 0.950 . S
C1172 C1158 1.377 . S
C1172 C1171 1.373 . S
C1173 C1157 1.377 . S
C1173 C1171 1.389 . S
C1173 C1174 1.524 . S
C1174 C1173 1.524 . S
C1174 C1175 1.397 . S
C1174 C1179 1.363 . S
C1175 H1146 0.950 . S
C1175 C1174 1.397 . S
C1175 C1176 1.334 . S
C1176 H1147 0.950 . S
C1176 C1175 1.334 . S
C1176 C1177 1.287 . S
C1177 C1176 1.287 . S
C1177 C1178 1.524 . S
C1177 H1180 0.999 . S
C1178 H1148 0.950 . S
C1178 C1177 1.524 . S
C1178 C1179 1.415 . S
C1179 H1149 0.950 . S
C1179 C1174 1.363 . S
C1179 C1178 1.415 . S
H1180 C1177 0.999 . S
H1181 C1162 0.913 . S
H1182 C1200 0.951 . S
H1183 C1202 0.951 . S
H1184 C1204 0.950 . S
H1185 C1205 0.950 . S
H1186 C1207 0.950 . S
H1187 C1210 0.950 . S
H1188 C1211 0.950 . S
H1189 C1213 0.950 . S
H1190 C1214 0.950 . S
H1191 C1215 0.951 . S
H1192 C1217 0.951 . S
H1193 C1219 0.935 1_455 S
H1194 C1220 0.950 . S
H1195 C1222 0.950 . S
H1196 C1225 0.950 . S
H1197 C1226 0.950 . S
H1198 C1228 0.950 1_554 S
H1199 C1229 0.950 . S
C1200 H1182 0.951 . S
C1200 C1201 1.366 . S
C1200 C1202 1.388 . S
C1201 C1200 1.366 . S
C1201 C1205 1.385 . S
C1202 H1183 0.951 . S
C1202 C1200 1.388 . S
C1202 C1203 1.366 . S
C1203 C1202 1.366 . S
C1203 C1204 1.414 . S
C1203 C1206 1.499 . S
C1204 H1184 0.950 . S
C1204 C1203 1.414 . S
C1204 C1205 1.374 . S
C1205 H1185 0.950 . S
C1205 C1201 1.385 . S
C1205 C1204 1.374 . S
C1206 C1203 1.499 . S
C1206 C1207 1.373 . S
C1206 C1208 1.389 . S
C1207 H1186 0.950 . S
C1207 C1206 1.373 . S
C1207 C1223 1.377 . S
C1208 C1206 1.389 . S
C1208 C1209 1.524 . S
C1208 C1222 1.377 . S
C1209 C1208 1.524 . S
C1209 C1210 1.397 . S
C1209 C1214 1.363 . S
C1210 H1187 0.950 . S
C1210 C1209 1.397 . S
C1210 C1211 1.334 . S
C1211 H1188 0.950 . S
C1211 C1210 1.334 . S
C1211 C1212 1.287 . S
C1212 C1211 1.287 . S
C1212 C1213 1.524 . S
C1212 H1231 0.913 . S
C1213 H1189 0.950 . S
C1213 C1212 1.524 . S
C1213 C1214 1.415 . S
C1214 H1190 0.950 . S
C1214 C1209 1.363 . S
C1214 C1213 1.415 . S
C1215 H1191 0.951 . S
C1215 C1216 1.366 . S
C1215 C1217 1.388 1_655 S
C1216 C1215 1.366 . S
C1216 C1220 1.385 . S
C1217 H1192 0.951 . S
C1217 C1215 1.388 1_455 S
C1217 C1218 1.366 . S
C1218 C1217 1.366 . S
C1218 C1219 1.404 1_455 S
C1218 C1221 1.499 . S
C1219 H1193 0.935 1_655 S
C1219 C1218 1.404 1_655 S
C1219 C1220 1.400 . S
C1220 H1194 0.950 . S
C1220 C1216 1.385 . S
C1220 C1219 1.400 . S
C1221 C1218 1.499 . S
C1221 C1222 1.373 . S
C1221 C1223 1.389 . S
C1222 H1195 0.950 . S
C1222 C1208 1.377 . S
C1222 C1221 1.373 . S
C1223 C1207 1.377 . S
C1223 C1221 1.389 . S
C1223 C1224 1.524 . S
C1224 C1223 1.524 . S
C1224 C1225 1.397 1_455 S
C1224 C1229 1.363 . S
C1225 H1196 0.950 . S
C1225 C1224 1.397 1_655 S
C1225 C1226 1.334 . S
C1226 H1197 0.950 . S
C1226 C1225 1.334 . S
C1226 C1227 1.287 . S
C1227 C1226 1.287 . S
C1227 C1228 1.524 1_655 S
C1227 H1230 0.999 . S
C1228 H1198 0.950 1_556 S
C1228 C1227 1.524 1_455 S
C1228 C1229 1.415 . S
C1229 H1199 0.950 . S
C1229 C1224 1.363 . S
C1229 C1228 1.415 . S
H1230 C1227 0.999 . S
H1231 C1212 0.913 . S
H1232 C1250 0.951 . S
H1233 C1252 0.951 . S
H1234 C1254 0.950 . S
H1235 C1255 0.950 . S
H1236 C1257 0.950 . S
H1237 C1260 0.950 . S
H1238 C1261 0.950 . S
H1239 C1263 0.950 . S
H1240 C1264 0.950 . S
H1241 C1265 0.951 . S
H1242 C1267 0.951 . S
H1243 C1269 0.950 . S
H1244 C1270 0.950 . S
H1245 C1272 0.950 . S
H1246 C1275 0.950 . S
H1247 C1276 0.950 . S
H1248 C1278 0.950 . S
H1249 C1279 0.950 . S
C1250 H1232 0.951 . S
C1250 C1251 1.366 . S
C1250 C1252 1.388 . S
C1251 C1250 1.366 . S
C1251 C1255 1.385 . S
C1252 H1233 0.951 . S
C1252 C1250 1.388 . S
C1252 C1253 1.366 . S
C1253 C1252 1.366 . S
C1253 C1254 1.414 . S
C1253 C1256 1.499 . S
C1254 H1234 0.950 . S
C1254 C1253 1.414 . S
C1254 C1255 1.374 . S
C1255 H1235 0.950 . S
C1255 C1251 1.385 . S
C1255 C1254 1.374 . S
C1256 C1253 1.499 . S
C1256 C1257 1.373 . S
C1256 C1258 1.389 . S
C1257 H1236 0.950 . S
C1257 C1256 1.373 . S
C1257 C1273 1.377 . S
C1258 C1256 1.389 . S
C1258 C1259 1.524 . S
C1258 C1272 1.377 . S
C1259 C1258 1.524 . S
C1259 C1260 1.397 . S
C1259 C1264 1.363 . S
C1260 H1237 0.950 . S
C1260 C1259 1.397 . S
C1260 C1261 1.334 . S
C1261 H1238 0.950 . S
C1261 C1260 1.334 . S
C1261 C1262 1.287 . S
C1262 C1261 1.287 . S
C1262 C1263 1.524 . S
C1262 H1281 0.913 . S
C1263 H1239 0.950 . S
C1263 C1262 1.524 . S
C1263 C1264 1.415 . S
C1264 H1240 0.950 . S
C1264 C1259 1.363 . S
C1264 C1263 1.415 . S
C1265 H1241 0.951 . S
C1265 C1266 1.366 . S
C1265 C1267 1.388 . S
C1266 C1265 1.366 . S
C1266 C1270 1.385 . S
C1267 H1242 0.951 . S
C1267 C1265 1.388 . S
C1267 C1268 1.366 . S
C1268 C1267 1.366 . S
C1268 C1269 1.414 . S
C1268 C1271 1.499 . S
C1269 H1243 0.950 . S
C1269 C1268 1.414 . S
C1269 C1270 1.374 . S
C1270 H1244 0.950 . S
C1270 C1266 1.385 . S
C1270 C1269 1.374 . S
C1271 C1268 1.499 . S
C1271 C1272 1.373 . S
C1271 C1273 1.389 . S
C1272 H1245 0.950 . S
C1272 C1258 1.377 . S
C1272 C1271 1.373 . S
C1273 C1257 1.377 . S
C1273 C1271 1.389 . S
C1273 C1274 1.524 . S
C1274 C1273 1.524 . S
C1274 C1275 1.397 . S
C1274 C1279 1.363 . S
C1275 H1246 0.950 . S
C1275 C1274 1.397 . S
C1275 C1276 1.334 . S
C1276 H1247 0.950 . S
C1276 C1275 1.334 . S
C1276 C1277 1.287 . S
C1277 C1276 1.287 . S
C1277 C1278 1.524 . S
C1277 H1280 0.999 . S
C1278 H1248 0.950 . S
C1278 C1277 1.524 . S
C1278 C1279 1.415 . S
C1279 H1249 0.950 . S
C1279 C1274 1.363 . S
C1279 C1278 1.415 . S
H1280 C1277 0.999 . S
H1281 C1262 0.913 . S
H1282 C1300 0.951 . S
H1283 C1302 0.951 . S
H1284 C1304 0.950 . S
H1285 C1305 0.950 . S
H1286 C1307 0.950 . S
H1287 C1310 0.950 . S
H1288 C1311 0.950 . S
H1289 C1313 0.967 . S
H1290 C1314 0.950 . S
H1291 C1315 0.951 . S
H1292 C1317 0.951 . S
H1293 C1319 0.950 . S
H1294 C1320 0.950 . S
H1295 C1322 0.950 . S
H1296 C1325 0.950 . S
H1297 C1326 0.950 . S
H1298 C1328 0.950 . S
H1299 C1329 0.950 . S
C1300 H1282 0.951 . S
C1300 C1301 1.366 . S
C1300 C1302 1.388 . S
C1301 C1300 1.366 . S
C1301 C1305 1.385 . S
C1302 H1283 0.951 . S
C1302 C1300 1.388 . S
C1302 C1303 1.366 1_554 S
C1303 C1302 1.366 1_556 S
C1303 C1304 1.414 . S
C1303 C1306 1.499 . S
C1304 H1284 0.950 . S
C1304 C1303 1.414 . S
C1304 C1305 1.374 1_556 S
C1305 H1285 0.950 . S
C1305 C1301 1.385 . S
C1305 C1304 1.374 1_554 S
C1306 C1303 1.499 . S
C1306 C1307 1.373 . S
C1306 C1308 1.389 . S
C1307 H1286 0.950 . S
C1307 C1306 1.373 . S
C1307 C1323 1.377 . S
C1308 C1306 1.389 . S
C1308 C1309 1.524 . S
C1308 C1322 1.377 . S
C1309 C1308 1.524 . S
C1309 C1310 1.397 . S
C1309 C1314 1.363 . S
C1310 H1287 0.950 . S
C1310 C1309 1.397 . S
C1310 C1311 1.334 . S
C1311 H1288 0.950 . S
C1311 C1310 1.334 . S
C1311 C1312 1.287 . S
C1312 C1311 1.287 . S
C1312 C1313 1.524 . S
C1312 H1331 0.913 . S
C1313 H1289 0.967 . S
C1313 C1312 1.524 . S
C1313 C1314 1.415 . S
C1314 H1290 0.950 . S
C1314 C1309 1.363 . S
C1314 C1313 1.415 . S
C1315 H1291 0.951 . S
C1315 C1316 1.366 . S
C1315 C1317 1.388 . S
C1316 C1315 1.366 . S
C1316 C1320 1.385 . S
C1317 H1292 0.951 . S
C1317 C1315 1.388 . S
C1317 C1318 1.366 . S
C1318 C1317 1.366 . S
C1318 C1319 1.414 . S
C1318 C1321 1.499 . S
C1319 H1293 0.950 . S
C1319 C1318 1.414 . S
C1319 C1320 1.374 . S
C1320 H1294 0.950 . S
C1320 C1316 1.385 . S
C1320 C1319 1.374 . S
C1321 C1318 1.499 . S
C1321 C1322 1.373 . S
C1321 C1323 1.389 . S
C1322 H1295 0.950 . S
C1322 C1308 1.377 . S
C1322 C1321 1.373 . S
C1323 C1307 1.377 . S
C1323 C1321 1.389 . S
C1323 C1324 1.524 . S
C1324 C1323 1.524 . S
C1324 C1325 1.397 . S
C1324 C1329 1.363 . S
C1325 H1296 0.950 . S
C1325 C1324 1.397 . S
C1325 C1326 1.334 . S
C1326 H1297 0.950 . S
C1326 C1325 1.334 . S
C1326 C1327 1.287 . S
C1327 C1326 1.287 . S
C1327 C1328 1.524 . S
C1327 H1330 0.999 . S
C1328 H1298 0.950 . S
C1328 C1327 1.524 . S
C1328 C1329 1.415 . S
C1329 H1299 0.950 . S
C1329 C1324 1.363 . S
C1329 C1328 1.415 . S
H1330 C1327 0.999 . S
H1331 C1312 0.913 . S
H1332 C1350 0.951 . S
H1333 C1352 0.951 . S
H1334 C1354 0.950 . S
H1335 C1355 0.950 . S
H1336 C1357 0.950 . S
H1337 C1360 0.950 . S
H1338 C1361 0.950 . S
H1339 C1363 0.950 . S
H1340 C1364 0.950 . S
H1341 C1365 0.951 . S
H1342 C1367 0.951 . S
H1343 C1369 0.950 . S
H1344 C1370 0.950 . S
H1345 C1372 0.950 . S
H1346 C1375 0.950 . S
H1347 C1376 0.950 . S
H1348 C1378 0.950 . S
H1349 C1379 0.950 . S
C1350 H1332 0.951 . S
C1350 C1351 1.366 . S
C1350 C1352 1.388 . S
C1351 C1350 1.366 . S
C1351 C1355 1.385 . S
C1352 H1333 0.951 . S
C1352 C1350 1.388 . S
C1352 C1353 1.366 . S
C1353 C1352 1.366 . S
C1353 C1354 1.414 . S
C1353 C1356 1.499 . S
C1354 H1334 0.950 . S
C1354 C1353 1.414 . S
C1354 C1355 1.374 . S
C1355 H1335 0.950 . S
C1355 C1351 1.385 . S
C1355 C1354 1.374 . S
C1356 C1353 1.499 . S
C1356 C1357 1.373 . S
C1356 C1358 1.389 . S
C1357 H1336 0.950 . S
C1357 C1356 1.373 . S
C1357 C1373 1.377 . S
C1358 C1356 1.389 . S
C1358 C1359 1.524 . S
C1358 C1372 1.377 . S
C1359 C1358 1.524 . S
C1359 C1360 1.397 . S
C1359 C1364 1.363 . S
C1360 H1337 0.950 . S
C1360 C1359 1.397 . S
C1360 C1361 1.334 . S
C1361 H1338 0.950 . S
C1361 C1360 1.334 . S
C1361 C1362 1.287 . S
C1362 C1361 1.287 . S
C1362 C1363 1.524 . S
C1362 H1381 0.913 . S
C1363 H1339 0.950 . S
C1363 C1362 1.524 . S
C1363 C1364 1.415 . S
C1364 H1340 0.950 . S
C1364 C1359 1.363 . S
C1364 C1363 1.415 . S
C1365 H1341 0.951 . S
C1365 C1366 1.366 . S
C1365 C1367 1.388 . S
C1366 C1365 1.366 . S
C1366 C1370 1.385 . S
C1367 H1342 0.951 . S
C1367 C1365 1.388 . S
C1367 C1368 1.366 . S
C1368 C1367 1.366 . S
C1368 C1369 1.414 . S
C1368 C1371 1.499 . S
C1369 H1343 0.950 . S
C1369 C1368 1.414 . S
C1369 C1370 1.374 . S
C1370 H1344 0.950 . S
C1370 C1366 1.385 . S
C1370 C1369 1.374 . S
C1371 C1368 1.499 . S
C1371 C1372 1.373 . S
C1371 C1373 1.389 . S
C1372 H1345 0.950 . S
C1372 C1358 1.377 . S
C1372 C1371 1.373 . S
C1373 C1357 1.377 . S
C1373 C1371 1.389 . S
C1373 C1374 1.524 . S
C1374 C1373 1.524 . S
C1374 C1375 1.397 . S
C1374 C1379 1.363 . S
C1375 H1346 0.950 . S
C1375 C1374 1.397 . S
C1375 C1376 1.334 . S
C1376 H1347 0.950 . S
C1376 C1375 1.334 . S
C1376 C1377 1.287 . S
C1377 C1376 1.287 . S
C1377 C1378 1.524 . S
C1377 H1380 0.999 . S
C1378 H1348 0.950 . S
C1378 C1377 1.524 . S
C1378 C1379 1.415 . S
C1379 H1349 0.950 . S
C1379 C1374 1.363 . S
C1379 C1378 1.415 . S
H1380 C1377 0.999 . S
H1381 C1362 0.913 . S
H1382 C1400 0.951 . S
H1383 C1402 0.951 . S
H1384 C1404 0.950 1_556 S
H1385 C1405 0.950 . S
H1386 C1407 0.950 . S
H1387 C1410 0.950 . S
H1388 C1411 0.950 . S
H1389 C1413 0.950 . S
H1390 C1414 0.950 . S
H1391 C1415 0.951 . S
H1392 C1417 0.951 . S
H1393 C1419 0.950 . S
H1394 C1420 0.950 . S
H1395 C1422 0.950 . S
H1396 C1425 0.950 . S
H1397 C1426 0.950 . S
H1398 C1428 0.950 . S
H1399 C1429 0.950 . S
C1400 H1382 0.951 . S
C1400 C1401 1.366 . S
C1400 C1402 1.388 . S
C1401 C1400 1.366 . S
C1401 C1405 1.385 . S
C1402 H1383 0.951 . S
C1402 C1400 1.388 . S
C1402 C1403 1.366 . S
C1403 C1402 1.366 . S
C1403 C1404 1.414 . S
C1403 C1406 1.499 1_554 S
C1404 H1384 0.950 1_554 S
C1404 C1403 1.414 . S
C1404 C1405 1.374 . S
C1405 H1385 0.950 . S
C1405 C1401 1.385 . S
C1405 C1404 1.374 . S
C1406 C1403 1.499 1_556 S
C1406 C1407 1.373 . S
C1406 C1408 1.389 1_556 S
C1407 H1386 0.950 . S
C1407 C1406 1.373 . S
C1407 C1423 1.377 . S
C1408 C1406 1.389 1_554 S
C1408 C1409 1.524 . S
C1408 C1422 1.377 1_554 S
C1409 C1408 1.524 . S
C1409 C1410 1.397 . S
C1409 C1414 1.363 . S
C1410 H1387 0.950 . S
C1410 C1409 1.397 . S
C1410 C1411 1.334 . S
C1411 H1388 0.950 . S
C1411 C1410 1.334 . S
C1411 C1412 1.287 . S
C1412 C1411 1.287 . S
C1412 C1413 1.524 . S
C1412 H1431 0.913 . S
C1413 H1389 0.950 . S
C1413 C1412 1.524 . S
C1413 C1414 1.415 . S
C1414 H1390 0.950 . S
C1414 C1409 1.363 . S
C1414 C1413 1.415 . S
C1415 H1391 0.951 . S
C1415 C1416 1.366 . S
C1415 C1417 1.388 . S
C1416 C1415 1.366 . S
C1416 C1420 1.385 . S
C1417 H1392 0.951 . S
C1417 C1415 1.388 . S
C1417 C1418 1.366 . S
C1418 C1417 1.366 . S
C1418 C1419 1.414 . S
C1418 C1421 1.499 . S
C1419 H1393 0.950 . S
C1419 C1418 1.414 . S
C1419 C1420 1.374 . S
C1420 H1394 0.950 . S
C1420 C1416 1.385 . S
C1420 C1419 1.374 . S
C1421 C1418 1.499 . S
C1421 C1422 1.373 . S
C1421 C1423 1.389 . S
C1422 H1395 0.950 . S
C1422 C1408 1.377 1_556 S
C1422 C1421 1.373 . S
C1423 C1407 1.377 . S
C1423 C1421 1.389 . S
C1423 C1424 1.524 . S
C1424 C1423 1.524 . S
C1424 C1425 1.397 . S
C1424 C1429 1.363 . S
C1425 H1396 0.950 . S
C1425 C1424 1.397 . S
C1425 C1426 1.334 . S
C1426 H1397 0.950 . S
C1426 C1425 1.334 . S
C1426 C1427 1.287 . S
C1427 C1426 1.287 . S
C1427 C1428 1.524 . S
C1427 H1430 0.999 . S
C1428 H1398 0.950 . S
C1428 C1427 1.524 . S
C1428 C1429 1.415 . S
C1429 H1399 0.950 . S
C1429 C1424 1.363 . S
C1429 C1428 1.415 . S
H1430 C1427 0.999 . S
H1431 C1412 0.913 . S
H1432 C1450 0.951 . S
H1433 C1452 0.951 . S
H1434 C1454 0.950 . S
H1435 C1455 0.950 . S
H1436 C1457 0.950 . S
H1437 C1460 0.950 . S
H1438 C1461 0.950 . S
H1439 C1463 0.950 . S
H1440 C1464 0.950 . S
H1441 C1465 0.951 . S
H1442 C1467 0.951 . S
H1443 C1469 0.950 . S
H1444 C1470 0.950 . S
H1445 C1472 0.950 . S
H1446 C1475 0.950 . S
H1447 C1476 0.950 . S
H1448 C1478 0.950 . S
H1449 C1479 0.950 . S
C1450 H1432 0.951 . S
C1450 C1451 1.366 . S
C1450 C1452 1.388 . S
C1451 C1450 1.366 . S
C1451 C1455 1.385 . S
C1452 H1433 0.951 . S
C1452 C1450 1.388 . S
C1452 C1453 1.366 . S
C1453 C1452 1.366 . S
C1453 C1454 1.414 . S
C1453 C1456 1.499 . S
C1454 H1434 0.950 . S
C1454 C1453 1.414 . S
C1454 C1455 1.374 . S
C1455 H1435 0.950 . S
C1455 C1451 1.385 . S
C1455 C1454 1.374 . S
C1456 C1453 1.499 . S
C1456 C1457 1.373 . S
C1456 C1458 1.389 . S
C1457 H1436 0.950 . S
C1457 C1456 1.373 . S
C1457 C1473 1.377 . S
C1458 C1456 1.389 . S
C1458 C1459 1.524 . S
C1458 C1472 1.377 . S
C1459 C1458 1.524 . S
C1459 C1460 1.397 . S
C1459 C1464 1.363 . S
C1460 H1437 0.950 . S
C1460 C1459 1.397 . S
C1460 C1461 1.334 . S
C1461 H1438 0.950 . S
C1461 C1460 1.334 . S
C1461 C1462 1.287 . S
C1462 C1461 1.287 . S
C1462 C1463 1.524 . S
C1462 H1481 0.913 . S
C1463 H1439 0.950 . S
C1463 C1462 1.524 . S
C1463 C1464 1.415 . S
C1464 H1440 0.950 . S
C1464 C1459 1.363 . S
C1464 C1463 1.415 . S
C1465 H1441 0.951 . S
C1465 C1466 1.366 . S
C1465 C1467 1.388 . S
C1466 C1465 1.366 . S
C1466 C1470 1.385 . S
C1467 H1442 0.951 . S
C1467 C1465 1.388 . S
C1467 C1468 1.366 . S
C1468 C1467 1.366 . S
C1468 C1469 1.414 . S
C1468 C1471 1.499 . S
C1469 H1443 0.950 . S
C1469 C1468 1.414 . S
C1469 C1470 1.374 . S
C1470 H1444 0.950 . S
C1470 C1466 1.385 . S
C1470 C1469 1.374 . S
C1471 C1468 1.499 . S
C1471 C1472 1.373 . S
C1471 C1473 1.389 . S
C1472 H1445 0.950 . S
C1472 C1458 1.377 . S
C1472 C1471 1.373 . S
C1473 C1457 1.377 . S
C1473 C1471 1.389 . S
C1473 C1474 1.524 . S
C1474 C1473 1.524 . S
C1474 C1475 1.397 . S
C1474 C1479 1.363 . S
C1475 H1446 0.950 . S
C1475 C1474 1.397 . S
C1475 C1476 1.334 . S
C1476 H1447 0.950 . S
C1476 C1475 1.334 . S
C1476 C1477 1.287 . S
C1477 C1476 1.287 . S
C1477 C1478 1.524 . S
C1477 H1480 0.999 . S
C1478 H1448 0.950 . S
C1478 C1477 1.524 . S
C1478 C1479 1.415 . S
C1479 H1449 0.950 . S
C1479 C1474 1.363 . S
C1479 C1478 1.415 . S
H1480 C1477 0.999 . S
H1481 C1462 0.913 . S
H1482 C1500 0.951 . S
H1483 C1502 0.951 . S
H1484 C1504 0.950 . S
H1485 C1505 0.950 . S
H1486 C1507 0.950 . S
H1487 C1510 0.950 . S
H1488 C1511 0.950 . S
H1489 C1513 0.950 . S
H1490 C1514 0.950 . S
H1491 C1515 0.951 . S
H1492 C1517 0.951 . S
H1493 C1519 0.950 . S
H1494 C1520 0.950 . S
H1495 C1522 0.950 . S
H1496 C1525 0.950 . S
H1497 C1526 0.950 . S
H1498 C1528 0.950 . S
H1499 C1529 0.950 . S
C1500 H1482 0.951 . S
C1500 C1501 1.366 . S
C1500 C1502 1.388 . S
C1501 C1500 1.366 . S
C1501 C1505 1.385 . S
C1502 H1483 0.951 . S
C1502 C1500 1.388 . S
C1502 C1503 1.366 . S
C1503 C1502 1.366 . S
C1503 C1504 1.414 . S
C1503 C1506 1.499 . S
C1504 H1484 0.950 . S
C1504 C1503 1.414 . S
C1504 C1505 1.374 . S
C1505 H1485 0.950 . S
C1505 C1501 1.385 . S
C1505 C1504 1.374 . S
C1506 C1503 1.499 . S
C1506 C1507 1.373 . S
C1506 C1508 1.389 . S
C1507 H1486 0.950 . S
C1507 C1506 1.373 . S
C1507 C1523 1.377 . S
C1508 C1506 1.389 . S
C1508 C1509 1.524 . S
C1508 C1522 1.377 . S
C1509 C1508 1.524 . S
C1509 C1510 1.397 . S
C1509 C1514 1.363 . S
C1510 H1487 0.950 . S
C1510 C1509 1.397 . S
C1510 C1511 1.334 . S
C1511 H1488 0.950 . S
C1511 C1510 1.334 . S
C1511 C1512 1.287 . S
C1512 C1511 1.287 . S
C1512 C1513 1.524 . S
C1512 H1531 0.913 . S
C1513 H1489 0.950 . S
C1513 C1512 1.524 . S
C1513 C1514 1.415 . S
C1514 H1490 0.950 . S
C1514 C1509 1.363 . S
C1514 C1513 1.415 . S
C1515 H1491 0.951 . S
C1515 C1516 1.366 . S
C1515 C1517 1.388 . S
C1516 C1515 1.366 . S
C1516 C1520 1.385 . S
C1517 H1492 0.951 . S
C1517 C1515 1.388 . S
C1517 C1518 1.366 . S
C1518 C1517 1.366 . S
C1518 C1519 1.414 . S
C1518 C1521 1.499 . S
C1519 H1493 0.950 . S
C1519 C1518 1.414 . S
C1519 C1520 1.374 . S
C1520 H1494 0.950 . S
C1520 C1516 1.385 . S
C1520 C1519 1.374 . S
C1521 C1518 1.499 . S
C1521 C1522 1.373 . S
C1521 C1523 1.389 . S
C1522 H1495 0.950 . S
C1522 C1508 1.377 . S
C1522 C1521 1.373 . S
C1523 C1507 1.377 . S
C1523 C1521 1.389 . S
C1523 C1524 1.524 . S
C1524 C1523 1.524 . S
C1524 C1525 1.397 . S
C1524 C1529 1.363 . S
C1525 H1496 0.950 . S
C1525 C1524 1.397 . S
C1525 C1526 1.334 . S
C1526 H1497 0.950 . S
C1526 C1525 1.334 . S
C1526 C1527 1.287 . S
C1527 C1526 1.287 . S
C1527 C1528 1.524 . S
C1527 H1530 0.999 . S
C1528 H1498 0.950 . S
C1528 C1527 1.524 . S
C1528 C1529 1.415 . S
C1529 H1499 0.950 . S
C1529 C1524 1.363 . S
C1529 C1528 1.415 . S
H1530 C1527 0.999 . S
H1531 C1512 0.913 . S
H1532 C1550 0.951 . S
H1533 C1552 0.951 . S
H1534 C1554 0.950 . S
H1535 C1555 0.950 . S
H1536 C1557 0.950 . S
H1537 C1560 0.950 . S
H1538 C1561 0.950 . S
H1539 C1563 0.950 . S
H1540 C1564 0.950 . S
H1541 C1565 0.951 . S
H1542 C1567 0.951 . S
H1543 C1569 0.950 . S
H1544 C1570 0.950 . S
H1545 C1572 0.950 . S
H1546 C1575 0.950 . S
H1547 C1576 0.950 . S
H1548 C1578 0.950 . S
H1549 C1579 0.950 . S
C1550 H1532 0.951 . S
C1550 C1551 1.366 . S
C1550 C1552 1.388 . S
C1551 C1550 1.366 . S
C1551 C1555 1.385 . S
C1552 H1533 0.951 . S
C1552 C1550 1.388 . S
C1552 C1553 1.366 . S
C1553 C1552 1.366 . S
C1553 C1554 1.414 . S
C1553 C1556 1.499 . S
C1554 H1534 0.950 . S
C1554 C1553 1.414 . S
C1554 C1555 1.374 . S
C1555 H1535 0.950 . S
C1555 C1551 1.385 . S
C1555 C1554 1.374 . S
C1556 C1553 1.499 . S
C1556 C1557 1.373 . S
C1556 C1558 1.389 . S
C1557 H1536 0.950 . S
C1557 C1556 1.373 . S
C1557 C1573 1.377 . S
C1558 C1556 1.389 . S
C1558 C1559 1.524 . S
C1558 C1572 1.377 . S
C1559 C1558 1.524 . S
C1559 C1560 1.397 . S
C1559 C1564 1.363 . S
C1560 H1537 0.950 . S
C1560 C1559 1.397 . S
C1560 C1561 1.334 . S
C1561 H1538 0.950 . S
C1561 C1560 1.334 . S
C1561 C1562 1.287 . S
C1562 C1561 1.287 . S
C1562 C1563 1.524 . S
C1562 H1581 0.913 . S
C1563 H1539 0.950 . S
C1563 C1562 1.524 . S
C1563 C1564 1.415 . S
C1564 H1540 0.950 . S
C1564 C1559 1.363 . S
C1564 C1563 1.415 . S
C1565 H1541 0.951 . S
C1565 C1566 1.366 . S
C1565 C1567 1.388 . S
C1566 C1565 1.366 . S
C1566 C1570 1.385 . S
C1567 H1542 0.951 . S
C1567 C1565 1.388 . S
C1567 C1568 1.366 . S
C1568 C1567 1.366 . S
C1568 C1569 1.414 . S
C1568 C1571 1.499 . S
C1569 H1543 0.950 . S
C1569 C1568 1.414 . S
C1569 C1570 1.374 . S
C1570 H1544 0.950 . S
C1570 C1566 1.385 . S
C1570 C1569 1.374 . S
C1571 C1568 1.499 . S
C1571 C1572 1.373 . S
C1571 C1573 1.389 . S
C1572 H1545 0.950 . S
C1572 C1558 1.377 . S
C1572 C1571 1.373 . S
C1573 C1557 1.377 . S
C1573 C1571 1.389 . S
C1573 C1574 1.524 . S
C1574 C1573 1.524 . S
C1574 C1575 1.397 . S
C1574 C1579 1.363 . S
C1575 H1546 0.950 . S
C1575 C1574 1.397 . S
C1575 C1576 1.334 . S
C1576 H1547 0.950 . S
C1576 C1575 1.334 . S
C1576 C1577 1.287 . S
C1577 C1576 1.287 . S
C1577 C1578 1.524 . S
C1577 H1580 0.999 . S
C1578 H1548 0.950 . S
C1578 C1577 1.524 . S
C1578 C1579 1.415 . S
C1579 H1549 0.950 . S
C1579 C1574 1.363 . S
C1579 C1578 1.415 . S
H1580 C1577 0.999 . S
H1581 C1562 0.913 . S
H1582 C1600 0.951 . S
H1583 C1602 0.951 . S
H1584 C1604 0.950 . S
H1585 C1605 0.950 . S
H1586 C1607 0.950 . S
H1587 C1610 0.950 . S
H1588 C1611 0.950 . S
H1589 C1613 0.950 . S
H1590 C1614 0.950 . S
H1591 C1615 0.951 . S
H1592 C1617 0.951 . S
H1593 C1619 0.950 . S
H1594 C1620 0.950 . S
H1595 C1622 0.950 . S
H1596 C1625 0.950 . S
H1597 C1626 0.950 1_455 S
H1598 C1628 0.950 . S
H1599 C1629 0.950 . S
C1600 H1582 0.951 . S
C1600 C1601 1.366 . S
C1600 C1602 1.388 . S
C1601 C1600 1.366 . S
C1601 C1605 1.385 . S
C1602 H1583 0.951 . S
C1602 C1600 1.388 . S
C1602 C1603 1.366 . S
C1603 C1602 1.366 . S
C1603 C1604 1.414 . S
C1603 C1606 1.499 . S
C1604 H1584 0.950 . S
C1604 C1603 1.414 . S
C1604 C1605 1.374 . S
C1605 H1585 0.950 . S
C1605 C1601 1.385 . S
C1605 C1604 1.374 . S
C1606 C1603 1.499 . S
C1606 C1607 1.373 . S
C1606 C1608 1.389 . S
C1607 H1586 0.950 . S
C1607 C1606 1.373 . S
C1607 C1623 1.377 . S
C1608 C1606 1.389 . S
C1608 C1609 1.524 . S
C1608 C1622 1.377 . S
C1609 C1608 1.524 . S
C1609 C1610 1.397 . S
C1609 C1614 1.363 . S
C1610 H1587 0.950 . S
C1610 C1609 1.397 . S
C1610 C1611 1.334 . S
C1611 H1588 0.950 . S
C1611 C1610 1.334 . S
C1611 C1612 1.287 . S
C1612 C1611 1.287 . S
C1612 C1613 1.524 . S
C1612 H1631 0.913 . S
C1613 H1589 0.950 . S
C1613 C1612 1.524 . S
C1613 C1614 1.415 . S
C1614 H1590 0.950 . S
C1614 C1609 1.363 . S
C1614 C1613 1.415 . S
C1615 H1591 0.951 . S
C1615 C1616 1.366 . S
C1615 C1617 1.388 . S
C1616 C1615 1.366 . S
C1616 C1620 1.385 . S
C1617 H1592 0.951 . S
C1617 C1615 1.388 . S
C1617 C1618 1.366 . S
C1618 C1617 1.366 . S
C1618 C1619 1.414 . S
C1618 C1621 1.499 . S
C1619 H1593 0.950 . S
C1619 C1618 1.414 . S
C1619 C1620 1.374 . S
C1620 H1594 0.950 . S
C1620 C1616 1.385 . S
C1620 C1619 1.374 . S
C1621 C1618 1.499 . S
C1621 C1622 1.373 . S
C1621 C1623 1.389 . S
C1622 H1595 0.950 . S
C1622 C1608 1.377 . S
C1622 C1621 1.373 . S
C1623 C1607 1.377 . S
C1623 C1621 1.389 . S
C1623 C1624 1.524 . S
C1624 C1623 1.524 . S
C1624 C1625 1.397 . S
C1624 C1629 1.363 . S
C1625 H1596 0.950 . S
C1625 C1624 1.397 . S
C1625 C1626 1.334 . S
C1626 H1597 0.950 1_655 S
C1626 C1625 1.334 . S
C1626 C1627 1.287 . S
C1627 C1626 1.287 . S
C1627 C1628 1.524 . S
C1627 H1630 0.999 . S
C1628 H1598 0.950 . S
C1628 C1627 1.524 . S
C1628 C1629 1.415 . S
C1629 H1599 0.950 . S
C1629 C1624 1.363 . S
C1629 C1628 1.415 . S
H1630 C1627 0.999 . S
H1631 C1612 0.913 . S
H1632 C1650 0.951 . S
H1633 C1652 0.951 . S
H1634 C1654 0.950 . S
H1635 C1655 0.950 . S
H1636 C1657 0.950 1_545 S
H1637 C1660 0.950 . S
H1638 C1661 0.950 . S
H1639 C1663 0.950 . S
H1640 C1664 0.950 . S
H1641 C1665 0.951 . S
H1642 C1667 0.951 . S
H1643 C1669 0.950 . S
H1644 C1670 0.950 . S
H1645 C1672 0.950 . S
H1646 C1675 0.950 . S
H1647 C1676 0.950 . S
H1648 C1678 0.950 . S
H1649 C1679 0.950 . S
C1650 H1632 0.951 . S
C1650 C1651 1.366 . S
C1650 C1652 1.388 1_545 S
C1651 C1650 1.366 . S
C1651 C1655 1.385 . S
C1652 H1633 0.951 . S
C1652 C1650 1.388 1_565 S
C1652 C1653 1.366 . S
C1653 C1652 1.366 . S
C1653 C1654 1.414 1_565 S
C1653 C1656 1.499 . S
C1654 H1634 0.950 . S
C1654 C1653 1.414 1_545 S
C1654 C1655 1.374 . S
C1655 H1635 0.950 . S
C1655 C1651 1.385 . S
C1655 C1654 1.374 . S
C1656 C1653 1.499 . S
C1656 C1657 1.373 . S
C1656 C1658 1.389 . S
C1657 H1636 0.950 1_565 S
C1657 C1656 1.373 . S
C1657 C1673 1.377 . S
C1658 C1656 1.389 . S
C1658 C1659 1.524 . S
C1658 C1672 1.377 . S
C1659 C1658 1.524 . S
C1659 C1660 1.397 . S
C1659 C1664 1.363 . S
C1660 H1637 0.950 . S
C1660 C1659 1.397 . S
C1660 C1661 1.334 . S
C1661 H1638 0.950 . S
C1661 C1660 1.334 . S
C1661 C1662 1.287 . S
C1662 C1661 1.287 . S
C1662 C1663 1.524 . S
C1662 H1681 0.913 . S
C1663 H1639 0.950 . S
C1663 C1662 1.524 . S
C1663 C1664 1.415 . S
C1664 H1640 0.950 . S
C1664 C1659 1.363 . S
C1664 C1663 1.415 . S
C1665 H1641 0.951 . S
C1665 C1666 1.366 . S
C1665 C1667 1.388 . S
C1666 C1665 1.366 . S
C1666 C1670 1.385 . S
C1667 H1642 0.951 . S
C1667 C1665 1.388 . S
C1667 C1668 1.366 . S
C1668 C1667 1.366 . S
C1668 C1669 1.414 . S
C1668 C1671 1.499 . S
C1669 H1643 0.950 . S
C1669 C1668 1.414 . S
C1669 C1670 1.374 . S
C1670 H1644 0.950 . S
C1670 C1666 1.385 . S
C1670 C1669 1.374 . S
C1671 C1668 1.499 . S
C1671 C1672 1.373 . S
C1671 C1673 1.389 . S
C1672 H1645 0.950 . S
C1672 C1658 1.377 . S
C1672 C1671 1.373 . S
C1673 C1657 1.377 . S
C1673 C1671 1.389 . S
C1673 C1674 1.524 1_565 S
C1674 C1673 1.524 1_545 S
C1674 C1675 1.397 . S
C1674 C1679 1.363 . S
C1675 H1646 0.950 . S
C1675 C1674 1.397 . S
C1675 C1676 1.334 . S
C1676 H1647 0.950 . S
C1676 C1675 1.334 . S
C1676 C1677 1.287 . S
C1677 C1676 1.287 . S
C1677 C1678 1.524 . S
C1677 H1680 0.999 . S
C1678 H1648 0.950 . S
C1678 C1677 1.524 . S
C1678 C1679 1.415 . S
C1679 H1649 0.950 . S
C1679 C1674 1.363 . S
C1679 C1678 1.415 . S
H1680 C1677 0.999 . S
H1681 C1662 0.913 . S
H1682 C1700 0.951 . S
H1683 C1702 0.951 . S
H1684 C1704 0.950 . S
H1685 C1705 0.950 . S
H1686 C1707 0.950 . S
H1687 C1710 0.950 . S
H1688 C1711 0.950 . S
H1689 C1713 0.950 . S
H1690 C1714 0.950 . S
H1691 C1715 0.951 . S
H1692 C1717 0.951 . S
H1693 C1719 0.950 . S
H1694 C1720 0.950 . S
H1695 C1722 0.950 . S
H1696 C1725 0.950 . S
H1697 C1726 0.950 . S
H1698 C1728 0.950 . S
H1699 C1729 0.950 . S
C1700 H1682 0.951 . S
C1700 C1701 1.366 . S
C1700 C1702 1.388 . S
C1701 C1700 1.366 . S
C1701 C1705 1.385 . S
C1702 H1683 0.951 . S
C1702 C1700 1.388 . S
C1702 C1703 1.366 . S
C1703 C1702 1.366 . S
C1703 C1704 1.414 . S
C1703 C1706 1.499 . S
C1704 H1684 0.950 . S
C1704 C1703 1.414 . S
C1704 C1705 1.374 . S
C1705 H1685 0.950 . S
C1705 C1701 1.385 . S
C1705 C1704 1.374 . S
C1706 C1703 1.499 . S
C1706 C1707 1.373 . S
C1706 C1708 1.389 . S
C1707 H1686 0.950 . S
C1707 C1706 1.373 . S
C1707 C1723 1.377 . S
C1708 C1706 1.389 . S
C1708 C1709 1.524 . S
C1708 C1722 1.377 . S
C1709 C1708 1.524 . S
C1709 C1710 1.397 . S
C1709 C1714 1.363 . S
C1710 H1687 0.950 . S
C1710 C1709 1.397 . S
C1710 C1711 1.334 . S
C1711 H1688 0.950 . S
C1711 C1710 1.334 . S
C1711 C1712 1.287 . S
C1712 C1711 1.287 . S
C1712 C1713 1.524 . S
C1712 H1731 0.913 . S
C1713 H1689 0.950 . S
C1713 C1712 1.524 . S
C1713 C1714 1.415 . S
C1714 H1690 0.950 . S
C1714 C1709 1.363 . S
C1714 C1713 1.415 . S
C1715 H1691 0.951 . S
C1715 C1716 1.366 . S
C1715 C1717 1.388 . S
C1716 C1715 1.366 . S
C1716 C1720 1.385 . S
C1717 H1692 0.951 . S
C1717 C1715 1.388 . S
C1717 C1718 1.366 . S
C1718 C1717 1.366 . S
C1718 C1719 1.414 . S
C1718 C1721 1.499 . S
C1719 H1693 0.950 . S
C1719 C1718 1.414 . S
C1719 C1720 1.374 . S
C1720 H1694 0.950 . S
C1720 C1716 1.385 . S
C1720 C1719 1.374 . S
C1721 C1718 1.499 . S
C1721 C1722 1.373 . S
C1721 C1723 1.389 . S
C1722 H1695 0.950 . S
C1722 C1708 1.377 . S
C1722 C1721 1.373 . S
C1723 C1707 1.377 . S
C1723 C1721 1.389 . S
C1723 C1724 1.524 . S
C1724 C1723 1.524 . S
C1724 C1725 1.397 . S
C1724 C1729 1.363 . S
C1725 H1696 0.950 . S
C1725 C1724 1.397 . S
C1725 C1726 1.334 . S
C1726 H1697 0.950 . S
C1726 C1725 1.334 . S
C1726 C1727 1.287 . S
C1727 C1726 1.287 . S
C1727 C1728 1.524 . S
C1727 H1730 0.999 . S
C1728 H1698 0.950 . S
C1728 C1727 1.524 . S
C1728 C1729 1.415 . S
C1729 H1699 0.950 . S
C1729 C1724 1.363 . S
C1729 C1728 1.415 . S
H1730 C1727 0.999 . S
H1731 C1712 0.913 . S
H1732 C1750 0.951 . S
H1733 C1752 0.951 . S
H1734 C1754 0.950 . S
H1735 C1755 0.950 . S
H1736 C1757 0.950 . S
H1737 C1760 0.950 . S
H1738 C1761 0.950 . S
H1739 C1763 0.950 . S
H1740 C1764 0.950 . S
H1741 C1765 0.951 . S
H1742 C1767 0.951 . S
H1743 C1769 0.950 . S
H1744 C1770 0.950 . S
H1745 C1772 0.950 . S
H1746 C1775 0.950 . S
H1747 C1776 0.950 . S
H1748 C1778 0.950 . S
H1749 C1779 0.950 . S
C1750 H1732 0.951 . S
C1750 C1751 1.366 . S
C1750 C1752 1.388 . S
C1751 C1750 1.366 . S
C1751 C1755 1.385 . S
C1752 H1733 0.951 . S
C1752 C1750 1.388 . S
C1752 C1753 1.366 . S
C1753 C1752 1.366 . S
C1753 C1754 1.414 . S
C1753 C1756 1.499 . S
C1754 H1734 0.950 . S
C1754 C1753 1.414 . S
C1754 C1755 1.374 . S
C1755 H1735 0.950 . S
C1755 C1751 1.385 . S
C1755 C1754 1.374 . S
C1756 C1753 1.499 . S
C1756 C1757 1.373 . S
C1756 C1758 1.389 . S
C1757 H1736 0.950 . S
C1757 C1756 1.373 . S
C1757 C1773 1.377 . S
C1758 C1756 1.389 . S
C1758 C1759 1.524 . S
C1758 C1772 1.377 . S
C1759 C1758 1.524 . S
C1759 C1760 1.397 . S
C1759 C1764 1.363 . S
C1760 H1737 0.950 . S
C1760 C1759 1.397 . S
C1760 C1761 1.334 . S
C1761 H1738 0.950 . S
C1761 C1760 1.334 . S
C1761 C1762 1.287 . S
C1762 C1761 1.287 . S
C1762 C1763 1.524 . S
C1762 H1781 0.913 . S
C1763 H1739 0.950 . S
C1763 C1762 1.524 . S
C1763 C1764 1.415 . S
C1764 H1740 0.950 . S
C1764 C1759 1.363 . S
C1764 C1763 1.415 . S
C1765 H1741 0.951 . S
C1765 C1766 1.366 . S
C1765 C1767 1.388 . S
C1766 C1765 1.366 . S
C1766 C1770 1.385 . S
C1767 H1742 0.951 . S
C1767 C1765 1.388 . S
C1767 C1768 1.366 . S
C1768 C1767 1.366 . S
C1768 C1769 1.414 . S
C1768 C1771 1.499 . S
C1769 H1743 0.950 . S
C1769 C1768 1.414 . S
C1769 C1770 1.374 . S
C1770 H1744 0.950 . S
C1770 C1766 1.385 . S
C1770 C1769 1.374 . S
C1771 C1768 1.499 . S
C1771 C1772 1.373 . S
C1771 C1773 1.389 . S
C1772 H1745 0.950 . S
C1772 C1758 1.377 . S
C1772 C1771 1.373 . S
C1773 C1757 1.377 . S
C1773 C1771 1.389 . S
C1773 C1774 1.524 . S
C1774 C1773 1.524 . S
C1774 C1775 1.397 . S
C1774 C1779 1.363 . S
C1775 H1746 0.950 . S
C1775 C1774 1.397 . S
C1775 C1776 1.334 . S
C1776 H1747 0.950 . S
C1776 C1775 1.334 . S
C1776 C1777 1.287 . S
C1777 C1776 1.287 . S
C1777 C1778 1.524 . S
C1777 H1780 0.999 . S
C1778 H1748 0.950 . S
C1778 C1777 1.524 . S
C1778 C1779 1.415 . S
C1779 H1749 0.950 . S
C1779 C1774 1.363 . S
C1779 C1778 1.415 . S
H1780 C1777 0.999 . S
H1781 C1762 0.913 . S
C601 C7 2.373 . S
C616 C201 2.333 . S
C651 C30 1.263 . S
C666 C275 1.239 . S
C716 C325 1.802 . S
C701 N58 1.818 . S
C766 C411 1.038 . S
C751 N81 0.996 . S
C816 C503 2.073 . S
C801 C99 2.071 . S
C866 C547 1.700 . S
C851 N127 1.710 . S
C901 N25 1.110 . S
C916 C349 1.104 . S
C951 C62 2.556 . S
C966 C429 2.524 . S
C1016 C485 1.457 . S
C1001 C85 1.433 . S
C1066 C571 1.232 . S
C1051 N94 1.238 . S
C1101 C131 2.384 . S
C1116 C177 2.262 . S
C1166 C251 1.744 . S
C1151 N2 1.695 . S
C1216 C423 2.040 . S
C1201 C16 2.209 . S
C1251 C39 1.984 . S
C1266 C473 1.883 . S
C1316 C577 2.310 . S
C1301 N48 2.301 . S
C1351 N71 1.242 . S
C1366 C189 1.238 . S
C1401 C108 1.872 . S
C1416 C263 1.836 . S
C1451 N117 2.093 . S
C1466 C355 2.109 . S
C1501 N35 1.789 . S
C1516 C559 1.780 . S
C1566 C207 2.240 . S
C1551 C53 2.256 . S
C1601 C76 2.479 . S
C1616 C281 2.396 . S
C1651 N104 1.389 . S
C1666 C337 1.386 . S
C1701 C122 1.715 . S
C1716 C399 1.589 . S
C1751 N12 1.722 . S
C1766 C497 1.666 . S
