# Generated by pormake.
# Topology zzz, (3,6)-cn, num edge types: 1
# Building blocks:
#     Node 0, Type 0, BuildingBlock: ESEHIV_clean_linker_0, # of connection points: 3
#     Node 1, Type 0, BuildingBlock: ESEHIV_clean_linker_0, # of connection points: 3
#     Node 2, Type 0, BuildingBlock: ESEHIV_clean_linker_0, # of connection points: 3
#     Node 3, Type 0, BuildingBlock: ESEHIV_clean_linker_0, # of connection points: 3
#     Node 4, Type 0, BuildingBlock: ESEHIV_clean_linker_0, # of connection points: 3
#     Node 5, Type 0, BuildingBlock: ESEHIV_clean_linker_0, # of connection points: 3
#     Node 6, Type 0, BuildingBlock: ESEHIV_clean_linker_0, # of connection points: 3
#     Node 7, Type 0, BuildingBlock: ESEHIV_clean_linker_0, # of connection points: 3
#     Node 8, Type 1, BuildingBlock: BETFEN_clean_sbu_0, # of connection points: 6
#     Node 9, Type 1, BuildingBlock: BETFEN_clean_sbu_0, # of connection points: 6
#     Node 10, Type 1, BuildingBlock: BETFEN_clean_sbu_0, # of connection points: 6
#     Node 11, Type 1, BuildingBlock: BETFEN_clean_sbu_0, # of connection points: 6
#     Edge 12, Type (0, 1), BuildingBlock: EZIPEK_clean_linker_0, # of connection points: 2
#     Edge 13, Type (0, 1), BuildingBlock: EZIPEK_clean_linker_0, # of connection points: 2
#     Edge 14, Type (0, 1), BuildingBlock: EZIPEK_clean_linker_0, # of connection points: 2
#     Edge 15, Type (0, 1), BuildingBlock: EZIPEK_clean_linker_0, # of connection points: 2
#     Edge 16, Type (0, 1), BuildingBlock: EZIPEK_clean_linker_0, # of connection points: 2
#     Edge 17, Type (0, 1), BuildingBlock: EZIPEK_clean_linker_0, # of connection points: 2
#     Edge 18, Type (0, 1), BuildingBlock: EZIPEK_clean_linker_0, # of connection points: 2
#     Edge 19, Type (0, 1), BuildingBlock: EZIPEK_clean_linker_0, # of connection points: 2
#     Edge 20, Type (0, 1), BuildingBlock: EZIPEK_clean_linker_0, # of connection points: 2
#     Edge 21, Type (0, 1), BuildingBlock: EZIPEK_clean_linker_0, # of connection points: 2
#     Edge 22, Type (0, 1), BuildingBlock: EZIPEK_clean_linker_0, # of connection points: 2
#     Edge 23, Type (0, 1), BuildingBlock: EZIPEK_clean_linker_0, # of connection points: 2
#     Edge 24, Type (0, 1), BuildingBlock: EZIPEK_clean_linker_0, # of connection points: 2
#     Edge 25, Type (0, 1), BuildingBlock: EZIPEK_clean_linker_0, # of connection points: 2
#     Edge 26, Type (0, 1), BuildingBlock: EZIPEK_clean_linker_0, # of connection points: 2
#     Edge 27, Type (0, 1), BuildingBlock: EZIPEK_clean_linker_0, # of connection points: 2
#     Edge 28, Type (0, 1), BuildingBlock: EZIPEK_clean_linker_0, # of connection points: 2
#     Edge 29, Type (0, 1), BuildingBlock: EZIPEK_clean_linker_0, # of connection points: 2
#     Edge 30, Type (0, 1), BuildingBlock: EZIPEK_clean_linker_0, # of connection points: 2
#     Edge 31, Type (0, 1), BuildingBlock: EZIPEK_clean_linker_0, # of connection points: 2
#     Edge 32, Type (0, 1), BuildingBlock: EZIPEK_clean_linker_0, # of connection points: 2
#     Edge 33, Type (0, 1), BuildingBlock: EZIPEK_clean_linker_0, # of connection points: 2
#     Edge 34, Type (0, 1), BuildingBlock: EZIPEK_clean_linker_0, # of connection points: 2
#     Edge 35, Type (0, 1), BuildingBlock: EZIPEK_clean_linker_0, # of connection points: 2
# Relax obj value: 0.639
# Max RMSD: 0.272
# Mean RMSD: 0.252
data_MOF--net-zzz--node1-BETFEN_clean_sbu_0--node2-ESEHIV_clean_linker_0--edge1-EZIPEK_clean_linker_0
_symmetry_space_group_name_H-M    P1
_symmetry_Int_Tables_number       1
_symmetry_cell_setting            triclinic
loop_
_symmetry_equiv_pos_as_xyz
'x, y, z'
_cell_length_a     32.697976
_cell_length_b     32.768585
_cell_length_c     10.759897
_cell_angle_alpha  89.863312
_cell_angle_beta   89.688933
_cell_angle_gamma 90.040035
loop_
_atom_site_label
_atom_site_type_symbol
_atom_site_fract_x
_atom_site_fract_y
_atom_site_fract_z
_atom_type_partial_charge
H0 H 0.826 0.46475 0.27296 0.0
H1 H 0.70812 0.46918 0.10314 0.0
H2 H 0.74394 0.56467 0.35644 0.0
C3 C 0.79716 0.48056 0.26023 0.0
C4 C 0.78907 0.51626 0.3283 0.0
C5 C 0.76783 0.46334 0.18191 0.0
C6 C 0.7304 0.48286 0.16488 0.0
C7 C 0.72166 0.52023 0.22136 0.0
C8 C 0.75089 0.53679 0.30694 0.0
H9 H 0.08485 0.82886 0.27692 0.0
H10 H 0.07033 0.70659 0.14444 0.0
H11 H 0.97626 0.76061 0.37382 0.0
C12 C 0.06684 0.80107 0.27336 0.0
C13 C 0.03098 0.79816 0.34617 0.0
C14 C 0.08077 0.76839 0.19947 0.0
C15 C 0.05864 0.73217 0.19783 0.0
C16 C 0.01935 0.73015 0.24884 0.0
C17 C 1.00577 0.76272 0.32818 0.0
H18 H 0.73496 0.92999 0.41863 0.0
H19 H 0.84454 0.93291 0.19785 0.0
H20 H 0.80933 0.0382 0.41201 0.0
C21 C 0.76227 0.94559 0.38716 0.0
C22 C 0.76801 0.98578 0.42812 0.0
C23 C 0.78793 0.92704 0.2981 0.0
C24 C 0.8242 0.94707 0.26487 0.0
C25 C 0.8317 0.98747 0.30009 0.0
C26 C 0.80373 1.00699 0.38419 0.0
H27 H 0.43594 0.70308 0.22011 0.0
H28 H 0.54164 0.77694 0.30762 0.0
H29 H 0.45153 0.81982 0.04663 0.0
C30 C 0.45391 0.73067 0.20863 0.0
C31 C 0.44024 0.76088 0.12541 0.0
C32 C 0.48973 0.73604 0.27973 0.0
C33 C 0.51335 0.77222 0.25786 0.0
C34 C 0.49988 0.80221 0.1704 0.0
C35 C 0.46254 0.79668 0.11068 0.0
H36 H 0.197 0.59371 0.35354 0.0
H37 H 0.31186 0.57583 0.5335 0.0
H38 H 0.27702 0.49643 0.23206 0.0
C39 C 0.22481 0.57596 0.36301 0.0
C40 C 0.23194 0.54274 0.28271 0.0
C41 C 0.2539 0.58811 0.45105 0.0
C42 C 0.28965 0.56577 0.46543 0.0
C43 C 0.29878 0.53257 0.38861 0.0
C44 C 0.26989 0.52119 0.29498 0.0
H45 H 0.94473 0.22569 0.24325 0.0
H46 H 0.94538 0.34398 0.41274 0.0
H47 H 0.0553 0.297 0.24 0.0
C48 C 0.96075 0.25382 0.26441 0.0
C49 C 1.00099 0.25878 0.22161 0.0
C50 C 0.94089 0.28376 0.33559 0.0
C51 C 0.96123 0.32035 0.36106 0.0
C52 C 1.00311 0.32474 0.33527 0.0
C53 C 0.02311 0.29402 0.26218 0.0
H54 H 0.32795 0.96419 0.30011 0.0
H55 H 0.21011 0.97868 0.46781 0.0
H56 H 0.25134 0.06567 0.19158 0.0
C57 C 0.29991 0.98168 0.30833 0.0
C58 C 0.29424 0.01631 0.23256 0.0
C59 C 0.26955 0.96823 0.39145 0.0
C60 C 0.23327 0.9898 0.4034 0.0
C61 C 0.22646 0.02564 0.33617 0.0
C62 C 0.2568 0.03875 0.24756 0.0
H63 H 0.58813 0.31806 0.12014 0.0
H64 H 0.48291 0.24585 0.22002 0.0
H65 H 0.59046 0.24499 0.45026 0.0
C66 C 0.57341 0.29594 0.18092 0.0
C67 C 0.59356 0.28348 0.28855 0.0
C68 C 0.53193 0.28752 0.16513 0.0
C69 C 0.51395 0.25555 0.23817 0.0
C70 C 0.53679 0.23723 0.3369 0.0
C71 C 0.5748 0.25477 0.36673 0.0
Pr72 Pr 0.05442 0.02001 0.8444 0.0
Pr73 Pr 0.99116 0.04358 0.70527 0.0
C74 C 0.11346 0.98248 0.97625 0.0
C75 C 0.13034 0.94102 0.97175 0.0
C76 C 0.17244 0.9338 0.98513 0.0
C77 C 0.18766 0.89378 0.98277 0.0
C78 C 0.16097 0.8606 0.96493 0.0
C79 C 0.1191 0.86885 0.94488 0.0
C80 C 0.10411 0.90828 0.94925 0.0
C81 C 0.08452 0.05652 0.6225 0.0
C82 C 0.01839 0.94993 0.64924 0.0
C83 C 0.93725 0.07813 0.5481 0.0
C84 C 0.90497 0.10893 0.54368 0.0
C85 C 0.88426 0.11543 0.43236 0.0
C86 C 0.85935 0.14963 0.41805 0.0
C87 C 0.85499 0.1786 0.51491 0.0
C88 C 0.872 0.16839 0.6318 0.0
C89 C 0.89723 0.13431 0.64528 0.0
C90 C 0.95858 1.01331 0.93228 0.0
C91 C 0.02635 0.1124 0.91354 0.0
O92 O 0.07561 0.98566 1.01462 0.0
O93 O 0.12116 1.00519 0.87966 0.0
O94 O 0.05645 0.02979 0.62964 0.0
O95 O 0.09408 0.06786 0.73402 0.0
O96 O 1.00376 0.9825 0.5937 0.0
O97 O 0.03328 0.95505 0.76218 0.0
O98 O 0.97448 0.09172 0.56387 0.0
O99 O 0.92943 0.045 0.61126 0.0
O100 O 0.9895 0.03655 0.92225 0.0
O101 O 0.94692 1.00174 0.82278 0.0
O102 O 0.04808 0.08143 0.95435 0.0
O103 O 1.00446 0.10731 0.81098 0.0
H104 H 0.19341 0.95896 0.99912 0.0
H105 H 0.22 0.88894 0.9967 0.0
H106 H 0.09689 0.84491 0.93081 0.0
H107 H 0.07163 0.91294 0.93644 0.0
H108 H 0.88937 0.09544 0.35362 0.0
H109 H 0.84658 0.15446 0.32692 0.0
H110 H 0.8689 0.18817 0.71136 0.0
H111 H 0.91259 0.1292 0.7329 0.0
Pr112 Pr 0.54144 0.04691 0.88008 0.0
Pr113 Pr 0.5098 1.00038 0.69695 0.0
C114 C 0.59246 0.06657 0.06249 0.0
C115 C 0.61857 0.03358 0.10983 0.0
C116 C 0.65966 0.04005 0.13912 0.0
C117 C 0.68591 1.00655 0.15282 0.0
C118 C 0.67187 0.96651 0.13125 0.0
C119 C 0.63101 0.96042 0.10024 0.0
C120 C 0.60453 0.99344 0.09434 0.0
C121 C 0.51619 0.1004 0.68705 0.0
C122 C 0.60745 1.01265 0.66759 0.0
C123 C 0.46662 0.96225 0.52047 0.0
C124 C 0.43497 0.93083 0.52865 0.0
C125 C 0.42445 0.91358 0.64393 0.0
C126 C 0.38991 0.88866 0.65493 0.0
C127 C 0.36544 0.88065 0.55045 0.0
C128 C 0.37997 0.89378 0.43245 0.0
C129 C 0.41366 0.91947 0.42253 0.0
C130 C 0.53561 0.94753 0.89176 0.0
C131 C 0.44396 0.032 0.92215 0.0
O132 O 0.55331 0.06196 0.08314 0.0
O133 O 0.60027 0.07624 0.94725 0.0
O134 O 0.53432 0.06649 0.67152 0.0
O135 O 0.51023 0.10703 0.8048 0.0
O136 O 0.57434 1.00939 0.59928 0.0
O137 O 0.60205 0.01907 0.78765 0.0
O138 O 0.45645 0.99809 0.56391 0.0
O139 O 0.50297 0.95061 0.55456 0.0
O140 O 0.51612 0.98072 0.90384 0.0
O141 O 0.54306 0.94208 0.77481 0.0
O142 O 0.47698 0.04507 0.97897 0.0
O143 O 0.4478 0.01717 0.80799 0.0
H144 H 0.67172 0.07074 0.14625 0.0
H145 H 0.71784 1.01185 0.17318 0.0
H146 H 0.61976 0.9302 0.07849 0.0
H147 H 0.5734 0.98794 0.06886 0.0
H148 H 0.44164 0.92123 0.72637 0.0
H149 H 0.3807 0.87836 0.74651 0.0
H150 H 0.3634 0.88785 0.34769 0.0
H151 H 0.42166 0.93205 0.33256 0.0
Pr152 Pr 0.48518 0.53033 0.84242 0.0
Pr153 Pr 0.54472 0.50699 0.71172 0.0
C154 C 0.42921 0.56809 0.98515 0.0
C155 C 0.39817 0.59995 0.9745 0.0
C156 C 0.37854 0.60935 0.86222 0.0
C157 C 0.35426 0.64453 0.85361 0.0
C158 C 0.34875 0.67 0.95799 0.0
C159 C 0.3641 0.65636 0.07349 0.0
C160 C 0.39044 0.6234 0.07905 0.0
C161 C 0.45015 0.49644 0.62497 0.0
C162 C 0.5162 0.5959 0.62224 0.0
C163 C 0.60597 0.46812 0.59501 0.0
C164 C 0.63571 0.43576 0.62419 0.0
C165 C 0.67757 0.44263 0.60338 0.0
C166 C 0.70344 0.40942 0.58133 0.0
C167 C 0.68656 0.37036 0.57035 0.0
C168 C 0.64859 0.36311 0.62882 0.0
C169 C 0.62245 0.39593 0.65136 0.0
C170 C 0.57735 0.54363 0.93026 0.0
C171 C 0.50357 0.43631 0.89537 0.0
O172 O 0.46723 0.5801 0.97711 0.0
O173 O 0.42214 0.53382 0.9282 0.0
O174 O 0.48035 0.52081 0.62738 0.0
O175 O 0.44117 0.48552 0.73754 0.0
O176 O 0.53302 0.56265 0.57726 0.0
O177 O 0.50041 0.59344 0.73562 0.0
O178 O 0.56767 0.45741 0.58469 0.0
O179 O 0.61095 0.50343 0.6479 0.0
O180 O 0.54925 0.51679 0.92729 0.0
O181 O 0.58471 0.55536 0.8174 0.0
O182 O 0.49311 0.46943 0.95554 0.0
O183 O 0.52172 0.44219 0.78734 0.0
H184 H 0.38404 0.59113 0.77996 0.0
H185 H 0.34239 0.65334 0.76374 0.0
H186 H 0.36008 0.67342 0.15845 0.0
H187 H 0.40717 0.61783 0.16335 0.0
H188 H 0.68919 0.47326 0.58927 0.0
H189 H 0.73387 0.41491 0.54661 0.0
H190 H 0.63548 0.33272 0.6297 0.0
H191 H 0.59081 0.3897 0.67487 0.0
Pr192 Pr 0.99677 0.49882 0.87571 0.0
Pr193 Pr 0.02441 0.55617 0.73042 0.0
C194 C 0.95884 0.44393 0.02434 0.0
C195 C 0.92896 0.41084 0.01681 0.0
C196 C 0.91417 0.39755 0.90198 0.0
C197 C 0.87865 0.37389 0.89698 0.0
C198 C 0.85724 0.36382 1.00718 0.0
C199 C 0.87738 0.37066 0.12168 0.0
C200 C 0.91238 0.39484 0.12627 0.0
C201 C 0.03436 0.4601 0.66667 0.0
C202 C 0.93287 0.53073 0.65526 0.0
C203 C 0.06284 0.61081 0.58264 0.0
C204 C 0.09359 0.64293 0.59368 0.0
C205 C 0.11248 0.6581 0.48657 0.0
C206 C 0.14814 0.68114 0.49609 0.0
C207 C 0.16641 0.68785 0.61351 0.0
C208 C 0.14325 0.67807 0.72059 0.0
C209 C 0.10713 0.65563 0.7105 0.0
C210 C 0.98584 0.59412 0.93923 0.0
C211 C 0.08833 0.52606 0.95231 0.0
O212 O 0.94504 0.48086 1.00604 0.0
O213 O 0.99398 0.43747 0.9707 0.0
O214 O 1.00979 0.4901 0.66174 0.0
O215 O 0.0426 0.45308 0.78208 0.0
O216 O 0.96744 0.54241 0.60385 0.0
O217 O 0.93446 0.51768 0.77173 0.0
O218 O 0.07577 0.57342 0.59814 0.0
O219 O 0.02784 0.6177 0.63681 0.0
O220 O 1.01105 0.56469 0.94398 0.0
O221 O 0.97786 0.60146 0.8237 0.0
O222 O 0.05408 0.51258 1.00189 0.0
O223 O 0.08679 0.53992 0.83688 0.0
H224 H 0.92848 0.40771 0.8165 0.0
H225 H 0.86602 0.36709 0.80672 0.0
H226 H 0.86409 0.36137 0.20962 0.0
H227 H 0.92472 0.40337 0.21584 0.0
H228 H 0.10137 0.64972 0.39536 0.0
H229 H 0.16331 0.68952 0.41012 0.0
H230 H 0.15477 0.68443 0.81257 0.0
H231 H 0.09129 0.64587 0.79385 0.0
C232 C 0.14914 0.02629 0.33933 0.0
C233 C 0.18648 0.04686 0.36659 0.0
C234 C 0.1493 0.08702 0.52532 0.0
C235 C 0.11492 0.06055 0.51509 0.0
N236 N 0.07553 0.02113 0.3702 0.0
N237 N 0.22153 0.09872 0.48247 0.0
C238 C 0.1127 0.03507 0.40882 0.0
C239 C 0.18601 0.07863 0.45638 0.0
N240 N 0.14945 0.99592 0.25291 0.0
N241 N 0.14601 0.12136 0.59628 0.0
H242 H 0.24823 0.09448 0.43067 0.0
H243 H 0.22504 0.1181 0.55819 0.0
H244 H 0.11842 0.13 0.63771 0.0
H245 H 0.16857 0.14371 0.60109 0.0
H246 H 0.12571 0.97502 0.24272 0.0
H247 H 0.17485 0.99048 0.19624 0.0
H248 H 0.07131 1.00479 0.2884 0.0
H249 H 0.04822 0.03081 0.41093 0.0
C250 C 0.55505 0.16796 0.42057 0.0
C251 C 0.52496 0.19906 0.41003 0.0
C252 C 0.48482 0.16172 0.5706 0.0
C253 C 0.51845 0.13498 0.5931 0.0
N254 N 0.59143 0.12745 0.56974 0.0
N255 N 0.46287 0.22817 0.49346 0.0
C256 C 0.55517 0.14193 0.52602 0.0
C257 C 0.48997 0.19658 0.48957 0.0
N258 N 0.58438 0.1637 0.33087 0.0
N259 N 0.44797 0.15389 0.62578 0.0
H260 H 0.466 0.25411 0.43807 0.0
H261 H 0.43925 0.22998 0.55857 0.0
H262 H 0.44339 0.12917 0.68559 0.0
H263 H 0.42142 0.16992 0.60423 0.0
H264 H 0.60568 0.14001 0.3324 0.0
H265 H 0.5844 0.1811 0.24944 0.0
H266 H 0.61941 0.13608 0.53059 0.0
H267 H 0.59389 0.11118 0.6528 0.0
C268 C 0.37571 0.53992 0.39004 0.0
C269 C 0.34093 0.51419 0.40683 0.0
C270 C 0.38442 0.46772 0.53135 0.0
C271 C 0.41722 0.49636 0.52549 0.0
N272 N 0.44918 0.54717 0.39515 0.0
N273 N 0.31258 0.45227 0.49091 0.0
C274 C 0.41453 0.52855 0.43811 0.0
C275 C 0.34578 0.47702 0.47399 0.0
N276 N 0.37105 0.57748 0.3377 0.0
N277 N 0.39105 0.43099 0.58805 0.0
H278 H 0.28464 0.4578 0.44783 0.0
H279 H 0.312 0.42714 0.55008 0.0
H280 H 0.41969 0.42288 0.62272 0.0
H281 H 0.37001 0.4072 0.59036 0.0
H282 H 0.39188 0.6009 0.35475 0.0
H283 H 0.34493 0.58604 0.28875 0.0
H284 H 0.44885 0.56956 0.32611 0.0
H285 H 0.47824 0.53585 0.41423 0.0
C286 C 0.02248 0.39969 0.35748 0.0
C287 C 0.02461 0.35911 0.40318 0.0
C288 C 0.05187 0.38689 0.5991 0.0
C289 C 0.03883 0.42711 0.5664 0.0
N290 N 0.01935 0.47252 0.39995 0.0
N291 N 0.0411 0.31416 0.57317 0.0
C292 C 0.02668 0.43376 0.44074 0.0
C293 C 0.03957 0.35277 0.52536 0.0
N294 N 0.01809 0.40562 0.23304 0.0
N295 N 0.07814 0.38121 0.69574 0.0
H296 H 0.03409 0.28831 0.52102 0.0
H297 H 0.04691 0.30823 0.66666 0.0
H298 H 0.09285 0.40541 0.73946 0.0
H299 H 0.09041 0.35283 0.71847 0.0
H300 H 0.0228 0.43389 0.19116 0.0
H301 H 1.01478 0.38133 0.17124 0.0
H302 H 1.00466 0.47905 0.31656 0.0
H303 H 0.0282 0.49825 0.44979 0.0
C304 C 0.85648 0.0256 0.10858 0.0
C305 C 0.86554 1.00844 0.22682 0.0
C306 C 0.93787 1.00055 0.15996 0.0
C307 C 0.92826 0.01592 0.03976 0.0
N308 N 0.8819 0.0567 0.91816 0.0
N309 N 0.91649 0.98993 0.37528 0.0
C310 C 0.88859 0.03269 0.01997 0.0
C311 C 0.90695 0.99956 0.25564 0.0
N312 N 0.81669 0.03315 0.07807 0.0
N313 N 0.97593 0.98493 0.18095 0.0
H314 H 0.89425 0.98865 0.44523 0.0
H315 H 0.94638 0.98744 0.407 0.0
H316 H 0.99916 0.98593 0.11428 0.0
H317 H 0.98387 0.96909 0.26125 0.0
H318 H 0.80728 0.04017 0.98821 0.0
H319 H 0.79273 0.03025 0.14182 0.0
H320 H 0.85489 0.07283 0.90379 0.0
H321 H 0.90506 0.06428 0.85529 0.0
C322 C 0.51336 0.87771 0.17991 0.0
C323 C 0.5236 0.83933 0.12911 0.0
C324 C 0.55683 0.87506 0.95407 0.0
C325 C 0.53709 0.91253 0.98693 0.0
N326 N 0.50041 0.94968 0.14874 0.0
N327 N 0.55594 0.80109 0.96601 0.0
C328 C 0.51702 0.91413 0.10595 0.0
C329 C 0.54609 0.83802 0.01648 0.0
N330 N 0.50049 0.87917 0.30048 0.0
N331 N 0.58737 0.87485 0.86724 0.0
H332 H 0.5506 0.77358 1.0125 0.0
H333 H 0.56733 0.79781 0.87594 0.0
H334 H 0.59905 0.90143 0.82821 0.0
H335 H 0.60496 0.84916 0.84735 0.0
H336 H 0.49812 0.90624 0.34986 0.0
H337 H 0.49711 0.85292 0.35478 0.0
H338 H 0.48038 0.95102 0.22397 0.0
H339 H 0.50622 0.97824 0.11107 0.0
C340 C 0.6439 0.52069 0.21893 0.0
C341 C 0.68139 0.53961 0.18236 0.0
C342 C 0.64374 0.57476 1.01444 0.0
C343 C 0.60912 0.54891 0.03357 0.0
N344 N 0.57037 0.51255 0.18893 0.0
N345 N 0.71655 0.58578 0.0446 0.0
C346 C 0.60736 0.52632 0.14667 0.0
C347 C 0.68087 0.56766 0.08153 0.0
N348 N 0.64403 0.4956 0.32011 0.0
N349 N 0.64034 0.60782 0.93772 0.0
H350 H 0.74368 0.58274 0.09432 0.0
H351 H 0.71967 0.60198 0.96168 0.0
H352 H 0.6125 0.61656 0.89907 0.0
H353 H 0.66325 0.62965 0.92685 0.0
H354 H 0.62018 0.47597 0.34304 0.0
H355 H 0.66937 0.49336 0.37824 0.0
H356 H 0.56596 0.49799 0.27396 0.0
H357 H 0.54299 0.52023 0.14569 0.0
C358 C 0.97428 0.7005 0.08102 0.0
C359 C 0.99348 0.69568 0.19821 0.0
C360 C 0.99474 0.62093 0.16395 0.0
C361 C 0.98003 0.62645 0.04049 0.0
N362 N 0.93494 0.66856 0.91765 0.0
N363 N 1.00691 0.65077 0.36771 0.0
C364 C 0.96318 0.66535 1.01005 0.0
C365 C 0.99896 0.6556 0.2447 0.0
N366 N 0.96819 0.7388 0.03458 0.0
N367 N 1.00475 0.58277 0.20459 0.0
H368 H 1.01048 0.67571 0.42698 0.0
H369 H 1.00453 0.6226 0.41166 0.0
H370 H 0.99594 0.55644 0.1576 0.0
H371 H 0.02131 0.57729 0.28536 0.0
H372 H 0.95934 0.74428 0.94314 0.0
H373 H 0.97407 0.76506 0.08621 0.0
H374 H 0.91981 0.69569 0.89688 0.0
H375 H 0.92212 0.64302 0.87529 0.0
C376 C 0.89226 0.27376 0.51992 0.0
C377 C 0.8996 0.27427 0.38848 0.0
C378 C 0.8377 0.23298 0.36173 0.0
C379 C 0.84137 0.22184 0.48743 0.0
N380 N 0.84106 0.2589 0.67851 0.0
N381 N 0.87197 0.26334 0.18303 0.0
C382 C 0.85747 0.25244 0.56387 0.0
C383 C 0.869 0.25782 0.30842 0.0
N384 N 0.91972 0.28868 0.60343 0.0
N385 N 0.80568 0.21804 0.29555 0.0
H386 H 0.89321 0.28337 0.14345 0.0
H387 H 0.8544 0.24729 0.11925 0.0
H388 H 0.78354 0.19979 0.33887 0.0
H389 H 0.80057 0.22452 0.20227 0.0
H390 H 0.91576 0.28509 0.6991 0.0
H391 H 0.94785 0.30121 0.5796 0.0
H392 H 0.85061 0.28263 0.73604 0.0
H393 H 0.8158 0.24199 0.70904 0.0
C394 C 0.28218 0.93058 0.5932 0.0
C395 C 0.27545 0.93003 0.4625 0.0
C396 C 0.3005 0.86004 0.45737 0.0
C397 C 0.32133 0.86906 0.56752 0.0
N398 N 0.29771 0.88723 0.77057 0.0
N399 N 0.26548 0.88719 0.28058 0.0
C400 C 0.30007 0.89552 0.64714 0.0
C401 C 0.27933 0.89226 0.39829 0.0
N402 N 0.2747 0.96441 0.66312 0.0
N403 N 0.30772 0.82401 0.39995 0.0
H404 H 0.24934 0.90962 0.23226 0.0
H405 H 0.24934 0.90962 0.23226 0.0
H406 H 0.32494 0.80151 0.44445 0.0
H407 H 0.29665 0.81758 0.31149 0.0
H408 H 0.28262 0.966 0.75676 0.0
H409 H 0.26262 0.99122 0.62639 0.0
H410 H 0.2786 0.90368 0.82991 0.0
H411 H 0.31163 0.86123 0.80764 0.0
C412 C 0.63375 0.34825 0.3192 0.0
C413 C 0.63146 0.30498 0.32794 0.0
C414 C 0.69371 0.30579 0.45373 0.0
C415 C 0.69237 0.3488 0.4503 0.0
N416 N 0.6797 0.4051 0.31037 0.0
N417 N 0.66945 0.24251 0.36232 0.0
C418 C 0.67038 0.36712 0.35279 0.0
C419 C 0.66513 0.28341 0.38083 0.0
N420 N 0.60015 0.37201 0.29797 0.0
N421 N 0.71965 0.28714 0.53437 0.0
H422 H 0.64978 0.2262 0.30475 0.0
H423 H 0.69463 0.22605 0.39379 0.0
H424 H 0.74041 0.3042 0.58651 0.0
H425 H 0.71947 0.25583 0.55138 0.0
H426 H 0.60151 0.40382 0.29894 0.0
H427 H 0.57038 0.36073 0.29876 0.0
H428 H 0.66409 0.41814 0.2358 0.0
H429 H 0.70483 0.42135 0.34219 0.0
C430 C 0.24876 0.66473 0.4506 0.0
C431 C 0.24907 0.62726 0.51843 0.0
C432 C 0.2308 0.66586 0.70277 0.0
C433 C 0.21185 0.69411 0.62359 0.0
N434 N 0.23401 0.73796 0.46007 0.0
N435 N 0.2482 0.59458 0.722 0.0
C436 C 0.23282 0.69999 0.51081 0.0
C437 C 0.24379 0.62852 0.64989 0.0
N438 N 0.26173 0.66598 0.33014 0.0
N439 N 0.2354 0.67466 0.82508 0.0
H440 H 0.25614 0.56617 0.68597 0.0
H441 H 0.24148 0.59461 0.81685 0.0
H442 H 0.2249 0.70236 0.86114 0.0
H443 H 0.25277 0.65642 0.88417 0.0
H444 H 0.25737 0.69122 0.27312 0.0
H445 H 0.27611 0.64122 0.28757 0.0
H446 H 0.24993 0.74501 0.37878 0.0
H447 H 0.22084 0.76257 0.50717 0.0
C448 C 0.11851 0.76939 0.99011 0.0
C449 C 0.11874 0.77296 0.1232 0.0
C450 C 0.18429 0.80812 0.10832 0.0
C451 C 0.17434 0.81747 0.98512 0.0
N452 N 0.15587 0.78449 0.79755 0.0
N453 N 0.159 0.78409 0.30765 0.0
C454 C 0.15114 0.78805 0.92269 0.0
C455 C 0.15465 0.78767 0.18215 0.0
N456 N 0.08554 0.75422 0.92788 0.0
N457 N 0.22179 0.81828 0.15186 0.0
H458 H 0.13915 0.76632 0.36149 0.0
H459 H 0.18131 0.79965 0.35737 0.0
H460 H 0.24374 0.83151 0.09348 0.0
H461 H 0.23181 0.80993 0.23985 0.0
H462 H 0.08325 0.7546 0.83141 0.0
H463 H 0.0589 0.74406 0.97073 0.0
H464 H 0.13997 0.76347 0.74391 0.0
H465 H 0.17823 0.80146 0.75061 0.0
C466 C 0.73388 0.87719 0.2505 0.0
C467 C 0.77115 0.89474 0.2127 0.0
C468 C 0.73703 0.93402 0.05714 0.0
C469 C 0.70108 0.93189 0.13273 0.0
N470 N 0.66275 0.89364 0.29024 0.0
N471 N 0.80228 0.90141 1.01182 0.0
C472 C 0.69758 0.89944 0.222 0.0
C473 C 0.77029 0.90876 0.08962 0.0
N474 N 0.7344 0.84411 0.32677 0.0
N475 N 0.74091 0.96214 0.96445 0.0
H476 H 0.82695 0.88359 0.04091 0.0
H477 H 0.80233 0.91054 0.91887 0.0
H478 H 0.71681 0.98082 0.93678 0.0
H479 H 0.7688 0.96786 0.92024 0.0
H480 H 0.70801 0.82888 0.35561 0.0
H481 H 0.76217 0.83089 0.3527 0.0
H482 H 0.66088 0.87295 0.36366 0.0
H483 H 0.63638 0.9109 0.27891 0.0
C484 C 0.36365 0.75249 0.11644 0.0
C485 C 0.40202 0.75516 0.0535 0.0
C486 C 0.3672 0.73413 0.86466 0.0
C487 C 0.33856 0.71431 0.9411 0.0
N488 N 0.29109 0.73635 0.09566 0.0
N489 N 0.43789 0.75515 0.85402 0.0
C490 C 0.32994 0.73569 0.05095 0.0
C491 C 0.40301 0.74947 0.92189 0.0
N492 N 0.36048 0.76167 0.23931 0.0
N493 N 0.36038 0.73717 0.74068 0.0
H494 H 0.46538 0.76468 0.89282 0.0
H495 H 0.43969 0.74789 0.75984 0.0
H496 H 0.33398 0.72481 0.70132 0.0
H497 H 0.3786 0.75527 0.68288 0.0
H498 H 0.33524 0.75275 0.29229 0.0
H499 H 0.38406 0.77583 0.28802 0.0
H500 H 0.28263 0.75355 0.1729 0.0
H501 H 0.26753 0.7217 0.04801 0.0
C502 C 0.77826 0.42272 0.98451 0.0
C503 C 0.7762 0.42426 0.11725 0.0
C504 C 0.79276 0.35182 0.12009 0.0
C505 C 0.81161 0.35732 1.00408 0.0
N506 N 0.78614 0.37747 0.80595 0.0
N507 N 0.77832 0.38641 0.31256 0.0
C508 C 0.79127 0.38567 0.92857 0.0
C509 C 0.78132 0.38731 0.18627 0.0
N510 N 0.77118 0.45651 0.91358 0.0
N511 N 0.78841 0.31365 0.16712 0.0
H512 H 0.77212 0.41229 0.36499 0.0
H513 H 0.78507 0.36044 0.36473 0.0
H514 H 0.79632 0.28857 0.11266 0.0
H515 H 0.77345 0.3076 0.25104 0.0
H516 H 0.77477 0.45668 0.81756 0.0
H517 H 0.76456 0.48509 0.95068 0.0
H518 H 0.7691 0.39608 0.74738 0.0
H519 H 0.79633 0.34991 0.76813 0.0
C520 C 0.02005 0.22695 1.01084 0.0
C521 C 0.01807 0.22399 0.14294 0.0
C522 C 0.01874 0.14874 0.12321 0.0
C523 C 0.02374 0.15135 0.99133 0.0
N524 N 0.03804 0.19457 0.81447 0.0
N525 N 0.02623 0.18176 0.32386 0.0
C526 C 0.02699 0.19099 0.93658 0.0
C527 C 0.02134 0.18471 0.19817 0.0
N528 N 1.01366 0.26391 0.9555 0.0
N529 N 1.0081 0.11241 0.17727 0.0
H530 H 0.02823 0.20747 0.38068 0.0
H531 H 0.03257 0.15435 0.36912 0.0
H532 H 1.00212 0.08602 0.12676 0.0
H533 H 1.00015 0.10961 0.27081 0.0
H534 H 1.00956 0.26747 0.86014 0.0
H535 H 1.01 0.29076 1.00627 0.0
H536 H 0.04468 0.22243 0.77212 0.0
H537 H 0.04444 0.16941 0.7585 0.0
C538 C 0.33953 0.99383 0.05215 0.0
C539 C 0.32786 0.02536 0.13614 0.0
C540 C 0.38807 0.06489 0.0602 0.0
C541 C 0.40288 0.03062 0.99139 0.0
N542 N 0.3955 0.95859 0.95013 0.0
N543 N 0.34547 0.08951 0.23075 0.0
C544 C 0.37915 0.99413 0.99421 0.0
C545 C 0.35323 0.0607 0.14236 0.0
N546 N 0.31257 0.9631 0.02785 0.0
N547 N 0.40655 0.10194 0.04483 0.0
H548 H 0.3206 0.08771 0.29152 0.0
H549 H 0.36542 0.11345 0.24993 0.0
H550 H 0.43102 0.10649 0.98374 0.0
H551 H 0.39504 0.12883 0.08277 0.0
H552 H 0.3183 0.94062 0.96209 0.0
H553 H 0.28289 0.96263 0.06411 0.0
H554 H 0.3814 0.93028 0.96111 0.0
H555 H 0.42535 0.95641 0.91664 0.0
C556 C 0.51818 0.32053 0.95591 0.0
C557 C 0.50927 0.31823 0.08543 0.0
C558 C 0.48072 0.38813 0.07314 0.0
C559 C 0.49779 0.39349 0.95191 0.0
N560 N 0.51071 0.3572 0.76072 0.0
N561 N 0.4823 0.35125 0.26855 0.0
C562 C 0.51021 0.35742 0.88765 0.0
C563 C 0.48981 0.35214 0.14354 0.0
N564 N 0.53617 0.28779 0.89951 0.0
N565 N 0.45284 0.41558 0.11743 0.0
H566 H 0.48679 0.32536 0.32312 0.0
H567 H 0.47403 0.37702 0.31936 0.0
H568 H 0.44022 0.43831 0.06177 0.0
H569 H 0.43716 0.41181 0.20121 0.0
H570 H 0.54903 0.28879 0.81082 0.0
H571 H 0.5398 0.25985 0.94496 0.0
H572 H 0.51703 0.33144 0.70761 0.0
H573 H 0.49873 0.381 0.708 0.0
C574 C 0.17529 0.49826 0.18403 0.0
C575 C 0.1997 0.53434 0.18303 0.0
C576 C 0.14994 0.56544 0.03736 0.0
C577 C 0.1275 0.52831 0.02912 0.0
N578 N 0.12439 0.45658 0.07904 0.0
N579 N 0.21466 0.59839 0.08268 0.0
C580 C 0.14188 0.49389 0.09798 0.0
C581 C 0.1884 0.5665 0.10066 0.0
N582 N 0.18255 0.46883 0.27115 0.0
N583 N 0.13319 0.60069 0.99285 0.0
H584 H 0.24371 0.59924 0.12222 0.0
H585 H 0.20927 0.62166 0.01901 0.0
H586 H 0.10387 0.60184 0.9558 0.0
H587 H 0.14602 0.62941 1.00684 0.0
H588 H 0.16299 0.44423 0.28681 0.0
H589 H 0.20649 0.47067 0.33447 0.0
H590 H 0.13587 0.42965 0.11681 0.0
H591 H 0.10079 0.45192 0.01582 0.0
C592 C 0.98869 0.85978 0.42989 0.0
C593 C 0.02283 0.8329 0.43949 0.0
C594 C 0.05447 0.88258 0.58483 0.0
C595 C 0.01928 0.90843 0.58226 0.0
N596 N 0.94796 0.91298 0.52762 0.0
N597 N 0.08479 0.8165 0.55028 0.0
C598 C 0.98498 0.89445 0.51192 0.0
C599 C 0.05405 0.8435 0.52598 0.0
N600 N 0.96061 0.85374 0.33841 0.0
N601 N 0.09017 0.89473 0.63769 0.0
H602 H 0.08473 0.78667 0.51646 0.0
H603 H 0.10866 0.82325 0.61086 0.0
H604 H 0.09535 0.92367 0.67444 0.0
H605 H 0.09535 0.92367 0.67444 0.0
H606 H 0.93783 0.87487 0.31758 0.0
H607 H 0.96224 0.82939 0.27646 0.0
H608 H 0.9211 0.90201 0.48807 0.0
H609 H 0.94329 0.93654 0.5911 0.0
C610 C 0.70504 0.03184 0.46461 0.0
C611 C 0.73325 1.00247 0.5106 0.0
C612 C 0.67974 0.98088 0.66453 0.0
C613 C 0.65072 1.00854 0.61195 0.0
N614 N 0.63652 0.05796 0.45027 0.0
N615 N 0.74941 0.95329 0.66764 0.0
C616 C 0.66374 0.0332 0.50938 0.0
C617 C 0.721 0.97873 0.61603 0.0
N618 N 0.71618 0.05922 0.37557 0.0
N619 N 0.66711 0.95499 0.75683 0.0
H620 H 0.78014 0.95404 0.64078 0.0
H621 H 0.74363 0.93209 0.73726 0.0
H622 H 0.63787 0.95577 0.79481 0.0
H623 H 0.68441 0.93135 0.79354 0.0
H624 H 0.74546 0.06146 0.33751 0.0
H625 H 0.74546 0.06146 0.33751 0.0
H626 H 0.60545 0.05848 0.47076 0.0
H627 H 0.64486 0.07702 0.37658 0.0
C628 C 0.4695 0.69206 0.46661 0.0
C629 C 0.49993 0.70352 0.37766 0.0
C630 C 0.544 0.64888 0.46529 0.0
C631 C 0.5112 0.63396 0.54114 0.0
N632 N 0.43864 0.63681 0.58412 0.0
N633 N 0.56412 0.68642 0.27936 0.0
C634 C 0.47286 0.65445 0.53401 0.0
C635 C 0.53677 0.68027 0.37386 0.0
N636 N 0.43725 0.7175 0.48842 0.0
N637 N 0.58257 0.63403 0.4826 0.0
H638 H 0.55974 0.70809 0.20968 0.0
H639 H 0.58917 0.66743 0.26371 0.0
H640 H 0.58946 0.61242 0.5506 0.0
H641 H 0.60828 0.64627 0.43867 0.0
H642 H 0.41552 0.71186 0.55725 0.0
H643 H 0.43476 0.74623 0.44716 0.0
H644 H 0.40928 0.6483 0.57062 0.0
H645 H 0.43871 0.60805 0.62546 0.0
C646 C 0.8488 0.55956 0.41427 0.0
C647 C 0.82032 0.52704 0.42848 0.0
C648 C 0.86608 0.49634 0.58617 0.0
C649 C 0.89316 0.53038 0.58029 0.0
N650 N 0.90396 0.5992 0.50551 0.0
N651 N 0.79735 0.47075 0.55269 0.0
C652 C 0.88262 0.56343 0.4991 0.0
C653 C 0.82757 0.4978 0.52361 0.0
N654 N 0.84457 0.58597 0.31697 0.0
N655 N 0.87822 0.46117 0.64336 0.0
H656 H 0.76828 0.47319 0.514 0.0
H657 H 0.79985 0.44894 0.62243 0.0
H658 H 0.90742 0.45734 0.67935 0.0
H659 H 0.86148 0.43412 0.64085 0.0
H660 H 0.86684 0.60727 0.29209 0.0
H661 H 0.81983 0.58463 0.25626 0.0
H662 H 0.8957 0.62539 0.45673 0.0
H663 H 0.92728 0.60409 0.56946 0.0
loop_
_geom_bond_atom_site_label_1
_geom_bond_atom_site_label_2
_geom_bond_distance
_geom_bond_site_symmetry_2
_ccdc_geom_bond_type
H0 C3 0.931 . S
H1 C6 0.928 . S
H2 C8 0.930 . S
C3 H0 0.931 . S
C3 C4 1.413 . S
C3 C5 1.360 . S
C4 C3 1.413 . S
C4 C8 1.429 . S
C5 C3 1.360 . S
C5 C6 1.372 . S
C6 H1 0.928 . S
C6 C5 1.372 . S
C6 C7 1.404 . S
C7 C6 1.404 . S
C7 C8 1.391 . S
C8 H2 0.930 . S
C8 C4 1.429 . S
C8 C7 1.391 . S
H9 C12 0.931 . S
H10 C15 0.928 . S
H11 C17 0.930 . S
C12 H9 0.931 . S
C12 C13 1.413 . S
C12 C14 1.360 . S
C13 C12 1.413 . S
C13 C17 1.429 1_655 S
C14 C12 1.360 . S
C14 C15 1.372 . S
C15 H10 0.928 . S
C15 C14 1.372 . S
C15 C16 1.404 . S
C16 C15 1.404 . S
C16 C17 1.390 1_655 S
C17 H11 0.930 . S
C17 C13 1.429 1_455 S
C17 C16 1.390 1_455 S
H18 C21 0.931 . S
H19 C24 0.928 . S
H20 C26 0.929 . S
C21 H18 0.931 . S
C21 C22 1.413 . S
C21 C23 1.360 . S
C22 C21 1.413 . S
C22 C26 1.429 1_565 S
C23 C21 1.360 . S
C23 C24 1.372 . S
C24 H19 0.928 . S
C24 C23 1.372 . S
C24 C25 1.405 . S
C25 C24 1.405 . S
C25 C26 1.390 1_565 S
C26 H20 0.929 . S
C26 C22 1.429 1_545 S
C26 C25 1.390 1_545 S
H27 C30 0.931 . S
H28 C33 0.928 . S
H29 C35 0.930 . S
C30 H27 0.931 . S
C30 C31 1.413 . S
C30 C32 1.360 . S
C31 C30 1.413 . S
C31 C35 1.429 . S
C32 C30 1.360 . S
C32 C33 1.372 . S
C33 H28 0.928 . S
C33 C32 1.372 . S
C33 C34 1.404 . S
C34 C33 1.404 . S
C34 C35 1.391 . S
C35 H29 0.930 . S
C35 C31 1.429 . S
C35 C34 1.391 . S
H36 C39 0.931 1_556 S
H37 C42 0.928 . S
H38 C44 0.930 . S
C39 H36 0.931 1_554 S
C39 C40 1.413 1_554 S
C39 C41 1.360 . S
C40 C39 1.413 1_556 S
C40 C44 1.429 . S
C41 C39 1.360 . S
C41 C42 1.372 . S
C42 H37 0.928 . S
C42 C41 1.372 . S
C42 C43 1.404 . S
C43 C42 1.404 . S
C43 C44 1.391 1_554 S
C44 H38 0.930 . S
C44 C40 1.429 . S
C44 C43 1.391 1_556 S
H45 C48 0.931 . S
H46 C51 0.928 . S
H47 C53 0.930 . S
C48 H45 0.931 . S
C48 C49 1.413 1_554 S
C48 C50 1.360 . S
C49 C48 1.413 1_556 S
C49 C53 1.429 1_655 S
C50 C48 1.360 . S
C50 C51 1.372 . S
C51 H46 0.928 . S
C51 C50 1.372 . S
C51 C52 1.404 . S
C52 C51 1.404 . S
C52 C53 1.391 1_654 S
C53 H47 0.930 . S
C53 C49 1.429 1_455 S
C53 C52 1.391 1_456 S
H54 C57 0.931 1_556 S
H55 C60 0.928 . S
H56 C62 0.930 . S
C57 H54 0.931 1_554 S
C57 C58 1.413 1_554 S
C57 C59 1.360 . S
C58 C57 1.413 1_556 S
C58 C62 1.429 1_565 S
C59 C57 1.360 . S
C59 C60 1.372 . S
C60 H55 0.928 . S
C60 C59 1.372 . S
C60 C61 1.404 . S
C61 C60 1.404 . S
C61 C62 1.391 1_564 S
C62 H56 0.930 . S
C62 C58 1.429 1_545 S
C62 C61 1.391 1_546 S
H63 C66 0.931 1_556 S
H64 C69 0.928 . S
H65 C71 0.930 . S
C66 H63 0.931 1_554 S
C66 C67 1.413 . S
C66 C68 1.360 1_554 S
C67 C66 1.413 . S
C67 C71 1.429 . S
C68 C66 1.360 1_556 S
C68 C69 1.372 . S
C69 H64 0.928 . S
C69 C68 1.372 . S
C69 C70 1.404 1_556 S
C70 C69 1.404 1_554 S
C70 C71 1.391 . S
C71 H65 0.930 . S
C71 C67 1.429 . S
C71 C70 1.391 . S
Pr72 C74 2.880 1_556 S
Pr72 O92 2.562 1_556 S
Pr72 O93 2.490 . S
Pr72 O94 2.695 1_565 S
Pr72 O95 2.512 . S
Pr72 O97 2.437 . S
Pr72 O100 2.436 1_455 S
Pr72 O102 2.438 1_565 S
Pr73 C83 2.880 . S
Pr73 O94 2.436 1_655 S
Pr73 O96 2.438 1_545 S
Pr73 O98 2.562 . S
Pr73 O99 2.490 . S
Pr73 O100 2.695 1_545 S
Pr73 O101 2.512 . S
Pr73 O103 2.437 . S
C74 Pr72 2.880 1_554 S
C74 C75 1.491 . S
C74 O92 1.254 . S
C74 O93 1.225 1_554 S
C75 C74 1.491 . S
C75 C76 1.392 . S
C75 C80 1.356 . S
C76 C75 1.392 . S
C76 C77 1.368 . S
C76 H104 0.929 . S
C77 C76 1.368 . S
C77 C78 1.386 . S
C77 H105 0.929 . S
C78 C77 1.386 . S
C78 C79 1.373 . S
C79 C78 1.373 . S
C79 C80 1.409 . S
C79 H106 0.931 . S
C80 C75 1.356 . S
C80 C79 1.409 . S
C80 H107 0.930 . S
C81 O94 1.270 1_565 S
C81 O95 1.248 . S
C82 O96 1.267 . S
C82 O97 1.278 1_655 S
C83 Pr73 2.880 . S
C83 C84 1.491 . S
C83 O98 1.254 . S
C83 O99 1.225 . S
C84 C83 1.491 . S
C84 C85 1.392 . S
C84 C89 1.356 . S
C85 C84 1.392 . S
C85 C86 1.368 . S
C85 H108 0.929 . S
C86 C85 1.368 . S
C86 C87 1.386 . S
C86 H109 0.929 . S
C87 C86 1.386 . S
C87 C88 1.373 . S
C88 C87 1.373 . S
C88 C89 1.409 . S
C88 H110 0.931 . S
C89 C84 1.356 . S
C89 C88 1.409 . S
C89 H111 0.930 . S
C90 O100 1.270 1_545 S
C90 O101 1.248 . S
C91 O102 1.267 . S
C91 O103 1.278 1_455 S
O92 Pr72 2.562 1_554 S
O92 C74 1.254 . S
O93 Pr72 2.490 . S
O93 C74 1.225 1_556 S
O94 Pr72 2.695 1_545 S
O94 Pr73 2.436 1_455 S
O94 C81 1.270 1_545 S
O95 Pr72 2.512 . S
O95 C81 1.248 . S
O96 Pr73 2.438 1_565 S
O96 C82 1.267 . S
O97 Pr72 2.437 . S
O97 C82 1.278 1_455 S
O98 Pr73 2.562 . S
O98 C83 1.254 . S
O99 Pr73 2.490 . S
O99 C83 1.225 . S
O100 Pr72 2.436 1_655 S
O100 Pr73 2.695 1_565 S
O100 C90 1.270 1_565 S
O101 Pr73 2.512 . S
O101 C90 1.248 . S
O102 Pr72 2.438 1_545 S
O102 C91 1.267 . S
O103 Pr73 2.437 . S
O103 C91 1.278 1_655 S
H104 C76 0.929 . S
H105 C77 0.929 . S
H106 C79 0.931 . S
H107 C80 0.930 . S
H108 C85 0.929 . S
H109 C86 0.929 . S
H110 C88 0.931 . S
H111 C89 0.930 . S
Pr112 C114 2.880 1_556 S
Pr112 O132 2.562 1_556 S
Pr112 O133 2.490 . S
Pr112 O134 2.695 . S
Pr112 O135 2.512 . S
Pr112 O137 2.437 . S
Pr112 O140 2.436 1_545 S
Pr112 O142 2.438 . S
Pr113 C123 2.880 . S
Pr113 O134 2.436 1_565 S
Pr113 O136 2.438 . S
Pr113 O138 2.562 . S
Pr113 O139 2.490 . S
Pr113 O140 2.695 . S
Pr113 O141 2.512 . S
Pr113 O143 2.437 . S
C114 Pr112 2.880 1_554 S
C114 C115 1.491 . S
C114 O132 1.254 . S
C114 O133 1.225 1_554 S
C115 C114 1.491 . S
C115 C116 1.392 . S
C115 C120 1.356 . S
C116 C115 1.392 . S
C116 C117 1.368 . S
C116 H144 0.929 . S
C117 C116 1.368 . S
C117 C118 1.386 . S
C117 H145 0.929 . S
C118 C117 1.386 . S
C118 C119 1.373 . S
C119 C118 1.373 . S
C119 C120 1.409 . S
C119 H146 0.931 . S
C120 C115 1.356 . S
C120 C119 1.409 . S
C120 H147 0.941 . S
C121 O134 1.270 . S
C121 O135 1.248 . S
C122 O136 1.267 . S
C122 O137 1.278 1_565 S
C123 Pr113 2.880 . S
C123 C124 1.491 . S
C123 O138 1.254 . S
C123 O139 1.225 . S
C124 C123 1.491 . S
C124 C125 1.392 . S
C124 C129 1.356 . S
C125 C124 1.392 . S
C125 C126 1.368 . S
C125 H148 0.929 . S
C126 C125 1.368 . S
C126 C127 1.386 . S
C126 H149 0.929 . S
C127 C126 1.386 . S
C127 C128 1.373 . S
C128 C127 1.373 . S
C128 C129 1.409 . S
C128 H150 0.931 . S
C129 C124 1.356 . S
C129 C128 1.409 . S
C129 H151 0.935 . S
C130 O140 1.270 . S
C130 O141 1.248 . S
C131 O142 1.267 . S
C131 O143 1.278 1_545 S
O132 Pr112 2.562 1_554 S
O132 C114 1.254 . S
O133 Pr112 2.490 . S
O133 C114 1.225 1_556 S
O134 Pr112 2.695 . S
O134 Pr113 2.436 1_545 S
O134 C121 1.270 . S
O135 Pr112 2.512 . S
O135 C121 1.248 . S
O136 Pr113 2.438 . S
O136 C122 1.267 . S
O137 Pr112 2.437 . S
O137 C122 1.278 1_545 S
O138 Pr113 2.562 . S
O138 C123 1.254 . S
O139 Pr113 2.490 . S
O139 C123 1.225 . S
O140 Pr112 2.436 1_565 S
O140 Pr113 2.695 . S
O140 C130 1.270 . S
O141 Pr113 2.512 . S
O141 C130 1.248 . S
O142 Pr112 2.438 . S
O142 C131 1.267 . S
O143 Pr113 2.437 . S
O143 C131 1.278 1_565 S
H144 C116 0.929 . S
H145 C117 0.929 . S
H146 C119 0.931 . S
H147 C120 0.941 . S
H148 C125 0.929 . S
H149 C126 0.929 . S
H150 C128 0.931 . S
H151 C129 0.935 . S
Pr152 C154 2.880 1_556 S
Pr152 O172 2.562 1_556 S
Pr152 O173 2.490 . S
Pr152 O174 2.695 . S
Pr152 O175 2.512 . S
Pr152 O177 2.437 . S
Pr152 O180 2.436 . S
Pr152 O182 2.438 . S
Pr153 C163 2.880 . S
Pr153 O174 2.436 . S
Pr153 O176 2.438 . S
Pr153 O178 2.562 . S
Pr153 O179 2.490 . S
Pr153 O180 2.695 . S
Pr153 O181 2.512 . S
Pr153 O183 2.437 . S
C154 Pr152 2.880 1_554 S
C154 C155 1.491 . S
C154 O172 1.254 . S
C154 O173 1.225 1_554 S
C155 C154 1.491 . S
C155 C156 1.392 . S
C155 C160 1.356 . S
C156 C155 1.392 . S
C156 C157 1.368 . S
C156 H184 0.929 . S
C157 C156 1.368 . S
C157 C158 1.386 . S
C157 H185 0.929 . S
C158 C157 1.386 . S
C158 C159 1.373 . S
C159 C158 1.373 . S
C159 C160 1.409 . S
C159 H186 0.931 . S
C160 C155 1.356 . S
C160 C159 1.409 . S
C160 H187 0.930 . S
C161 O174 1.270 . S
C161 O175 1.248 . S
C162 O176 1.267 . S
C162 O177 1.278 . S
C163 Pr153 2.880 . S
C163 C164 1.491 . S
C163 O178 1.254 . S
C163 O179 1.225 . S
C164 C163 1.491 . S
C164 C165 1.392 . S
C164 C169 1.356 . S
C165 C164 1.392 . S
C165 C166 1.368 . S
C165 H188 0.929 . S
C166 C165 1.368 . S
C166 C167 1.386 . S
C166 H189 0.929 . S
C167 C166 1.386 . S
C167 C168 1.373 . S
C168 C167 1.373 . S
C168 C169 1.409 . S
C168 H190 0.931 . S
C169 C164 1.356 . S
C169 C168 1.409 . S
C169 H191 0.930 . S
C170 O180 1.270 . S
C170 O181 1.248 . S
C171 O182 1.267 . S
C171 O183 1.278 . S
O172 Pr152 2.562 1_554 S
O172 C154 1.254 . S
O173 Pr152 2.490 . S
O173 C154 1.225 1_556 S
O174 Pr152 2.695 . S
O174 Pr153 2.436 . S
O174 C161 1.270 . S
O175 Pr152 2.512 . S
O175 C161 1.248 . S
O176 Pr153 2.438 . S
O176 C162 1.267 . S
O177 Pr152 2.437 . S
O177 C162 1.278 . S
O178 Pr153 2.562 . S
O178 C163 1.254 . S
O179 Pr153 2.490 . S
O179 C163 1.225 . S
O180 Pr152 2.436 . S
O180 Pr153 2.695 . S
O180 C170 1.270 . S
O181 Pr153 2.512 . S
O181 C170 1.248 . S
O182 Pr152 2.438 . S
O182 C171 1.267 . S
O183 Pr153 2.437 . S
O183 C171 1.278 . S
H184 C156 0.929 . S
H185 C157 0.929 . S
H186 C159 0.931 . S
H187 C160 0.930 . S
H188 C165 0.929 . S
H189 C166 0.929 . S
H190 C168 0.931 . S
H191 C169 0.930 . S
Pr192 C194 2.880 1_556 S
Pr192 O212 2.562 1_556 S
Pr192 O213 2.490 . S
Pr192 O214 2.695 1_655 S
Pr192 O215 2.512 . S
Pr192 O217 2.437 . S
Pr192 O220 2.436 . S
Pr192 O222 2.438 1_655 S
Pr193 C203 2.880 . S
Pr193 O214 2.436 . S
Pr193 O216 2.438 1_455 S
Pr193 O218 2.562 . S
Pr193 O219 2.490 . S
Pr193 O220 2.695 1_455 S
Pr193 O221 2.512 . S
Pr193 O223 2.437 . S
C194 Pr192 2.880 1_554 S
C194 C195 1.491 . S
C194 O212 1.254 . S
C194 O213 1.225 1_554 S
C195 C194 1.491 . S
C195 C196 1.392 . S
C195 C200 1.356 . S
C196 C195 1.392 . S
C196 C197 1.368 . S
C196 H224 0.929 . S
C197 C196 1.368 . S
C197 C198 1.386 . S
C197 H225 0.929 . S
C198 C197 1.386 . S
C198 C199 1.373 . S
C199 C198 1.373 . S
C199 C200 1.409 . S
C199 H226 0.931 . S
C200 C195 1.356 . S
C200 C199 1.409 . S
C200 H227 0.930 . S
C201 O214 1.270 1_655 S
C201 O215 1.249 . S
C202 O216 1.267 . S
C202 O217 1.278 . S
C203 Pr193 2.880 . S
C203 C204 1.491 . S
C203 O218 1.254 . S
C203 O219 1.225 . S
C204 C203 1.491 . S
C204 C205 1.392 . S
C204 C209 1.356 . S
C205 C204 1.392 . S
C205 C206 1.368 . S
C205 H228 0.929 . S
C206 C205 1.368 . S
C206 C207 1.386 . S
C206 H229 0.929 . S
C207 C206 1.386 . S
C207 C208 1.373 . S
C208 C207 1.373 . S
C208 C209 1.409 . S
C208 H230 0.931 . S
C209 C204 1.356 . S
C209 C208 1.409 . S
C209 H231 0.930 . S
C210 O220 1.268 1_455 S
C210 O221 1.252 . S
C211 O222 1.267 . S
C211 O223 1.278 . S
O212 Pr192 2.562 1_554 S
O212 C194 1.254 . S
O213 Pr192 2.490 . S
O213 C194 1.225 1_556 S
O214 Pr192 2.695 1_455 S
O214 Pr193 2.436 . S
O214 C201 1.270 1_455 S
O215 Pr192 2.512 . S
O215 C201 1.249 . S
O216 Pr193 2.438 1_655 S
O216 C202 1.267 . S
O217 Pr192 2.437 . S
O217 C202 1.278 . S
O218 Pr193 2.562 . S
O218 C203 1.254 . S
O219 Pr193 2.490 . S
O219 C203 1.225 . S
O220 Pr192 2.436 . S
O220 Pr193 2.695 1_655 S
O220 C210 1.268 1_655 S
O221 Pr193 2.512 . S
O221 C210 1.252 . S
O222 Pr192 2.438 1_455 S
O222 C211 1.267 . S
O223 Pr193 2.437 . S
O223 C211 1.278 . S
H224 C196 0.929 . S
H225 C197 0.929 . S
H226 C199 0.931 . S
H227 C200 0.930 . S
H228 C205 0.929 . S
H229 C206 0.929 . S
H230 C208 0.931 . S
H231 C209 0.930 . S
C232 C233 1.363 1_565 S
C232 C238 1.379 . S
C232 N240 1.356 . S
C233 C232 1.363 1_545 S
C233 C239 1.363 . S
C234 C235 1.364 . S
C234 C239 1.379 . S
C234 N241 1.356 . S
C235 C234 1.364 . S
C235 C238 1.362 1_545 S
N236 C238 1.356 . S
N236 H248 0.984 . S
N236 H249 0.985 . S
N237 C239 1.356 . S
N237 H242 0.984 . S
N237 H243 0.985 . S
C238 C232 1.379 . S
C238 C235 1.362 1_565 S
C238 N236 1.356 . S
C239 C233 1.363 . S
C239 C234 1.379 . S
C239 N237 1.356 . S
N240 C232 1.356 . S
N240 H246 0.984 . S
N240 H247 0.984 . S
N241 C234 1.356 . S
N241 H244 0.984 . S
N241 H245 0.985 . S
H242 N237 0.984 . S
H243 N237 0.985 . S
H244 N241 0.984 . S
H245 N241 0.985 . S
H246 N240 0.984 . S
H247 N240 0.984 . S
H248 N236 0.984 . S
H249 N236 0.985 . S
C250 C251 1.363 . S
C250 C256 1.379 . S
C250 N258 1.356 . S
C251 C250 1.363 . S
C251 C257 1.363 . S
C252 C253 1.363 . S
C252 C257 1.379 . S
C252 N259 1.356 . S
C253 C252 1.363 . S
C253 C256 1.363 . S
N254 C256 1.356 . S
N254 H266 0.984 . S
N254 H267 0.985 . S
N255 C257 1.356 . S
N255 H260 0.984 . S
N255 H261 0.985 . S
C256 C250 1.379 . S
C256 C253 1.363 . S
C256 N254 1.356 . S
C257 C251 1.363 . S
C257 C252 1.379 . S
C257 N255 1.356 . S
N258 C250 1.356 . S
N258 H264 0.984 . S
N258 H265 0.984 . S
N259 C252 1.356 . S
N259 H262 0.984 . S
N259 H263 0.985 . S
H260 N255 0.984 . S
H261 N255 0.985 . S
H262 N259 0.984 . S
H263 N259 0.985 . S
H264 N258 0.984 . S
H265 N258 0.984 . S
H266 N254 0.984 . S
H267 N254 0.985 . S
C268 C269 1.363 . S
C268 C274 1.379 . S
C268 N276 1.356 . S
C269 C268 1.363 . S
C269 C275 1.363 . S
C270 C271 1.363 . S
C270 C275 1.379 . S
C270 N277 1.356 . S
C271 C270 1.363 . S
C271 C274 1.363 . S
N272 C274 1.356 . S
N272 H284 0.984 . S
N272 H285 0.985 . S
N273 C275 1.356 . S
N273 H278 0.984 . S
N273 H279 0.985 . S
C274 C268 1.379 . S
C274 C271 1.363 . S
C274 N272 1.356 . S
C275 C269 1.363 . S
C275 C270 1.379 . S
C275 N273 1.356 . S
N276 C268 1.356 . S
N276 H282 0.984 . S
N276 H283 0.984 . S
N277 C270 1.356 . S
N277 H280 0.984 . S
N277 H281 0.985 . S
H278 N273 0.984 . S
H279 N273 0.985 . S
H280 N277 0.984 . S
H281 N277 0.985 . S
H282 N276 0.984 . S
H283 N276 0.984 . S
H284 N272 0.984 . S
H285 N272 0.985 . S
C286 C287 1.363 1_655 S
C286 C292 1.379 . S
C286 N294 1.356 . S
C287 C286 1.363 1_455 S
C287 C293 1.363 . S
C288 C289 1.363 . S
C288 C293 1.379 . S
C288 N295 1.356 . S
C289 C288 1.363 . S
C289 C292 1.363 1_455 S
N290 C292 1.356 . S
N290 H302 0.984 . S
N290 H303 0.985 . S
N291 C293 1.356 . S
N291 H296 0.984 . S
N291 H297 0.985 . S
C292 C286 1.379 . S
C292 C289 1.363 1_655 S
C292 N290 1.356 . S
C293 C287 1.363 . S
C293 C288 1.379 . S
C293 N291 1.356 . S
N294 C286 1.356 . S
N294 H300 0.984 . S
N294 H301 0.984 . S
N295 C288 1.356 . S
N295 H298 0.984 . S
N295 H299 0.985 . S
H296 N291 0.984 . S
H297 N291 0.985 . S
H298 N295 0.984 . S
H299 N295 0.985 . S
H300 N294 0.984 . S
H301 N294 0.984 . S
H302 N290 0.984 . S
H303 N290 0.985 . S
C304 C305 1.363 . S
C304 C310 1.379 . S
C304 N312 1.356 . S
C305 C304 1.363 . S
C305 C311 1.363 1_545 S
C306 C307 1.364 1_565 S
C306 C311 1.379 . S
C306 N313 1.356 . S
C307 C306 1.364 1_545 S
C307 C310 1.362 . S
N308 C310 1.356 . S
N308 H320 0.984 . S
N308 H321 0.985 1_554 S
N309 C311 1.356 . S
N309 H314 0.984 . S
N309 H315 0.985 . S
C310 C304 1.379 . S
C310 C307 1.362 . S
C310 N308 1.356 . S
C311 C305 1.363 1_565 S
C311 C306 1.379 . S
C311 N309 1.356 . S
N312 C304 1.356 . S
N312 H318 0.984 . S
N312 H319 0.984 . S
N313 C306 1.356 . S
N313 H316 0.984 . S
N313 H317 0.985 . S
H314 N309 0.984 . S
H315 N309 0.985 . S
H316 N313 0.984 . S
H317 N313 0.985 . S
H318 N312 0.984 . S
H319 N312 0.984 . S
H320 N308 0.984 . S
H321 N308 0.985 1_556 S
C322 C323 1.363 . S
C322 C328 1.379 . S
C322 N330 1.356 . S
C323 C322 1.363 . S
C323 C329 1.363 . S
C324 C325 1.363 . S
C324 C329 1.379 . S
C324 N331 1.356 . S
C325 C324 1.363 . S
C325 C328 1.363 . S
N326 C328 1.356 . S
N326 H338 0.985 . S
N326 H339 0.985 1_554 S
N327 C329 1.356 . S
N327 H332 0.984 . S
N327 H333 0.985 . S
C328 C322 1.379 . S
C328 C325 1.363 . S
C328 N326 1.356 . S
C329 C323 1.363 . S
C329 C324 1.379 . S
C329 N327 1.356 . S
N330 C322 1.356 . S
N330 H336 0.984 . S
N330 H337 0.984 . S
N331 C324 1.356 . S
N331 H334 0.984 . S
N331 H335 0.985 . S
H332 N327 0.984 . S
H333 N327 0.985 . S
H334 N331 0.984 . S
H335 N331 0.985 . S
H336 N330 0.984 . S
H337 N330 0.984 . S
H338 N326 0.985 . S
H339 N326 0.985 1_556 S
C340 C341 1.363 . S
C340 C346 1.379 . S
C340 N348 1.356 . S
C341 C340 1.363 . S
C341 C347 1.363 . S
C342 C343 1.363 . S
C342 C347 1.379 . S
C342 N349 1.356 . S
C343 C342 1.363 . S
C343 C346 1.363 . S
N344 C346 1.356 . S
N344 H356 0.984 . S
N344 H357 0.985 1_554 S
N345 C347 1.356 . S
N345 H350 0.984 . S
N345 H351 0.985 . S
C346 C340 1.379 . S
C346 C343 1.363 . S
C346 N344 1.356 . S
C347 C341 1.363 . S
C347 C342 1.379 . S
C347 N345 1.356 . S
N348 C340 1.356 . S
N348 H354 0.984 . S
N348 H355 0.984 . S
N349 C342 1.356 . S
N349 H352 0.984 . S
N349 H353 0.985 . S
H350 N345 0.984 . S
H351 N345 0.985 . S
H352 N349 0.984 . S
H353 N349 0.985 . S
H354 N348 0.984 . S
H355 N348 0.984 . S
H356 N344 0.984 . S
H357 N344 0.985 1_556 S
C358 C359 1.363 . S
C358 C364 1.379 . S
C358 N366 1.356 . S
C359 C358 1.363 . S
C359 C365 1.363 1_655 S
C360 C361 1.363 1_455 S
C360 C365 1.379 . S
C360 N367 1.356 . S
C361 C360 1.363 1_655 S
C361 C364 1.363 . S
N362 C364 1.356 . S
N362 H374 0.984 . S
N362 H375 0.985 1_554 S
N363 C365 1.356 . S
N363 H368 0.984 . S
N363 H369 0.985 . S
C364 C358 1.379 . S
C364 C361 1.363 . S
C364 N362 1.356 . S
C365 C359 1.363 1_455 S
C365 C360 1.379 . S
C365 N363 1.356 . S
N366 C358 1.356 . S
N366 H372 0.984 . S
N366 H373 0.984 . S
N367 C360 1.356 . S
N367 H370 0.984 . S
N367 H371 0.985 . S
H368 N363 0.984 . S
H369 N363 0.985 . S
H370 N367 0.984 . S
H371 N367 0.985 . S
H372 N366 0.984 . S
H373 N366 0.984 . S
H374 N362 0.984 . S
H375 N362 0.985 1_556 S
C376 C377 1.363 . S
C376 C382 1.379 . S
C376 N384 1.356 1_655 S
C377 C376 1.363 . S
C377 C383 1.363 . S
C378 C379 1.363 . S
C378 C383 1.379 . S
C378 N385 1.356 . S
C379 C378 1.363 . S
C379 C382 1.363 . S
N380 C382 1.356 . S
N380 H392 0.984 . S
N380 H393 0.985 . S
N381 C383 1.356 . S
N381 H386 0.984 1_655 S
N381 H387 0.985 1_554 S
C382 C376 1.379 . S
C382 C379 1.363 . S
C382 N380 1.356 . S
C383 C377 1.363 . S
C383 C378 1.379 . S
C383 N381 1.356 . S
N384 C376 1.356 1_455 S
N384 H390 0.984 . S
N384 H391 0.984 . S
N385 C378 1.356 . S
N385 H388 0.984 . S
N385 H389 0.985 . S
H386 N381 0.984 1_455 S
H387 N381 0.985 1_556 S
H388 N385 0.984 . S
H389 N385 0.985 . S
H390 N384 0.984 . S
H391 N384 0.984 . S
H392 N380 0.984 . S
H393 N380 0.985 . S
C394 C395 1.363 . S
C394 C400 1.376 . S
C394 N402 1.359 1_565 S
C395 C394 1.363 . S
C395 C401 1.363 . S
C396 C397 1.363 . S
C396 C401 1.379 . S
C396 N403 1.356 . S
C397 C396 1.363 . S
C397 C400 1.363 . S
N398 C400 1.356 . S
N398 H410 0.984 . S
N398 H411 0.985 . S
N399 C401 1.356 . S
N399 H404 0.984 . S
N399 H405 0.985 . S
C400 C394 1.376 . S
C400 C397 1.363 . S
C400 N398 1.356 . S
C401 C395 1.363 . S
C401 C396 1.379 . S
C401 N399 1.356 . S
N402 C394 1.359 1_545 S
N402 H408 0.984 . S
N402 H409 0.984 . S
N403 C396 1.356 . S
N403 H406 0.984 . S
N403 H407 0.985 . S
H404 N399 0.984 . S
H405 N399 0.985 . S
H406 N403 0.984 . S
H407 N403 0.985 . S
H408 N402 0.984 . S
H409 N402 0.984 . S
H410 N398 0.984 . S
H411 N398 0.985 . S
C412 C413 1.363 . S
C412 C418 1.379 . S
C412 N420 1.356 . S
C413 C412 1.363 . S
C413 C419 1.363 . S
C414 C415 1.363 . S
C414 C419 1.379 . S
C414 N421 1.356 . S
C415 C414 1.363 . S
C415 C418 1.363 . S
N416 C418 1.356 . S
N416 H428 0.984 . S
N416 H429 0.985 . S
N417 C419 1.356 . S
N417 H422 0.984 . S
N417 H423 0.985 . S
C418 C412 1.379 . S
C418 C415 1.363 . S
C418 N416 1.356 . S
C419 C413 1.363 . S
C419 C414 1.379 . S
C419 N417 1.356 . S
N420 C412 1.356 . S
N420 H426 0.984 . S
N420 H427 0.984 . S
N421 C414 1.356 . S
N421 H424 0.984 . S
N421 H425 0.985 . S
H422 N417 0.984 . S
H423 N417 0.985 . S
H424 N421 0.984 . S
H425 N421 0.985 . S
H426 N420 0.984 . S
H427 N420 0.984 . S
H428 N416 0.984 . S
H429 N416 0.985 . S
C430 C431 1.363 . S
C430 C436 1.379 . S
C430 N438 1.356 . S
C431 C430 1.363 . S
C431 C437 1.363 . S
C432 C433 1.363 . S
C432 C437 1.379 . S
C432 N439 1.356 . S
C433 C432 1.363 . S
C433 C436 1.363 . S
N434 C436 1.356 . S
N434 H446 0.984 . S
N434 H447 0.985 . S
N435 C437 1.356 . S
N435 H440 0.984 . S
N435 H441 0.985 . S
C436 C430 1.379 . S
C436 C433 1.363 . S
C436 N434 1.356 . S
C437 C431 1.363 . S
C437 C432 1.379 . S
C437 N435 1.356 . S
N438 C430 1.356 . S
N438 H444 0.984 . S
N438 H445 0.984 . S
N439 C432 1.356 . S
N439 H442 0.984 . S
N439 H443 0.985 . S
H440 N435 0.984 . S
H441 N435 0.985 . S
H442 N439 0.984 . S
H443 N439 0.985 . S
H444 N438 0.984 . S
H445 N438 0.984 . S
H446 N434 0.984 . S
H447 N434 0.985 . S
C448 C449 1.363 . S
C448 C454 1.379 . S
C448 N456 1.356 . S
C449 C448 1.363 . S
C449 C455 1.363 . S
C450 C451 1.363 . S
C450 C455 1.379 . S
C450 N457 1.356 . S
C451 C450 1.363 . S
C451 C454 1.363 . S
N452 C454 1.356 . S
N452 H464 0.984 . S
N452 H465 0.985 . S
N453 C455 1.356 1_655 S
N453 H458 0.984 . S
N453 H459 0.985 . S
C454 C448 1.379 . S
C454 C451 1.363 . S
C454 N452 1.356 . S
C455 C449 1.363 . S
C455 C450 1.379 . S
C455 N453 1.356 1_455 S
N456 C448 1.356 . S
N456 H462 0.984 . S
N456 H463 0.984 1_455 S
N457 C450 1.356 . S
N457 H460 0.984 . S
N457 H461 0.985 . S
H458 N453 0.984 . S
H459 N453 0.985 . S
H460 N457 0.984 . S
H461 N457 0.985 . S
H462 N456 0.984 . S
H463 N456 0.984 1_655 S
H464 N452 0.984 . S
H465 N452 0.985 . S
C466 C467 1.363 . S
C466 C472 1.379 . S
C466 N474 1.356 1_545 S
C467 C466 1.363 . S
C467 C473 1.363 . S
C468 C469 1.363 . S
C468 C473 1.379 . S
C468 N475 1.356 . S
C469 C468 1.363 . S
C469 C472 1.363 . S
N470 C472 1.356 . S
N470 H482 0.984 . S
N470 H483 0.985 . S
N471 C473 1.356 . S
N471 H476 0.984 1_545 S
N471 H477 0.985 . S
C472 C466 1.379 . S
C472 C469 1.363 . S
C472 N470 1.356 . S
C473 C467 1.363 . S
C473 C468 1.379 . S
C473 N471 1.356 . S
N474 C466 1.356 1_565 S
N474 H480 0.984 . S
N474 H481 0.984 . S
N475 C468 1.356 . S
N475 H478 0.984 . S
N475 H479 0.985 . S
H476 N471 0.984 1_565 S
H477 N471 0.985 . S
H478 N475 0.984 . S
H479 N475 0.985 . S
H480 N474 0.984 . S
H481 N474 0.984 . S
H482 N470 0.984 . S
H483 N470 0.985 . S
C484 C485 1.363 . S
C484 C490 1.379 . S
C484 N492 1.356 . S
C485 C484 1.363 . S
C485 C491 1.363 . S
C486 C487 1.363 . S
C486 C491 1.379 . S
C486 N493 1.356 . S
C487 C486 1.363 . S
C487 C490 1.363 . S
N488 C490 1.356 . S
N488 H500 0.984 . S
N488 H501 0.985 . S
N489 C491 1.356 . S
N489 H494 0.984 . S
N489 H495 0.985 . S
C490 C484 1.379 . S
C490 C487 1.363 . S
C490 N488 1.356 . S
C491 C485 1.363 . S
C491 C486 1.379 . S
C491 N489 1.356 . S
N492 C484 1.356 . S
N492 H498 0.984 . S
N492 H499 0.984 . S
N493 C486 1.356 . S
N493 H496 0.984 . S
N493 H497 0.985 1_554 S
H494 N489 0.984 . S
H495 N489 0.985 . S
H496 N493 0.984 . S
H497 N493 0.985 1_556 S
H498 N492 0.984 . S
H499 N492 0.984 . S
H500 N488 0.984 . S
H501 N488 0.985 . S
C502 C503 1.363 . S
C502 C508 1.379 . S
C502 N510 1.356 . S
C503 C502 1.363 . S
C503 C509 1.363 . S
C504 C505 1.363 . S
C504 C509 1.379 . S
C504 N511 1.356 . S
C505 C504 1.363 . S
C505 C508 1.363 . S
N506 C508 1.356 . S
N506 H518 0.984 . S
N506 H519 0.985 . S
N507 C509 1.356 . S
N507 H512 0.984 . S
N507 H513 0.985 . S
C508 C502 1.379 . S
C508 C505 1.363 . S
C508 N506 1.356 . S
C509 C503 1.363 . S
C509 C504 1.379 . S
C509 N507 1.356 . S
N510 C502 1.356 . S
N510 H516 0.984 . S
N510 H517 0.984 . S
N511 C504 1.356 . S
N511 H514 0.984 . S
N511 H515 0.985 . S
H512 N507 0.984 . S
H513 N507 0.985 . S
H514 N511 0.984 . S
H515 N511 0.985 . S
H516 N510 0.984 . S
H517 N510 0.984 . S
H518 N506 0.984 . S
H519 N506 0.985 . S
C520 C521 1.363 1_655 S
C520 C526 1.379 . S
C520 N528 1.356 . S
C521 C520 1.363 1_455 S
C521 C527 1.363 . S
C522 C523 1.363 . S
C522 C527 1.379 . S
C522 N529 1.356 . S
C523 C522 1.363 . S
C523 C526 1.363 1_455 S
N524 C526 1.356 . S
N524 H536 0.984 . S
N524 H537 0.985 . S
N525 C527 1.356 1_554 S
N525 H530 0.984 1_554 S
N525 H531 0.985 . S
C526 C520 1.379 . S
C526 C523 1.363 1_655 S
C526 N524 1.356 . S
C527 C521 1.363 . S
C527 C522 1.379 . S
C527 N525 1.356 1_556 S
N528 C520 1.356 . S
N528 H534 0.984 . S
N528 H535 0.984 . S
N529 C522 1.356 . S
N529 H532 0.984 . S
N529 H533 0.985 1_556 S
H530 N525 0.984 1_556 S
H531 N525 0.985 . S
H532 N529 0.984 . S
H533 N529 0.985 1_554 S
H534 N528 0.984 . S
H535 N528 0.984 . S
H536 N524 0.984 . S
H537 N524 0.985 . S
C538 C539 1.363 1_565 S
C538 C544 1.379 . S
C538 N546 1.356 . S
C539 C538 1.363 1_545 S
C539 C545 1.363 . S
C540 C541 1.363 . S
C540 C545 1.379 . S
C540 N547 1.356 . S
C541 C540 1.363 . S
C541 C544 1.363 1_545 S
N542 C544 1.356 . S
N542 H554 0.984 . S
N542 H555 0.985 . S
N543 C545 1.356 . S
N543 H548 0.984 . S
N543 H549 0.985 1_556 S
C544 C538 1.379 . S
C544 C541 1.363 1_565 S
C544 N542 1.356 . S
C545 C539 1.363 . S
C545 C540 1.379 . S
C545 N543 1.356 . S
N546 C538 1.356 . S
N546 H552 0.984 . S
N546 H553 0.984 . S
N547 C540 1.356 . S
N547 H550 0.984 . S
N547 H551 0.985 1_556 S
H548 N543 0.984 . S
H549 N543 0.985 1_554 S
H550 N547 0.984 . S
H551 N547 0.985 1_554 S
H552 N546 0.984 . S
H553 N546 0.984 . S
H554 N542 0.984 . S
H555 N542 0.985 . S
C556 C557 1.363 . S
C556 C562 1.379 . S
C556 N564 1.356 . S
C557 C556 1.363 . S
C557 C563 1.363 . S
C558 C559 1.363 . S
C558 C563 1.379 . S
C558 N565 1.356 . S
C559 C558 1.363 . S
C559 C562 1.363 . S
N560 C562 1.356 . S
N560 H572 0.984 . S
N560 H573 0.985 . S
N561 C563 1.356 . S
N561 H566 0.984 . S
N561 H567 0.985 1_556 S
C562 C556 1.379 . S
C562 C559 1.363 . S
C562 N560 1.356 . S
C563 C557 1.363 . S
C563 C558 1.379 . S
C563 N561 1.356 . S
N564 C556 1.356 . S
N564 H570 0.984 . S
N564 H571 0.984 . S
N565 C558 1.356 . S
N565 H568 0.984 . S
N565 H569 0.985 1_556 S
H566 N561 0.984 . S
H567 N561 0.985 1_554 S
H568 N565 0.984 . S
H569 N565 0.985 1_554 S
H570 N564 0.984 . S
H571 N564 0.984 . S
H572 N560 0.984 . S
H573 N560 0.985 . S
C574 C575 1.363 . S
C574 C580 1.379 . S
C574 N582 1.356 . S
C575 C574 1.363 . S
C575 C581 1.363 . S
C576 C577 1.363 . S
C576 C581 1.379 . S
C576 N583 1.356 . S
C577 C576 1.363 . S
C577 C580 1.363 . S
N578 C580 1.356 . S
N578 H590 0.984 1_556 S
N578 H591 0.985 . S
N579 C581 1.356 . S
N579 H584 0.984 . S
N579 H585 0.985 . S
C580 C574 1.379 . S
C580 C577 1.363 . S
C580 N578 1.356 . S
C581 C575 1.363 . S
C581 C576 1.379 . S
C581 N579 1.356 . S
N582 C574 1.356 . S
N582 H588 0.984 1_556 S
N582 H589 0.984 . S
N583 C576 1.356 . S
N583 H586 0.984 . S
N583 H587 0.985 . S
H584 N579 0.984 . S
H585 N579 0.985 . S
H586 N583 0.984 . S
H587 N583 0.985 . S
H588 N582 0.984 1_554 S
H589 N582 0.984 . S
H590 N578 0.984 1_554 S
H591 N578 0.985 . S
C592 C593 1.363 . S
C592 C598 1.379 . S
C592 N600 1.356 . S
C593 C592 1.363 . S
C593 C599 1.363 1_655 S
C594 C595 1.363 1_455 S
C594 C599 1.379 . S
C594 N601 1.356 . S
C595 C594 1.363 1_655 S
C595 C598 1.363 . S
N596 C598 1.356 . S
N596 H608 0.984 . S
N596 H609 0.985 . S
N597 C599 1.356 . S
N597 H602 0.984 . S
N597 H603 0.985 . S
C598 C592 1.379 . S
C598 C595 1.363 . S
C598 N596 1.356 . S
C599 C593 1.363 1_455 S
C599 C594 1.379 . S
C599 N597 1.356 . S
N600 C592 1.356 . S
N600 H606 0.984 . S
N600 H607 0.984 . S
N601 C594 1.356 . S
N601 H604 0.984 . S
N601 H605 0.985 . S
H602 N597 0.984 . S
H603 N597 0.985 . S
H604 N601 0.984 . S
H605 N601 0.985 . S
H606 N600 0.984 . S
H607 N600 0.984 . S
H608 N596 0.984 . S
H609 N596 0.985 . S
C610 C611 1.363 . S
C610 C616 1.379 . S
C610 N618 1.356 1_565 S
C611 C610 1.363 . S
C611 C617 1.363 . S
C612 C613 1.363 . S
C612 C617 1.379 . S
C612 N619 1.356 . S
C613 C612 1.363 . S
C613 C616 1.363 . S
N614 C616 1.356 . S
N614 H626 0.984 1_565 S
N614 H627 0.985 . S
N615 C617 1.356 . S
N615 H620 0.984 . S
N615 H621 0.985 . S
C616 C610 1.379 . S
C616 C613 1.363 . S
C616 N614 1.356 . S
C617 C611 1.363 . S
C617 C612 1.379 . S
C617 N615 1.356 . S
N618 C610 1.356 1_545 S
N618 H624 0.984 . S
N618 H625 0.984 . S
N619 C612 1.356 . S
N619 H622 0.984 . S
N619 H623 0.985 . S
H620 N615 0.984 . S
H621 N615 0.985 . S
H622 N619 0.984 . S
H623 N619 0.985 . S
H624 N618 0.984 . S
H625 N618 0.984 . S
H626 N614 0.984 1_545 S
H627 N614 0.985 . S
C628 C629 1.363 . S
C628 C634 1.379 . S
C628 N636 1.356 . S
C629 C628 1.363 . S
C629 C635 1.363 . S
C630 C631 1.363 . S
C630 C635 1.379 . S
C630 N637 1.356 . S
C631 C630 1.363 . S
C631 C634 1.363 . S
N632 C634 1.356 . S
N632 H644 0.984 . S
N632 H645 0.985 . S
N633 C635 1.356 . S
N633 H638 0.984 . S
N633 H639 0.985 . S
C634 C628 1.379 . S
C634 C631 1.363 . S
C634 N632 1.356 . S
C635 C629 1.363 . S
C635 C630 1.379 . S
C635 N633 1.356 . S
N636 C628 1.356 . S
N636 H642 0.984 . S
N636 H643 0.984 . S
N637 C630 1.356 . S
N637 H640 0.984 . S
N637 H641 0.985 . S
H638 N633 0.984 . S
H639 N633 0.985 . S
H640 N637 0.984 . S
H641 N637 0.985 . S
H642 N636 0.984 . S
H643 N636 0.984 . S
H644 N632 0.984 . S
H645 N632 0.985 . S
C646 C647 1.363 . S
C646 C652 1.379 . S
C646 N654 1.356 . S
C647 C646 1.363 . S
C647 C653 1.363 . S
C648 C649 1.363 . S
C648 C653 1.379 . S
C648 N655 1.356 . S
C649 C648 1.363 . S
C649 C652 1.363 . S
N650 C652 1.356 . S
N650 H662 0.984 . S
N650 H663 0.985 . S
N651 C653 1.356 . S
N651 H656 0.984 . S
N651 H657 0.985 . S
C652 C646 1.379 . S
C652 C649 1.363 . S
C652 N650 1.356 . S
C653 C647 1.363 . S
C653 C648 1.379 . S
C653 N651 1.356 . S
N654 C646 1.356 . S
N654 H660 0.984 . S
N654 H661 0.984 . S
N655 C648 1.356 . S
N655 H658 0.984 . S
N655 H659 0.985 . S
H656 N651 0.984 . S
H657 N651 0.985 . S
H658 N655 0.984 . S
H659 N655 0.985 . S
H660 N654 0.984 . S
H661 N654 0.984 . S
H662 N650 0.984 . S
H663 N650 0.985 . S
C233 C61 1.986 1_545 S
C235 C81 2.258 1_545 S
C253 C121 2.283 . S
C251 C70 2.031 . S
C271 C161 2.294 . S
C269 C43 2.032 . S
C289 C201 2.275 1_455 S
C287 C52 2.007 1_455 S
C307 C90 2.259 1_554 S
C305 C25 1.988 1_545 S
C323 C34 2.035 . S
C325 C130 2.285 1_554 S
C341 C7 2.030 . S
C343 C170 2.295 1_554 S
C359 C16 2.007 . S
C361 C210 2.274 1_654 S
C379 C87 0.909 . S
C377 C50 0.959 . S
C397 C127 0.893 . S
C395 C59 0.933 . S
C415 C167 0.876 . S
C413 C67 0.919 . S
C431 C41 0.936 . S
C433 C207 0.885 . S
C449 C14 0.963 1_455 S
C451 C78 0.912 . S
C469 C118 0.893 . S
C467 C23 0.936 1_545 S
C487 C158 0.876 . S
C485 C31 0.915 . S
C503 C5 0.944 . S
C505 C198 0.891 . S
C521 C49 2.304 1_455 S
C523 C91 2.610 . S
C539 C58 2.249 1_545 S
C541 C131 2.554 . S
C559 C171 2.539 . S
C557 C68 2.233 . S
C577 C211 2.595 . S
C575 C40 2.286 . S
C593 C13 2.303 . S
C595 C82 2.617 . S
C613 C122 2.554 . S
C611 C22 2.248 . S
C631 C162 2.540 . S
C629 C32 2.241 . S
C647 C4 2.286 . S
C649 C202 2.599 . S
