# Generated by pormake.
# Topology ctn, (3,4)-cn, num edge types: 1
# Building blocks:
#     Node 0, Type 0, BuildingBlock: QEWDON_clean_linker_0, # of connection points: 3
#     Node 1, Type 0, BuildingBlock: QEWDON_clean_linker_0, # of connection points: 3
#     Node 2, Type 0, BuildingBlock: QEWDON_clean_linker_0, # of connection points: 3
#     Node 3, Type 0, BuildingBlock: QEWDON_clean_linker_0, # of connection points: 3
#     Node 4, Type 0, BuildingBlock: QEWDON_clean_linker_0, # of connection points: 3
#     Node 5, Type 0, BuildingBlock: QEWDON_clean_linker_0, # of connection points: 3
#     Node 6, Type 0, BuildingBlock: QEWDON_clean_linker_0, # of connection points: 3
#     Node 7, Type 0, BuildingBlock: QEWDON_clean_linker_0, # of connection points: 3
#     Node 8, Type 0, BuildingBlock: QEWDON_clean_linker_0, # of connection points: 3
#     Node 9, Type 0, BuildingBlock: QEWDON_clean_linker_0, # of connection points: 3
#     Node 10, Type 0, BuildingBlock: QEWDON_clean_linker_0, # of connection points: 3
#     Node 11, Type 0, BuildingBlock: QEWDON_clean_linker_0, # of connection points: 3
#     Node 12, Type 0, BuildingBlock: QEWDON_clean_linker_0, # of connection points: 3
#     Node 13, Type 0, BuildingBlock: QEWDON_clean_linker_0, # of connection points: 3
#     Node 14, Type 0, BuildingBlock: QEWDON_clean_linker_0, # of connection points: 3
#     Node 15, Type 0, BuildingBlock: QEWDON_clean_linker_0, # of connection points: 3
#     Node 16, Type 1, BuildingBlock: QUQFOY_clean_sbu_1, # of connection points: 4
#     Node 17, Type 1, BuildingBlock: QUQFOY_clean_sbu_1, # of connection points: 4
#     Node 18, Type 1, BuildingBlock: QUQFOY_clean_sbu_1, # of connection points: 4
#     Node 19, Type 1, BuildingBlock: QUQFOY_clean_sbu_1, # of connection points: 4
#     Node 20, Type 1, BuildingBlock: QUQFOY_clean_sbu_1, # of connection points: 4
#     Node 21, Type 1, BuildingBlock: QUQFOY_clean_sbu_1, # of connection points: 4
#     Node 22, Type 1, BuildingBlock: QUQFOY_clean_sbu_1, # of connection points: 4
#     Node 23, Type 1, BuildingBlock: QUQFOY_clean_sbu_1, # of connection points: 4
#     Node 24, Type 1, BuildingBlock: QUQFOY_clean_sbu_1, # of connection points: 4
#     Node 25, Type 1, BuildingBlock: QUQFOY_clean_sbu_1, # of connection points: 4
#     Node 26, Type 1, BuildingBlock: QUQFOY_clean_sbu_1, # of connection points: 4
#     Node 27, Type 1, BuildingBlock: QUQFOY_clean_sbu_1, # of connection points: 4
#     Edge 28, Type (0, 1), BuildingBlock: EZIPEK_clean_linker_0, # of connection points: 2
#     Edge 29, Type (0, 1), BuildingBlock: EZIPEK_clean_linker_0, # of connection points: 2
#     Edge 30, Type (0, 1), BuildingBlock: EZIPEK_clean_linker_0, # of connection points: 2
#     Edge 31, Type (0, 1), BuildingBlock: EZIPEK_clean_linker_0, # of connection points: 2
#     Edge 32, Type (0, 1), BuildingBlock: EZIPEK_clean_linker_0, # of connection points: 2
#     Edge 33, Type (0, 1), BuildingBlock: EZIPEK_clean_linker_0, # of connection points: 2
#     Edge 34, Type (0, 1), BuildingBlock: EZIPEK_clean_linker_0, # of connection points: 2
#     Edge 35, Type (0, 1), BuildingBlock: EZIPEK_clean_linker_0, # of connection points: 2
#     Edge 36, Type (0, 1), BuildingBlock: EZIPEK_clean_linker_0, # of connection points: 2
#     Edge 37, Type (0, 1), BuildingBlock: EZIPEK_clean_linker_0, # of connection points: 2
#     Edge 38, Type (0, 1), BuildingBlock: EZIPEK_clean_linker_0, # of connection points: 2
#     Edge 39, Type (0, 1), BuildingBlock: EZIPEK_clean_linker_0, # of connection points: 2
#     Edge 40, Type (0, 1), BuildingBlock: EZIPEK_clean_linker_0, # of connection points: 2
#     Edge 41, Type (0, 1), BuildingBlock: EZIPEK_clean_linker_0, # of connection points: 2
#     Edge 42, Type (0, 1), BuildingBlock: EZIPEK_clean_linker_0, # of connection points: 2
#     Edge 43, Type (0, 1), BuildingBlock: EZIPEK_clean_linker_0, # of connection points: 2
#     Edge 44, Type (0, 1), BuildingBlock: EZIPEK_clean_linker_0, # of connection points: 2
#     Edge 45, Type (0, 1), BuildingBlock: EZIPEK_clean_linker_0, # of connection points: 2
#     Edge 46, Type (0, 1), BuildingBlock: EZIPEK_clean_linker_0, # of connection points: 2
#     Edge 47, Type (0, 1), BuildingBlock: EZIPEK_clean_linker_0, # of connection points: 2
#     Edge 48, Type (0, 1), BuildingBlock: EZIPEK_clean_linker_0, # of connection points: 2
#     Edge 49, Type (0, 1), BuildingBlock: EZIPEK_clean_linker_0, # of connection points: 2
#     Edge 50, Type (0, 1), BuildingBlock: EZIPEK_clean_linker_0, # of connection points: 2
#     Edge 51, Type (0, 1), BuildingBlock: EZIPEK_clean_linker_0, # of connection points: 2
#     Edge 52, Type (0, 1), BuildingBlock: EZIPEK_clean_linker_0, # of connection points: 2
#     Edge 53, Type (0, 1), BuildingBlock: EZIPEK_clean_linker_0, # of connection points: 2
#     Edge 54, Type (0, 1), BuildingBlock: EZIPEK_clean_linker_0, # of connection points: 2
#     Edge 55, Type (0, 1), BuildingBlock: EZIPEK_clean_linker_0, # of connection points: 2
#     Edge 56, Type (0, 1), BuildingBlock: EZIPEK_clean_linker_0, # of connection points: 2
#     Edge 57, Type (0, 1), BuildingBlock: EZIPEK_clean_linker_0, # of connection points: 2
#     Edge 58, Type (0, 1), BuildingBlock: EZIPEK_clean_linker_0, # of connection points: 2
#     Edge 59, Type (0, 1), BuildingBlock: EZIPEK_clean_linker_0, # of connection points: 2
#     Edge 60, Type (0, 1), BuildingBlock: EZIPEK_clean_linker_0, # of connection points: 2
#     Edge 61, Type (0, 1), BuildingBlock: EZIPEK_clean_linker_0, # of connection points: 2
#     Edge 62, Type (0, 1), BuildingBlock: EZIPEK_clean_linker_0, # of connection points: 2
#     Edge 63, Type (0, 1), BuildingBlock: EZIPEK_clean_linker_0, # of connection points: 2
#     Edge 64, Type (0, 1), BuildingBlock: EZIPEK_clean_linker_0, # of connection points: 2
#     Edge 65, Type (0, 1), BuildingBlock: EZIPEK_clean_linker_0, # of connection points: 2
#     Edge 66, Type (0, 1), BuildingBlock: EZIPEK_clean_linker_0, # of connection points: 2
#     Edge 67, Type (0, 1), BuildingBlock: EZIPEK_clean_linker_0, # of connection points: 2
#     Edge 68, Type (0, 1), BuildingBlock: EZIPEK_clean_linker_0, # of connection points: 2
#     Edge 69, Type (0, 1), BuildingBlock: EZIPEK_clean_linker_0, # of connection points: 2
#     Edge 70, Type (0, 1), BuildingBlock: EZIPEK_clean_linker_0, # of connection points: 2
#     Edge 71, Type (0, 1), BuildingBlock: EZIPEK_clean_linker_0, # of connection points: 2
#     Edge 72, Type (0, 1), BuildingBlock: EZIPEK_clean_linker_0, # of connection points: 2
#     Edge 73, Type (0, 1), BuildingBlock: EZIPEK_clean_linker_0, # of connection points: 2
#     Edge 74, Type (0, 1), BuildingBlock: EZIPEK_clean_linker_0, # of connection points: 2
#     Edge 75, Type (0, 1), BuildingBlock: EZIPEK_clean_linker_0, # of connection points: 2
# Relax obj value: 0.134
# Max RMSD: 0.252
# Mean RMSD: 0.167
data_MOF--net-ctn--node1-QUQFOY_clean_sbu_1--node2-QEWDON_clean_linker_0--edge1-EZIPEK_clean_linker_0
_symmetry_space_group_name_H-M    P1
_symmetry_Int_Tables_number       1
_symmetry_cell_setting            triclinic
loop_
_symmetry_equiv_pos_as_xyz
'x, y, z'
_cell_length_a     38.01713
_cell_length_b     39.533285
_cell_length_c     43.358691
_cell_angle_alpha  102.55044
_cell_angle_beta   92.924697
_cell_angle_gamma 101.91313
loop_
_atom_site_label
_atom_site_type_symbol
_atom_site_fract_x
_atom_site_fract_y
_atom_site_fract_z
_atom_type_partial_charge
H0 H 0.14478 0.04383 0.07476 0.0
C1 C 0.12413 0.04393 0.09113 0.0
C2 C 0.11311 0.01429 0.10396 0.0
C3 C 0.10957 0.07406 0.09998 0.0
H4 H 0.0796 0.99234 0.13664 0.0
C5 C 0.08729 0.01479 0.12591 0.0
C6 C 0.07295 0.04504 0.13539 0.0
C7 C 0.08362 0.07442 0.12192 0.0
C8 C 0.12488 0.10631 0.08889 0.0
H9 H 0.07332 0.09813 0.12985 0.0
C10 C 0.10378 0.12026 0.06935 0.0
C11 C 0.11985 0.14959 0.05744 0.0
C12 C 0.16174 0.12235 0.09691 0.0
H13 H 0.17839 0.11194 0.1119 0.0
C14 C 0.17742 0.15185 0.08565 0.0
H15 H 0.0754 0.10786 0.06276 0.0
C16 C 0.15666 0.16537 0.06593 0.0
H17 H 0.16935 0.18804 0.05705 0.0
H18 H 0.20582 0.16407 0.09199 0.0
H19 H 0.38182 0.76965 0.29394 0.0
C20 C 0.35973 0.74646 0.29012 0.0
C21 C 0.36581 0.71485 0.29686 0.0
C22 C 0.32478 0.7487 0.28021 0.0
H23 H 0.34197 0.66087 0.29792 0.0
C24 C 0.33716 0.68512 0.29241 0.0
C25 C 0.30177 0.68768 0.28418 0.0
C26 C 0.2958 0.71962 0.27801 0.0
C27 C 0.31786 0.78244 0.27504 0.0
H28 H 0.26851 0.72212 0.27218 0.0
C29 C 0.31384 0.78771 0.24417 0.0
C30 C 0.30606 0.81957 0.23938 0.0
C31 C 0.31429 0.80914 0.3011 0.0
H32 H 0.31726 0.80535 0.32503 0.0
C33 C 0.3064 0.84072 0.29638 0.0
H34 H 0.31671 0.76716 0.22398 0.0
C35 C 0.30217 0.84593 0.26569 0.0
H36 H 0.29609 0.87058 0.2624 0.0
H37 H 0.30349 0.86119 0.31656 0.0
H38 H 0.08265 0.52126 0.06164 0.0
C39 C 0.0627 0.53613 0.05716 0.0
C40 C 0.04389 0.55007 0.08206 0.0
C41 C 0.05668 0.5421 0.02684 0.0
H42 H 1.00373 0.58051 0.09568 0.0
C43 C 0.01837 0.56971 0.07649 0.0
C44 C 0.01155 0.57505 0.04596 0.0
C45 C 0.03103 0.56157 0.02135 0.0
C46 C 0.07677 0.52738 1.00082 0.0
H47 H 0.02567 0.56569 0.99779 0.0
C48 C 0.07744 0.49117 0.99415 0.0
C49 C 0.09546 0.4767 0.96889 0.0
C50 C 0.09486 0.54915 0.98226 0.0
H51 H 0.09477 0.57719 0.9871 0.0
C52 C 0.11348 0.53485 0.95748 0.0
H53 H 0.06289 0.47394 0.00785 0.0
C54 C 0.11369 0.49869 0.95067 0.0
H55 H 0.12746 0.48772 0.93092 0.0
H56 H 0.12742 0.55176 0.94329 0.0
H57 H 0.81351 0.79573 0.28302 0.0
C58 C 0.81897 0.79088 0.25835 0.0
C59 C 0.83416 0.81964 0.24555 0.0
C60 C 0.81181 0.75591 0.23946 0.0
H61 H 0.85339 0.8358 0.20395 0.0
C62 C 0.84178 0.81355 0.21388 0.0
C63 C 0.83362 0.77912 0.19461 0.0
C64 C 0.81885 0.75032 0.20743 0.0
C65 C 0.79652 0.72523 0.25288 0.0
H66 H 0.81237 0.72369 0.19229 0.0
C67 C 0.76715 0.72619 0.27117 0.0
C68 C 0.75178 0.69671 0.28292 0.0
C69 C 0.81062 0.69448 0.24686 0.0
H70 H 0.83343 0.69313 0.23301 0.0
C71 C 0.79556 0.66526 0.25892 0.0
H72 H 0.75556 0.74945 0.27559 0.0
C73 C 0.76611 0.66625 0.27682 0.0
H74 H 0.75438 0.64333 0.28575 0.0
H75 H 0.80661 0.64173 0.25421 0.0
H76 H 0.15597 0.97503 0.48828 0.0
C77 C 0.1372 0.98524 0.47513 0.0
C78 C 0.14916 0.01708 0.46559 0.0
C79 C 0.10139 0.96595 0.4665 0.0
H80 H 0.13419 0.05511 0.44151 0.0
C81 C 0.12492 0.03034 0.44859 0.0
C82 C 0.0895 0.01073 0.43891 0.0
C83 C 0.07795 0.97848 0.44787 0.0
C84 C 0.08841 0.93197 0.47571 0.0
H85 H 0.05052 0.96322 0.44045 0.0
C86 C 0.09053 0.93023 0.50783 0.0
C87 C 0.0747 0.89856 0.5164 0.0
C88 C 0.07185 0.90145 0.45226 0.0
H89 H 0.07011 0.9022 0.42741 0.0
C90 C 0.05726 0.86975 0.46067 0.0
H91 H 0.10296 0.9537 0.52615 0.0
C92 C 0.05842 0.86832 0.49254 0.0
H93 H 0.04628 0.84366 0.49868 0.0
H94 H 0.04454 0.84635 0.44247 0.0
H95 H 0.28287 0.66864 0.79974 0.0
C96 C 0.27633 0.68324 0.82203 0.0
C97 C 0.27895 0.67025 0.84991 0.0
C98 C 0.26558 0.71528 0.82228 0.0
H99 H 0.28105 0.68842 0.90159 0.0
C100 C 0.27487 0.69338 0.8788 0.0
C101 C 0.26416 0.72536 0.87927 0.0
C102 C 0.25874 0.7358 0.85097 0.0
C103 C 0.26247 0.72788 0.79264 0.0
H104 H 0.25105 0.76086 0.85159 0.0
C105 C 0.2312 0.73878 0.78385 0.0
C106 C 0.22811 0.75022 0.75555 0.0
C107 C 0.29077 0.72907 0.77299 0.0
H108 H 0.31524 0.72112 0.77939 0.0
C109 C 0.2879 0.741 0.7451 0.0
H110 H 0.20891 0.73747 0.7985 0.0
C111 C 0.25668 0.75145 0.73631 0.0
H112 H 0.25456 0.76007 0.71435 0.0
H113 H 0.30986 0.74191 0.73014 0.0
H114 H 0.95974 0.64771 0.49965 0.0
C115 C 0.946 0.62217 0.50328 0.0
C116 C 0.93878 0.61863 0.53393 0.0
C117 C 0.93567 0.59281 0.47735 0.0
H118 H 0.913 0.58383 0.56207 0.0
C119 C 0.91977 0.58608 0.5385 0.0
C120 C 0.90951 0.55646 0.51274 0.0
C121 C 0.9187 0.55972 0.48234 0.0
C122 C 0.94047 0.59723 0.44484 0.0
H123 H 0.91057 0.53701 0.46229 0.0
C124 C 0.96252 0.57877 0.42594 0.0
C125 C 0.96744 0.58376 0.39523 0.0
C126 C 0.92284 0.62012 0.4326 0.0
H127 H 0.90561 0.63445 0.44685 0.0
C128 C 0.92702 0.62435 0.40176 0.0
H129 H 0.97669 0.56151 0.43542 0.0
C130 C 0.94933 0.60634 0.38312 0.0
H131 H 0.95308 0.61053 0.35952 0.0
H132 H 0.91327 0.64194 0.39241 0.0
H133 H 0.87632 0.89843 0.82497 0.0
C134 C 0.87444 0.87699 0.83715 0.0
C135 C 0.89247 0.84954 0.82674 0.0
C136 C 0.85506 0.8773 0.86393 0.0
H137 H 0.90472 0.80108 0.835 0.0
C138 C 0.89065 0.82215 0.84287 0.0
C139 C 0.87124 0.82222 0.86945 0.0
C140 C 0.85357 0.84977 0.8799 0.0
C141 C 0.83807 0.90721 0.87669 0.0
H142 H 0.83884 0.84988 0.90069 0.0
C143 C 0.81174 0.91634 0.85797 0.0
C144 C 0.79444 0.94349 0.87139 0.0
C145 C 0.84736 0.92594 0.90852 0.0
H146 H 0.86761 0.91938 0.92329 0.0
C147 C 0.83067 0.95328 0.92156 0.0
H148 H 0.80401 0.90182 0.83351 0.0
C149 C 0.80422 0.96194 0.90317 0.0
H150 H 0.79115 0.98292 0.91377 0.0
H151 H 0.83802 0.96758 0.94608 0.0
H152 H 0.37153 0.37245 0.31703 0.0
C153 C 0.37054 0.3524 0.33071 0.0
C154 C 0.38755 0.3241 0.32085 0.0
C155 C 0.35336 0.35545 0.35877 0.0
H156 H 0.39993 0.27658 0.33126 0.0
C157 C 0.38677 0.29843 0.3388 0.0
C158 C 0.36958 0.30129 0.36679 0.0
C159 C 0.35307 0.32986 0.37675 0.0
C160 C 0.3374 0.38632 0.37041 0.0
H161 H 0.34 0.33214 0.39853 0.0
C162 C 0.30935 0.39333 0.35203 0.0
C163 C 0.29407 0.42248 0.36386 0.0
C164 C 0.35003 0.40868 0.40049 0.0
H165 H 0.37161 0.40369 0.41496 0.0
C166 C 0.33517 0.43785 0.412 0.0
H167 H 0.29905 0.37596 0.32897 0.0
C168 C 0.3073 0.44475 0.39382 0.0
H169 H 0.29574 0.46727 0.40323 0.0
H170 H 0.34514 0.45505 0.43515 0.0
H171 H 0.60169 0.01202 0.55773 0.0
C172 C 0.5816 0.02621 0.55205 0.0
C173 C 0.56197 0.04082 0.57598 0.0
C174 C 0.5759 0.03042 0.52104 0.0
H175 H 0.52042 0.07014 0.58715 0.0
C176 C 0.53589 0.05912 0.56874 0.0
C177 C 0.52966 0.06299 0.53765 0.0
C178 C 0.55002 0.04905 0.51399 0.0
C179 C 0.59588 0.01403 0.49575 0.0
H180 H 0.54488 0.05174 0.4899 0.0
C181 C 0.59481 0.97748 0.48996 0.0
C182 C 0.61153 0.96109 0.46457 0.0
C183 C 0.61484 0.03434 0.47653 0.0
H184 H 0.61599 0.0626 0.48065 0.0
C185 C 0.63254 0.01825 0.45188 0.0
H186 H 0.5795 0.96143 0.50419 0.0
C187 C 0.63072 0.9817 0.44573 0.0
H188 H 0.64356 0.96936 0.42592 0.0
H189 H 0.64714 0.03403 0.43715 0.0
H190 H 0.29794 0.27476 0.78304 0.0
C191 C 0.30393 0.2676 0.75861 0.0
C192 C 0.32258 0.29404 0.7448 0.0
C193 C 0.29368 0.23208 0.74112 0.0
H194 H 0.34658 0.30554 0.70328 0.0
C195 C 0.33169 0.28505 0.71369 0.0
C196 C 0.32038 0.25012 0.69547 0.0
C197 C 0.30128 0.22376 0.70929 0.0
C198 C 0.27496 0.20374 0.75596 0.0
H199 H 0.29222 0.1968 0.6951 0.0
C200 C 0.24771 0.20984 0.77579 0.0
C201 C 0.22999 0.18313 0.78983 0.0
C202 C 0.28427 0.17043 0.75048 0.0
H203 H 0.30548 0.16506 0.73563 0.0
C204 C 0.26664 0.14384 0.76454 0.0
H205 H 0.23969 0.23509 0.77993 0.0
C206 C 0.23951 0.15009 0.78415 0.0
H207 H 0.22591 0.12925 0.79481 0.0
H208 H 0.27405 0.11834 0.76024 0.0
H209 H 0.88446 0.28609 0.79095 0.0
C210 C 0.86155 0.2638 0.78817 0.0
C211 C 0.86558 0.23361 0.79883 0.0
C212 C 0.82762 0.26594 0.7754 0.0
H213 H 0.83914 0.18197 0.8042 0.0
C214 C 0.83591 0.2051 0.79567 0.0
C215 C 0.80144 0.20772 0.78467 0.0
C216 C 0.7975 0.23822 0.77434 0.0
C217 C 0.82298 0.29863 0.76615 0.0
H218 H 0.7709 0.24084 0.76636 0.0
C219 C 0.81608 0.2989 0.73403 0.0
C220 C 0.81237 0.33048 0.72558 0.0
C221 C 0.82576 0.32991 0.78969 0.0
H222 H 0.83108 0.3301 0.81452 0.0
C223 C 0.82143 0.36108 0.78134 0.0
H224 H 0.8144 0.27494 0.71571 0.0
C225 C 0.81482 0.36145 0.74946 0.0
H226 H 0.81211 0.38599 0.74332 0.0
H227 H 0.82349 0.3851 0.79961 0.0
H228 H 0.62322 0.5378 0.57101 0.0
C229 C 0.60417 0.53346 0.58829 0.0
C230 C 0.5985 0.50152 0.59855 0.0
C231 C 0.58719 0.56067 0.60194 0.0
H232 H 0.57152 0.47244 0.63064 0.0
C233 C 0.5751 0.49657 0.62201 0.0
C234 C 0.5579 0.52358 0.63557 0.0
C235 C 0.56379 0.55533 0.62533 0.0
C236 C 0.59676 0.59621 0.59482 0.0
H237 H 0.55114 0.57646 0.63648 0.0
C238 C 0.59167 0.6009 0.56373 0.0
C239 C 0.59835 0.63544 0.55827 0.0
C240 C 0.60999 0.6261 0.61995 0.0
H241 H 0.61438 0.62305 0.644 0.0
C242 C 0.61764 0.66014 0.61437 0.0
H243 H 0.58126 0.57808 0.54418 0.0
C244 C 0.61165 0.66485 0.58378 0.0
H245 H 0.61705 0.69157 0.57999 0.0
H246 H 0.62781 0.68298 0.63389 0.0
H247 H 0.66131 0.49534 0.99934 0.0
C248 C 0.63944 0.50077 0.9855 0.0
C249 C 0.64464 0.53222 0.97463 0.0
C250 C 0.60655 0.47563 0.9772 0.0
H251 H 0.62048 0.56351 0.94838 0.0
C252 C 0.61638 0.53912 0.95665 0.0
C253 C 0.58386 0.51362 0.94731 0.0
C254 C 0.57919 0.4818 0.9576 0.0
C255 C 0.60128 0.44177 0.98719 0.0
H256 H 0.55429 0.46173 0.95022 0.0
C257 C 0.59312 0.44026 0.01817 0.0
C258 C 0.58455 0.40727 0.02651 0.0
C259 C 0.60207 0.41039 0.96496 0.0
H260 H 0.60815 0.41117 0.94094 0.0
C261 C 0.59467 0.37777 0.97351 0.0
H262 H 0.59195 0.46438 0.0353 0.0
C263 C 0.5857 0.37612 1.00405 0.0
H264 H 0.5792 0.35051 0.01011 0.0
H265 H 0.59529 0.35363 0.95626 0.0
H266 H 0.8 0.19425 0.27821 0.0
C267 C 0.79174 0.20709 0.30053 0.0
C268 C 0.80087 0.19691 0.32835 0.0
C269 C 0.77271 0.23417 0.30149 0.0
H270 H 0.79907 0.20687 0.37911 0.0
C271 C 0.79102 0.21393 0.35742 0.0
C272 C 0.77163 0.24071 0.35866 0.0
C273 C 0.76196 0.25032 0.33058 0.0
C274 C 0.7664 0.24718 0.27254 0.0
H275 H 0.74805 0.27185 0.33178 0.0
C276 C 0.73214 0.25207 0.2633 0.0
C277 C 0.72646 0.26391 0.23554 0.0
C278 C 0.79495 0.25488 0.25395 0.0
H279 H 0.8217 0.25176 0.26075 0.0
C280 C 0.78936 0.26715 0.22663 0.0
H281 H 0.70975 0.24585 0.27714 0.0
C282 C 0.75524 0.27156 0.21735 0.0
H283 H 0.75113 0.28061 0.19586 0.0
H284 H 0.81152 0.27306 0.21252 0.0
H285 H 0.43732 0.12808 0.97459 0.0
C286 C 0.42514 0.10476 0.98283 0.0
C287 C 0.42402 0.10687 0.01552 0.0
C288 C 0.40975 0.07271 0.96083 0.0
H289 H 0.40708 0.0783 0.05133 0.0
C290 C 0.40808 0.07672 0.02611 0.0
C291 C 0.39298 0.04467 1.0042 0.0
C292 C 0.39364 0.0428 0.97161 0.0
C293 C 0.40969 0.07017 0.92646 0.0
H294 H 0.3816 0.01804 0.95465 0.0
C295 C 0.44111 0.06713 0.91147 0.0
C296 C 0.44008 0.06142 0.87829 0.0
C297 C 0.37744 0.06811 0.9082 0.0
H298 H 0.3529 0.07008 0.91945 0.0
C299 C 0.37661 0.06315 0.87524 0.0
H300 H 0.46595 0.06808 0.92541 0.0
C301 C 0.40776 0.05961 0.86026 0.0
H302 H 0.40665 0.05523 0.83465 0.0
H303 H 0.35167 0.06159 0.86125 0.0
O304 O 0.27774 0.82 0.02329 0.0
Cd305 Cd 0.28505 0.85941 0.06432 0.0
Cd306 Cd 0.2431 0.88394 0.04195 0.0
O307 O 0.23647 0.8423 1.00215 0.0
O308 O 0.318 0.85111 0.0976 0.0
O309 O 0.2598 0.8505 0.10196 0.0
C310 C 0.29053 0.84738 0.11396 0.0
C311 C 0.19754 0.91154 0.06046 0.0
C312 C 0.2556 0.81916 1.00002 0.0
C313 C 0.32283 0.91558 0.03781 0.0
O314 O 0.29949 0.9152 0.05802 0.0
O315 O 0.29939 0.91393 0.05732 0.0
O316 O 0.21276 0.91786 0.03576 0.0
O317 O 0.2067 0.8879 0.07372 0.0
O318 O 0.16954 0.56681 0.3124 0.0
Cd319 Cd 0.14245 0.51604 0.31211 0.0
Cd320 Cd 0.1088 0.52982 0.25645 0.0
O321 O 0.16383 0.55195 0.2606 0.0
O322 O 0.17307 0.50055 0.34245 0.0
O323 O 0.16356 0.47526 0.29087 0.0
C324 C 0.17959 0.47776 0.31855 0.0
C325 C 0.0835 0.53029 0.20627 0.0
C326 C 0.18022 0.57208 0.28633 0.0
C327 C 0.07099 0.5283 0.31779 0.0
O328 O 0.07576 0.54006 0.29287 0.0
O329 O 0.09236 0.51119 0.32743 0.0
O330 O 0.09282 0.55871 0.22848 0.0
O331 O 0.08695 0.50067 0.21264 0.0
O332 O 0.83766 0.7337 0.97256 0.0
Cd333 Cd 0.82376 0.70925 0.00874 0.0
Cd334 Cd 0.85773 0.66053 0.97801 0.0
O335 O 0.8671 0.69485 0.94762 0.0
O336 O 0.81278 0.74608 0.04352 0.0
O337 O 0.85747 0.71945 0.04823 0.0
C338 C 0.83999 0.74286 0.06076 0.0
C339 C 0.90466 0.64223 1.00128 0.0
C340 C 0.85581 0.72336 0.95003 0.0
C341 C 0.77938 0.63552 0.98669 0.0
O342 O 0.80744 0.62724 0.97532 0.0
O343 O 0.77987 0.6673 1.00084 0.0
O344 O 0.89269 0.62901 0.97182 0.0
O345 O 0.89091 0.66696 0.01737 0.0
O346 O 0.98881 0.02308 0.32307 0.0
Cd347 Cd 0.95657 0.01734 0.28191 0.0
Cd348 Cd 0.91388 0.04365 0.32636 0.0
O349 O 0.95971 0.05371 0.35757 0.0
O350 O 0.98899 1.00415 0.24867 0.0
O351 O 0.9663 0.052 0.2534 0.0
C352 C 0.98623 0.03208 0.23897 0.0
C353 C 0.88308 0.08841 0.32504 0.0
C354 C 0.98622 0.03927 0.35129 0.0
C355 C 0.8893 0.96757 0.29018 0.0
O356 O 0.8849 0.99136 0.31365 0.0
O357 O 0.91459 0.97369 0.27277 0.0
O358 O 0.88033 0.07175 0.34758 0.0
O359 O 0.90364 0.07991 0.30314 0.0
O360 O 0.34439 0.21359 0.47441 0.0
Cd361 Cd 0.33128 0.18398 0.50745 0.0
Cd362 Cd 0.36666 0.13897 0.47268 0.0
O363 O 0.37152 0.17576 0.44456 0.0
O364 O 0.31216 0.21307 0.54309 0.0
O365 O 0.36196 0.19345 0.54883 0.0
C366 C 0.33807 0.20946 0.56158 0.0
C367 C 0.41671 0.12407 0.49416 0.0
C368 C 0.3606 0.20464 0.45004 0.0
C369 C 0.28995 0.10903 0.4801 0.0
O370 O 0.31857 0.10205 0.46904 0.0
O371 O 0.28947 0.14018 0.49516 0.0
O372 O 0.40453 0.11104 0.46473 0.0
O373 O 0.40128 0.1467 0.5113 0.0
O374 O 0.47652 0.50553 0.82753 0.0
Cd375 Cd 0.44518 0.49504 0.7852 0.0
Cd376 Cd 0.39651 0.51923 0.82921 0.0
O377 O 0.44235 0.53085 0.8609 0.0
O378 O 0.47953 0.48119 0.75406 0.0
O379 O 0.45396 0.5266 0.75406 0.0
C380 C 0.47536 0.50707 0.74178 0.0
C381 C 0.35996 0.56077 0.83452 0.0
C382 C 0.47143 0.52051 0.85545 0.0
C383 C 0.37829 0.4427 0.79136 0.0
O384 O 0.37049 0.46606 0.81344 0.0
O385 O 0.40558 0.44973 0.77635 0.0
O386 O 0.36022 0.54027 0.85387 0.0
O387 O 0.3808 0.558 0.81192 0.0
O388 O 0.77491 0.3195 0.50497 0.0
Cd389 Cd 0.79198 0.35818 0.54603 0.0
Cd390 Cd 0.73894 0.38697 0.52589 0.0
O391 O 0.73448 0.34507 0.48643 0.0
O392 O 0.81822 0.33874 0.57663 0.0
O393 O 0.76884 0.35919 0.58674 0.0
C394 C 0.79476 0.34597 0.59608 0.0
C395 C 0.69023 0.40778 0.54732 0.0
C396 C 0.75227 0.32073 0.48285 0.0
C397 C 0.81597 0.42917 0.53271 0.0
O398 O 0.78248 0.42831 0.52859 0.0
O399 O 0.82659 0.40296 0.53937 0.0
O400 O 0.69833 0.41049 0.51936 0.0
O401 O 0.70768 0.39033 0.56217 0.0
O402 O 0.66844 0.09061 0.81822 0.0
Cd403 Cd 0.64408 0.03978 0.82009 0.0
Cd404 Cd 0.61318 0.04285 0.75942 0.0
O405 O 0.66657 0.07113 0.76691 0.0
O406 O 0.6756 0.02558 0.85065 0.0
O407 O 0.66629 0.99988 0.79907 0.0
C408 C 0.68249 1.00286 0.82681 0.0
C409 C 0.5931 0.03512 0.7061 0.0
C410 C 0.68035 0.09404 0.7921 0.0
C411 C 0.5684 0.04159 0.81721 0.0
O412 O 0.57335 0.04927 0.79048 0.0
O413 O 0.59262 0.03215 0.83237 0.0
O414 O 0.59668 0.0651 0.72608 0.0
O415 O 0.59938 0.00848 0.71644 0.0
O416 O 0.05806 0.30544 0.94885 0.0
Cd417 Cd 0.04116 0.25079 0.93557 0.0
Cd418 Cd 0.07697 0.25885 0.8855 0.0
O419 O 0.09295 0.31091 0.91016 0.0
O420 O 0.03111 0.2327 0.97455 0.0
O421 O 0.07457 0.2203 0.94468 0.0
C422 C 0.05796 0.21752 0.96959 0.0
C423 C 0.12 0.23082 0.86184 0.0
C424 C 0.07999 0.3246 0.93505 0.0
C425 C 0.9963 0.23555 0.87403 0.0
O426 O 0.02567 0.2456 0.86259 0.0
O427 O 0.99628 0.23269 0.9027 0.0
O428 O 0.10844 0.25437 0.85034 0.0
O429 O 0.10714 0.22287 0.88698 0.0
O430 O 0.57306 0.78637 0.4392 0.0
Cd431 Cd 0.55454 0.73195 0.42146 0.0
Cd432 Cd 0.58306 0.74703 0.36993 0.0
O433 O 0.59656 0.79834 0.39621 0.0
O434 O 0.54407 0.71294 0.4598 0.0
O435 O 0.58433 0.69682 0.42795 0.0
C436 C 0.56834 0.69474 0.45327 0.0
C437 C 0.62886 0.72346 0.34698 0.0
C438 C 0.58915 0.80855 0.42442 0.0
C439 C 0.50338 0.71983 0.36301 0.0
O440 O 0.53074 0.73087 0.34935 0.0
O441 O 0.50703 0.71635 0.39142 0.0
O442 O 0.61462 0.74518 0.33492 0.0
O443 O 0.61633 0.7141 0.37175 0.0
O444 O 1.00186 0.80639 0.72949 0.0
Cd445 Cd 0.03421 0.78237 0.69893 0.0
Cd446 Cd 0.00782 0.82094 0.66033 0.0
O447 O 0.98198 0.83867 0.69946 0.0
O448 O 0.06372 0.76029 0.72458 0.0
O449 O 0.08767 0.8023 0.70038 0.0
C450 C 0.09199 0.77998 0.71725 0.0
C451 C 0.03916 0.85741 0.6307 0.0
C452 C 0.98274 0.82816 0.72517 0.0
C453 C 0.99158 0.74152 0.63724 0.0
O454 O 0.98662 0.77086 0.63268 0.0
O455 O 0.00992 0.74025 0.66207 0.0
O456 O 1.00438 0.85074 0.62937 0.0
O457 O 0.05653 0.84627 0.65145 0.0
O458 O 0.4898 0.28512 0.21206 0.0
Cd459 Cd 0.52231 0.26904 0.17769 0.0
Cd460 Cd 0.49093 0.31049 0.14721 0.0
O461 O 0.46532 0.32004 0.18818 0.0
O462 O 0.55634 0.24686 0.19854 0.0
O463 O 0.57407 0.29531 0.18035 0.0
C464 C 0.5821 0.27156 0.19403 0.0
C465 C 0.52409 0.35761 0.12854 0.0
C466 C 0.46864 0.30608 0.21166 0.0
C467 C 0.47934 0.23379 0.11447 0.0
O468 O 0.47169 0.26344 0.11386 0.0
O469 O 0.49941 0.23058 0.1375 0.0
O470 O 0.48924 0.34922 0.1249 0.0
O471 O 0.54006 0.33895 0.14325 0.0
C472 C 0.29152 0.77714 0.92439 0.0
C473 C 0.26136 0.7495 0.91007 0.0
C474 C 0.22748 0.76628 0.95559 0.0
C475 C 0.25686 0.79526 0.96886 0.0
N476 N 0.31385 0.83271 0.96322 0.0
N477 N 0.19908 0.71998 0.90932 0.0
C478 C 0.28809 0.8019 0.95253 0.0
C479 C 0.22882 0.7447 0.9249 0.0
N480 N 0.32377 0.7792 0.91148 0.0
N481 N 0.19891 0.7588 0.97278 0.0
H482 H 0.19941 0.70329 0.88715 0.0
H483 H 0.17347 0.71759 0.91719 0.0
H484 H 0.197 0.7744 0.99511 0.0
H485 H 0.17836 0.73594 0.96605 0.0
H486 H 0.34785 0.79605 0.92284 0.0
H487 H 0.32722 0.76208 0.89043 0.0
H488 H 0.33512 0.84099 0.95043 0.0
H489 H 0.3123 0.8518 0.9836 0.0
C490 C 0.03122 0.58429 0.3834 0.0
C491 C 0.99397 0.56772 0.37659 0.0
C492 C 0.007 0.52488 0.33095 0.0
C493 C 0.04439 0.54036 0.33875 0.0
N494 N 0.09304 0.58151 0.37452 0.0
N495 N 0.94636 0.51951 0.34748 0.0
C496 C 0.05678 0.56894 0.36575 0.0
C497 C 0.98182 0.53716 0.35137 0.0
N498 N 0.04199 0.61568 0.40575 0.0
N499 N 0.99564 0.49891 0.30376 0.0
H500 H 0.92726 0.52802 0.36194 0.0
H501 H 0.93632 0.49509 0.33162 0.0
H502 H 0.01351 0.48833 0.28904 0.0
H503 H 0.96866 0.48923 0.29475 0.0
H504 H 0.06808 0.63142 0.40913 0.0
H505 H 0.02422 0.62766 0.41953 0.0
H506 H 0.10368 0.59906 0.3961 0.0
H507 H 0.11288 0.57272 0.36124 0.0
C508 C 0.89738 0.79787 0.91205 0.0
C509 C 0.87 0.79389 0.88717 0.0
C510 C 0.83543 0.74065 0.90107 0.0
C511 C 0.86273 0.74471 0.92601 0.0
N512 N 0.92255 0.77214 0.95176 0.0
N513 N 0.81693 0.75841 0.85362 0.0
C514 C 0.89473 0.77171 0.93029 0.0
C515 C 0.84026 0.76419 0.88027 0.0
N516 N 0.92509 0.82741 0.91898 0.0
N517 N 0.80441 0.71495 0.89798 0.0
H518 H 0.81948 0.77547 0.83817 0.0
H519 H 0.79674 0.73548 0.84539 0.0
H520 H 0.80076 0.69616 0.9118 0.0
H521 H 0.78158 0.71316 0.88289 0.0
H522 H 0.94364 0.83415 0.93902 0.0
H523 H 0.92848 0.84655 0.90553 0.0
H524 H 0.94799 0.78894 0.95403 0.0
H525 H 0.92112 0.7536 0.96576 0.0
C526 C 0.03044 0.02743 0.42834 0.0
C527 C 0.06458 0.02321 0.41849 0.0
C528 C 0.0502 0.04237 0.3703 0.0
C529 C 0.01361 0.03881 0.37685 0.0
N530 N 0.96775 0.02075 0.41077 0.0
N531 N 0.10409 0.02032 0.37631 0.0
C532 C 1.0033 0.02982 0.40569 0.0
C533 C 0.07393 0.02923 0.38851 0.0
N534 N 0.0239 0.02934 0.45928 0.0
N535 N 0.0624 0.05852 0.34683 0.0
H536 H 0.12104 0.00822 0.38768 0.0
H537 H 0.10995 0.02132 0.35326 0.0
H538 H 0.04609 0.06997 0.33399 0.0
H539 H 0.08958 0.06414 0.34284 0.0
H540 H 1.0004 0.03547 0.4681 0.0
H541 H 0.04354 0.02869 0.47672 0.0
H542 H 0.95943 0.01066 0.43016 0.0
H543 H 0.94635 0.01936 0.39428 0.0
C544 C 0.31639 0.26003 0.63994 0.0
C545 C 0.3279 0.24131 0.66161 0.0
C546 C 0.3464 0.20075 0.61757 0.0
C547 C 0.33867 0.22198 0.59656 0.0
N548 N 0.32737 0.27849 0.59112 0.0
N549 N 0.36399 0.20054 0.67189 0.0
C550 C 0.32721 0.25379 0.60882 0.0
C551 C 0.34624 0.21383 0.65073 0.0
N552 N 0.29359 0.28232 0.64826 0.0
N553 N 0.35132 0.16716 0.60626 0.0
H554 H 0.36565 0.21038 0.6964 0.0
H555 H 0.38031 0.18261 0.6649 0.0
H556 H 0.34882 0.15479 0.58224 0.0
H557 H 0.35366 0.14993 0.62098 0.0
H558 H 0.28215 0.29401 0.63208 0.0
H559 H 0.28284 0.28592 0.67007 0.0
H560 H 0.32185 0.30331 0.60019 0.0
H561 H 0.33731 0.27592 0.56894 0.0
C562 C 0.49849 0.50652 0.65737 0.0
C563 C 0.53639 0.52025 0.66283 0.0
C564 C 0.53387 0.5271 0.72025 0.0
C565 C 0.4958 0.51438 0.7149 0.0
N566 N 0.44084 0.49624 0.67953 0.0
N567 N 0.58989 0.54844 0.69898 0.0
C568 C 0.47777 0.50553 0.68377 0.0
C569 C 0.55402 0.53193 0.69417 0.0
N570 N 0.4826 0.49346 0.62689 0.0
N571 N 0.5508 0.53408 0.75031 0.0
H572 H 0.60585 0.55146 0.68047 0.0
H573 H 0.60351 0.56128 0.7212 0.0
H574 H 0.53684 0.53339 0.77035 0.0
H575 H 0.57868 0.53895 0.75544 0.0
H576 H 0.45586 0.47959 0.62101 0.0
H577 H 0.49689 0.49449 0.60707 0.0
H578 H 0.42572 0.49303 0.658 0.0
H579 H 0.4249 0.49393 0.69816 0.0
C580 C 0.83745 0.35055 0.67861 0.0
C581 C 0.80801 0.33215 0.69168 0.0
C582 C 0.77079 0.31928 0.64076 0.0
C583 C 0.79896 0.34112 0.62899 0.0
N584 N 0.85647 0.38339 0.63911 0.0
N585 N 0.74509 0.30277 0.68693 0.0
C586 C 0.83166 0.35826 0.64852 0.0
C587 C 0.7742 0.31747 0.67321 0.0
N588 N 0.8712 0.36003 0.6947 0.0
N589 N 0.74142 0.29924 0.62067 0.0
H590 H 0.7467 0.30054 0.71047 0.0
H591 H 0.71884 0.29524 0.67576 0.0
H592 H 0.73821 0.29951 0.5967 0.0
H593 H 0.72186 0.28002 0.62701 0.0
H594 H 0.89438 0.3701 0.68484 0.0
H595 H 0.87658 0.35467 0.71677 0.0
H596 H 0.87893 0.39942 0.65387 0.0
H597 H 0.85283 0.39092 0.61777 0.0
C598 C 0.54647 0.01305 0.62194 0.0
C599 C 0.56998 0.03805 0.60903 0.0
C600 C 0.61149 0.05496 0.65755 0.0
C601 C 0.58603 0.03319 0.67187 0.0
N602 N 0.52776 0.99398 0.66933 0.0
N603 N 0.62218 0.08653 0.61576 0.0
C604 C 0.55315 0.01264 0.65447 0.0
C605 C 0.60181 0.06002 0.62716 0.0
N606 N 0.51827 0.98928 0.60294 0.0
N607 N 0.64542 0.06987 0.67265 0.0
H608 H 0.61603 0.09113 0.59352 0.0
H609 H 0.64335 0.10591 0.62939 0.0
H610 H 0.65386 0.06592 0.69462 0.0
H611 H 0.66631 0.08312 0.66209 0.0
H612 H 0.50241 0.96802 0.60998 0.0
H613 H 0.51238 0.98915 0.57914 0.0
H614 H 0.50163 0.98173 0.65898 0.0
H615 H 0.53202 0.99274 0.69298 0.0
C616 C 0.92278 0.21199 0.80509 0.0
C617 C 0.8992 0.23376 0.81783 0.0
C618 C 0.9399 0.25735 0.86679 0.0
C619 C 0.96187 0.23324 0.85535 0.0
N620 N 0.97187 0.18403 0.81567 0.0
N621 N 0.88097 0.27102 0.86333 0.0
C622 C 0.95266 0.20951 0.82501 0.0
C623 C 0.90645 0.2546 0.84944 0.0
N624 N 0.91709 0.19446 0.77379 0.0
N625 N 0.95179 0.2843 0.89326 0.0
H626 H 0.85595 0.26979 0.85159 0.0
H627 H 0.88332 0.28311 0.88745 0.0
H628 H 0.97663 0.28832 0.90642 0.0
H629 H 0.93862 0.30493 0.90035 0.0
H630 H 0.9353 0.18107 0.7622 0.0
H631 H 0.89536 0.19566 0.75867 0.0
H632 H 0.96443 0.16372 0.79519 0.0
H633 H 0.99366 0.18135 0.82988 0.0
C634 C 0.63485 0.90532 0.46093 0.0
C635 C 0.6059 0.92179 0.45592 0.0
C636 C 0.56498 0.86344 0.43636 0.0
C637 C 0.5947 0.84711 0.43811 0.0
N638 N 0.65847 0.85182 0.44921 0.0
N639 N 0.54495 0.91715 0.43398 0.0
C640 C 0.62986 0.86787 0.44961 0.0
C641 C 0.57129 0.90102 0.44249 0.0
N642 N 0.6667 0.92538 0.47726 0.0
N643 N 0.53065 0.84303 0.42872 0.0
H644 H 0.54855 0.94464 0.43747 0.0
H645 H 0.5206 0.90331 0.42079 0.0
H646 H 0.52496 0.81537 0.42289 0.0
H647 H 0.50759 0.85339 0.4307 0.0
H648 H 0.68761 0.91462 0.48449 0.0
H649 H 0.6712 0.95285 0.48586 0.0
H650 H 0.68531 0.86576 0.45377 0.0
H651 H 0.65544 0.82429 0.44249 0.0
C652 C 0.20965 0.20726 0.84252 0.0
C653 C 0.20074 0.19001 0.80995 0.0
C654 C 0.13715 0.19144 0.81473 0.0
C655 C 0.14698 0.21319 0.84582 0.0
N656 N 0.19235 0.24362 0.8894 0.0
N657 N 0.15687 0.16656 0.76412 0.0
C658 C 0.18309 0.22117 0.85999 0.0
C659 C 0.16462 0.18198 0.79584 0.0
N660 N 0.24349 0.21023 0.85662 0.0
N661 N 0.10143 0.17933 0.80359 0.0
H662 H 0.17607 0.15814 0.74975 0.0
H663 H 0.13201 0.16396 0.75155 0.0
H664 H 0.08067 0.18558 0.81706 0.0
H665 H 0.09216 0.16063 0.78234 0.0
H666 H 0.25075 0.21932 0.88096 0.0
H667 H 0.26371 0.20084 0.84427 0.0
H668 H 0.21889 0.25391 0.89949 0.0
H669 H 0.17354 0.25387 0.90312 0.0
C670 C 0.62012 0.65794 0.51141 0.0
C671 C 0.59087 0.64206 0.5263 0.0
C672 C 0.54856 0.64997 0.48531 0.0
C673 C 0.57727 0.67252 0.47488 0.0
N674 N 0.64097 0.70048 0.48016 0.0
N675 N 0.52645 0.62493 0.52869 0.0
C676 C 0.61339 0.6767 0.48802 0.0
C677 C 0.5548 0.63805 0.51333 0.0
N678 N 0.65436 0.65532 0.51995 0.0
N679 N 0.51542 0.63959 0.46817 0.0
H680 H 0.52965 0.61594 0.54931 0.0
H681 H 0.49981 0.62544 0.52228 0.0
H682 H 0.51032 0.64704 0.447 0.0
H683 H 0.49435 0.62063 0.47302 0.0
H684 H 0.67644 0.66352 0.50796 0.0
H685 H 0.65991 0.64156 0.53695 0.0
H686 H 0.66696 0.70741 0.49184 0.0
H687 H 0.6375 0.71573 0.46394 0.0
C688 C 0.95266 0.86361 0.80558 0.0
C689 C 0.91478 0.84971 0.79964 0.0
C690 C 0.92099 0.82494 0.74378 0.0
C691 C 0.9589 0.83892 0.74967 0.0
N692 N 0.01006 0.87748 0.7837 0.0
N693 N 0.86177 0.82389 0.76256 0.0
C694 C 0.9745 0.86015 0.77988 0.0
C695 C 0.89859 0.83271 0.76846 0.0
N696 N 0.96781 0.87909 0.83599 0.0
N697 N 0.90666 0.80244 0.71524 0.0
H698 H 0.8446 0.82835 0.7803 0.0
H699 H 0.8482 0.81487 0.73983 0.0
H700 H 0.922 0.79613 0.69643 0.0
H701 H 0.88003 0.78795 0.71079 0.0
H702 H 0.99551 0.88585 0.84262 0.0
H703 H 0.95249 0.88359 0.85515 0.0
H704 H 0.02243 0.89607 0.80422 0.0
H705 H 0.02661 0.87551 0.76521 0.0
C706 C 0.05084 0.91269 0.56997 0.0
C707 C 0.07406 0.89616 0.55018 0.0
C708 C 0.08099 0.85852 0.58706 0.0
C709 C 0.05751 0.87489 0.60689 0.0
N710 N 0.03046 0.92515 0.62251 0.0
N711 N 0.12044 0.86273 0.54515 0.0
C712 C 0.04603 0.90466 0.6001 0.0
C713 C 0.09243 0.87242 0.56073 0.0
N714 N 0.03152 0.93418 0.55932 0.0
N715 N 0.08997 0.82799 0.59135 0.0
H716 H 0.12931 0.87267 0.52579 0.0
H717 H 0.13705 0.84801 0.55343 0.0
H718 H 0.08171 0.81573 0.6095 0.0
H719 H 0.10329 0.81294 0.5751 0.0
H720 H 0.01108 0.94348 0.57131 0.0
H721 H 0.03398 0.94067 0.53738 0.0
H722 H 0.02429 0.94896 0.62 0.0
H723 H 0.02741 0.92022 0.64503 0.0
C724 C 0.18723 0.79306 0.75706 0.0
C725 C 0.19392 0.75885 0.74499 0.0
C726 C 0.13664 0.74145 0.71099 0.0
C727 C 0.12817 0.77418 0.7255 0.0
N728 N 0.14325 0.83013 0.76419 0.0
N729 N 0.17357 0.6988 0.71355 0.0
C730 C 0.15299 0.79989 0.74892 0.0
C731 C 0.16825 0.73258 0.72273 0.0
N732 N 0.21385 0.81911 0.77583 0.0
N733 N 0.11499 0.71934 0.68524 0.0
H734 H 0.19665 0.69132 0.72121 0.0
H735 H 0.15393 0.67746 0.70033 0.0
H736 H 0.09176 0.7251 0.67572 0.0
H737 H 0.12172 0.69696 0.67148 0.0
H738 H 0.21219 0.8456 0.78272 0.0
H739 H 0.23893 0.81476 0.78271 0.0
H740 H 0.15835 0.8481 0.78392 0.0
H741 H 0.11866 0.83617 0.75842 0.0
C742 C 0.92749 0.66948 0.57523 0.0
C743 C 0.95177 0.64911 0.56147 0.0
C744 C 1.00231 0.68981 0.59688 0.0
C745 C 0.97768 0.70877 0.61221 0.0
N746 N 0.91629 0.71308 0.6202 0.0
N747 N 0.01062 0.63525 0.56296 0.0
C748 C 0.94005 0.69759 0.60258 0.0
C749 C 0.9887 0.65785 0.57349 0.0
N750 N 0.89275 0.66261 0.5616 0.0
N751 N 0.03875 0.70327 0.60337 0.0
H752 H 1.00169 0.61168 0.5456 0.0
H753 H 0.03672 0.63824 0.57337 0.0
H754 H 0.05004 0.72703 0.61983 0.0
H755 H 0.0578 0.69263 0.59036 0.0
H756 H 0.87492 0.67899 0.5684 0.0
H757 H 0.88249 0.64193 0.54177 0.0
H758 H 0.88838 0.7037 0.61628 0.0
H759 H 0.92454 0.7334 0.64066 0.0
C760 C 0.87484 0.86977 0.28549 0.0
C761 C 0.84256 0.85681 0.26465 0.0
C762 C 0.83623 0.91767 0.2665 0.0
C763 C 0.86933 0.93047 0.28605 0.0
N764 N 0.91458 0.92028 0.32173 0.0
N765 N 0.78764 0.86691 0.242 0.0
C766 C 0.88665 0.90692 0.2982 0.0
C767 C 0.82151 0.88041 0.25752 0.0
N768 N 0.8954 0.84686 0.2914 0.0
N769 N 0.81987 0.94105 0.25549 0.0
H770 H 0.77635 0.83965 0.23543 0.0
H771 H 0.76966 0.88249 0.23807 0.0
H772 H 0.82947 0.96854 0.26279 0.0
H773 H 0.79786 0.93335 0.23826 0.0
H774 H 0.9214 0.85513 0.30308 0.0
H775 H 0.88737 0.81937 0.28298 0.0
H776 H 0.92621 0.90453 0.3337 0.0
H777 H 0.92394 0.94749 0.33135 0.0
C778 C 0.86037 0.17865 0.32868 0.0
C779 C 0.82209 0.1691 0.32705 0.0
C780 C 0.82402 0.10627 0.31989 0.0
C781 C 0.86233 0.11613 0.32426 0.0
N782 N 0.91735 0.16163 0.3367 0.0
N783 N 0.76719 0.12493 0.32458 0.0
C784 C 0.88067 0.1523 0.3295 0.0
C785 C 0.80382 0.13319 0.32366 0.0
N786 N 0.87725 0.21286 0.32911 0.0
N787 N 0.80701 0.07109 0.31088 0.0
H788 H 0.75133 0.14374 0.32619 0.0
H789 H 0.75274 0.09999 0.32598 0.0
H790 H 0.82094 0.05064 0.30756 0.0
H791 H 0.77942 0.0621 0.30402 0.0
H792 H 0.90459 0.2207 0.32652 0.0
H793 H 0.86345 0.23322 0.32995 0.0
H794 H 0.93194 0.1878 0.34435 0.0
H795 H 0.93315 0.14309 0.33733 0.0
C796 C 0.3964 0.99157 0.02627 0.0
C797 C 0.37524 0.01299 0.01517 0.0
C798 C 0.31993 0.96952 0.01706 0.0
C799 C 0.34072 0.94961 0.03086 0.0
N800 N 0.39812 0.94313 0.05206 0.0
N801 N 0.31706 0.02631 1.00585 0.0
C802 C 0.37884 0.96104 0.03643 0.0
C803 C 0.33703 1.00322 0.01249 0.0
N804 N 0.43312 0.99975 0.02604 0.0
N805 N 0.28441 0.95519 0.00626 0.0
H806 H 0.3287 0.05123 1.00214 0.0
H807 H 0.28922 0.02209 0.00691 0.0
H808 H 0.27151 0.92953 0.00716 0.0
H809 H 0.26888 0.96708 0.99322 0.0
H810 H 0.44974 0.98309 0.03043 0.0
H811 H 0.44692 0.02223 0.01926 0.0
H812 H 0.42549 0.95223 0.0599 0.0
H813 H 0.38613 0.92033 0.05935 0.0
C814 C 0.22756 0.41825 0.35382 0.0
C815 C 0.26315 0.42959 0.34586 0.0
C816 C 0.24201 0.467 0.31398 0.0
C817 C 0.20673 0.45684 0.32309 0.0
N818 N 0.16362 0.41716 0.34481 0.0
N819 N 0.3032 0.45765 0.31297 0.0
C820 C 0.19879 0.43052 0.34081 0.0
C821 C 0.26994 0.45151 0.32396 0.0
N822 N 0.22166 0.39682 0.37478 0.0
N823 N 0.24925 0.49301 0.29744 0.0
H824 H 0.32439 0.4473 0.32043 0.0
H825 H 0.30906 0.47051 0.29469 0.0
H826 H 0.22932 0.50414 0.28884 0.0
H827 H 0.27518 0.50499 0.29356 0.0
H828 H 0.19741 0.39094 0.38466 0.0
H829 H 0.24177 0.38589 0.38342 0.0
H830 H 0.15534 0.39579 0.35515 0.0
H831 H 0.14215 0.42566 0.33526 0.0
C832 C 0.20792 0.03499 0.44394 0.0
C833 C 0.18783 0.0355 0.47065 0.0
C834 C 0.23959 0.0761 0.50437 0.0
C835 C 0.25679 0.08076 0.47677 0.0
N836 N 0.25534 0.06736 0.41951 0.0
N837 N 0.18318 0.05824 0.52623 0.0
C838 C 0.24072 0.06059 0.4463 0.0
C839 C 0.20339 0.05624 0.50098 0.0
N840 N 0.19568 0.00982 0.41641 0.0
N841 N 0.25819 0.08995 0.53377 0.0
H842 H 0.15668 0.04371 0.52474 0.0
H843 H 0.19182 0.07618 0.54803 0.0
H844 H 0.28518 0.10367 0.53707 0.0
H845 H 0.24815 0.08468 0.55455 0.0
H846 H 0.21079 1.00611 0.39708 0.0
H847 H 0.17203 0.99022 0.41419 0.0
H848 H 0.24236 0.05616 0.39673 0.0
H849 H 0.27886 0.08651 0.41996 0.0
C850 C 0.76437 0.16907 0.81577 0.0
C851 C 0.7693 0.17974 0.78675 0.0
C852 C 0.71163 0.13966 0.76396 0.0
C853 C 0.71061 0.1241 0.7907 0.0
N854 N 0.74357 0.11888 0.83827 0.0
N855 N 0.75075 0.16815 0.73051 0.0
C856 C 0.73908 0.1373 0.81565 0.0
C857 C 0.74387 0.16299 0.75995 0.0
N858 N 0.78288 0.18959 0.84365 0.0
N859 N 0.68155 0.13383 0.74323 0.0
H860 H 0.77493 0.18352 0.72616 0.0
H861 H 0.73403 0.15393 0.71001 0.0
H862 H 0.65628 0.11997 0.74692 0.0
H863 H 0.68077 0.14679 0.72475 0.0
H864 H 0.77788 0.18376 0.86557 0.0
H865 H 0.79979 0.21443 0.84525 0.0
H866 H 0.76582 0.12676 0.85535 0.0
H867 H 0.72814 0.09361 0.83753 0.0
C868 C 0.50928 0.11544 0.52502 0.0
C869 C 0.50046 0.08017 0.52927 0.0
C870 C 0.43621 0.077 0.51625 0.0
C871 C 0.44545 0.11052 0.50844 0.0
N872 N 0.49026 0.16114 0.50309 0.0
N873 N 0.45642 0.0256 0.52587 0.0
C874 C 0.48186 0.12977 0.51239 0.0
C875 C 0.46411 0.06051 0.52427 0.0
N876 N 0.54372 0.13533 0.53363 0.0
N877 N 0.40066 0.06125 0.51658 0.0
H878 H 0.47601 0.0126 0.53202 0.0
H879 H 0.43109 0.00867 0.51881 0.0
H880 H 0.37946 0.07245 0.5106 0.0
H881 H 0.39218 0.03872 0.52536 0.0
H882 H 0.55123 0.1623 0.53411 0.0
H883 H 0.56442 0.12549 0.54276 0.0
H884 H 0.51658 0.17458 0.50193 0.0
H885 H 0.47067 0.1728 0.49462 0.0
C886 C 0.65483 0.47873 0.60337 0.0
C887 C 0.62033 0.47493 0.58725 0.0
C888 C 0.62882 0.42189 0.54941 0.0
C889 C 0.66497 0.42837 0.56316 0.0
N890 N 0.71434 0.46611 0.60047 0.0
N891 N 0.57461 0.44458 0.54406 0.0
C892 C 0.67842 0.45736 0.58967 0.0
C893 C 0.60724 0.44682 0.56008 0.0
N894 N 0.66507 0.50277 0.63189 0.0
N895 N 0.61498 0.39143 0.52667 0.0
H896 H 0.5577 0.46171 0.55184 0.0
H897 H 0.56522 0.42724 0.52212 0.0
H898 H 0.63007 0.37257 0.51871 0.0
H899 H 0.5879 0.38329 0.51768 0.0
H900 H 0.688 0.50382 0.64658 0.0
H901 H 0.64912 0.51981 0.64224 0.0
H902 H 0.72649 0.48949 0.61702 0.0
H903 H 0.73294 0.45171 0.59107 0.0
C904 C 0.7357 0.24829 0.40606 0.0
C905 C 0.76522 0.26162 0.38995 0.0
C906 C 0.78505 0.31382 0.43438 0.0
C907 C 0.75517 0.3008 0.4503 0.0
N908 N 0.69965 0.25888 0.45063 0.0
N909 N 0.81598 0.30824 0.38655 0.0
C910 C 0.7297 0.26894 0.43589 0.0
C911 C 0.78928 0.29479 0.40349 0.0
N912 N 0.71391 0.21558 0.39301 0.0
N913 N 0.80991 0.34412 0.44925 0.0
H914 H 0.8217 0.29417 0.36483 0.0
H915 H 0.83149 0.33411 0.39296 0.0
H916 H 0.80669 0.36037 0.47084 0.0
H917 H 0.83473 0.35264 0.44114 0.0
H918 H 0.69412 0.20245 0.40465 0.0
H919 H 0.71677 0.20048 0.37072 0.0
H920 H 0.67817 0.23774 0.44043 0.0
H921 H 0.69512 0.27325 0.4727 0.0
C922 C 0.47954 0.02163 0.85336 0.0
C923 C 0.47274 0.05626 0.86223 0.0
C924 C 0.52949 0.08134 0.84289 0.0
C925 C 0.53507 0.04646 0.83205 0.0
N926 N 0.51356 0.98299 0.82256 0.0
N927 N 0.488 0.11846 0.86196 0.0
C928 C 0.50961 0.01645 0.83614 0.0
C929 C 0.49675 0.08595 0.85591 0.0
N930 N 0.45758 0.99386 0.86192 0.0
N931 N 0.55621 0.11014 0.8421 0.0
H932 H 0.4649 0.12313 0.87257 0.0
H933 H 0.50216 0.14022 0.85447 0.0
H934 H 0.58065 0.10796 0.83284 0.0
H935 H 0.55554 0.1362 0.8529 0.0
H936 H 0.46335 0.96884 0.85946 0.0
H937 H 0.43458 0.99638 0.87356 0.0
H938 H 0.49402 0.95999 0.82168 0.0
H939 H 0.5353 0.97827 0.80982 0.0
C940 C 0.33736 0.24696 0.38308 0.0
C941 C 0.3688 0.27441 0.38608 0.0
C942 C 0.39723 0.252 0.42727 0.0
C943 C 0.36434 0.2271 0.42668 0.0
N944 N 0.30224 0.20153 0.40577 0.0
N945 N 0.42777 0.3054 0.41217 0.0
C946 C 0.33418 0.22466 0.40496 0.0
C947 C 0.39866 0.27742 0.40833 0.0
N948 N 0.31094 0.24179 0.35882 0.0
N949 N 0.42707 0.25114 0.44583 0.0
H950 H 0.43007 0.32408 0.39827 0.0
H951 H 0.44861 0.31155 0.43037 0.0
H952 H 0.42662 0.23346 0.46059 0.0
H953 H 0.45285 0.26601 0.44496 0.0
H954 H 0.28906 0.22005 0.35316 0.0
H955 H 0.31228 0.25785 0.34254 0.0
H956 H 0.27801 0.20143 0.3934 0.0
H957 H 0.29935 0.18349 0.42032 0.0
C958 C 0.51962 0.51731 0.9341 0.0
C959 C 0.55533 0.51935 0.92537 0.0
C960 C 0.53659 0.53384 0.87593 0.0
C961 C 0.49985 0.52446 0.88166 0.0
N962 N 0.45639 0.5003 0.91486 0.0
N963 N 0.59561 0.52204 0.88399 0.0
C964 C 0.49118 0.51462 0.91053 0.0
C965 C 0.56337 0.52577 0.89524 0.0
N966 N 0.51284 0.51834 0.96488 0.0
N967 N 0.54603 0.5508 0.85228 0.0
H968 H 0.61508 0.51346 0.89617 0.0
H969 H 0.60112 0.52343 0.86093 0.0
H970 H 0.52726 0.55878 0.83864 0.0
H971 H 0.57284 0.56059 0.84889 0.0
H972 H 0.48772 0.52007 0.97287 0.0
H973 H 0.53319 0.52137 0.98299 0.0
H974 H 0.44974 0.4896 0.93431 0.0
H975 H 0.43462 0.49541 0.89774 0.0
C976 C 0.86777 0.7581 0.14862 0.0
C977 C 0.83929 0.77386 0.16048 0.0
C978 C 0.82445 0.78406 0.10827 0.0
C979 C 0.84729 0.7618 0.09512 0.0
N980 N 0.90332 0.74457 0.10438 0.0
N981 N 0.78838 0.79955 0.1511 0.0
C982 C 0.87279 0.75354 0.11573 0.0
C983 C 0.8173 0.78663 0.14027 0.0
N984 N 0.88954 0.74713 0.16869 0.0
N985 N 0.81172 0.8047 0.09085 0.0
H986 H 0.78141 0.80113 0.17424 0.0
H987 H 0.76932 0.80556 0.13625 0.0
H988 H 0.82046 0.80675 0.06876 0.0
H989 H 0.79718 0.82357 0.10012 0.0
H990 H 0.90787 0.73162 0.1611 0.0
H991 H 0.88818 0.7522 0.19318 0.0
H992 H 0.92413 0.73995 0.11828 0.0
H993 H 0.91022 0.74661 0.08178 0.0
C994 C 0.06663 0.05822 0.19374 0.0
C995 C 0.04985 0.04707 0.1621 0.0
C996 C 0.99021 0.03479 0.18188 0.0
C997 C 0.00742 0.04157 0.21311 0.0
N998 N 0.06152 0.05942 0.24955 0.0
N999 N 0.99637 0.02406 0.12521 0.0
C1000 C 0.04552 0.05351 0.21928 0.0
C1001 C 0.01173 0.03556 0.15593 0.0
N1002 N 0.10276 0.07366 0.19928 0.0
N1003 N 0.95333 0.02747 0.17713 0.0
H1004 H 0.01128 0.02539 0.10579 0.0
H1005 H 0.9693 0.01157 0.11874 0.0
H1006 H 0.93692 0.02588 0.19556 0.0
H1007 H 0.93893 0.02549 0.15552 0.0
H1008 H 0.11609 0.0857 0.22176 0.0
H1009 H 0.1192 0.07691 0.18113 0.0
H1010 H 0.08924 0.06367 0.25525 0.0
H1011 H 0.04682 0.05855 0.26914 0.0
C1012 C 0.27258 0.80582 0.18483 0.0
C1013 C 0.30243 0.82581 0.20684 0.0
C1014 C 0.32198 0.86231 0.16918 0.0
C1015 C 0.29439 0.83999 0.14596 0.0
N1016 N 0.24812 0.78584 0.12966 0.0
N1017 N 0.35981 0.86811 0.2175 0.0
C1018 C 0.27091 0.81043 0.1532 0.0
C1019 C 0.32843 0.85259 0.19827 0.0
N1020 N 0.24521 0.78327 0.19436 0.0
N1021 N 0.34091 0.89371 0.16419 0.0
H1022 H 0.36583 0.86131 0.23879 0.0
H1023 H 0.38132 0.88511 0.21084 0.0
H1024 H 0.33613 0.90262 0.14376 0.0
H1025 H 0.3587 0.91265 0.18169 0.0
H1026 H 0.22101 0.77096 0.18027 0.0
H1027 H 0.24526 0.77933 0.21737 0.0
H1028 H 0.23316 0.76192 0.13301 0.0
H1029 H 0.24683 0.78754 0.10598 0.0
C1030 C 0.02915 0.52008 0.12699 0.0
C1031 C 0.05274 0.54529 0.11433 0.0
C1032 C 0.09812 0.55518 0.15928 0.0
C1033 C 0.07318 0.53301 0.17369 0.0
N1034 N 0.0133 0.49774 0.17355 0.0
N1035 N 0.10674 0.59171 0.121 0.0
C1036 C 0.03821 0.51622 0.15814 0.0
C1037 C 0.08638 0.56431 0.13127 0.0
N1038 N 0.99869 0.49919 0.10893 0.0
N1039 N 0.13352 0.56628 0.17162 0.0
H1040 H 0.0989 0.59942 0.10063 0.0
H1041 H 0.12963 0.60893 0.13424 0.0
H1042 H 0.14358 0.55883 0.19137 0.0
H1043 H 0.15366 0.57963 0.16039 0.0
H1044 H 0.98248 0.47776 0.11546 0.0
H1045 H 0.99102 0.50161 0.0862 0.0
H1046 H 0.98619 0.48821 0.16487 0.0
H1047 H 0.01913 0.49418 0.19624 0.0
C1048 C 0.42536 0.69638 0.29801 0.0
C1049 C 0.40055 0.71459 0.31382 0.0
C1050 C 0.44284 0.7359 0.36189 0.0
C1051 C 0.46682 0.71569 0.34697 0.0
N1052 N 0.4779 0.67128 0.30309 0.0
N1053 N 0.38165 0.7441 0.36293 0.0
C1054 C 0.4572 0.69432 0.31561 0.0
C1055 C 0.40804 0.73196 0.34643 0.0
N1056 N 0.4189 0.68189 0.26609 0.0
N1057 N 0.45388 0.76064 0.38991 0.0
H1058 H 0.35569 0.74204 0.35257 0.0
H1059 H 0.38446 0.75319 0.38755 0.0
H1060 H 0.47933 0.76542 0.4021 0.0
H1061 H 0.43896 0.77899 0.39958 0.0
H1062 H 0.43772 0.67155 0.25253 0.0
H1063 H 0.39565 0.68267 0.25264 0.0
H1064 H 0.47053 0.6526 0.28155 0.0
H1065 H 0.50087 0.66852 0.31567 0.0
C1066 C 0.06442 0.41653 0.93662 0.0
C1067 C 0.0924 0.4378 0.95993 0.0
C1068 C 0.11087 0.38447 0.96881 0.0
C1069 C 0.08455 0.36353 0.94398 0.0
N1070 N 0.03877 0.35895 0.90159 0.0
N1071 N 0.14472 0.44353 0.99605 0.0
C1072 C 0.06206 0.37939 0.92708 0.0
C1073 C 0.11635 0.42218 0.97547 0.0
N1074 N 0.03933 0.43173 0.92442 0.0
N1075 N 0.13007 0.36819 0.98627 0.0
H1076 H 0.14907 0.4712 1.00179 0.0
H1077 H 0.16532 0.4342 1.00582 0.0
H1078 H 0.12724 0.34067 0.98134 0.0
H1079 H 0.14706 0.38152 0.00678 0.0
H1080 H 0.01577 0.41724 0.91036 0.0
H1081 H 0.04058 0.45901 0.93018 0.0
H1082 H 0.02495 0.3694 0.88592 0.0
H1083 H 0.03484 0.33137 0.89464 0.0
C1084 C 0.72459 0.71344 0.33381 0.0
C1085 C 0.71971 0.69776 0.3008 0.0
C1086 C 0.65417 0.69017 0.30106 0.0
C1087 C 0.65953 0.71063 0.33278 0.0
N1088 N 0.69961 0.74388 0.37933 0.0
N1089 N 0.68065 0.6721 0.25213 0.0
C1090 C 0.69463 0.72238 0.3494 0.0
C1091 C 0.68465 0.68599 0.28421 0.0
N1092 N 0.7579 0.71975 0.35016 0.0
N1093 N 0.61985 0.67427 0.28734 0.0
H1094 H 0.70226 0.66752 0.23917 0.0
H1095 H 0.65631 0.66703 0.238 0.0
H1096 H 0.59703 0.67661 0.29932 0.0
H1097 H 0.61407 0.65626 0.26536 0.0
H1098 H 0.76256 0.72778 0.3748 0.0
H1099 H 0.78051 0.71405 0.33924 0.0
H1100 H 0.72492 0.75683 0.39118 0.0
H1101 H 0.67839 0.75084 0.39172 0.0
C1102 C 0.09115 0.14687 1.003 0.0
C1103 C 0.09887 0.16421 0.03567 0.0
C1104 C 0.08 0.21655 0.02505 0.0
C1105 C 0.07037 0.19854 0.99263 0.0
N1106 N 0.05902 0.14379 0.95233 0.0
N1107 N 0.09285 0.21164 0.07905 0.0
C1108 C 0.07363 0.16282 0.98206 0.0
C1109 C 0.09064 0.19779 0.04708 0.0
N1110 N 0.10187 0.11593 0.9917 0.0
N1111 N 0.08132 0.25216 0.03452 0.0
H1112 H 0.10055 0.19848 0.0958 0.0
H1113 H 0.08372 0.23433 0.08891 0.0
H1114 H 0.07519 0.26744 0.01907 0.0
H1115 H 0.09193 0.26736 0.05708 0.0
H1116 H 0.10087 0.10432 0.96759 0.0
H1117 H 0.11424 0.1031 0.00631 0.0
H1118 H 0.05735 0.11662 0.94443 0.0
H1119 H 0.04536 0.15436 0.93658 0.0
C1120 C 0.44569 0.3359 0.29605 0.0
C1121 C 0.40777 0.32205 0.29235 0.0
C1122 C 0.40945 0.29878 0.23531 0.0
C1123 C 0.44719 0.3136 0.23886 0.0
N1124 N 0.50034 0.35145 0.27073 0.0
N1125 N 0.35234 0.29545 0.25843 0.0
C1126 C 0.46507 0.33367 0.26874 0.0
C1127 C 0.38925 0.30518 0.26189 0.0
N1128 N 0.46325 0.35048 0.3258 0.0
N1129 N 0.39329 0.27711 0.20694 0.0
H1130 H 0.33676 0.29854 0.27754 0.0
H1131 H 0.33693 0.28669 0.2365 0.0
H1132 H 0.40706 0.27202 0.18685 0.0
H1133 H 0.36687 0.26213 0.20376 0.0
H1134 H 0.49124 0.35709 0.33058 0.0
H1135 H 0.44981 0.35416 0.34624 0.0
H1136 H 0.51401 0.36951 0.29106 0.0
H1137 H 0.51527 0.35043 0.25115 0.0
C1138 C 0.59569 0.39516 0.08039 0.0
C1139 C 0.57278 0.4046 0.05827 0.0
C1140 C 0.525 0.40127 0.09397 0.0
C1141 C 0.54447 0.38375 0.11169 0.0
N1142 N 0.60397 0.38265 0.13247 0.0
N1143 N 0.51519 0.4169 0.04386 0.0
C1144 C 0.58174 0.38626 0.10823 0.0
C1145 C 0.53758 0.40859 0.06535 0.0
N1146 N 0.63029 0.39366 0.07418 0.0
N1147 N 0.49553 0.41243 0.10545 0.0
H1148 H 0.52304 0.42228 0.02243 0.0
H1149 H 0.48788 0.41587 0.04624 0.0
H1150 H 0.48815 0.41038 0.12795 0.0
H1151 H 0.48175 0.42787 0.0949 0.0
H1152 H 0.64708 0.38283 0.08706 0.0
H1153 H 0.64191 0.40222 0.05513 0.0
H1154 H 0.63183 0.38596 0.13242 0.0
H1155 H 0.59508 0.38109 0.15458 0.0
C1156 C 0.66816 0.23843 0.20087 0.0
C1157 C 0.68982 0.26668 0.2245 0.0
C1158 C 0.64081 0.29871 0.22824 0.0
C1159 C 0.62001 0.27138 0.20331 0.0
N1160 N 0.61619 0.21903 0.16146 0.0
N1161 N 0.69972 0.32605 0.25736 0.0
C1162 C 0.63435 0.24229 0.18835 0.0
C1163 C 0.67702 0.29758 0.2372 0.0
N1164 N 0.67948 0.2075 0.19105 0.0
N1165 N 0.62544 0.32484 0.24428 0.0
H1166 H 0.72614 0.3258 0.26494 0.0
H1167 H 0.6934 0.35076 0.26473 0.0
H1168 H 0.59909 0.32667 0.23827 0.0
H1169 H 0.63776 0.34321 0.26495 0.0
H1170 H 0.66312 0.1845 0.17664 0.0
H1171 H 0.70434 0.20381 0.19931 0.0
H1172 H 0.62699 0.19948 0.14753 0.0
H1173 H 0.59156 0.22131 0.1513 0.0
C1174 C 0.47625 0.15278 0.04763 0.0
C1175 C 0.4385 0.14095 0.03905 0.0
C1176 C 0.42732 0.18938 0.08057 0.0
C1177 C 0.46517 0.20257 0.08782 0.0
N1178 N 0.5257 0.20139 0.07404 0.0
N1179 N 0.37841 0.15141 0.04265 0.0
C1180 C 0.4897 0.18556 0.07013 0.0
C1181 C 0.41411 0.16037 0.05408 0.0
N1182 N 0.49915 0.13212 0.03508 0.0
N1183 N 0.404 0.20333 0.09993 0.0
H1184 H 0.36776 0.1302 0.02332 0.0
H1185 H 0.36002 0.16682 0.05044 0.0
H1186 H 0.41255 0.2242 0.11992 0.0
H1187 H 0.37641 0.19221 0.09787 0.0
H1188 H 0.52643 0.13731 0.04317 0.0
H1189 H 0.49037 0.10817 0.01818 0.0
H1190 H 0.54434 0.19214 0.05952 0.0
H1191 H 0.53654 0.22573 0.08989 0.0
C1192 C 0.31213 0.35568 0.7542 0.0
C1193 C 0.33223 0.33179 0.76234 0.0
C1194 C 0.37509 0.38136 0.79781 0.0
C1195 C 0.3586 0.40532 0.78545 0.0
N1196 N 0.31166 0.41658 0.75235 0.0
N1197 N 0.38326 0.32107 0.79105 0.0
C1198 C 0.32679 0.39289 0.76412 0.0
C1199 C 0.36353 0.34433 0.78437 0.0
N1200 N 0.27905 0.34261 0.73709 0.0
N1201 N 0.4018 0.39422 0.82245 0.0
H1202 H 0.37526 0.29364 0.7821 0.0
H1203 H 0.40864 0.32899 0.80388 0.0
H1204 H 0.41081 0.42133 0.83275 0.0
H1205 H 0.41268 0.37814 0.83457 0.0
H1206 H 0.26158 0.35845 0.7326 0.0
H1207 H 0.26767 0.31543 0.72961 0.0
H1208 H 0.29098 0.40917 0.73389 0.0
H1209 H 0.32109 0.44404 0.76018 0.0
C1210 C 0.30807 0.62754 0.87439 0.0
C1211 C 0.28984 0.63483 0.84817 0.0
C1212 C 0.3099 0.58574 0.8134 0.0
C1213 C 0.33588 0.58638 0.83853 0.0
N1214 N 0.36139 0.61151 0.89315 0.0
N1215 N 0.25568 0.6044 0.79825 0.0
C1216 C 0.33551 0.60837 0.86906 0.0
C1217 C 0.28559 0.60912 0.8189 0.0
N1218 N 0.29433 0.63164 0.90302 0.0
N1219 N 0.30832 0.56297 0.78447 0.0
H1220 H 0.23555 0.61847 0.80395 0.0
H1221 H 0.24872 0.5843 0.77761 0.0
H1222 H 0.32305 0.54322 0.78028 0.0
H1223 H 0.29337 0.56446 0.76421 0.0
H1224 H 0.30567 0.62434 0.92232 0.0
H1225 H 0.2681 0.6354 0.90513 0.0
H1226 H 0.36276 0.62927 0.91508 0.0
H1227 H 0.38324 0.59932 0.89022 0.0
C1228 C 0.89876 0.50518 0.53976 0.0
C1229 C 0.88687 0.52273 0.51722 0.0
C1230 C 0.83384 0.47401 0.50047 0.0
C1231 C 0.84212 0.45998 0.52676 0.0
N1232 N 0.88023 0.46673 0.57517 0.0
N1233 N 0.8376 0.52766 0.48198 0.0
C1234 C 0.8741 0.47665 0.54746 0.0
C1235 C 0.85282 0.50827 0.49919 0.0
N1236 N 0.93372 0.51505 0.55319 0.0
N1237 N 0.80885 0.45422 0.47602 0.0
H1238 H 0.84931 0.55395 0.48199 0.0
H1239 H 0.81135 0.51893 0.47073 0.0
H1240 H 0.79626 0.42779 0.47464 0.0
H1241 H 0.80423 0.46265 0.45529 0.0
H1242 H 0.94444 0.50094 0.56759 0.0
H1243 H 0.95291 0.53496 0.54726 0.0
H1244 H 0.90154 0.48053 0.59232 0.0
H1245 H 0.86213 0.44721 0.58262 0.0
C1246 C 0.72866 0.93768 0.8564 0.0
C1247 C 0.76511 0.95262 0.85301 0.0
C1248 C 0.74535 0.99322 0.82383 0.0
C1249 C 0.70961 0.98196 0.83151 0.0
N1250 N 0.66623 0.94349 0.85429 0.0
N1251 N 0.80908 0.99392 0.83352 0.0
C1252 C 0.70089 0.95384 0.84724 0.0
C1253 C 0.77368 0.97981 0.83621 0.0
N1254 N 0.7208 0.908 0.86835 0.0
N1255 N 0.75213 0.01705 0.80505 0.0
H1256 H 0.83028 0.9837 0.84119 0.0
H1257 H 0.81779 0.01661 0.82504 0.0
H1258 H 0.73221 0.02817 0.79642 0.0
H1259 H 0.77678 0.024 0.79607 0.0
H1260 H 0.69469 0.89376 0.86899 0.0
H1261 H 0.74069 0.89579 0.8754 0.0
H1262 H 0.65863 0.9262 0.86897 0.0
H1263 H 0.64496 0.95347 0.84637 0.0
C1264 C 0.7008 0.55724 0.95226 0.0
C1265 C 0.6808 0.55649 0.97892 0.0
C1266 C 0.72877 0.60333 0.01181 0.0
C1267 C 0.74591 0.60773 0.98409 0.0
N1268 N 0.74441 0.59281 0.92685 0.0
N1269 N 0.67334 0.58131 0.03345 0.0
C1270 C 0.73102 0.58564 0.95398 0.0
C1271 C 0.69412 0.58019 0.0086 0.0
N1272 N 0.69138 0.53036 0.92551 0.0
N1273 N 0.74618 0.62004 0.04123 0.0
H1274 H 0.64806 0.56433 0.03208 0.0
H1275 H 0.67996 0.60082 0.05455 0.0
H1276 H 0.77218 0.63612 0.04469 0.0
H1277 H 0.73642 0.61506 0.0622 0.0
H1278 H 0.70703 0.52786 0.90645 0.0
H1279 H 0.67003 0.50849 0.9238 0.0
H1280 H 0.73204 0.5797 0.9042 0.0
H1281 H 0.76565 0.61423 0.92685 0.0
C1282 C 0.26714 0.64309 0.31164 0.0
C1283 C 0.27073 0.65785 0.28455 0.0
C1284 C 0.21184 0.62065 0.2614 0.0
C1285 C 0.21147 0.60154 0.28572 0.0
N1286 N 0.24587 0.58937 0.32916 0.0
N1287 N 0.24992 0.65308 0.22977 0.0
C1288 C 0.24119 0.61114 0.30949 0.0
C1289 C 0.24418 0.64427 0.25814 0.0
N1290 N 0.28718 0.66012 0.33986 0.0
N1291 N 0.18105 0.61824 0.24264 0.0
H1292 H 0.27408 0.66891 0.22589 0.0
H1293 H 0.23222 0.64134 0.20929 0.0
H1294 H 0.15576 0.60461 0.24647 0.0
H1295 H 0.17996 0.63382 0.2262 0.0
H1296 H 0.28312 0.65135 0.36068 0.0
H1297 H 0.30452 0.68507 0.34335 0.0
H1298 H 0.26889 0.59456 0.34509 0.0
H1299 H 0.22943 0.56418 0.32683 0.0
C1300 C 0.94679 0.57499 0.0319 0.0
C1301 C 0.98331 0.59405 0.03902 0.0
C1302 C 0.96685 0.64709 0.02702 0.0
C1303 C 0.93117 0.62686 0.01672 0.0
N1304 N 0.88593 0.57246 0.01003 0.0
N1305 N 0.02905 0.64756 0.04372 0.0
C1306 C 0.92075 0.5911 0.01959 0.0
C1307 C 0.99353 0.63009 0.03701 0.0
N1308 N 0.93713 0.54153 0.03713 0.0
N1309 N 0.97513 0.68248 0.02712 0.0
H1310 H 0.04887 0.6365 0.05266 0.0
H1311 H 0.03944 0.67235 0.03935 0.0
H1312 H 0.95674 0.69535 0.01859 0.0
H1313 H 0.99944 0.69977 0.03723 0.0
H1314 H 0.91061 0.52729 0.03562 0.0
H1315 H 0.95568 0.52835 0.04491 0.0
H1316 H 0.87726 0.5452 0.00756 0.0
H1317 H 0.86537 0.58413 1.00347 0.0
C1318 C 0.16176 0.98311 0.11517 0.0
C1319 C 0.13093 0.98385 0.09566 0.0
C1320 C 0.13917 0.93116 0.05722 0.0
C1321 C 0.17256 0.93345 0.07457 0.0
N1322 N 0.21757 0.963 0.11874 0.0
N1323 N 0.08997 0.95957 0.04806 0.0
C1324 C 0.18412 0.95941 0.1035 0.0
C1325 C 0.11934 0.9579 0.06676 0.0
N1326 N 0.16979 1.00531 0.14477 0.0
N1327 N 0.12626 0.90297 0.03199 0.0
H1328 H 0.07383 0.9777 0.0551 0.0
H1329 H 0.08251 0.94427 0.025 0.0
H1330 H 0.14018 0.88292 0.02469 0.0
H1331 H 0.10063 0.89773 0.01995 0.0
H1332 H 0.18939 1.00336 0.16155 0.0
H1333 H 0.15493 0.02404 0.15366 0.0
H1334 H 0.22951 0.98416 0.1376 0.0
H1335 H 0.23479 0.94614 0.11122 0.0
loop_
_geom_bond_atom_site_label_1
_geom_bond_atom_site_label_2
_geom_bond_distance
_geom_bond_site_symmetry_2
_ccdc_geom_bond_type
H0 C1 0.949 . S
C1 H0 0.949 . S
C1 C2 1.395 . S
C1 C3 1.391 . S
C2 C1 1.395 . S
C2 C5 1.390 . S
C3 C1 1.391 . S
C3 C7 1.387 . S
C3 C8 1.491 . S
H4 C5 0.950 . S
C5 C2 1.390 . S
C5 H4 0.950 . S
C5 C6 1.378 . S
C6 C5 1.378 . S
C6 C7 1.409 . S
C7 C3 1.387 . S
C7 C6 1.409 . S
C7 H9 0.951 . S
C8 C3 1.491 . S
C8 C10 1.382 . S
C8 C12 1.404 . S
H9 C7 0.951 . S
C10 C8 1.382 . S
C10 C11 1.390 . S
C10 H15 0.949 . S
C11 C10 1.390 . S
C11 C16 1.399 . S
C12 C8 1.404 . S
C12 H13 0.950 . S
C12 C14 1.375 . S
H13 C12 0.950 . S
C14 C12 1.375 . S
C14 C16 1.382 . S
C14 H18 0.950 . S
H15 C10 0.949 . S
C16 C11 1.399 . S
C16 C14 1.382 . S
C16 H17 0.952 . S
H17 C16 0.952 . S
H18 C14 0.950 . S
H19 C20 0.949 . S
C20 H19 0.949 . S
C20 C21 1.395 . S
C20 C22 1.391 . S
C21 C20 1.395 . S
C21 C24 1.390 . S
C22 C20 1.391 . S
C22 C26 1.387 . S
C22 C27 1.491 . S
H23 C24 0.950 . S
C24 C21 1.390 . S
C24 H23 0.950 . S
C24 C25 1.378 . S
C25 C24 1.378 . S
C25 C26 1.409 . S
C26 C22 1.387 . S
C26 C25 1.409 . S
C26 H28 0.951 . S
C27 C22 1.491 . S
C27 C29 1.382 . S
C27 C31 1.404 . S
H28 C26 0.951 . S
C29 C27 1.382 . S
C29 C30 1.390 . S
C29 H34 0.949 . S
C30 C29 1.390 . S
C30 C35 1.399 . S
C31 C27 1.404 . S
C31 H32 0.950 . S
C31 C33 1.375 . S
H32 C31 0.950 . S
C33 C31 1.375 . S
C33 C35 1.382 . S
C33 H37 0.950 . S
H34 C29 0.949 . S
C35 C30 1.399 . S
C35 C33 1.382 . S
C35 H36 0.952 . S
H36 C35 0.952 . S
H37 C33 0.950 . S
H38 C39 0.949 . S
C39 H38 0.949 . S
C39 C40 1.395 . S
C39 C41 1.391 . S
C40 C39 1.395 . S
C40 C43 1.390 . S
C41 C39 1.391 . S
C41 C45 1.387 . S
C41 C46 1.491 . S
H42 C43 0.950 . S
C43 C40 1.390 . S
C43 H42 0.950 . S
C43 C44 1.378 . S
C44 C43 1.378 . S
C44 C45 1.409 . S
C45 C41 1.387 . S
C45 C44 1.409 . S
C45 H47 0.951 . S
C46 C41 1.491 . S
C46 C48 1.382 . S
C46 C50 1.404 1_554 S
H47 C45 0.951 . S
C48 C46 1.382 . S
C48 C49 1.390 1_554 S
C48 H53 0.949 . S
C49 C48 1.390 1_556 S
C49 C54 1.399 . S
C50 C46 1.404 1_556 S
C50 H51 0.950 . S
C50 C52 1.375 . S
H51 C50 0.950 . S
C52 C50 1.375 . S
C52 C54 1.382 . S
C52 H56 0.950 . S
H53 C48 0.949 . S
C54 C49 1.399 . S
C54 C52 1.382 . S
C54 H55 0.952 . S
H55 C54 0.952 . S
H56 C52 0.950 . S
H57 C58 0.949 . S
C58 H57 0.949 . S
C58 C59 1.395 . S
C58 C60 1.391 . S
C59 C58 1.395 . S
C59 C62 1.390 . S
C60 C58 1.391 . S
C60 C64 1.387 . S
C60 C65 1.491 . S
H61 C62 0.950 . S
C62 C59 1.390 . S
C62 H61 0.950 . S
C62 C63 1.378 . S
C63 C62 1.378 . S
C63 C64 1.409 . S
C64 C60 1.387 . S
C64 C63 1.409 . S
C64 H66 0.951 . S
C65 C60 1.491 . S
C65 C67 1.382 . S
C65 C69 1.404 . S
H66 C64 0.951 . S
C67 C65 1.382 . S
C67 C68 1.390 . S
C67 H72 0.949 . S
C68 C67 1.390 . S
C68 C73 1.399 . S
C69 C65 1.404 . S
C69 H70 0.950 . S
C69 C71 1.375 . S
H70 C69 0.950 . S
C71 C69 1.375 . S
C71 C73 1.382 . S
C71 H75 0.950 . S
H72 C67 0.949 . S
C73 C68 1.399 . S
C73 C71 1.382 . S
C73 H74 0.952 . S
H74 C73 0.952 . S
H75 C71 0.950 . S
H76 C77 0.949 . S
C77 H76 0.949 . S
C77 C78 1.395 . S
C77 C79 1.391 . S
C78 C77 1.395 . S
C78 C81 1.390 . S
C79 C77 1.391 . S
C79 C83 1.387 . S
C79 C84 1.491 . S
H80 C81 0.950 1_545 S
C81 C78 1.390 . S
C81 H80 0.950 1_565 S
C81 C82 1.378 . S
C82 C81 1.378 . S
C82 C83 1.409 . S
C83 C79 1.387 . S
C83 C82 1.409 . S
C83 H85 0.951 . S
C84 C79 1.491 . S
C84 C86 1.382 . S
C84 C88 1.404 . S
H85 C83 0.951 . S
C86 C84 1.382 . S
C86 C87 1.390 . S
C86 H91 0.949 . S
C87 C86 1.390 . S
C87 C92 1.399 . S
C88 C84 1.404 . S
C88 H89 0.950 . S
C88 C90 1.375 . S
H89 C88 0.950 . S
C90 C88 1.375 . S
C90 C92 1.382 . S
C90 H94 0.950 . S
H91 C86 0.949 . S
C92 C87 1.399 . S
C92 C90 1.382 . S
C92 H93 0.952 . S
H93 C92 0.952 . S
H94 C90 0.950 . S
H95 C96 0.949 . S
C96 H95 0.949 . S
C96 C97 1.395 . S
C96 C98 1.391 . S
C97 C96 1.395 . S
C97 C100 1.390 . S
C98 C96 1.391 . S
C98 C102 1.387 . S
C98 C103 1.491 . S
H99 C100 0.950 . S
C100 C97 1.390 . S
C100 H99 0.950 . S
C100 C101 1.378 . S
C101 C100 1.378 . S
C101 C102 1.409 . S
C102 C98 1.387 . S
C102 C101 1.409 . S
C102 H104 0.951 . S
C103 C98 1.491 . S
C103 C105 1.382 . S
C103 C107 1.404 . S
H104 C102 0.951 . S
C105 C103 1.382 . S
C105 C106 1.390 . S
C105 H110 0.949 . S
C106 C105 1.390 . S
C106 C111 1.399 . S
C107 C103 1.404 . S
C107 H108 0.950 . S
C107 C109 1.375 . S
H108 C107 0.950 . S
C109 C107 1.375 . S
C109 C111 1.382 . S
C109 H113 0.950 . S
H110 C105 0.949 . S
C111 C106 1.399 . S
C111 C109 1.382 . S
C111 H112 0.952 . S
H112 C111 0.952 . S
H113 C109 0.950 . S
H114 C115 0.949 . S
C115 H114 0.949 . S
C115 C116 1.395 . S
C115 C117 1.391 . S
C116 C115 1.395 . S
C116 C119 1.390 . S
C117 C115 1.391 . S
C117 C121 1.387 . S
C117 C122 1.491 . S
H118 C119 0.950 . S
C119 C116 1.390 . S
C119 H118 0.950 . S
C119 C120 1.378 . S
C120 C119 1.378 . S
C120 C121 1.409 . S
C121 C117 1.387 . S
C121 C120 1.409 . S
C121 H123 0.951 . S
C122 C117 1.491 . S
C122 C124 1.382 . S
C122 C126 1.404 . S
H123 C121 0.951 . S
C124 C122 1.382 . S
C124 C125 1.390 . S
C124 H129 0.949 . S
C125 C124 1.390 . S
C125 C130 1.399 . S
C126 C122 1.404 . S
C126 H127 0.950 . S
C126 C128 1.375 . S
H127 C126 0.950 . S
C128 C126 1.375 . S
C128 C130 1.382 . S
C128 H132 0.950 . S
H129 C124 0.949 . S
C130 C125 1.399 . S
C130 C128 1.382 . S
C130 H131 0.952 . S
H131 C130 0.952 . S
H132 C128 0.950 . S
H133 C134 0.949 . S
C134 H133 0.949 . S
C134 C135 1.395 . S
C134 C136 1.391 . S
C135 C134 1.395 . S
C135 C138 1.390 . S
C136 C134 1.391 . S
C136 C140 1.387 . S
C136 C141 1.491 . S
H137 C138 0.950 . S
C138 C135 1.390 . S
C138 H137 0.950 . S
C138 C139 1.378 . S
C139 C138 1.378 . S
C139 C140 1.409 . S
C140 C136 1.387 . S
C140 C139 1.409 . S
C140 H142 0.951 . S
C141 C136 1.491 . S
C141 C143 1.382 . S
C141 C145 1.404 . S
H142 C140 0.951 . S
C143 C141 1.382 . S
C143 C144 1.390 . S
C143 H148 0.949 . S
C144 C143 1.390 . S
C144 C149 1.399 . S
C145 C141 1.404 . S
C145 H146 0.950 . S
C145 C147 1.375 . S
H146 C145 0.950 . S
C147 C145 1.375 . S
C147 C149 1.382 . S
C147 H151 0.950 . S
H148 C143 0.949 . S
C149 C144 1.399 . S
C149 C147 1.382 . S
C149 H150 0.952 . S
H150 C149 0.952 . S
H151 C147 0.950 . S
H152 C153 0.949 . S
C153 H152 0.949 . S
C153 C154 1.395 . S
C153 C155 1.391 . S
C154 C153 1.395 . S
C154 C157 1.390 . S
C155 C153 1.391 . S
C155 C159 1.387 . S
C155 C160 1.491 . S
H156 C157 0.950 . S
C157 C154 1.390 . S
C157 H156 0.950 . S
C157 C158 1.378 . S
C158 C157 1.378 . S
C158 C159 1.409 . S
C159 C155 1.387 . S
C159 C158 1.409 . S
C159 H161 0.951 . S
C160 C155 1.491 . S
C160 C162 1.382 . S
C160 C164 1.404 . S
H161 C159 0.951 . S
C162 C160 1.382 . S
C162 C163 1.390 . S
C162 H167 0.949 . S
C163 C162 1.390 . S
C163 C168 1.399 . S
C164 C160 1.404 . S
C164 H165 0.950 . S
C164 C166 1.375 . S
H165 C164 0.950 . S
C166 C164 1.375 . S
C166 C168 1.382 . S
C166 H170 0.950 . S
H167 C162 0.949 . S
C168 C163 1.399 . S
C168 C166 1.382 . S
C168 H169 0.952 . S
H169 C168 0.952 . S
H170 C166 0.950 . S
H171 C172 0.949 . S
C172 H171 0.949 . S
C172 C173 1.395 . S
C172 C174 1.391 . S
C173 C172 1.395 . S
C173 C176 1.390 . S
C174 C172 1.391 . S
C174 C178 1.387 . S
C174 C179 1.491 . S
H175 C176 0.950 . S
C176 C173 1.390 . S
C176 H175 0.950 . S
C176 C177 1.378 . S
C177 C176 1.378 . S
C177 C178 1.409 . S
C178 C174 1.387 . S
C178 C177 1.409 . S
C178 H180 0.951 . S
C179 C174 1.491 . S
C179 C181 1.382 . S
C179 C183 1.404 . S
H180 C178 0.951 . S
C181 C179 1.382 . S
C181 C182 1.390 . S
C181 H186 0.949 . S
C182 C181 1.390 . S
C182 C187 1.399 . S
C183 C179 1.404 . S
C183 H184 0.950 . S
C183 C185 1.375 . S
H184 C183 0.950 . S
C185 C183 1.375 . S
C185 C187 1.382 . S
C185 H189 0.950 . S
H186 C181 0.949 . S
C187 C182 1.399 . S
C187 C185 1.382 . S
C187 H188 0.952 . S
H188 C187 0.952 . S
H189 C185 0.950 . S
H190 C191 0.949 . S
C191 H190 0.949 . S
C191 C192 1.395 . S
C191 C193 1.391 . S
C192 C191 1.395 . S
C192 C195 1.390 . S
C193 C191 1.391 . S
C193 C197 1.387 . S
C193 C198 1.491 . S
H194 C195 0.950 . S
C195 C192 1.390 . S
C195 H194 0.950 . S
C195 C196 1.378 . S
C196 C195 1.378 . S
C196 C197 1.409 . S
C197 C193 1.387 . S
C197 C196 1.409 . S
C197 H199 0.951 . S
C198 C193 1.491 . S
C198 C200 1.382 . S
C198 C202 1.404 . S
H199 C197 0.951 . S
C200 C198 1.382 . S
C200 C201 1.390 . S
C200 H205 0.949 . S
C201 C200 1.390 . S
C201 C206 1.399 . S
C202 C198 1.404 . S
C202 H203 0.950 . S
C202 C204 1.375 . S
H203 C202 0.950 . S
C204 C202 1.375 . S
C204 C206 1.382 . S
C204 H208 0.950 . S
H205 C200 0.949 . S
C206 C201 1.399 . S
C206 C204 1.382 . S
C206 H207 0.952 . S
H207 C206 0.952 . S
H208 C204 0.950 . S
H209 C210 0.949 . S
C210 H209 0.949 . S
C210 C211 1.395 . S
C210 C212 1.391 . S
C211 C210 1.395 . S
C211 C214 1.390 . S
C212 C210 1.391 . S
C212 C216 1.387 . S
C212 C217 1.491 . S
H213 C214 0.950 . S
C214 C211 1.390 . S
C214 H213 0.950 . S
C214 C215 1.378 . S
C215 C214 1.378 . S
C215 C216 1.409 . S
C216 C212 1.387 . S
C216 C215 1.409 . S
C216 H218 0.951 . S
C217 C212 1.491 . S
C217 C219 1.382 . S
C217 C221 1.404 . S
H218 C216 0.951 . S
C219 C217 1.382 . S
C219 C220 1.390 . S
C219 H224 0.949 . S
C220 C219 1.390 . S
C220 C225 1.399 . S
C221 C217 1.404 . S
C221 H222 0.950 . S
C221 C223 1.375 . S
H222 C221 0.950 . S
C223 C221 1.375 . S
C223 C225 1.382 . S
C223 H227 0.950 . S
H224 C219 0.949 . S
C225 C220 1.399 . S
C225 C223 1.382 . S
C225 H226 0.952 . S
H226 C225 0.952 . S
H227 C223 0.950 . S
H228 C229 0.949 . S
C229 H228 0.949 . S
C229 C230 1.395 . S
C229 C231 1.391 . S
C230 C229 1.395 . S
C230 C233 1.390 . S
C231 C229 1.391 . S
C231 C235 1.387 . S
C231 C236 1.491 . S
H232 C233 0.950 . S
C233 C230 1.390 . S
C233 H232 0.950 . S
C233 C234 1.378 . S
C234 C233 1.378 . S
C234 C235 1.409 . S
C235 C231 1.387 . S
C235 C234 1.409 . S
C235 H237 0.951 . S
C236 C231 1.491 . S
C236 C238 1.382 . S
C236 C240 1.404 . S
H237 C235 0.951 . S
C238 C236 1.382 . S
C238 C239 1.390 . S
C238 H243 0.949 . S
C239 C238 1.390 . S
C239 C244 1.399 . S
C240 C236 1.404 . S
C240 H241 0.950 . S
C240 C242 1.375 . S
H241 C240 0.950 . S
C242 C240 1.375 . S
C242 C244 1.382 . S
C242 H246 0.950 . S
H243 C238 0.949 . S
C244 C239 1.399 . S
C244 C242 1.382 . S
C244 H245 0.952 . S
H245 C244 0.952 . S
H246 C242 0.950 . S
H247 C248 0.949 . S
C248 H247 0.949 . S
C248 C249 1.395 . S
C248 C250 1.391 . S
C249 C248 1.395 . S
C249 C252 1.390 . S
C250 C248 1.391 . S
C250 C254 1.387 . S
C250 C255 1.491 . S
H251 C252 0.950 . S
C252 C249 1.390 . S
C252 H251 0.950 . S
C252 C253 1.378 . S
C253 C252 1.378 . S
C253 C254 1.409 . S
C254 C250 1.387 . S
C254 C253 1.409 . S
C254 H256 0.951 . S
C255 C250 1.491 . S
C255 C257 1.382 . S
C255 C259 1.404 . S
H256 C254 0.951 . S
C257 C255 1.382 . S
C257 C258 1.390 . S
C257 H262 0.949 . S
C258 C257 1.390 . S
C258 C263 1.399 . S
C259 C255 1.404 . S
C259 H260 0.950 . S
C259 C261 1.375 . S
H260 C259 0.950 . S
C261 C259 1.375 . S
C261 C263 1.382 . S
C261 H265 0.950 . S
H262 C257 0.949 . S
C263 C258 1.399 . S
C263 C261 1.382 . S
C263 H264 0.952 . S
H264 C263 0.952 . S
H265 C261 0.950 . S
H266 C267 0.949 . S
C267 H266 0.949 . S
C267 C268 1.395 . S
C267 C269 1.391 . S
C268 C267 1.395 . S
C268 C271 1.390 . S
C269 C267 1.391 . S
C269 C273 1.387 . S
C269 C274 1.491 . S
H270 C271 0.950 . S
C271 C268 1.390 . S
C271 H270 0.950 . S
C271 C272 1.378 . S
C272 C271 1.378 . S
C272 C273 1.409 . S
C273 C269 1.387 . S
C273 C272 1.409 . S
C273 H275 0.951 . S
C274 C269 1.491 . S
C274 C276 1.382 . S
C274 C278 1.404 . S
H275 C273 0.951 . S
C276 C274 1.382 . S
C276 C277 1.390 . S
C276 H281 0.949 . S
C277 C276 1.390 . S
C277 C282 1.399 . S
C278 C274 1.404 . S
C278 H279 0.950 . S
C278 C280 1.375 . S
H279 C278 0.950 . S
C280 C278 1.375 . S
C280 C282 1.382 . S
C280 H284 0.950 . S
H281 C276 0.949 . S
C282 C277 1.399 . S
C282 C280 1.382 . S
C282 H283 0.952 . S
H283 C282 0.952 . S
H284 C280 0.950 . S
H285 C286 0.949 . S
C286 H285 0.949 . S
C286 C287 1.395 . S
C286 C288 1.391 . S
C287 C286 1.395 . S
C287 C290 1.390 . S
C288 C286 1.391 . S
C288 C292 1.387 . S
C288 C293 1.491 . S
H289 C290 0.950 1_554 S
C290 C287 1.390 . S
C290 H289 0.950 1_556 S
C290 C291 1.378 . S
C291 C290 1.378 . S
C291 C292 1.409 . S
C292 C288 1.387 . S
C292 C291 1.409 . S
C292 H294 0.951 . S
C293 C288 1.491 . S
C293 C295 1.382 . S
C293 C297 1.404 . S
H294 C292 0.951 . S
C295 C293 1.382 . S
C295 C296 1.390 . S
C295 H300 0.949 . S
C296 C295 1.390 . S
C296 C301 1.399 . S
C297 C293 1.404 . S
C297 H298 0.950 . S
C297 C299 1.375 . S
H298 C297 0.950 . S
C299 C297 1.375 . S
C299 C301 1.382 . S
C299 H303 0.950 . S
H300 C295 0.949 . S
C301 C296 1.399 . S
C301 C299 1.382 . S
C301 H302 0.952 . S
H302 C301 0.952 . S
H303 C299 0.950 . S
O304 Cd305 2.223 . S
O304 C312 1.315 . S
Cd305 O304 2.223 . S
Cd305 O308 2.297 . S
Cd305 O309 2.439 . S
Cd305 O315 2.240 . S
Cd306 O307 2.240 . S
Cd306 O314 2.223 . S
Cd306 O316 2.297 1_565 S
Cd306 O317 2.439 . S
O307 Cd306 2.240 . S
O307 C312 1.279 . S
O308 Cd305 2.297 . S
O308 C310 1.247 . S
O309 Cd305 2.439 . S
O309 C310 1.208 . S
C310 O308 1.247 . S
C310 O309 1.208 . S
C311 O316 1.247 . S
C311 O317 1.208 1_545 S
C312 O304 1.315 . S
C312 O307 1.279 . S
C313 O314 1.315 . S
C313 O315 1.279 . S
O314 Cd306 2.223 . S
O314 C313 1.315 . S
O315 Cd305 2.240 . S
O315 C313 1.279 . S
O316 Cd306 2.297 1_545 S
O316 C311 1.247 . S
O317 Cd306 2.439 . S
O317 C311 1.208 1_565 S
O318 Cd319 2.223 . S
O318 C326 1.315 . S
Cd319 O318 2.223 . S
Cd319 O322 2.297 . S
Cd319 O323 2.439 . S
Cd319 O329 2.240 . S
Cd320 O321 2.240 . S
Cd320 O328 2.223 . S
Cd320 O330 2.297 . S
Cd320 O331 2.439 . S
O321 Cd320 2.240 . S
O321 C326 1.279 . S
O322 Cd319 2.297 . S
O322 C324 1.247 . S
O323 Cd319 2.439 . S
O323 C324 1.208 . S
C324 O322 1.247 . S
C324 O323 1.208 . S
C325 O330 1.247 . S
C325 O331 1.208 . S
C326 O318 1.315 . S
C326 O321 1.279 . S
C327 O328 1.315 . S
C327 O329 1.279 . S
O328 Cd320 2.223 . S
O328 C327 1.315 . S
O329 Cd319 2.240 . S
O329 C327 1.279 . S
O330 Cd320 2.297 . S
O330 C325 1.247 . S
O331 Cd320 2.439 . S
O331 C325 1.208 . S
O332 Cd333 2.223 1_556 S
O332 C340 1.315 . S
Cd333 O332 2.223 1_554 S
Cd333 O336 2.297 . S
Cd333 O337 2.439 . S
Cd333 O343 2.240 1_554 S
Cd334 O335 2.240 . S
Cd334 O342 2.223 . S
Cd334 O344 2.297 . S
Cd334 O345 2.439 1_556 S
O335 Cd334 2.240 . S
O335 C340 1.279 . S
O336 Cd333 2.297 . S
O336 C338 1.247 . S
O337 Cd333 2.439 . S
O337 C338 1.208 . S
C338 O336 1.247 . S
C338 O337 1.208 . S
C339 O344 1.247 1_554 S
C339 O345 1.208 . S
C340 O332 1.315 . S
C340 O335 1.279 . S
C341 O342 1.315 . S
C341 O343 1.279 . S
O342 Cd334 2.223 . S
O342 C341 1.315 . S
O343 Cd333 2.240 1_556 S
O343 C341 1.279 . S
O344 Cd334 2.297 . S
O344 C339 1.247 1_556 S
O345 Cd334 2.439 1_554 S
O345 C339 1.208 . S
O346 Cd347 2.223 . S
O346 C354 1.315 . S
Cd347 O346 2.223 . S
Cd347 O350 2.297 . S
Cd347 O351 2.439 . S
Cd347 O357 2.240 1_455 S
Cd348 O349 2.240 1_655 S
Cd348 O356 2.223 . S
Cd348 O358 2.297 . S
Cd348 O359 2.439 . S
O349 Cd348 2.240 1_455 S
O349 C354 1.279 . S
O350 Cd347 2.297 . S
O350 C352 1.247 . S
O351 Cd347 2.439 . S
O351 C352 1.208 . S
C352 O350 1.247 . S
C352 O351 1.208 . S
C353 O358 1.247 . S
C353 O359 1.208 . S
C354 O346 1.315 . S
C354 O349 1.279 . S
C355 O356 1.315 . S
C355 O357 1.279 . S
O356 Cd348 2.223 . S
O356 C355 1.315 . S
O357 Cd347 2.240 1_655 S
O357 C355 1.279 . S
O358 Cd348 2.297 . S
O358 C353 1.247 . S
O359 Cd348 2.439 . S
O359 C353 1.208 . S
O360 Cd361 2.223 . S
O360 C368 1.315 . S
Cd361 O360 2.223 . S
Cd361 O364 2.297 . S
Cd361 O365 2.439 . S
Cd361 O371 2.240 . S
Cd362 O363 2.240 . S
Cd362 O370 2.223 . S
Cd362 O372 2.297 . S
Cd362 O373 2.439 . S
O363 Cd362 2.240 . S
O363 C368 1.279 . S
O364 Cd361 2.297 . S
O364 C366 1.247 . S
O365 Cd361 2.439 . S
O365 C366 1.208 . S
C366 O364 1.247 . S
C366 O365 1.208 . S
C367 O372 1.247 . S
C367 O373 1.208 . S
C368 O360 1.315 . S
C368 O363 1.279 . S
C369 O370 1.315 . S
C369 O371 1.279 . S
O370 Cd362 2.223 . S
O370 C369 1.315 . S
O371 Cd361 2.240 . S
O371 C369 1.279 . S
O372 Cd362 2.297 . S
O372 C367 1.247 . S
O373 Cd362 2.439 . S
O373 C367 1.208 . S
O374 Cd375 2.223 . S
O374 C382 1.315 . S
Cd375 O374 2.223 . S
Cd375 O378 2.297 . S
Cd375 O379 2.439 . S
Cd375 O385 2.240 . S
Cd376 O377 2.240 . S
Cd376 O384 2.223 . S
Cd376 O386 2.297 . S
Cd376 O387 2.439 . S
O377 Cd376 2.240 . S
O377 C382 1.279 . S
O378 Cd375 2.297 . S
O378 C380 1.247 . S
O379 Cd375 2.439 . S
O379 C380 1.208 . S
C380 O378 1.247 . S
C380 O379 1.208 . S
C381 O386 1.247 . S
C381 O387 1.208 . S
C382 O374 1.315 . S
C382 O377 1.279 . S
C383 O384 1.315 . S
C383 O385 1.279 . S
O384 Cd376 2.223 . S
O384 C383 1.315 . S
O385 Cd375 2.240 . S
O385 C383 1.279 . S
O386 Cd376 2.297 . S
O386 C381 1.247 . S
O387 Cd376 2.439 . S
O387 C381 1.208 . S
O388 Cd389 2.223 . S
O388 C396 1.315 . S
Cd389 O388 2.223 . S
Cd389 O392 2.297 . S
Cd389 O393 2.439 . S
Cd389 O399 2.240 . S
Cd390 O391 2.240 . S
Cd390 O398 2.223 . S
Cd390 O400 2.297 . S
Cd390 O401 2.439 . S
O391 Cd390 2.240 . S
O391 C396 1.279 . S
O392 Cd389 2.297 . S
O392 C394 1.247 . S
O393 Cd389 2.439 . S
O393 C394 1.208 . S
C394 O392 1.247 . S
C394 O393 1.208 . S
C395 O400 1.247 . S
C395 O401 1.208 . S
C396 O388 1.315 . S
C396 O391 1.279 . S
C397 O398 1.315 . S
C397 O399 1.279 . S
O398 Cd390 2.223 . S
O398 C397 1.315 . S
O399 Cd389 2.240 . S
O399 C397 1.279 . S
O400 Cd390 2.297 . S
O400 C395 1.247 . S
O401 Cd390 2.439 . S
O401 C395 1.208 . S
O402 Cd403 2.223 1_545 S
O402 C410 1.315 . S
Cd403 O402 2.223 1_565 S
Cd403 O406 2.297 . S
Cd403 O407 2.439 . S
Cd403 O413 2.240 1_565 S
Cd404 O405 2.240 . S
Cd404 O412 2.223 . S
Cd404 O414 2.297 1_545 S
Cd404 O415 2.439 1_545 S
O405 Cd404 2.240 . S
O405 C410 1.279 . S
O406 Cd403 2.297 . S
O406 C408 1.247 . S
O407 Cd403 2.439 . S
O407 C408 1.208 . S
C408 O406 1.247 . S
C408 O407 1.208 . S
C409 O414 1.247 . S
C409 O415 1.208 . S
C410 O402 1.315 . S
C410 O405 1.279 . S
C411 O412 1.315 . S
C411 O413 1.279 . S
O412 Cd404 2.223 . S
O412 C411 1.315 . S
O413 Cd403 2.240 1_545 S
O413 C411 1.279 . S
O414 Cd404 2.297 1_565 S
O414 C409 1.247 . S
O415 Cd404 2.439 1_565 S
O415 C409 1.208 . S
O416 Cd417 2.223 . S
O416 C424 1.315 . S
Cd417 O416 2.223 . S
Cd417 O420 2.298 . S
Cd417 O421 2.439 1_655 S
Cd417 O427 2.240 . S
Cd418 O419 2.240 . S
Cd418 O426 2.223 1_455 S
Cd418 O428 2.297 . S
Cd418 O429 2.439 . S
O419 Cd418 2.240 . S
O419 C424 1.279 1_455 S
O420 Cd417 2.298 . S
O420 C422 1.245 1_655 S
O421 Cd417 2.439 1_455 S
O421 C422 1.208 . S
C422 O420 1.245 1_455 S
C422 O421 1.208 . S
C423 O428 1.247 . S
C423 O429 1.208 . S
C424 O416 1.315 . S
C424 O419 1.279 1_655 S
C425 O426 1.315 . S
C425 O427 1.279 . S
O426 Cd418 2.223 1_655 S
O426 C425 1.315 . S
O427 Cd417 2.240 . S
O427 C425 1.279 . S
O428 Cd418 2.297 . S
O428 C423 1.247 . S
O429 Cd418 2.439 . S
O429 C423 1.208 . S
O430 Cd431 2.223 . S
O430 C438 1.315 . S
Cd431 O430 2.223 . S
Cd431 O434 2.297 . S
Cd431 O435 2.439 . S
Cd431 O441 2.240 . S
Cd432 O433 2.240 . S
Cd432 O440 2.223 . S
Cd432 O442 2.297 . S
Cd432 O443 2.439 . S
O433 Cd432 2.240 . S
O433 C438 1.279 . S
O434 Cd431 2.297 . S
O434 C436 1.247 . S
O435 Cd431 2.439 . S
O435 C436 1.208 . S
C436 O434 1.247 . S
C436 O435 1.208 . S
C437 O442 1.247 . S
C437 O443 1.208 . S
C438 O430 1.315 . S
C438 O433 1.279 . S
C439 O440 1.315 . S
C439 O441 1.279 . S
O440 Cd432 2.223 . S
O440 C439 1.315 . S
O441 Cd431 2.240 . S
O441 C439 1.279 . S
O442 Cd432 2.297 . S
O442 C437 1.247 . S
O443 Cd432 2.439 . S
O443 C437 1.208 . S
O444 Cd445 2.223 1_655 S
O444 C452 1.315 . S
Cd445 O444 2.223 1_455 S
Cd445 O448 2.297 . S
Cd445 O449 2.439 . S
Cd445 O455 2.240 . S
Cd446 O447 2.240 . S
Cd446 O454 2.223 1_455 S
Cd446 O456 2.297 . S
Cd446 O457 2.439 . S
O447 Cd446 2.240 . S
O447 C452 1.280 1_455 S
O448 Cd445 2.297 . S
O448 C450 1.247 . S
O449 Cd445 2.439 . S
O449 C450 1.208 . S
C450 O448 1.247 . S
C450 O449 1.208 . S
C451 O456 1.247 . S
C451 O457 1.208 . S
C452 O444 1.315 . S
C452 O447 1.280 1_655 S
C453 O454 1.315 . S
C453 O455 1.279 1_655 S
O454 Cd446 2.223 1_655 S
O454 C453 1.315 . S
O455 Cd445 2.240 . S
O455 C453 1.279 1_455 S
O456 Cd446 2.297 . S
O456 C451 1.247 . S
O457 Cd446 2.439 . S
O457 C451 1.208 . S
O458 Cd459 2.223 . S
O458 C466 1.315 . S
Cd459 O458 2.223 . S
Cd459 O462 2.297 . S
Cd459 O463 2.439 . S
Cd459 O469 2.240 . S
Cd460 O461 2.240 . S
Cd460 O468 2.223 . S
Cd460 O470 2.297 . S
Cd460 O471 2.439 . S
O461 Cd460 2.240 . S
O461 C466 1.279 . S
O462 Cd459 2.297 . S
O462 C464 1.247 . S
O463 Cd459 2.439 . S
O463 C464 1.208 . S
C464 O462 1.247 . S
C464 O463 1.208 . S
C465 O470 1.247 . S
C465 O471 1.208 . S
C466 O458 1.315 . S
C466 O461 1.279 . S
C467 O468 1.315 . S
C467 O469 1.279 . S
O468 Cd460 2.223 . S
O468 C467 1.315 . S
O469 Cd459 2.240 . S
O469 C467 1.279 . S
O470 Cd460 2.297 . S
O470 C465 1.247 . S
O471 Cd460 2.439 . S
O471 C465 1.208 . S
C472 C473 1.363 . S
C472 C478 1.379 . S
C472 N480 1.356 . S
C473 C472 1.363 . S
C473 C479 1.363 . S
C474 C475 1.363 . S
C474 C479 1.379 1_554 S
C474 N481 1.356 . S
C475 C474 1.363 . S
C475 C478 1.363 1_554 S
N476 C478 1.356 . S
N476 H488 0.984 . S
N476 H489 0.985 1_556 S
N477 C479 1.356 . S
N477 H482 0.984 . S
N477 H483 0.985 . S
C478 C472 1.379 . S
C478 C475 1.363 1_556 S
C478 N476 1.356 . S
C479 C473 1.363 . S
C479 C474 1.379 1_556 S
C479 N477 1.356 . S
N480 C472 1.356 . S
N480 H486 0.984 . S
N480 H487 0.984 . S
N481 C474 1.356 . S
N481 H484 0.984 . S
N481 H485 0.985 . S
H482 N477 0.984 . S
H483 N477 0.985 . S
H484 N481 0.984 . S
H485 N481 0.985 . S
H486 N480 0.984 . S
H487 N480 0.984 . S
H488 N476 0.984 . S
H489 N476 0.985 1_554 S
C490 C491 1.363 1_455 S
C490 C496 1.379 . S
C490 N498 1.356 . S
C491 C490 1.363 1_655 S
C491 C497 1.363 . S
C492 C493 1.363 . S
C492 C497 1.379 1_455 S
C492 N499 1.356 . S
C493 C492 1.363 . S
C493 C496 1.363 . S
N494 C496 1.356 . S
N494 H506 0.984 . S
N494 H507 0.985 . S
N495 C497 1.356 . S
N495 H500 0.984 . S
N495 H501 0.985 . S
C496 C490 1.379 . S
C496 C493 1.363 . S
C496 N494 1.356 . S
C497 C491 1.363 . S
C497 C492 1.379 1_655 S
C497 N495 1.356 . S
N498 C490 1.356 . S
N498 H504 0.984 . S
N498 H505 0.984 1_455 S
N499 C492 1.356 . S
N499 H502 0.984 . S
N499 H503 0.985 . S
H500 N495 0.984 . S
H501 N495 0.985 . S
H502 N499 0.984 . S
H503 N499 0.985 . S
H504 N498 0.984 . S
H505 N498 0.984 1_655 S
H506 N494 0.984 . S
H507 N494 0.985 . S
C508 C509 1.363 . S
C508 C514 1.379 . S
C508 N516 1.356 . S
C509 C508 1.363 . S
C509 C515 1.363 . S
C510 C511 1.363 . S
C510 C515 1.379 . S
C510 N517 1.356 . S
C511 C510 1.363 . S
C511 C514 1.363 . S
N512 C514 1.356 . S
N512 H524 0.984 . S
N512 H525 0.985 . S
N513 C515 1.356 . S
N513 H518 0.984 . S
N513 H519 0.985 . S
C514 C508 1.379 . S
C514 C511 1.363 . S
C514 N512 1.356 . S
C515 C509 1.363 . S
C515 C510 1.379 . S
C515 N513 1.356 . S
N516 C508 1.356 . S
N516 H522 0.984 . S
N516 H523 0.984 . S
N517 C510 1.356 . S
N517 H520 0.984 . S
N517 H521 0.985 . S
H518 N513 0.984 . S
H519 N513 0.985 . S
H520 N517 0.984 . S
H521 N517 0.985 . S
H522 N516 0.984 . S
H523 N516 0.984 . S
H524 N512 0.984 . S
H525 N512 0.985 . S
C526 C527 1.363 1_545 S
C526 C532 1.379 . S
C526 N534 1.356 1_545 S
C527 C526 1.363 1_565 S
C527 C533 1.371 . S
C528 C529 1.363 . S
C528 C533 1.365 1_545 S
C528 N535 1.356 . S
C529 C528 1.363 . S
C529 C532 1.363 . S
N530 C532 1.356 . S
N530 H542 0.984 . S
N530 H543 0.985 . S
N531 C533 1.366 . S
N531 H536 0.984 . S
N531 H537 0.985 . S
C532 C526 1.379 . S
C532 C529 1.363 . S
C532 N530 1.356 . S
C533 C527 1.371 . S
C533 C528 1.365 1_565 S
C533 N531 1.366 . S
N534 C526 1.356 1_565 S
N534 H540 0.984 . S
N534 H541 0.984 . S
N535 C528 1.356 . S
N535 H538 0.984 . S
N535 H539 0.985 . S
H536 N531 0.984 . S
H537 N531 0.985 . S
H538 N535 0.984 . S
H539 N535 0.985 . S
H540 N534 0.984 . S
H541 N534 0.984 . S
H542 N530 0.984 . S
H543 N530 0.985 . S
C544 C545 1.363 . S
C544 C550 1.379 . S
C544 N552 1.356 . S
C545 C544 1.363 . S
C545 C551 1.363 . S
C546 C547 1.363 . S
C546 C551 1.379 . S
C546 N553 1.356 . S
C547 C546 1.363 . S
C547 C550 1.363 . S
N548 C550 1.356 . S
N548 H560 0.984 . S
N548 H561 0.985 . S
N549 C551 1.356 . S
N549 H554 0.984 . S
N549 H555 0.985 . S
C550 C544 1.379 . S
C550 C547 1.363 . S
C550 N548 1.356 . S
C551 C545 1.363 . S
C551 C546 1.379 . S
C551 N549 1.356 . S
N552 C544 1.356 . S
N552 H558 0.984 . S
N552 H559 0.984 . S
N553 C546 1.356 . S
N553 H556 0.984 . S
N553 H557 0.985 . S
H554 N549 0.984 . S
H555 N549 0.985 . S
H556 N553 0.984 . S
H557 N553 0.985 . S
H558 N552 0.984 . S
H559 N552 0.984 . S
H560 N548 0.984 . S
H561 N548 0.985 . S
C562 C563 1.363 . S
C562 C568 1.379 . S
C562 N570 1.356 . S
C563 C562 1.363 . S
C563 C569 1.363 . S
C564 C565 1.363 . S
C564 C569 1.379 . S
C564 N571 1.356 . S
C565 C564 1.363 . S
C565 C568 1.363 . S
N566 C568 1.356 . S
N566 H578 0.984 . S
N566 H579 0.985 . S
N567 C569 1.356 . S
N567 H572 0.984 . S
N567 H573 0.985 . S
C568 C562 1.379 . S
C568 C565 1.363 . S
C568 N566 1.356 . S
C569 C563 1.363 . S
C569 C564 1.379 . S
C569 N567 1.356 . S
N570 C562 1.356 . S
N570 H576 0.984 . S
N570 H577 0.984 . S
N571 C564 1.356 . S
N571 H574 0.984 . S
N571 H575 0.985 . S
H572 N567 0.984 . S
H573 N567 0.985 . S
H574 N571 0.984 . S
H575 N571 0.985 . S
H576 N570 0.984 . S
H577 N570 0.984 . S
H578 N566 0.984 . S
H579 N566 0.985 . S
C580 C581 1.363 . S
C580 C586 1.379 . S
C580 N588 1.356 . S
C581 C580 1.363 . S
C581 C587 1.363 . S
C582 C583 1.363 . S
C582 C587 1.379 . S
C582 N589 1.356 . S
C583 C582 1.363 . S
C583 C586 1.363 . S
N584 C586 1.356 . S
N584 H596 0.984 . S
N584 H597 0.985 . S
N585 C587 1.356 . S
N585 H590 0.984 . S
N585 H591 0.985 . S
C586 C580 1.379 . S
C586 C583 1.363 . S
C586 N584 1.356 . S
C587 C581 1.363 . S
C587 C582 1.379 . S
C587 N585 1.356 . S
N588 C580 1.356 . S
N588 H594 0.984 . S
N588 H595 0.984 . S
N589 C582 1.356 . S
N589 H592 0.984 . S
N589 H593 0.985 . S
H590 N585 0.984 . S
H591 N585 0.985 . S
H592 N589 0.984 . S
H593 N589 0.985 . S
H594 N588 0.984 . S
H595 N588 0.984 . S
H596 N584 0.984 . S
H597 N584 0.985 . S
C598 C599 1.363 . S
C598 C604 1.379 . S
C598 N606 1.356 . S
C599 C598 1.363 . S
C599 C605 1.363 . S
C600 C601 1.363 . S
C600 C605 1.379 . S
C600 N607 1.356 . S
C601 C600 1.363 . S
C601 C604 1.363 . S
N602 C604 1.356 . S
N602 H614 0.984 . S
N602 H615 0.985 . S
N603 C605 1.356 . S
N603 H608 0.984 . S
N603 H609 0.985 . S
C604 C598 1.379 . S
C604 C601 1.363 . S
C604 N602 1.356 . S
C605 C599 1.363 . S
C605 C600 1.379 . S
C605 N603 1.356 . S
N606 C598 1.356 . S
N606 H612 0.984 . S
N606 H613 0.984 . S
N607 C600 1.356 . S
N607 H610 0.984 . S
N607 H611 0.985 1_565 S
H608 N603 0.984 . S
H609 N603 0.985 . S
H610 N607 0.984 . S
H611 N607 0.985 1_545 S
H612 N606 0.984 . S
H613 N606 0.984 . S
H614 N602 0.984 . S
H615 N602 0.985 . S
C616 C617 1.363 . S
C616 C622 1.379 . S
C616 N624 1.356 . S
C617 C616 1.363 . S
C617 C623 1.363 . S
C618 C619 1.363 . S
C618 C623 1.379 . S
C618 N625 1.356 . S
C619 C618 1.363 . S
C619 C622 1.363 . S
N620 C622 1.356 . S
N620 H632 0.984 . S
N620 H633 0.985 . S
N621 C623 1.356 . S
N621 H626 0.984 . S
N621 H627 0.985 . S
C622 C616 1.379 . S
C622 C619 1.363 . S
C622 N620 1.356 . S
C623 C617 1.363 . S
C623 C618 1.379 . S
C623 N621 1.356 . S
N624 C616 1.356 . S
N624 H630 0.984 . S
N624 H631 0.984 . S
N625 C618 1.356 . S
N625 H628 0.984 . S
N625 H629 0.985 . S
H626 N621 0.984 . S
H627 N621 0.985 . S
H628 N625 0.984 . S
H629 N625 0.985 . S
H630 N624 0.984 . S
H631 N624 0.984 . S
H632 N620 0.984 . S
H633 N620 0.985 . S
C634 C635 1.363 . S
C634 C640 1.379 . S
C634 N642 1.356 . S
C635 C634 1.363 . S
C635 C641 1.363 . S
C636 C637 1.363 . S
C636 C641 1.379 . S
C636 N643 1.356 . S
C637 C636 1.363 . S
C637 C640 1.363 . S
N638 C640 1.356 . S
N638 H650 0.984 . S
N638 H651 0.985 . S
N639 C641 1.356 . S
N639 H644 0.984 . S
N639 H645 0.985 . S
C640 C634 1.379 . S
C640 C637 1.363 . S
C640 N638 1.356 . S
C641 C635 1.363 . S
C641 C636 1.379 . S
C641 N639 1.356 . S
N642 C634 1.356 . S
N642 H648 0.984 . S
N642 H649 0.984 . S
N643 C636 1.356 . S
N643 H646 0.984 . S
N643 H647 0.985 . S
H644 N639 0.984 . S
H645 N639 0.985 . S
H646 N643 0.984 . S
H647 N643 0.985 . S
H648 N642 0.984 . S
H649 N642 0.984 . S
H650 N638 0.984 . S
H651 N638 0.985 . S
C652 C653 1.363 . S
C652 C658 1.379 . S
C652 N660 1.356 . S
C653 C652 1.363 . S
C653 C659 1.363 . S
C654 C655 1.363 . S
C654 C659 1.379 . S
C654 N661 1.356 . S
C655 C654 1.363 . S
C655 C658 1.363 . S
N656 C658 1.356 . S
N656 H668 0.984 . S
N656 H669 0.985 . S
N657 C659 1.356 . S
N657 H662 0.984 . S
N657 H663 0.985 . S
C658 C652 1.379 . S
C658 C655 1.363 . S
C658 N656 1.356 . S
C659 C653 1.363 . S
C659 C654 1.379 . S
C659 N657 1.356 . S
N660 C652 1.356 . S
N660 H666 0.984 . S
N660 H667 0.984 . S
N661 C654 1.356 . S
N661 H664 0.984 . S
N661 H665 0.985 . S
H662 N657 0.984 . S
H663 N657 0.985 . S
H664 N661 0.984 . S
H665 N661 0.985 . S
H666 N660 0.984 . S
H667 N660 0.984 . S
H668 N656 0.984 . S
H669 N656 0.985 . S
C670 C671 1.363 . S
C670 C676 1.379 . S
C670 N678 1.356 . S
C671 C670 1.363 . S
C671 C677 1.363 . S
C672 C673 1.363 . S
C672 C677 1.379 . S
C672 N679 1.356 . S
C673 C672 1.363 . S
C673 C676 1.363 . S
N674 C676 1.356 . S
N674 H686 0.984 . S
N674 H687 0.985 . S
N675 C677 1.356 . S
N675 H680 0.984 . S
N675 H681 0.985 . S
C676 C670 1.379 . S
C676 C673 1.363 . S
C676 N674 1.356 . S
C677 C671 1.363 . S
C677 C672 1.379 . S
C677 N675 1.356 . S
N678 C670 1.356 . S
N678 H684 0.984 . S
N678 H685 0.984 . S
N679 C672 1.356 . S
N679 H682 0.984 . S
N679 H683 0.985 . S
H680 N675 0.984 . S
H681 N675 0.985 . S
H682 N679 0.984 . S
H683 N679 0.985 . S
H684 N678 0.984 . S
H685 N678 0.984 . S
H686 N674 0.984 . S
H687 N674 0.985 . S
C688 C689 1.363 . S
C688 C694 1.379 . S
C688 N696 1.356 . S
C689 C688 1.363 . S
C689 C695 1.363 . S
C690 C691 1.363 . S
C690 C695 1.379 . S
C690 N697 1.356 . S
C691 C690 1.363 . S
C691 C694 1.363 . S
N692 C694 1.356 . S
N692 H704 0.984 . S
N692 H705 0.985 . S
N693 C695 1.356 . S
N693 H698 0.984 . S
N693 H699 0.985 . S
C694 C688 1.379 . S
C694 C691 1.363 . S
C694 N692 1.356 . S
C695 C689 1.363 . S
C695 C690 1.379 . S
C695 N693 1.356 . S
N696 C688 1.356 . S
N696 H702 0.984 . S
N696 H703 0.984 . S
N697 C690 1.356 . S
N697 H700 0.984 . S
N697 H701 0.985 . S
H698 N693 0.984 . S
H699 N693 0.985 . S
H700 N697 0.984 . S
H701 N697 0.985 . S
H702 N696 0.984 . S
H703 N696 0.984 . S
H704 N692 0.984 . S
H705 N692 0.985 . S
C706 C707 1.363 . S
C706 C712 1.379 . S
C706 N714 1.356 . S
C707 C706 1.363 . S
C707 C713 1.363 . S
C708 C709 1.363 . S
C708 C713 1.379 . S
C708 N715 1.356 . S
C709 C708 1.363 . S
C709 C712 1.363 . S
N710 C712 1.356 . S
N710 H722 0.984 . S
N710 H723 0.985 . S
N711 C713 1.356 . S
N711 H716 0.984 . S
N711 H717 0.985 . S
C712 C706 1.379 . S
C712 C709 1.363 . S
C712 N710 1.356 . S
C713 C707 1.363 . S
C713 C708 1.379 . S
C713 N711 1.356 . S
N714 C706 1.356 . S
N714 H720 0.984 . S
N714 H721 0.984 . S
N715 C708 1.356 . S
N715 H718 0.984 . S
N715 H719 0.985 . S
H716 N711 0.984 . S
H717 N711 0.985 . S
H718 N715 0.984 . S
H719 N715 0.985 . S
H720 N714 0.984 . S
H721 N714 0.984 . S
H722 N710 0.984 . S
H723 N710 0.985 . S
C724 C725 1.363 . S
C724 C730 1.379 . S
C724 N732 1.356 . S
C725 C724 1.363 . S
C725 C731 1.363 . S
C726 C727 1.363 . S
C726 C731 1.379 . S
C726 N733 1.356 . S
C727 C726 1.363 . S
C727 C730 1.363 . S
N728 C730 1.356 . S
N728 H740 0.984 . S
N728 H741 0.985 . S
N729 C731 1.356 . S
N729 H734 0.984 . S
N729 H735 0.985 . S
C730 C724 1.379 . S
C730 C727 1.363 . S
C730 N728 1.356 . S
C731 C725 1.363 . S
C731 C726 1.379 . S
C731 N729 1.356 . S
N732 C724 1.356 . S
N732 H738 0.984 . S
N732 H739 0.984 . S
N733 C726 1.356 . S
N733 H736 0.984 . S
N733 H737 0.985 . S
H734 N729 0.984 . S
H735 N729 0.985 . S
H736 N733 0.984 . S
H737 N733 0.985 . S
H738 N732 0.984 . S
H739 N732 0.984 . S
H740 N728 0.984 . S
H741 N728 0.985 . S
C742 C743 1.363 . S
C742 C748 1.379 . S
C742 N750 1.356 . S
C743 C742 1.363 . S
C743 C749 1.363 . S
C744 C745 1.363 . S
C744 C749 1.379 . S
C744 N751 1.356 1_655 S
C745 C744 1.363 . S
C745 C748 1.363 . S
N746 C748 1.356 . S
N746 H758 0.984 . S
N746 H759 0.985 . S
N747 C749 1.356 . S
N747 H752 0.984 . S
N747 H753 0.985 1_655 S
C748 C742 1.379 . S
C748 C745 1.363 . S
C748 N746 1.356 . S
C749 C743 1.363 . S
C749 C744 1.379 . S
C749 N747 1.356 . S
N750 C742 1.356 . S
N750 H756 0.984 . S
N750 H757 0.984 . S
N751 C744 1.356 1_455 S
N751 H754 0.984 . S
N751 H755 0.985 . S
H752 N747 0.984 . S
H753 N747 0.985 1_455 S
H754 N751 0.984 . S
H755 N751 0.985 . S
H756 N750 0.984 . S
H757 N750 0.984 . S
H758 N746 0.984 . S
H759 N746 0.985 . S
C760 C761 1.363 . S
C760 C766 1.379 . S
C760 N768 1.356 . S
C761 C760 1.363 . S
C761 C767 1.363 . S
C762 C763 1.363 . S
C762 C767 1.379 . S
C762 N769 1.356 . S
C763 C762 1.363 . S
C763 C766 1.363 . S
N764 C766 1.356 . S
N764 H776 0.984 . S
N764 H777 0.985 . S
N765 C767 1.356 . S
N765 H770 0.984 . S
N765 H771 0.985 . S
C766 C760 1.379 . S
C766 C763 1.363 . S
C766 N764 1.356 . S
C767 C761 1.363 . S
C767 C762 1.379 . S
C767 N765 1.356 . S
N768 C760 1.356 . S
N768 H774 0.984 . S
N768 H775 0.984 . S
N769 C762 1.356 . S
N769 H772 0.984 1_565 S
N769 H773 0.985 . S
H770 N765 0.984 . S
H771 N765 0.985 . S
H772 N769 0.984 1_545 S
H773 N769 0.985 . S
H774 N768 0.984 . S
H775 N768 0.984 . S
H776 N764 0.984 . S
H777 N764 0.985 . S
C778 C779 1.363 . S
C778 C784 1.379 . S
C778 N786 1.356 . S
C779 C778 1.363 . S
C779 C785 1.363 . S
C780 C781 1.363 . S
C780 C785 1.379 . S
C780 N787 1.356 . S
C781 C780 1.363 . S
C781 C784 1.363 . S
N782 C784 1.356 . S
N782 H794 0.984 . S
N782 H795 0.985 . S
N783 C785 1.356 . S
N783 H788 0.984 . S
N783 H789 0.985 . S
C784 C778 1.379 . S
C784 C781 1.363 . S
C784 N782 1.356 . S
C785 C779 1.363 . S
C785 C780 1.379 . S
C785 N783 1.356 . S
N786 C778 1.356 . S
N786 H792 0.984 . S
N786 H793 0.984 . S
N787 C780 1.356 . S
N787 H790 0.984 . S
N787 H791 0.985 . S
H788 N783 0.984 . S
H789 N783 0.985 . S
H790 N787 0.984 . S
H791 N787 0.985 . S
H792 N786 0.984 . S
H793 N786 0.984 . S
H794 N782 0.984 . S
H795 N782 0.985 . S
C796 C797 1.363 1_554 S
C796 C802 1.379 . S
C796 N804 1.356 . S
C797 C796 1.363 1_556 S
C797 C803 1.363 1_556 S
C798 C799 1.363 . S
C798 C803 1.379 . S
C798 N805 1.356 1_545 S
C799 C798 1.363 . S
C799 C802 1.363 . S
N800 C802 1.356 . S
N800 H812 0.984 . S
N800 H813 0.985 . S
N801 C803 1.356 1_556 S
N801 H806 0.984 . S
N801 H807 0.985 . S
C802 C796 1.379 . S
C802 C799 1.363 . S
C802 N800 1.356 . S
C803 C797 1.363 1_554 S
C803 C798 1.379 . S
C803 N801 1.356 1_554 S
N804 C796 1.356 . S
N804 H810 0.984 . S
N804 H811 0.984 1_554 S
N805 C798 1.356 1_565 S
N805 H808 0.984 . S
N805 H809 0.985 . S
H806 N801 0.984 . S
H807 N801 0.985 . S
H808 N805 0.984 . S
H809 N805 0.985 . S
H810 N804 0.984 . S
H811 N804 0.984 1_556 S
H812 N800 0.984 . S
H813 N800 0.985 . S
C814 C815 1.363 . S
C814 C820 1.379 . S
C814 N822 1.356 . S
C815 C814 1.363 . S
C815 C821 1.363 . S
C816 C817 1.363 . S
C816 C821 1.379 . S
C816 N823 1.356 . S
C817 C816 1.363 . S
C817 C820 1.363 . S
N818 C820 1.356 . S
N818 H830 0.984 . S
N818 H831 0.985 . S
N819 C821 1.356 . S
N819 H824 0.984 . S
N819 H825 0.985 . S
C820 C814 1.379 . S
C820 C817 1.363 . S
C820 N818 1.356 . S
C821 C815 1.363 . S
C821 C816 1.379 . S
C821 N819 1.356 . S
N822 C814 1.356 . S
N822 H828 0.984 . S
N822 H829 0.984 . S
N823 C816 1.356 . S
N823 H826 0.984 . S
N823 H827 0.985 . S
H824 N819 0.984 . S
H825 N819 0.985 . S
H826 N823 0.984 . S
H827 N823 0.985 . S
H828 N822 0.984 . S
H829 N822 0.984 . S
H830 N818 0.984 . S
H831 N818 0.985 . S
C832 C833 1.363 . S
C832 C838 1.379 . S
C832 N840 1.356 1_545 S
C833 C832 1.363 . S
C833 C839 1.363 . S
C834 C835 1.363 . S
C834 C839 1.379 . S
C834 N841 1.356 . S
C835 C834 1.363 . S
C835 C838 1.363 . S
N836 C838 1.356 . S
N836 H848 0.984 . S
N836 H849 0.985 . S
N837 C839 1.356 . S
N837 H842 0.984 . S
N837 H843 0.985 . S
C838 C832 1.379 . S
C838 C835 1.363 . S
C838 N836 1.356 . S
C839 C833 1.363 . S
C839 C834 1.379 . S
C839 N837 1.356 . S
N840 C832 1.356 1_565 S
N840 H846 0.984 . S
N840 H847 0.984 . S
N841 C834 1.356 . S
N841 H844 0.984 . S
N841 H845 0.985 . S
H842 N837 0.984 . S
H843 N837 0.985 . S
H844 N841 0.984 . S
H845 N841 0.985 . S
H846 N840 0.984 . S
H847 N840 0.984 . S
H848 N836 0.984 . S
H849 N836 0.985 . S
C850 C851 1.363 . S
C850 C856 1.379 . S
C850 N858 1.356 . S
C851 C850 1.363 . S
C851 C857 1.363 . S
C852 C853 1.363 . S
C852 C857 1.379 . S
C852 N859 1.356 . S
C853 C852 1.363 . S
C853 C856 1.363 . S
N854 C856 1.356 . S
N854 H866 0.984 . S
N854 H867 0.985 . S
N855 C857 1.356 . S
N855 H860 0.984 . S
N855 H861 0.985 . S
C856 C850 1.379 . S
C856 C853 1.363 . S
C856 N854 1.356 . S
C857 C851 1.363 . S
C857 C852 1.379 . S
C857 N855 1.356 . S
N858 C850 1.356 . S
N858 H864 0.984 . S
N858 H865 0.984 . S
N859 C852 1.356 . S
N859 H862 0.984 . S
N859 H863 0.985 . S
H860 N855 0.984 . S
H861 N855 0.985 . S
H862 N859 0.984 . S
H863 N859 0.985 . S
H864 N858 0.984 . S
H865 N858 0.984 . S
H866 N854 0.984 . S
H867 N854 0.985 . S
C868 C869 1.363 . S
C868 C874 1.379 1_565 S
C868 N876 1.356 . S
C869 C868 1.363 . S
C869 C875 1.363 1_565 S
C870 C871 1.363 . S
C870 C875 1.379 . S
C870 N877 1.356 . S
C871 C870 1.363 . S
C871 C874 1.363 . S
N872 C874 1.356 . S
N872 H884 0.984 . S
N872 H885 0.985 . S
N873 C875 1.356 . S
N873 H878 0.984 1_545 S
N873 H879 0.985 . S
C874 C868 1.379 1_545 S
C874 C871 1.363 . S
C874 N872 1.356 . S
C875 C869 1.363 1_545 S
C875 C870 1.379 . S
C875 N873 1.356 . S
N876 C868 1.356 . S
N876 H882 0.984 . S
N876 H883 0.984 . S
N877 C870 1.356 . S
N877 H880 0.984 . S
N877 H881 0.985 . S
H878 N873 0.984 1_565 S
H879 N873 0.985 . S
H880 N877 0.984 . S
H881 N877 0.985 . S
H882 N876 0.984 . S
H883 N876 0.984 . S
H884 N872 0.984 . S
H885 N872 0.985 . S
C886 C887 1.363 . S
C886 C892 1.379 . S
C886 N894 1.356 . S
C887 C886 1.363 . S
C887 C893 1.363 . S
C888 C889 1.363 . S
C888 C893 1.379 . S
C888 N895 1.356 . S
C889 C888 1.363 . S
C889 C892 1.363 . S
N890 C892 1.356 . S
N890 H902 0.984 . S
N890 H903 0.985 . S
N891 C893 1.356 . S
N891 H896 0.984 . S
N891 H897 0.985 . S
C892 C886 1.379 . S
C892 C889 1.363 . S
C892 N890 1.356 . S
C893 C887 1.363 . S
C893 C888 1.379 . S
C893 N891 1.356 . S
N894 C886 1.356 . S
N894 H900 0.984 . S
N894 H901 0.984 . S
N895 C888 1.356 . S
N895 H898 0.984 . S
N895 H899 0.985 . S
H896 N891 0.984 . S
H897 N891 0.985 . S
H898 N895 0.984 . S
H899 N895 0.985 . S
H900 N894 0.984 . S
H901 N894 0.984 . S
H902 N890 0.984 . S
H903 N890 0.985 . S
C904 C905 1.363 . S
C904 C910 1.379 . S
C904 N912 1.356 . S
C905 C904 1.363 . S
C905 C911 1.363 . S
C906 C907 1.363 . S
C906 C911 1.379 . S
C906 N913 1.356 . S
C907 C906 1.363 . S
C907 C910 1.363 . S
N908 C910 1.356 . S
N908 H920 0.984 . S
N908 H921 0.985 . S
N909 C911 1.356 . S
N909 H914 0.984 . S
N909 H915 0.985 . S
C910 C904 1.379 . S
C910 C907 1.363 . S
C910 N908 1.356 . S
C911 C905 1.363 . S
C911 C906 1.379 . S
C911 N909 1.356 . S
N912 C904 1.356 . S
N912 H918 0.984 . S
N912 H919 0.984 . S
N913 C906 1.356 . S
N913 H916 0.984 . S
N913 H917 0.985 . S
H914 N909 0.984 . S
H915 N909 0.985 . S
H916 N913 0.984 . S
H917 N913 0.985 . S
H918 N912 0.984 . S
H919 N912 0.984 . S
H920 N908 0.984 . S
H921 N908 0.985 . S
C922 C923 1.363 . S
C922 C928 1.379 . S
C922 N930 1.356 . S
C923 C922 1.363 . S
C923 C929 1.363 . S
C924 C925 1.363 . S
C924 C929 1.379 . S
C924 N931 1.356 . S
C925 C924 1.363 . S
C925 C928 1.363 . S
N926 C928 1.356 . S
N926 H938 0.962 1_545 S
N926 H939 0.985 . S
N927 C929 1.356 . S
N927 H932 0.984 . S
N927 H933 0.985 . S
C928 C922 1.379 . S
C928 C925 1.363 . S
C928 N926 1.356 . S
C929 C923 1.363 . S
C929 C924 1.379 . S
C929 N927 1.356 . S
N930 C922 1.356 . S
N930 H936 0.984 . S
N930 H937 0.984 . S
N931 C924 1.356 . S
N931 H934 0.984 . S
N931 H935 0.985 . S
H932 N927 0.984 . S
H933 N927 0.985 . S
H934 N931 0.984 . S
H935 N931 0.985 . S
H936 N930 0.984 . S
H937 N930 0.984 . S
H938 N926 0.962 1_565 S
H939 N926 0.985 . S
C940 C941 1.363 . S
C940 C946 1.379 . S
C940 N948 1.356 . S
C941 C940 1.363 . S
C941 C947 1.363 . S
C942 C943 1.363 . S
C942 C947 1.379 . S
C942 N949 1.356 . S
C943 C942 1.363 . S
C943 C946 1.363 . S
N944 C946 1.356 . S
N944 H956 0.984 . S
N944 H957 0.985 . S
N945 C947 1.356 . S
N945 H950 0.984 . S
N945 H951 0.985 . S
C946 C940 1.379 . S
C946 C943 1.363 . S
C946 N944 1.356 . S
C947 C941 1.363 . S
C947 C942 1.379 . S
C947 N945 1.356 . S
N948 C940 1.356 . S
N948 H954 0.984 . S
N948 H955 0.984 . S
N949 C942 1.356 . S
N949 H952 0.984 . S
N949 H953 0.985 . S
H950 N945 0.984 . S
H951 N945 0.985 . S
H952 N949 0.984 . S
H953 N949 0.985 . S
H954 N948 0.984 . S
H955 N948 0.984 . S
H956 N944 0.984 . S
H957 N944 0.985 . S
C958 C959 1.363 . S
C958 C964 1.379 . S
C958 N966 1.356 . S
C959 C958 1.363 . S
C959 C965 1.363 . S
C960 C961 1.363 . S
C960 C965 1.379 . S
C960 N967 1.356 . S
C961 C960 1.363 . S
C961 C964 1.363 . S
N962 C964 1.356 . S
N962 H974 0.984 . S
N962 H975 0.985 . S
N963 C965 1.356 . S
N963 H968 0.984 . S
N963 H969 0.985 . S
C964 C958 1.379 . S
C964 C961 1.363 . S
C964 N962 1.356 . S
C965 C959 1.363 . S
C965 C960 1.379 . S
C965 N963 1.356 . S
N966 C958 1.356 . S
N966 H972 0.984 . S
N966 H973 0.984 . S
N967 C960 1.356 . S
N967 H970 0.984 . S
N967 H971 0.985 . S
H968 N963 0.984 . S
H969 N963 0.985 . S
H970 N967 0.984 . S
H971 N967 0.985 . S
H972 N966 0.984 . S
H973 N966 0.984 . S
H974 N962 0.984 . S
H975 N962 0.985 . S
C976 C977 1.363 . S
C976 C982 1.379 . S
C976 N984 1.356 . S
C977 C976 1.363 . S
C977 C983 1.363 . S
C978 C979 1.363 . S
C978 C983 1.379 . S
C978 N985 1.356 . S
C979 C978 1.363 . S
C979 C982 1.363 . S
N980 C982 1.356 . S
N980 H992 0.984 . S
N980 H993 0.985 . S
N981 C983 1.356 . S
N981 H986 0.984 . S
N981 H987 0.985 . S
C982 C976 1.379 . S
C982 C979 1.363 . S
C982 N980 1.356 . S
C983 C977 1.363 . S
C983 C978 1.379 . S
C983 N981 1.356 . S
N984 C976 1.356 . S
N984 H990 0.984 . S
N984 H991 0.984 . S
N985 C978 1.356 . S
N985 H988 0.984 . S
N985 H989 0.985 . S
H986 N981 0.984 . S
H987 N981 0.985 . S
H988 N985 0.984 . S
H989 N985 0.985 . S
H990 N984 0.984 . S
H991 N984 0.984 . S
H992 N980 0.984 . S
H993 N980 0.985 . S
C994 C995 1.363 . S
C994 C1000 1.379 . S
C994 N1002 1.356 . S
C995 C994 1.363 . S
C995 C1001 1.363 . S
C996 C997 1.363 . S
C996 C1001 1.379 . S
C996 N1003 1.356 . S
C997 C996 1.363 . S
C997 C1000 1.363 . S
N998 C1000 1.356 . S
N998 H1010 0.984 . S
N998 H1011 0.985 . S
N999 C1001 1.356 . S
N999 H1004 0.984 . S
N999 H1005 0.985 . S
C1000 C994 1.379 . S
C1000 C997 1.363 . S
C1000 N998 1.356 . S
C1001 C995 1.363 . S
C1001 C996 1.379 . S
C1001 N999 1.356 . S
N1002 C994 1.356 . S
N1002 H1008 0.984 . S
N1002 H1009 0.984 . S
N1003 C996 1.356 . S
N1003 H1006 0.984 . S
N1003 H1007 0.985 . S
H1004 N999 0.984 . S
H1005 N999 0.985 . S
H1006 N1003 0.984 . S
H1007 N1003 0.985 . S
H1008 N1002 0.984 . S
H1009 N1002 0.984 . S
H1010 N998 0.984 . S
H1011 N998 0.985 . S
C1012 C1013 1.363 . S
C1012 C1018 1.379 . S
C1012 N1020 1.356 . S
C1013 C1012 1.363 . S
C1013 C1019 1.363 . S
C1014 C1015 1.363 . S
C1014 C1019 1.379 . S
C1014 N1021 1.356 . S
C1015 C1014 1.363 . S
C1015 C1018 1.363 . S
N1016 C1018 1.356 . S
N1016 H1028 0.984 . S
N1016 H1029 0.985 . S
N1017 C1019 1.356 . S
N1017 H1022 0.984 . S
N1017 H1023 0.985 . S
C1018 C1012 1.379 . S
C1018 C1015 1.363 . S
C1018 N1016 1.356 . S
C1019 C1013 1.363 . S
C1019 C1014 1.379 . S
C1019 N1017 1.356 . S
N1020 C1012 1.356 . S
N1020 H1026 0.984 . S
N1020 H1027 0.984 . S
N1021 C1014 1.356 . S
N1021 H1024 0.984 . S
N1021 H1025 0.985 . S
H1022 N1017 0.984 . S
H1023 N1017 0.985 . S
H1024 N1021 0.984 . S
H1025 N1021 0.985 . S
H1026 N1020 0.984 . S
H1027 N1020 0.984 . S
H1028 N1016 0.984 . S
H1029 N1016 0.985 . S
C1030 C1031 1.363 . S
C1030 C1036 1.379 . S
C1030 N1038 1.356 . S
C1031 C1030 1.363 . S
C1031 C1037 1.363 . S
C1032 C1033 1.363 . S
C1032 C1037 1.379 1_455 S
C1032 N1039 1.356 . S
C1033 C1032 1.363 . S
C1033 C1036 1.363 1_455 S
N1034 C1036 1.356 . S
N1034 H1046 0.984 . S
N1034 H1047 0.985 1_655 S
N1035 C1037 1.356 . S
N1035 H1040 0.984 . S
N1035 H1041 0.985 . S
C1036 C1030 1.379 . S
C1036 C1033 1.363 1_655 S
C1036 N1034 1.356 . S
C1037 C1031 1.363 . S
C1037 C1032 1.379 1_655 S
C1037 N1035 1.356 . S
N1038 C1030 1.356 . S
N1038 H1044 0.984 . S
N1038 H1045 0.984 . S
N1039 C1032 1.356 . S
N1039 H1042 0.984 . S
N1039 H1043 0.985 . S
H1040 N1035 0.984 . S
H1041 N1035 0.985 . S
H1042 N1039 0.984 . S
H1043 N1039 0.985 . S
H1044 N1038 0.984 . S
H1045 N1038 0.984 . S
H1046 N1034 0.984 . S
H1047 N1034 0.985 1_455 S
C1048 C1049 1.363 . S
C1048 C1054 1.379 . S
C1048 N1056 1.356 . S
C1049 C1048 1.363 . S
C1049 C1055 1.363 . S
C1050 C1051 1.363 . S
C1050 C1055 1.379 . S
C1050 N1057 1.356 . S
C1051 C1050 1.363 . S
C1051 C1054 1.363 . S
N1052 C1054 1.356 . S
N1052 H1064 0.984 . S
N1052 H1065 0.985 . S
N1053 C1055 1.356 . S
N1053 H1058 0.984 . S
N1053 H1059 0.985 . S
C1054 C1048 1.379 . S
C1054 C1051 1.363 . S
C1054 N1052 1.356 . S
C1055 C1049 1.363 . S
C1055 C1050 1.379 . S
C1055 N1053 1.356 . S
N1056 C1048 1.356 . S
N1056 H1062 0.984 . S
N1056 H1063 0.984 . S
N1057 C1050 1.356 . S
N1057 H1060 0.984 . S
N1057 H1061 0.985 . S
H1058 N1053 0.984 . S
H1059 N1053 0.985 . S
H1060 N1057 0.984 . S
H1061 N1057 0.985 . S
H1062 N1056 0.984 . S
H1063 N1056 0.984 . S
H1064 N1052 0.984 . S
H1065 N1052 0.985 . S
C1066 C1067 1.363 . S
C1066 C1072 1.379 . S
C1066 N1074 1.356 . S
C1067 C1066 1.363 . S
C1067 C1073 1.363 . S
C1068 C1069 1.363 . S
C1068 C1073 1.379 . S
C1068 N1075 1.356 . S
C1069 C1068 1.363 . S
C1069 C1072 1.363 . S
N1070 C1072 1.356 . S
N1070 H1082 0.984 . S
N1070 H1083 0.985 . S
N1071 C1073 1.356 1_554 S
N1071 H1076 0.984 . S
N1071 H1077 0.985 . S
C1072 C1066 1.379 . S
C1072 C1069 1.363 . S
C1072 N1070 1.356 . S
C1073 C1067 1.363 . S
C1073 C1068 1.379 . S
C1073 N1071 1.356 1_556 S
N1074 C1066 1.356 . S
N1074 H1080 0.984 . S
N1074 H1081 0.984 . S
N1075 C1068 1.356 . S
N1075 H1078 0.984 . S
N1075 H1079 0.985 . S
H1076 N1071 0.984 . S
H1077 N1071 0.985 . S
H1078 N1075 0.984 . S
H1079 N1075 0.985 . S
H1080 N1074 0.984 . S
H1081 N1074 0.984 . S
H1082 N1070 0.984 . S
H1083 N1070 0.985 . S
C1084 C1085 1.363 . S
C1084 C1090 1.379 . S
C1084 N1092 1.356 . S
C1085 C1084 1.363 . S
C1085 C1091 1.363 . S
C1086 C1087 1.363 . S
C1086 C1091 1.379 . S
C1086 N1093 1.356 . S
C1087 C1086 1.363 . S
C1087 C1090 1.363 . S
N1088 C1090 1.356 . S
N1088 H1100 0.984 . S
N1088 H1101 0.985 . S
N1089 C1091 1.356 . S
N1089 H1094 0.984 . S
N1089 H1095 0.985 . S
C1090 C1084 1.379 . S
C1090 C1087 1.363 . S
C1090 N1088 1.356 . S
C1091 C1085 1.363 . S
C1091 C1086 1.379 . S
C1091 N1089 1.356 . S
N1092 C1084 1.356 . S
N1092 H1098 0.984 . S
N1092 H1099 0.984 . S
N1093 C1086 1.356 . S
N1093 H1096 0.984 . S
N1093 H1097 0.985 . S
H1094 N1089 0.984 . S
H1095 N1089 0.985 . S
H1096 N1093 0.984 . S
H1097 N1093 0.985 . S
H1098 N1092 0.984 . S
H1099 N1092 0.984 . S
H1100 N1088 0.984 . S
H1101 N1088 0.985 . S
C1102 C1103 1.363 1_556 S
C1102 C1108 1.379 . S
C1102 N1110 1.356 1_556 S
C1103 C1102 1.363 1_554 S
C1103 C1109 1.363 . S
C1104 C1105 1.363 . S
C1104 C1109 1.379 1_556 S
C1104 N1111 1.356 . S
C1105 C1104 1.363 . S
C1105 C1108 1.363 . S
N1106 C1108 1.356 . S
N1106 H1118 0.984 . S
N1106 H1119 0.985 . S
N1107 C1109 1.356 . S
N1107 H1112 0.984 . S
N1107 H1113 0.985 . S
C1108 C1102 1.379 . S
C1108 C1105 1.363 . S
C1108 N1106 1.356 . S
C1109 C1103 1.363 . S
C1109 C1104 1.379 1_554 S
C1109 N1107 1.356 . S
N1110 C1102 1.356 1_554 S
N1110 H1116 0.984 . S
N1110 H1117 0.984 . S
N1111 C1104 1.356 . S
N1111 H1114 0.984 . S
N1111 H1115 0.985 . S
H1112 N1107 0.984 . S
H1113 N1107 0.985 . S
H1114 N1111 0.984 . S
H1115 N1111 0.985 . S
H1116 N1110 0.984 . S
H1117 N1110 0.984 . S
H1118 N1106 0.984 . S
H1119 N1106 0.985 . S
C1120 C1121 1.363 . S
C1120 C1126 1.379 . S
C1120 N1128 1.356 . S
C1121 C1120 1.363 . S
C1121 C1127 1.363 . S
C1122 C1123 1.363 . S
C1122 C1127 1.379 . S
C1122 N1129 1.356 . S
C1123 C1122 1.363 . S
C1123 C1126 1.363 . S
N1124 C1126 1.356 . S
N1124 H1136 0.984 . S
N1124 H1137 0.985 . S
N1125 C1127 1.356 . S
N1125 H1130 0.984 . S
N1125 H1131 0.985 . S
C1126 C1120 1.379 . S
C1126 C1123 1.363 . S
C1126 N1124 1.356 . S
C1127 C1121 1.363 . S
C1127 C1122 1.379 . S
C1127 N1125 1.356 . S
N1128 C1120 1.356 . S
N1128 H1134 0.984 . S
N1128 H1135 0.984 . S
N1129 C1122 1.356 . S
N1129 H1132 0.984 . S
N1129 H1133 0.985 . S
H1130 N1125 0.984 . S
H1131 N1125 0.985 . S
H1132 N1129 0.984 . S
H1133 N1129 0.985 . S
H1134 N1128 0.984 . S
H1135 N1128 0.984 . S
H1136 N1124 0.984 . S
H1137 N1124 0.985 . S
C1138 C1139 1.363 . S
C1138 C1144 1.379 . S
C1138 N1146 1.356 1_554 S
C1139 C1138 1.363 . S
C1139 C1145 1.363 . S
C1140 C1141 1.363 . S
C1140 C1145 1.379 . S
C1140 N1147 1.356 . S
C1141 C1140 1.363 . S
C1141 C1144 1.363 . S
N1142 C1144 1.356 . S
N1142 H1154 0.984 . S
N1142 H1155 0.985 . S
N1143 C1145 1.356 . S
N1143 H1148 0.984 . S
N1143 H1149 0.985 . S
C1144 C1138 1.379 . S
C1144 C1141 1.363 . S
C1144 N1142 1.356 . S
C1145 C1139 1.363 . S
C1145 C1140 1.379 . S
C1145 N1143 1.356 . S
N1146 C1138 1.356 1_556 S
N1146 H1152 0.984 . S
N1146 H1153 0.984 . S
N1147 C1140 1.356 . S
N1147 H1150 0.984 . S
N1147 H1151 0.985 . S
H1148 N1143 0.984 . S
H1149 N1143 0.985 . S
H1150 N1147 0.984 . S
H1151 N1147 0.985 . S
H1152 N1146 0.984 . S
H1153 N1146 0.984 . S
H1154 N1142 0.984 . S
H1155 N1142 0.985 . S
C1156 C1157 1.363 . S
C1156 C1162 1.379 . S
C1156 N1164 1.356 . S
C1157 C1156 1.363 . S
C1157 C1163 1.363 . S
C1158 C1159 1.363 . S
C1158 C1163 1.379 . S
C1158 N1165 1.356 . S
C1159 C1158 1.363 . S
C1159 C1162 1.363 . S
N1160 C1162 1.356 . S
N1160 H1172 0.984 . S
N1160 H1173 0.985 . S
N1161 C1163 1.356 . S
N1161 H1166 0.984 . S
N1161 H1167 0.985 . S
C1162 C1156 1.379 . S
C1162 C1159 1.363 . S
C1162 N1160 1.356 . S
C1163 C1157 1.363 . S
C1163 C1158 1.379 . S
C1163 N1161 1.356 . S
N1164 C1156 1.356 . S
N1164 H1170 0.984 . S
N1164 H1171 0.984 . S
N1165 C1158 1.356 . S
N1165 H1168 0.984 . S
N1165 H1169 0.985 . S
H1166 N1161 0.984 . S
H1167 N1161 0.985 . S
H1168 N1165 0.984 . S
H1169 N1165 0.985 . S
H1170 N1164 0.984 . S
H1171 N1164 0.984 . S
H1172 N1160 0.984 . S
H1173 N1160 0.985 . S
C1174 C1175 1.363 . S
C1174 C1180 1.379 . S
C1174 N1182 1.356 1_554 S
C1175 C1174 1.363 . S
C1175 C1181 1.363 . S
C1176 C1177 1.363 . S
C1176 C1181 1.379 . S
C1176 N1183 1.356 . S
C1177 C1176 1.363 . S
C1177 C1180 1.363 . S
N1178 C1180 1.356 . S
N1178 H1190 0.984 . S
N1178 H1191 0.985 . S
N1179 C1181 1.356 . S
N1179 H1184 0.984 1_554 S
N1179 H1185 0.985 . S
C1180 C1174 1.379 . S
C1180 C1177 1.363 . S
C1180 N1178 1.356 . S
C1181 C1175 1.363 . S
C1181 C1176 1.379 . S
C1181 N1179 1.356 . S
N1182 C1174 1.356 1_556 S
N1182 H1188 0.984 . S
N1182 H1189 0.984 . S
N1183 C1176 1.356 . S
N1183 H1186 0.984 . S
N1183 H1187 0.985 . S
H1184 N1179 0.984 1_556 S
H1185 N1179 0.985 . S
H1186 N1183 0.984 . S
H1187 N1183 0.985 . S
H1188 N1182 0.984 . S
H1189 N1182 0.984 . S
H1190 N1178 0.984 . S
H1191 N1178 0.985 . S
C1192 C1193 1.363 . S
C1192 C1198 1.379 . S
C1192 N1200 1.356 . S
C1193 C1192 1.363 . S
C1193 C1199 1.363 . S
C1194 C1195 1.363 . S
C1194 C1199 1.379 . S
C1194 N1201 1.356 . S
C1195 C1194 1.363 . S
C1195 C1198 1.363 . S
N1196 C1198 1.356 . S
N1196 H1208 0.984 . S
N1196 H1209 0.985 . S
N1197 C1199 1.356 . S
N1197 H1202 0.984 . S
N1197 H1203 0.985 . S
C1198 C1192 1.379 . S
C1198 C1195 1.363 . S
C1198 N1196 1.356 . S
C1199 C1193 1.363 . S
C1199 C1194 1.379 . S
C1199 N1197 1.356 . S
N1200 C1192 1.356 . S
N1200 H1206 0.984 . S
N1200 H1207 0.984 . S
N1201 C1194 1.356 . S
N1201 H1204 0.984 . S
N1201 H1205 0.985 . S
H1202 N1197 0.984 . S
H1203 N1197 0.985 . S
H1204 N1201 0.984 . S
H1205 N1201 0.985 . S
H1206 N1200 0.984 . S
H1207 N1200 0.984 . S
H1208 N1196 0.984 . S
H1209 N1196 0.985 . S
C1210 C1211 1.363 . S
C1210 C1216 1.379 . S
C1210 N1218 1.356 . S
C1211 C1210 1.363 . S
C1211 C1217 1.363 . S
C1212 C1213 1.363 . S
C1212 C1217 1.379 . S
C1212 N1219 1.356 . S
C1213 C1212 1.363 . S
C1213 C1216 1.363 . S
N1214 C1216 1.356 . S
N1214 H1226 0.984 . S
N1214 H1227 0.985 . S
N1215 C1217 1.356 . S
N1215 H1220 0.984 . S
N1215 H1221 0.985 . S
C1216 C1210 1.379 . S
C1216 C1213 1.363 . S
C1216 N1214 1.356 . S
C1217 C1211 1.363 . S
C1217 C1212 1.379 . S
C1217 N1215 1.356 . S
N1218 C1210 1.356 . S
N1218 H1224 0.984 . S
N1218 H1225 0.984 . S
N1219 C1212 1.356 . S
N1219 H1222 0.984 . S
N1219 H1223 0.985 . S
H1220 N1215 0.984 . S
H1221 N1215 0.985 . S
H1222 N1219 0.984 . S
H1223 N1219 0.985 . S
H1224 N1218 0.984 . S
H1225 N1218 0.984 . S
H1226 N1214 0.984 . S
H1227 N1214 0.985 . S
C1228 C1229 1.363 . S
C1228 C1234 1.379 . S
C1228 N1236 1.356 . S
C1229 C1228 1.363 . S
C1229 C1235 1.363 . S
C1230 C1231 1.363 . S
C1230 C1235 1.379 . S
C1230 N1237 1.356 . S
C1231 C1230 1.363 . S
C1231 C1234 1.363 . S
N1232 C1234 1.356 . S
N1232 H1244 0.984 . S
N1232 H1245 0.985 . S
N1233 C1235 1.356 . S
N1233 H1238 0.984 . S
N1233 H1239 0.985 . S
C1234 C1228 1.379 . S
C1234 C1231 1.363 . S
C1234 N1232 1.356 . S
C1235 C1229 1.363 . S
C1235 C1230 1.379 . S
C1235 N1233 1.356 . S
N1236 C1228 1.356 . S
N1236 H1242 0.984 . S
N1236 H1243 0.984 . S
N1237 C1230 1.356 . S
N1237 H1240 0.984 . S
N1237 H1241 0.985 . S
H1238 N1233 0.984 . S
H1239 N1233 0.985 . S
H1240 N1237 0.984 . S
H1241 N1237 0.985 . S
H1242 N1236 0.984 . S
H1243 N1236 0.984 . S
H1244 N1232 0.984 . S
H1245 N1232 0.985 . S
C1246 C1247 1.363 . S
C1246 C1252 1.379 . S
C1246 N1254 1.356 . S
C1247 C1246 1.363 . S
C1247 C1253 1.363 . S
C1248 C1249 1.363 . S
C1248 C1253 1.379 . S
C1248 N1255 1.356 . S
C1249 C1248 1.363 . S
C1249 C1252 1.363 . S
N1250 C1252 1.356 . S
N1250 H1262 0.984 . S
N1250 H1263 0.985 . S
N1251 C1253 1.356 . S
N1251 H1256 0.984 . S
N1251 H1257 0.985 . S
C1252 C1246 1.379 . S
C1252 C1249 1.363 . S
C1252 N1250 1.356 . S
C1253 C1247 1.363 . S
C1253 C1248 1.379 . S
C1253 N1251 1.356 . S
N1254 C1246 1.356 . S
N1254 H1260 0.984 . S
N1254 H1261 0.984 . S
N1255 C1248 1.356 . S
N1255 H1258 0.984 . S
N1255 H1259 0.985 . S
H1256 N1251 0.984 . S
H1257 N1251 0.985 . S
H1258 N1255 0.984 . S
H1259 N1255 0.985 . S
H1260 N1254 0.984 . S
H1261 N1254 0.984 . S
H1262 N1250 0.984 . S
H1263 N1250 0.985 . S
C1264 C1265 1.363 . S
C1264 C1270 1.379 . S
C1264 N1272 1.356 . S
C1265 C1264 1.363 . S
C1265 C1271 1.363 . S
C1266 C1267 1.363 . S
C1266 C1271 1.379 . S
C1266 N1273 1.352 1_556 S
C1267 C1266 1.363 . S
C1267 C1270 1.363 . S
N1268 C1270 1.356 . S
N1268 H1280 0.984 . S
N1268 H1281 0.985 . S
N1269 C1271 1.356 . S
N1269 H1274 0.984 . S
N1269 H1275 0.985 1_556 S
C1270 C1264 1.379 . S
C1270 C1267 1.363 . S
C1270 N1268 1.356 . S
C1271 C1265 1.363 . S
C1271 C1266 1.379 . S
C1271 N1269 1.356 . S
N1272 C1264 1.356 . S
N1272 H1278 0.984 . S
N1272 H1279 0.984 . S
N1273 C1266 1.352 1_554 S
N1273 H1276 0.982 1_554 S
N1273 H1277 0.992 . S
H1274 N1269 0.984 . S
H1275 N1269 0.985 1_554 S
H1276 N1273 0.982 1_556 S
H1277 N1273 0.992 . S
H1278 N1272 0.984 . S
H1279 N1272 0.984 . S
H1280 N1268 0.984 . S
H1281 N1268 0.985 . S
C1282 C1283 1.363 . S
C1282 C1288 1.379 . S
C1282 N1290 1.356 . S
C1283 C1282 1.363 . S
C1283 C1289 1.363 . S
C1284 C1285 1.363 . S
C1284 C1289 1.379 . S
C1284 N1291 1.356 . S
C1285 C1284 1.363 . S
C1285 C1288 1.363 . S
N1286 C1288 1.356 . S
N1286 H1298 0.984 . S
N1286 H1299 0.985 . S
N1287 C1289 1.356 . S
N1287 H1292 0.984 . S
N1287 H1293 0.985 . S
C1288 C1282 1.379 . S
C1288 C1285 1.363 . S
C1288 N1286 1.356 . S
C1289 C1283 1.363 . S
C1289 C1284 1.379 . S
C1289 N1287 1.356 . S
N1290 C1282 1.356 . S
N1290 H1296 0.984 . S
N1290 H1297 0.984 . S
N1291 C1284 1.356 . S
N1291 H1294 0.984 . S
N1291 H1295 0.985 . S
H1292 N1287 0.984 . S
H1293 N1287 0.985 . S
H1294 N1291 0.984 . S
H1295 N1291 0.985 . S
H1296 N1290 0.984 . S
H1297 N1290 0.984 . S
H1298 N1286 0.984 . S
H1299 N1286 0.985 . S
C1300 C1301 1.363 . S
C1300 C1306 1.379 . S
C1300 N1308 1.356 . S
C1301 C1300 1.363 . S
C1301 C1307 1.363 . S
C1302 C1303 1.363 . S
C1302 C1307 1.379 . S
C1302 N1309 1.356 . S
C1303 C1302 1.363 . S
C1303 C1306 1.363 . S
N1304 C1306 1.356 . S
N1304 H1316 0.984 . S
N1304 H1317 0.985 . S
N1305 C1307 1.356 . S
N1305 H1310 0.984 . S
N1305 H1311 0.985 . S
C1306 C1300 1.379 . S
C1306 C1303 1.363 . S
C1306 N1304 1.356 . S
C1307 C1301 1.363 . S
C1307 C1302 1.379 . S
C1307 N1305 1.356 . S
N1308 C1300 1.356 . S
N1308 H1314 0.984 . S
N1308 H1315 0.984 . S
N1309 C1302 1.356 . S
N1309 H1312 0.984 . S
N1309 H1313 0.994 . S
H1310 N1305 0.984 . S
H1311 N1305 0.985 . S
H1312 N1309 0.984 . S
H1313 N1309 0.994 . S
H1314 N1308 0.984 . S
H1315 N1308 0.984 . S
H1316 N1304 0.984 . S
H1317 N1304 0.985 . S
C1318 C1319 1.363 . S
C1318 C1324 1.379 . S
C1318 N1326 1.356 . S
C1319 C1318 1.363 . S
C1319 C1325 1.363 . S
C1320 C1321 1.363 . S
C1320 C1325 1.379 . S
C1320 N1327 1.356 . S
C1321 C1320 1.363 . S
C1321 C1324 1.363 . S
N1322 C1324 1.356 . S
N1322 H1334 0.984 . S
N1322 H1335 0.985 . S
N1323 C1325 1.356 . S
N1323 H1328 0.984 . S
N1323 H1329 0.985 . S
C1324 C1318 1.379 . S
C1324 C1321 1.363 . S
C1324 N1322 1.356 . S
C1325 C1319 1.363 . S
C1325 C1320 1.379 . S
C1325 N1323 1.356 . S
N1326 C1318 1.356 . S
N1326 H1332 0.984 . S
N1326 H1333 0.984 . S
N1327 C1320 1.356 . S
N1327 H1330 0.984 . S
N1327 H1331 0.985 . S
H1328 N1323 0.984 . S
H1329 N1323 0.985 . S
H1330 N1327 0.984 . S
H1331 N1327 0.985 . S
H1332 N1326 0.984 . S
H1333 N1326 0.984 . S
H1334 N1322 0.984 . S
H1335 N1322 0.985 . S
C475 C312 1.963 . S
C473 C101 1.968 . S
C493 C327 1.558 . S
C491 C125 1.559 . S
C509 C139 2.128 . S
C511 C340 2.103 . S
C529 C354 1.659 . S
C527 C82 1.688 . S
C547 C366 1.727 . S
C545 C196 1.912 . S
C565 C380 1.584 . S
C563 C234 1.650 . S
C581 C220 1.263 . S
C583 C394 1.309 . S
C601 C409 1.578 . S
C599 C173 1.610 . S
C617 C211 1.513 . S
C619 C425 1.422 . S
C637 C438 1.312 . S
C635 C182 1.123 . S
C653 C201 1.444 . S
C655 C423 1.565 . S
C673 C436 1.774 . S
C671 C239 1.791 . S
C689 C135 1.980 . S
C691 C452 1.961 . S
C707 C87 1.765 . S
C709 C451 1.791 . S
C725 C106 1.325 . S
C727 C450 1.468 . S
C743 C116 1.391 . S
C745 C453 1.416 . S
C761 C59 2.055 . S
C763 C355 2.047 1_565 S
C779 C268 1.956 . S
C781 C353 1.927 . S
C799 C313 1.313 1_545 S
C797 C291 1.407 . S
C817 C324 1.659 . S
C815 C163 1.570 . S
C833 C78 1.818 1_545 S
C835 C369 1.820 . S
C853 C410 1.630 . S
C851 C215 1.638 . S
C871 C367 2.017 . S
C869 C177 2.014 . S
C889 C395 1.646 . S
C887 C230 1.678 . S
C907 C396 1.963 . S
C905 C272 1.968 . S
C923 C296 1.559 . S
C925 C411 1.558 . S
C941 C158 2.128 . S
C943 C368 2.103 . S
C961 C382 1.659 . S
C959 C253 1.688 . S
C977 C63 1.912 . S
C979 C338 1.728 . S
C997 C352 1.584 . S
C995 C6 1.650 . S
C1015 C310 1.309 . S
C1013 C30 1.263 . S
C1033 C325 1.578 . S
C1031 C40 1.610 . S
C1049 C21 1.513 . S
C1051 C439 1.422 . S
C1067 C49 1.123 . S
C1069 C424 1.312 . S
C1085 C68 1.444 . S
C1087 C437 1.565 . S
C1103 C11 1.791 . S
C1105 C422 1.774 . S
C1123 C466 1.961 . S
C1121 C154 1.980 . S
C1141 C465 1.791 . S
C1139 C258 1.765 1_554 S
C1159 C464 1.468 . S
C1157 C277 1.325 . S
C1175 C287 1.391 1_554 S
C1177 C467 1.416 . S
C1193 C192 2.054 . S
C1195 C383 2.047 . S
C1213 C381 1.927 . S
C1211 C97 1.956 . S
C1231 C397 1.313 . S
C1229 C120 1.407 . S
C1249 C408 1.659 . S
C1247 C144 1.570 . S
C1265 C249 1.818 . S
C1267 C341 1.820 . S
C1285 C326 1.630 . S
C1283 C25 1.638 . S
C1301 C44 2.014 . S
C1303 C339 2.017 . S
C1321 C311 1.646 . S
C1319 C2 1.678 . S
