# Generated by pormake.
# Topology csq, (4,8)-cn, num edge types: 1
# Building blocks:
#     Node 0, Type 0, BuildingBlock: KUFVIS_clean_linker_0, # of connection points: 4
#     Node 1, Type 0, BuildingBlock: KUFVIS_clean_linker_0, # of connection points: 4
#     Node 2, Type 0, BuildingBlock: KUFVIS_clean_linker_0, # of connection points: 4
#     Node 3, Type 0, BuildingBlock: KUFVIS_clean_linker_0, # of connection points: 4
#     Node 4, Type 0, BuildingBlock: KUFVIS_clean_linker_0, # of connection points: 4
#     Node 5, Type 0, BuildingBlock: KUFVIS_clean_linker_0, # of connection points: 4
#     Node 6, Type 1, BuildingBlock: TAGTUT_clean_sbu_3, # of connection points: 8
#     Node 7, Type 1, BuildingBlock: TAGTUT_clean_sbu_3, # of connection points: 8
#     Node 8, Type 1, BuildingBlock: TAGTUT_clean_sbu_3, # of connection points: 8
#     Edge 9, Type (0, 1), BuildingBlock: MIFKUJ_clean_linker_0, # of connection points: 2
#     Edge 10, Type (0, 1), BuildingBlock: MIFKUJ_clean_linker_0, # of connection points: 2
#     Edge 11, Type (0, 1), BuildingBlock: MIFKUJ_clean_linker_0, # of connection points: 2
#     Edge 12, Type (0, 1), BuildingBlock: MIFKUJ_clean_linker_0, # of connection points: 2
#     Edge 13, Type (0, 1), BuildingBlock: MIFKUJ_clean_linker_0, # of connection points: 2
#     Edge 14, Type (0, 1), BuildingBlock: MIFKUJ_clean_linker_0, # of connection points: 2
#     Edge 15, Type (0, 1), BuildingBlock: MIFKUJ_clean_linker_0, # of connection points: 2
#     Edge 16, Type (0, 1), BuildingBlock: MIFKUJ_clean_linker_0, # of connection points: 2
#     Edge 17, Type (0, 1), BuildingBlock: MIFKUJ_clean_linker_0, # of connection points: 2
#     Edge 18, Type (0, 1), BuildingBlock: MIFKUJ_clean_linker_0, # of connection points: 2
#     Edge 19, Type (0, 1), BuildingBlock: MIFKUJ_clean_linker_0, # of connection points: 2
#     Edge 20, Type (0, 1), BuildingBlock: MIFKUJ_clean_linker_0, # of connection points: 2
#     Edge 21, Type (0, 1), BuildingBlock: MIFKUJ_clean_linker_0, # of connection points: 2
#     Edge 22, Type (0, 1), BuildingBlock: MIFKUJ_clean_linker_0, # of connection points: 2
#     Edge 23, Type (0, 1), BuildingBlock: MIFKUJ_clean_linker_0, # of connection points: 2
#     Edge 24, Type (0, 1), BuildingBlock: MIFKUJ_clean_linker_0, # of connection points: 2
#     Edge 25, Type (0, 1), BuildingBlock: MIFKUJ_clean_linker_0, # of connection points: 2
#     Edge 26, Type (0, 1), BuildingBlock: MIFKUJ_clean_linker_0, # of connection points: 2
#     Edge 27, Type (0, 1), BuildingBlock: MIFKUJ_clean_linker_0, # of connection points: 2
#     Edge 28, Type (0, 1), BuildingBlock: MIFKUJ_clean_linker_0, # of connection points: 2
#     Edge 29, Type (0, 1), BuildingBlock: MIFKUJ_clean_linker_0, # of connection points: 2
#     Edge 30, Type (0, 1), BuildingBlock: MIFKUJ_clean_linker_0, # of connection points: 2
#     Edge 31, Type (0, 1), BuildingBlock: MIFKUJ_clean_linker_0, # of connection points: 2
#     Edge 32, Type (0, 1), BuildingBlock: MIFKUJ_clean_linker_0, # of connection points: 2
# Relax obj value: 0.035
# Max RMSD: 0.115
# Mean RMSD: 0.087
data_MOF--net-csq--node1-TAGTUT_clean_sbu_3--node2-KUFVIS_clean_linker_0--edge1-MIFKUJ_clean_linker_0
_symmetry_space_group_name_H-M    P1
_symmetry_Int_Tables_number       1
_symmetry_cell_setting            triclinic
loop_
_symmetry_equiv_pos_as_xyz
'x, y, z'
_cell_length_a     69.679061
_cell_length_b     68.837955
_cell_length_c     22.667269
_cell_angle_alpha  92.397193
_cell_angle_beta   92.118492
_cell_angle_gamma 119.90533
loop_
_atom_site_label
_atom_site_type_symbol
_atom_site_fract_x
_atom_site_fract_y
_atom_site_fract_z
_atom_type_partial_charge
H0 H 0.31473 0.49582 0.1576 0.0
H1 H 0.25856 0.48965 0.24399 0.0
H2 H 0.26455 0.50153 0.05741 0.0
H3 H 0.22599 0.47685 0.06119 0.0
H4 H 0.1776 0.48738 0.14654 0.0
H5 H 0.24117 0.51074 0.2363 0.0
C6 C 0.29916 0.49588 0.15559 0.0
C7 C 0.29098 0.49901 0.10198 0.0
C8 C 0.28761 0.49271 0.20655 0.0
C9 C 0.26758 0.4928 0.20431 0.0
C10 C 0.2588 0.49584 0.15062 0.0
C11 C 0.2708 0.49907 0.09922 0.0
C12 C 0.23667 0.49444 0.14836 0.0
C13 C 0.22153 0.48375 0.0986 0.0
C14 C 0.20011 0.48086 0.09818 0.0
C15 C 0.19402 0.48926 0.14692 0.0
C16 C 0.20864 0.49982 0.19663 0.0
C17 C 0.22995 0.50246 0.19747 0.0
H18 H 0.70278 0.19108 0.07772 0.0
H19 H 0.75583 0.24581 0.18142 0.0
H20 H 0.73692 0.25504 0.0041 0.0
H21 H 0.7705 0.2835 0.00509 0.0
H22 H 0.81622 0.34084 0.11818 0.0
H23 H 0.77097 0.28119 0.1965 0.0
C24 C 0.71602 0.20851 0.08154 0.0
C25 C 0.71923 0.22194 0.03426 0.0
C26 C 0.72877 0.2174 0.13473 0.0
C27 C 0.74575 0.23993 0.14024 0.0
C28 C 0.74952 0.25422 0.09325 0.0
C29 C 0.73549 0.24485 0.04051 0.0
C30 C 0.76775 0.27862 0.09965 0.0
C31 C 0.77648 0.2912 0.04938 0.0
C32 C 0.79337 0.31396 0.05584 0.0
C33 C 0.80226 0.32382 0.11269 0.0
C34 C 0.79449 0.31181 0.16273 0.0
C35 C 0.77705 0.28955 0.15643 0.0
H36 H 0.53987 0.84191 0.07451 0.0
H37 H 0.54452 0.78744 0.14401 0.0
H38 H 0.52586 0.78501 0.95824 0.0
H39 H 0.54556 0.76733 0.94972 0.0
H40 H 0.53585 0.70561 0.01232 0.0
H41 H 0.52383 0.74937 0.126 0.0
C42 C 0.53847 0.82556 0.06731 0.0
C43 C 0.53254 0.81471 0.01046 0.0
C44 C 0.54233 0.81561 0.11548 0.0
C45 C 0.54083 0.79459 0.10661 0.0
C46 C 0.53543 0.78339 0.0496 0.0
C47 C 0.531 0.7936 0.0019 0.0
C48 C 0.53499 0.76146 0.03959 0.0
C49 C 0.54074 0.75592 0.98483 0.0
C50 C 0.54089 0.73579 0.97514 0.0
C51 C 0.5355 0.72107 0.0203 0.0
C52 C 0.52921 0.72568 0.07477 0.0
C53 C 0.5291 0.746 0.08436 0.0
H54 H 0.84731 0.55027 0.03512 0.0
H55 H 0.80299 0.56216 0.13519 0.0
H56 H 0.7801 0.52226 0.96706 0.0
H57 H 0.7585 0.5371 0.96112 0.0
H58 H 0.71137 0.54282 0.0643 0.0
H59 H 0.76755 0.54457 0.15318 0.0
C60 C 0.83087 0.54794 0.03974 0.0
C61 C 0.81426 0.53557 0.99546 0.0
C62 C 0.82663 0.55706 0.09023 0.0
C63 C 0.80549 0.5542 0.09641 0.0
C64 C 0.78823 0.54198 0.05192 0.0
C65 C 0.79285 0.53227 0.0016 0.0
C66 C 0.76612 0.54067 0.05652 0.0
C67 C 0.75313 0.53843 0.00452 0.0
C68 C 0.73345 0.53903 0.00774 0.0
C69 C 0.72664 0.54226 0.06249 0.0
C70 C 0.73905 0.54474 0.11485 0.0
C71 C 0.75844 0.54324 0.11211 0.0
H72 H 0.30322 0.85672 0.08921 0.0
H73 H 0.26053 0.798 0.17799 0.0
H74 H 0.23523 0.816 0.02474 0.0
H75 H 0.21537 0.77766 0.01121 0.0
H76 H 0.16572 0.72898 0.11385 0.0
H77 H 0.22417 0.78445 0.20228 0.0
C78 C 0.28696 0.84212 0.09277 0.0
C79 C 0.26961 0.8379 0.05182 0.0
C80 C 0.28378 0.82784 0.13808 0.0
C81 C 0.26271 0.80911 0.14319 0.0
C82 C 0.24484 0.80432 0.10225 0.0
C83 C 0.2486 0.81898 0.05638 0.0
C84 C 0.2226 0.78378 0.10625 0.0
C85 C 0.20943 0.772 0.05417 0.0
C86 C 0.18863 0.75268 0.05689 0.0
C87 C 0.18121 0.74465 0.11214 0.0
C88 C 0.19385 0.75584 0.16488 0.0
C89 C 0.21455 0.7755 0.16164 0.0
H90 H 0.45665 0.2998 0.15321 0.0
H91 H 0.46262 0.24994 0.24536 0.0
H92 H 0.49096 0.26935 0.07569 0.0
H93 H 0.48802 0.23647 0.0689 0.0
H94 H 0.50698 0.19729 0.17089 0.0
H95 H 0.48519 0.2379 0.26018 0.0
C96 C 0.46182 0.28733 0.15464 0.0
C97 C 0.47291 0.28476 0.10754 0.0
C98 C 0.4591 0.27551 0.20543 0.0
C99 C 0.46605 0.2596 0.20689 0.0
C100 C 0.47754 0.25666 0.16041 0.0
C101 C 0.48133 0.27001 0.11122 0.0
C102 C 0.48588 0.2402 0.164 0.0
C103 C 0.49085 0.2319 0.11205 0.0
C104 C 0.49925 0.21718 0.11486 0.0
C105 C 0.50173 0.2097 0.16933 0.0
C106 C 0.49606 0.21665 0.22125 0.0
C107 C 0.48858 0.23218 0.21886 0.0
C108 C 0.0418 0.5023 0.53261 0.0
C109 C 0.03136 0.47449 0.7412 0.0
C110 C 0.96559 0.46835 0.72146 0.0
Mg111 Mg 0.02296 0.53171 0.46861 0.0
Mg112 Mg 0.01241 0.56534 0.55205 0.0
O113 O 0.00563 0.53571 0.5319 0.0
Mg114 Mg 0.01177 0.52035 0.59591 0.0
O115 O 0.01807 0.50396 0.65635 0.0
Mg116 Mg 1.00181 0.47257 0.6182 0.0
Mg117 Mg 0.01315 0.50762 0.73564 0.0
C118 C 0.98055 0.53929 0.65313 0.0
O119 O 0.03694 0.55353 0.64877 0.0
O120 O 0.00606 0.54611 0.4072 0.0
O121 O 0.03003 0.5442 0.7431 0.0
O122 O 0.05295 0.56784 0.48499 0.0
O123 O 1.0006 0.56952 0.46805 0.0
O124 O 0.04794 0.58807 0.5556 0.0
O125 O 0.98638 0.48621 0.54965 0.0
O126 O 0.99276 0.49583 0.4563 0.0
C127 C 0.98216 0.4813 0.49376 0.0
C128 C 0.99948 0.56039 0.41664 0.0
O129 O 0.98509 0.52336 0.64692 0.0
O130 O 0.02118 0.46455 0.69096 0.0
O131 O 0.99069 0.55748 0.62597 0.0
O132 O 0.97196 0.46133 0.67728 0.0
O133 O 0.0303 0.49105 0.76555 0.0
O134 O 0.97843 0.48731 0.74926 0.0
O135 O 0.03785 0.51856 0.53956 0.0
O136 O 0.03091 0.48429 0.55936 0.0
C137 C 0.0601 0.58598 0.51789 0.0
C138 C 0.03936 0.55881 0.70474 0.0
C139 C 0.50431 0.04329 0.50917 0.0
C140 C 0.57533 0.03982 0.45994 0.0
C141 C 0.5371 0.97075 0.51502 0.0
Mg142 Mg 0.46797 0.0165 0.60698 0.0
Mg143 Mg 0.48245 0.99915 0.72504 0.0
O144 O 0.48046 0.99849 0.64256 0.0
Mg145 Mg 0.50817 0.00964 0.60021 0.0
O146 O 0.53473 0.02098 0.55301 0.0
Mg147 Mg 0.51988 0.00686 0.47338 0.0
Mg148 Mg 0.55874 0.01747 0.57838 0.0
C149 C 0.50996 0.97496 0.69653 0.0
O150 O 0.53176 0.03442 0.67615 0.0
O151 O 0.43567 0.99397 0.65795 0.0
O152 O 0.56337 0.03327 0.66712 0.0
O153 O 0.48239 0.04369 0.68529 0.0
O154 O 0.44757 0.9818 0.73419 0.0
O155 O 0.49673 0.03323 0.75873 0.0
O156 O 0.48691 0.98646 0.52068 0.0
O157 O 0.45681 0.99016 0.52848 0.0
C158 C 0.46739 0.98188 0.50204 0.0
C159 C 0.43201 0.98215 0.70329 0.0
O160 O 0.51346 0.98209 0.64407 0.0
O161 O 0.55511 0.02985 0.43764 0.0
O162 O 0.50032 0.98116 0.73392 0.0
O163 O 0.52688 0.9776 0.48134 0.0
O164 O 0.58031 0.03728 0.51295 0.0
O165 O 0.54973 0.9829 0.55969 0.0
O166 O 0.50104 0.03604 0.56124 0.0
O167 O 0.51221 0.03557 0.47047 0.0
C168 C 0.49311 0.04775 0.73561 0.0
C169 C 0.55173 0.04017 0.69421 0.0
C170 C 0.52254 0.55557 0.67825 0.0
C171 C 0.45808 0.49214 0.77834 0.0
C172 C 0.48704 0.45037 0.72342 0.0
Mg173 Mg 0.5478 0.55442 0.56227 0.0
Mg174 Mg 0.52182 0.51548 0.45356 0.0
O175 O 0.53007 0.5217 0.53476 0.0
Mg176 Mg 0.50797 0.50968 0.59716 0.0
O177 O 0.48787 0.49958 0.66338 0.0
Mg178 Mg 0.50921 0.50742 0.73366 0.0
Mg179 Mg 0.4627 0.47086 0.65921 0.0
C180 C 0.49422 0.46645 0.50332 0.0
O181 O 0.47787 0.50513 0.54066 0.0
O182 O 0.57394 0.55676 0.49563 0.0
O183 O 0.45044 0.4723 0.57087 0.0
O184 O 0.53059 0.5653 0.49107 0.0
O185 O 0.55509 0.52851 0.42554 0.0
O186 O 0.50959 0.53713 0.42421 0.0
O187 O 0.53489 0.51215 0.66294 0.0
O188 O 0.56371 0.5433 0.63364 0.0
C189 C 0.55551 0.52695 0.66738 0.0
C190 C 0.5733 0.54508 0.44883 0.0
O191 O 0.49736 0.47395 0.55795 0.0
O192 O 0.47928 0.50245 0.79014 0.0
O193 O 0.50043 0.47936 0.46002 0.0
O194 O 0.50054 0.47052 0.74383 0.0
O195 O 0.44864 0.47937 0.73119 0.0
O196 O 0.47132 0.44609 0.68506 0.0
O197 O 0.51983 0.54638 0.62618 0.0
O198 O 0.51861 0.54402 0.72361 0.0
C199 C 0.51703 0.55731 0.44517 0.0
C200 C 0.4578 0.48851 0.53635 0.0
H201 H 0.19332 0.47694 0.29441 0.0
H202 H 0.16851 0.48075 0.36212 0.0
H203 H 0.17858 0.54009 0.27927 0.0
H204 H 0.20301 0.53599 0.21074 0.0
H205 H 0.17333 0.53838 0.41471 0.0
H206 H 0.14175 0.49544 0.22313 0.0
H207 H 0.13464 0.46434 0.15107 0.0
H208 H 0.10026 0.41671 0.27927 0.0
H209 H 0.10776 0.4476 0.35256 0.0
H210 H 0.07454 0.53963 0.48266 0.0
H211 H 0.10627 0.54229 0.4319 0.0
H212 H 0.08244 0.4721 0.45408 0.0
H213 H 0.05084 0.46919 0.50275 0.0
H214 H 0.09603 0.47975 0.35167 0.0
H215 H 0.12425 0.51368 0.54128 0.0
H216 H 0.13363 0.53895 0.63095 0.0
H217 H 0.17602 0.59539 0.53409 0.0
H218 H 0.16601 0.57063 0.44272 0.0
C219 C 0.19101 0.49135 0.2926 0.0
C220 C 0.20025 0.50638 0.24818 0.0
C221 C 0.17677 0.49345 0.33098 0.0
C222 C 0.17166 0.51065 0.32548 0.0
C223 C 0.18247 0.52683 0.28454 0.0
C224 C 0.19645 0.52454 0.2456 0.0
C225 C 0.15257 0.50966 0.35498 0.0
C226 C 0.15637 0.52582 0.4006 0.0
C227 C 0.13055 0.49249 0.33833 0.0
C228 C 0.12552 0.47391 0.29346 0.0
C229 C 0.13283 0.47837 0.23603 0.0
C230 C 0.12874 0.46078 0.19499 0.0
C231 C 0.11702 0.43858 0.21056 0.0
C232 C 0.10936 0.43393 0.26724 0.0
C233 C 0.11356 0.45148 0.30856 0.0
C234 C 0.07596 0.52474 0.47596 0.0
C235 C 0.06012 0.50423 0.49702 0.0
C236 C 0.0942 0.52631 0.44739 0.0
C237 C 0.09694 0.50743 0.43959 0.0
C238 C 0.08079 0.48691 0.45925 0.0
C239 C 0.06267 0.48532 0.48741 0.0
C240 C 0.11656 0.50875 0.4115 0.0
C241 C 0.11289 0.49255 0.36592 0.0
C242 C 0.1387 0.52512 0.43061 0.0
C243 C 0.14399 0.54033 0.48467 0.0
C244 C 0.13515 0.53156 0.53857 0.0
C245 C 0.14057 0.5458 0.58975 0.0
C246 C 0.15518 0.56883 0.58798 0.0
C247 C 0.16439 0.57763 0.53501 0.0
C248 C 0.15878 0.56351 0.48346 0.0
H249 H 0.15952 0.57982 0.62775 0.0
H250 H 0.11385 0.42498 0.1787 0.0
H251 H 0.73416 0.18148 0.15284 0.0
H252 H 0.71306 0.1516 0.21867 0.0
H253 H 0.68471 0.19006 0.29028 0.0
H254 H 0.70669 0.22029 0.22684 0.0
H255 H 0.68747 0.16625 0.37199 0.0
H256 H 0.66265 0.15233 0.16532 0.0
H257 H 0.66776 0.14816 0.05952 0.0
H258 H 0.67484 0.09089 0.08975 0.0
H259 H 0.67107 0.09544 0.19648 0.0
H260 H 0.57207 0.05649 0.35412 0.0
H261 H 0.60191 0.08733 0.30578 0.0
H262 H 0.64957 0.09193 0.44072 0.0
H263 H 0.61996 0.06149 0.48968 0.0
H264 H 0.63806 0.09386 0.25704 0.0
H265 H 0.69037 0.14647 0.46928 0.0
H266 H 0.68574 0.15554 0.57239 0.0
H267 H 0.61847 0.13785 0.52521 0.0
H268 H 0.62273 0.12885 0.42174 0.0
C269 C 0.72419 0.18389 0.18472 0.0
C270 C 0.7221 0.20315 0.18541 0.0
C271 C 0.71193 0.16674 0.22174 0.0
C272 C 0.69676 0.16826 0.25821 0.0
C273 C 0.69618 0.18839 0.26241 0.0
C274 C 0.70881 0.20573 0.22639 0.0
C275 C 0.67974 0.14825 0.2866 0.0
C276 C 0.67683 0.15035 0.34698 0.0
C277 C 0.6654 0.1276 0.25365 0.0
C278 C 0.66682 0.12438 0.1891 0.0
C279 C 0.66542 0.13891 0.14954 0.0
C280 C 0.66809 0.1365 0.08937 0.0
C281 C 0.67144 0.1192 0.06781 0.0
C282 C 0.67225 0.1043 0.10649 0.0
C283 C 0.66998 0.10687 0.16691 0.0
C284 C 0.58892 0.06387 0.37316 0.0
C285 C 0.59352 0.05651 0.42601 0.0
C286 C 0.60599 0.08156 0.34553 0.0
C287 C 0.62797 0.09226 0.37017 0.0
C288 C 0.63271 0.08431 0.42151 0.0
C289 C 0.61571 0.06674 0.44924 0.0
C290 C 0.64588 0.11185 0.34256 0.0
C291 C 0.6489 0.10966 0.28227 0.0
C292 C 0.65998 0.13258 0.37523 0.0
C293 C 0.65684 0.13682 0.43787 0.0
C294 C 0.67457 0.14447 0.48096 0.0
C295 C 0.67204 0.14965 0.5394 0.0
C296 C 0.65188 0.14742 0.55519 0.0
C297 C 0.6341 0.13964 0.51281 0.0
C298 C 0.63654 0.1344 0.45431 0.0
H299 H 0.65003 0.15165 0.60035 0.0
H300 H 0.67346 0.11735 0.02116 0.0
H301 H 0.54086 0.73272 0.19467 0.0
H302 H 0.53417 0.70411 0.26489 0.0
H303 H 0.49735 0.65194 0.12627 0.0
H304 H 0.50284 0.68019 0.05757 0.0
H305 H 0.47841 0.63792 0.22092 0.0
H306 H 0.55447 0.67259 0.1707 0.0
H307 H 0.59244 0.70398 0.16198 0.0
H308 H 0.59993 0.71896 0.35005 0.0
H309 H 0.56187 0.68781 0.35978 0.0
H310 H 0.50099 0.55208 0.3298 0.0
H311 H 0.49799 0.57981 0.27255 0.0
H312 H 0.51816 0.62513 0.42864 0.0
H313 H 0.52195 0.59774 0.48599 0.0
H314 H 0.5438 0.64284 0.33017 0.0
H315 H 0.45733 0.61937 0.34311 0.0
H316 H 0.41795 0.58946 0.33665 0.0
H317 H 0.43169 0.5511 0.20845 0.0
H318 H 0.47088 0.58129 0.21201 0.0
C319 C 0.53091 0.71513 0.17967 0.0
C320 C 0.52273 0.70878 0.12021 0.0
C321 C 0.52734 0.69876 0.21963 0.0
C322 C 0.51574 0.67576 0.20067 0.0
C323 C 0.50651 0.66948 0.14219 0.0
C324 C 0.50984 0.68573 0.10267 0.0
C325 C 0.51374 0.6581 0.24029 0.0
C326 C 0.49279 0.63902 0.24451 0.0
C327 C 0.53237 0.65936 0.27159 0.0
C328 C 0.55525 0.67805 0.26588 0.0
C329 C 0.56416 0.68268 0.21014 0.0
C330 C 0.5857 0.70041 0.20502 0.0
C331 C 0.59857 0.7135 0.25541 0.0
C332 C 0.58993 0.70884 0.31105 0.0
C333 C 0.56838 0.69115 0.3164 0.0
C334 C 0.50424 0.5677 0.35243 0.0
C335 C 0.51167 0.57259 0.41267 0.0
C336 C 0.50223 0.5835 0.3196 0.0
C337 C 0.50716 0.60439 0.34642 0.0
C338 C 0.51392 0.60902 0.40702 0.0
C339 C 0.51612 0.59333 0.43978 0.0
C340 C 0.50853 0.62257 0.3101 0.0
C341 C 0.52943 0.64184 0.30679 0.0
C342 C 0.48998 0.62121 0.27823 0.0
C343 C 0.46721 0.60205 0.28005 0.0
C344 C 0.45198 0.60439 0.31421 0.0
C345 C 0.42963 0.58758 0.31027 0.0
C346 C 0.42238 0.56828 0.27262 0.0
C347 C 0.4374 0.56592 0.23813 0.0
C348 C 0.45969 0.58288 0.24112 0.0
H349 H 0.40512 0.55519 0.27006 0.0
H350 H 0.61524 0.72722 0.25136 0.0
H351 H 0.86673 0.59446 0.08398 0.0
H352 H 0.90039 0.60271 0.14298 0.0
H353 H 0.86077 0.55088 0.25788 0.0
H354 H 0.82709 0.54291 0.19942 0.0
H355 H 0.89851 0.58457 0.3167 0.0
H356 H 0.87761 0.53631 0.13583 0.0
H357 H 0.86787 0.52724 0.0285 0.0
H358 H 0.93056 0.58348 0.9919 0.0
H359 H 0.94067 0.59287 0.09902 0.0
H360 H 0.97113 0.53173 0.32648 0.0
H361 H 0.94482 0.53776 0.26622 0.0
H362 H 0.97626 0.60639 0.33928 0.0
H363 H 1.00216 0.60031 0.40027 0.0
H364 H 0.94372 0.56615 0.18579 0.0
H365 H 0.93568 0.61595 0.38519 0.0
H366 H 0.94305 0.62083 0.49372 0.0
H367 H 0.93393 0.55439 0.49571 0.0
H368 H 0.92617 0.54901 0.38739 0.0
C369 C 0.86521 0.5857 0.12371 0.0
C370 C 0.84451 0.56801 0.13733 0.0
C371 C 0.8844 0.59024 0.15692 0.0
C372 C 0.88303 0.57693 0.20355 0.0
C373 C 0.86213 0.56121 0.22172 0.0
C374 C 0.8429 0.55677 0.18867 0.0
C375 C 0.903 0.57681 0.22709 0.0
C376 C 0.90857 0.58084 0.28808 0.0
C377 C 0.91571 0.57129 0.18971 0.0
C378 C 0.90978 0.56544 0.12535 0.0
C379 C 0.88927 0.54678 0.10486 0.0
C380 C 0.88371 0.54156 0.0441 0.0
C381 C 0.89852 0.55489 0.00346 0.0
C382 C 0.91906 0.57325 0.02346 0.0
C383 C 0.92475 0.57849 0.08416 0.0
C384 C 0.97288 0.54829 0.32795 0.0
C385 C 0.98835 0.56546 0.36847 0.0
C386 C 0.95785 0.55171 0.29372 0.0
C387 C 0.95833 0.57235 0.29961 0.0
C388 C 0.97539 0.59023 0.3351 0.0
C389 C 0.99018 0.58675 0.36972 0.0
C390 C 0.93945 0.57429 0.27529 0.0
C391 C 0.93397 0.57039 0.21426 0.0
C392 C 0.92647 0.57935 0.31281 0.0
C393 C 0.9306 0.58221 0.37815 0.0
C394 C 0.93516 0.60236 0.40886 0.0
C395 C 0.93941 0.60521 0.47032 0.0
C396 C 0.93903 0.58796 0.50157 0.0
C397 C 0.93429 0.56777 0.47145 0.0
C398 C 0.92997 0.56482 0.41002 0.0
H399 H 0.94237 0.59022 0.54912 0.0
H400 H 0.8941 0.55103 0.9565 0.0
H401 H 0.286 0.83456 0.25811 0.0
H402 H 0.32014 0.85506 0.32268 0.0
H403 H 0.35864 0.85594 0.17702 0.0
H404 H 0.32456 0.83507 0.113 0.0
H405 H 0.37942 0.85655 0.28129 0.0
H406 H 0.34766 0.8969 0.19412 0.0
H407 H 0.31768 0.90486 0.16884 0.0
H408 H 0.31218 0.91665 0.35341 0.0
H409 H 0.34192 0.90832 0.37968 0.0
H410 H 0.45126 0.98565 0.39537 0.0
H411 H 0.42362 0.95481 0.32784 0.0
H412 H 0.42549 0.90695 0.44195 0.0
H413 H 0.45436 0.9379 0.50663 0.0
H414 H 0.3851 0.92876 0.34957 0.0
H415 H 0.40182 0.85428 0.3733 0.0
H416 H 0.43358 0.84787 0.3826 0.0
H417 H 0.47435 0.9092 0.30077 0.0
H418 H 0.44274 0.91574 0.28964 0.0
C419 C 0.30167 0.83829 0.24073 0.0
C420 C 0.3028 0.83364 0.18053 0.0
C421 C 0.32117 0.85011 0.27744 0.0
C422 C 0.34196 0.85751 0.25416 0.0
C423 C 0.34283 0.85055 0.1958 0.0
C424 C 0.32338 0.83875 0.15921 0.0
C425 C 0.36251 0.87549 0.28659 0.0
C426 C 0.38073 0.87232 0.29676 0.0
C427 C 0.36449 0.89639 0.30427 0.0
C428 C 0.34682 0.90173 0.28884 0.0
C429 C 0.33995 0.90103 0.22927 0.0
C430 C 0.32301 0.90562 0.21477 0.0
C431 C 0.31299 0.91121 0.25952 0.0
C432 C 0.31994 0.91227 0.31882 0.0
C433 C 0.33683 0.90761 0.33353 0.0
C434 C 0.44635 0.96851 0.40437 0.0
C435 C 0.455 0.96399 0.45534 0.0
C436 C 0.43041 0.95087 0.36628 0.0
C437 C 0.42229 0.92841 0.37964 0.0
C438 C 0.4317 0.92399 0.42961 0.0
C439 C 0.44818 0.94167 0.46669 0.0
C440 C 0.40236 0.91001 0.34535 0.0
C441 C 0.38407 0.91307 0.33466 0.0
C442 C 0.40078 0.88943 0.32521 0.0
C443 C 0.41991 0.88559 0.33116 0.0
C444 C 0.41753 0.86634 0.35698 0.0
C445 C 0.43551 0.86268 0.36254 0.0
C446 C 0.45597 0.87812 0.34227 0.0
C447 C 0.4585 0.89726 0.31642 0.0
C448 C 0.44055 0.90096 0.3105 0.0
H449 H 0.46983 0.8752 0.3464 0.0
H450 H 0.29987 0.91477 0.24826 0.0
H451 H 0.42476 0.28385 0.21792 0.0
H452 H 0.42338 0.30849 0.29658 0.0
H453 H 0.47814 0.30926 0.3936 0.0
H454 H 0.47969 0.28477 0.31547 0.0
H455 H 0.42825 0.31786 0.43529 0.0
H456 H 0.51821 0.36419 0.38579 0.0
H457 H 0.54314 0.36299 0.31287 0.0
H458 H 0.49089 0.33951 0.17563 0.0
H459 H 0.4659 0.34131 0.2473 0.0
H460 H 0.48829 0.43328 0.57711 0.0
H461 H 0.47586 0.3938 0.54729 0.0
H462 H 0.46467 0.40524 0.36685 0.0
H463 H 0.47693 0.44426 0.3957 0.0
H464 H 0.49333 0.38843 0.38046 0.0
H465 H 0.42256 0.37554 0.44722 0.0
H466 H 0.39854 0.37655 0.52302 0.0
H467 H 0.41223 0.33367 0.62737 0.0
H468 H 0.43641 0.3325 0.55224 0.0
C469 C 0.43581 0.28844 0.25732 0.0
C470 C 0.45265 0.28283 0.26 0.0
C471 C 0.43485 0.30231 0.30253 0.0
C472 C 0.45084 0.31086 0.35035 0.0
C473 C 0.46562 0.30274 0.35704 0.0
C474 C 0.4665 0.28876 0.31214 0.0
C475 C 0.45631 0.33244 0.38154 0.0
C476 C 0.44254 0.33332 0.42392 0.0
C477 C 0.47496 0.35252 0.36639 0.0
C478 C 0.49013 0.35256 0.32208 0.0
C479 C 0.51212 0.35895 0.33994 0.0
C480 C 0.52625 0.35819 0.29882 0.0
C481 C 0.51856 0.3511 0.23969 0.0
C482 C 0.49678 0.34494 0.22146 0.0
C483 C 0.48265 0.34589 0.26228 0.0
C484 C 0.48281 0.42724 0.5313 0.0
C485 C 0.48396 0.442 0.48857 0.0
C486 C 0.47571 0.40471 0.51442 0.0
C487 C 0.46956 0.39674 0.45479 0.0
C488 C 0.46955 0.41115 0.41298 0.0
C489 C 0.47662 0.43349 0.42962 0.0
C490 C 0.46505 0.37414 0.43374 0.0
C491 C 0.47917 0.37304 0.39291 0.0
C492 C 0.44674 0.35406 0.45051 0.0
C493 C 0.43165 0.35428 0.49465 0.0
C494 C 0.42062 0.36649 0.48656 0.0
C495 C 0.4069 0.36703 0.52931 0.0
C496 C 0.40395 0.35528 0.58014 0.0
C497 C 0.41458 0.34283 0.5881 0.0
C498 C 0.42828 0.34221 0.54542 0.0
H499 H 0.39336 0.35576 0.61323 0.0
H500 H 0.52947 0.35041 0.20796 0.0
H501 H 0.50869 0.83626 0.01299 0.0
H502 H 0.50513 0.85881 0.93861 0.0
H503 H 0.54153 0.84058 0.82011 0.0
H504 H 0.54619 0.81865 0.89662 0.0
H505 H 0.55628 0.88371 0.8172 0.0
H506 H 0.4847 0.82051 0.7921 0.0
H507 H 0.44914 0.78916 0.81949 0.0
H508 H 0.43263 0.83595 0.90058 0.0
H509 H 0.46822 0.8676 0.87451 0.0
H510 H 0.5221 0.94907 0.62764 0.0
H511 H 0.5266 0.91765 0.65891 0.0
H512 H 0.51349 0.92967 0.83704 0.0
H513 H 0.5097 0.96111 0.80726 0.0
H514 H 0.48547 0.8832 0.77892 0.0
H515 H 0.56304 0.94508 0.81786 0.0
H516 H 0.59786 0.97517 0.78257 0.0
H517 H 0.60084 0.92742 0.66065 0.0
H518 H 0.56588 0.8971 0.69488 0.0
C519 C 0.51594 0.83695 0.97112 0.0
C520 C 0.52791 0.82579 0.96108 0.0
C521 C 0.51364 0.84968 0.92811 0.0
C522 C 0.52276 0.85123 0.87308 0.0
C523 C 0.53425 0.83961 0.86205 0.0
C524 C 0.53672 0.82691 0.90558 0.0
C525 C 0.52113 0.86608 0.82939 0.0
C526 C 0.54066 0.88318 0.80762 0.0
C527 C 0.50077 0.86542 0.81578 0.0
C528 C 0.47921 0.84646 0.83142 0.0
C529 C 0.47355 0.82413 0.81606 0.0
C530 C 0.45337 0.8063 0.83134 0.0
C531 C 0.43864 0.81056 0.86178 0.0
C532 C 0.44404 0.83267 0.87694 0.0
C533 C 0.46421 0.85057 0.86181 0.0
C534 C 0.5207 0.94535 0.67367 0.0
C535 C 0.51548 0.95768 0.71474 0.0
C536 C 0.52311 0.92728 0.69135 0.0
C537 C 0.52012 0.92123 0.75018 0.0
C538 C 0.51564 0.93394 0.79134 0.0
C539 C 0.51352 0.95199 0.77406 0.0
C540 C 0.52067 0.90122 0.77002 0.0
C541 C 0.5009 0.88318 0.78714 0.0
C542 C 0.54063 0.90076 0.77805 0.0
C543 C 0.56178 0.91891 0.75845 0.0
C544 C 0.57106 0.94105 0.78325 0.0
C545 C 0.59083 0.95813 0.76352 0.0
C546 C 0.60153 0.95322 0.71928 0.0
C547 C 0.59252 0.93121 0.69486 0.0
C548 C 0.57275 0.91406 0.71445 0.0
H549 H 0.61682 0.96648 0.70401 0.0
H550 H 0.42303 0.79673 0.87359 0.0
H551 H 0.70901 0.50173 0.93345 0.0
H552 H 0.67731 0.49487 0.86656 0.0
H553 H 0.69415 0.56394 0.89977 0.0
H554 H 0.72557 0.5707 0.96647 0.0
H555 H 0.65223 0.53292 0.93232 0.0
H556 H 0.69785 0.54631 0.76655 0.0
H557 H 0.72194 0.53988 0.70124 0.0
H558 H 0.66988 0.4718 0.65965 0.0
H559 H 0.64556 0.47774 0.72546 0.0
H560 H 0.59383 0.56002 0.72238 0.0
H561 H 0.622 0.55576 0.77846 0.0
H562 H 0.5807 0.48367 0.7568 0.0
H563 H 0.55197 0.4878 0.70181 0.0
H564 H 0.63045 0.50787 0.71995 0.0
H565 H 0.58364 0.49605 0.87944 0.0
H566 H 0.55972 0.50365 0.94246 0.0
H567 H 0.61443 0.56939 0.9949 0.0
H568 H 0.6386 0.56232 0.93135 0.0
C569 C 0.70639 0.51559 0.92423 0.0
C570 C 0.71953 0.53671 0.95464 0.0
C571 C 0.68829 0.51165 0.88647 0.0
C572 C 0.68333 0.52885 0.87901 0.0
C573 C 0.69768 0.55045 0.9054 0.0
C574 C 0.71566 0.55435 0.94299 0.0
C575 C 0.66181 0.52393 0.85078 0.0
C576 C 0.64751 0.52749 0.88582 0.0
C577 C 0.65534 0.516 0.79082 0.0
C578 C 0.66999 0.51238 0.75159 0.0
C579 C 0.69162 0.52989 0.74404 0.0
C580 C 0.7053 0.52635 0.70679 0.0
C581 C 0.69748 0.50541 0.6765 0.0
C582 C 0.67594 0.48799 0.68327 0.0
C583 C 0.66219 0.49144 0.72051 0.0
C584 C 0.5906 0.54327 0.73042 0.0
C585 C 0.57081 0.52424 0.70791 0.0
C586 C 0.60667 0.54087 0.76219 0.0
C587 C 0.60337 0.51943 0.77108 0.0
C588 C 0.58344 0.50033 0.74996 0.0
C589 C 0.56706 0.50272 0.71916 0.0
C590 C 0.62136 0.51753 0.8012 0.0
C591 C 0.635 0.51274 0.76674 0.0
C592 C 0.62731 0.52435 0.86176 0.0
C593 C 0.61288 0.52871 0.90021 0.0
C594 C 0.59052 0.51221 0.90394 0.0
C595 C 0.57693 0.5164 0.93986 0.0
C596 C 0.58554 0.53701 0.97257 0.0
C597 C 0.60778 0.55344 0.9695 0.0
C598 C 0.62144 0.54934 0.93358 0.0
H599 H 0.57499 0.54022 0.00039 0.0
H600 H 0.70809 0.50271 0.64763 0.0
H601 H 0.14412 0.73532 0.03637 0.0
H602 H 0.12 0.70742 0.95773 0.0
H603 H 0.17722 0.71318 0.87544 0.0
H604 H 0.20159 0.74077 0.95514 0.0
H605 H 0.13082 0.70476 0.79899 0.0
H606 H 0.16496 0.67631 0.9431 0.0
H607 H 0.17635 0.67512 0.04667 0.0
H608 H 0.10964 0.65115 0.09555 0.0
H609 H 0.09798 0.65257 0.99235 0.0
H610 H 0.07542 0.59204 0.65434 0.0
H611 H 0.10145 0.62994 0.69849 0.0
H612 H 0.06151 0.61675 0.84891 0.0
H613 H 0.03588 0.57901 0.80574 0.0
H614 H 0.10209 0.63092 0.88507 0.0
H615 H 0.06536 0.6521 0.74275 0.0
H616 H 0.05167 0.65667 0.64561 0.0
H617 H 0.11862 0.69728 0.59707 0.0
H618 H 0.13277 0.69194 0.69263 0.0
C619 C 0.15161 0.731 0.0009 0.0
C620 C 0.17471 0.73988 0.00252 0.0
C621 C 0.13783 0.71527 0.95571 0.0
C622 C 0.14689 0.7083 0.91107 0.0
C623 C 0.17 0.71858 0.90937 0.0
C624 C 0.18388 0.73428 0.95497 0.0
C625 C 0.13218 0.68744 0.87425 0.0
C626 C 0.12478 0.68847 0.81677 0.0
C627 C 0.12387 0.66647 0.89891 0.0
C628 C 0.13066 0.66469 0.96026 0.0
C629 C 0.15277 0.67089 0.97604 0.0
C630 C 0.15927 0.67017 0.03463 0.0
C631 C 0.14374 0.66311 0.0777 0.0
C632 C 0.12166 0.65663 0.06217 0.0
C633 C 0.11509 0.65737 0.00364 0.0
C634 C 0.07202 0.59744 0.69628 0.0
C635 C 0.05374 0.58252 0.7269 0.0
C636 C 0.08689 0.61909 0.72145 0.0
C637 C 0.0835 0.62617 0.77721 0.0
C638 C 0.06462 0.6116 0.80617 0.0
C639 C 0.04997 0.59001 0.78147 0.0
C640 C 0.10039 0.64779 0.80849 0.0
C641 C 0.10824 0.64697 0.86579 0.0
C642 C 0.10872 0.66887 0.78347 0.0
C643 C 0.10015 0.67124 0.72474 0.0
C644 C 0.0772 0.66155 0.71093 0.0
C645 C 0.06934 0.6643 0.65607 0.0
C646 C 0.08426 0.67712 0.61501 0.0
C647 C 0.10707 0.68722 0.62876 0.0
C648 C 0.11502 0.68418 0.68309 0.0
H649 H 0.07816 0.67932 0.57266 0.0
H650 H 0.14881 0.66262 0.12307 0.0
H651 H 0.53621 0.2146 0.09523 0.0
H652 H 0.53988 0.19085 0.01854 0.0
H653 H 0.47595 0.17392 0.93748 0.0
H654 H 0.47203 0.19739 0.01492 0.0
H655 H 0.47814 0.13732 0.96743 0.0
H656 H 0.52276 0.20375 0.86566 0.0
H657 H 0.5536 0.24218 0.85593 0.0
H658 H 0.60068 0.2213 0.90091 0.0
H659 H 0.57008 0.18281 0.91158 0.0
H660 H 0.49804 0.08645 0.69316 0.0
H661 H 0.50551 0.12055 0.75145 0.0
H662 H 0.51202 0.09214 0.91123 0.0
H663 H 0.50504 0.05811 0.8538 0.0
H664 H 0.53881 0.15245 0.836 0.0
H665 H 0.47895 0.10043 0.00727 0.0
H666 H 0.44819 0.06188 0.01675 0.0
H667 H 0.4309 0.05487 0.83018 0.0
H668 H 0.46132 0.09348 0.8198 0.0
C669 C 0.52323 0.20629 0.06005 0.0
C670 C 0.50378 0.20766 0.06103 0.0
C671 C 0.52539 0.19283 0.01617 0.0
C672 C 0.50817 0.18064 0.97245 0.0
C673 C 0.48942 0.18325 0.97092 0.0
C674 C 0.48727 0.19676 0.01481 0.0
C675 C 0.50836 0.1629 0.93383 0.0
C676 C 0.49135 0.14071 0.93843 0.0
C677 C 0.52576 0.16729 0.89665 0.0
C678 C 0.54413 0.19044 0.88995 0.0
C679 C 0.53968 0.20739 0.87395 0.0
C680 C 0.55712 0.22918 0.86814 0.0
C681 C 0.57909 0.2342 0.87791 0.0
C682 C 0.58367 0.21742 0.89337 0.0
C683 C 0.56629 0.19561 0.89923 0.0
C684 C 0.50139 0.08757 0.74061 0.0
C685 C 0.50049 0.06942 0.76911 0.0
C686 C 0.50578 0.10709 0.77354 0.0
C687 C 0.50889 0.1086 0.83524 0.0
C688 C 0.50947 0.09115 0.86351 0.0
C689 C 0.50542 0.07172 0.83062 0.0
C690 C 0.50868 0.12707 0.87008 0.0
C691 C 0.52564 0.14925 0.86497 0.0
C692 C 0.49123 0.12276 0.90685 0.0
C693 C 0.47256 0.09972 0.91271 0.0
C694 C 0.46852 0.09067 0.96834 0.0
C695 C 0.45115 0.06882 0.97387 0.0
C696 C 0.43765 0.0559 0.92406 0.0
C697 C 0.44141 0.06486 0.86868 0.0
C698 C 0.45873 0.08672 0.86294 0.0
H699 H 0.42424 0.03897 0.92841 0.0
H700 H 0.59256 0.25108 0.8734 0.0
H701 H 0.3232 0.5375 0.06033 0.0
H702 H 0.35239 0.54055 0.99732 0.0
H703 H 0.31901 0.46824 0.97204 0.0
H704 H 0.28971 0.46538 0.03342 0.0
H705 H 0.38081 0.52743 0.02025 0.0
H706 H 0.33197 0.45095 0.84833 0.0
H707 H 0.29602 0.43168 0.78987 0.0
H708 H 0.2924 0.49218 0.80131 0.0
H709 H 0.32846 0.5119 0.85911 0.0
H710 H 0.45167 0.48956 0.89818 0.0
H711 H 0.42388 0.49505 0.94918 0.0
H712 H 0.40583 0.51431 0.78663 0.0
H713 H 0.43264 0.50799 0.7359 0.0
H714 H 0.37047 0.48512 0.82821 0.0
H715 H 0.43421 0.55238 0.90949 0.0
H716 H 0.47106 0.57588 0.96174 0.0
H717 H 0.4468 0.54128 0.11928 0.0
H718 H 0.40983 0.51742 0.06789 0.0
C719 C 0.32163 0.52239 0.03877 0.0
C720 C 0.30394 0.50123 0.05007 0.0
C721 C 0.33849 0.52408 0.0037 0.0
C722 C 0.33797 0.50464 0.97969 0.0
C723 C 0.31967 0.48354 0.98889 0.0
C724 C 0.3028 0.48187 0.02357 0.0
C725 C 0.35723 0.50616 0.94912 0.0
C726 C 0.37857 0.51828 0.97805 0.0
C727 C 0.35449 0.49453 0.89368 0.0
C728 C 0.33284 0.48283 0.85853 0.0
C729 C 0.32355 0.46017 0.83817 0.0
C730 C 0.30314 0.44916 0.80518 0.0
C731 C 0.29191 0.46068 0.79203 0.0
C732 C 0.30108 0.48325 0.81171 0.0
C733 C 0.32149 0.49434 0.84467 0.0
C734 C 0.44192 0.49526 0.87395 0.0
C735 C 0.44406 0.49814 0.81316 0.0
C736 C 0.4261 0.49845 0.90297 0.0
C737 C 0.41259 0.50501 0.87171 0.0
C738 C 0.41573 0.50897 0.81168 0.0
C739 C 0.43112 0.50542 0.78274 0.0
C740 C 0.39409 0.50622 0.89947 0.0
C741 C 0.37281 0.49443 0.87019 0.0
C742 C 0.39706 0.51873 0.95361 0.0
C743 C 0.4193 0.53295 0.98463 0.0
C744 C 0.43677 0.54966 0.95515 0.0
C745 C 0.45766 0.56309 0.98467 0.0
C746 C 0.46125 0.56007 0.04379 0.0
C747 C 0.44396 0.54362 0.07354 0.0
C748 C 0.42303 0.53015 0.04426 0.0
H749 H 0.47743 0.57049 0.06658 0.0
H750 H 0.27611 0.45213 0.76651 0.0
H751 H 0.80455 0.30156 0.95102 0.0
H752 H 0.82803 0.32669 0.87837 0.0
H753 H 0.82984 0.38297 0.97523 0.0
H754 H 0.80508 0.35779 0.04472 0.0
H755 H 0.83304 0.3916 0.86713 0.0
H756 H 0.87097 0.36613 0.99852 0.0
H757 H 0.87745 0.33797 0.04561 0.0
H758 H 0.88359 0.31277 0.87513 0.0
H759 H 0.87698 0.34064 0.82711 0.0
H760 H 0.94385 0.47796 0.80703 0.0
H761 H 0.90959 0.45131 0.85096 0.0
H762 H 0.90385 0.39783 0.73282 0.0
H763 H 0.93765 0.42408 0.68785 0.0
H764 H 0.90132 0.38721 0.84481 0.0
H765 H 0.87031 0.41993 0.71752 0.0
H766 H 0.86668 0.45082 0.67795 0.0
H767 H 0.84924 0.46514 0.84737 0.0
H768 H 0.85361 0.43492 0.88874 0.0
C769 C 0.8093 0.31913 0.95559 0.0
C770 C 0.80334 0.32771 0.00452 0.0
C771 C 0.82302 0.3336 0.91449 0.0
C772 C 0.83147 0.35695 0.92243 0.0
C773 C 0.82387 0.36514 0.96825 0.0
C774 C 0.80983 0.35069 0.00841 0.0
C775 C 0.84967 0.37311 0.88711 0.0
C776 C 0.84803 0.39072 0.8625 0.0
C777 C 0.86926 0.372 0.88055 0.0
C778 C 0.87321 0.35524 0.9093 0.0
C779 C 0.87355 0.35446 0.97117 0.0
C780 C 0.87726 0.33859 0.99798 0.0
C781 C 0.88082 0.32354 0.96336 0.0
C782 C 0.88077 0.32439 0.90187 0.0
C783 C 0.87706 0.34022 0.87485 0.0
C784 C 0.93508 0.46059 0.78959 0.0
C785 C 0.94357 0.45319 0.74383 0.0
C786 C 0.91547 0.44541 0.8147 0.0
C787 C 0.90412 0.42258 0.7948 0.0
C788 C 0.91229 0.41537 0.74836 0.0
C789 C 0.93164 0.43047 0.72275 0.0
C790 C 0.88473 0.40569 0.82487 0.0
C791 C 0.88625 0.388 0.8488 0.0
C792 C 0.86532 0.40709 0.83158 0.0
C793 C 0.86256 0.42525 0.80651 0.0
C794 C 0.866 0.42984 0.74666 0.0
C795 C 0.86382 0.44726 0.72388 0.0
C796 C 0.85783 0.46 0.76019 0.0
C797 C 0.85395 0.45531 0.81932 0.0
C798 C 0.85634 0.43807 0.84252 0.0
H799 H 0.85607 0.47343 0.74243 0.0
H800 H 0.88369 0.31127 0.9842 0.0
H801 H 0.83117 0.55802 0.89859 0.0
H802 H 0.85443 0.5518 0.83149 0.0
H803 H 0.83752 0.48963 0.9101 0.0
H804 H 0.81487 0.49652 0.97903 0.0
H805 H 0.87925 0.51206 0.90899 0.0
H806 H 0.82318 0.49198 0.75792 0.0
H807 H 0.79435 0.49398 0.69649 0.0
H808 H 0.84347 0.55715 0.63699 0.0
H809 H 0.87257 0.55571 0.69872 0.0
H810 H 0.95128 0.5012 0.70545 0.0
H811 H 0.91843 0.49446 0.75659 0.0
H812 H 0.933 0.56194 0.72914 0.0
H813 H 0.96604 0.56895 0.67873 0.0
H814 H 0.88856 0.5291 0.6981 0.0
H815 H 0.94359 0.54956 0.86173 0.0
H816 H 0.97153 0.54527 0.92074 0.0
H817 H 0.92226 0.47791 0.95336 0.0
H818 H 0.89412 0.48173 0.89402 0.0
C819 C 0.83156 0.54249 0.89944 0.0
C820 C 0.82074 0.52742 0.94271 0.0
C821 C 0.84498 0.53894 0.86121 0.0
C822 C 0.84769 0.52007 0.86495 0.0
C823 C 0.83571 0.50426 0.90593 0.0
C824 C 0.82245 0.50797 0.94467 0.0
C825 C 0.865 0.51853 0.83133 0.0
C826 C 0.88096 0.51536 0.86255 0.0
C827 C 0.86745 0.5228 0.77065 0.0
C828 C 0.85005 0.5238 0.73332 0.0
C829 C 0.82782 0.50639 0.73209 0.0
C830 C 0.81143 0.50741 0.69714 0.0
C831 C 0.81707 0.5257 0.66294 0.0
C832 C 0.83913 0.543 0.66352 0.0
C833 C 0.85558 0.54207 0.69841 0.0
C834 C 0.94782 0.51479 0.71135 0.0
C835 C 0.9616 0.53574 0.68858 0.0
C836 C 0.9289 0.51083 0.74026 0.0
C837 C 0.92328 0.52771 0.74682 0.0
C838 C 0.93699 0.54865 0.72444 0.0
C839 C 0.95598 0.55267 0.69591 0.0
C840 C 0.90305 0.52365 0.77658 0.0
C841 C 0.88658 0.52562 0.7444 0.0
C842 C 0.89996 0.51797 0.83609 0.0
C843 C 0.91681 0.5158 0.87259 0.0
C844 C 0.93876 0.53376 0.88104 0.0
C845 C 0.95463 0.53144 0.91467 0.0
C846 C 0.94871 0.51129 0.94054 0.0
C847 C 0.92686 0.49348 0.93314 0.0
C848 C 0.91093 0.49572 0.8995 0.0
H849 H 0.96102 0.50951 0.96651 0.0
H850 H 0.80436 0.52646 0.63592 0.0
H851 H 0.26616 0.82743 0.93298 0.0
H852 H 0.28626 0.85401 0.85854 0.0
H853 H 0.30563 0.90935 0.98797 0.0
H854 H 0.28581 0.88291 0.06226 0.0
H855 H 0.2933 0.89657 0.80913 0.0
H856 H 0.36017 0.93579 0.99895 0.0
H857 H 0.37061 0.92571 0.09344 0.0
H858 H 0.34106 0.85704 0.02497 0.0
H859 H 0.33046 0.86672 0.93039 0.0
H860 H 0.39698 0.99018 0.7113 0.0
H861 H 0.36193 0.96634 0.75777 0.0
H862 H 0.38115 0.91624 0.77897 0.0
H863 H 0.41583 0.93987 0.7343 0.0
H864 H 0.37203 0.92851 0.88171 0.0
H865 H 0.33871 0.90705 0.6821 0.0
H866 H 0.32845 0.9138 0.58293 0.0
H867 H 0.29168 0.94203 0.66043 0.0
H868 H 0.30199 0.93572 0.76019 0.0
C869 C 0.2738 0.84529 0.94457 0.0
C870 C 0.2746 0.85317 0.00329 0.0
C871 C 0.28527 0.86047 0.90205 0.0
C872 C 0.29762 0.88364 0.91794 0.0
C873 C 0.29623 0.89155 0.97481 0.0
C874 C 0.28492 0.87644 0.01722 0.0
C875 C 0.31557 0.89878 0.88093 0.0
C876 C 0.31053 0.90374 0.82494 0.0
C877 C 0.33803 0.90784 0.90121 0.0
C878 C 0.34441 0.90196 0.95793 0.0
C879 C 0.35593 0.91856 0.00418 0.0
C880 C 0.36183 0.9129 0.05775 0.0
C881 C 0.35648 0.89074 0.06521 0.0
C882 C 0.34513 0.87417 0.01926 0.0
C883 C 0.33912 0.87972 0.96576 0.0
C884 C 0.39336 0.97384 0.72473 0.0
C885 C 0.40917 0.96695 0.71993 0.0
C886 C 0.3734 0.96026 0.75129 0.0
C887 C 0.36903 0.93959 0.7725 0.0
C888 C 0.38424 0.9322 0.76372 0.0
C889 C 0.40406 0.94573 0.73808 0.0
C890 C 0.35 0.92638 0.80912 0.0
C891 C 0.35486 0.92176 0.86572 0.0
C892 C 0.32753 0.91737 0.78851 0.0
C893 C 0.32134 0.92116 0.72863 0.0
C894 C 0.32862 0.91489 0.67803 0.0
C895 C 0.32275 0.91859 0.62171 0.0
C896 C 0.30948 0.9284 0.61539 0.0
C897 C 0.302 0.93447 0.6654 0.0
C898 C 0.30783 0.93082 0.72183 0.0
H899 H 0.30495 0.93125 0.57174 0.0
H900 H 0.36123 0.88643 0.10644 0.0
H901 H 0.51187 0.32015 0.07775 0.0
H902 H 0.51678 0.34697 0.00317 0.0
H903 H 0.44696 0.30826 0.94999 0.0
H904 H 0.44201 0.28173 0.02523 0.0
H905 H 0.4757 0.32498 0.8522 0.0
H906 H 0.46129 0.35148 0.03794 0.0
H907 H 0.46773 0.36267 0.14483 0.0
H908 H 0.53501 0.41273 0.11949 0.0
H909 H 0.52893 0.40183 0.01231 0.0
H910 H 0.45605 0.40533 0.71445 0.0
H911 H 0.45631 0.37589 0.77046 0.0
H912 H 0.52166 0.42345 0.84824 0.0
H913 H 0.52123 0.45308 0.7937 0.0
H914 H 0.49722 0.40192 0.93142 0.0
H915 H 0.51151 0.37885 0.74532 0.0
H916 H 0.5059 0.36864 0.63799 0.0
H917 H 0.44122 0.31288 0.66163 0.0
H918 H 0.44635 0.32289 0.76917 0.0
C919 C 0.49773 0.31715 0.0491 0.0
C920 C 0.47662 0.2988 0.05656 0.0
C921 C 0.50049 0.3325 0.00682 0.0
C922 C 0.48222 0.32964 0.97098 0.0
C923 C 0.4613 0.31074 0.97679 0.0
C924 C 0.45848 0.29561 0.01968 0.0
C925 C 0.48454 0.34716 0.93072 0.0
C926 C 0.48025 0.34177 0.8694 0.0
C927 C 0.49097 0.36922 0.95296 0.0
C928 C 0.49472 0.3757 0.01731 0.0
C929 C 0.47749 0.36478 0.05525 0.0
C930 C 0.48104 0.37114 0.11581 0.0
C931 C 0.50177 0.38838 0.13896 0.0
C932 C 0.51896 0.39937 0.10151 0.0
C933 C 0.51546 0.39316 0.04083 0.0
C934 C 0.47065 0.40946 0.74266 0.0
C935 C 0.48855 0.43166 0.74975 0.0
C936 C 0.47081 0.39254 0.77467 0.0
C937 C 0.48904 0.39731 0.81374 0.0
C938 C 0.50732 0.41927 0.81883 0.0
C939 C 0.50708 0.43622 0.78733 0.0
C940 C 0.48846 0.37992 0.85231 0.0
C941 C 0.49294 0.38527 0.91366 0.0
C942 C 0.48243 0.35793 0.82984 0.0
C943 C 0.47927 0.35171 0.76529 0.0
C944 C 0.49604 0.36448 0.72761 0.0
C945 C 0.49296 0.35872 0.66676 0.0
C946 C 0.47323 0.34011 0.64304 0.0
C947 C 0.45652 0.32725 0.68012 0.0
C948 C 0.45952 0.33294 0.74106 0.0
H949 H 0.47096 0.33564 0.59594 0.0
H950 H 0.50451 0.39321 0.18591 0.0
H951 H 0.20551 0.489 0.98108 0.0
H952 H 0.17544 0.47855 0.90474 0.0
H953 H 0.12754 0.43747 0.02588 0.0
H954 H 0.15742 0.44731 0.10137 0.0
H955 H 0.13307 0.43876 0.84962 0.0
H956 H 0.09713 0.46693 0.04249 0.0
H957 H 0.10982 0.49202 0.13378 0.0
H958 H 0.17523 0.52907 0.07187 0.0
H959 H 0.16265 0.50506 0.97902 0.0
H960 H 0.0299 0.43367 0.7463 0.0
H961 H 0.05822 0.42721 0.79563 0.0
H962 H 0.099 0.49852 0.84009 0.0
H963 H 0.07076 0.50474 0.79438 0.0
H964 H 0.09588 0.47835 0.93213 0.0
H965 H 0.11093 0.46924 0.73111 0.0
H966 H 0.10215 0.45238 0.62862 0.0
H967 H 0.08595 0.38836 0.69192 0.0
H968 H 0.09436 0.4048 0.79493 0.0
C969 C 0.18867 0.47689 0.99028 0.0
C970 C 0.18365 0.46939 0.04738 0.0
C971 C 0.17152 0.47087 0.94666 0.0
C972 C 0.14932 0.45756 0.96023 0.0
C973 C 0.14458 0.44786 0.01479 0.0
C974 C 0.16163 0.45365 0.05797 0.0
C975 C 0.13147 0.45809 0.92448 0.0
C976 C 0.12479 0.44729 0.86745 0.0
C977 C 0.12114 0.46973 0.94749 0.0
C978 C 0.12907 0.48374 0.00439 0.0
C979 C 0.11423 0.4804 0.04841 0.0
C980 C 0.12135 0.49461 0.10015 0.0
C981 C 0.14334 0.51207 0.10868 0.0
C982 C 0.15823 0.51545 0.06536 0.0
C983 C 0.1511 0.50156 0.0131 0.0
C984 C 0.04493 0.44782 0.76689 0.0
C985 C 0.04793 0.4696 0.76801 0.0
C986 C 0.06115 0.44418 0.79454 0.0
C987 C 0.0807 0.46239 0.82197 0.0
C988 C 0.08394 0.48415 0.82025 0.0
C989 C 0.0677 0.48768 0.79426 0.0
C990 C 0.0974 0.4593 0.85637 0.0
C991 C 0.10382 0.46951 0.91399 0.0
C992 C 0.10808 0.4481 0.83253 0.0
C993 C 0.103 0.43818 0.77074 0.0
C994 C 0.1053 0.45152 0.72321 0.0
C995 C 0.10043 0.44205 0.66502 0.0
C996 C 0.09342 0.41929 0.65377 0.0
C997 C 0.09133 0.40597 0.70071 0.0
C998 C 0.09616 0.41536 0.759 0.0
H999 H 0.08967 0.41199 0.60869 0.0
H1000 H 0.14884 0.52305 0.14876 0.0
H1001 H 0.68898 0.23161 0.98312 0.0
H1002 H 0.65787 0.20652 0.91196 0.0
H1003 H 0.68452 0.16191 0.89699 0.0
H1004 H 0.7156 0.1871 0.96606 0.0
H1005 H 0.66496 0.16098 0.79478 0.0
H1006 H 0.64607 0.1577 0.00307 0.0
H1007 H 0.64137 0.1742 0.09651 0.0
H1008 H 0.59622 0.18978 0.00457 0.0
H1009 H 0.60094 0.17348 0.91069 0.0
H1010 H 0.58838 0.04973 0.76432 0.0
H1011 H 0.61393 0.08583 0.81691 0.0
H1012 H 0.56814 0.10935 0.77926 0.0
H1013 H 0.54238 0.07316 0.72653 0.0
H1014 H 0.59325 0.12727 0.88995 0.0
H1015 H 0.60424 0.11936 0.68755 0.0
H1016 H 0.60729 0.09939 0.59886 0.0
H1017 H 0.66721 0.10516 0.67642 0.0
H1018 H 0.664 0.12425 0.76682 0.0
C1019 C 0.68858 0.21692 0.96249 0.0
C1020 C 0.70459 0.21121 0.97984 0.0
C1021 C 0.67069 0.20246 0.92249 0.0
C1022 C 0.66857 0.18204 0.90006 0.0
C1023 C 0.68569 0.17748 0.91359 0.0
C1024 C 0.70349 0.1919 0.95304 0.0
C1025 C 0.64772 0.16401 0.8684 0.0
C1026 C 0.64926 0.1537 0.81539 0.0
C1027 C 0.62694 0.1549 0.89401 0.0
C1028 C 0.62406 0.16463 0.95014 0.0
C1029 C 0.63526 0.16475 0.00304 0.0
C1030 C 0.63258 0.17404 0.05594 0.0
C1031 C 0.61853 0.18309 0.05644 0.0
C1032 C 0.60712 0.1828 0.00406 0.0
C1033 C 0.60979 0.17353 0.95105 0.0
C1034 C 0.5834 0.0623 0.76884 0.0
C1035 C 0.56349 0.05868 0.74064 0.0
C1036 C 0.59805 0.08295 0.79873 0.0
C1037 C 0.59317 0.10043 0.80035 0.0
C1038 C 0.57228 0.09613 0.77795 0.0
C1039 C 0.55751 0.07535 0.74817 0.0
C1040 C 0.61102 0.12364 0.81868 0.0
C1041 C 0.60878 0.13491 0.86847 0.0
C1042 C 0.63115 0.1337 0.78991 0.0
C1043 C 0.63376 0.12312 0.7344 0.0
C1044 C 0.61796 0.11619 0.68606 0.0
C1045 C 0.61964 0.10489 0.63557 0.0
C1046 C 0.63739 0.10094 0.63209 0.0
C1047 C 0.65345 0.10821 0.67921 0.0
C1048 C 0.65166 0.11921 0.73022 0.0
H1049 H 0.63876 0.09236 0.59274 0.0
H1050 H 0.61646 0.19028 0.09741 0.0
H1051 H 0.57292 0.72582 0.95006 0.0
H1052 H 0.57272 0.70362 0.86291 0.0
H1053 H 0.51689 0.70616 0.7831 0.0
H1054 H 0.51721 0.72859 0.8706 0.0
H1055 H 0.50745 0.66394 0.80021 0.0
H1056 H 0.56317 0.72504 0.70798 0.0
H1057 H 0.59833 0.76034 0.69994 0.0
H1058 H 0.63504 0.72818 0.75116 0.0
H1059 H 0.60012 0.69277 0.76042 0.0
H1060 H 0.52585 0.5847 0.5942 0.0
H1061 H 0.53157 0.62275 0.61232 0.0
H1062 H 0.53883 0.61815 0.80008 0.0
H1063 H 0.53342 0.58061 0.78281 0.0
H1064 H 0.5683 0.66465 0.6914 0.0
H1065 H 0.49874 0.6278 0.85254 0.0
H1066 H 0.46474 0.59184 0.86506 0.0
H1067 H 0.45614 0.57633 0.67717 0.0
H1068 H 0.48982 0.61241 0.66337 0.0
C1069 C 0.56125 0.72244 0.91276 0.0
C1070 C 0.54505 0.72878 0.9168 0.0
C1071 C 0.56118 0.70984 0.86285 0.0
C1072 C 0.54478 0.70322 0.81641 0.0
C1073 C 0.52975 0.71119 0.81828 0.0
C1074 C 0.52999 0.72405 0.86807 0.0
C1075 C 0.54074 0.68451 0.77351 0.0
C1076 C 0.52056 0.66429 0.77506 0.0
C1077 C 0.5578 0.68496 0.74055 0.0
C1078 C 0.57895 0.7062 0.73497 0.0
C1079 C 0.57873 0.72551 0.7179 0.0
C1080 C 0.59863 0.74555 0.71306 0.0
C1081 C 0.61891 0.7465 0.72503 0.0
C1082 C 0.61932 0.7274 0.74181 0.0
C1083 C 0.59946 0.70732 0.74672 0.0
C1084 C 0.52913 0.592 0.6392 0.0
C1085 C 0.52894 0.57952 0.68709 0.0
C1086 C 0.53242 0.61372 0.64939 0.0
C1087 C 0.5354 0.62304 0.70752 0.0
C1088 C 0.53641 0.61111 0.75494 0.0
C1089 C 0.53324 0.5896 0.7449 0.0
C1090 C 0.5355 0.64427 0.72066 0.0
C1091 C 0.55492 0.66471 0.71425 0.0
C1092 C 0.51776 0.64412 0.74932 0.0
C1093 C 0.49689 0.6228 0.75696 0.0
C1094 C 0.48949 0.61683 0.81383 0.0
C1095 C 0.47029 0.59639 0.82117 0.0
C1096 C 0.45833 0.58176 0.77198 0.0
C1097 C 0.46545 0.58763 0.71527 0.0
C1098 C 0.4846 0.60808 0.70766 0.0
H1099 H 0.44353 0.5659 0.77782 0.0
H1100 H 0.6343 0.76203 0.72128 0.0
H1101 H 0.53105 0.21525 0.27315 0.0
H1102 H 0.52885 0.18695 0.33851 0.0
H1103 H 0.45932 0.16331 0.35475 0.0
H1104 H 0.46146 0.19171 0.28878 0.0
H1105 H 0.48544 0.16081 0.46258 0.0
H1106 H 0.46673 0.13791 0.25496 0.0
H1107 H 0.47316 0.1439 0.14932 0.0
H1108 H 0.53558 0.14611 0.17533 0.0
H1109 H 0.52975 0.14064 0.2815 0.0
H1110 H 0.47177 0.05311 0.53947 0.0
H1111 H 0.46646 0.08348 0.50327 0.0
H1112 H 0.52646 0.10777 0.41067 0.0
H1113 H 0.53093 0.07706 0.4436 0.0
H1114 H 0.49801 0.10729 0.33993 0.0
H1115 H 0.51931 0.13484 0.54771 0.0
H1116 H 0.51568 0.13386 0.65534 0.0
H1117 H 0.44999 0.12425 0.63042 0.0
H1118 H 0.45332 0.12523 0.52242 0.0
C1119 C 0.51553 0.20466 0.29269 0.0
C1120 C 0.49641 0.2056 0.2758 0.0
C1121 C 0.51425 0.18843 0.32981 0.0
C1122 C 0.49385 0.17282 0.35068 0.0
C1123 C 0.47522 0.17522 0.33912 0.0
C1124 C 0.47649 0.19152 0.30172 0.0
C1125 C 0.49153 0.15221 0.37578 0.0
C1126 C 0.48785 0.14886 0.4358 0.0
C1127 C 0.49474 0.13671 0.3407 0.0
C1128 C 0.49787 0.13902 0.27633 0.0
C1129 C 0.48188 0.13979 0.23824 0.0
C1130 C 0.48542 0.1431 0.17826 0.0
C1131 C 0.50478 0.14542 0.15563 0.0
C1132 C 0.52059 0.14432 0.19292 0.0
C1133 C 0.51717 0.1411 0.25301 0.0
C1134 C 0.48383 0.06509 0.51172 0.0
C1135 C 0.50162 0.06258 0.49383 0.0
C1136 C 0.48087 0.08254 0.4912 0.0
C1137 C 0.49606 0.09811 0.45393 0.0
C1138 C 0.51427 0.09594 0.43845 0.0
C1139 C 0.51687 0.07835 0.45755 0.0
C1140 C 0.49298 0.11618 0.42823 0.0
C1141 C 0.49542 0.11899 0.36724 0.0
C1142 C 0.48871 0.13116 0.46261 0.0
C1143 C 0.48646 0.12984 0.52713 0.0
C1144 C 0.50402 0.13229 0.56521 0.0
C1145 C 0.50202 0.1318 0.62631 0.0
C1146 C 0.48254 0.12888 0.64979 0.0
C1147 C 0.46504 0.12645 0.61218 0.0
C1148 C 0.46699 0.12703 0.55107 0.0
H1149 H 0.48099 0.12863 0.69709 0.0
H1150 H 0.50751 0.14804 0.10921 0.0
H1151 H 0.29467 0.45832 0.2251 0.0
H1152 H 0.31972 0.45764 0.30177 0.0
H1153 H 0.32798 0.51898 0.38634 0.0
H1154 H 0.30296 0.51978 0.30829 0.0
H1155 H 0.36674 0.52365 0.3622 0.0
H1156 H 0.30572 0.47027 0.45996 0.0
H1157 H 0.26946 0.43666 0.47142 0.0
H1158 H 0.29404 0.39437 0.40564 0.0
H1159 H 0.33037 0.42772 0.39293 0.0
H1160 H 0.44923 0.52203 0.5508 0.0
H1161 H 0.4158 0.52196 0.51507 0.0
H1162 H 0.39453 0.45978 0.41095 0.0
H1163 H 0.42718 0.45877 0.45191 0.0
H1164 H 0.36075 0.4585 0.46357 0.0
H1165 H 0.41897 0.51434 0.34667 0.0
H1166 H 0.45691 0.54686 0.35133 0.0
H1167 H 0.43725 0.5844 0.46513 0.0
H1168 H 0.39909 0.55204 0.46083 0.0
C1169 C 0.30119 0.47115 0.26138 0.0
C1170 C 0.29701 0.48907 0.26127 0.0
C1171 C 0.31545 0.47076 0.30528 0.0
C1172 C 0.32568 0.48824 0.34994 0.0
C1173 C 0.32019 0.50532 0.35231 0.0
C1174 C 0.30582 0.50568 0.30821 0.0
C1175 C 0.34441 0.49017 0.38774 0.0
C1176 C 0.36527 0.50957 0.3855 0.0
C1177 C 0.34263 0.47176 0.41765 0.0
C1178 C 0.32079 0.45156 0.42525 0.0
C1179 C 0.30337 0.45382 0.44753 0.0
C1180 C 0.2828 0.4348 0.45432 0.0
C1181 C 0.27944 0.41339 0.43921 0.0
C1182 C 0.29667 0.41096 0.41736 0.0
C1183 C 0.31728 0.42992 0.41047 0.0
C1184 C 0.43768 0.50868 0.519 0.0
C1185 C 0.44094 0.49077 0.5023 0.0
C1186 C 0.41853 0.50858 0.49885 0.0
C1187 C 0.40289 0.49116 0.45915 0.0
C1188 C 0.40643 0.47345 0.44137 0.0
C1189 C 0.42519 0.47306 0.46367 0.0
C1190 C 0.38293 0.49149 0.43579 0.0
C1191 C 0.36199 0.4726 0.44086 0.0
C1192 C 0.38454 0.51037 0.40886 0.0
C1193 C 0.40627 0.53082 0.40355 0.0
C1194 C 0.4227 0.52966 0.37199 0.0
C1195 C 0.44429 0.54797 0.37509 0.0
C1196 C 0.44959 0.56757 0.40929 0.0
C1197 C 0.43316 0.56911 0.43916 0.0
C1198 C 0.4115 0.55088 0.43595 0.0
H1199 H 0.46632 0.58168 0.41205 0.0
H1200 H 0.2635 0.39869 0.44449 0.0
H1201 H 0.80028 0.35034 0.21746 0.0
H1202 H 0.83032 0.37467 0.29101 0.0
H1203 H 0.84751 0.32294 0.30803 0.0
H1204 H 0.81719 0.2984 0.23462 0.0
H1205 H 0.85661 0.35205 0.41565 0.0
H1206 H 0.8707 0.35538 0.21006 0.0
H1207 H 0.86168 0.35741 0.10526 0.0
H1208 H 0.869 0.4224 0.14443 0.0
H1209 H 0.87726 0.42041 0.2501 0.0
H1210 H 0.96954 0.43733 0.51123 0.0
H1211 H 0.93615 0.40368 0.46646 0.0
H1212 H 0.91479 0.44616 0.38595 0.0
H1213 H 0.94867 0.47932 0.42666 0.0
H1214 H 0.90945 0.41703 0.30845 0.0
H1215 H 0.89071 0.41093 0.5173 0.0
H1216 H 0.89638 0.40643 0.62274 0.0
H1217 H 0.89857 0.34645 0.57626 0.0
H1218 H 0.89279 0.35057 0.47053 0.0
C1219 C 0.80982 0.34381 0.23898 0.0
C1220 C 0.80658 0.32262 0.22039 0.0
C1221 C 0.82701 0.35772 0.28073 0.0
C1222 C 0.84137 0.35073 0.30391 0.0
C1223 C 0.83661 0.32862 0.29052 0.0
C1224 C 0.81926 0.3146 0.24881 0.0
C1225 C 0.86315 0.36769 0.333 0.0
C1226 C 0.86831 0.36621 0.39233 0.0
C1227 C 0.87845 0.38597 0.30212 0.0
C1228 C 0.87442 0.38766 0.23816 0.0
C1229 C 0.87027 0.37006 0.19644 0.0
C1230 C 0.86531 0.37121 0.13683 0.0
C1231 C 0.86483 0.39004 0.1181 0.0
C1232 C 0.86936 0.40781 0.159 0.0
C1233 C 0.87416 0.40667 0.21881 0.0
C1234 C 0.95757 0.43927 0.48402 0.0
C1235 C 0.96162 0.46076 0.47175 0.0
C1236 C 0.93841 0.42009 0.45884 0.0
C1237 C 0.92269 0.42223 0.4229 0.0
C1238 C 0.92663 0.44388 0.41277 0.0
C1239 C 0.94596 0.46287 0.4362 0.0
C1240 C 0.90261 0.40238 0.39296 0.0
C1241 C 0.89786 0.40303 0.33245 0.0
C1242 C 0.8878 0.38338 0.42284 0.0
C1243 C 0.89157 0.38119 0.4862 0.0
C1244 C 0.89256 0.39688 0.52966 0.0
C1245 C 0.89575 0.39436 0.58947 0.0
C1246 C 0.89798 0.37622 0.60619 0.0
C1247 C 0.8969 0.36051 0.56322 0.0
C1248 C 0.8936 0.36289 0.50342 0.0
H1249 H 0.90046 0.37419 0.65236 0.0
H1250 H 0.86095 0.39088 0.07192 0.0
H1251 H 0.57523 0.85796 0.14921 0.0
H1252 H 0.57713 0.88082 0.23711 0.0
H1253 H 0.52119 0.82316 0.30225 0.0
H1254 H 0.51945 0.80013 0.21422 0.0
H1255 H 0.54331 0.88784 0.25231 0.0
H1256 H 0.52239 0.83456 0.45679 0.0
H1257 H 0.52974 0.80618 0.4984 0.0
H1258 H 0.58944 0.83124 0.40623 0.0
H1259 H 0.58264 0.85997 0.36479 0.0
H1260 H 0.50355 0.93518 0.44936 0.0
H1261 H 0.50489 0.90356 0.40129 0.0
H1262 H 0.56885 0.92593 0.49093 0.0
H1263 H 0.56736 0.95741 0.54079 0.0
H1264 H 0.54465 0.87911 0.46839 0.0
H1265 H 0.56708 0.9458 0.36169 0.0
H1266 H 0.5619 0.97567 0.32099 0.0
H1267 H 0.50413 0.9261 0.21583 0.0
H1268 H 0.5087 0.8959 0.25692 0.0
C1269 C 0.56383 0.85002 0.18329 0.0
C1270 C 0.5471 0.82738 0.17495 0.0
C1271 C 0.56488 0.86308 0.23337 0.0
C1272 C 0.54918 0.85377 0.27599 0.0
C1273 C 0.53358 0.83067 0.27018 0.0
C1274 C 0.5326 0.81752 0.21999 0.0
C1275 C 0.54708 0.8689 0.3206 0.0
C1276 C 0.54367 0.88589 0.29953 0.0
C1277 C 0.54753 0.8664 0.38224 0.0
C1278 C 0.55185 0.84926 0.40716 0.0
C1279 C 0.53712 0.83406 0.44553 0.0
C1280 C 0.54119 0.8179 0.46908 0.0
C1281 C 0.56 0.81685 0.45479 0.0
C1282 C 0.57482 0.832 0.41705 0.0
C1283 C 0.57084 0.8482 0.39342 0.0
C1284 C 0.51764 0.93304 0.46016 0.0
C1285 C 0.53561 0.94907 0.4977 0.0
C1286 C 0.51833 0.9149 0.43278 0.0
C1287 C 0.53721 0.91273 0.44136 0.0
C1288 C 0.55419 0.92738 0.48342 0.0
C1289 C 0.55335 0.94541 0.51169 0.0
C1290 C 0.54072 0.89777 0.39966 0.0
C1291 C 0.54429 0.88089 0.42111 0.0
C1292 C 0.54074 0.90045 0.33807 0.0
C1293 C 0.53815 0.9186 0.31266 0.0
C1294 C 0.55321 0.94127 0.33013 0.0
C1295 C 0.55036 0.95826 0.30704 0.0
C1296 C 0.53267 0.95279 0.26592 0.0
C1297 C 0.51782 0.93032 0.2477 0.0
C1298 C 0.52052 0.91326 0.2709 0.0
H1299 H 0.5305 0.96596 0.2481 0.0
H1300 H 0.56312 0.80433 0.47306 0.0
H1301 H 0.73128 0.57883 0.13959 0.0
H1302 H 0.70889 0.58124 0.21612 0.0
H1303 H 0.70593 0.52357 0.29312 0.0
H1304 H 0.72779 0.52061 0.214 0.0
H1305 H 0.66675 0.51661 0.28049 0.0
H1306 H 0.73203 0.57843 0.36871 0.0
H1307 H 0.76768 0.61407 0.37563 0.0
H1308 H 0.73474 0.64878 0.31414 0.0
H1309 H 0.69892 0.61331 0.30599 0.0
H1310 H 0.6154 0.56614 0.50313 0.0
H1311 H 0.64866 0.56795 0.46462 0.0
H1312 H 0.61199 0.53577 0.29821 0.0
H1313 H 0.5787 0.53325 0.33692 0.0
H1314 H 0.67464 0.58606 0.37977 0.0
H1315 H 0.62628 0.50072 0.23805 0.0
H1316 H 0.5921 0.46409 0.24198 0.0
H1317 H 0.59449 0.47456 0.4308 0.0
H1318 H 0.62885 0.51109 0.42814 0.0
C1319 C 0.72642 0.56707 0.17391 0.0
C1320 C 0.73124 0.54951 0.17083 0.0
C1321 C 0.71366 0.56852 0.21804 0.0
C1322 C 0.70569 0.55269 0.26106 0.0
C1323 C 0.71183 0.53601 0.26051 0.0
C1324 C 0.72453 0.53445 0.21575 0.0
C1325 C 0.68881 0.55206 0.30104 0.0
C1326 C 0.66865 0.53179 0.3027 0.0
C1327 C 0.69126 0.57167 0.33157 0.0
C1328 C 0.71276 0.59314 0.33651 0.0
C1329 C 0.73239 0.59363 0.3563 0.0
C1330 C 0.75263 0.61382 0.36049 0.0
C1331 C 0.75347 0.63367 0.34528 0.0
C1332 C 0.73406 0.63339 0.32594 0.0
C1333 C 0.71377 0.61325 0.32164 0.0
C1334 C 0.61452 0.5597 0.45809 0.0
C1335 C 0.59431 0.54936 0.42331 0.0
C1336 C 0.63355 0.56068 0.43616 0.0
C1337 C 0.63277 0.55146 0.37896 0.0
C1338 C 0.61293 0.54237 0.3431 0.0
C1339 C 0.5939 0.5411 0.36518 0.0
C1340 C 0.6524 0.55089 0.35658 0.0
C1341 C 0.67296 0.57087 0.35831 0.0
C1342 C 0.65059 0.53087 0.33075 0.0
C1343 C 0.63008 0.50873 0.3328 0.0
C1344 C 0.6196 0.49515 0.28045 0.0
C1345 C 0.60017 0.47441 0.28245 0.0
C1346 C 0.59111 0.46703 0.33659 0.0
C1347 C 0.60149 0.48033 0.38888 0.0
C1348 C 0.62093 0.50106 0.38714 0.0
H1349 H 0.57605 0.45098 0.33802 0.0
H1350 H 0.76916 0.64928 0.34854 0.0
H1351 H 0.15132 0.73709 0.19879 0.0
H1352 H 0.13574 0.71421 0.28174 0.0
H1353 H 0.20127 0.72978 0.34633 0.0
H1354 H 0.21685 0.75164 0.26038 0.0
H1355 H 0.17664 0.68834 0.34951 0.0
H1356 H 0.16822 0.74803 0.42357 0.0
H1357 H 0.1589 0.7782 0.42465 0.0
H1358 H 0.09015 0.72945 0.38431 0.0
H1359 H 0.09908 0.699 0.38207 0.0
H1360 H 0.08298 0.62775 0.57868 0.0
H1361 H 0.11398 0.66189 0.54418 0.0
H1362 H 0.11466 0.62392 0.38904 0.0
H1363 H 0.08506 0.58984 0.42451 0.0
H1364 H 0.11395 0.68318 0.45802 0.0
H1365 H 0.16009 0.6465 0.32157 0.0
H1366 H 0.17456 0.62063 0.33415 0.0
H1367 H 0.17558 0.62994 0.52303 0.0
H1368 H 0.16119 0.65584 0.51159 0.0
C1369 C 0.16251 0.73582 0.23081 0.0
C1370 C 0.18533 0.74595 0.22223 0.0
C1371 C 0.15357 0.72293 0.279 0.0
C1372 C 0.16725 0.72027 0.32108 0.0
C1373 C 0.19028 0.73148 0.31459 0.0
C1374 C 0.19923 0.74419 0.26568 0.0
C1375 C 0.15708 0.70392 0.36759 0.0
C1376 C 0.16308 0.68739 0.37364 0.0
C1377 C 0.1399 0.70298 0.40124 0.0
C1378 C 0.13436 0.72122 0.40239 0.0
C1379 C 0.15113 0.74374 0.41451 0.0
C1380 C 0.14591 0.7609 0.41539 0.0
C1381 C 0.12395 0.75575 0.40449 0.0
C1382 C 0.10716 0.73342 0.39277 0.0
C1383 C 0.11229 0.71619 0.39179 0.0
C1384 C 0.0902 0.62657 0.53811 0.0
C1385 C 0.08137 0.60597 0.50433 0.0
C1386 C 0.1078 0.64618 0.51818 0.0
C1387 C 0.11676 0.64572 0.46386 0.0
C1388 C 0.10858 0.62493 0.43168 0.0
C1389 C 0.09139 0.60531 0.45202 0.0
C1390 C 0.13275 0.66696 0.43726 0.0
C1391 C 0.1278 0.68438 0.43483 0.0
C1392 C 0.15144 0.66919 0.40872 0.0
C1393 C 0.15947 0.65305 0.41569 0.0
C1394 C 0.16341 0.64302 0.36578 0.0
C1395 C 0.17156 0.62831 0.37269 0.0
C1396 C 0.17596 0.6236 0.42931 0.0
C1397 C 0.17206 0.63346 0.47914 0.0
C1398 C 0.16384 0.64811 0.47247 0.0
H1399 H 0.18252 0.61241 0.43447 0.0
H1400 H 0.11995 0.76905 0.40519 0.0
loop_
_geom_bond_atom_site_label_1
_geom_bond_atom_site_label_2
_geom_bond_distance
_geom_bond_site_symmetry_2
_ccdc_geom_bond_type
H0 C6 0.930 . S
H1 C9 0.931 . S
H2 C11 0.931 . S
H3 C13 0.930 . S
H4 C15 0.930 . S
H5 C17 0.931 . S
C6 H0 0.930 . S
C6 C7 1.380 . S
C6 C8 1.394 . S
C7 C6 1.380 . S
C7 C11 1.382 . S
C8 C6 1.394 . S
C8 C9 1.400 . S
C9 H1 0.931 . S
C9 C8 1.400 . S
C9 C10 1.375 . S
C10 C9 1.375 . S
C10 C11 1.415 . S
C10 C12 1.501 . S
C11 H2 0.931 . S
C11 C7 1.382 . S
C11 C10 1.415 . S
C12 C10 1.501 . S
C12 C13 1.384 . S
C12 C17 1.408 . S
C13 H3 0.930 . S
C13 C12 1.384 . S
C13 C14 1.389 . S
C14 C13 1.389 . S
C14 C15 1.405 . S
C15 H4 0.930 . S
C15 C14 1.405 . S
C15 C16 1.364 . S
C16 C15 1.364 . S
C16 C17 1.400 . S
C17 H5 0.931 . S
C17 C12 1.408 . S
C17 C16 1.400 . S
H18 C24 0.930 . S
H19 C27 0.931 . S
H20 C29 0.931 . S
H21 C31 0.930 . S
H22 C33 0.930 . S
H23 C35 0.931 . S
C24 H18 0.930 . S
C24 C25 1.380 . S
C24 C26 1.394 . S
C25 C24 1.380 . S
C25 C29 1.382 . S
C26 C24 1.394 . S
C26 C27 1.400 . S
C27 H19 0.931 . S
C27 C26 1.400 . S
C27 C28 1.375 . S
C28 C27 1.375 . S
C28 C29 1.415 . S
C28 C30 1.501 . S
C29 H20 0.931 . S
C29 C25 1.382 . S
C29 C28 1.415 . S
C30 C28 1.501 . S
C30 C31 1.384 . S
C30 C35 1.408 . S
C31 H21 0.930 . S
C31 C30 1.384 . S
C31 C32 1.389 . S
C32 C31 1.389 . S
C32 C33 1.405 . S
C33 H22 0.930 . S
C33 C32 1.405 . S
C33 C34 1.364 . S
C34 C33 1.364 . S
C34 C35 1.400 . S
C35 H23 0.931 . S
C35 C30 1.408 . S
C35 C34 1.400 . S
H36 C42 0.930 . S
H37 C45 0.931 . S
H38 C47 0.931 . S
H39 C49 0.930 . S
H40 C51 0.930 . S
H41 C53 0.931 . S
C42 H36 0.930 . S
C42 C43 1.380 1_554 S
C42 C44 1.394 . S
C43 C42 1.380 1_556 S
C43 C47 1.382 . S
C44 C42 1.394 . S
C44 C45 1.400 . S
C45 H37 0.931 . S
C45 C44 1.400 . S
C45 C46 1.375 . S
C46 C45 1.375 . S
C46 C47 1.415 1_554 S
C46 C48 1.501 . S
C47 H38 0.931 . S
C47 C43 1.382 . S
C47 C46 1.415 1_556 S
C48 C46 1.501 . S
C48 C49 1.384 1_554 S
C48 C53 1.408 . S
C49 H39 0.930 . S
C49 C48 1.384 1_556 S
C49 C50 1.389 . S
C50 C49 1.389 . S
C50 C51 1.405 1_556 S
C51 H40 0.930 . S
C51 C50 1.405 1_554 S
C51 C52 1.364 . S
C52 C51 1.364 . S
C52 C53 1.400 . S
C53 H41 0.931 . S
C53 C48 1.408 . S
C53 C52 1.400 . S
H54 C60 0.930 . S
H55 C63 0.931 . S
H56 C65 0.931 . S
H57 C67 0.930 . S
H58 C69 0.930 . S
H59 C71 0.931 . S
C60 H54 0.930 . S
C60 C61 1.380 1_554 S
C60 C62 1.394 . S
C61 C60 1.380 1_556 S
C61 C65 1.382 . S
C62 C60 1.394 . S
C62 C63 1.400 . S
C63 H55 0.931 . S
C63 C62 1.400 . S
C63 C64 1.375 . S
C64 C63 1.375 . S
C64 C65 1.415 1_554 S
C64 C66 1.501 . S
C65 H56 0.931 . S
C65 C61 1.382 . S
C65 C64 1.415 1_556 S
C66 C64 1.501 . S
C66 C67 1.384 1_554 S
C66 C71 1.408 . S
C67 H57 0.930 . S
C67 C66 1.384 1_556 S
C67 C68 1.389 . S
C68 C67 1.389 . S
C68 C69 1.405 1_556 S
C69 H58 0.930 . S
C69 C68 1.405 1_554 S
C69 C70 1.364 . S
C70 C69 1.364 . S
C70 C71 1.400 . S
C71 H59 0.931 . S
C71 C66 1.408 . S
C71 C70 1.400 . S
H72 C78 0.930 . S
H73 C81 0.931 . S
H74 C83 0.931 . S
H75 C85 0.930 . S
H76 C87 0.930 . S
H77 C89 0.931 . S
C78 H72 0.930 . S
C78 C79 1.380 . S
C78 C80 1.394 . S
C79 C78 1.380 . S
C79 C83 1.382 . S
C80 C78 1.394 . S
C80 C81 1.400 . S
C81 H73 0.931 . S
C81 C80 1.400 . S
C81 C82 1.375 . S
C82 C81 1.375 . S
C82 C83 1.415 . S
C82 C84 1.501 . S
C83 H74 0.931 . S
C83 C79 1.382 . S
C83 C82 1.415 . S
C84 C82 1.501 . S
C84 C85 1.384 . S
C84 C89 1.408 . S
C85 H75 0.930 . S
C85 C84 1.384 . S
C85 C86 1.389 . S
C86 C85 1.389 . S
C86 C87 1.405 . S
C87 H76 0.930 . S
C87 C86 1.405 . S
C87 C88 1.364 . S
C88 C87 1.364 . S
C88 C89 1.400 . S
C89 H77 0.931 . S
C89 C84 1.408 . S
C89 C88 1.400 . S
H90 C96 0.930 . S
H91 C99 0.931 . S
H92 C101 0.931 . S
H93 C103 0.930 . S
H94 C105 0.930 . S
H95 C107 0.931 . S
C96 H90 0.930 . S
C96 C97 1.380 . S
C96 C98 1.394 . S
C97 C96 1.380 . S
C97 C101 1.382 . S
C98 C96 1.394 . S
C98 C99 1.400 . S
C99 H91 0.931 . S
C99 C98 1.400 . S
C99 C100 1.375 . S
C100 C99 1.375 . S
C100 C101 1.415 . S
C100 C102 1.501 . S
C101 H92 0.931 . S
C101 C97 1.382 . S
C101 C100 1.415 . S
C102 C100 1.501 . S
C102 C103 1.384 . S
C102 C107 1.408 . S
C103 H93 0.930 . S
C103 C102 1.384 . S
C103 C104 1.389 . S
C104 C103 1.389 . S
C104 C105 1.405 . S
C105 H94 0.930 . S
C105 C104 1.405 . S
C105 C106 1.364 . S
C106 C105 1.364 . S
C106 C107 1.400 . S
C107 H95 0.931 . S
C107 C102 1.408 . S
C107 C106 1.400 . S
C108 O135 1.312 . S
C108 O136 1.208 . S
C109 O130 1.331 . S
C109 O133 1.244 . S
C110 O132 1.264 . S
C110 O134 1.273 . S
Mg111 O113 1.936 1_455 S
Mg111 O120 2.081 1_455 S
Mg111 O122 2.023 . S
Mg111 O126 2.031 1_455 S
Mg111 O135 2.291 . S
Mg112 O113 1.963 . S
Mg112 O123 1.942 . S
Mg112 O124 1.955 1_655 S
Mg112 O131 1.986 . S
O113 Mg111 1.936 1_655 S
O113 Mg112 1.963 . S
O113 Mg114 1.915 1_655 S
Mg114 O113 1.915 1_455 S
Mg114 O115 1.915 . S
Mg114 O119 2.013 . S
Mg114 O125 2.114 1_455 S
Mg114 O129 2.013 1_455 S
Mg114 O135 2.114 . S
O115 Mg114 1.915 . S
O115 Mg116 1.936 . S
O115 Mg117 1.963 . S
Mg116 O115 1.936 . S
Mg116 O125 2.291 1_455 S
Mg116 O130 2.081 . S
Mg116 O132 2.023 1_455 S
Mg116 O136 2.031 . S
Mg117 O115 1.963 . S
Mg117 O121 1.986 . S
Mg117 O133 1.942 . S
Mg117 O134 1.955 1_455 S
C118 O129 1.191 . S
C118 O131 1.307 . S
O119 Mg114 2.013 . S
O119 C138 1.191 . S
O120 Mg111 2.081 1_655 S
O120 C128 1.331 . S
O121 Mg117 1.986 . S
O121 C138 1.307 . S
O122 Mg111 2.023 . S
O122 C137 1.264 . S
O123 Mg112 1.942 . S
O123 C128 1.244 . S
O124 Mg112 1.955 1_455 S
O124 C137 1.273 . S
O125 Mg114 2.114 1_655 S
O125 Mg116 2.291 1_655 S
O125 C127 1.312 . S
O126 Mg111 2.031 1_655 S
O126 C127 1.208 . S
C127 O125 1.312 . S
C127 O126 1.208 . S
C128 O120 1.331 . S
C128 O123 1.244 . S
O129 Mg114 2.013 1_655 S
O129 C118 1.191 . S
O130 C109 1.331 . S
O130 Mg116 2.081 . S
O131 Mg112 1.986 . S
O131 C118 1.307 . S
O132 C110 1.264 . S
O132 Mg116 2.023 1_655 S
O133 C109 1.244 . S
O133 Mg117 1.942 . S
O134 C110 1.273 . S
O134 Mg117 1.955 1_655 S
O135 C108 1.312 . S
O135 Mg111 2.291 . S
O135 Mg114 2.114 . S
O136 C108 1.208 . S
O136 Mg116 2.031 . S
C137 O122 1.264 . S
C137 O124 1.273 . S
C138 O119 1.191 . S
C138 O121 1.307 . S
C139 O166 1.312 . S
C139 O167 1.208 . S
C140 O161 1.331 . S
C140 O164 1.244 . S
C141 O163 1.264 . S
C141 O165 1.273 . S
Mg142 O144 1.936 . S
Mg142 O151 2.081 1_545 S
Mg142 O153 2.023 . S
Mg142 O157 2.031 1_545 S
Mg142 O166 2.291 . S
Mg143 O144 1.963 . S
Mg143 O154 1.942 1_545 S
Mg143 O155 1.955 . S
Mg143 O162 1.986 1_545 S
O144 Mg142 1.936 . S
O144 Mg143 1.963 . S
O144 Mg145 1.915 . S
Mg145 O144 1.915 . S
Mg145 O146 1.915 . S
Mg145 O150 2.013 . S
Mg145 O156 2.114 1_545 S
Mg145 O160 2.013 1_545 S
Mg145 O166 2.114 . S
O146 Mg145 1.915 . S
O146 Mg147 1.936 . S
O146 Mg148 1.963 . S
Mg147 O146 1.936 . S
Mg147 O156 2.291 1_545 S
Mg147 O161 2.081 . S
Mg147 O163 2.023 1_545 S
Mg147 O167 2.031 . S
Mg148 O146 1.963 . S
Mg148 O152 1.986 . S
Mg148 O164 1.942 . S
Mg148 O165 1.955 1_545 S
C149 O160 1.191 . S
C149 O162 1.307 . S
O150 Mg145 2.013 . S
O150 C169 1.191 . S
O151 Mg142 2.081 1_565 S
O151 C159 1.331 . S
O152 Mg148 1.986 . S
O152 C169 1.307 . S
O153 Mg142 2.023 . S
O153 C168 1.264 . S
O154 Mg143 1.942 1_565 S
O154 C159 1.244 . S
O155 Mg143 1.955 . S
O155 C168 1.273 . S
O156 Mg145 2.114 1_565 S
O156 Mg147 2.291 1_565 S
O156 C158 1.312 . S
O157 Mg142 2.031 1_565 S
O157 C158 1.208 . S
C158 O156 1.312 . S
C158 O157 1.208 . S
C159 O151 1.331 . S
C159 O154 1.244 . S
O160 Mg145 2.013 1_565 S
O160 C149 1.191 . S
O161 C140 1.331 . S
O161 Mg147 2.081 . S
O162 Mg143 1.986 1_565 S
O162 C149 1.307 . S
O163 C141 1.264 . S
O163 Mg147 2.023 1_565 S
O164 C140 1.244 . S
O164 Mg148 1.942 . S
O165 C141 1.273 . S
O165 Mg148 1.955 1_565 S
O166 C139 1.312 . S
O166 Mg142 2.291 . S
O166 Mg145 2.114 . S
O167 C139 1.208 . S
O167 Mg147 2.031 . S
C168 O153 1.264 . S
C168 O155 1.273 . S
C169 O150 1.191 . S
C169 O152 1.307 . S
C170 O197 1.312 . S
C170 O198 1.208 . S
C171 O192 1.331 . S
C171 O195 1.244 . S
C172 O194 1.264 . S
C172 O196 1.273 . S
Mg173 O175 1.936 . S
Mg173 O182 2.081 . S
Mg173 O184 2.023 . S
Mg173 O188 2.031 . S
Mg173 O197 2.291 . S
Mg174 O175 1.963 . S
Mg174 O185 1.942 . S
Mg174 O186 1.955 . S
Mg174 O193 1.986 . S
O175 Mg173 1.936 . S
O175 Mg174 1.963 . S
O175 Mg176 1.915 . S
Mg176 O175 1.915 . S
Mg176 O177 1.915 . S
Mg176 O181 2.013 . S
Mg176 O187 2.114 . S
Mg176 O191 2.013 . S
Mg176 O197 2.114 . S
O177 Mg176 1.915 . S
O177 Mg178 1.936 . S
O177 Mg179 1.963 . S
Mg178 O177 1.936 . S
Mg178 O187 2.291 . S
Mg178 O192 2.081 . S
Mg178 O194 2.023 . S
Mg178 O198 2.031 . S
Mg179 O177 1.963 . S
Mg179 O183 1.986 . S
Mg179 O195 1.942 . S
Mg179 O196 1.955 . S
C180 O191 1.191 . S
C180 O193 1.307 . S
O181 Mg176 2.013 . S
O181 C200 1.191 . S
O182 Mg173 2.081 . S
O182 C190 1.331 . S
O183 Mg179 1.986 . S
O183 C200 1.307 . S
O184 Mg173 2.023 . S
O184 C199 1.264 . S
O185 Mg174 1.942 . S
O185 C190 1.244 . S
O186 Mg174 1.955 . S
O186 C199 1.273 . S
O187 Mg176 2.114 . S
O187 Mg178 2.291 . S
O187 C189 1.312 . S
O188 Mg173 2.031 . S
O188 C189 1.208 . S
C189 O187 1.312 . S
C189 O188 1.208 . S
C190 O182 1.331 . S
C190 O185 1.244 . S
O191 Mg176 2.013 . S
O191 C180 1.191 . S
O192 C171 1.331 . S
O192 Mg178 2.081 . S
O193 Mg174 1.986 . S
O193 C180 1.307 . S
O194 C172 1.264 . S
O194 Mg178 2.023 . S
O195 C171 1.244 . S
O195 Mg179 1.942 . S
O196 C172 1.273 . S
O196 Mg179 1.955 . S
O197 C170 1.312 . S
O197 Mg173 2.291 . S
O197 Mg176 2.114 . S
O198 C170 1.208 . S
O198 Mg178 2.031 . S
C199 O184 1.264 . S
C199 O186 1.273 . S
C200 O181 1.191 . S
C200 O183 1.307 . S
H201 C219 0.951 . S
H202 C221 0.951 . S
H203 C223 0.950 . S
H204 C224 0.950 . S
H205 C226 0.950 . S
H206 C229 0.950 . S
H207 C230 0.950 . S
H208 C232 0.950 . S
H209 C233 0.950 . S
H210 C234 0.951 . S
H211 C236 0.951 . S
H212 C238 0.950 . S
H213 C239 0.950 . S
H214 C241 0.950 . S
H215 C244 0.950 . S
H216 C245 0.950 . S
H217 C247 0.950 . S
H218 C248 0.950 . S
C219 H201 0.951 . S
C219 C220 1.366 . S
C219 C221 1.388 . S
C220 C219 1.366 . S
C220 C224 1.385 . S
C221 H202 0.951 . S
C221 C219 1.388 . S
C221 C222 1.366 . S
C222 C221 1.366 . S
C222 C223 1.414 . S
C222 C225 1.499 . S
C223 H203 0.950 . S
C223 C222 1.414 . S
C223 C224 1.374 . S
C224 H204 0.950 . S
C224 C220 1.385 . S
C224 C223 1.374 . S
C225 C222 1.499 . S
C225 C226 1.373 . S
C225 C227 1.389 . S
C226 H205 0.950 . S
C226 C225 1.373 . S
C226 C242 1.377 . S
C227 C225 1.389 . S
C227 C228 1.524 . S
C227 C241 1.377 . S
C228 C227 1.524 . S
C228 C229 1.397 . S
C228 C233 1.363 . S
C229 H206 0.950 . S
C229 C228 1.397 . S
C229 C230 1.334 . S
C230 H207 0.950 . S
C230 C229 1.334 . S
C230 C231 1.287 . S
C231 C230 1.287 . S
C231 C232 1.524 . S
C231 H250 0.913 . S
C232 H208 0.950 . S
C232 C231 1.524 . S
C232 C233 1.415 . S
C233 H209 0.950 . S
C233 C228 1.363 . S
C233 C232 1.415 . S
C234 H210 0.951 . S
C234 C235 1.366 . S
C234 C236 1.388 . S
C235 C234 1.366 . S
C235 C239 1.385 . S
C236 H211 0.951 . S
C236 C234 1.388 . S
C236 C237 1.366 . S
C237 C236 1.366 . S
C237 C238 1.414 . S
C237 C240 1.499 . S
C238 H212 0.950 . S
C238 C237 1.414 . S
C238 C239 1.374 . S
C239 H213 0.950 . S
C239 C235 1.385 . S
C239 C238 1.374 . S
C240 C237 1.499 . S
C240 C241 1.373 . S
C240 C242 1.389 . S
C241 H214 0.950 . S
C241 C227 1.377 . S
C241 C240 1.373 . S
C242 C226 1.377 . S
C242 C240 1.389 . S
C242 C243 1.524 . S
C243 C242 1.524 . S
C243 C244 1.397 . S
C243 C248 1.363 . S
C244 H215 0.950 . S
C244 C243 1.397 . S
C244 C245 1.334 . S
C245 H216 0.950 . S
C245 C244 1.334 . S
C245 C246 1.287 . S
C246 C245 1.287 . S
C246 C247 1.524 . S
C246 H249 0.999 . S
C247 H217 0.950 . S
C247 C246 1.524 . S
C247 C248 1.415 . S
C248 H218 0.950 . S
C248 C243 1.363 . S
C248 C247 1.415 . S
H249 C246 0.999 . S
H250 C231 0.913 . S
H251 C269 0.951 . S
H252 C271 0.951 . S
H253 C273 0.950 . S
H254 C274 0.950 . S
H255 C276 0.950 . S
H256 C279 0.950 . S
H257 C280 0.950 . S
H258 C282 0.950 . S
H259 C283 0.950 . S
H260 C284 0.951 . S
H261 C286 0.951 . S
H262 C288 0.950 . S
H263 C289 0.950 . S
H264 C291 0.950 . S
H265 C294 0.950 . S
H266 C295 0.950 . S
H267 C297 0.950 . S
H268 C298 0.950 . S
C269 H251 0.951 . S
C269 C270 1.366 . S
C269 C271 1.388 . S
C270 C269 1.366 . S
C270 C274 1.385 . S
C271 H252 0.951 . S
C271 C269 1.388 . S
C271 C272 1.366 . S
C272 C271 1.366 . S
C272 C273 1.414 . S
C272 C275 1.499 . S
C273 H253 0.950 . S
C273 C272 1.414 . S
C273 C274 1.374 . S
C274 H254 0.950 . S
C274 C270 1.385 . S
C274 C273 1.374 . S
C275 C272 1.499 . S
C275 C276 1.373 . S
C275 C277 1.389 . S
C276 H255 0.950 . S
C276 C275 1.373 . S
C276 C292 1.377 . S
C277 C275 1.389 . S
C277 C278 1.524 . S
C277 C291 1.377 . S
C278 C277 1.524 . S
C278 C279 1.397 . S
C278 C283 1.363 . S
C279 H256 0.950 . S
C279 C278 1.397 . S
C279 C280 1.334 . S
C280 H257 0.950 . S
C280 C279 1.334 . S
C280 C281 1.287 . S
C281 C280 1.287 . S
C281 C282 1.524 . S
C281 H300 0.913 . S
C282 H258 0.950 . S
C282 C281 1.524 . S
C282 C283 1.415 . S
C283 H259 0.950 . S
C283 C278 1.363 . S
C283 C282 1.415 . S
C284 H260 0.951 . S
C284 C285 1.366 . S
C284 C286 1.388 . S
C285 C284 1.366 . S
C285 C289 1.385 . S
C286 H261 0.951 . S
C286 C284 1.388 . S
C286 C287 1.366 . S
C287 C286 1.366 . S
C287 C288 1.414 . S
C287 C290 1.499 . S
C288 H262 0.950 . S
C288 C287 1.414 . S
C288 C289 1.374 . S
C289 H263 0.950 . S
C289 C285 1.385 . S
C289 C288 1.374 . S
C290 C287 1.499 . S
C290 C291 1.373 . S
C290 C292 1.389 . S
C291 H264 0.950 . S
C291 C277 1.377 . S
C291 C290 1.373 . S
C292 C276 1.377 . S
C292 C290 1.389 . S
C292 C293 1.524 . S
C293 C292 1.524 . S
C293 C294 1.397 . S
C293 C298 1.363 . S
C294 H265 0.950 . S
C294 C293 1.397 . S
C294 C295 1.334 . S
C295 H266 0.950 . S
C295 C294 1.334 . S
C295 C296 1.287 . S
C296 C295 1.287 . S
C296 C297 1.524 . S
C296 H299 0.999 . S
C297 H267 0.950 . S
C297 C296 1.524 . S
C297 C298 1.415 . S
C298 H268 0.950 . S
C298 C293 1.363 . S
C298 C297 1.415 . S
H299 C296 0.999 . S
H300 C281 0.913 . S
H301 C319 0.951 . S
H302 C321 0.951 . S
H303 C323 0.950 . S
H304 C324 0.950 . S
H305 C326 0.950 . S
H306 C329 0.950 . S
H307 C330 0.950 . S
H308 C332 0.950 . S
H309 C333 0.950 . S
H310 C334 0.951 . S
H311 C336 0.951 . S
H312 C338 0.950 . S
H313 C339 0.950 . S
H314 C341 0.950 . S
H315 C344 0.950 . S
H316 C345 0.950 . S
H317 C347 0.950 . S
H318 C348 0.950 . S
C319 H301 0.951 . S
C319 C320 1.366 . S
C319 C321 1.388 . S
C320 C319 1.366 . S
C320 C324 1.385 . S
C321 H302 0.951 . S
C321 C319 1.388 . S
C321 C322 1.366 . S
C322 C321 1.366 . S
C322 C323 1.414 . S
C322 C325 1.499 . S
C323 H303 0.950 . S
C323 C322 1.414 . S
C323 C324 1.374 . S
C324 H304 0.950 . S
C324 C320 1.385 . S
C324 C323 1.374 . S
C325 C322 1.499 . S
C325 C326 1.373 . S
C325 C327 1.389 . S
C326 H305 0.950 . S
C326 C325 1.373 . S
C326 C342 1.377 . S
C327 C325 1.389 . S
C327 C328 1.524 . S
C327 C341 1.377 . S
C328 C327 1.524 . S
C328 C329 1.397 . S
C328 C333 1.363 . S
C329 H306 0.950 . S
C329 C328 1.397 . S
C329 C330 1.334 . S
C330 H307 0.950 . S
C330 C329 1.334 . S
C330 C331 1.287 . S
C331 C330 1.287 . S
C331 C332 1.524 . S
C331 H350 0.913 . S
C332 H308 0.950 . S
C332 C331 1.524 . S
C332 C333 1.415 . S
C333 H309 0.950 . S
C333 C328 1.363 . S
C333 C332 1.415 . S
C334 H310 0.951 . S
C334 C335 1.366 . S
C334 C336 1.388 . S
C335 C334 1.366 . S
C335 C339 1.385 . S
C336 H311 0.951 . S
C336 C334 1.388 . S
C336 C337 1.366 . S
C337 C336 1.366 . S
C337 C338 1.414 . S
C337 C340 1.499 . S
C338 H312 0.950 . S
C338 C337 1.414 . S
C338 C339 1.374 . S
C339 H313 0.950 . S
C339 C335 1.385 . S
C339 C338 1.374 . S
C340 C337 1.499 . S
C340 C341 1.373 . S
C340 C342 1.389 . S
C341 H314 0.950 . S
C341 C327 1.377 . S
C341 C340 1.373 . S
C342 C326 1.377 . S
C342 C340 1.389 . S
C342 C343 1.524 . S
C343 C342 1.524 . S
C343 C344 1.397 . S
C343 C348 1.363 . S
C344 H315 0.950 . S
C344 C343 1.397 . S
C344 C345 1.334 . S
C345 H316 0.950 . S
C345 C344 1.334 . S
C345 C346 1.287 . S
C346 C345 1.287 . S
C346 C347 1.524 . S
C346 H349 0.999 . S
C347 H317 0.950 . S
C347 C346 1.524 . S
C347 C348 1.415 . S
C348 H318 0.950 . S
C348 C343 1.363 . S
C348 C347 1.415 . S
H349 C346 0.999 . S
H350 C331 0.913 . S
H351 C369 0.951 . S
H352 C371 0.951 . S
H353 C373 0.950 . S
H354 C374 0.950 . S
H355 C376 0.950 . S
H356 C379 0.950 . S
H357 C380 0.950 . S
H358 C382 0.950 . S
H359 C383 0.950 . S
H360 C384 0.951 . S
H361 C386 0.951 . S
H362 C388 0.950 . S
H363 C389 0.950 . S
H364 C391 0.950 . S
H365 C394 0.950 . S
H366 C395 0.950 . S
H367 C397 0.950 . S
H368 C398 0.950 . S
C369 H351 0.951 . S
C369 C370 1.366 . S
C369 C371 1.388 . S
C370 C369 1.366 . S
C370 C374 1.385 . S
C371 H352 0.951 . S
C371 C369 1.388 . S
C371 C372 1.366 . S
C372 C371 1.366 . S
C372 C373 1.414 . S
C372 C375 1.499 . S
C373 H353 0.950 . S
C373 C372 1.414 . S
C373 C374 1.374 . S
C374 H354 0.950 . S
C374 C370 1.385 . S
C374 C373 1.374 . S
C375 C372 1.499 . S
C375 C376 1.373 . S
C375 C377 1.389 . S
C376 H355 0.950 . S
C376 C375 1.373 . S
C376 C392 1.377 . S
C377 C375 1.389 . S
C377 C378 1.524 . S
C377 C391 1.377 . S
C378 C377 1.524 . S
C378 C379 1.397 . S
C378 C383 1.363 . S
C379 H356 0.950 . S
C379 C378 1.397 . S
C379 C380 1.334 . S
C380 H357 0.950 . S
C380 C379 1.334 . S
C380 C381 1.287 . S
C381 C380 1.287 . S
C381 C382 1.524 . S
C381 H400 0.913 1_554 S
C382 H358 0.950 . S
C382 C381 1.524 . S
C382 C383 1.415 . S
C383 H359 0.950 . S
C383 C378 1.363 . S
C383 C382 1.415 . S
C384 H360 0.951 . S
C384 C385 1.366 . S
C384 C386 1.388 . S
C385 C384 1.366 . S
C385 C389 1.385 . S
C386 H361 0.951 . S
C386 C384 1.388 . S
C386 C387 1.366 . S
C387 C386 1.366 . S
C387 C388 1.414 . S
C387 C390 1.499 . S
C388 H362 0.950 . S
C388 C387 1.414 . S
C388 C389 1.374 . S
C389 H363 0.950 . S
C389 C385 1.385 . S
C389 C388 1.374 . S
C390 C387 1.499 . S
C390 C391 1.373 . S
C390 C392 1.389 . S
C391 H364 0.950 . S
C391 C377 1.377 . S
C391 C390 1.373 . S
C392 C376 1.377 . S
C392 C390 1.389 . S
C392 C393 1.524 . S
C393 C392 1.524 . S
C393 C394 1.397 . S
C393 C398 1.363 . S
C394 H365 0.950 . S
C394 C393 1.397 . S
C394 C395 1.334 . S
C395 H366 0.950 . S
C395 C394 1.334 . S
C395 C396 1.287 . S
C396 C395 1.287 . S
C396 C397 1.524 . S
C396 H399 0.999 . S
C397 H367 0.950 . S
C397 C396 1.524 . S
C397 C398 1.415 . S
C398 H368 0.950 . S
C398 C393 1.363 . S
C398 C397 1.415 . S
H399 C396 0.999 . S
H400 C381 0.913 1_556 S
H401 C419 0.951 . S
H402 C421 0.951 . S
H403 C423 0.950 . S
H404 C424 0.950 . S
H405 C426 0.950 . S
H406 C429 0.950 . S
H407 C430 0.950 . S
H408 C432 0.950 . S
H409 C433 0.950 . S
H410 C434 0.951 . S
H411 C436 0.951 . S
H412 C438 0.950 . S
H413 C439 0.950 . S
H414 C441 0.950 . S
H415 C444 0.950 . S
H416 C445 0.950 . S
H417 C447 0.950 . S
H418 C448 0.950 . S
C419 H401 0.951 . S
C419 C420 1.366 . S
C419 C421 1.388 . S
C420 C419 1.366 . S
C420 C424 1.385 . S
C421 H402 0.951 . S
C421 C419 1.388 . S
C421 C422 1.366 . S
C422 C421 1.366 . S
C422 C423 1.414 . S
C422 C425 1.499 . S
C423 H403 0.950 . S
C423 C422 1.414 . S
C423 C424 1.374 . S
C424 H404 0.950 . S
C424 C420 1.385 . S
C424 C423 1.374 . S
C425 C422 1.499 . S
C425 C426 1.373 . S
C425 C427 1.389 . S
C426 H405 0.950 . S
C426 C425 1.373 . S
C426 C442 1.377 . S
C427 C425 1.389 . S
C427 C428 1.524 . S
C427 C441 1.377 . S
C428 C427 1.524 . S
C428 C429 1.397 . S
C428 C433 1.363 . S
C429 H406 0.950 . S
C429 C428 1.397 . S
C429 C430 1.334 . S
C430 H407 0.950 . S
C430 C429 1.334 . S
C430 C431 1.287 . S
C431 C430 1.287 . S
C431 C432 1.524 . S
C431 H450 0.913 . S
C432 H408 0.950 . S
C432 C431 1.524 . S
C432 C433 1.415 . S
C433 H409 0.950 . S
C433 C428 1.363 . S
C433 C432 1.415 . S
C434 H410 0.951 . S
C434 C435 1.366 . S
C434 C436 1.388 . S
C435 C434 1.366 . S
C435 C439 1.385 . S
C436 H411 0.951 . S
C436 C434 1.388 . S
C436 C437 1.366 . S
C437 C436 1.366 . S
C437 C438 1.414 . S
C437 C440 1.499 . S
C438 H412 0.950 . S
C438 C437 1.414 . S
C438 C439 1.374 . S
C439 H413 0.950 . S
C439 C435 1.385 . S
C439 C438 1.374 . S
C440 C437 1.499 . S
C440 C441 1.373 . S
C440 C442 1.389 . S
C441 H414 0.950 . S
C441 C427 1.377 . S
C441 C440 1.373 . S
C442 C426 1.377 . S
C442 C440 1.389 . S
C442 C443 1.524 . S
C443 C442 1.524 . S
C443 C444 1.397 . S
C443 C448 1.363 . S
C444 H415 0.950 . S
C444 C443 1.397 . S
C444 C445 1.334 . S
C445 H416 0.950 . S
C445 C444 1.334 . S
C445 C446 1.287 . S
C446 C445 1.287 . S
C446 C447 1.524 . S
C446 H449 0.999 . S
C447 H417 0.950 . S
C447 C446 1.524 . S
C447 C448 1.415 . S
C448 H418 0.950 . S
C448 C443 1.363 . S
C448 C447 1.415 . S
H449 C446 0.999 . S
H450 C431 0.913 . S
H451 C469 0.951 . S
H452 C471 0.951 . S
H453 C473 0.950 . S
H454 C474 0.950 . S
H455 C476 0.950 . S
H456 C479 0.950 . S
H457 C480 0.950 . S
H458 C482 0.950 . S
H459 C483 0.950 . S
H460 C484 0.951 . S
H461 C486 0.951 . S
H462 C488 0.950 . S
H463 C489 0.950 . S
H464 C491 0.950 . S
H465 C494 0.950 . S
H466 C495 0.950 . S
H467 C497 0.950 . S
H468 C498 0.950 . S
C469 H451 0.951 . S
C469 C470 1.366 . S
C469 C471 1.388 . S
C470 C469 1.366 . S
C470 C474 1.385 . S
C471 H452 0.951 . S
C471 C469 1.388 . S
C471 C472 1.366 . S
C472 C471 1.366 . S
C472 C473 1.414 . S
C472 C475 1.499 . S
C473 H453 0.950 . S
C473 C472 1.414 . S
C473 C474 1.374 . S
C474 H454 0.950 . S
C474 C470 1.385 . S
C474 C473 1.374 . S
C475 C472 1.499 . S
C475 C476 1.373 . S
C475 C477 1.389 . S
C476 H455 0.950 . S
C476 C475 1.373 . S
C476 C492 1.377 . S
C477 C475 1.389 . S
C477 C478 1.524 . S
C477 C491 1.377 . S
C478 C477 1.524 . S
C478 C479 1.397 . S
C478 C483 1.363 . S
C479 H456 0.950 . S
C479 C478 1.397 . S
C479 C480 1.334 . S
C480 H457 0.950 . S
C480 C479 1.334 . S
C480 C481 1.287 . S
C481 C480 1.287 . S
C481 C482 1.524 . S
C481 H500 0.913 . S
C482 H458 0.950 . S
C482 C481 1.524 . S
C482 C483 1.415 . S
C483 H459 0.950 . S
C483 C478 1.363 . S
C483 C482 1.415 . S
C484 H460 0.951 . S
C484 C485 1.366 . S
C484 C486 1.388 . S
C485 C484 1.366 . S
C485 C489 1.385 . S
C486 H461 0.951 . S
C486 C484 1.388 . S
C486 C487 1.366 . S
C487 C486 1.366 . S
C487 C488 1.414 . S
C487 C490 1.499 . S
C488 H462 0.950 . S
C488 C487 1.414 . S
C488 C489 1.374 . S
C489 H463 0.950 . S
C489 C485 1.385 . S
C489 C488 1.374 . S
C490 C487 1.499 . S
C490 C491 1.373 . S
C490 C492 1.389 . S
C491 H464 0.950 . S
C491 C477 1.377 . S
C491 C490 1.373 . S
C492 C476 1.377 . S
C492 C490 1.389 . S
C492 C493 1.524 . S
C493 C492 1.524 . S
C493 C494 1.397 . S
C493 C498 1.363 . S
C494 H465 0.950 . S
C494 C493 1.397 . S
C494 C495 1.334 . S
C495 H466 0.950 . S
C495 C494 1.334 . S
C495 C496 1.287 . S
C496 C495 1.287 . S
C496 C497 1.524 . S
C496 H499 0.999 . S
C497 H467 0.950 . S
C497 C496 1.524 . S
C497 C498 1.415 . S
C498 H468 0.950 . S
C498 C493 1.363 . S
C498 C497 1.415 . S
H499 C496 0.999 . S
H500 C481 0.913 . S
H501 C519 0.951 1_554 S
H502 C521 0.951 . S
H503 C523 0.950 . S
H504 C524 0.950 . S
H505 C526 0.950 . S
H506 C529 0.950 . S
H507 C530 0.950 . S
H508 C532 0.950 1_554 S
H509 C533 0.950 . S
H510 C534 0.951 . S
H511 C536 0.951 . S
H512 C538 0.950 . S
H513 C539 0.950 . S
H514 C541 0.950 . S
H515 C544 0.950 . S
H516 C545 0.950 . S
H517 C547 0.950 . S
H518 C548 0.950 . S
C519 H501 0.951 1_556 S
C519 C520 1.366 . S
C519 C521 1.388 . S
C520 C519 1.366 . S
C520 C524 1.385 . S
C521 H502 0.951 . S
C521 C519 1.388 . S
C521 C522 1.366 . S
C522 C521 1.366 . S
C522 C523 1.414 . S
C522 C525 1.499 . S
C523 H503 0.950 . S
C523 C522 1.414 . S
C523 C524 1.374 . S
C524 H504 0.950 . S
C524 C520 1.385 . S
C524 C523 1.374 . S
C525 C522 1.499 . S
C525 C526 1.373 . S
C525 C527 1.389 . S
C526 H505 0.950 . S
C526 C525 1.373 . S
C526 C542 1.377 . S
C527 C525 1.389 . S
C527 C528 1.524 . S
C527 C541 1.377 . S
C528 C527 1.524 . S
C528 C529 1.397 . S
C528 C533 1.363 . S
C529 H506 0.950 . S
C529 C528 1.397 . S
C529 C530 1.334 . S
C530 H507 0.950 . S
C530 C529 1.334 . S
C530 C531 1.287 . S
C531 C530 1.287 . S
C531 C532 1.524 . S
C531 H550 0.905 1_556 S
C532 H508 0.950 1_556 S
C532 C531 1.524 . S
C532 C533 1.415 . S
C533 H509 0.950 . S
C533 C528 1.363 . S
C533 C532 1.415 . S
C534 H510 0.951 . S
C534 C535 1.366 . S
C534 C536 1.388 . S
C535 C534 1.366 . S
C535 C539 1.385 . S
C536 H511 0.951 . S
C536 C534 1.388 . S
C536 C537 1.366 . S
C537 C536 1.366 . S
C537 C538 1.414 . S
C537 C540 1.499 . S
C538 H512 0.950 . S
C538 C537 1.414 . S
C538 C539 1.374 . S
C539 H513 0.950 . S
C539 C535 1.385 . S
C539 C538 1.374 . S
C540 C537 1.499 . S
C540 C541 1.373 . S
C540 C542 1.389 . S
C541 H514 0.950 . S
C541 C527 1.377 . S
C541 C540 1.373 . S
C542 C526 1.377 . S
C542 C540 1.389 . S
C542 C543 1.524 . S
C543 C542 1.524 . S
C543 C544 1.397 . S
C543 C548 1.363 . S
C544 H515 0.950 . S
C544 C543 1.397 . S
C544 C545 1.334 . S
C545 H516 0.950 . S
C545 C544 1.334 . S
C545 C546 1.287 . S
C546 C545 1.287 . S
C546 C547 1.524 . S
C546 H549 0.999 . S
C547 H517 0.950 . S
C547 C546 1.524 . S
C547 C548 1.415 . S
C548 H518 0.950 . S
C548 C543 1.363 . S
C548 C547 1.415 . S
H549 C546 0.999 . S
H550 C531 0.905 1_554 S
H551 C569 0.951 . S
H552 C571 0.951 . S
H553 C573 0.950 . S
H554 C574 0.950 . S
H555 C576 0.950 . S
H556 C579 0.950 . S
H557 C580 0.950 . S
H558 C582 0.950 . S
H559 C583 0.950 . S
H560 C584 0.951 . S
H561 C586 0.951 . S
H562 C588 0.950 . S
H563 C589 0.950 . S
H564 C591 0.950 . S
H565 C594 0.950 . S
H566 C595 0.950 . S
H567 C597 0.950 1_554 S
H568 C598 0.950 . S
C569 H551 0.951 . S
C569 C570 1.366 . S
C569 C571 1.388 . S
C570 C569 1.366 . S
C570 C574 1.385 . S
C571 H552 0.951 . S
C571 C569 1.388 . S
C571 C572 1.366 . S
C572 C571 1.366 . S
C572 C573 1.414 . S
C572 C575 1.499 . S
C573 H553 0.950 . S
C573 C572 1.414 . S
C573 C574 1.374 . S
C574 H554 0.950 . S
C574 C570 1.385 . S
C574 C573 1.374 . S
C575 C572 1.499 . S
C575 C576 1.373 . S
C575 C577 1.389 . S
C576 H555 0.950 . S
C576 C575 1.373 . S
C576 C592 1.377 . S
C577 C575 1.389 . S
C577 C578 1.524 . S
C577 C591 1.377 . S
C578 C577 1.524 . S
C578 C579 1.397 . S
C578 C583 1.363 . S
C579 H556 0.950 . S
C579 C578 1.397 . S
C579 C580 1.334 . S
C580 H557 0.950 . S
C580 C579 1.334 . S
C580 C581 1.287 . S
C581 C580 1.287 . S
C581 C582 1.524 . S
C581 H600 0.913 . S
C582 H558 0.950 . S
C582 C581 1.524 . S
C582 C583 1.415 . S
C583 H559 0.950 . S
C583 C578 1.363 . S
C583 C582 1.415 . S
C584 H560 0.951 . S
C584 C585 1.366 . S
C584 C586 1.388 . S
C585 C584 1.366 . S
C585 C589 1.385 . S
C586 H561 0.951 . S
C586 C584 1.388 . S
C586 C587 1.366 . S
C587 C586 1.366 . S
C587 C588 1.414 . S
C587 C590 1.499 . S
C588 H562 0.950 . S
C588 C587 1.414 . S
C588 C589 1.374 . S
C589 H563 0.950 . S
C589 C585 1.385 . S
C589 C588 1.374 . S
C590 C587 1.499 . S
C590 C591 1.373 . S
C590 C592 1.389 . S
C591 H564 0.950 . S
C591 C577 1.377 . S
C591 C590 1.373 . S
C592 C576 1.377 . S
C592 C590 1.389 . S
C592 C593 1.524 . S
C593 C592 1.524 . S
C593 C594 1.397 . S
C593 C598 1.363 . S
C594 H565 0.950 . S
C594 C593 1.397 . S
C594 C595 1.334 . S
C595 H566 0.950 . S
C595 C594 1.334 . S
C595 C596 1.287 . S
C596 C595 1.287 . S
C596 C597 1.524 . S
C596 H599 0.999 . S
C597 H567 0.950 1_556 S
C597 C596 1.524 . S
C597 C598 1.415 . S
C598 H568 0.950 . S
C598 C593 1.363 . S
C598 C597 1.415 . S
H599 C596 0.999 . S
H600 C581 0.913 . S
H601 C619 0.951 . S
H602 C621 0.951 . S
H603 C623 0.950 . S
H604 C624 0.950 . S
H605 C626 0.950 . S
H606 C629 0.950 1_556 S
H607 C630 0.950 . S
H608 C632 0.950 . S
H609 C633 0.950 1_556 S
H610 C634 0.951 . S
H611 C636 0.951 . S
H612 C638 0.950 . S
H613 C639 0.950 . S
H614 C641 0.950 . S
H615 C644 0.950 . S
H616 C645 0.950 . S
H617 C647 0.950 . S
H618 C648 0.950 . S
C619 H601 0.951 . S
C619 C620 1.363 1_554 S
C619 C621 1.388 1_554 S
C620 C619 1.363 1_556 S
C620 C624 1.398 . S
C621 H602 0.951 . S
C621 C619 1.388 1_556 S
C621 C622 1.366 . S
C622 C621 1.366 . S
C622 C623 1.414 . S
C622 C625 1.499 . S
C623 H603 0.950 . S
C623 C622 1.414 . S
C623 C624 1.374 . S
C624 H604 0.950 . S
C624 C620 1.398 . S
C624 C623 1.374 . S
C625 C622 1.499 . S
C625 C626 1.373 . S
C625 C627 1.389 . S
C626 H605 0.950 . S
C626 C625 1.373 . S
C626 C642 1.377 . S
C627 C625 1.389 . S
C627 C628 1.524 . S
C627 C641 1.377 . S
C628 C627 1.524 . S
C628 C629 1.397 1_556 S
C628 C633 1.363 1_556 S
C629 H606 0.950 1_554 S
C629 C628 1.397 1_554 S
C629 C630 1.334 . S
C630 H607 0.950 . S
C630 C629 1.334 . S
C630 C631 1.287 . S
C631 C630 1.287 . S
C631 C632 1.524 . S
C631 H650 0.913 . S
C632 H608 0.950 . S
C632 C631 1.524 . S
C632 C633 1.415 . S
C633 H609 0.950 1_554 S
C633 C628 1.363 1_554 S
C633 C632 1.415 . S
C634 H610 0.951 . S
C634 C635 1.366 . S
C634 C636 1.388 . S
C635 C634 1.366 . S
C635 C639 1.385 . S
C636 H611 0.951 . S
C636 C634 1.388 . S
C636 C637 1.366 . S
C637 C636 1.366 . S
C637 C638 1.414 . S
C637 C640 1.499 . S
C638 H612 0.950 . S
C638 C637 1.414 . S
C638 C639 1.374 . S
C639 H613 0.950 . S
C639 C635 1.385 . S
C639 C638 1.374 . S
C640 C637 1.499 . S
C640 C641 1.373 . S
C640 C642 1.389 . S
C641 H614 0.950 . S
C641 C627 1.377 . S
C641 C640 1.373 . S
C642 C626 1.377 . S
C642 C640 1.389 . S
C642 C643 1.524 . S
C643 C642 1.524 . S
C643 C644 1.397 . S
C643 C648 1.363 . S
C644 H615 0.950 . S
C644 C643 1.397 . S
C644 C645 1.334 . S
C645 H616 0.950 . S
C645 C644 1.334 . S
C645 C646 1.287 . S
C646 C645 1.287 . S
C646 C647 1.524 . S
C646 H649 0.999 . S
C647 H617 0.950 . S
C647 C646 1.524 . S
C647 C648 1.415 . S
C648 H618 0.950 . S
C648 C643 1.363 . S
C648 C647 1.415 . S
H649 C646 0.999 . S
H650 C631 0.913 . S
H651 C669 0.951 . S
H652 C671 0.951 . S
H653 C673 0.950 . S
H654 C674 0.950 . S
H655 C676 0.950 . S
H656 C679 0.950 . S
H657 C680 0.950 . S
H658 C682 0.950 . S
H659 C683 0.950 . S
H660 C684 0.951 . S
H661 C686 0.951 . S
H662 C688 0.950 . S
H663 C689 0.950 . S
H664 C691 0.950 . S
H665 C694 0.950 . S
H666 C695 0.950 . S
H667 C697 0.950 . S
H668 C698 0.950 . S
C669 H651 0.951 . S
C669 C670 1.366 . S
C669 C671 1.388 . S
C670 C669 1.366 . S
C670 C674 1.385 . S
C671 H652 0.951 . S
C671 C669 1.388 . S
C671 C672 1.366 1_554 S
C672 C671 1.366 1_556 S
C672 C673 1.414 . S
C672 C675 1.499 . S
C673 H653 0.950 . S
C673 C672 1.414 . S
C673 C674 1.374 1_556 S
C674 H654 0.950 . S
C674 C670 1.385 . S
C674 C673 1.374 1_554 S
C675 C672 1.499 . S
C675 C676 1.373 . S
C675 C677 1.389 . S
C676 H655 0.950 . S
C676 C675 1.373 . S
C676 C692 1.377 . S
C677 C675 1.389 . S
C677 C678 1.524 . S
C677 C691 1.377 . S
C678 C677 1.524 . S
C678 C679 1.397 . S
C678 C683 1.363 . S
C679 H656 0.950 . S
C679 C678 1.397 . S
C679 C680 1.334 . S
C680 H657 0.950 . S
C680 C679 1.334 . S
C680 C681 1.287 . S
C681 C680 1.287 . S
C681 C682 1.524 . S
C681 H700 0.913 . S
C682 H658 0.950 . S
C682 C681 1.524 . S
C682 C683 1.415 . S
C683 H659 0.950 . S
C683 C678 1.363 . S
C683 C682 1.415 . S
C684 H660 0.951 . S
C684 C685 1.366 . S
C684 C686 1.388 . S
C685 C684 1.366 . S
C685 C689 1.385 . S
C686 H661 0.951 . S
C686 C684 1.388 . S
C686 C687 1.366 . S
C687 C686 1.366 . S
C687 C688 1.414 . S
C687 C690 1.499 . S
C688 H662 0.950 . S
C688 C687 1.414 . S
C688 C689 1.374 . S
C689 H663 0.950 . S
C689 C685 1.385 . S
C689 C688 1.374 . S
C690 C687 1.499 . S
C690 C691 1.373 . S
C690 C692 1.389 . S
C691 H664 0.950 . S
C691 C677 1.377 . S
C691 C690 1.373 . S
C692 C676 1.377 . S
C692 C690 1.389 . S
C692 C693 1.524 . S
C693 C692 1.524 . S
C693 C694 1.397 . S
C693 C698 1.363 . S
C694 H665 0.950 . S
C694 C693 1.397 . S
C694 C695 1.334 . S
C695 H666 0.950 . S
C695 C694 1.334 . S
C695 C696 1.287 . S
C696 C695 1.287 . S
C696 C697 1.524 . S
C696 H699 0.999 . S
C697 H667 0.950 . S
C697 C696 1.524 . S
C697 C698 1.415 . S
C698 H668 0.950 . S
C698 C693 1.363 . S
C698 C697 1.415 . S
H699 C696 0.999 . S
H700 C681 0.913 . S
H701 C719 0.951 . S
H702 C721 0.951 . S
H703 C723 0.950 . S
H704 C724 0.950 . S
H705 C726 0.950 1_554 S
H706 C729 0.950 . S
H707 C730 0.950 . S
H708 C732 0.950 . S
H709 C733 0.950 . S
H710 C734 0.951 . S
H711 C736 0.951 . S
H712 C738 0.950 . S
H713 C739 0.950 . S
H714 C741 0.950 . S
H715 C744 0.950 . S
H716 C745 0.950 . S
H717 C747 0.950 . S
H718 C748 0.950 . S
C719 H701 0.951 . S
C719 C720 1.366 . S
C719 C721 1.388 1_554 S
C720 C719 1.366 . S
C720 C724 1.385 . S
C721 H702 0.951 . S
C721 C719 1.388 1_556 S
C721 C722 1.366 1_556 S
C722 C721 1.366 1_554 S
C722 C723 1.414 . S
C722 C725 1.499 1_554 S
C723 H703 0.950 . S
C723 C722 1.414 . S
C723 C724 1.374 . S
C724 H704 0.950 . S
C724 C720 1.385 . S
C724 C723 1.374 . S
C725 C722 1.499 1_556 S
C725 C726 1.373 . S
C725 C727 1.389 . S
C726 H705 0.950 1_556 S
C726 C725 1.373 . S
C726 C742 1.377 . S
C727 C725 1.389 . S
C727 C728 1.524 . S
C727 C741 1.377 . S
C728 C727 1.524 . S
C728 C729 1.397 . S
C728 C733 1.363 . S
C729 H706 0.950 . S
C729 C728 1.397 . S
C729 C730 1.334 . S
C730 H707 0.950 . S
C730 C729 1.334 . S
C730 C731 1.287 . S
C731 C730 1.287 . S
C731 C732 1.524 . S
C731 H750 0.913 . S
C732 H708 0.950 . S
C732 C731 1.524 . S
C732 C733 1.415 . S
C733 H709 0.950 . S
C733 C728 1.363 . S
C733 C732 1.415 . S
C734 H710 0.951 . S
C734 C735 1.366 . S
C734 C736 1.388 . S
C735 C734 1.366 . S
C735 C739 1.385 . S
C736 H711 0.951 . S
C736 C734 1.388 . S
C736 C737 1.366 . S
C737 C736 1.366 . S
C737 C738 1.414 . S
C737 C740 1.499 . S
C738 H712 0.950 . S
C738 C737 1.414 . S
C738 C739 1.374 . S
C739 H713 0.950 . S
C739 C735 1.385 . S
C739 C738 1.374 . S
C740 C737 1.499 . S
C740 C741 1.373 . S
C740 C742 1.389 . S
C741 H714 0.950 . S
C741 C727 1.377 . S
C741 C740 1.373 . S
C742 C726 1.377 . S
C742 C740 1.389 . S
C742 C743 1.524 . S
C743 C742 1.524 . S
C743 C744 1.397 . S
C743 C748 1.363 1_556 S
C744 H715 0.950 . S
C744 C743 1.397 . S
C744 C745 1.334 1_556 S
C745 H716 0.950 . S
C745 C744 1.334 1_554 S
C745 C746 1.287 . S
C746 C745 1.287 . S
C746 C747 1.524 . S
C746 H749 0.999 . S
C747 H717 0.950 . S
C747 C746 1.524 . S
C747 C748 1.415 . S
C748 H718 0.950 . S
C748 C743 1.363 1_554 S
C748 C747 1.415 . S
H749 C746 0.999 . S
H750 C731 0.913 . S
H751 C769 0.951 . S
H752 C771 0.951 . S
H753 C773 0.950 . S
H754 C774 0.950 . S
H755 C776 0.950 . S
H756 C779 0.950 1_554 S
H757 C780 0.950 . S
H758 C782 0.950 . S
H759 C783 0.950 . S
H760 C784 0.951 . S
H761 C786 0.951 . S
H762 C788 0.950 . S
H763 C789 0.950 . S
H764 C791 0.950 . S
H765 C794 0.950 . S
H766 C795 0.950 . S
H767 C797 0.950 . S
H768 C798 0.950 . S
C769 H751 0.951 . S
C769 C770 1.366 . S
C769 C771 1.388 . S
C770 C769 1.366 . S
C770 C774 1.385 1_556 S
C771 H752 0.951 . S
C771 C769 1.388 . S
C771 C772 1.366 . S
C772 C771 1.366 . S
C772 C773 1.414 . S
C772 C775 1.499 . S
C773 H753 0.950 . S
C773 C772 1.414 . S
C773 C774 1.374 1_556 S
C774 H754 0.950 . S
C774 C770 1.385 1_554 S
C774 C773 1.374 1_554 S
C775 C772 1.499 . S
C775 C776 1.373 . S
C775 C777 1.389 . S
C776 H755 0.950 . S
C776 C775 1.373 . S
C776 C792 1.377 . S
C777 C775 1.389 . S
C777 C778 1.524 . S
C777 C791 1.377 . S
C778 C777 1.524 . S
C778 C779 1.397 . S
C778 C783 1.363 . S
C779 H756 0.950 1_556 S
C779 C778 1.397 . S
C779 C780 1.334 1_556 S
C780 H757 0.950 . S
C780 C779 1.334 1_554 S
C780 C781 1.287 1_554 S
C781 C780 1.287 1_556 S
C781 C782 1.524 . S
C781 H800 0.913 1_556 S
C782 H758 0.950 . S
C782 C781 1.524 . S
C782 C783 1.415 . S
C783 H759 0.950 . S
C783 C778 1.363 . S
C783 C782 1.415 . S
C784 H760 0.951 . S
C784 C785 1.366 . S
C784 C786 1.388 . S
C785 C784 1.366 . S
C785 C789 1.385 . S
C786 H761 0.951 . S
C786 C784 1.388 . S
C786 C787 1.366 . S
C787 C786 1.366 . S
C787 C788 1.414 . S
C787 C790 1.499 . S
C788 H762 0.950 . S
C788 C787 1.414 . S
C788 C789 1.374 . S
C789 H763 0.950 . S
C789 C785 1.385 . S
C789 C788 1.374 . S
C790 C787 1.499 . S
C790 C791 1.373 . S
C790 C792 1.389 . S
C791 H764 0.950 . S
C791 C777 1.377 . S
C791 C790 1.373 . S
C792 C776 1.377 . S
C792 C790 1.389 . S
C792 C793 1.524 . S
C793 C792 1.524 . S
C793 C794 1.397 . S
C793 C798 1.363 . S
C794 H765 0.950 . S
C794 C793 1.397 . S
C794 C795 1.334 . S
C795 H766 0.950 . S
C795 C794 1.334 . S
C795 C796 1.287 . S
C796 C795 1.287 . S
C796 C797 1.524 . S
C796 H799 0.999 . S
C797 H767 0.950 . S
C797 C796 1.524 . S
C797 C798 1.415 . S
C798 H768 0.950 . S
C798 C793 1.363 . S
C798 C797 1.415 . S
H799 C796 0.999 . S
H800 C781 0.913 1_554 S
H801 C819 0.951 . S
H802 C821 0.951 . S
H803 C823 0.950 . S
H804 C824 0.950 . S
H805 C826 0.950 . S
H806 C829 0.950 . S
H807 C830 0.950 . S
H808 C832 0.950 . S
H809 C833 0.950 . S
H810 C834 0.951 . S
H811 C836 0.951 . S
H812 C838 0.950 . S
H813 C839 0.950 . S
H814 C841 0.950 . S
H815 C844 0.950 . S
H816 C845 0.950 . S
H817 C847 0.950 . S
H818 C848 0.950 . S
C819 H801 0.951 . S
C819 C820 1.366 . S
C819 C821 1.388 . S
C820 C819 1.366 . S
C820 C824 1.385 . S
C821 H802 0.951 . S
C821 C819 1.388 . S
C821 C822 1.366 . S
C822 C821 1.366 . S
C822 C823 1.414 . S
C822 C825 1.499 . S
C823 H803 0.950 . S
C823 C822 1.414 . S
C823 C824 1.374 . S
C824 H804 0.950 . S
C824 C820 1.385 . S
C824 C823 1.374 . S
C825 C822 1.499 . S
C825 C826 1.373 . S
C825 C827 1.389 . S
C826 H805 0.950 . S
C826 C825 1.373 . S
C826 C842 1.377 . S
C827 C825 1.389 . S
C827 C828 1.524 . S
C827 C841 1.377 . S
C828 C827 1.524 . S
C828 C829 1.397 . S
C828 C833 1.363 . S
C829 H806 0.950 . S
C829 C828 1.397 . S
C829 C830 1.334 . S
C830 H807 0.950 . S
C830 C829 1.334 . S
C830 C831 1.287 . S
C831 C830 1.287 . S
C831 C832 1.524 . S
C831 H850 0.913 . S
C832 H808 0.950 . S
C832 C831 1.524 . S
C832 C833 1.415 . S
C833 H809 0.950 . S
C833 C828 1.363 . S
C833 C832 1.415 . S
C834 H810 0.951 . S
C834 C835 1.366 . S
C834 C836 1.388 . S
C835 C834 1.366 . S
C835 C839 1.385 . S
C836 H811 0.951 . S
C836 C834 1.388 . S
C836 C837 1.366 . S
C837 C836 1.366 . S
C837 C838 1.414 . S
C837 C840 1.499 . S
C838 H812 0.950 . S
C838 C837 1.414 . S
C838 C839 1.374 . S
C839 H813 0.950 . S
C839 C835 1.385 . S
C839 C838 1.374 . S
C840 C837 1.499 . S
C840 C841 1.373 . S
C840 C842 1.389 . S
C841 H814 0.950 . S
C841 C827 1.377 . S
C841 C840 1.373 . S
C842 C826 1.377 . S
C842 C840 1.389 . S
C842 C843 1.524 . S
C843 C842 1.524 . S
C843 C844 1.397 . S
C843 C848 1.363 . S
C844 H815 0.950 . S
C844 C843 1.397 . S
C844 C845 1.334 . S
C845 H816 0.950 . S
C845 C844 1.334 . S
C845 C846 1.287 . S
C846 C845 1.287 . S
C846 C847 1.524 . S
C846 H849 0.999 . S
C847 H817 0.950 . S
C847 C846 1.524 . S
C847 C848 1.415 . S
C848 H818 0.950 . S
C848 C843 1.363 . S
C848 C847 1.415 . S
H849 C846 0.999 . S
H850 C831 0.913 . S
H851 C869 0.951 . S
H852 C871 0.951 . S
H853 C873 0.950 . S
H854 C874 0.950 . S
H855 C876 0.950 . S
H856 C879 0.950 . S
H857 C880 0.950 . S
H858 C882 0.950 . S
H859 C883 0.950 1_556 S
H860 C884 0.951 . S
H861 C886 0.951 . S
H862 C888 0.950 . S
H863 C889 0.950 . S
H864 C891 0.950 . S
H865 C894 0.950 . S
H866 C895 0.950 . S
H867 C897 0.950 . S
H868 C898 0.950 . S
C869 H851 0.951 . S
C869 C870 1.366 . S
C869 C871 1.388 1_554 S
C870 C869 1.366 . S
C870 C874 1.385 1_554 S
C871 H852 0.951 . S
C871 C869 1.388 1_556 S
C871 C872 1.366 . S
C872 C871 1.366 . S
C872 C873 1.414 . S
C872 C875 1.499 . S
C873 H853 0.950 . S
C873 C872 1.414 . S
C873 C874 1.374 . S
C874 H854 0.950 . S
C874 C870 1.385 1_556 S
C874 C873 1.374 . S
C875 C872 1.499 . S
C875 C876 1.373 . S
C875 C877 1.389 . S
C876 H855 0.950 . S
C876 C875 1.373 . S
C876 C892 1.377 . S
C877 C875 1.389 . S
C877 C878 1.518 1_556 S
C877 C891 1.377 . S
C878 C877 1.518 1_554 S
C878 C879 1.402 . S
C878 C883 1.364 . S
C879 H856 0.950 . S
C879 C878 1.402 . S
C879 C880 1.334 . S
C880 H857 0.950 . S
C880 C879 1.334 . S
C880 C881 1.287 . S
C881 C880 1.287 . S
C881 C882 1.524 . S
C881 H900 0.913 . S
C882 H858 0.950 . S
C882 C881 1.524 . S
C882 C883 1.415 . S
C883 H859 0.950 1_554 S
C883 C878 1.364 . S
C883 C882 1.415 . S
C884 H860 0.951 . S
C884 C885 1.366 . S
C884 C886 1.388 . S
C885 C884 1.366 . S
C885 C889 1.385 . S
C886 H861 0.951 . S
C886 C884 1.388 . S
C886 C887 1.366 . S
C887 C886 1.366 . S
C887 C888 1.414 . S
C887 C890 1.499 . S
C888 H862 0.950 . S
C888 C887 1.414 . S
C888 C889 1.374 . S
C889 H863 0.950 . S
C889 C885 1.385 . S
C889 C888 1.374 . S
C890 C887 1.499 . S
C890 C891 1.373 . S
C890 C892 1.389 . S
C891 H864 0.950 . S
C891 C877 1.377 . S
C891 C890 1.373 . S
C892 C876 1.377 . S
C892 C890 1.389 . S
C892 C893 1.524 . S
C893 C892 1.524 . S
C893 C894 1.397 . S
C893 C898 1.363 . S
C894 H865 0.950 . S
C894 C893 1.397 . S
C894 C895 1.334 . S
C895 H866 0.950 . S
C895 C894 1.334 . S
C895 C896 1.287 . S
C896 C895 1.287 . S
C896 C897 1.524 . S
C896 H899 0.999 . S
C897 H867 0.950 . S
C897 C896 1.524 . S
C897 C898 1.415 . S
C898 H868 0.950 . S
C898 C893 1.363 . S
C898 C897 1.415 . S
H899 C896 0.999 . S
H900 C881 0.913 . S
H901 C919 0.951 . S
H902 C921 0.951 . S
H903 C923 0.950 . S
H904 C924 0.950 . S
H905 C926 0.950 . S
H906 C929 0.950 . S
H907 C930 0.950 . S
H908 C932 0.950 1_556 S
H909 C933 0.950 . S
H910 C934 0.951 . S
H911 C936 0.951 . S
H912 C938 0.950 . S
H913 C939 0.950 . S
H914 C941 0.950 . S
H915 C944 0.950 . S
H916 C945 0.950 . S
H917 C947 0.950 . S
H918 C948 0.950 . S
C919 H901 0.951 . S
C919 C920 1.366 . S
C919 C921 1.388 1_554 S
C920 C919 1.366 . S
C920 C924 1.385 . S
C921 H902 0.951 . S
C921 C919 1.388 1_556 S
C921 C922 1.366 . S
C922 C921 1.366 . S
C922 C923 1.414 1_556 S
C922 C925 1.499 . S
C923 H903 0.950 . S
C923 C922 1.414 1_554 S
C923 C924 1.374 . S
C924 H904 0.950 . S
C924 C920 1.385 . S
C924 C923 1.374 . S
C925 C922 1.499 . S
C925 C926 1.373 . S
C925 C927 1.389 . S
C926 H905 0.950 . S
C926 C925 1.373 . S
C926 C942 1.377 . S
C927 C925 1.389 . S
C927 C928 1.524 . S
C927 C941 1.377 . S
C928 C927 1.524 . S
C928 C929 1.397 1_556 S
C928 C933 1.363 . S
C929 H906 0.950 . S
C929 C928 1.397 1_554 S
C929 C930 1.334 . S
C930 H907 0.950 . S
C930 C929 1.334 . S
C930 C931 1.287 . S
C931 C930 1.287 . S
C931 C932 1.524 . S
C931 H950 0.913 . S
C932 H908 0.950 1_554 S
C932 C931 1.524 . S
C932 C933 1.415 1_554 S
C933 H909 0.950 . S
C933 C928 1.363 . S
C933 C932 1.415 1_556 S
C934 H910 0.951 . S
C934 C935 1.366 . S
C934 C936 1.388 . S
C935 C934 1.366 . S
C935 C939 1.385 . S
C936 H911 0.951 . S
C936 C934 1.388 . S
C936 C937 1.366 . S
C937 C936 1.366 . S
C937 C938 1.414 . S
C937 C940 1.499 . S
C938 H912 0.950 . S
C938 C937 1.414 . S
C938 C939 1.374 . S
C939 H913 0.950 . S
C939 C935 1.385 . S
C939 C938 1.374 . S
C940 C937 1.499 . S
C940 C941 1.373 . S
C940 C942 1.389 . S
C941 H914 0.950 . S
C941 C927 1.377 . S
C941 C940 1.373 . S
C942 C926 1.377 . S
C942 C940 1.389 . S
C942 C943 1.524 . S
C943 C942 1.524 . S
C943 C944 1.397 . S
C943 C948 1.363 . S
C944 H915 0.950 . S
C944 C943 1.397 . S
C944 C945 1.334 . S
C945 H916 0.950 . S
C945 C944 1.334 . S
C945 C946 1.287 . S
C946 C945 1.287 . S
C946 C947 1.524 . S
C946 H949 0.999 . S
C947 H917 0.950 . S
C947 C946 1.524 . S
C947 C948 1.415 . S
C948 H918 0.950 . S
C948 C943 1.363 . S
C948 C947 1.415 . S
H949 C946 0.999 . S
H950 C931 0.913 . S
H951 C969 0.951 . S
H952 C971 0.951 . S
H953 C973 0.950 1_556 S
H954 C974 0.950 . S
H955 C976 0.950 . S
H956 C979 0.950 . S
H957 C980 0.950 . S
H958 C982 0.950 . S
H959 C983 0.950 . S
H960 C984 0.951 . S
H961 C986 0.951 . S
H962 C988 0.950 . S
H963 C989 0.950 . S
H964 C991 0.950 . S
H965 C994 0.950 . S
H966 C995 0.950 . S
H967 C997 0.950 . S
H968 C998 0.950 . S
C969 H951 0.951 . S
C969 C970 1.366 . S
C969 C971 1.388 . S
C970 C969 1.366 . S
C970 C974 1.385 . S
C971 H952 0.951 . S
C971 C969 1.388 . S
C971 C972 1.366 . S
C972 C971 1.366 . S
C972 C973 1.414 . S
C972 C975 1.499 1_554 S
C973 H953 0.950 1_554 S
C973 C972 1.414 . S
C973 C974 1.374 . S
C974 H954 0.950 . S
C974 C970 1.385 . S
C974 C973 1.374 . S
C975 C972 1.499 1_556 S
C975 C976 1.373 . S
C975 C977 1.389 . S
C976 H955 0.950 . S
C976 C975 1.373 . S
C976 C992 1.377 . S
C977 C975 1.389 . S
C977 C978 1.524 1_556 S
C977 C991 1.377 . S
C978 C977 1.524 1_554 S
C978 C979 1.397 . S
C978 C983 1.363 . S
C979 H956 0.950 . S
C979 C978 1.397 . S
C979 C980 1.334 . S
C980 H957 0.950 . S
C980 C979 1.334 . S
C980 C981 1.287 . S
C981 C980 1.287 . S
C981 C982 1.524 . S
C981 H1000 0.913 . S
C982 H958 0.950 . S
C982 C981 1.524 . S
C982 C983 1.415 . S
C983 H959 0.950 . S
C983 C978 1.363 . S
C983 C982 1.415 . S
C984 H960 0.951 . S
C984 C985 1.366 . S
C984 C986 1.388 . S
C985 C984 1.366 . S
C985 C989 1.385 . S
C986 H961 0.951 . S
C986 C984 1.388 . S
C986 C987 1.366 . S
C987 C986 1.366 . S
C987 C988 1.414 . S
C987 C990 1.499 . S
C988 H962 0.950 . S
C988 C987 1.414 . S
C988 C989 1.374 . S
C989 H963 0.950 . S
C989 C985 1.385 . S
C989 C988 1.374 . S
C990 C987 1.499 . S
C990 C991 1.373 . S
C990 C992 1.389 . S
C991 H964 0.950 . S
C991 C977 1.377 . S
C991 C990 1.373 . S
C992 C976 1.377 . S
C992 C990 1.389 . S
C992 C993 1.524 . S
C993 C992 1.524 . S
C993 C994 1.397 . S
C993 C998 1.363 . S
C994 H965 0.950 . S
C994 C993 1.397 . S
C994 C995 1.334 . S
C995 H966 0.950 . S
C995 C994 1.334 . S
C995 C996 1.287 . S
C996 C995 1.287 . S
C996 C997 1.524 . S
C996 H999 0.999 . S
C997 H967 0.950 . S
C997 C996 1.524 . S
C997 C998 1.415 . S
C998 H968 0.950 . S
C998 C993 1.363 . S
C998 C997 1.415 . S
H999 C996 0.999 . S
H1000 C981 0.913 . S
H1001 C1019 0.951 1_554 S
H1002 C1021 0.951 . S
H1003 C1023 0.950 . S
H1004 C1024 0.950 . S
H1005 C1026 0.950 . S
H1006 C1029 0.950 1_556 S
H1007 C1030 0.950 . S
H1008 C1032 0.950 . S
H1009 C1033 0.951 1_556 S
H1010 C1034 0.951 . S
H1011 C1036 0.951 . S
H1012 C1038 0.950 . S
H1013 C1039 0.950 . S
H1014 C1041 0.950 . S
H1015 C1044 0.950 . S
H1016 C1045 0.950 . S
H1017 C1047 0.950 . S
H1018 C1048 0.950 . S
C1019 H1001 0.951 1_556 S
C1019 C1020 1.366 . S
C1019 C1021 1.388 . S
C1020 C1019 1.366 . S
C1020 C1024 1.385 . S
C1021 H1002 0.951 . S
C1021 C1019 1.388 . S
C1021 C1022 1.366 . S
C1022 C1021 1.366 . S
C1022 C1023 1.414 . S
C1022 C1025 1.499 . S
C1023 H1003 0.950 . S
C1023 C1022 1.414 . S
C1023 C1024 1.374 . S
C1024 H1004 0.950 . S
C1024 C1020 1.385 . S
C1024 C1023 1.374 . S
C1025 C1022 1.499 . S
C1025 C1026 1.373 . S
C1025 C1027 1.389 . S
C1026 H1005 0.950 . S
C1026 C1025 1.373 . S
C1026 C1042 1.377 . S
C1027 C1025 1.389 . S
C1027 C1028 1.524 . S
C1027 C1041 1.377 . S
C1028 C1027 1.524 . S
C1028 C1029 1.397 1_556 S
C1028 C1033 1.363 1_556 S
C1029 H1006 0.950 1_554 S
C1029 C1028 1.397 1_554 S
C1029 C1030 1.334 . S
C1030 H1007 0.950 . S
C1030 C1029 1.334 . S
C1030 C1031 1.287 . S
C1031 C1030 1.287 . S
C1031 C1032 1.524 . S
C1031 H1050 0.913 . S
C1032 H1008 0.950 . S
C1032 C1031 1.524 . S
C1032 C1033 1.414 . S
C1033 H1009 0.951 1_554 S
C1033 C1028 1.363 1_554 S
C1033 C1032 1.414 . S
C1034 H1010 0.951 . S
C1034 C1035 1.366 . S
C1034 C1036 1.388 . S
C1035 C1034 1.366 . S
C1035 C1039 1.385 . S
C1036 H1011 0.951 . S
C1036 C1034 1.388 . S
C1036 C1037 1.366 . S
C1037 C1036 1.366 . S
C1037 C1038 1.414 . S
C1037 C1040 1.499 . S
C1038 H1012 0.950 . S
C1038 C1037 1.414 . S
C1038 C1039 1.374 . S
C1039 H1013 0.950 . S
C1039 C1035 1.385 . S
C1039 C1038 1.374 . S
C1040 C1037 1.499 . S
C1040 C1041 1.373 . S
C1040 C1042 1.389 . S
C1041 H1014 0.950 . S
C1041 C1027 1.377 . S
C1041 C1040 1.373 . S
C1042 C1026 1.377 . S
C1042 C1040 1.389 . S
C1042 C1043 1.524 . S
C1043 C1042 1.524 . S
C1043 C1044 1.397 . S
C1043 C1048 1.363 . S
C1044 H1015 0.950 . S
C1044 C1043 1.397 . S
C1044 C1045 1.334 . S
C1045 H1016 0.950 . S
C1045 C1044 1.334 . S
C1045 C1046 1.287 . S
C1046 C1045 1.287 . S
C1046 C1047 1.524 . S
C1046 H1049 0.999 . S
C1047 H1017 0.950 . S
C1047 C1046 1.524 . S
C1047 C1048 1.415 . S
C1048 H1018 0.950 . S
C1048 C1043 1.363 . S
C1048 C1047 1.415 . S
H1049 C1046 0.999 . S
H1050 C1031 0.913 . S
H1051 C1069 0.951 . S
H1052 C1071 0.951 . S
H1053 C1073 0.950 . S
H1054 C1074 0.950 . S
H1055 C1076 0.950 . S
H1056 C1079 0.950 . S
H1057 C1080 0.950 . S
H1058 C1082 0.950 . S
H1059 C1083 0.950 . S
H1060 C1084 0.951 . S
H1061 C1086 0.951 . S
H1062 C1088 0.950 . S
H1063 C1089 0.950 . S
H1064 C1091 0.950 . S
H1065 C1094 0.950 . S
H1066 C1095 0.950 . S
H1067 C1097 0.950 . S
H1068 C1098 0.950 . S
C1069 H1051 0.951 . S
C1069 C1070 1.366 . S
C1069 C1071 1.388 . S
C1070 C1069 1.366 . S
C1070 C1074 1.385 . S
C1071 H1052 0.951 . S
C1071 C1069 1.388 . S
C1071 C1072 1.366 . S
C1072 C1071 1.366 . S
C1072 C1073 1.414 . S
C1072 C1075 1.499 . S
C1073 H1053 0.950 . S
C1073 C1072 1.414 . S
C1073 C1074 1.374 . S
C1074 H1054 0.950 . S
C1074 C1070 1.385 . S
C1074 C1073 1.374 . S
C1075 C1072 1.499 . S
C1075 C1076 1.373 . S
C1075 C1077 1.389 . S
C1076 H1055 0.950 . S
C1076 C1075 1.373 . S
C1076 C1092 1.377 . S
C1077 C1075 1.389 . S
C1077 C1078 1.524 . S
C1077 C1091 1.377 . S
C1078 C1077 1.524 . S
C1078 C1079 1.397 . S
C1078 C1083 1.363 . S
C1079 H1056 0.950 . S
C1079 C1078 1.397 . S
C1079 C1080 1.334 . S
C1080 H1057 0.950 . S
C1080 C1079 1.334 . S
C1080 C1081 1.287 . S
C1081 C1080 1.287 . S
C1081 C1082 1.524 . S
C1081 H1100 0.913 . S
C1082 H1058 0.950 . S
C1082 C1081 1.524 . S
C1082 C1083 1.415 . S
C1083 H1059 0.950 . S
C1083 C1078 1.363 . S
C1083 C1082 1.415 . S
C1084 H1060 0.951 . S
C1084 C1085 1.366 . S
C1084 C1086 1.388 . S
C1085 C1084 1.366 . S
C1085 C1089 1.385 . S
C1086 H1061 0.951 . S
C1086 C1084 1.388 . S
C1086 C1087 1.366 . S
C1087 C1086 1.366 . S
C1087 C1088 1.414 . S
C1087 C1090 1.499 . S
C1088 H1062 0.950 . S
C1088 C1087 1.414 . S
C1088 C1089 1.374 . S
C1089 H1063 0.950 . S
C1089 C1085 1.385 . S
C1089 C1088 1.374 . S
C1090 C1087 1.499 . S
C1090 C1091 1.373 . S
C1090 C1092 1.389 . S
C1091 H1064 0.950 . S
C1091 C1077 1.377 . S
C1091 C1090 1.373 . S
C1092 C1076 1.377 . S
C1092 C1090 1.389 . S
C1092 C1093 1.524 . S
C1093 C1092 1.524 . S
C1093 C1094 1.397 . S
C1093 C1098 1.363 . S
C1094 H1065 0.950 . S
C1094 C1093 1.397 . S
C1094 C1095 1.334 . S
C1095 H1066 0.950 . S
C1095 C1094 1.334 . S
C1095 C1096 1.287 . S
C1096 C1095 1.287 . S
C1096 C1097 1.524 . S
C1096 H1099 0.999 . S
C1097 H1067 0.950 . S
C1097 C1096 1.524 . S
C1097 C1098 1.415 . S
C1098 H1068 0.950 . S
C1098 C1093 1.363 . S
C1098 C1097 1.415 . S
H1099 C1096 0.999 . S
H1100 C1081 0.913 . S
H1101 C1119 0.951 . S
H1102 C1121 0.951 . S
H1103 C1123 0.950 . S
H1104 C1124 0.950 . S
H1105 C1126 0.950 . S
H1106 C1129 0.950 . S
H1107 C1130 0.950 . S
H1108 C1132 0.950 . S
H1109 C1133 0.950 . S
H1110 C1134 0.951 . S
H1111 C1136 0.951 . S
H1112 C1138 0.950 . S
H1113 C1139 0.950 . S
H1114 C1141 0.950 . S
H1115 C1144 0.950 . S
H1116 C1145 0.950 . S
H1117 C1147 0.950 . S
H1118 C1148 0.950 . S
C1119 H1101 0.951 . S
C1119 C1120 1.366 . S
C1119 C1121 1.388 . S
C1120 C1119 1.366 . S
C1120 C1124 1.385 . S
C1121 H1102 0.951 . S
C1121 C1119 1.388 . S
C1121 C1122 1.366 . S
C1122 C1121 1.366 . S
C1122 C1123 1.414 . S
C1122 C1125 1.499 . S
C1123 H1103 0.950 . S
C1123 C1122 1.414 . S
C1123 C1124 1.374 . S
C1124 H1104 0.950 . S
C1124 C1120 1.385 . S
C1124 C1123 1.374 . S
C1125 C1122 1.499 . S
C1125 C1126 1.373 . S
C1125 C1127 1.389 . S
C1126 H1105 0.950 . S
C1126 C1125 1.373 . S
C1126 C1142 1.377 . S
C1127 C1125 1.389 . S
C1127 C1128 1.524 . S
C1127 C1141 1.377 . S
C1128 C1127 1.524 . S
C1128 C1129 1.397 . S
C1128 C1133 1.363 . S
C1129 H1106 0.950 . S
C1129 C1128 1.397 . S
C1129 C1130 1.334 . S
C1130 H1107 0.950 . S
C1130 C1129 1.334 . S
C1130 C1131 1.287 . S
C1131 C1130 1.287 . S
C1131 C1132 1.524 . S
C1131 H1150 0.913 . S
C1132 H1108 0.950 . S
C1132 C1131 1.524 . S
C1132 C1133 1.415 . S
C1133 H1109 0.950 . S
C1133 C1128 1.363 . S
C1133 C1132 1.415 . S
C1134 H1110 0.951 . S
C1134 C1135 1.366 . S
C1134 C1136 1.388 . S
C1135 C1134 1.366 . S
C1135 C1139 1.385 . S
C1136 H1111 0.951 . S
C1136 C1134 1.388 . S
C1136 C1137 1.366 . S
C1137 C1136 1.366 . S
C1137 C1138 1.414 . S
C1137 C1140 1.499 . S
C1138 H1112 0.950 . S
C1138 C1137 1.414 . S
C1138 C1139 1.374 . S
C1139 H1113 0.950 . S
C1139 C1135 1.385 . S
C1139 C1138 1.374 . S
C1140 C1137 1.499 . S
C1140 C1141 1.373 . S
C1140 C1142 1.389 . S
C1141 H1114 0.950 . S
C1141 C1127 1.377 . S
C1141 C1140 1.373 . S
C1142 C1126 1.377 . S
C1142 C1140 1.389 . S
C1142 C1143 1.524 . S
C1143 C1142 1.524 . S
C1143 C1144 1.397 . S
C1143 C1148 1.363 . S
C1144 H1115 0.950 . S
C1144 C1143 1.397 . S
C1144 C1145 1.334 . S
C1145 H1116 0.950 . S
C1145 C1144 1.334 . S
C1145 C1146 1.287 . S
C1146 C1145 1.287 . S
C1146 C1147 1.524 . S
C1146 H1149 0.999 . S
C1147 H1117 0.950 . S
C1147 C1146 1.524 . S
C1147 C1148 1.415 . S
C1148 H1118 0.950 . S
C1148 C1143 1.363 . S
C1148 C1147 1.415 . S
H1149 C1146 0.999 . S
H1150 C1131 0.913 . S
H1151 C1169 0.951 . S
H1152 C1171 0.951 . S
H1153 C1173 0.950 . S
H1154 C1174 0.950 . S
H1155 C1176 0.950 . S
H1156 C1179 0.950 . S
H1157 C1180 0.950 . S
H1158 C1182 0.950 . S
H1159 C1183 0.950 . S
H1160 C1184 0.951 . S
H1161 C1186 0.951 . S
H1162 C1188 0.950 . S
H1163 C1189 0.950 . S
H1164 C1191 0.950 . S
H1165 C1194 0.950 . S
H1166 C1195 0.950 . S
H1167 C1197 0.950 . S
H1168 C1198 0.950 . S
C1169 H1151 0.951 . S
C1169 C1170 1.366 . S
C1169 C1171 1.388 . S
C1170 C1169 1.366 . S
C1170 C1174 1.385 . S
C1171 H1152 0.951 . S
C1171 C1169 1.388 . S
C1171 C1172 1.366 . S
C1172 C1171 1.366 . S
C1172 C1173 1.414 . S
C1172 C1175 1.499 . S
C1173 H1153 0.950 . S
C1173 C1172 1.414 . S
C1173 C1174 1.374 . S
C1174 H1154 0.950 . S
C1174 C1170 1.385 . S
C1174 C1173 1.374 . S
C1175 C1172 1.499 . S
C1175 C1176 1.373 . S
C1175 C1177 1.389 . S
C1176 H1155 0.950 . S
C1176 C1175 1.373 . S
C1176 C1192 1.377 . S
C1177 C1175 1.389 . S
C1177 C1178 1.524 . S
C1177 C1191 1.377 . S
C1178 C1177 1.524 . S
C1178 C1179 1.397 . S
C1178 C1183 1.363 . S
C1179 H1156 0.950 . S
C1179 C1178 1.397 . S
C1179 C1180 1.334 . S
C1180 H1157 0.950 . S
C1180 C1179 1.334 . S
C1180 C1181 1.287 . S
C1181 C1180 1.287 . S
C1181 C1182 1.524 . S
C1181 H1200 0.913 . S
C1182 H1158 0.950 . S
C1182 C1181 1.524 . S
C1182 C1183 1.415 . S
C1183 H1159 0.950 . S
C1183 C1178 1.363 . S
C1183 C1182 1.415 . S
C1184 H1160 0.951 . S
C1184 C1185 1.366 . S
C1184 C1186 1.388 . S
C1185 C1184 1.366 . S
C1185 C1189 1.385 . S
C1186 H1161 0.951 . S
C1186 C1184 1.388 . S
C1186 C1187 1.366 . S
C1187 C1186 1.366 . S
C1187 C1188 1.414 . S
C1187 C1190 1.499 . S
C1188 H1162 0.950 . S
C1188 C1187 1.414 . S
C1188 C1189 1.374 . S
C1189 H1163 0.950 . S
C1189 C1185 1.385 . S
C1189 C1188 1.374 . S
C1190 C1187 1.499 . S
C1190 C1191 1.373 . S
C1190 C1192 1.389 . S
C1191 H1164 0.950 . S
C1191 C1177 1.377 . S
C1191 C1190 1.373 . S
C1192 C1176 1.377 . S
C1192 C1190 1.389 . S
C1192 C1193 1.524 . S
C1193 C1192 1.524 . S
C1193 C1194 1.397 . S
C1193 C1198 1.363 . S
C1194 H1165 0.950 . S
C1194 C1193 1.397 . S
C1194 C1195 1.334 . S
C1195 H1166 0.950 . S
C1195 C1194 1.334 . S
C1195 C1196 1.287 . S
C1196 C1195 1.287 . S
C1196 C1197 1.524 . S
C1196 H1199 0.999 . S
C1197 H1167 0.950 . S
C1197 C1196 1.524 . S
C1197 C1198 1.415 . S
C1198 H1168 0.950 . S
C1198 C1193 1.363 . S
C1198 C1197 1.415 . S
H1199 C1196 0.999 . S
H1200 C1181 0.913 . S
H1201 C1219 0.951 . S
H1202 C1221 0.951 . S
H1203 C1223 0.950 . S
H1204 C1224 0.950 . S
H1205 C1226 0.950 . S
H1206 C1229 0.950 . S
H1207 C1230 0.950 . S
H1208 C1232 0.950 . S
H1209 C1233 0.950 . S
H1210 C1234 0.951 . S
H1211 C1236 0.951 . S
H1212 C1238 0.950 . S
H1213 C1239 0.950 . S
H1214 C1241 0.950 . S
H1215 C1244 0.950 . S
H1216 C1245 0.950 . S
H1217 C1247 0.950 . S
H1218 C1248 0.950 . S
C1219 H1201 0.951 . S
C1219 C1220 1.366 . S
C1219 C1221 1.388 . S
C1220 C1219 1.366 . S
C1220 C1224 1.385 . S
C1221 H1202 0.951 . S
C1221 C1219 1.388 . S
C1221 C1222 1.366 . S
C1222 C1221 1.366 . S
C1222 C1223 1.414 . S
C1222 C1225 1.499 . S
C1223 H1203 0.950 . S
C1223 C1222 1.414 . S
C1223 C1224 1.374 . S
C1224 H1204 0.950 . S
C1224 C1220 1.385 . S
C1224 C1223 1.374 . S
C1225 C1222 1.499 . S
C1225 C1226 1.373 . S
C1225 C1227 1.389 . S
C1226 H1205 0.950 . S
C1226 C1225 1.373 . S
C1226 C1242 1.377 . S
C1227 C1225 1.389 . S
C1227 C1228 1.524 . S
C1227 C1241 1.377 . S
C1228 C1227 1.524 . S
C1228 C1229 1.397 . S
C1228 C1233 1.363 . S
C1229 H1206 0.950 . S
C1229 C1228 1.397 . S
C1229 C1230 1.334 . S
C1230 H1207 0.950 . S
C1230 C1229 1.334 . S
C1230 C1231 1.287 . S
C1231 C1230 1.287 . S
C1231 C1232 1.524 . S
C1231 H1250 0.913 . S
C1232 H1208 0.950 . S
C1232 C1231 1.524 . S
C1232 C1233 1.415 . S
C1233 H1209 0.950 . S
C1233 C1228 1.363 . S
C1233 C1232 1.415 . S
C1234 H1210 0.951 . S
C1234 C1235 1.366 . S
C1234 C1236 1.388 . S
C1235 C1234 1.366 . S
C1235 C1239 1.385 . S
C1236 H1211 0.951 . S
C1236 C1234 1.388 . S
C1236 C1237 1.366 . S
C1237 C1236 1.366 . S
C1237 C1238 1.414 . S
C1237 C1240 1.499 . S
C1238 H1212 0.950 . S
C1238 C1237 1.414 . S
C1238 C1239 1.374 . S
C1239 H1213 0.950 . S
C1239 C1235 1.385 . S
C1239 C1238 1.374 . S
C1240 C1237 1.499 . S
C1240 C1241 1.373 . S
C1240 C1242 1.389 . S
C1241 H1214 0.950 . S
C1241 C1227 1.377 . S
C1241 C1240 1.373 . S
C1242 C1226 1.377 . S
C1242 C1240 1.389 . S
C1242 C1243 1.524 . S
C1243 C1242 1.524 . S
C1243 C1244 1.397 . S
C1243 C1248 1.363 . S
C1244 H1215 0.950 . S
C1244 C1243 1.397 . S
C1244 C1245 1.334 . S
C1245 H1216 0.950 . S
C1245 C1244 1.334 . S
C1245 C1246 1.287 . S
C1246 C1245 1.287 . S
C1246 C1247 1.524 . S
C1246 H1249 0.999 . S
C1247 H1217 0.950 . S
C1247 C1246 1.524 . S
C1247 C1248 1.415 . S
C1248 H1218 0.950 . S
C1248 C1243 1.363 . S
C1248 C1247 1.415 . S
H1249 C1246 0.999 . S
H1250 C1231 0.913 . S
H1251 C1269 0.951 . S
H1252 C1271 0.951 . S
H1253 C1273 0.950 . S
H1254 C1274 0.950 . S
H1255 C1276 0.950 . S
H1256 C1279 0.950 . S
H1257 C1280 0.950 . S
H1258 C1282 0.950 . S
H1259 C1283 0.950 . S
H1260 C1284 0.951 . S
H1261 C1286 0.951 . S
H1262 C1288 0.950 . S
H1263 C1289 0.950 . S
H1264 C1291 0.950 . S
H1265 C1294 0.950 . S
H1266 C1295 0.950 . S
H1267 C1297 0.950 . S
H1268 C1298 0.950 . S
C1269 H1251 0.951 . S
C1269 C1270 1.366 . S
C1269 C1271 1.388 . S
C1270 C1269 1.366 . S
C1270 C1274 1.385 . S
C1271 H1252 0.951 . S
C1271 C1269 1.388 . S
C1271 C1272 1.366 . S
C1272 C1271 1.366 . S
C1272 C1273 1.414 . S
C1272 C1275 1.499 . S
C1273 H1253 0.950 . S
C1273 C1272 1.414 . S
C1273 C1274 1.374 . S
C1274 H1254 0.950 . S
C1274 C1270 1.385 . S
C1274 C1273 1.374 . S
C1275 C1272 1.499 . S
C1275 C1276 1.373 . S
C1275 C1277 1.389 . S
C1276 H1255 0.950 . S
C1276 C1275 1.373 . S
C1276 C1292 1.377 . S
C1277 C1275 1.389 . S
C1277 C1278 1.524 . S
C1277 C1291 1.377 . S
C1278 C1277 1.524 . S
C1278 C1279 1.397 . S
C1278 C1283 1.363 . S
C1279 H1256 0.950 . S
C1279 C1278 1.397 . S
C1279 C1280 1.334 . S
C1280 H1257 0.950 . S
C1280 C1279 1.334 . S
C1280 C1281 1.287 . S
C1281 C1280 1.287 . S
C1281 C1282 1.524 . S
C1281 H1300 0.913 . S
C1282 H1258 0.950 . S
C1282 C1281 1.524 . S
C1282 C1283 1.415 . S
C1283 H1259 0.950 . S
C1283 C1278 1.363 . S
C1283 C1282 1.415 . S
C1284 H1260 0.951 . S
C1284 C1285 1.366 . S
C1284 C1286 1.388 . S
C1285 C1284 1.366 . S
C1285 C1289 1.385 . S
C1286 H1261 0.951 . S
C1286 C1284 1.388 . S
C1286 C1287 1.366 . S
C1287 C1286 1.366 . S
C1287 C1288 1.414 . S
C1287 C1290 1.499 . S
C1288 H1262 0.950 . S
C1288 C1287 1.414 . S
C1288 C1289 1.374 . S
C1289 H1263 0.950 . S
C1289 C1285 1.385 . S
C1289 C1288 1.374 . S
C1290 C1287 1.499 . S
C1290 C1291 1.373 . S
C1290 C1292 1.389 . S
C1291 H1264 0.950 . S
C1291 C1277 1.377 . S
C1291 C1290 1.373 . S
C1292 C1276 1.377 . S
C1292 C1290 1.389 . S
C1292 C1293 1.524 . S
C1293 C1292 1.524 . S
C1293 C1294 1.397 . S
C1293 C1298 1.363 . S
C1294 H1265 0.950 . S
C1294 C1293 1.397 . S
C1294 C1295 1.334 . S
C1295 H1266 0.950 . S
C1295 C1294 1.334 . S
C1295 C1296 1.287 . S
C1296 C1295 1.287 . S
C1296 C1297 1.524 . S
C1296 H1299 0.999 . S
C1297 H1267 0.950 . S
C1297 C1296 1.524 . S
C1297 C1298 1.415 . S
C1298 H1268 0.950 . S
C1298 C1293 1.363 . S
C1298 C1297 1.415 . S
H1299 C1296 0.999 . S
H1300 C1281 0.913 . S
H1301 C1319 0.951 . S
H1302 C1321 0.951 . S
H1303 C1323 0.950 . S
H1304 C1324 0.950 . S
H1305 C1326 0.950 . S
H1306 C1329 0.950 . S
H1307 C1330 0.950 . S
H1308 C1332 0.950 . S
H1309 C1333 0.950 . S
H1310 C1334 0.951 . S
H1311 C1336 0.951 . S
H1312 C1338 0.950 . S
H1313 C1339 0.950 . S
H1314 C1341 0.950 . S
H1315 C1344 0.950 . S
H1316 C1345 0.950 . S
H1317 C1347 0.950 . S
H1318 C1348 0.950 . S
C1319 H1301 0.951 . S
C1319 C1320 1.366 . S
C1319 C1321 1.388 . S
C1320 C1319 1.366 . S
C1320 C1324 1.385 . S
C1321 H1302 0.951 . S
C1321 C1319 1.388 . S
C1321 C1322 1.366 . S
C1322 C1321 1.366 . S
C1322 C1323 1.414 . S
C1322 C1325 1.499 . S
C1323 H1303 0.950 . S
C1323 C1322 1.414 . S
C1323 C1324 1.374 . S
C1324 H1304 0.950 . S
C1324 C1320 1.385 . S
C1324 C1323 1.374 . S
C1325 C1322 1.499 . S
C1325 C1326 1.373 . S
C1325 C1327 1.389 . S
C1326 H1305 0.950 . S
C1326 C1325 1.373 . S
C1326 C1342 1.377 . S
C1327 C1325 1.389 . S
C1327 C1328 1.524 . S
C1327 C1341 1.377 . S
C1328 C1327 1.524 . S
C1328 C1329 1.397 . S
C1328 C1333 1.363 . S
C1329 H1306 0.950 . S
C1329 C1328 1.397 . S
C1329 C1330 1.334 . S
C1330 H1307 0.950 . S
C1330 C1329 1.334 . S
C1330 C1331 1.287 . S
C1331 C1330 1.287 . S
C1331 C1332 1.524 . S
C1331 H1350 0.913 . S
C1332 H1308 0.950 . S
C1332 C1331 1.524 . S
C1332 C1333 1.415 . S
C1333 H1309 0.950 . S
C1333 C1328 1.363 . S
C1333 C1332 1.415 . S
C1334 H1310 0.951 . S
C1334 C1335 1.366 . S
C1334 C1336 1.388 . S
C1335 C1334 1.366 . S
C1335 C1339 1.385 . S
C1336 H1311 0.951 . S
C1336 C1334 1.388 . S
C1336 C1337 1.366 . S
C1337 C1336 1.366 . S
C1337 C1338 1.414 . S
C1337 C1340 1.499 . S
C1338 H1312 0.950 . S
C1338 C1337 1.414 . S
C1338 C1339 1.374 . S
C1339 H1313 0.950 . S
C1339 C1335 1.385 . S
C1339 C1338 1.374 . S
C1340 C1337 1.499 . S
C1340 C1341 1.373 . S
C1340 C1342 1.389 . S
C1341 H1314 0.950 . S
C1341 C1327 1.377 . S
C1341 C1340 1.373 . S
C1342 C1326 1.377 . S
C1342 C1340 1.389 . S
C1342 C1343 1.524 . S
C1343 C1342 1.524 . S
C1343 C1344 1.397 . S
C1343 C1348 1.363 . S
C1344 H1315 0.950 . S
C1344 C1343 1.397 . S
C1344 C1345 1.334 . S
C1345 H1316 0.950 . S
C1345 C1344 1.334 . S
C1345 C1346 1.287 . S
C1346 C1345 1.287 . S
C1346 C1347 1.524 . S
C1346 H1349 0.999 . S
C1347 H1317 0.950 . S
C1347 C1346 1.524 . S
C1347 C1348 1.415 . S
C1348 H1318 0.950 . S
C1348 C1343 1.363 . S
C1348 C1347 1.415 . S
H1349 C1346 0.999 . S
H1350 C1331 0.913 . S
H1351 C1369 0.951 . S
H1352 C1371 0.951 . S
H1353 C1373 0.950 . S
H1354 C1374 0.950 . S
H1355 C1376 0.950 . S
H1356 C1379 0.950 . S
H1357 C1380 0.950 . S
H1358 C1382 0.950 . S
H1359 C1383 0.950 . S
H1360 C1384 0.951 . S
H1361 C1386 0.951 . S
H1362 C1388 0.950 . S
H1363 C1389 0.950 . S
H1364 C1391 0.950 . S
H1365 C1394 0.950 . S
H1366 C1395 0.950 . S
H1367 C1397 0.950 . S
H1368 C1398 0.950 . S
C1369 H1351 0.951 . S
C1369 C1370 1.366 . S
C1369 C1371 1.388 . S
C1370 C1369 1.366 . S
C1370 C1374 1.385 . S
C1371 H1352 0.951 . S
C1371 C1369 1.388 . S
C1371 C1372 1.366 . S
C1372 C1371 1.366 . S
C1372 C1373 1.414 . S
C1372 C1375 1.499 . S
C1373 H1353 0.950 . S
C1373 C1372 1.414 . S
C1373 C1374 1.374 . S
C1374 H1354 0.950 . S
C1374 C1370 1.385 . S
C1374 C1373 1.374 . S
C1375 C1372 1.499 . S
C1375 C1376 1.373 . S
C1375 C1377 1.389 . S
C1376 H1355 0.950 . S
C1376 C1375 1.373 . S
C1376 C1392 1.377 . S
C1377 C1375 1.389 . S
C1377 C1378 1.524 . S
C1377 C1391 1.377 . S
C1378 C1377 1.524 . S
C1378 C1379 1.397 . S
C1378 C1383 1.363 . S
C1379 H1356 0.950 . S
C1379 C1378 1.397 . S
C1379 C1380 1.334 . S
C1380 H1357 0.950 . S
C1380 C1379 1.334 . S
C1380 C1381 1.287 . S
C1381 C1380 1.287 . S
C1381 C1382 1.524 . S
C1381 H1400 0.913 . S
C1382 H1358 0.950 . S
C1382 C1381 1.524 . S
C1382 C1383 1.415 . S
C1383 H1359 0.950 . S
C1383 C1378 1.363 . S
C1383 C1382 1.415 . S
C1384 H1360 0.951 . S
C1384 C1385 1.366 . S
C1384 C1386 1.388 . S
C1385 C1384 1.366 . S
C1385 C1389 1.385 . S
C1386 H1361 0.951 . S
C1386 C1384 1.388 . S
C1386 C1387 1.366 . S
C1387 C1386 1.366 . S
C1387 C1388 1.414 . S
C1387 C1390 1.499 . S
C1388 H1362 0.950 . S
C1388 C1387 1.414 . S
C1388 C1389 1.374 . S
C1389 H1363 0.950 . S
C1389 C1385 1.385 . S
C1389 C1388 1.374 . S
C1390 C1387 1.499 . S
C1390 C1391 1.373 . S
C1390 C1392 1.389 . S
C1391 H1364 0.950 . S
C1391 C1377 1.377 . S
C1391 C1390 1.373 . S
C1392 C1376 1.377 . S
C1392 C1390 1.389 . S
C1392 C1393 1.524 . S
C1393 C1392 1.524 . S
C1393 C1394 1.397 . S
C1393 C1398 1.363 . S
C1394 H1365 0.950 . S
C1394 C1393 1.397 . S
C1394 C1395 1.334 . S
C1395 H1366 0.950 . S
C1395 C1394 1.334 . S
C1395 C1396 1.287 . S
C1396 C1395 1.287 . S
C1396 C1397 1.524 . S
C1396 H1399 0.999 . S
C1397 H1367 0.950 . S
C1397 C1396 1.524 . S
C1397 C1398 1.415 . S
C1398 H1368 0.950 . S
C1398 C1393 1.363 . S
C1398 C1397 1.415 . S
H1399 C1396 0.999 . S
H1400 C1381 0.913 . S
C220 C16 1.712 . S
C235 C108 1.724 . S
C270 C26 1.584 . S
C285 C140 1.613 . S
C335 C199 1.990 . S
C320 C52 1.971 . S
C385 C128 1.488 . S
C370 C62 1.482 . S
C420 C80 1.622 . S
C435 C158 1.587 . S
C485 C180 1.225 . S
C470 C98 1.192 . S
C535 C149 1.714 . S
C520 C43 1.663 . S
C570 C68 1.270 . S
C585 C189 1.270 . S
C635 C138 1.578 . S
C620 C86 1.553 1_556 S
C670 C104 1.564 . S
C685 C168 1.569 . S
C720 C7 1.902 . S
C735 C171 1.917 . S
C785 C110 1.692 . S
C770 C32 1.662 1_556 S
C835 C118 1.629 . S
C820 C61 1.611 . S
C885 C159 1.576 . S
C870 C79 1.558 . S
C935 C172 1.985 . S
C920 C97 1.990 . S
C985 C109 1.498 . S
C970 C14 1.496 . S
C1035 C169 1.518 . S
C1020 C25 1.523 1_556 S
C1070 C50 1.187 . S
C1085 C170 1.198 . S
C1135 C139 1.619 . S
C1120 C106 1.630 . S
C1185 C200 1.192 . S
C1170 C8 1.177 . S
C1235 C127 1.513 . S
C1220 C34 1.546 . S
C1285 C141 1.579 . S
C1270 C44 1.579 . S
C1320 C70 1.896 . S
C1335 C190 1.886 . S
C1370 C88 1.653 . S
C1385 C137 1.669 . S
