# Generated by pormake.
# Topology pyr, (3,6)-cn, num edge types: 1
# Building blocks:
#     Node 0, Type 0, BuildingBlock: VETTIZ_charged_linker_0, # of connection points: 3
#     Node 1, Type 0, BuildingBlock: VETTIZ_charged_linker_0, # of connection points: 3
#     Node 2, Type 0, BuildingBlock: VETTIZ_charged_linker_0, # of connection points: 3
#     Node 3, Type 0, BuildingBlock: VETTIZ_charged_linker_0, # of connection points: 3
#     Node 4, Type 0, BuildingBlock: VETTIZ_charged_linker_0, # of connection points: 3
#     Node 5, Type 0, BuildingBlock: VETTIZ_charged_linker_0, # of connection points: 3
#     Node 6, Type 0, BuildingBlock: VETTIZ_charged_linker_0, # of connection points: 3
#     Node 7, Type 0, BuildingBlock: VETTIZ_charged_linker_0, # of connection points: 3
#     Node 8, Type 1, BuildingBlock: BETDAH_clean_sbu_0, # of connection points: 6
#     Node 9, Type 1, BuildingBlock: BETDAH_clean_sbu_0, # of connection points: 6
#     Node 10, Type 1, BuildingBlock: BETDAH_clean_sbu_0, # of connection points: 6
#     Node 11, Type 1, BuildingBlock: BETDAH_clean_sbu_0, # of connection points: 6
#     Edge 12, Type (0, 1), BuildingBlock: UVAHIK_clean_linker_0, # of connection points: 2
#     Edge 13, Type (0, 1), BuildingBlock: UVAHIK_clean_linker_0, # of connection points: 2
#     Edge 14, Type (0, 1), BuildingBlock: UVAHIK_clean_linker_0, # of connection points: 2
#     Edge 15, Type (0, 1), BuildingBlock: UVAHIK_clean_linker_0, # of connection points: 2
#     Edge 16, Type (0, 1), BuildingBlock: UVAHIK_clean_linker_0, # of connection points: 2
#     Edge 17, Type (0, 1), BuildingBlock: UVAHIK_clean_linker_0, # of connection points: 2
#     Edge 18, Type (0, 1), BuildingBlock: UVAHIK_clean_linker_0, # of connection points: 2
#     Edge 19, Type (0, 1), BuildingBlock: UVAHIK_clean_linker_0, # of connection points: 2
#     Edge 20, Type (0, 1), BuildingBlock: UVAHIK_clean_linker_0, # of connection points: 2
#     Edge 21, Type (0, 1), BuildingBlock: UVAHIK_clean_linker_0, # of connection points: 2
#     Edge 22, Type (0, 1), BuildingBlock: UVAHIK_clean_linker_0, # of connection points: 2
#     Edge 23, Type (0, 1), BuildingBlock: UVAHIK_clean_linker_0, # of connection points: 2
#     Edge 24, Type (0, 1), BuildingBlock: UVAHIK_clean_linker_0, # of connection points: 2
#     Edge 25, Type (0, 1), BuildingBlock: UVAHIK_clean_linker_0, # of connection points: 2
#     Edge 26, Type (0, 1), BuildingBlock: UVAHIK_clean_linker_0, # of connection points: 2
#     Edge 27, Type (0, 1), BuildingBlock: UVAHIK_clean_linker_0, # of connection points: 2
#     Edge 28, Type (0, 1), BuildingBlock: UVAHIK_clean_linker_0, # of connection points: 2
#     Edge 29, Type (0, 1), BuildingBlock: UVAHIK_clean_linker_0, # of connection points: 2
#     Edge 30, Type (0, 1), BuildingBlock: UVAHIK_clean_linker_0, # of connection points: 2
#     Edge 31, Type (0, 1), BuildingBlock: UVAHIK_clean_linker_0, # of connection points: 2
#     Edge 32, Type (0, 1), BuildingBlock: UVAHIK_clean_linker_0, # of connection points: 2
#     Edge 33, Type (0, 1), BuildingBlock: UVAHIK_clean_linker_0, # of connection points: 2
#     Edge 34, Type (0, 1), BuildingBlock: UVAHIK_clean_linker_0, # of connection points: 2
#     Edge 35, Type (0, 1), BuildingBlock: UVAHIK_clean_linker_0, # of connection points: 2
# Relax obj value: 0.074
# Max RMSD: 0.120
# Mean RMSD: 0.056
data_MOF--net-pyr--node1-BETDAH_clean_sbu_0--node2-VETTIZ_charged_linker_0--edge1-UVAHIK_clean_linker_0
_symmetry_space_group_name_H-M    P1
_symmetry_Int_Tables_number       1
_symmetry_cell_setting            triclinic
loop_
_symmetry_equiv_pos_as_xyz
'x, y, z'
_cell_length_a     57.364631
_cell_length_b     60.213539
_cell_length_c     54.908381
_cell_angle_alpha  91.216667
_cell_angle_beta   88.913088
_cell_angle_gamma 98.551776
loop_
_atom_site_label
_atom_site_type_symbol
_atom_site_fract_x
_atom_site_fract_y
_atom_site_fract_z
_atom_type_partial_charge
C0 C 0.27331 0.23678 0.2917 0.0
C1 C 0.25363 0.24565 0.30138 0.0
C2 C 0.24564 0.26341 0.28915 0.0
C3 C 0.27482 0.26135 0.25706 0.0
C4 C 0.28336 0.24462 0.26946 0.0
C5 C 0.30245 0.23515 0.25525 0.0
H6 H 0.35855 0.22399 0.14744 0.0
C7 C 0.28734 0.26396 0.23331 0.0
C8 C 0.30356 0.24868 0.23208 0.0
H9 H 0.3666 0.19017 0.21475 0.0
H10 H 0.3412 0.21311 0.23569 0.0
H11 H 0.3633 0.27358 0.17271 0.0
H12 H 0.30266 0.226 0.15252 0.0
H13 H 0.29889 0.25282 0.14245 0.0
H14 H 0.32323 0.23997 0.13071 0.0
H15 H 0.35402 0.2698 0.14169 0.0
H16 H 0.34193 0.28905 0.16235 0.0
C17 C 0.32562 0.24021 0.26972 0.0
C18 C 0.29385 0.20982 0.25042 0.0
C19 C 0.26256 0.31746 0.17215 0.0
C20 C 0.26934 0.32258 0.14793 0.0
C21 C 0.28723 0.31192 0.13684 0.0
C22 C 0.29795 0.29627 0.1496 0.0
C23 C 0.29064 0.29112 0.17369 0.0
C24 C 0.27341 0.30188 0.18459 0.0
C25 C 0.26752 0.29423 0.21012 0.0
C26 C 0.28437 0.27734 0.21297 0.0
C27 C 0.29771 0.27538 0.19153 0.0
C28 C 0.27343 0.31472 0.22764 0.0
C29 C 0.24132 0.28302 0.21095 0.0
C30 C 0.35475 0.22156 0.16668 0.0
C31 C 0.36426 0.20506 0.17942 0.0
C32 C 0.35946 0.20276 0.20457 0.0
C33 C 0.34455 0.21596 0.21664 0.0
C34 C 0.33425 0.2316 0.20344 0.0
C35 C 0.34 0.23474 0.17907 0.0
C36 C 0.32832 0.25302 0.16837 0.0
C37 C 0.31388 0.25964 0.19008 0.0
C38 C 0.31715 0.24676 0.21044 0.0
C39 C 0.34777 0.27239 0.16066 0.0
C40 C 0.31249 0.2426 0.14728 0.0
H41 H 0.24889 0.28453 0.25861 0.0
H42 H 0.28025 0.22341 0.30072 0.0
H43 H 0.2749 0.20699 0.2455 0.0
H44 H 0.30305 0.20268 0.23504 0.0
H45 H 0.29579 0.19988 0.26688 0.0
H46 H 0.32625 0.25601 0.28073 0.0
H47 H 0.32737 0.22647 0.28244 0.0
H48 H 0.34144 0.24305 0.25771 0.0
H49 H 0.24855 0.32492 0.18112 0.0
H50 H 0.29294 0.31568 0.11827 0.0
H51 H 0.31132 0.28861 0.14014 0.0
H52 H 0.2899 0.32552 0.22165 0.0
H53 H 0.25907 0.32524 0.22812 0.0
H54 H 0.27684 0.30994 0.2464 0.0
H55 H 0.23556 0.27569 0.19289 0.0
H56 H 0.23814 0.26866 0.2234 0.0
H57 H 0.22947 0.29536 0.21625 0.0
H58 H 0.23039 0.27048 0.29579 0.0
C59 C 0.25623 0.2714 0.26724 0.0
C60 C 0.21222 0.86583 0.57976 0.0
C61 C 0.19983 0.87763 0.59684 0.0
C62 C 0.21026 0.88396 0.6195 0.0
C63 C 0.2455 0.86906 0.60679 0.0
C64 C 0.23482 0.86152 0.58524 0.0
C65 C 0.25009 0.84851 0.5696 0.0
H66 H 0.34878 0.80024 0.55969 0.0
C67 C 0.26937 0.86287 0.60641 0.0
C68 C 0.27213 0.85055 0.58488 0.0
H69 H 0.28855 0.79074 0.51268 0.0
H70 H 0.27203 0.82033 0.53458 0.0
H71 H 0.35322 0.85647 0.56264 0.0
H72 H 0.32207 0.8024 0.60842 0.0
H73 H 0.33756 0.82356 0.62703 0.0
H74 H 0.35335 0.80985 0.60406 0.0
H75 H 0.37069 0.84213 0.582 0.0
H76 H 0.35738 0.86591 0.59294 0.0
C77 C 0.25504 0.86055 0.54501 0.0
C78 C 0.23751 0.8239 0.56731 0.0
C79 C 0.32482 0.89019 0.67482 0.0
C80 C 0.34808 0.88738 0.67992 0.0
C81 C 0.36049 0.87518 0.66324 0.0
C82 C 0.34959 0.8655 0.64207 0.0
C83 C 0.32606 0.86802 0.63762 0.0
C84 C 0.31421 0.88039 0.6538 0.0
C85 C 0.28937 0.88141 0.64638 0.0
C86 C 0.2883 0.86787 0.62277 0.0
C87 C 0.30972 0.85995 0.61778 0.0
C88 C 0.28702 0.90633 0.64217 0.0
C89 C 0.27236 0.86983 0.66621 0.0
C90 C 0.33231 0.80501 0.55386 0.0
C91 C 0.31975 0.7933 0.53472 0.0
C92 C 0.29842 0.79973 0.5274 0.0
C93 C 0.28877 0.81662 0.54034 0.0
C94 C 0.30062 0.82695 0.56077 0.0
C95 C 0.32247 0.82172 0.56664 0.0
C96 C 0.33237 0.83414 0.58909 0.0
C97 C 0.31218 0.84653 0.59663 0.0
C98 C 0.29364 0.8422 0.58003 0.0
C99 C 0.35468 0.85045 0.58149 0.0
C100 C 0.33676 0.81672 0.60823 0.0
H101 H 0.2401 0.88564 0.64179 0.0
H102 H 0.20491 0.86058 0.56217 0.0
H103 H 0.2256 0.81924 0.58321 0.0
H104 H 0.24993 0.81152 0.56718 0.0
H105 H 0.22663 0.82133 0.55069 0.0
H106 H 0.25883 0.87906 0.54797 0.0
H107 H 0.23958 0.85695 0.5329 0.0
H108 H 0.27067 0.85591 0.53526 0.0
H109 H 0.31492 0.89983 0.68701 0.0
H110 H 0.37842 0.87271 0.66682 0.0
H111 H 0.35976 0.85613 0.6302 0.0
H112 H 0.30267 0.91486 0.632 0.0
H113 H 0.28574 0.91552 0.65979 0.0
H114 H 0.2717 0.90847 0.6311 0.0
H115 H 0.28079 0.85775 0.67687 0.0
H116 H 0.25659 0.85953 0.65835 0.0
H117 H 0.26665 0.88232 0.67933 0.0
H118 H 0.20094 0.89234 0.63342 0.0
C119 C 0.23303 0.87993 0.62445 0.0
C120 C 0.63529 0.27729 0.88391 0.0
C121 C 0.61504 0.26334 0.8751 0.0
C122 C 0.60416 0.27078 0.85439 0.0
C123 C 0.63303 0.30498 0.8523 0.0
C124 C 0.6439 0.2977 0.87232 0.0
C125 C 0.6654 0.31392 0.87945 0.0
H126 H 0.74141 0.41026 0.86123 0.0
C127 C 0.6465 0.32715 0.84472 0.0
C128 C 0.6656 0.33227 0.86074 0.0
H129 H 0.744 0.36007 0.91594 0.0
H130 H 0.70839 0.33875 0.90065 0.0
H131 H 0.68565 0.41124 0.86717 0.0
H132 H 0.72473 0.37501 0.81628 0.0
H133 H 0.70357 0.38697 0.80016 0.0
H134 H 0.72625 0.40502 0.81631 0.0
H135 H 0.70167 0.42477 0.84184 0.0
H136 H 0.67168 0.41085 0.83897 0.0
C137 C 0.6613 0.32276 0.90565 0.0
C138 C 0.68719 0.30159 0.87645 0.0
C139 C 0.6203 0.37063 0.7724 0.0
C140 C 0.62916 0.3917 0.76198 0.0
C141 C 0.64912 0.40438 0.77299 0.0
C142 C 0.66022 0.39638 0.79296 0.0
C143 C 0.65146 0.37535 0.80277 0.0
C144 C 0.63163 0.36289 0.79271 0.0
C145 C 0.62455 0.34113 0.80625 0.0
C146 C 0.64337 0.34261 0.82587 0.0
C147 C 0.65927 0.36277 0.82356 0.0
C148 C 0.59968 0.34138 0.81747 0.0
C149 C 0.62609 0.32131 0.78825 0.0
C150 C 0.73429 0.39475 0.87003 0.0
C151 C 0.74616 0.3869 0.88979 0.0
C152 C 0.73592 0.36647 0.90042 0.0
C153 C 0.71497 0.35407 0.89157 0.0
C154 C 0.70363 0.3619 0.87167 0.0
C155 C 0.71322 0.38201 0.86132 0.0
C156 C 0.69846 0.38775 0.84043 0.0
C157 C 0.67875 0.36764 0.83973 0.0
C158 C 0.68188 0.35252 0.85816 0.0
C159 C 0.68892 0.40988 0.84719 0.0
C160 C 0.71396 0.38894 0.81698 0.0
H161 H 0.60374 0.29575 0.8275 0.0
H162 H 0.64423 0.27268 0.89979 0.0
H163 H 0.68507 0.28946 0.86079 0.0
H164 H 0.7036 0.31303 0.87224 0.0
H165 H 0.68979 0.29201 0.893 0.0
H166 H 0.64258 0.32521 0.90851 0.0
H167 H 0.66539 0.31074 0.91944 0.0
H168 H 0.67164 0.3394 0.90951 0.0
H169 H 0.60509 0.3602 0.76478 0.0
H170 H 0.65619 0.42087 0.76642 0.0
H171 H 0.67531 0.40703 0.80008 0.0
H172 H 0.59823 0.35815 0.82576 0.0
H173 H 0.58595 0.33775 0.80335 0.0
H174 H 0.59552 0.32931 0.83232 0.0
H175 H 0.64225 0.3247 0.77659 0.0
H176 H 0.62738 0.30547 0.7975 0.0
H177 H 0.61063 0.31863 0.77608 0.0
H178 H 0.58894 0.26056 0.84653 0.0
C179 C 0.61293 0.29132 0.84311 0.0
C180 C 0.89152 0.75721 0.36528 0.0
C181 C 0.88276 0.76863 0.38552 0.0
C182 C 0.86266 0.75771 0.39804 0.0
C183 C 0.85978 0.72569 0.36999 0.0
C184 C 0.87979 0.73584 0.35789 0.0
C185 C 0.88656 0.72121 0.33691 0.0
H186 H 0.86118 0.62566 0.26711 0.0
C187 C 0.85136 0.70384 0.35763 0.0
C188 C 0.86701 0.70102 0.33813 0.0
H189 H 0.92205 0.67728 0.26089 0.0
H190 H 0.90753 0.69769 0.29475 0.0
H191 H 0.86301 0.62316 0.32578 0.0
H192 H 0.82281 0.65855 0.27832 0.0
H193 H 0.8039 0.64726 0.30196 0.0
H194 H 0.817 0.62861 0.2815 0.0
H195 H 0.83939 0.609 0.30768 0.0
H196 H 0.83403 0.62057 0.33747 0.0
C197 C 0.91099 0.71461 0.34225 0.0
C198 C 0.88582 0.73425 0.31306 0.0
C199 C 0.7761 0.65574 0.38859 0.0
C200 C 0.76312 0.63518 0.38062 0.0
C201 C 0.77155 0.62433 0.3599 0.0
C202 C 0.7923 0.63361 0.34749 0.0
C203 C 0.80503 0.65411 0.35571 0.0
C204 C 0.79679 0.66484 0.37591 0.0
C205 C 0.81232 0.68667 0.38181 0.0
C206 C 0.83133 0.68723 0.36199 0.0
C207 C 0.82705 0.66806 0.34675 0.0
C208 C 0.8225 0.68488 0.40752 0.0
C209 C 0.79743 0.70596 0.37926 0.0
C210 C 0.87167 0.6412 0.27305 0.0
C211 C 0.89292 0.64966 0.26076 0.0
C212 C 0.90545 0.67031 0.26934 0.0
C213 C 0.89709 0.68215 0.28931 0.0
C214 C 0.87593 0.67338 0.3013 0.0
C215 C 0.8637 0.65313 0.29315 0.0
C216 C 0.84185 0.64594 0.30839 0.0
C217 C 0.84293 0.66512 0.32703 0.0
C218 C 0.86289 0.68136 0.32277 0.0
C219 C 0.84444 0.62342 0.32042 0.0
C220 C 0.82015 0.64483 0.29181 0.0
H221 H 0.83601 0.72949 0.40084 0.0
H222 H 0.90691 0.76484 0.35514 0.0
H223 H 0.8698 0.74263 0.31281 0.0
H224 H 0.88486 0.7233 0.29666 0.0
H225 H 0.90147 0.74745 0.3113 0.0
H226 H 0.91276 0.71171 0.36203 0.0
H227 H 0.92542 0.72809 0.33682 0.0
H228 H 0.91384 0.69869 0.33316 0.0
H229 H 0.77011 0.6648 0.40417 0.0
H230 H 0.76226 0.60839 0.35341 0.0
H231 H 0.79766 0.6244 0.33194 0.0
H232 H 0.82606 0.66752 0.41075 0.0
H233 H 0.80997 0.6891 0.42196 0.0
H234 H 0.83969 0.69561 0.41002 0.0
H235 H 0.78471 0.70228 0.36413 0.0
H236 H 0.80813 0.72211 0.3745 0.0
H237 H 0.78713 0.7083 0.39621 0.0
H238 H 0.85576 0.76543 0.41407 0.0
C239 C 0.8512 0.73657 0.39042 0.0
C240 C 0.73272 0.71686 0.87113 0.0
C241 C 0.74785 0.70256 0.86107 0.0
C242 C 0.7531 0.70333 0.83591 0.0
C243 C 0.73146 0.73456 0.832 0.0
C244 C 0.72446 0.73252 0.85616 0.0
C245 C 0.70839 0.74926 0.86355 0.0
H246 H 0.66475 0.84443 0.83813 0.0
C247 C 0.72251 0.75419 0.82216 0.0
C248 C 0.70842 0.76259 0.84028 0.0
H249 H 0.64952 0.80267 0.90135 0.0
H250 H 0.67342 0.77622 0.88429 0.0
H251 H 0.65775 0.80348 0.79854 0.0
H252 H 0.71851 0.84001 0.83372 0.0
H253 H 0.72681 0.83556 0.80335 0.0
H254 H 0.70347 0.85187 0.80998 0.0
H255 H 0.66947 0.83189 0.79111 0.0
H256 H 0.68034 0.8083 0.77634 0.0
C257 C 0.68366 0.73624 0.86966 0.0
C258 C 0.71982 0.7639 0.8849 0.0
C259 C 0.76004 0.78854 0.74485 0.0
C260 C 0.75919 0.80916 0.73369 0.0
C261 C 0.74174 0.8221 0.74132 0.0
C262 C 0.72659 0.81538 0.76102 0.0
C263 C 0.72907 0.79565 0.77335 0.0
C264 C 0.74505 0.78222 0.76468 0.0
C265 C 0.74582 0.76218 0.78033 0.0
C266 C 0.72819 0.7662 0.80035 0.0
C267 C 0.71861 0.7859 0.79627 0.0
C268 C 0.73739 0.74061 0.76506 0.0
C269 C 0.77124 0.76369 0.79003 0.0
C270 C 0.66615 0.82943 0.84821 0.0
C271 C 0.65522 0.82581 0.87124 0.0
C272 C 0.65803 0.80617 0.88379 0.0
C273 C 0.67178 0.79071 0.87379 0.0
C274 C 0.6829 0.79486 0.85099 0.0
C275 C 0.67964 0.81377 0.83843 0.0
C276 C 0.69256 0.81538 0.81432 0.0
C277 C 0.70369 0.79405 0.81421 0.0
C278 C 0.69835 0.7823 0.83594 0.0
C279 C 0.67423 0.81492 0.79388 0.0
C280 C 0.71125 0.83683 0.8151 0.0
H281 H 0.75009 0.71942 0.80248 0.0
H282 H 0.72796 0.71621 0.89031 0.0
H283 H 0.73877 0.76978 0.88081 0.0
H284 H 0.71171 0.77916 0.88845 0.0
H285 H 0.71869 0.75418 0.90196 0.0
H286 H 0.68063 0.71962 0.86006 0.0
H287 H 0.68148 0.73314 0.88951 0.0
H288 H 0.66927 0.74505 0.86354 0.0
H289 H 0.77301 0.77808 0.73905 0.0
H290 H 0.74072 0.83808 0.733 0.0
H291 H 0.71424 0.82633 0.76656 0.0
H292 H 0.72648 0.74409 0.74945 0.0
H293 H 0.75255 0.73302 0.75749 0.0
H294 H 0.72581 0.72787 0.77576 0.0
H295 H 0.77776 0.78105 0.79669 0.0
H296 H 0.77274 0.75276 0.80554 0.0
H297 H 0.78355 0.75935 0.77543 0.0
H298 H 0.76466 0.69248 0.82772 0.0
C299 C 0.74487 0.71916 0.82133 0.0
C300 C 0.78344 0.17291 0.46186 0.0
C301 C 0.79447 0.15977 0.44505 0.0
C302 C 0.78456 0.15478 0.42198 0.0
C303 C 0.75179 0.17401 0.43346 0.0
C304 C 0.762 0.17966 0.45578 0.0
C305 C 0.74667 0.19193 0.4722 0.0
H306 H 0.64214 0.22917 0.49199 0.0
C307 C 0.72849 0.1815 0.43371 0.0
C308 C 0.72525 0.19189 0.45635 0.0
H309 H 0.70307 0.23896 0.53818 0.0
H310 H 0.72417 0.21798 0.5093 0.0
H311 H 0.64558 0.17662 0.47397 0.0
H312 H 0.67059 0.24179 0.44452 0.0
H313 H 0.66076 0.22389 0.42 0.0
H314 H 0.64008 0.22963 0.44362 0.0
H315 H 0.62617 0.19448 0.46222 0.0
H316 H 0.63979 0.17558 0.44258 0.0
C317 C 0.74066 0.17801 0.49549 0.0
C318 C 0.75977 0.21601 0.47696 0.0
C319 C 0.67667 0.16489 0.36017 0.0
C320 C 0.65373 0.16859 0.35489 0.0
C321 C 0.64054 0.17854 0.37285 0.0
C322 C 0.65034 0.1851 0.39561 0.0
C323 C 0.67352 0.18155 0.40042 0.0
C324 C 0.68615 0.17148 0.38282 0.0
C325 C 0.7102 0.16838 0.39105 0.0
C326 C 0.71027 0.17881 0.41638 0.0
C327 C 0.6888 0.18645 0.42184 0.0
C328 C 0.71135 0.14278 0.39155 0.0
C329 C 0.72869 0.1819 0.37398 0.0
C330 C 0.6598 0.22621 0.49618 0.0
C331 C 0.67087 0.2352 0.51754 0.0
C332 C 0.69419 0.23189 0.52193 0.0
C333 C 0.70639 0.21985 0.50509 0.0
C334 C 0.69522 0.21135 0.48353 0.0
C335 C 0.67232 0.21466 0.47936 0.0
C336 C 0.66386 0.20608 0.45467 0.0
C337 C 0.6854 0.19691 0.44476 0.0
C338 C 0.70361 0.1998 0.46183 0.0
C339 C 0.64263 0.18728 0.45834 0.0
C340 C 0.65833 0.22624 0.43983 0.0
H341 H 0.7565 0.15725 0.39834 0.0
H342 H 0.79065 0.17673 0.47981 0.0
H343 H 0.77132 0.22198 0.46119 0.0
H344 H 0.74761 0.22856 0.47924 0.0
H345 H 0.7711 0.21667 0.49322 0.0
H346 H 0.73657 0.15979 0.49078 0.0
H347 H 0.75574 0.18028 0.50816 0.0
H348 H 0.72492 0.18215 0.50539 0.0
H349 H 0.68704 0.15673 0.34699 0.0
H350 H 0.62278 0.18149 0.36917 0.0
H351 H 0.63955 0.19272 0.40854 0.0
H352 H 0.69357 0.13285 0.39439 0.0
H353 H 0.71867 0.13677 0.37417 0.0
H354 H 0.72178 0.13809 0.40686 0.0
H355 H 0.72302 0.19809 0.36904 0.0
H356 H 0.74603 0.18668 0.38253 0.0
H357 H 0.73108 0.17236 0.3568 0.0
H358 H 0.79296 0.14478 0.40879 0.0
C359 C 0.76335 0.16195 0.41604 0.0
C360 C 0.39954 0.66788 0.26167 0.0
C361 C 0.39121 0.64645 0.27138 0.0
C362 C 0.371 0.63392 0.2608 0.0
C363 C 0.36782 0.66355 0.23194 0.0
C364 C 0.38776 0.67595 0.24189 0.0
C365 C 0.39475 0.69781 0.22853 0.0
H366 H 0.37095 0.77005 0.1405 0.0
C367 C 0.35948 0.6766 0.21179 0.0
C368 C 0.3753 0.69684 0.20967 0.0
H369 H 0.4317 0.77728 0.18713 0.0
H370 H 0.41649 0.74236 0.20643 0.0
H371 H 0.33306 0.75255 0.18014 0.0
H372 H 0.37135 0.71659 0.12837 0.0
H373 H 0.34154 0.70436 0.12791 0.0
H374 H 0.34952 0.73334 0.11982 0.0
H375 H 0.32512 0.74968 0.14866 0.0
H376 H 0.31353 0.72883 0.17069 0.0
C377 C 0.39419 0.7175 0.24691 0.0
C378 C 0.41918 0.69725 0.21632 0.0
C379 C 0.28462 0.64488 0.16481 0.0
C380 C 0.27168 0.65364 0.14641 0.0
C381 C 0.27995 0.67576 0.1387 0.0
C382 C 0.30056 0.68833 0.14809 0.0
C383 C 0.31341 0.67917 0.16589 0.0
C384 C 0.30514 0.65795 0.17435 0.0
C385 C 0.32048 0.65158 0.19445 0.0
C386 C 0.3395 0.67222 0.19619 0.0
C387 C 0.33537 0.68825 0.17915 0.0
C388 C 0.3052 0.64848 0.21803 0.0
C389 C 0.3309 0.63039 0.18596 0.0
C390 C 0.38132 0.76417 0.1546 0.0
C391 C 0.40276 0.77708 0.16203 0.0
C392 C 0.415 0.76837 0.18101 0.0
C393 C 0.40624 0.74777 0.19216 0.0
C394 C 0.38495 0.73516 0.18434 0.0
C395 C 0.37297 0.74348 0.16574 0.0
C396 C 0.35081 0.72783 0.15934 0.0
C397 C 0.35152 0.70862 0.17683 0.0
C398 C 0.37149 0.71294 0.19175 0.0
C399 C 0.32942 0.74027 0.16476 0.0
C400 C 0.35317 0.72013 0.13243 0.0
H401 H 0.34411 0.63173 0.23444 0.0
H402 H 0.41517 0.67793 0.26895 0.0
H403 H 0.42064 0.68012 0.20904 0.0
H404 H 0.42234 0.7083 0.20045 0.0
H405 H 0.43356 0.70195 0.22957 0.0
H406 H 0.37784 0.71471 0.25835 0.0
H407 H 0.40951 0.7191 0.25924 0.0
H408 H 0.39409 0.73371 0.23798 0.0
H409 H 0.27916 0.62813 0.17155 0.0
H410 H 0.27035 0.68374 0.12548 0.0
H411 H 0.30565 0.70487 0.1411 0.0
H412 H 0.29267 0.66091 0.21921 0.0
H413 H 0.29469 0.63144 0.21855 0.0
H414 H 0.31567 0.65143 0.23476 0.0
H415 H 0.33596 0.63138 0.16631 0.0
H416 H 0.34723 0.62844 0.19547 0.0
H417 H 0.31786 0.61497 0.18842 0.0
H418 H 0.36391 0.61757 0.26779 0.0
C419 C 0.35935 0.64228 0.24141 0.0
C420 C 0.1225 0.28936 0.67011 0.0
C421 C 0.13071 0.27883 0.64902 0.0
C422 C 0.15146 0.28932 0.63736 0.0
C423 C 0.15523 0.32015 0.66699 0.0
C424 C 0.13491 0.31006 0.67862 0.0
C425 C 0.12838 0.32416 0.70015 0.0
H426 H 0.15214 0.41933 0.77089 0.0
C427 C 0.16393 0.34155 0.68011 0.0
C428 C 0.14823 0.34412 0.6996 0.0
H429 H 0.0935 0.36557 0.77786 0.0
H430 H 0.10828 0.346 0.74348 0.0
H431 H 0.1519 0.42133 0.71186 0.0
H432 H 0.19207 0.38629 0.75993 0.0
H433 H 0.21099 0.39856 0.73674 0.0
H434 H 0.19709 0.41633 0.75754 0.0
H435 H 0.17438 0.43583 0.73116 0.0
H436 H 0.18145 0.42484 0.7016 0.0
C437 C 0.10412 0.33132 0.69518 0.0
C438 C 0.12893 0.31027 0.72345 0.0
C439 C 0.23948 0.38934 0.64999 0.0
C440 C 0.25252 0.40988 0.65785 0.0
C441 C 0.24409 0.42081 0.67856 0.0
C442 C 0.22325 0.41161 0.69096 0.0
C443 C 0.21045 0.39112 0.68277 0.0
C444 C 0.21874 0.38037 0.6626 0.0
C445 C 0.20309 0.35872 0.65639 0.0
C446 C 0.18402 0.35814 0.6761 0.0
C447 C 0.18829 0.37718 0.69157 0.0
C448 C 0.19312 0.36085 0.63062 0.0
C449 C 0.21774 0.33925 0.65888 0.0
C450 C 0.14255 0.40326 0.7652 0.0
C451 C 0.12139 0.39423 0.77732 0.0
C452 C 0.10953 0.37329 0.76884 0.0
C453 C 0.11823 0.36181 0.74884 0.0
C454 C 0.13915 0.37118 0.73682 0.0
C455 C 0.151 0.39156 0.74512 0.0
C456 C 0.17296 0.39902 0.73005 0.0
C457 C 0.17228 0.37992 0.71129 0.0
C458 C 0.15238 0.36353 0.71533 0.0
C459 C 0.17028 0.42152 0.71808 0.0
C460 C 0.19452 0.40032 0.74682 0.0
H461 H 0.17932 0.31659 0.63632 0.0
H462 H 0.10654 0.28192 0.67946 0.0
H463 H 0.14426 0.30091 0.72286 0.0
H464 H 0.13109 0.32079 0.74019 0.0
H465 H 0.11268 0.29781 0.72531 0.0
H466 H 0.10261 0.33522 0.67561 0.0
H467 H 0.08952 0.3177 0.69979 0.0
H468 H 0.10132 0.34682 0.70517 0.0
H469 H 0.24541 0.38018 0.63445 0.0
H470 H 0.25343 0.43674 0.68501 0.0
H471 H 0.21784 0.42087 0.70645 0.0
H472 H 0.19048 0.37845 0.6272 0.0
H473 H 0.20533 0.35592 0.61623 0.0
H474 H 0.17551 0.35087 0.62819 0.0
H475 H 0.23014 0.34257 0.67433 0.0
H476 H 0.20683 0.32305 0.6631 0.0
H477 H 0.22837 0.33715 0.6421 0.0
H478 H 0.15846 0.28158 0.62138 0.0
C479 C 0.16369 0.30972 0.64618 0.0
Ho480 Ho 0.01193 0.03495 0.48916 0.0
Ho481 Ho 1.00575 1.01376 0.53964 0.0
C482 C 0.03163 0.06416 0.538 0.0
C483 C 0.01511 0.06186 0.45296 0.0
C484 C 0.03429 0.07972 0.44627 0.0
C485 C 0.03062 0.09635 0.42991 0.0
C486 C 0.04934 0.1129 0.42324 0.0
C487 C 0.07193 0.1128 0.43273 0.0
C488 C 0.07532 0.0964 0.44956 0.0
C489 C 0.05663 0.08009 0.4564 0.0
C490 C 0.0464 1.01206 0.50261 0.0
C491 C 0.98574 0.98462 0.49084 0.0
C492 C 1.0043 0.98701 0.57586 0.0
C493 C 0.98588 0.96925 0.58462 0.0
C494 C 0.992 0.95014 0.59547 0.0
C495 C 0.97442 0.93333 0.60398 0.0
C496 C 0.95041 0.93548 0.60188 0.0
C497 C 0.94446 0.95457 0.59055 0.0
C498 C 0.962 0.97117 0.58183 0.0
C499 C 0.97091 0.03625 0.52665 0.0
O500 O 0.02412 0.06421 0.51527 0.0
O501 O 0.02995 0.04524 0.55024 0.0
O502 O 0.0205 0.04152 0.45132 0.0
O503 O 1.00376 0.06543 0.47321 0.0
O504 O 0.03963 1.01291 0.48035 0.0
O505 O 0.03592 0.02469 0.51592 0.0
O506 O 0.99327 0.98458 0.51359 0.0
O507 O 0.98754 1.00352 0.4785 0.0
O508 O 0.99929 1.00748 0.57786 0.0
O509 O 0.01405 0.98298 0.55482 0.0
O510 O 0.97705 0.03445 0.549 0.0
O511 O 0.98163 0.02413 0.5129 0.0
H512 H 0.01342 0.09638 0.4221 0.0
H513 H 0.04634 0.12535 0.41016 0.0
H514 H 0.09249 0.09614 0.45735 0.0
H515 H 0.05968 0.06755 0.46936 0.0
H516 H 0.01036 0.94824 0.59743 0.0
H517 H 0.97965 0.91869 0.6122 0.0
H518 H 0.92625 0.95704 0.58892 0.0
H519 H 0.95686 0.98568 0.57319 0.0
Ho520 Ho 0.53358 0.02776 0.03202 0.0
Ho521 Ho 0.4844 1.01173 1.00329 0.0
C522 C 0.48506 0.04415 0.05104 0.0
C523 C 0.57197 0.0507 0.04759 0.0
C524 C 0.58001 0.0576 0.07213 0.0
C525 C 0.59509 0.07787 0.07563 0.0
C526 C 0.60087 0.08575 0.09918 0.0
C527 C 0.59163 0.07341 0.11957 0.0
C528 C 0.57692 0.05281 0.11588 0.0
C529 C 0.57105 0.04504 0.09236 0.0
C530 C 0.50713 0.99057 0.05286 0.0
C531 C 0.53263 0.99373 0.9857 0.0
C532 C 0.44587 0.9898 0.98667 0.0
C533 C 0.437 0.98587 0.9619 0.0
C534 C 0.42035 0.96703 0.95662 0.0
C535 C 0.41354 0.96206 0.93259 0.0
C536 C 0.42337 0.97587 0.91352 0.0
C537 C 0.4397 0.99503 0.91904 0.0
C538 C 0.44652 0.99993 0.94302 0.0
C539 C 0.51065 0.04952 0.98322 0.0
O540 O 0.50842 0.04798 0.05065 0.0
O541 O 0.47247 0.02879 0.03704 0.0
O542 O 0.56984 0.0291 0.04248 0.0
O543 O 0.55407 0.05994 0.04032 0.0
O544 O 0.52727 1.00049 0.06092 0.0
O545 O 0.50268 1.00173 0.03478 0.0
O546 O 0.50926 0.99038 0.98605 0.0
O547 O 0.54546 1.00941 0.99911 0.0
O548 O 0.44761 1.01056 0.99496 0.0
O549 O 0.46442 0.98036 0.99121 0.0
O550 O 0.49016 0.04015 0.97563 0.0
O551 O 0.51541 0.03744 1.00036 0.0
H552 H 0.60187 0.08791 0.06019 0.0
H553 H 0.61197 0.10183 0.10141 0.0
H554 H 0.56979 0.04277 0.13117 0.0
H555 H 0.55916 0.02943 0.09 0.0
H556 H 0.41306 0.95589 0.97099 0.0
H557 H 0.40115 0.94702 0.92888 0.0
H558 H 0.44734 1.00614 0.9048 0.0
H559 H 0.45957 1.01447 0.94675 0.0
Ho560 Ho 0.51043 0.49951 0.50153 0.0
Ho561 Ho 0.50636 0.53806 0.53344 0.0
C562 C 0.52857 0.49897 0.55846 0.0
C563 C 0.52606 0.46648 0.47925 0.0
C564 C 0.53334 0.4461 0.48893 0.0
C565 C 0.55228 0.43723 0.47804 0.0
C566 C 0.56127 0.4196 0.48894 0.0
C567 C 0.55142 0.41063 0.51093 0.0
C568 C 0.53203 0.4192 0.52146 0.0
C569 C 0.52314 0.43687 0.51062 0.0
C570 C 0.46783 0.49673 0.52455 0.0
C571 C 0.48891 0.53857 0.47646 0.0
C572 C 0.49007 0.5702 0.55695 0.0
C573 C 0.47445 0.58602 0.54969 0.0
C574 C 0.45814 0.58018 0.53102 0.0
C575 C 0.44406 0.59556 0.5233 0.0
C576 C 0.4457 0.61684 0.53452 0.0
C577 C 0.46176 0.6226 0.55346 0.0
C578 C 0.47621 0.60732 0.56085 0.0
C579 C 0.54907 0.54058 0.51084 0.0
O580 O 0.52784 0.48976 0.53624 0.0
O581 O 0.51988 0.51784 0.56273 0.0
O582 O 0.50362 0.46807 0.48132 0.0
O583 O 0.53957 0.48511 0.48541 0.0
O584 O 0.47087 0.49058 0.50208 0.0
O585 O 0.48766 0.50345 0.53388 0.0
O586 O 0.48714 0.54621 0.49917 0.0
O587 O 0.50003 0.5212 0.47189 0.0
O588 O 0.51081 0.57268 0.54628 0.0
O589 O 0.48037 0.54917 0.55789 0.0
O590 O 0.54591 0.54636 0.53345 0.0
O591 O 0.52928 0.53412 0.50121 0.0
H592 H 0.5605 0.4443 0.46144 0.0
H593 H 0.57602 0.41309 0.48025 0.0
H594 H 0.52425 0.41277 0.53851 0.0
H595 H 0.50875 0.44378 0.51958 0.0
H596 H 0.45612 0.56369 0.52245 0.0
H597 H 0.43154 0.59066 0.50893 0.0
H598 H 0.46325 0.63897 0.56235 0.0
H599 H 0.48872 0.6121 0.57525 0.0
Ho600 Ho 0.01055 0.49752 0.03221 0.0
Ho601 Ho 1.00376 0.54413 1.01046 0.0
C602 C 0.05267 0.54094 0.03789 0.0
C603 C 0.02549 0.4611 0.04486 0.0
C604 C 0.04838 0.45372 0.04941 0.0
C605 C 0.06691 0.45648 0.03209 0.0
C606 C 0.08828 0.44898 0.03686 0.0
C607 C 0.09157 0.43884 0.05911 0.0
C608 C 0.07309 0.43632 0.07646 0.0
C609 C 0.05168 0.44361 0.0716 0.0
C610 C 0.98498 0.52343 0.05981 0.0
C611 C 0.96426 0.49952 1.00018 0.0
C612 C 0.98789 0.58189 1.0079 0.0
C613 C 0.97018 0.59154 0.99427 0.0
C614 C 0.95839 0.60762 1.00596 0.0
C615 C 0.93978 0.61556 0.99463 0.0
C616 C 0.93263 0.60766 0.97123 0.0
C617 C 0.94484 0.59177 0.95935 0.0
C618 C 0.96339 0.58367 0.97085 0.0
C619 C 0.02308 0.51869 0.97576 0.0
O620 O 0.04613 0.51883 0.03931 0.0
O621 O 0.03887 0.55435 0.02856 0.0
O622 O 0.01889 0.47569 0.06054 0.0
O623 O 0.02088 0.46542 0.02232 0.0
O624 O 0.98042 0.50165 0.05823 0.0
O625 O 1.00326 0.53007 0.0472 0.0
O626 O 0.96935 0.52183 1.00091 0.0
O627 O 0.97855 0.48646 1.00927 0.0
O628 O 0.00687 0.57765 0.99602 0.0
O629 O 0.97919 0.56588 0.02269 0.0
O630 O 0.01802 0.5387 0.97211 0.0
O631 O 0.01733 0.51392 0.99754 0.0
H632 H 0.06492 0.46438 1.01486 0.0
H633 H 0.1023 0.45128 0.02325 0.0
H634 H 0.07502 0.42831 0.09364 0.0
H635 H 0.03762 0.44126 0.08518 0.0
H636 H 0.96317 0.6136 0.02421 0.0
H637 H 0.93055 0.62739 1.0046 0.0
H638 H 0.94001 0.5855 0.94124 0.0
H639 H 0.97212 0.57101 0.96166 0.0
C640 C 0.2276 0.24765 0.33869 0.0
C641 C 0.23987 0.23494 0.32243 0.0
C642 C 0.21171 0.23703 0.35593 0.0
C643 C 0.19336 0.18449 0.38836 0.0
H644 H 0.12955 0.19674 0.37992 0.0
C645 C 0.11313 0.12136 0.41654 0.0
C646 C 0.09226 0.12905 0.42434 0.0
C647 C 0.13228 0.13639 0.40811 0.0
C648 C 0.14728 0.1934 0.38304 0.0
H649 H 0.24568 0.20099 0.31262 0.0
H650 H 0.21881 0.18276 0.34326 0.0
H651 H 0.16225 0.21983 0.35944 0.0
H652 H 0.07512 0.15847 0.43002 0.0
H653 H 0.10889 0.185 0.41592 0.0
H654 H 0.17857 0.15806 0.41189 0.0
C655 C 0.22144 0.20093 0.3425 0.0
C656 C 0.16601 0.20665 0.37123 0.0
C657 C 0.23698 0.21147 0.32499 0.0
C658 C 0.09098 0.15213 0.42388 0.0
C659 C 0.11031 0.16727 0.41574 0.0
C660 C 0.17469 0.17146 0.40049 0.0
C661 C 0.20817 0.21355 0.35762 0.0
C662 C 0.18911 0.2019 0.37326 0.0
C663 C 0.13117 0.15956 0.40758 0.0
C664 C 0.15131 0.1753 0.39738 0.0
H665 H 0.22975 0.26578 0.33769 0.0
H666 H 0.2018 0.24711 0.36758 0.0
H667 H 0.21108 0.18065 0.39035 0.0
H668 H 0.11444 0.10359 0.41642 0.0
H669 H 0.14774 0.12969 0.40141 0.0
C670 C 0.34522 0.89572 0.72446 0.0
C671 C 0.35885 0.89692 0.70286 0.0
C672 C 0.35427 0.90631 0.74573 0.0
C673 C 0.4078 0.92702 0.7781 0.0
H674 H 0.3673 0.96312 0.81356 0.0
C675 C 0.43481 0.97194 0.86953 0.0
C676 C 0.41724 0.96991 0.88789 0.0
C677 C 0.4292 0.96551 0.84553 0.0
C678 C 0.37876 0.953 0.80395 0.0
H679 H 0.39304 0.90938 0.68688 0.0
H680 H 0.40915 0.92763 0.72459 0.0
H681 H 0.35517 0.94653 0.77409 0.0
H682 H 0.37993 0.96005 0.89539 0.0
H683 H 0.37021 0.94828 0.85368 0.0
H684 H 0.43102 0.93281 0.80837 0.0
C685 C 0.39134 0.91861 0.72476 0.0
C686 C 0.37185 0.94359 0.78136 0.0
C687 C 0.38217 0.90812 0.70328 0.0
C688 C 0.39389 0.9616 0.88169 0.0
C689 C 0.38829 0.95514 0.85773 0.0
C690 C 0.41467 0.93633 0.80085 0.0
C691 C 0.37724 0.91816 0.74599 0.0
C692 C 0.38604 0.9301 0.76851 0.0
C693 C 0.4059 0.9569 0.83941 0.0
C694 C 0.39994 0.949 0.81424 0.0
H695 H 0.32741 0.88671 0.7249 0.0
H696 H 0.34326 0.90526 0.76204 0.0
H697 H 0.41898 0.9166 0.76854 0.0
H698 H 0.45303 0.97805 0.87379 0.0
H699 H 0.44311 0.96722 0.83178 0.0
C700 C 0.59364 0.39613 0.73546 0.0
C701 C 0.61807 0.40086 0.74 0.0
C702 C 0.58355 0.40582 0.71568 0.0
C703 C 0.59452 0.45488 0.67398 0.0
H704 H 0.54623 0.42124 0.63381 0.0
C705 C 0.54309 0.49829 0.60196 0.0
C706 C 0.5387 0.48743 0.57914 0.0
C707 C 0.55242 0.48749 0.62132 0.0
C708 C 0.55976 0.43094 0.64476 0.0
H709 H 0.65087 0.41889 0.72547 0.0
H710 H 0.63335 0.43599 0.69208 0.0
H711 H 0.56269 0.40281 0.66752 0.0
H712 H 0.54078 0.45627 0.55932 0.0
H713 H 0.5566 0.43741 0.593 0.0
H714 H 0.59158 0.48301 0.6514 0.0
C715 C 0.62185 0.42507 0.70406 0.0
C716 C 0.56909 0.42036 0.66433 0.0
C717 C 0.63195 0.41521 0.72352 0.0
C718 C 0.54385 0.4653 0.57648 0.0
C719 C 0.55285 0.45437 0.59596 0.0
C720 C 0.58495 0.46553 0.6547 0.0
C721 C 0.59745 0.42076 0.69983 0.0
C722 C 0.58679 0.43209 0.67921 0.0
C723 C 0.5574 0.46529 0.61875 0.0
C724 C 0.56746 0.45376 0.63961 0.0
H725 H 0.5821 0.38539 0.74754 0.0
H726 H 0.56468 0.40206 0.71322 0.0
H727 H 0.60792 0.46466 0.68501 0.0
H728 H 0.53941 0.51527 0.60491 0.0
H729 H 0.5554 0.49651 0.63851 0.0
C730 C 0.91527 0.64848 0.22027 0.0
C731 C 0.90204 0.63704 0.23936 0.0
C732 C 0.92396 0.63672 0.20051 0.0
C733 C 0.91446 0.58218 0.16656 0.0
H734 H 0.9786 0.59945 0.14313 0.0
C735 C 0.95706 0.52709 0.09513 0.0
C736 C 0.97445 0.53726 0.07884 0.0
C737 C 0.94799 0.53959 0.114 0.0
C738 C 0.96049 0.59453 0.14902 0.0
H739 H 0.8881 0.60369 0.2521 0.0
H740 H 0.90258 0.58345 0.21747 0.0
H741 H 0.96336 0.62043 0.17679 0.0
H742 H 0.99577 0.56881 0.06965 0.0
H743 H 0.97935 0.59085 0.10176 0.0
H744 H 0.91124 0.55665 0.13859 0.0
C745 C 0.90614 0.60163 0.21782 0.0
C746 C 0.95177 0.60659 0.16853 0.0
C747 C 0.89771 0.61335 0.23774 0.0
C748 C 0.98229 0.56041 0.08175 0.0
C749 C 0.97301 0.57302 0.10047 0.0
C750 C 0.92306 0.57029 0.14686 0.0
C751 C 0.91948 0.61311 0.19892 0.0
C752 C 0.92867 0.60051 0.17773 0.0
C753 C 0.95581 0.56282 0.11713 0.0
C754 C 0.94632 0.5761 0.13779 0.0
H755 H 0.91869 0.66665 0.2203 0.0
H756 H 0.93387 0.64621 0.1862 0.0
H757 H 0.89647 0.57717 0.17283 0.0
H758 H 0.95071 0.50926 0.0936 0.0
H759 H 0.93519 0.53079 0.12649 0.0
C760 C 0.3693 0.17828 0.14497 0.0
C761 C 0.37803 0.18942 0.1664 0.0
C762 C 0.38123 0.16221 0.13361 0.0
C763 C 0.4388 0.1438 0.12642 0.0
H764 H 0.40283 0.08597 0.10953 0.0
C765 C 0.48419 0.07181 0.08573 0.0
C766 C 0.47237 0.0586 0.06705 0.0
C767 C 0.4727 0.08685 0.09948 0.0
C768 C 0.41312 0.1021 0.11381 0.0
H769 H 0.40638 0.19299 0.19236 0.0
H770 H 0.42756 0.16509 0.17215 0.0
H771 H 0.38309 0.11482 0.12933 0.0
H772 H 0.43909 0.05065 0.04838 0.0
H773 H 0.41932 0.07724 0.07176 0.0
H774 H 0.46868 0.13151 0.11024 0.0
C775 C 0.41138 0.16872 0.16432 0.0
C776 C 0.40179 0.11858 0.12523 0.0
C777 C 0.39924 0.18458 0.17591 0.0
C778 C 0.44866 0.06042 0.06278 0.0
C779 C 0.43727 0.07565 0.0763 0.0
C780 C 0.45009 0.12742 0.11469 0.0
C781 C 0.4023 0.15717 0.14325 0.0
C782 C 0.41449 0.13961 0.13154 0.0
C783 C 0.4492 0.08926 0.09467 0.0
C784 C 0.43738 0.10637 0.10812 0.0
H785 H 0.35287 0.18155 0.13739 0.0
H786 H 0.37397 0.15367 0.11726 0.0
H787 H 0.44895 0.15995 0.13094 0.0
H788 H 0.50242 0.07069 0.08962 0.0
H789 H 0.48231 0.09668 0.1138 0.0
C790 C 0.1613 0.87181 0.5745 0.0
C791 C 0.17705 0.88481 0.59044 0.0
C792 C 0.14151 0.88017 0.56613 0.0
C793 C 0.10244 0.92217 0.57734 0.0
H794 H 0.10736 0.93288 0.50791 0.0
C795 C 0.06725 0.99624 0.53572 0.0
C796 C 0.05842 0.99429 0.51205 0.0
C797 C 0.07743 0.97885 0.54545 0.0
C798 C 0.10522 0.9296 0.5272 0.0
H799 H 0.18358 0.91654 0.61067 0.0
H800 H 0.14866 0.9304 0.59697 0.0
H801 H 0.13138 0.90766 0.52597 0.0
H802 H 0.05282 0.97274 0.47996 0.0
H803 H 0.07023 0.94202 0.49709 0.0
H804 H 0.07662 0.94435 0.5788 0.0
C805 C 0.15172 0.9138 0.59096 0.0
C806 C 0.119 0.91513 0.5375 0.0
C807 C 0.17173 0.90574 0.59888 0.0
C808 C 0.05985 0.9747 0.49818 0.0
C809 C 0.06977 0.95713 0.50801 0.0
C810 C 0.08838 0.93635 0.56701 0.0
C811 C 0.13683 0.90137 0.57406 0.0
C812 C 0.11835 0.91203 0.56275 0.0
C813 C 0.07868 0.95902 0.53178 0.0
C814 C 0.09037 0.94098 0.54198 0.0
H815 H 0.16451 0.85541 0.56802 0.0
H816 H 0.13016 0.87033 0.55307 0.0
H817 H 0.10162 0.91986 0.59687 0.0
H818 H 0.06629 1.01124 0.54673 0.0
H819 H 0.08464 0.98115 0.56356 0.0
C820 C 0.78669 0.38779 0.90806 0.0
C821 C 0.76905 0.3995 0.89943 0.0
C822 C 0.80763 0.39919 0.91803 0.0
C823 C 0.83464 0.45485 0.9449 0.0
H824 H 0.89273 0.4298 0.93604 0.0
C825 C 0.92559 0.50167 0.97896 0.0
C826 C 0.94172 0.48869 0.98847 0.0
C827 C 0.90467 0.49145 0.96778 0.0
C828 C 0.87667 0.43699 0.93903 0.0
H829 H 0.76036 0.43293 0.89453 0.0
H830 H 0.79699 0.45282 0.9114 0.0
H831 H 0.85685 0.41135 0.91697 0.0
H832 H 0.94791 0.45444 0.99347 0.0
H833 H 0.91171 0.43675 0.9743 0.0
H834 H 0.85462 0.48056 0.96694 0.0
C835 C 0.79443 0.43463 0.91081 0.0
C836 C 0.85591 0.42632 0.928 0.0
C837 C 0.77341 0.42318 0.90078 0.0
C838 C 0.93614 0.46513 0.98642 0.0
C839 C 0.91529 0.45492 0.97517 0.0
C840 C 0.85547 0.46557 0.9559 0.0
C841 C 0.81193 0.42284 0.91972 0.0
C842 C 0.83441 0.43491 0.93086 0.0
C843 C 0.89916 0.46785 0.96557 0.0
C844 C 0.87686 0.45675 0.95333 0.0
H845 H 0.78443 0.36962 0.90708 0.0
H846 H 0.82029 0.38929 0.92483 0.0
H847 H 0.81857 0.46198 0.94795 0.0
H848 H 0.92914 0.51986 0.98005 0.0
H849 H 0.893 0.50211 0.96047 0.0
C850 C 0.73922 0.62588 0.41936 0.0
C851 C 0.74097 0.62504 0.39375 0.0
C852 C 0.71865 0.61604 0.43161 0.0
C853 C 0.65459 0.59571 0.42253 0.0
H854 H 0.6598 0.5645 0.48274 0.0
C855 C 0.57239 0.54626 0.47139 0.0
C856 C 0.57139 0.54792 0.49696 0.0
C857 C 0.59311 0.55468 0.45844 0.0
C858 C 0.65793 0.57334 0.46609 0.0
H859 H 0.72187 0.6134 0.36106 0.0
H860 H 0.68629 0.59609 0.38233 0.0
H861 H 0.69538 0.5814 0.46122 0.0
H862 H 0.59158 0.55936 0.52896 0.0
H863 H 0.62746 0.57409 0.50657 0.0
H864 H 0.61713 0.58776 0.42748 0.0
C865 C 0.70079 0.60446 0.39302 0.0
C866 C 0.67843 0.58309 0.4537 0.0
C867 C 0.72139 0.61421 0.38078 0.0
C868 C 0.59173 0.55776 0.50927 0.0
C869 C 0.61242 0.56613 0.49637 0.0
C870 C 0.63407 0.58598 0.43494 0.0
C871 C 0.6991 0.60514 0.41865 0.0
C872 C 0.67712 0.59452 0.43177 0.0
C873 C 0.61342 0.56493 0.47072 0.0
C874 C 0.63538 0.57471 0.45699 0.0
H875 H 0.75392 0.63386 0.43005 0.0
H876 H 0.71802 0.61719 0.45131 0.0
H877 H 0.65275 0.6046 0.40591 0.0
H878 H 0.55705 0.53874 0.46134 0.0
H879 H 0.5932 0.55311 0.43876 0.0
C880 C 0.25009 0.35728 0.14593 0.0
C881 C 0.2569 0.33821 0.13423 0.0
C882 C 0.23589 0.37049 0.13416 0.0
C883 C 0.19224 0.36616 0.08527 0.0
H884 H 0.19501 0.42998 0.09868 0.0
C885 C 0.12431 0.4174 0.04667 0.0
C886 C 0.11399 0.43044 0.06417 0.0
C887 C 0.14445 0.40806 0.05218 0.0
C888 C 0.19404 0.41216 0.09477 0.0
H889 H 0.25504 0.31874 0.10045 0.0
H890 H 0.23087 0.34223 0.07958 0.0
H891 H 0.22625 0.41039 0.11314 0.0
H892 H 0.1172 0.44476 0.10072 0.0
H893 H 0.15235 0.42846 0.11034 0.0
H894 H 0.15989 0.36794 0.06714 0.0
C895 C 0.23608 0.34667 0.09812 0.0
C896 C 0.21189 0.40091 0.1031 0.0
C897 C 0.2502 0.33336 0.10997 0.0
C898 C 0.12466 0.4346 0.08697 0.0
C899 C 0.1449 0.42545 0.09238 0.0
C900 C 0.17451 0.37745 0.07677 0.0
C901 C 0.22828 0.36509 0.11027 0.0
C902 C 0.21094 0.37765 0.09892 0.0
C903 C 0.1548 0.4118 0.07519 0.0
C904 C 0.17497 0.40047 0.08188 0.0
H905 H 0.25527 0.36173 0.16447 0.0
H906 H 0.2301 0.38439 0.14422 0.0
H907 H 0.19068 0.3482 0.08202 0.0
H908 H 0.11638 0.41382 0.029 0.0
H909 H 0.15179 0.39772 0.03853 0.0
C910 C 0.58099 0.23295 0.88729 0.0
C911 C 0.60532 0.24134 0.88733 0.0
C912 C 0.57191 0.2126 0.8986 0.0
C913 C 0.58982 0.15989 0.92486 0.0
H914 H 0.52618 0.15273 0.95142 0.0
C915 C 0.54685 0.08011 0.98004 0.0
C916 C 0.5233 0.07166 0.97441 0.0
C917 C 0.55794 0.10085 0.97059 0.0
C918 C 0.54395 0.15427 0.94399 0.0
H919 H 0.63899 0.2338 0.89961 0.0
H920 H 0.62321 0.19916 0.91994 0.0
H921 H 0.54296 0.18805 0.93311 0.0
H922 H 0.49315 0.07866 0.9543 0.0
H923 H 0.51204 0.11433 0.93838 0.0
H924 H 0.5907 0.126 0.93626 0.0
C925 C 0.61103 0.20812 0.91075 0.0
C926 C 0.55365 0.17469 0.93325 0.0
C927 C 0.62015 0.22842 0.89927 0.0
C928 C 0.51124 0.08456 0.95923 0.0
C929 C 0.52211 0.10523 0.95012 0.0
C930 C 0.58015 0.13948 0.93586 0.0
C931 C 0.58669 0.19974 0.9107 0.0
C932 C 0.57669 0.17791 0.92312 0.0
C933 C 0.54565 0.11385 0.95556 0.0
C934 C 0.5569 0.13618 0.94533 0.0
H935 H 0.56868 0.24221 0.87876 0.0
H936 H 0.55316 0.20689 0.89755 0.0
H937 H 0.60747 0.16125 0.91718 0.0
H938 H 0.55679 0.0706 0.99145 0.0
H939 H 0.57606 0.10683 0.9753 0.0
C940 C 0.91873 0.79829 0.39301 0.0
C941 C 0.89409 0.79169 0.39391 0.0
C942 C 0.92904 0.81938 0.4024 0.0
C943 C 0.91705 0.86403 0.44673 0.0
H944 H 0.96868 0.90133 0.41408 0.0
C945 C 0.96919 0.94342 0.49329 0.0
C946 C 0.97494 0.96284 0.47925 0.0
C947 C 0.9596 0.9228 0.48249 0.0
C948 C 0.95419 0.89118 0.42341 0.0
H949 H 0.86112 0.80323 0.40429 0.0
H950 H 0.87899 0.83934 0.42092 0.0
H951 H 0.9518 0.8652 0.39568 0.0
H952 H 0.97513 0.97545 0.44255 0.0
H953 H 0.95857 0.93947 0.42371 0.0
H954 H 0.91937 0.88988 0.47444 0.0
C955 C 0.89043 0.82807 0.41339 0.0
C956 C 0.94465 0.87033 0.41295 0.0
C957 C 0.88015 0.80719 0.40384 0.0
C958 C 0.97086 0.96095 0.45401 0.0
C959 C 0.96152 0.94022 0.44315 0.0
C960 C 0.92676 0.8847 0.45731 0.0
C961 C 0.91503 0.83443 0.41311 0.0
C962 C 0.92581 0.85649 0.42438 0.0
C963 C 0.95568 0.92082 0.45724 0.0
C964 C 0.94542 0.89867 0.4458 0.0
H965 H 0.93017 0.78692 0.3857 0.0
H966 H 0.94806 0.82361 0.40191 0.0
H967 H 0.90273 0.85381 0.45625 0.0
H968 H 0.97208 0.94409 0.51275 0.0
H969 H 0.95559 0.90826 0.49395 0.0
C970 C 0.32684 0.75471 0.54222 0.0
C971 C 0.32689 0.77213 0.52574 0.0
C972 C 0.33507 0.735 0.53505 0.0
C973 C 0.37811 0.71525 0.49487 0.0
H974 H 0.35185 0.65843 0.52352 0.0
C975 C 0.42814 0.638 0.50252 0.0
C976 C 0.42989 0.6326 0.52714 0.0
C977 C 0.41279 0.65269 0.49569 0.0
C978 C 0.35921 0.67408 0.51506 0.0
H979 H 0.33469 0.78271 0.48869 0.0
H980 H 0.3498 0.7479 0.47597 0.0
H981 H 0.32788 0.68862 0.52191 0.0
H982 H 0.41691 0.63774 0.5638 0.0
H983 H 0.38981 0.66309 0.55185 0.0
H984 H 0.40988 0.70089 0.48913 0.0
C985 C 0.34319 0.74957 0.49443 0.0
C986 C 0.34555 0.69132 0.51415 0.0
C987 C 0.33459 0.76936 0.50162 0.0
C988 C 0.41596 0.64183 0.54476 0.0
C989 C 0.40034 0.6561 0.53789 0.0
C990 C 0.39173 0.69786 0.49557 0.0
C991 C 0.3437 0.73231 0.51122 0.0
C992 C 0.35533 0.71247 0.50532 0.0
C993 C 0.39864 0.66165 0.51334 0.0
C994 C 0.38273 0.6776 0.50683 0.0
H995 H 0.32086 0.75657 0.5609 0.0
H996 H 0.33566 0.72225 0.54856 0.0
H997 H 0.38613 0.7314 0.48805 0.0
H998 H 0.4388 0.63104 0.48866 0.0
H999 H 0.4118 0.65689 0.47669 0.0
C1000 C 0.77366 0.82965 0.69551 0.0
C1001 C 0.77835 0.81847 0.71668 0.0
C1002 C 0.79224 0.84009 0.68093 0.0
C1003 C 0.85282 0.86715 0.68638 0.0
H1004 H 0.85787 0.85992 0.61624 0.0
C1005 C 0.93495 0.90859 0.63478 0.0
C1006 C 0.93159 0.91857 0.61246 0.0
C1007 C 0.91656 0.89439 0.64592 0.0
C1008 C 0.85658 0.86233 0.63579 0.0
H1009 H 0.8061 0.80935 0.73909 0.0
H1010 H 0.83832 0.82753 0.71374 0.0
H1011 H 0.82433 0.8392 0.63834 0.0
H1012 H 0.9065 0.92029 0.58369 0.0
H1013 H 0.87414 0.89645 0.60367 0.0
H1014 H 0.8844 0.89071 0.68409 0.0
C1015 C 0.82035 0.82813 0.70835 0.0
C1016 C 0.83742 0.85042 0.64839 0.0
C1017 C 0.80189 0.81755 0.72271 0.0
C1018 C 0.9096 0.9133 0.60114 0.0
C1019 C 0.8911 0.89932 0.61244 0.0
C1020 C 0.87174 0.87923 0.67382 0.0
C1021 C 0.81573 0.83978 0.68755 0.0
C1022 C 0.83552 0.85262 0.67382 0.0
C1023 C 0.89421 0.89004 0.63522 0.0
C1024 C 0.87401 0.87687 0.64838 0.0
H1025 H 0.75568 0.83057 0.69044 0.0
H1026 H 0.78827 0.84907 0.665 0.0
H1027 H 0.85153 0.86942 0.70596 0.0
H1028 H 0.95154 0.91234 0.64417 0.0
H1029 H 0.91979 0.88713 0.66319 0.0
C1030 C 0.62125 0.14921 0.32857 0.0
C1031 C 0.64392 0.16159 0.33073 0.0
C1032 C 0.61359 0.13992 0.30601 0.0
C1033 C 0.63823 0.11929 0.2499 0.0
H1034 H 0.57776 0.12289 0.22112 0.0
C1035 C 0.61932 0.09332 0.15042 0.0
C1036 C 0.59673 0.08233 0.14458 0.0
C1037 C 0.62394 0.10229 0.17375 0.0
C1038 C 0.59457 0.12144 0.2291 0.0
H1039 H 0.67556 0.17553 0.31081 0.0
H1040 H 0.66229 0.15921 0.27162 0.0
H1041 H 0.58717 0.14069 0.26091 0.0
H1042 H 0.56122 0.07219 0.15869 0.0
H1043 H 0.56951 0.08723 0.19967 0.0
H1044 H 0.6457 0.09991 0.21849 0.0
C1045 C 0.65064 0.1563 0.28737 0.0
C1046 C 0.59994 0.13169 0.2518 0.0
C1047 C 0.6582 0.16563 0.30976 0.0
C1048 C 0.57891 0.08032 0.16269 0.0
C1049 C 0.58356 0.0892 0.18608 0.0
C1050 C 0.63282 0.10891 0.2274 0.0
C1051 C 0.62856 0.14286 0.28541 0.0
C1052 C 0.622 0.13102 0.26215 0.0
C1053 C 0.60611 0.10035 0.19184 0.0
C1054 C 0.6111 0.11018 0.21652 0.0
H1055 H 0.60994 0.14578 0.34448 0.0
H1056 H 0.59647 0.12961 0.30489 0.0
H1057 H 0.65518 0.11814 0.25777 0.0
H1058 H 0.6335 0.09495 0.13696 0.0
H1059 H 0.64143 0.11105 0.17748 0.0
C1060 C 0.41052 0.64957 0.31321 0.0
C1061 C 0.40323 0.63673 0.29218 0.0
C1062 C 0.42014 0.63978 0.33319 0.0
C1063 C 0.44929 0.59067 0.35044 0.0
H1064 H 0.4291 0.60365 0.41623 0.0
C1065 C 0.4767 0.54016 0.43229 0.0
C1066 C 0.47887 0.55012 0.45575 0.0
C1067 C 0.46766 0.55101 0.41281 0.0
C1068 C 0.43539 0.59996 0.39811 0.0
H1069 H 0.4013 0.60345 0.27582 0.0
H1070 H 0.41826 0.58667 0.31012 0.0
H1071 H 0.41422 0.62228 0.38203 0.0
H1072 H 0.47313 0.57981 0.47663 0.0
H1073 H 0.4582 0.59895 0.44288 0.0
H1074 H 0.47089 0.56887 0.36621 0.0
C1075 C 0.41641 0.6043 0.31137 0.0
C1076 C 0.42668 0.61073 0.37832 0.0
C1077 C 0.40648 0.61395 0.29164 0.0
C1078 C 0.47164 0.57139 0.45898 0.0
C1079 C 0.46286 0.5824 0.43942 0.0
C1080 C 0.45825 0.58015 0.3702 0.0
C1081 C 0.42324 0.61693 0.33266 0.0
C1082 C 0.43329 0.60614 0.35407 0.0
C1083 C 0.46068 0.57249 0.41581 0.0
C1084 C 0.45136 0.58435 0.39453 0.0
H1085 H 0.40824 0.66709 0.3145 0.0
H1086 H 0.4253 0.65021 0.34906 0.0
H1087 H 0.45521 0.58685 0.33219 0.0
H1088 H 0.48185 0.52377 0.42893 0.0
H1089 H 0.46592 0.54224 0.39539 0.0
C1090 C 0.08694 0.4062 0.80133 0.0
C1091 C 0.11146 0.4065 0.79844 0.0
C1092 C 0.07751 0.41743 0.82102 0.0
C1093 C 0.09142 0.44249 0.88308 0.0
H1094 H 0.03782 0.47293 0.87157 0.0
C1095 C 0.04063 0.48396 0.96181 0.0
C1096 C 0.03318 0.50457 0.95669 0.0
C1097 C 0.05025 0.47132 0.94323 0.0
C1098 C 0.05287 0.46465 0.87521 0.0
H1099 H 0.14515 0.41903 0.81468 0.0
H1100 H 0.12876 0.43884 0.84876 0.0
H1101 H 0.0547 0.45309 0.83815 0.0
H1102 H 0.03027 0.52805 0.92794 0.0
H1103 H 0.04685 0.50635 0.89593 0.0
H1104 H 0.08973 0.45449 0.92015 0.0
C1105 C 0.11676 0.42968 0.83582 0.0
C1106 C 0.06244 0.45297 0.85597 0.0
C1107 C 0.12622 0.41849 0.81602 0.0
C1108 C 0.03566 0.51219 0.9326 0.0
C1109 C 0.04508 0.49961 0.91411 0.0
C1110 C 0.08173 0.45412 0.90242 0.0
C1111 C 0.09222 0.4294 0.83863 0.0
C1112 C 0.08195 0.44175 0.85949 0.0
C1113 C 0.05249 0.47891 0.919 0.0
C1114 C 0.06239 0.46555 0.89875 0.0
H1115 H 0.0749 0.39745 0.78815 0.0
H1116 H 0.05855 0.41652 0.82252 0.0
H1117 H 0.10625 0.43391 0.88671 0.0
H1118 H 0.03916 0.47766 0.98014 0.0
H1119 H 0.05562 0.45544 0.9478 0.0
C1120 C 0.62782 0.85453 0.8676 0.0
C1121 C 0.64148 0.84273 0.88225 0.0
C1122 C 0.61596 0.87127 0.87769 0.0
C1123 C 0.61539 0.90884 0.93221 0.0
H1124 H 0.55443 0.91739 0.90786 0.0
C1125 C 0.56943 0.98274 0.96652 0.0
C1126 C 0.54495 0.97823 0.97065 0.0
C1127 C 0.58124 0.9671 0.95407 0.0
C1128 C 0.57136 0.91515 0.91504 0.0
H1129 H 0.65304 0.83924 0.9192 0.0
H1130 H 0.63153 0.86765 0.93694 0.0
H1131 H 0.57413 0.88746 0.8907 0.0
H1132 H 0.51362 0.95386 0.96453 0.0
H1133 H 0.53419 0.92648 0.94353 0.0
H1134 H 0.61214 0.93585 0.95732 0.0
C1135 C 0.63046 0.86437 0.9175 0.0
C1136 C 0.58283 0.89813 0.90494 0.0
C1137 C 0.64252 0.84778 0.90736 0.0
C1138 C 0.53247 0.95799 0.96154 0.0
C1139 C 0.5443 0.94227 0.94936 0.0
C1140 C 0.60381 0.92571 0.94247 0.0
C1141 C 0.61722 0.87652 0.90276 0.0
C1142 C 0.60498 0.8947 0.91344 0.0
C1143 C 0.56888 0.94648 0.94571 0.0
C1144 C 0.5816 0.92906 0.93408 0.0
H1145 H 0.62628 0.85088 0.84825 0.0
H1146 H 0.60615 0.88038 0.86569 0.0
H1147 H 0.63259 0.90699 0.93897 0.0
H1148 H 0.57956 0.99825 0.97312 0.0
H1149 H 0.6001 0.97115 0.95117 0.0
C1150 C 0.81336 0.12572 0.45014 0.0
C1151 C 0.81466 0.14913 0.45245 0.0
C1152 C 0.83149 0.1151 0.4586 0.0
C1153 C 0.89315 0.12078 0.47006 0.0
H1154 H 0.87607 0.07454 0.51812 0.0
C1155 C 0.94168 0.06198 0.53588 0.0
C1156 C 0.95388 0.05037 0.51863 0.0
C1157 C 0.92558 0.07555 0.52833 0.0
C1158 C 0.88106 0.0875 0.50482 0.0
H1159 H 0.8359 0.17993 0.4648 0.0
H1160 H 0.86829 0.16118 0.4791 0.0
H1161 H 0.84607 0.09576 0.50347 0.0
H1162 H 0.959 0.04366 0.48011 0.0
H1163 H 0.9312 0.06796 0.46686 0.0
H1164 H 0.928 0.11191 0.47081 0.0
C1165 C 0.85305 0.15121 0.47092 0.0
C1166 C 0.86397 0.09952 0.49642 0.0
C1167 C 0.83463 0.16185 0.46286 0.0
C1168 C 0.94991 0.05262 0.49372 0.0
C1169 C 0.93413 0.06652 0.48616 0.0
C1170 C 0.91018 0.10843 0.47813 0.0
C1171 C 0.85137 0.12774 0.46915 0.0
C1172 C 0.86987 0.11613 0.47891 0.0
C1173 C 0.92177 0.07796 0.50343 0.0
C1174 C 0.90419 0.09166 0.49549 0.0
H1175 H 0.79798 0.11557 0.44241 0.0
H1176 H 0.82996 0.09697 0.45701 0.0
H1177 H 0.89795 0.13349 0.45645 0.0
H1178 H 0.94448 0.0605 0.5552 0.0
H1179 H 0.91621 0.08427 0.54192 0.0
C1180 C 0.24317 0.64439 0.11125 0.0
C1181 C 0.24977 0.64026 0.1352 0.0
C1182 C 0.22239 0.63298 0.101 0.0
C1183 C 0.16528 0.59513 0.11713 0.0
H1184 H 0.16034 0.59015 0.04685 0.0
C1185 C 0.08678 0.54026 0.06647 0.0
C1186 C 0.07594 0.55121 0.04831 0.0
C1187 C 0.10795 0.55043 0.0772 0.0
C1188 C 0.16136 0.59146 0.06652 0.0
H1189 H 0.23893 0.61975 0.16663 0.0
H1190 H 0.20384 0.59894 0.14836 0.0
H1191 H 0.19704 0.60776 0.0649 0.0
H1192 H 0.0795 0.58145 0.02701 0.0
H1193 H 0.11679 0.59871 0.04501 0.0
H1194 H 0.12966 0.57774 0.11835 0.0
C1195 C 0.21429 0.61178 0.13767 0.0
C1196 C 0.18251 0.60183 0.07705 0.0
C1197 C 0.23492 0.62358 0.14815 0.0
C1198 C 0.08722 0.57246 0.0409 0.0
C1199 C 0.10868 0.58236 0.0512 0.0
C1200 C 0.1443 0.58428 0.10654 0.0
C1201 C 0.20743 0.61636 0.1139 0.0
C1202 C 0.1849 0.6042 0.10262 0.0
C1203 C 0.11926 0.57161 0.06969 0.0
C1204 C 0.14193 0.58251 0.08107 0.0
H1205 H 0.25409 0.6565 0.10006 0.0
H1206 H 0.21804 0.63763 0.08292 0.0
H1207 H 0.16578 0.59673 0.13677 0.0
H1208 H 0.07865 0.52397 0.0728 0.0
H1209 H 0.11561 0.54158 0.09126 0.0
C1210 C 0.29434 0.43093 0.65714 0.0
C1211 C 0.27467 0.41981 0.64451 0.0
C1212 C 0.31511 0.43989 0.64462 0.0
C1213 C 0.347 0.43588 0.58496 0.0
H1214 H 0.38364 0.49202 0.60628 0.0
C1215 C 0.42511 0.47973 0.52669 0.0
C1216 C 0.44551 0.48992 0.53867 0.0
C1217 C 0.4044 0.47194 0.53985 0.0
C1218 C 0.37381 0.47619 0.60019 0.0
H1219 H 0.26162 0.41014 0.60842 0.0
H1220 H 0.29756 0.42568 0.58673 0.0
H1221 H 0.34766 0.47705 0.62854 0.0
H1222 H 0.4599 0.50033 0.57398 0.0
H1223 H 0.42381 0.48666 0.59703 0.0
H1224 H 0.37307 0.43497 0.55666 0.0
C1225 C 0.29717 0.4271 0.60642 0.0
C1226 C 0.35308 0.46756 0.61301 0.0
C1227 C 0.27643 0.41814 0.61893 0.0
C1228 C 0.4445 0.49259 0.56417 0.0
C1229 C 0.42372 0.4848 0.57738 0.0
C1230 C 0.36767 0.44451 0.57216 0.0
C1231 C 0.31693 0.43805 0.61904 0.0
C1232 C 0.33927 0.44728 0.60555 0.0
C1233 C 0.4034 0.4741 0.56544 0.0
C1234 C 0.3814 0.46486 0.57946 0.0
H1235 H 0.2939 0.43233 0.67683 0.0
H1236 H 0.32995 0.44787 0.6551 0.0
H1237 H 0.33726 0.42002 0.57885 0.0
H1238 H 0.4252 0.47752 0.50706 0.0
H1239 H 0.3891 0.46426 0.52985 0.0
C1240 C 0.76282 0.66656 0.86987 0.0
C1241 C 0.76044 0.68871 0.87676 0.0
C1242 C 0.7783 0.65499 0.88213 0.0
C1243 C 0.81672 0.65783 0.9368 0.0
H1244 H 0.85455 0.62437 0.89458 0.0
C1245 C 0.90783 0.6378 0.96341 0.0
C1246 C 0.91203 0.61552 0.95982 0.0
C1247 C 0.88771 0.64485 0.95413 0.0
C1248 C 0.84395 0.63345 0.90663 0.0
H1249 H 0.77163 0.71583 0.90243 0.0
H1250 H 0.79896 0.69598 0.92349 0.0
H1251 H 0.82123 0.63946 0.87791 0.0
H1252 H 0.89828 0.58327 0.94324 0.0
H1253 H 0.86354 0.5959 0.92632 0.0
H1254 H 0.84028 0.65258 0.96523 0.0
C1255 C 0.78857 0.68721 0.90901 0.0
C1256 C 0.82474 0.642 0.89715 0.0
C1257 C 0.77288 0.69865 0.89694 0.0
C1258 C 0.89586 0.60063 0.94609 0.0
C1259 C 0.87586 0.60779 0.93652 0.0
C1260 C 0.83613 0.64952 0.94617 0.0
C1261 C 0.79199 0.66545 0.90134 0.0
C1262 C 0.81102 0.65456 0.91204 0.0
C1263 C 0.87146 0.62989 0.94073 0.0
C1264 C 0.85009 0.63749 0.93111 0.0
H1265 H 0.75326 0.65846 0.85448 0.0
H1266 H 0.78001 0.63806 0.8761 0.0
H1267 H 0.80633 0.66701 0.94894 0.0
H1268 H 0.92012 0.64989 0.97339 0.0
H1269 H 0.88496 0.6621 0.95724 0.0
C1270 C 0.42643 0.81666 0.16314 0.0
C1271 C 0.41233 0.79929 0.15013 0.0
C1272 C 0.43569 0.83706 0.15205 0.0
C1273 C 0.42833 0.87413 0.09956 0.0
H1274 H 0.49263 0.90004 0.11367 0.0
C1275 C 0.476 0.95534 0.05055 0.0
C1276 C 0.49367 0.96944 0.06327 0.0
C1277 C 0.46532 0.93466 0.06041 0.0
C1278 C 0.47447 0.89347 0.10972 0.0
H1279 H 0.39732 0.79069 0.11451 0.0
H1280 H 0.41286 0.82626 0.09562 0.0
H1281 H 0.47565 0.86494 0.1322 0.0
H1282 H 0.51318 0.97299 0.09684 0.0
H1283 H 0.49425 0.93811 0.11427 0.0
H1284 H 0.42699 0.9029 0.0774 0.0
C1285 C 0.4167 0.82402 0.11457 0.0
C1286 C 0.46471 0.87305 0.1204 0.0
C1287 C 0.40764 0.80347 0.12557 0.0
C1288 C 0.4998 0.96257 0.08633 0.0
C1289 C 0.48901 0.94221 0.09628 0.0
C1290 C 0.43803 0.89477 0.08906 0.0
C1291 C 0.43105 0.84115 0.12754 0.0
C1292 C 0.44143 0.863 0.11565 0.0
C1293 C 0.47184 0.92752 0.08342 0.0
C1294 C 0.4613 0.905 0.09405 0.0
H1295 H 0.43017 0.81474 0.18215 0.0
H1296 H 0.44628 0.84985 0.1629 0.0
H1297 H 0.4103 0.86713 0.09549 0.0
H1298 H 0.4709 0.95995 0.0327 0.0
H1299 H 0.45237 0.92403 0.04963 0.0
C1300 C 0.11511 0.25424 0.6134 0.0
C1301 C 0.11807 0.25711 0.63872 0.0
C1302 C 0.10516 0.23351 0.60322 0.0
C1303 C 0.07087 0.17716 0.61833 0.0
H1304 H 0.09562 0.16029 0.55553 0.0
C1305 C 0.04667 0.08735 0.57502 0.0
C1306 C 0.04221 0.08588 0.54985 0.0
C1307 C 0.05573 0.10796 0.58625 0.0
C1308 C 0.0883 0.16476 0.57296 0.0
H1309 H 0.11226 0.24024 0.6732 0.0
H1310 H 0.09525 0.2039 0.65551 0.0
H1311 H 0.11122 0.19619 0.57441 0.0
H1312 H 0.04412 0.10526 0.51683 0.0
H1313 H 0.06001 0.14097 0.53629 0.0
H1314 H 0.04821 0.14538 0.61689 0.0
C1315 C 0.10032 0.21782 0.64343 0.0
C1316 C 0.09723 0.18552 0.58385 0.0
C1317 C 0.11012 0.23872 0.65366 0.0
C1318 C 0.04732 0.10562 0.53622 0.0
C1319 C 0.05658 0.12616 0.54741 0.0
C1320 C 0.06206 0.15628 0.60749 0.0
C1321 C 0.09798 0.21477 0.61796 0.0
C1322 C 0.08857 0.19222 0.60665 0.0
C1323 C 0.06083 0.12771 0.57262 0.0
C1324 C 0.07053 0.14981 0.58455 0.0
H1325 H 0.1206 0.26811 0.60132 0.0
H1326 H 0.10312 0.23226 0.58366 0.0
H1327 H 0.06343 0.18164 0.63569 0.0
H1328 H 0.04293 0.07258 0.58618 0.0
H1329 H 0.05898 0.10836 0.60563 0.0
C1330 C 0.66953 0.27255 0.53726 0.0
C1331 C 0.65888 0.2503 0.53326 0.0
C1332 C 0.65617 0.2886 0.54622 0.0
C1333 C 0.59493 0.29777 0.54227 0.0
H1334 H 0.61973 0.35534 0.57165 0.0
C1335 C 0.54695 0.37392 0.53251 0.0
C1336 C 0.56162 0.39261 0.523 0.0
C1337 C 0.55671 0.35627 0.54242 0.0
C1338 C 0.6125 0.33928 0.56359 0.0
H1339 H 0.6269 0.22664 0.53802 0.0
H1340 H 0.60368 0.25449 0.55457 0.0
H1341 H 0.64115 0.32346 0.57572 0.0
H1342 H 0.59789 0.40821 0.51784 0.0
H1343 H 0.61493 0.37724 0.53467 0.0
H1344 H 0.56687 0.31372 0.52928 0.0
C1345 C 0.62209 0.25978 0.55004 0.0
C1346 C 0.62475 0.32104 0.56588 0.0
C1347 C 0.63537 0.24381 0.54073 0.0
C1348 C 0.58618 0.39381 0.52463 0.0
C1349 C 0.59592 0.37624 0.53463 0.0
C1350 C 0.58265 0.31591 0.54015 0.0
C1351 C 0.63198 0.28259 0.55155 0.0
C1352 C 0.6166 0.30032 0.55437 0.0
C1353 C 0.58129 0.35707 0.54314 0.0
C1354 C 0.59178 0.33707 0.54993 0.0
H1355 H 0.6876 0.27796 0.53147 0.0
H1356 H 0.6644 0.30599 0.54693 0.0
H1357 H 0.58823 0.28224 0.53281 0.0
H1358 H 0.52795 0.37255 0.53149 0.0
H1359 H 0.54502 0.34174 0.54896 0.0
loop_
_geom_bond_atom_site_label_1
_geom_bond_atom_site_label_2
_geom_bond_distance
_geom_bond_site_symmetry_2
_ccdc_geom_bond_type
C0 C1 1.391 . S
C0 C4 1.391 . S
C0 H42 0.948 . S
C1 C0 1.391 . S
C1 C2 1.391 . S
C2 C1 1.391 . S
C2 H58 0.947 . S
C2 C59 1.392 . S
C3 C4 1.391 . S
C3 C7 1.397 . S
C3 C59 1.419 . S
C4 C0 1.391 . S
C4 C3 1.391 . S
C4 C5 1.399 . S
C5 C4 1.399 . S
C5 C8 1.396 . S
C5 C17 1.453 . S
C5 C18 1.684 . S
H6 C30 0.948 . S
C7 C3 1.397 . S
C7 C8 1.394 . S
C7 C26 1.723 . S
C8 C5 1.396 . S
C8 C7 1.394 . S
C8 C38 1.723 . S
H9 C32 0.947 . S
H10 C33 0.948 . S
H11 C39 0.982 . S
H12 C40 0.979 . S
H13 C40 0.980 . S
H14 C40 0.983 . S
H15 C39 0.979 . S
H16 C39 0.977 . S
C17 C5 1.453 . S
C17 H46 0.982 . S
C17 H47 0.979 . S
C17 H48 0.977 . S
C18 C5 1.684 . S
C18 H43 0.979 . S
C18 H44 0.980 . S
C18 H45 0.983 . S
C19 C20 1.391 . S
C19 C24 1.391 . S
C19 H49 0.948 . S
C20 C19 1.391 . S
C20 C21 1.391 . S
C21 C20 1.391 . S
C21 C22 1.392 . S
C21 H50 0.947 . S
C22 C21 1.392 . S
C22 C23 1.419 . S
C22 H51 0.948 . S
C23 C22 1.419 . S
C23 C24 1.391 . S
C23 C27 1.397 . S
C24 C19 1.391 . S
C24 C23 1.391 . S
C24 C25 1.399 . S
C25 C24 1.399 . S
C25 C26 1.396 . S
C25 C28 1.453 . S
C25 C29 1.684 . S
C26 C7 1.723 . S
C26 C25 1.396 . S
C26 C27 1.394 . S
C27 C23 1.397 . S
C27 C26 1.394 . S
C27 C37 1.723 . S
C28 C25 1.453 . S
C28 H52 0.982 . S
C28 H53 0.979 . S
C28 H54 0.977 . S
C29 C25 1.684 . S
C29 H55 0.979 . S
C29 H56 0.980 . S
C29 H57 0.983 . S
C30 H6 0.948 . S
C30 C31 1.391 . S
C30 C35 1.391 . S
C31 C30 1.391 . S
C31 C32 1.391 . S
C32 H9 0.947 . S
C32 C31 1.391 . S
C32 C33 1.392 . S
C33 H10 0.948 . S
C33 C32 1.392 . S
C33 C34 1.419 . S
C34 C33 1.419 . S
C34 C35 1.391 . S
C34 C38 1.397 . S
C35 C30 1.391 . S
C35 C34 1.391 . S
C35 C36 1.399 . S
C36 C35 1.399 . S
C36 C37 1.396 . S
C36 C39 1.453 . S
C36 C40 1.684 . S
C37 C27 1.723 . S
C37 C36 1.396 . S
C37 C38 1.394 . S
C38 C8 1.723 . S
C38 C34 1.397 . S
C38 C37 1.394 . S
C39 H11 0.982 . S
C39 H15 0.979 . S
C39 H16 0.977 . S
C39 C36 1.453 . S
C40 H12 0.979 . S
C40 H13 0.980 . S
C40 H14 0.983 . S
C40 C36 1.684 . S
H41 C59 0.948 . S
H42 C0 0.948 . S
H43 C18 0.979 . S
H44 C18 0.980 . S
H45 C18 0.983 . S
H46 C17 0.982 . S
H47 C17 0.979 . S
H48 C17 0.977 . S
H49 C19 0.948 . S
H50 C21 0.947 . S
H51 C22 0.948 . S
H52 C28 0.982 . S
H53 C28 0.979 . S
H54 C28 0.977 . S
H55 C29 0.979 . S
H56 C29 0.980 . S
H57 C29 0.983 . S
H58 C2 0.947 . S
C59 C2 1.392 . S
C59 C3 1.419 . S
C59 H41 0.948 . S
C60 C61 1.391 . S
C60 C64 1.391 . S
C60 H102 0.948 . S
C61 C60 1.391 . S
C61 C62 1.391 . S
C62 C61 1.391 . S
C62 H118 0.947 . S
C62 C119 1.392 . S
C63 C64 1.391 . S
C63 C67 1.397 . S
C63 C119 1.419 . S
C64 C60 1.391 . S
C64 C63 1.391 . S
C64 C65 1.399 . S
C65 C64 1.399 . S
C65 C68 1.396 . S
C65 C77 1.453 . S
C65 C78 1.684 . S
H66 C90 0.948 . S
C67 C63 1.397 . S
C67 C68 1.394 . S
C67 C86 1.723 . S
C68 C65 1.396 . S
C68 C67 1.394 . S
C68 C98 1.723 . S
H69 C92 0.947 . S
H70 C93 0.948 . S
H71 C99 0.982 . S
H72 C100 0.979 . S
H73 C100 0.980 . S
H74 C100 0.983 . S
H75 C99 0.979 . S
H76 C99 0.977 . S
C77 C65 1.453 . S
C77 H106 0.982 . S
C77 H107 0.979 . S
C77 H108 0.977 . S
C78 C65 1.684 . S
C78 H103 0.979 . S
C78 H104 0.980 . S
C78 H105 0.983 . S
C79 C80 1.391 . S
C79 C84 1.391 . S
C79 H109 0.948 . S
C80 C79 1.391 . S
C80 C81 1.391 . S
C81 C80 1.391 . S
C81 C82 1.392 . S
C81 H110 0.947 . S
C82 C81 1.392 . S
C82 C83 1.419 . S
C82 H111 0.948 . S
C83 C82 1.419 . S
C83 C84 1.391 . S
C83 C87 1.397 . S
C84 C79 1.391 . S
C84 C83 1.391 . S
C84 C85 1.399 . S
C85 C84 1.399 . S
C85 C86 1.396 . S
C85 C88 1.453 . S
C85 C89 1.684 . S
C86 C67 1.723 . S
C86 C85 1.396 . S
C86 C87 1.394 . S
C87 C83 1.397 . S
C87 C86 1.394 . S
C87 C97 1.723 . S
C88 C85 1.453 . S
C88 H112 0.982 . S
C88 H113 0.979 . S
C88 H114 0.977 . S
C89 C85 1.684 . S
C89 H115 0.979 . S
C89 H116 0.980 . S
C89 H117 0.983 . S
C90 H66 0.948 . S
C90 C91 1.391 . S
C90 C95 1.391 . S
C91 C90 1.391 . S
C91 C92 1.391 . S
C92 H69 0.947 . S
C92 C91 1.391 . S
C92 C93 1.392 . S
C93 H70 0.948 . S
C93 C92 1.392 . S
C93 C94 1.419 . S
C94 C93 1.419 . S
C94 C95 1.391 . S
C94 C98 1.397 . S
C95 C90 1.391 . S
C95 C94 1.391 . S
C95 C96 1.399 . S
C96 C95 1.399 . S
C96 C97 1.396 . S
C96 C99 1.453 . S
C96 C100 1.684 . S
C97 C87 1.723 . S
C97 C96 1.396 . S
C97 C98 1.394 . S
C98 C68 1.723 . S
C98 C94 1.397 . S
C98 C97 1.394 . S
C99 H71 0.982 . S
C99 H75 0.979 . S
C99 H76 0.977 . S
C99 C96 1.453 . S
C100 H72 0.979 . S
C100 H73 0.980 . S
C100 H74 0.983 . S
C100 C96 1.684 . S
H101 C119 0.948 . S
H102 C60 0.948 . S
H103 C78 0.979 . S
H104 C78 0.980 . S
H105 C78 0.983 . S
H106 C77 0.982 . S
H107 C77 0.979 . S
H108 C77 0.977 . S
H109 C79 0.948 . S
H110 C81 0.947 . S
H111 C82 0.948 . S
H112 C88 0.982 . S
H113 C88 0.979 . S
H114 C88 0.977 . S
H115 C89 0.979 . S
H116 C89 0.980 . S
H117 C89 0.983 . S
H118 C62 0.947 . S
C119 C62 1.392 . S
C119 C63 1.419 . S
C119 H101 0.948 . S
C120 C121 1.391 . S
C120 C124 1.391 . S
C120 H162 0.948 . S
C121 C120 1.391 . S
C121 C122 1.391 . S
C122 C121 1.391 . S
C122 H178 0.947 . S
C122 C179 1.392 . S
C123 C124 1.391 . S
C123 C127 1.397 . S
C123 C179 1.419 . S
C124 C120 1.391 . S
C124 C123 1.391 . S
C124 C125 1.399 . S
C125 C124 1.399 . S
C125 C128 1.396 . S
C125 C137 1.453 . S
C125 C138 1.684 . S
H126 C150 0.948 . S
C127 C123 1.397 . S
C127 C128 1.394 . S
C127 C146 1.723 . S
C128 C125 1.396 . S
C128 C127 1.394 . S
C128 C158 1.723 . S
H129 C152 0.947 . S
H130 C153 0.948 . S
H131 C159 0.982 . S
H132 C160 0.979 . S
H133 C160 0.980 . S
H134 C160 0.983 . S
H135 C159 0.979 . S
H136 C159 0.977 . S
C137 C125 1.453 . S
C137 H166 0.982 . S
C137 H167 0.979 . S
C137 H168 0.977 . S
C138 C125 1.684 . S
C138 H163 0.979 . S
C138 H164 0.980 . S
C138 H165 0.983 . S
C139 C140 1.391 . S
C139 C144 1.391 . S
C139 H169 0.948 . S
C140 C139 1.391 . S
C140 C141 1.391 . S
C141 C140 1.391 . S
C141 C142 1.392 . S
C141 H170 0.947 . S
C142 C141 1.392 . S
C142 C143 1.419 . S
C142 H171 0.948 . S
C143 C142 1.419 . S
C143 C144 1.391 . S
C143 C147 1.397 . S
C144 C139 1.391 . S
C144 C143 1.391 . S
C144 C145 1.399 . S
C145 C144 1.399 . S
C145 C146 1.396 . S
C145 C148 1.453 . S
C145 C149 1.684 . S
C146 C127 1.723 . S
C146 C145 1.396 . S
C146 C147 1.394 . S
C147 C143 1.397 . S
C147 C146 1.394 . S
C147 C157 1.723 . S
C148 C145 1.453 . S
C148 H172 0.982 . S
C148 H173 0.979 . S
C148 H174 0.977 . S
C149 C145 1.684 . S
C149 H175 0.979 . S
C149 H176 0.980 . S
C149 H177 0.983 . S
C150 H126 0.948 . S
C150 C151 1.391 . S
C150 C155 1.391 . S
C151 C150 1.391 . S
C151 C152 1.391 . S
C152 H129 0.947 . S
C152 C151 1.391 . S
C152 C153 1.392 . S
C153 H130 0.948 . S
C153 C152 1.392 . S
C153 C154 1.419 . S
C154 C153 1.419 . S
C154 C155 1.391 . S
C154 C158 1.397 . S
C155 C150 1.391 . S
C155 C154 1.391 . S
C155 C156 1.399 . S
C156 C155 1.399 . S
C156 C157 1.396 . S
C156 C159 1.453 . S
C156 C160 1.684 . S
C157 C147 1.723 . S
C157 C156 1.396 . S
C157 C158 1.394 . S
C158 C128 1.723 . S
C158 C154 1.397 . S
C158 C157 1.394 . S
C159 H131 0.982 . S
C159 H135 0.979 . S
C159 H136 0.977 . S
C159 C156 1.453 . S
C160 H132 0.979 . S
C160 H133 0.980 . S
C160 H134 0.983 . S
C160 C156 1.684 . S
H161 C179 0.948 . S
H162 C120 0.948 . S
H163 C138 0.979 . S
H164 C138 0.980 . S
H165 C138 0.983 . S
H166 C137 0.982 . S
H167 C137 0.979 . S
H168 C137 0.977 . S
H169 C139 0.948 . S
H170 C141 0.947 . S
H171 C142 0.948 . S
H172 C148 0.982 . S
H173 C148 0.979 . S
H174 C148 0.977 . S
H175 C149 0.979 . S
H176 C149 0.980 . S
H177 C149 0.983 . S
H178 C122 0.947 . S
C179 C122 1.392 . S
C179 C123 1.419 . S
C179 H161 0.948 . S
C180 C181 1.391 . S
C180 C184 1.391 . S
C180 H222 0.948 . S
C181 C180 1.391 . S
C181 C182 1.391 . S
C182 C181 1.391 . S
C182 H238 0.947 . S
C182 C239 1.392 . S
C183 C184 1.391 . S
C183 C187 1.397 . S
C183 C239 1.419 . S
C184 C180 1.391 . S
C184 C183 1.391 . S
C184 C185 1.399 . S
C185 C184 1.399 . S
C185 C188 1.396 . S
C185 C197 1.453 . S
C185 C198 1.684 . S
H186 C210 0.948 . S
C187 C183 1.397 . S
C187 C188 1.394 . S
C187 C206 1.723 . S
C188 C185 1.396 . S
C188 C187 1.394 . S
C188 C218 1.723 . S
H189 C212 0.947 . S
H190 C213 0.948 . S
H191 C219 0.982 . S
H192 C220 0.979 . S
H193 C220 0.980 . S
H194 C220 0.983 . S
H195 C219 0.979 . S
H196 C219 0.977 . S
C197 C185 1.453 . S
C197 H226 0.982 . S
C197 H227 0.979 . S
C197 H228 0.977 . S
C198 C185 1.684 . S
C198 H223 0.979 . S
C198 H224 0.980 . S
C198 H225 0.983 . S
C199 C200 1.391 . S
C199 C204 1.391 . S
C199 H229 0.948 . S
C200 C199 1.391 . S
C200 C201 1.391 . S
C201 C200 1.391 . S
C201 C202 1.392 . S
C201 H230 0.947 . S
C202 C201 1.392 . S
C202 C203 1.419 . S
C202 H231 0.948 . S
C203 C202 1.419 . S
C203 C204 1.391 . S
C203 C207 1.397 . S
C204 C199 1.391 . S
C204 C203 1.391 . S
C204 C205 1.399 . S
C205 C204 1.399 . S
C205 C206 1.396 . S
C205 C208 1.453 . S
C205 C209 1.684 . S
C206 C187 1.723 . S
C206 C205 1.396 . S
C206 C207 1.394 . S
C207 C203 1.397 . S
C207 C206 1.394 . S
C207 C217 1.723 . S
C208 C205 1.453 . S
C208 H232 0.982 . S
C208 H233 0.979 . S
C208 H234 0.977 . S
C209 C205 1.684 . S
C209 H235 0.979 . S
C209 H236 0.980 . S
C209 H237 0.983 . S
C210 H186 0.948 . S
C210 C211 1.391 . S
C210 C215 1.391 . S
C211 C210 1.391 . S
C211 C212 1.391 . S
C212 H189 0.947 . S
C212 C211 1.391 . S
C212 C213 1.392 . S
C213 H190 0.948 . S
C213 C212 1.392 . S
C213 C214 1.419 . S
C214 C213 1.419 . S
C214 C215 1.391 . S
C214 C218 1.397 . S
C215 C210 1.391 . S
C215 C214 1.391 . S
C215 C216 1.399 . S
C216 C215 1.399 . S
C216 C217 1.396 . S
C216 C219 1.453 . S
C216 C220 1.684 . S
C217 C207 1.723 . S
C217 C216 1.396 . S
C217 C218 1.394 . S
C218 C188 1.723 . S
C218 C214 1.397 . S
C218 C217 1.394 . S
C219 H191 0.982 . S
C219 H195 0.979 . S
C219 H196 0.977 . S
C219 C216 1.453 . S
C220 H192 0.979 . S
C220 H193 0.980 . S
C220 H194 0.983 . S
C220 C216 1.684 . S
H221 C239 0.948 . S
H222 C180 0.948 . S
H223 C198 0.979 . S
H224 C198 0.980 . S
H225 C198 0.983 . S
H226 C197 0.982 . S
H227 C197 0.979 . S
H228 C197 0.977 . S
H229 C199 0.948 . S
H230 C201 0.947 . S
H231 C202 0.948 . S
H232 C208 0.982 . S
H233 C208 0.979 . S
H234 C208 0.977 . S
H235 C209 0.979 . S
H236 C209 0.980 . S
H237 C209 0.983 . S
H238 C182 0.947 . S
C239 C182 1.392 . S
C239 C183 1.419 . S
C239 H221 0.948 . S
C240 C241 1.391 . S
C240 C244 1.391 . S
C240 H282 0.948 . S
C241 C240 1.391 . S
C241 C242 1.391 . S
C242 C241 1.391 . S
C242 H298 0.947 . S
C242 C299 1.392 . S
C243 C244 1.391 . S
C243 C247 1.397 . S
C243 C299 1.419 . S
C244 C240 1.391 . S
C244 C243 1.391 . S
C244 C245 1.399 . S
C245 C244 1.399 . S
C245 C248 1.396 . S
C245 C257 1.453 . S
C245 C258 1.684 . S
H246 C270 0.948 . S
C247 C243 1.397 . S
C247 C248 1.394 . S
C247 C266 1.723 . S
C248 C245 1.396 . S
C248 C247 1.394 . S
C248 C278 1.723 . S
H249 C272 0.947 . S
H250 C273 0.948 . S
H251 C279 0.982 . S
H252 C280 0.979 . S
H253 C280 0.980 . S
H254 C280 0.983 . S
H255 C279 0.979 . S
H256 C279 0.977 . S
C257 C245 1.453 . S
C257 H286 0.982 . S
C257 H287 0.979 . S
C257 H288 0.977 . S
C258 C245 1.684 . S
C258 H283 0.979 . S
C258 H284 0.980 . S
C258 H285 0.983 . S
C259 C260 1.391 . S
C259 C264 1.391 . S
C259 H289 0.948 . S
C260 C259 1.391 . S
C260 C261 1.391 . S
C261 C260 1.391 . S
C261 C262 1.392 . S
C261 H290 0.947 . S
C262 C261 1.392 . S
C262 C263 1.419 . S
C262 H291 0.948 . S
C263 C262 1.419 . S
C263 C264 1.391 . S
C263 C267 1.397 . S
C264 C259 1.391 . S
C264 C263 1.391 . S
C264 C265 1.399 . S
C265 C264 1.399 . S
C265 C266 1.396 . S
C265 C268 1.453 . S
C265 C269 1.684 . S
C266 C247 1.723 . S
C266 C265 1.396 . S
C266 C267 1.394 . S
C267 C263 1.397 . S
C267 C266 1.394 . S
C267 C277 1.723 . S
C268 C265 1.453 . S
C268 H292 0.982 . S
C268 H293 0.979 . S
C268 H294 0.977 . S
C269 C265 1.684 . S
C269 H295 0.979 . S
C269 H296 0.980 . S
C269 H297 0.983 . S
C270 H246 0.948 . S
C270 C271 1.391 . S
C270 C275 1.391 . S
C271 C270 1.391 . S
C271 C272 1.391 . S
C272 H249 0.947 . S
C272 C271 1.391 . S
C272 C273 1.392 . S
C273 H250 0.948 . S
C273 C272 1.392 . S
C273 C274 1.419 . S
C274 C273 1.419 . S
C274 C275 1.391 . S
C274 C278 1.397 . S
C275 C270 1.391 . S
C275 C274 1.391 . S
C275 C276 1.399 . S
C276 C275 1.399 . S
C276 C277 1.396 . S
C276 C279 1.453 . S
C276 C280 1.684 . S
C277 C267 1.723 . S
C277 C276 1.396 . S
C277 C278 1.394 . S
C278 C248 1.723 . S
C278 C274 1.397 . S
C278 C277 1.394 . S
C279 H251 0.982 . S
C279 H255 0.979 . S
C279 H256 0.977 . S
C279 C276 1.453 . S
C280 H252 0.979 . S
C280 H253 0.980 . S
C280 H254 0.983 . S
C280 C276 1.684 . S
H281 C299 0.948 . S
H282 C240 0.948 . S
H283 C258 0.979 . S
H284 C258 0.980 . S
H285 C258 0.983 . S
H286 C257 0.982 . S
H287 C257 0.979 . S
H288 C257 0.977 . S
H289 C259 0.948 . S
H290 C261 0.947 . S
H291 C262 0.948 . S
H292 C268 0.982 . S
H293 C268 0.979 . S
H294 C268 0.977 . S
H295 C269 0.979 . S
H296 C269 0.980 . S
H297 C269 0.983 . S
H298 C242 0.947 . S
C299 C242 1.392 . S
C299 C243 1.419 . S
C299 H281 0.948 . S
C300 C301 1.391 . S
C300 C304 1.391 . S
C300 H342 0.948 . S
C301 C300 1.391 . S
C301 C302 1.391 . S
C302 C301 1.391 . S
C302 H358 0.947 . S
C302 C359 1.392 . S
C303 C304 1.391 . S
C303 C307 1.397 . S
C303 C359 1.419 . S
C304 C300 1.391 . S
C304 C303 1.391 . S
C304 C305 1.399 . S
C305 C304 1.399 . S
C305 C308 1.396 . S
C305 C317 1.453 . S
C305 C318 1.684 . S
H306 C330 0.948 . S
C307 C303 1.397 . S
C307 C308 1.394 . S
C307 C326 1.723 . S
C308 C305 1.396 . S
C308 C307 1.394 . S
C308 C338 1.723 . S
H309 C332 0.947 . S
H310 C333 0.948 . S
H311 C339 0.982 . S
H312 C340 0.979 . S
H313 C340 0.980 . S
H314 C340 0.983 . S
H315 C339 0.979 . S
H316 C339 0.977 . S
C317 C305 1.453 . S
C317 H346 0.982 . S
C317 H347 0.979 . S
C317 H348 0.977 . S
C318 C305 1.684 . S
C318 H343 0.979 . S
C318 H344 0.980 . S
C318 H345 0.983 . S
C319 C320 1.391 . S
C319 C324 1.391 . S
C319 H349 0.948 . S
C320 C319 1.391 . S
C320 C321 1.391 . S
C321 C320 1.391 . S
C321 C322 1.392 . S
C321 H350 0.947 . S
C322 C321 1.392 . S
C322 C323 1.419 . S
C322 H351 0.948 . S
C323 C322 1.419 . S
C323 C324 1.391 . S
C323 C327 1.397 . S
C324 C319 1.391 . S
C324 C323 1.391 . S
C324 C325 1.399 . S
C325 C324 1.399 . S
C325 C326 1.396 . S
C325 C328 1.453 . S
C325 C329 1.684 . S
C326 C307 1.723 . S
C326 C325 1.396 . S
C326 C327 1.394 . S
C327 C323 1.397 . S
C327 C326 1.394 . S
C327 C337 1.723 . S
C328 C325 1.453 . S
C328 H352 0.982 . S
C328 H353 0.979 . S
C328 H354 0.977 . S
C329 C325 1.684 . S
C329 H355 0.979 . S
C329 H356 0.980 . S
C329 H357 0.983 . S
C330 H306 0.948 . S
C330 C331 1.391 . S
C330 C335 1.391 . S
C331 C330 1.391 . S
C331 C332 1.391 . S
C332 H309 0.947 . S
C332 C331 1.391 . S
C332 C333 1.392 . S
C333 H310 0.948 . S
C333 C332 1.392 . S
C333 C334 1.419 . S
C334 C333 1.419 . S
C334 C335 1.391 . S
C334 C338 1.397 . S
C335 C330 1.391 . S
C335 C334 1.391 . S
C335 C336 1.399 . S
C336 C335 1.399 . S
C336 C337 1.396 . S
C336 C339 1.453 . S
C336 C340 1.684 . S
C337 C327 1.723 . S
C337 C336 1.396 . S
C337 C338 1.394 . S
C338 C308 1.723 . S
C338 C334 1.397 . S
C338 C337 1.394 . S
C339 H311 0.982 . S
C339 H315 0.979 . S
C339 H316 0.977 . S
C339 C336 1.453 . S
C340 H312 0.979 . S
C340 H313 0.980 . S
C340 H314 0.983 . S
C340 C336 1.684 . S
H341 C359 0.948 . S
H342 C300 0.948 . S
H343 C318 0.979 . S
H344 C318 0.980 . S
H345 C318 0.983 . S
H346 C317 0.982 . S
H347 C317 0.979 . S
H348 C317 0.977 . S
H349 C319 0.948 . S
H350 C321 0.947 . S
H351 C322 0.948 . S
H352 C328 0.982 . S
H353 C328 0.979 . S
H354 C328 0.977 . S
H355 C329 0.979 . S
H356 C329 0.980 . S
H357 C329 0.983 . S
H358 C302 0.947 . S
C359 C302 1.392 . S
C359 C303 1.419 . S
C359 H341 0.948 . S
C360 C361 1.391 . S
C360 C364 1.391 . S
C360 H402 0.948 . S
C361 C360 1.391 . S
C361 C362 1.391 . S
C362 C361 1.391 . S
C362 H418 0.947 . S
C362 C419 1.392 . S
C363 C364 1.391 . S
C363 C367 1.397 . S
C363 C419 1.419 . S
C364 C360 1.391 . S
C364 C363 1.391 . S
C364 C365 1.399 . S
C365 C364 1.399 . S
C365 C368 1.396 . S
C365 C377 1.453 . S
C365 C378 1.684 . S
H366 C390 0.948 . S
C367 C363 1.397 . S
C367 C368 1.394 . S
C367 C386 1.723 . S
C368 C365 1.396 . S
C368 C367 1.394 . S
C368 C398 1.723 . S
H369 C392 0.947 . S
H370 C393 0.948 . S
H371 C399 0.982 . S
H372 C400 0.979 . S
H373 C400 0.980 . S
H374 C400 0.983 . S
H375 C399 0.979 . S
H376 C399 0.977 . S
C377 C365 1.453 . S
C377 H406 0.982 . S
C377 H407 0.979 . S
C377 H408 0.977 . S
C378 C365 1.684 . S
C378 H403 0.979 . S
C378 H404 0.980 . S
C378 H405 0.983 . S
C379 C380 1.391 . S
C379 C384 1.391 . S
C379 H409 0.948 . S
C380 C379 1.391 . S
C380 C381 1.391 . S
C381 C380 1.391 . S
C381 C382 1.392 . S
C381 H410 0.947 . S
C382 C381 1.392 . S
C382 C383 1.419 . S
C382 H411 0.948 . S
C383 C382 1.419 . S
C383 C384 1.391 . S
C383 C387 1.397 . S
C384 C379 1.391 . S
C384 C383 1.391 . S
C384 C385 1.399 . S
C385 C384 1.399 . S
C385 C386 1.396 . S
C385 C388 1.453 . S
C385 C389 1.684 . S
C386 C367 1.723 . S
C386 C385 1.396 . S
C386 C387 1.394 . S
C387 C383 1.397 . S
C387 C386 1.394 . S
C387 C397 1.723 . S
C388 C385 1.453 . S
C388 H412 0.982 . S
C388 H413 0.979 . S
C388 H414 0.977 . S
C389 C385 1.684 . S
C389 H415 0.979 . S
C389 H416 0.980 . S
C389 H417 0.983 . S
C390 H366 0.948 . S
C390 C391 1.391 . S
C390 C395 1.391 . S
C391 C390 1.391 . S
C391 C392 1.391 . S
C392 H369 0.947 . S
C392 C391 1.391 . S
C392 C393 1.392 . S
C393 H370 0.948 . S
C393 C392 1.392 . S
C393 C394 1.419 . S
C394 C393 1.419 . S
C394 C395 1.391 . S
C394 C398 1.397 . S
C395 C390 1.391 . S
C395 C394 1.391 . S
C395 C396 1.399 . S
C396 C395 1.399 . S
C396 C397 1.396 . S
C396 C399 1.453 . S
C396 C400 1.684 . S
C397 C387 1.723 . S
C397 C396 1.396 . S
C397 C398 1.394 . S
C398 C368 1.723 . S
C398 C394 1.397 . S
C398 C397 1.394 . S
C399 H371 0.982 . S
C399 H375 0.979 . S
C399 H376 0.977 . S
C399 C396 1.453 . S
C400 H372 0.979 . S
C400 H373 0.980 . S
C400 H374 0.983 . S
C400 C396 1.684 . S
H401 C419 0.948 . S
H402 C360 0.948 . S
H403 C378 0.979 . S
H404 C378 0.980 . S
H405 C378 0.983 . S
H406 C377 0.982 . S
H407 C377 0.979 . S
H408 C377 0.977 . S
H409 C379 0.948 . S
H410 C381 0.947 . S
H411 C382 0.948 . S
H412 C388 0.982 . S
H413 C388 0.979 . S
H414 C388 0.977 . S
H415 C389 0.979 . S
H416 C389 0.980 . S
H417 C389 0.983 . S
H418 C362 0.947 . S
C419 C362 1.392 . S
C419 C363 1.419 . S
C419 H401 0.948 . S
C420 C421 1.391 . S
C420 C424 1.391 . S
C420 H462 0.948 . S
C421 C420 1.391 . S
C421 C422 1.391 . S
C422 C421 1.391 . S
C422 H478 0.947 . S
C422 C479 1.392 . S
C423 C424 1.391 . S
C423 C427 1.397 . S
C423 C479 1.419 . S
C424 C420 1.391 . S
C424 C423 1.391 . S
C424 C425 1.399 . S
C425 C424 1.399 . S
C425 C428 1.396 . S
C425 C437 1.453 . S
C425 C438 1.684 . S
H426 C450 0.948 . S
C427 C423 1.397 . S
C427 C428 1.394 . S
C427 C446 1.723 . S
C428 C425 1.396 . S
C428 C427 1.394 . S
C428 C458 1.723 . S
H429 C452 0.947 . S
H430 C453 0.948 . S
H431 C459 0.982 . S
H432 C460 0.979 . S
H433 C460 0.980 . S
H434 C460 0.983 . S
H435 C459 0.979 . S
H436 C459 0.977 . S
C437 C425 1.453 . S
C437 H466 0.982 . S
C437 H467 0.979 . S
C437 H468 0.977 . S
C438 C425 1.684 . S
C438 H463 0.979 . S
C438 H464 0.980 . S
C438 H465 0.983 . S
C439 C440 1.391 . S
C439 C444 1.391 . S
C439 H469 0.948 . S
C440 C439 1.391 . S
C440 C441 1.391 . S
C441 C440 1.391 . S
C441 C442 1.392 . S
C441 H470 0.947 . S
C442 C441 1.392 . S
C442 C443 1.419 . S
C442 H471 0.948 . S
C443 C442 1.419 . S
C443 C444 1.391 . S
C443 C447 1.397 . S
C444 C439 1.391 . S
C444 C443 1.391 . S
C444 C445 1.399 . S
C445 C444 1.399 . S
C445 C446 1.396 . S
C445 C448 1.453 . S
C445 C449 1.684 . S
C446 C427 1.723 . S
C446 C445 1.396 . S
C446 C447 1.394 . S
C447 C443 1.397 . S
C447 C446 1.394 . S
C447 C457 1.723 . S
C448 C445 1.453 . S
C448 H472 0.982 . S
C448 H473 0.979 . S
C448 H474 0.977 . S
C449 C445 1.684 . S
C449 H475 0.979 . S
C449 H476 0.980 . S
C449 H477 0.983 . S
C450 H426 0.948 . S
C450 C451 1.391 . S
C450 C455 1.391 . S
C451 C450 1.391 . S
C451 C452 1.391 . S
C452 H429 0.947 . S
C452 C451 1.391 . S
C452 C453 1.392 . S
C453 H430 0.948 . S
C453 C452 1.392 . S
C453 C454 1.419 . S
C454 C453 1.419 . S
C454 C455 1.391 . S
C454 C458 1.397 . S
C455 C450 1.391 . S
C455 C454 1.391 . S
C455 C456 1.399 . S
C456 C455 1.399 . S
C456 C457 1.396 . S
C456 C459 1.453 . S
C456 C460 1.684 . S
C457 C447 1.723 . S
C457 C456 1.396 . S
C457 C458 1.394 . S
C458 C428 1.723 . S
C458 C454 1.397 . S
C458 C457 1.394 . S
C459 H431 0.982 . S
C459 H435 0.979 . S
C459 H436 0.977 . S
C459 C456 1.453 . S
C460 H432 0.979 . S
C460 H433 0.980 . S
C460 H434 0.983 . S
C460 C456 1.684 . S
H461 C479 0.948 . S
H462 C420 0.948 . S
H463 C438 0.979 . S
H464 C438 0.980 . S
H465 C438 0.983 . S
H466 C437 0.982 . S
H467 C437 0.979 . S
H468 C437 0.977 . S
H469 C439 0.948 . S
H470 C441 0.947 . S
H471 C442 0.948 . S
H472 C448 0.982 . S
H473 C448 0.979 . S
H474 C448 0.977 . S
H475 C449 0.979 . S
H476 C449 0.980 . S
H477 C449 0.983 . S
H478 C422 0.947 . S
C479 C422 1.392 . S
C479 C423 1.419 . S
C479 H461 0.948 . S
Ho480 C483 2.811 . S
Ho480 O500 2.322 . S
Ho480 O502 2.378 . S
Ho480 O503 2.524 . S
Ho480 O504 2.381 1_545 S
Ho480 O505 2.669 1_545 S
Ho480 O507 2.346 1_445 S
Ho480 O511 2.305 1_455 S
Ho481 C492 2.811 . S
Ho481 O501 2.346 1_665 S
Ho481 O505 2.305 1_655 S
Ho481 O506 2.322 . S
Ho481 O508 2.378 . S
Ho481 O509 2.524 . S
Ho481 O510 2.381 1_565 S
Ho481 O511 2.669 1_565 S
C482 O500 1.259 . S
C482 O501 1.268 . S
C483 Ho480 2.811 . S
C483 C484 1.488 . S
C483 O502 1.215 . S
C483 O503 1.289 . S
C484 C483 1.488 . S
C484 C485 1.348 . S
C484 C489 1.413 . S
C485 C484 1.348 . S
C485 C486 1.442 . S
C485 H512 0.930 . S
C486 C485 1.442 . S
C486 C487 1.381 . S
C486 H513 0.931 . S
C487 C486 1.381 . S
C487 C488 1.321 . S
C488 C487 1.321 . S
C488 C489 1.403 . S
C488 H514 0.934 . S
C489 C484 1.413 . S
C489 C488 1.403 . S
C489 H515 0.930 . S
C490 O504 1.275 . S
C490 O505 1.256 . S
C491 O506 1.259 . S
C491 O507 1.268 . S
C492 Ho481 2.811 . S
C492 C493 1.488 . S
C492 O508 1.215 . S
C492 O509 1.289 . S
C493 C492 1.488 . S
C493 C494 1.348 . S
C493 C498 1.413 . S
C494 C493 1.348 . S
C494 C495 1.442 . S
C494 H516 0.930 . S
C495 C494 1.442 . S
C495 C496 1.381 . S
C495 H517 0.931 . S
C496 C495 1.381 . S
C496 C497 1.321 . S
C497 C496 1.321 . S
C497 C498 1.403 . S
C497 H518 0.934 . S
C498 C493 1.413 . S
C498 C497 1.403 . S
C498 H519 0.930 . S
C499 O510 1.275 . S
C499 O511 1.256 . S
O500 Ho480 2.322 . S
O500 C482 1.259 . S
O501 Ho481 2.346 1_445 S
O501 C482 1.268 . S
O502 Ho480 2.378 . S
O502 C483 1.215 . S
O503 Ho480 2.524 . S
O503 C483 1.289 . S
O504 Ho480 2.381 1_565 S
O504 C490 1.275 . S
O505 Ho480 2.669 1_565 S
O505 Ho481 2.305 1_455 S
O505 C490 1.256 . S
O506 Ho481 2.322 . S
O506 C491 1.259 . S
O507 Ho480 2.346 1_665 S
O507 C491 1.268 . S
O508 Ho481 2.378 . S
O508 C492 1.215 . S
O509 Ho481 2.524 . S
O509 C492 1.289 . S
O510 Ho481 2.381 1_545 S
O510 C499 1.275 . S
O511 Ho480 2.305 1_655 S
O511 Ho481 2.669 1_545 S
O511 C499 1.256 . S
H512 C485 0.930 . S
H513 C486 0.931 . S
H514 C488 0.934 . S
H515 C489 0.930 . S
H516 C494 0.930 . S
H517 C495 0.931 . S
H518 C497 0.934 . S
H519 C498 0.930 . S
Ho520 C523 2.799 1_565 S
Ho520 O540 2.310 1_565 S
Ho520 O542 2.376 1_565 S
Ho520 O543 2.503 1_565 S
Ho520 O544 2.399 . S
Ho520 O545 2.679 . S
Ho520 O547 2.360 1_554 S
Ho520 O551 2.288 1_564 S
Ho521 C532 2.787 1_545 S
Ho521 O541 2.373 1_556 S
Ho521 O545 2.273 1_546 S
Ho521 O546 2.299 1_545 S
Ho521 O548 2.374 1_545 S
Ho521 O549 2.483 1_545 S
Ho521 O550 2.417 . S
Ho521 O551 2.688 . S
C522 O540 1.259 . S
C522 O541 1.268 . S
C523 Ho520 2.799 1_545 S
C523 C524 1.488 . S
C523 O542 1.215 . S
C523 O543 1.289 . S
C524 C523 1.488 . S
C524 C525 1.348 . S
C524 C529 1.413 . S
C525 C524 1.348 . S
C525 C526 1.442 . S
C525 H552 0.930 . S
C526 C525 1.442 . S
C526 C527 1.381 . S
C526 H553 0.931 . S
C527 C526 1.381 . S
C527 C528 1.321 . S
C528 C527 1.321 . S
C528 C529 1.403 . S
C528 H554 0.934 . S
C529 C524 1.413 . S
C529 C528 1.403 . S
C529 H555 0.930 . S
C530 O544 1.275 . S
C530 O545 1.256 . S
C531 O546 1.259 . S
C531 O547 1.268 . S
C532 Ho521 2.787 1_565 S
C532 C533 1.488 . S
C532 O548 1.215 . S
C532 O549 1.289 . S
C533 C532 1.488 . S
C533 C534 1.348 . S
C533 C538 1.413 . S
C534 C533 1.348 . S
C534 C535 1.442 . S
C534 H556 0.930 . S
C535 C534 1.442 . S
C535 C536 1.381 . S
C535 H557 0.931 . S
C536 C535 1.381 . S
C536 C537 1.321 . S
C537 C536 1.321 . S
C537 C538 1.403 . S
C537 H558 0.934 . S
C538 C533 1.413 . S
C538 C537 1.403 . S
C538 H559 0.930 . S
C539 O550 1.275 . S
C539 O551 1.256 . S
O540 Ho520 2.310 1_545 S
O540 C522 1.259 . S
O541 Ho521 2.373 1_554 S
O541 C522 1.268 . S
O542 Ho520 2.376 1_545 S
O542 C523 1.215 . S
O543 Ho520 2.503 1_545 S
O543 C523 1.289 . S
O544 Ho520 2.399 . S
O544 C530 1.275 . S
O545 Ho520 2.679 . S
O545 Ho521 2.273 1_564 S
O545 C530 1.256 . S
O546 Ho521 2.299 1_565 S
O546 C531 1.259 . S
O547 Ho520 2.360 1_556 S
O547 C531 1.268 . S
O548 Ho521 2.374 1_565 S
O548 C532 1.215 . S
O549 Ho521 2.483 1_565 S
O549 C532 1.289 . S
O550 Ho521 2.417 . S
O550 C539 1.275 . S
O551 Ho520 2.288 1_546 S
O551 Ho521 2.688 . S
O551 C539 1.256 . S
H552 C525 0.930 . S
H553 C526 0.931 . S
H554 C528 0.934 . S
H555 C529 0.930 . S
H556 C534 0.930 . S
H557 C535 0.931 . S
H558 C537 0.934 . S
H559 C538 0.930 . S
Ho560 C563 2.811 . S
Ho560 O580 2.322 . S
Ho560 O582 2.378 . S
Ho560 O583 2.524 . S
Ho560 O584 2.381 . S
Ho560 O585 2.669 . S
Ho560 O587 2.346 . S
Ho560 O591 2.305 . S
Ho561 C572 2.811 . S
Ho561 O581 2.346 . S
Ho561 O585 2.305 . S
Ho561 O586 2.322 . S
Ho561 O588 2.378 . S
Ho561 O589 2.524 . S
Ho561 O590 2.381 . S
Ho561 O591 2.669 . S
C562 O580 1.259 . S
C562 O581 1.268 . S
C563 Ho560 2.811 . S
C563 C564 1.488 . S
C563 O582 1.215 . S
C563 O583 1.289 . S
C564 C563 1.488 . S
C564 C565 1.348 . S
C564 C569 1.413 . S
C565 C564 1.348 . S
C565 C566 1.442 . S
C565 H592 0.930 . S
C566 C565 1.442 . S
C566 C567 1.381 . S
C566 H593 0.931 . S
C567 C566 1.381 . S
C567 C568 1.321 . S
C568 C567 1.321 . S
C568 C569 1.403 . S
C568 H594 0.934 . S
C569 C564 1.413 . S
C569 C568 1.403 . S
C569 H595 0.930 . S
C570 O584 1.275 . S
C570 O585 1.256 . S
C571 O586 1.259 . S
C571 O587 1.268 . S
C572 Ho561 2.811 . S
C572 C573 1.488 . S
C572 O588 1.215 . S
C572 O589 1.289 . S
C573 C572 1.488 . S
C573 C574 1.348 . S
C573 C578 1.413 . S
C574 C573 1.348 . S
C574 C575 1.442 . S
C574 H596 0.930 . S
C575 C574 1.442 . S
C575 C576 1.381 . S
C575 H597 0.931 . S
C576 C575 1.381 . S
C576 C577 1.321 . S
C577 C576 1.321 . S
C577 C578 1.403 . S
C577 H598 0.934 . S
C578 C573 1.413 . S
C578 C577 1.403 . S
C578 H599 0.930 . S
C579 O590 1.275 . S
C579 O591 1.256 . S
O580 Ho560 2.322 . S
O580 C562 1.259 . S
O581 Ho561 2.346 . S
O581 C562 1.268 . S
O582 Ho560 2.378 . S
O582 C563 1.215 . S
O583 Ho560 2.524 . S
O583 C563 1.289 . S
O584 Ho560 2.381 . S
O584 C570 1.275 . S
O585 Ho560 2.669 . S
O585 Ho561 2.305 . S
O585 C570 1.256 . S
O586 Ho561 2.322 . S
O586 C571 1.259 . S
O587 Ho560 2.346 . S
O587 C571 1.268 . S
O588 Ho561 2.378 . S
O588 C572 1.215 . S
O589 Ho561 2.524 . S
O589 C572 1.289 . S
O590 Ho561 2.381 . S
O590 C579 1.275 . S
O591 Ho560 2.305 . S
O591 Ho561 2.669 . S
O591 C579 1.256 . S
H592 C565 0.930 . S
H593 C566 0.931 . S
H594 C568 0.934 . S
H595 C569 0.930 . S
H596 C574 0.930 . S
H597 C575 0.931 . S
H598 C577 0.934 . S
H599 C578 0.930 . S
Ho600 C603 2.811 . S
Ho600 O620 2.322 . S
Ho600 O622 2.378 . S
Ho600 O623 2.524 . S
Ho600 O624 2.381 1_455 S
Ho600 O625 2.669 1_455 S
Ho600 O627 2.346 1_454 S
Ho600 O631 2.305 1_554 S
Ho601 C612 2.811 . S
Ho601 O621 2.346 1_656 S
Ho601 O625 2.305 1_556 S
Ho601 O626 2.322 . S
Ho601 O628 2.378 . S
Ho601 O629 2.524 . S
Ho601 O630 2.381 1_655 S
Ho601 O631 2.669 1_655 S
C602 O620 1.259 . S
C602 O621 1.268 . S
C603 Ho600 2.811 . S
C603 C604 1.488 . S
C603 O622 1.215 . S
C603 O623 1.289 . S
C604 C603 1.488 . S
C604 C605 1.348 . S
C604 C609 1.413 . S
C605 C604 1.348 . S
C605 C606 1.442 . S
C605 H632 0.930 . S
C606 C605 1.442 . S
C606 C607 1.381 . S
C606 H633 0.931 . S
C607 C606 1.381 . S
C607 C608 1.321 . S
C608 C607 1.321 . S
C608 C609 1.403 . S
C608 H634 0.934 . S
C609 C604 1.413 . S
C609 C608 1.403 . S
C609 H635 0.930 . S
C610 O624 1.275 . S
C610 O625 1.256 . S
C611 O626 1.259 . S
C611 O627 1.268 . S
C612 Ho601 2.811 . S
C612 C613 1.488 . S
C612 O628 1.215 . S
C612 O629 1.289 . S
C613 C612 1.488 . S
C613 C614 1.348 . S
C613 C618 1.413 . S
C614 C613 1.348 . S
C614 C615 1.442 . S
C614 H636 0.930 . S
C615 C614 1.442 . S
C615 C616 1.381 . S
C615 H637 0.931 . S
C616 C615 1.381 . S
C616 C617 1.321 . S
C617 C616 1.321 . S
C617 C618 1.403 . S
C617 H638 0.934 . S
C618 C613 1.413 . S
C618 C617 1.403 . S
C618 H639 0.930 . S
C619 O630 1.275 . S
C619 O631 1.256 . S
O620 Ho600 2.322 . S
O620 C602 1.259 . S
O621 Ho601 2.346 1_454 S
O621 C602 1.268 . S
O622 Ho600 2.378 . S
O622 C603 1.215 . S
O623 Ho600 2.524 . S
O623 C603 1.289 . S
O624 Ho600 2.381 1_655 S
O624 C610 1.275 . S
O625 Ho600 2.669 1_655 S
O625 Ho601 2.305 1_554 S
O625 C610 1.256 . S
O626 Ho601 2.322 . S
O626 C611 1.259 . S
O627 Ho600 2.346 1_656 S
O627 C611 1.268 . S
O628 Ho601 2.378 . S
O628 C612 1.215 . S
O629 Ho601 2.524 . S
O629 C612 1.289 . S
O630 Ho601 2.381 1_455 S
O630 C619 1.275 . S
O631 Ho600 2.305 1_556 S
O631 Ho601 2.669 1_455 S
O631 C619 1.256 . S
H632 C605 0.930 . S
H633 C606 0.931 . S
H634 C608 0.934 . S
H635 C609 0.930 . S
H636 C614 0.930 . S
H637 C615 0.931 . S
H638 C617 0.934 . S
H639 C618 0.930 . S
C640 C641 1.349 . S
C640 C642 1.327 . S
C640 H665 0.950 . S
C641 C640 1.349 . S
C641 C657 1.349 . S
C642 C640 1.327 . S
C642 C661 1.429 . S
C642 H666 0.950 . S
C643 C660 1.574 . S
C643 C662 1.368 . S
C643 H667 0.949 . S
H644 C648 0.949 . S
C645 C646 1.349 . S
C645 C647 1.327 . S
C645 H668 0.950 . S
C646 C645 1.349 . S
C646 C658 1.349 . S
C647 C645 1.327 . S
C647 C663 1.429 . S
C647 H669 0.950 . S
C648 H644 0.949 . S
C648 C656 1.574 . S
C648 C664 1.368 . S
H649 C657 0.950 . S
H650 C655 0.950 . S
H651 C656 0.949 . S
H652 C658 0.950 . S
H653 C659 0.950 . S
H654 C660 0.949 . S
C655 H650 0.950 . S
C655 C657 1.327 . S
C655 C661 1.429 . S
C656 C648 1.574 . S
C656 H651 0.949 . S
C656 C662 1.368 . S
C657 C641 1.349 . S
C657 H649 0.950 . S
C657 C655 1.327 . S
C658 C646 1.349 . S
C658 H652 0.950 . S
C658 C659 1.327 . S
C659 H653 0.950 . S
C659 C658 1.327 . S
C659 C663 1.429 . S
C660 C643 1.574 . S
C660 H654 0.949 . S
C660 C664 1.368 . S
C661 C642 1.429 . S
C661 C655 1.429 . S
C661 C662 1.523 . S
C662 C643 1.368 . S
C662 C656 1.368 . S
C662 C661 1.523 . S
C663 C647 1.429 . S
C663 C659 1.429 . S
C663 C664 1.523 . S
C664 C648 1.368 . S
C664 C660 1.368 . S
C664 C663 1.523 . S
H665 C640 0.950 . S
H666 C642 0.950 . S
H667 C643 0.949 . S
H668 C645 0.950 . S
H669 C647 0.950 . S
C670 C671 1.349 . S
C670 C672 1.327 . S
C670 H695 0.950 . S
C671 C670 1.349 . S
C671 C687 1.349 . S
C672 C670 1.327 . S
C672 C691 1.429 . S
C672 H696 0.950 . S
C673 C690 1.574 . S
C673 C692 1.368 . S
C673 H697 0.949 . S
H674 C678 0.949 . S
C675 C676 1.349 . S
C675 C677 1.327 . S
C675 H698 0.950 . S
C676 C675 1.349 . S
C676 C688 1.349 . S
C677 C675 1.327 . S
C677 C693 1.429 . S
C677 H699 0.950 . S
C678 H674 0.949 . S
C678 C686 1.574 . S
C678 C694 1.368 . S
H679 C687 0.950 . S
H680 C685 0.950 . S
H681 C686 0.949 . S
H682 C688 0.950 . S
H683 C689 0.950 . S
H684 C690 0.949 . S
C685 H680 0.950 . S
C685 C687 1.327 . S
C685 C691 1.429 . S
C686 C678 1.574 . S
C686 H681 0.949 . S
C686 C692 1.368 . S
C687 C671 1.349 . S
C687 H679 0.950 . S
C687 C685 1.327 . S
C688 C676 1.349 . S
C688 H682 0.950 . S
C688 C689 1.327 . S
C689 H683 0.950 . S
C689 C688 1.327 . S
C689 C693 1.429 . S
C690 C673 1.574 . S
C690 H684 0.949 . S
C690 C694 1.368 . S
C691 C672 1.429 . S
C691 C685 1.429 . S
C691 C692 1.523 . S
C692 C673 1.368 . S
C692 C686 1.368 . S
C692 C691 1.523 . S
C693 C677 1.429 . S
C693 C689 1.429 . S
C693 C694 1.523 . S
C694 C678 1.368 . S
C694 C690 1.368 . S
C694 C693 1.523 . S
H695 C670 0.950 . S
H696 C672 0.950 . S
H697 C673 0.949 . S
H698 C675 0.950 . S
H699 C677 0.950 . S
C700 C701 1.349 . S
C700 C702 1.327 . S
C700 H725 0.950 . S
C701 C700 1.349 . S
C701 C717 1.349 . S
C702 C700 1.327 . S
C702 C721 1.429 . S
C702 H726 0.950 . S
C703 C720 1.574 . S
C703 C722 1.368 . S
C703 H727 0.949 . S
H704 C708 0.949 . S
C705 C706 1.349 . S
C705 C707 1.327 . S
C705 H728 0.950 . S
C706 C705 1.349 . S
C706 C718 1.349 . S
C707 C705 1.327 . S
C707 C723 1.429 . S
C707 H729 0.950 . S
C708 H704 0.949 . S
C708 C716 1.574 . S
C708 C724 1.368 . S
H709 C717 0.950 . S
H710 C715 0.950 . S
H711 C716 0.949 . S
H712 C718 0.950 . S
H713 C719 0.950 . S
H714 C720 0.949 . S
C715 H710 0.950 . S
C715 C717 1.327 . S
C715 C721 1.429 . S
C716 C708 1.574 . S
C716 H711 0.949 . S
C716 C722 1.368 . S
C717 C701 1.349 . S
C717 H709 0.950 . S
C717 C715 1.327 . S
C718 C706 1.349 . S
C718 H712 0.950 . S
C718 C719 1.327 . S
C719 H713 0.950 . S
C719 C718 1.327 . S
C719 C723 1.429 . S
C720 C703 1.574 . S
C720 H714 0.949 . S
C720 C724 1.368 . S
C721 C702 1.429 . S
C721 C715 1.429 . S
C721 C722 1.523 . S
C722 C703 1.368 . S
C722 C716 1.368 . S
C722 C721 1.523 . S
C723 C707 1.429 . S
C723 C719 1.429 . S
C723 C724 1.523 . S
C724 C708 1.368 . S
C724 C720 1.368 . S
C724 C723 1.523 . S
H725 C700 0.950 . S
H726 C702 0.950 . S
H727 C703 0.949 . S
H728 C705 0.950 . S
H729 C707 0.950 . S
C730 C731 1.349 . S
C730 C732 1.327 . S
C730 H755 0.950 . S
C731 C730 1.349 . S
C731 C747 1.349 . S
C732 C730 1.327 . S
C732 C751 1.429 . S
C732 H756 0.950 . S
C733 C750 1.574 . S
C733 C752 1.368 . S
C733 H757 0.949 . S
H734 C738 0.949 . S
C735 C736 1.349 . S
C735 C737 1.327 . S
C735 H758 0.950 . S
C736 C735 1.349 . S
C736 C748 1.349 . S
C737 C735 1.327 . S
C737 C753 1.429 . S
C737 H759 0.950 . S
C738 H734 0.949 . S
C738 C746 1.574 . S
C738 C754 1.368 . S
H739 C747 0.950 . S
H740 C745 0.950 . S
H741 C746 0.949 . S
H742 C748 0.950 . S
H743 C749 0.950 . S
H744 C750 0.949 . S
C745 H740 0.950 . S
C745 C747 1.327 . S
C745 C751 1.429 . S
C746 C738 1.574 . S
C746 H741 0.949 . S
C746 C752 1.368 . S
C747 C731 1.349 . S
C747 H739 0.950 . S
C747 C745 1.327 . S
C748 C736 1.349 . S
C748 H742 0.950 . S
C748 C749 1.327 . S
C749 H743 0.950 . S
C749 C748 1.327 . S
C749 C753 1.429 . S
C750 C733 1.574 . S
C750 H744 0.949 . S
C750 C754 1.368 . S
C751 C732 1.429 . S
C751 C745 1.429 . S
C751 C752 1.523 . S
C752 C733 1.368 . S
C752 C746 1.368 . S
C752 C751 1.523 . S
C753 C737 1.429 . S
C753 C749 1.429 . S
C753 C754 1.523 . S
C754 C738 1.368 . S
C754 C750 1.368 . S
C754 C753 1.523 . S
H755 C730 0.950 . S
H756 C732 0.950 . S
H757 C733 0.949 . S
H758 C735 0.950 . S
H759 C737 0.950 . S
C760 C761 1.349 . S
C760 C762 1.327 . S
C760 H785 0.950 . S
C761 C760 1.349 . S
C761 C777 1.349 . S
C762 C760 1.327 . S
C762 C781 1.429 . S
C762 H786 0.950 . S
C763 C780 1.574 . S
C763 C782 1.368 . S
C763 H787 0.949 . S
H764 C768 0.949 . S
C765 C766 1.349 . S
C765 C767 1.327 . S
C765 H788 0.950 . S
C766 C765 1.349 . S
C766 C778 1.349 . S
C767 C765 1.327 . S
C767 C783 1.429 . S
C767 H789 0.950 . S
C768 H764 0.949 . S
C768 C776 1.574 . S
C768 C784 1.368 . S
H769 C777 0.950 . S
H770 C775 0.950 . S
H771 C776 0.949 . S
H772 C778 0.950 . S
H773 C779 0.950 . S
H774 C780 0.949 . S
C775 H770 0.950 . S
C775 C777 1.327 . S
C775 C781 1.429 . S
C776 C768 1.574 . S
C776 H771 0.949 . S
C776 C782 1.368 . S
C777 C761 1.349 . S
C777 H769 0.950 . S
C777 C775 1.327 . S
C778 C766 1.349 . S
C778 H772 0.950 . S
C778 C779 1.327 . S
C779 H773 0.950 . S
C779 C778 1.327 . S
C779 C783 1.429 . S
C780 C763 1.574 . S
C780 H774 0.949 . S
C780 C784 1.368 . S
C781 C762 1.429 . S
C781 C775 1.429 . S
C781 C782 1.523 . S
C782 C763 1.368 . S
C782 C776 1.368 . S
C782 C781 1.523 . S
C783 C767 1.429 . S
C783 C779 1.429 . S
C783 C784 1.523 . S
C784 C768 1.368 . S
C784 C780 1.368 . S
C784 C783 1.523 . S
H785 C760 0.950 . S
H786 C762 0.950 . S
H787 C763 0.949 . S
H788 C765 0.950 . S
H789 C767 0.950 . S
C790 C791 1.349 . S
C790 C792 1.327 . S
C790 H815 0.950 . S
C791 C790 1.349 . S
C791 C807 1.349 . S
C792 C790 1.327 . S
C792 C811 1.429 . S
C792 H816 0.950 . S
C793 C810 1.574 . S
C793 C812 1.368 . S
C793 H817 0.949 . S
H794 C798 0.949 . S
C795 C796 1.349 . S
C795 C797 1.327 . S
C795 H818 0.950 . S
C796 C795 1.349 . S
C796 C808 1.349 . S
C797 C795 1.327 . S
C797 C813 1.429 . S
C797 H819 0.950 . S
C798 H794 0.949 . S
C798 C806 1.574 . S
C798 C814 1.368 . S
H799 C807 0.950 . S
H800 C805 0.950 . S
H801 C806 0.949 . S
H802 C808 0.950 . S
H803 C809 0.950 . S
H804 C810 0.949 . S
C805 H800 0.950 . S
C805 C807 1.327 . S
C805 C811 1.429 . S
C806 C798 1.574 . S
C806 H801 0.949 . S
C806 C812 1.368 . S
C807 C791 1.349 . S
C807 H799 0.950 . S
C807 C805 1.327 . S
C808 C796 1.349 . S
C808 H802 0.950 . S
C808 C809 1.327 . S
C809 H803 0.950 . S
C809 C808 1.327 . S
C809 C813 1.429 . S
C810 C793 1.574 . S
C810 H804 0.949 . S
C810 C814 1.368 . S
C811 C792 1.429 . S
C811 C805 1.429 . S
C811 C812 1.523 . S
C812 C793 1.368 . S
C812 C806 1.368 . S
C812 C811 1.523 . S
C813 C797 1.429 . S
C813 C809 1.429 . S
C813 C814 1.523 . S
C814 C798 1.368 . S
C814 C810 1.368 . S
C814 C813 1.523 . S
H815 C790 0.950 . S
H816 C792 0.950 . S
H817 C793 0.949 . S
H818 C795 0.950 . S
H819 C797 0.950 . S
C820 C821 1.349 . S
C820 C822 1.327 . S
C820 H845 0.950 . S
C821 C820 1.349 . S
C821 C837 1.349 . S
C822 C820 1.327 . S
C822 C841 1.429 . S
C822 H846 0.950 . S
C823 C840 1.574 . S
C823 C842 1.368 . S
C823 H847 0.949 . S
H824 C828 0.949 . S
C825 C826 1.349 . S
C825 C827 1.327 . S
C825 H848 0.950 . S
C826 C825 1.349 . S
C826 C838 1.349 . S
C827 C825 1.327 . S
C827 C843 1.429 . S
C827 H849 0.950 . S
C828 H824 0.949 . S
C828 C836 1.574 . S
C828 C844 1.368 . S
H829 C837 0.950 . S
H830 C835 0.950 . S
H831 C836 0.949 . S
H832 C838 0.950 . S
H833 C839 0.950 . S
H834 C840 0.949 . S
C835 H830 0.950 . S
C835 C837 1.327 . S
C835 C841 1.429 . S
C836 C828 1.574 . S
C836 H831 0.949 . S
C836 C842 1.368 . S
C837 C821 1.349 . S
C837 H829 0.950 . S
C837 C835 1.327 . S
C838 C826 1.349 . S
C838 H832 0.950 . S
C838 C839 1.327 . S
C839 H833 0.950 . S
C839 C838 1.327 . S
C839 C843 1.429 . S
C840 C823 1.574 . S
C840 H834 0.949 . S
C840 C844 1.368 . S
C841 C822 1.429 . S
C841 C835 1.429 . S
C841 C842 1.523 . S
C842 C823 1.368 . S
C842 C836 1.368 . S
C842 C841 1.523 . S
C843 C827 1.429 . S
C843 C839 1.429 . S
C843 C844 1.523 . S
C844 C828 1.368 . S
C844 C840 1.368 . S
C844 C843 1.523 . S
H845 C820 0.950 . S
H846 C822 0.950 . S
H847 C823 0.949 . S
H848 C825 0.950 . S
H849 C827 0.950 . S
C850 C851 1.349 . S
C850 C852 1.327 . S
C850 H875 0.950 . S
C851 C850 1.349 . S
C851 C867 1.349 . S
C852 C850 1.327 . S
C852 C871 1.429 . S
C852 H876 0.950 . S
C853 C870 1.574 . S
C853 C872 1.368 . S
C853 H877 0.949 . S
H854 C858 0.949 . S
C855 C856 1.349 . S
C855 C857 1.327 . S
C855 H878 0.950 . S
C856 C855 1.349 . S
C856 C868 1.349 . S
C857 C855 1.327 . S
C857 C873 1.429 . S
C857 H879 0.950 . S
C858 H854 0.949 . S
C858 C866 1.574 . S
C858 C874 1.368 . S
H859 C867 0.950 . S
H860 C865 0.950 . S
H861 C866 0.949 . S
H862 C868 0.950 . S
H863 C869 0.950 . S
H864 C870 0.949 . S
C865 H860 0.950 . S
C865 C867 1.327 . S
C865 C871 1.429 . S
C866 C858 1.574 . S
C866 H861 0.949 . S
C866 C872 1.368 . S
C867 C851 1.349 . S
C867 H859 0.950 . S
C867 C865 1.327 . S
C868 C856 1.349 . S
C868 H862 0.950 . S
C868 C869 1.327 . S
C869 H863 0.950 . S
C869 C868 1.327 . S
C869 C873 1.429 . S
C870 C853 1.574 . S
C870 H864 0.949 . S
C870 C874 1.368 . S
C871 C852 1.429 . S
C871 C865 1.429 . S
C871 C872 1.523 . S
C872 C853 1.368 . S
C872 C866 1.368 . S
C872 C871 1.523 . S
C873 C857 1.429 . S
C873 C869 1.429 . S
C873 C874 1.523 . S
C874 C858 1.368 . S
C874 C870 1.368 . S
C874 C873 1.523 . S
H875 C850 0.950 . S
H876 C852 0.950 . S
H877 C853 0.949 . S
H878 C855 0.950 . S
H879 C857 0.950 . S
C880 C881 1.349 . S
C880 C882 1.327 . S
C880 H905 0.950 . S
C881 C880 1.349 . S
C881 C897 1.349 . S
C882 C880 1.327 . S
C882 C901 1.429 . S
C882 H906 0.950 . S
C883 C900 1.574 . S
C883 C902 1.368 . S
C883 H907 0.949 . S
H884 C888 0.949 . S
C885 C886 1.349 . S
C885 C887 1.327 . S
C885 H908 0.950 . S
C886 C885 1.349 . S
C886 C898 1.349 . S
C887 C885 1.327 . S
C887 C903 1.429 . S
C887 H909 0.950 . S
C888 H884 0.949 . S
C888 C896 1.574 . S
C888 C904 1.368 . S
H889 C897 0.950 . S
H890 C895 0.950 . S
H891 C896 0.949 . S
H892 C898 0.950 . S
H893 C899 0.950 . S
H894 C900 0.949 . S
C895 H890 0.950 . S
C895 C897 1.327 . S
C895 C901 1.429 . S
C896 C888 1.574 . S
C896 H891 0.949 . S
C896 C902 1.368 . S
C897 C881 1.349 . S
C897 H889 0.950 . S
C897 C895 1.327 . S
C898 C886 1.349 . S
C898 H892 0.950 . S
C898 C899 1.327 . S
C899 H893 0.950 . S
C899 C898 1.327 . S
C899 C903 1.429 . S
C900 C883 1.574 . S
C900 H894 0.949 . S
C900 C904 1.368 . S
C901 C882 1.429 . S
C901 C895 1.429 . S
C901 C902 1.523 . S
C902 C883 1.368 . S
C902 C896 1.368 . S
C902 C901 1.523 . S
C903 C887 1.429 . S
C903 C899 1.429 . S
C903 C904 1.523 . S
C904 C888 1.368 . S
C904 C900 1.368 . S
C904 C903 1.523 . S
H905 C880 0.950 . S
H906 C882 0.950 . S
H907 C883 0.949 . S
H908 C885 0.950 . S
H909 C887 0.950 . S
C910 C911 1.349 . S
C910 C912 1.327 . S
C910 H935 0.950 . S
C911 C910 1.349 . S
C911 C927 1.349 . S
C912 C910 1.327 . S
C912 C931 1.429 . S
C912 H936 0.950 . S
C913 C930 1.574 . S
C913 C932 1.368 . S
C913 H937 0.949 . S
H914 C918 0.949 . S
C915 C916 1.349 . S
C915 C917 1.327 . S
C915 H938 0.950 . S
C916 C915 1.349 . S
C916 C928 1.349 . S
C917 C915 1.327 . S
C917 C933 1.429 . S
C917 H939 0.950 . S
C918 H914 0.949 . S
C918 C926 1.574 . S
C918 C934 1.368 . S
H919 C927 0.950 . S
H920 C925 0.950 . S
H921 C926 0.949 . S
H922 C928 0.950 . S
H923 C929 0.950 . S
H924 C930 0.949 . S
C925 H920 0.950 . S
C925 C927 1.327 . S
C925 C931 1.429 . S
C926 C918 1.574 . S
C926 H921 0.949 . S
C926 C932 1.368 . S
C927 C911 1.349 . S
C927 H919 0.950 . S
C927 C925 1.327 . S
C928 C916 1.349 . S
C928 H922 0.950 . S
C928 C929 1.327 . S
C929 H923 0.950 . S
C929 C928 1.327 . S
C929 C933 1.429 . S
C930 C913 1.574 . S
C930 H924 0.949 . S
C930 C934 1.368 . S
C931 C912 1.429 . S
C931 C925 1.429 . S
C931 C932 1.523 . S
C932 C913 1.368 . S
C932 C926 1.368 . S
C932 C931 1.523 . S
C933 C917 1.429 . S
C933 C929 1.429 . S
C933 C934 1.523 . S
C934 C918 1.368 . S
C934 C930 1.368 . S
C934 C933 1.523 . S
H935 C910 0.950 . S
H936 C912 0.950 . S
H937 C913 0.949 . S
H938 C915 0.950 . S
H939 C917 0.950 . S
C940 C941 1.349 . S
C940 C942 1.327 . S
C940 H965 0.950 . S
C941 C940 1.349 . S
C941 C957 1.349 . S
C942 C940 1.327 . S
C942 C961 1.429 . S
C942 H966 0.950 . S
C943 C960 1.574 . S
C943 C962 1.368 . S
C943 H967 0.949 . S
H944 C948 0.949 . S
C945 C946 1.349 . S
C945 C947 1.327 . S
C945 H968 0.950 . S
C946 C945 1.349 . S
C946 C958 1.349 . S
C947 C945 1.327 . S
C947 C963 1.429 . S
C947 H969 0.950 . S
C948 H944 0.949 . S
C948 C956 1.574 . S
C948 C964 1.368 . S
H949 C957 0.950 . S
H950 C955 0.950 . S
H951 C956 0.949 . S
H952 C958 0.950 . S
H953 C959 0.950 . S
H954 C960 0.949 . S
C955 H950 0.950 . S
C955 C957 1.327 . S
C955 C961 1.429 . S
C956 C948 1.574 . S
C956 H951 0.949 . S
C956 C962 1.368 . S
C957 C941 1.349 . S
C957 H949 0.950 . S
C957 C955 1.327 . S
C958 C946 1.349 . S
C958 H952 0.950 . S
C958 C959 1.327 . S
C959 H953 0.950 . S
C959 C958 1.327 . S
C959 C963 1.429 . S
C960 C943 1.574 . S
C960 H954 0.949 . S
C960 C964 1.368 . S
C961 C942 1.429 . S
C961 C955 1.429 . S
C961 C962 1.523 . S
C962 C943 1.368 . S
C962 C956 1.368 . S
C962 C961 1.523 . S
C963 C947 1.429 . S
C963 C959 1.429 . S
C963 C964 1.523 . S
C964 C948 1.368 . S
C964 C960 1.368 . S
C964 C963 1.523 . S
H965 C940 0.950 . S
H966 C942 0.950 . S
H967 C943 0.949 . S
H968 C945 0.950 . S
H969 C947 0.950 . S
C970 C971 1.349 . S
C970 C972 1.327 . S
C970 H995 0.950 . S
C971 C970 1.349 . S
C971 C987 1.349 . S
C972 C970 1.327 . S
C972 C991 1.429 . S
C972 H996 0.950 . S
C973 C990 1.574 . S
C973 C992 1.368 . S
C973 H997 0.949 . S
H974 C978 0.949 . S
C975 C976 1.349 . S
C975 C977 1.327 . S
C975 H998 0.950 . S
C976 C975 1.349 . S
C976 C988 1.349 . S
C977 C975 1.327 . S
C977 C993 1.429 . S
C977 H999 0.950 . S
C978 H974 0.949 . S
C978 C986 1.574 . S
C978 C994 1.368 . S
H979 C987 0.950 . S
H980 C985 0.950 . S
H981 C986 0.949 . S
H982 C988 0.950 . S
H983 C989 0.950 . S
H984 C990 0.949 . S
C985 H980 0.950 . S
C985 C987 1.327 . S
C985 C991 1.429 . S
C986 C978 1.574 . S
C986 H981 0.949 . S
C986 C992 1.368 . S
C987 C971 1.349 . S
C987 H979 0.950 . S
C987 C985 1.327 . S
C988 C976 1.349 . S
C988 H982 0.950 . S
C988 C989 1.327 . S
C989 H983 0.950 . S
C989 C988 1.327 . S
C989 C993 1.429 . S
C990 C973 1.574 . S
C990 H984 0.949 . S
C990 C994 1.368 . S
C991 C972 1.429 . S
C991 C985 1.429 . S
C991 C992 1.523 . S
C992 C973 1.368 . S
C992 C986 1.368 . S
C992 C991 1.523 . S
C993 C977 1.429 . S
C993 C989 1.429 . S
C993 C994 1.523 . S
C994 C978 1.368 . S
C994 C990 1.368 . S
C994 C993 1.523 . S
H995 C970 0.950 . S
H996 C972 0.950 . S
H997 C973 0.949 . S
H998 C975 0.950 . S
H999 C977 0.950 . S
C1000 C1001 1.349 . S
C1000 C1002 1.327 . S
C1000 H1025 0.950 . S
C1001 C1000 1.349 . S
C1001 C1017 1.349 . S
C1002 C1000 1.327 . S
C1002 C1021 1.429 . S
C1002 H1026 0.950 . S
C1003 C1020 1.574 . S
C1003 C1022 1.368 . S
C1003 H1027 0.949 . S
H1004 C1008 0.949 . S
C1005 C1006 1.349 . S
C1005 C1007 1.327 . S
C1005 H1028 0.950 . S
C1006 C1005 1.349 . S
C1006 C1018 1.349 . S
C1007 C1005 1.327 . S
C1007 C1023 1.429 . S
C1007 H1029 0.950 . S
C1008 H1004 0.949 . S
C1008 C1016 1.574 . S
C1008 C1024 1.368 . S
H1009 C1017 0.950 . S
H1010 C1015 0.950 . S
H1011 C1016 0.949 . S
H1012 C1018 0.950 . S
H1013 C1019 0.950 . S
H1014 C1020 0.949 . S
C1015 H1010 0.950 . S
C1015 C1017 1.327 . S
C1015 C1021 1.429 . S
C1016 C1008 1.574 . S
C1016 H1011 0.949 . S
C1016 C1022 1.368 . S
C1017 C1001 1.349 . S
C1017 H1009 0.950 . S
C1017 C1015 1.327 . S
C1018 C1006 1.349 . S
C1018 H1012 0.950 . S
C1018 C1019 1.327 . S
C1019 H1013 0.950 . S
C1019 C1018 1.327 . S
C1019 C1023 1.429 . S
C1020 C1003 1.574 . S
C1020 H1014 0.949 . S
C1020 C1024 1.368 . S
C1021 C1002 1.429 . S
C1021 C1015 1.429 . S
C1021 C1022 1.523 . S
C1022 C1003 1.368 . S
C1022 C1016 1.368 . S
C1022 C1021 1.523 . S
C1023 C1007 1.429 . S
C1023 C1019 1.429 . S
C1023 C1024 1.523 . S
C1024 C1008 1.368 . S
C1024 C1020 1.368 . S
C1024 C1023 1.523 . S
H1025 C1000 0.950 . S
H1026 C1002 0.950 . S
H1027 C1003 0.949 . S
H1028 C1005 0.950 . S
H1029 C1007 0.950 . S
C1030 C1031 1.349 . S
C1030 C1032 1.327 . S
C1030 H1055 0.950 . S
C1031 C1030 1.349 . S
C1031 C1047 1.349 . S
C1032 C1030 1.327 . S
C1032 C1051 1.429 . S
C1032 H1056 0.950 . S
C1033 C1050 1.574 . S
C1033 C1052 1.368 . S
C1033 H1057 0.949 . S
H1034 C1038 0.949 . S
C1035 C1036 1.349 . S
C1035 C1037 1.327 . S
C1035 H1058 0.950 . S
C1036 C1035 1.349 . S
C1036 C1048 1.349 . S
C1037 C1035 1.327 . S
C1037 C1053 1.429 . S
C1037 H1059 0.950 . S
C1038 H1034 0.949 . S
C1038 C1046 1.574 . S
C1038 C1054 1.368 . S
H1039 C1047 0.950 . S
H1040 C1045 0.950 . S
H1041 C1046 0.949 . S
H1042 C1048 0.950 . S
H1043 C1049 0.950 . S
H1044 C1050 0.949 . S
C1045 H1040 0.950 . S
C1045 C1047 1.327 . S
C1045 C1051 1.429 . S
C1046 C1038 1.574 . S
C1046 H1041 0.949 . S
C1046 C1052 1.368 . S
C1047 C1031 1.349 . S
C1047 H1039 0.950 . S
C1047 C1045 1.327 . S
C1048 C1036 1.349 . S
C1048 H1042 0.950 . S
C1048 C1049 1.327 . S
C1049 H1043 0.950 . S
C1049 C1048 1.327 . S
C1049 C1053 1.429 . S
C1050 C1033 1.574 . S
C1050 H1044 0.949 . S
C1050 C1054 1.368 . S
C1051 C1032 1.429 . S
C1051 C1045 1.429 . S
C1051 C1052 1.523 . S
C1052 C1033 1.368 . S
C1052 C1046 1.368 . S
C1052 C1051 1.523 . S
C1053 C1037 1.429 . S
C1053 C1049 1.429 . S
C1053 C1054 1.523 . S
C1054 C1038 1.368 . S
C1054 C1050 1.368 . S
C1054 C1053 1.523 . S
H1055 C1030 0.950 . S
H1056 C1032 0.950 . S
H1057 C1033 0.949 . S
H1058 C1035 0.950 . S
H1059 C1037 0.950 . S
C1060 C1061 1.349 . S
C1060 C1062 1.327 . S
C1060 H1085 0.950 . S
C1061 C1060 1.349 . S
C1061 C1077 1.349 . S
C1062 C1060 1.327 . S
C1062 C1081 1.429 . S
C1062 H1086 0.950 . S
C1063 C1080 1.574 . S
C1063 C1082 1.368 . S
C1063 H1087 0.949 . S
H1064 C1068 0.949 . S
C1065 C1066 1.349 . S
C1065 C1067 1.327 . S
C1065 H1088 0.950 . S
C1066 C1065 1.349 . S
C1066 C1078 1.349 . S
C1067 C1065 1.327 . S
C1067 C1083 1.429 . S
C1067 H1089 0.950 . S
C1068 H1064 0.949 . S
C1068 C1076 1.574 . S
C1068 C1084 1.368 . S
H1069 C1077 0.950 . S
H1070 C1075 0.950 . S
H1071 C1076 0.949 . S
H1072 C1078 0.950 . S
H1073 C1079 0.950 . S
H1074 C1080 0.949 . S
C1075 H1070 0.950 . S
C1075 C1077 1.327 . S
C1075 C1081 1.429 . S
C1076 C1068 1.574 . S
C1076 H1071 0.949 . S
C1076 C1082 1.368 . S
C1077 C1061 1.349 . S
C1077 H1069 0.950 . S
C1077 C1075 1.327 . S
C1078 C1066 1.349 . S
C1078 H1072 0.950 . S
C1078 C1079 1.327 . S
C1079 H1073 0.950 . S
C1079 C1078 1.327 . S
C1079 C1083 1.429 . S
C1080 C1063 1.574 . S
C1080 H1074 0.949 . S
C1080 C1084 1.368 . S
C1081 C1062 1.429 . S
C1081 C1075 1.429 . S
C1081 C1082 1.523 . S
C1082 C1063 1.368 . S
C1082 C1076 1.368 . S
C1082 C1081 1.523 . S
C1083 C1067 1.429 . S
C1083 C1079 1.429 . S
C1083 C1084 1.523 . S
C1084 C1068 1.368 . S
C1084 C1080 1.368 . S
C1084 C1083 1.523 . S
H1085 C1060 0.950 . S
H1086 C1062 0.950 . S
H1087 C1063 0.949 . S
H1088 C1065 0.950 . S
H1089 C1067 0.950 . S
C1090 C1091 1.349 . S
C1090 C1092 1.327 . S
C1090 H1115 0.950 . S
C1091 C1090 1.349 . S
C1091 C1107 1.349 . S
C1092 C1090 1.327 . S
C1092 C1111 1.429 . S
C1092 H1116 0.950 . S
C1093 C1110 1.574 . S
C1093 C1112 1.368 . S
C1093 H1117 0.949 . S
H1094 C1098 0.949 . S
C1095 C1096 1.349 . S
C1095 C1097 1.327 . S
C1095 H1118 0.950 . S
C1096 C1095 1.349 . S
C1096 C1108 1.349 . S
C1097 C1095 1.327 . S
C1097 C1113 1.429 . S
C1097 H1119 0.950 . S
C1098 H1094 0.949 . S
C1098 C1106 1.574 . S
C1098 C1114 1.368 . S
H1099 C1107 0.950 . S
H1100 C1105 0.950 . S
H1101 C1106 0.949 . S
H1102 C1108 0.950 . S
H1103 C1109 0.950 . S
H1104 C1110 0.949 . S
C1105 H1100 0.950 . S
C1105 C1107 1.327 . S
C1105 C1111 1.429 . S
C1106 C1098 1.574 . S
C1106 H1101 0.949 . S
C1106 C1112 1.368 . S
C1107 C1091 1.349 . S
C1107 H1099 0.950 . S
C1107 C1105 1.327 . S
C1108 C1096 1.349 . S
C1108 H1102 0.950 . S
C1108 C1109 1.327 . S
C1109 H1103 0.950 . S
C1109 C1108 1.327 . S
C1109 C1113 1.429 . S
C1110 C1093 1.574 . S
C1110 H1104 0.949 . S
C1110 C1114 1.368 . S
C1111 C1092 1.429 . S
C1111 C1105 1.429 . S
C1111 C1112 1.523 . S
C1112 C1093 1.368 . S
C1112 C1106 1.368 . S
C1112 C1111 1.523 . S
C1113 C1097 1.429 . S
C1113 C1109 1.429 . S
C1113 C1114 1.523 . S
C1114 C1098 1.368 . S
C1114 C1110 1.368 . S
C1114 C1113 1.523 . S
H1115 C1090 0.950 . S
H1116 C1092 0.950 . S
H1117 C1093 0.949 . S
H1118 C1095 0.950 . S
H1119 C1097 0.950 . S
C1120 C1121 1.349 . S
C1120 C1122 1.327 . S
C1120 H1145 0.950 . S
C1121 C1120 1.349 . S
C1121 C1137 1.349 . S
C1122 C1120 1.327 . S
C1122 C1141 1.429 . S
C1122 H1146 0.950 . S
C1123 C1140 1.574 . S
C1123 C1142 1.368 . S
C1123 H1147 0.949 . S
H1124 C1128 0.949 . S
C1125 C1126 1.349 . S
C1125 C1127 1.327 . S
C1125 H1148 0.950 . S
C1126 C1125 1.349 . S
C1126 C1138 1.349 . S
C1127 C1125 1.327 . S
C1127 C1143 1.429 . S
C1127 H1149 0.950 . S
C1128 H1124 0.949 . S
C1128 C1136 1.574 . S
C1128 C1144 1.368 . S
H1129 C1137 0.950 . S
H1130 C1135 0.950 . S
H1131 C1136 0.949 . S
H1132 C1138 0.950 . S
H1133 C1139 0.950 . S
H1134 C1140 0.949 . S
C1135 H1130 0.950 . S
C1135 C1137 1.327 . S
C1135 C1141 1.429 . S
C1136 C1128 1.574 . S
C1136 H1131 0.949 . S
C1136 C1142 1.368 . S
C1137 C1121 1.349 . S
C1137 H1129 0.950 . S
C1137 C1135 1.327 . S
C1138 C1126 1.349 . S
C1138 H1132 0.950 . S
C1138 C1139 1.327 . S
C1139 H1133 0.950 . S
C1139 C1138 1.327 . S
C1139 C1143 1.429 . S
C1140 C1123 1.574 . S
C1140 H1134 0.949 . S
C1140 C1144 1.368 . S
C1141 C1122 1.429 . S
C1141 C1135 1.429 . S
C1141 C1142 1.523 . S
C1142 C1123 1.368 . S
C1142 C1136 1.368 . S
C1142 C1141 1.523 . S
C1143 C1127 1.429 . S
C1143 C1139 1.429 . S
C1143 C1144 1.523 . S
C1144 C1128 1.368 . S
C1144 C1140 1.368 . S
C1144 C1143 1.523 . S
H1145 C1120 0.950 . S
H1146 C1122 0.950 . S
H1147 C1123 0.949 . S
H1148 C1125 0.950 . S
H1149 C1127 0.950 . S
C1150 C1151 1.349 . S
C1150 C1152 1.327 . S
C1150 H1175 0.950 . S
C1151 C1150 1.349 . S
C1151 C1167 1.349 . S
C1152 C1150 1.327 . S
C1152 C1171 1.429 . S
C1152 H1176 0.950 . S
C1153 C1170 1.574 . S
C1153 C1172 1.368 . S
C1153 H1177 0.949 . S
H1154 C1158 0.949 . S
C1155 C1156 1.349 . S
C1155 C1157 1.327 . S
C1155 H1178 0.950 . S
C1156 C1155 1.349 . S
C1156 C1168 1.349 . S
C1157 C1155 1.327 . S
C1157 C1173 1.429 . S
C1157 H1179 0.950 . S
C1158 H1154 0.949 . S
C1158 C1166 1.574 . S
C1158 C1174 1.368 . S
H1159 C1167 0.950 . S
H1160 C1165 0.950 . S
H1161 C1166 0.949 . S
H1162 C1168 0.950 . S
H1163 C1169 0.950 . S
H1164 C1170 0.949 . S
C1165 H1160 0.950 . S
C1165 C1167 1.327 . S
C1165 C1171 1.429 . S
C1166 C1158 1.574 . S
C1166 H1161 0.949 . S
C1166 C1172 1.368 . S
C1167 C1151 1.349 . S
C1167 H1159 0.950 . S
C1167 C1165 1.327 . S
C1168 C1156 1.349 . S
C1168 H1162 0.950 . S
C1168 C1169 1.327 . S
C1169 H1163 0.950 . S
C1169 C1168 1.327 . S
C1169 C1173 1.429 . S
C1170 C1153 1.574 . S
C1170 H1164 0.949 . S
C1170 C1174 1.368 . S
C1171 C1152 1.429 . S
C1171 C1165 1.429 . S
C1171 C1172 1.523 . S
C1172 C1153 1.368 . S
C1172 C1166 1.368 . S
C1172 C1171 1.523 . S
C1173 C1157 1.429 . S
C1173 C1169 1.429 . S
C1173 C1174 1.523 . S
C1174 C1158 1.368 . S
C1174 C1170 1.368 . S
C1174 C1173 1.523 . S
H1175 C1150 0.950 . S
H1176 C1152 0.950 . S
H1177 C1153 0.949 . S
H1178 C1155 0.950 . S
H1179 C1157 0.950 . S
C1180 C1181 1.349 . S
C1180 C1182 1.327 . S
C1180 H1205 0.950 . S
C1181 C1180 1.349 . S
C1181 C1197 1.349 . S
C1182 C1180 1.327 . S
C1182 C1201 1.429 . S
C1182 H1206 0.950 . S
C1183 C1200 1.574 . S
C1183 C1202 1.368 . S
C1183 H1207 0.949 . S
H1184 C1188 0.949 . S
C1185 C1186 1.349 . S
C1185 C1187 1.327 . S
C1185 H1208 0.950 . S
C1186 C1185 1.349 . S
C1186 C1198 1.349 . S
C1187 C1185 1.327 . S
C1187 C1203 1.429 . S
C1187 H1209 0.950 . S
C1188 H1184 0.949 . S
C1188 C1196 1.574 . S
C1188 C1204 1.368 . S
H1189 C1197 0.950 . S
H1190 C1195 0.950 . S
H1191 C1196 0.949 . S
H1192 C1198 0.950 . S
H1193 C1199 0.950 . S
H1194 C1200 0.949 . S
C1195 H1190 0.950 . S
C1195 C1197 1.327 . S
C1195 C1201 1.429 . S
C1196 C1188 1.574 . S
C1196 H1191 0.949 . S
C1196 C1202 1.368 . S
C1197 C1181 1.349 . S
C1197 H1189 0.950 . S
C1197 C1195 1.327 . S
C1198 C1186 1.349 . S
C1198 H1192 0.950 . S
C1198 C1199 1.327 . S
C1199 H1193 0.950 . S
C1199 C1198 1.327 . S
C1199 C1203 1.429 . S
C1200 C1183 1.574 . S
C1200 H1194 0.949 . S
C1200 C1204 1.368 . S
C1201 C1182 1.429 . S
C1201 C1195 1.429 . S
C1201 C1202 1.523 . S
C1202 C1183 1.368 . S
C1202 C1196 1.368 . S
C1202 C1201 1.523 . S
C1203 C1187 1.429 . S
C1203 C1199 1.429 . S
C1203 C1204 1.523 . S
C1204 C1188 1.368 . S
C1204 C1200 1.368 . S
C1204 C1203 1.523 . S
H1205 C1180 0.950 . S
H1206 C1182 0.950 . S
H1207 C1183 0.949 . S
H1208 C1185 0.950 . S
H1209 C1187 0.950 . S
C1210 C1211 1.349 . S
C1210 C1212 1.327 . S
C1210 H1235 0.950 . S
C1211 C1210 1.349 . S
C1211 C1227 1.349 . S
C1212 C1210 1.327 . S
C1212 C1231 1.429 . S
C1212 H1236 0.950 . S
C1213 C1230 1.574 . S
C1213 C1232 1.368 . S
C1213 H1237 0.949 . S
H1214 C1218 0.949 . S
C1215 C1216 1.349 . S
C1215 C1217 1.327 . S
C1215 H1238 0.950 . S
C1216 C1215 1.349 . S
C1216 C1228 1.349 . S
C1217 C1215 1.327 . S
C1217 C1233 1.429 . S
C1217 H1239 0.950 . S
C1218 H1214 0.949 . S
C1218 C1226 1.574 . S
C1218 C1234 1.368 . S
H1219 C1227 0.950 . S
H1220 C1225 0.950 . S
H1221 C1226 0.949 . S
H1222 C1228 0.950 . S
H1223 C1229 0.950 . S
H1224 C1230 0.949 . S
C1225 H1220 0.950 . S
C1225 C1227 1.327 . S
C1225 C1231 1.429 . S
C1226 C1218 1.574 . S
C1226 H1221 0.949 . S
C1226 C1232 1.368 . S
C1227 C1211 1.349 . S
C1227 H1219 0.950 . S
C1227 C1225 1.327 . S
C1228 C1216 1.349 . S
C1228 H1222 0.950 . S
C1228 C1229 1.327 . S
C1229 H1223 0.950 . S
C1229 C1228 1.327 . S
C1229 C1233 1.429 . S
C1230 C1213 1.574 . S
C1230 H1224 0.949 . S
C1230 C1234 1.368 . S
C1231 C1212 1.429 . S
C1231 C1225 1.429 . S
C1231 C1232 1.523 . S
C1232 C1213 1.368 . S
C1232 C1226 1.368 . S
C1232 C1231 1.523 . S
C1233 C1217 1.429 . S
C1233 C1229 1.429 . S
C1233 C1234 1.523 . S
C1234 C1218 1.368 . S
C1234 C1230 1.368 . S
C1234 C1233 1.523 . S
H1235 C1210 0.950 . S
H1236 C1212 0.950 . S
H1237 C1213 0.949 . S
H1238 C1215 0.950 . S
H1239 C1217 0.950 . S
C1240 C1241 1.349 . S
C1240 C1242 1.327 . S
C1240 H1265 0.950 . S
C1241 C1240 1.349 . S
C1241 C1257 1.349 . S
C1242 C1240 1.327 . S
C1242 C1261 1.429 . S
C1242 H1266 0.950 . S
C1243 C1260 1.574 . S
C1243 C1262 1.368 . S
C1243 H1267 0.949 . S
H1244 C1248 0.949 . S
C1245 C1246 1.349 . S
C1245 C1247 1.327 . S
C1245 H1268 0.950 . S
C1246 C1245 1.349 . S
C1246 C1258 1.349 . S
C1247 C1245 1.327 . S
C1247 C1263 1.429 . S
C1247 H1269 0.950 . S
C1248 H1244 0.949 . S
C1248 C1256 1.574 . S
C1248 C1264 1.368 . S
H1249 C1257 0.950 . S
H1250 C1255 0.950 . S
H1251 C1256 0.949 . S
H1252 C1258 0.950 . S
H1253 C1259 0.950 . S
H1254 C1260 0.949 . S
C1255 H1250 0.950 . S
C1255 C1257 1.327 . S
C1255 C1261 1.429 . S
C1256 C1248 1.574 . S
C1256 H1251 0.949 . S
C1256 C1262 1.368 . S
C1257 C1241 1.349 . S
C1257 H1249 0.950 . S
C1257 C1255 1.327 . S
C1258 C1246 1.349 . S
C1258 H1252 0.950 . S
C1258 C1259 1.327 . S
C1259 H1253 0.950 . S
C1259 C1258 1.327 . S
C1259 C1263 1.429 . S
C1260 C1243 1.574 . S
C1260 H1254 0.949 . S
C1260 C1264 1.368 . S
C1261 C1242 1.429 . S
C1261 C1255 1.429 . S
C1261 C1262 1.523 . S
C1262 C1243 1.368 . S
C1262 C1256 1.368 . S
C1262 C1261 1.523 . S
C1263 C1247 1.429 . S
C1263 C1259 1.429 . S
C1263 C1264 1.523 . S
C1264 C1248 1.368 . S
C1264 C1260 1.368 . S
C1264 C1263 1.523 . S
H1265 C1240 0.950 . S
H1266 C1242 0.950 . S
H1267 C1243 0.949 . S
H1268 C1245 0.950 . S
H1269 C1247 0.950 . S
C1270 C1271 1.349 . S
C1270 C1272 1.327 . S
C1270 H1295 0.950 . S
C1271 C1270 1.349 . S
C1271 C1287 1.349 . S
C1272 C1270 1.327 . S
C1272 C1291 1.429 . S
C1272 H1296 0.950 . S
C1273 C1290 1.574 . S
C1273 C1292 1.368 . S
C1273 H1297 0.949 . S
H1274 C1278 0.949 . S
C1275 C1276 1.349 . S
C1275 C1277 1.327 . S
C1275 H1298 0.950 . S
C1276 C1275 1.349 . S
C1276 C1288 1.349 . S
C1277 C1275 1.327 . S
C1277 C1293 1.429 . S
C1277 H1299 0.950 . S
C1278 H1274 0.949 . S
C1278 C1286 1.574 . S
C1278 C1294 1.368 . S
H1279 C1287 0.950 . S
H1280 C1285 0.950 . S
H1281 C1286 0.949 . S
H1282 C1288 0.950 . S
H1283 C1289 0.950 . S
H1284 C1290 0.949 . S
C1285 H1280 0.950 . S
C1285 C1287 1.327 . S
C1285 C1291 1.429 . S
C1286 C1278 1.574 . S
C1286 H1281 0.949 . S
C1286 C1292 1.368 . S
C1287 C1271 1.349 . S
C1287 H1279 0.950 . S
C1287 C1285 1.327 . S
C1288 C1276 1.349 . S
C1288 H1282 0.950 . S
C1288 C1289 1.327 . S
C1289 H1283 0.950 . S
C1289 C1288 1.327 . S
C1289 C1293 1.429 . S
C1290 C1273 1.574 . S
C1290 H1284 0.949 . S
C1290 C1294 1.368 . S
C1291 C1272 1.429 . S
C1291 C1285 1.429 . S
C1291 C1292 1.523 . S
C1292 C1273 1.368 . S
C1292 C1286 1.368 . S
C1292 C1291 1.523 . S
C1293 C1277 1.429 . S
C1293 C1289 1.429 . S
C1293 C1294 1.523 . S
C1294 C1278 1.368 . S
C1294 C1290 1.368 . S
C1294 C1293 1.523 . S
H1295 C1270 0.950 . S
H1296 C1272 0.950 . S
H1297 C1273 0.949 . S
H1298 C1275 0.950 . S
H1299 C1277 0.950 . S
C1300 C1301 1.349 . S
C1300 C1302 1.327 . S
C1300 H1325 0.950 . S
C1301 C1300 1.349 . S
C1301 C1317 1.349 . S
C1302 C1300 1.327 . S
C1302 C1321 1.429 . S
C1302 H1326 0.950 . S
C1303 C1320 1.574 . S
C1303 C1322 1.368 . S
C1303 H1327 0.949 . S
H1304 C1308 0.949 . S
C1305 C1306 1.349 . S
C1305 C1307 1.327 . S
C1305 H1328 0.950 . S
C1306 C1305 1.349 . S
C1306 C1318 1.349 . S
C1307 C1305 1.327 . S
C1307 C1323 1.429 . S
C1307 H1329 0.950 . S
C1308 H1304 0.949 . S
C1308 C1316 1.574 . S
C1308 C1324 1.368 . S
H1309 C1317 0.950 . S
H1310 C1315 0.950 . S
H1311 C1316 0.949 . S
H1312 C1318 0.950 . S
H1313 C1319 0.950 . S
H1314 C1320 0.949 . S
C1315 H1310 0.950 . S
C1315 C1317 1.327 . S
C1315 C1321 1.429 . S
C1316 C1308 1.574 . S
C1316 H1311 0.949 . S
C1316 C1322 1.368 . S
C1317 C1301 1.349 . S
C1317 H1309 0.950 . S
C1317 C1315 1.327 . S
C1318 C1306 1.349 . S
C1318 H1312 0.950 . S
C1318 C1319 1.327 . S
C1319 H1313 0.950 . S
C1319 C1318 1.327 . S
C1319 C1323 1.429 . S
C1320 C1303 1.574 . S
C1320 H1314 0.949 . S
C1320 C1324 1.368 . S
C1321 C1302 1.429 . S
C1321 C1315 1.429 . S
C1321 C1322 1.523 . S
C1322 C1303 1.368 . S
C1322 C1316 1.368 . S
C1322 C1321 1.523 . S
C1323 C1307 1.429 . S
C1323 C1319 1.429 . S
C1323 C1324 1.523 . S
C1324 C1308 1.368 . S
C1324 C1320 1.368 . S
C1324 C1323 1.523 . S
H1325 C1300 0.950 . S
H1326 C1302 0.950 . S
H1327 C1303 0.949 . S
H1328 C1305 0.950 . S
H1329 C1307 0.950 . S
C1330 C1331 1.349 . S
C1330 C1332 1.327 . S
C1330 H1355 0.950 . S
C1331 C1330 1.349 . S
C1331 C1347 1.349 . S
C1332 C1330 1.327 . S
C1332 C1351 1.429 . S
C1332 H1356 0.950 . S
C1333 C1350 1.574 . S
C1333 C1352 1.368 . S
C1333 H1357 0.949 . S
H1334 C1338 0.949 . S
C1335 C1336 1.349 . S
C1335 C1337 1.327 . S
C1335 H1358 0.950 . S
C1336 C1335 1.349 . S
C1336 C1348 1.349 . S
C1337 C1335 1.327 . S
C1337 C1353 1.429 . S
C1337 H1359 0.950 . S
C1338 H1334 0.949 . S
C1338 C1346 1.574 . S
C1338 C1354 1.368 . S
H1339 C1347 0.950 . S
H1340 C1345 0.950 . S
H1341 C1346 0.949 . S
H1342 C1348 0.950 . S
H1343 C1349 0.950 . S
H1344 C1350 0.949 . S
C1345 H1340 0.950 . S
C1345 C1347 1.327 . S
C1345 C1351 1.429 . S
C1346 C1338 1.574 . S
C1346 H1341 0.949 . S
C1346 C1352 1.368 . S
C1347 C1331 1.349 . S
C1347 H1339 0.950 . S
C1347 C1345 1.327 . S
C1348 C1336 1.349 . S
C1348 H1342 0.950 . S
C1348 C1349 1.327 . S
C1349 H1343 0.950 . S
C1349 C1348 1.327 . S
C1349 C1353 1.429 . S
C1350 C1333 1.574 . S
C1350 H1344 0.949 . S
C1350 C1354 1.368 . S
C1351 C1332 1.429 . S
C1351 C1345 1.429 . S
C1351 C1352 1.523 . S
C1352 C1333 1.368 . S
C1352 C1346 1.368 . S
C1352 C1351 1.523 . S
C1353 C1337 1.429 . S
C1353 C1349 1.429 . S
C1353 C1354 1.523 . S
C1354 C1338 1.368 . S
C1354 C1350 1.368 . S
C1354 C1353 1.523 . S
H1355 C1330 0.950 . S
H1356 C1332 0.950 . S
H1357 C1333 0.949 . S
H1358 C1335 0.950 . S
H1359 C1337 0.950 . S
C641 C1 1.167 . S
C646 C487 1.257 . S
C671 C80 0.921 . S
C676 C536 0.942 . S
C706 C562 2.441 . S
C701 C140 2.434 . S
C731 C211 2.290 . S
C736 C610 2.273 . S
C766 C522 2.511 . S
C761 C31 2.309 . S
C796 C490 0.892 . S
C791 C61 0.891 . S
C826 C611 1.866 . S
C821 C151 1.878 . S
C856 C579 1.512 . S
C851 C200 1.512 . S
C881 C20 1.689 . S
C886 C607 1.773 . S
C916 C539 2.320 . S
C911 C121 2.370 . S
C941 C181 2.298 . S
C946 C491 2.331 . S
C971 C91 0.726 . S
C976 C576 0.726 . S
C1006 C496 1.257 . S
C1001 C260 1.192 . S
C1031 C320 0.921 . S
C1036 C527 0.940 . S
C1061 C361 2.433 . S
C1066 C571 2.440 . S
C1091 C451 2.290 . S
C1096 C619 2.276 . S
C1121 C271 2.369 . S
C1126 C531 2.511 . S
C1156 C499 0.892 . S
C1151 C301 0.891 . S
C1186 C602 1.866 . S
C1181 C380 1.865 . S
C1216 C570 1.512 . S
C1211 C440 1.512 . S
C1241 C241 1.633 . S
C1246 C616 1.775 . S
C1276 C530 2.320 . S
C1271 C391 2.365 . S
C1306 C482 2.331 . S
C1301 C421 2.297 . S
C1331 C331 0.726 . S
C1336 C567 0.726 . S
