# Generated by pormake.
# Topology zzz, (3,6)-cn, num edge types: 1
# Building blocks:
#     Node 0, Type 0, BuildingBlock: PAMTOO_clean_linker_0, # of connection points: 3
#     Node 1, Type 0, BuildingBlock: PAMTOO_clean_linker_0, # of connection points: 3
#     Node 2, Type 0, BuildingBlock: PAMTOO_clean_linker_0, # of connection points: 3
#     Node 3, Type 0, BuildingBlock: PAMTOO_clean_linker_0, # of connection points: 3
#     Node 4, Type 0, BuildingBlock: PAMTOO_clean_linker_0, # of connection points: 3
#     Node 5, Type 0, BuildingBlock: PAMTOO_clean_linker_0, # of connection points: 3
#     Node 6, Type 0, BuildingBlock: PAMTOO_clean_linker_0, # of connection points: 3
#     Node 7, Type 0, BuildingBlock: PAMTOO_clean_linker_0, # of connection points: 3
#     Node 8, Type 1, BuildingBlock: BETDIP_clean_sbu_0, # of connection points: 6
#     Node 9, Type 1, BuildingBlock: BETDIP_clean_sbu_0, # of connection points: 6
#     Node 10, Type 1, BuildingBlock: BETDIP_clean_sbu_0, # of connection points: 6
#     Node 11, Type 1, BuildingBlock: BETDIP_clean_sbu_0, # of connection points: 6
#     Edge 12, Type (0, 1), BuildingBlock: TEMPAE_clean_linker_10, # of connection points: 2
#     Edge 13, Type (0, 1), BuildingBlock: TEMPAE_clean_linker_10, # of connection points: 2
#     Edge 14, Type (0, 1), BuildingBlock: TEMPAE_clean_linker_10, # of connection points: 2
#     Edge 15, Type (0, 1), BuildingBlock: TEMPAE_clean_linker_10, # of connection points: 2
#     Edge 16, Type (0, 1), BuildingBlock: TEMPAE_clean_linker_10, # of connection points: 2
#     Edge 17, Type (0, 1), BuildingBlock: TEMPAE_clean_linker_10, # of connection points: 2
#     Edge 18, Type (0, 1), BuildingBlock: TEMPAE_clean_linker_10, # of connection points: 2
#     Edge 19, Type (0, 1), BuildingBlock: TEMPAE_clean_linker_10, # of connection points: 2
#     Edge 20, Type (0, 1), BuildingBlock: TEMPAE_clean_linker_10, # of connection points: 2
#     Edge 21, Type (0, 1), BuildingBlock: TEMPAE_clean_linker_10, # of connection points: 2
#     Edge 22, Type (0, 1), BuildingBlock: TEMPAE_clean_linker_10, # of connection points: 2
#     Edge 23, Type (0, 1), BuildingBlock: TEMPAE_clean_linker_10, # of connection points: 2
#     Edge 24, Type (0, 1), BuildingBlock: TEMPAE_clean_linker_10, # of connection points: 2
#     Edge 25, Type (0, 1), BuildingBlock: TEMPAE_clean_linker_10, # of connection points: 2
#     Edge 26, Type (0, 1), BuildingBlock: TEMPAE_clean_linker_10, # of connection points: 2
#     Edge 27, Type (0, 1), BuildingBlock: TEMPAE_clean_linker_10, # of connection points: 2
#     Edge 28, Type (0, 1), BuildingBlock: TEMPAE_clean_linker_10, # of connection points: 2
#     Edge 29, Type (0, 1), BuildingBlock: TEMPAE_clean_linker_10, # of connection points: 2
#     Edge 30, Type (0, 1), BuildingBlock: TEMPAE_clean_linker_10, # of connection points: 2
#     Edge 31, Type (0, 1), BuildingBlock: TEMPAE_clean_linker_10, # of connection points: 2
#     Edge 32, Type (0, 1), BuildingBlock: TEMPAE_clean_linker_10, # of connection points: 2
#     Edge 33, Type (0, 1), BuildingBlock: TEMPAE_clean_linker_10, # of connection points: 2
#     Edge 34, Type (0, 1), BuildingBlock: TEMPAE_clean_linker_10, # of connection points: 2
#     Edge 35, Type (0, 1), BuildingBlock: TEMPAE_clean_linker_10, # of connection points: 2
# Relax obj value: 0.263
# Max RMSD: 0.168
# Mean RMSD: 0.147
data_MOF--net-zzz--node1-BETDIP_clean_sbu_0--node2-PAMTOO_clean_linker_0--edge1-TEMPAE_clean_linker_10
_symmetry_space_group_name_H-M    P1
_symmetry_Int_Tables_number       1
_symmetry_cell_setting            triclinic
loop_
_symmetry_equiv_pos_as_xyz
'x, y, z'
_cell_length_a     52.815849
_cell_length_b     52.758584
_cell_length_c     13.787854
_cell_angle_alpha  89.338896
_cell_angle_beta   89.839759
_cell_angle_gamma 89.998415
loop_
_atom_site_label
_atom_site_type_symbol
_atom_site_fract_x
_atom_site_fract_y
_atom_site_fract_z
_atom_type_partial_charge
H0 H 0.80546 0.4573 0.37204 0.0
H1 H 0.73773 0.4738 0.21433 0.0
H2 H 0.76146 0.52333 0.44359 0.0
H3 H 0.69612 0.51989 0.40388 0.0
C4 C 0.70079 0.5079 0.34056 0.0
O5 O 0.72525 0.51393 0.30983 0.0
H6 H 0.69981 0.48788 0.36685 0.0
C7 C 0.78859 0.46878 0.36371 0.0
C8 C 0.78595 0.49075 0.41925 0.0
C9 C 0.77149 0.46263 0.29013 0.0
C10 C 0.75045 0.47805 0.27343 0.0
C11 C 0.74601 0.49938 0.3305 0.0
C12 C 0.76414 0.50616 0.40254 0.0
H13 H 0.04225 0.8134 0.31422 0.0
H14 H 0.03146 0.74204 0.17462 0.0
H15 H 0.99888 0.75475 0.45795 0.0
H16 H 1.01253 0.6915 0.4017 0.0
C17 C 0.01796 0.69897 0.32889 0.0
O18 O 1.0044 0.72122 0.31129 0.0
H19 H 0.03865 0.70298 0.33248 0.0
C20 C 0.03458 0.7943 0.31651 0.0
C21 C 0.02046 0.7864 0.39732 0.0
C22 C 0.03845 0.77859 0.23678 0.0
C23 C 0.02863 0.75405 0.23699 0.0
C24 C 0.0146 0.74501 0.31662 0.0
C25 C 1.01018 0.76138 0.39714 0.0
H26 H 0.72008 0.04402 0.30877 0.0
H27 H 0.79374 0.02924 0.19266 0.0
H28 H 0.7727 0.99805 0.47259 0.0
H29 H 0.84119 1.00409 0.41962 0.0
C30 C 0.83257 1.01355 0.3554 0.0
O31 O 0.80971 1.00145 0.33525 0.0
H32 H 0.82901 0.03356 0.37654 0.0
C33 C 0.73874 0.03583 0.31893 0.0
C34 C 0.74375 0.02135 0.40259 0.0
C35 C 0.75654 0.0387 0.24421 0.0
C36 C 0.78031 0.02752 0.25198 0.0
C37 C 0.78663 1.01322 0.33441 0.0
C38 C 0.76818 1.00976 0.41003 0.0
H39 H 0.48405 0.71129 0.31455 0.0
H40 H 0.49865 0.78382 0.1826 0.0
H41 H 0.52858 0.76642 0.46689 0.0
H42 H 0.52169 0.83264 0.40996 0.0
C43 C 0.51293 0.82434 0.34446 0.0
O44 O 0.52533 0.80174 0.3239 0.0
H45 H 0.49273 0.82066 0.36361 0.0
C46 C 0.49217 0.73014 0.3197 0.0
C47 C 0.5061 0.7365 0.40209 0.0
C48 C 0.48965 0.74687 0.24078 0.0
C49 C 0.50029 0.77104 0.24437 0.0
C50 C 0.514 0.7785 0.32606 0.0
C51 C 0.5173 0.76103 0.405 0.0
H52 H 0.21473 0.54648 0.21145 0.0
H53 H 0.28667 0.53285 0.34513 0.0
H54 H 0.26911 0.49796 0.07155 0.0
H55 H 0.32426 0.53615 0.1788 0.0
C56 C 0.32719 0.51538 0.18932 0.0
O57 O 0.30443 0.50333 0.21204 0.0
H58 H 0.33402 0.50817 0.11851 0.0
C59 C 0.2334 0.53788 0.20807 0.0
C60 C 0.23954 0.52219 0.13022 0.0
C61 C 0.25016 0.54168 0.28489 0.0
C62 C 0.27398 0.53028 0.28442 0.0
C63 C 0.28131 0.5149 0.20714 0.0
C64 C 0.26387 0.51047 0.12997 0.0
H65 H 0.95929 0.21859 0.13074 0.0
H66 H 0.96865 0.28799 0.28436 0.0
H67 H 0.02672 0.26295 0.08598 0.0
H68 H 0.04561 0.30449 0.2625 0.0
C69 C 0.02529 0.30639 0.28224 0.0
O70 O 1.01079 0.30137 0.20038 0.0
H71 H 0.02165 0.29191 0.34007 0.0
C72 C 0.97025 0.23551 0.14368 0.0
C73 C 0.99394 0.23805 0.09878 0.0
C74 C 0.96137 0.25273 0.21245 0.0
C75 C 0.97542 0.27457 0.2313 0.0
C76 C 0.99867 0.27887 0.18449 0.0
C77 C 1.00845 0.26011 0.12016 0.0
H78 H 0.30624 0.06228 0.12506 0.0
H79 H 0.23523 0.05066 0.27046 0.0
H80 H 0.25718 1.00199 0.03535 0.0
H81 H 0.22749 0.99527 0.28374 0.0
C82 C 0.21215 0.99751 0.22901 0.0
O83 O 0.21907 0.01523 0.15794 0.0
H84 H 0.21022 0.97873 0.19413 0.0
C85 C 0.28839 0.05233 0.1307 0.0
C86 C 0.28441 0.0315 0.07052 0.0
C87 C 0.2717 0.05841 0.20643 0.0
C88 C 0.24842 0.04587 0.21314 0.0
C89 C 0.24258 0.02601 0.15053 0.0
C90 C 0.2611 0.01803 0.08117 0.0
H91 H 0.56388 0.29591 0.13704 0.0
H92 H 0.54992 0.22326 0.26831 0.0
H93 H 0.49776 0.25354 0.0563 0.0
H94 H 0.47309 0.20765 0.21671 0.0
C95 C 0.49262 0.20792 0.2464 0.0
O96 O 0.50935 0.21322 0.17066 0.0
H97 H 0.49288 0.22336 0.30091 0.0
C98 C 0.55267 0.27877 0.14092 0.0
C99 C 0.53044 0.27737 0.08587 0.0
C100 C 0.55954 0.25982 0.208 0.0
C101 C 0.54477 0.23794 0.21639 0.0
C102 C 0.52267 0.2353 0.16157 0.0
C103 C 0.51508 0.25534 0.09745 0.0
Tb104 Tb 0.03136 1.00233 0.84438 0.0
Tb105 Tb 1.00195 0.0185 0.67022 0.0
C106 C 0.05338 0.99309 1.00115 0.0
C107 C 0.07196 0.9734 0.02661 0.0
C108 C 0.06771 0.9583 0.10898 0.0
C109 C 0.0809 0.93562 0.12138 0.0
C110 C 0.09871 0.92766 0.05158 0.0
C111 C 0.10477 0.94419 0.97433 0.0
C112 C 0.0914 0.96682 0.9616 0.0
C113 C 0.05817 1.00157 0.67915 0.0
C114 C 1.01184 0.9596 0.70893 0.0
C115 C 0.98763 0.03272 0.50525 0.0
C116 C 0.96872 0.05175 0.47772 0.0
C117 C 0.95785 0.06703 0.54933 0.0
C118 C 0.94313 0.08793 0.52317 0.0
C119 C 0.9391 0.09387 0.42489 0.0
C120 C 0.94819 0.07715 0.35373 0.0
C121 C 0.96306 0.05629 0.38005 0.0
C122 C 0.96905 1.01295 0.81947 0.0
C123 C 0.0161 0.06118 0.81786 0.0
O124 O 0.03069 0.98452 0.98092 0.0
O125 O 0.061 1.01059 0.93947 0.0
O126 O 0.04192 0.01809 0.70339 0.0
O127 O 0.06006 0.98559 0.75022 0.0
O128 O 0.01648 0.96518 0.80082 0.0
O129 O 1.00949 0.97801 0.64315 0.0
O130 O 1.00766 0.04183 0.54842 0.0
O131 O 0.97876 1.0125 0.54931 0.0
O132 O 0.9927 1.00946 0.8189 0.0
O133 O 0.96338 0.02021 0.73258 0.0
O134 O 1.00851 0.05642 0.72852 0.0
O135 O 0.02351 0.04261 0.87712 0.0
H136 H 0.05282 0.96304 0.15987 0.0
H137 H 0.07537 0.9234 0.18137 0.0
H138 H 0.11866 0.93889 0.92031 0.0
H139 H 0.0952 0.97828 0.89753 0.0
H140 H 0.96202 0.06372 0.62528 0.0
H141 H 0.9367 0.10053 0.57961 0.0
H142 H 0.94519 0.08117 0.27743 0.0
H143 H 0.97118 0.04454 0.32405 0.0
Tb144 Tb 0.52042 0.02408 0.84112 0.0
Tb145 Tb 0.50881 0.99432 0.66383 0.0
C146 C 0.5398 0.04247 0.99012 0.0
C147 C 0.56252 0.05814 1.00046 0.0
C148 C 0.57777 0.05495 0.08214 0.0
C149 C 0.60115 0.06709 0.08683 0.0
C150 C 0.60964 0.08292 0.01013 0.0
C151 C 0.59373 0.08686 0.92988 0.0
C152 C 0.57042 0.07442 0.92479 0.0
C153 C 0.50538 0.05217 0.69006 0.0
C154 C 0.56625 1.00714 0.69656 0.0
C155 C 0.49241 0.98727 0.49679 0.0
C156 C 0.4715 1.0011 0.45025 0.0
C157 C 0.47107 0.02776 0.45084 0.0
C158 C 0.44851 0.04087 0.43557 0.0
C159 C 0.42611 0.02749 0.41822 0.0
C160 C 0.42693 1.00094 0.41024 0.0
C161 C 0.44948 0.98786 0.42595 0.0
C162 C 0.51521 0.96127 0.81029 0.0
C163 C 0.46456 1.00892 0.81211 0.0
O164 O 0.54396 0.01921 0.9623 0.0
O165 O 0.52103 0.05306 0.94347 0.0
O166 O 0.51975 0.03301 0.68869 0.0
O167 O 0.49949 0.05633 0.77951 0.0
O168 O 0.55869 0.02049 0.77317 0.0
O169 O 0.54985 0.99424 0.64376 0.0
O170 O 0.51303 1.00025 0.51382 0.0
O171 O 0.48543 0.97354 0.57178 0.0
O172 O 0.51651 0.98516 0.81214 0.0
O173 O 0.51198 0.95519 0.72042 0.0
O174 O 0.47125 1.00687 0.7194 0.0
O175 O 0.4823 1.01122 0.87908 0.0
H176 H 0.57211 0.04219 0.14045 0.0
H177 H 0.61308 0.06289 0.14868 0.0
H178 H 0.59954 0.09896 0.86989 0.0
H179 H 0.55896 0.0769 0.86033 0.0
H180 H 0.48781 0.03845 0.46855 0.0
H181 H 0.44845 0.06137 0.43988 0.0
H182 H 0.40986 0.99016 0.39692 0.0
H183 H 0.44931 0.96732 0.42604 0.0
Tb184 Tb 0.49885 0.51428 0.84088 0.0
Tb185 Tb 0.53012 0.50379 0.68545 0.0
C186 C 0.47618 0.53298 0.98342 0.0
C187 C 0.46004 0.5555 0.99019 0.0
C188 C 0.46018 0.56958 0.07523 0.0
C189 C 0.44828 0.59314 0.07769 0.0
C190 C 0.43574 0.60301 0.99517 0.0
C191 C 0.43448 0.58807 0.91153 0.0
C192 C 0.44672 0.56458 0.90881 0.0
C193 C 0.47209 0.50207 0.68357 0.0
C194 C 0.51597 0.56032 0.70011 0.0
C195 C 0.55251 0.48465 0.54286 0.0
C196 C 0.56146 0.45875 0.52486 0.0
C197 C 0.54551 0.43788 0.54226 0.0
C198 C 0.55427 0.41338 0.52725 0.0
C199 C 0.57911 0.4093 0.49498 0.0
C200 C 0.59536 0.42998 0.47978 0.0
C201 C 0.58653 0.45465 0.49455 0.0
C202 C 0.55646 0.51697 0.84216 0.0
C203 C 0.51337 0.45811 0.82536 0.0
O204 O 0.49992 0.53764 0.96294 0.0
O205 O 0.46714 0.51436 0.93263 0.0
O206 O 0.49138 0.51627 0.68598 0.0
O207 O 0.46771 0.49419 0.77088 0.0
O208 O 0.50806 0.55337 0.78788 0.0
O209 O 0.52303 0.54274 0.63855 0.0
O210 O 0.52799 0.48785 0.54719 0.0
O211 O 0.56419 0.49646 0.61205 0.0
O212 O 0.53759 0.50216 0.8404 0.0
O213 O 0.56036 0.52529 0.75489 0.0
O214 O 0.51883 0.46505 0.73513 0.0
O215 O 0.50878 0.47592 0.8893 0.0
H216 H 0.4706 0.56296 0.13824 0.0
H217 H 0.45039 0.6042 0.14281 0.0
H218 H 0.42488 0.59487 0.84704 0.0
H219 H 0.4466 0.55399 0.84194 0.0
H220 H 0.52617 0.44041 0.56642 0.0
H221 H 0.54145 0.39757 0.53869 0.0
H222 H 0.61448 0.4271 0.45348 0.0
H223 H 0.59917 0.47051 0.48162 0.0
Tb224 Tb 1.00821 0.49386 0.84782 0.0
Tb225 Tb 0.01895 0.52465 0.69243 0.0
C226 C 0.99099 0.4708 0.99465 0.0
C227 C 0.96974 0.45357 0.01137 0.0
C228 C 0.95214 0.44906 0.93753 0.0
C229 C 0.93002 0.43555 0.95791 0.0
C230 C 0.92533 0.42636 0.0523 0.0
C231 C 0.94415 0.42897 0.12358 0.0
C232 C 0.96618 0.44264 0.10327 0.0
C233 C 0.0212 0.46655 0.69218 0.0
C234 C 0.96276 0.50944 0.70569 0.0
C235 C 0.03864 0.54838 0.55189 0.0
C236 C 0.06239 0.56298 0.54653 0.0
C237 C 0.08443 0.55343 0.59014 0.0
C238 C 0.10648 0.56772 0.59153 0.0
C239 C 0.10728 0.59177 0.54717 0.0
C240 C 0.08534 0.60145 0.50264 0.0
C241 C 0.0629 0.58724 0.50345 0.0
C242 C 1.00571 0.5516 0.84839 0.0
C243 C 0.06421 0.50884 0.83424 0.0
O244 O 0.98492 0.49408 0.97115 0.0
O245 O 1.00906 0.46203 0.9401 0.0
O246 O 1.00676 0.48569 0.69289 0.0
O247 O 0.02911 0.46294 0.77956 0.0
O248 O 0.96922 0.50333 0.79589 0.0
O249 O 0.98087 0.51506 0.64299 0.0
O250 O 0.04085 0.5239 0.56523 0.0
O251 O 0.02126 0.55796 0.60769 0.0
O252 O 0.02042 0.53268 0.84696 0.0
O253 O 0.99747 0.55517 0.76134 0.0
O254 O 0.05764 0.51403 0.74369 0.0
O255 O 0.04604 0.5043 0.89752 0.0
H256 H 0.95489 0.45709 0.86562 0.0
H257 H 0.91577 0.43405 0.9019 0.0
H258 H 0.94107 0.42187 0.19673 0.0
H259 H 0.97983 0.4457 0.16049 0.0
H260 H 0.0849 0.53466 0.62174 0.0
H261 H 0.12335 0.55933 0.62298 0.0
H262 H 0.08573 0.6197 0.46589 0.0
H263 H 0.04607 0.59503 0.46969 0.0
C264 C 0.18749 0.01599 0.37187 0.0
C265 C 0.18722 1.00409 0.28117 0.0
C266 C 0.16531 0.01805 0.42934 0.0
C267 C 0.1419 1.00818 0.39583 0.0
C268 C 0.14125 0.99754 0.30152 0.0
C269 C 0.16378 0.99562 0.24579 0.0
C270 C 0.1673 0.02956 0.52868 0.0
C271 C 0.117 0.98688 0.26117 0.0
C272 C 0.09571 0.98361 0.59138 0.0
C273 C 0.07808 1.00345 0.60069 0.0
C274 C 0.11597 0.98482 0.52448 0.0
C275 C 0.11911 1.00643 0.46348 0.0
C276 C 0.10098 0.02633 0.47044 0.0
C277 C 0.08077 0.02465 0.53876 0.0
C278 C 0.13442 0.96298 0.52069 0.0
C279 C 0.10319 0.04963 0.40668 0.0
H280 H 0.2054 0.02262 0.40013 0.0
H281 H 0.16325 0.98639 0.17598 0.0
H282 H 0.1523 0.044 0.53891 0.0
H283 H 0.16441 0.0146 0.58485 0.0
H284 H 0.18603 0.03855 0.54078 0.0
H285 H 0.11858 0.98291 0.18243 0.0
H286 H 0.11227 0.96892 0.29973 0.0
H287 H 0.10104 1.0002 0.27276 0.0
H288 H 0.0939 0.96703 0.63804 0.0
H289 H 0.06736 0.04011 0.5448 0.0
H290 H 0.15369 0.96968 0.53958 0.0
H291 H 0.13536 0.9554 0.44606 0.0
H292 H 0.12916 0.94729 0.57124 0.0
H293 H 0.12097 0.05985 0.42355 0.0
H294 H 0.08699 0.0628 0.41643 0.0
H295 H 0.10421 0.04411 0.32935 0.0
C296 C 0.48562 0.16029 0.27092 0.0
C297 C 0.49829 0.18259 0.29749 0.0
C298 C 0.48774 0.13767 0.3266 0.0
C299 C 0.503 0.1371 0.41128 0.0
C300 C 0.51684 0.15923 0.43541 0.0
C301 C 0.51436 0.18156 0.37844 0.0
C302 C 0.4727 0.11469 0.29713 0.0
C303 C 0.53343 0.15972 0.52425 0.0
C304 C 0.48584 0.09188 0.62161 0.0
C305 C 0.50399 0.07256 0.61355 0.0
C306 C 0.48504 0.11249 0.55547 0.0
C307 C 0.50294 0.11421 0.4787 0.0
C308 C 0.52104 0.09443 0.46892 0.0
C309 C 0.52138 0.07394 0.53632 0.0
C310 C 0.4652 0.13275 0.56905 0.0
C311 C 0.54037 0.09516 0.38821 0.0
H312 H 0.4732 0.16082 0.20848 0.0
H313 H 0.52423 0.19863 0.39964 0.0
H314 H 0.48499 0.09764 0.296 0.0
H315 H 0.45749 0.11101 0.35114 0.0
H316 H 0.46388 0.1172 0.2246 0.0
H317 H 0.54448 0.17757 0.52919 0.0
H318 H 0.52151 0.15773 0.59031 0.0
H319 H 0.54679 0.14349 0.52383 0.0
H320 H 0.4723 0.09101 0.68079 0.0
H321 H 0.53555 0.0592 0.52948 0.0
H322 H 0.45381 0.13496 0.50202 0.0
H323 H 0.4745 0.15122 0.58267 0.0
H324 H 0.4522 0.12837 0.63048 0.0
H325 H 0.53077 0.09712 0.31704 0.0
H326 H 0.55238 0.07788 0.38739 0.0
H327 H 0.55278 0.11196 0.39646 0.0
C328 C 0.34929 0.52738 0.34709 0.0
C329 C 0.34756 0.51121 0.26712 0.0
C330 C 0.36968 0.5257 0.41334 0.0
C331 C 0.38903 0.50732 0.40025 0.0
C332 C 0.38699 0.49052 0.32086 0.0
C333 C 0.36637 0.49262 0.25582 0.0
C334 C 0.37072 0.54394 0.49669 0.0
C335 C 0.40688 0.47053 0.30353 0.0
C336 C 0.45376 0.5179 0.52328 0.0
C337 C 0.45183 0.5026 0.60709 0.0
C338 C 0.43372 0.51946 0.45512 0.0
C339 C 0.41104 0.50538 0.47049 0.0
C340 C 0.40928 0.4896 0.55426 0.0
C341 C 0.42953 0.48842 0.6209 0.0
C342 C 0.43668 0.53647 0.36712 0.0
C343 C 0.38576 0.47414 0.57442 0.0
H344 H 0.33497 0.54188 0.35634 0.0
H345 H 0.36531 0.48007 0.19429 0.0
H346 H 0.37143 0.53331 0.56652 0.0
H347 H 0.38825 0.55549 0.49157 0.0
H348 H 0.35415 0.55691 0.49793 0.0
H349 H 0.40247 0.45866 0.23974 0.0
H350 H 0.42557 0.47968 0.29168 0.0
H351 H 0.40863 0.45802 0.36838 0.0
H352 H 0.4708 0.529 0.51167 0.0
H353 H 0.42773 0.47648 0.68507 0.0
H354 H 0.42184 0.55135 0.36755 0.0
H355 H 0.43408 0.52535 0.30006 0.0
H356 H 0.45553 0.5458 0.36417 0.0
H357 H 0.36919 0.4869 0.58217 0.0
H358 H 0.38745 0.46238 0.64144 0.0
H359 H 0.38184 0.46148 0.51257 0.0
C360 C 0.036 0.35353 0.298 0.0
C361 C 0.02047 0.33288 0.32393 0.0
C362 C 0.03476 0.37683 0.34796 0.0
C363 C 0.01754 0.37987 0.42636 0.0
C364 C 1.00076 0.35954 0.4488 0.0
C365 C 1.00238 0.33647 0.3975 0.0
C366 C 0.05287 0.39779 0.31989 0.0
C367 C 0.98191 0.36165 0.53071 0.0
C368 C 0.03598 0.42389 0.63506 0.0
C369 C 0.02093 0.44552 0.61909 0.0
C370 C 0.03517 0.40282 0.57279 0.0
C371 C 0.01889 0.40299 0.49102 0.0
C372 C 1.00394 0.425 0.47314 0.0
C373 C 1.00511 0.44591 0.53716 0.0
C374 C 0.05158 0.38011 0.59569 0.0
C375 C 0.98635 0.4263 0.38724 0.0
H376 H 0.04999 0.35107 0.24121 0.0
H377 H 0.99023 0.32074 0.41811 0.0
H378 H 0.04257 0.416 0.31114 0.0
H379 H 0.06698 0.40032 0.37849 0.0
H380 H 0.06315 0.3937 0.25142 0.0
H381 H 0.96855 0.34539 0.5332 0.0
H382 H 0.99215 0.36236 0.6008 0.0
H383 H 0.97089 0.37946 0.52346 0.0
H384 H 0.04833 0.42324 0.6977 0.0
H385 H 0.99329 0.46238 0.52392 0.0
H386 H 0.06414 0.376 0.53319 0.0
H387 H 0.03952 0.36316 0.60822 0.0
H388 H 0.06352 0.38299 0.66087 0.0
H389 H 0.99674 0.42165 0.3197 0.0
H390 H 0.97753 0.4453 0.3784 0.0
H391 H 0.97109 0.41201 0.39633 0.0
C392 C 0.86588 0.03448 0.24624 0.0
C393 C 0.85183 1.01269 0.27134 0.0
C394 C 0.88576 0.03385 0.17723 0.0
C395 C 0.89216 1.01081 0.13091 0.0
C396 C 0.87815 0.98866 0.15641 0.0
C397 C 0.8584 0.98982 0.22631 0.0
C398 C 0.89982 0.05805 0.15346 0.0
C399 C 0.88413 0.96362 0.10992 0.0
C400 C 0.92443 0.01572 0.88112 0.0
C401 C 0.95018 1.01139 0.9016 0.0
C402 C 0.90565 0.01525 0.95417 0.0
C403 C 0.91237 1.01034 0.05205 0.0
C404 C 0.93839 1.00584 0.07365 0.0
C405 C 0.95692 1.00633 0.99844 0.0
C406 C 0.87847 0.02033 0.92632 0.0
C407 C 0.94666 1.00066 0.17655 0.0
H408 H 0.86151 0.05217 0.28182 0.0
H409 H 0.84823 0.97272 0.2467 0.0
H410 H 0.92057 0.05484 0.15605 0.0
H411 H 0.89512 0.06431 0.07856 0.0
H412 H 0.89494 0.07358 0.20395 0.0
H413 H 0.872 0.94801 0.13841 0.0
H414 H 0.88145 0.96515 0.03028 0.0
H415 H 0.90426 0.95862 0.12271 0.0
H416 H 0.91882 0.01967 0.80691 0.0
H417 H 0.97667 1.00302 0.01561 0.0
H418 H 0.8715 0.03747 0.96387 0.0
H419 H 0.86631 1.00424 0.94986 0.0
H420 H 0.87613 0.02324 0.84692 0.0
H421 H 0.94011 0.01609 0.2245 0.0
H422 H 0.96755 0.9989 0.18291 0.0
H423 H 0.93782 0.98283 0.20342 0.0
C424 C 0.53807 0.85441 0.23363 0.0
C425 C 0.51471 0.84374 0.26108 0.0
C426 C 0.53959 0.87421 0.16356 0.0
C427 C 0.51722 0.88387 0.11963 0.0
C428 C 0.49361 0.87301 0.1469 0.0
C429 C 0.49267 0.85319 0.21667 0.0
C430 C 0.5652 0.88488 0.13678 0.0
C431 C 0.46922 0.88246 0.10265 0.0
C432 C 0.51652 0.94921 0.98989 0.0
C433 C 0.51771 0.94236 0.89187 0.0
C434 C 0.51678 0.93053 0.0649 0.0
C435 C 0.51845 0.90435 0.04176 0.0
C436 C 0.52031 0.89756 0.94285 0.0
C437 C 0.51979 0.91649 0.86983 0.0
C438 C 0.51461 0.9388 0.16893 0.0
C439 C 0.52232 0.87013 0.91365 0.0
H440 H 0.55515 0.84749 0.2683 0.0
H441 H 0.47449 0.84532 0.23784 0.0
H442 H 0.5687 0.88248 0.05803 0.0
H443 H 0.56566 0.90551 0.15131 0.0
H444 H 0.58079 0.87556 0.17769 0.0
H445 H 0.45236 0.87255 0.13302 0.0
H446 H 0.46714 0.90309 0.11523 0.0
H447 H 0.4696 0.87968 0.02302 0.0
H448 H 0.51474 0.96907 0.00787 0.0
H449 H 0.52073 0.91089 0.79451 0.0
H450 H 0.53049 0.93088 0.21213 0.0
H451 H 0.4968 0.93129 0.20107 0.0
H452 H 0.51466 0.95976 0.17569 0.0
H453 H 0.53852 0.86095 0.95111 0.0
H454 H 0.52485 0.86797 0.83416 0.0
H455 H 0.50495 0.85978 0.93617 0.0
C456 C 0.67935 0.49449 0.18286 0.0
C457 C 0.68087 0.51143 0.26052 0.0
C458 C 0.65919 0.49556 0.11538 0.0
C459 C 0.63969 0.51393 0.12541 0.0
C460 C 0.64137 0.53134 0.20291 0.0
C461 C 0.66181 0.52991 0.26893 0.0
C462 C 0.65852 0.47668 0.03409 0.0
C463 C 0.62123 0.55125 0.21736 0.0
C464 C 0.59908 0.53118 0.903 0.0
C465 C 0.57687 0.51693 0.91812 0.0
C466 C 0.6194 0.53044 0.96947 0.0
C467 C 0.61777 0.51511 0.0545 0.0
C468 C 0.59521 0.50094 0.07103 0.0
C469 C 0.57513 0.50199 1.00294 0.0
C470 C 0.64282 0.54592 0.94789 0.0
C471 C 0.59237 0.48442 0.16045 0.0
H472 H 0.69364 0.47988 0.17633 0.0
H473 H 0.66253 0.54295 0.32904 0.0
H474 H 0.64121 0.46486 0.04039 0.0
H475 H 0.65766 0.48677 0.96312 0.0
H476 H 0.67532 0.46401 0.0344 0.0
H477 H 0.62536 0.56365 0.27995 0.0
H478 H 0.61951 0.56326 0.15114 0.0
H479 H 0.60261 0.54199 0.22958 0.0
H480 H 0.60075 0.54281 0.83799 0.0
H481 H 0.55818 0.49084 0.01557 0.0
H482 H 0.65951 0.53324 0.94225 0.0
H483 H 0.64652 0.55916 0.00815 0.0
H484 H 0.64115 0.55707 0.87938 0.0
H485 H 0.60744 0.46976 0.16174 0.0
H486 H 0.57366 0.47482 0.16384 0.0
H487 H 0.59469 0.496 0.22649 0.0
C488 C 0.99564 0.65908 0.26819 0.0
C489 C 1.01339 0.67856 0.25213 0.0
C490 C 0.99359 0.63826 0.20461 0.0
C491 C 1.0096 0.63664 0.12189 0.0
C492 C 0.02702 0.65671 0.10385 0.0
C493 C 0.02864 0.67731 0.16862 0.0
C494 C 0.97459 0.61767 0.22725 0.0
C495 C 0.04443 0.65615 0.01698 0.0
C496 C 0.0219 0.57162 0.00377 0.0
C497 C 1.00592 0.57241 0.92242 0.0
C498 C 0.02316 0.59214 0.06933 0.0
C499 C 1.00804 0.61416 0.0541 0.0
C500 C 0.99158 0.61477 0.9729 0.0
C501 C 0.99076 0.59408 0.90861 0.0
C502 C 0.041 0.5904 0.1544 0.0
C503 C 0.97496 0.6375 0.95303 0.0
H504 H 0.9838 0.65974 0.33243 0.0
H505 H 0.04247 0.69215 0.15554 0.0
H506 H 0.96178 0.615 0.16455 0.0
H507 H 0.98457 0.59943 0.23997 0.0
H508 H 0.96296 0.62198 0.29226 0.0
H509 H 0.05655 0.67333 0.01158 0.0
H510 H 0.05683 0.6392 0.02144 0.0
H511 H 0.0332 0.65461 0.94943 0.0
H512 H 0.03379 0.55512 0.01538 0.0
H513 H 0.9783 0.59502 0.84633 0.0
H514 H 0.03035 0.59276 0.22318 0.0
H515 H 0.05511 0.60596 0.14988 0.0
H516 H 0.05125 0.57201 0.15739 0.0
H517 H 0.96269 0.64122 0.01674 0.0
H518 H 0.96275 0.63492 0.88843 0.0
H519 H 0.98688 0.65458 0.94113 0.0
C520 C 0.91916 0.23298 0.23519 0.0
C521 C 0.94065 0.24397 0.27706 0.0
C522 C 0.90865 0.21083 0.27576 0.0
C523 C 0.91998 0.20002 0.3593 0.0
C524 C 0.93721 0.21471 0.4137 0.0
C525 C 0.94731 0.23688 0.37177 0.0
C526 C 0.88879 0.19673 0.2197 0.0
C527 C 0.9489 0.20455 0.50595 0.0
C528 C 0.91086 0.13191 0.44789 0.0
C529 C 0.9304 0.11966 0.39733 0.0
C530 C 0.90617 0.15796 0.43356 0.0
C531 C 0.92156 0.17193 0.36792 0.0
C532 C 0.9405 0.15922 0.31372 0.0
C533 C 0.94446 0.13334 0.32854 0.0
C534 C 0.88495 0.17039 0.48897 0.0
C535 C 0.95738 0.17292 0.2417 0.0
H536 H 0.9134 0.23902 0.16309 0.0
H537 H 0.96348 0.24581 0.40571 0.0
H538 H 0.89819 0.18314 0.17037 0.0
H539 H 0.87617 0.18582 0.26929 0.0
H540 H 0.8772 0.20993 0.17487 0.0
H541 H 0.95709 0.22003 0.5499 0.0
H542 H 0.93477 0.19408 0.55052 0.0
H543 H 0.96436 0.19119 0.48727 0.0
H544 H 0.89969 0.12125 0.50035 0.0
H545 H 0.95979 0.12414 0.29009 0.0
H546 H 0.86846 0.17286 0.44007 0.0
H547 H 0.89044 0.18946 0.51461 0.0
H548 H 0.87884 0.15868 0.55232 0.0
H549 H 0.97331 0.16099 0.21635 0.0
H550 H 0.96561 0.19017 0.274 0.0
H551 H 0.94596 0.17852 0.17761 0.0
C552 C 0.28437 0.05844 0.37787 0.0
C553 C 0.28231 0.07215 0.2904 0.0
C554 C 0.30708 0.05899 0.43028 0.0
C555 C 0.32737 0.07383 0.39381 0.0
C556 C 0.3224 0.09279 0.32318 0.0
C557 C 0.29941 0.09205 0.27263 0.0
C558 C 0.31103 0.03983 0.5108 0.0
C559 C 0.34295 0.11049 0.2882 0.0
C560 C 0.39439 0.05902 0.4788 0.0
C561 C 0.40168 0.04087 0.41049 0.0
C562 C 0.37026 0.07024 0.47497 0.0
C563 C 0.35337 0.06325 0.40036 0.0
C564 C 0.36109 0.04518 0.33045 0.0
C565 C 0.38511 0.03441 0.3364 0.0
C566 C 0.36328 0.08963 0.55003 0.0
C567 C 0.3444 0.0373 0.24736 0.0
H568 H 0.27059 0.04383 0.39531 0.0
H569 H 0.29716 0.10371 0.20794 0.0
H570 H 0.31941 0.02236 0.48007 0.0
H571 H 0.32425 0.04715 0.56627 0.0
H572 H 0.29281 0.03467 0.54633 0.0
H573 H 0.33483 0.12778 0.25359 0.0
H574 H 0.35539 0.11611 0.34901 0.0
H575 H 0.35477 0.10068 0.23351 0.0
H576 H 0.4073 0.06398 0.53658 0.0
H577 H 0.39099 0.0207 0.28288 0.0
H578 H 0.34266 0.08986 0.5655 0.0
H579 H 0.36874 0.10871 0.52253 0.0
H580 H 0.37361 0.08615 0.61902 0.0
H581 H 0.35139 0.01993 0.21127 0.0
H582 H 0.34425 0.05282 0.19258 0.0
H583 H 0.32478 0.03355 0.27193 0.0
C584 C 0.57008 0.26923 0.37755 0.0
C585 C 0.5786 0.26636 0.282 0.0
C586 C 0.57949 0.28899 0.43419 0.0
C587 C 0.59773 0.30565 0.3933 0.0
C588 C 0.61073 0.2985 0.30815 0.0
C589 C 0.6009 0.27872 0.25263 0.0
C590 C 0.56619 0.29504 0.52806 0.0
C591 C 0.63174 0.31461 0.26645 0.0
C592 C 0.57311 0.37273 0.38947 0.0
C593 C 0.58645 0.38371 0.46519 0.0
C594 C 0.57741 0.34766 0.36363 0.0
C595 C 0.59558 0.33303 0.41555 0.0
C596 C 0.6099 0.3444 0.49018 0.0
C597 C 0.60525 0.36988 0.51383 0.0
C598 C 0.5622 0.33701 0.28084 0.0
C599 C 0.6301 0.32994 0.54464 0.0
H600 H 0.5533 0.25911 0.40189 0.0
H601 H 0.60812 0.2758 0.17989 0.0
H602 H 0.57948 0.30346 0.58089 0.0
H603 H 0.55094 0.30904 0.51345 0.0
H604 H 0.55744 0.27783 0.56103 0.0
H605 H 0.62343 0.33047 0.22356 0.0
H606 H 0.64343 0.32282 0.32498 0.0
H607 H 0.64408 0.30342 0.21756 0.0
H608 H 0.5589 0.38382 0.35124 0.0
H609 H 0.61571 0.37872 0.57193 0.0
H610 H 0.55242 0.31933 0.30362 0.0
H611 H 0.57516 0.33258 0.21999 0.0
H612 H 0.54767 0.3505 0.25329 0.0
H613 H 0.62476 0.3098 0.55646 0.0
H614 H 0.63413 0.33862 0.61598 0.0
H615 H 0.64783 0.33029 0.50129 0.0
C616 C 0.22176 0.54396 0.42501 0.0
C617 C 0.24072 0.5555 0.36937 0.0
C618 C 0.20474 0.55859 0.47811 0.0
C619 C 0.20729 0.58539 0.47649 0.0
C620 C 0.22904 0.59659 0.43374 0.0
C621 C 0.24538 0.58147 0.37835 0.0
C622 C 0.18215 0.54546 0.52402 0.0
C623 C 0.23384 0.62472 0.43783 0.0
C624 C 0.14121 0.60613 0.437 0.0
C625 C 0.13231 0.60358 0.53215 0.0
C626 C 0.16715 0.60445 0.41728 0.0
C627 C 0.18426 0.6007 0.49533 0.0
C628 C 0.17567 0.60382 0.59163 0.0
C629 C 0.14953 0.60475 0.60934 0.0
C630 C 0.17553 0.60229 0.31283 0.0
C631 C 0.19358 0.60251 0.67648 0.0
H632 H 0.2185 0.52376 0.41791 0.0
H633 H 0.26035 0.59027 0.3358 0.0
H634 H 0.18001 0.55115 0.60065 0.0
H635 H 0.1646 0.55102 0.4851 0.0
H636 H 0.18379 0.52448 0.5222 0.0
H637 H 0.25435 0.62837 0.4487 0.0
H638 H 0.22851 0.63369 0.36766 0.0
H639 H 0.22301 0.63386 0.49698 0.0
H640 H 0.12786 0.60568 0.37739 0.0
H641 H 0.14259 0.6035 0.68336 0.0
H642 H 0.18112 0.58243 0.29781 0.0
H643 H 0.1922 0.61454 0.29868 0.0
H644 H 0.16031 0.6078 0.26129 0.0
H645 H 0.19391 0.58293 0.7067 0.0
H646 H 0.18704 0.6152 0.73519 0.0
H647 H 0.21314 0.60789 0.65489 0.0
C648 C 0.07753 0.78385 0.13767 0.0
C649 C 0.05193 0.78946 0.15271 0.0
C650 C 0.09332 0.80139 0.08949 0.0
C651 C 0.0832 0.82515 0.06062 0.0
C652 C 0.05659 0.82895 0.06277 0.0
C653 C 0.04123 0.81072 0.10759 0.0
C654 C 0.12109 0.79542 0.07934 0.0
C655 C 0.04459 0.85375 0.03153 0.0
C656 C 0.10895 0.88717 0.13816 0.0
C657 C 0.10664 0.90062 0.05047 0.0
C658 C 0.10481 0.86098 0.14179 0.0
C659 C 0.0996 0.84797 0.0546 0.0
C660 C 0.10313 0.86057 0.96464 0.0
C661 C 0.10602 0.88701 0.96333 0.0
C662 C 0.10224 0.84821 0.24001 0.0
C663 C 0.10061 0.84684 0.86983 0.0
H664 H 0.08569 0.76709 0.17145 0.0
H665 H 0.02128 0.81466 0.11873 0.0
H666 H 0.1307 0.80825 0.02654 0.0
H667 H 0.13046 0.79706 0.15089 0.0
H668 H 0.12357 0.77552 0.05556 0.0
H669 H 0.02358 0.85308 0.03495 0.0
H670 H 0.05118 0.86923 0.07915 0.0
H671 H 0.05018 0.85868 0.95622 0.0
H672 H 0.11094 0.89749 0.20526 0.0
H673 H 0.10506 0.89697 0.89428 0.0
H674 H 0.114 0.83085 0.24314 0.0
H675 H 0.08224 0.84253 0.25245 0.0
H676 H 0.10807 0.86078 0.30007 0.0
H677 H 0.10419 0.8262 0.87861 0.0
H678 H 0.11408 0.85478 0.81541 0.0
H679 H 0.08125 0.84957 0.84052 0.0
C680 C 0.7517 0.07645 0.13601 0.0
C681 C 0.74791 0.05055 0.15344 0.0
C682 C 0.73476 0.09009 0.07679 0.0
C683 C 0.71309 0.07757 0.04051 0.0
C684 C 0.7117 0.0507 0.04643 0.0
C685 C 0.72963 0.03749 0.10116 0.0
C686 C 0.73878 0.11815 0.0624 0.0
C687 C 0.68944 0.03605 0.00744 0.0
C688 C 0.64772 0.09789 0.09911 0.0
C689 C 0.63614 0.09244 0.01053 0.0
C690 C 0.67403 0.09678 0.10849 0.0
C691 C 0.68904 0.09163 0.0255 0.0
C692 C 0.6777 0.0923 0.93277 0.0
C693 C 0.65118 0.0918 0.92618 0.0
C694 C 0.68518 0.09753 0.20928 0.0
C695 C 0.69336 0.09083 0.8414 0.0
H696 H 0.76632 0.08643 0.17529 0.0
H697 H 0.72724 0.0173 0.1142 0.0
H698 H 0.7255 0.12656 0.00871 0.0
H699 H 0.73661 0.12797 0.13267 0.0
H700 H 0.75849 0.12165 0.03729 0.0
H701 H 0.69117 0.01531 0.02052 0.0
H702 H 0.67156 0.04261 0.0414 0.0
H703 H 0.68805 0.03931 0.92843 0.0
H704 H 0.63612 0.10024 0.16339 0.0
H705 H 0.64258 0.08867 0.85609 0.0
H706 H 0.70013 0.1122 0.21251 0.0
H707 H 0.69392 0.07897 0.22777 0.0
H708 H 0.67076 0.10183 0.26557 0.0
H709 H 0.71317 0.09703 0.8538 0.0
H710 H 0.68485 0.10286 0.78344 0.0
H711 H 0.69362 0.07112 0.81448 0.0
C712 C 0.45345 0.74391 0.12539 0.0
C713 C 0.47806 0.73699 0.15209 0.0
C714 C 0.43898 0.72791 0.06633 0.0
C715 C 0.44924 0.70427 0.03816 0.0
C716 C 0.47526 0.69908 0.05518 0.0
C717 C 0.48945 0.71591 0.11013 0.0
C718 C 0.41218 0.73547 0.0424 0.0
C719 C 0.48737 0.67414 0.02827 0.0
C720 C 0.42013 0.64152 0.08049 0.0
C721 C 0.4276 0.63005 0.99377 0.0
C722 C 0.42319 0.66762 0.0929 0.0
C723 C 0.43259 0.68253 0.01464 0.0
C724 C 0.43368 0.67201 0.92105 0.0
C725 C 0.43208 0.64558 0.91177 0.0
C726 C 0.42014 0.67831 0.19342 0.0
C727 C 0.44002 0.68821 0.83356 0.0
H728 H 0.44482 0.76055 0.15692 0.0
H729 H 0.50868 0.71098 0.13047 0.0
H730 H 0.40348 0.72307 0.9872 0.0
H731 H 0.40047 0.7349 0.10932 0.0
H732 H 0.41188 0.75535 0.01501 0.0
H733 H 0.47844 0.65846 0.07042 0.0
H734 H 0.48454 0.6703 0.95045 0.0
H735 H 0.50805 0.67382 0.04284 0.0
H736 H 0.41477 0.62978 0.14223 0.0
H737 H 0.43688 0.63725 0.84268 0.0
H738 H 0.4081 0.69549 0.19077 0.0
H739 H 0.43892 0.68385 0.22234 0.0
H740 H 0.41142 0.66446 0.24484 0.0
H741 H 0.43184 0.70749 0.84089 0.0
H742 H 0.43279 0.67951 0.76611 0.0
H743 H 0.46084 0.69022 0.82658 0.0
C744 C 0.78718 0.41943 0.25321 0.0
C745 C 0.77941 0.44336 0.21959 0.0
C746 C 0.80674 0.40651 0.20573 0.0
C747 C 0.819 0.41848 0.1263 0.0
C748 C 0.80743 0.43971 0.08073 0.0
C749 C 0.78742 0.4519 0.12809 0.0
C750 C 0.81717 0.38256 0.25079 0.0
C751 C 0.81921 0.45256 0.99324 0.0
C752 C 0.88843 0.43159 0.16024 0.0
C753 C 0.89922 0.41938 0.08079 0.0
C754 C 0.8625 0.43019 0.17845 0.0
C755 C 0.84685 0.41573 0.1164 0.0
C756 C 0.85789 0.40168 0.04035 0.0
C757 C 0.88407 0.40388 0.02271 0.0
C758 C 0.85185 0.44567 0.26076 0.0
C759 C 0.8422 0.38461 0.97727 0.0
H760 H 0.78045 0.4125 0.323 0.0
H761 H 0.78102 0.4702 0.10117 0.0
H762 H 0.82549 0.37013 0.19466 0.0
H763 H 0.83232 0.38745 0.30296 0.0
H764 H 0.80219 0.37198 0.29095 0.0
H765 H 0.80551 0.46528 0.95581 0.0
H766 H 0.83556 0.46415 0.01689 0.0
H767 H 0.82629 0.43845 0.94077 0.0
H768 H 0.90001 0.44383 0.20456 0.0
H769 H 0.89256 0.39411 0.962 0.0
H770 H 0.84236 0.43302 0.31431 0.0
H771 H 0.83765 0.45939 0.23274 0.0
H772 H 0.86666 0.4565 0.29943 0.0
H773 H 0.83791 0.3669 0.01832 0.0
H774 H 0.85237 0.37945 0.90966 0.0
H775 H 0.82385 0.39348 0.95773 0.0
C776 C 0.02523 0.20306 0.05314 0.0
C777 C 1.00239 0.21606 0.03626 0.0
C778 C 0.02982 0.17873 0.01304 0.0
C779 C 1.01094 0.16657 0.95637 0.0
C780 C 0.98844 0.1802 0.93553 0.0
C781 C 0.98475 0.20468 0.97354 0.0
C782 C 0.0545 0.16554 0.03489 0.0
C783 C 0.96735 0.16831 0.87795 0.0
C784 C 0.02281 0.10853 0.79368 0.0
C785 C 0.01568 0.08805 0.85399 0.0
C786 C 0.02258 0.13386 0.82726 0.0
C787 C 1.01392 0.13932 0.92253 0.0
C788 C 1.0065 0.11862 0.9833 0.0
C789 C 1.00794 0.09341 0.94917 0.0
C790 C 0.03158 0.15483 0.76035 0.0
C791 C 0.99587 0.12309 0.08329 0.0
H792 H 0.03896 0.21125 0.1019 0.0
H793 H 0.96706 0.21442 0.95897 0.0
H794 H 0.06277 0.1577 0.96749 0.0
H795 H 0.06848 0.17849 0.06836 0.0
H796 H 0.05107 0.14941 0.08553 0.0
H797 H 0.95125 0.18151 0.86589 0.0
H798 H 0.97446 0.16203 0.80644 0.0
H799 H 0.96021 0.15124 0.91709 0.0
H800 H 0.02903 0.10469 0.7203 0.0
H801 H 1.00213 0.07786 0.99625 0.0
H802 H 0.04559 0.16689 0.79801 0.0
H803 H 0.01542 0.16715 0.73963 0.0
H804 H 0.04037 0.1474 0.69312 0.0
H805 H 1.00853 0.13566 0.12507 0.0
H806 H 0.99308 0.10516 0.125 0.0
H807 H 0.97729 0.13276 0.07647 0.0
C808 C 0.31844 1.00036 0.01493 0.0
C809 C 0.30647 0.02409 0.00564 0.0
C810 C 0.34301 0.99596 0.97568 0.0
C811 C 0.35645 0.0158 0.92693 0.0
C812 C 0.34382 0.0393 0.91298 0.0
C813 C 0.3192 0.043 0.95121 0.0
C814 C 0.35508 0.97034 0.99074 0.0
C815 C 0.35698 0.06131 0.86339 0.0
C816 C 0.42964 0.01655 0.93596 0.0
C817 C 0.43683 1.00994 0.84114 0.0
C818 C 0.40388 0.01833 0.96429 0.0
C819 C 0.38421 1.01288 0.89743 0.0
C820 C 0.39133 1.00581 0.80183 0.0
C821 C 0.41732 1.00467 0.77481 0.0
C822 C 0.39773 0.02629 0.06641 0.0
C823 C 0.37146 0.99951 0.72753 0.0
H824 H 0.30928 0.98567 0.05793 0.0
H825 H 0.31042 0.06149 0.94368 0.0
H826 H 0.36426 0.9639 0.92282 0.0
H827 H 0.37001 0.97169 0.04685 0.0
H828 H 0.34109 0.95584 0.01478 0.0
H829 H 0.34419 0.07781 0.85244 0.0
H830 H 0.37331 0.06739 0.908 0.0
H831 H 0.36456 0.05557 0.79185 0.0
H832 H 0.44424 0.02077 0.98842 0.0
H833 H 0.42233 0.99951 0.70134 0.0
H834 H 0.38836 1.01037 0.10543 0.0
H835 H 0.38433 0.0425 0.06549 0.0
H836 H 0.41486 0.0318 0.10766 0.0
H837 H 0.35814 0.98514 0.75757 0.0
H838 H 0.37987 0.99217 0.65945 0.0
H839 H 0.36023 0.01669 0.70954 0.0
C840 C 0.54341 0.31292 0.97182 0.0
C841 C 0.52396 0.30033 0.02354 0.0
C842 C 0.54038 0.33772 0.93415 0.0
C843 C 0.51692 0.35046 0.9444 0.0
C844 C 0.49648 0.33711 0.98923 0.0
C845 C 0.50028 0.31242 0.02904 0.0
C846 C 0.56299 0.35089 0.88897 0.0
C847 C 0.47083 0.34935 0.99899 0.0
C848 C 0.51836 0.42344 0.95245 0.0
C849 C 0.51352 0.43057 0.85568 0.0
C850 C 0.51934 0.39766 0.98197 0.0
C851 C 0.51455 0.37815 0.91418 0.0
C852 C 0.50903 0.3853 0.81674 0.0
C853 C 0.50901 0.41123 0.78852 0.0
C854 C 0.52628 0.39129 0.08559 0.0
C855 C 0.5032 0.36551 0.74191 0.0
H856 H 0.56173 0.30381 0.96553 0.0
H857 H 0.48509 0.30318 0.06889 0.0
H858 H 0.55821 0.35836 0.81582 0.0
H859 H 0.56844 0.36731 0.93398 0.0
H860 H 0.57961 0.33811 0.88246 0.0
H861 H 0.45609 0.33554 0.02243 0.0
H862 H 0.47177 0.36466 0.05331 0.0
H863 H 0.46503 0.35814 0.92898 0.0
H864 H 0.5221 0.43808 0.00504 0.0
H865 H 0.50507 0.41638 0.71376 0.0
H866 H 0.5438 0.37968 0.08696 0.0
H867 H 0.51108 0.37982 0.12018 0.0
H868 H 0.52943 0.40849 0.12969 0.0
H869 H 0.52025 0.35381 0.72817 0.0
H870 H 0.49696 0.37407 0.67196 0.0
H871 H 0.48815 0.35257 0.76924 0.0
C872 C 0.20642 0.53922 0.01557 0.0
C873 C 0.21896 0.51806 0.05611 0.0
C874 C 0.18263 0.53708 0.96969 0.0
C875 C 0.17068 0.51308 0.96293 0.0
C876 C 0.18409 0.49136 0.99719 0.0
C877 C 0.20791 0.49409 0.04358 0.0
C878 C 0.16952 0.56089 0.93453 0.0
C879 C 0.1726 0.4653 0.98996 0.0
C880 C 0.09772 0.51175 0.96476 0.0
C881 C 0.09155 0.50947 0.86608 0.0
C882 C 0.12315 0.51281 0.9966 0.0
C883 C 0.14339 0.5112 0.9288 0.0
C884 C 0.1373 0.50868 0.829 0.0
C885 C 0.11163 0.5079 0.79905 0.0
C886 C 0.12835 0.51611 0.10333 0.0
C887 C 0.15793 0.50664 0.75361 0.0
H888 H 0.21459 0.55787 0.02529 0.0
H889 H 0.21706 0.47764 0.07567 0.0
H890 H 0.1625 0.55852 0.85945 0.0
H891 H 0.15284 0.56468 0.98132 0.0
H892 H 0.1822 0.57768 0.93603 0.0
H893 H 0.18648 0.45013 0.00763 0.0
H894 H 0.1564 0.46364 0.04104 0.0
H895 H 0.16518 0.46221 0.91582 0.0
H896 H 0.08257 0.51312 0.01761 0.0
H897 H 0.10732 0.50569 0.7229 0.0
H898 H 0.13937 0.53374 0.11454 0.0
H899 H 0.13997 0.50009 0.131 0.0
H900 H 0.11068 0.51713 0.14703 0.0
H901 H 0.15027 0.50609 0.67869 0.0
H902 H 0.16912 0.48915 0.76713 0.0
H903 H 0.17116 0.52289 0.75882 0.0
C904 C 0.99309 0.81686 0.49372 0.0
C905 C 0.01687 0.80588 0.47585 0.0
C906 C 0.99079 0.8403 0.54293 0.0
C907 C 1.01278 0.8535 0.57428 0.0
C908 C 0.03664 0.84159 0.56186 0.0
C909 C 0.03834 0.81813 0.5137 0.0
C910 C 0.96486 0.8517 0.55605 0.0
C911 C 0.06076 0.85455 0.59253 0.0
C912 C 1.01206 0.92657 0.57667 0.0
C913 C 1.01113 0.9323 0.67614 0.0
C914 C 1.01236 0.90129 0.54334 0.0
C915 C 1.01127 0.88065 0.61034 0.0
C916 C 1.00992 0.88625 0.71093 0.0
C917 C 1.01011 0.91181 0.74247 0.0
C918 C 0.01441 0.89669 0.43571 0.0
C919 C 1.00851 0.86517 0.7856 0.0
H920 H 0.97639 0.80803 0.46351 0.0
H921 H 0.05687 0.81013 0.49934 0.0
H922 H 0.96256 0.85886 0.63093 0.0
H923 H 0.9626 0.86808 0.50563 0.0
H924 H 0.94957 0.83781 0.54137 0.0
H925 H 0.07741 0.84172 0.58876 0.0
H926 H 0.06432 0.87116 0.54427 0.0
H927 H 0.05904 0.86168 0.66759 0.0
H928 H 1.01305 0.94196 0.52407 0.0
H929 H 1.00939 0.91572 0.81942 0.0
H930 H 0.99809 0.88524 0.41101 0.0
H931 H 0.03185 0.88571 0.42004 0.0
H932 H 0.01497 0.91462 0.39267 0.0
H933 H 0.02642 0.85418 0.78523 0.0
H934 H 0.993 0.85187 0.76745 0.0
H935 H 1.00531 0.87243 0.85993 0.0
C936 C 0.70684 0.0395 0.49668 0.0
C937 C 0.722 0.01829 0.47447 0.0
C938 C 0.68271 0.03709 0.54054 0.0
C939 C 0.67316 1.01282 0.56662 0.0
C940 C 0.68928 0.99148 0.55266 0.0
C941 C 0.71323 0.99438 0.50592 0.0
C942 C 0.66692 0.0606 0.55495 0.0
C943 C 0.6809 0.96542 0.585 0.0
C944 C 0.61331 1.01333 0.73065 0.0
C945 C 0.59376 1.00773 0.66526 0.0
C946 C 0.6391 1.01399 0.70121 0.0
C947 C 0.64591 1.00988 0.6026 0.0
C948 C 0.62612 1.00454 0.53614 0.0
C949 C 0.60062 1.0031 0.5683 0.0
C950 C 0.65866 0.01985 0.77688 0.0
C951 C 0.63173 1.00131 0.42959 0.0
H952 H 0.71336 0.05818 0.47463 0.0
H953 H 0.72446 0.97776 0.48977 0.0
H954 H 0.64842 0.05856 0.5178 0.0
H955 H 0.66301 0.06311 0.63334 0.0
H956 H 0.67642 0.07797 0.52673 0.0
H957 H 0.69651 0.95136 0.58093 0.0
H958 H 0.67372 0.96601 0.66073 0.0
H959 H 0.66512 0.95891 0.53858 0.0
H960 H 0.60853 0.01704 0.8057 0.0
H961 H 0.58586 0.99907 0.51624 0.0
H962 H 0.67809 1.01427 0.7551 0.0
H963 H 0.65388 1.01012 0.84645 0.0
H964 H 0.65836 0.04052 0.79057 0.0
H965 H 0.64106 0.01866 0.40041 0.0
H966 H 0.61437 0.99769 0.38662 0.0
H967 H 0.64504 0.98532 0.41916 0.0
C968 C 0.4877 0.70255 0.51078 0.0
C969 C 0.50924 0.71587 0.47789 0.0
C970 C 0.48953 0.67855 0.55663 0.0
C971 C 0.51359 0.66728 0.57187 0.0
C972 C 0.53554 0.68152 0.54598 0.0
C973 C 0.53312 0.70548 0.49891 0.0
C974 C 0.46548 0.66443 0.58173 0.0
C975 C 0.56163 0.67077 0.5626 0.0
C976 C 0.51535 0.60752 0.73627 0.0
C977 C 0.51591 0.58778 0.66858 0.0
C978 C 0.5155 0.63333 0.70634 0.0
C979 C 0.51547 0.63987 0.60606 0.0
C980 C 0.51591 0.61996 0.53761 0.0
C981 C 0.51642 0.59439 0.56946 0.0
C982 C 0.51561 0.65365 0.78223 0.0
C983 C 0.51534 0.62565 0.43007 0.0
H984 H 0.46912 0.71022 0.49446 0.0
H985 H 0.5499 0.71526 0.47281 0.0
H986 H 0.46308 0.64842 0.53107 0.0
H987 H 0.46649 0.65629 0.65613 0.0
H988 H 0.4485 0.67678 0.57656 0.0
H989 H 0.57661 0.68536 0.55276 0.0
H990 H 0.56313 0.66252 0.63677 0.0
H991 H 0.56518 0.65528 0.51053 0.0
H992 H 0.51508 0.6028 0.81299 0.0
H993 H 0.5167 0.57947 0.5161 0.0
H994 H 0.49799 0.66498 0.77687 0.0
H995 H 0.53168 0.66682 0.76935 0.0
H996 H 0.51712 0.64565 0.85685 0.0
H997 H 0.49786 0.63633 0.41165 0.0
H998 H 0.51592 0.60818 0.38592 0.0
H999 H 0.53167 0.63779 0.40941 0.0
C1000 C 0.81982 0.52098 0.4824 0.0
C1001 C 0.80776 0.49722 0.48612 0.0
C1002 C 0.84387 0.52484 0.5261 0.0
C1003 C 0.85663 0.5044 0.57352 0.0
C1004 C 0.84383 0.48085 0.58202 0.0
C1005 C 0.81967 0.47774 0.54009 0.0
C1006 C 0.85617 0.55054 0.51745 0.0
C1007 C 0.85636 0.45825 0.62992 0.0
C1008 C 0.92965 0.50355 0.57557 0.0
C1009 C 0.93555 0.50858 0.67287 0.0
C1010 C 0.9043 0.50222 0.54283 0.0
C1011 C 0.8839 0.50686 0.6077 0.0
C1012 C 0.88977 0.5125 0.70575 0.0
C1013 C 0.91534 0.51283 0.73736 0.0
C1014 C 0.89936 0.49504 0.43895 0.0
C1015 C 0.86901 0.51823 0.77755 0.0
H1016 H 0.81117 0.5362 0.44073 0.0
H1017 H 0.8106 0.45933 0.54486 0.0
H1018 H 0.86383 0.5564 0.58864 0.0
H1019 H 0.8723 0.54961 0.46593 0.0
H1020 H 0.84272 0.56526 0.49106 0.0
H1021 H 0.84348 0.44165 0.63565 0.0
H1022 H 0.87329 0.4527 0.58724 0.0
H1023 H 0.86295 0.4631 0.70368 0.0
H1024 H 0.94495 0.49996 0.52499 0.0
H1025 H 0.91954 0.51689 0.81251 0.0
H1026 H 0.88766 0.50975 0.40246 0.0
H1027 H 0.88851 0.47704 0.43748 0.0
H1028 H 0.91712 0.49252 0.3968 0.0
H1029 H 0.8563 0.53314 0.74777 0.0
H1030 H 0.87659 0.52465 0.84821 0.0
H1031 H 0.85732 0.50106 0.79055 0.0
loop_
_geom_bond_atom_site_label_1
_geom_bond_atom_site_label_2
_geom_bond_distance
_geom_bond_site_symmetry_2
_ccdc_geom_bond_type
H0 C7 0.929 . S
H1 C10 0.930 . S
H2 C12 0.929 . S
H3 C4 0.969 . S
C4 H3 0.969 . S
C4 O5 1.550 . S
C4 H6 0.973 . S
O5 C4 1.550 . S
O5 C11 1.412 . S
H6 C4 0.973 . S
C7 H0 0.929 . S
C7 C8 1.400 . S
C7 C9 1.364 . S
C8 C7 1.400 . S
C8 C12 1.377 . S
C9 C7 1.364 . S
C9 C10 1.374 . S
C10 H1 0.930 . S
C10 C9 1.374 . S
C10 C11 1.383 . S
C11 O5 1.412 . S
C11 C10 1.383 . S
C11 C12 1.394 . S
C12 H2 0.929 . S
C12 C8 1.377 . S
C12 C11 1.394 . S
H13 C20 0.928 1_655 S
H14 C23 0.930 . S
H15 C25 0.928 1_655 S
H16 C17 0.969 . S
C17 H16 0.969 . S
C17 O18 1.550 1_455 S
C17 H19 0.973 1_455 S
O18 C17 1.550 1_655 S
O18 C24 1.405 1_655 S
H19 C17 0.973 1_655 S
C20 H13 0.928 1_455 S
C20 C21 1.399 . S
C20 C22 1.364 . S
C21 C20 1.399 . S
C21 C25 1.377 . S
C22 C20 1.364 . S
C22 C23 1.374 1_455 S
C23 H14 0.930 . S
C23 C22 1.374 1_655 S
C23 C24 1.382 1_655 S
C24 O18 1.405 1_455 S
C24 C23 1.382 1_455 S
C24 C25 1.394 . S
C25 H15 0.928 1_455 S
C25 C21 1.377 . S
C25 C24 1.394 . S
H26 C33 0.928 1_565 S
H27 C36 0.929 . S
H28 C38 0.929 1_565 S
H29 C30 0.969 . S
C30 H29 0.969 . S
C30 O31 1.550 1_545 S
C30 H32 0.973 1_545 S
O31 C30 1.550 1_565 S
O31 C37 1.405 1_565 S
H32 C30 0.973 1_565 S
C33 H26 0.928 1_545 S
C33 C34 1.399 . S
C33 C35 1.364 . S
C34 C33 1.399 . S
C34 C38 1.377 . S
C35 C33 1.364 . S
C35 C36 1.374 1_545 S
C36 H27 0.929 . S
C36 C35 1.374 1_565 S
C36 C37 1.382 1_565 S
C37 O31 1.405 1_545 S
C37 C36 1.382 1_545 S
C37 C38 1.394 . S
C38 H28 0.929 1_545 S
C38 C34 1.377 . S
C38 C37 1.394 . S
H39 C46 0.929 . S
H40 C49 0.930 . S
H41 C51 0.929 . S
H42 C43 0.969 . S
C43 H42 0.969 . S
C43 O44 1.550 . S
C43 H45 0.973 . S
O44 C43 1.550 . S
O44 C50 1.412 . S
H45 C43 0.973 . S
C46 H39 0.929 . S
C46 C47 1.400 . S
C46 C48 1.364 . S
C47 C46 1.400 . S
C47 C51 1.377 . S
C48 C46 1.364 . S
C48 C49 1.374 . S
C49 H40 0.930 . S
C49 C48 1.374 . S
C49 C50 1.383 . S
C50 O44 1.412 . S
C50 C49 1.383 . S
C50 C51 1.394 . S
C51 H41 0.929 . S
C51 C47 1.377 . S
C51 C50 1.394 . S
H52 C59 0.929 . S
H53 C62 0.930 . S
H54 C64 0.929 . S
H55 C56 0.969 . S
C56 H55 0.969 . S
C56 O57 1.550 . S
C56 H58 0.973 . S
O57 C56 1.550 . S
O57 C63 1.412 . S
H58 C56 0.973 . S
C59 H52 0.929 . S
C59 C60 1.400 1_554 S
C59 C61 1.364 . S
C60 C59 1.400 1_556 S
C60 C64 1.377 . S
C61 C59 1.364 . S
C61 C62 1.374 . S
C62 H53 0.930 . S
C62 C61 1.374 . S
C62 C63 1.383 . S
C63 O57 1.412 . S
C63 C62 1.383 . S
C63 C64 1.394 1_554 S
C64 H54 0.929 . S
C64 C60 1.377 . S
C64 C63 1.394 1_556 S
H65 C72 0.928 1_655 S
H66 C75 0.930 . S
H67 C77 0.928 1_655 S
H68 C69 0.969 . S
C69 H68 0.969 . S
C69 O70 1.550 1_455 S
C69 H71 0.973 1_455 S
O70 C69 1.550 1_655 S
O70 C76 1.402 1_655 S
H71 C69 0.973 1_655 S
C72 H65 0.928 1_455 S
C72 C73 1.400 1_554 S
C72 C74 1.364 . S
C73 C72 1.400 1_556 S
C73 C77 1.377 . S
C74 C72 1.364 . S
C74 C75 1.374 1_455 S
C75 H66 0.930 . S
C75 C74 1.374 1_655 S
C75 C76 1.382 1_655 S
C76 O70 1.402 1_455 S
C76 C75 1.382 1_455 S
C76 C77 1.394 1_554 S
C77 H67 0.928 1_455 S
C77 C73 1.377 . S
C77 C76 1.394 1_556 S
H78 C85 0.928 1_565 S
H79 C88 0.930 . S
H80 C90 0.928 1_565 S
H81 C82 0.969 . S
C82 H81 0.969 . S
C82 O83 1.550 1_545 S
C82 H84 0.973 1_545 S
O83 C82 1.550 1_565 S
O83 C89 1.402 1_565 S
H84 C82 0.973 1_565 S
C85 H78 0.928 1_545 S
C85 C86 1.400 1_554 S
C85 C87 1.364 . S
C86 C85 1.400 1_556 S
C86 C90 1.377 . S
C87 C85 1.364 . S
C87 C88 1.374 1_545 S
C88 H79 0.930 . S
C88 C87 1.374 1_565 S
C88 C89 1.382 1_565 S
C89 O83 1.402 1_545 S
C89 C88 1.382 1_545 S
C89 C90 1.394 1_554 S
C90 H80 0.928 1_545 S
C90 C86 1.377 . S
C90 C89 1.394 1_556 S
H91 C98 0.929 . S
H92 C101 0.930 . S
H93 C103 0.929 . S
H94 C95 0.969 . S
C95 H94 0.969 . S
C95 O96 1.550 . S
C95 H97 0.973 . S
O96 C95 1.550 . S
O96 C102 1.412 . S
H97 C95 0.973 . S
C98 H91 0.929 . S
C98 C99 1.400 1_554 S
C98 C100 1.364 . S
C99 C98 1.400 1_556 S
C99 C103 1.377 . S
C100 C98 1.364 . S
C100 C101 1.374 . S
C101 H92 0.930 . S
C101 C100 1.374 . S
C101 C102 1.383 . S
C102 O96 1.412 . S
C102 C101 1.383 . S
C102 C103 1.394 1_554 S
C103 H93 0.929 . S
C103 C99 1.377 . S
C103 C102 1.394 1_556 S
Tb104 C106 2.809 . S
Tb104 O124 2.484 . S
Tb104 O125 2.440 . S
Tb104 O126 2.658 1_565 S
Tb104 O127 2.409 . S
Tb104 O128 2.378 . S
Tb104 O132 2.325 1_455 S
Tb104 O135 2.341 1_565 S
Tb105 C115 2.809 . S
Tb105 O126 2.325 1_655 S
Tb105 O129 2.341 1_545 S
Tb105 O130 2.484 . S
Tb105 O131 2.440 . S
Tb105 O132 2.658 1_545 S
Tb105 O133 2.409 . S
Tb105 O134 2.378 . S
C106 Tb104 2.809 . S
C106 C107 1.517 . S
C106 O124 1.248 . S
C106 O125 1.266 . S
C107 C106 1.517 . S
C107 C108 1.356 1_556 S
C107 C112 1.348 1_556 S
C108 C107 1.356 1_554 S
C108 C109 1.380 . S
C108 H136 0.929 1_455 S
C109 C108 1.380 . S
C109 C110 1.347 . S
C109 H137 0.931 1_455 S
C110 C109 1.347 . S
C110 C111 1.369 . S
C111 C110 1.369 . S
C111 C112 1.408 . S
C111 H138 0.930 . S
C112 C107 1.348 1_554 S
C112 C111 1.408 . S
C112 H139 0.930 1_554 S
C113 O126 1.281 1_565 S
C113 O127 1.254 . S
C114 O128 1.236 1_655 S
C114 O129 1.266 . S
C115 Tb105 2.809 . S
C115 C116 1.514 . S
C115 O130 1.248 . S
C115 O131 1.266 . S
C116 C115 1.514 . S
C116 C117 1.359 . S
C116 C121 1.348 . S
C117 C116 1.359 . S
C117 C118 1.380 . S
C117 H140 0.929 1_655 S
C118 C117 1.380 . S
C118 C119 1.347 . S
C118 H141 0.931 1_655 S
C119 C118 1.347 . S
C119 C120 1.369 . S
C120 C119 1.369 . S
C120 C121 1.408 . S
C120 H142 0.930 . S
C121 C116 1.348 . S
C121 C120 1.408 . S
C121 H143 0.930 . S
C122 O132 1.281 1_545 S
C122 O133 1.254 . S
C123 O134 1.236 1_455 S
C123 O135 1.266 . S
O124 Tb104 2.484 . S
O124 C106 1.248 . S
O125 Tb104 2.440 . S
O125 C106 1.266 . S
O126 Tb104 2.658 1_545 S
O126 Tb105 2.325 1_455 S
O126 C113 1.281 1_545 S
O127 Tb104 2.409 . S
O127 C113 1.254 . S
O128 Tb104 2.378 . S
O128 C114 1.236 1_455 S
O129 Tb105 2.341 1_565 S
O129 C114 1.266 . S
O130 Tb105 2.484 . S
O130 C115 1.248 . S
O131 Tb105 2.440 . S
O131 C115 1.266 . S
O132 Tb104 2.325 1_655 S
O132 Tb105 2.658 1_565 S
O132 C122 1.281 1_565 S
O133 Tb105 2.409 . S
O133 C122 1.254 . S
O134 Tb105 2.378 . S
O134 C123 1.236 1_655 S
O135 Tb104 2.341 1_545 S
O135 C123 1.266 . S
H136 C108 0.929 1_655 S
H137 C109 0.931 1_655 S
H138 C111 0.930 . S
H139 C112 0.930 1_556 S
H140 C117 0.929 1_455 S
H141 C118 0.931 1_455 S
H142 C120 0.930 . S
H143 C121 0.930 . S
Tb144 C146 2.809 . S
Tb144 O164 2.503 . S
Tb144 O165 2.440 . S
Tb144 O166 2.658 . S
Tb144 O167 2.409 . S
Tb144 O168 2.378 . S
Tb144 O172 2.325 1_545 S
Tb144 O175 2.341 . S
Tb145 C155 2.809 . S
Tb145 O166 2.325 1_565 S
Tb145 O169 2.341 . S
Tb145 O170 2.498 . S
Tb145 O171 2.440 . S
Tb145 O172 2.658 . S
Tb145 O173 2.409 . S
Tb145 O174 2.378 . S
C146 Tb144 2.809 . S
C146 C147 1.512 1_556 S
C146 O164 1.290 . S
C146 O165 1.266 . S
C147 C146 1.512 1_554 S
C147 C148 1.360 . S
C147 C152 1.348 . S
C148 C147 1.360 . S
C148 C149 1.380 . S
C148 H176 0.929 1_545 S
C149 C148 1.380 . S
C149 C150 1.347 . S
C149 H177 0.931 1_545 S
C150 C149 1.347 . S
C150 C151 1.369 . S
C151 C150 1.369 . S
C151 C152 1.408 . S
C151 H178 0.930 . S
C152 C147 1.348 . S
C152 C151 1.408 . S
C152 H179 0.930 1_554 S
C153 O166 1.281 . S
C153 O167 1.254 . S
C154 O168 1.236 1_565 S
C154 O169 1.266 . S
C155 Tb145 2.809 . S
C155 C156 1.514 . S
C155 O170 1.280 . S
C155 O171 1.266 . S
C156 C155 1.514 . S
C156 C157 1.359 . S
C156 C161 1.348 . S
C157 C156 1.359 . S
C157 C158 1.380 . S
C157 H180 0.929 1_565 S
C158 C157 1.380 . S
C158 C159 1.347 . S
C158 H181 0.931 1_565 S
C159 C158 1.347 . S
C159 C160 1.369 . S
C160 C159 1.369 . S
C160 C161 1.408 . S
C160 H182 0.930 . S
C161 C156 1.348 . S
C161 C160 1.408 . S
C161 H183 0.930 . S
C162 O172 1.281 . S
C162 O173 1.254 . S
C163 O174 1.236 1_545 S
C163 O175 1.266 . S
O164 Tb144 2.503 . S
O164 C146 1.290 . S
O165 Tb144 2.440 . S
O165 C146 1.266 . S
O166 Tb144 2.658 . S
O166 Tb145 2.325 1_545 S
O166 C153 1.281 . S
O167 Tb144 2.409 . S
O167 C153 1.254 . S
O168 Tb144 2.378 . S
O168 C154 1.236 1_545 S
O169 Tb145 2.341 . S
O169 C154 1.266 . S
O170 Tb145 2.498 . S
O170 C155 1.280 . S
O171 Tb145 2.440 . S
O171 C155 1.266 . S
O172 Tb144 2.325 1_565 S
O172 Tb145 2.658 . S
O172 C162 1.281 . S
O173 Tb145 2.409 . S
O173 C162 1.254 . S
O174 Tb145 2.378 . S
O174 C163 1.236 1_565 S
O175 Tb144 2.341 . S
O175 C163 1.266 . S
H176 C148 0.929 1_565 S
H177 C149 0.931 1_565 S
H178 C151 0.930 . S
H179 C152 0.930 1_556 S
H180 C157 0.929 1_545 S
H181 C158 0.931 1_545 S
H182 C160 0.930 . S
H183 C161 0.930 . S
Tb184 C186 2.809 . S
Tb184 O204 2.484 . S
Tb184 O205 2.440 . S
Tb184 O206 2.658 . S
Tb184 O207 2.409 . S
Tb184 O208 2.378 . S
Tb184 O212 2.325 . S
Tb184 O215 2.341 . S
Tb185 C195 2.809 . S
Tb185 O206 2.325 . S
Tb185 O209 2.341 . S
Tb185 O210 2.484 . S
Tb185 O211 2.440 . S
Tb185 O212 2.658 . S
Tb185 O213 2.409 . S
Tb185 O214 2.378 . S
C186 Tb184 2.809 . S
C186 C187 1.514 1_556 S
C186 O204 1.248 . S
C186 O205 1.266 . S
C187 C186 1.514 1_554 S
C187 C188 1.359 . S
C187 C192 1.348 . S
C188 C187 1.359 . S
C188 C189 1.380 . S
C188 H216 0.929 . S
C189 C188 1.380 . S
C189 C190 1.347 . S
C189 H217 0.931 . S
C190 C189 1.347 . S
C190 C191 1.369 . S
C191 C190 1.369 . S
C191 C192 1.408 . S
C191 H218 0.930 . S
C192 C187 1.348 . S
C192 C191 1.408 . S
C192 H219 0.930 1_554 S
C193 O206 1.281 . S
C193 O207 1.254 . S
C194 O208 1.236 . S
C194 O209 1.266 . S
C195 Tb185 2.809 . S
C195 C196 1.514 . S
C195 O210 1.248 . S
C195 O211 1.266 . S
C196 C195 1.514 . S
C196 C197 1.359 . S
C196 C201 1.348 . S
C197 C196 1.359 . S
C197 C198 1.380 . S
C197 H220 0.929 . S
C198 C197 1.380 . S
C198 C199 1.347 . S
C198 H221 0.931 . S
C199 C198 1.347 . S
C199 C200 1.369 . S
C200 C199 1.369 . S
C200 C201 1.408 . S
C200 H222 0.930 . S
C201 C196 1.348 . S
C201 C200 1.408 . S
C201 H223 0.930 . S
C202 O212 1.281 . S
C202 O213 1.254 . S
C203 O214 1.236 . S
C203 O215 1.266 . S
O204 Tb184 2.484 . S
O204 C186 1.248 . S
O205 Tb184 2.440 . S
O205 C186 1.266 . S
O206 Tb184 2.658 . S
O206 Tb185 2.325 . S
O206 C193 1.281 . S
O207 Tb184 2.409 . S
O207 C193 1.254 . S
O208 Tb184 2.378 . S
O208 C194 1.236 . S
O209 Tb185 2.341 . S
O209 C194 1.266 . S
O210 Tb185 2.484 . S
O210 C195 1.248 . S
O211 Tb185 2.440 . S
O211 C195 1.266 . S
O212 Tb184 2.325 . S
O212 Tb185 2.658 . S
O212 C202 1.281 . S
O213 Tb185 2.409 . S
O213 C202 1.254 . S
O214 Tb185 2.378 . S
O214 C203 1.236 . S
O215 Tb184 2.341 . S
O215 C203 1.266 . S
H216 C188 0.929 . S
H217 C189 0.931 . S
H218 C191 0.930 . S
H219 C192 0.930 1_556 S
H220 C197 0.929 . S
H221 C198 0.931 . S
H222 C200 0.930 . S
H223 C201 0.930 . S
Tb224 C226 2.809 . S
Tb224 O244 2.484 . S
Tb224 O245 2.440 . S
Tb224 O246 2.658 1_655 S
Tb224 O247 2.409 . S
Tb224 O248 2.378 . S
Tb224 O252 2.325 . S
Tb224 O255 2.341 1_655 S
Tb225 C235 2.809 . S
Tb225 O246 2.325 . S
Tb225 O249 2.341 1_455 S
Tb225 O250 2.484 . S
Tb225 O251 2.440 . S
Tb225 O252 2.658 1_455 S
Tb225 O253 2.409 . S
Tb225 O254 2.378 . S
C226 Tb224 2.809 . S
C226 C227 1.514 1_556 S
C226 O244 1.248 . S
C226 O245 1.266 . S
C227 C226 1.514 1_554 S
C227 C228 1.359 . S
C227 C232 1.348 . S
C228 C227 1.359 . S
C228 C229 1.380 . S
C228 H256 0.929 . S
C229 C228 1.380 . S
C229 C230 1.347 . S
C229 H257 0.931 . S
C230 C229 1.347 . S
C230 C231 1.369 . S
C231 C230 1.369 . S
C231 C232 1.408 . S
C231 H258 0.930 . S
C232 C227 1.348 . S
C232 C231 1.408 . S
C232 H259 0.930 1_554 S
C233 O246 1.273 1_655 S
C233 O247 1.264 . S
C234 O248 1.236 . S
C234 O249 1.266 . S
C235 Tb225 2.809 . S
C235 C236 1.514 . S
C235 O250 1.248 . S
C235 O251 1.266 . S
C236 C235 1.514 . S
C236 C237 1.359 . S
C236 C241 1.348 . S
C237 C236 1.359 . S
C237 C238 1.380 . S
C237 H260 0.929 . S
C238 C237 1.380 . S
C238 C239 1.347 . S
C238 H261 0.931 . S
C239 C238 1.347 . S
C239 C240 1.369 . S
C240 C239 1.369 . S
C240 C241 1.408 . S
C240 H262 0.930 . S
C241 C236 1.348 . S
C241 C240 1.408 . S
C241 H263 0.930 . S
C242 O252 1.270 1_455 S
C242 O253 1.269 . S
C243 O254 1.236 . S
C243 O255 1.266 . S
O244 Tb224 2.484 . S
O244 C226 1.248 . S
O245 Tb224 2.440 . S
O245 C226 1.266 . S
O246 Tb224 2.658 1_455 S
O246 Tb225 2.325 . S
O246 C233 1.273 1_455 S
O247 Tb224 2.409 . S
O247 C233 1.264 . S
O248 Tb224 2.378 . S
O248 C234 1.236 . S
O249 Tb225 2.341 1_655 S
O249 C234 1.266 . S
O250 Tb225 2.484 . S
O250 C235 1.248 . S
O251 Tb225 2.440 . S
O251 C235 1.266 . S
O252 Tb224 2.325 . S
O252 Tb225 2.658 1_655 S
O252 C242 1.270 1_655 S
O253 Tb225 2.409 . S
O253 C242 1.269 . S
O254 Tb225 2.378 . S
O254 C243 1.236 . S
O255 Tb224 2.341 1_455 S
O255 C243 1.266 . S
H256 C228 0.929 . S
H257 C229 0.931 . S
H258 C231 0.930 . S
H259 C232 0.930 1_556 S
H260 C237 0.929 . S
H261 C238 0.931 . S
H262 C240 0.930 . S
H263 C241 0.930 . S
C264 C265 1.391 . S
C264 C266 1.394 . S
C264 H280 0.931 . S
C265 C264 1.391 . S
C265 C269 1.376 1_545 S
C266 C264 1.394 . S
C266 C267 1.369 . S
C266 C270 1.531 . S
C267 C266 1.369 . S
C267 C268 1.410 1_545 S
C267 C275 1.503 . S
C268 C267 1.410 1_565 S
C268 C269 1.392 . S
C268 C271 1.511 . S
C269 C265 1.376 1_565 S
C269 C268 1.392 . S
C269 H281 0.929 . S
C270 C266 1.531 . S
C270 H282 0.960 . S
C270 H283 0.962 . S
C270 H284 0.960 . S
C271 C268 1.511 . S
C271 H285 0.961 . S
C271 H286 0.961 . S
C271 H287 0.961 . S
C272 C273 1.343 1_565 S
C272 C274 1.363 . S
C272 H288 0.931 . S
C273 C272 1.343 1_545 S
C273 C277 1.439 . S
C274 C272 1.363 . S
C274 C275 1.370 1_565 S
C274 C278 1.524 . S
C275 C267 1.503 . S
C275 C274 1.370 1_545 S
C275 C276 1.403 . S
C276 C275 1.403 . S
C276 C277 1.404 . S
C276 C279 1.539 . S
C277 C273 1.439 . S
C277 C276 1.404 . S
C277 H289 0.930 . S
C278 C274 1.524 . S
C278 H290 0.956 . S
C278 H291 0.961 . S
C278 H292 0.961 . S
C279 C276 1.539 . S
C279 H293 0.958 . S
C279 H294 0.961 . S
C279 H295 0.960 . S
H280 C264 0.931 . S
H281 C269 0.929 . S
H282 C270 0.960 . S
H283 C270 0.962 . S
H284 C270 0.960 . S
H285 C271 0.961 . S
H286 C271 0.961 . S
H287 C271 0.961 . S
H288 C272 0.931 . S
H289 C277 0.930 . S
H290 C278 0.956 . S
H291 C278 0.961 . S
H292 C278 0.961 . S
H293 C279 0.958 . S
H294 C279 0.961 . S
H295 C279 0.960 . S
C296 C297 1.391 . S
C296 C298 1.394 . S
C296 H312 0.931 . S
C297 C296 1.391 . S
C297 C301 1.376 . S
C298 C296 1.394 . S
C298 C299 1.369 . S
C298 C302 1.531 . S
C299 C298 1.369 . S
C299 C300 1.410 . S
C299 C307 1.503 . S
C300 C299 1.410 . S
C300 C301 1.392 . S
C300 C303 1.511 . S
C301 C297 1.376 . S
C301 C300 1.392 . S
C301 H313 0.929 . S
C302 C298 1.531 . S
C302 H314 0.960 . S
C302 H315 0.962 . S
C302 H316 0.960 . S
C303 C300 1.511 . S
C303 H317 0.961 . S
C303 H318 0.961 . S
C303 H319 0.961 . S
C304 C305 1.370 . S
C304 C306 1.363 . S
C304 H320 0.931 . S
C305 C304 1.370 . S
C305 C309 1.408 . S
C306 C304 1.363 . S
C306 C307 1.370 . S
C306 C310 1.524 . S
C307 C299 1.503 . S
C307 C306 1.370 . S
C307 C308 1.403 . S
C308 C307 1.403 . S
C308 C309 1.404 . S
C308 C311 1.539 . S
C309 C305 1.408 . S
C309 C308 1.404 . S
C309 H321 0.930 . S
C310 C306 1.524 . S
C310 H322 0.956 . S
C310 H323 0.961 . S
C310 H324 0.961 . S
C311 C308 1.539 . S
C311 H325 0.958 . S
C311 H326 0.961 . S
C311 H327 0.960 . S
H312 C296 0.931 . S
H313 C301 0.929 . S
H314 C302 0.960 . S
H315 C302 0.962 . S
H316 C302 0.960 . S
H317 C303 0.961 . S
H318 C303 0.961 . S
H319 C303 0.961 . S
H320 C304 0.931 . S
H321 C309 0.930 . S
H322 C310 0.956 . S
H323 C310 0.961 . S
H324 C310 0.961 . S
H325 C311 0.958 . S
H326 C311 0.961 . S
H327 C311 0.960 . S
C328 C329 1.391 . S
C328 C330 1.394 . S
C328 H344 0.931 . S
C329 C328 1.391 . S
C329 C333 1.376 . S
C330 C328 1.394 . S
C330 C331 1.369 . S
C330 C334 1.531 . S
C331 C330 1.369 . S
C331 C332 1.410 . S
C331 C339 1.503 . S
C332 C331 1.410 . S
C332 C333 1.392 . S
C332 C335 1.511 . S
C333 C329 1.376 . S
C333 C332 1.392 . S
C333 H345 0.929 . S
C334 C330 1.531 . S
C334 H346 0.960 . S
C334 H347 0.962 . S
C334 H348 0.960 . S
C335 C332 1.511 . S
C335 H349 0.961 . S
C335 H350 0.961 . S
C335 H351 0.961 . S
C336 C337 1.370 . S
C336 C338 1.363 . S
C336 H352 0.931 . S
C337 C336 1.370 . S
C337 C341 1.408 . S
C338 C336 1.363 . S
C338 C339 1.370 . S
C338 C342 1.524 . S
C339 C331 1.503 . S
C339 C338 1.370 . S
C339 C340 1.403 . S
C340 C339 1.403 . S
C340 C341 1.404 . S
C340 C343 1.539 . S
C341 C337 1.408 . S
C341 C340 1.404 . S
C341 H353 0.930 . S
C342 C338 1.524 . S
C342 H354 0.956 . S
C342 H355 0.961 . S
C342 H356 0.961 . S
C343 C340 1.539 . S
C343 H357 0.958 . S
C343 H358 0.961 . S
C343 H359 0.960 . S
H344 C328 0.931 . S
H345 C333 0.929 . S
H346 C334 0.960 . S
H347 C334 0.962 . S
H348 C334 0.960 . S
H349 C335 0.961 . S
H350 C335 0.961 . S
H351 C335 0.961 . S
H352 C336 0.931 . S
H353 C341 0.930 . S
H354 C342 0.956 . S
H355 C342 0.961 . S
H356 C342 0.961 . S
H357 C343 0.958 . S
H358 C343 0.961 . S
H359 C343 0.960 . S
C360 C361 1.431 . S
C360 C362 1.394 . S
C360 H376 0.931 . S
C361 C360 1.431 . S
C361 C365 1.339 1_455 S
C362 C360 1.394 . S
C362 C363 1.369 . S
C362 C366 1.531 . S
C363 C362 1.369 . S
C363 C364 1.410 1_455 S
C363 C371 1.503 . S
C364 C363 1.410 1_655 S
C364 C365 1.392 . S
C364 C367 1.511 . S
C365 C361 1.339 1_655 S
C365 C364 1.392 . S
C365 H377 0.929 . S
C366 C362 1.531 . S
C366 H378 0.960 . S
C366 H379 0.962 . S
C366 H380 0.960 . S
C367 C364 1.511 . S
C367 H381 0.961 . S
C367 H382 0.961 . S
C367 H383 0.961 . S
C368 C369 1.370 1_655 S
C368 C370 1.363 . S
C368 H384 0.931 . S
C369 C368 1.370 1_455 S
C369 C373 1.408 . S
C370 C368 1.363 . S
C370 C371 1.370 1_655 S
C370 C374 1.524 . S
C371 C363 1.503 . S
C371 C370 1.370 1_455 S
C371 C372 1.403 . S
C372 C371 1.403 . S
C372 C373 1.404 . S
C372 C375 1.539 . S
C373 C369 1.408 . S
C373 C372 1.404 . S
C373 H385 0.930 . S
C374 C370 1.524 . S
C374 H386 0.987 . S
C374 H387 0.961 . S
C374 H388 0.961 . S
C375 C372 1.539 . S
C375 H389 0.958 . S
C375 H390 0.961 . S
C375 H391 0.960 . S
H376 C360 0.931 . S
H377 C365 0.929 . S
H378 C366 0.960 . S
H379 C366 0.962 . S
H380 C366 0.960 . S
H381 C367 0.961 . S
H382 C367 0.961 . S
H383 C367 0.961 . S
H384 C368 0.931 . S
H385 C373 0.930 . S
H386 C374 0.987 . S
H387 C374 0.961 . S
H388 C374 0.961 . S
H389 C375 0.958 . S
H390 C375 0.961 . S
H391 C375 0.960 . S
C392 C393 1.391 1_545 S
C392 C394 1.394 . S
C392 H408 0.931 . S
C393 C392 1.391 1_565 S
C393 C397 1.376 . S
C394 C392 1.394 . S
C394 C395 1.369 1_545 S
C394 C398 1.531 . S
C395 C394 1.369 1_565 S
C395 C396 1.410 . S
C395 C403 1.503 . S
C396 C395 1.410 . S
C396 C397 1.392 . S
C396 C399 1.511 . S
C397 C393 1.376 . S
C397 C396 1.392 . S
C397 H409 0.929 . S
C398 C394 1.531 . S
C398 H410 0.960 . S
C398 H411 0.962 . S
C398 H412 0.960 . S
C399 C396 1.511 . S
C399 H413 0.961 . S
C399 H414 0.961 . S
C399 H415 0.961 . S
C400 C401 1.350 1_545 S
C400 C402 1.363 1_556 S
C400 H416 0.931 . S
C401 C400 1.350 1_565 S
C401 C405 1.430 1_556 S
C402 C400 1.363 1_554 S
C402 C403 1.370 1_545 S
C402 C406 1.524 . S
C403 C395 1.503 . S
C403 C402 1.370 1_565 S
C403 C404 1.403 . S
C404 C403 1.403 . S
C404 C405 1.404 . S
C404 C407 1.539 . S
C405 C401 1.430 1_554 S
C405 C404 1.404 . S
C405 H417 0.930 . S
C406 C402 1.524 . S
C406 H418 0.956 . S
C406 H419 0.961 . S
C406 H420 0.961 1_554 S
C407 C404 1.539 . S
C407 H421 0.958 . S
C407 H422 0.961 . S
C407 H423 0.960 . S
H408 C392 0.931 . S
H409 C397 0.929 . S
H410 C398 0.960 . S
H411 C398 0.962 . S
H412 C398 0.960 . S
H413 C399 0.961 . S
H414 C399 0.961 . S
H415 C399 0.961 . S
H416 C400 0.931 . S
H417 C405 0.930 . S
H418 C406 0.956 . S
H419 C406 0.961 . S
H420 C406 0.961 1_556 S
H421 C407 0.958 . S
H422 C407 0.961 . S
H423 C407 0.960 . S
C424 C425 1.391 . S
C424 C426 1.394 . S
C424 H440 0.931 . S
C425 C424 1.391 . S
C425 C429 1.376 . S
C426 C424 1.394 . S
C426 C427 1.369 . S
C426 C430 1.531 . S
C427 C426 1.369 . S
C427 C428 1.410 . S
C427 C435 1.503 . S
C428 C427 1.410 . S
C428 C429 1.392 . S
C428 C431 1.511 . S
C429 C425 1.376 . S
C429 C428 1.392 . S
C429 H441 0.929 . S
C430 C426 1.531 . S
C430 H442 0.960 . S
C430 H443 0.962 . S
C430 H444 0.960 . S
C431 C428 1.511 . S
C431 H445 0.961 . S
C431 H446 0.961 . S
C431 H447 0.961 . S
C432 C433 1.370 1_554 S
C432 C434 1.363 . S
C432 H448 0.931 . S
C433 C432 1.370 1_556 S
C433 C437 1.408 . S
C434 C432 1.363 . S
C434 C435 1.370 . S
C434 C438 1.524 . S
C435 C427 1.503 . S
C435 C434 1.370 . S
C435 C436 1.403 1_554 S
C436 C435 1.403 1_556 S
C436 C437 1.404 . S
C436 C439 1.539 . S
C437 C433 1.408 . S
C437 C436 1.404 . S
C437 H449 0.930 . S
C438 C434 1.524 . S
C438 H450 0.956 . S
C438 H451 0.961 . S
C438 H452 0.961 . S
C439 C436 1.539 . S
C439 H453 0.958 . S
C439 H454 0.961 . S
C439 H455 0.960 1_556 S
H440 C424 0.931 . S
H441 C429 0.929 . S
H442 C430 0.960 . S
H443 C430 0.962 . S
H444 C430 0.960 . S
H445 C431 0.961 . S
H446 C431 0.961 . S
H447 C431 0.961 . S
H448 C432 0.931 . S
H449 C437 0.930 . S
H450 C438 0.956 . S
H451 C438 0.961 . S
H452 C438 0.961 . S
H453 C439 0.958 . S
H454 C439 0.961 . S
H455 C439 0.960 1_554 S
C456 C457 1.391 . S
C456 C458 1.394 . S
C456 H472 0.931 . S
C457 C456 1.391 . S
C457 C461 1.376 . S
C458 C456 1.394 . S
C458 C459 1.369 . S
C458 C462 1.531 . S
C459 C458 1.369 . S
C459 C460 1.410 . S
C459 C467 1.503 . S
C460 C459 1.410 . S
C460 C461 1.392 . S
C460 C463 1.511 . S
C461 C457 1.376 . S
C461 C460 1.392 . S
C461 H473 0.929 . S
C462 C458 1.531 . S
C462 H474 0.960 . S
C462 H475 0.962 . S
C462 H476 0.960 . S
C463 C460 1.511 . S
C463 H477 0.961 . S
C463 H478 0.961 . S
C463 H479 0.961 . S
C464 C465 1.370 . S
C464 C466 1.363 1_556 S
C464 H480 0.931 . S
C465 C464 1.370 . S
C465 C469 1.408 . S
C466 C464 1.363 1_554 S
C466 C467 1.370 . S
C466 C470 1.524 . S
C467 C459 1.503 . S
C467 C466 1.370 . S
C467 C468 1.403 . S
C468 C467 1.403 . S
C468 C469 1.404 1_554 S
C468 C471 1.539 . S
C469 C465 1.408 . S
C469 C468 1.404 1_556 S
C469 H481 0.930 . S
C470 C466 1.524 . S
C470 H482 0.956 . S
C470 H483 0.961 . S
C470 H484 0.961 . S
C471 C468 1.539 . S
C471 H485 0.958 . S
C471 H486 0.961 . S
C471 H487 0.960 . S
H472 C456 0.931 . S
H473 C461 0.929 . S
H474 C462 0.960 . S
H475 C462 0.962 . S
H476 C462 0.960 . S
H477 C463 0.961 . S
H478 C463 0.961 . S
H479 C463 0.961 . S
H480 C464 0.931 . S
H481 C469 0.930 . S
H482 C470 0.956 . S
H483 C470 0.961 . S
H484 C470 0.961 . S
H485 C471 0.958 . S
H486 C471 0.961 . S
H487 C471 0.960 . S
C488 C489 1.391 . S
C488 C490 1.394 . S
C488 H504 0.931 . S
C489 C488 1.391 . S
C489 C493 1.376 1_655 S
C490 C488 1.394 . S
C490 C491 1.369 . S
C490 C494 1.531 . S
C491 C490 1.369 . S
C491 C492 1.410 1_655 S
C491 C499 1.503 . S
C492 C491 1.410 1_455 S
C492 C493 1.392 . S
C492 C495 1.511 . S
C493 C489 1.376 1_455 S
C493 C492 1.392 . S
C493 H505 0.929 . S
C494 C490 1.531 . S
C494 H506 0.960 . S
C494 H507 0.962 . S
C494 H508 0.960 . S
C495 C492 1.511 . S
C495 H509 0.961 . S
C495 H510 0.961 . S
C495 H511 0.961 . S
C496 C497 1.370 1_454 S
C496 C498 1.363 . S
C496 H512 0.931 . S
C497 C496 1.370 1_656 S
C497 C501 1.408 . S
C498 C496 1.363 . S
C498 C499 1.370 1_455 S
C498 C502 1.524 . S
C499 C491 1.503 . S
C499 C498 1.370 1_655 S
C499 C500 1.403 1_554 S
C500 C499 1.403 1_556 S
C500 C501 1.404 . S
C500 C503 1.539 . S
C501 C497 1.408 . S
C501 C500 1.404 . S
C501 H513 0.930 . S
C502 C498 1.524 . S
C502 H514 0.956 . S
C502 H515 0.961 . S
C502 H516 0.961 . S
C503 C500 1.539 . S
C503 H517 0.958 1_556 S
C503 H518 0.961 . S
C503 H519 0.960 1_556 S
H504 C488 0.931 . S
H505 C493 0.929 . S
H506 C494 0.960 . S
H507 C494 0.962 . S
H508 C494 0.960 . S
H509 C495 0.961 . S
H510 C495 0.961 . S
H511 C495 0.961 . S
H512 C496 0.931 . S
H513 C501 0.930 . S
H514 C502 0.956 . S
H515 C502 0.961 . S
H516 C502 0.961 . S
H517 C503 0.958 1_554 S
H518 C503 0.961 . S
H519 C503 0.960 1_554 S
C520 C521 1.391 1_655 S
C520 C522 1.394 . S
C520 H536 0.931 . S
C521 C520 1.391 1_455 S
C521 C525 1.376 . S
C522 C520 1.394 . S
C522 C523 1.369 . S
C522 C526 1.531 . S
C523 C522 1.369 . S
C523 C524 1.410 1_655 S
C523 C531 1.503 . S
C524 C523 1.410 1_455 S
C524 C525 1.392 . S
C524 C527 1.511 . S
C525 C521 1.376 . S
C525 C524 1.392 . S
C525 H537 0.929 . S
C526 C522 1.531 . S
C526 H538 0.960 . S
C526 H539 0.962 . S
C526 H540 0.960 . S
C527 C524 1.511 . S
C527 H541 0.961 . S
C527 H542 0.961 . S
C527 H543 0.961 . S
C528 C529 1.370 . S
C528 C530 1.363 . S
C528 H544 0.931 . S
C529 C528 1.370 . S
C529 C533 1.408 . S
C530 C528 1.363 . S
C530 C531 1.370 . S
C530 C534 1.524 . S
C531 C523 1.503 . S
C531 C530 1.370 . S
C531 C532 1.403 . S
C532 C531 1.403 . S
C532 C533 1.404 . S
C532 C535 1.539 1_655 S
C533 C529 1.408 . S
C533 C532 1.404 . S
C533 H545 0.930 . S
C534 C530 1.524 . S
C534 H546 0.956 . S
C534 H547 0.961 . S
C534 H548 0.961 . S
C535 C532 1.539 1_455 S
C535 H549 0.958 . S
C535 H550 0.961 . S
C535 H551 0.960 . S
H536 C520 0.931 . S
H537 C525 0.929 . S
H538 C526 0.960 . S
H539 C526 0.962 . S
H540 C526 0.960 . S
H541 C527 0.961 . S
H542 C527 0.961 . S
H543 C527 0.961 . S
H544 C528 0.931 . S
H545 C533 0.930 . S
H546 C534 0.956 . S
H547 C534 0.961 . S
H548 C534 0.961 . S
H549 C535 0.958 . S
H550 C535 0.961 . S
H551 C535 0.960 . S
C552 C553 1.391 1_565 S
C552 C554 1.394 . S
C552 H568 0.931 . S
C553 C552 1.391 1_545 S
C553 C557 1.376 . S
C554 C552 1.394 . S
C554 C555 1.369 . S
C554 C558 1.531 . S
C555 C554 1.369 . S
C555 C556 1.410 1_565 S
C555 C563 1.503 . S
C556 C555 1.410 1_545 S
C556 C557 1.392 . S
C556 C559 1.511 . S
C557 C553 1.376 . S
C557 C556 1.392 . S
C557 H569 0.929 . S
C558 C554 1.531 . S
C558 H570 0.960 . S
C558 H571 0.962 . S
C558 H572 0.960 . S
C559 C556 1.511 . S
C559 H573 0.961 . S
C559 H574 0.961 . S
C559 H575 0.961 . S
C560 C561 1.370 . S
C560 C562 1.363 . S
C560 H576 0.931 . S
C561 C560 1.370 . S
C561 C565 1.408 . S
C562 C560 1.363 . S
C562 C563 1.370 . S
C562 C566 1.524 . S
C563 C555 1.503 . S
C563 C562 1.370 . S
C563 C564 1.403 . S
C564 C563 1.403 . S
C564 C565 1.404 . S
C564 C567 1.539 . S
C565 C561 1.408 . S
C565 C564 1.404 . S
C565 H577 0.930 . S
C566 C562 1.524 . S
C566 H578 0.956 . S
C566 H579 1.000 . S
C566 H580 0.961 . S
C567 C564 1.539 . S
C567 H581 0.958 . S
C567 H582 0.961 . S
C567 H583 0.960 . S
H568 C552 0.931 . S
H569 C557 0.929 . S
H570 C558 0.960 . S
H571 C558 0.962 . S
H572 C558 0.960 . S
H573 C559 0.961 . S
H574 C559 0.961 . S
H575 C559 0.961 . S
H576 C560 0.931 . S
H577 C565 0.930 . S
H578 C566 0.956 . S
H579 C566 1.000 . S
H580 C566 0.961 . S
H581 C567 0.958 . S
H582 C567 0.961 . S
H583 C567 0.960 . S
C584 C585 1.391 . S
C584 C586 1.394 . S
C584 H600 0.931 . S
C585 C584 1.391 . S
C585 C589 1.376 . S
C586 C584 1.394 . S
C586 C587 1.369 . S
C586 C590 1.531 . S
C587 C586 1.369 . S
C587 C588 1.410 . S
C587 C595 1.503 . S
C588 C587 1.410 . S
C588 C589 1.392 . S
C588 C591 1.511 . S
C589 C585 1.376 . S
C589 C588 1.392 . S
C589 H601 0.929 . S
C590 C586 1.531 . S
C590 H602 0.960 . S
C590 H603 0.962 . S
C590 H604 0.960 . S
C591 C588 1.511 . S
C591 H605 0.961 . S
C591 H606 0.961 . S
C591 H607 0.961 . S
C592 C593 1.370 . S
C592 C594 1.363 . S
C592 H608 0.931 . S
C593 C592 1.370 . S
C593 C597 1.408 . S
C594 C592 1.363 . S
C594 C595 1.370 . S
C594 C598 1.524 . S
C595 C587 1.503 . S
C595 C594 1.370 . S
C595 C596 1.403 . S
C596 C595 1.403 . S
C596 C597 1.404 . S
C596 C599 1.539 . S
C597 C593 1.408 . S
C597 C596 1.404 . S
C597 H609 0.930 . S
C598 C594 1.524 . S
C598 H610 0.956 . S
C598 H611 0.961 . S
C598 H612 0.961 . S
C599 C596 1.539 . S
C599 H613 0.958 . S
C599 H614 0.961 . S
C599 H615 0.960 . S
H600 C584 0.931 . S
H601 C589 0.929 . S
H602 C590 0.960 . S
H603 C590 0.962 . S
H604 C590 0.960 . S
H605 C591 0.961 . S
H606 C591 0.961 . S
H607 C591 0.961 . S
H608 C592 0.931 . S
H609 C597 0.930 . S
H610 C598 0.956 . S
H611 C598 0.961 . S
H612 C598 0.961 . S
H613 C599 0.958 . S
H614 C599 0.961 . S
H615 C599 0.960 . S
C616 C617 1.391 . S
C616 C618 1.394 . S
C616 H632 0.931 . S
C617 C616 1.391 . S
C617 C621 1.376 . S
C618 C616 1.394 . S
C618 C619 1.369 . S
C618 C622 1.531 . S
C619 C618 1.369 . S
C619 C620 1.410 . S
C619 C627 1.503 . S
C620 C619 1.410 . S
C620 C621 1.392 . S
C620 C623 1.511 . S
C621 C617 1.376 . S
C621 C620 1.392 . S
C621 H633 0.929 . S
C622 C618 1.531 . S
C622 H634 0.960 . S
C622 H635 0.962 . S
C622 H636 0.960 . S
C623 C620 1.511 . S
C623 H637 0.961 . S
C623 H638 0.961 . S
C623 H639 0.961 . S
C624 C625 1.370 . S
C624 C626 1.363 . S
C624 H640 0.931 . S
C625 C624 1.370 . S
C625 C629 1.408 . S
C626 C624 1.363 . S
C626 C627 1.370 . S
C626 C630 1.524 . S
C627 C619 1.503 . S
C627 C626 1.370 . S
C627 C628 1.403 . S
C628 C627 1.403 . S
C628 C629 1.404 . S
C628 C631 1.539 . S
C629 C625 1.408 . S
C629 C628 1.404 . S
C629 H641 0.930 . S
C630 C626 1.524 . S
C630 H642 0.956 . S
C630 H643 0.961 . S
C630 H644 0.961 . S
C631 C628 1.539 . S
C631 H645 0.958 . S
C631 H646 0.961 . S
C631 H647 0.960 . S
H632 C616 0.931 . S
H633 C621 0.929 . S
H634 C622 0.960 . S
H635 C622 0.962 . S
H636 C622 0.960 . S
H637 C623 0.961 . S
H638 C623 0.961 . S
H639 C623 0.961 . S
H640 C624 0.931 . S
H641 C629 0.930 . S
H642 C630 0.956 . S
H643 C630 0.961 . S
H644 C630 0.961 . S
H645 C631 0.958 . S
H646 C631 0.961 . S
H647 C631 0.960 . S
C648 C649 1.395 . S
C648 C650 1.394 . S
C648 H664 0.931 . S
C649 C648 1.395 . S
C649 C653 1.375 1_455 S
C650 C648 1.394 . S
C650 C651 1.369 . S
C650 C654 1.531 . S
C651 C650 1.369 . S
C651 C652 1.410 . S
C651 C659 1.503 . S
C652 C651 1.410 . S
C652 C653 1.392 1_455 S
C652 C655 1.507 1_455 S
C653 C649 1.375 1_655 S
C653 C652 1.392 1_655 S
C653 H665 0.929 . S
C654 C650 1.531 . S
C654 H666 0.960 . S
C654 H667 0.962 . S
C654 H668 0.960 . S
C655 C652 1.507 1_655 S
C655 H669 0.980 . S
C655 H670 0.964 . S
C655 H671 0.943 1_655 S
C656 C657 1.370 . S
C656 C658 1.363 . S
C656 H672 0.946 . S
C657 C656 1.370 . S
C657 C661 1.408 . S
C658 C656 1.363 . S
C658 C659 1.370 . S
C658 C662 1.524 1_455 S
C659 C651 1.503 . S
C659 C658 1.370 . S
C659 C660 1.403 . S
C660 C659 1.403 . S
C660 C661 1.404 . S
C660 C663 1.539 . S
C661 C657 1.408 . S
C661 C660 1.404 . S
C661 H673 0.930 . S
C662 C658 1.524 1_655 S
C662 H674 0.956 . S
C662 H675 0.961 . S
C662 H676 0.961 . S
C663 C660 1.539 . S
C663 H677 0.958 . S
C663 H678 0.961 . S
C663 H679 0.960 . S
H664 C648 0.931 . S
H665 C653 0.929 . S
H666 C654 0.960 . S
H667 C654 0.962 . S
H668 C654 0.960 . S
H669 C655 0.980 . S
H670 C655 0.964 . S
H671 C655 0.943 1_455 S
H672 C656 0.946 . S
H673 C661 0.930 . S
H674 C662 0.956 . S
H675 C662 0.961 . S
H676 C662 0.961 . S
H677 C663 0.958 . S
H678 C663 0.961 . S
H679 C663 0.960 . S
C680 C681 1.403 . S
C680 C682 1.394 . S
C680 H696 0.931 . S
C681 C680 1.403 . S
C681 C685 1.378 . S
C682 C680 1.394 . S
C682 C683 1.369 . S
C682 C686 1.531 . S
C683 C682 1.369 . S
C683 C684 1.410 . S
C683 C691 1.503 . S
C684 C683 1.410 . S
C684 C685 1.392 . S
C684 C687 1.511 . S
C685 C681 1.378 . S
C685 C684 1.392 . S
C685 H697 0.929 1_545 S
C686 C682 1.531 . S
C686 H698 0.960 . S
C686 H699 0.962 . S
C686 H700 0.960 . S
C687 C684 1.511 . S
C687 H701 0.941 1_545 S
C687 H702 0.961 . S
C687 H703 0.961 . S
C688 C689 1.370 . S
C688 C690 1.363 . S
C688 H704 0.931 1_545 S
C689 C688 1.370 . S
C689 C693 1.408 . S
C690 C688 1.363 . S
C690 C691 1.370 . S
C690 C694 1.524 1_545 S
C691 C683 1.503 . S
C691 C690 1.370 . S
C691 C692 1.403 . S
C692 C691 1.403 . S
C692 C693 1.404 . S
C692 C695 1.539 . S
C693 C689 1.408 . S
C693 C692 1.404 . S
C693 H705 0.930 . S
C694 C690 1.524 1_565 S
C694 H706 0.956 . S
C694 H707 0.961 . S
C694 H708 0.961 . S
C695 C692 1.539 . S
C695 H709 0.958 . S
C695 H710 0.961 . S
C695 H711 0.960 . S
H696 C680 0.931 . S
H697 C685 0.929 1_565 S
H698 C686 0.960 . S
H699 C686 0.962 . S
H700 C686 0.960 . S
H701 C687 0.941 1_565 S
H702 C687 0.961 . S
H703 C687 0.961 . S
H704 C688 0.931 1_565 S
H705 C693 0.930 . S
H706 C694 0.956 . S
H707 C694 0.961 . S
H708 C694 0.961 . S
H709 C695 0.958 . S
H710 C695 0.961 . S
H711 C695 0.960 . S
C712 C713 1.391 . S
C712 C714 1.394 . S
C712 H728 0.931 . S
C713 C712 1.391 . S
C713 C717 1.376 . S
C714 C712 1.394 . S
C714 C715 1.369 . S
C714 C718 1.531 . S
C715 C714 1.369 . S
C715 C716 1.410 . S
C715 C723 1.503 . S
C716 C715 1.410 . S
C716 C717 1.392 . S
C716 C719 1.511 . S
C717 C713 1.376 . S
C717 C716 1.392 . S
C717 H729 0.929 . S
C718 C714 1.531 . S
C718 H730 0.960 . S
C718 H731 0.962 . S
C718 H732 0.960 . S
C719 C716 1.511 . S
C719 H733 0.961 . S
C719 H734 0.961 . S
C719 H735 0.961 . S
C720 C721 1.370 . S
C720 C722 1.363 . S
C720 H736 0.931 . S
C721 C720 1.370 . S
C721 C725 1.408 . S
C722 C720 1.363 . S
C722 C723 1.370 . S
C722 C726 1.524 . S
C723 C715 1.503 . S
C723 C722 1.370 . S
C723 C724 1.403 . S
C724 C723 1.403 . S
C724 C725 1.404 . S
C724 C727 1.539 . S
C725 C721 1.408 . S
C725 C724 1.404 . S
C725 H737 0.930 1_554 S
C726 C722 1.524 . S
C726 H738 0.956 . S
C726 H739 0.961 . S
C726 H740 0.961 . S
C727 C724 1.539 . S
C727 H741 0.958 . S
C727 H742 0.961 1_554 S
C727 H743 0.960 . S
H728 C712 0.931 . S
H729 C717 0.929 . S
H730 C718 0.960 . S
H731 C718 0.962 . S
H732 C718 0.960 . S
H733 C719 0.961 . S
H734 C719 0.961 . S
H735 C719 0.961 . S
H736 C720 0.931 . S
H737 C725 0.930 1_556 S
H738 C726 0.956 . S
H739 C726 0.961 . S
H740 C726 0.961 . S
H741 C727 0.958 . S
H742 C727 0.961 1_556 S
H743 C727 0.960 . S
C744 C745 1.391 . S
C744 C746 1.394 . S
C744 H760 0.931 . S
C745 C744 1.391 . S
C745 C749 1.376 . S
C746 C744 1.394 . S
C746 C747 1.369 . S
C746 C750 1.531 . S
C747 C746 1.369 . S
C747 C748 1.410 . S
C747 C755 1.503 . S
C748 C747 1.410 . S
C748 C749 1.392 . S
C748 C751 1.511 . S
C749 C745 1.376 . S
C749 C748 1.392 . S
C749 H761 0.929 . S
C750 C746 1.531 . S
C750 H762 0.960 . S
C750 H763 0.962 . S
C750 H764 0.960 . S
C751 C748 1.511 . S
C751 H765 0.961 . S
C751 H766 0.961 . S
C751 H767 0.961 . S
C752 C753 1.370 . S
C752 C754 1.363 . S
C752 H768 0.931 . S
C753 C752 1.370 . S
C753 C757 1.408 . S
C754 C752 1.363 . S
C754 C755 1.370 . S
C754 C758 1.524 . S
C755 C747 1.503 . S
C755 C754 1.370 . S
C755 C756 1.403 . S
C756 C755 1.403 . S
C756 C757 1.404 . S
C756 C759 1.539 . S
C757 C753 1.408 . S
C757 C756 1.404 . S
C757 H769 0.930 . S
C758 C754 1.524 . S
C758 H770 0.956 . S
C758 H771 0.961 . S
C758 H772 0.961 . S
C759 C756 1.539 . S
C759 H773 0.958 . S
C759 H774 0.961 . S
C759 H775 0.960 . S
H760 C744 0.931 . S
H761 C749 0.929 . S
H762 C750 0.960 . S
H763 C750 0.962 . S
H764 C750 0.960 . S
H765 C751 0.961 . S
H766 C751 0.961 . S
H767 C751 0.961 . S
H768 C752 0.931 . S
H769 C757 0.930 . S
H770 C758 0.956 . S
H771 C758 0.961 . S
H772 C758 0.961 . S
H773 C759 0.958 . S
H774 C759 0.961 . S
H775 C759 0.960 . S
C776 C777 1.388 1_455 S
C776 C778 1.394 . S
C776 H792 0.931 1_556 S
C777 C776 1.388 1_655 S
C777 C781 1.380 . S
C778 C776 1.394 . S
C778 C779 1.369 1_455 S
C778 C782 1.531 1_556 S
C779 C778 1.369 1_655 S
C779 C780 1.410 . S
C779 C787 1.503 1_655 S
C780 C779 1.410 . S
C780 C781 1.392 . S
C780 C783 1.511 . S
C781 C777 1.380 . S
C781 C780 1.392 . S
C781 H793 0.929 . S
C782 C778 1.531 1_554 S
C782 H794 0.960 1_455 S
C782 H795 0.962 . S
C782 H796 0.960 . S
C783 C780 1.511 . S
C783 H797 0.961 . S
C783 H798 0.961 . S
C783 H799 0.961 . S
C784 C785 1.370 . S
C784 C786 1.363 . S
C784 H800 0.931 . S
C785 C784 1.370 . S
C785 C789 1.408 1_455 S
C786 C784 1.363 . S
C786 C787 1.370 . S
C786 C790 1.524 . S
C787 C779 1.503 1_455 S
C787 C786 1.370 . S
C787 C788 1.403 1_455 S
C788 C787 1.403 1_655 S
C788 C789 1.404 . S
C788 C791 1.539 . S
C789 C785 1.408 1_655 S
C789 C788 1.404 . S
C789 H801 0.930 . S
C790 C786 1.524 . S
C790 H802 0.956 . S
C790 H803 0.961 . S
C790 H804 0.961 . S
C791 C788 1.539 . S
C791 H805 0.958 . S
C791 H806 0.961 . S
C791 H807 0.960 . S
H792 C776 0.931 1_554 S
H793 C781 0.929 . S
H794 C782 0.960 1_655 S
H795 C782 0.962 . S
H796 C782 0.960 . S
H797 C783 0.961 . S
H798 C783 0.961 . S
H799 C783 0.961 . S
H800 C784 0.931 . S
H801 C789 0.930 . S
H802 C790 0.956 . S
H803 C790 0.961 . S
H804 C790 0.961 . S
H805 C791 0.958 . S
H806 C791 0.961 . S
H807 C791 0.960 . S
C808 C809 1.394 . S
C808 C810 1.394 . S
C808 H824 0.931 1_556 S
C809 C808 1.394 . S
C809 C813 1.373 1_565 S
C810 C808 1.394 . S
C810 C811 1.382 . S
C810 C814 1.531 1_556 S
C811 C810 1.382 . S
C811 C812 1.398 1_565 S
C811 C819 1.499 1_565 S
C812 C811 1.398 1_545 S
C812 C813 1.392 . S
C812 C815 1.511 . S
C813 C809 1.373 1_545 S
C813 C812 1.392 . S
C813 H825 0.929 . S
C814 C810 1.531 1_554 S
C814 H826 0.960 1_554 S
C814 H827 0.962 . S
C814 H828 0.960 . S
C815 C812 1.511 . S
C815 H829 0.961 . S
C815 H830 0.961 . S
C815 H831 0.961 . S
C816 C817 1.370 . S
C816 C818 1.363 . S
C816 H832 0.931 . S
C817 C816 1.370 . S
C817 C821 1.408 1_545 S
C818 C816 1.363 . S
C818 C819 1.370 . S
C818 C822 1.524 . S
C819 C811 1.499 1_545 S
C819 C818 1.370 . S
C819 C820 1.403 1_545 S
C820 C819 1.403 1_565 S
C820 C821 1.404 . S
C820 C823 1.539 . S
C821 C817 1.408 1_565 S
C821 C820 1.404 . S
C821 H833 0.930 . S
C822 C818 1.524 . S
C822 H834 0.956 . S
C822 H835 0.961 . S
C822 H836 0.961 . S
C823 C820 1.539 . S
C823 H837 0.958 . S
C823 H838 0.961 . S
C823 H839 0.960 . S
H824 C808 0.931 1_554 S
H825 C813 0.929 . S
H826 C814 0.960 1_556 S
H827 C814 0.962 . S
H828 C814 0.960 . S
H829 C815 0.961 . S
H830 C815 0.961 . S
H831 C815 0.961 . S
H832 C816 0.931 . S
H833 C821 0.930 . S
H834 C822 0.956 . S
H835 C822 0.961 . S
H836 C822 0.961 . S
H837 C823 0.958 . S
H838 C823 0.961 . S
H839 C823 0.960 . S
C840 C841 1.391 . S
C840 C842 1.394 . S
C840 H856 0.931 . S
C841 C840 1.391 . S
C841 C845 1.376 . S
C842 C840 1.394 . S
C842 C843 1.369 . S
C842 C846 1.531 . S
C843 C842 1.369 . S
C843 C844 1.410 . S
C843 C851 1.503 . S
C844 C843 1.410 . S
C844 C845 1.392 . S
C844 C847 1.511 . S
C845 C841 1.376 . S
C845 C844 1.392 . S
C845 H857 0.929 . S
C846 C842 1.531 . S
C846 H858 0.960 . S
C846 H859 0.962 . S
C846 H860 0.960 . S
C847 C844 1.511 . S
C847 H861 0.961 . S
C847 H862 0.961 . S
C847 H863 0.961 . S
C848 C849 1.370 . S
C848 C850 1.363 . S
C848 H864 0.931 . S
C849 C848 1.370 . S
C849 C853 1.408 . S
C850 C848 1.363 . S
C850 C851 1.370 . S
C850 C854 1.524 1_556 S
C851 C843 1.503 . S
C851 C850 1.370 . S
C851 C852 1.403 . S
C852 C851 1.403 . S
C852 C853 1.404 . S
C852 C855 1.539 . S
C853 C849 1.408 . S
C853 C852 1.404 . S
C853 H865 0.930 . S
C854 C850 1.524 1_554 S
C854 H866 0.956 1_554 S
C854 H867 0.961 . S
C854 H868 0.961 . S
C855 C852 1.539 . S
C855 H869 0.958 . S
C855 H870 0.961 . S
C855 H871 0.960 . S
H856 C840 0.931 . S
H857 C845 0.929 . S
H858 C846 0.960 . S
H859 C846 0.962 . S
H860 C846 0.960 . S
H861 C847 0.961 . S
H862 C847 0.961 . S
H863 C847 0.961 . S
H864 C848 0.931 . S
H865 C853 0.930 . S
H866 C854 0.956 1_556 S
H867 C854 0.961 . S
H868 C854 0.961 . S
H869 C855 0.958 . S
H870 C855 0.961 . S
H871 C855 0.960 . S
C872 C873 1.391 . S
C872 C874 1.394 . S
C872 H888 0.931 . S
C873 C872 1.391 . S
C873 C877 1.376 . S
C874 C872 1.394 . S
C874 C875 1.369 . S
C874 C878 1.531 . S
C875 C874 1.369 . S
C875 C876 1.410 . S
C875 C883 1.503 . S
C876 C875 1.410 . S
C876 C877 1.392 . S
C876 C879 1.511 1_556 S
C877 C873 1.376 . S
C877 C876 1.392 . S
C877 H889 0.929 . S
C878 C874 1.531 . S
C878 H890 0.960 . S
C878 H891 0.962 . S
C878 H892 0.960 . S
C879 C876 1.511 1_554 S
C879 H893 0.961 . S
C879 H894 0.961 . S
C879 H895 0.961 1_554 S
C880 C881 1.370 . S
C880 C882 1.363 . S
C880 H896 0.931 . S
C881 C880 1.370 . S
C881 C885 1.408 . S
C882 C880 1.363 . S
C882 C883 1.370 . S
C882 C886 1.524 . S
C883 C875 1.503 . S
C883 C882 1.370 . S
C883 C884 1.403 . S
C884 C883 1.403 . S
C884 C885 1.404 . S
C884 C887 1.539 . S
C885 C881 1.408 . S
C885 C884 1.404 . S
C885 H897 0.930 . S
C886 C882 1.524 . S
C886 H898 0.956 . S
C886 H899 0.961 . S
C886 H900 0.961 . S
C887 C884 1.539 . S
C887 H901 0.958 . S
C887 H902 0.961 . S
C887 H903 0.960 . S
H888 C872 0.931 . S
H889 C877 0.929 . S
H890 C878 0.960 . S
H891 C878 0.962 . S
H892 C878 0.960 . S
H893 C879 0.961 . S
H894 C879 0.961 . S
H895 C879 0.961 1_556 S
H896 C880 0.931 . S
H897 C885 0.930 . S
H898 C886 0.956 . S
H899 C886 0.961 . S
H900 C886 0.961 . S
H901 C887 0.958 . S
H902 C887 0.961 . S
H903 C887 0.960 . S
C904 C905 1.387 1_655 S
C904 C906 1.394 . S
C904 H920 0.931 . S
C905 C904 1.387 1_455 S
C905 C909 1.381 . S
C906 C904 1.394 . S
C906 C907 1.357 1_655 S
C906 C910 1.531 . S
C907 C906 1.357 1_455 S
C907 C908 1.423 . S
C907 C915 1.500 1_455 S
C908 C907 1.423 . S
C908 C909 1.392 . S
C908 C911 1.511 . S
C909 C905 1.381 . S
C909 C908 1.392 . S
C909 H921 0.929 . S
C910 C906 1.531 . S
C910 H922 0.960 . S
C910 H923 0.962 . S
C910 H924 0.960 . S
C911 C908 1.511 . S
C911 H925 0.961 . S
C911 H926 0.961 . S
C911 H927 0.961 . S
C912 C913 1.370 . S
C912 C914 1.363 . S
C912 H928 0.931 . S
C913 C912 1.370 . S
C913 C917 1.408 1_655 S
C914 C912 1.363 . S
C914 C915 1.370 . S
C914 C918 1.524 . S
C915 C907 1.500 1_655 S
C915 C914 1.370 . S
C915 C916 1.403 1_655 S
C916 C915 1.403 1_455 S
C916 C917 1.404 . S
C916 C919 1.539 . S
C917 C913 1.408 1_455 S
C917 C916 1.404 . S
C917 H929 0.930 . S
C918 C914 1.524 . S
C918 H930 0.956 . S
C918 H931 0.961 . S
C918 H932 0.961 . S
C919 C916 1.539 . S
C919 H933 0.958 . S
C919 H934 0.961 . S
C919 H935 0.960 . S
H920 C904 0.931 . S
H921 C909 0.929 . S
H922 C910 0.960 . S
H923 C910 0.962 . S
H924 C910 0.960 . S
H925 C911 0.961 . S
H926 C911 0.961 . S
H927 C911 0.961 . S
H928 C912 0.931 . S
H929 C917 0.930 . S
H930 C918 0.956 . S
H931 C918 0.961 . S
H932 C918 0.961 . S
H933 C919 0.958 . S
H934 C919 0.961 . S
H935 C919 0.960 . S
C936 C937 1.391 . S
C936 C938 1.394 . S
C936 H952 0.931 . S
C937 C936 1.391 . S
C937 C941 1.376 . S
C938 C936 1.394 . S
C938 C939 1.369 . S
C938 C942 1.531 . S
C939 C938 1.369 . S
C939 C940 1.410 . S
C939 C947 1.503 . S
C940 C939 1.410 . S
C940 C941 1.392 . S
C940 C943 1.511 . S
C941 C937 1.376 . S
C941 C940 1.392 . S
C941 H953 0.929 . S
C942 C938 1.531 . S
C942 H954 0.960 . S
C942 H955 0.962 1_565 S
C942 H956 0.960 . S
C943 C940 1.511 . S
C943 H957 0.961 . S
C943 H958 0.961 . S
C943 H959 0.961 . S
C944 C945 1.370 1_545 S
C944 C946 1.363 . S
C944 H960 0.931 . S
C945 C944 1.370 1_565 S
C945 C949 1.408 . S
C946 C944 1.363 . S
C946 C947 1.370 1_545 S
C946 C950 1.524 . S
C947 C939 1.503 . S
C947 C946 1.370 1_565 S
C947 C948 1.403 . S
C948 C947 1.403 . S
C948 C949 1.404 . S
C948 C951 1.539 . S
C949 C945 1.408 . S
C949 C948 1.404 . S
C949 H961 0.930 . S
C950 C946 1.524 . S
C950 H962 0.956 . S
C950 H963 0.961 . S
C950 H964 0.961 . S
C951 C948 1.539 . S
C951 H965 0.958 . S
C951 H966 0.961 . S
C951 H967 0.960 . S
H952 C936 0.931 . S
H953 C941 0.929 . S
H954 C942 0.960 . S
H955 C942 0.962 1_545 S
H956 C942 0.960 . S
H957 C943 0.961 . S
H958 C943 0.961 . S
H959 C943 0.961 . S
H960 C944 0.931 . S
H961 C949 0.930 . S
H962 C950 0.956 . S
H963 C950 0.961 . S
H964 C950 0.961 . S
H965 C951 0.958 . S
H966 C951 0.961 . S
H967 C951 0.960 . S
C968 C969 1.391 . S
C968 C970 1.394 . S
C968 H984 0.931 . S
C969 C968 1.391 . S
C969 C973 1.376 . S
C970 C968 1.394 . S
C970 C971 1.369 . S
C970 C974 1.531 . S
C971 C970 1.369 . S
C971 C972 1.410 . S
C971 C979 1.503 . S
C972 C971 1.410 . S
C972 C973 1.392 . S
C972 C975 1.511 . S
C973 C969 1.376 . S
C973 C972 1.392 . S
C973 H985 0.929 . S
C974 C970 1.531 . S
C974 H986 0.960 . S
C974 H987 0.962 . S
C974 H988 0.960 . S
C975 C972 1.511 . S
C975 H989 0.961 . S
C975 H990 0.961 . S
C975 H991 0.961 . S
C976 C977 1.370 . S
C976 C978 1.363 . S
C976 H992 0.931 . S
C977 C976 1.370 . S
C977 C981 1.408 . S
C978 C976 1.363 . S
C978 C979 1.370 . S
C978 C982 1.524 . S
C979 C971 1.503 . S
C979 C978 1.370 . S
C979 C980 1.403 . S
C980 C979 1.403 . S
C980 C981 1.404 . S
C980 C983 1.539 . S
C981 C977 1.408 . S
C981 C980 1.404 . S
C981 H993 0.930 . S
C982 C978 1.524 . S
C982 H994 0.956 . S
C982 H995 0.961 . S
C982 H996 0.961 . S
C983 C980 1.539 . S
C983 H997 0.958 . S
C983 H998 0.961 . S
C983 H999 0.960 . S
H984 C968 0.931 . S
H985 C973 0.929 . S
H986 C974 0.960 . S
H987 C974 0.962 . S
H988 C974 0.960 . S
H989 C975 0.961 . S
H990 C975 0.961 . S
H991 C975 0.961 . S
H992 C976 0.931 . S
H993 C981 0.930 . S
H994 C982 0.956 . S
H995 C982 0.961 . S
H996 C982 0.961 . S
H997 C983 0.958 . S
H998 C983 0.961 . S
H999 C983 0.960 . S
C1000 C1001 1.391 . S
C1000 C1002 1.394 . S
C1000 H1016 0.931 . S
C1001 C1000 1.391 . S
C1001 C1005 1.376 . S
C1002 C1000 1.394 . S
C1002 C1003 1.369 . S
C1002 C1006 1.531 . S
C1003 C1002 1.369 . S
C1003 C1004 1.410 . S
C1003 C1011 1.503 . S
C1004 C1003 1.410 . S
C1004 C1005 1.392 . S
C1004 C1007 1.511 . S
C1005 C1001 1.376 . S
C1005 C1004 1.392 . S
C1005 H1017 0.929 . S
C1006 C1002 1.531 . S
C1006 H1018 0.960 . S
C1006 H1019 0.962 . S
C1006 H1020 0.960 . S
C1007 C1004 1.511 . S
C1007 H1021 0.961 . S
C1007 H1022 0.961 . S
C1007 H1023 0.961 . S
C1008 C1009 1.370 . S
C1008 C1010 1.363 . S
C1008 H1024 0.931 . S
C1009 C1008 1.370 . S
C1009 C1013 1.408 . S
C1010 C1008 1.363 . S
C1010 C1011 1.370 . S
C1010 C1014 1.524 . S
C1011 C1003 1.503 . S
C1011 C1010 1.370 . S
C1011 C1012 1.403 . S
C1012 C1011 1.403 . S
C1012 C1013 1.404 . S
C1012 C1015 1.539 . S
C1013 C1009 1.408 . S
C1013 C1012 1.404 . S
C1013 H1025 0.930 . S
C1014 C1010 1.524 . S
C1014 H1026 0.956 . S
C1014 H1027 0.961 . S
C1014 H1028 0.961 . S
C1015 C1012 1.539 . S
C1015 H1029 0.958 . S
C1015 H1030 0.961 . S
C1015 H1031 0.960 . S
H1016 C1000 0.931 . S
H1017 C1005 0.929 . S
H1018 C1006 0.960 . S
H1019 C1006 0.962 . S
H1020 C1006 0.960 . S
H1021 C1007 0.961 . S
H1022 C1007 0.961 . S
H1023 C1007 0.961 . S
H1024 C1008 0.931 . S
H1025 C1013 0.930 . S
H1026 C1014 0.956 . S
H1027 C1014 0.961 . S
H1028 C1014 0.961 . S
H1029 C1015 0.958 . S
H1030 C1015 0.961 . S
H1031 C1015 0.960 . S
C265 C82 1.675 . S
C273 C113 1.941 1_545 S
C305 C153 1.959 . S
C297 C95 1.712 . S
C337 C193 1.964 . S
C329 C56 1.635 . S
C369 C233 1.954 1_455 S
C361 C69 1.714 . S
C401 C122 1.945 1_565 S
C393 C30 1.708 1_565 S
C425 C43 1.635 . S
C433 C162 1.957 . S
C457 C4 1.704 . S
C465 C202 1.966 . S
C489 C17 1.652 1_655 S
C497 C242 1.950 1_655 S
C529 C119 0.459 . S
C521 C74 0.484 . S
C561 C159 0.493 . S
C553 C87 0.445 . S
C593 C199 0.533 . S
C585 C100 0.511 . S
C617 C61 0.583 . S
C625 C239 0.476 . S
C649 C22 0.497 . S
C657 C110 0.510 . S
C689 C150 0.525 . S
C681 C35 0.489 . S
C721 C190 0.492 . S
C713 C48 0.599 . S
C745 C9 0.498 . S
C753 C230 0.522 . S
C777 C73 2.048 1_655 S
C785 C123 2.276 . S
C809 C86 2.032 1_565 S
C817 C163 2.243 . S
C849 C203 2.232 . S
C841 C99 2.031 . S
C881 C243 2.274 . S
C873 C60 2.046 . S
C905 C21 2.068 . S
C913 C114 2.288 . S
C945 C154 2.254 . S
C937 C34 2.015 1_565 S
C977 C194 2.231 . S
C969 C47 1.962 . S
C1001 C8 2.054 . S
C1009 C234 2.279 . S
