# Generated by pormake.
# Topology tbo, (3,4)-cn, num edge types: 1
# Building blocks:
#     Node 0, Type 0, BuildingBlock: WUSLED_clean_sbu_0, # of connection points: 3
#     Node 1, Type 0, BuildingBlock: WUSLED_clean_sbu_0, # of connection points: 3
#     Node 2, Type 0, BuildingBlock: WUSLED_clean_sbu_0, # of connection points: 3
#     Node 3, Type 0, BuildingBlock: WUSLED_clean_sbu_0, # of connection points: 3
#     Node 4, Type 0, BuildingBlock: WUSLED_clean_sbu_0, # of connection points: 3
#     Node 5, Type 0, BuildingBlock: WUSLED_clean_sbu_0, # of connection points: 3
#     Node 6, Type 0, BuildingBlock: WUSLED_clean_sbu_0, # of connection points: 3
#     Node 7, Type 0, BuildingBlock: WUSLED_clean_sbu_0, # of connection points: 3
#     Node 8, Type 0, BuildingBlock: WUSLED_clean_sbu_0, # of connection points: 3
#     Node 9, Type 0, BuildingBlock: WUSLED_clean_sbu_0, # of connection points: 3
#     Node 10, Type 0, BuildingBlock: WUSLED_clean_sbu_0, # of connection points: 3
#     Node 11, Type 0, BuildingBlock: WUSLED_clean_sbu_0, # of connection points: 3
#     Node 12, Type 0, BuildingBlock: WUSLED_clean_sbu_0, # of connection points: 3
#     Node 13, Type 0, BuildingBlock: WUSLED_clean_sbu_0, # of connection points: 3
#     Node 14, Type 0, BuildingBlock: WUSLED_clean_sbu_0, # of connection points: 3
#     Node 15, Type 0, BuildingBlock: WUSLED_clean_sbu_0, # of connection points: 3
#     Node 16, Type 0, BuildingBlock: WUSLED_clean_sbu_0, # of connection points: 3
#     Node 17, Type 0, BuildingBlock: WUSLED_clean_sbu_0, # of connection points: 3
#     Node 18, Type 0, BuildingBlock: WUSLED_clean_sbu_0, # of connection points: 3
#     Node 19, Type 0, BuildingBlock: WUSLED_clean_sbu_0, # of connection points: 3
#     Node 20, Type 0, BuildingBlock: WUSLED_clean_sbu_0, # of connection points: 3
#     Node 21, Type 0, BuildingBlock: WUSLED_clean_sbu_0, # of connection points: 3
#     Node 22, Type 0, BuildingBlock: WUSLED_clean_sbu_0, # of connection points: 3
#     Node 23, Type 0, BuildingBlock: WUSLED_clean_sbu_0, # of connection points: 3
#     Node 24, Type 0, BuildingBlock: WUSLED_clean_sbu_0, # of connection points: 3
#     Node 25, Type 0, BuildingBlock: WUSLED_clean_sbu_0, # of connection points: 3
#     Node 26, Type 0, BuildingBlock: WUSLED_clean_sbu_0, # of connection points: 3
#     Node 27, Type 0, BuildingBlock: WUSLED_clean_sbu_0, # of connection points: 3
#     Node 28, Type 0, BuildingBlock: WUSLED_clean_sbu_0, # of connection points: 3
#     Node 29, Type 0, BuildingBlock: WUSLED_clean_sbu_0, # of connection points: 3
#     Node 30, Type 0, BuildingBlock: WUSLED_clean_sbu_0, # of connection points: 3
#     Node 31, Type 0, BuildingBlock: WUSLED_clean_sbu_0, # of connection points: 3
#     Node 32, Type 1, BuildingBlock: KUFVIS_clean_linker_0, # of connection points: 4
#     Node 33, Type 1, BuildingBlock: KUFVIS_clean_linker_0, # of connection points: 4
#     Node 34, Type 1, BuildingBlock: KUFVIS_clean_linker_0, # of connection points: 4
#     Node 35, Type 1, BuildingBlock: KUFVIS_clean_linker_0, # of connection points: 4
#     Node 36, Type 1, BuildingBlock: KUFVIS_clean_linker_0, # of connection points: 4
#     Node 37, Type 1, BuildingBlock: KUFVIS_clean_linker_0, # of connection points: 4
#     Node 38, Type 1, BuildingBlock: KUFVIS_clean_linker_0, # of connection points: 4
#     Node 39, Type 1, BuildingBlock: KUFVIS_clean_linker_0, # of connection points: 4
#     Node 40, Type 1, BuildingBlock: KUFVIS_clean_linker_0, # of connection points: 4
#     Node 41, Type 1, BuildingBlock: KUFVIS_clean_linker_0, # of connection points: 4
#     Node 42, Type 1, BuildingBlock: KUFVIS_clean_linker_0, # of connection points: 4
#     Node 43, Type 1, BuildingBlock: KUFVIS_clean_linker_0, # of connection points: 4
#     Node 44, Type 1, BuildingBlock: KUFVIS_clean_linker_0, # of connection points: 4
#     Node 45, Type 1, BuildingBlock: KUFVIS_clean_linker_0, # of connection points: 4
#     Node 46, Type 1, BuildingBlock: KUFVIS_clean_linker_0, # of connection points: 4
#     Node 47, Type 1, BuildingBlock: KUFVIS_clean_linker_0, # of connection points: 4
#     Node 48, Type 1, BuildingBlock: KUFVIS_clean_linker_0, # of connection points: 4
#     Node 49, Type 1, BuildingBlock: KUFVIS_clean_linker_0, # of connection points: 4
#     Node 50, Type 1, BuildingBlock: KUFVIS_clean_linker_0, # of connection points: 4
#     Node 51, Type 1, BuildingBlock: KUFVIS_clean_linker_0, # of connection points: 4
#     Node 52, Type 1, BuildingBlock: KUFVIS_clean_linker_0, # of connection points: 4
#     Node 53, Type 1, BuildingBlock: KUFVIS_clean_linker_0, # of connection points: 4
#     Node 54, Type 1, BuildingBlock: KUFVIS_clean_linker_0, # of connection points: 4
#     Node 55, Type 1, BuildingBlock: KUFVIS_clean_linker_0, # of connection points: 4
#     Edge 56, Type (0, 1), BuildingBlock: KIFKEQ_clean_linker_1, # of connection points: 2
#     Edge 57, Type (0, 1), BuildingBlock: KIFKEQ_clean_linker_1, # of connection points: 2
#     Edge 58, Type (0, 1), BuildingBlock: KIFKEQ_clean_linker_1, # of connection points: 2
#     Edge 59, Type (0, 1), BuildingBlock: KIFKEQ_clean_linker_1, # of connection points: 2
#     Edge 60, Type (0, 1), BuildingBlock: KIFKEQ_clean_linker_1, # of connection points: 2
#     Edge 61, Type (0, 1), BuildingBlock: KIFKEQ_clean_linker_1, # of connection points: 2
#     Edge 62, Type (0, 1), BuildingBlock: KIFKEQ_clean_linker_1, # of connection points: 2
#     Edge 63, Type (0, 1), BuildingBlock: KIFKEQ_clean_linker_1, # of connection points: 2
#     Edge 64, Type (0, 1), BuildingBlock: KIFKEQ_clean_linker_1, # of connection points: 2
#     Edge 65, Type (0, 1), BuildingBlock: KIFKEQ_clean_linker_1, # of connection points: 2
#     Edge 66, Type (0, 1), BuildingBlock: KIFKEQ_clean_linker_1, # of connection points: 2
#     Edge 67, Type (0, 1), BuildingBlock: KIFKEQ_clean_linker_1, # of connection points: 2
#     Edge 68, Type (0, 1), BuildingBlock: KIFKEQ_clean_linker_1, # of connection points: 2
#     Edge 69, Type (0, 1), BuildingBlock: KIFKEQ_clean_linker_1, # of connection points: 2
#     Edge 70, Type (0, 1), BuildingBlock: KIFKEQ_clean_linker_1, # of connection points: 2
#     Edge 71, Type (0, 1), BuildingBlock: KIFKEQ_clean_linker_1, # of connection points: 2
#     Edge 72, Type (0, 1), BuildingBlock: KIFKEQ_clean_linker_1, # of connection points: 2
#     Edge 73, Type (0, 1), BuildingBlock: KIFKEQ_clean_linker_1, # of connection points: 2
#     Edge 74, Type (0, 1), BuildingBlock: KIFKEQ_clean_linker_1, # of connection points: 2
#     Edge 75, Type (0, 1), BuildingBlock: KIFKEQ_clean_linker_1, # of connection points: 2
#     Edge 76, Type (0, 1), BuildingBlock: KIFKEQ_clean_linker_1, # of connection points: 2
#     Edge 77, Type (0, 1), BuildingBlock: KIFKEQ_clean_linker_1, # of connection points: 2
#     Edge 78, Type (0, 1), BuildingBlock: KIFKEQ_clean_linker_1, # of connection points: 2
#     Edge 79, Type (0, 1), BuildingBlock: KIFKEQ_clean_linker_1, # of connection points: 2
#     Edge 80, Type (0, 1), BuildingBlock: KIFKEQ_clean_linker_1, # of connection points: 2
#     Edge 81, Type (0, 1), BuildingBlock: KIFKEQ_clean_linker_1, # of connection points: 2
#     Edge 82, Type (0, 1), BuildingBlock: KIFKEQ_clean_linker_1, # of connection points: 2
#     Edge 83, Type (0, 1), BuildingBlock: KIFKEQ_clean_linker_1, # of connection points: 2
#     Edge 84, Type (0, 1), BuildingBlock: KIFKEQ_clean_linker_1, # of connection points: 2
#     Edge 85, Type (0, 1), BuildingBlock: KIFKEQ_clean_linker_1, # of connection points: 2
#     Edge 86, Type (0, 1), BuildingBlock: KIFKEQ_clean_linker_1, # of connection points: 2
#     Edge 87, Type (0, 1), BuildingBlock: KIFKEQ_clean_linker_1, # of connection points: 2
#     Edge 88, Type (0, 1), BuildingBlock: KIFKEQ_clean_linker_1, # of connection points: 2
#     Edge 89, Type (0, 1), BuildingBlock: KIFKEQ_clean_linker_1, # of connection points: 2
#     Edge 90, Type (0, 1), BuildingBlock: KIFKEQ_clean_linker_1, # of connection points: 2
#     Edge 91, Type (0, 1), BuildingBlock: KIFKEQ_clean_linker_1, # of connection points: 2
#     Edge 92, Type (0, 1), BuildingBlock: KIFKEQ_clean_linker_1, # of connection points: 2
#     Edge 93, Type (0, 1), BuildingBlock: KIFKEQ_clean_linker_1, # of connection points: 2
#     Edge 94, Type (0, 1), BuildingBlock: KIFKEQ_clean_linker_1, # of connection points: 2
#     Edge 95, Type (0, 1), BuildingBlock: KIFKEQ_clean_linker_1, # of connection points: 2
#     Edge 96, Type (0, 1), BuildingBlock: KIFKEQ_clean_linker_1, # of connection points: 2
#     Edge 97, Type (0, 1), BuildingBlock: KIFKEQ_clean_linker_1, # of connection points: 2
#     Edge 98, Type (0, 1), BuildingBlock: KIFKEQ_clean_linker_1, # of connection points: 2
#     Edge 99, Type (0, 1), BuildingBlock: KIFKEQ_clean_linker_1, # of connection points: 2
#     Edge 100, Type (0, 1), BuildingBlock: KIFKEQ_clean_linker_1, # of connection points: 2
#     Edge 101, Type (0, 1), BuildingBlock: KIFKEQ_clean_linker_1, # of connection points: 2
#     Edge 102, Type (0, 1), BuildingBlock: KIFKEQ_clean_linker_1, # of connection points: 2
#     Edge 103, Type (0, 1), BuildingBlock: KIFKEQ_clean_linker_1, # of connection points: 2
#     Edge 104, Type (0, 1), BuildingBlock: KIFKEQ_clean_linker_1, # of connection points: 2
#     Edge 105, Type (0, 1), BuildingBlock: KIFKEQ_clean_linker_1, # of connection points: 2
#     Edge 106, Type (0, 1), BuildingBlock: KIFKEQ_clean_linker_1, # of connection points: 2
#     Edge 107, Type (0, 1), BuildingBlock: KIFKEQ_clean_linker_1, # of connection points: 2
#     Edge 108, Type (0, 1), BuildingBlock: KIFKEQ_clean_linker_1, # of connection points: 2
#     Edge 109, Type (0, 1), BuildingBlock: KIFKEQ_clean_linker_1, # of connection points: 2
#     Edge 110, Type (0, 1), BuildingBlock: KIFKEQ_clean_linker_1, # of connection points: 2
#     Edge 111, Type (0, 1), BuildingBlock: KIFKEQ_clean_linker_1, # of connection points: 2
#     Edge 112, Type (0, 1), BuildingBlock: KIFKEQ_clean_linker_1, # of connection points: 2
#     Edge 113, Type (0, 1), BuildingBlock: KIFKEQ_clean_linker_1, # of connection points: 2
#     Edge 114, Type (0, 1), BuildingBlock: KIFKEQ_clean_linker_1, # of connection points: 2
#     Edge 115, Type (0, 1), BuildingBlock: KIFKEQ_clean_linker_1, # of connection points: 2
#     Edge 116, Type (0, 1), BuildingBlock: KIFKEQ_clean_linker_1, # of connection points: 2
#     Edge 117, Type (0, 1), BuildingBlock: KIFKEQ_clean_linker_1, # of connection points: 2
#     Edge 118, Type (0, 1), BuildingBlock: KIFKEQ_clean_linker_1, # of connection points: 2
#     Edge 119, Type (0, 1), BuildingBlock: KIFKEQ_clean_linker_1, # of connection points: 2
#     Edge 120, Type (0, 1), BuildingBlock: KIFKEQ_clean_linker_1, # of connection points: 2
#     Edge 121, Type (0, 1), BuildingBlock: KIFKEQ_clean_linker_1, # of connection points: 2
#     Edge 122, Type (0, 1), BuildingBlock: KIFKEQ_clean_linker_1, # of connection points: 2
#     Edge 123, Type (0, 1), BuildingBlock: KIFKEQ_clean_linker_1, # of connection points: 2
#     Edge 124, Type (0, 1), BuildingBlock: KIFKEQ_clean_linker_1, # of connection points: 2
#     Edge 125, Type (0, 1), BuildingBlock: KIFKEQ_clean_linker_1, # of connection points: 2
#     Edge 126, Type (0, 1), BuildingBlock: KIFKEQ_clean_linker_1, # of connection points: 2
#     Edge 127, Type (0, 1), BuildingBlock: KIFKEQ_clean_linker_1, # of connection points: 2
#     Edge 128, Type (0, 1), BuildingBlock: KIFKEQ_clean_linker_1, # of connection points: 2
#     Edge 129, Type (0, 1), BuildingBlock: KIFKEQ_clean_linker_1, # of connection points: 2
#     Edge 130, Type (0, 1), BuildingBlock: KIFKEQ_clean_linker_1, # of connection points: 2
#     Edge 131, Type (0, 1), BuildingBlock: KIFKEQ_clean_linker_1, # of connection points: 2
#     Edge 132, Type (0, 1), BuildingBlock: KIFKEQ_clean_linker_1, # of connection points: 2
#     Edge 133, Type (0, 1), BuildingBlock: KIFKEQ_clean_linker_1, # of connection points: 2
#     Edge 134, Type (0, 1), BuildingBlock: KIFKEQ_clean_linker_1, # of connection points: 2
#     Edge 135, Type (0, 1), BuildingBlock: KIFKEQ_clean_linker_1, # of connection points: 2
#     Edge 136, Type (0, 1), BuildingBlock: KIFKEQ_clean_linker_1, # of connection points: 2
#     Edge 137, Type (0, 1), BuildingBlock: KIFKEQ_clean_linker_1, # of connection points: 2
#     Edge 138, Type (0, 1), BuildingBlock: KIFKEQ_clean_linker_1, # of connection points: 2
#     Edge 139, Type (0, 1), BuildingBlock: KIFKEQ_clean_linker_1, # of connection points: 2
#     Edge 140, Type (0, 1), BuildingBlock: KIFKEQ_clean_linker_1, # of connection points: 2
#     Edge 141, Type (0, 1), BuildingBlock: KIFKEQ_clean_linker_1, # of connection points: 2
#     Edge 142, Type (0, 1), BuildingBlock: KIFKEQ_clean_linker_1, # of connection points: 2
#     Edge 143, Type (0, 1), BuildingBlock: KIFKEQ_clean_linker_1, # of connection points: 2
#     Edge 144, Type (0, 1), BuildingBlock: KIFKEQ_clean_linker_1, # of connection points: 2
#     Edge 145, Type (0, 1), BuildingBlock: KIFKEQ_clean_linker_1, # of connection points: 2
#     Edge 146, Type (0, 1), BuildingBlock: KIFKEQ_clean_linker_1, # of connection points: 2
#     Edge 147, Type (0, 1), BuildingBlock: KIFKEQ_clean_linker_1, # of connection points: 2
#     Edge 148, Type (0, 1), BuildingBlock: KIFKEQ_clean_linker_1, # of connection points: 2
#     Edge 149, Type (0, 1), BuildingBlock: KIFKEQ_clean_linker_1, # of connection points: 2
#     Edge 150, Type (0, 1), BuildingBlock: KIFKEQ_clean_linker_1, # of connection points: 2
#     Edge 151, Type (0, 1), BuildingBlock: KIFKEQ_clean_linker_1, # of connection points: 2
# Relax obj value: 0.000
# Max RMSD: 0.055
# Mean RMSD: 0.026
data_MOF--net-tbo--node1-WUSLED_clean_sbu_0--node2-KUFVIS_clean_linker_0--edge1-KIFKEQ_clean_linker_1
_symmetry_space_group_name_H-M    P1
_symmetry_Int_Tables_number       1
_symmetry_cell_setting            triclinic
loop_
_symmetry_equiv_pos_as_xyz
'x, y, z'
_cell_length_a     94.764317
_cell_length_b     95.093647
_cell_length_c     94.902742
_cell_angle_alpha  89.67298
_cell_angle_beta   90.305522
_cell_angle_gamma 90.674836
loop_
_atom_site_label
_atom_site_type_symbol
_atom_site_fract_x
_atom_site_fract_y
_atom_site_fract_z
_atom_type_partial_charge
C0 C 0.18666 0.14408 0.20401 0.0
C1 C 0.20147 0.14415 0.20316 0.0
C2 C 0.2023 0.12051 0.21336 0.0
C3 C 0.20919 0.13252 0.20782 0.0
C4 C 0.18744 0.12037 0.21379 0.0
C5 C 0.17974 0.13203 0.20922 0.0
U6 U 0.17862 0.17615 0.18047 0.0
O7 O 0.1582 0.18493 0.17386 0.0
O8 O 0.17298 0.19773 0.18641 0.0
C9 C 0.16038 0.1968 0.18062 0.0
C10 C 0.1783 0.15659 0.20016 0.0
C11 C 0.14858 0.20231 0.18903 0.0
C12 C 0.12703 0.19931 0.20271 0.0
C13 C 0.13831 0.19351 0.19525 0.0
C14 C 0.13624 0.22269 0.19791 0.0
C15 C 0.12589 0.21399 0.20417 0.0
C16 C 0.14742 0.21691 0.19045 0.0
C17 C 0.20213 0.18406 0.14838 0.0
C18 C 0.20244 0.20627 0.13554 0.0
C19 C 0.21615 0.18673 0.12711 0.0
C20 C 0.21132 0.17847 0.1384 0.0
C21 C 0.2119 0.2008 0.12562 0.0
C22 C 0.19758 0.19798 0.1468 0.0
C23 C 0.19787 0.17541 0.16062 0.0
O24 O 0.18466 0.16887 0.20164 0.0
O25 O 0.17076 0.1557 0.18852 0.0
O26 O 0.18558 0.16893 0.1596 0.0
O27 O 0.20003 0.18113 0.17302 0.0
H28 H 0.2071 0.1533 0.19915 0.0
H29 H 0.2206 0.13314 0.20745 0.0
H30 H 0.18172 0.11125 0.21773 0.0
H31 H 0.16833 0.13171 0.20992 0.0
H32 H 0.11932 0.1923 0.20749 0.0
H33 H 0.13898 0.18219 0.19432 0.0
H34 H 0.1356 0.23403 0.1986 0.0
H35 H 0.15514 0.22391 0.18565 0.0
H36 H 0.1988 0.21699 0.13461 0.0
H37 H 0.22354 0.18222 0.1198 0.0
H38 H 0.21498 0.16776 0.13947 0.0
H39 H 0.19042 0.20247 0.15437 0.0
C40 C 0.84066 0.18443 0.1459 0.0
C41 C 0.84476 0.19867 0.1457 0.0
C42 C 0.83243 0.20209 0.12332 0.0
C43 C 0.84064 0.20743 0.13453 0.0
C44 C 0.8287 0.18773 0.12341 0.0
C45 C 0.83275 0.179 0.13461 0.0
U46 U 0.86362 0.17394 0.17765 0.0
O47 O 0.85731 0.1668 0.19878 0.0
O48 O 0.86944 0.1528 0.18524 0.0
C49 C 0.86239 0.15412 0.19704 0.0
C50 C 0.84406 0.17521 0.15797 0.0
C51 C 0.85285 0.14233 0.2008 0.0
C52 C 0.82933 0.13195 0.20255 0.0
C53 C 0.8383 0.14286 0.19801 0.0
C54 C 0.8494 0.1196 0.21225 0.0
C55 C 0.83476 0.12026 0.20986 0.0
C56 C 0.85834 0.13056 0.2078 0.0
C57 C 0.89669 0.19615 0.18685 0.0
C58 C 0.90791 0.19966 0.20971 0.0
C59 C 0.92064 0.20551 0.18838 0.0
C60 C 0.90901 0.20114 0.18031 0.0
C61 C 0.92018 0.20505 0.2032 0.0
C62 C 0.8963 0.19522 0.20162 0.0
C63 C 0.88423 0.19266 0.17806 0.0
O64 O 0.8555 0.16764 0.15676 0.0
O65 O 0.84271 0.18084 0.17051 0.0
O66 O 0.87183 0.19472 0.1838 0.0
O67 O 0.88482 0.18092 0.17086 0.0
H68 H 0.85097 0.20306 0.15426 0.0
H69 H 0.84383 0.2184 0.13471 0.0
H70 H 0.82226 0.18331 0.11503 0.0
H71 H 0.82948 0.16805 0.13458 0.0
H72 H 0.81813 0.13269 0.20038 0.0
H73 H 0.83384 0.1518 0.19252 0.0
H74 H 0.85391 0.11084 0.21797 0.0
H75 H 0.86954 0.12996 0.21006 0.0
H76 H 0.90708 0.19928 0.22108 0.0
H77 H 0.92997 0.20934 0.18297 0.0
H78 H 0.90956 0.20188 0.16893 0.0
H79 H 0.88692 0.19136 0.20693 0.0
C80 C 0.83522 0.85657 0.15325 0.0
C81 C 0.84389 0.84974 0.14352 0.0
C82 C 0.8231 0.84113 0.1307 0.0
C83 C 0.83787 0.84213 0.1323 0.0
C84 C 0.81454 0.848 0.14051 0.0
C85 C 0.82053 0.85562 0.15162 0.0
U86 U 0.86194 0.86496 0.18335 0.0
O87 O 0.8699 0.88569 0.19036 0.0
O88 O 0.85742 0.87242 0.20472 0.0
C89 C 0.86355 0.88472 0.20261 0.0
C90 C 0.841 0.865 0.16503 0.0
C91 C 0.85543 0.89709 0.20698 0.0
C92 C 0.83345 0.90995 0.20843 0.0
C93 C 0.84112 0.8985 0.20345 0.0
C94 C 0.8544 0.91888 0.22022 0.0
C95 C 0.83996 0.92023 0.21701 0.0
C96 C 0.86203 0.90742 0.21527 0.0
C97 C 0.8935 0.84121 0.19162 0.0
C98 C 0.90545 0.83868 0.21426 0.0
C99 C 0.91647 0.83006 0.19309 0.0
C100 C 0.90492 0.83467 0.1851 0.0
C101 C 0.91678 0.83181 0.2078 0.0
C102 C 0.89396 0.84339 0.20625 0.0
C103 C 0.88102 0.84511 0.1831 0.0
O104 O 0.84006 0.85926 0.17762 0.0
O105 O 0.85307 0.87165 0.16292 0.0
O106 O 0.88216 0.85674 0.17561 0.0
O107 O 0.86873 0.84374 0.18937 0.0
H108 H 0.85527 0.85029 0.14457 0.0
H109 H 0.84477 0.83687 0.12501 0.0
H110 H 0.80315 0.84766 0.1395 0.0
H111 H 0.81365 0.86087 0.15895 0.0
H112 H 0.82232 0.91053 0.20586 0.0
H113 H 0.83581 0.89062 0.19706 0.0
H114 H 0.85984 0.92667 0.22658 0.0
H115 H 0.87309 0.90654 0.21806 0.0
H116 H 0.90544 0.84037 0.22554 0.0
H117 H 0.92494 0.8247 0.1878 0.0
H118 H 0.90479 0.83288 0.17384 0.0
H119 H 0.88533 0.84852 0.21152 0.0
C120 C 0.14654 0.83817 0.18544 0.0
C121 C 0.14488 0.84141 0.19974 0.0
C122 C 0.12273 0.82801 0.20045 0.0
C123 C 0.13312 0.83636 0.20718 0.0
C124 C 0.12431 0.8251 0.18602 0.0
C125 C 0.1361 0.83011 0.17861 0.0
U126 U 0.17891 0.86222 0.18008 0.0
O127 O 0.20073 0.85666 0.17475 0.0
O128 O 0.18858 0.87023 0.16051 0.0
C129 C 0.20027 0.86315 0.16251 0.0
C130 C 0.15929 0.84258 0.17764 0.0
C131 C 0.20572 0.85516 0.15041 0.0
C132 C 0.20246 0.8421 0.12857 0.0
C133 C 0.1968 0.84954 0.13992 0.0
C134 C 0.22595 0.84574 0.13812 0.0
C135 C 0.21712 0.84004 0.12759 0.0
C136 C 0.22031 0.85322 0.14936 0.0
C137 C 0.18557 0.89221 0.20696 0.0
C138 C 0.19977 0.91367 0.20489 0.0
C139 C 0.19353 0.9046 0.22794 0.0
C140 C 0.18618 0.89344 0.22166 0.0
C141 C 0.20045 0.91486 0.21967 0.0
C142 C 0.19244 0.9024 0.19858 0.0
C143 C 0.17744 0.88035 0.20084 0.0
O144 O 0.15866 0.85477 0.17107 0.0
O145 O 0.17134 0.84068 0.18426 0.0
O146 O 0.18313 0.86788 0.20219 0.0
O147 O 0.17152 0.88238 0.18843 0.0
H148 H 0.15281 0.84763 0.20522 0.0
H149 H 0.13239 0.83869 0.2183 0.0
H150 H 0.11645 0.81893 0.18041 0.0
H151 H 0.13716 0.82754 0.16756 0.0
H152 H 0.19536 0.83774 0.12071 0.0
H153 H 0.18548 0.85085 0.14051 0.0
H154 H 0.23729 0.84453 0.1376 0.0
H155 H 0.2274 0.85751 0.15728 0.0
H156 H 0.20508 0.92131 0.19821 0.0
H157 H 0.19364 0.90529 0.23933 0.0
H158 H 0.18089 0.88576 0.22832 0.0
H159 H 0.19216 0.90167 0.1872 0.0
C160 C 0.14076 0.84055 0.85695 0.0
C161 C 0.14156 0.84264 0.8423 0.0
C162 C 0.11869 0.831 0.83911 0.0
C163 C 0.13066 0.83786 0.83347 0.0
C164 C 0.11774 0.82936 0.85382 0.0
C165 C 0.1287 0.83405 0.86263 0.0
U166 U 0.17233 0.86408 0.86749 0.0
O167 O 0.17941 0.87081 0.88862 0.0
O168 O 0.19329 0.8582 0.87537 0.0
C169 C 0.19126 0.86381 0.88782 0.0
C170 C 0.15259 0.84447 0.86638 0.0
C171 C 0.19495 0.85502 0.90017 0.0
C172 C 0.19941 0.83222 0.91102 0.0
C173 C 0.19471 0.84026 0.89954 0.0
C174 C 0.20414 0.85356 0.92411 0.0
C175 C 0.20438 0.83877 0.9234 0.0
C176 C 0.19951 0.86157 0.91261 0.0
C177 C 0.18262 0.89597 0.84454 0.0
C178 C 0.20586 0.907 0.84298 0.0
C179 C 0.18546 0.919 0.83354 0.0
C180 C 0.17681 0.90773 0.8378 0.0
C181 C 0.20012 0.91867 0.83588 0.0
C182 C 0.19719 0.89578 0.84732 0.0
C183 C 0.17341 0.88383 0.84803 0.0
O184 O 0.16532 0.84292 0.86123 0.0
O185 O 0.15118 0.85621 0.87347 0.0
O186 O 0.16588 0.88491 0.85956 0.0
O187 O 0.17904 0.87135 0.84654 0.0
H188 H 0.15072 0.84774 0.83767 0.0
H189 H 0.13163 0.83945 0.82221 0.0
H190 H 0.10875 0.82402 0.85849 0.0
H191 H 0.12787 0.83233 0.8739 0.0
H192 H 0.19957 0.82089 0.90999 0.0
H193 H 0.1912 0.83492 0.89007 0.0
H194 H 0.20762 0.85897 0.93353 0.0
H195 H 0.19973 0.87294 0.91334 0.0
H196 H 0.21709 0.9065 0.8451 0.0
H197 H 0.18072 0.92775 0.828 0.0
H198 H 0.1656 0.90808 0.83555 0.0
H199 H 0.2019 0.88686 0.85263 0.0
C200 C 0.14276 0.18666 0.84396 0.0
C201 C 0.1427 0.20117 0.84666 0.0
C202 C 0.11982 0.20333 0.83495 0.0
C203 C 0.13137 0.20942 0.84215 0.0
C204 C 0.11973 0.18872 0.83268 0.0
C205 C 0.13111 0.18049 0.8371 0.0
U206 U 0.17487 0.17787 0.86713 0.0
O207 O 0.18327 0.15731 0.87362 0.0
O208 O 0.19632 0.17179 0.86098 0.0
C209 C 0.1952 0.15927 0.86683 0.0
C210 C 0.15506 0.17793 0.84763 0.0
C211 C 0.20034 0.14743 0.85836 0.0
C212 C 0.19703 0.12875 0.84112 0.0
C213 C 0.19157 0.13988 0.84903 0.0
C214 C 0.21998 0.13266 0.85183 0.0
C215 C 0.21136 0.12509 0.84235 0.0
C216 C 0.21453 0.14368 0.85971 0.0
C217 C 0.18357 0.20132 0.89909 0.0
C218 C 0.20617 0.20225 0.91137 0.0
C219 C 0.18621 0.21478 0.9207 0.0
C220 C 0.17784 0.20993 0.9095 0.0
C221 C 0.20054 0.21116 0.92169 0.0
C222 C 0.19775 0.19736 0.90019 0.0
C223 C 0.17474 0.19712 0.88693 0.0
O224 O 0.1675 0.18398 0.846 0.0
O225 O 0.15409 0.17051 0.85932 0.0
O226 O 0.16801 0.18501 0.88806 0.0
O227 O 0.1804 0.19913 0.87446 0.0
H228 H 0.15152 0.20616 0.85205 0.0
H229 H 0.13169 0.22061 0.84424 0.0
H230 H 0.11108 0.1837 0.82706 0.0
H231 H 0.13094 0.16932 0.8349 0.0
H232 H 0.19013 0.1232 0.83386 0.0
H233 H 0.18057 0.14264 0.84781 0.0
H234 H 0.23098 0.13 0.85325 0.0
H235 H 0.22146 0.14932 0.8669 0.0
H236 H 0.2171 0.1991 0.9119 0.0
H237 H 0.18156 0.22173 0.92834 0.0
H238 H 0.16692 0.21313 0.90882 0.0
H239 H 0.20237 0.19066 0.8923 0.0
C240 C 0.83836 0.14209 0.85816 0.0
C241 C 0.84187 0.14209 0.8438 0.0
C242 C 0.83025 0.11924 0.84085 0.0
C243 C 0.83781 0.13079 0.83522 0.0
C244 C 0.82714 0.11913 0.85534 0.0
C245 C 0.83112 0.13047 0.86388 0.0
U246 U 0.86002 0.17524 0.8669 0.0
O247 O 0.85296 0.19597 0.87389 0.0
O248 O 0.86691 0.18357 0.88753 0.0
C249 C 0.85902 0.1948 0.88633 0.0
C250 C 0.84165 0.15431 0.86716 0.0
C251 C 0.85009 0.19814 0.89857 0.0
C252 C 0.82713 0.19915 0.9099 0.0
C253 C 0.83559 0.19487 0.89868 0.0
C254 C 0.84762 0.20953 0.92132 0.0
C255 C 0.83301 0.20669 0.92128 0.0
C256 C 0.85605 0.20533 0.91005 0.0
C257 C 0.89028 0.18576 0.84114 0.0
C258 C 0.91253 0.19863 0.84391 0.0
C259 C 0.90143 0.19704 0.82094 0.0
C260 C 0.89041 0.18906 0.82673 0.0
C261 C 0.91265 0.20192 0.82942 0.0
C262 C 0.90142 0.19064 0.84974 0.0
C263 C 0.87874 0.17663 0.84656 0.0
O264 O 0.85374 0.15394 0.87399 0.0
O265 O 0.83905 0.16669 0.86155 0.0
O266 O 0.86592 0.18162 0.84535 0.0
O267 O 0.88091 0.16993 0.85853 0.0
H268 H 0.84754 0.15092 0.83918 0.0
H269 H 0.84053 0.13113 0.82415 0.0
H270 H 0.82122 0.11049 0.85999 0.0
H271 H 0.82831 0.13029 0.87494 0.0
H272 H 0.81596 0.19663 0.90962 0.0
H273 H 0.83076 0.18924 0.88998 0.0
H274 H 0.85247 0.21542 0.92983 0.0
H275 H 0.8672 0.20798 0.91017 0.0
H276 H 0.92095 0.20231 0.85076 0.0
H277 H 0.90127 0.19916 0.80971 0.0
H278 H 0.88204 0.18528 0.81986 0.0
H279 H 0.90161 0.18824 0.8609 0.0
C280 C 0.85333 0.89261 0.84477 0.0
C281 C 0.83852 0.89201 0.84544 0.0
C282 C 0.83699 0.9157 0.83542 0.0
C283 C 0.83045 0.90342 0.84079 0.0
C284 C 0.85184 0.91636 0.83517 0.0
C285 C 0.85989 0.90494 0.83976 0.0
U286 U 0.86328 0.86059 0.86797 0.0
O287 O 0.87024 0.8396 0.86159 0.0
O288 O 0.88438 0.85306 0.87413 0.0
C289 C 0.88288 0.84122 0.86717 0.0
C290 C 0.86215 0.88037 0.84851 0.0
C291 C 0.89486 0.83709 0.85827 0.0
C292 C 0.90685 0.83637 0.83568 0.0
C293 C 0.89581 0.84122 0.84408 0.0
C294 C 0.91629 0.82352 0.85564 0.0
C295 C 0.91716 0.82732 0.84131 0.0
C296 C 0.90525 0.82834 0.864 0.0
C297 C 0.84123 0.85107 0.90075 0.0
C298 C 0.84046 0.82833 0.91265 0.0
C299 C 0.82999 0.84858 0.92364 0.0
C300 C 0.83405 0.85695 0.91213 0.0
C301 C 0.83298 0.83412 0.92397 0.0
C302 C 0.84458 0.83673 0.90116 0.0
C303 C 0.84461 0.85997 0.88838 0.0
O304 O 0.86986 0.88151 0.86002 0.0
O305 O 0.85626 0.86786 0.84707 0.0
O306 O 0.84243 0.85421 0.87598 0.0
O307 O 0.85646 0.86725 0.88908 0.0
H308 H 0.83317 0.88264 0.84928 0.0
H309 H 0.81906 0.90242 0.84102 0.0
H310 H 0.85729 0.9257 0.83137 0.0
H311 H 0.87129 0.90567 0.83918 0.0
H312 H 0.90728 0.83967 0.82475 0.0
H313 H 0.88793 0.84803 0.83946 0.0
H314 H 0.92391 0.81646 0.86031 0.0
H315 H 0.90468 0.82501 0.87492 0.0
H316 H 0.8431 0.81728 0.91264 0.0
H317 H 0.82412 0.85337 0.93208 0.0
H318 H 0.83134 0.86799 0.91201 0.0
H319 H 0.85021 0.83199 0.89253 0.0
C320 C 0.1836 0.64189 0.70401 0.0
C321 C 0.19842 0.64255 0.70372 0.0
C322 C 0.19977 0.61873 0.71342 0.0
C323 C 0.20641 0.63111 0.70841 0.0
C324 C 0.18491 0.61802 0.71329 0.0
C325 C 0.17694 0.62948 0.70867 0.0
U326 U 0.17548 0.67459 0.68134 0.0
O327 O 0.15496 0.68247 0.67373 0.0
O328 O 0.16811 0.69539 0.68782 0.0
C329 C 0.15585 0.69392 0.6814 0.0
C330 C 0.1749 0.65413 0.7001 0.0
C331 C 0.1432 0.69753 0.68968 0.0
C332 C 0.13134 0.7012 0.71207 0.0
C333 C 0.14307 0.69664 0.70447 0.0
C334 C 0.11951 0.70716 0.69022 0.0
C335 C 0.11945 0.70671 0.70506 0.0
C336 C 0.13125 0.70266 0.68264 0.0
C337 C 0.2017 0.68434 0.65124 0.0
C338 C 0.19878 0.69773 0.62944 0.0
C339 C 0.22215 0.69417 0.63914 0.0
C340 C 0.21633 0.6865 0.65032 0.0
C341 C 0.21349 0.69989 0.62852 0.0
C342 C 0.19293 0.69005 0.64072 0.0
C343 C 0.19617 0.6756 0.66296 0.0
O344 O 0.1805 0.6666 0.70253 0.0
O345 O 0.16825 0.65341 0.68793 0.0
O346 O 0.18426 0.66869 0.66079 0.0
O347 O 0.19711 0.68109 0.67562 0.0
H348 H 0.20383 0.65199 0.70012 0.0
H349 H 0.2178 0.63215 0.70848 0.0
H350 H 0.1794 0.60861 0.7168 0.0
H351 H 0.16553 0.62871 0.70893 0.0
H352 H 0.1318 0.70081 0.72346 0.0
H353 H 0.15214 0.6927 0.71018 0.0
H354 H 0.11049 0.71107 0.68442 0.0
H355 H 0.13108 0.70341 0.67125 0.0
H356 H 0.19179 0.70209 0.62152 0.0
H357 H 0.23352 0.69541 0.63869 0.0
H358 H 0.22331 0.68209 0.65823 0.0
H359 H 0.18159 0.68854 0.64117 0.0
C360 C 0.83685 0.68151 0.64401 0.0
C361 C 0.84211 0.69524 0.64209 0.0
C362 C 0.82735 0.69811 0.62114 0.0
C363 C 0.83738 0.70347 0.63078 0.0
C364 C 0.82241 0.6842 0.62293 0.0
C365 C 0.8271 0.676 0.63428 0.0
U366 U 0.86058 0.6747 0.67603 0.0
O367 O 0.85494 0.66811 0.6975 0.0
O368 O 0.86841 0.65463 0.6847 0.0
C369 C 0.86106 0.65583 0.69634 0.0
C370 C 0.84102 0.67304 0.65635 0.0
C371 C 0.85245 0.64343 0.7005 0.0
C372 C 0.82966 0.63195 0.70421 0.0
C373 C 0.83767 0.64343 0.69933 0.0
C374 C 0.85112 0.62006 0.711 0.0
C375 C 0.83626 0.62015 0.71027 0.0
C376 C 0.8591 0.63159 0.70621 0.0
C377 C 0.89076 0.70156 0.68368 0.0
C378 C 0.91169 0.69912 0.69849 0.0
C379 C 0.90365 0.72229 0.69172 0.0
C380 C 0.8925 0.71621 0.68414 0.0
C381 C 0.91338 0.71384 0.69903 0.0
C382 C 0.90043 0.69302 0.69092 0.0
C383 C 0.87888 0.69569 0.67539 0.0
O384 O 0.85323 0.66671 0.65546 0.0
O385 O 0.83904 0.679 0.66863 0.0
O386 O 0.86636 0.69658 0.68117 0.0
O387 O 0.88093 0.68363 0.66902 0.0
H388 H 0.8497 0.69965 0.64946 0.0
H389 H 0.84154 0.71407 0.6296 0.0
H390 H 0.81459 0.67979 0.61581 0.0
H391 H 0.82292 0.66543 0.63562 0.0
H392 H 0.81827 0.63253 0.7036 0.0
H393 H 0.83226 0.65242 0.6949 0.0
H394 H 0.85661 0.61108 0.71534 0.0
H395 H 0.8705 0.63133 0.70714 0.0
H396 H 0.91893 0.69233 0.70409 0.0
H397 H 0.90474 0.73364 0.69173 0.0
H398 H 0.88521 0.72299 0.67857 0.0
H399 H 0.89928 0.68168 0.69075 0.0
C400 C 0.83504 0.35549 0.65185 0.0
C401 C 0.84185 0.3562 0.6387 0.0
C402 C 0.82484 0.33947 0.62869 0.0
C403 C 0.8368 0.34828 0.62726 0.0
C404 C 0.81803 0.33887 0.64182 0.0
C405 C 0.82302 0.34681 0.6532 0.0
U406 U 0.86014 0.36502 0.68285 0.0
O407 O 0.86677 0.38574 0.69093 0.0
O408 O 0.85474 0.37122 0.70449 0.0
C409 C 0.8604 0.38383 0.70308 0.0
C410 C 0.83969 0.36427 0.66399 0.0
C411 C 0.8521 0.39565 0.70859 0.0
C412 C 0.83867 0.41717 0.70551 0.0
C413 C 0.84573 0.40566 0.69973 0.0
C414 C 0.84406 0.40864 0.72898 0.0
C415 C 0.83788 0.41888 0.72023 0.0
C416 C 0.8511 0.39721 0.72323 0.0
C417 C 0.89276 0.34265 0.69085 0.0
C418 C 0.90474 0.341 0.71355 0.0
C419 C 0.91562 0.33136 0.69276 0.0
C420 C 0.90411 0.33573 0.6846 0.0
C421 C 0.91599 0.33374 0.70738 0.0
C422 C 0.89326 0.34545 0.70536 0.0
C423 C 0.88028 0.34625 0.68222 0.0
O424 O 0.83874 0.35833 0.6765 0.0
O425 O 0.85123 0.37196 0.66249 0.0
O426 O 0.88095 0.35823 0.67526 0.0
O427 O 0.86797 0.34399 0.68818 0.0
H428 H 0.85105 0.36289 0.63721 0.0
H429 H 0.84236 0.34893 0.61733 0.0
H430 H 0.80865 0.33241 0.64326 0.0
H431 H 0.81736 0.34623 0.66308 0.0
H432 H 0.8341 0.42486 0.69844 0.0
H433 H 0.84635 0.40469 0.68839 0.0
H434 H 0.84343 0.4094 0.74034 0.0
H435 H 0.85591 0.38961 0.73026 0.0
H436 H 0.90476 0.34317 0.72474 0.0
H437 H 0.92402 0.32569 0.68769 0.0
H438 H 0.90392 0.33345 0.67343 0.0
H439 H 0.88468 0.35087 0.7104 0.0
C440 C 0.14636 0.33482 0.68674 0.0
C441 C 0.13673 0.34353 0.69362 0.0
C442 C 0.12336 0.32295 0.70174 0.0
C443 C 0.12528 0.33765 0.701 0.0
C444 C 0.13301 0.31433 0.69476 0.0
C445 C 0.14435 0.3202 0.68733 0.0
U446 U 0.17716 0.36121 0.68126 0.0
O447 O 0.19908 0.35682 0.67526 0.0
O448 O 0.1859 0.37002 0.6616 0.0
C449 C 0.19796 0.36344 0.66313 0.0
C450 C 0.15865 0.34052 0.67896 0.0
C451 C 0.20335 0.35585 0.65074 0.0
C452 C 0.19992 0.34344 0.62856 0.0
C453 C 0.19434 0.35036 0.64027 0.0
C454 C 0.22352 0.34723 0.63776 0.0
C455 C 0.21462 0.34182 0.62712 0.0
C456 C 0.21795 0.35419 0.64938 0.0
C457 C 0.18342 0.39101 0.70826 0.0
C458 C 0.19702 0.4128 0.70577 0.0
C459 C 0.19212 0.40335 0.72899 0.0
C460 C 0.1847 0.39211 0.72293 0.0
C461 C 0.19842 0.41382 0.72051 0.0
C462 C 0.18964 0.40145 0.69968 0.0
C463 C 0.17548 0.37891 0.70236 0.0
O464 O 0.15714 0.3528 0.6727 0.0
O465 O 0.17091 0.33919 0.68533 0.0
O466 O 0.18173 0.36669 0.70335 0.0
O467 O 0.16903 0.38083 0.6902 0.0
H468 H 0.13811 0.35486 0.69338 0.0
H469 H 0.11811 0.34457 0.70637 0.0
H470 H 0.13175 0.30299 0.69495 0.0
H471 H 0.15162 0.31329 0.68207 0.0
H472 H 0.19273 0.33952 0.62056 0.0
H473 H 0.18301 0.35147 0.64108 0.0
H474 H 0.23485 0.34595 0.63724 0.0
H475 H 0.2251 0.35827 0.65736 0.0
H476 H 0.20185 0.42063 0.69894 0.0
H477 H 0.19281 0.4039 0.74037 0.0
H478 H 0.17994 0.38422 0.72975 0.0
H479 H 0.18885 0.40082 0.68831 0.0
C480 C 0.14372 0.33608 0.36259 0.0
C481 C 0.13356 0.34532 0.35716 0.0
C482 C 0.1202 0.32557 0.34723 0.0
C483 C 0.12189 0.34011 0.3496 0.0
C484 C 0.13046 0.3164 0.35269 0.0
C485 C 0.14204 0.32161 0.36031 0.0
U486 U 0.17442 0.36212 0.36918 0.0
O487 O 0.18323 0.37 0.38919 0.0
O488 O 0.19645 0.35775 0.37498 0.0
C489 C 0.19539 0.36378 0.38734 0.0
C490 C 0.15615 0.34117 0.37061 0.0
C491 C 0.20091 0.3556 0.39936 0.0
C492 C 0.19822 0.33801 0.41793 0.0
C493 C 0.19245 0.34591 0.40681 0.0
C494 C 0.22087 0.34945 0.41422 0.0
C495 C 0.21255 0.3396 0.42166 0.0
C496 C 0.21511 0.35736 0.4032 0.0
C497 C 0.1803 0.39355 0.34399 0.0
C498 C 0.19279 0.41569 0.34816 0.0
C499 C 0.19042 0.40679 0.32441 0.0
C500 C 0.1829 0.39512 0.32953 0.0
C501 C 0.19547 0.41727 0.33363 0.0
C502 C 0.18533 0.40394 0.35329 0.0
C503 C 0.17235 0.38101 0.34897 0.0
O504 O 0.1683 0.34031 0.36409 0.0
O505 O 0.15473 0.35298 0.37759 0.0
O506 O 0.16582 0.38203 0.36111 0.0
O507 O 0.17871 0.36893 0.34738 0.0
H508 H 0.13462 0.35656 0.35875 0.0
H509 H 0.11416 0.34749 0.3457 0.0
H510 H 0.12973 0.30519 0.35086 0.0
H511 H 0.14979 0.3143 0.36434 0.0
H512 H 0.19156 0.33044 0.42339 0.0
H513 H 0.18147 0.34435 0.40394 0.0
H514 H 0.23189 0.35109 0.41694 0.0
H515 H 0.2218 0.3648 0.3976 0.0
H516 H 0.19636 0.42359 0.35558 0.0
H517 H 0.19249 0.40744 0.31321 0.0
H518 H 0.17918 0.38722 0.32216 0.0
H519 H 0.1835 0.40299 0.36451 0.0
C520 C 0.14467 0.68513 0.3424 0.0
C521 C 0.14485 0.69959 0.34537 0.0
C522 C 0.12224 0.70241 0.33328 0.0
C523 C 0.13378 0.70815 0.34081 0.0
C524 C 0.12194 0.68785 0.33069 0.0
C525 C 0.13307 0.67932 0.33517 0.0
U526 U 0.17676 0.67657 0.36552 0.0
O527 O 0.18456 0.65613 0.37326 0.0
O528 O 0.19782 0.66934 0.35956 0.0
C529 C 0.1963 0.65714 0.36599 0.0
C530 C 0.15666 0.6761 0.34631 0.0
C531 C 0.20023 0.64467 0.35774 0.0
C532 C 0.20093 0.63178 0.33567 0.0
C533 C 0.19615 0.64317 0.34358 0.0
C534 C 0.21354 0.623 0.35609 0.0
C535 C 0.20983 0.62163 0.34178 0.0
C536 C 0.20881 0.63442 0.36396 0.0
C537 C 0.18588 0.70275 0.39568 0.0
C538 C 0.19991 0.69977 0.41708 0.0
C539 C 0.19495 0.72316 0.40828 0.0
C540 C 0.18731 0.71736 0.39707 0.0
C541 C 0.20138 0.71447 0.41844 0.0
C542 C 0.19226 0.69395 0.40576 0.0
C543 C 0.17733 0.69722 0.38384 0.0
O544 O 0.16928 0.68155 0.34414 0.0
O545 O 0.15564 0.66944 0.35845 0.0
O546 O 0.1704 0.68533 0.38593 0.0
O547 O 0.18309 0.69815 0.3713 0.0
H548 H 0.15365 0.70429 0.35104 0.0
H549 H 0.13426 0.71928 0.34314 0.0
H550 H 0.11331 0.68311 0.32482 0.0
H551 H 0.13273 0.66819 0.33277 0.0
H552 H 0.19769 0.63095 0.32474 0.0
H553 H 0.18947 0.65093 0.33857 0.0
H554 H 0.22048 0.6155 0.36111 0.0
H555 H 0.21211 0.63541 0.37486 0.0
H556 H 0.20482 0.69278 0.42465 0.0
H557 H 0.19566 0.7345 0.4091 0.0
H558 H 0.18239 0.72435 0.38948 0.0
H559 H 0.19132 0.68263 0.40491 0.0
C560 C 0.83955 0.64444 0.35849 0.0
C561 C 0.84069 0.64409 0.34374 0.0
C562 C 0.83061 0.62033 0.34328 0.0
C563 C 0.83621 0.6322 0.33622 0.0
C564 C 0.82989 0.62061 0.3581 0.0
C565 C 0.83427 0.63255 0.3656 0.0
U566 U 0.86286 0.67702 0.36508 0.0
O567 O 0.85689 0.69872 0.37011 0.0
O568 O 0.86995 0.68671 0.38497 0.0
C569 C 0.86289 0.69833 0.38262 0.0
C570 C 0.84335 0.6572 0.36656 0.0
C571 C 0.85439 0.70388 0.39434 0.0
C572 C 0.84114 0.70102 0.41614 0.0
C573 C 0.84896 0.69521 0.40512 0.0
C574 C 0.84402 0.72415 0.40567 0.0
C575 C 0.83851 0.71557 0.4165 0.0
C576 C 0.85187 0.71837 0.39476 0.0
C577 C 0.89411 0.68381 0.33955 0.0
C578 C 0.91615 0.69695 0.34255 0.0
C579 C 0.90725 0.69206 0.31911 0.0
C580 C 0.89561 0.68503 0.32491 0.0
C581 C 0.91777 0.69801 0.32783 0.0
C582 C 0.90443 0.68992 0.34837 0.0
C583 C 0.88195 0.67569 0.34515 0.0
O584 O 0.85522 0.65674 0.37378 0.0
O585 O 0.84152 0.66927 0.36 0.0
O586 O 0.86948 0.68131 0.34324 0.0
O587 O 0.88347 0.66977 0.35762 0.0
H588 H 0.84479 0.65311 0.33798 0.0
H589 H 0.83679 0.6325 0.32483 0.0
H590 H 0.82589 0.61161 0.36395 0.0
H591 H 0.83337 0.63255 0.37698 0.0
H592 H 0.83696 0.69411 0.42426 0.0
H593 H 0.85072 0.68398 0.40503 0.0
H594 H 0.8424 0.7354 0.40571 0.0
H595 H 0.85603 0.72527 0.38662 0.0
H596 H 0.92406 0.70132 0.3496 0.0
H597 H 0.90793 0.69292 0.30775 0.0
H598 H 0.88777 0.68044 0.31791 0.0
H599 H 0.90352 0.68915 0.35972 0.0
C600 C 0.85429 0.39085 0.33968 0.0
C601 C 0.84584 0.39867 0.34881 0.0
C602 C 0.83782 0.41321 0.32907 0.0
C603 C 0.8377 0.40982 0.34354 0.0
C604 C 0.8464 0.40534 0.32007 0.0
C605 C 0.85452 0.39431 0.32532 0.0
U606 U 0.86412 0.36022 0.36501 0.0
O607 O 0.8715 0.33914 0.35949 0.0
O608 O 0.88539 0.35335 0.37148 0.0
C609 C 0.88419 0.34134 0.36475 0.0
C610 C 0.86306 0.37907 0.34464 0.0
C611 C 0.89612 0.33755 0.35561 0.0
C612 C 0.90649 0.3347 0.33239 0.0
C613 C 0.89547 0.33935 0.34092 0.0
C614 C 0.9192 0.32687 0.35314 0.0
C615 C 0.91843 0.32825 0.33839 0.0
C616 C 0.90814 0.33143 0.36165 0.0
C617 C 0.84162 0.35099 0.39754 0.0
C618 C 0.84012 0.32826 0.4094 0.0
C619 C 0.83026 0.34881 0.42041 0.0
C620 C 0.83461 0.35707 0.40893 0.0
C621 C 0.83276 0.33425 0.4207 0.0
C622 C 0.84454 0.33655 0.39796 0.0
C623 C 0.8451 0.35974 0.38508 0.0
O624 O 0.87023 0.38096 0.3564 0.0
O625 O 0.8573 0.36647 0.34368 0.0
O626 O 0.84324 0.35371 0.37277 0.0
O627 O 0.85682 0.36724 0.38584 0.0
H628 H 0.84549 0.39615 0.35994 0.0
H629 H 0.83114 0.41561 0.35074 0.0
H630 H 0.84695 0.40779 0.30892 0.0
H631 H 0.86102 0.38845 0.31811 0.0
H632 H 0.90564 0.3361 0.32109 0.0
H633 H 0.88635 0.34414 0.33602 0.0
H634 H 0.92815 0.32184 0.3581 0.0
H635 H 0.90885 0.32993 0.37295 0.0
H636 H 0.84239 0.31712 0.40937 0.0
H637 H 0.82451 0.35376 0.42884 0.0
H638 H 0.83222 0.36819 0.4088 0.0
H639 H 0.85002 0.33163 0.38933 0.0
C640 C 0.68442 0.14337 0.706 0.0
C641 C 0.69835 0.14146 0.7015 0.0
C642 C 0.70019 0.1202 0.71594 0.0
C643 C 0.70616 0.13001 0.70644 0.0
C644 C 0.68609 0.12198 0.72011 0.0
C645 C 0.67831 0.13348 0.7152 0.0
U646 U 0.67829 0.17523 0.68184 0.0
O647 O 0.6585 0.18458 0.67414 0.0
O648 O 0.67303 0.19702 0.68733 0.0
C649 C 0.66068 0.19641 0.68098 0.0
C650 C 0.67636 0.1559 0.7017 0.0
C651 C 0.64869 0.20221 0.68891 0.0
C652 C 0.62633 0.19979 0.70135 0.0
C653 C 0.63766 0.19372 0.69419 0.0
C654 C 0.63699 0.22283 0.69812 0.0
C655 C 0.6259 0.21444 0.70344 0.0
C656 C 0.64822 0.21679 0.69094 0.0
C657 C 0.70443 0.18201 0.65125 0.0
C658 C 0.70162 0.19676 0.63035 0.0
C659 C 0.72498 0.19003 0.63809 0.0
C660 C 0.71908 0.18246 0.64931 0.0
C661 C 0.71635 0.19731 0.62847 0.0
C662 C 0.6957 0.18923 0.64168 0.0
C663 C 0.69871 0.17383 0.66326 0.0
O664 O 0.68294 0.16802 0.70339 0.0
O665 O 0.66955 0.15504 0.68963 0.0
O666 O 0.68629 0.16774 0.66151 0.0
O667 O 0.7003 0.1796 0.67572 0.0
H668 H 0.70324 0.14894 0.69433 0.0
H669 H 0.71692 0.12886 0.70286 0.0
H670 H 0.68119 0.11474 0.7275 0.0
H671 H 0.66758 0.13478 0.71882 0.0
H672 H 0.61803 0.19301 0.70542 0.0
H673 H 0.63778 0.18242 0.69279 0.0
H674 H 0.63692 0.23415 0.69933 0.0
H675 H 0.65655 0.22356 0.68688 0.0
H676 H 0.69468 0.20236 0.62321 0.0
H677 H 0.73633 0.19005 0.63686 0.0
H678 H 0.726 0.17692 0.65652 0.0
H679 H 0.68435 0.18908 0.64298 0.0
C680 C 0.33453 0.1824 0.65125 0.0
C681 C 0.343 0.18894 0.64095 0.0
C682 C 0.32199 0.19735 0.62867 0.0
C683 C 0.33678 0.1963 0.62971 0.0
C684 C 0.31361 0.19072 0.639 0.0
C685 C 0.31982 0.18333 0.65013 0.0
U686 U 0.3626 0.17594 0.68021 0.0
O687 O 0.35928 0.17026 0.70248 0.0
O688 O 0.37062 0.15592 0.6886 0.0
C689 C 0.3651 0.15788 0.70112 0.0
C690 C 0.34059 0.17458 0.66328 0.0
C691 C 0.35718 0.14595 0.70733 0.0
C692 C 0.34128 0.12573 0.7055 0.0
C693 C 0.34867 0.13694 0.69914 0.0
C694 C 0.35079 0.13252 0.72824 0.0
C695 C 0.34219 0.12347 0.72015 0.0
C696 C 0.35821 0.14361 0.72189 0.0
C697 C 0.39482 0.19986 0.68506 0.0
C698 C 0.40839 0.20098 0.70686 0.0
C699 C 0.41744 0.21219 0.68574 0.0
C700 C 0.40545 0.20767 0.67828 0.0
C701 C 0.41901 0.20905 0.70019 0.0
C702 C 0.39646 0.19639 0.69937 0.0
C703 C 0.38195 0.19573 0.67723 0.0
O704 O 0.35235 0.16773 0.66103 0.0
O705 O 0.34051 0.18115 0.67542 0.0
O706 O 0.37002 0.19758 0.68393 0.0
O707 O 0.38244 0.18362 0.67064 0.0
H708 H 0.3544 0.18842 0.64163 0.0
H709 H 0.34352 0.20139 0.62199 0.0
H710 H 0.30221 0.19116 0.63842 0.0
H711 H 0.31309 0.17832 0.65793 0.0
H712 H 0.33465 0.11902 0.69901 0.0
H713 H 0.34767 0.1386 0.68788 0.0
H714 H 0.35187 0.13096 0.73951 0.0
H715 H 0.36476 0.15042 0.72838 0.0
H716 H 0.40909 0.19849 0.71799 0.0
H717 H 0.42547 0.21816 0.68017 0.0
H718 H 0.40441 0.21039 0.66722 0.0
H719 H 0.38838 0.19033 0.7048 0.0
C720 C 0.33371 0.85651 0.65261 0.0
C721 C 0.34249 0.85111 0.64209 0.0
C722 C 0.32203 0.84098 0.62989 0.0
C723 C 0.3367 0.84346 0.6308 0.0
C724 C 0.31334 0.84641 0.64048 0.0
C725 C 0.31911 0.85408 0.65167 0.0
U726 U 0.36 0.86498 0.68296 0.0
O727 O 0.36774 0.88575 0.69012 0.0
O728 O 0.35531 0.87228 0.70434 0.0
C729 C 0.36107 0.88475 0.7022 0.0
C730 C 0.33924 0.86503 0.66446 0.0
C731 C 0.35226 0.89686 0.70603 0.0
C732 C 0.32938 0.90811 0.70754 0.0
C733 C 0.33773 0.89695 0.70305 0.0
C734 C 0.35004 0.91951 0.71758 0.0
C735 C 0.3354 0.91947 0.71499 0.0
C736 C 0.35837 0.9083 0.71318 0.0
C737 C 0.39122 0.83971 0.6901 0.0
C738 C 0.40882 0.84159 0.70884 0.0
C739 C 0.40827 0.82114 0.69376 0.0
C740 C 0.39688 0.82673 0.68631 0.0
C741 C 0.41431 0.82838 0.70523 0.0
C742 C 0.39731 0.84719 0.70136 0.0
C743 C 0.37874 0.84479 0.68234 0.0
O744 O 0.33816 0.8593 0.67704 0.0
O745 O 0.35127 0.87179 0.66252 0.0
O746 O 0.38019 0.85669 0.67534 0.0
O747 O 0.36665 0.84368 0.68897 0.0
H748 H 0.35381 0.8528 0.64257 0.0
H749 H 0.3437 0.83932 0.62289 0.0
H750 H 0.302 0.8449 0.64003 0.0
H751 H 0.31212 0.85823 0.65959 0.0
H752 H 0.31818 0.90782 0.7052 0.0
H753 H 0.3328 0.88828 0.69743 0.0
H754 H 0.35501 0.92802 0.7234 0.0
H755 H 0.36956 0.90844 0.71558 0.0
H756 H 0.41316 0.84741 0.71766 0.0
H757 H 0.41236 0.81107 0.69052 0.0
H758 H 0.39236 0.82082 0.67763 0.0
H759 H 0.39305 0.85723 0.70446 0.0
C760 C 0.64487 0.8364 0.6859 0.0
C761 C 0.64474 0.83772 0.70064 0.0
C762 C 0.62189 0.82565 0.70176 0.0
C763 C 0.6334 0.83235 0.70848 0.0
C764 C 0.62182 0.82484 0.68697 0.0
C765 C 0.63322 0.83011 0.67913 0.0
U766 U 0.67656 0.86087 0.67796 0.0
O767 O 0.69836 0.85551 0.67232 0.0
O768 O 0.68538 0.86778 0.65761 0.0
C769 C 0.69741 0.86134 0.65977 0.0
C770 C 0.65731 0.84073 0.6775 0.0
C771 C 0.70318 0.85314 0.64798 0.0
C772 C 0.70056 0.83936 0.62652 0.0
C773 C 0.69453 0.84666 0.63777 0.0
C774 C 0.72388 0.84485 0.63564 0.0
C775 C 0.71533 0.83834 0.62535 0.0
C776 C 0.71787 0.85216 0.64679 0.0
C777 C 0.68411 0.89293 0.70148 0.0
C778 C 0.70683 0.90439 0.70578 0.0
C779 C 0.68525 0.91634 0.71168 0.0
C780 C 0.67736 0.90481 0.70679 0.0
C781 C 0.70011 0.91622 0.71143 0.0
C782 C 0.69891 0.89289 0.70082 0.0
C783 C 0.67554 0.88056 0.69724 0.0
O784 O 0.65617 0.85243 0.67015 0.0
O785 O 0.66964 0.8395 0.68377 0.0
O786 O 0.68128 0.86821 0.69939 0.0
O787 O 0.66897 0.8815 0.68504 0.0
H788 H 0.65355 0.84263 0.70612 0.0
H789 H 0.6337 0.83333 0.71985 0.0
H790 H 0.61319 0.81965 0.68146 0.0
H791 H 0.6331 0.82897 0.66778 0.0
H792 H 0.69368 0.83436 0.61885 0.0
H793 H 0.68315 0.84725 0.63848 0.0
H794 H 0.73528 0.84449 0.63497 0.0
H795 H 0.72475 0.85716 0.65447 0.0
H796 H 0.71823 0.90381 0.70555 0.0
H797 H 0.67968 0.92534 0.7157 0.0
H798 H 0.66595 0.90509 0.70733 0.0
H799 H 0.70438 0.88386 0.69671 0.0
C800 C 0.63925 0.83876 0.35801 0.0
C801 C 0.6394 0.84004 0.34326 0.0
C802 C 0.61595 0.82921 0.34176 0.0
C803 C 0.62789 0.83527 0.33522 0.0
C804 C 0.61573 0.82834 0.35658 0.0
C805 C 0.62728 0.83303 0.36459 0.0
U806 U 0.6716 0.8622 0.36566 0.0
O807 O 0.68002 0.86975 0.38603 0.0
O808 O 0.69293 0.85641 0.37254 0.0
C809 C 0.69164 0.86242 0.3849 0.0
C810 C 0.65161 0.84285 0.36666 0.0
C811 C 0.69542 0.85361 0.39719 0.0
C812 C 0.6967 0.83078 0.4088 0.0
C813 C 0.69212 0.83918 0.39755 0.0
C814 C 0.70742 0.85123 0.41979 0.0
C815 C 0.70456 0.83667 0.41998 0.0
C816 C 0.70294 0.8596 0.40847 0.0
C817 C 0.68003 0.89245 0.33928 0.0
C818 C 0.69446 0.91362 0.34218 0.0
C819 C 0.6889 0.9051 0.31878 0.0
C820 C 0.68117 0.89395 0.32463 0.0
C821 C 0.69567 0.91508 0.32745 0.0
C822 C 0.68675 0.90236 0.34805 0.0
C823 C 0.67151 0.88061 0.34489 0.0
O824 O 0.66402 0.84082 0.36095 0.0
O825 O 0.65076 0.85494 0.37324 0.0
O826 O 0.66496 0.88258 0.3569 0.0
O827 O 0.67717 0.86811 0.34391 0.0
H828 H 0.64851 0.84448 0.33793 0.0
H829 H 0.62856 0.83598 0.32385 0.0
H830 H 0.60665 0.82399 0.36201 0.0
H831 H 0.62692 0.83202 0.37597 0.0
H832 H 0.69416 0.81965 0.40872 0.0
H833 H 0.68622 0.83435 0.38901 0.0
H834 H 0.71355 0.85607 0.42816 0.0
H835 H 0.70559 0.87071 0.40839 0.0
H836 H 0.69964 0.92106 0.34915 0.0
H837 H 0.68942 0.90601 0.30741 0.0
H838 H 0.676 0.88648 0.31767 0.0
H839 H 0.68604 0.9014 0.35941 0.0
C840 C 0.6459 0.18443 0.33978 0.0
C841 C 0.63558 0.19039 0.34843 0.0
C842 C 0.62331 0.1997 0.32772 0.0
C843 C 0.62435 0.19791 0.34244 0.0
C844 C 0.63371 0.1937 0.31918 0.0
C845 C 0.64483 0.18616 0.32514 0.0
U846 U 0.67593 0.17609 0.3665 0.0
O847 O 0.68292 0.15536 0.37422 0.0
O848 O 0.69736 0.16879 0.36201 0.0
C849 C 0.69519 0.15641 0.36789 0.0
C850 C 0.65767 0.17602 0.34551 0.0
C851 C 0.69942 0.14419 0.35944 0.0
C852 C 0.7001 0.13157 0.33723 0.0
C853 C 0.69524 0.1428 0.34531 0.0
C854 C 0.71305 0.12277 0.35743 0.0
C855 C 0.7092 0.12148 0.34315 0.0
C856 C 0.70823 0.13403 0.36547 0.0
C857 C 0.68378 0.20019 0.39815 0.0
C858 C 0.7058 0.20082 0.41145 0.0
C859 C 0.68578 0.21408 0.41956 0.0
C860 C 0.6778 0.20918 0.40809 0.0
C861 C 0.69996 0.21013 0.42129 0.0
C862 C 0.69778 0.19588 0.40001 0.0
C863 C 0.67546 0.19602 0.38561 0.0
O864 O 0.6703 0.18182 0.34467 0.0
O865 O 0.65552 0.16929 0.35748 0.0
O866 O 0.66809 0.18427 0.38669 0.0
O867 O 0.68195 0.19734 0.37346 0.0
H868 H 0.63617 0.18922 0.35977 0.0
H869 H 0.6166 0.20249 0.34933 0.0
H870 H 0.63315 0.19466 0.30781 0.0
H871 H 0.6526 0.18158 0.31826 0.0
H872 H 0.69676 0.13081 0.32633 0.0
H873 H 0.68838 0.1505 0.34047 0.0
H874 H 0.72014 0.1153 0.3623 0.0
H875 H 0.71159 0.13493 0.37636 0.0
H876 H 0.71661 0.1974 0.41256 0.0
H877 H 0.68097 0.22132 0.42682 0.0
H878 H 0.66702 0.21265 0.40682 0.0
H879 H 0.70259 0.18889 0.3925 0.0
C880 C 0.33529 0.14708 0.36176 0.0
C881 C 0.34438 0.13726 0.35571 0.0
C882 C 0.32417 0.12339 0.34729 0.0
C883 C 0.33887 0.12552 0.34855 0.0
C884 C 0.31517 0.13343 0.35321 0.0
C885 C 0.32067 0.14508 0.36038 0.0
U886 U 0.36147 0.1778 0.36915 0.0
O887 O 0.35674 0.19949 0.37549 0.0
O888 O 0.36919 0.18592 0.38947 0.0
C889 C 0.3629 0.19808 0.38785 0.0
C890 C 0.34059 0.15935 0.36981 0.0
C891 C 0.35503 0.2034 0.40006 0.0
C892 C 0.34014 0.19993 0.42067 0.0
C893 C 0.34706 0.19448 0.40888 0.0
C894 C 0.34891 0.22323 0.41478 0.0
C895 C 0.34107 0.21438 0.42383 0.0
C896 C 0.35581 0.21779 0.40307 0.0
C897 C 0.3935 0.18494 0.34542 0.0
C898 C 0.40592 0.20734 0.34261 0.0
C899 C 0.41661 0.18594 0.33436 0.0
C900 C 0.40486 0.17819 0.33903 0.0
C901 C 0.41723 0.20066 0.33591 0.0
C902 C 0.3942 0.19957 0.34736 0.0
C903 C 0.38089 0.17662 0.34953 0.0
O904 O 0.35246 0.15777 0.37687 0.0
O905 O 0.33972 0.1716 0.36341 0.0
O906 O 0.36868 0.18281 0.34771 0.0
O907 O 0.38178 0.1697 0.36152 0.0
H908 H 0.35572 0.13859 0.35661 0.0
H909 H 0.34613 0.118 0.34421 0.0
H910 H 0.30382 0.13237 0.35221 0.0
H911 H 0.31346 0.15256 0.3649 0.0
H912 H 0.33427 0.19278 0.42742 0.0
H913 H 0.34629 0.18332 0.40674 0.0
H914 H 0.34962 0.23444 0.41665 0.0
H915 H 0.36184 0.22486 0.39636 0.0
H916 H 0.4059 0.21865 0.34386 0.0
H917 H 0.42519 0.18036 0.3295 0.0
H918 H 0.40457 0.16691 0.33751 0.0
H919 H 0.38558 0.20502 0.35231 0.0
C920 C 0.35601 0.89316 0.34092 0.0
C921 C 0.342 0.89535 0.34502 0.0
C922 C 0.34138 0.91728 0.33147 0.0
C923 C 0.33475 0.90727 0.34032 0.0
C924 C 0.35554 0.91514 0.32768 0.0
C925 C 0.36275 0.90321 0.33235 0.0
U926 U 0.362 0.86102 0.36499 0.0
O927 O 0.36699 0.8392 0.35927 0.0
O928 O 0.38186 0.85152 0.37219 0.0
C929 C 0.3795 0.83975 0.36531 0.0
C930 C 0.36363 0.88031 0.34506 0.0
C931 C 0.39132 0.83406 0.35705 0.0
C932 C 0.4137 0.8367 0.3447 0.0
C933 C 0.40231 0.84265 0.35184 0.0
C934 C 0.40314 0.81358 0.34767 0.0
C935 C 0.41433 0.82205 0.34263 0.0
C936 C 0.39182 0.81952 0.35482 0.0
C937 C 0.3378 0.85472 0.39698 0.0
C938 C 0.3366 0.83306 0.41075 0.0
C939 C 0.32391 0.85357 0.41844 0.0
C940 C 0.32897 0.86112 0.40678 0.0
C941 C 0.32754 0.83938 0.42054 0.0
C942 C 0.3417 0.84067 0.39909 0.0
C943 C 0.34254 0.86283 0.38455 0.0
O944 O 0.37094 0.88098 0.35685 0.0
O945 O 0.35656 0.86841 0.34368 0.0
O946 O 0.34034 0.85686 0.37226 0.0
O947 O 0.35503 0.86892 0.38558 0.0
H948 H 0.33659 0.88773 0.35165 0.0
H949 H 0.32382 0.90844 0.34333 0.0
H950 H 0.36108 0.9227 0.32109 0.0
H951 H 0.37358 0.90174 0.32912 0.0
H952 H 0.42214 0.84355 0.34106 0.0
H953 H 0.40218 0.85392 0.35341 0.0
H954 H 0.40305 0.80232 0.34603 0.0
H955 H 0.38346 0.81269 0.35871 0.0
H956 H 0.33951 0.82214 0.41189 0.0
H957 H 0.3172 0.8589 0.42584 0.0
H958 H 0.32589 0.87198 0.40536 0.0
H959 H 0.34854 0.83554 0.39164 0.0
C960 C 0.6834 0.64542 0.20959 0.0
C961 C 0.68974 0.63547 0.20083 0.0
C962 C 0.69884 0.62291 0.22143 0.0
C963 C 0.69735 0.62426 0.20671 0.0
C964 C 0.69244 0.63292 0.2301 0.0
C965 C 0.68482 0.64402 0.22424 0.0
U966 U 0.67525 0.67537 0.18291 0.0
O967 O 0.65459 0.68282 0.17543 0.0
O968 O 0.66848 0.69693 0.18753 0.0
C969 C 0.65591 0.69496 0.18192 0.0
C970 C 0.67508 0.65726 0.20396 0.0
C971 C 0.64385 0.69961 0.19056 0.0
C972 C 0.62145 0.69528 0.20249 0.0
C973 C 0.63278 0.69041 0.19447 0.0
C974 C 0.63209 0.71853 0.20286 0.0
C975 C 0.62102 0.70939 0.20685 0.0
C976 C 0.64333 0.71371 0.19479 0.0
C977 C 0.69942 0.68242 0.15096 0.0
C978 C 0.70101 0.70422 0.13745 0.0
C979 C 0.71294 0.68346 0.12924 0.0
C980 C 0.70784 0.67589 0.14087 0.0
C981 C 0.70976 0.69779 0.12745 0.0
C982 C 0.69588 0.6966 0.14908 0.0
C983 C 0.69504 0.67441 0.16361 0.0
O984 O 0.68115 0.66973 0.20468 0.0
O985 O 0.66815 0.65519 0.19209 0.0
O986 O 0.68308 0.66732 0.16266 0.0
O987 O 0.6966 0.68095 0.1757 0.0
H988 H 0.68884 0.63635 0.18948 0.0
H989 H 0.70225 0.6168 0.19974 0.0
H990 H 0.69318 0.6321 0.24146 0.0
H991 H 0.67995 0.65152 0.2312 0.0
H992 H 0.61316 0.68794 0.20548 0.0
H993 H 0.63287 0.67947 0.19139 0.0
H994 H 0.63201 0.72951 0.20586 0.0
H995 H 0.65165 0.72104 0.19181 0.0
H996 H 0.69845 0.71525 0.13654 0.0
H997 H 0.71943 0.67808 0.12167 0.0
H998 H 0.71066 0.66493 0.1421 0.0
H999 H 0.68939 0.70186 0.15675 0.0
C1000 C 0.33293 0.67969 0.147 0.0
C1001 C 0.34175 0.68681 0.13739 0.0
C1002 C 0.32117 0.69534 0.12451 0.0
C1003 C 0.33591 0.69451 0.12619 0.0
C1004 C 0.31244 0.68814 0.13414 0.0
C1005 C 0.31826 0.68039 0.14524 0.0
U1006 U 0.35939 0.67302 0.17733 0.0
O1007 O 0.35502 0.66607 0.19899 0.0
O1008 O 0.36769 0.65284 0.18519 0.0
C1009 C 0.361 0.6538 0.19725 0.0
C1010 C 0.33858 0.67149 0.15897 0.0
C1011 C 0.35231 0.64149 0.20134 0.0
C1012 C 0.32963 0.62925 0.2021 0.0
C1013 C 0.33803 0.64052 0.1974 0.0
C1014 C 0.3498 0.61947 0.21431 0.0
C1015 C 0.33538 0.61867 0.21075 0.0
C1016 C 0.35817 0.63081 0.20968 0.0
C1017 C 0.38965 0.69992 0.18412 0.0
C1018 C 0.41096 0.69723 0.19832 0.0
C1019 C 0.40251 0.72051 0.19254 0.0
C1020 C 0.39126 0.71455 0.18501 0.0
C1021 C 0.41247 0.71194 0.19936 0.0
C1022 C 0.39959 0.69126 0.19082 0.0
C1023 C 0.37747 0.69417 0.17617 0.0
O1024 O 0.3508 0.66536 0.15715 0.0
O1025 O 0.33737 0.67734 0.1714 0.0
O1026 O 0.36523 0.69486 0.18254 0.0
O1027 O 0.37928 0.68227 0.16945 0.0
H1028 H 0.35311 0.68648 0.13858 0.0
H1029 H 0.3429 0.70005 0.11901 0.0
H1030 H 0.30106 0.68841 0.13305 0.0
H1031 H 0.31127 0.67494 0.1525 0.0
H1032 H 0.31861 0.62885 0.19903 0.0
H1033 H 0.33331 0.6486 0.19086 0.0
H1034 H 0.35452 0.61157 0.22105 0.0
H1035 H 0.36917 0.63137 0.21283 0.0
H1036 H 0.41839 0.69035 0.20354 0.0
H1037 H 0.40345 0.73186 0.19295 0.0
H1038 H 0.38374 0.72143 0.17988 0.0
H1039 H 0.39854 0.67992 0.19032 0.0
C1040 C 0.33451 0.35688 0.1517 0.0
C1041 C 0.34358 0.34997 0.14243 0.0
C1042 C 0.32358 0.34345 0.12732 0.0
C1043 C 0.33817 0.34333 0.13034 0.0
C1044 C 0.31459 0.35028 0.13679 0.0
C1045 C 0.32 0.35692 0.14879 0.0
U1046 U 0.36039 0.36264 0.18296 0.0
O1047 O 0.36798 0.38254 0.19221 0.0
O1048 O 0.35539 0.36778 0.20497 0.0
C1049 C 0.36148 0.38025 0.20423 0.0
C1050 C 0.33974 0.36424 0.1644 0.0
C1051 C 0.35339 0.39203 0.21013 0.0
C1052 C 0.33905 0.41302 0.20762 0.0
C1053 C 0.34637 0.40184 0.20154 0.0
C1054 C 0.34559 0.40463 0.23085 0.0
C1055 C 0.33853 0.41451 0.22237 0.0
C1056 C 0.35293 0.39354 0.22479 0.0
C1057 C 0.39202 0.33846 0.18918 0.0
C1058 C 0.40494 0.3368 0.21135 0.0
C1059 C 0.41345 0.32465 0.19078 0.0
C1060 C 0.4021 0.32985 0.18289 0.0
C1061 C 0.41492 0.32791 0.20516 0.0
C1062 C 0.39362 0.34205 0.20343 0.0
C1063 C 0.37967 0.34308 0.1809 0.0
O1064 O 0.3387 0.35723 0.17632 0.0
O1065 O 0.35171 0.3713 0.16321 0.0
O1066 O 0.3808 0.35544 0.17472 0.0
O1067 O 0.36734 0.34101 0.18691 0.0
H1068 H 0.35483 0.34978 0.14448 0.0
H1069 H 0.34544 0.33827 0.12327 0.0
H1070 H 0.30329 0.35035 0.13504 0.0
H1071 H 0.3128 0.36211 0.15585 0.0
H1072 H 0.33362 0.42037 0.20078 0.0
H1073 H 0.34654 0.40086 0.19018 0.0
H1074 H 0.3456 0.40554 0.24222 0.0
H1075 H 0.35833 0.38615 0.23161 0.0
H1076 H 0.40585 0.33969 0.22234 0.0
H1077 H 0.42084 0.31773 0.1857 0.0
H1078 H 0.40103 0.32694 0.17191 0.0
H1079 H 0.386 0.34875 0.20847 0.0
C1080 C 0.64356 0.33994 0.18859 0.0
C1081 C 0.6436 0.34268 0.20312 0.0
C1082 C 0.62062 0.33107 0.20556 0.0
C1083 C 0.63226 0.33823 0.21152 0.0
C1084 C 0.62043 0.32878 0.19092 0.0
C1085 C 0.63182 0.33313 0.18254 0.0
U1086 U 0.67563 0.36313 0.17901 0.0
O1087 O 0.69715 0.35703 0.17316 0.0
O1088 O 0.68416 0.36903 0.15823 0.0
C1089 C 0.69609 0.36242 0.16042 0.0
C1090 C 0.65589 0.34348 0.17971 0.0
C1091 C 0.70138 0.35364 0.14886 0.0
C1092 C 0.698 0.33712 0.12956 0.0
C1093 C 0.69243 0.3452 0.14052 0.0
C1094 C 0.72145 0.34583 0.13526 0.0
C1095 C 0.71262 0.33728 0.12687 0.0
C1096 C 0.71589 0.3539 0.14611 0.0
C1097 C 0.68438 0.39578 0.20123 0.0
C1098 C 0.70723 0.4077 0.20182 0.0
C1099 C 0.68721 0.41807 0.21344 0.0
C1100 C 0.67869 0.40675 0.20911 0.0
C1101 C 0.70164 0.4186 0.21001 0.0
C1102 C 0.69867 0.39642 0.19743 0.0
C1103 C 0.6754 0.38353 0.1976 0.0
O1104 O 0.6549 0.35491 0.17192 0.0
O1105 O 0.66832 0.34217 0.18578 0.0
O1106 O 0.68097 0.37115 0.20006 0.0
O1107 O 0.6687 0.3842 0.18547 0.0
H1108 H 0.65249 0.34802 0.20803 0.0
H1109 H 0.63266 0.34032 0.22273 0.0
H1110 H 0.6117 0.32319 0.186 0.0
H1111 H 0.63158 0.33091 0.17136 0.0
H1112 H 0.69093 0.33058 0.12336 0.0
H1113 H 0.68118 0.34482 0.14249 0.0
H1114 H 0.7327 0.34642 0.13336 0.0
H1115 H 0.72296 0.3604 0.15236 0.0
H1116 H 0.71825 0.40787 0.19884 0.0
H1117 H 0.68259 0.42618 0.21985 0.0
H1118 H 0.66769 0.40643 0.21216 0.0
H1119 H 0.70325 0.38809 0.19128 0.0
C1120 C 0.64508 0.33634 0.86061 0.0
C1121 C 0.63501 0.34488 0.85394 0.0
C1122 C 0.62276 0.32406 0.84487 0.0
C1123 C 0.62389 0.33877 0.84618 0.0
C1124 C 0.63286 0.31562 0.85162 0.0
C1125 C 0.64387 0.3217 0.85941 0.0
U1126 U 0.67454 0.36379 0.8684 0.0
O1127 O 0.68206 0.37164 0.88896 0.0
O1128 O 0.69635 0.36004 0.87528 0.0
C1129 C 0.69443 0.36567 0.88773 0.0
C1130 C 0.6569 0.34225 0.86895 0.0
C1131 C 0.69904 0.35706 0.89982 0.0
C1132 C 0.69958 0.33474 0.91244 0.0
C1133 C 0.69446 0.34305 0.90135 0.0
C1134 C 0.71359 0.35447 0.92085 0.0
C1135 C 0.70932 0.34031 0.92225 0.0
C1136 C 0.70852 0.36275 0.90971 0.0
C1137 C 0.68098 0.39552 0.84408 0.0
C1138 C 0.70261 0.40953 0.8443 0.0
C1139 C 0.68303 0.4165 0.82942 0.0
C1140 C 0.67515 0.40493 0.83429 0.0
C1141 C 0.69694 0.41883 0.83421 0.0
C1142 C 0.69469 0.398 0.84921 0.0
C1143 C 0.6729 0.38285 0.8483 0.0
O1144 O 0.66936 0.34184 0.86298 0.0
O1145 O 0.65464 0.35408 0.87565 0.0
O1146 O 0.6659 0.38368 0.86019 0.0
O1147 O 0.67956 0.3709 0.84692 0.0
H1148 H 0.63575 0.35622 0.85467 0.0
H1149 H 0.61634 0.34556 0.841 0.0
H1150 H 0.6322 0.30426 0.85099 0.0
H1151 H 0.65148 0.31492 0.86452 0.0
H1152 H 0.69593 0.32394 0.91332 0.0
H1153 H 0.68708 0.33848 0.89386 0.0
H1154 H 0.72118 0.35906 0.92811 0.0
H1155 H 0.71218 0.37354 0.90868 0.0
H1156 H 0.71321 0.41112 0.84835 0.0
H1157 H 0.67839 0.42336 0.82156 0.0
H1158 H 0.66459 0.40317 0.83019 0.0
H1159 H 0.69936 0.39088 0.85683 0.0
C1160 C 0.64334 0.6867 0.84465 0.0
C1161 C 0.64339 0.70145 0.84558 0.0
C1162 C 0.61955 0.70228 0.83566 0.0
C1163 C 0.63165 0.70915 0.84111 0.0
C1164 C 0.61944 0.68748 0.83515 0.0
C1165 C 0.6312 0.6798 0.83955 0.0
U1166 U 0.6759 0.6785 0.86764 0.0
O1167 O 0.68466 0.6581 0.87412 0.0
O1168 O 0.69738 0.67267 0.86125 0.0
C1169 C 0.69643 0.66012 0.86707 0.0
C1170 C 0.65596 0.67836 0.84828 0.0
C1171 C 0.70162 0.64825 0.85858 0.0
C1172 C 0.6981 0.62617 0.84601 0.0
C1173 C 0.69257 0.63771 0.85323 0.0
C1174 C 0.72169 0.63571 0.84917 0.0
C1175 C 0.71277 0.62494 0.84403 0.0
C1176 C 0.71618 0.64718 0.85637 0.0
C1177 C 0.68424 0.70172 0.89987 0.0
C1178 C 0.70665 0.70241 0.91248 0.0
C1179 C 0.68663 0.71501 0.9216 0.0
C1180 C 0.67841 0.7103 0.91024 0.0
C1181 C 0.70091 0.71125 0.92281 0.0
C1182 C 0.69838 0.69767 0.90114 0.0
C1183 C 0.67551 0.69756 0.88763 0.0
O1184 O 0.66825 0.6847 0.84664 0.0
O1185 O 0.65522 0.67078 0.85989 0.0
O1186 O 0.66893 0.68536 0.88863 0.0
O1187 O 0.68121 0.69974 0.87519 0.0
H1188 H 0.65261 0.70705 0.84951 0.0
H1189 H 0.63225 0.72052 0.84153 0.0
H1190 H 0.61026 0.68178 0.83129 0.0
H1191 H 0.63089 0.66844 0.83879 0.0
H1192 H 0.69091 0.61807 0.84227 0.0
H1193 H 0.68128 0.63828 0.85479 0.0
H1194 H 0.73299 0.63533 0.84759 0.0
H1195 H 0.72336 0.65518 0.86037 0.0
H1196 H 0.71755 0.69916 0.91317 0.0
H1197 H 0.6819 0.72191 0.92923 0.0
H1198 H 0.66751 0.71357 0.90943 0.0
H1199 H 0.70307 0.69099 0.89327 0.0
C1200 C 0.33363 0.64716 0.86072 0.0
C1201 C 0.34244 0.63805 0.85329 0.0
C1202 C 0.322 0.62396 0.84593 0.0
C1203 C 0.33667 0.6265 0.84601 0.0
C1204 C 0.31329 0.63309 0.8535 0.0
C1205 C 0.31905 0.64453 0.8608 0.0
U1206 U 0.35995 0.67803 0.86605 0.0
O1207 O 0.3554 0.7 0.87145 0.0
O1208 O 0.36827 0.68716 0.88574 0.0
C1209 C 0.36176 0.69916 0.88375 0.0
C1210 C 0.33919 0.65957 0.86833 0.0
C1211 C 0.35386 0.70485 0.8958 0.0
C1212 C 0.33958 0.702 0.91695 0.0
C1213 C 0.34704 0.69612 0.90571 0.0
C1214 C 0.3456 0.72534 0.90843 0.0
C1215 C 0.33869 0.7167 0.91837 0.0
C1216 C 0.3531 0.71948 0.8973 0.0
C1217 C 0.3903 0.68374 0.83937 0.0
C1218 C 0.41129 0.69863 0.8417 0.0
C1219 C 0.40362 0.69084 0.81863 0.0
C1220 C 0.39231 0.68353 0.82476 0.0
C1221 C 0.41323 0.69854 0.82699 0.0
C1222 C 0.39988 0.69135 0.84784 0.0
C1223 C 0.3781 0.67596 0.84531 0.0
O1224 O 0.3514 0.65821 0.87482 0.0
O1225 O 0.33796 0.67165 0.86168 0.0
O1226 O 0.36584 0.68213 0.84398 0.0
O1227 O 0.37987 0.66988 0.85767 0.0
H1228 H 0.35373 0.63992 0.85301 0.0
H1229 H 0.34365 0.61974 0.8402 0.0
H1230 H 0.30198 0.63135 0.85383 0.0
H1231 H 0.31207 0.6514 0.8665 0.0
H1232 H 0.33428 0.69505 0.92435 0.0
H1233 H 0.34742 0.68479 0.90474 0.0
H1234 H 0.34531 0.73668 0.9093 0.0
H1235 H 0.35831 0.72641 0.88981 0.0
H1236 H 0.41844 0.70455 0.84843 0.0
H1237 H 0.40488 0.69036 0.80731 0.0
H1238 H 0.38509 0.67769 0.81803 0.0
H1239 H 0.39851 0.69172 0.85916 0.0
C1240 C 0.35601 0.39152 0.83876 0.0
C1241 C 0.34986 0.40126 0.8479 0.0
C1242 C 0.34054 0.41444 0.82778 0.0
C1243 C 0.34224 0.41267 0.84244 0.0
C1244 C 0.34679 0.40465 0.81875 0.0
C1245 C 0.35443 0.39336 0.82418 0.0
U1246 U 0.36456 0.36094 0.86464 0.0
O1247 O 0.37052 0.33928 0.85941 0.0
O1248 O 0.38534 0.35288 0.87104 0.0
C1249 C 0.38328 0.34074 0.86472 0.0
C1250 C 0.36428 0.37943 0.84392 0.0
C1251 C 0.39487 0.3355 0.8559 0.0
C1252 C 0.41462 0.33904 0.83986 0.0
C1253 C 0.4037 0.34454 0.84804 0.0
C1254 C 0.40793 0.3155 0.84726 0.0
C1255 C 0.4168 0.32443 0.83931 0.0
C1256 C 0.39712 0.32097 0.85545 0.0
C1257 C 0.34214 0.35302 0.89734 0.0
C1258 C 0.34121 0.33041 0.90949 0.0
C1259 C 0.33036 0.35073 0.91999 0.0
C1260 C 0.33466 0.35899 0.90848 0.0
C1261 C 0.33341 0.33628 0.92055 0.0
C1262 C 0.34557 0.3387 0.89802 0.0
C1263 C 0.34573 0.3617 0.88488 0.0
O1264 O 0.37168 0.38117 0.85556 0.0
O1265 O 0.35792 0.3671 0.84323 0.0
O1266 O 0.34339 0.35575 0.8726 0.0
O1267 O 0.35782 0.36862 0.88543 0.0
H1268 H 0.35092 0.40004 0.85921 0.0
H1269 H 0.33747 0.41995 0.84969 0.0
H1270 H 0.3459 0.40579 0.80741 0.0
H1271 H 0.35914 0.38602 0.81694 0.0
H1272 H 0.42119 0.3462 0.83378 0.0
H1273 H 0.40212 0.3558 0.84819 0.0
H1274 H 0.40943 0.30422 0.84727 0.0
H1275 H 0.39048 0.31382 0.86148 0.0
H1276 H 0.3439 0.31937 0.90966 0.0
H1277 H 0.32427 0.35557 0.92823 0.0
H1278 H 0.33189 0.37001 0.90815 0.0
H1279 H 0.35143 0.33388 0.88958 0.0
H1280 H 0.27495 0.26691 0.97461 0.0
H1281 H 0.28968 0.2845 1.01336 0.0
H1282 H 0.25262 0.25718 1.01247 0.0
H1283 H 0.25701 0.25311 0.03438 0.0
H1284 H 0.26514 0.27624 0.07206 0.0
H1285 H 0.2821 0.29165 0.03326 0.0
C1286 C 0.27403 0.26782 0.98595 0.0
C1287 C 0.26316 0.26057 0.9929 0.0
C1288 C 0.28327 0.27678 0.99326 0.0
C1289 C 0.28196 0.27804 1.00796 0.0
C1290 C 0.27106 0.27087 1.01544 0.0
C1291 C 0.26147 0.26242 1.0075 0.0
C1292 C 0.26963 0.27225 0.0313 0.0
C1293 C 0.26173 0.26225 0.03929 0.0
C1294 C 0.25967 0.26396 0.05386 0.0
C1295 C 0.26624 0.27524 0.06074 0.0
C1296 C 0.27467 0.28493 0.05339 0.0
C1297 C 0.27612 0.28358 0.03871 0.0
H1298 H 0.77555 0.27399 0.07174 0.0
H1299 H 0.78845 0.2562 0.03285 0.0
H1300 H 0.7529 0.28469 0.03428 0.0
H1301 H 0.7555 0.28757 1.01223 0.0
H1302 H 0.76406 0.2657 0.97414 0.0
H1303 H 0.78163 0.25029 1.0126 0.0
C1304 C 0.77427 0.27313 0.06041 0.0
C1305 C 0.76371 0.2808 0.05362 0.0
C1306 C 0.78284 0.26396 0.05295 0.0
C1307 C 0.78113 0.26283 0.03828 0.0
C1308 C 0.77045 0.27031 0.03094 0.0
C1309 C 0.76153 0.27905 0.03905 0.0
C1310 C 0.76868 0.26904 1.01504 0.0
C1311 C 0.76043 0.27875 1.00722 0.0
C1312 C 0.75832 0.27724 0.99261 0.0
C1313 C 0.76515 0.26645 0.9855 0.0
C1314 C 0.77392 0.25708 0.99267 0.0
C1315 C 0.77536 0.25817 1.00739 0.0
H1316 H 0.77482 0.76528 0.97782 0.0
H1317 H 0.75185 0.75539 1.01526 0.0
H1318 H 0.7892 0.78228 1.01699 0.0
H1319 H 0.78116 0.78937 0.03685 0.0
H1320 H 0.76409 0.77311 0.07529 0.0
H1321 H 0.75625 0.75072 0.03709 0.0
C1322 C 0.77375 0.76608 0.98916 0.0
C1323 C 0.78299 0.77483 0.99669 0.0
C1324 C 0.7627 0.75888 0.99587 0.0
C1325 C 0.76083 0.76058 1.01046 0.0
C1326 C 0.77042 0.76881 0.01863 0.0
C1327 C 0.78149 0.77596 1.01139 0.0
C1328 C 0.76883 0.76994 0.03449 0.0
C1329 C 0.77519 0.78118 0.04214 0.0
C1330 C 0.77362 0.78225 0.05683 0.0
C1331 C 0.76523 0.77235 0.06395 0.0
C1332 C 0.75873 0.76116 0.05682 0.0
C1333 C 0.76089 0.75977 0.04223 0.0
H1334 H 0.26886 0.76858 0.0715 0.0
H1335 H 0.27945 0.74996 0.03205 0.0
H1336 H 0.25838 0.79021 0.03324 0.0
H1337 H 0.24971 0.78302 1.01263 0.0
H1338 H 0.26892 0.77269 0.97334 0.0
H1339 H 0.28795 0.75847 1.01179 0.0
C1340 C 0.26887 0.76904 0.06008 0.0
C1341 C 0.26275 0.7805 0.05319 0.0
C1342 C 0.27502 0.75816 0.0525 0.0
C1343 C 0.275 0.7587 0.0377 0.0
C1344 C 0.26888 0.77014 0.03036 0.0
C1345 C 0.26278 0.78105 0.03837 0.0
C1346 C 0.26884 0.77069 1.01447 0.0
C1347 C 0.25822 0.77807 1.00703 0.0
C1348 C 0.25823 0.77886 0.99223 0.0
C1349 C 0.26883 0.77205 0.98475 0.0
C1350 C 0.27941 0.76455 0.99174 0.0
C1351 C 0.27942 0.76391 1.00655 0.0
H1352 H 0.06977 0.27133 0.271 0.0
H1353 H 0.03126 0.25615 0.25276 0.0
H1354 H 0.03081 0.28087 0.29109 0.0
H1355 H 1.00965 0.28638 0.28498 0.0
H1356 H 0.97131 0.26634 0.27174 0.0
H1357 H 1.01064 0.24877 0.2593 0.0
C1358 C 0.05834 0.27068 0.27117 0.0
C1359 C 0.05098 0.27751 0.28183 0.0
C1360 C 0.05128 0.26274 0.26091 0.0
C1361 C 0.03646 0.26176 0.26122 0.0
C1362 C 0.02859 0.26837 0.27199 0.0
C1363 C 0.03621 0.27596 0.28245 0.0
C1364 C 1.0126 0.26764 0.27215 0.0
C1365 C 1.00458 0.27774 0.27953 0.0
C1366 C 0.98974 0.27716 0.27956 0.0
C1367 C 0.98275 0.26664 0.27191 0.0
C1368 C 0.99026 0.25657 0.26441 0.0
C1369 C 1.00511 0.25699 0.26472 0.0
H1370 H 0.76476 0.97082 0.27042 0.0
H1371 H 0.78576 1.00968 0.26081 0.0
H1372 H 0.74677 1.00914 0.2847 0.0
H1373 H 0.7528 0.0302 0.29115 0.0
H1374 H 0.76421 0.06886 0.27073 0.0
H1375 H 0.77954 0.03034 0.25411 0.0
C1376 C 0.76514 0.98221 0.271 0.0
C1377 C 0.75485 0.98922 0.27866 0.0
C1378 C 0.77609 0.98957 0.26432 0.0
C1379 C 0.77691 1.00429 0.26563 0.0
C1380 C 0.76627 1.01187 0.27276 0.0
C1381 C 0.75531 1.00399 0.27937 0.0
C1382 C 0.7662 0.02781 0.27267 0.0
C1383 C 0.7583 0.03549 0.28266 0.0
C1384 C 0.75716 0.05022 0.28164 0.0
C1385 C 0.76466 0.05747 0.27117 0.0
C1386 C 0.77309 0.05033 0.26158 0.0
C1387 C 0.77361 0.03557 0.26218 0.0
H1388 H 0.06995 0.7722 0.27386 0.0
H1389 H 0.03101 0.75637 0.29039 0.0
H1390 H 0.03138 0.78333 0.25331 0.0
H1391 H 1.01014 0.78882 0.25933 0.0
H1392 H 0.97144 0.76835 0.27069 0.0
H1393 H 1.01041 0.74966 0.28312 0.0
C1394 C 0.05852 0.77172 0.27343 0.0
C1395 C 0.05138 0.77918 0.26289 0.0
C1396 C 0.05121 0.76317 0.28304 0.0
C1397 C 0.03639 0.76248 0.28238 0.0
C1398 C 0.02874 0.76986 0.27183 0.0
C1399 C 0.03659 0.77791 0.26187 0.0
C1400 C 1.01274 0.76932 0.27132 0.0
C1401 C 1.00492 0.77994 0.26428 0.0
C1402 C 0.99008 0.77952 0.26393 0.0
C1403 C 0.98289 0.76859 0.27084 0.0
C1404 C 0.99021 0.75798 0.27793 0.0
C1405 C 1.00505 0.75829 0.27803 0.0
H1406 H 0.26857 0.06872 0.27577 0.0
H1407 H 0.25688 0.02955 0.25678 0.0
H1408 H 0.28153 0.03043 0.29546 0.0
H1409 H 0.28833 1.00954 0.28917 0.0
H1410 H 0.26745 0.97063 0.27955 0.0
H1411 H 0.24982 1.00895 0.26414 0.0
C1412 C 0.26886 0.05733 0.27577 0.0
C1413 C 0.27619 0.05035 0.28651 0.0
C1414 C 0.26172 0.04986 0.2652 0.0
C1415 C 0.2621 0.03506 0.26531 0.0
C1416 C 0.2693 0.02759 0.27611 0.0
C1417 C 0.27633 0.03556 0.2867 0.0
C1418 C 0.2691 1.01166 0.27661 0.0
C1419 C 0.27956 1.00411 0.2842 0.0
C1420 C 0.2787 0.98939 0.28567 0.0
C1421 C 0.26782 0.98202 0.27884 0.0
C1422 C 0.25768 0.98901 0.27076 0.0
C1423 C 0.25821 1.00378 0.26984 0.0
H1424 H 0.06689 0.76774 0.77122 0.0
H1425 H 0.02757 0.7498 0.75754 0.0
H1426 H 0.02858 0.78737 0.78334 0.0
H1427 H 1.00713 0.78197 0.78875 0.0
H1428 H 0.96865 0.77311 0.76669 0.0
H1429 H 1.00716 0.75696 0.75057 0.0
C1430 C 0.05545 0.7679 0.77104 0.0
C1431 C 0.04844 0.77835 0.77848 0.0
C1432 C 0.04796 0.75776 0.76331 0.0
C1433 C 0.0331 0.75804 0.76317 0.0
C1434 C 0.0256 0.76863 0.77042 0.0
C1435 C 0.03362 0.77877 0.77804 0.0
C1436 C 1.00963 0.76939 0.76974 0.0
C1437 C 1.0019 0.77711 0.77984 0.0
C1438 C 0.98723 0.7789 0.77846 0.0
C1439 C 0.98003 0.77218 0.76746 0.0
C1440 C 0.98715 0.76395 0.7577 0.0
C1441 C 1.0019 0.76276 0.75871 0.0
H1442 H 0.26766 0.97189 0.77465 0.0
H1443 H 0.28221 1.01084 0.75709 0.0
H1444 H 0.25595 1.01016 0.79452 0.0
H1445 H 0.25179 0.03187 0.79019 0.0
H1446 H 0.27474 0.0697 0.78094 0.0
H1447 H 0.28912 0.03115 0.76373 0.0
C1448 C 0.26801 0.9833 0.77492 0.0
C1449 C 0.26061 0.99035 0.78538 0.0
C1450 C 0.27598 0.99068 0.76492 0.0
C1451 C 0.27637 1.00547 0.76529 0.0
C1452 C 0.26916 1.01304 0.77589 0.0
C1453 C 0.26128 1.00512 0.78592 0.0
C1454 C 0.27026 0.02896 0.7768 0.0
C1455 C 0.26066 0.03686 0.785 0.0
C1456 C 0.26256 0.05143 0.78689 0.0
C1457 C 0.27352 0.0584 0.77983 0.0
C1458 C 0.28276 0.05113 0.77117 0.0
C1459 C 0.28128 0.03648 0.76987 0.0
H1460 H 0.06712 0.26769 0.77225 0.0
H1461 H 0.02775 0.25719 0.79171 0.0
H1462 H 0.02881 0.2813 0.75273 0.0
H1463 H 1.00851 0.2894 0.75987 0.0
H1464 H 0.96875 0.27167 0.77212 0.0
H1465 H 1.00664 0.25073 0.78438 0.0
C1466 C 0.05568 0.26819 0.77226 0.0
C1467 C 0.04875 0.27549 0.76148 0.0
C1468 C 0.04813 0.26144 0.783 0.0
C1469 C 0.03331 0.26212 0.78304 0.0
C1470 C 0.0259 0.26941 0.77226 0.0
C1471 C 0.03393 0.27603 0.76146 0.0
C1472 C 1.00995 0.27004 0.77224 0.0
C1473 C 1.00276 0.28102 0.76512 0.0
C1474 C 0.98793 0.28155 0.76499 0.0
C1475 C 0.98018 0.27121 0.77218 0.0
C1476 C 0.98688 0.2602 0.77928 0.0
C1477 C 1.00171 0.25961 0.77925 0.0
H1478 H 0.77232 0.06595 0.77084 0.0
H1479 H 0.75085 0.02772 0.76017 0.0
H1480 H 0.78813 0.02724 0.78707 0.0
H1481 H 0.78204 1.0064 0.79287 0.0
H1482 H 0.76804 0.96772 0.77456 0.0
H1483 H 0.75554 1.00636 0.75538 0.0
C1484 C 0.77163 0.05456 0.77149 0.0
C1485 C 0.78109 0.04728 0.78011 0.0
C1486 C 0.76093 0.04749 0.76412 0.0
C1487 C 0.75958 0.03279 0.76554 0.0
C1488 C 0.76947 0.0249 0.77358 0.0
C1489 C 0.78018 0.03253 0.78091 0.0
C1490 C 0.76882 1.00892 0.77409 0.0
C1491 C 0.77627 1.00116 0.78455 0.0
C1492 C 0.77619 0.98634 0.78464 0.0
C1493 C 0.76822 0.97912 0.77448 0.0
C1494 C 0.76055 0.98635 0.76416 0.0
C1495 C 0.76102 1.00114 0.7639 0.0
H1496 H 0.26856 0.77309 0.47515 0.0
H1497 H 0.24969 0.75825 0.51341 0.0
H1498 H 0.28686 0.78539 0.5145 0.0
H1499 H 0.27909 0.79135 0.53524 0.0
H1500 H 0.26801 0.77011 0.57349 0.0
H1501 H 0.2572 0.75097 0.53415 0.0
C1502 C 0.2685 0.77263 0.48658 0.0
C1503 C 0.27863 0.78029 0.49414 0.0
C1504 C 0.25817 0.76459 0.49348 0.0
C1505 C 0.25807 0.76413 0.50831 0.0
C1506 C 0.26833 0.77164 0.51635 0.0
C1507 C 0.27862 0.77971 0.50894 0.0
C1508 C 0.26821 0.7712 0.5323 0.0
C1509 C 0.27449 0.7822 0.54033 0.0
C1510 C 0.27449 0.78179 0.55514 0.0
C1511 C 0.26805 0.77042 0.56206 0.0
C1512 C 0.26167 0.75944 0.55454 0.0
C1513 C 0.2618 0.7598 0.53972 0.0
H1514 H 0.77474 0.77299 0.56922 0.0
H1515 H 0.78302 0.75222 0.53036 0.0
H1516 H 0.75804 0.7902 0.53098 0.0
H1517 H 0.74989 0.7828 0.51084 0.0
H1518 H 0.76712 0.77086 0.4712 0.0
H1519 H 0.78873 0.75912 0.50909 0.0
C1520 C 0.77363 0.7726 0.55784 0.0
C1521 C 0.7653 0.78255 0.55091 0.0
C1522 C 0.7802 0.76185 0.55043 0.0
C1523 C 0.77825 0.76092 0.53577 0.0
C1524 C 0.77043 0.77119 0.52827 0.0
C1525 C 0.76391 0.78196 0.53615 0.0
C1526 C 0.76936 0.77084 0.51236 0.0
C1527 C 0.75821 0.77767 0.50514 0.0
C1528 C 0.75747 0.77779 0.49035 0.0
C1529 C 0.76772 0.77077 0.48262 0.0
C1530 C 0.77887 0.76389 0.48935 0.0
C1531 C 0.7797 0.76399 0.50416 0.0
H1532 H 0.7725 0.26627 0.47481 0.0
H1533 H 0.75215 0.25495 0.51338 0.0
H1534 H 0.78939 0.28208 0.51348 0.0
H1535 H 0.78338 0.2877 0.53454 0.0
H1536 H 0.77368 0.2663 0.57306 0.0
H1537 H 0.75851 0.24897 0.53438 0.0
C1538 C 0.77208 0.26684 0.48621 0.0
C1539 C 0.78178 0.27539 0.49341 0.0
C1540 C 0.76158 0.25931 0.49341 0.0
C1541 C 0.76067 0.2605 0.50816 0.0
C1542 C 0.77079 0.26848 0.51594 0.0
C1543 C 0.78126 0.27602 0.50821 0.0
C1544 C 0.77089 0.26839 0.53195 0.0
C1545 C 0.77836 0.27885 0.53975 0.0
C1546 C 0.77978 0.27783 0.55449 0.0
C1547 C 0.77294 0.26686 0.56166 0.0
C1548 C 0.76495 0.25675 0.55445 0.0
C1549 C 0.76409 0.25741 0.53967 0.0
H1550 H 0.26686 0.26864 0.57438 0.0
H1551 H 0.25862 0.29018 0.5356 0.0
H1552 H 0.2795 0.24978 0.5357 0.0
H1553 H 0.28866 0.25701 0.51596 0.0
H1554 H 0.27551 0.27484 0.47667 0.0
H1555 H 0.25278 0.28496 0.51399 0.0
C1556 C 0.26741 0.26898 0.56296 0.0
C1557 C 0.27404 0.25809 0.55579 0.0
C1558 C 0.26165 0.28039 0.55568 0.0
C1559 C 0.2626 0.28094 0.5409 0.0
C1560 C 0.26914 0.27003 0.53325 0.0
C1561 C 0.27474 0.25856 0.541 0.0
C1562 C 0.27051 0.27086 0.51738 0.0
C1563 C 0.28124 0.26346 0.51024 0.0
C1564 C 0.28294 0.26473 0.49558 0.0
C1565 C 0.27417 0.27377 0.48797 0.0
C1566 C 0.26349 0.28122 0.49463 0.0
C1567 C 0.26139 0.27943 0.50918 0.0
H1568 H 0.77022 0.47236 0.77979 0.0
H1569 H 0.74912 0.51075 0.78877 0.0
H1570 H 0.78707 0.51091 0.76332 0.0
H1571 H 0.77975 0.53094 0.75558 0.0
H1572 H 0.76818 0.57029 0.77348 0.0
H1573 H 0.75547 0.53218 0.79419 0.0
C1574 C 0.76971 0.48372 0.77879 0.0
C1575 C 0.77956 0.49086 0.77039 0.0
C1576 C 0.75894 0.49089 0.7856 0.0
C1577 C 0.75784 0.50553 0.7838 0.0
C1578 C 0.76801 0.51325 0.7759 0.0
C1579 C 0.77885 0.50559 0.76919 0.0
C1580 C 0.76758 0.52916 0.77496 0.0
C1581 C 0.77461 0.53653 0.76397 0.0
C1582 C 0.77501 0.55131 0.7635 0.0
C1583 C 0.76788 0.55888 0.77379 0.0
C1584 C 0.76062 0.55201 0.78469 0.0
C1585 C 0.76057 0.53721 0.7853 0.0
H1586 H 0.26637 0.56759 0.77659 0.0
H1587 H 0.25559 0.52863 0.75663 0.0
H1588 H 0.28071 0.52911 0.79498 0.0
H1589 H 0.28868 0.50884 0.7868 0.0
H1590 H 0.26937 0.46959 0.77533 0.0
H1591 H 0.24851 0.50786 0.76459 0.0
C1592 C 0.26697 0.55621 0.77626 0.0
C1593 C 0.27459 0.54915 0.78673 0.0
C1594 C 0.25998 0.54887 0.76551 0.0
C1595 C 0.2607 0.5341 0.76526 0.0
C1596 C 0.2682 0.52656 0.77579 0.0
C1597 C 0.27517 0.53438 0.78651 0.0
C1598 C 0.26857 0.51068 0.77567 0.0
C1599 C 0.27987 0.50326 0.78206 0.0
C1600 C 0.28014 0.48847 0.78197 0.0
C1601 C 0.26914 0.481 0.77544 0.0
C1602 C 0.25786 0.48795 0.76904 0.0
C1603 C 0.25757 0.50273 0.7692 0.0
H1604 H 0.27155 0.4695 0.28077 0.0
H1605 H 0.25004 0.5078 0.2891 0.0
H1606 H 0.28851 0.50797 0.2644 0.0
H1607 H 0.28175 0.52788 0.25643 0.0
H1608 H 0.26507 0.56698 0.2701 0.0
H1609 H 0.25462 0.52959 0.29312 0.0
C1610 C 0.27101 0.48086 0.27984 0.0
C1611 C 0.28103 0.48801 0.27165 0.0
C1612 C 0.26005 0.48799 0.28641 0.0
C1613 C 0.25893 0.50262 0.28441 0.0
C1614 C 0.26914 0.51036 0.27656 0.0
C1615 C 0.28023 0.50271 0.27023 0.0
C1616 C 0.26818 0.52622 0.27492 0.0
C1617 C 0.27546 0.53345 0.26398 0.0
C1618 C 0.27452 0.54811 0.26236 0.0
C1619 C 0.26576 0.55566 0.27131 0.0
C1620 C 0.25838 0.54896 0.28222 0.0
C1621 C 0.25994 0.53437 0.28425 0.0
H1622 H 0.76816 0.56753 0.27845 0.0
H1623 H 0.74965 0.52934 0.26329 0.0
H1624 H 0.7888 0.52882 0.28737 0.0
H1625 H 0.78465 0.50694 0.29097 0.0
H1626 H 0.77303 0.47003 0.26807 0.0
H1627 H 0.7555 0.50929 0.2555 0.0
C1628 C 0.76847 0.55618 0.27753 0.0
C1629 C 0.77939 0.5488 0.28405 0.0
C1630 C 0.75792 0.54918 0.26986 0.0
C1631 C 0.75827 0.53443 0.26881 0.0
C1632 C 0.76932 0.52654 0.27509 0.0
C1633 C 0.77988 0.53409 0.28271 0.0
C1634 C 0.77001 0.51067 0.27346 0.0
C1635 C 0.77877 0.50234 0.28235 0.0
C1636 C 0.78026 0.48782 0.28007 0.0
C1637 C 0.77229 0.48131 0.26947 0.0
C1638 C 0.76307 0.48899 0.26095 0.0
C1639 C 0.76215 0.50361 0.26278 0.0
H1640 H 0.47144 0.26418 0.77234 0.0
H1641 H 0.50929 0.28466 0.78636 0.0
H1642 H 0.51084 0.25082 0.75582 0.0
H1643 H 0.53158 0.25834 0.75086 0.0
H1644 H 0.5699 0.2699 0.77191 0.0
H1645 H 0.53069 0.27937 0.79141 0.0
C1646 C 0.48285 0.26511 0.77209 0.0
C1647 C 0.49046 0.25677 0.76281 0.0
C1648 C 0.48966 0.27492 0.78078 0.0
C1649 C 0.5044 0.27662 0.77992 0.0
C1650 C 0.51259 0.26788 0.77109 0.0
C1651 C 0.50526 0.25798 0.76253 0.0
C1652 C 0.5286 0.26878 0.77109 0.0
C1653 C 0.53663 0.26294 0.75998 0.0
C1654 C 0.55148 0.26321 0.76032 0.0
C1655 C 0.55845 0.26966 0.77161 0.0
C1656 C 0.55094 0.27569 0.78262 0.0
C1657 C 0.53612 0.27516 0.78241 0.0
H1658 H 0.56777 0.76823 0.77405 0.0
H1659 H 0.52802 0.75623 0.79169 0.0
H1660 H 0.52989 0.77959 0.7523 0.0
H1661 H 0.50855 0.78617 0.7574 0.0
H1662 H 0.46952 0.7652 0.76658 0.0
H1663 H 0.50765 0.74893 0.78416 0.0
C1664 C 0.55634 0.76824 0.77348 0.0
C1665 C 0.54966 0.77503 0.76217 0.0
C1666 C 0.54859 0.76119 0.78389 0.0
C1667 C 0.53375 0.76132 0.78323 0.0
C1668 C 0.52654 0.76807 0.77197 0.0
C1669 C 0.53481 0.77484 0.76143 0.0
C1670 C 0.51056 0.76763 0.77095 0.0
C1671 C 0.5031 0.7776 0.76264 0.0
C1672 C 0.48839 0.77647 0.7608 0.0
C1673 C 0.4809 0.76584 0.76783 0.0
C1674 C 0.48778 0.7562 0.77657 0.0
C1675 C 0.50256 0.75698 0.77795 0.0
H1676 H 0.46695 0.76662 0.27073 0.0
H1677 H 0.50566 0.77737 0.29159 0.0
H1678 H 0.50601 0.75546 0.2516 0.0
H1679 H 0.52688 0.74824 0.25869 0.0
H1680 H 0.56542 0.76756 0.27285 0.0
H1681 H 0.52617 0.78546 0.28489 0.0
C1682 C 0.4784 0.76654 0.27102 0.0
C1683 C 0.48574 0.76004 0.26014 0.0
C1684 C 0.48555 0.77297 0.28223 0.0
C1685 C 0.50039 0.77281 0.28255 0.0
C1686 C 0.50821 0.76652 0.27158 0.0
C1687 C 0.50058 0.7601 0.26039 0.0
C1688 C 0.52417 0.76677 0.2718 0.0
C1689 C 0.5321 0.75664 0.2644 0.0
C1690 C 0.54697 0.75695 0.26466 0.0
C1691 C 0.55398 0.76735 0.27251 0.0
C1692 C 0.5465 0.77743 0.28001 0.0
C1693 C 0.53168 0.77721 0.27948 0.0
H1694 H 0.56761 0.26842 0.27065 0.0
H1695 H 0.52861 0.28808 0.26031 0.0
H1696 H 0.5291 0.24903 0.28433 0.0
H1697 H 0.50868 0.25507 0.29181 0.0
H1698 H 0.46927 0.27067 0.27668 0.0
H1699 H 0.50707 0.28265 0.25521 0.0
C1700 C 0.55617 0.26844 0.27115 0.0
C1701 C 0.54911 0.25771 0.27849 0.0
C1702 C 0.54876 0.27917 0.26439 0.0
C1703 C 0.53395 0.27931 0.26516 0.0
C1704 C 0.52635 0.2686 0.27248 0.0
C1705 C 0.53427 0.25773 0.27903 0.0
C1706 C 0.51036 0.26889 0.27342 0.0
C1707 C 0.50305 0.26123 0.28407 0.0
C1708 C 0.48826 0.26168 0.28516 0.0
C1709 C 0.48068 0.27032 0.27593 0.0
C1710 C 0.48747 0.27808 0.26535 0.0
C1711 C 0.50219 0.277 0.26384 0.0
H1712 H 0.22087 0.22817 0.12732 0.0
H1713 H 0.21646 0.19391 0.0979 0.0
H1714 H 0.23121 0.24283 0.10893 0.0
H1715 H 0.22673 0.20868 0.07935 0.0
H1716 H 0.26111 0.23514 0.0554 0.0
H1717 H 0.24871 0.21956 0.072 0.0
H1718 H 0.22568 0.25509 0.08776 0.0
H1719 H 0.23831 0.27055 0.07149 0.0
C1720 C 0.2219 0.22383 0.11685 0.0
C1721 C 0.21776 0.20986 0.11411 0.0
C1722 C 0.22783 0.23225 0.10626 0.0
C1723 C 0.22975 0.227 0.09257 0.0
C1724 C 0.22557 0.21304 0.08979 0.0
C1725 C 0.21966 0.20457 0.10042 0.0
C1726 C 0.25321 0.23952 0.06227 0.0
C1727 C 0.25076 0.25406 0.06226 0.0
C1728 C 0.2461 0.23062 0.07179 0.0
C1729 C 0.23633 0.23608 0.08143 0.0
C1730 C 0.23338 0.25054 0.0808 0.0
C1731 C 0.24054 0.2594 0.0714 0.0
H1732 H 0.82146 0.22836 0.12606 0.0
H1733 H 0.83133 0.1972 0.09483 0.0
H1734 H 0.8115 0.24334 0.10782 0.0
H1735 H 0.82157 0.21233 0.07641 0.0
H1736 H 0.78589 0.23548 0.05183 0.0
H1737 H 0.79942 0.22069 0.06798 0.0
H1738 H 0.81641 0.25791 0.08813 0.0
H1739 H 0.8025 0.27258 0.07227 0.0
C1740 C 0.82175 0.22482 0.11524 0.0
C1741 C 0.8272 0.21157 0.11193 0.0
C1742 C 0.81606 0.23344 0.10473 0.0
C1743 C 0.81574 0.22911 0.09056 0.0
C1744 C 0.82144 0.21595 0.0872 0.0
C1745 C 0.82707 0.20728 0.09776 0.0
C1746 C 0.79276 0.24046 0.05953 0.0
C1747 C 0.79306 0.25516 0.06088 0.0
C1748 C 0.80054 0.23199 0.0688 0.0
C1749 C 0.80887 0.23807 0.07956 0.0
C1750 C 0.80983 0.25283 0.08026 0.0
C1751 C 0.80196 0.26126 0.07109 0.0
H1752 H 0.83099 0.84011 0.10281 0.0
H1753 H 0.80025 0.82342 0.13206 0.0
H1754 H 0.81924 0.82743 0.08358 0.0
H1755 H 0.78863 0.81076 0.11303 0.0
H1756 H 0.76205 0.80004 0.07583 0.0
H1757 H 0.77434 0.8151 0.09269 0.0
H1758 H 0.81425 0.80405 0.0742 0.0
H1759 H 0.80177 0.78918 0.05705 0.0
C1760 C 0.82181 0.83364 0.10517 0.0
C1761 C 0.81649 0.83291 0.11898 0.0
C1762 C 0.81506 0.82639 0.09413 0.0
C1763 C 0.80283 0.81822 0.09666 0.0
C1764 C 0.79776 0.81725 0.11055 0.0
C1765 C 0.80447 0.82449 0.12152 0.0
C1766 C 0.77343 0.80103 0.07522 0.0
C1767 C 0.78096 0.79337 0.06519 0.0
C1768 C 0.78051 0.80956 0.08497 0.0
C1769 C 0.79534 0.81057 0.08505 0.0
C1770 C 0.80283 0.80356 0.07446 0.0
C1771 C 0.7957 0.79506 0.0646 0.0
H1772 H 0.21051 0.84115 0.09931 0.0
H1773 H 0.23766 0.82022 0.12925 0.0
H1774 H 0.22158 0.82831 0.08007 0.0
H1775 H 0.24852 0.80733 0.11023 0.0
H1776 H 0.27534 0.79556 0.07406 0.0
H1777 H 0.26418 0.81088 0.09108 0.0
H1778 H 0.22422 0.80533 0.06955 0.0
H1779 H 0.23566 0.79028 0.05219 0.0
C1780 C 0.21875 0.83372 0.1018 0.0
C1781 C 0.2233 0.83183 0.11582 0.0
C1782 C 0.2251 0.82637 0.09077 0.0
C1783 C 0.23612 0.81691 0.09352 0.0
C1784 C 0.24038 0.81481 0.1076 0.0
C1785 C 0.2341 0.82218 0.11856 0.0
C1786 C 0.26423 0.79784 0.07283 0.0
C1787 C 0.25635 0.7917 0.06186 0.0
C1788 C 0.25777 0.80649 0.08267 0.0
C1789 C 0.24319 0.80911 0.08193 0.0
C1790 C 0.23545 0.80358 0.07046 0.0
C1791 C 0.24199 0.79498 0.06049 0.0
H1792 H 0.22735 0.84509 0.93999 0.0
H1793 H 0.19523 0.8131 0.93359 0.0
H1794 H 0.23813 0.8307 0.95828 0.0
H1795 H 0.20621 0.79858 0.9518 0.0
H1796 H 0.24288 0.77075 0.9692 0.0
H1797 H 0.2283 0.78542 0.95397 0.0
H1798 H 0.23492 0.8205 0.98205 0.0
H1799 H 0.24976 0.80579 0.9972 0.0
C1800 C 0.22241 0.83511 0.94264 0.0
C1801 C 0.21041 0.83028 0.93523 0.0
C1802 C 0.22862 0.82684 0.95316 0.0
C1803 C 0.22305 0.81348 0.95651 0.0
C1804 C 0.21086 0.80876 0.94935 0.0
C1805 C 0.2046 0.81707 0.93887 0.0
C1806 C 0.24107 0.78155 0.9722 0.0
C1807 C 0.24755 0.78716 0.98433 0.0
C1808 C 0.23263 0.78994 0.96353 0.0
C1809 C 0.23053 0.80418 0.96672 0.0
C1810 C 0.23648 0.80962 0.97921 0.0
C1811 C 0.24485 0.80117 0.98796 0.0
H1812 H 0.1942 0.21467 0.94971 0.0
H1813 H 0.22754 0.22139 0.91949 0.0
H1814 H 0.20898 0.22523 0.96808 0.0
H1815 H 0.24221 0.23203 0.93771 0.0
H1816 H 0.27056 0.24009 0.97459 0.0
H1817 H 0.25538 0.22697 0.95844 0.0
H1818 H 0.21886 0.24747 0.97559 0.0
H1819 H 0.23417 0.26035 0.99206 0.0
C1820 C 0.20467 0.21843 0.94697 0.0
C1821 C 0.20968 0.21711 0.93311 0.0
C1822 C 0.21314 0.22451 0.95751 0.0
C1823 C 0.22685 0.22946 0.95445 0.0
C1824 C 0.23185 0.22807 0.94058 0.0
C1825 C 0.22341 0.22197 0.93009 0.0
C1826 C 0.25926 0.24166 0.97501 0.0
C1827 C 0.25356 0.25132 0.98451 0.0
C1828 C 0.25055 0.23422 0.96567 0.0
C1829 C 0.23588 0.23631 0.96548 0.0
C1830 C 0.23009 0.24551 0.97546 0.0
C1831 C 0.23885 0.2529 0.98491 0.0
H1832 H 0.80733 0.21924 0.91861 0.0
H1833 H 0.83807 0.20673 0.94984 0.0
H1834 H 0.79295 0.22946 0.93693 0.0
H1835 H 0.8235 0.21673 0.96834 0.0
H1836 H 0.80227 0.25231 0.99388 0.0
H1837 H 0.81631 0.23873 0.97742 0.0
H1838 H 0.77808 0.22499 0.95629 0.0
H1839 H 0.76419 0.23896 0.97249 0.0
C1840 C 0.8109 0.21843 0.92944 0.0
C1841 C 0.82386 0.21215 0.93273 0.0
C1842 C 0.80261 0.22428 0.94001 0.0
C1843 C 0.80698 0.22392 0.95422 0.0
C1844 C 0.81986 0.2174 0.95753 0.0
C1845 C 0.82821 0.21164 0.94692 0.0
C1846 C 0.79689 0.24613 0.98589 0.0
C1847 C 0.78215 0.24677 0.98441 0.0
C1848 C 0.80492 0.23833 0.97643 0.0
C1849 C 0.79839 0.23088 0.96532 0.0
C1850 C 0.78355 0.23087 0.96444 0.0
C1851 C 0.77555 0.23878 0.9738 0.0
H1852 H 0.82096 0.8079 0.92231 0.0
H1853 H 0.83294 0.83986 0.95235 0.0
H1854 H 0.81109 0.7936 0.94121 0.0
H1855 H 0.82322 0.82542 0.97142 0.0
H1856 H 0.7874 0.80327 0.99736 0.0
H1857 H 0.80108 0.81749 0.98066 0.0
H1858 H 0.81615 0.77955 0.96121 0.0
H1859 H 0.8021 0.76547 0.97763 0.0
C1860 C 0.82173 0.81177 0.933 0.0
C1861 C 0.82776 0.82505 0.93578 0.0
C1862 C 0.81608 0.80353 0.9439 0.0
C1863 C 0.81637 0.80828 0.95794 0.0
C1864 C 0.82263 0.82147 0.96075 0.0
C1865 C 0.82822 0.82976 0.94981 0.0
C1866 C 0.79392 0.79801 0.98972 0.0
C1867 C 0.79362 0.78328 0.98873 0.0
C1868 C 0.80177 0.80615 0.98011 0.0
C1869 C 0.80957 0.79971 0.96936 0.0
C1870 C 0.80999 0.78492 0.96906 0.0
C1871 C 0.80206 0.77682 0.97856 0.0
H1872 H 0.09769 0.2065 0.20398 0.0
H1873 H 0.1273 0.23593 0.22258 0.0
H1874 H 0.07831 0.21803 0.2162 0.0
H1875 H 0.10811 0.24734 0.23474 0.0
H1876 H 0.07136 0.27431 0.24394 0.0
H1877 H 0.08843 0.26213 0.22946 0.0
H1878 H 0.06814 0.22243 0.23949 0.0
H1879 H 0.05079 0.23481 0.25381 0.0
C1880 C 0.10009 0.21533 0.21077 0.0
C1881 C 0.11405 0.22037 0.21216 0.0
C1882 C 0.08897 0.22196 0.21775 0.0
C1883 C 0.09158 0.23378 0.22629 0.0
C1884 C 0.10561 0.23854 0.22795 0.0
C1885 C 0.11665 0.23195 0.22099 0.0
C1886 C 0.07041 0.263 0.24285 0.0
C1887 C 0.05982 0.25549 0.25008 0.0
C1888 C 0.08026 0.25599 0.23465 0.0
C1889 C 0.07989 0.24124 0.23355 0.0
C1890 C 0.06875 0.23378 0.24009 0.0
C1891 C 0.05879 0.24086 0.24827 0.0
H1892 H 0.80967 0.12371 0.22335 0.0
H1893 H 0.83821 0.09162 0.2095 0.0
H1894 H 0.79458 0.1058 0.23399 0.0
H1895 H 0.82293 0.07354 0.21993 0.0
H1896 H 0.80128 0.04832 0.25622 0.0
H1897 H 0.8159 0.06449 0.24231 0.0
H1898 H 0.77855 0.0871 0.22967 0.0
H1899 H 0.76411 0.07119 0.24395 0.0
C1900 C 0.81259 0.11278 0.22235 0.0
C1901 C 0.82515 0.10911 0.21557 0.0
C1902 C 0.8039 0.10246 0.22843 0.0
C1903 C 0.80746 0.08814 0.22782 0.0
C1904 C 0.81992 0.08445 0.2208 0.0
C1905 C 0.82868 0.09481 0.21479 0.0
C1906 C 0.79621 0.05659 0.25023 0.0
C1907 C 0.78159 0.05858 0.25126 0.0
C1908 C 0.80457 0.06588 0.24224 0.0
C1909 C 0.79846 0.07728 0.235 0.0
C1910 C 0.7837 0.0787 0.23539 0.0
C1911 C 0.77539 0.06952 0.24348 0.0
H1912 H 0.91483 0.81718 0.23256 0.0
H1913 H 0.94528 0.83286 0.2025 0.0
H1914 H 0.93365 0.80647 0.24621 0.0
H1915 H 0.96431 0.82241 0.21637 0.0
H1916 H 0.99134 0.78648 0.23599 0.0
H1917 H 0.97436 0.80044 0.22256 0.0
H1918 H 0.95293 0.81062 0.26124 0.0
H1919 H 0.96956 0.79618 0.27442 0.0
C1920 C 0.9256 0.81856 0.229 0.0
C1921 C 0.92852 0.82591 0.21645 0.0
C1922 C 0.93646 0.81245 0.23687 0.0
C1923 C 0.95061 0.8136 0.2325 0.0
C1924 C 0.95356 0.82112 0.22001 0.0
C1925 C 0.94265 0.82715 0.21206 0.0
C1926 C 0.98316 0.79197 0.24159 0.0
C1927 C 0.9817 0.79021 0.25621 0.0
C1928 C 0.9734 0.79998 0.23392 0.0
C1929 C 0.96205 0.80652 0.24075 0.0
C1930 C 0.96124 0.80545 0.25553 0.0
C1931 C 0.97086 0.79731 0.26313 0.0
H1932 H 0.20103 0.94294 0.21239 0.0
H1933 H 0.21794 0.91337 0.24256 0.0
H1934 H 0.21328 0.96219 0.22459 0.0
H1935 H 0.23022 0.93241 0.25458 0.0
H1936 H 0.24022 0.969 0.28188 0.0
H1937 H 0.2255 0.95205 0.26925 0.0
H1938 H 0.23644 0.97223 0.22982 0.0
H1939 H 0.25093 0.98949 0.24266 0.0
C1940 C 0.20746 0.94053 0.22154 0.0
C1941 C 0.20838 0.92662 0.22657 0.0
C1942 C 0.21447 0.95157 0.22855 0.0
C1943 C 0.2226 0.94893 0.24072 0.0
C1944 C 0.22375 0.93495 0.2455 0.0
C1945 C 0.21673 0.92398 0.23856 0.0
C1946 C 0.23927 0.96995 0.27054 0.0
C1947 C 0.24678 0.9805 0.26324 0.0
C1948 C 0.23094 0.96016 0.26326 0.0
C1949 C 0.23001 0.96053 0.24846 0.0
C1950 C 0.23688 0.97161 0.24121 0.0
C1951 C 0.24516 0.98152 0.24855 0.0
H1952 H 0.12238 0.8161 0.81495 0.0
H1953 H 0.08989 0.83205 0.84205 0.0
H1954 H 0.10449 0.80508 0.80012 0.0
H1955 H 0.07184 0.82127 0.82699 0.0
H1956 H 0.04575 0.78499 0.80631 0.0
H1957 H 0.06208 0.79897 0.82071 0.0
H1958 H 0.08643 0.80909 0.78353 0.0
H1959 H 0.07039 0.79469 0.76937 0.0
C1960 C 0.11138 0.81748 0.8176 0.0
C1961 C 0.10758 0.82498 0.82968 0.0
C1962 C 0.10107 0.81118 0.80905 0.0
C1963 C 0.08663 0.8123 0.81226 0.0
C1964 C 0.08282 0.82 0.82426 0.0
C1965 C 0.09317 0.82622 0.83289 0.0
C1966 C 0.05447 0.79042 0.80124 0.0
C1967 C 0.05689 0.78867 0.78677 0.0
C1968 C 0.06384 0.79846 0.80946 0.0
C1969 C 0.07576 0.80503 0.80335 0.0
C1970 C 0.07763 0.80389 0.7887 0.0
C1971 C 0.06837 0.79574 0.78054 0.0
H1972 H 0.20008 0.09893 0.83619 0.0
H1973 H 0.23667 0.12539 0.82882 0.0
H1974 H 0.21139 0.07973 0.82347 0.0
H1975 H 0.24785 0.10641 0.81622 0.0
H1976 H 0.27151 0.0671 0.80891 0.0
H1977 H 0.25816 0.08402 0.82243 0.0
H1978 H 0.2202 0.07207 0.79988 0.0
H1979 H 0.23372 0.0548 0.78643 0.0
C1980 C 0.21045 0.1007 0.83174 0.0
C1981 C 0.21755 0.11364 0.83373 0.0
C1982 C 0.21694 0.08969 0.82447 0.0
C1983 C 0.23066 0.09141 0.81906 0.0
C1984 C 0.23746 0.10454 0.8206 0.0
C1985 C 0.23102 0.11547 0.82782 0.0
C1986 C 0.26026 0.06793 0.807 0.0
C1987 C 0.25366 0.05973 0.79656 0.0
C1988 C 0.25262 0.07771 0.81466 0.0
C1989 C 0.23816 0.07966 0.81202 0.0
C1990 C 0.23133 0.07085 0.80216 0.0
C1991 C 0.23903 0.06095 0.79448 0.0
H1992 H 0.91063 0.22298 0.80986 0.0
H1993 H 0.94123 0.2 0.83445 0.0
H1994 H 0.92959 0.23571 0.79805 0.0
H1995 H 0.96036 0.21283 0.82253 0.0
H1996 H 0.98883 0.25088 0.80667 0.0
H1997 H 0.97153 0.23631 0.81946 0.0
H1998 H 0.94763 0.23081 0.78095 0.0
H1999 H 0.9647 0.24544 0.76838 0.0
C2000 C 0.92143 0.22058 0.81269 0.0
C2001 C 0.92438 0.21033 0.823 0.0
C2002 C 0.93233 0.22787 0.80589 0.0
C2003 C 0.94654 0.22514 0.80915 0.0
C2004 C 0.94954 0.21522 0.81978 0.0
C2005 C 0.93858 0.20789 0.82662 0.0
C2006 C 0.98001 0.2463 0.80094 0.0
C2007 C 0.97801 0.24942 0.78658 0.0
C2008 C 0.97009 0.23799 0.80825 0.0
C2009 C 0.95801 0.23263 0.8013 0.0
C2010 C 0.95657 0.23508 0.78674 0.0
C2011 C 0.9664 0.24338 0.7795 0.0
H2012 H 0.84247 0.9322 0.8122 0.0
H2013 H 0.8119 0.92605 0.84535 0.0
H2014 H 0.82806 0.95072 0.80206 0.0
H2015 H 0.79737 0.94452 0.83505 0.0
H2016 H 0.76796 0.96355 0.80039 0.0
H2017 H 0.78289 0.94768 0.81395 0.0
H2018 H 0.81902 0.9745 0.80555 0.0
H2019 H 0.80403 0.99026 0.79169 0.0
C2020 C 0.8328 0.93493 0.81749 0.0
C2021 C 0.82839 0.92754 0.82962 0.0
C2022 C 0.82451 0.9456 0.81165 0.0
C2023 C 0.81153 0.94915 0.81772 0.0
C2024 C 0.80722 0.94195 0.82999 0.0
C2025 C 0.81555 0.93131 0.83587 0.0
C2026 C 0.77907 0.96615 0.80159 0.0
C2027 C 0.78484 0.97811 0.79487 0.0
C2028 C 0.78762 0.95709 0.80945 0.0
C2029 C 0.80221 0.95972 0.81076 0.0
C2030 C 0.80786 0.97205 0.80459 0.0
C2031 C 0.79926 0.98117 0.79679 0.0
H2032 H 0.19646 0.10418 0.23664 0.0
H2033 H 0.22702 0.10944 0.20333 0.0
H2034 H 0.21053 0.08543 0.24685 0.0
H2035 H 0.24124 0.09081 0.21377 0.0
H2036 H 0.27027 0.07241 0.24936 0.0
H2037 H 0.25558 0.08811 0.23531 0.0
H2038 H 0.21935 0.0613 0.24326 0.0
H2039 H 0.23412 0.04565 0.2575 0.0
C2040 C 0.20605 0.10121 0.23132 0.0
C2041 C 0.21057 0.10844 0.21914 0.0
C2042 C 0.21414 0.09042 0.23721 0.0
C2043 C 0.22703 0.0866 0.23115 0.0
C2044 C 0.23144 0.0936 0.2188 0.0
C2045 C 0.2233 0.10434 0.21285 0.0
C2046 C 0.25921 0.06975 0.2479 0.0
C2047 C 0.25333 0.05784 0.25459 0.0
C2048 C 0.25079 0.07871 0.23979 0.0
C2049 C 0.23624 0.07604 0.23824 0.0
C2050 C 0.23048 0.06375 0.24438 0.0
C2051 C 0.23896 0.0547 0.25241 0.0
H2052 H 0.22509 0.91593 0.82205 0.0
H2053 H 0.19615 0.94722 0.83687 0.0
H2054 H 0.2398 0.9343 0.81171 0.0
H2055 H 0.2111 0.96578 0.82677 0.0
H2056 H 0.23249 0.9923 0.79112 0.0
H2057 H 0.21803 0.97567 0.80473 0.0
H2058 H 0.25561 0.95293 0.81644 0.0
H2059 H 0.26982 0.96923 0.80238 0.0
C2060 C 0.22201 0.92678 0.82333 0.0
C2061 C 0.20946 0.9301 0.83031 0.0
C2062 C 0.23049 0.93737 0.81743 0.0
C2063 C 0.22674 0.95161 0.81844 0.0
C2064 C 0.21426 0.95495 0.82561 0.0
C2065 C 0.2057 0.94431 0.83143 0.0
C2066 C 0.23762 0.98388 0.79685 0.0
C2067 C 0.25222 0.98196 0.79564 0.0
C2068 C 0.22936 0.97434 0.80466 0.0
C2069 C 0.23559 0.96276 0.81153 0.0
C2070 C 0.25036 0.96145 0.81099 0.0
C2071 C 0.25855 0.97086 0.80306 0.0
H2072 H 0.12231 0.22853 0.82122 0.0
H2073 H 0.09119 0.19824 0.8355 0.0
H2074 H 0.1038 0.24264 0.81072 0.0
H2075 H 0.07246 0.21258 0.82525 0.0
H2076 H 0.04601 0.23343 0.78925 0.0
H2077 H 0.06257 0.2195 0.80326 0.0
H2078 H 0.08486 0.25763 0.81506 0.0
H2079 H 0.06866 0.27131 0.80057 0.0
C2080 C 0.11146 0.22501 0.82235 0.0
C2081 C 0.10826 0.21226 0.82923 0.0
C2082 C 0.10078 0.23315 0.81635 0.0
C2083 C 0.08652 0.22886 0.81717 0.0
C2084 C 0.0833 0.21617 0.82423 0.0
C2085 C 0.09403 0.20795 0.83015 0.0
C2086 C 0.05428 0.23879 0.79513 0.0
C2087 C 0.05611 0.25341 0.79382 0.0
C2088 C 0.0638 0.23084 0.80316 0.0
C2089 C 0.07528 0.23737 0.81014 0.0
C2090 C 0.07644 0.25214 0.80954 0.0
C2091 C 0.06706 0.26003 0.80138 0.0
H2092 H 0.81808 0.12159 0.81482 0.0
H2093 H 0.83044 0.09076 0.84593 0.0
H2094 H 0.80829 0.10303 0.80011 0.0
H2095 H 0.82088 0.07201 0.83104 0.0
H2096 H 0.78551 0.04583 0.80853 0.0
H2097 H 0.79893 0.06243 0.82307 0.0
H2098 H 0.81342 0.08384 0.78544 0.0
H2099 H 0.79958 0.06753 0.77105 0.0
C2100 C 0.81895 0.1108 0.8184 0.0
C2101 C 0.82506 0.10768 0.83156 0.0
C2102 C 0.81336 0.1001 0.80993 0.0
C2103 C 0.81381 0.08593 0.8143 0.0
C2104 C 0.82015 0.08278 0.82738 0.0
C2105 C 0.82567 0.09353 0.83592 0.0
C2106 C 0.79183 0.05391 0.80341 0.0
C2107 C 0.79143 0.05547 0.78869 0.0
C2108 C 0.79954 0.06345 0.81173 0.0
C2109 C 0.80711 0.07468 0.80548 0.0
C2110 C 0.80742 0.0756 0.79067 0.0
C2111 C 0.79961 0.06617 0.7824 0.0
H2112 H 0.91462 0.81768 0.81429 0.0
H2113 H 0.94521 0.82332 0.84774 0.0
H2114 H 0.93259 0.80717 0.79967 0.0
H2115 H 0.96332 0.81284 0.83301 0.0
H2116 H 0.98659 0.7781 0.80744 0.0
H2117 H 0.9704 0.79066 0.82289 0.0
H2118 H 0.95341 0.81262 0.78671 0.0
H2119 H 0.96928 0.79986 0.77142 0.0
C2120 C 0.92525 0.81689 0.81846 0.0
C2121 C 0.92843 0.82142 0.8322 0.0
C2122 C 0.9356 0.81085 0.81005 0.0
C2123 C 0.94949 0.80919 0.81509 0.0
C2124 C 0.95272 0.81378 0.82882 0.0
C2125 C 0.94233 0.81981 0.83726 0.0
C2126 C 0.97954 0.78578 0.80289 0.0
C2127 C 0.97908 0.78789 0.78823 0.0
C2128 C 0.97025 0.79299 0.81171 0.0
C2129 C 0.96038 0.8025 0.80604 0.0
C2130 C 0.96055 0.80511 0.79144 0.0
C2131 C 0.96972 0.79787 0.78267 0.0
H2132 H 0.81909 0.93555 0.20407 0.0
H2133 H 0.84191 0.93176 0.24342 0.0
H2134 H 0.80464 0.95392 0.21425 0.0
H2135 H 0.82753 0.95019 0.25352 0.0
H2136 H 0.80512 0.99068 0.26516 0.0
H2137 H 0.82153 0.97537 0.25269 0.0
H2138 H 0.78625 0.95486 0.23197 0.0
H2139 H 0.77006 0.97022 0.24417 0.0
C2140 C 0.82103 0.93861 0.21489 0.0
C2141 C 0.83164 0.93206 0.22292 0.0
C2142 C 0.81277 0.94919 0.22072 0.0
C2143 C 0.81489 0.95353 0.23473 0.0
C2144 C 0.82574 0.94727 0.24264 0.0
C2145 C 0.83399 0.93667 0.23683 0.0
C2146 C 0.80096 0.98306 0.25774 0.0
C2147 C 0.78632 0.98158 0.25571 0.0
C2148 C 0.81031 0.9742 0.2507 0.0
C2149 C 0.80521 0.96382 0.24137 0.0
C2150 C 0.79059 0.9628 0.23895 0.0
C2151 C 0.78129 0.97153 0.24604 0.0
H2152 H 0.10747 0.84042 0.2215 0.0
H2153 H 0.11043 0.80183 0.19791 0.0
H2154 H 0.08871 0.82994 0.23575 0.0
H2155 H 0.09155 0.79148 0.21203 0.0
H2156 H 0.05031 0.77973 0.23395 0.0
H2157 H 0.06614 0.79264 0.21794 0.0
H2158 H 0.08732 0.8114 0.25373 0.0
H2159 H 0.07146 0.79871 0.26957 0.0
C2160 C 0.10414 0.82971 0.21933 0.0
C2161 C 0.11058 0.82198 0.20857 0.0
C2162 C 0.09334 0.82372 0.22748 0.0
C2163 C 0.08863 0.80985 0.22506 0.0
C2164 C 0.09476 0.80225 0.21405 0.0
C2165 C 0.10562 0.80822 0.20594 0.0
C2166 C 0.05819 0.78683 0.23833 0.0
C2167 C 0.0597 0.78816 0.253 0.0
C2168 C 0.06733 0.79411 0.22919 0.0
C2169 C 0.07805 0.80301 0.23455 0.0
C2170 C 0.07913 0.80475 0.24922 0.0
C2171 C 0.0701 0.7974 0.25831 0.0
H2172 H 0.93091 0.1948 0.22819 0.0
H2173 H 0.93658 0.2284 0.19783 0.0
H2174 H 0.94948 0.20514 0.24291 0.0
H2175 H 0.9552 0.23856 0.21241 0.0
H2176 H 0.99463 0.24943 0.2369 0.0
H2177 H 0.97919 0.23515 0.22179 0.0
H2178 H 0.95212 0.22635 0.25732 0.0
H2179 H 0.96768 0.24035 0.2724 0.0
C2180 C 0.93611 0.20436 0.22463 0.0
C2181 C 0.93217 0.21076 0.21181 0.0
C2182 C 0.9468 0.21026 0.23305 0.0
C2183 C 0.95386 0.22267 0.22884 0.0
C2184 C 0.95017 0.22886 0.21587 0.0
C2185 C 0.93946 0.22301 0.20749 0.0
C2186 C 0.98557 0.24414 0.24153 0.0
C2187 C 0.98231 0.24608 0.2558 0.0
C2188 C 0.97664 0.2361 0.23285 0.0
C2189 C 0.96433 0.22972 0.23831 0.0
C2190 C 0.96154 0.23103 0.25277 0.0
C2191 C 0.9704 0.23913 0.2614 0.0
H2192 H 0.20661 0.69913 0.60027 0.0
H2193 H 0.23492 0.7193 0.62991 0.0
H2194 H 0.21819 0.71178 0.58087 0.0
H2195 H 0.24637 0.73187 0.6107 0.0
H2196 H 0.27369 0.74276 0.57442 0.0
H2197 H 0.26176 0.72734 0.59128 0.0
H2198 H 0.22193 0.73528 0.57052 0.0
H2199 H 0.23409 0.75052 0.55338 0.0
C2200 C 0.21521 0.70635 0.60267 0.0
C2201 C 0.21992 0.70808 0.61666 0.0
C2202 C 0.22187 0.71357 0.59154 0.0
C2203 C 0.23339 0.72269 0.59416 0.0
C2204 C 0.23782 0.72464 0.6082 0.0
C2205 C 0.23121 0.71745 0.61926 0.0
C2206 C 0.26243 0.74094 0.57329 0.0
C2207 C 0.25479 0.74786 0.56265 0.0
C2208 C 0.25555 0.73223 0.58303 0.0
C2209 C 0.24081 0.73031 0.58249 0.0
C2210 C 0.23328 0.73651 0.57126 0.0
C2211 C 0.24023 0.74519 0.56141 0.0
H2212 H 0.81952 0.72557 0.62285 0.0
H2213 H 0.82191 0.69113 0.59353 0.0
H2214 H 0.80941 0.74033 0.60453 0.0
H2215 H 0.81191 0.70603 0.57501 0.0
H2216 H 0.77791 0.73309 0.55159 0.0
H2217 H 0.79024 0.71726 0.56787 0.0
H2218 H 0.81503 0.75243 0.58334 0.0
H2219 H 0.80239 0.76813 0.56745 0.0
C2220 C 0.8181 0.72121 0.61241 0.0
C2221 C 0.82161 0.70718 0.60966 0.0
C2222 C 0.81231 0.72969 0.60186 0.0
C2223 C 0.80992 0.72444 0.5882 0.0
C2224 C 0.81346 0.7104 0.58542 0.0
C2225 C 0.81922 0.70186 0.59603 0.0
C2226 C 0.78618 0.73731 0.55832 0.0
C2227 C 0.78913 0.75181 0.55838 0.0
C2228 C 0.79325 0.72828 0.56765 0.0
C2229 C 0.80348 0.73359 0.57713 0.0
C2230 C 0.80696 0.74801 0.5765 0.0
C2231 C 0.79982 0.757 0.56731 0.0
H2232 H 0.81536 0.31224 0.62938 0.0
H2233 H 0.8221 0.3471 0.60076 0.0
H2234 H 0.80572 0.29825 0.61019 0.0
H2235 H 0.81278 0.33285 0.5813 0.0
H2236 H 0.77836 0.30671 0.55566 0.0
H2237 H 0.79036 0.32217 0.57271 0.0
H2238 H 0.81322 0.28656 0.58912 0.0
H2239 H 0.8011 0.27126 0.57237 0.0
C2240 C 0.8148 0.31693 0.61897 0.0
C2241 C 0.81947 0.33083 0.61666 0.0
C2242 C 0.80942 0.30883 0.60789 0.0
C2243 C 0.80855 0.31437 0.59413 0.0
C2244 C 0.81324 0.32827 0.59177 0.0
C2245 C 0.81871 0.33639 0.60289 0.0
C2246 C 0.78617 0.30231 0.56274 0.0
C2247 C 0.7887 0.28778 0.56281 0.0
C2248 C 0.79304 0.31113 0.57252 0.0
C2249 C 0.80257 0.30556 0.58249 0.0
C2250 C 0.80569 0.29116 0.58187 0.0
C2251 C 0.79882 0.2824 0.5722 0.0
H2252 H 0.2042 0.31846 0.61334 0.0
H2253 H 0.23893 0.34831 0.61275 0.0
H2254 H 0.21517 0.30543 0.59428 0.0
H2255 H 0.25 0.33508 0.59397 0.0
H2256 H 0.27307 0.29543 0.57725 0.0
H2257 H 0.26114 0.31155 0.59303 0.0
H2258 H 0.22274 0.30667 0.56875 0.0
H2259 H 0.23482 0.29046 0.55288 0.0
C2260 C 0.21405 0.32239 0.60904 0.0
C2261 C 0.22073 0.33439 0.61476 0.0
C2262 C 0.22035 0.3149 0.5981 0.0
C2263 C 0.23351 0.31916 0.59267 0.0
C2264 C 0.23996 0.3314 0.59806 0.0
C2265 C 0.23363 0.33894 0.6089 0.0
C2266 C 0.26215 0.29799 0.57516 0.0
C2267 C 0.25486 0.29171 0.56386 0.0
C2268 C 0.25532 0.30726 0.58416 0.0
C2269 C 0.24097 0.31036 0.58219 0.0
C2270 C 0.23377 0.3044 0.57061 0.0
C2271 C 0.24069 0.29525 0.56146 0.0
H2272 H 0.2019 0.33294 0.44784 0.0
H2273 H 0.23784 0.32631 0.42101 0.0
H2274 H 0.21344 0.31958 0.46673 0.0
H2275 H 0.24922 0.31292 0.43964 0.0
H2276 H 0.27332 0.30274 0.47859 0.0
H2277 H 0.2603 0.31717 0.46186 0.0
H2278 H 0.2215 0.2962 0.47402 0.0
H2279 H 0.23468 0.28196 0.49118 0.0
C2280 C 0.21219 0.32852 0.44593 0.0
C2281 C 0.21904 0.33085 0.43299 0.0
C2282 C 0.21881 0.32087 0.45675 0.0
C2283 C 0.23238 0.31535 0.45482 0.0
C2284 C 0.23896 0.31734 0.44169 0.0
C2285 C 0.23241 0.32501 0.43096 0.0
C2286 C 0.26198 0.30136 0.47781 0.0
C2287 C 0.25501 0.29118 0.48607 0.0
C2288 C 0.25452 0.30953 0.46813 0.0
C2289 C 0.23987 0.30765 0.46633 0.0
C2290 C 0.23276 0.29794 0.47513 0.0
C2291 C 0.24027 0.28979 0.48496 0.0
H2292 H 0.21994 0.73658 0.41718 0.0
H2293 H 0.20146 0.70686 0.44651 0.0
H2294 H 0.23228 0.74818 0.43645 0.0
H2295 H 0.21385 0.7186 0.46598 0.0
H2296 H 0.25154 0.73642 0.49379 0.0
H2297 H 0.23732 0.72356 0.47628 0.0
H2298 H 0.22672 0.76292 0.4561 0.0
H2299 H 0.2411 0.77556 0.47331 0.0
C2300 C 0.21843 0.73257 0.42778 0.0
C2301 C 0.20957 0.72088 0.43029 0.0
C2302 C 0.22548 0.73926 0.43887 0.0
C2303 C 0.22388 0.73451 0.45284 0.0
C2304 C 0.21535 0.72254 0.45535 0.0
C2305 C 0.20827 0.7158 0.44419 0.0
C2306 C 0.2459 0.74227 0.48576 0.0
C2307 C 0.2475 0.75695 0.4848 0.0
C2308 C 0.23778 0.73493 0.47572 0.0
C2309 C 0.23111 0.74217 0.46458 0.0
C2310 C 0.23203 0.75695 0.46426 0.0
C2311 C 0.24016 0.76422 0.4742 0.0
H2312 H 0.818 0.73532 0.41389 0.0
H2313 H 0.83962 0.71013 0.44503 0.0
H2314 H 0.8048 0.74669 0.43241 0.0
H2315 H 0.82644 0.7217 0.46374 0.0
H2316 H 0.78828 0.73673 0.49115 0.0
H2317 H 0.80314 0.7245 0.47415 0.0
H2318 H 0.80861 0.76332 0.45081 0.0
H2319 H 0.79359 0.77529 0.46753 0.0
C2320 C 0.82002 0.73228 0.42473 0.0
C2321 C 0.82999 0.72191 0.42796 0.0
C2322 C 0.81247 0.73885 0.43539 0.0
C2323 C 0.81469 0.73531 0.44965 0.0
C2324 C 0.82441 0.72467 0.45289 0.0
C2325 C 0.83196 0.71803 0.44217 0.0
C2326 C 0.79289 0.74264 0.4825 0.0
C2327 C 0.78966 0.75691 0.48056 0.0
C2328 C 0.80139 0.73565 0.47274 0.0
C2329 C 0.80686 0.74284 0.46091 0.0
C2330 C 0.80426 0.75732 0.45953 0.0
C2331 C 0.79574 0.76423 0.46917 0.0
H2332 H 0.83283 0.33969 0.44914 0.0
H2333 H 0.81966 0.30859 0.41868 0.0
H2334 H 0.82262 0.32534 0.46803 0.0
H2335 H 0.80926 0.29441 0.43738 0.0
H2336 H 0.79987 0.26591 0.47347 0.0
H2337 H 0.81394 0.27987 0.457 0.0
H2338 H 0.80046 0.31789 0.47747 0.0
H2339 H 0.78678 0.30375 0.49426 0.0
C2340 C 0.82774 0.3298 0.44647 0.0
C2341 C 0.82712 0.32528 0.43238 0.0
C2342 C 0.82185 0.32157 0.45731 0.0
C2343 C 0.81512 0.30864 0.45432 0.0
C2344 C 0.81462 0.30412 0.44021 0.0
C2345 C 0.82057 0.31228 0.42943 0.0
C2346 C 0.80015 0.27725 0.47459 0.0
C2347 C 0.79219 0.28376 0.4851 0.0
C2348 C 0.8081 0.28528 0.46506 0.0
C2349 C 0.80816 0.30007 0.46566 0.0
C2350 C 0.80077 0.30654 0.47669 0.0
C2351 C 0.79292 0.29846 0.48634 0.0
H2352 H 0.10363 0.73 0.69896 0.0
H2353 H 0.10773 0.69656 0.72967 0.0
H2354 H 0.08471 0.7401 0.7127 0.0
H2355 H 0.08887 0.70683 0.74353 0.0
H2356 H 0.06994 0.74159 0.77223 0.0
H2357 H 0.08587 0.72785 0.75783 0.0
H2358 H 0.06038 0.73675 0.72105 0.0
H2359 H 0.04453 0.75075 0.73553 0.0
C2360 C 0.10036 0.72464 0.70851 0.0
C2361 C 0.10731 0.71244 0.71317 0.0
C2362 C 0.08947 0.73046 0.71641 0.0
C2363 C 0.08523 0.7243 0.72925 0.0
C2364 C 0.09197 0.71195 0.73379 0.0
C2365 C 0.10284 0.70609 0.72585 0.0
C2366 C 0.06762 0.74044 0.7611 0.0
C2367 C 0.05603 0.74733 0.755 0.0
C2368 C 0.07672 0.73249 0.75285 0.0
C2369 C 0.07451 0.73128 0.73823 0.0
C2370 C 0.06251 0.73762 0.73224 0.0
C2371 C 0.05333 0.7455 0.74055 0.0
H2372 H 0.84159 0.60466 0.73418 0.0
H2373 H 0.81135 0.60876 0.70018 0.0
H2374 H 0.82697 0.58632 0.74482 0.0
H2375 H 0.79656 0.59058 0.71108 0.0
H2376 H 0.76704 0.57367 0.7472 0.0
H2377 H 0.78214 0.58889 0.73281 0.0
H2378 H 0.81757 0.562 0.74156 0.0
H2379 H 0.80243 0.54683 0.75611 0.0
C2380 C 0.83195 0.60151 0.72881 0.0
C2381 C 0.82768 0.60829 0.7163 0.0
C2382 C 0.82355 0.59097 0.73495 0.0
C2383 C 0.81059 0.58699 0.72881 0.0
C2384 C 0.80642 0.59352 0.71616 0.0
C2385 C 0.81488 0.604 0.70995 0.0
C2386 C 0.77801 0.5709 0.74587 0.0
C2387 C 0.78357 0.5591 0.75284 0.0
C2388 C 0.78664 0.57958 0.73756 0.0
C2389 C 0.80109 0.57673 0.73613 0.0
C2390 C 0.80652 0.56456 0.74259 0.0
C2391 C 0.79783 0.5558 0.7508 0.0
H2392 H 0.94447 0.334 0.70188 0.0
H2393 H 0.91396 0.32039 0.73286 0.0
H2394 H 0.96338 0.32373 0.71606 0.0
H2395 H 0.93267 0.30992 0.74684 0.0
H2396 H 0.96848 0.29968 0.77507 0.0
H2397 H 0.9523 0.31426 0.76148 0.0
H2398 H 0.97277 0.30163 0.72304 0.0
H2399 H 0.98931 0.2875 0.73684 0.0
C2400 C 0.9418 0.3288 0.71171 0.0
C2401 C 0.92769 0.32807 0.71625 0.0
C2402 C 0.95264 0.32288 0.71984 0.0
C2403 C 0.94964 0.316 0.73268 0.0
C2404 C 0.93552 0.3154 0.73722 0.0
C2405 C 0.92473 0.32139 0.72916 0.0
C2406 C 0.9697 0.30032 0.76374 0.0
C2407 C 0.98012 0.29247 0.75699 0.0
C2408 C 0.96033 0.30854 0.75591 0.0
C2409 C 0.96097 0.30894 0.74109 0.0
C2410 C 0.97196 0.30169 0.73442 0.0
C2411 C 0.98147 0.29359 0.7423 0.0
H2412 H 0.21737 0.41219 0.74217 0.0
H2413 H 0.19802 0.44203 0.71383 0.0
H2414 H 0.23019 0.43118 0.75371 0.0
H2415 H 0.21076 0.46125 0.72559 0.0
H2416 H 0.24892 0.48899 0.74157 0.0
H2417 H 0.23385 0.47172 0.72943 0.0
H2418 H 0.2265 0.45032 0.76908 0.0
H2419 H 0.24188 0.46726 0.78094 0.0
C2420 C 0.21574 0.42285 0.73849 0.0
C2421 C 0.20656 0.42558 0.72715 0.0
C2422 C 0.22306 0.4338 0.74516 0.0
C2423 C 0.22138 0.44784 0.74076 0.0
C2424 C 0.21238 0.45058 0.72923 0.0
C2425 C 0.20508 0.43956 0.72248 0.0
C2426 C 0.24381 0.48074 0.74766 0.0
C2427 C 0.24661 0.47938 0.76215 0.0
C2428 C 0.23519 0.47082 0.74074 0.0
C2429 C 0.22916 0.45941 0.7482 0.0
C2430 C 0.23128 0.45869 0.76288 0.0
C2431 C 0.23997 0.46848 0.76974 0.0
H2432 H 0.10782 0.33725 0.32376 0.0
H2433 H 0.10502 0.3011 0.35144 0.0
H2434 H 0.08912 0.32737 0.30909 0.0
H2435 H 0.08691 0.29082 0.33628 0.0
H2436 H 0.04825 0.27859 0.31071 0.0
H2437 H 0.06317 0.29167 0.32737 0.0
H2438 H 0.08715 0.30891 0.29258 0.0
H2439 H 0.07196 0.29643 0.2761 0.0
C2440 C 0.10315 0.32726 0.32682 0.0
C2441 C 0.10808 0.31995 0.33876 0.0
C2442 C 0.09251 0.32148 0.31827 0.0
C2443 C 0.08657 0.30819 0.32136 0.0
C2444 C 0.09113 0.30111 0.33359 0.0
C2445 C 0.10171 0.30693 0.34218 0.0
C2446 C 0.05654 0.2854 0.30666 0.0
C2447 C 0.05901 0.28635 0.29209 0.0
C2448 C 0.0652 0.29278 0.3162 0.0
C2449 C 0.07646 0.3013 0.31136 0.0
C2450 C 0.07853 0.30261 0.29675 0.0
C2451 C 0.0699 0.2953 0.28727 0.0
H2452 H 0.22 0.62316 0.3149 0.0
H2453 H 0.21325 0.59382 0.34916 0.0
H2454 H 0.23048 0.60464 0.30102 0.0
H2455 H 0.22363 0.57513 0.33516 0.0
H2456 H 0.25833 0.55038 0.31114 0.0
H2457 H 0.24572 0.56723 0.32575 0.0
H2458 H 0.22518 0.58373 0.28851 0.0
H2459 H 0.23805 0.56722 0.27403 0.0
C2460 C 0.22054 0.61269 0.31939 0.0
C2461 C 0.21571 0.61001 0.33314 0.0
C2462 C 0.22655 0.60201 0.31141 0.0
C2463 C 0.22786 0.58829 0.31689 0.0
C2464 C 0.22297 0.58558 0.33063 0.0
C2465 C 0.21699 0.5963 0.33866 0.0
C2466 C 0.25093 0.55747 0.30616 0.0
C2467 C 0.24927 0.55758 0.29144 0.0
C2468 C 0.24369 0.56714 0.31451 0.0
C2469 C 0.23456 0.57705 0.30831 0.0
C2470 C 0.23238 0.57656 0.29365 0.0
C2471 C 0.23968 0.56702 0.28533 0.0
H2472 H 0.93135 0.72215 0.33676 0.0
H2473 H 0.93267 0.69037 0.30445 0.0
H2474 H 0.95068 0.73485 0.32524 0.0
H2475 H 0.95179 0.7032 0.29286 0.0
H2476 H 0.96924 0.74145 0.26711 0.0
H2477 H 0.95321 0.72576 0.27988 0.0
H2478 H 0.97625 0.73388 0.31843 0.0
H2479 H 0.99233 0.74972 0.30553 0.0
C2480 C 0.93587 0.71774 0.32733 0.0
C2481 C 0.93028 0.7053 0.32146 0.0
C2482 C 0.94698 0.72503 0.32073 0.0
C2483 C 0.95271 0.72009 0.30807 0.0
C2484 C 0.94746 0.70741 0.30247 0.0
C2485 C 0.93644 0.70009 0.3091 0.0
C2486 C 0.97101 0.7397 0.27827 0.0
C2487 C 0.982 0.7468 0.28534 0.0
C2488 C 0.96186 0.73067 0.28559 0.0
C2489 C 0.9634 0.72861 0.3002 0.0
C2490 C 0.97471 0.73535 0.3072 0.0
C2491 C 0.984 0.74428 0.29982 0.0
H2492 H 0.82217 0.41282 0.30488 0.0
H2493 H 0.83332 0.43965 0.33986 0.0
H2494 H 0.8091 0.4319 0.29406 0.0
H2495 H 0.82015 0.45895 0.32892 0.0
H2496 H 0.78221 0.48459 0.30888 0.0
H2497 H 0.79622 0.46705 0.32177 0.0
H2498 H 0.81478 0.45395 0.28257 0.0
H2499 H 0.8007 0.47114 0.26985 0.0
C2500 C 0.8219 0.42284 0.31024 0.0
C2501 C 0.82899 0.42474 0.32315 0.0
C2502 C 0.81441 0.43382 0.30401 0.0
C2503 C 0.81378 0.44708 0.31047 0.0
C2504 C 0.82042 0.44888 0.32365 0.0
C2505 C 0.82795 0.43782 0.32993 0.0
C2506 C 0.7895 0.47811 0.30313 0.0
C2507 C 0.79027 0.4791 0.28837 0.0
C2508 C 0.7975 0.46805 0.31048 0.0
C2509 C 0.8064 0.45887 0.30317 0.0
C2510 C 0.80774 0.46055 0.2885 0.0
C2511 C 0.79976 0.47047 0.28121 0.0
H2512 H 0.19373 0.6018 0.73619 0.0
H2513 H 0.22519 0.60873 0.70401 0.0
H2514 H 0.20808 0.58332 0.74651 0.0
H2515 H 0.23966 0.59034 0.71453 0.0
H2516 H 0.2682 0.57204 0.75045 0.0
H2517 H 0.25341 0.5876 0.73636 0.0
H2518 H 0.21777 0.55962 0.74284 0.0
H2519 H 0.23263 0.54411 0.75716 0.0
C2520 C 0.20359 0.59924 0.73114 0.0
C2521 C 0.20827 0.60686 0.71925 0.0
C2522 C 0.21184 0.58861 0.73709 0.0
C2523 C 0.22505 0.58533 0.73137 0.0
C2524 C 0.22962 0.59271 0.71931 0.0
C2525 C 0.22133 0.6033 0.7133 0.0
C2526 C 0.25725 0.56911 0.74868 0.0
C2527 C 0.25155 0.55691 0.75498 0.0
C2528 C 0.24878 0.57799 0.74054 0.0
C2529 C 0.23436 0.57493 0.73855 0.0
C2530 C 0.2288 0.56237 0.74431 0.0
C2531 C 0.23733 0.55341 0.75238 0.0
H2532 H 0.21838 0.43052 0.34578 0.0
H2533 H 0.19149 0.43195 0.3089 0.0
H2534 H 0.23278 0.44955 0.33612 0.0
H2535 H 0.2064 0.45039 0.29885 0.0
H2536 H 0.23103 0.48963 0.28687 0.0
H2537 H 0.21454 0.47431 0.29971 0.0
H2538 H 0.24973 0.45213 0.31811 0.0
H2539 H 0.26603 0.46774 0.30587 0.0
C2540 C 0.21544 0.43495 0.33566 0.0
C2541 C 0.20379 0.42954 0.3281 0.0
C2542 C 0.22383 0.44578 0.33002 0.0
C2543 C 0.22089 0.45146 0.3166 0.0
C2544 C 0.20897 0.44639 0.30925 0.0
C2545 C 0.20052 0.43562 0.31493 0.0
C2546 C 0.2352 0.48167 0.2939 0.0
C2547 C 0.24984 0.47983 0.29524 0.0
C2548 C 0.22576 0.47277 0.30114 0.0
C2549 C 0.23076 0.46187 0.3099 0.0
C2550 C 0.24542 0.46045 0.31162 0.0
C2551 C 0.2548 0.46933 0.30445 0.0
H2552 H 0.12524 0.728 0.32033 0.0
H2553 H 0.09356 0.69767 0.33326 0.0
H2554 H 0.10703 0.74268 0.31007 0.0
H2555 H 0.07516 0.71254 0.32322 0.0
H2556 H 0.04928 0.73484 0.28784 0.0
H2557 H 0.06571 0.72028 0.30128 0.0
H2558 H 0.08813 0.75773 0.31481 0.0
H2559 H 0.07199 0.77212 0.30097 0.0
C2560 C 0.11434 0.72458 0.32121 0.0
C2561 C 0.11089 0.71165 0.32765 0.0
C2562 C 0.10383 0.73304 0.31535 0.0
C2563 C 0.08952 0.72889 0.31584 0.0
C2564 C 0.08605 0.71603 0.32245 0.0
C2565 C 0.0966 0.7075 0.32824 0.0
C2566 C 0.05756 0.73993 0.29394 0.0
C2567 C 0.05943 0.7546 0.29328 0.0
C2568 C 0.067 0.7316 0.30166 0.0
C2569 C 0.07845 0.73777 0.30899 0.0
C2570 C 0.07972 0.75254 0.309 0.0
C2571 C 0.07039 0.76082 0.30118 0.0
H2572 H 0.80734 0.60381 0.34907 0.0
H2573 H 0.84117 0.60879 0.31901 0.0
H2574 H 0.79739 0.58469 0.33511 0.0
H2575 H 0.83095 0.58983 0.30488 0.0
H2576 H 0.7951 0.57147 0.27565 0.0
H2577 H 0.80919 0.58725 0.29042 0.0
H2578 H 0.80139 0.56031 0.3264 0.0
H2579 H 0.78718 0.54451 0.31151 0.0
C2580 C 0.81283 0.6007 0.33963 0.0
C2581 C 0.82506 0.60797 0.33518 0.0
C2582 C 0.80709 0.5897 0.33161 0.0
C2583 C 0.81335 0.58574 0.31886 0.0
C2584 C 0.82577 0.59274 0.31457 0.0
C2585 C 0.83158 0.60366 0.32265 0.0
C2586 C 0.79664 0.56879 0.28666 0.0
C2587 C 0.79002 0.5568 0.29246 0.0
C2588 C 0.80475 0.57779 0.29512 0.0
C2589 C 0.80633 0.5751 0.30962 0.0
C2590 C 0.80025 0.56274 0.31529 0.0
C2591 C 0.79224 0.55363 0.30677 0.0
H2592 H 0.9472 0.32987 0.34214 0.0
H2593 H 0.91519 0.31319 0.31413 0.0
H2594 H 0.96551 0.31947 0.32761 0.0
H2595 H 0.93334 0.30259 0.2998 0.0
H2596 H 0.96798 0.29311 0.26993 0.0
H2597 H 0.95169 0.30705 0.28371 0.0
H2598 H 0.97545 0.29743 0.32149 0.0
H2599 H 0.99203 0.28388 0.30749 0.0
C2600 C 0.94407 0.32395 0.33289 0.0
C2601 C 0.92971 0.32242 0.32928 0.0
C2602 C 0.95457 0.31795 0.32457 0.0
C2603 C 0.95098 0.31019 0.31245 0.0
C2604 C 0.9366 0.30875 0.30884 0.0
C2605 C 0.92614 0.31482 0.31709 0.0
C2606 C 0.96982 0.29418 0.28116 0.0
C2607 C 0.98122 0.28735 0.28766 0.0
C2608 C 0.96041 0.30206 0.2891 0.0
C2609 C 0.96203 0.3032 0.30381 0.0
C2610 C 0.97387 0.29691 0.3102 0.0
C2611 C 0.9834 0.28913 0.30219 0.0
H2612 H 0.84621 0.43426 0.74322 0.0
H2613 H 0.81332 0.43162 0.71161 0.0
H2614 H 0.83369 0.45318 0.75476 0.0
H2615 H 0.80086 0.45071 0.72313 0.0
H2616 H 0.78638 0.49212 0.74238 0.0
H2617 H 0.80166 0.47612 0.72941 0.0
H2618 H 0.81186 0.45466 0.76832 0.0
H2619 H 0.79679 0.47068 0.78118 0.0
C2620 C 0.83629 0.43769 0.73872 0.0
C2621 C 0.8307 0.43123 0.72657 0.0
C2622 C 0.82913 0.44859 0.74533 0.0
C2623 C 0.81621 0.45341 0.73994 0.0
C2624 C 0.81086 0.44735 0.72749 0.0
C2625 C 0.81801 0.43639 0.72089 0.0
C2626 C 0.79214 0.48416 0.74816 0.0
C2627 C 0.79037 0.48262 0.76278 0.0
C2628 C 0.80076 0.4749 0.74072 0.0
C2629 C 0.80793 0.46404 0.74781 0.0
C2630 C 0.80661 0.46295 0.76253 0.0
C2631 C 0.79791 0.47209 0.76991 0.0
H2632 H 0.12457 0.30053 0.71972 0.0
H2633 H 0.09551 0.33082 0.70251 0.0
H2634 H 0.10546 0.28936 0.73274 0.0
H2635 H 0.07616 0.31943 0.71542 0.0
H2636 H 0.04912 0.30326 0.75366 0.0
H2637 H 0.06653 0.31517 0.73858 0.0
H2638 H 0.08519 0.27504 0.72925 0.0
H2639 H 0.06816 0.26337 0.74464 0.0
C2640 C 0.11404 0.30472 0.7186 0.0
C2641 C 0.11156 0.3165 0.70997 0.0
C2642 C 0.10303 0.29827 0.72604 0.0
C2643 C 0.08915 0.30332 0.725 0.0
C2644 C 0.08669 0.31527 0.71654 0.0
C2645 C 0.09778 0.32181 0.70914 0.0
C2646 C 0.0568 0.29702 0.74813 0.0
C2647 C 0.05738 0.28243 0.75037 0.0
C2648 C 0.06679 0.30382 0.7395 0.0
C2649 C 0.07748 0.29612 0.73288 0.0
C2650 C 0.07741 0.28139 0.73448 0.0
C2651 C 0.06756 0.27466 0.74318 0.0
H2652 H 0.91192 0.73663 0.71627 0.0
H2653 H 0.94129 0.7062 0.70049 0.0
H2654 H 0.93096 0.7484 0.72894 0.0
H2655 H 0.96053 0.71813 0.71315 0.0
H2656 H 0.98701 0.73588 0.75141 0.0
H2657 H 0.96987 0.72324 0.73659 0.0
H2658 H 0.95127 0.76281 0.72444 0.0
H2659 H 0.9681 0.77526 0.73949 0.0
C2660 C 0.9225 0.73252 0.7154 0.0
C2661 C 0.92508 0.72054 0.70725 0.0
C2662 C 0.93346 0.73931 0.72264 0.0
C2663 C 0.94737 0.73438 0.72191 0.0
C2664 C 0.94995 0.7222 0.714 0.0
C2665 C 0.93892 0.71535 0.70676 0.0
C2666 C 0.97943 0.74184 0.74531 0.0
C2667 C 0.97878 0.75652 0.74668 0.0
C2668 C 0.96959 0.73462 0.73683 0.0
C2669 C 0.95897 0.74197 0.72953 0.0
C2670 C 0.95901 0.75675 0.73022 0.0
C2671 C 0.96874 0.76392 0.73873 0.0
H2672 H 0.70788 0.19884 0.6007 0.0
H2673 H 0.73951 0.21459 0.62966 0.0
H2674 H 0.71941 0.21165 0.58138 0.0
H2675 H 0.75086 0.22744 0.61058 0.0
H2676 H 0.77673 0.23872 0.5733 0.0
H2677 H 0.76466 0.22344 0.59017 0.0
H2678 H 0.7245 0.23496 0.57196 0.0
H2679 H 0.73678 0.24998 0.55474 0.0
C2680 C 0.71722 0.20513 0.60297 0.0
C2681 C 0.72286 0.20556 0.61671 0.0
C2682 C 0.72383 0.21246 0.59189 0.0
C2683 C 0.73622 0.22043 0.59433 0.0
C2684 C 0.7416 0.2211 0.60816 0.0
C2685 C 0.73505 0.21375 0.61916 0.0
C2686 C 0.76534 0.23775 0.57274 0.0
C2687 C 0.75768 0.24556 0.56277 0.0
C2688 C 0.75839 0.22912 0.5825 0.0
C2689 C 0.74355 0.22819 0.58268 0.0
C2690 C 0.73592 0.23538 0.57214 0.0
C2691 C 0.74293 0.24396 0.56225 0.0
H2692 H 0.32843 0.19752 0.60043 0.0
H2693 H 0.30028 0.21578 0.6307 0.0
H2694 H 0.31663 0.21047 0.58147 0.0
H2695 H 0.28869 0.22884 0.61196 0.0
H2696 H 0.26171 0.24162 0.57588 0.0
H2697 H 0.27327 0.2258 0.59248 0.0
H2698 H 0.31315 0.23364 0.57177 0.0
H2699 H 0.30133 0.24914 0.55486 0.0
C2700 C 0.3198 0.20438 0.60305 0.0
C2701 C 0.31522 0.20552 0.61707 0.0
C2702 C 0.31302 0.21181 0.59218 0.0
C2703 C 0.30156 0.22059 0.59511 0.0
C2704 C 0.2972 0.22188 0.60919 0.0
C2705 C 0.30389 0.21443 0.61999 0.0
C2706 C 0.27289 0.23973 0.57474 0.0
C2707 C 0.28064 0.24664 0.56414 0.0
C2708 C 0.27958 0.23078 0.58433 0.0
C2709 C 0.29424 0.22865 0.5837 0.0
C2710 C 0.30185 0.23497 0.57258 0.0
C2711 C 0.2951 0.24384 0.56287 0.0
H2712 H 0.30138 0.82079 0.6314 0.0
H2713 H 0.32836 0.84242 0.60162 0.0
H2714 H 0.29008 0.80802 0.61224 0.0
H2715 H 0.31689 0.82966 0.58227 0.0
H2716 H 0.3018 0.79156 0.55418 0.0
H2717 H 0.31378 0.80652 0.57161 0.0
H2718 H 0.27416 0.81207 0.5931 0.0
H2719 H 0.26243 0.7969 0.57596 0.0
C2720 C 0.30482 0.82292 0.62072 0.0
C2721 C 0.31569 0.83274 0.61806 0.0
C2722 C 0.2983 0.81562 0.60969 0.0
C2723 C 0.30239 0.81795 0.59563 0.0
C2724 C 0.31349 0.82755 0.59296 0.0
C2725 C 0.32008 0.83485 0.60405 0.0
C2726 C 0.29566 0.79626 0.56247 0.0
C2727 C 0.28122 0.79301 0.5638 0.0
C2728 C 0.30251 0.8048 0.57249 0.0
C2729 C 0.29501 0.81028 0.58397 0.0
C2730 C 0.28037 0.80772 0.58467 0.0
C2731 C 0.2736 0.79915 0.57477 0.0
H2732 H 0.70799 0.83834 0.59722 0.0
H2733 H 0.73768 0.82051 0.62681 0.0
H2734 H 0.71988 0.82638 0.5779 0.0
H2735 H 0.74943 0.80859 0.60767 0.0
H2736 H 0.77671 0.79974 0.57089 0.0
H2737 H 0.76428 0.81402 0.58794 0.0
H2738 H 0.7246 0.80323 0.56788 0.0
H2739 H 0.73721 0.78911 0.55058 0.0
C2740 C 0.71696 0.83177 0.59962 0.0
C2741 C 0.72196 0.83051 0.61356 0.0
C2742 C 0.72379 0.82493 0.58854 0.0
C2743 C 0.73577 0.81668 0.59116 0.0
C2744 C 0.7405 0.81517 0.60516 0.0
C2745 C 0.73372 0.82199 0.61618 0.0
C2746 C 0.76535 0.80061 0.56999 0.0
C2747 C 0.75792 0.79323 0.55948 0.0
C2748 C 0.7582 0.80869 0.57983 0.0
C2749 C 0.74338 0.80953 0.57951 0.0
C2750 C 0.736 0.80284 0.56846 0.0
C2751 C 0.74321 0.79478 0.55851 0.0
H2752 H 0.70493 0.84147 0.44851 0.0
H2753 H 0.71751 0.81139 0.41723 0.0
H2754 H 0.71534 0.82683 0.46701 0.0
H2755 H 0.72821 0.797 0.4355 0.0
H2756 H 0.73908 0.76803 0.47046 0.0
H2757 H 0.72426 0.78185 0.45465 0.0
H2758 H 0.73746 0.81978 0.47618 0.0
H2759 H 0.75176 0.80574 0.49235 0.0
C2760 C 0.70994 0.83174 0.44559 0.0
C2761 C 0.71034 0.82757 0.4314 0.0
C2762 C 0.71594 0.82335 0.45619 0.0
C2763 C 0.72261 0.81065 0.45283 0.0
C2764 C 0.72289 0.80649 0.43862 0.0
C2765 C 0.71679 0.81479 0.42808 0.0
C2766 C 0.73852 0.77929 0.47197 0.0
C2767 C 0.74656 0.78584 0.48259 0.0
C2768 C 0.73016 0.78726 0.46282 0.0
C2769 C 0.72984 0.80202 0.46389 0.0
C2770 C 0.73732 0.80846 0.47505 0.0
C2771 C 0.74553 0.80044 0.48434 0.0
H2772 H 0.69262 0.21447 0.44895 0.0
H2773 H 0.7272 0.21975 0.4199 0.0
H2774 H 0.70701 0.22499 0.46768 0.0
H2775 H 0.74146 0.23038 0.43842 0.0
H2776 H 0.76887 0.23833 0.47579 0.0
H2777 H 0.75378 0.22528 0.45951 0.0
H2778 H 0.71737 0.24692 0.47544 0.0
H2779 H 0.73261 0.25966 0.49212 0.0
C2780 C 0.70328 0.21791 0.44654 0.0
C2781 C 0.70877 0.21617 0.43291 0.0
C2782 C 0.71153 0.22397 0.45728 0.0
C2783 C 0.72547 0.22848 0.45465 0.0
C2784 C 0.73091 0.22674 0.441 0.0
C2785 C 0.72271 0.22064 0.43032 0.0
C2786 C 0.7576 0.24012 0.47594 0.0
C2787 C 0.75191 0.25005 0.48515 0.0
C2788 C 0.74895 0.23275 0.46652 0.0
C2789 C 0.73434 0.23521 0.4659 0.0
C2790 C 0.72854 0.24468 0.47562 0.0
C2791 C 0.73724 0.25199 0.48519 0.0
H2792 H 0.35089 0.23483 0.44176 0.0
H2793 H 0.31488 0.20749 0.43444 0.0
H2794 H 0.33838 0.24611 0.46092 0.0
H2795 H 0.30246 0.21868 0.4538 0.0
H2796 H 0.287 0.23627 0.49566 0.0
H2797 H 0.30221 0.2229 0.47985 0.0
H2798 H 0.31792 0.26182 0.46185 0.0
H2799 H 0.30284 0.27504 0.47761 0.0
C2800 C 0.3403 0.2312 0.44422 0.0
C2801 C 0.33384 0.22035 0.43637 0.0
C2802 C 0.33316 0.23764 0.45526 0.0
C2803 C 0.31939 0.23337 0.45884 0.0
C2804 C 0.31312 0.22213 0.45141 0.0
C2805 C 0.32025 0.21572 0.4403 0.0
C2806 C 0.29396 0.24191 0.48853 0.0
C2807 C 0.29375 0.25667 0.48783 0.0
C2808 C 0.30255 0.23428 0.47939 0.0
C2809 C 0.31123 0.24128 0.46953 0.0
C2810 C 0.31148 0.25607 0.46937 0.0
C2811 C 0.3028 0.26366 0.47836 0.0
H2812 H 0.30099 0.84084 0.43187 0.0
H2813 H 0.34059 0.81923 0.43685 0.0
H2814 H 0.29118 0.82734 0.45144 0.0
H2815 H 0.33054 0.80544 0.45625 0.0
H2816 H 0.29833 0.77197 0.47529 0.0
H2817 H 0.31148 0.78683 0.45867 0.0
H2818 H 0.29389 0.82382 0.47768 0.0
H2819 H 0.28085 0.80886 0.4944 0.0
C2820 C 0.3077 0.83336 0.43723 0.0
C2821 C 0.32164 0.8312 0.43272 0.0
C2822 C 0.30204 0.82561 0.44848 0.0
C2823 C 0.3101 0.81536 0.45546 0.0
C2824 C 0.32404 0.81319 0.45102 0.0
C2825 C 0.32976 0.82105 0.43984 0.0
C2826 C 0.29762 0.7833 0.47613 0.0
C2827 C 0.2887 0.78931 0.48617 0.0
C2828 C 0.30512 0.79181 0.46663 0.0
C2829 C 0.30365 0.80651 0.46678 0.0
C2830 C 0.29516 0.81253 0.47722 0.0
C2831 C 0.28783 0.80401 0.48689 0.0
H2832 H 0.5974 0.20867 0.70147 0.0
H2833 H 0.62764 0.23521 0.72314 0.0
H2834 H 0.57813 0.22053 0.71352 0.0
H2835 H 0.60856 0.24691 0.73519 0.0
H2836 H 0.57293 0.27498 0.74522 0.0
H2837 H 0.58997 0.26304 0.7305 0.0
H2838 H 0.56711 0.22388 0.73639 0.0
H2839 H 0.5498 0.23605 0.75089 0.0
C2840 C 0.59994 0.21694 0.70889 0.0
C2841 C 0.61407 0.22108 0.71122 0.0
C2842 C 0.5889 0.22376 0.71578 0.0
C2843 C 0.59173 0.23485 0.72518 0.0
C2844 C 0.6059 0.23871 0.72773 0.0
C2845 C 0.61688 0.23195 0.72084 0.0
C2846 C 0.57141 0.26387 0.74314 0.0
C2847 C 0.56009 0.25643 0.74926 0.0
C2848 C 0.58125 0.25697 0.73482 0.0
C2849 C 0.58014 0.2424 0.7325 0.0
C2850 C 0.56831 0.2351 0.73792 0.0
C2851 C 0.55837 0.24206 0.7462 0.0
H2852 H 0.32707 0.12486 0.74444 0.0
H2853 H 0.33877 0.09603 0.71165 0.0
H2854 H 0.31418 0.10612 0.7564 0.0
H2855 H 0.326 0.07704 0.7238 0.0
H2856 H 0.28761 0.05189 0.74281 0.0
H2857 H 0.30269 0.06866 0.73002 0.0
H2858 H 0.31789 0.08529 0.76967 0.0
H2859 H 0.30248 0.06889 0.78228 0.0
C2860 C 0.32702 0.11445 0.73986 0.0
C2861 C 0.33404 0.11193 0.72714 0.0
C2862 C 0.31966 0.10365 0.74676 0.0
C2863 C 0.31919 0.08996 0.7412 0.0
C2864 C 0.32606 0.08746 0.72835 0.0
C2865 C 0.33338 0.09833 0.72138 0.0
C2866 C 0.29442 0.05896 0.74873 0.0
C2867 C 0.29383 0.0592 0.76351 0.0
C2868 C 0.30305 0.06858 0.74142 0.0
C2869 C 0.31132 0.07855 0.74879 0.0
C2870 C 0.31137 0.07807 0.76362 0.0
C2871 C 0.30266 0.06859 0.77087 0.0
H2872 H 0.43869 0.84082 0.71555 0.0
H2873 H 0.41625 0.80108 0.71387 0.0
H2874 H 0.45819 0.82942 0.7281 0.0
H2875 H 0.43548 0.7898 0.72638 0.0
H2876 H 0.47608 0.7692 0.73617 0.0
H2877 H 0.45921 0.78269 0.72229 0.0
H2878 H 0.46493 0.81792 0.75039 0.0
H2879 H 0.48224 0.80437 0.76405 0.0
C2880 C 0.43786 0.82969 0.71795 0.0
C2881 C 0.42598 0.82183 0.71352 0.0
C2882 C 0.44904 0.82315 0.72513 0.0
C2883 C 0.44856 0.80862 0.72805 0.0
C2884 C 0.43647 0.80091 0.72396 0.0
C2885 C 0.42538 0.80741 0.71679 0.0
C2886 C 0.47397 0.77996 0.73914 0.0
C2887 C 0.48047 0.78579 0.7511 0.0
C2888 C 0.46418 0.78765 0.73131 0.0
C2889 C 0.46045 0.80132 0.73537 0.0
C2890 C 0.46756 0.80745 0.74693 0.0
C2891 C 0.47749 0.79973 0.75474 0.0
H2892 H 0.69438 0.93174 0.73499 0.0
H2893 H 0.7251 0.92771 0.70181 0.0
H2894 H 0.7087 0.95026 0.74568 0.0
H2895 H 0.73955 0.94611 0.71271 0.0
H2896 H 0.76868 0.96389 0.7485 0.0
H2897 H 0.75377 0.94826 0.7344 0.0
H2898 H 0.71789 0.97456 0.74251 0.0
H2899 H 0.73287 0.99012 0.75683 0.0
C2900 C 0.70406 0.93494 0.72981 0.0
C2901 C 0.70856 0.92813 0.71752 0.0
C2902 C 0.71229 0.94558 0.73598 0.0
C2903 C 0.72529 0.94967 0.73007 0.0
C2904 C 0.72967 0.94309 0.71763 0.0
C2905 C 0.7214 0.93249 0.71141 0.0
C2906 C 0.75764 0.96642 0.74713 0.0
C2907 C 0.75192 0.97817 0.75386 0.0
C2908 C 0.74911 0.95752 0.73897 0.0
C2909 C 0.7346 0.96009 0.7374 0.0
C2910 C 0.72899 0.97219 0.74365 0.0
C2911 C 0.73758 0.98118 0.75173 0.0
H2912 H 0.60029 0.80526 0.34677 0.0
H2913 H 0.60465 0.8397 0.31712 0.0
H2914 H 0.58182 0.7949 0.33211 0.0
H2915 H 0.58631 0.82911 0.30231 0.0
H2916 H 0.56906 0.79378 0.27228 0.0
H2917 H 0.58446 0.80777 0.28755 0.0
H2918 H 0.55746 0.79825 0.32295 0.0
H2919 H 0.54211 0.78407 0.30762 0.0
C2920 C 0.59717 0.81078 0.33726 0.0
C2921 C 0.60405 0.82333 0.33315 0.0
C2922 C 0.58655 0.80481 0.32884 0.0
C2923 C 0.58258 0.81117 0.31603 0.0
C2924 C 0.58923 0.82386 0.31204 0.0
C2925 C 0.59979 0.8299 0.32052 0.0
C2926 C 0.56632 0.79485 0.28329 0.0
C2927 C 0.55444 0.78776 0.28879 0.0
C2928 C 0.57509 0.80293 0.29203 0.0
C2929 C 0.57225 0.80404 0.3065 0.0
C2930 C 0.56001 0.79747 0.31188 0.0
C2931 C 0.55115 0.78947 0.30309 0.0
H2932 H 0.71296 0.09364 0.35019 0.0
H2933 H 0.71907 0.12341 0.31619 0.0
H2934 H 0.72319 0.07515 0.33579 0.0
H2935 H 0.72939 0.10511 0.30192 0.0
H2936 H 0.73646 0.06827 0.27422 0.0
H2937 H 0.72373 0.08439 0.28926 0.0
H2938 H 0.74514 0.06739 0.32579 0.0
H2939 H 0.75759 0.0509 0.31059 0.0
C2940 C 0.71652 0.09626 0.33966 0.0
C2941 C 0.71509 0.11002 0.33433 0.0
C2942 C 0.72241 0.08565 0.33141 0.0
C2943 C 0.72706 0.08855 0.31762 0.0
C2944 C 0.72564 0.10234 0.31234 0.0
C2945 C 0.71971 0.11289 0.32055 0.0
C2946 C 0.73828 0.06786 0.2855 0.0
C2947 C 0.74807 0.05841 0.29124 0.0
C2948 C 0.73108 0.07718 0.29413 0.0
C2949 C 0.73358 0.07744 0.30875 0.0
C2950 C 0.74288 0.06748 0.31459 0.0
C2951 C 0.75003 0.05802 0.30591 0.0
H2952 H 0.43167 0.19637 0.31132 0.0
H2953 H 0.43031 0.22406 0.34722 0.0
H2954 H 0.45059 0.21062 0.30122 0.0
H2955 H 0.44913 0.23848 0.33693 0.0
H2956 H 0.46726 0.26964 0.30296 0.0
H2957 H 0.45149 0.25443 0.31659 0.0
H2958 H 0.47542 0.21822 0.30413 0.0
H2959 H 0.4911 0.23351 0.29026 0.0
C2960 C 0.43554 0.20535 0.31721 0.0
C2961 C 0.42936 0.20903 0.33011 0.0
C2962 C 0.44642 0.21355 0.31138 0.0
C2963 C 0.4514 0.22571 0.31825 0.0
C2964 C 0.44544 0.22927 0.33128 0.0
C2965 C 0.4346 0.22102 0.33715 0.0
C2966 C 0.46928 0.25845 0.30331 0.0
C2967 C 0.48037 0.25276 0.29546 0.0
C2968 C 0.46028 0.24973 0.31119 0.0
C2969 C 0.46209 0.23508 0.31136 0.0
C2970 C 0.47362 0.22945 0.30407 0.0
C2971 C 0.4827 0.23821 0.29626 0.0
H2972 H 0.34275 0.92917 0.30504 0.0
H2973 H 0.32192 0.93347 0.34515 0.0
H2974 H 0.32885 0.94841 0.29548 0.0
H2975 H 0.30791 0.95264 0.3355 0.0
H2976 H 0.27271 0.97043 0.30634 0.0
H2977 H 0.2888 0.9545 0.31831 0.0
H2978 H 0.32399 0.97389 0.29657 0.0
H2979 H 0.30768 0.98982 0.28439 0.0
C2980 C 0.33539 0.93435 0.31192 0.0
C2981 C 0.33344 0.92964 0.32588 0.0
C2982 C 0.32741 0.94543 0.30641 0.0
C2983 C 0.31722 0.95207 0.31469 0.0
C2984 C 0.31553 0.94763 0.32876 0.0
C2985 C 0.32353 0.93659 0.33428 0.0
C2986 C 0.28391 0.97142 0.30426 0.0
C2987 C 0.28894 0.98132 0.29438 0.0
C2988 C 0.29316 0.96234 0.31119 0.0
C2989 C 0.30771 0.96284 0.30837 0.0
C2990 C 0.31283 0.97313 0.29887 0.0
C2991 C 0.30354 0.98234 0.292 0.0
H2992 H 0.72753 0.12143 0.72518 0.0
H2993 H 0.69232 0.09259 0.72051 0.0
H2994 H 0.74154 0.10279 0.73557 0.0
H2995 H 0.70646 0.07373 0.73078 0.0
H2996 H 0.732 0.04881 0.76496 0.0
H2997 H 0.71694 0.06566 0.75251 0.0
H2998 H 0.7534 0.08179 0.73021 0.0
H2999 H 0.76833 0.06534 0.74298 0.0
C3000 C 0.72284 0.11103 0.72616 0.0
C3001 C 0.70881 0.10853 0.72192 0.0
C3002 C 0.7309 0.10028 0.73212 0.0
C3003 C 0.72522 0.08664 0.73395 0.0
C3004 C 0.71117 0.08411 0.72969 0.0
C3005 C 0.70306 0.09492 0.72377 0.0
C3006 C 0.73668 0.05581 0.7572 0.0
C3007 C 0.75132 0.05586 0.755 0.0
C3008 C 0.72808 0.06548 0.75006 0.0
C3009 C 0.73396 0.07531 0.7405 0.0
C3010 C 0.74852 0.0747 0.73776 0.0
C3011 C 0.75708 0.06517 0.74497 0.0
H3012 H 0.71402 0.91367 0.30549 0.0
H3013 H 0.69626 0.94303 0.33485 0.0
H3014 H 0.72682 0.93277 0.294 0.0
H3015 H 0.70905 0.96234 0.3232 0.0
H3016 H 0.74754 0.98945 0.30654 0.0
H3017 H 0.73259 0.97219 0.3189 0.0
H3018 H 0.72229 0.95261 0.27911 0.0
H3019 H 0.73746 0.96957 0.26696 0.0
C3020 C 0.71275 0.92425 0.30942 0.0
C3021 C 0.70399 0.92683 0.321 0.0
C3022 C 0.72006 0.93524 0.3028 0.0
C3023 C 0.7188 0.94918 0.3075 0.0
C3024 C 0.71031 0.95175 0.31931 0.0
C3025 C 0.70299 0.94068 0.326 0.0
C3026 C 0.74181 0.98162 0.30047 0.0
C3027 C 0.74373 0.98074 0.28583 0.0
C3028 C 0.73327 0.97171 0.30752 0.0
C3029 C 0.72646 0.96081 0.30004 0.0
C3030 C 0.72769 0.96059 0.28527 0.0
C3031 C 0.73626 0.97038 0.27828 0.0
H3032 H 0.62496 0.21873 0.30612 0.0
H3033 H 0.59506 0.19914 0.33448 0.0
H3034 H 0.60592 0.23122 0.2945 0.0
H3035 H 0.57582 0.21165 0.32271 0.0
H3036 H 0.54843 0.2495 0.30623 0.0
H3037 H 0.56569 0.23485 0.31864 0.0
H3038 H 0.58637 0.22667 0.27911 0.0
H3039 H 0.56939 0.2415 0.26692 0.0
C3040 C 0.61428 0.21699 0.30981 0.0
C3041 C 0.61156 0.20781 0.32116 0.0
C3042 C 0.60331 0.22413 0.3031 0.0
C3043 C 0.58924 0.2223 0.30749 0.0
C3044 C 0.58652 0.21336 0.31907 0.0
C3045 C 0.59755 0.20621 0.32583 0.0
C3046 C 0.5565 0.24429 0.30021 0.0
C3047 C 0.55765 0.24672 0.28564 0.0
C3048 C 0.56642 0.23593 0.30731 0.0
C3049 C 0.57764 0.2298 0.29993 0.0
C3050 C 0.57815 0.23153 0.28521 0.0
C3051 C 0.56834 0.23993 0.27818 0.0
H3052 H 0.33376 0.11072 0.32318 0.0
H3053 H 0.30082 0.10761 0.35438 0.0
H3054 H 0.32277 0.09138 0.31013 0.0
H3055 H 0.28976 0.0885 0.3412 0.0
H3056 H 0.2649 0.07086 0.30263 0.0
H3057 H 0.2772 0.08712 0.31837 0.0
H3058 H 0.31632 0.06562 0.31085 0.0
H3059 H 0.30388 0.04929 0.29496 0.0
C3060 C 0.3243 0.1058 0.32739 0.0
C3061 C 0.31811 0.1109 0.33978 0.0
C3062 C 0.318 0.0947 0.31989 0.0
C3063 C 0.30532 0.08846 0.32456 0.0
C3064 C 0.29939 0.09322 0.33718 0.0
C3065 C 0.30572 0.10424 0.34471 0.0
C3066 C 0.27609 0.06949 0.3045 0.0
C3067 C 0.28344 0.05884 0.29756 0.0
C3068 C 0.28314 0.07877 0.31356 0.0
C3069 C 0.29777 0.07771 0.31584 0.0
C3070 C 0.30507 0.06678 0.30922 0.0
C3071 C 0.29795 0.05736 0.30024 0.0
H3072 H 0.42742 0.79721 0.34898 0.0
H3073 H 0.42897 0.83206 0.31959 0.0
H3074 H 0.44605 0.78562 0.336 0.0
H3075 H 0.44781 0.82051 0.30674 0.0
H3076 H 0.48868 0.79982 0.29222 0.0
H3077 H 0.4728 0.81227 0.30812 0.0
H3078 H 0.44751 0.77445 0.31271 0.0
H3079 H 0.46337 0.76211 0.297 0.0
C3080 C 0.4317 0.80242 0.33974 0.0
C3081 C 0.4265 0.81552 0.33526 0.0
C3082 C 0.44245 0.79578 0.33233 0.0
C3083 C 0.44838 0.80209 0.32028 0.0
C3084 C 0.44358 0.81542 0.31607 0.0
C3085 C 0.43275 0.82205 0.32345 0.0
C3086 C 0.47988 0.79414 0.29688 0.0
C3087 C 0.47723 0.78001 0.29336 0.0
C3088 C 0.47071 0.80129 0.30585 0.0
C3089 C 0.45884 0.79438 0.31163 0.0
C3090 C 0.4566 0.78007 0.30856 0.0
C3091 C 0.46564 0.77301 0.2995 0.0
H3092 H 0.34055 0.94799 0.71479 0.0
H3093 H 0.30989 0.91678 0.72804 0.0
H3094 H 0.32599 0.9665 0.72468 0.0
H3095 H 0.29553 0.9351 0.73817 0.0
H3096 H 0.26651 0.97021 0.74715 0.0
H3097 H 0.28058 0.95407 0.73332 0.0
H3098 H 0.31857 0.97605 0.74648 0.0
H3099 H 0.30431 0.99251 0.75986 0.0
C3100 C 0.33072 0.94508 0.71985 0.0
C3101 C 0.32637 0.93089 0.72057 0.0
C3102 C 0.32236 0.9557 0.72555 0.0
C3103 C 0.30949 0.95239 0.73221 0.0
C3104 C 0.30517 0.93817 0.73284 0.0
C3105 C 0.31344 0.92761 0.72706 0.0
C3106 C 0.27786 0.97173 0.74682 0.0
C3107 C 0.28433 0.98258 0.7546 0.0
C3108 C 0.28596 0.96239 0.73903 0.0
C3109 C 0.30079 0.96351 0.73896 0.0
C3110 C 0.3072 0.97486 0.74616 0.0
C3111 C 0.29904 0.98433 0.75384 0.0
H3112 H 0.59319 0.82621 0.6971 0.0
H3113 H 0.62468 0.80946 0.72542 0.0
H3114 H 0.57466 0.81392 0.71048 0.0
H3115 H 0.60626 0.79741 0.7388 0.0
H3116 H 0.57312 0.76476 0.74945 0.0
H3117 H 0.5898 0.77731 0.73439 0.0
H3118 H 0.56317 0.81381 0.73479 0.0
H3119 H 0.54642 0.80122 0.75013 0.0
C3120 C 0.59615 0.81994 0.70619 0.0
C3121 C 0.61043 0.81883 0.71019 0.0
C3122 C 0.58553 0.81299 0.71389 0.0
C3123 C 0.58899 0.8046 0.72564 0.0
C3124 C 0.60325 0.80364 0.7297 0.0
C3125 C 0.61381 0.81068 0.72212 0.0
C3126 C 0.57077 0.77546 0.74631 0.0
C3127 C 0.55854 0.78207 0.75121 0.0
C3128 C 0.58035 0.78265 0.73769 0.0
C3129 C 0.57796 0.79665 0.73361 0.0
C3130 C 0.56532 0.80304 0.73777 0.0
C3131 C 0.55571 0.79582 0.74651 0.0
H3132 H 0.43236 0.23472 0.69758 0.0
H3133 H 0.43375 0.19594 0.7215 0.0
H3134 H 0.45155 0.24429 0.71189 0.0
H3135 H 0.45277 0.2057 0.73602 0.0
H3136 H 0.47011 0.23748 0.76979 0.0
H3137 H 0.45438 0.22464 0.75386 0.0
H3138 H 0.47703 0.24171 0.71816 0.0
H3139 H 0.49275 0.25468 0.7342 0.0
C3140 C 0.43689 0.22812 0.70572 0.0
C3141 C 0.43139 0.21455 0.70839 0.0
C3142 C 0.44792 0.23363 0.71394 0.0
C3143 C 0.45368 0.22577 0.72512 0.0
C3144 C 0.44844 0.21209 0.72759 0.0
C3145 C 0.43748 0.20653 0.7193 0.0
C3146 C 0.47187 0.23829 0.75854 0.0
C3147 C 0.48261 0.24712 0.75322 0.0
C3148 C 0.46291 0.23088 0.74941 0.0
C3149 C 0.46438 0.23223 0.73473 0.0
C3150 C 0.47553 0.24057 0.72942 0.0
C3151 C 0.48462 0.24788 0.73858 0.0
H3152 H 0.69715 0.71833 0.11137 0.0
H3153 H 0.7364 0.69615 0.11639 0.0
H3154 H 0.7077 0.7327 0.09273 0.0
H3155 H 0.74688 0.71043 0.09772 0.0
H3156 H 0.75944 0.73225 0.05679 0.0
H3157 H 0.74656 0.71603 0.07243 0.0
H3158 H 0.72544 0.75124 0.09122 0.0
H3159 H 0.73803 0.76726 0.07549 0.0
C3160 C 0.70803 0.71651 0.10853 0.0
C3161 C 0.71591 0.70609 0.11549 0.0
C3162 C 0.71407 0.72473 0.0978 0.0
C3163 C 0.72816 0.72276 0.09371 0.0
C3164 C 0.73594 0.71211 0.10041 0.0
C3165 C 0.72991 0.70391 0.11116 0.0
C3166 C 0.75184 0.73645 0.06409 0.0
C3167 C 0.74981 0.75103 0.06497 0.0
C3168 C 0.74456 0.72719 0.07314 0.0
C3169 C 0.73501 0.73232 0.08317 0.0
C3170 C 0.73259 0.74687 0.08359 0.0
C3171 C 0.7399 0.75608 0.07463 0.0
H3172 H 0.32875 0.69667 0.09659 0.0
H3173 H 0.29921 0.71344 0.12641 0.0
H3174 H 0.31749 0.71017 0.07767 0.0
H3175 H 0.28818 0.72706 0.10774 0.0
H3176 H 0.26228 0.7407 0.07133 0.0
H3177 H 0.27352 0.72436 0.08764 0.0
H3178 H 0.31398 0.73366 0.06868 0.0
H3179 H 0.30247 0.74966 0.05198 0.0
C3180 C 0.31993 0.70332 0.09912 0.0
C3181 C 0.31478 0.70388 0.11298 0.0
C3182 C 0.31347 0.71106 0.08828 0.0
C3183 C 0.30177 0.71958 0.09109 0.0
C3184 C 0.29687 0.72031 0.10504 0.0
C3185 C 0.30325 0.71255 0.1158 0.0
C3186 C 0.27353 0.73899 0.07048 0.0
C3187 C 0.28153 0.74643 0.06045 0.0
C3188 C 0.28002 0.72976 0.07992 0.0
C3189 C 0.29473 0.72791 0.07973 0.0
C3190 C 0.30263 0.73478 0.06913 0.0
C3191 C 0.29607 0.74392 0.05955 0.0
H3192 H 0.30211 0.35245 0.11008 0.0
H3193 H 0.33149 0.31841 0.11544 0.0
H3194 H 0.29098 0.34004 0.09049 0.0
H3195 H 0.32046 0.30612 0.09566 0.0
H3196 H 0.30291 0.29127 0.05333 0.0
H3197 H 0.31576 0.30674 0.06971 0.0
H3198 H 0.27627 0.3186 0.08851 0.0
H3199 H 0.26356 0.30328 0.07216 0.0
C3200 C 0.30622 0.34232 0.1071 0.0
C3201 C 0.31762 0.33638 0.11452 0.0
C3202 C 0.29986 0.33523 0.09581 0.0
C3203 C 0.30477 0.32204 0.09153 0.0
C3204 C 0.31651 0.31633 0.09856 0.0
C3205 C 0.32284 0.3234 0.10993 0.0
C3206 C 0.29701 0.29747 0.06075 0.0
C3207 C 0.28225 0.29608 0.06148 0.0
C3208 C 0.30435 0.30619 0.07023 0.0
C3209 C 0.29706 0.31384 0.08049 0.0
C3210 C 0.28223 0.31297 0.08069 0.0
C3211 C 0.27493 0.30415 0.07135 0.0
H3212 H 0.70269 0.33287 0.09986 0.0
H3213 H 0.73664 0.32181 0.1282 0.0
H3214 H 0.71419 0.31993 0.08089 0.0
H3215 H 0.74802 0.30899 0.10943 0.0
H3216 H 0.77352 0.30121 0.07102 0.0
H3217 H 0.76032 0.31497 0.08788 0.0
H3218 H 0.72141 0.29611 0.07288 0.0
H3219 H 0.73478 0.28239 0.05572 0.0
C3220 C 0.71251 0.32756 0.10208 0.0
C3221 C 0.71885 0.32856 0.1155 0.0
C3222 C 0.7191 0.32017 0.09121 0.0
C3223 C 0.73217 0.31364 0.09354 0.0
C3224 C 0.73818 0.31423 0.10712 0.0
C3225 C 0.73163 0.32157 0.11791 0.0
C3226 C 0.76212 0.30012 0.07121 0.0
C3227 C 0.75519 0.29063 0.06216 0.0
C3228 C 0.75456 0.30793 0.08094 0.0
C3229 C 0.73982 0.30642 0.08198 0.0
C3230 C 0.73275 0.29751 0.07238 0.0
C3231 C 0.74038 0.28968 0.06253 0.0
H3232 H 0.71425 0.34683 0.95006 0.0
H3233 H 0.71845 0.3133 0.91994 0.0
H3234 H 0.72477 0.33196 0.96831 0.0
H3235 H 0.7291 0.29857 0.93799 0.0
H3236 H 0.73693 0.27028 0.97474 0.0
H3237 H 0.72397 0.28567 0.95882 0.0
H3238 H 0.74678 0.3216 0.97546 0.0
H3239 H 0.75945 0.30608 0.99172 0.0
C3240 C 0.71746 0.33631 0.94732 0.0
C3241 C 0.71543 0.33123 0.93355 0.0
C3242 C 0.72352 0.32779 0.95778 0.0
C3243 C 0.72773 0.314 0.9547 0.0
C3244 C 0.72569 0.30899 0.94089 0.0
C3245 C 0.71959 0.31746 0.93049 0.0
C3246 C 0.73903 0.28149 0.9751 0.0
C3247 C 0.74925 0.28698 0.98439 0.0
C3248 C 0.73169 0.29033 0.9659 0.0
C3249 C 0.73448 0.30489 0.96563 0.0
C3250 C 0.74427 0.31046 0.9754 0.0
C3251 C 0.75155 0.30159 0.98473 0.0
H3252 H 0.69404 0.71447 0.95073 0.0
H3253 H 0.72806 0.72122 0.92128 0.0
H3254 H 0.70856 0.7246 0.96954 0.0
H3255 H 0.74248 0.73142 0.93994 0.0
H3256 H 0.77016 0.73847 0.97753 0.0
H3257 H 0.75513 0.72579 0.96089 0.0
H3258 H 0.71858 0.74665 0.97753 0.0
H3259 H 0.73374 0.75909 0.99447 0.0
C3260 C 0.7046 0.71815 0.94825 0.0
C3261 C 0.70989 0.71697 0.93447 0.0
C3262 C 0.71293 0.72398 0.95905 0.0
C3263 C 0.72675 0.7288 0.95633 0.0
C3264 C 0.73202 0.72756 0.94255 0.0
C3265 C 0.72373 0.7217 0.9318 0.0
C3266 C 0.75889 0.74021 0.97773 0.0
C3267 C 0.75313 0.74984 0.98723 0.0
C3268 C 0.75027 0.73303 0.96812 0.0
C3269 C 0.73564 0.73536 0.96765 0.0
C3270 C 0.72978 0.74451 0.97762 0.0
C3271 C 0.73844 0.75165 0.98734 0.0
H3272 H 0.33789 0.70917 0.94643 0.0
H3273 H 0.32062 0.73876 0.9165 0.0
H3274 H 0.32499 0.7206 0.96541 0.0
H3275 H 0.30763 0.74998 0.93525 0.0
H3276 H 0.29625 0.77646 0.9718 0.0
H3277 H 0.31139 0.76466 0.95504 0.0
H3278 H 0.30178 0.72474 0.97499 0.0
H3279 H 0.28691 0.73678 0.9921 0.0
C3280 C 0.33125 0.71803 0.94388 0.0
C3281 C 0.33041 0.72314 0.92995 0.0
C3282 C 0.32385 0.72459 0.95476 0.0
C3283 C 0.3154 0.73637 0.95196 0.0
C3284 C 0.31434 0.74121 0.93795 0.0
C3285 C 0.32176 0.73473 0.92714 0.0
C3286 C 0.29757 0.76519 0.97272 0.0
C3287 C 0.29035 0.75752 0.98318 0.0
C3288 C 0.30614 0.75838 0.96304 0.0
C3289 C 0.3076 0.74367 0.96341 0.0
C3290 C 0.30095 0.73607 0.97437 0.0
C3291 C 0.29244 0.74295 0.98419 0.0
H3292 H 0.33283 0.34213 0.94889 0.0
H3293 H 0.32136 0.3101 0.91875 0.0
H3294 H 0.32294 0.32766 0.96785 0.0
H3295 H 0.31126 0.29579 0.93752 0.0
H3296 H 0.30216 0.26755 0.97389 0.0
H3297 H 0.31608 0.28172 0.95745 0.0
H3298 H 0.30096 0.31955 0.97706 0.0
H3299 H 0.28744 0.30525 0.9938 0.0
C3300 C 0.32817 0.33201 0.94631 0.0
C3301 C 0.32793 0.32727 0.93228 0.0
C3302 C 0.32247 0.3237 0.95718 0.0
C3303 C 0.3163 0.31048 0.95431 0.0
C3304 C 0.31619 0.30574 0.94027 0.0
C3305 C 0.32196 0.31398 0.92944 0.0
C3306 C 0.30206 0.2789 0.97483 0.0
C3307 C 0.29368 0.2853 0.98509 0.0
C3308 C 0.30992 0.28705 0.96532 0.0
C3309 C 0.30948 0.30184 0.96568 0.0
C3310 C 0.30168 0.30822 0.97647 0.0
C3311 C 0.29392 0.30003 0.9861 0.0
H3312 H 0.59252 0.70422 0.20386 0.0
H3313 H 0.62284 0.72644 0.22984 0.0
H3314 H 0.57329 0.7135 0.21813 0.0
H3315 H 0.60376 0.73589 0.24382 0.0
H3316 H 0.56899 0.7415 0.27448 0.0
H3317 H 0.58597 0.72834 0.26077 0.0
H3318 H 0.56176 0.73641 0.22296 0.0
H3319 H 0.54462 0.74955 0.23682 0.0
C3320 C 0.59509 0.711 0.21266 0.0
C3321 C 0.60923 0.71462 0.21568 0.0
C3322 C 0.58406 0.71641 0.22076 0.0
C3323 C 0.58696 0.7254 0.23217 0.0
C3324 C 0.60112 0.72884 0.23525 0.0
C3325 C 0.61208 0.72355 0.22712 0.0
C3326 C 0.56717 0.74028 0.26327 0.0
C3327 C 0.55556 0.7467 0.2567 0.0
C3328 C 0.57695 0.73281 0.25539 0.0
C3329 C 0.5754 0.73155 0.24071 0.0
C3330 C 0.56327 0.73715 0.23425 0.0
C3331 C 0.55343 0.74466 0.24218 0.0
H3332 H 0.34096 0.59043 0.21273 0.0
H3333 H 0.30914 0.62105 0.22211 0.0
H3334 H 0.32609 0.5719 0.223 0.0
H3335 H 0.29448 0.60275 0.23265 0.0
H3336 H 0.26559 0.56709 0.24269 0.0
H3337 H 0.2801 0.58293 0.2284 0.0
H3338 H 0.31771 0.56339 0.24499 0.0
H3339 H 0.30305 0.5472 0.25883 0.0
C3340 C 0.3308 0.5932 0.21702 0.0
C3341 C 0.32621 0.60721 0.21655 0.0
C3342 C 0.32228 0.58259 0.22294 0.0
C3343 C 0.309 0.58574 0.22864 0.0
C3344 C 0.30444 0.59978 0.22808 0.0
C3345 C 0.31289 0.61033 0.22207 0.0
C3346 C 0.27696 0.56603 0.24303 0.0
C3347 C 0.28321 0.55596 0.25189 0.0
C3348 C 0.28531 0.5752 0.23496 0.0
C3349 C 0.30014 0.57469 0.23571 0.0
C3350 C 0.30635 0.56408 0.24403 0.0
C3351 C 0.29797 0.55478 0.25197 0.0
H3352 H 0.41316 0.3169 0.23177 0.0
H3353 H 0.44279 0.3244 0.19808 0.0
H3354 H 0.43162 0.306 0.24576 0.0
H3355 H 0.46145 0.31362 0.21221 0.0
H3356 H 0.48631 0.2787 0.2364 0.0
H3357 H 0.46945 0.29148 0.22157 0.0
H3358 H 0.45244 0.31106 0.2587 0.0
H3359 H 0.46894 0.298 0.27337 0.0
C3360 C 0.42369 0.31642 0.22742 0.0
C3361 C 0.42647 0.32161 0.21381 0.0
C3362 C 0.43433 0.31017 0.23548 0.0
C3363 C 0.44813 0.30899 0.23021 0.0
C3364 C 0.45094 0.31419 0.21658 0.0
C3365 C 0.44024 0.3204 0.20848 0.0
C3366 C 0.47909 0.28592 0.2413 0.0
C3367 C 0.47883 0.28726 0.25603 0.0
C3368 C 0.46942 0.29325 0.23283 0.0
C3369 C 0.45937 0.30216 0.23893 0.0
C3370 C 0.45971 0.30402 0.25363 0.0
C3371 C 0.46925 0.29662 0.26205 0.0
H3372 H 0.69609 0.44687 0.21158 0.0
H3373 H 0.72815 0.41634 0.22119 0.0
H3374 H 0.71097 0.46541 0.22172 0.0
H3375 H 0.74289 0.43471 0.23148 0.0
H3376 H 0.77168 0.47063 0.24089 0.0
H3377 H 0.75701 0.45485 0.22673 0.0
H3378 H 0.71959 0.47358 0.24402 0.0
H3379 H 0.7344 0.48968 0.25782 0.0
C3380 C 0.70631 0.44411 0.21587 0.0
C3381 C 0.71093 0.43011 0.21553 0.0
C3382 C 0.71484 0.45475 0.22171 0.0
C3383 C 0.7282 0.45163 0.22741 0.0
C3384 C 0.73284 0.43763 0.22692 0.0
C3385 C 0.72435 0.42704 0.22103 0.0
C3386 C 0.76031 0.47153 0.24143 0.0
C3387 C 0.75417 0.48132 0.2505 0.0
C3388 C 0.75188 0.4624 0.23342 0.0
C3389 C 0.73707 0.4627 0.23441 0.0
C3390 C 0.73093 0.47307 0.2429 0.0
C3391 C 0.7394 0.48232 0.25082 0.0
H3392 H 0.59452 0.33048 0.84418 0.0
H3393 H 0.62508 0.30262 0.82611 0.0
H3394 H 0.57572 0.31869 0.83077 0.0
H3395 H 0.60651 0.29105 0.81262 0.0
H3396 H 0.57066 0.26374 0.79952 0.0
H3397 H 0.58697 0.27553 0.81564 0.0
H3398 H 0.56637 0.31505 0.80726 0.0
H3399 H 0.54971 0.30298 0.79145 0.0
C3400 C 0.59724 0.32192 0.83726 0.0
C3401 C 0.61128 0.3174 0.83632 0.0
C3402 C 0.58646 0.31516 0.82958 0.0
C3403 C 0.58952 0.30375 0.82074 0.0
C3404 C 0.60364 0.2995 0.81961 0.0
C3405 C 0.61434 0.30618 0.82732 0.0
C3406 C 0.56947 0.27489 0.80138 0.0
C3407 C 0.55899 0.28247 0.79424 0.0
C3408 C 0.57889 0.2817 0.81049 0.0
C3409 C 0.57822 0.29633 0.81253 0.0
C3410 C 0.56719 0.30378 0.80598 0.0
C3411 C 0.55763 0.29689 0.79694 0.0
H3412 H 0.73689 0.61073 0.85082 0.0
H3413 H 0.70251 0.61087 0.82074 0.0
H3414 H 0.74793 0.59171 0.83802 0.0
H3415 H 0.71355 0.59166 0.808 0.0
H3416 H 0.73314 0.55013 0.79358 0.0
H3417 H 0.7208 0.56645 0.80911 0.0
H3418 H 0.75965 0.58989 0.81519 0.0
H3419 H 0.77186 0.57361 0.79988 0.0
C3420 C 0.73168 0.60674 0.84146 0.0
C3421 C 0.71888 0.61253 0.83673 0.0
C3422 C 0.738 0.59577 0.83414 0.0
C3423 C 0.7317 0.59021 0.82191 0.0
C3424 C 0.71863 0.5956 0.81746 0.0
C3425 C 0.71231 0.60664 0.82477 0.0
C3426 C 0.73904 0.55863 0.79847 0.0
C3427 C 0.75344 0.56062 0.7955 0.0
C3428 C 0.73196 0.56806 0.80724 0.0
C3429 C 0.73921 0.57953 0.81336 0.0
C3430 C 0.75375 0.58113 0.81079 0.0
C3431 C 0.76075 0.57183 0.80195 0.0
H3432 H 0.44105 0.70058 0.83539 0.0
H3433 H 0.41204 0.71486 0.80329 0.0
H3434 H 0.46038 0.71304 0.82347 0.0
H3435 H 0.43114 0.7274 0.79155 0.0
H3436 H 0.46856 0.73791 0.76539 0.0
H3437 H 0.45154 0.72314 0.77791 0.0
H3438 H 0.4699 0.73609 0.81762 0.0
H3439 H 0.48726 0.75058 0.80491 0.0
C3440 C 0.43877 0.70647 0.82587 0.0
C3441 C 0.42501 0.70659 0.82022 0.0
C3442 C 0.44986 0.71362 0.81902 0.0
C3443 C 0.44742 0.72109 0.8064 0.0
C3444 C 0.43356 0.72144 0.801 0.0
C3445 C 0.42255 0.71428 0.80777 0.0
C3446 C 0.46909 0.7374 0.77679 0.0
C3447 C 0.47916 0.74545 0.78419 0.0
C3448 C 0.45925 0.72904 0.784 0.0
C3449 C 0.45909 0.72863 0.79883 0.0
C3450 C 0.4697 0.7361 0.80622 0.0
C3451 C 0.47966 0.74439 0.79895 0.0
H3452 H 0.34053 0.44226 0.83581 0.0
H3453 H 0.32149 0.41338 0.80615 0.0
H3454 H 0.32759 0.46168 0.82487 0.0
H3455 H 0.30857 0.43257 0.79538 0.0
H3456 H 0.29715 0.4696 0.76943 0.0
H3457 H 0.31274 0.45276 0.78083 0.0
H3458 H 0.30404 0.47141 0.82123 0.0
H3459 H 0.28869 0.4886 0.80959 0.0
C3460 C 0.3335 0.44003 0.82704 0.0
C3461 C 0.33218 0.42627 0.82176 0.0
C3462 C 0.3261 0.45117 0.82076 0.0
C3463 C 0.3172 0.44878 0.80907 0.0
C3464 C 0.31564 0.43493 0.80408 0.0
C3465 C 0.32302 0.42387 0.8103 0.0
C3466 C 0.29884 0.47028 0.78071 0.0
C3467 C 0.29171 0.48036 0.78864 0.0
C3468 C 0.30764 0.46054 0.78729 0.0
C3469 C 0.30941 0.46048 0.80202 0.0
C3470 C 0.30295 0.47114 0.80988 0.0
C3471 C 0.29419 0.48101 0.80323 0.0
H3472 H 0.69892 0.59491 0.21415 0.0
H3473 H 0.7176 0.62453 0.2433 0.0
H3474 H 0.71169 0.57577 0.22574 0.0
H3475 H 0.73038 0.60559 0.25472 0.0
H3476 H 0.74121 0.56889 0.2817 0.0
H3477 H 0.7261 0.58576 0.2697 0.0
H3478 H 0.73507 0.56609 0.22985 0.0
H3479 H 0.74997 0.54893 0.24206 0.0
C3480 C 0.70584 0.59735 0.22294 0.0
C3481 C 0.70711 0.61124 0.22789 0.0
C3482 C 0.71315 0.58638 0.22959 0.0
C3483 C 0.72192 0.58906 0.24132 0.0
C3484 C 0.72342 0.60302 0.24599 0.0
C3485 C 0.71612 0.61393 0.2394 0.0
C3486 C 0.73975 0.56804 0.2704 0.0
C3487 C 0.74683 0.55767 0.2628 0.0
C3488 C 0.7312 0.57778 0.26348 0.0
C3489 C 0.7296 0.57752 0.24874 0.0
C3490 C 0.73604 0.56661 0.24121 0.0
C3491 C 0.74455 0.55676 0.24818 0.0
H3492 H 0.6892 0.44608 0.82845 0.0
H3493 H 0.72451 0.41792 0.82613 0.0
H3494 H 0.70363 0.4649 0.81805 0.0
H3495 H 0.7388 0.43651 0.81561 0.0
H3496 H 0.76577 0.47423 0.80776 0.0
H3497 H 0.75047 0.45802 0.82071 0.0
H3498 H 0.71466 0.47225 0.79633 0.0
H3499 H 0.73008 0.48888 0.7837 0.0
C3500 C 0.70003 0.44389 0.82569 0.0
C3501 C 0.70572 0.4305 0.82822 0.0
C3502 C 0.7083 0.45468 0.8197 0.0
C3503 C 0.72245 0.45231 0.81606 0.0
C3504 C 0.72808 0.43889 0.81858 0.0
C3505 C 0.71986 0.42817 0.82461 0.0
C3506 C 0.75457 0.47403 0.80535 0.0
C3507 C 0.74909 0.48273 0.7947 0.0
C3508 C 0.74581 0.46465 0.81267 0.0
C3509 C 0.73134 0.46358 0.8094 0.0
C3510 C 0.72573 0.47281 0.79919 0.0
C3511 C 0.73453 0.48234 0.79194 0.0
H3512 H 0.60308 0.69656 0.81245 0.0
H3513 H 0.60841 0.72681 0.84592 0.0
H3514 H 0.58414 0.71054 0.80245 0.0
H3515 H 0.58954 0.74093 0.83572 0.0
H3516 H 0.57071 0.76997 0.80033 0.0
H3517 H 0.58645 0.75541 0.81447 0.0
H3518 H 0.56 0.71909 0.80602 0.0
H3519 H 0.54436 0.73372 0.79165 0.0
C3520 C 0.60008 0.70606 0.81785 0.0
C3521 C 0.60738 0.71052 0.83002 0.0
C3522 C 0.58917 0.7141 0.81208 0.0
C3523 C 0.58528 0.72688 0.81826 0.0
C3524 C 0.59236 0.73122 0.83059 0.0
C3525 C 0.60323 0.72314 0.83641 0.0
C3526 C 0.56812 0.75893 0.80172 0.0
C3527 C 0.55634 0.75297 0.79481 0.0
C3528 C 0.57711 0.75058 0.80988 0.0
C3529 C 0.57459 0.73603 0.81127 0.0
C3530 C 0.56236 0.73022 0.805 0.0
C3531 C 0.5533 0.73862 0.79691 0.0
H3532 H 0.29858 0.62451 0.82913 0.0
H3533 H 0.33102 0.5966 0.84416 0.0
H3534 H 0.28754 0.60528 0.81628 0.0
H3535 H 0.31978 0.5771 0.83141 0.0
H3536 H 0.30275 0.55037 0.79328 0.0
H3537 H 0.31473 0.5678 0.80825 0.0
H3538 H 0.27423 0.58441 0.82005 0.0
H3539 H 0.26248 0.56738 0.80476 0.0
C3540 C 0.30328 0.6142 0.82982 0.0
C3541 C 0.31562 0.61209 0.83779 0.0
C3542 C 0.2969 0.60311 0.82248 0.0
C3543 C 0.3026 0.58951 0.82295 0.0
C3544 C 0.31511 0.58742 0.83074 0.0
C3545 C 0.32156 0.5986 0.83805 0.0
C3546 C 0.29647 0.55758 0.79934 0.0
C3547 C 0.28172 0.5576 0.79784 0.0
C3548 C 0.3033 0.56759 0.8079 0.0
C3549 C 0.29548 0.57774 0.81518 0.0
C3550 C 0.28065 0.57706 0.81432 0.0
C3551 C 0.27388 0.5672 0.80569 0.0
H3552 H 0.44428 0.33364 0.83602 0.0
H3553 H 0.41487 0.30144 0.82234 0.0
H3554 H 0.46307 0.32239 0.82262 0.0
H3555 H 0.43344 0.29034 0.80898 0.0
H3556 H 0.47106 0.26435 0.79974 0.0
H3557 H 0.4543 0.27704 0.81407 0.0
H3558 H 0.47143 0.31651 0.7987 0.0
H3559 H 0.48853 0.30361 0.78446 0.0
C3560 C 0.44179 0.32426 0.83004 0.0
C3561 C 0.42811 0.31833 0.83042 0.0
C3562 C 0.45255 0.31782 0.82237 0.0
C3563 C 0.44985 0.30531 0.81491 0.0
C3564 C 0.43604 0.29972 0.81492 0.0
C3565 C 0.42535 0.30611 0.82257 0.0
C3566 C 0.47134 0.27575 0.79953 0.0
C3567 C 0.48099 0.28299 0.79088 0.0
C3568 C 0.46167 0.28304 0.80767 0.0
C3569 C 0.46127 0.29781 0.80731 0.0
C3570 C 0.47143 0.30513 0.79922 0.0
C3571 C 0.48123 0.29777 0.79108 0.0
H3572 H 0.32134 0.41301 0.24535 0.0
H3573 H 0.3376 0.44241 0.21445 0.0
H3574 H 0.30902 0.43194 0.25693 0.0
H3575 H 0.3253 0.46154 0.22619 0.0
H3576 H 0.28759 0.48802 0.24356 0.0
H3577 H 0.30214 0.47095 0.23118 0.0
H3578 H 0.31359 0.45208 0.27111 0.0
H3579 H 0.29879 0.46885 0.28329 0.0
C3580 C 0.3224 0.42357 0.2411 0.0
C3581 C 0.33058 0.42618 0.22903 0.0
C3582 C 0.31536 0.43447 0.24778 0.0
C3583 C 0.3163 0.44837 0.24266 0.0
C3584 C 0.32427 0.45098 0.23041 0.0
C3585 C 0.33131 0.44 0.22367 0.0
C3586 C 0.29349 0.4804 0.24966 0.0
C3587 C 0.29198 0.47968 0.26437 0.0
C3588 C 0.30181 0.47059 0.24258 0.0
C3589 C 0.30884 0.45991 0.25011 0.0
C3590 C 0.30802 0.45986 0.26491 0.0
C3591 C 0.29965 0.46956 0.27193 0.0
H3592 H 0.62316 0.31728 0.23072 0.0
H3593 H 0.59197 0.33174 0.20084 0.0
H3594 H 0.60464 0.30678 0.24505 0.0
H3595 H 0.57325 0.3215 0.21541 0.0
H3596 H 0.54661 0.28555 0.23638 0.0
H3597 H 0.56322 0.29955 0.22232 0.0
H3598 H 0.58584 0.31102 0.26033 0.0
H3599 H 0.56957 0.29652 0.27414 0.0
C3600 C 0.6123 0.31845 0.22735 0.0
C3601 C 0.60907 0.32538 0.21464 0.0
C3602 C 0.60161 0.31246 0.23561 0.0
C3603 C 0.58734 0.31332 0.23149 0.0
C3604 C 0.58409 0.32045 0.21886 0.0
C3605 C 0.59483 0.32636 0.21051 0.0
C3606 C 0.55497 0.29134 0.24169 0.0
C3607 C 0.55687 0.28993 0.25631 0.0
C3608 C 0.56452 0.29938 0.23366 0.0
C3609 C 0.57609 0.30627 0.24012 0.0
C3610 C 0.57734 0.30556 0.2549 0.0
C3611 C 0.56793 0.2974 0.26287 0.0
H3612 H 0.44056 0.7049 0.19997 0.0
H3613 H 0.41077 0.73375 0.21774 0.0
H3614 H 0.45973 0.71655 0.21302 0.0
H3615 H 0.42969 0.74519 0.23086 0.0
H3616 H 0.46617 0.77205 0.24309 0.0
H3617 H 0.44951 0.76025 0.22733 0.0
H3618 H 0.46937 0.72049 0.23639 0.0
H3619 H 0.48638 0.73255 0.25184 0.0
C3620 C 0.43809 0.71365 0.20675 0.0
C3621 C 0.42416 0.71849 0.2077 0.0
C3622 C 0.44907 0.72033 0.21422 0.0
C3623 C 0.44633 0.73198 0.22285 0.0
C3624 C 0.43232 0.73655 0.22402 0.0
C3625 C 0.42142 0.72994 0.21653 0.0
C3626 C 0.46713 0.76083 0.24146 0.0
C3627 C 0.4775 0.75319 0.2487 0.0
C3628 C 0.4575 0.75402 0.23256 0.0
C3629 C 0.45785 0.73934 0.23082 0.0
C3630 C 0.46878 0.7318 0.23744 0.0
C3631 C 0.47854 0.73868 0.24627 0.0
loop_
_geom_bond_atom_site_label_1
_geom_bond_atom_site_label_2
_geom_bond_distance
_geom_bond_site_symmetry_2
_ccdc_geom_bond_type
C0 C1 1.264 . S
C0 C5 1.479 . S
C0 C10 1.465 . S
C1 C0 1.264 . S
C1 C3 1.339 . S
C1 H28 0.931 . S
C2 C3 1.395 . S
C2 C4 1.320 . S
C3 C1 1.339 . S
C3 C2 1.395 . S
C3 H29 0.929 . S
C4 C2 1.320 . S
C4 C5 1.405 . S
C4 H30 0.930 . S
C5 C0 1.479 . S
C5 C4 1.405 . S
C5 H31 0.931 . S
U6 O7 2.454 . S
U6 O8 2.458 . S
U6 C9 2.984 . S
U6 C10 2.847 . S
U6 C23 2.882 . S
U6 O24 2.441 . S
U6 O25 2.420 . S
U6 O26 2.455 . S
U6 O27 2.449 . S
O7 U6 2.454 . S
O7 C9 1.353 . S
O8 U6 2.458 . S
O8 C9 1.286 . S
C9 U6 2.984 . S
C9 O7 1.353 . S
C9 O8 1.286 . S
C9 C11 1.363 . S
C10 C0 1.465 . S
C10 U6 2.847 . S
C10 O24 1.249 . S
C10 O25 1.202 . S
C11 C9 1.363 . S
C11 C13 1.408 . S
C11 C16 1.342 . S
C12 C13 1.310 . S
C12 C15 1.461 . S
C12 H32 0.932 . S
C13 C11 1.408 . S
C13 C12 1.310 . S
C13 H33 0.930 . S
C14 C15 1.474 . S
C14 C16 1.285 . S
C14 H34 0.929 . S
C15 C12 1.461 . S
C15 C14 1.474 . S
C16 C11 1.342 . S
C16 C14 1.285 . S
C16 H35 0.930 . S
C17 C20 1.424 . S
C17 C22 1.245 . S
C17 C23 1.428 . S
C18 C21 1.260 . S
C18 C22 1.477 . S
C18 H36 0.932 . S
C19 C20 1.384 . S
C19 C21 1.479 . S
C19 H37 0.929 . S
C20 C17 1.424 . S
C20 C19 1.384 . S
C20 H38 0.928 . S
C21 C18 1.260 . S
C21 C19 1.479 . S
C22 C17 1.245 . S
C22 C18 1.477 . S
C22 H39 0.932 . S
C23 U6 2.882 . S
C23 C17 1.428 . S
C23 O26 1.301 . S
C23 O27 1.282 . S
O24 U6 2.441 . S
O24 C10 1.249 . S
O25 U6 2.420 . S
O25 C10 1.202 . S
O26 U6 2.455 . S
O26 C23 1.301 . S
O27 U6 2.449 . S
O27 C23 1.282 . S
H28 C1 0.931 . S
H29 C3 0.929 . S
H30 C4 0.930 . S
H31 C5 0.931 . S
H32 C12 0.932 . S
H33 C13 0.930 . S
H34 C14 0.929 . S
H35 C16 0.930 . S
H36 C18 0.932 . S
H37 C19 0.929 . S
H38 C20 0.928 . S
H39 C22 0.932 . S
C40 C41 1.264 . S
C40 C45 1.479 . S
C40 C50 1.465 . S
C41 C40 1.264 . S
C41 C43 1.339 . S
C41 H68 0.931 . S
C42 C43 1.395 . S
C42 C44 1.320 . S
C43 C41 1.339 . S
C43 C42 1.395 . S
C43 H69 0.929 . S
C44 C42 1.320 . S
C44 C45 1.405 . S
C44 H70 0.930 . S
C45 C40 1.479 . S
C45 C44 1.405 . S
C45 H71 0.931 . S
U46 O47 2.454 . S
U46 O48 2.458 . S
U46 C49 2.984 . S
U46 C50 2.847 . S
U46 C63 2.882 . S
U46 O64 2.441 . S
U46 O65 2.420 . S
U46 O66 2.455 . S
U46 O67 2.449 . S
O47 U46 2.454 . S
O47 C49 1.353 . S
O48 U46 2.458 . S
O48 C49 1.286 . S
C49 U46 2.984 . S
C49 O47 1.353 . S
C49 O48 1.286 . S
C49 C51 1.363 . S
C50 C40 1.465 . S
C50 U46 2.847 . S
C50 O64 1.249 . S
C50 O65 1.202 . S
C51 C49 1.363 . S
C51 C53 1.408 . S
C51 C56 1.342 . S
C52 C53 1.310 . S
C52 C55 1.461 . S
C52 H72 0.932 . S
C53 C51 1.408 . S
C53 C52 1.310 . S
C53 H73 0.930 . S
C54 C55 1.474 . S
C54 C56 1.285 . S
C54 H74 0.929 . S
C55 C52 1.461 . S
C55 C54 1.474 . S
C56 C51 1.342 . S
C56 C54 1.285 . S
C56 H75 0.930 . S
C57 C60 1.424 . S
C57 C62 1.245 . S
C57 C63 1.428 . S
C58 C61 1.260 . S
C58 C62 1.477 . S
C58 H76 0.932 . S
C59 C60 1.384 . S
C59 C61 1.479 . S
C59 H77 0.929 . S
C60 C57 1.424 . S
C60 C59 1.384 . S
C60 H78 0.928 . S
C61 C58 1.260 . S
C61 C59 1.479 . S
C62 C57 1.245 . S
C62 C58 1.477 . S
C62 H79 0.932 . S
C63 U46 2.882 . S
C63 C57 1.428 . S
C63 O66 1.301 . S
C63 O67 1.282 . S
O64 U46 2.441 . S
O64 C50 1.249 . S
O65 U46 2.420 . S
O65 C50 1.202 . S
O66 U46 2.455 . S
O66 C63 1.301 . S
O67 U46 2.449 . S
O67 C63 1.282 . S
H68 C41 0.931 . S
H69 C43 0.929 . S
H70 C44 0.930 . S
H71 C45 0.931 . S
H72 C52 0.932 . S
H73 C53 0.930 . S
H74 C54 0.929 . S
H75 C56 0.930 . S
H76 C58 0.932 . S
H77 C59 0.929 . S
H78 C60 0.928 . S
H79 C62 0.932 . S
C80 C81 1.264 . S
C80 C85 1.479 . S
C80 C90 1.465 . S
C81 C80 1.264 . S
C81 C83 1.339 . S
C81 H108 0.931 . S
C82 C83 1.395 . S
C82 C84 1.320 . S
C83 C81 1.339 . S
C83 C82 1.395 . S
C83 H109 0.929 . S
C84 C82 1.320 . S
C84 C85 1.405 . S
C84 H110 0.930 . S
C85 C80 1.479 . S
C85 C84 1.405 . S
C85 H111 0.931 . S
U86 O87 2.454 . S
U86 O88 2.458 . S
U86 C89 2.984 . S
U86 C90 2.847 . S
U86 C103 2.882 . S
U86 O104 2.441 . S
U86 O105 2.420 . S
U86 O106 2.455 . S
U86 O107 2.449 . S
O87 U86 2.454 . S
O87 C89 1.353 . S
O88 U86 2.458 . S
O88 C89 1.286 . S
C89 U86 2.984 . S
C89 O87 1.353 . S
C89 O88 1.286 . S
C89 C91 1.363 . S
C90 C80 1.465 . S
C90 U86 2.847 . S
C90 O104 1.249 . S
C90 O105 1.202 . S
C91 C89 1.363 . S
C91 C93 1.408 . S
C91 C96 1.342 . S
C92 C93 1.310 . S
C92 C95 1.461 . S
C92 H112 0.932 . S
C93 C91 1.408 . S
C93 C92 1.310 . S
C93 H113 0.930 . S
C94 C95 1.474 . S
C94 C96 1.285 . S
C94 H114 0.929 . S
C95 C92 1.461 . S
C95 C94 1.474 . S
C96 C91 1.342 . S
C96 C94 1.285 . S
C96 H115 0.930 . S
C97 C100 1.424 . S
C97 C102 1.245 . S
C97 C103 1.428 . S
C98 C101 1.260 . S
C98 C102 1.477 . S
C98 H116 0.932 . S
C99 C100 1.384 . S
C99 C101 1.479 . S
C99 H117 0.929 . S
C100 C97 1.424 . S
C100 C99 1.384 . S
C100 H118 0.928 . S
C101 C98 1.260 . S
C101 C99 1.479 . S
C102 C97 1.245 . S
C102 C98 1.477 . S
C102 H119 0.932 . S
C103 U86 2.882 . S
C103 C97 1.428 . S
C103 O106 1.301 . S
C103 O107 1.282 . S
O104 U86 2.441 . S
O104 C90 1.249 . S
O105 U86 2.420 . S
O105 C90 1.202 . S
O106 U86 2.455 . S
O106 C103 1.301 . S
O107 U86 2.449 . S
O107 C103 1.282 . S
H108 C81 0.931 . S
H109 C83 0.929 . S
H110 C84 0.930 . S
H111 C85 0.931 . S
H112 C92 0.932 . S
H113 C93 0.930 . S
H114 C94 0.929 . S
H115 C96 0.930 . S
H116 C98 0.932 . S
H117 C99 0.929 . S
H118 C100 0.928 . S
H119 C102 0.932 . S
C120 C121 1.264 . S
C120 C125 1.479 . S
C120 C130 1.465 . S
C121 C120 1.264 . S
C121 C123 1.339 . S
C121 H148 0.931 . S
C122 C123 1.395 . S
C122 C124 1.320 . S
C123 C121 1.339 . S
C123 C122 1.395 . S
C123 H149 0.929 . S
C124 C122 1.320 . S
C124 C125 1.405 . S
C124 H150 0.930 . S
C125 C120 1.479 . S
C125 C124 1.405 . S
C125 H151 0.931 . S
U126 O127 2.454 . S
U126 O128 2.458 . S
U126 C129 2.984 . S
U126 C130 2.847 . S
U126 C143 2.882 . S
U126 O144 2.441 . S
U126 O145 2.420 . S
U126 O146 2.455 . S
U126 O147 2.449 . S
O127 U126 2.454 . S
O127 C129 1.353 . S
O128 U126 2.458 . S
O128 C129 1.286 . S
C129 U126 2.984 . S
C129 O127 1.353 . S
C129 O128 1.286 . S
C129 C131 1.363 . S
C130 C120 1.465 . S
C130 U126 2.847 . S
C130 O144 1.249 . S
C130 O145 1.202 . S
C131 C129 1.363 . S
C131 C133 1.408 . S
C131 C136 1.342 . S
C132 C133 1.310 . S
C132 C135 1.461 . S
C132 H152 0.932 . S
C133 C131 1.408 . S
C133 C132 1.310 . S
C133 H153 0.930 . S
C134 C135 1.474 . S
C134 C136 1.285 . S
C134 H154 0.929 . S
C135 C132 1.461 . S
C135 C134 1.474 . S
C136 C131 1.342 . S
C136 C134 1.285 . S
C136 H155 0.930 . S
C137 C140 1.424 . S
C137 C142 1.245 . S
C137 C143 1.428 . S
C138 C141 1.260 . S
C138 C142 1.477 . S
C138 H156 0.932 . S
C139 C140 1.384 . S
C139 C141 1.479 . S
C139 H157 0.929 . S
C140 C137 1.424 . S
C140 C139 1.384 . S
C140 H158 0.928 . S
C141 C138 1.260 . S
C141 C139 1.479 . S
C142 C137 1.245 . S
C142 C138 1.477 . S
C142 H159 0.932 . S
C143 U126 2.882 . S
C143 C137 1.428 . S
C143 O146 1.301 . S
C143 O147 1.282 . S
O144 U126 2.441 . S
O144 C130 1.249 . S
O145 U126 2.420 . S
O145 C130 1.202 . S
O146 U126 2.455 . S
O146 C143 1.301 . S
O147 U126 2.449 . S
O147 C143 1.282 . S
H148 C121 0.931 . S
H149 C123 0.929 . S
H150 C124 0.930 . S
H151 C125 0.931 . S
H152 C132 0.932 . S
H153 C133 0.930 . S
H154 C134 0.929 . S
H155 C136 0.930 . S
H156 C138 0.932 . S
H157 C139 0.929 . S
H158 C140 0.928 . S
H159 C142 0.932 . S
C160 C161 1.264 . S
C160 C165 1.479 . S
C160 C170 1.465 . S
C161 C160 1.264 . S
C161 C163 1.339 . S
C161 H188 0.931 . S
C162 C163 1.395 . S
C162 C164 1.320 . S
C163 C161 1.339 . S
C163 C162 1.395 . S
C163 H189 0.929 . S
C164 C162 1.320 . S
C164 C165 1.405 . S
C164 H190 0.930 . S
C165 C160 1.479 . S
C165 C164 1.405 . S
C165 H191 0.931 . S
U166 O167 2.454 . S
U166 O168 2.458 . S
U166 C169 2.984 . S
U166 C170 2.847 . S
U166 C183 2.882 . S
U166 O184 2.441 . S
U166 O185 2.420 . S
U166 O186 2.455 . S
U166 O187 2.449 . S
O167 U166 2.454 . S
O167 C169 1.353 . S
O168 U166 2.458 . S
O168 C169 1.286 . S
C169 U166 2.984 . S
C169 O167 1.353 . S
C169 O168 1.286 . S
C169 C171 1.363 . S
C170 C160 1.465 . S
C170 U166 2.847 . S
C170 O184 1.249 . S
C170 O185 1.202 . S
C171 C169 1.363 . S
C171 C173 1.408 . S
C171 C176 1.342 . S
C172 C173 1.310 . S
C172 C175 1.461 . S
C172 H192 0.932 . S
C173 C171 1.408 . S
C173 C172 1.310 . S
C173 H193 0.930 . S
C174 C175 1.474 . S
C174 C176 1.285 . S
C174 H194 0.929 . S
C175 C172 1.461 . S
C175 C174 1.474 . S
C176 C171 1.342 . S
C176 C174 1.285 . S
C176 H195 0.930 . S
C177 C180 1.424 . S
C177 C182 1.245 . S
C177 C183 1.428 . S
C178 C181 1.260 . S
C178 C182 1.477 . S
C178 H196 0.932 . S
C179 C180 1.384 . S
C179 C181 1.479 . S
C179 H197 0.929 . S
C180 C177 1.424 . S
C180 C179 1.384 . S
C180 H198 0.928 . S
C181 C178 1.260 . S
C181 C179 1.479 . S
C182 C177 1.245 . S
C182 C178 1.477 . S
C182 H199 0.932 . S
C183 U166 2.882 . S
C183 C177 1.428 . S
C183 O186 1.301 . S
C183 O187 1.282 . S
O184 U166 2.441 . S
O184 C170 1.249 . S
O185 U166 2.420 . S
O185 C170 1.202 . S
O186 U166 2.455 . S
O186 C183 1.301 . S
O187 U166 2.449 . S
O187 C183 1.282 . S
H188 C161 0.931 . S
H189 C163 0.929 . S
H190 C164 0.930 . S
H191 C165 0.931 . S
H192 C172 0.932 . S
H193 C173 0.930 . S
H194 C174 0.929 . S
H195 C176 0.930 . S
H196 C178 0.932 . S
H197 C179 0.929 . S
H198 C180 0.928 . S
H199 C182 0.932 . S
C200 C201 1.264 . S
C200 C205 1.479 . S
C200 C210 1.465 . S
C201 C200 1.264 . S
C201 C203 1.339 . S
C201 H228 0.931 . S
C202 C203 1.395 . S
C202 C204 1.320 . S
C203 C201 1.339 . S
C203 C202 1.395 . S
C203 H229 0.929 . S
C204 C202 1.320 . S
C204 C205 1.405 . S
C204 H230 0.930 . S
C205 C200 1.479 . S
C205 C204 1.405 . S
C205 H231 0.931 . S
U206 O207 2.454 . S
U206 O208 2.458 . S
U206 C209 2.984 . S
U206 C210 2.847 . S
U206 C223 2.882 . S
U206 O224 2.441 . S
U206 O225 2.420 . S
U206 O226 2.455 . S
U206 O227 2.449 . S
O207 U206 2.454 . S
O207 C209 1.353 . S
O208 U206 2.458 . S
O208 C209 1.286 . S
C209 U206 2.984 . S
C209 O207 1.353 . S
C209 O208 1.286 . S
C209 C211 1.363 . S
C210 C200 1.465 . S
C210 U206 2.847 . S
C210 O224 1.249 . S
C210 O225 1.202 . S
C211 C209 1.363 . S
C211 C213 1.408 . S
C211 C216 1.342 . S
C212 C213 1.310 . S
C212 C215 1.461 . S
C212 H232 0.932 . S
C213 C211 1.408 . S
C213 C212 1.310 . S
C213 H233 0.930 . S
C214 C215 1.474 . S
C214 C216 1.285 . S
C214 H234 0.929 . S
C215 C212 1.461 . S
C215 C214 1.474 . S
C216 C211 1.342 . S
C216 C214 1.285 . S
C216 H235 0.930 . S
C217 C220 1.424 . S
C217 C222 1.245 . S
C217 C223 1.428 . S
C218 C221 1.260 . S
C218 C222 1.477 . S
C218 H236 0.932 . S
C219 C220 1.384 . S
C219 C221 1.479 . S
C219 H237 0.929 . S
C220 C217 1.424 . S
C220 C219 1.384 . S
C220 H238 0.928 . S
C221 C218 1.260 . S
C221 C219 1.479 . S
C222 C217 1.245 . S
C222 C218 1.477 . S
C222 H239 0.932 . S
C223 U206 2.882 . S
C223 C217 1.428 . S
C223 O226 1.301 . S
C223 O227 1.282 . S
O224 U206 2.441 . S
O224 C210 1.249 . S
O225 U206 2.420 . S
O225 C210 1.202 . S
O226 U206 2.455 . S
O226 C223 1.301 . S
O227 U206 2.449 . S
O227 C223 1.282 . S
H228 C201 0.931 . S
H229 C203 0.929 . S
H230 C204 0.930 . S
H231 C205 0.931 . S
H232 C212 0.932 . S
H233 C213 0.930 . S
H234 C214 0.929 . S
H235 C216 0.930 . S
H236 C218 0.932 . S
H237 C219 0.929 . S
H238 C220 0.928 . S
H239 C222 0.932 . S
C240 C241 1.264 . S
C240 C245 1.479 . S
C240 C250 1.465 . S
C241 C240 1.264 . S
C241 C243 1.339 . S
C241 H268 0.931 . S
C242 C243 1.395 . S
C242 C244 1.320 . S
C243 C241 1.339 . S
C243 C242 1.395 . S
C243 H269 0.929 . S
C244 C242 1.320 . S
C244 C245 1.405 . S
C244 H270 0.930 . S
C245 C240 1.479 . S
C245 C244 1.405 . S
C245 H271 0.931 . S
U246 O247 2.454 . S
U246 O248 2.458 . S
U246 C249 2.984 . S
U246 C250 2.847 . S
U246 C263 2.882 . S
U246 O264 2.441 . S
U246 O265 2.420 . S
U246 O266 2.455 . S
U246 O267 2.449 . S
O247 U246 2.454 . S
O247 C249 1.353 . S
O248 U246 2.458 . S
O248 C249 1.286 . S
C249 U246 2.984 . S
C249 O247 1.353 . S
C249 O248 1.286 . S
C249 C251 1.363 . S
C250 C240 1.465 . S
C250 U246 2.847 . S
C250 O264 1.249 . S
C250 O265 1.202 . S
C251 C249 1.363 . S
C251 C253 1.408 . S
C251 C256 1.342 . S
C252 C253 1.310 . S
C252 C255 1.461 . S
C252 H272 0.932 . S
C253 C251 1.408 . S
C253 C252 1.310 . S
C253 H273 0.930 . S
C254 C255 1.474 . S
C254 C256 1.285 . S
C254 H274 0.929 . S
C255 C252 1.461 . S
C255 C254 1.474 . S
C256 C251 1.342 . S
C256 C254 1.285 . S
C256 H275 0.930 . S
C257 C260 1.424 . S
C257 C262 1.245 . S
C257 C263 1.428 . S
C258 C261 1.260 . S
C258 C262 1.477 . S
C258 H276 0.932 . S
C259 C260 1.384 . S
C259 C261 1.479 . S
C259 H277 0.929 . S
C260 C257 1.424 . S
C260 C259 1.384 . S
C260 H278 0.928 . S
C261 C258 1.260 . S
C261 C259 1.479 . S
C262 C257 1.245 . S
C262 C258 1.477 . S
C262 H279 0.932 . S
C263 U246 2.882 . S
C263 C257 1.428 . S
C263 O266 1.301 . S
C263 O267 1.282 . S
O264 U246 2.441 . S
O264 C250 1.249 . S
O265 U246 2.420 . S
O265 C250 1.202 . S
O266 U246 2.455 . S
O266 C263 1.301 . S
O267 U246 2.449 . S
O267 C263 1.282 . S
H268 C241 0.931 . S
H269 C243 0.929 . S
H270 C244 0.930 . S
H271 C245 0.931 . S
H272 C252 0.932 . S
H273 C253 0.930 . S
H274 C254 0.929 . S
H275 C256 0.930 . S
H276 C258 0.932 . S
H277 C259 0.929 . S
H278 C260 0.928 . S
H279 C262 0.932 . S
C280 C281 1.264 . S
C280 C285 1.479 . S
C280 C290 1.465 . S
C281 C280 1.264 . S
C281 C283 1.339 . S
C281 H308 0.931 . S
C282 C283 1.395 . S
C282 C284 1.320 . S
C283 C281 1.339 . S
C283 C282 1.395 . S
C283 H309 0.929 . S
C284 C282 1.320 . S
C284 C285 1.405 . S
C284 H310 0.930 . S
C285 C280 1.479 . S
C285 C284 1.405 . S
C285 H311 0.931 . S
U286 O287 2.454 . S
U286 O288 2.458 . S
U286 C289 2.984 . S
U286 C290 2.847 . S
U286 C303 2.882 . S
U286 O304 2.441 . S
U286 O305 2.420 . S
U286 O306 2.455 . S
U286 O307 2.449 . S
O287 U286 2.454 . S
O287 C289 1.353 . S
O288 U286 2.458 . S
O288 C289 1.286 . S
C289 U286 2.984 . S
C289 O287 1.353 . S
C289 O288 1.286 . S
C289 C291 1.363 . S
C290 C280 1.465 . S
C290 U286 2.847 . S
C290 O304 1.249 . S
C290 O305 1.202 . S
C291 C289 1.363 . S
C291 C293 1.408 . S
C291 C296 1.342 . S
C292 C293 1.310 . S
C292 C295 1.461 . S
C292 H312 0.932 . S
C293 C291 1.408 . S
C293 C292 1.310 . S
C293 H313 0.930 . S
C294 C295 1.474 . S
C294 C296 1.285 . S
C294 H314 0.929 . S
C295 C292 1.461 . S
C295 C294 1.474 . S
C296 C291 1.342 . S
C296 C294 1.285 . S
C296 H315 0.930 . S
C297 C300 1.424 . S
C297 C302 1.245 . S
C297 C303 1.428 . S
C298 C301 1.260 . S
C298 C302 1.477 . S
C298 H316 0.932 . S
C299 C300 1.384 . S
C299 C301 1.479 . S
C299 H317 0.929 . S
C300 C297 1.424 . S
C300 C299 1.384 . S
C300 H318 0.928 . S
C301 C298 1.260 . S
C301 C299 1.479 . S
C302 C297 1.245 . S
C302 C298 1.477 . S
C302 H319 0.932 . S
C303 U286 2.882 . S
C303 C297 1.428 . S
C303 O306 1.301 . S
C303 O307 1.282 . S
O304 U286 2.441 . S
O304 C290 1.249 . S
O305 U286 2.420 . S
O305 C290 1.202 . S
O306 U286 2.455 . S
O306 C303 1.301 . S
O307 U286 2.449 . S
O307 C303 1.282 . S
H308 C281 0.931 . S
H309 C283 0.929 . S
H310 C284 0.930 . S
H311 C285 0.931 . S
H312 C292 0.932 . S
H313 C293 0.930 . S
H314 C294 0.929 . S
H315 C296 0.930 . S
H316 C298 0.932 . S
H317 C299 0.929 . S
H318 C300 0.928 . S
H319 C302 0.932 . S
C320 C321 1.264 . S
C320 C325 1.479 . S
C320 C330 1.465 . S
C321 C320 1.264 . S
C321 C323 1.339 . S
C321 H348 0.931 . S
C322 C323 1.395 . S
C322 C324 1.320 . S
C323 C321 1.339 . S
C323 C322 1.395 . S
C323 H349 0.929 . S
C324 C322 1.320 . S
C324 C325 1.405 . S
C324 H350 0.930 . S
C325 C320 1.479 . S
C325 C324 1.405 . S
C325 H351 0.931 . S
U326 O327 2.454 . S
U326 O328 2.458 . S
U326 C329 2.984 . S
U326 C330 2.847 . S
U326 C343 2.882 . S
U326 O344 2.441 . S
U326 O345 2.420 . S
U326 O346 2.455 . S
U326 O347 2.449 . S
O327 U326 2.454 . S
O327 C329 1.353 . S
O328 U326 2.458 . S
O328 C329 1.286 . S
C329 U326 2.984 . S
C329 O327 1.353 . S
C329 O328 1.286 . S
C329 C331 1.363 . S
C330 C320 1.465 . S
C330 U326 2.847 . S
C330 O344 1.249 . S
C330 O345 1.202 . S
C331 C329 1.363 . S
C331 C333 1.408 . S
C331 C336 1.342 . S
C332 C333 1.310 . S
C332 C335 1.461 . S
C332 H352 0.932 . S
C333 C331 1.408 . S
C333 C332 1.310 . S
C333 H353 0.930 . S
C334 C335 1.474 . S
C334 C336 1.285 . S
C334 H354 0.929 . S
C335 C332 1.461 . S
C335 C334 1.474 . S
C336 C331 1.342 . S
C336 C334 1.285 . S
C336 H355 0.930 . S
C337 C340 1.424 . S
C337 C342 1.245 . S
C337 C343 1.428 . S
C338 C341 1.260 . S
C338 C342 1.477 . S
C338 H356 0.932 . S
C339 C340 1.384 . S
C339 C341 1.479 . S
C339 H357 0.929 . S
C340 C337 1.424 . S
C340 C339 1.384 . S
C340 H358 0.928 . S
C341 C338 1.260 . S
C341 C339 1.479 . S
C342 C337 1.245 . S
C342 C338 1.477 . S
C342 H359 0.932 . S
C343 U326 2.882 . S
C343 C337 1.428 . S
C343 O346 1.301 . S
C343 O347 1.282 . S
O344 U326 2.441 . S
O344 C330 1.249 . S
O345 U326 2.420 . S
O345 C330 1.202 . S
O346 U326 2.455 . S
O346 C343 1.301 . S
O347 U326 2.449 . S
O347 C343 1.282 . S
H348 C321 0.931 . S
H349 C323 0.929 . S
H350 C324 0.930 . S
H351 C325 0.931 . S
H352 C332 0.932 . S
H353 C333 0.930 . S
H354 C334 0.929 . S
H355 C336 0.930 . S
H356 C338 0.932 . S
H357 C339 0.929 . S
H358 C340 0.928 . S
H359 C342 0.932 . S
C360 C361 1.264 . S
C360 C365 1.479 . S
C360 C370 1.465 . S
C361 C360 1.264 . S
C361 C363 1.339 . S
C361 H388 0.931 . S
C362 C363 1.395 . S
C362 C364 1.320 . S
C363 C361 1.339 . S
C363 C362 1.395 . S
C363 H389 0.929 . S
C364 C362 1.320 . S
C364 C365 1.405 . S
C364 H390 0.930 . S
C365 C360 1.479 . S
C365 C364 1.405 . S
C365 H391 0.931 . S
U366 O367 2.454 . S
U366 O368 2.458 . S
U366 C369 2.984 . S
U366 C370 2.847 . S
U366 C383 2.882 . S
U366 O384 2.441 . S
U366 O385 2.420 . S
U366 O386 2.455 . S
U366 O387 2.449 . S
O367 U366 2.454 . S
O367 C369 1.353 . S
O368 U366 2.458 . S
O368 C369 1.286 . S
C369 U366 2.984 . S
C369 O367 1.353 . S
C369 O368 1.286 . S
C369 C371 1.363 . S
C370 C360 1.465 . S
C370 U366 2.847 . S
C370 O384 1.249 . S
C370 O385 1.202 . S
C371 C369 1.363 . S
C371 C373 1.408 . S
C371 C376 1.342 . S
C372 C373 1.310 . S
C372 C375 1.461 . S
C372 H392 0.932 . S
C373 C371 1.408 . S
C373 C372 1.310 . S
C373 H393 0.930 . S
C374 C375 1.474 . S
C374 C376 1.285 . S
C374 H394 0.929 . S
C375 C372 1.461 . S
C375 C374 1.474 . S
C376 C371 1.342 . S
C376 C374 1.285 . S
C376 H395 0.930 . S
C377 C380 1.424 . S
C377 C382 1.245 . S
C377 C383 1.428 . S
C378 C381 1.260 . S
C378 C382 1.477 . S
C378 H396 0.932 . S
C379 C380 1.384 . S
C379 C381 1.479 . S
C379 H397 0.929 . S
C380 C377 1.424 . S
C380 C379 1.384 . S
C380 H398 0.928 . S
C381 C378 1.260 . S
C381 C379 1.479 . S
C382 C377 1.245 . S
C382 C378 1.477 . S
C382 H399 0.932 . S
C383 U366 2.882 . S
C383 C377 1.428 . S
C383 O386 1.301 . S
C383 O387 1.282 . S
O384 U366 2.441 . S
O384 C370 1.249 . S
O385 U366 2.420 . S
O385 C370 1.202 . S
O386 U366 2.455 . S
O386 C383 1.301 . S
O387 U366 2.449 . S
O387 C383 1.282 . S
H388 C361 0.931 . S
H389 C363 0.929 . S
H390 C364 0.930 . S
H391 C365 0.931 . S
H392 C372 0.932 . S
H393 C373 0.930 . S
H394 C374 0.929 . S
H395 C376 0.930 . S
H396 C378 0.932 . S
H397 C379 0.929 . S
H398 C380 0.928 . S
H399 C382 0.932 . S
C400 C401 1.264 . S
C400 C405 1.479 . S
C400 C410 1.465 . S
C401 C400 1.264 . S
C401 C403 1.339 . S
C401 H428 0.931 . S
C402 C403 1.395 . S
C402 C404 1.320 . S
C403 C401 1.339 . S
C403 C402 1.395 . S
C403 H429 0.929 . S
C404 C402 1.320 . S
C404 C405 1.405 . S
C404 H430 0.930 . S
C405 C400 1.479 . S
C405 C404 1.405 . S
C405 H431 0.931 . S
U406 O407 2.454 . S
U406 O408 2.458 . S
U406 C409 2.984 . S
U406 C410 2.847 . S
U406 C423 2.882 . S
U406 O424 2.441 . S
U406 O425 2.420 . S
U406 O426 2.455 . S
U406 O427 2.449 . S
O407 U406 2.454 . S
O407 C409 1.353 . S
O408 U406 2.458 . S
O408 C409 1.286 . S
C409 U406 2.984 . S
C409 O407 1.353 . S
C409 O408 1.286 . S
C409 C411 1.363 . S
C410 C400 1.465 . S
C410 U406 2.847 . S
C410 O424 1.249 . S
C410 O425 1.202 . S
C411 C409 1.363 . S
C411 C413 1.408 . S
C411 C416 1.342 . S
C412 C413 1.310 . S
C412 C415 1.461 . S
C412 H432 0.932 . S
C413 C411 1.408 . S
C413 C412 1.310 . S
C413 H433 0.930 . S
C414 C415 1.474 . S
C414 C416 1.285 . S
C414 H434 0.929 . S
C415 C412 1.461 . S
C415 C414 1.474 . S
C416 C411 1.342 . S
C416 C414 1.285 . S
C416 H435 0.930 . S
C417 C420 1.424 . S
C417 C422 1.245 . S
C417 C423 1.428 . S
C418 C421 1.260 . S
C418 C422 1.477 . S
C418 H436 0.932 . S
C419 C420 1.384 . S
C419 C421 1.479 . S
C419 H437 0.929 . S
C420 C417 1.424 . S
C420 C419 1.384 . S
C420 H438 0.928 . S
C421 C418 1.260 . S
C421 C419 1.479 . S
C422 C417 1.245 . S
C422 C418 1.477 . S
C422 H439 0.932 . S
C423 U406 2.882 . S
C423 C417 1.428 . S
C423 O426 1.301 . S
C423 O427 1.282 . S
O424 U406 2.441 . S
O424 C410 1.249 . S
O425 U406 2.420 . S
O425 C410 1.202 . S
O426 U406 2.455 . S
O426 C423 1.301 . S
O427 U406 2.449 . S
O427 C423 1.282 . S
H428 C401 0.931 . S
H429 C403 0.929 . S
H430 C404 0.930 . S
H431 C405 0.931 . S
H432 C412 0.932 . S
H433 C413 0.930 . S
H434 C414 0.929 . S
H435 C416 0.930 . S
H436 C418 0.932 . S
H437 C419 0.929 . S
H438 C420 0.928 . S
H439 C422 0.932 . S
C440 C441 1.264 . S
C440 C445 1.479 . S
C440 C450 1.465 . S
C441 C440 1.264 . S
C441 C443 1.339 . S
C441 H468 0.931 . S
C442 C443 1.395 . S
C442 C444 1.320 . S
C443 C441 1.339 . S
C443 C442 1.395 . S
C443 H469 0.929 . S
C444 C442 1.320 . S
C444 C445 1.405 . S
C444 H470 0.930 . S
C445 C440 1.479 . S
C445 C444 1.405 . S
C445 H471 0.931 . S
U446 O447 2.454 . S
U446 O448 2.458 . S
U446 C449 2.984 . S
U446 C450 2.847 . S
U446 C463 2.882 . S
U446 O464 2.441 . S
U446 O465 2.420 . S
U446 O466 2.455 . S
U446 O467 2.449 . S
O447 U446 2.454 . S
O447 C449 1.353 . S
O448 U446 2.458 . S
O448 C449 1.286 . S
C449 U446 2.984 . S
C449 O447 1.353 . S
C449 O448 1.286 . S
C449 C451 1.363 . S
C450 C440 1.465 . S
C450 U446 2.847 . S
C450 O464 1.249 . S
C450 O465 1.202 . S
C451 C449 1.363 . S
C451 C453 1.408 . S
C451 C456 1.342 . S
C452 C453 1.310 . S
C452 C455 1.461 . S
C452 H472 0.932 . S
C453 C451 1.408 . S
C453 C452 1.310 . S
C453 H473 0.930 . S
C454 C455 1.474 . S
C454 C456 1.285 . S
C454 H474 0.929 . S
C455 C452 1.461 . S
C455 C454 1.474 . S
C456 C451 1.342 . S
C456 C454 1.285 . S
C456 H475 0.930 . S
C457 C460 1.424 . S
C457 C462 1.245 . S
C457 C463 1.428 . S
C458 C461 1.260 . S
C458 C462 1.477 . S
C458 H476 0.932 . S
C459 C460 1.384 . S
C459 C461 1.479 . S
C459 H477 0.929 . S
C460 C457 1.424 . S
C460 C459 1.384 . S
C460 H478 0.928 . S
C461 C458 1.260 . S
C461 C459 1.479 . S
C462 C457 1.245 . S
C462 C458 1.477 . S
C462 H479 0.932 . S
C463 U446 2.882 . S
C463 C457 1.428 . S
C463 O466 1.301 . S
C463 O467 1.282 . S
O464 U446 2.441 . S
O464 C450 1.249 . S
O465 U446 2.420 . S
O465 C450 1.202 . S
O466 U446 2.455 . S
O466 C463 1.301 . S
O467 U446 2.449 . S
O467 C463 1.282 . S
H468 C441 0.931 . S
H469 C443 0.929 . S
H470 C444 0.930 . S
H471 C445 0.931 . S
H472 C452 0.932 . S
H473 C453 0.930 . S
H474 C454 0.929 . S
H475 C456 0.930 . S
H476 C458 0.932 . S
H477 C459 0.929 . S
H478 C460 0.928 . S
H479 C462 0.932 . S
C480 C481 1.264 . S
C480 C485 1.479 . S
C480 C490 1.465 . S
C481 C480 1.264 . S
C481 C483 1.339 . S
C481 H508 0.931 . S
C482 C483 1.395 . S
C482 C484 1.320 . S
C483 C481 1.339 . S
C483 C482 1.395 . S
C483 H509 0.929 . S
C484 C482 1.320 . S
C484 C485 1.405 . S
C484 H510 0.930 . S
C485 C480 1.479 . S
C485 C484 1.405 . S
C485 H511 0.931 . S
U486 O487 2.454 . S
U486 O488 2.458 . S
U486 C489 2.984 . S
U486 C490 2.847 . S
U486 C503 2.882 . S
U486 O504 2.441 . S
U486 O505 2.420 . S
U486 O506 2.455 . S
U486 O507 2.449 . S
O487 U486 2.454 . S
O487 C489 1.353 . S
O488 U486 2.458 . S
O488 C489 1.286 . S
C489 U486 2.984 . S
C489 O487 1.353 . S
C489 O488 1.286 . S
C489 C491 1.363 . S
C490 C480 1.465 . S
C490 U486 2.847 . S
C490 O504 1.249 . S
C490 O505 1.202 . S
C491 C489 1.363 . S
C491 C493 1.408 . S
C491 C496 1.342 . S
C492 C493 1.310 . S
C492 C495 1.461 . S
C492 H512 0.932 . S
C493 C491 1.408 . S
C493 C492 1.310 . S
C493 H513 0.930 . S
C494 C495 1.474 . S
C494 C496 1.285 . S
C494 H514 0.929 . S
C495 C492 1.461 . S
C495 C494 1.474 . S
C496 C491 1.342 . S
C496 C494 1.285 . S
C496 H515 0.930 . S
C497 C500 1.424 . S
C497 C502 1.245 . S
C497 C503 1.428 . S
C498 C501 1.260 . S
C498 C502 1.477 . S
C498 H516 0.932 . S
C499 C500 1.384 . S
C499 C501 1.479 . S
C499 H517 0.929 . S
C500 C497 1.424 . S
C500 C499 1.384 . S
C500 H518 0.928 . S
C501 C498 1.260 . S
C501 C499 1.479 . S
C502 C497 1.245 . S
C502 C498 1.477 . S
C502 H519 0.932 . S
C503 U486 2.882 . S
C503 C497 1.428 . S
C503 O506 1.301 . S
C503 O507 1.282 . S
O504 U486 2.441 . S
O504 C490 1.249 . S
O505 U486 2.420 . S
O505 C490 1.202 . S
O506 U486 2.455 . S
O506 C503 1.301 . S
O507 U486 2.449 . S
O507 C503 1.282 . S
H508 C481 0.931 . S
H509 C483 0.929 . S
H510 C484 0.930 . S
H511 C485 0.931 . S
H512 C492 0.932 . S
H513 C493 0.930 . S
H514 C494 0.929 . S
H515 C496 0.930 . S
H516 C498 0.932 . S
H517 C499 0.929 . S
H518 C500 0.928 . S
H519 C502 0.932 . S
C520 C521 1.264 . S
C520 C525 1.479 . S
C520 C530 1.465 . S
C521 C520 1.264 . S
C521 C523 1.339 . S
C521 H548 0.931 . S
C522 C523 1.395 . S
C522 C524 1.320 . S
C523 C521 1.339 . S
C523 C522 1.395 . S
C523 H549 0.929 . S
C524 C522 1.320 . S
C524 C525 1.405 . S
C524 H550 0.930 . S
C525 C520 1.479 . S
C525 C524 1.405 . S
C525 H551 0.931 . S
U526 O527 2.454 . S
U526 O528 2.458 . S
U526 C529 2.984 . S
U526 C530 2.847 . S
U526 C543 2.882 . S
U526 O544 2.441 . S
U526 O545 2.420 . S
U526 O546 2.455 . S
U526 O547 2.449 . S
O527 U526 2.454 . S
O527 C529 1.353 . S
O528 U526 2.458 . S
O528 C529 1.286 . S
C529 U526 2.984 . S
C529 O527 1.353 . S
C529 O528 1.286 . S
C529 C531 1.363 . S
C530 C520 1.465 . S
C530 U526 2.847 . S
C530 O544 1.249 . S
C530 O545 1.202 . S
C531 C529 1.363 . S
C531 C533 1.408 . S
C531 C536 1.342 . S
C532 C533 1.310 . S
C532 C535 1.461 . S
C532 H552 0.932 . S
C533 C531 1.408 . S
C533 C532 1.310 . S
C533 H553 0.930 . S
C534 C535 1.474 . S
C534 C536 1.285 . S
C534 H554 0.929 . S
C535 C532 1.461 . S
C535 C534 1.474 . S
C536 C531 1.342 . S
C536 C534 1.285 . S
C536 H555 0.930 . S
C537 C540 1.424 . S
C537 C542 1.245 . S
C537 C543 1.428 . S
C538 C541 1.260 . S
C538 C542 1.477 . S
C538 H556 0.932 . S
C539 C540 1.384 . S
C539 C541 1.479 . S
C539 H557 0.929 . S
C540 C537 1.424 . S
C540 C539 1.384 . S
C540 H558 0.928 . S
C541 C538 1.260 . S
C541 C539 1.479 . S
C542 C537 1.245 . S
C542 C538 1.477 . S
C542 H559 0.932 . S
C543 U526 2.882 . S
C543 C537 1.428 . S
C543 O546 1.301 . S
C543 O547 1.282 . S
O544 U526 2.441 . S
O544 C530 1.249 . S
O545 U526 2.420 . S
O545 C530 1.202 . S
O546 U526 2.455 . S
O546 C543 1.301 . S
O547 U526 2.449 . S
O547 C543 1.282 . S
H548 C521 0.931 . S
H549 C523 0.929 . S
H550 C524 0.930 . S
H551 C525 0.931 . S
H552 C532 0.932 . S
H553 C533 0.930 . S
H554 C534 0.929 . S
H555 C536 0.930 . S
H556 C538 0.932 . S
H557 C539 0.929 . S
H558 C540 0.928 . S
H559 C542 0.932 . S
C560 C561 1.264 . S
C560 C565 1.479 . S
C560 C570 1.465 . S
C561 C560 1.264 . S
C561 C563 1.339 . S
C561 H588 0.931 . S
C562 C563 1.395 . S
C562 C564 1.320 . S
C563 C561 1.339 . S
C563 C562 1.395 . S
C563 H589 0.929 . S
C564 C562 1.320 . S
C564 C565 1.405 . S
C564 H590 0.930 . S
C565 C560 1.479 . S
C565 C564 1.405 . S
C565 H591 0.931 . S
U566 O567 2.454 . S
U566 O568 2.458 . S
U566 C569 2.984 . S
U566 C570 2.847 . S
U566 C583 2.882 . S
U566 O584 2.441 . S
U566 O585 2.420 . S
U566 O586 2.455 . S
U566 O587 2.449 . S
O567 U566 2.454 . S
O567 C569 1.353 . S
O568 U566 2.458 . S
O568 C569 1.286 . S
C569 U566 2.984 . S
C569 O567 1.353 . S
C569 O568 1.286 . S
C569 C571 1.363 . S
C570 C560 1.465 . S
C570 U566 2.847 . S
C570 O584 1.249 . S
C570 O585 1.202 . S
C571 C569 1.363 . S
C571 C573 1.408 . S
C571 C576 1.342 . S
C572 C573 1.310 . S
C572 C575 1.461 . S
C572 H592 0.932 . S
C573 C571 1.408 . S
C573 C572 1.310 . S
C573 H593 0.930 . S
C574 C575 1.474 . S
C574 C576 1.285 . S
C574 H594 0.929 . S
C575 C572 1.461 . S
C575 C574 1.474 . S
C576 C571 1.342 . S
C576 C574 1.285 . S
C576 H595 0.930 . S
C577 C580 1.424 . S
C577 C582 1.245 . S
C577 C583 1.428 . S
C578 C581 1.260 . S
C578 C582 1.477 . S
C578 H596 0.932 . S
C579 C580 1.384 . S
C579 C581 1.479 . S
C579 H597 0.929 . S
C580 C577 1.424 . S
C580 C579 1.384 . S
C580 H598 0.928 . S
C581 C578 1.260 . S
C581 C579 1.479 . S
C582 C577 1.245 . S
C582 C578 1.477 . S
C582 H599 0.932 . S
C583 U566 2.882 . S
C583 C577 1.428 . S
C583 O586 1.301 . S
C583 O587 1.282 . S
O584 U566 2.441 . S
O584 C570 1.249 . S
O585 U566 2.420 . S
O585 C570 1.202 . S
O586 U566 2.455 . S
O586 C583 1.301 . S
O587 U566 2.449 . S
O587 C583 1.282 . S
H588 C561 0.931 . S
H589 C563 0.929 . S
H590 C564 0.930 . S
H591 C565 0.931 . S
H592 C572 0.932 . S
H593 C573 0.930 . S
H594 C574 0.929 . S
H595 C576 0.930 . S
H596 C578 0.932 . S
H597 C579 0.929 . S
H598 C580 0.928 . S
H599 C582 0.932 . S
C600 C601 1.264 . S
C600 C605 1.479 . S
C600 C610 1.465 . S
C601 C600 1.264 . S
C601 C603 1.339 . S
C601 H628 0.931 . S
C602 C603 1.395 . S
C602 C604 1.320 . S
C603 C601 1.339 . S
C603 C602 1.395 . S
C603 H629 0.929 . S
C604 C602 1.320 . S
C604 C605 1.405 . S
C604 H630 0.930 . S
C605 C600 1.479 . S
C605 C604 1.405 . S
C605 H631 0.931 . S
U606 O607 2.454 . S
U606 O608 2.458 . S
U606 C609 2.984 . S
U606 C610 2.847 . S
U606 C623 2.882 . S
U606 O624 2.441 . S
U606 O625 2.420 . S
U606 O626 2.455 . S
U606 O627 2.449 . S
O607 U606 2.454 . S
O607 C609 1.353 . S
O608 U606 2.458 . S
O608 C609 1.286 . S
C609 U606 2.984 . S
C609 O607 1.353 . S
C609 O608 1.286 . S
C609 C611 1.363 . S
C610 C600 1.465 . S
C610 U606 2.847 . S
C610 O624 1.249 . S
C610 O625 1.202 . S
C611 C609 1.363 . S
C611 C613 1.408 . S
C611 C616 1.342 . S
C612 C613 1.310 . S
C612 C615 1.461 . S
C612 H632 0.932 . S
C613 C611 1.408 . S
C613 C612 1.310 . S
C613 H633 0.930 . S
C614 C615 1.474 . S
C614 C616 1.285 . S
C614 H634 0.929 . S
C615 C612 1.461 . S
C615 C614 1.474 . S
C616 C611 1.342 . S
C616 C614 1.285 . S
C616 H635 0.930 . S
C617 C620 1.424 . S
C617 C622 1.245 . S
C617 C623 1.428 . S
C618 C621 1.260 . S
C618 C622 1.477 . S
C618 H636 0.932 . S
C619 C620 1.384 . S
C619 C621 1.479 . S
C619 H637 0.929 . S
C620 C617 1.424 . S
C620 C619 1.384 . S
C620 H638 0.928 . S
C621 C618 1.260 . S
C621 C619 1.479 . S
C622 C617 1.245 . S
C622 C618 1.477 . S
C622 H639 0.932 . S
C623 U606 2.882 . S
C623 C617 1.428 . S
C623 O626 1.301 . S
C623 O627 1.282 . S
O624 U606 2.441 . S
O624 C610 1.249 . S
O625 U606 2.420 . S
O625 C610 1.202 . S
O626 U606 2.455 . S
O626 C623 1.301 . S
O627 U606 2.449 . S
O627 C623 1.282 . S
H628 C601 0.931 . S
H629 C603 0.929 . S
H630 C604 0.930 . S
H631 C605 0.931 . S
H632 C612 0.932 . S
H633 C613 0.930 . S
H634 C614 0.929 . S
H635 C616 0.930 . S
H636 C618 0.932 . S
H637 C619 0.929 . S
H638 C620 0.928 . S
H639 C622 0.932 . S
C640 C641 1.264 . S
C640 C645 1.479 . S
C640 C650 1.465 . S
C641 C640 1.264 . S
C641 C643 1.339 . S
C641 H668 0.931 . S
C642 C643 1.395 . S
C642 C644 1.320 . S
C643 C641 1.339 . S
C643 C642 1.395 . S
C643 H669 0.929 . S
C644 C642 1.320 . S
C644 C645 1.405 . S
C644 H670 0.930 . S
C645 C640 1.479 . S
C645 C644 1.405 . S
C645 H671 0.931 . S
U646 O647 2.454 . S
U646 O648 2.458 . S
U646 C649 2.984 . S
U646 C650 2.847 . S
U646 C663 2.882 . S
U646 O664 2.441 . S
U646 O665 2.420 . S
U646 O666 2.455 . S
U646 O667 2.449 . S
O647 U646 2.454 . S
O647 C649 1.353 . S
O648 U646 2.458 . S
O648 C649 1.286 . S
C649 U646 2.984 . S
C649 O647 1.353 . S
C649 O648 1.286 . S
C649 C651 1.363 . S
C650 C640 1.465 . S
C650 U646 2.847 . S
C650 O664 1.249 . S
C650 O665 1.202 . S
C651 C649 1.363 . S
C651 C653 1.408 . S
C651 C656 1.342 . S
C652 C653 1.310 . S
C652 C655 1.461 . S
C652 H672 0.932 . S
C653 C651 1.408 . S
C653 C652 1.310 . S
C653 H673 0.930 . S
C654 C655 1.474 . S
C654 C656 1.285 . S
C654 H674 0.929 . S
C655 C652 1.461 . S
C655 C654 1.474 . S
C656 C651 1.342 . S
C656 C654 1.285 . S
C656 H675 0.930 . S
C657 C660 1.424 . S
C657 C662 1.245 . S
C657 C663 1.428 . S
C658 C661 1.260 . S
C658 C662 1.477 . S
C658 H676 0.932 . S
C659 C660 1.384 . S
C659 C661 1.479 . S
C659 H677 0.929 . S
C660 C657 1.424 . S
C660 C659 1.384 . S
C660 H678 0.928 . S
C661 C658 1.260 . S
C661 C659 1.479 . S
C662 C657 1.245 . S
C662 C658 1.477 . S
C662 H679 0.932 . S
C663 U646 2.882 . S
C663 C657 1.428 . S
C663 O666 1.301 . S
C663 O667 1.282 . S
O664 U646 2.441 . S
O664 C650 1.249 . S
O665 U646 2.420 . S
O665 C650 1.202 . S
O666 U646 2.455 . S
O666 C663 1.301 . S
O667 U646 2.449 . S
O667 C663 1.282 . S
H668 C641 0.931 . S
H669 C643 0.929 . S
H670 C644 0.930 . S
H671 C645 0.931 . S
H672 C652 0.932 . S
H673 C653 0.930 . S
H674 C654 0.929 . S
H675 C656 0.930 . S
H676 C658 0.932 . S
H677 C659 0.929 . S
H678 C660 0.928 . S
H679 C662 0.932 . S
C680 C681 1.264 . S
C680 C685 1.479 . S
C680 C690 1.465 . S
C681 C680 1.264 . S
C681 C683 1.339 . S
C681 H708 0.931 . S
C682 C683 1.395 . S
C682 C684 1.320 . S
C683 C681 1.339 . S
C683 C682 1.395 . S
C683 H709 0.929 . S
C684 C682 1.320 . S
C684 C685 1.405 . S
C684 H710 0.930 . S
C685 C680 1.479 . S
C685 C684 1.405 . S
C685 H711 0.931 . S
U686 O687 2.454 . S
U686 O688 2.458 . S
U686 C689 2.984 . S
U686 C690 2.847 . S
U686 C703 2.882 . S
U686 O704 2.441 . S
U686 O705 2.420 . S
U686 O706 2.455 . S
U686 O707 2.449 . S
O687 U686 2.454 . S
O687 C689 1.353 . S
O688 U686 2.458 . S
O688 C689 1.286 . S
C689 U686 2.984 . S
C689 O687 1.353 . S
C689 O688 1.286 . S
C689 C691 1.363 . S
C690 C680 1.465 . S
C690 U686 2.847 . S
C690 O704 1.249 . S
C690 O705 1.202 . S
C691 C689 1.363 . S
C691 C693 1.408 . S
C691 C696 1.342 . S
C692 C693 1.310 . S
C692 C695 1.461 . S
C692 H712 0.932 . S
C693 C691 1.408 . S
C693 C692 1.310 . S
C693 H713 0.930 . S
C694 C695 1.474 . S
C694 C696 1.285 . S
C694 H714 0.929 . S
C695 C692 1.461 . S
C695 C694 1.474 . S
C696 C691 1.342 . S
C696 C694 1.285 . S
C696 H715 0.930 . S
C697 C700 1.424 . S
C697 C702 1.245 . S
C697 C703 1.428 . S
C698 C701 1.260 . S
C698 C702 1.477 . S
C698 H716 0.932 . S
C699 C700 1.384 . S
C699 C701 1.479 . S
C699 H717 0.929 . S
C700 C697 1.424 . S
C700 C699 1.384 . S
C700 H718 0.928 . S
C701 C698 1.260 . S
C701 C699 1.479 . S
C702 C697 1.245 . S
C702 C698 1.477 . S
C702 H719 0.932 . S
C703 U686 2.882 . S
C703 C697 1.428 . S
C703 O706 1.301 . S
C703 O707 1.282 . S
O704 U686 2.441 . S
O704 C690 1.249 . S
O705 U686 2.420 . S
O705 C690 1.202 . S
O706 U686 2.455 . S
O706 C703 1.301 . S
O707 U686 2.449 . S
O707 C703 1.282 . S
H708 C681 0.931 . S
H709 C683 0.929 . S
H710 C684 0.930 . S
H711 C685 0.931 . S
H712 C692 0.932 . S
H713 C693 0.930 . S
H714 C694 0.929 . S
H715 C696 0.930 . S
H716 C698 0.932 . S
H717 C699 0.929 . S
H718 C700 0.928 . S
H719 C702 0.932 . S
C720 C721 1.264 . S
C720 C725 1.479 . S
C720 C730 1.465 . S
C721 C720 1.264 . S
C721 C723 1.339 . S
C721 H748 0.931 . S
C722 C723 1.395 . S
C722 C724 1.320 . S
C723 C721 1.339 . S
C723 C722 1.395 . S
C723 H749 0.929 . S
C724 C722 1.320 . S
C724 C725 1.405 . S
C724 H750 0.930 . S
C725 C720 1.479 . S
C725 C724 1.405 . S
C725 H751 0.931 . S
U726 O727 2.454 . S
U726 O728 2.458 . S
U726 C729 2.984 . S
U726 C730 2.847 . S
U726 C743 2.882 . S
U726 O744 2.441 . S
U726 O745 2.420 . S
U726 O746 2.455 . S
U726 O747 2.449 . S
O727 U726 2.454 . S
O727 C729 1.353 . S
O728 U726 2.458 . S
O728 C729 1.286 . S
C729 U726 2.984 . S
C729 O727 1.353 . S
C729 O728 1.286 . S
C729 C731 1.363 . S
C730 C720 1.465 . S
C730 U726 2.847 . S
C730 O744 1.249 . S
C730 O745 1.202 . S
C731 C729 1.363 . S
C731 C733 1.408 . S
C731 C736 1.342 . S
C732 C733 1.310 . S
C732 C735 1.461 . S
C732 H752 0.932 . S
C733 C731 1.408 . S
C733 C732 1.310 . S
C733 H753 0.930 . S
C734 C735 1.474 . S
C734 C736 1.285 . S
C734 H754 0.929 . S
C735 C732 1.461 . S
C735 C734 1.474 . S
C736 C731 1.342 . S
C736 C734 1.285 . S
C736 H755 0.930 . S
C737 C740 1.424 . S
C737 C742 1.245 . S
C737 C743 1.428 . S
C738 C741 1.260 . S
C738 C742 1.477 . S
C738 H756 0.932 . S
C739 C740 1.384 . S
C739 C741 1.479 . S
C739 H757 0.929 . S
C740 C737 1.424 . S
C740 C739 1.384 . S
C740 H758 0.928 . S
C741 C738 1.260 . S
C741 C739 1.479 . S
C742 C737 1.245 . S
C742 C738 1.477 . S
C742 H759 0.932 . S
C743 U726 2.882 . S
C743 C737 1.428 . S
C743 O746 1.301 . S
C743 O747 1.282 . S
O744 U726 2.441 . S
O744 C730 1.249 . S
O745 U726 2.420 . S
O745 C730 1.202 . S
O746 U726 2.455 . S
O746 C743 1.301 . S
O747 U726 2.449 . S
O747 C743 1.282 . S
H748 C721 0.931 . S
H749 C723 0.929 . S
H750 C724 0.930 . S
H751 C725 0.931 . S
H752 C732 0.932 . S
H753 C733 0.930 . S
H754 C734 0.929 . S
H755 C736 0.930 . S
H756 C738 0.932 . S
H757 C739 0.929 . S
H758 C740 0.928 . S
H759 C742 0.932 . S
C760 C761 1.264 . S
C760 C765 1.479 . S
C760 C770 1.465 . S
C761 C760 1.264 . S
C761 C763 1.339 . S
C761 H788 0.931 . S
C762 C763 1.395 . S
C762 C764 1.320 . S
C763 C761 1.339 . S
C763 C762 1.395 . S
C763 H789 0.929 . S
C764 C762 1.320 . S
C764 C765 1.405 . S
C764 H790 0.930 . S
C765 C760 1.479 . S
C765 C764 1.405 . S
C765 H791 0.931 . S
U766 O767 2.454 . S
U766 O768 2.458 . S
U766 C769 2.984 . S
U766 C770 2.847 . S
U766 C783 2.882 . S
U766 O784 2.441 . S
U766 O785 2.420 . S
U766 O786 2.455 . S
U766 O787 2.449 . S
O767 U766 2.454 . S
O767 C769 1.353 . S
O768 U766 2.458 . S
O768 C769 1.286 . S
C769 U766 2.984 . S
C769 O767 1.353 . S
C769 O768 1.286 . S
C769 C771 1.363 . S
C770 C760 1.465 . S
C770 U766 2.847 . S
C770 O784 1.249 . S
C770 O785 1.202 . S
C771 C769 1.363 . S
C771 C773 1.408 . S
C771 C776 1.342 . S
C772 C773 1.310 . S
C772 C775 1.461 . S
C772 H792 0.932 . S
C773 C771 1.408 . S
C773 C772 1.310 . S
C773 H793 0.930 . S
C774 C775 1.474 . S
C774 C776 1.285 . S
C774 H794 0.929 . S
C775 C772 1.461 . S
C775 C774 1.474 . S
C776 C771 1.342 . S
C776 C774 1.285 . S
C776 H795 0.930 . S
C777 C780 1.424 . S
C777 C782 1.245 . S
C777 C783 1.428 . S
C778 C781 1.260 . S
C778 C782 1.477 . S
C778 H796 0.932 . S
C779 C780 1.384 . S
C779 C781 1.479 . S
C779 H797 0.929 . S
C780 C777 1.424 . S
C780 C779 1.384 . S
C780 H798 0.928 . S
C781 C778 1.260 . S
C781 C779 1.479 . S
C782 C777 1.245 . S
C782 C778 1.477 . S
C782 H799 0.932 . S
C783 U766 2.882 . S
C783 C777 1.428 . S
C783 O786 1.301 . S
C783 O787 1.282 . S
O784 U766 2.441 . S
O784 C770 1.249 . S
O785 U766 2.420 . S
O785 C770 1.202 . S
O786 U766 2.455 . S
O786 C783 1.301 . S
O787 U766 2.449 . S
O787 C783 1.282 . S
H788 C761 0.931 . S
H789 C763 0.929 . S
H790 C764 0.930 . S
H791 C765 0.931 . S
H792 C772 0.932 . S
H793 C773 0.930 . S
H794 C774 0.929 . S
H795 C776 0.930 . S
H796 C778 0.932 . S
H797 C779 0.929 . S
H798 C780 0.928 . S
H799 C782 0.932 . S
C800 C801 1.264 . S
C800 C805 1.479 . S
C800 C810 1.465 . S
C801 C800 1.264 . S
C801 C803 1.339 . S
C801 H828 0.931 . S
C802 C803 1.395 . S
C802 C804 1.320 . S
C803 C801 1.339 . S
C803 C802 1.395 . S
C803 H829 0.929 . S
C804 C802 1.320 . S
C804 C805 1.405 . S
C804 H830 0.930 . S
C805 C800 1.479 . S
C805 C804 1.405 . S
C805 H831 0.931 . S
U806 O807 2.454 . S
U806 O808 2.458 . S
U806 C809 2.984 . S
U806 C810 2.847 . S
U806 C823 2.882 . S
U806 O824 2.441 . S
U806 O825 2.420 . S
U806 O826 2.455 . S
U806 O827 2.449 . S
O807 U806 2.454 . S
O807 C809 1.353 . S
O808 U806 2.458 . S
O808 C809 1.286 . S
C809 U806 2.984 . S
C809 O807 1.353 . S
C809 O808 1.286 . S
C809 C811 1.363 . S
C810 C800 1.465 . S
C810 U806 2.847 . S
C810 O824 1.249 . S
C810 O825 1.202 . S
C811 C809 1.363 . S
C811 C813 1.408 . S
C811 C816 1.342 . S
C812 C813 1.310 . S
C812 C815 1.461 . S
C812 H832 0.932 . S
C813 C811 1.408 . S
C813 C812 1.310 . S
C813 H833 0.930 . S
C814 C815 1.474 . S
C814 C816 1.285 . S
C814 H834 0.929 . S
C815 C812 1.461 . S
C815 C814 1.474 . S
C816 C811 1.342 . S
C816 C814 1.285 . S
C816 H835 0.930 . S
C817 C820 1.424 . S
C817 C822 1.245 . S
C817 C823 1.428 . S
C818 C821 1.260 . S
C818 C822 1.477 . S
C818 H836 0.932 . S
C819 C820 1.384 . S
C819 C821 1.479 . S
C819 H837 0.929 . S
C820 C817 1.424 . S
C820 C819 1.384 . S
C820 H838 0.928 . S
C821 C818 1.260 . S
C821 C819 1.479 . S
C822 C817 1.245 . S
C822 C818 1.477 . S
C822 H839 0.932 . S
C823 U806 2.882 . S
C823 C817 1.428 . S
C823 O826 1.301 . S
C823 O827 1.282 . S
O824 U806 2.441 . S
O824 C810 1.249 . S
O825 U806 2.420 . S
O825 C810 1.202 . S
O826 U806 2.455 . S
O826 C823 1.301 . S
O827 U806 2.449 . S
O827 C823 1.282 . S
H828 C801 0.931 . S
H829 C803 0.929 . S
H830 C804 0.930 . S
H831 C805 0.931 . S
H832 C812 0.932 . S
H833 C813 0.930 . S
H834 C814 0.929 . S
H835 C816 0.930 . S
H836 C818 0.932 . S
H837 C819 0.929 . S
H838 C820 0.928 . S
H839 C822 0.932 . S
C840 C841 1.264 . S
C840 C845 1.479 . S
C840 C850 1.465 . S
C841 C840 1.264 . S
C841 C843 1.339 . S
C841 H868 0.931 . S
C842 C843 1.395 . S
C842 C844 1.320 . S
C843 C841 1.339 . S
C843 C842 1.395 . S
C843 H869 0.929 . S
C844 C842 1.320 . S
C844 C845 1.405 . S
C844 H870 0.930 . S
C845 C840 1.479 . S
C845 C844 1.405 . S
C845 H871 0.931 . S
U846 O847 2.454 . S
U846 O848 2.458 . S
U846 C849 2.984 . S
U846 C850 2.847 . S
U846 C863 2.882 . S
U846 O864 2.441 . S
U846 O865 2.420 . S
U846 O866 2.455 . S
U846 O867 2.449 . S
O847 U846 2.454 . S
O847 C849 1.353 . S
O848 U846 2.458 . S
O848 C849 1.286 . S
C849 U846 2.984 . S
C849 O847 1.353 . S
C849 O848 1.286 . S
C849 C851 1.363 . S
C850 C840 1.465 . S
C850 U846 2.847 . S
C850 O864 1.249 . S
C850 O865 1.202 . S
C851 C849 1.363 . S
C851 C853 1.408 . S
C851 C856 1.342 . S
C852 C853 1.310 . S
C852 C855 1.461 . S
C852 H872 0.932 . S
C853 C851 1.408 . S
C853 C852 1.310 . S
C853 H873 0.930 . S
C854 C855 1.474 . S
C854 C856 1.285 . S
C854 H874 0.929 . S
C855 C852 1.461 . S
C855 C854 1.474 . S
C856 C851 1.342 . S
C856 C854 1.285 . S
C856 H875 0.930 . S
C857 C860 1.424 . S
C857 C862 1.245 . S
C857 C863 1.428 . S
C858 C861 1.260 . S
C858 C862 1.477 . S
C858 H876 0.932 . S
C859 C860 1.384 . S
C859 C861 1.479 . S
C859 H877 0.929 . S
C860 C857 1.424 . S
C860 C859 1.384 . S
C860 H878 0.928 . S
C861 C858 1.260 . S
C861 C859 1.479 . S
C862 C857 1.245 . S
C862 C858 1.477 . S
C862 H879 0.932 . S
C863 U846 2.882 . S
C863 C857 1.428 . S
C863 O866 1.301 . S
C863 O867 1.282 . S
O864 U846 2.441 . S
O864 C850 1.249 . S
O865 U846 2.420 . S
O865 C850 1.202 . S
O866 U846 2.455 . S
O866 C863 1.301 . S
O867 U846 2.449 . S
O867 C863 1.282 . S
H868 C841 0.931 . S
H869 C843 0.929 . S
H870 C844 0.930 . S
H871 C845 0.931 . S
H872 C852 0.932 . S
H873 C853 0.930 . S
H874 C854 0.929 . S
H875 C856 0.930 . S
H876 C858 0.932 . S
H877 C859 0.929 . S
H878 C860 0.928 . S
H879 C862 0.932 . S
C880 C881 1.264 . S
C880 C885 1.479 . S
C880 C890 1.465 . S
C881 C880 1.264 . S
C881 C883 1.339 . S
C881 H908 0.931 . S
C882 C883 1.395 . S
C882 C884 1.320 . S
C883 C881 1.339 . S
C883 C882 1.395 . S
C883 H909 0.929 . S
C884 C882 1.320 . S
C884 C885 1.405 . S
C884 H910 0.930 . S
C885 C880 1.479 . S
C885 C884 1.405 . S
C885 H911 0.931 . S
U886 O887 2.454 . S
U886 O888 2.458 . S
U886 C889 2.984 . S
U886 C890 2.847 . S
U886 C903 2.882 . S
U886 O904 2.441 . S
U886 O905 2.420 . S
U886 O906 2.455 . S
U886 O907 2.449 . S
O887 U886 2.454 . S
O887 C889 1.353 . S
O888 U886 2.458 . S
O888 C889 1.286 . S
C889 U886 2.984 . S
C889 O887 1.353 . S
C889 O888 1.286 . S
C889 C891 1.363 . S
C890 C880 1.465 . S
C890 U886 2.847 . S
C890 O904 1.249 . S
C890 O905 1.202 . S
C891 C889 1.363 . S
C891 C893 1.408 . S
C891 C896 1.342 . S
C892 C893 1.310 . S
C892 C895 1.461 . S
C892 H912 0.932 . S
C893 C891 1.408 . S
C893 C892 1.310 . S
C893 H913 0.930 . S
C894 C895 1.474 . S
C894 C896 1.285 . S
C894 H914 0.929 . S
C895 C892 1.461 . S
C895 C894 1.474 . S
C896 C891 1.342 . S
C896 C894 1.285 . S
C896 H915 0.930 . S
C897 C900 1.424 . S
C897 C902 1.245 . S
C897 C903 1.428 . S
C898 C901 1.260 . S
C898 C902 1.477 . S
C898 H916 0.932 . S
C899 C900 1.384 . S
C899 C901 1.479 . S
C899 H917 0.929 . S
C900 C897 1.424 . S
C900 C899 1.384 . S
C900 H918 0.928 . S
C901 C898 1.260 . S
C901 C899 1.479 . S
C902 C897 1.245 . S
C902 C898 1.477 . S
C902 H919 0.932 . S
C903 U886 2.882 . S
C903 C897 1.428 . S
C903 O906 1.301 . S
C903 O907 1.282 . S
O904 U886 2.441 . S
O904 C890 1.249 . S
O905 U886 2.420 . S
O905 C890 1.202 . S
O906 U886 2.455 . S
O906 C903 1.301 . S
O907 U886 2.449 . S
O907 C903 1.282 . S
H908 C881 0.931 . S
H909 C883 0.929 . S
H910 C884 0.930 . S
H911 C885 0.931 . S
H912 C892 0.932 . S
H913 C893 0.930 . S
H914 C894 0.929 . S
H915 C896 0.930 . S
H916 C898 0.932 . S
H917 C899 0.929 . S
H918 C900 0.928 . S
H919 C902 0.932 . S
C920 C921 1.264 . S
C920 C925 1.479 . S
C920 C930 1.465 . S
C921 C920 1.264 . S
C921 C923 1.339 . S
C921 H948 0.931 . S
C922 C923 1.395 . S
C922 C924 1.320 . S
C923 C921 1.339 . S
C923 C922 1.395 . S
C923 H949 0.929 . S
C924 C922 1.320 . S
C924 C925 1.405 . S
C924 H950 0.930 . S
C925 C920 1.479 . S
C925 C924 1.405 . S
C925 H951 0.931 . S
U926 O927 2.454 . S
U926 O928 2.458 . S
U926 C929 2.984 . S
U926 C930 2.847 . S
U926 C943 2.882 . S
U926 O944 2.441 . S
U926 O945 2.420 . S
U926 O946 2.455 . S
U926 O947 2.449 . S
O927 U926 2.454 . S
O927 C929 1.353 . S
O928 U926 2.458 . S
O928 C929 1.286 . S
C929 U926 2.984 . S
C929 O927 1.353 . S
C929 O928 1.286 . S
C929 C931 1.363 . S
C930 C920 1.465 . S
C930 U926 2.847 . S
C930 O944 1.249 . S
C930 O945 1.202 . S
C931 C929 1.363 . S
C931 C933 1.408 . S
C931 C936 1.342 . S
C932 C933 1.310 . S
C932 C935 1.461 . S
C932 H952 0.932 . S
C933 C931 1.408 . S
C933 C932 1.310 . S
C933 H953 0.930 . S
C934 C935 1.474 . S
C934 C936 1.285 . S
C934 H954 0.929 . S
C935 C932 1.461 . S
C935 C934 1.474 . S
C936 C931 1.342 . S
C936 C934 1.285 . S
C936 H955 0.930 . S
C937 C940 1.424 . S
C937 C942 1.245 . S
C937 C943 1.428 . S
C938 C941 1.260 . S
C938 C942 1.477 . S
C938 H956 0.932 . S
C939 C940 1.384 . S
C939 C941 1.479 . S
C939 H957 0.929 . S
C940 C937 1.424 . S
C940 C939 1.384 . S
C940 H958 0.928 . S
C941 C938 1.260 . S
C941 C939 1.479 . S
C942 C937 1.245 . S
C942 C938 1.477 . S
C942 H959 0.932 . S
C943 U926 2.882 . S
C943 C937 1.428 . S
C943 O946 1.301 . S
C943 O947 1.282 . S
O944 U926 2.441 . S
O944 C930 1.249 . S
O945 U926 2.420 . S
O945 C930 1.202 . S
O946 U926 2.455 . S
O946 C943 1.301 . S
O947 U926 2.449 . S
O947 C943 1.282 . S
H948 C921 0.931 . S
H949 C923 0.929 . S
H950 C924 0.930 . S
H951 C925 0.931 . S
H952 C932 0.932 . S
H953 C933 0.930 . S
H954 C934 0.929 . S
H955 C936 0.930 . S
H956 C938 0.932 . S
H957 C939 0.929 . S
H958 C940 0.928 . S
H959 C942 0.932 . S
C960 C961 1.264 . S
C960 C965 1.479 . S
C960 C970 1.465 . S
C961 C960 1.264 . S
C961 C963 1.339 . S
C961 H988 0.931 . S
C962 C963 1.395 . S
C962 C964 1.320 . S
C963 C961 1.339 . S
C963 C962 1.395 . S
C963 H989 0.929 . S
C964 C962 1.320 . S
C964 C965 1.405 . S
C964 H990 0.930 . S
C965 C960 1.479 . S
C965 C964 1.405 . S
C965 H991 0.931 . S
U966 O967 2.454 . S
U966 O968 2.458 . S
U966 C969 2.984 . S
U966 C970 2.847 . S
U966 C983 2.882 . S
U966 O984 2.441 . S
U966 O985 2.420 . S
U966 O986 2.455 . S
U966 O987 2.449 . S
O967 U966 2.454 . S
O967 C969 1.353 . S
O968 U966 2.458 . S
O968 C969 1.286 . S
C969 U966 2.984 . S
C969 O967 1.353 . S
C969 O968 1.286 . S
C969 C971 1.363 . S
C970 C960 1.465 . S
C970 U966 2.847 . S
C970 O984 1.249 . S
C970 O985 1.202 . S
C971 C969 1.363 . S
C971 C973 1.408 . S
C971 C976 1.342 . S
C972 C973 1.310 . S
C972 C975 1.461 . S
C972 H992 0.932 . S
C973 C971 1.408 . S
C973 C972 1.310 . S
C973 H993 0.930 . S
C974 C975 1.474 . S
C974 C976 1.285 . S
C974 H994 0.929 . S
C975 C972 1.461 . S
C975 C974 1.474 . S
C976 C971 1.342 . S
C976 C974 1.285 . S
C976 H995 0.930 . S
C977 C980 1.424 . S
C977 C982 1.245 . S
C977 C983 1.428 . S
C978 C981 1.260 . S
C978 C982 1.477 . S
C978 H996 0.932 . S
C979 C980 1.384 . S
C979 C981 1.479 . S
C979 H997 0.929 . S
C980 C977 1.424 . S
C980 C979 1.384 . S
C980 H998 0.928 . S
C981 C978 1.260 . S
C981 C979 1.479 . S
C982 C977 1.245 . S
C982 C978 1.477 . S
C982 H999 0.932 . S
C983 U966 2.882 . S
C983 C977 1.428 . S
C983 O986 1.301 . S
C983 O987 1.282 . S
O984 U966 2.441 . S
O984 C970 1.249 . S
O985 U966 2.420 . S
O985 C970 1.202 . S
O986 U966 2.455 . S
O986 C983 1.301 . S
O987 U966 2.449 . S
O987 C983 1.282 . S
H988 C961 0.931 . S
H989 C963 0.929 . S
H990 C964 0.930 . S
H991 C965 0.931 . S
H992 C972 0.932 . S
H993 C973 0.930 . S
H994 C974 0.929 . S
H995 C976 0.930 . S
H996 C978 0.932 . S
H997 C979 0.929 . S
H998 C980 0.928 . S
H999 C982 0.932 . S
C1000 C1001 1.264 . S
C1000 C1005 1.479 . S
C1000 C1010 1.465 . S
C1001 C1000 1.264 . S
C1001 C1003 1.339 . S
C1001 H1028 0.931 . S
C1002 C1003 1.395 . S
C1002 C1004 1.320 . S
C1003 C1001 1.339 . S
C1003 C1002 1.395 . S
C1003 H1029 0.929 . S
C1004 C1002 1.320 . S
C1004 C1005 1.405 . S
C1004 H1030 0.930 . S
C1005 C1000 1.479 . S
C1005 C1004 1.405 . S
C1005 H1031 0.931 . S
U1006 O1007 2.454 . S
U1006 O1008 2.458 . S
U1006 C1009 2.984 . S
U1006 C1010 2.847 . S
U1006 C1023 2.882 . S
U1006 O1024 2.441 . S
U1006 O1025 2.420 . S
U1006 O1026 2.455 . S
U1006 O1027 2.449 . S
O1007 U1006 2.454 . S
O1007 C1009 1.353 . S
O1008 U1006 2.458 . S
O1008 C1009 1.286 . S
C1009 U1006 2.984 . S
C1009 O1007 1.353 . S
C1009 O1008 1.286 . S
C1009 C1011 1.363 . S
C1010 C1000 1.465 . S
C1010 U1006 2.847 . S
C1010 O1024 1.249 . S
C1010 O1025 1.202 . S
C1011 C1009 1.363 . S
C1011 C1013 1.408 . S
C1011 C1016 1.342 . S
C1012 C1013 1.310 . S
C1012 C1015 1.461 . S
C1012 H1032 0.932 . S
C1013 C1011 1.408 . S
C1013 C1012 1.310 . S
C1013 H1033 0.930 . S
C1014 C1015 1.474 . S
C1014 C1016 1.285 . S
C1014 H1034 0.929 . S
C1015 C1012 1.461 . S
C1015 C1014 1.474 . S
C1016 C1011 1.342 . S
C1016 C1014 1.285 . S
C1016 H1035 0.930 . S
C1017 C1020 1.424 . S
C1017 C1022 1.245 . S
C1017 C1023 1.428 . S
C1018 C1021 1.260 . S
C1018 C1022 1.477 . S
C1018 H1036 0.932 . S
C1019 C1020 1.384 . S
C1019 C1021 1.479 . S
C1019 H1037 0.929 . S
C1020 C1017 1.424 . S
C1020 C1019 1.384 . S
C1020 H1038 0.928 . S
C1021 C1018 1.260 . S
C1021 C1019 1.479 . S
C1022 C1017 1.245 . S
C1022 C1018 1.477 . S
C1022 H1039 0.932 . S
C1023 U1006 2.882 . S
C1023 C1017 1.428 . S
C1023 O1026 1.301 . S
C1023 O1027 1.282 . S
O1024 U1006 2.441 . S
O1024 C1010 1.249 . S
O1025 U1006 2.420 . S
O1025 C1010 1.202 . S
O1026 U1006 2.455 . S
O1026 C1023 1.301 . S
O1027 U1006 2.449 . S
O1027 C1023 1.282 . S
H1028 C1001 0.931 . S
H1029 C1003 0.929 . S
H1030 C1004 0.930 . S
H1031 C1005 0.931 . S
H1032 C1012 0.932 . S
H1033 C1013 0.930 . S
H1034 C1014 0.929 . S
H1035 C1016 0.930 . S
H1036 C1018 0.932 . S
H1037 C1019 0.929 . S
H1038 C1020 0.928 . S
H1039 C1022 0.932 . S
C1040 C1041 1.264 . S
C1040 C1045 1.479 . S
C1040 C1050 1.465 . S
C1041 C1040 1.264 . S
C1041 C1043 1.339 . S
C1041 H1068 0.931 . S
C1042 C1043 1.395 . S
C1042 C1044 1.320 . S
C1043 C1041 1.339 . S
C1043 C1042 1.395 . S
C1043 H1069 0.929 . S
C1044 C1042 1.320 . S
C1044 C1045 1.405 . S
C1044 H1070 0.930 . S
C1045 C1040 1.479 . S
C1045 C1044 1.405 . S
C1045 H1071 0.931 . S
U1046 O1047 2.454 . S
U1046 O1048 2.458 . S
U1046 C1049 2.984 . S
U1046 C1050 2.847 . S
U1046 C1063 2.882 . S
U1046 O1064 2.441 . S
U1046 O1065 2.420 . S
U1046 O1066 2.455 . S
U1046 O1067 2.449 . S
O1047 U1046 2.454 . S
O1047 C1049 1.353 . S
O1048 U1046 2.458 . S
O1048 C1049 1.286 . S
C1049 U1046 2.984 . S
C1049 O1047 1.353 . S
C1049 O1048 1.286 . S
C1049 C1051 1.363 . S
C1050 C1040 1.465 . S
C1050 U1046 2.847 . S
C1050 O1064 1.249 . S
C1050 O1065 1.202 . S
C1051 C1049 1.363 . S
C1051 C1053 1.408 . S
C1051 C1056 1.342 . S
C1052 C1053 1.310 . S
C1052 C1055 1.461 . S
C1052 H1072 0.932 . S
C1053 C1051 1.408 . S
C1053 C1052 1.310 . S
C1053 H1073 0.930 . S
C1054 C1055 1.474 . S
C1054 C1056 1.285 . S
C1054 H1074 0.929 . S
C1055 C1052 1.461 . S
C1055 C1054 1.474 . S
C1056 C1051 1.342 . S
C1056 C1054 1.285 . S
C1056 H1075 0.930 . S
C1057 C1060 1.424 . S
C1057 C1062 1.245 . S
C1057 C1063 1.428 . S
C1058 C1061 1.260 . S
C1058 C1062 1.477 . S
C1058 H1076 0.932 . S
C1059 C1060 1.384 . S
C1059 C1061 1.479 . S
C1059 H1077 0.929 . S
C1060 C1057 1.424 . S
C1060 C1059 1.384 . S
C1060 H1078 0.928 . S
C1061 C1058 1.260 . S
C1061 C1059 1.479 . S
C1062 C1057 1.245 . S
C1062 C1058 1.477 . S
C1062 H1079 0.932 . S
C1063 U1046 2.882 . S
C1063 C1057 1.428 . S
C1063 O1066 1.301 . S
C1063 O1067 1.282 . S
O1064 U1046 2.441 . S
O1064 C1050 1.249 . S
O1065 U1046 2.420 . S
O1065 C1050 1.202 . S
O1066 U1046 2.455 . S
O1066 C1063 1.301 . S
O1067 U1046 2.449 . S
O1067 C1063 1.282 . S
H1068 C1041 0.931 . S
H1069 C1043 0.929 . S
H1070 C1044 0.930 . S
H1071 C1045 0.931 . S
H1072 C1052 0.932 . S
H1073 C1053 0.930 . S
H1074 C1054 0.929 . S
H1075 C1056 0.930 . S
H1076 C1058 0.932 . S
H1077 C1059 0.929 . S
H1078 C1060 0.928 . S
H1079 C1062 0.932 . S
C1080 C1081 1.264 . S
C1080 C1085 1.479 . S
C1080 C1090 1.465 . S
C1081 C1080 1.264 . S
C1081 C1083 1.339 . S
C1081 H1108 0.931 . S
C1082 C1083 1.395 . S
C1082 C1084 1.320 . S
C1083 C1081 1.339 . S
C1083 C1082 1.395 . S
C1083 H1109 0.929 . S
C1084 C1082 1.320 . S
C1084 C1085 1.405 . S
C1084 H1110 0.930 . S
C1085 C1080 1.479 . S
C1085 C1084 1.405 . S
C1085 H1111 0.931 . S
U1086 O1087 2.454 . S
U1086 O1088 2.458 . S
U1086 C1089 2.984 . S
U1086 C1090 2.847 . S
U1086 C1103 2.882 . S
U1086 O1104 2.441 . S
U1086 O1105 2.420 . S
U1086 O1106 2.455 . S
U1086 O1107 2.449 . S
O1087 U1086 2.454 . S
O1087 C1089 1.353 . S
O1088 U1086 2.458 . S
O1088 C1089 1.286 . S
C1089 U1086 2.984 . S
C1089 O1087 1.353 . S
C1089 O1088 1.286 . S
C1089 C1091 1.363 . S
C1090 C1080 1.465 . S
C1090 U1086 2.847 . S
C1090 O1104 1.249 . S
C1090 O1105 1.202 . S
C1091 C1089 1.363 . S
C1091 C1093 1.408 . S
C1091 C1096 1.342 . S
C1092 C1093 1.310 . S
C1092 C1095 1.461 . S
C1092 H1112 0.932 . S
C1093 C1091 1.408 . S
C1093 C1092 1.310 . S
C1093 H1113 0.930 . S
C1094 C1095 1.474 . S
C1094 C1096 1.285 . S
C1094 H1114 0.929 . S
C1095 C1092 1.461 . S
C1095 C1094 1.474 . S
C1096 C1091 1.342 . S
C1096 C1094 1.285 . S
C1096 H1115 0.930 . S
C1097 C1100 1.424 . S
C1097 C1102 1.245 . S
C1097 C1103 1.428 . S
C1098 C1101 1.260 . S
C1098 C1102 1.477 . S
C1098 H1116 0.932 . S
C1099 C1100 1.384 . S
C1099 C1101 1.479 . S
C1099 H1117 0.929 . S
C1100 C1097 1.424 . S
C1100 C1099 1.384 . S
C1100 H1118 0.928 . S
C1101 C1098 1.260 . S
C1101 C1099 1.479 . S
C1102 C1097 1.245 . S
C1102 C1098 1.477 . S
C1102 H1119 0.932 . S
C1103 U1086 2.882 . S
C1103 C1097 1.428 . S
C1103 O1106 1.301 . S
C1103 O1107 1.282 . S
O1104 U1086 2.441 . S
O1104 C1090 1.249 . S
O1105 U1086 2.420 . S
O1105 C1090 1.202 . S
O1106 U1086 2.455 . S
O1106 C1103 1.301 . S
O1107 U1086 2.449 . S
O1107 C1103 1.282 . S
H1108 C1081 0.931 . S
H1109 C1083 0.929 . S
H1110 C1084 0.930 . S
H1111 C1085 0.931 . S
H1112 C1092 0.932 . S
H1113 C1093 0.930 . S
H1114 C1094 0.929 . S
H1115 C1096 0.930 . S
H1116 C1098 0.932 . S
H1117 C1099 0.929 . S
H1118 C1100 0.928 . S
H1119 C1102 0.932 . S
C1120 C1121 1.264 . S
C1120 C1125 1.479 . S
C1120 C1130 1.465 . S
C1121 C1120 1.264 . S
C1121 C1123 1.339 . S
C1121 H1148 0.931 . S
C1122 C1123 1.395 . S
C1122 C1124 1.320 . S
C1123 C1121 1.339 . S
C1123 C1122 1.395 . S
C1123 H1149 0.929 . S
C1124 C1122 1.320 . S
C1124 C1125 1.405 . S
C1124 H1150 0.930 . S
C1125 C1120 1.479 . S
C1125 C1124 1.405 . S
C1125 H1151 0.931 . S
U1126 O1127 2.454 . S
U1126 O1128 2.458 . S
U1126 C1129 2.984 . S
U1126 C1130 2.847 . S
U1126 C1143 2.882 . S
U1126 O1144 2.441 . S
U1126 O1145 2.420 . S
U1126 O1146 2.455 . S
U1126 O1147 2.449 . S
O1127 U1126 2.454 . S
O1127 C1129 1.353 . S
O1128 U1126 2.458 . S
O1128 C1129 1.286 . S
C1129 U1126 2.984 . S
C1129 O1127 1.353 . S
C1129 O1128 1.286 . S
C1129 C1131 1.363 . S
C1130 C1120 1.465 . S
C1130 U1126 2.847 . S
C1130 O1144 1.249 . S
C1130 O1145 1.202 . S
C1131 C1129 1.363 . S
C1131 C1133 1.408 . S
C1131 C1136 1.342 . S
C1132 C1133 1.310 . S
C1132 C1135 1.461 . S
C1132 H1152 0.932 . S
C1133 C1131 1.408 . S
C1133 C1132 1.310 . S
C1133 H1153 0.930 . S
C1134 C1135 1.474 . S
C1134 C1136 1.285 . S
C1134 H1154 0.929 . S
C1135 C1132 1.461 . S
C1135 C1134 1.474 . S
C1136 C1131 1.342 . S
C1136 C1134 1.285 . S
C1136 H1155 0.930 . S
C1137 C1140 1.424 . S
C1137 C1142 1.245 . S
C1137 C1143 1.428 . S
C1138 C1141 1.260 . S
C1138 C1142 1.477 . S
C1138 H1156 0.932 . S
C1139 C1140 1.384 . S
C1139 C1141 1.479 . S
C1139 H1157 0.929 . S
C1140 C1137 1.424 . S
C1140 C1139 1.384 . S
C1140 H1158 0.928 . S
C1141 C1138 1.260 . S
C1141 C1139 1.479 . S
C1142 C1137 1.245 . S
C1142 C1138 1.477 . S
C1142 H1159 0.932 . S
C1143 U1126 2.882 . S
C1143 C1137 1.428 . S
C1143 O1146 1.301 . S
C1143 O1147 1.282 . S
O1144 U1126 2.441 . S
O1144 C1130 1.249 . S
O1145 U1126 2.420 . S
O1145 C1130 1.202 . S
O1146 U1126 2.455 . S
O1146 C1143 1.301 . S
O1147 U1126 2.449 . S
O1147 C1143 1.282 . S
H1148 C1121 0.931 . S
H1149 C1123 0.929 . S
H1150 C1124 0.930 . S
H1151 C1125 0.931 . S
H1152 C1132 0.932 . S
H1153 C1133 0.930 . S
H1154 C1134 0.929 . S
H1155 C1136 0.930 . S
H1156 C1138 0.932 . S
H1157 C1139 0.929 . S
H1158 C1140 0.928 . S
H1159 C1142 0.932 . S
C1160 C1161 1.264 . S
C1160 C1165 1.479 . S
C1160 C1170 1.465 . S
C1161 C1160 1.264 . S
C1161 C1163 1.339 . S
C1161 H1188 0.931 . S
C1162 C1163 1.395 . S
C1162 C1164 1.320 . S
C1163 C1161 1.339 . S
C1163 C1162 1.395 . S
C1163 H1189 0.929 . S
C1164 C1162 1.320 . S
C1164 C1165 1.405 . S
C1164 H1190 0.930 . S
C1165 C1160 1.479 . S
C1165 C1164 1.405 . S
C1165 H1191 0.931 . S
U1166 O1167 2.454 . S
U1166 O1168 2.458 . S
U1166 C1169 2.984 . S
U1166 C1170 2.847 . S
U1166 C1183 2.882 . S
U1166 O1184 2.441 . S
U1166 O1185 2.420 . S
U1166 O1186 2.455 . S
U1166 O1187 2.449 . S
O1167 U1166 2.454 . S
O1167 C1169 1.353 . S
O1168 U1166 2.458 . S
O1168 C1169 1.286 . S
C1169 U1166 2.984 . S
C1169 O1167 1.353 . S
C1169 O1168 1.286 . S
C1169 C1171 1.363 . S
C1170 C1160 1.465 . S
C1170 U1166 2.847 . S
C1170 O1184 1.249 . S
C1170 O1185 1.202 . S
C1171 C1169 1.363 . S
C1171 C1173 1.408 . S
C1171 C1176 1.342 . S
C1172 C1173 1.310 . S
C1172 C1175 1.461 . S
C1172 H1192 0.932 . S
C1173 C1171 1.408 . S
C1173 C1172 1.310 . S
C1173 H1193 0.930 . S
C1174 C1175 1.474 . S
C1174 C1176 1.285 . S
C1174 H1194 0.929 . S
C1175 C1172 1.461 . S
C1175 C1174 1.474 . S
C1176 C1171 1.342 . S
C1176 C1174 1.285 . S
C1176 H1195 0.930 . S
C1177 C1180 1.424 . S
C1177 C1182 1.245 . S
C1177 C1183 1.428 . S
C1178 C1181 1.260 . S
C1178 C1182 1.477 . S
C1178 H1196 0.932 . S
C1179 C1180 1.384 . S
C1179 C1181 1.479 . S
C1179 H1197 0.929 . S
C1180 C1177 1.424 . S
C1180 C1179 1.384 . S
C1180 H1198 0.928 . S
C1181 C1178 1.260 . S
C1181 C1179 1.479 . S
C1182 C1177 1.245 . S
C1182 C1178 1.477 . S
C1182 H1199 0.932 . S
C1183 U1166 2.882 . S
C1183 C1177 1.428 . S
C1183 O1186 1.301 . S
C1183 O1187 1.282 . S
O1184 U1166 2.441 . S
O1184 C1170 1.249 . S
O1185 U1166 2.420 . S
O1185 C1170 1.202 . S
O1186 U1166 2.455 . S
O1186 C1183 1.301 . S
O1187 U1166 2.449 . S
O1187 C1183 1.282 . S
H1188 C1161 0.931 . S
H1189 C1163 0.929 . S
H1190 C1164 0.930 . S
H1191 C1165 0.931 . S
H1192 C1172 0.932 . S
H1193 C1173 0.930 . S
H1194 C1174 0.929 . S
H1195 C1176 0.930 . S
H1196 C1178 0.932 . S
H1197 C1179 0.929 . S
H1198 C1180 0.928 . S
H1199 C1182 0.932 . S
C1200 C1201 1.264 . S
C1200 C1205 1.479 . S
C1200 C1210 1.465 . S
C1201 C1200 1.264 . S
C1201 C1203 1.339 . S
C1201 H1228 0.931 . S
C1202 C1203 1.395 . S
C1202 C1204 1.320 . S
C1203 C1201 1.339 . S
C1203 C1202 1.395 . S
C1203 H1229 0.929 . S
C1204 C1202 1.320 . S
C1204 C1205 1.405 . S
C1204 H1230 0.930 . S
C1205 C1200 1.479 . S
C1205 C1204 1.405 . S
C1205 H1231 0.931 . S
U1206 O1207 2.454 . S
U1206 O1208 2.458 . S
U1206 C1209 2.984 . S
U1206 C1210 2.847 . S
U1206 C1223 2.882 . S
U1206 O1224 2.441 . S
U1206 O1225 2.420 . S
U1206 O1226 2.455 . S
U1206 O1227 2.449 . S
O1207 U1206 2.454 . S
O1207 C1209 1.353 . S
O1208 U1206 2.458 . S
O1208 C1209 1.286 . S
C1209 U1206 2.984 . S
C1209 O1207 1.353 . S
C1209 O1208 1.286 . S
C1209 C1211 1.363 . S
C1210 C1200 1.465 . S
C1210 U1206 2.847 . S
C1210 O1224 1.249 . S
C1210 O1225 1.202 . S
C1211 C1209 1.363 . S
C1211 C1213 1.408 . S
C1211 C1216 1.342 . S
C1212 C1213 1.310 . S
C1212 C1215 1.461 . S
C1212 H1232 0.932 . S
C1213 C1211 1.408 . S
C1213 C1212 1.310 . S
C1213 H1233 0.930 . S
C1214 C1215 1.474 . S
C1214 C1216 1.285 . S
C1214 H1234 0.929 . S
C1215 C1212 1.461 . S
C1215 C1214 1.474 . S
C1216 C1211 1.342 . S
C1216 C1214 1.285 . S
C1216 H1235 0.930 . S
C1217 C1220 1.424 . S
C1217 C1222 1.245 . S
C1217 C1223 1.428 . S
C1218 C1221 1.260 . S
C1218 C1222 1.477 . S
C1218 H1236 0.932 . S
C1219 C1220 1.384 . S
C1219 C1221 1.479 . S
C1219 H1237 0.929 . S
C1220 C1217 1.424 . S
C1220 C1219 1.384 . S
C1220 H1238 0.928 . S
C1221 C1218 1.260 . S
C1221 C1219 1.479 . S
C1222 C1217 1.245 . S
C1222 C1218 1.477 . S
C1222 H1239 0.932 . S
C1223 U1206 2.882 . S
C1223 C1217 1.428 . S
C1223 O1226 1.301 . S
C1223 O1227 1.282 . S
O1224 U1206 2.441 . S
O1224 C1210 1.249 . S
O1225 U1206 2.420 . S
O1225 C1210 1.202 . S
O1226 U1206 2.455 . S
O1226 C1223 1.301 . S
O1227 U1206 2.449 . S
O1227 C1223 1.282 . S
H1228 C1201 0.931 . S
H1229 C1203 0.929 . S
H1230 C1204 0.930 . S
H1231 C1205 0.931 . S
H1232 C1212 0.932 . S
H1233 C1213 0.930 . S
H1234 C1214 0.929 . S
H1235 C1216 0.930 . S
H1236 C1218 0.932 . S
H1237 C1219 0.929 . S
H1238 C1220 0.928 . S
H1239 C1222 0.932 . S
C1240 C1241 1.264 . S
C1240 C1245 1.479 . S
C1240 C1250 1.465 . S
C1241 C1240 1.264 . S
C1241 C1243 1.339 . S
C1241 H1268 0.931 . S
C1242 C1243 1.395 . S
C1242 C1244 1.320 . S
C1243 C1241 1.339 . S
C1243 C1242 1.395 . S
C1243 H1269 0.929 . S
C1244 C1242 1.320 . S
C1244 C1245 1.405 . S
C1244 H1270 0.930 . S
C1245 C1240 1.479 . S
C1245 C1244 1.405 . S
C1245 H1271 0.931 . S
U1246 O1247 2.454 . S
U1246 O1248 2.458 . S
U1246 C1249 2.984 . S
U1246 C1250 2.847 . S
U1246 C1263 2.882 . S
U1246 O1264 2.441 . S
U1246 O1265 2.420 . S
U1246 O1266 2.455 . S
U1246 O1267 2.449 . S
O1247 U1246 2.454 . S
O1247 C1249 1.353 . S
O1248 U1246 2.458 . S
O1248 C1249 1.286 . S
C1249 U1246 2.984 . S
C1249 O1247 1.353 . S
C1249 O1248 1.286 . S
C1249 C1251 1.363 . S
C1250 C1240 1.465 . S
C1250 U1246 2.847 . S
C1250 O1264 1.249 . S
C1250 O1265 1.202 . S
C1251 C1249 1.363 . S
C1251 C1253 1.408 . S
C1251 C1256 1.342 . S
C1252 C1253 1.310 . S
C1252 C1255 1.461 . S
C1252 H1272 0.932 . S
C1253 C1251 1.408 . S
C1253 C1252 1.310 . S
C1253 H1273 0.930 . S
C1254 C1255 1.474 . S
C1254 C1256 1.285 . S
C1254 H1274 0.929 . S
C1255 C1252 1.461 . S
C1255 C1254 1.474 . S
C1256 C1251 1.342 . S
C1256 C1254 1.285 . S
C1256 H1275 0.930 . S
C1257 C1260 1.424 . S
C1257 C1262 1.245 . S
C1257 C1263 1.428 . S
C1258 C1261 1.260 . S
C1258 C1262 1.477 . S
C1258 H1276 0.932 . S
C1259 C1260 1.384 . S
C1259 C1261 1.479 . S
C1259 H1277 0.929 . S
C1260 C1257 1.424 . S
C1260 C1259 1.384 . S
C1260 H1278 0.928 . S
C1261 C1258 1.260 . S
C1261 C1259 1.479 . S
C1262 C1257 1.245 . S
C1262 C1258 1.477 . S
C1262 H1279 0.932 . S
C1263 U1246 2.882 . S
C1263 C1257 1.428 . S
C1263 O1266 1.301 . S
C1263 O1267 1.282 . S
O1264 U1246 2.441 . S
O1264 C1250 1.249 . S
O1265 U1246 2.420 . S
O1265 C1250 1.202 . S
O1266 U1246 2.455 . S
O1266 C1263 1.301 . S
O1267 U1246 2.449 . S
O1267 C1263 1.282 . S
H1268 C1241 0.931 . S
H1269 C1243 0.929 . S
H1270 C1244 0.930 . S
H1271 C1245 0.931 . S
H1272 C1252 0.932 . S
H1273 C1253 0.930 . S
H1274 C1254 0.929 . S
H1275 C1256 0.930 . S
H1276 C1258 0.932 . S
H1277 C1259 0.929 . S
H1278 C1260 0.928 . S
H1279 C1262 0.932 . S
H1280 C1286 0.930 . S
H1281 C1289 0.931 . S
H1282 C1291 0.931 . S
H1283 C1293 0.930 . S
H1284 C1295 0.930 . S
H1285 C1297 0.931 . S
C1286 H1280 0.930 . S
C1286 C1287 1.380 . S
C1286 C1288 1.394 . S
C1287 C1286 1.380 . S
C1287 C1291 1.382 . S
C1288 C1286 1.394 . S
C1288 C1289 1.400 . S
C1289 H1281 0.931 . S
C1289 C1288 1.400 . S
C1289 C1290 1.375 . S
C1290 C1289 1.375 . S
C1290 C1291 1.415 . S
C1290 C1292 1.501 1_556 S
C1291 H1282 0.931 . S
C1291 C1287 1.382 . S
C1291 C1290 1.415 . S
C1292 C1290 1.501 1_554 S
C1292 C1293 1.384 . S
C1292 C1297 1.408 . S
C1293 H1283 0.930 . S
C1293 C1292 1.384 . S
C1293 C1294 1.389 . S
C1294 C1293 1.389 . S
C1294 C1295 1.405 . S
C1295 H1284 0.930 . S
C1295 C1294 1.405 . S
C1295 C1296 1.364 . S
C1296 C1295 1.364 . S
C1296 C1297 1.400 . S
C1297 H1285 0.931 . S
C1297 C1292 1.408 . S
C1297 C1296 1.400 . S
H1298 C1304 0.930 . S
H1299 C1307 0.931 . S
H1300 C1309 0.931 . S
H1301 C1311 0.930 . S
H1302 C1313 0.930 . S
H1303 C1315 0.931 . S
C1304 H1298 0.930 . S
C1304 C1305 1.380 . S
C1304 C1306 1.394 . S
C1305 C1304 1.380 . S
C1305 C1309 1.382 . S
C1306 C1304 1.394 . S
C1306 C1307 1.400 . S
C1307 H1299 0.931 . S
C1307 C1306 1.400 . S
C1307 C1308 1.375 . S
C1308 C1307 1.375 . S
C1308 C1309 1.415 . S
C1308 C1310 1.507 1_554 S
C1309 H1300 0.931 . S
C1309 C1305 1.382 . S
C1309 C1308 1.415 . S
C1310 C1308 1.507 1_556 S
C1310 C1311 1.381 . S
C1310 C1315 1.404 . S
C1311 H1301 0.930 . S
C1311 C1310 1.381 . S
C1311 C1312 1.389 . S
C1312 C1311 1.389 . S
C1312 C1313 1.405 . S
C1313 H1302 0.930 . S
C1313 C1312 1.405 . S
C1313 C1314 1.364 . S
C1314 C1313 1.364 . S
C1314 C1315 1.400 . S
C1315 H1303 0.931 . S
C1315 C1310 1.404 . S
C1315 C1314 1.400 . S
H1316 C1322 0.930 . S
H1317 C1325 0.931 . S
H1318 C1327 0.931 . S
H1319 C1329 0.930 . S
H1320 C1331 0.930 . S
H1321 C1333 0.931 . S
C1322 H1316 0.930 . S
C1322 C1323 1.380 . S
C1322 C1324 1.394 . S
C1323 C1322 1.380 . S
C1323 C1327 1.382 . S
C1324 C1322 1.394 . S
C1324 C1325 1.400 . S
C1325 H1317 0.931 . S
C1325 C1324 1.400 . S
C1325 C1326 1.375 . S
C1326 C1325 1.375 . S
C1326 C1327 1.415 . S
C1326 C1328 1.501 1_556 S
C1327 H1318 0.931 . S
C1327 C1323 1.382 . S
C1327 C1326 1.415 . S
C1328 C1326 1.501 1_554 S
C1328 C1329 1.384 . S
C1328 C1333 1.408 . S
C1329 H1319 0.930 . S
C1329 C1328 1.384 . S
C1329 C1330 1.389 . S
C1330 C1329 1.389 . S
C1330 C1331 1.405 . S
C1331 H1320 0.930 . S
C1331 C1330 1.405 . S
C1331 C1332 1.364 . S
C1332 C1331 1.364 . S
C1332 C1333 1.400 . S
C1333 H1321 0.931 . S
C1333 C1328 1.408 . S
C1333 C1332 1.400 . S
H1334 C1340 0.930 . S
H1335 C1343 0.931 . S
H1336 C1345 0.931 . S
H1337 C1347 0.930 . S
H1338 C1349 0.930 . S
H1339 C1351 0.931 . S
C1340 H1334 0.930 . S
C1340 C1341 1.380 . S
C1340 C1342 1.394 . S
C1341 C1340 1.380 . S
C1341 C1345 1.382 . S
C1342 C1340 1.394 . S
C1342 C1343 1.400 . S
C1343 H1335 0.931 . S
C1343 C1342 1.400 . S
C1343 C1344 1.375 . S
C1344 C1343 1.375 . S
C1344 C1345 1.415 . S
C1344 C1346 1.502 1_554 S
C1345 H1336 0.931 . S
C1345 C1341 1.382 . S
C1345 C1344 1.415 . S
C1346 C1344 1.502 1_556 S
C1346 C1347 1.384 . S
C1346 C1351 1.407 . S
C1347 H1337 0.930 . S
C1347 C1346 1.384 . S
C1347 C1348 1.389 . S
C1348 C1347 1.389 . S
C1348 C1349 1.405 . S
C1349 H1338 0.930 . S
C1349 C1348 1.405 . S
C1349 C1350 1.364 . S
C1350 C1349 1.364 . S
C1350 C1351 1.400 . S
C1351 H1339 0.931 . S
C1351 C1346 1.407 . S
C1351 C1350 1.400 . S
H1352 C1358 0.930 . S
H1353 C1361 0.931 . S
H1354 C1363 0.931 . S
H1355 C1365 0.930 . S
H1356 C1367 0.930 . S
H1357 C1369 0.931 . S
C1358 H1352 0.930 . S
C1358 C1359 1.380 . S
C1358 C1360 1.394 . S
C1359 C1358 1.380 . S
C1359 C1363 1.382 . S
C1360 C1358 1.394 . S
C1360 C1361 1.400 . S
C1361 H1353 0.931 . S
C1361 C1360 1.400 . S
C1361 C1362 1.375 . S
C1362 C1361 1.375 . S
C1362 C1363 1.415 . S
C1362 C1364 1.501 1_455 S
C1363 H1354 0.931 . S
C1363 C1359 1.382 . S
C1363 C1362 1.415 . S
C1364 C1362 1.501 1_655 S
C1364 C1365 1.384 . S
C1364 C1369 1.408 . S
C1365 H1355 0.930 . S
C1365 C1364 1.384 . S
C1365 C1366 1.389 . S
C1366 C1365 1.389 . S
C1366 C1367 1.405 . S
C1367 H1356 0.930 . S
C1367 C1366 1.405 . S
C1367 C1368 1.364 . S
C1368 C1367 1.364 . S
C1368 C1369 1.400 . S
C1369 H1357 0.931 . S
C1369 C1364 1.408 . S
C1369 C1368 1.400 . S
H1370 C1376 0.930 . S
H1371 C1379 0.931 . S
H1372 C1381 0.931 . S
H1373 C1383 0.930 . S
H1374 C1385 0.930 . S
H1375 C1387 0.931 . S
C1376 H1370 0.930 . S
C1376 C1377 1.380 . S
C1376 C1378 1.394 . S
C1377 C1376 1.380 . S
C1377 C1381 1.382 . S
C1378 C1376 1.394 . S
C1378 C1379 1.400 . S
C1379 H1371 0.931 . S
C1379 C1378 1.400 . S
C1379 C1380 1.375 . S
C1380 C1379 1.375 . S
C1380 C1381 1.415 . S
C1380 C1382 1.501 1_565 S
C1381 H1372 0.931 . S
C1381 C1377 1.382 . S
C1381 C1380 1.415 . S
C1382 C1380 1.501 1_545 S
C1382 C1383 1.384 . S
C1382 C1387 1.408 . S
C1383 H1373 0.930 . S
C1383 C1382 1.384 . S
C1383 C1384 1.389 . S
C1384 C1383 1.389 . S
C1384 C1385 1.405 . S
C1385 H1374 0.930 . S
C1385 C1384 1.405 . S
C1385 C1386 1.364 . S
C1386 C1385 1.364 . S
C1386 C1387 1.400 . S
C1387 H1375 0.931 . S
C1387 C1382 1.408 . S
C1387 C1386 1.400 . S
H1388 C1394 0.930 . S
H1389 C1397 0.931 . S
H1390 C1399 0.931 . S
H1391 C1401 0.930 . S
H1392 C1403 0.930 . S
H1393 C1405 0.931 . S
C1394 H1388 0.930 . S
C1394 C1395 1.380 . S
C1394 C1396 1.394 . S
C1395 C1394 1.380 . S
C1395 C1399 1.382 . S
C1396 C1394 1.394 . S
C1396 C1397 1.400 . S
C1397 H1389 0.931 . S
C1397 C1396 1.400 . S
C1397 C1398 1.375 . S
C1398 C1397 1.375 . S
C1398 C1399 1.415 . S
C1398 C1400 1.501 1_455 S
C1399 H1390 0.931 . S
C1399 C1395 1.382 . S
C1399 C1398 1.415 . S
C1400 C1398 1.501 1_655 S
C1400 C1401 1.384 . S
C1400 C1405 1.408 . S
C1401 H1391 0.930 . S
C1401 C1400 1.384 . S
C1401 C1402 1.389 . S
C1402 C1401 1.389 . S
C1402 C1403 1.405 . S
C1403 H1392 0.930 . S
C1403 C1402 1.405 . S
C1403 C1404 1.364 . S
C1404 C1403 1.364 . S
C1404 C1405 1.400 . S
C1405 H1393 0.931 . S
C1405 C1400 1.408 . S
C1405 C1404 1.400 . S
H1406 C1412 0.930 . S
H1407 C1415 0.931 . S
H1408 C1417 0.931 . S
H1409 C1419 0.930 . S
H1410 C1421 0.930 . S
H1411 C1423 0.931 . S
C1412 H1406 0.930 . S
C1412 C1413 1.380 . S
C1412 C1414 1.394 . S
C1413 C1412 1.380 . S
C1413 C1417 1.382 . S
C1414 C1412 1.394 . S
C1414 C1415 1.400 . S
C1415 H1407 0.931 . S
C1415 C1414 1.400 . S
C1415 C1416 1.375 . S
C1416 C1415 1.375 . S
C1416 C1417 1.415 . S
C1416 C1418 1.501 1_545 S
C1417 H1408 0.931 . S
C1417 C1413 1.382 . S
C1417 C1416 1.415 . S
C1418 C1416 1.501 1_565 S
C1418 C1419 1.384 . S
C1418 C1423 1.408 . S
C1419 H1409 0.930 . S
C1419 C1418 1.384 . S
C1419 C1420 1.389 . S
C1420 C1419 1.389 . S
C1420 C1421 1.405 . S
C1421 H1410 0.930 . S
C1421 C1420 1.405 . S
C1421 C1422 1.364 . S
C1422 C1421 1.364 . S
C1422 C1423 1.400 . S
C1423 H1411 0.931 . S
C1423 C1418 1.408 . S
C1423 C1422 1.400 . S
H1424 C1430 0.930 . S
H1425 C1433 0.931 . S
H1426 C1435 0.931 . S
H1427 C1437 0.930 . S
H1428 C1439 0.930 . S
H1429 C1441 0.931 . S
C1430 H1424 0.930 . S
C1430 C1431 1.380 . S
C1430 C1432 1.394 . S
C1431 C1430 1.380 . S
C1431 C1435 1.382 . S
C1432 C1430 1.394 . S
C1432 C1433 1.400 . S
C1433 H1425 0.931 . S
C1433 C1432 1.400 . S
C1433 C1434 1.375 . S
C1434 C1433 1.375 . S
C1434 C1435 1.415 . S
C1434 C1436 1.501 1_455 S
C1435 H1426 0.931 . S
C1435 C1431 1.382 . S
C1435 C1434 1.415 . S
C1436 C1434 1.501 1_655 S
C1436 C1437 1.384 . S
C1436 C1441 1.408 . S
C1437 H1427 0.930 . S
C1437 C1436 1.384 . S
C1437 C1438 1.389 . S
C1438 C1437 1.389 . S
C1438 C1439 1.405 . S
C1439 H1428 0.930 . S
C1439 C1438 1.405 . S
C1439 C1440 1.364 . S
C1440 C1439 1.364 . S
C1440 C1441 1.400 . S
C1441 H1429 0.931 . S
C1441 C1436 1.408 . S
C1441 C1440 1.400 . S
H1442 C1448 0.930 . S
H1443 C1451 0.931 . S
H1444 C1453 0.931 . S
H1445 C1455 0.930 . S
H1446 C1457 0.930 . S
H1447 C1459 0.931 . S
C1448 H1442 0.930 . S
C1448 C1449 1.380 . S
C1448 C1450 1.394 . S
C1449 C1448 1.380 . S
C1449 C1453 1.382 . S
C1450 C1448 1.394 . S
C1450 C1451 1.400 . S
C1451 H1443 0.931 . S
C1451 C1450 1.400 . S
C1451 C1452 1.375 . S
C1452 C1451 1.375 . S
C1452 C1453 1.415 . S
C1452 C1454 1.501 1_565 S
C1453 H1444 0.931 . S
C1453 C1449 1.382 . S
C1453 C1452 1.415 . S
C1454 C1452 1.501 1_545 S
C1454 C1455 1.384 . S
C1454 C1459 1.408 . S
C1455 H1445 0.930 . S
C1455 C1454 1.384 . S
C1455 C1456 1.389 . S
C1456 C1455 1.389 . S
C1456 C1457 1.405 . S
C1457 H1446 0.930 . S
C1457 C1456 1.405 . S
C1457 C1458 1.364 . S
C1458 C1457 1.364 . S
C1458 C1459 1.400 . S
C1459 H1447 0.931 . S
C1459 C1454 1.408 . S
C1459 C1458 1.400 . S
H1460 C1466 0.930 . S
H1461 C1469 0.931 . S
H1462 C1471 0.931 . S
H1463 C1473 0.930 . S
H1464 C1475 0.930 . S
H1465 C1477 0.931 . S
C1466 H1460 0.930 . S
C1466 C1467 1.380 . S
C1466 C1468 1.394 . S
C1467 C1466 1.380 . S
C1467 C1471 1.382 . S
C1468 C1466 1.394 . S
C1468 C1469 1.400 . S
C1469 H1461 0.931 . S
C1469 C1468 1.400 . S
C1469 C1470 1.375 . S
C1470 C1469 1.375 . S
C1470 C1471 1.415 . S
C1470 C1472 1.501 1_455 S
C1471 H1462 0.931 . S
C1471 C1467 1.382 . S
C1471 C1470 1.415 . S
C1472 C1470 1.501 1_655 S
C1472 C1473 1.384 . S
C1472 C1477 1.408 . S
C1473 H1463 0.930 . S
C1473 C1472 1.384 . S
C1473 C1474 1.389 . S
C1474 C1473 1.389 . S
C1474 C1475 1.405 . S
C1475 H1464 0.930 . S
C1475 C1474 1.405 . S
C1475 C1476 1.364 . S
C1476 C1475 1.364 . S
C1476 C1477 1.400 . S
C1477 H1465 0.931 . S
C1477 C1472 1.408 . S
C1477 C1476 1.400 . S
H1478 C1484 0.930 . S
H1479 C1487 0.931 . S
H1480 C1489 0.931 . S
H1481 C1491 0.930 . S
H1482 C1493 0.930 . S
H1483 C1495 0.931 . S
C1484 H1478 0.930 . S
C1484 C1485 1.380 . S
C1484 C1486 1.394 . S
C1485 C1484 1.380 . S
C1485 C1489 1.382 . S
C1486 C1484 1.394 . S
C1486 C1487 1.400 . S
C1487 H1479 0.931 . S
C1487 C1486 1.400 . S
C1487 C1488 1.375 . S
C1488 C1487 1.375 . S
C1488 C1489 1.415 . S
C1488 C1490 1.501 1_545 S
C1489 H1480 0.931 . S
C1489 C1485 1.382 . S
C1489 C1488 1.415 . S
C1490 C1488 1.501 1_565 S
C1490 C1491 1.384 . S
C1490 C1495 1.408 . S
C1491 H1481 0.930 . S
C1491 C1490 1.384 . S
C1491 C1492 1.389 . S
C1492 C1491 1.389 . S
C1492 C1493 1.405 . S
C1493 H1482 0.930 . S
C1493 C1492 1.405 . S
C1493 C1494 1.364 . S
C1494 C1493 1.364 . S
C1494 C1495 1.400 . S
C1495 H1483 0.931 . S
C1495 C1490 1.408 . S
C1495 C1494 1.400 . S
H1496 C1502 0.930 . S
H1497 C1505 0.931 . S
H1498 C1507 0.931 . S
H1499 C1509 0.930 . S
H1500 C1511 0.930 . S
H1501 C1513 0.931 . S
C1502 H1496 0.930 . S
C1502 C1503 1.380 . S
C1502 C1504 1.394 . S
C1503 C1502 1.380 . S
C1503 C1507 1.382 . S
C1504 C1502 1.394 . S
C1504 C1505 1.400 . S
C1505 H1497 0.931 . S
C1505 C1504 1.400 . S
C1505 C1506 1.375 . S
C1506 C1505 1.375 . S
C1506 C1507 1.415 . S
C1506 C1508 1.501 . S
C1507 H1498 0.931 . S
C1507 C1503 1.382 . S
C1507 C1506 1.415 . S
C1508 C1506 1.501 . S
C1508 C1509 1.384 . S
C1508 C1513 1.408 . S
C1509 H1499 0.930 . S
C1509 C1508 1.384 . S
C1509 C1510 1.389 . S
C1510 C1509 1.389 . S
C1510 C1511 1.405 . S
C1511 H1500 0.930 . S
C1511 C1510 1.405 . S
C1511 C1512 1.364 . S
C1512 C1511 1.364 . S
C1512 C1513 1.400 . S
C1513 H1501 0.931 . S
C1513 C1508 1.408 . S
C1513 C1512 1.400 . S
H1514 C1520 0.930 . S
H1515 C1523 0.931 . S
H1516 C1525 0.931 . S
H1517 C1527 0.930 . S
H1518 C1529 0.930 . S
H1519 C1531 0.931 . S
C1520 H1514 0.930 . S
C1520 C1521 1.380 . S
C1520 C1522 1.394 . S
C1521 C1520 1.380 . S
C1521 C1525 1.382 . S
C1522 C1520 1.394 . S
C1522 C1523 1.400 . S
C1523 H1515 0.931 . S
C1523 C1522 1.400 . S
C1523 C1524 1.375 . S
C1524 C1523 1.375 . S
C1524 C1525 1.415 . S
C1524 C1526 1.501 . S
C1525 H1516 0.931 . S
C1525 C1521 1.382 . S
C1525 C1524 1.415 . S
C1526 C1524 1.501 . S
C1526 C1527 1.384 . S
C1526 C1531 1.408 . S
C1527 H1517 0.930 . S
C1527 C1526 1.384 . S
C1527 C1528 1.389 . S
C1528 C1527 1.389 . S
C1528 C1529 1.405 . S
C1529 H1518 0.930 . S
C1529 C1528 1.405 . S
C1529 C1530 1.364 . S
C1530 C1529 1.364 . S
C1530 C1531 1.400 . S
C1531 H1519 0.931 . S
C1531 C1526 1.408 . S
C1531 C1530 1.400 . S
H1532 C1538 0.930 . S
H1533 C1541 0.931 . S
H1534 C1543 0.931 . S
H1535 C1545 0.930 . S
H1536 C1547 0.930 . S
H1537 C1549 0.931 . S
C1538 H1532 0.930 . S
C1538 C1539 1.380 . S
C1538 C1540 1.394 . S
C1539 C1538 1.380 . S
C1539 C1543 1.382 . S
C1540 C1538 1.394 . S
C1540 C1541 1.400 . S
C1541 H1533 0.931 . S
C1541 C1540 1.400 . S
C1541 C1542 1.375 . S
C1542 C1541 1.375 . S
C1542 C1543 1.415 . S
C1542 C1544 1.501 . S
C1543 H1534 0.931 . S
C1543 C1539 1.382 . S
C1543 C1542 1.415 . S
C1544 C1542 1.501 . S
C1544 C1545 1.384 . S
C1544 C1549 1.408 . S
C1545 H1535 0.930 . S
C1545 C1544 1.384 . S
C1545 C1546 1.389 . S
C1546 C1545 1.389 . S
C1546 C1547 1.405 . S
C1547 H1536 0.930 . S
C1547 C1546 1.405 . S
C1547 C1548 1.364 . S
C1548 C1547 1.364 . S
C1548 C1549 1.400 . S
C1549 H1537 0.931 . S
C1549 C1544 1.408 . S
C1549 C1548 1.400 . S
H1550 C1556 0.930 . S
H1551 C1559 0.931 . S
H1552 C1561 0.931 . S
H1553 C1563 0.930 . S
H1554 C1565 0.930 . S
H1555 C1567 0.931 . S
C1556 H1550 0.930 . S
C1556 C1557 1.380 . S
C1556 C1558 1.394 . S
C1557 C1556 1.380 . S
C1557 C1561 1.382 . S
C1558 C1556 1.394 . S
C1558 C1559 1.400 . S
C1559 H1551 0.931 . S
C1559 C1558 1.400 . S
C1559 C1560 1.375 . S
C1560 C1559 1.375 . S
C1560 C1561 1.415 . S
C1560 C1562 1.501 . S
C1561 H1552 0.931 . S
C1561 C1557 1.382 . S
C1561 C1560 1.415 . S
C1562 C1560 1.501 . S
C1562 C1563 1.384 . S
C1562 C1567 1.408 . S
C1563 H1553 0.930 . S
C1563 C1562 1.384 . S
C1563 C1564 1.389 . S
C1564 C1563 1.389 . S
C1564 C1565 1.405 . S
C1565 H1554 0.930 . S
C1565 C1564 1.405 . S
C1565 C1566 1.364 . S
C1566 C1565 1.364 . S
C1566 C1567 1.400 . S
C1567 H1555 0.931 . S
C1567 C1562 1.408 . S
C1567 C1566 1.400 . S
H1568 C1574 0.930 . S
H1569 C1577 0.931 . S
H1570 C1579 0.931 . S
H1571 C1581 0.930 . S
H1572 C1583 0.930 . S
H1573 C1585 0.931 . S
C1574 H1568 0.930 . S
C1574 C1575 1.380 . S
C1574 C1576 1.394 . S
C1575 C1574 1.380 . S
C1575 C1579 1.382 . S
C1576 C1574 1.394 . S
C1576 C1577 1.400 . S
C1577 H1569 0.931 . S
C1577 C1576 1.400 . S
C1577 C1578 1.375 . S
C1578 C1577 1.375 . S
C1578 C1579 1.415 . S
C1578 C1580 1.501 . S
C1579 H1570 0.931 . S
C1579 C1575 1.382 . S
C1579 C1578 1.415 . S
C1580 C1578 1.501 . S
C1580 C1581 1.384 . S
C1580 C1585 1.408 . S
C1581 H1571 0.930 . S
C1581 C1580 1.384 . S
C1581 C1582 1.389 . S
C1582 C1581 1.389 . S
C1582 C1583 1.405 . S
C1583 H1572 0.930 . S
C1583 C1582 1.405 . S
C1583 C1584 1.364 . S
C1584 C1583 1.364 . S
C1584 C1585 1.400 . S
C1585 H1573 0.931 . S
C1585 C1580 1.408 . S
C1585 C1584 1.400 . S
H1586 C1592 0.930 . S
H1587 C1595 0.931 . S
H1588 C1597 0.931 . S
H1589 C1599 0.930 . S
H1590 C1601 0.930 . S
H1591 C1603 0.931 . S
C1592 H1586 0.930 . S
C1592 C1593 1.380 . S
C1592 C1594 1.394 . S
C1593 C1592 1.380 . S
C1593 C1597 1.382 . S
C1594 C1592 1.394 . S
C1594 C1595 1.400 . S
C1595 H1587 0.931 . S
C1595 C1594 1.400 . S
C1595 C1596 1.375 . S
C1596 C1595 1.375 . S
C1596 C1597 1.415 . S
C1596 C1598 1.501 . S
C1597 H1588 0.931 . S
C1597 C1593 1.382 . S
C1597 C1596 1.415 . S
C1598 C1596 1.501 . S
C1598 C1599 1.384 . S
C1598 C1603 1.408 . S
C1599 H1589 0.930 . S
C1599 C1598 1.384 . S
C1599 C1600 1.389 . S
C1600 C1599 1.389 . S
C1600 C1601 1.405 . S
C1601 H1590 0.930 . S
C1601 C1600 1.405 . S
C1601 C1602 1.364 . S
C1602 C1601 1.364 . S
C1602 C1603 1.400 . S
C1603 H1591 0.931 . S
C1603 C1598 1.408 . S
C1603 C1602 1.400 . S
H1604 C1610 0.930 . S
H1605 C1613 0.931 . S
H1606 C1615 0.931 . S
H1607 C1617 0.930 . S
H1608 C1619 0.930 . S
H1609 C1621 0.931 . S
C1610 H1604 0.930 . S
C1610 C1611 1.380 . S
C1610 C1612 1.394 . S
C1611 C1610 1.380 . S
C1611 C1615 1.382 . S
C1612 C1610 1.394 . S
C1612 C1613 1.400 . S
C1613 H1605 0.931 . S
C1613 C1612 1.400 . S
C1613 C1614 1.375 . S
C1614 C1613 1.375 . S
C1614 C1615 1.415 . S
C1614 C1616 1.501 . S
C1615 H1606 0.931 . S
C1615 C1611 1.382 . S
C1615 C1614 1.415 . S
C1616 C1614 1.501 . S
C1616 C1617 1.384 . S
C1616 C1621 1.408 . S
C1617 H1607 0.930 . S
C1617 C1616 1.384 . S
C1617 C1618 1.389 . S
C1618 C1617 1.389 . S
C1618 C1619 1.405 . S
C1619 H1608 0.930 . S
C1619 C1618 1.405 . S
C1619 C1620 1.364 . S
C1620 C1619 1.364 . S
C1620 C1621 1.400 . S
C1621 H1609 0.931 . S
C1621 C1616 1.408 . S
C1621 C1620 1.400 . S
H1622 C1628 0.930 . S
H1623 C1631 0.931 . S
H1624 C1633 0.931 . S
H1625 C1635 0.930 . S
H1626 C1637 0.930 . S
H1627 C1639 0.931 . S
C1628 H1622 0.930 . S
C1628 C1629 1.380 . S
C1628 C1630 1.394 . S
C1629 C1628 1.380 . S
C1629 C1633 1.382 . S
C1630 C1628 1.394 . S
C1630 C1631 1.400 . S
C1631 H1623 0.931 . S
C1631 C1630 1.400 . S
C1631 C1632 1.375 . S
C1632 C1631 1.375 . S
C1632 C1633 1.415 . S
C1632 C1634 1.501 . S
C1633 H1624 0.931 . S
C1633 C1629 1.382 . S
C1633 C1632 1.415 . S
C1634 C1632 1.501 . S
C1634 C1635 1.384 . S
C1634 C1639 1.408 . S
C1635 H1625 0.930 . S
C1635 C1634 1.384 . S
C1635 C1636 1.389 . S
C1636 C1635 1.389 . S
C1636 C1637 1.405 . S
C1637 H1626 0.930 . S
C1637 C1636 1.405 . S
C1637 C1638 1.364 . S
C1638 C1637 1.364 . S
C1638 C1639 1.400 . S
C1639 H1627 0.931 . S
C1639 C1634 1.408 . S
C1639 C1638 1.400 . S
H1640 C1646 0.930 . S
H1641 C1649 0.931 . S
H1642 C1651 0.931 . S
H1643 C1653 0.930 . S
H1644 C1655 0.930 . S
H1645 C1657 0.931 . S
C1646 H1640 0.930 . S
C1646 C1647 1.380 . S
C1646 C1648 1.394 . S
C1647 C1646 1.380 . S
C1647 C1651 1.382 . S
C1648 C1646 1.394 . S
C1648 C1649 1.400 . S
C1649 H1641 0.931 . S
C1649 C1648 1.400 . S
C1649 C1650 1.375 . S
C1650 C1649 1.375 . S
C1650 C1651 1.415 . S
C1650 C1652 1.501 . S
C1651 H1642 0.931 . S
C1651 C1647 1.382 . S
C1651 C1650 1.415 . S
C1652 C1650 1.501 . S
C1652 C1653 1.384 . S
C1652 C1657 1.408 . S
C1653 H1643 0.930 . S
C1653 C1652 1.384 . S
C1653 C1654 1.389 . S
C1654 C1653 1.389 . S
C1654 C1655 1.405 . S
C1655 H1644 0.930 . S
C1655 C1654 1.405 . S
C1655 C1656 1.364 . S
C1656 C1655 1.364 . S
C1656 C1657 1.400 . S
C1657 H1645 0.931 . S
C1657 C1652 1.408 . S
C1657 C1656 1.400 . S
H1658 C1664 0.930 . S
H1659 C1667 0.931 . S
H1660 C1669 0.931 . S
H1661 C1671 0.930 . S
H1662 C1673 0.930 . S
H1663 C1675 0.931 . S
C1664 H1658 0.930 . S
C1664 C1665 1.380 . S
C1664 C1666 1.394 . S
C1665 C1664 1.380 . S
C1665 C1669 1.382 . S
C1666 C1664 1.394 . S
C1666 C1667 1.400 . S
C1667 H1659 0.931 . S
C1667 C1666 1.400 . S
C1667 C1668 1.375 . S
C1668 C1667 1.375 . S
C1668 C1669 1.415 . S
C1668 C1670 1.501 . S
C1669 H1660 0.931 . S
C1669 C1665 1.382 . S
C1669 C1668 1.415 . S
C1670 C1668 1.501 . S
C1670 C1671 1.384 . S
C1670 C1675 1.408 . S
C1671 H1661 0.930 . S
C1671 C1670 1.384 . S
C1671 C1672 1.389 . S
C1672 C1671 1.389 . S
C1672 C1673 1.405 . S
C1673 H1662 0.930 . S
C1673 C1672 1.405 . S
C1673 C1674 1.364 . S
C1674 C1673 1.364 . S
C1674 C1675 1.400 . S
C1675 H1663 0.931 . S
C1675 C1670 1.408 . S
C1675 C1674 1.400 . S
H1676 C1682 0.930 . S
H1677 C1685 0.931 . S
H1678 C1687 0.931 . S
H1679 C1689 0.930 . S
H1680 C1691 0.930 . S
H1681 C1693 0.931 . S
C1682 H1676 0.930 . S
C1682 C1683 1.380 . S
C1682 C1684 1.394 . S
C1683 C1682 1.380 . S
C1683 C1687 1.382 . S
C1684 C1682 1.394 . S
C1684 C1685 1.400 . S
C1685 H1677 0.931 . S
C1685 C1684 1.400 . S
C1685 C1686 1.375 . S
C1686 C1685 1.375 . S
C1686 C1687 1.415 . S
C1686 C1688 1.501 . S
C1687 H1678 0.931 . S
C1687 C1683 1.382 . S
C1687 C1686 1.415 . S
C1688 C1686 1.501 . S
C1688 C1689 1.384 . S
C1688 C1693 1.408 . S
C1689 H1679 0.930 . S
C1689 C1688 1.384 . S
C1689 C1690 1.389 . S
C1690 C1689 1.389 . S
C1690 C1691 1.405 . S
C1691 H1680 0.930 . S
C1691 C1690 1.405 . S
C1691 C1692 1.364 . S
C1692 C1691 1.364 . S
C1692 C1693 1.400 . S
C1693 H1681 0.931 . S
C1693 C1688 1.408 . S
C1693 C1692 1.400 . S
H1694 C1700 0.930 . S
H1695 C1703 0.931 . S
H1696 C1705 0.931 . S
H1697 C1707 0.930 . S
H1698 C1709 0.930 . S
H1699 C1711 0.931 . S
C1700 H1694 0.930 . S
C1700 C1701 1.380 . S
C1700 C1702 1.394 . S
C1701 C1700 1.380 . S
C1701 C1705 1.382 . S
C1702 C1700 1.394 . S
C1702 C1703 1.400 . S
C1703 H1695 0.931 . S
C1703 C1702 1.400 . S
C1703 C1704 1.375 . S
C1704 C1703 1.375 . S
C1704 C1705 1.415 . S
C1704 C1706 1.501 . S
C1705 H1696 0.931 . S
C1705 C1701 1.382 . S
C1705 C1704 1.415 . S
C1706 C1704 1.501 . S
C1706 C1707 1.384 . S
C1706 C1711 1.408 . S
C1707 H1697 0.930 . S
C1707 C1706 1.384 . S
C1707 C1708 1.389 . S
C1708 C1707 1.389 . S
C1708 C1709 1.405 . S
C1709 H1698 0.930 . S
C1709 C1708 1.405 . S
C1709 C1710 1.364 . S
C1710 C1709 1.364 . S
C1710 C1711 1.400 . S
C1711 H1699 0.931 . S
C1711 C1706 1.408 . S
C1711 C1710 1.400 . S
H1712 C1720 0.950 . S
H1713 C1725 0.950 . S
H1714 C1722 0.950 . S
H1715 C1724 0.950 . S
H1716 C1726 0.950 . S
H1717 C1728 0.950 . S
H1718 C1730 0.950 . S
H1719 C1731 0.950 . S
C1720 H1712 0.950 . S
C1720 C1721 1.386 . S
C1720 C1722 1.391 . S
C1721 C1720 1.386 . S
C1721 C1725 1.393 . S
C1722 H1714 0.950 . S
C1722 C1720 1.391 . S
C1722 C1723 1.400 . S
C1723 C1722 1.400 . S
C1723 C1724 1.398 . S
C1723 C1729 1.491 . S
C1724 H1715 0.950 . S
C1724 C1723 1.398 . S
C1724 C1725 1.391 . S
C1725 H1713 0.950 . S
C1725 C1721 1.393 . S
C1725 C1724 1.391 . S
C1726 H1716 0.950 . S
C1726 C1727 1.386 . S
C1726 C1728 1.391 . S
C1727 C1726 1.386 . S
C1727 C1731 1.393 . S
C1728 H1717 0.950 . S
C1728 C1726 1.391 . S
C1728 C1729 1.400 . S
C1729 C1723 1.491 . S
C1729 C1728 1.400 . S
C1729 C1730 1.398 . S
C1730 H1718 0.950 . S
C1730 C1729 1.398 . S
C1730 C1731 1.391 . S
C1731 H1719 0.950 . S
C1731 C1727 1.393 . S
C1731 C1730 1.391 . S
H1732 C1740 0.950 . S
H1733 C1745 0.950 . S
H1734 C1742 0.950 . S
H1735 C1744 0.950 . S
H1736 C1746 0.950 . S
H1737 C1748 0.950 . S
H1738 C1750 0.950 . S
H1739 C1751 0.950 . S
C1740 H1732 0.950 . S
C1740 C1741 1.386 . S
C1740 C1742 1.391 . S
C1741 C1740 1.386 . S
C1741 C1745 1.393 . S
C1742 H1734 0.950 . S
C1742 C1740 1.391 . S
C1742 C1743 1.400 . S
C1743 C1742 1.400 . S
C1743 C1744 1.398 . S
C1743 C1749 1.491 . S
C1744 H1735 0.950 . S
C1744 C1743 1.398 . S
C1744 C1745 1.391 . S
C1745 H1733 0.950 . S
C1745 C1741 1.393 . S
C1745 C1744 1.391 . S
C1746 H1736 0.950 . S
C1746 C1747 1.386 . S
C1746 C1748 1.391 . S
C1747 C1746 1.386 . S
C1747 C1751 1.393 . S
C1748 H1737 0.950 . S
C1748 C1746 1.391 . S
C1748 C1749 1.400 . S
C1749 C1743 1.491 . S
C1749 C1748 1.400 . S
C1749 C1750 1.398 . S
C1750 H1738 0.950 . S
C1750 C1749 1.398 . S
C1750 C1751 1.391 . S
C1751 H1739 0.950 . S
C1751 C1747 1.393 . S
C1751 C1750 1.391 . S
H1752 C1760 0.950 . S
H1753 C1765 0.950 . S
H1754 C1762 0.950 . S
H1755 C1764 0.950 . S
H1756 C1766 0.950 . S
H1757 C1768 0.950 . S
H1758 C1770 0.950 . S
H1759 C1771 0.950 . S
C1760 H1752 0.950 . S
C1760 C1761 1.386 . S
C1760 C1762 1.391 . S
C1761 C1760 1.386 . S
C1761 C1765 1.393 . S
C1762 H1754 0.950 . S
C1762 C1760 1.391 . S
C1762 C1763 1.400 . S
C1763 C1762 1.400 . S
C1763 C1764 1.398 . S
C1763 C1769 1.491 . S
C1764 H1755 0.950 . S
C1764 C1763 1.398 . S
C1764 C1765 1.391 . S
C1765 H1753 0.950 . S
C1765 C1761 1.393 . S
C1765 C1764 1.391 . S
C1766 H1756 0.950 . S
C1766 C1767 1.386 . S
C1766 C1768 1.391 . S
C1767 C1766 1.386 . S
C1767 C1771 1.393 . S
C1768 H1757 0.950 . S
C1768 C1766 1.391 . S
C1768 C1769 1.400 . S
C1769 C1763 1.491 . S
C1769 C1768 1.400 . S
C1769 C1770 1.398 . S
C1770 H1758 0.950 . S
C1770 C1769 1.398 . S
C1770 C1771 1.391 . S
C1771 H1759 0.950 . S
C1771 C1767 1.393 . S
C1771 C1770 1.391 . S
H1772 C1780 0.950 . S
H1773 C1785 0.950 . S
H1774 C1782 0.950 . S
H1775 C1784 0.950 . S
H1776 C1786 0.950 . S
H1777 C1788 0.950 . S
H1778 C1790 0.950 . S
H1779 C1791 0.950 . S
C1780 H1772 0.950 . S
C1780 C1781 1.386 . S
C1780 C1782 1.391 . S
C1781 C1780 1.386 . S
C1781 C1785 1.393 . S
C1782 H1774 0.950 . S
C1782 C1780 1.391 . S
C1782 C1783 1.400 . S
C1783 C1782 1.400 . S
C1783 C1784 1.398 . S
C1783 C1789 1.491 . S
C1784 H1775 0.950 . S
C1784 C1783 1.398 . S
C1784 C1785 1.391 . S
C1785 H1773 0.950 . S
C1785 C1781 1.393 . S
C1785 C1784 1.391 . S
C1786 H1776 0.950 . S
C1786 C1787 1.386 . S
C1786 C1788 1.391 . S
C1787 C1786 1.386 . S
C1787 C1791 1.393 . S
C1788 H1777 0.950 . S
C1788 C1786 1.391 . S
C1788 C1789 1.400 . S
C1789 C1783 1.491 . S
C1789 C1788 1.400 . S
C1789 C1790 1.398 . S
C1790 H1778 0.950 . S
C1790 C1789 1.398 . S
C1790 C1791 1.391 . S
C1791 H1779 0.950 . S
C1791 C1787 1.393 . S
C1791 C1790 1.391 . S
H1792 C1800 0.950 . S
H1793 C1805 0.950 . S
H1794 C1802 0.950 . S
H1795 C1804 0.950 . S
H1796 C1806 0.950 . S
H1797 C1808 0.950 . S
H1798 C1810 0.950 . S
H1799 C1811 0.950 . S
C1800 H1792 0.950 . S
C1800 C1801 1.386 . S
C1800 C1802 1.391 . S
C1801 C1800 1.386 . S
C1801 C1805 1.393 . S
C1802 H1794 0.950 . S
C1802 C1800 1.391 . S
C1802 C1803 1.400 . S
C1803 C1802 1.400 . S
C1803 C1804 1.398 . S
C1803 C1809 1.491 . S
C1804 H1795 0.950 . S
C1804 C1803 1.398 . S
C1804 C1805 1.391 . S
C1805 H1793 0.950 . S
C1805 C1801 1.393 . S
C1805 C1804 1.391 . S
C1806 H1796 0.950 . S
C1806 C1807 1.386 . S
C1806 C1808 1.391 . S
C1807 C1806 1.386 . S
C1807 C1811 1.393 . S
C1808 H1797 0.950 . S
C1808 C1806 1.391 . S
C1808 C1809 1.400 . S
C1809 C1803 1.491 . S
C1809 C1808 1.400 . S
C1809 C1810 1.398 . S
C1810 H1798 0.950 . S
C1810 C1809 1.398 . S
C1810 C1811 1.391 . S
C1811 H1799 0.950 . S
C1811 C1807 1.393 . S
C1811 C1810 1.391 . S
H1812 C1820 0.950 . S
H1813 C1825 0.950 . S
H1814 C1822 0.950 . S
H1815 C1824 0.950 . S
H1816 C1826 0.950 . S
H1817 C1828 0.950 . S
H1818 C1830 0.950 . S
H1819 C1831 0.950 . S
C1820 H1812 0.950 . S
C1820 C1821 1.386 . S
C1820 C1822 1.391 . S
C1821 C1820 1.386 . S
C1821 C1825 1.393 . S
C1822 H1814 0.950 . S
C1822 C1820 1.391 . S
C1822 C1823 1.400 . S
C1823 C1822 1.400 . S
C1823 C1824 1.398 . S
C1823 C1829 1.491 . S
C1824 H1815 0.950 . S
C1824 C1823 1.398 . S
C1824 C1825 1.391 . S
C1825 H1813 0.950 . S
C1825 C1821 1.393 . S
C1825 C1824 1.391 . S
C1826 H1816 0.950 . S
C1826 C1827 1.386 . S
C1826 C1828 1.391 . S
C1827 C1826 1.386 . S
C1827 C1831 1.393 . S
C1828 H1817 0.950 . S
C1828 C1826 1.391 . S
C1828 C1829 1.400 . S
C1829 C1823 1.491 . S
C1829 C1828 1.400 . S
C1829 C1830 1.398 . S
C1830 H1818 0.950 . S
C1830 C1829 1.398 . S
C1830 C1831 1.391 . S
C1831 H1819 0.950 . S
C1831 C1827 1.393 . S
C1831 C1830 1.391 . S
H1832 C1840 0.950 . S
H1833 C1845 0.950 . S
H1834 C1842 0.950 . S
H1835 C1844 0.950 . S
H1836 C1846 0.950 . S
H1837 C1848 0.950 . S
H1838 C1850 0.950 . S
H1839 C1851 0.950 . S
C1840 H1832 0.950 . S
C1840 C1841 1.386 . S
C1840 C1842 1.391 . S
C1841 C1840 1.386 . S
C1841 C1845 1.393 . S
C1842 H1834 0.950 . S
C1842 C1840 1.391 . S
C1842 C1843 1.400 . S
C1843 C1842 1.400 . S
C1843 C1844 1.398 . S
C1843 C1849 1.491 . S
C1844 H1835 0.950 . S
C1844 C1843 1.398 . S
C1844 C1845 1.391 . S
C1845 H1833 0.950 . S
C1845 C1841 1.393 . S
C1845 C1844 1.391 . S
C1846 H1836 0.950 . S
C1846 C1847 1.386 . S
C1846 C1848 1.391 . S
C1847 C1846 1.386 . S
C1847 C1851 1.393 . S
C1848 H1837 0.950 . S
C1848 C1846 1.391 . S
C1848 C1849 1.400 . S
C1849 C1843 1.491 . S
C1849 C1848 1.400 . S
C1849 C1850 1.398 . S
C1850 H1838 0.950 . S
C1850 C1849 1.398 . S
C1850 C1851 1.391 . S
C1851 H1839 0.950 . S
C1851 C1847 1.393 . S
C1851 C1850 1.391 . S
H1852 C1860 0.950 . S
H1853 C1865 0.950 . S
H1854 C1862 0.950 . S
H1855 C1864 0.950 . S
H1856 C1866 0.950 . S
H1857 C1868 0.950 . S
H1858 C1870 0.950 . S
H1859 C1871 0.950 . S
C1860 H1852 0.950 . S
C1860 C1861 1.386 . S
C1860 C1862 1.391 . S
C1861 C1860 1.386 . S
C1861 C1865 1.393 . S
C1862 H1854 0.950 . S
C1862 C1860 1.391 . S
C1862 C1863 1.400 . S
C1863 C1862 1.400 . S
C1863 C1864 1.398 . S
C1863 C1869 1.491 . S
C1864 H1855 0.950 . S
C1864 C1863 1.398 . S
C1864 C1865 1.391 . S
C1865 H1853 0.950 . S
C1865 C1861 1.393 . S
C1865 C1864 1.391 . S
C1866 H1856 0.950 . S
C1866 C1867 1.386 . S
C1866 C1868 1.391 . S
C1867 C1866 1.386 . S
C1867 C1871 1.393 . S
C1868 H1857 0.950 . S
C1868 C1866 1.391 . S
C1868 C1869 1.400 . S
C1869 C1863 1.491 . S
C1869 C1868 1.400 . S
C1869 C1870 1.398 . S
C1870 H1858 0.950 . S
C1870 C1869 1.398 . S
C1870 C1871 1.391 . S
C1871 H1859 0.950 . S
C1871 C1867 1.393 . S
C1871 C1870 1.391 . S
H1872 C1880 0.950 . S
H1873 C1885 0.950 . S
H1874 C1882 0.950 . S
H1875 C1884 0.950 . S
H1876 C1886 0.950 . S
H1877 C1888 0.950 . S
H1878 C1890 0.950 . S
H1879 C1891 0.950 . S
C1880 H1872 0.950 . S
C1880 C1881 1.386 . S
C1880 C1882 1.391 . S
C1881 C1880 1.386 . S
C1881 C1885 1.393 . S
C1882 H1874 0.950 . S
C1882 C1880 1.391 . S
C1882 C1883 1.400 . S
C1883 C1882 1.400 . S
C1883 C1884 1.398 . S
C1883 C1889 1.491 . S
C1884 H1875 0.950 . S
C1884 C1883 1.398 . S
C1884 C1885 1.391 . S
C1885 H1873 0.950 . S
C1885 C1881 1.393 . S
C1885 C1884 1.391 . S
C1886 H1876 0.950 . S
C1886 C1887 1.386 . S
C1886 C1888 1.391 . S
C1887 C1886 1.386 . S
C1887 C1891 1.393 . S
C1888 H1877 0.950 . S
C1888 C1886 1.391 . S
C1888 C1889 1.400 . S
C1889 C1883 1.491 . S
C1889 C1888 1.400 . S
C1889 C1890 1.398 . S
C1890 H1878 0.950 . S
C1890 C1889 1.398 . S
C1890 C1891 1.391 . S
C1891 H1879 0.950 . S
C1891 C1887 1.393 . S
C1891 C1890 1.391 . S
H1892 C1900 0.950 . S
H1893 C1905 0.950 . S
H1894 C1902 0.950 . S
H1895 C1904 0.950 . S
H1896 C1906 0.950 . S
H1897 C1908 0.950 . S
H1898 C1910 0.950 . S
H1899 C1911 0.950 . S
C1900 H1892 0.950 . S
C1900 C1901 1.386 . S
C1900 C1902 1.391 . S
C1901 C1900 1.386 . S
C1901 C1905 1.393 . S
C1902 H1894 0.950 . S
C1902 C1900 1.391 . S
C1902 C1903 1.400 . S
C1903 C1902 1.400 . S
C1903 C1904 1.398 . S
C1903 C1909 1.491 . S
C1904 H1895 0.950 . S
C1904 C1903 1.398 . S
C1904 C1905 1.391 . S
C1905 H1893 0.950 . S
C1905 C1901 1.393 . S
C1905 C1904 1.391 . S
C1906 H1896 0.950 . S
C1906 C1907 1.386 . S
C1906 C1908 1.391 . S
C1907 C1906 1.386 . S
C1907 C1911 1.393 . S
C1908 H1897 0.950 . S
C1908 C1906 1.391 . S
C1908 C1909 1.400 . S
C1909 C1903 1.491 . S
C1909 C1908 1.400 . S
C1909 C1910 1.398 . S
C1910 H1898 0.950 . S
C1910 C1909 1.398 . S
C1910 C1911 1.391 . S
C1911 H1899 0.950 . S
C1911 C1907 1.393 . S
C1911 C1910 1.391 . S
H1912 C1920 0.950 . S
H1913 C1925 0.950 . S
H1914 C1922 0.950 . S
H1915 C1924 0.950 . S
H1916 C1926 0.950 . S
H1917 C1928 0.950 . S
H1918 C1930 0.950 . S
H1919 C1931 0.950 . S
C1920 H1912 0.950 . S
C1920 C1921 1.386 . S
C1920 C1922 1.391 . S
C1921 C1920 1.386 . S
C1921 C1925 1.393 . S
C1922 H1914 0.950 . S
C1922 C1920 1.391 . S
C1922 C1923 1.400 . S
C1923 C1922 1.400 . S
C1923 C1924 1.398 . S
C1923 C1929 1.491 . S
C1924 H1915 0.950 . S
C1924 C1923 1.398 . S
C1924 C1925 1.391 . S
C1925 H1913 0.950 . S
C1925 C1921 1.393 . S
C1925 C1924 1.391 . S
C1926 H1916 0.950 . S
C1926 C1927 1.386 . S
C1926 C1928 1.391 . S
C1927 C1926 1.386 . S
C1927 C1931 1.393 . S
C1928 H1917 0.950 . S
C1928 C1926 1.391 . S
C1928 C1929 1.400 . S
C1929 C1923 1.491 . S
C1929 C1928 1.400 . S
C1929 C1930 1.398 . S
C1930 H1918 0.950 . S
C1930 C1929 1.398 . S
C1930 C1931 1.391 . S
C1931 H1919 0.950 . S
C1931 C1927 1.393 . S
C1931 C1930 1.391 . S
H1932 C1940 0.950 . S
H1933 C1945 0.950 . S
H1934 C1942 0.950 . S
H1935 C1944 0.950 . S
H1936 C1946 0.950 . S
H1937 C1948 0.950 . S
H1938 C1950 0.950 . S
H1939 C1951 0.950 . S
C1940 H1932 0.950 . S
C1940 C1941 1.386 . S
C1940 C1942 1.391 . S
C1941 C1940 1.386 . S
C1941 C1945 1.393 . S
C1942 H1934 0.950 . S
C1942 C1940 1.391 . S
C1942 C1943 1.400 . S
C1943 C1942 1.400 . S
C1943 C1944 1.398 . S
C1943 C1949 1.491 . S
C1944 H1935 0.950 . S
C1944 C1943 1.398 . S
C1944 C1945 1.391 . S
C1945 H1933 0.950 . S
C1945 C1941 1.393 . S
C1945 C1944 1.391 . S
C1946 H1936 0.950 . S
C1946 C1947 1.386 . S
C1946 C1948 1.391 . S
C1947 C1946 1.386 . S
C1947 C1951 1.393 . S
C1948 H1937 0.950 . S
C1948 C1946 1.391 . S
C1948 C1949 1.400 . S
C1949 C1943 1.491 . S
C1949 C1948 1.400 . S
C1949 C1950 1.398 . S
C1950 H1938 0.950 . S
C1950 C1949 1.398 . S
C1950 C1951 1.391 . S
C1951 H1939 0.950 . S
C1951 C1947 1.393 . S
C1951 C1950 1.391 . S
H1952 C1960 0.950 . S
H1953 C1965 0.950 . S
H1954 C1962 0.950 . S
H1955 C1964 0.950 . S
H1956 C1966 0.950 . S
H1957 C1968 0.950 . S
H1958 C1970 0.950 . S
H1959 C1971 0.950 . S
C1960 H1952 0.950 . S
C1960 C1961 1.386 . S
C1960 C1962 1.391 . S
C1961 C1960 1.386 . S
C1961 C1965 1.393 . S
C1962 H1954 0.950 . S
C1962 C1960 1.391 . S
C1962 C1963 1.400 . S
C1963 C1962 1.400 . S
C1963 C1964 1.398 . S
C1963 C1969 1.491 . S
C1964 H1955 0.950 . S
C1964 C1963 1.398 . S
C1964 C1965 1.391 . S
C1965 H1953 0.950 . S
C1965 C1961 1.393 . S
C1965 C1964 1.391 . S
C1966 H1956 0.950 . S
C1966 C1967 1.386 . S
C1966 C1968 1.391 . S
C1967 C1966 1.386 . S
C1967 C1971 1.393 . S
C1968 H1957 0.950 . S
C1968 C1966 1.391 . S
C1968 C1969 1.400 . S
C1969 C1963 1.491 . S
C1969 C1968 1.400 . S
C1969 C1970 1.398 . S
C1970 H1958 0.950 . S
C1970 C1969 1.398 . S
C1970 C1971 1.391 . S
C1971 H1959 0.950 . S
C1971 C1967 1.393 . S
C1971 C1970 1.391 . S
H1972 C1980 0.950 . S
H1973 C1985 0.950 . S
H1974 C1982 0.950 . S
H1975 C1984 0.950 . S
H1976 C1986 0.950 . S
H1977 C1988 0.950 . S
H1978 C1990 0.950 . S
H1979 C1991 0.950 . S
C1980 H1972 0.950 . S
C1980 C1981 1.386 . S
C1980 C1982 1.391 . S
C1981 C1980 1.386 . S
C1981 C1985 1.393 . S
C1982 H1974 0.950 . S
C1982 C1980 1.391 . S
C1982 C1983 1.400 . S
C1983 C1982 1.400 . S
C1983 C1984 1.398 . S
C1983 C1989 1.491 . S
C1984 H1975 0.950 . S
C1984 C1983 1.398 . S
C1984 C1985 1.391 . S
C1985 H1973 0.950 . S
C1985 C1981 1.393 . S
C1985 C1984 1.391 . S
C1986 H1976 0.950 . S
C1986 C1987 1.386 . S
C1986 C1988 1.391 . S
C1987 C1986 1.386 . S
C1987 C1991 1.393 . S
C1988 H1977 0.950 . S
C1988 C1986 1.391 . S
C1988 C1989 1.400 . S
C1989 C1983 1.491 . S
C1989 C1988 1.400 . S
C1989 C1990 1.398 . S
C1990 H1978 0.950 . S
C1990 C1989 1.398 . S
C1990 C1991 1.391 . S
C1991 H1979 0.950 . S
C1991 C1987 1.393 . S
C1991 C1990 1.391 . S
H1992 C2000 0.950 . S
H1993 C2005 0.950 . S
H1994 C2002 0.950 . S
H1995 C2004 0.950 . S
H1996 C2006 0.950 . S
H1997 C2008 0.950 . S
H1998 C2010 0.950 . S
H1999 C2011 0.950 . S
C2000 H1992 0.950 . S
C2000 C2001 1.386 . S
C2000 C2002 1.391 . S
C2001 C2000 1.386 . S
C2001 C2005 1.393 . S
C2002 H1994 0.950 . S
C2002 C2000 1.391 . S
C2002 C2003 1.400 . S
C2003 C2002 1.400 . S
C2003 C2004 1.398 . S
C2003 C2009 1.491 . S
C2004 H1995 0.950 . S
C2004 C2003 1.398 . S
C2004 C2005 1.391 . S
C2005 H1993 0.950 . S
C2005 C2001 1.393 . S
C2005 C2004 1.391 . S
C2006 H1996 0.950 . S
C2006 C2007 1.386 . S
C2006 C2008 1.391 . S
C2007 C2006 1.386 . S
C2007 C2011 1.393 . S
C2008 H1997 0.950 . S
C2008 C2006 1.391 . S
C2008 C2009 1.400 . S
C2009 C2003 1.491 . S
C2009 C2008 1.400 . S
C2009 C2010 1.398 . S
C2010 H1998 0.950 . S
C2010 C2009 1.398 . S
C2010 C2011 1.391 . S
C2011 H1999 0.950 . S
C2011 C2007 1.393 . S
C2011 C2010 1.391 . S
H2012 C2020 0.950 . S
H2013 C2025 0.950 . S
H2014 C2022 0.950 . S
H2015 C2024 0.950 . S
H2016 C2026 0.950 . S
H2017 C2028 0.950 . S
H2018 C2030 0.950 . S
H2019 C2031 0.950 . S
C2020 H2012 0.950 . S
C2020 C2021 1.386 . S
C2020 C2022 1.391 . S
C2021 C2020 1.386 . S
C2021 C2025 1.393 . S
C2022 H2014 0.950 . S
C2022 C2020 1.391 . S
C2022 C2023 1.400 . S
C2023 C2022 1.400 . S
C2023 C2024 1.398 . S
C2023 C2029 1.491 . S
C2024 H2015 0.950 . S
C2024 C2023 1.398 . S
C2024 C2025 1.391 . S
C2025 H2013 0.950 . S
C2025 C2021 1.393 . S
C2025 C2024 1.391 . S
C2026 H2016 0.950 . S
C2026 C2027 1.386 . S
C2026 C2028 1.391 . S
C2027 C2026 1.386 . S
C2027 C2031 1.393 . S
C2028 H2017 0.950 . S
C2028 C2026 1.391 . S
C2028 C2029 1.400 . S
C2029 C2023 1.491 . S
C2029 C2028 1.400 . S
C2029 C2030 1.398 . S
C2030 H2018 0.950 . S
C2030 C2029 1.398 . S
C2030 C2031 1.391 . S
C2031 H2019 0.950 . S
C2031 C2027 1.393 . S
C2031 C2030 1.391 . S
H2032 C2040 0.950 . S
H2033 C2045 0.950 . S
H2034 C2042 0.950 . S
H2035 C2044 0.950 . S
H2036 C2046 0.950 . S
H2037 C2048 0.950 . S
H2038 C2050 0.950 . S
H2039 C2051 0.950 . S
C2040 H2032 0.950 . S
C2040 C2041 1.386 . S
C2040 C2042 1.391 . S
C2041 C2040 1.386 . S
C2041 C2045 1.393 . S
C2042 H2034 0.950 . S
C2042 C2040 1.391 . S
C2042 C2043 1.400 . S
C2043 C2042 1.400 . S
C2043 C2044 1.398 . S
C2043 C2049 1.491 . S
C2044 H2035 0.950 . S
C2044 C2043 1.398 . S
C2044 C2045 1.391 . S
C2045 H2033 0.950 . S
C2045 C2041 1.393 . S
C2045 C2044 1.391 . S
C2046 H2036 0.950 . S
C2046 C2047 1.386 . S
C2046 C2048 1.391 . S
C2047 C2046 1.386 . S
C2047 C2051 1.393 . S
C2048 H2037 0.950 . S
C2048 C2046 1.391 . S
C2048 C2049 1.400 . S
C2049 C2043 1.491 . S
C2049 C2048 1.400 . S
C2049 C2050 1.398 . S
C2050 H2038 0.950 . S
C2050 C2049 1.398 . S
C2050 C2051 1.391 . S
C2051 H2039 0.950 . S
C2051 C2047 1.393 . S
C2051 C2050 1.391 . S
H2052 C2060 0.950 . S
H2053 C2065 0.950 . S
H2054 C2062 0.950 . S
H2055 C2064 0.950 . S
H2056 C2066 0.950 . S
H2057 C2068 0.950 . S
H2058 C2070 0.950 . S
H2059 C2071 0.950 . S
C2060 H2052 0.950 . S
C2060 C2061 1.386 . S
C2060 C2062 1.391 . S
C2061 C2060 1.386 . S
C2061 C2065 1.393 . S
C2062 H2054 0.950 . S
C2062 C2060 1.391 . S
C2062 C2063 1.400 . S
C2063 C2062 1.400 . S
C2063 C2064 1.398 . S
C2063 C2069 1.491 . S
C2064 H2055 0.950 . S
C2064 C2063 1.398 . S
C2064 C2065 1.391 . S
C2065 H2053 0.950 . S
C2065 C2061 1.393 . S
C2065 C2064 1.391 . S
C2066 H2056 0.950 . S
C2066 C2067 1.386 . S
C2066 C2068 1.391 . S
C2067 C2066 1.386 . S
C2067 C2071 1.393 . S
C2068 H2057 0.950 . S
C2068 C2066 1.391 . S
C2068 C2069 1.400 . S
C2069 C2063 1.491 . S
C2069 C2068 1.400 . S
C2069 C2070 1.398 . S
C2070 H2058 0.950 . S
C2070 C2069 1.398 . S
C2070 C2071 1.391 . S
C2071 H2059 0.950 . S
C2071 C2067 1.393 . S
C2071 C2070 1.391 . S
H2072 C2080 0.950 . S
H2073 C2085 0.950 . S
H2074 C2082 0.950 . S
H2075 C2084 0.950 . S
H2076 C2086 0.950 . S
H2077 C2088 0.950 . S
H2078 C2090 0.950 . S
H2079 C2091 0.950 . S
C2080 H2072 0.950 . S
C2080 C2081 1.386 . S
C2080 C2082 1.391 . S
C2081 C2080 1.386 . S
C2081 C2085 1.393 . S
C2082 H2074 0.950 . S
C2082 C2080 1.391 . S
C2082 C2083 1.400 . S
C2083 C2082 1.400 . S
C2083 C2084 1.398 . S
C2083 C2089 1.491 . S
C2084 H2075 0.950 . S
C2084 C2083 1.398 . S
C2084 C2085 1.391 . S
C2085 H2073 0.950 . S
C2085 C2081 1.393 . S
C2085 C2084 1.391 . S
C2086 H2076 0.950 . S
C2086 C2087 1.386 . S
C2086 C2088 1.391 . S
C2087 C2086 1.386 . S
C2087 C2091 1.393 . S
C2088 H2077 0.950 . S
C2088 C2086 1.391 . S
C2088 C2089 1.400 . S
C2089 C2083 1.491 . S
C2089 C2088 1.400 . S
C2089 C2090 1.398 . S
C2090 H2078 0.950 . S
C2090 C2089 1.398 . S
C2090 C2091 1.391 . S
C2091 H2079 0.950 . S
C2091 C2087 1.393 . S
C2091 C2090 1.391 . S
H2092 C2100 0.950 . S
H2093 C2105 0.950 . S
H2094 C2102 0.950 . S
H2095 C2104 0.950 . S
H2096 C2106 0.950 . S
H2097 C2108 0.950 . S
H2098 C2110 0.950 . S
H2099 C2111 0.950 . S
C2100 H2092 0.950 . S
C2100 C2101 1.386 . S
C2100 C2102 1.391 . S
C2101 C2100 1.386 . S
C2101 C2105 1.393 . S
C2102 H2094 0.950 . S
C2102 C2100 1.391 . S
C2102 C2103 1.400 . S
C2103 C2102 1.400 . S
C2103 C2104 1.398 . S
C2103 C2109 1.491 . S
C2104 H2095 0.950 . S
C2104 C2103 1.398 . S
C2104 C2105 1.391 . S
C2105 H2093 0.950 . S
C2105 C2101 1.393 . S
C2105 C2104 1.391 . S
C2106 H2096 0.950 . S
C2106 C2107 1.386 . S
C2106 C2108 1.391 . S
C2107 C2106 1.386 . S
C2107 C2111 1.393 . S
C2108 H2097 0.950 . S
C2108 C2106 1.391 . S
C2108 C2109 1.400 . S
C2109 C2103 1.491 . S
C2109 C2108 1.400 . S
C2109 C2110 1.398 . S
C2110 H2098 0.950 . S
C2110 C2109 1.398 . S
C2110 C2111 1.391 . S
C2111 H2099 0.950 . S
C2111 C2107 1.393 . S
C2111 C2110 1.391 . S
H2112 C2120 0.950 . S
H2113 C2125 0.950 . S
H2114 C2122 0.950 . S
H2115 C2124 0.950 . S
H2116 C2126 0.950 . S
H2117 C2128 0.950 . S
H2118 C2130 0.950 . S
H2119 C2131 0.950 . S
C2120 H2112 0.950 . S
C2120 C2121 1.386 . S
C2120 C2122 1.391 . S
C2121 C2120 1.386 . S
C2121 C2125 1.393 . S
C2122 H2114 0.950 . S
C2122 C2120 1.391 . S
C2122 C2123 1.400 . S
C2123 C2122 1.400 . S
C2123 C2124 1.398 . S
C2123 C2129 1.491 . S
C2124 H2115 0.950 . S
C2124 C2123 1.398 . S
C2124 C2125 1.391 . S
C2125 H2113 0.950 . S
C2125 C2121 1.393 . S
C2125 C2124 1.391 . S
C2126 H2116 0.950 . S
C2126 C2127 1.386 . S
C2126 C2128 1.391 . S
C2127 C2126 1.386 . S
C2127 C2131 1.393 . S
C2128 H2117 0.950 . S
C2128 C2126 1.391 . S
C2128 C2129 1.400 . S
C2129 C2123 1.491 . S
C2129 C2128 1.400 . S
C2129 C2130 1.398 . S
C2130 H2118 0.950 . S
C2130 C2129 1.398 . S
C2130 C2131 1.391 . S
C2131 H2119 0.950 . S
C2131 C2127 1.393 . S
C2131 C2130 1.391 . S
H2132 C2140 0.950 . S
H2133 C2145 0.950 . S
H2134 C2142 0.950 . S
H2135 C2144 0.950 . S
H2136 C2146 0.950 . S
H2137 C2148 0.950 . S
H2138 C2150 0.950 . S
H2139 C2151 0.950 . S
C2140 H2132 0.950 . S
C2140 C2141 1.386 . S
C2140 C2142 1.391 . S
C2141 C2140 1.386 . S
C2141 C2145 1.393 . S
C2142 H2134 0.950 . S
C2142 C2140 1.391 . S
C2142 C2143 1.400 . S
C2143 C2142 1.400 . S
C2143 C2144 1.398 . S
C2143 C2149 1.491 . S
C2144 H2135 0.950 . S
C2144 C2143 1.398 . S
C2144 C2145 1.391 . S
C2145 H2133 0.950 . S
C2145 C2141 1.393 . S
C2145 C2144 1.391 . S
C2146 H2136 0.950 . S
C2146 C2147 1.386 . S
C2146 C2148 1.391 . S
C2147 C2146 1.386 . S
C2147 C2151 1.393 . S
C2148 H2137 0.950 . S
C2148 C2146 1.391 . S
C2148 C2149 1.400 . S
C2149 C2143 1.491 . S
C2149 C2148 1.400 . S
C2149 C2150 1.398 . S
C2150 H2138 0.950 . S
C2150 C2149 1.398 . S
C2150 C2151 1.391 . S
C2151 H2139 0.950 . S
C2151 C2147 1.393 . S
C2151 C2150 1.391 . S
H2152 C2160 0.950 . S
H2153 C2165 0.950 . S
H2154 C2162 0.950 . S
H2155 C2164 0.950 . S
H2156 C2166 0.950 . S
H2157 C2168 0.950 . S
H2158 C2170 0.950 . S
H2159 C2171 0.950 . S
C2160 H2152 0.950 . S
C2160 C2161 1.386 . S
C2160 C2162 1.391 . S
C2161 C2160 1.386 . S
C2161 C2165 1.393 . S
C2162 H2154 0.950 . S
C2162 C2160 1.391 . S
C2162 C2163 1.400 . S
C2163 C2162 1.400 . S
C2163 C2164 1.398 . S
C2163 C2169 1.491 . S
C2164 H2155 0.950 . S
C2164 C2163 1.398 . S
C2164 C2165 1.391 . S
C2165 H2153 0.950 . S
C2165 C2161 1.393 . S
C2165 C2164 1.391 . S
C2166 H2156 0.950 . S
C2166 C2167 1.386 . S
C2166 C2168 1.391 . S
C2167 C2166 1.386 . S
C2167 C2171 1.393 . S
C2168 H2157 0.950 . S
C2168 C2166 1.391 . S
C2168 C2169 1.400 . S
C2169 C2163 1.491 . S
C2169 C2168 1.400 . S
C2169 C2170 1.398 . S
C2170 H2158 0.950 . S
C2170 C2169 1.398 . S
C2170 C2171 1.391 . S
C2171 H2159 0.950 . S
C2171 C2167 1.393 . S
C2171 C2170 1.391 . S
H2172 C2180 0.950 . S
H2173 C2185 0.950 . S
H2174 C2182 0.950 . S
H2175 C2184 0.950 . S
H2176 C2186 0.950 . S
H2177 C2188 0.950 . S
H2178 C2190 0.950 . S
H2179 C2191 0.950 . S
C2180 H2172 0.950 . S
C2180 C2181 1.386 . S
C2180 C2182 1.391 . S
C2181 C2180 1.386 . S
C2181 C2185 1.393 . S
C2182 H2174 0.950 . S
C2182 C2180 1.391 . S
C2182 C2183 1.400 . S
C2183 C2182 1.400 . S
C2183 C2184 1.398 . S
C2183 C2189 1.491 . S
C2184 H2175 0.950 . S
C2184 C2183 1.398 . S
C2184 C2185 1.391 . S
C2185 H2173 0.950 . S
C2185 C2181 1.393 . S
C2185 C2184 1.391 . S
C2186 H2176 0.950 . S
C2186 C2187 1.386 . S
C2186 C2188 1.391 . S
C2187 C2186 1.386 . S
C2187 C2191 1.393 . S
C2188 H2177 0.950 . S
C2188 C2186 1.391 . S
C2188 C2189 1.400 . S
C2189 C2183 1.491 . S
C2189 C2188 1.400 . S
C2189 C2190 1.398 . S
C2190 H2178 0.950 . S
C2190 C2189 1.398 . S
C2190 C2191 1.391 . S
C2191 H2179 0.950 . S
C2191 C2187 1.393 . S
C2191 C2190 1.391 . S
H2192 C2200 0.950 . S
H2193 C2205 0.950 . S
H2194 C2202 0.950 . S
H2195 C2204 0.950 . S
H2196 C2206 0.950 . S
H2197 C2208 0.950 . S
H2198 C2210 0.950 . S
H2199 C2211 0.950 . S
C2200 H2192 0.950 . S
C2200 C2201 1.386 . S
C2200 C2202 1.391 . S
C2201 C2200 1.386 . S
C2201 C2205 1.393 . S
C2202 H2194 0.950 . S
C2202 C2200 1.391 . S
C2202 C2203 1.400 . S
C2203 C2202 1.400 . S
C2203 C2204 1.398 . S
C2203 C2209 1.491 . S
C2204 H2195 0.950 . S
C2204 C2203 1.398 . S
C2204 C2205 1.391 . S
C2205 H2193 0.950 . S
C2205 C2201 1.393 . S
C2205 C2204 1.391 . S
C2206 H2196 0.950 . S
C2206 C2207 1.386 . S
C2206 C2208 1.391 . S
C2207 C2206 1.386 . S
C2207 C2211 1.393 . S
C2208 H2197 0.950 . S
C2208 C2206 1.391 . S
C2208 C2209 1.400 . S
C2209 C2203 1.491 . S
C2209 C2208 1.400 . S
C2209 C2210 1.398 . S
C2210 H2198 0.950 . S
C2210 C2209 1.398 . S
C2210 C2211 1.391 . S
C2211 H2199 0.950 . S
C2211 C2207 1.393 . S
C2211 C2210 1.391 . S
H2212 C2220 0.950 . S
H2213 C2225 0.950 . S
H2214 C2222 0.950 . S
H2215 C2224 0.950 . S
H2216 C2226 0.950 . S
H2217 C2228 0.950 . S
H2218 C2230 0.950 . S
H2219 C2231 0.950 . S
C2220 H2212 0.950 . S
C2220 C2221 1.386 . S
C2220 C2222 1.391 . S
C2221 C2220 1.386 . S
C2221 C2225 1.393 . S
C2222 H2214 0.950 . S
C2222 C2220 1.391 . S
C2222 C2223 1.400 . S
C2223 C2222 1.400 . S
C2223 C2224 1.398 . S
C2223 C2229 1.491 . S
C2224 H2215 0.950 . S
C2224 C2223 1.398 . S
C2224 C2225 1.391 . S
C2225 H2213 0.950 . S
C2225 C2221 1.393 . S
C2225 C2224 1.391 . S
C2226 H2216 0.950 . S
C2226 C2227 1.386 . S
C2226 C2228 1.391 . S
C2227 C2226 1.386 . S
C2227 C2231 1.393 . S
C2228 H2217 0.950 . S
C2228 C2226 1.391 . S
C2228 C2229 1.400 . S
C2229 C2223 1.491 . S
C2229 C2228 1.400 . S
C2229 C2230 1.398 . S
C2230 H2218 0.950 . S
C2230 C2229 1.398 . S
C2230 C2231 1.391 . S
C2231 H2219 0.950 . S
C2231 C2227 1.393 . S
C2231 C2230 1.391 . S
H2232 C2240 0.950 . S
H2233 C2245 0.950 . S
H2234 C2242 0.950 . S
H2235 C2244 0.950 . S
H2236 C2246 0.950 . S
H2237 C2248 0.950 . S
H2238 C2250 0.950 . S
H2239 C2251 0.950 . S
C2240 H2232 0.950 . S
C2240 C2241 1.386 . S
C2240 C2242 1.391 . S
C2241 C2240 1.386 . S
C2241 C2245 1.393 . S
C2242 H2234 0.950 . S
C2242 C2240 1.391 . S
C2242 C2243 1.400 . S
C2243 C2242 1.400 . S
C2243 C2244 1.398 . S
C2243 C2249 1.491 . S
C2244 H2235 0.950 . S
C2244 C2243 1.398 . S
C2244 C2245 1.391 . S
C2245 H2233 0.950 . S
C2245 C2241 1.393 . S
C2245 C2244 1.391 . S
C2246 H2236 0.950 . S
C2246 C2247 1.386 . S
C2246 C2248 1.391 . S
C2247 C2246 1.386 . S
C2247 C2251 1.393 . S
C2248 H2237 0.950 . S
C2248 C2246 1.391 . S
C2248 C2249 1.400 . S
C2249 C2243 1.491 . S
C2249 C2248 1.400 . S
C2249 C2250 1.398 . S
C2250 H2238 0.950 . S
C2250 C2249 1.398 . S
C2250 C2251 1.391 . S
C2251 H2239 0.950 . S
C2251 C2247 1.393 . S
C2251 C2250 1.391 . S
H2252 C2260 0.950 . S
H2253 C2265 0.950 . S
H2254 C2262 0.950 . S
H2255 C2264 0.950 . S
H2256 C2266 0.950 . S
H2257 C2268 0.950 . S
H2258 C2270 0.950 . S
H2259 C2271 0.950 . S
C2260 H2252 0.950 . S
C2260 C2261 1.386 . S
C2260 C2262 1.391 . S
C2261 C2260 1.386 . S
C2261 C2265 1.393 . S
C2262 H2254 0.950 . S
C2262 C2260 1.391 . S
C2262 C2263 1.400 . S
C2263 C2262 1.400 . S
C2263 C2264 1.398 . S
C2263 C2269 1.491 . S
C2264 H2255 0.950 . S
C2264 C2263 1.398 . S
C2264 C2265 1.391 . S
C2265 H2253 0.950 . S
C2265 C2261 1.393 . S
C2265 C2264 1.391 . S
C2266 H2256 0.950 . S
C2266 C2267 1.386 . S
C2266 C2268 1.391 . S
C2267 C2266 1.386 . S
C2267 C2271 1.393 . S
C2268 H2257 0.950 . S
C2268 C2266 1.391 . S
C2268 C2269 1.400 . S
C2269 C2263 1.491 . S
C2269 C2268 1.400 . S
C2269 C2270 1.398 . S
C2270 H2258 0.950 . S
C2270 C2269 1.398 . S
C2270 C2271 1.391 . S
C2271 H2259 0.950 . S
C2271 C2267 1.393 . S
C2271 C2270 1.391 . S
H2272 C2280 0.950 . S
H2273 C2285 0.950 . S
H2274 C2282 0.950 . S
H2275 C2284 0.950 . S
H2276 C2286 0.950 . S
H2277 C2288 0.950 . S
H2278 C2290 0.950 . S
H2279 C2291 0.950 . S
C2280 H2272 0.950 . S
C2280 C2281 1.386 . S
C2280 C2282 1.391 . S
C2281 C2280 1.386 . S
C2281 C2285 1.393 . S
C2282 H2274 0.950 . S
C2282 C2280 1.391 . S
C2282 C2283 1.400 . S
C2283 C2282 1.400 . S
C2283 C2284 1.398 . S
C2283 C2289 1.491 . S
C2284 H2275 0.950 . S
C2284 C2283 1.398 . S
C2284 C2285 1.391 . S
C2285 H2273 0.950 . S
C2285 C2281 1.393 . S
C2285 C2284 1.391 . S
C2286 H2276 0.950 . S
C2286 C2287 1.386 . S
C2286 C2288 1.391 . S
C2287 C2286 1.386 . S
C2287 C2291 1.393 . S
C2288 H2277 0.950 . S
C2288 C2286 1.391 . S
C2288 C2289 1.400 . S
C2289 C2283 1.491 . S
C2289 C2288 1.400 . S
C2289 C2290 1.398 . S
C2290 H2278 0.950 . S
C2290 C2289 1.398 . S
C2290 C2291 1.391 . S
C2291 H2279 0.950 . S
C2291 C2287 1.393 . S
C2291 C2290 1.391 . S
H2292 C2300 0.950 . S
H2293 C2305 0.950 . S
H2294 C2302 0.950 . S
H2295 C2304 0.950 . S
H2296 C2306 0.950 . S
H2297 C2308 0.950 . S
H2298 C2310 0.950 . S
H2299 C2311 0.950 . S
C2300 H2292 0.950 . S
C2300 C2301 1.386 . S
C2300 C2302 1.391 . S
C2301 C2300 1.386 . S
C2301 C2305 1.393 . S
C2302 H2294 0.950 . S
C2302 C2300 1.391 . S
C2302 C2303 1.400 . S
C2303 C2302 1.400 . S
C2303 C2304 1.398 . S
C2303 C2309 1.491 . S
C2304 H2295 0.950 . S
C2304 C2303 1.398 . S
C2304 C2305 1.391 . S
C2305 H2293 0.950 . S
C2305 C2301 1.393 . S
C2305 C2304 1.391 . S
C2306 H2296 0.950 . S
C2306 C2307 1.386 . S
C2306 C2308 1.391 . S
C2307 C2306 1.386 . S
C2307 C2311 1.393 . S
C2308 H2297 0.950 . S
C2308 C2306 1.391 . S
C2308 C2309 1.400 . S
C2309 C2303 1.491 . S
C2309 C2308 1.400 . S
C2309 C2310 1.398 . S
C2310 H2298 0.950 . S
C2310 C2309 1.398 . S
C2310 C2311 1.391 . S
C2311 H2299 0.950 . S
C2311 C2307 1.393 . S
C2311 C2310 1.391 . S
H2312 C2320 0.950 . S
H2313 C2325 0.950 . S
H2314 C2322 0.950 . S
H2315 C2324 0.950 . S
H2316 C2326 0.950 . S
H2317 C2328 0.950 . S
H2318 C2330 0.950 . S
H2319 C2331 0.950 . S
C2320 H2312 0.950 . S
C2320 C2321 1.386 . S
C2320 C2322 1.391 . S
C2321 C2320 1.386 . S
C2321 C2325 1.393 . S
C2322 H2314 0.950 . S
C2322 C2320 1.391 . S
C2322 C2323 1.400 . S
C2323 C2322 1.400 . S
C2323 C2324 1.398 . S
C2323 C2329 1.491 . S
C2324 H2315 0.950 . S
C2324 C2323 1.398 . S
C2324 C2325 1.391 . S
C2325 H2313 0.950 . S
C2325 C2321 1.393 . S
C2325 C2324 1.391 . S
C2326 H2316 0.950 . S
C2326 C2327 1.386 . S
C2326 C2328 1.391 . S
C2327 C2326 1.386 . S
C2327 C2331 1.393 . S
C2328 H2317 0.950 . S
C2328 C2326 1.391 . S
C2328 C2329 1.400 . S
C2329 C2323 1.491 . S
C2329 C2328 1.400 . S
C2329 C2330 1.398 . S
C2330 H2318 0.950 . S
C2330 C2329 1.398 . S
C2330 C2331 1.391 . S
C2331 H2319 0.950 . S
C2331 C2327 1.393 . S
C2331 C2330 1.391 . S
H2332 C2340 0.950 . S
H2333 C2345 0.950 . S
H2334 C2342 0.950 . S
H2335 C2344 0.950 . S
H2336 C2346 0.950 . S
H2337 C2348 0.950 . S
H2338 C2350 0.950 . S
H2339 C2351 0.950 . S
C2340 H2332 0.950 . S
C2340 C2341 1.386 . S
C2340 C2342 1.391 . S
C2341 C2340 1.386 . S
C2341 C2345 1.393 . S
C2342 H2334 0.950 . S
C2342 C2340 1.391 . S
C2342 C2343 1.400 . S
C2343 C2342 1.400 . S
C2343 C2344 1.398 . S
C2343 C2349 1.491 . S
C2344 H2335 0.950 . S
C2344 C2343 1.398 . S
C2344 C2345 1.391 . S
C2345 H2333 0.950 . S
C2345 C2341 1.393 . S
C2345 C2344 1.391 . S
C2346 H2336 0.950 . S
C2346 C2347 1.386 . S
C2346 C2348 1.391 . S
C2347 C2346 1.386 . S
C2347 C2351 1.393 . S
C2348 H2337 0.950 . S
C2348 C2346 1.391 . S
C2348 C2349 1.400 . S
C2349 C2343 1.491 . S
C2349 C2348 1.400 . S
C2349 C2350 1.398 . S
C2350 H2338 0.950 . S
C2350 C2349 1.398 . S
C2350 C2351 1.391 . S
C2351 H2339 0.950 . S
C2351 C2347 1.393 . S
C2351 C2350 1.391 . S
H2352 C2360 0.950 . S
H2353 C2365 0.950 . S
H2354 C2362 0.950 . S
H2355 C2364 0.950 . S
H2356 C2366 0.950 . S
H2357 C2368 0.950 . S
H2358 C2370 0.950 . S
H2359 C2371 0.950 . S
C2360 H2352 0.950 . S
C2360 C2361 1.386 . S
C2360 C2362 1.391 . S
C2361 C2360 1.386 . S
C2361 C2365 1.393 . S
C2362 H2354 0.950 . S
C2362 C2360 1.391 . S
C2362 C2363 1.400 . S
C2363 C2362 1.400 . S
C2363 C2364 1.398 . S
C2363 C2369 1.491 . S
C2364 H2355 0.950 . S
C2364 C2363 1.398 . S
C2364 C2365 1.391 . S
C2365 H2353 0.950 . S
C2365 C2361 1.393 . S
C2365 C2364 1.391 . S
C2366 H2356 0.950 . S
C2366 C2367 1.386 . S
C2366 C2368 1.391 . S
C2367 C2366 1.386 . S
C2367 C2371 1.393 . S
C2368 H2357 0.950 . S
C2368 C2366 1.391 . S
C2368 C2369 1.400 . S
C2369 C2363 1.491 . S
C2369 C2368 1.400 . S
C2369 C2370 1.398 . S
C2370 H2358 0.950 . S
C2370 C2369 1.398 . S
C2370 C2371 1.391 . S
C2371 H2359 0.950 . S
C2371 C2367 1.393 . S
C2371 C2370 1.391 . S
H2372 C2380 0.950 . S
H2373 C2385 0.950 . S
H2374 C2382 0.950 . S
H2375 C2384 0.950 . S
H2376 C2386 0.950 . S
H2377 C2388 0.950 . S
H2378 C2390 0.950 . S
H2379 C2391 0.950 . S
C2380 H2372 0.950 . S
C2380 C2381 1.386 . S
C2380 C2382 1.391 . S
C2381 C2380 1.386 . S
C2381 C2385 1.393 . S
C2382 H2374 0.950 . S
C2382 C2380 1.391 . S
C2382 C2383 1.400 . S
C2383 C2382 1.400 . S
C2383 C2384 1.398 . S
C2383 C2389 1.491 . S
C2384 H2375 0.950 . S
C2384 C2383 1.398 . S
C2384 C2385 1.391 . S
C2385 H2373 0.950 . S
C2385 C2381 1.393 . S
C2385 C2384 1.391 . S
C2386 H2376 0.950 . S
C2386 C2387 1.386 . S
C2386 C2388 1.391 . S
C2387 C2386 1.386 . S
C2387 C2391 1.393 . S
C2388 H2377 0.950 . S
C2388 C2386 1.391 . S
C2388 C2389 1.400 . S
C2389 C2383 1.491 . S
C2389 C2388 1.400 . S
C2389 C2390 1.398 . S
C2390 H2378 0.950 . S
C2390 C2389 1.398 . S
C2390 C2391 1.391 . S
C2391 H2379 0.950 . S
C2391 C2387 1.393 . S
C2391 C2390 1.391 . S
H2392 C2400 0.950 . S
H2393 C2405 0.950 . S
H2394 C2402 0.950 . S
H2395 C2404 0.950 . S
H2396 C2406 0.950 . S
H2397 C2408 0.950 . S
H2398 C2410 0.950 . S
H2399 C2411 0.950 . S
C2400 H2392 0.950 . S
C2400 C2401 1.386 . S
C2400 C2402 1.391 . S
C2401 C2400 1.386 . S
C2401 C2405 1.393 . S
C2402 H2394 0.950 . S
C2402 C2400 1.391 . S
C2402 C2403 1.400 . S
C2403 C2402 1.400 . S
C2403 C2404 1.398 . S
C2403 C2409 1.491 . S
C2404 H2395 0.950 . S
C2404 C2403 1.398 . S
C2404 C2405 1.391 . S
C2405 H2393 0.950 . S
C2405 C2401 1.393 . S
C2405 C2404 1.391 . S
C2406 H2396 0.950 . S
C2406 C2407 1.386 . S
C2406 C2408 1.391 . S
C2407 C2406 1.386 . S
C2407 C2411 1.393 . S
C2408 H2397 0.950 . S
C2408 C2406 1.391 . S
C2408 C2409 1.400 . S
C2409 C2403 1.491 . S
C2409 C2408 1.400 . S
C2409 C2410 1.398 . S
C2410 H2398 0.950 . S
C2410 C2409 1.398 . S
C2410 C2411 1.391 . S
C2411 H2399 0.950 . S
C2411 C2407 1.393 . S
C2411 C2410 1.391 . S
H2412 C2420 0.950 . S
H2413 C2425 0.950 . S
H2414 C2422 0.950 . S
H2415 C2424 0.950 . S
H2416 C2426 0.950 . S
H2417 C2428 0.950 . S
H2418 C2430 0.950 . S
H2419 C2431 0.950 . S
C2420 H2412 0.950 . S
C2420 C2421 1.386 . S
C2420 C2422 1.391 . S
C2421 C2420 1.386 . S
C2421 C2425 1.393 . S
C2422 H2414 0.950 . S
C2422 C2420 1.391 . S
C2422 C2423 1.400 . S
C2423 C2422 1.400 . S
C2423 C2424 1.398 . S
C2423 C2429 1.491 . S
C2424 H2415 0.950 . S
C2424 C2423 1.398 . S
C2424 C2425 1.391 . S
C2425 H2413 0.950 . S
C2425 C2421 1.393 . S
C2425 C2424 1.391 . S
C2426 H2416 0.950 . S
C2426 C2427 1.386 . S
C2426 C2428 1.391 . S
C2427 C2426 1.386 . S
C2427 C2431 1.393 . S
C2428 H2417 0.950 . S
C2428 C2426 1.391 . S
C2428 C2429 1.400 . S
C2429 C2423 1.491 . S
C2429 C2428 1.400 . S
C2429 C2430 1.398 . S
C2430 H2418 0.950 . S
C2430 C2429 1.398 . S
C2430 C2431 1.391 . S
C2431 H2419 0.950 . S
C2431 C2427 1.393 . S
C2431 C2430 1.391 . S
H2432 C2440 0.950 . S
H2433 C2445 0.950 . S
H2434 C2442 0.950 . S
H2435 C2444 0.950 . S
H2436 C2446 0.950 . S
H2437 C2448 0.950 . S
H2438 C2450 0.950 . S
H2439 C2451 0.950 . S
C2440 H2432 0.950 . S
C2440 C2441 1.386 . S
C2440 C2442 1.391 . S
C2441 C2440 1.386 . S
C2441 C2445 1.393 . S
C2442 H2434 0.950 . S
C2442 C2440 1.391 . S
C2442 C2443 1.400 . S
C2443 C2442 1.400 . S
C2443 C2444 1.398 . S
C2443 C2449 1.491 . S
C2444 H2435 0.950 . S
C2444 C2443 1.398 . S
C2444 C2445 1.391 . S
C2445 H2433 0.950 . S
C2445 C2441 1.393 . S
C2445 C2444 1.391 . S
C2446 H2436 0.950 . S
C2446 C2447 1.386 . S
C2446 C2448 1.391 . S
C2447 C2446 1.386 . S
C2447 C2451 1.393 . S
C2448 H2437 0.950 . S
C2448 C2446 1.391 . S
C2448 C2449 1.400 . S
C2449 C2443 1.491 . S
C2449 C2448 1.400 . S
C2449 C2450 1.398 . S
C2450 H2438 0.950 . S
C2450 C2449 1.398 . S
C2450 C2451 1.391 . S
C2451 H2439 0.950 . S
C2451 C2447 1.393 . S
C2451 C2450 1.391 . S
H2452 C2460 0.950 . S
H2453 C2465 0.950 . S
H2454 C2462 0.950 . S
H2455 C2464 0.950 . S
H2456 C2466 0.950 . S
H2457 C2468 0.950 . S
H2458 C2470 0.950 . S
H2459 C2471 0.950 . S
C2460 H2452 0.950 . S
C2460 C2461 1.386 . S
C2460 C2462 1.391 . S
C2461 C2460 1.386 . S
C2461 C2465 1.393 . S
C2462 H2454 0.950 . S
C2462 C2460 1.391 . S
C2462 C2463 1.400 . S
C2463 C2462 1.400 . S
C2463 C2464 1.398 . S
C2463 C2469 1.491 . S
C2464 H2455 0.950 . S
C2464 C2463 1.398 . S
C2464 C2465 1.391 . S
C2465 H2453 0.950 . S
C2465 C2461 1.393 . S
C2465 C2464 1.391 . S
C2466 H2456 0.950 . S
C2466 C2467 1.386 . S
C2466 C2468 1.391 . S
C2467 C2466 1.386 . S
C2467 C2471 1.393 . S
C2468 H2457 0.950 . S
C2468 C2466 1.391 . S
C2468 C2469 1.400 . S
C2469 C2463 1.491 . S
C2469 C2468 1.400 . S
C2469 C2470 1.398 . S
C2470 H2458 0.950 . S
C2470 C2469 1.398 . S
C2470 C2471 1.391 . S
C2471 H2459 0.950 . S
C2471 C2467 1.393 . S
C2471 C2470 1.391 . S
H2472 C2480 0.950 . S
H2473 C2485 0.950 . S
H2474 C2482 0.950 . S
H2475 C2484 0.950 . S
H2476 C2486 0.950 . S
H2477 C2488 0.950 . S
H2478 C2490 0.950 . S
H2479 C2491 0.950 . S
C2480 H2472 0.950 . S
C2480 C2481 1.386 . S
C2480 C2482 1.391 . S
C2481 C2480 1.386 . S
C2481 C2485 1.393 . S
C2482 H2474 0.950 . S
C2482 C2480 1.391 . S
C2482 C2483 1.400 . S
C2483 C2482 1.400 . S
C2483 C2484 1.398 . S
C2483 C2489 1.491 . S
C2484 H2475 0.950 . S
C2484 C2483 1.398 . S
C2484 C2485 1.391 . S
C2485 H2473 0.950 . S
C2485 C2481 1.393 . S
C2485 C2484 1.391 . S
C2486 H2476 0.950 . S
C2486 C2487 1.386 . S
C2486 C2488 1.391 . S
C2487 C2486 1.386 . S
C2487 C2491 1.393 . S
C2488 H2477 0.950 . S
C2488 C2486 1.391 . S
C2488 C2489 1.400 . S
C2489 C2483 1.491 . S
C2489 C2488 1.400 . S
C2489 C2490 1.398 . S
C2490 H2478 0.950 . S
C2490 C2489 1.398 . S
C2490 C2491 1.391 . S
C2491 H2479 0.950 . S
C2491 C2487 1.393 . S
C2491 C2490 1.391 . S
H2492 C2500 0.950 . S
H2493 C2505 0.950 . S
H2494 C2502 0.950 . S
H2495 C2504 0.950 . S
H2496 C2506 0.950 . S
H2497 C2508 0.950 . S
H2498 C2510 0.950 . S
H2499 C2511 0.950 . S
C2500 H2492 0.950 . S
C2500 C2501 1.386 . S
C2500 C2502 1.391 . S
C2501 C2500 1.386 . S
C2501 C2505 1.393 . S
C2502 H2494 0.950 . S
C2502 C2500 1.391 . S
C2502 C2503 1.400 . S
C2503 C2502 1.400 . S
C2503 C2504 1.398 . S
C2503 C2509 1.491 . S
C2504 H2495 0.950 . S
C2504 C2503 1.398 . S
C2504 C2505 1.391 . S
C2505 H2493 0.950 . S
C2505 C2501 1.393 . S
C2505 C2504 1.391 . S
C2506 H2496 0.950 . S
C2506 C2507 1.386 . S
C2506 C2508 1.391 . S
C2507 C2506 1.386 . S
C2507 C2511 1.393 . S
C2508 H2497 0.950 . S
C2508 C2506 1.391 . S
C2508 C2509 1.400 . S
C2509 C2503 1.491 . S
C2509 C2508 1.400 . S
C2509 C2510 1.398 . S
C2510 H2498 0.950 . S
C2510 C2509 1.398 . S
C2510 C2511 1.391 . S
C2511 H2499 0.950 . S
C2511 C2507 1.393 . S
C2511 C2510 1.391 . S
H2512 C2520 0.950 . S
H2513 C2525 0.950 . S
H2514 C2522 0.950 . S
H2515 C2524 0.950 . S
H2516 C2526 0.950 . S
H2517 C2528 0.950 . S
H2518 C2530 0.950 . S
H2519 C2531 0.950 . S
C2520 H2512 0.950 . S
C2520 C2521 1.386 . S
C2520 C2522 1.391 . S
C2521 C2520 1.386 . S
C2521 C2525 1.393 . S
C2522 H2514 0.950 . S
C2522 C2520 1.391 . S
C2522 C2523 1.400 . S
C2523 C2522 1.400 . S
C2523 C2524 1.398 . S
C2523 C2529 1.491 . S
C2524 H2515 0.950 . S
C2524 C2523 1.398 . S
C2524 C2525 1.391 . S
C2525 H2513 0.950 . S
C2525 C2521 1.393 . S
C2525 C2524 1.391 . S
C2526 H2516 0.950 . S
C2526 C2527 1.386 . S
C2526 C2528 1.391 . S
C2527 C2526 1.386 . S
C2527 C2531 1.393 . S
C2528 H2517 0.950 . S
C2528 C2526 1.391 . S
C2528 C2529 1.400 . S
C2529 C2523 1.491 . S
C2529 C2528 1.400 . S
C2529 C2530 1.398 . S
C2530 H2518 0.950 . S
C2530 C2529 1.398 . S
C2530 C2531 1.391 . S
C2531 H2519 0.950 . S
C2531 C2527 1.393 . S
C2531 C2530 1.391 . S
H2532 C2540 0.950 . S
H2533 C2545 0.950 . S
H2534 C2542 0.950 . S
H2535 C2544 0.950 . S
H2536 C2546 0.950 . S
H2537 C2548 0.950 . S
H2538 C2550 0.950 . S
H2539 C2551 0.950 . S
C2540 H2532 0.950 . S
C2540 C2541 1.386 . S
C2540 C2542 1.391 . S
C2541 C2540 1.386 . S
C2541 C2545 1.393 . S
C2542 H2534 0.950 . S
C2542 C2540 1.391 . S
C2542 C2543 1.400 . S
C2543 C2542 1.400 . S
C2543 C2544 1.398 . S
C2543 C2549 1.491 . S
C2544 H2535 0.950 . S
C2544 C2543 1.398 . S
C2544 C2545 1.391 . S
C2545 H2533 0.950 . S
C2545 C2541 1.393 . S
C2545 C2544 1.391 . S
C2546 H2536 0.950 . S
C2546 C2547 1.386 . S
C2546 C2548 1.391 . S
C2547 C2546 1.386 . S
C2547 C2551 1.393 . S
C2548 H2537 0.950 . S
C2548 C2546 1.391 . S
C2548 C2549 1.400 . S
C2549 C2543 1.491 . S
C2549 C2548 1.400 . S
C2549 C2550 1.398 . S
C2550 H2538 0.950 . S
C2550 C2549 1.398 . S
C2550 C2551 1.391 . S
C2551 H2539 0.950 . S
C2551 C2547 1.393 . S
C2551 C2550 1.391 . S
H2552 C2560 0.950 . S
H2553 C2565 0.950 . S
H2554 C2562 0.950 . S
H2555 C2564 0.950 . S
H2556 C2566 0.950 . S
H2557 C2568 0.950 . S
H2558 C2570 0.950 . S
H2559 C2571 0.950 . S
C2560 H2552 0.950 . S
C2560 C2561 1.386 . S
C2560 C2562 1.391 . S
C2561 C2560 1.386 . S
C2561 C2565 1.393 . S
C2562 H2554 0.950 . S
C2562 C2560 1.391 . S
C2562 C2563 1.400 . S
C2563 C2562 1.400 . S
C2563 C2564 1.398 . S
C2563 C2569 1.491 . S
C2564 H2555 0.950 . S
C2564 C2563 1.398 . S
C2564 C2565 1.391 . S
C2565 H2553 0.950 . S
C2565 C2561 1.393 . S
C2565 C2564 1.391 . S
C2566 H2556 0.950 . S
C2566 C2567 1.386 . S
C2566 C2568 1.391 . S
C2567 C2566 1.386 . S
C2567 C2571 1.393 . S
C2568 H2557 0.950 . S
C2568 C2566 1.391 . S
C2568 C2569 1.400 . S
C2569 C2563 1.491 . S
C2569 C2568 1.400 . S
C2569 C2570 1.398 . S
C2570 H2558 0.950 . S
C2570 C2569 1.398 . S
C2570 C2571 1.391 . S
C2571 H2559 0.950 . S
C2571 C2567 1.393 . S
C2571 C2570 1.391 . S
H2572 C2580 0.950 . S
H2573 C2585 0.950 . S
H2574 C2582 0.950 . S
H2575 C2584 0.950 . S
H2576 C2586 0.950 . S
H2577 C2588 0.950 . S
H2578 C2590 0.950 . S
H2579 C2591 0.950 . S
C2580 H2572 0.950 . S
C2580 C2581 1.386 . S
C2580 C2582 1.391 . S
C2581 C2580 1.386 . S
C2581 C2585 1.393 . S
C2582 H2574 0.950 . S
C2582 C2580 1.391 . S
C2582 C2583 1.400 . S
C2583 C2582 1.400 . S
C2583 C2584 1.398 . S
C2583 C2589 1.491 . S
C2584 H2575 0.950 . S
C2584 C2583 1.398 . S
C2584 C2585 1.391 . S
C2585 H2573 0.950 . S
C2585 C2581 1.393 . S
C2585 C2584 1.391 . S
C2586 H2576 0.950 . S
C2586 C2587 1.386 . S
C2586 C2588 1.391 . S
C2587 C2586 1.386 . S
C2587 C2591 1.393 . S
C2588 H2577 0.950 . S
C2588 C2586 1.391 . S
C2588 C2589 1.400 . S
C2589 C2583 1.491 . S
C2589 C2588 1.400 . S
C2589 C2590 1.398 . S
C2590 H2578 0.950 . S
C2590 C2589 1.398 . S
C2590 C2591 1.391 . S
C2591 H2579 0.950 . S
C2591 C2587 1.393 . S
C2591 C2590 1.391 . S
H2592 C2600 0.950 . S
H2593 C2605 0.950 . S
H2594 C2602 0.950 . S
H2595 C2604 0.950 . S
H2596 C2606 0.950 . S
H2597 C2608 0.950 . S
H2598 C2610 0.950 . S
H2599 C2611 0.950 . S
C2600 H2592 0.950 . S
C2600 C2601 1.386 . S
C2600 C2602 1.391 . S
C2601 C2600 1.386 . S
C2601 C2605 1.393 . S
C2602 H2594 0.950 . S
C2602 C2600 1.391 . S
C2602 C2603 1.400 . S
C2603 C2602 1.400 . S
C2603 C2604 1.398 . S
C2603 C2609 1.491 . S
C2604 H2595 0.950 . S
C2604 C2603 1.398 . S
C2604 C2605 1.391 . S
C2605 H2593 0.950 . S
C2605 C2601 1.393 . S
C2605 C2604 1.391 . S
C2606 H2596 0.950 . S
C2606 C2607 1.386 . S
C2606 C2608 1.391 . S
C2607 C2606 1.386 . S
C2607 C2611 1.393 . S
C2608 H2597 0.950 . S
C2608 C2606 1.391 . S
C2608 C2609 1.400 . S
C2609 C2603 1.491 . S
C2609 C2608 1.400 . S
C2609 C2610 1.398 . S
C2610 H2598 0.950 . S
C2610 C2609 1.398 . S
C2610 C2611 1.391 . S
C2611 H2599 0.950 . S
C2611 C2607 1.393 . S
C2611 C2610 1.391 . S
H2612 C2620 0.950 . S
H2613 C2625 0.950 . S
H2614 C2622 0.950 . S
H2615 C2624 0.950 . S
H2616 C2626 0.950 . S
H2617 C2628 0.950 . S
H2618 C2630 0.950 . S
H2619 C2631 0.950 . S
C2620 H2612 0.950 . S
C2620 C2621 1.386 . S
C2620 C2622 1.391 . S
C2621 C2620 1.386 . S
C2621 C2625 1.393 . S
C2622 H2614 0.950 . S
C2622 C2620 1.391 . S
C2622 C2623 1.400 . S
C2623 C2622 1.400 . S
C2623 C2624 1.398 . S
C2623 C2629 1.491 . S
C2624 H2615 0.950 . S
C2624 C2623 1.398 . S
C2624 C2625 1.391 . S
C2625 H2613 0.950 . S
C2625 C2621 1.393 . S
C2625 C2624 1.391 . S
C2626 H2616 0.950 . S
C2626 C2627 1.386 . S
C2626 C2628 1.391 . S
C2627 C2626 1.386 . S
C2627 C2631 1.393 . S
C2628 H2617 0.950 . S
C2628 C2626 1.391 . S
C2628 C2629 1.400 . S
C2629 C2623 1.491 . S
C2629 C2628 1.400 . S
C2629 C2630 1.398 . S
C2630 H2618 0.950 . S
C2630 C2629 1.398 . S
C2630 C2631 1.391 . S
C2631 H2619 0.950 . S
C2631 C2627 1.393 . S
C2631 C2630 1.391 . S
H2632 C2640 0.950 . S
H2633 C2645 0.950 . S
H2634 C2642 0.950 . S
H2635 C2644 0.950 . S
H2636 C2646 0.950 . S
H2637 C2648 0.950 . S
H2638 C2650 0.950 . S
H2639 C2651 0.950 . S
C2640 H2632 0.950 . S
C2640 C2641 1.386 . S
C2640 C2642 1.391 . S
C2641 C2640 1.386 . S
C2641 C2645 1.393 . S
C2642 H2634 0.950 . S
C2642 C2640 1.391 . S
C2642 C2643 1.400 . S
C2643 C2642 1.400 . S
C2643 C2644 1.398 . S
C2643 C2649 1.491 . S
C2644 H2635 0.950 . S
C2644 C2643 1.398 . S
C2644 C2645 1.391 . S
C2645 H2633 0.950 . S
C2645 C2641 1.393 . S
C2645 C2644 1.391 . S
C2646 H2636 0.950 . S
C2646 C2647 1.386 . S
C2646 C2648 1.391 . S
C2647 C2646 1.386 . S
C2647 C2651 1.393 . S
C2648 H2637 0.950 . S
C2648 C2646 1.391 . S
C2648 C2649 1.400 . S
C2649 C2643 1.491 . S
C2649 C2648 1.400 . S
C2649 C2650 1.398 . S
C2650 H2638 0.950 . S
C2650 C2649 1.398 . S
C2650 C2651 1.391 . S
C2651 H2639 0.950 . S
C2651 C2647 1.393 . S
C2651 C2650 1.391 . S
H2652 C2660 0.950 . S
H2653 C2665 0.950 . S
H2654 C2662 0.950 . S
H2655 C2664 0.950 . S
H2656 C2666 0.950 . S
H2657 C2668 0.950 . S
H2658 C2670 0.950 . S
H2659 C2671 0.950 . S
C2660 H2652 0.950 . S
C2660 C2661 1.386 . S
C2660 C2662 1.391 . S
C2661 C2660 1.386 . S
C2661 C2665 1.393 . S
C2662 H2654 0.950 . S
C2662 C2660 1.391 . S
C2662 C2663 1.400 . S
C2663 C2662 1.400 . S
C2663 C2664 1.398 . S
C2663 C2669 1.491 . S
C2664 H2655 0.950 . S
C2664 C2663 1.398 . S
C2664 C2665 1.391 . S
C2665 H2653 0.950 . S
C2665 C2661 1.393 . S
C2665 C2664 1.391 . S
C2666 H2656 0.950 . S
C2666 C2667 1.386 . S
C2666 C2668 1.391 . S
C2667 C2666 1.386 . S
C2667 C2671 1.393 . S
C2668 H2657 0.950 . S
C2668 C2666 1.391 . S
C2668 C2669 1.400 . S
C2669 C2663 1.491 . S
C2669 C2668 1.400 . S
C2669 C2670 1.398 . S
C2670 H2658 0.950 . S
C2670 C2669 1.398 . S
C2670 C2671 1.391 . S
C2671 H2659 0.950 . S
C2671 C2667 1.393 . S
C2671 C2670 1.391 . S
H2672 C2680 0.950 . S
H2673 C2685 0.950 . S
H2674 C2682 0.950 . S
H2675 C2684 0.950 . S
H2676 C2686 0.950 . S
H2677 C2688 0.950 . S
H2678 C2690 0.950 . S
H2679 C2691 0.950 . S
C2680 H2672 0.950 . S
C2680 C2681 1.386 . S
C2680 C2682 1.391 . S
C2681 C2680 1.386 . S
C2681 C2685 1.393 . S
C2682 H2674 0.950 . S
C2682 C2680 1.391 . S
C2682 C2683 1.400 . S
C2683 C2682 1.400 . S
C2683 C2684 1.398 . S
C2683 C2689 1.491 . S
C2684 H2675 0.950 . S
C2684 C2683 1.398 . S
C2684 C2685 1.391 . S
C2685 H2673 0.950 . S
C2685 C2681 1.393 . S
C2685 C2684 1.391 . S
C2686 H2676 0.950 . S
C2686 C2687 1.386 . S
C2686 C2688 1.391 . S
C2687 C2686 1.386 . S
C2687 C2691 1.393 . S
C2688 H2677 0.950 . S
C2688 C2686 1.391 . S
C2688 C2689 1.400 . S
C2689 C2683 1.491 . S
C2689 C2688 1.400 . S
C2689 C2690 1.398 . S
C2690 H2678 0.950 . S
C2690 C2689 1.398 . S
C2690 C2691 1.391 . S
C2691 H2679 0.950 . S
C2691 C2687 1.393 . S
C2691 C2690 1.391 . S
H2692 C2700 0.950 . S
H2693 C2705 0.950 . S
H2694 C2702 0.950 . S
H2695 C2704 0.950 . S
H2696 C2706 0.950 . S
H2697 C2708 0.950 . S
H2698 C2710 0.950 . S
H2699 C2711 0.950 . S
C2700 H2692 0.950 . S
C2700 C2701 1.386 . S
C2700 C2702 1.391 . S
C2701 C2700 1.386 . S
C2701 C2705 1.393 . S
C2702 H2694 0.950 . S
C2702 C2700 1.391 . S
C2702 C2703 1.400 . S
C2703 C2702 1.400 . S
C2703 C2704 1.398 . S
C2703 C2709 1.491 . S
C2704 H2695 0.950 . S
C2704 C2703 1.398 . S
C2704 C2705 1.391 . S
C2705 H2693 0.950 . S
C2705 C2701 1.393 . S
C2705 C2704 1.391 . S
C2706 H2696 0.950 . S
C2706 C2707 1.386 . S
C2706 C2708 1.391 . S
C2707 C2706 1.386 . S
C2707 C2711 1.393 . S
C2708 H2697 0.950 . S
C2708 C2706 1.391 . S
C2708 C2709 1.400 . S
C2709 C2703 1.491 . S
C2709 C2708 1.400 . S
C2709 C2710 1.398 . S
C2710 H2698 0.950 . S
C2710 C2709 1.398 . S
C2710 C2711 1.391 . S
C2711 H2699 0.950 . S
C2711 C2707 1.393 . S
C2711 C2710 1.391 . S
H2712 C2720 0.950 . S
H2713 C2725 0.950 . S
H2714 C2722 0.950 . S
H2715 C2724 0.950 . S
H2716 C2726 0.950 . S
H2717 C2728 0.950 . S
H2718 C2730 0.950 . S
H2719 C2731 0.950 . S
C2720 H2712 0.950 . S
C2720 C2721 1.386 . S
C2720 C2722 1.391 . S
C2721 C2720 1.386 . S
C2721 C2725 1.393 . S
C2722 H2714 0.950 . S
C2722 C2720 1.391 . S
C2722 C2723 1.400 . S
C2723 C2722 1.400 . S
C2723 C2724 1.398 . S
C2723 C2729 1.491 . S
C2724 H2715 0.950 . S
C2724 C2723 1.398 . S
C2724 C2725 1.391 . S
C2725 H2713 0.950 . S
C2725 C2721 1.393 . S
C2725 C2724 1.391 . S
C2726 H2716 0.950 . S
C2726 C2727 1.386 . S
C2726 C2728 1.391 . S
C2727 C2726 1.386 . S
C2727 C2731 1.393 . S
C2728 H2717 0.950 . S
C2728 C2726 1.391 . S
C2728 C2729 1.400 . S
C2729 C2723 1.491 . S
C2729 C2728 1.400 . S
C2729 C2730 1.398 . S
C2730 H2718 0.950 . S
C2730 C2729 1.398 . S
C2730 C2731 1.391 . S
C2731 H2719 0.950 . S
C2731 C2727 1.393 . S
C2731 C2730 1.391 . S
H2732 C2740 0.950 . S
H2733 C2745 0.950 . S
H2734 C2742 0.950 . S
H2735 C2744 0.950 . S
H2736 C2746 0.950 . S
H2737 C2748 0.950 . S
H2738 C2750 0.950 . S
H2739 C2751 0.950 . S
C2740 H2732 0.950 . S
C2740 C2741 1.386 . S
C2740 C2742 1.391 . S
C2741 C2740 1.386 . S
C2741 C2745 1.393 . S
C2742 H2734 0.950 . S
C2742 C2740 1.391 . S
C2742 C2743 1.400 . S
C2743 C2742 1.400 . S
C2743 C2744 1.398 . S
C2743 C2749 1.491 . S
C2744 H2735 0.950 . S
C2744 C2743 1.398 . S
C2744 C2745 1.391 . S
C2745 H2733 0.950 . S
C2745 C2741 1.393 . S
C2745 C2744 1.391 . S
C2746 H2736 0.950 . S
C2746 C2747 1.386 . S
C2746 C2748 1.391 . S
C2747 C2746 1.386 . S
C2747 C2751 1.393 . S
C2748 H2737 0.950 . S
C2748 C2746 1.391 . S
C2748 C2749 1.400 . S
C2749 C2743 1.491 . S
C2749 C2748 1.400 . S
C2749 C2750 1.398 . S
C2750 H2738 0.950 . S
C2750 C2749 1.398 . S
C2750 C2751 1.391 . S
C2751 H2739 0.950 . S
C2751 C2747 1.393 . S
C2751 C2750 1.391 . S
H2752 C2760 0.950 . S
H2753 C2765 0.950 . S
H2754 C2762 0.950 . S
H2755 C2764 0.950 . S
H2756 C2766 0.950 . S
H2757 C2768 0.950 . S
H2758 C2770 0.950 . S
H2759 C2771 0.950 . S
C2760 H2752 0.950 . S
C2760 C2761 1.386 . S
C2760 C2762 1.391 . S
C2761 C2760 1.386 . S
C2761 C2765 1.393 . S
C2762 H2754 0.950 . S
C2762 C2760 1.391 . S
C2762 C2763 1.400 . S
C2763 C2762 1.400 . S
C2763 C2764 1.398 . S
C2763 C2769 1.491 . S
C2764 H2755 0.950 . S
C2764 C2763 1.398 . S
C2764 C2765 1.391 . S
C2765 H2753 0.950 . S
C2765 C2761 1.393 . S
C2765 C2764 1.391 . S
C2766 H2756 0.950 . S
C2766 C2767 1.386 . S
C2766 C2768 1.391 . S
C2767 C2766 1.386 . S
C2767 C2771 1.393 . S
C2768 H2757 0.950 . S
C2768 C2766 1.391 . S
C2768 C2769 1.400 . S
C2769 C2763 1.491 . S
C2769 C2768 1.400 . S
C2769 C2770 1.398 . S
C2770 H2758 0.950 . S
C2770 C2769 1.398 . S
C2770 C2771 1.391 . S
C2771 H2759 0.950 . S
C2771 C2767 1.393 . S
C2771 C2770 1.391 . S
H2772 C2780 0.950 . S
H2773 C2785 0.950 . S
H2774 C2782 0.950 . S
H2775 C2784 0.950 . S
H2776 C2786 0.950 . S
H2777 C2788 0.950 . S
H2778 C2790 0.950 . S
H2779 C2791 0.950 . S
C2780 H2772 0.950 . S
C2780 C2781 1.386 . S
C2780 C2782 1.391 . S
C2781 C2780 1.386 . S
C2781 C2785 1.393 . S
C2782 H2774 0.950 . S
C2782 C2780 1.391 . S
C2782 C2783 1.400 . S
C2783 C2782 1.400 . S
C2783 C2784 1.398 . S
C2783 C2789 1.491 . S
C2784 H2775 0.950 . S
C2784 C2783 1.398 . S
C2784 C2785 1.391 . S
C2785 H2773 0.950 . S
C2785 C2781 1.393 . S
C2785 C2784 1.391 . S
C2786 H2776 0.950 . S
C2786 C2787 1.386 . S
C2786 C2788 1.391 . S
C2787 C2786 1.386 . S
C2787 C2791 1.393 . S
C2788 H2777 0.950 . S
C2788 C2786 1.391 . S
C2788 C2789 1.400 . S
C2789 C2783 1.491 . S
C2789 C2788 1.400 . S
C2789 C2790 1.398 . S
C2790 H2778 0.950 . S
C2790 C2789 1.398 . S
C2790 C2791 1.391 . S
C2791 H2779 0.950 . S
C2791 C2787 1.393 . S
C2791 C2790 1.391 . S
H2792 C2800 0.950 . S
H2793 C2805 0.950 . S
H2794 C2802 0.950 . S
H2795 C2804 0.950 . S
H2796 C2806 0.950 . S
H2797 C2808 0.950 . S
H2798 C2810 0.950 . S
H2799 C2811 0.950 . S
C2800 H2792 0.950 . S
C2800 C2801 1.386 . S
C2800 C2802 1.391 . S
C2801 C2800 1.386 . S
C2801 C2805 1.393 . S
C2802 H2794 0.950 . S
C2802 C2800 1.391 . S
C2802 C2803 1.400 . S
C2803 C2802 1.400 . S
C2803 C2804 1.398 . S
C2803 C2809 1.491 . S
C2804 H2795 0.950 . S
C2804 C2803 1.398 . S
C2804 C2805 1.391 . S
C2805 H2793 0.950 . S
C2805 C2801 1.393 . S
C2805 C2804 1.391 . S
C2806 H2796 0.950 . S
C2806 C2807 1.386 . S
C2806 C2808 1.391 . S
C2807 C2806 1.386 . S
C2807 C2811 1.393 . S
C2808 H2797 0.950 . S
C2808 C2806 1.391 . S
C2808 C2809 1.400 . S
C2809 C2803 1.491 . S
C2809 C2808 1.400 . S
C2809 C2810 1.398 . S
C2810 H2798 0.950 . S
C2810 C2809 1.398 . S
C2810 C2811 1.391 . S
C2811 H2799 0.950 . S
C2811 C2807 1.393 . S
C2811 C2810 1.391 . S
H2812 C2820 0.950 . S
H2813 C2825 0.950 . S
H2814 C2822 0.950 . S
H2815 C2824 0.950 . S
H2816 C2826 0.950 . S
H2817 C2828 0.950 . S
H2818 C2830 0.950 . S
H2819 C2831 0.950 . S
C2820 H2812 0.950 . S
C2820 C2821 1.386 . S
C2820 C2822 1.391 . S
C2821 C2820 1.386 . S
C2821 C2825 1.393 . S
C2822 H2814 0.950 . S
C2822 C2820 1.391 . S
C2822 C2823 1.400 . S
C2823 C2822 1.400 . S
C2823 C2824 1.398 . S
C2823 C2829 1.491 . S
C2824 H2815 0.950 . S
C2824 C2823 1.398 . S
C2824 C2825 1.391 . S
C2825 H2813 0.950 . S
C2825 C2821 1.393 . S
C2825 C2824 1.391 . S
C2826 H2816 0.950 . S
C2826 C2827 1.386 . S
C2826 C2828 1.391 . S
C2827 C2826 1.386 . S
C2827 C2831 1.393 . S
C2828 H2817 0.950 . S
C2828 C2826 1.391 . S
C2828 C2829 1.400 . S
C2829 C2823 1.491 . S
C2829 C2828 1.400 . S
C2829 C2830 1.398 . S
C2830 H2818 0.950 . S
C2830 C2829 1.398 . S
C2830 C2831 1.391 . S
C2831 H2819 0.950 . S
C2831 C2827 1.393 . S
C2831 C2830 1.391 . S
H2832 C2840 0.950 . S
H2833 C2845 0.950 . S
H2834 C2842 0.950 . S
H2835 C2844 0.950 . S
H2836 C2846 0.950 . S
H2837 C2848 0.950 . S
H2838 C2850 0.950 . S
H2839 C2851 0.950 . S
C2840 H2832 0.950 . S
C2840 C2841 1.386 . S
C2840 C2842 1.391 . S
C2841 C2840 1.386 . S
C2841 C2845 1.393 . S
C2842 H2834 0.950 . S
C2842 C2840 1.391 . S
C2842 C2843 1.400 . S
C2843 C2842 1.400 . S
C2843 C2844 1.398 . S
C2843 C2849 1.491 . S
C2844 H2835 0.950 . S
C2844 C2843 1.398 . S
C2844 C2845 1.391 . S
C2845 H2833 0.950 . S
C2845 C2841 1.393 . S
C2845 C2844 1.391 . S
C2846 H2836 0.950 . S
C2846 C2847 1.386 . S
C2846 C2848 1.391 . S
C2847 C2846 1.386 . S
C2847 C2851 1.393 . S
C2848 H2837 0.950 . S
C2848 C2846 1.391 . S
C2848 C2849 1.400 . S
C2849 C2843 1.491 . S
C2849 C2848 1.400 . S
C2849 C2850 1.398 . S
C2850 H2838 0.950 . S
C2850 C2849 1.398 . S
C2850 C2851 1.391 . S
C2851 H2839 0.950 . S
C2851 C2847 1.393 . S
C2851 C2850 1.391 . S
H2852 C2860 0.950 . S
H2853 C2865 0.950 . S
H2854 C2862 0.950 . S
H2855 C2864 0.950 . S
H2856 C2866 0.950 . S
H2857 C2868 0.950 . S
H2858 C2870 0.950 . S
H2859 C2871 0.950 . S
C2860 H2852 0.950 . S
C2860 C2861 1.386 . S
C2860 C2862 1.391 . S
C2861 C2860 1.386 . S
C2861 C2865 1.393 . S
C2862 H2854 0.950 . S
C2862 C2860 1.391 . S
C2862 C2863 1.400 . S
C2863 C2862 1.400 . S
C2863 C2864 1.398 . S
C2863 C2869 1.491 . S
C2864 H2855 0.950 . S
C2864 C2863 1.398 . S
C2864 C2865 1.391 . S
C2865 H2853 0.950 . S
C2865 C2861 1.393 . S
C2865 C2864 1.391 . S
C2866 H2856 0.950 . S
C2866 C2867 1.386 . S
C2866 C2868 1.391 . S
C2867 C2866 1.386 . S
C2867 C2871 1.393 . S
C2868 H2857 0.950 . S
C2868 C2866 1.391 . S
C2868 C2869 1.400 . S
C2869 C2863 1.491 . S
C2869 C2868 1.400 . S
C2869 C2870 1.398 . S
C2870 H2858 0.950 . S
C2870 C2869 1.398 . S
C2870 C2871 1.391 . S
C2871 H2859 0.950 . S
C2871 C2867 1.393 . S
C2871 C2870 1.391 . S
H2872 C2880 0.950 . S
H2873 C2885 0.950 . S
H2874 C2882 0.950 . S
H2875 C2884 0.950 . S
H2876 C2886 0.950 . S
H2877 C2888 0.950 . S
H2878 C2890 0.950 . S
H2879 C2891 0.950 . S
C2880 H2872 0.950 . S
C2880 C2881 1.386 . S
C2880 C2882 1.391 . S
C2881 C2880 1.386 . S
C2881 C2885 1.393 . S
C2882 H2874 0.950 . S
C2882 C2880 1.391 . S
C2882 C2883 1.400 . S
C2883 C2882 1.400 . S
C2883 C2884 1.398 . S
C2883 C2889 1.491 . S
C2884 H2875 0.950 . S
C2884 C2883 1.398 . S
C2884 C2885 1.391 . S
C2885 H2873 0.950 . S
C2885 C2881 1.393 . S
C2885 C2884 1.391 . S
C2886 H2876 0.950 . S
C2886 C2887 1.386 . S
C2886 C2888 1.391 . S
C2887 C2886 1.386 . S
C2887 C2891 1.393 . S
C2888 H2877 0.950 . S
C2888 C2886 1.391 . S
C2888 C2889 1.400 . S
C2889 C2883 1.491 . S
C2889 C2888 1.400 . S
C2889 C2890 1.398 . S
C2890 H2878 0.950 . S
C2890 C2889 1.398 . S
C2890 C2891 1.391 . S
C2891 H2879 0.950 . S
C2891 C2887 1.393 . S
C2891 C2890 1.391 . S
H2892 C2900 0.950 . S
H2893 C2905 0.950 . S
H2894 C2902 0.950 . S
H2895 C2904 0.950 . S
H2896 C2906 0.950 . S
H2897 C2908 0.950 . S
H2898 C2910 0.950 . S
H2899 C2911 0.950 . S
C2900 H2892 0.950 . S
C2900 C2901 1.386 . S
C2900 C2902 1.391 . S
C2901 C2900 1.386 . S
C2901 C2905 1.393 . S
C2902 H2894 0.950 . S
C2902 C2900 1.391 . S
C2902 C2903 1.400 . S
C2903 C2902 1.400 . S
C2903 C2904 1.398 . S
C2903 C2909 1.491 . S
C2904 H2895 0.950 . S
C2904 C2903 1.398 . S
C2904 C2905 1.391 . S
C2905 H2893 0.950 . S
C2905 C2901 1.393 . S
C2905 C2904 1.391 . S
C2906 H2896 0.950 . S
C2906 C2907 1.386 . S
C2906 C2908 1.391 . S
C2907 C2906 1.386 . S
C2907 C2911 1.393 . S
C2908 H2897 0.950 . S
C2908 C2906 1.391 . S
C2908 C2909 1.400 . S
C2909 C2903 1.491 . S
C2909 C2908 1.400 . S
C2909 C2910 1.398 . S
C2910 H2898 0.950 . S
C2910 C2909 1.398 . S
C2910 C2911 1.391 . S
C2911 H2899 0.950 . S
C2911 C2907 1.393 . S
C2911 C2910 1.391 . S
H2912 C2920 0.950 . S
H2913 C2925 0.950 . S
H2914 C2922 0.950 . S
H2915 C2924 0.950 . S
H2916 C2926 0.950 . S
H2917 C2928 0.950 . S
H2918 C2930 0.950 . S
H2919 C2931 0.950 . S
C2920 H2912 0.950 . S
C2920 C2921 1.386 . S
C2920 C2922 1.391 . S
C2921 C2920 1.386 . S
C2921 C2925 1.393 . S
C2922 H2914 0.950 . S
C2922 C2920 1.391 . S
C2922 C2923 1.400 . S
C2923 C2922 1.400 . S
C2923 C2924 1.398 . S
C2923 C2929 1.491 . S
C2924 H2915 0.950 . S
C2924 C2923 1.398 . S
C2924 C2925 1.391 . S
C2925 H2913 0.950 . S
C2925 C2921 1.393 . S
C2925 C2924 1.391 . S
C2926 H2916 0.950 . S
C2926 C2927 1.386 . S
C2926 C2928 1.391 . S
C2927 C2926 1.386 . S
C2927 C2931 1.393 . S
C2928 H2917 0.950 . S
C2928 C2926 1.391 . S
C2928 C2929 1.400 . S
C2929 C2923 1.491 . S
C2929 C2928 1.400 . S
C2929 C2930 1.398 . S
C2930 H2918 0.950 . S
C2930 C2929 1.398 . S
C2930 C2931 1.391 . S
C2931 H2919 0.950 . S
C2931 C2927 1.393 . S
C2931 C2930 1.391 . S
H2932 C2940 0.950 . S
H2933 C2945 0.950 . S
H2934 C2942 0.950 . S
H2935 C2944 0.950 . S
H2936 C2946 0.950 . S
H2937 C2948 0.950 . S
H2938 C2950 0.950 . S
H2939 C2951 0.950 . S
C2940 H2932 0.950 . S
C2940 C2941 1.386 . S
C2940 C2942 1.391 . S
C2941 C2940 1.386 . S
C2941 C2945 1.393 . S
C2942 H2934 0.950 . S
C2942 C2940 1.391 . S
C2942 C2943 1.400 . S
C2943 C2942 1.400 . S
C2943 C2944 1.398 . S
C2943 C2949 1.491 . S
C2944 H2935 0.950 . S
C2944 C2943 1.398 . S
C2944 C2945 1.391 . S
C2945 H2933 0.950 . S
C2945 C2941 1.393 . S
C2945 C2944 1.391 . S
C2946 H2936 0.950 . S
C2946 C2947 1.386 . S
C2946 C2948 1.391 . S
C2947 C2946 1.386 . S
C2947 C2951 1.393 . S
C2948 H2937 0.950 . S
C2948 C2946 1.391 . S
C2948 C2949 1.400 . S
C2949 C2943 1.491 . S
C2949 C2948 1.400 . S
C2949 C2950 1.398 . S
C2950 H2938 0.950 . S
C2950 C2949 1.398 . S
C2950 C2951 1.391 . S
C2951 H2939 0.950 . S
C2951 C2947 1.393 . S
C2951 C2950 1.391 . S
H2952 C2960 0.950 . S
H2953 C2965 0.950 . S
H2954 C2962 0.950 . S
H2955 C2964 0.950 . S
H2956 C2966 0.950 . S
H2957 C2968 0.950 . S
H2958 C2970 0.950 . S
H2959 C2971 0.950 . S
C2960 H2952 0.950 . S
C2960 C2961 1.386 . S
C2960 C2962 1.391 . S
C2961 C2960 1.386 . S
C2961 C2965 1.393 . S
C2962 H2954 0.950 . S
C2962 C2960 1.391 . S
C2962 C2963 1.400 . S
C2963 C2962 1.400 . S
C2963 C2964 1.398 . S
C2963 C2969 1.491 . S
C2964 H2955 0.950 . S
C2964 C2963 1.398 . S
C2964 C2965 1.391 . S
C2965 H2953 0.950 . S
C2965 C2961 1.393 . S
C2965 C2964 1.391 . S
C2966 H2956 0.950 . S
C2966 C2967 1.386 . S
C2966 C2968 1.391 . S
C2967 C2966 1.386 . S
C2967 C2971 1.393 . S
C2968 H2957 0.950 . S
C2968 C2966 1.391 . S
C2968 C2969 1.400 . S
C2969 C2963 1.491 . S
C2969 C2968 1.400 . S
C2969 C2970 1.398 . S
C2970 H2958 0.950 . S
C2970 C2969 1.398 . S
C2970 C2971 1.391 . S
C2971 H2959 0.950 . S
C2971 C2967 1.393 . S
C2971 C2970 1.391 . S
H2972 C2980 0.950 . S
H2973 C2985 0.950 . S
H2974 C2982 0.950 . S
H2975 C2984 0.950 . S
H2976 C2986 0.950 . S
H2977 C2988 0.950 . S
H2978 C2990 0.950 . S
H2979 C2991 0.950 . S
C2980 H2972 0.950 . S
C2980 C2981 1.386 . S
C2980 C2982 1.391 . S
C2981 C2980 1.386 . S
C2981 C2985 1.393 . S
C2982 H2974 0.950 . S
C2982 C2980 1.391 . S
C2982 C2983 1.400 . S
C2983 C2982 1.400 . S
C2983 C2984 1.398 . S
C2983 C2989 1.491 . S
C2984 H2975 0.950 . S
C2984 C2983 1.398 . S
C2984 C2985 1.391 . S
C2985 H2973 0.950 . S
C2985 C2981 1.393 . S
C2985 C2984 1.391 . S
C2986 H2976 0.950 . S
C2986 C2987 1.386 . S
C2986 C2988 1.391 . S
C2987 C2986 1.386 . S
C2987 C2991 1.393 . S
C2988 H2977 0.950 . S
C2988 C2986 1.391 . S
C2988 C2989 1.400 . S
C2989 C2983 1.491 . S
C2989 C2988 1.400 . S
C2989 C2990 1.398 . S
C2990 H2978 0.950 . S
C2990 C2989 1.398 . S
C2990 C2991 1.391 . S
C2991 H2979 0.950 . S
C2991 C2987 1.393 . S
C2991 C2990 1.391 . S
H2992 C3000 0.950 . S
H2993 C3005 0.950 . S
H2994 C3002 0.950 . S
H2995 C3004 0.950 . S
H2996 C3006 0.950 . S
H2997 C3008 0.950 . S
H2998 C3010 0.950 . S
H2999 C3011 0.950 . S
C3000 H2992 0.950 . S
C3000 C3001 1.386 . S
C3000 C3002 1.391 . S
C3001 C3000 1.386 . S
C3001 C3005 1.393 . S
C3002 H2994 0.950 . S
C3002 C3000 1.391 . S
C3002 C3003 1.400 . S
C3003 C3002 1.400 . S
C3003 C3004 1.398 . S
C3003 C3009 1.491 . S
C3004 H2995 0.950 . S
C3004 C3003 1.398 . S
C3004 C3005 1.391 . S
C3005 H2993 0.950 . S
C3005 C3001 1.393 . S
C3005 C3004 1.391 . S
C3006 H2996 0.950 . S
C3006 C3007 1.386 . S
C3006 C3008 1.391 . S
C3007 C3006 1.386 . S
C3007 C3011 1.393 . S
C3008 H2997 0.950 . S
C3008 C3006 1.391 . S
C3008 C3009 1.400 . S
C3009 C3003 1.491 . S
C3009 C3008 1.400 . S
C3009 C3010 1.398 . S
C3010 H2998 0.950 . S
C3010 C3009 1.398 . S
C3010 C3011 1.391 . S
C3011 H2999 0.950 . S
C3011 C3007 1.393 . S
C3011 C3010 1.391 . S
H3012 C3020 0.950 . S
H3013 C3025 0.950 . S
H3014 C3022 0.950 . S
H3015 C3024 0.950 . S
H3016 C3026 0.950 . S
H3017 C3028 0.950 . S
H3018 C3030 0.950 . S
H3019 C3031 0.950 . S
C3020 H3012 0.950 . S
C3020 C3021 1.386 . S
C3020 C3022 1.391 . S
C3021 C3020 1.386 . S
C3021 C3025 1.393 . S
C3022 H3014 0.950 . S
C3022 C3020 1.391 . S
C3022 C3023 1.400 . S
C3023 C3022 1.400 . S
C3023 C3024 1.398 . S
C3023 C3029 1.491 . S
C3024 H3015 0.950 . S
C3024 C3023 1.398 . S
C3024 C3025 1.391 . S
C3025 H3013 0.950 . S
C3025 C3021 1.393 . S
C3025 C3024 1.391 . S
C3026 H3016 0.950 . S
C3026 C3027 1.386 . S
C3026 C3028 1.391 . S
C3027 C3026 1.386 . S
C3027 C3031 1.393 . S
C3028 H3017 0.950 . S
C3028 C3026 1.391 . S
C3028 C3029 1.400 . S
C3029 C3023 1.491 . S
C3029 C3028 1.400 . S
C3029 C3030 1.398 . S
C3030 H3018 0.950 . S
C3030 C3029 1.398 . S
C3030 C3031 1.391 . S
C3031 H3019 0.950 . S
C3031 C3027 1.393 . S
C3031 C3030 1.391 . S
H3032 C3040 0.950 . S
H3033 C3045 0.950 . S
H3034 C3042 0.950 . S
H3035 C3044 0.950 . S
H3036 C3046 0.950 . S
H3037 C3048 0.950 . S
H3038 C3050 0.950 . S
H3039 C3051 0.950 . S
C3040 H3032 0.950 . S
C3040 C3041 1.386 . S
C3040 C3042 1.391 . S
C3041 C3040 1.386 . S
C3041 C3045 1.393 . S
C3042 H3034 0.950 . S
C3042 C3040 1.391 . S
C3042 C3043 1.400 . S
C3043 C3042 1.400 . S
C3043 C3044 1.398 . S
C3043 C3049 1.491 . S
C3044 H3035 0.950 . S
C3044 C3043 1.398 . S
C3044 C3045 1.391 . S
C3045 H3033 0.950 . S
C3045 C3041 1.393 . S
C3045 C3044 1.391 . S
C3046 H3036 0.950 . S
C3046 C3047 1.386 . S
C3046 C3048 1.391 . S
C3047 C3046 1.386 . S
C3047 C3051 1.393 . S
C3048 H3037 0.950 . S
C3048 C3046 1.391 . S
C3048 C3049 1.400 . S
C3049 C3043 1.491 . S
C3049 C3048 1.400 . S
C3049 C3050 1.398 . S
C3050 H3038 0.950 . S
C3050 C3049 1.398 . S
C3050 C3051 1.391 . S
C3051 H3039 0.950 . S
C3051 C3047 1.393 . S
C3051 C3050 1.391 . S
H3052 C3060 0.950 . S
H3053 C3065 0.950 . S
H3054 C3062 0.950 . S
H3055 C3064 0.950 . S
H3056 C3066 0.950 . S
H3057 C3068 0.950 . S
H3058 C3070 0.950 . S
H3059 C3071 0.950 . S
C3060 H3052 0.950 . S
C3060 C3061 1.386 . S
C3060 C3062 1.391 . S
C3061 C3060 1.386 . S
C3061 C3065 1.393 . S
C3062 H3054 0.950 . S
C3062 C3060 1.391 . S
C3062 C3063 1.400 . S
C3063 C3062 1.400 . S
C3063 C3064 1.398 . S
C3063 C3069 1.491 . S
C3064 H3055 0.950 . S
C3064 C3063 1.398 . S
C3064 C3065 1.391 . S
C3065 H3053 0.950 . S
C3065 C3061 1.393 . S
C3065 C3064 1.391 . S
C3066 H3056 0.950 . S
C3066 C3067 1.386 . S
C3066 C3068 1.391 . S
C3067 C3066 1.386 . S
C3067 C3071 1.393 . S
C3068 H3057 0.950 . S
C3068 C3066 1.391 . S
C3068 C3069 1.400 . S
C3069 C3063 1.491 . S
C3069 C3068 1.400 . S
C3069 C3070 1.398 . S
C3070 H3058 0.950 . S
C3070 C3069 1.398 . S
C3070 C3071 1.391 . S
C3071 H3059 0.950 . S
C3071 C3067 1.393 . S
C3071 C3070 1.391 . S
H3072 C3080 0.950 . S
H3073 C3085 0.950 . S
H3074 C3082 0.950 . S
H3075 C3084 0.950 . S
H3076 C3086 0.950 . S
H3077 C3088 0.950 . S
H3078 C3090 0.950 . S
H3079 C3091 0.950 . S
C3080 H3072 0.950 . S
C3080 C3081 1.386 . S
C3080 C3082 1.391 . S
C3081 C3080 1.386 . S
C3081 C3085 1.393 . S
C3082 H3074 0.950 . S
C3082 C3080 1.391 . S
C3082 C3083 1.400 . S
C3083 C3082 1.400 . S
C3083 C3084 1.398 . S
C3083 C3089 1.491 . S
C3084 H3075 0.950 . S
C3084 C3083 1.398 . S
C3084 C3085 1.391 . S
C3085 H3073 0.950 . S
C3085 C3081 1.393 . S
C3085 C3084 1.391 . S
C3086 H3076 0.950 . S
C3086 C3087 1.386 . S
C3086 C3088 1.391 . S
C3087 C3086 1.386 . S
C3087 C3091 1.393 . S
C3088 H3077 0.950 . S
C3088 C3086 1.391 . S
C3088 C3089 1.400 . S
C3089 C3083 1.491 . S
C3089 C3088 1.400 . S
C3089 C3090 1.398 . S
C3090 H3078 0.950 . S
C3090 C3089 1.398 . S
C3090 C3091 1.391 . S
C3091 H3079 0.950 . S
C3091 C3087 1.393 . S
C3091 C3090 1.391 . S
H3092 C3100 0.950 . S
H3093 C3105 0.950 . S
H3094 C3102 0.950 . S
H3095 C3104 0.950 . S
H3096 C3106 0.950 . S
H3097 C3108 0.950 . S
H3098 C3110 0.950 . S
H3099 C3111 0.950 . S
C3100 H3092 0.950 . S
C3100 C3101 1.386 . S
C3100 C3102 1.391 . S
C3101 C3100 1.386 . S
C3101 C3105 1.393 . S
C3102 H3094 0.950 . S
C3102 C3100 1.391 . S
C3102 C3103 1.400 . S
C3103 C3102 1.400 . S
C3103 C3104 1.398 . S
C3103 C3109 1.491 . S
C3104 H3095 0.950 . S
C3104 C3103 1.398 . S
C3104 C3105 1.391 . S
C3105 H3093 0.950 . S
C3105 C3101 1.393 . S
C3105 C3104 1.391 . S
C3106 H3096 0.950 . S
C3106 C3107 1.386 . S
C3106 C3108 1.391 . S
C3107 C3106 1.386 . S
C3107 C3111 1.393 . S
C3108 H3097 0.950 . S
C3108 C3106 1.391 . S
C3108 C3109 1.400 . S
C3109 C3103 1.491 . S
C3109 C3108 1.400 . S
C3109 C3110 1.398 . S
C3110 H3098 0.950 . S
C3110 C3109 1.398 . S
C3110 C3111 1.391 . S
C3111 H3099 0.950 . S
C3111 C3107 1.393 . S
C3111 C3110 1.391 . S
H3112 C3120 0.950 . S
H3113 C3125 0.950 . S
H3114 C3122 0.950 . S
H3115 C3124 0.950 . S
H3116 C3126 0.950 . S
H3117 C3128 0.950 . S
H3118 C3130 0.950 . S
H3119 C3131 0.950 . S
C3120 H3112 0.950 . S
C3120 C3121 1.386 . S
C3120 C3122 1.391 . S
C3121 C3120 1.386 . S
C3121 C3125 1.393 . S
C3122 H3114 0.950 . S
C3122 C3120 1.391 . S
C3122 C3123 1.400 . S
C3123 C3122 1.400 . S
C3123 C3124 1.398 . S
C3123 C3129 1.491 . S
C3124 H3115 0.950 . S
C3124 C3123 1.398 . S
C3124 C3125 1.391 . S
C3125 H3113 0.950 . S
C3125 C3121 1.393 . S
C3125 C3124 1.391 . S
C3126 H3116 0.950 . S
C3126 C3127 1.386 . S
C3126 C3128 1.391 . S
C3127 C3126 1.386 . S
C3127 C3131 1.393 . S
C3128 H3117 0.950 . S
C3128 C3126 1.391 . S
C3128 C3129 1.400 . S
C3129 C3123 1.491 . S
C3129 C3128 1.400 . S
C3129 C3130 1.398 . S
C3130 H3118 0.950 . S
C3130 C3129 1.398 . S
C3130 C3131 1.391 . S
C3131 H3119 0.950 . S
C3131 C3127 1.393 . S
C3131 C3130 1.391 . S
H3132 C3140 0.950 . S
H3133 C3145 0.950 . S
H3134 C3142 0.950 . S
H3135 C3144 0.950 . S
H3136 C3146 0.950 . S
H3137 C3148 0.950 . S
H3138 C3150 0.950 . S
H3139 C3151 0.950 . S
C3140 H3132 0.950 . S
C3140 C3141 1.386 . S
C3140 C3142 1.391 . S
C3141 C3140 1.386 . S
C3141 C3145 1.393 . S
C3142 H3134 0.950 . S
C3142 C3140 1.391 . S
C3142 C3143 1.400 . S
C3143 C3142 1.400 . S
C3143 C3144 1.398 . S
C3143 C3149 1.491 . S
C3144 H3135 0.950 . S
C3144 C3143 1.398 . S
C3144 C3145 1.391 . S
C3145 H3133 0.950 . S
C3145 C3141 1.393 . S
C3145 C3144 1.391 . S
C3146 H3136 0.950 . S
C3146 C3147 1.386 . S
C3146 C3148 1.391 . S
C3147 C3146 1.386 . S
C3147 C3151 1.393 . S
C3148 H3137 0.950 . S
C3148 C3146 1.391 . S
C3148 C3149 1.400 . S
C3149 C3143 1.491 . S
C3149 C3148 1.400 . S
C3149 C3150 1.398 . S
C3150 H3138 0.950 . S
C3150 C3149 1.398 . S
C3150 C3151 1.391 . S
C3151 H3139 0.950 . S
C3151 C3147 1.393 . S
C3151 C3150 1.391 . S
H3152 C3160 0.950 . S
H3153 C3165 0.950 . S
H3154 C3162 0.950 . S
H3155 C3164 0.950 . S
H3156 C3166 0.950 . S
H3157 C3168 0.950 . S
H3158 C3170 0.950 . S
H3159 C3171 0.950 . S
C3160 H3152 0.950 . S
C3160 C3161 1.386 . S
C3160 C3162 1.391 . S
C3161 C3160 1.386 . S
C3161 C3165 1.393 . S
C3162 H3154 0.950 . S
C3162 C3160 1.391 . S
C3162 C3163 1.400 . S
C3163 C3162 1.400 . S
C3163 C3164 1.398 . S
C3163 C3169 1.491 . S
C3164 H3155 0.950 . S
C3164 C3163 1.398 . S
C3164 C3165 1.391 . S
C3165 H3153 0.950 . S
C3165 C3161 1.393 . S
C3165 C3164 1.391 . S
C3166 H3156 0.950 . S
C3166 C3167 1.386 . S
C3166 C3168 1.391 . S
C3167 C3166 1.386 . S
C3167 C3171 1.393 . S
C3168 H3157 0.950 . S
C3168 C3166 1.391 . S
C3168 C3169 1.400 . S
C3169 C3163 1.491 . S
C3169 C3168 1.400 . S
C3169 C3170 1.398 . S
C3170 H3158 0.950 . S
C3170 C3169 1.398 . S
C3170 C3171 1.391 . S
C3171 H3159 0.950 . S
C3171 C3167 1.393 . S
C3171 C3170 1.391 . S
H3172 C3180 0.950 . S
H3173 C3185 0.950 . S
H3174 C3182 0.950 . S
H3175 C3184 0.950 . S
H3176 C3186 0.950 . S
H3177 C3188 0.950 . S
H3178 C3190 0.950 . S
H3179 C3191 0.950 . S
C3180 H3172 0.950 . S
C3180 C3181 1.386 . S
C3180 C3182 1.391 . S
C3181 C3180 1.386 . S
C3181 C3185 1.393 . S
C3182 H3174 0.950 . S
C3182 C3180 1.391 . S
C3182 C3183 1.400 . S
C3183 C3182 1.400 . S
C3183 C3184 1.398 . S
C3183 C3189 1.491 . S
C3184 H3175 0.950 . S
C3184 C3183 1.398 . S
C3184 C3185 1.391 . S
C3185 H3173 0.950 . S
C3185 C3181 1.393 . S
C3185 C3184 1.391 . S
C3186 H3176 0.950 . S
C3186 C3187 1.386 . S
C3186 C3188 1.391 . S
C3187 C3186 1.386 . S
C3187 C3191 1.393 . S
C3188 H3177 0.950 . S
C3188 C3186 1.391 . S
C3188 C3189 1.400 . S
C3189 C3183 1.491 . S
C3189 C3188 1.400 . S
C3189 C3190 1.398 . S
C3190 H3178 0.950 . S
C3190 C3189 1.398 . S
C3190 C3191 1.391 . S
C3191 H3179 0.950 . S
C3191 C3187 1.393 . S
C3191 C3190 1.391 . S
H3192 C3200 0.950 . S
H3193 C3205 0.950 . S
H3194 C3202 0.950 . S
H3195 C3204 0.950 . S
H3196 C3206 0.950 . S
H3197 C3208 0.950 . S
H3198 C3210 0.950 . S
H3199 C3211 0.950 . S
C3200 H3192 0.950 . S
C3200 C3201 1.386 . S
C3200 C3202 1.391 . S
C3201 C3200 1.386 . S
C3201 C3205 1.393 . S
C3202 H3194 0.950 . S
C3202 C3200 1.391 . S
C3202 C3203 1.400 . S
C3203 C3202 1.400 . S
C3203 C3204 1.398 . S
C3203 C3209 1.491 . S
C3204 H3195 0.950 . S
C3204 C3203 1.398 . S
C3204 C3205 1.391 . S
C3205 H3193 0.950 . S
C3205 C3201 1.393 . S
C3205 C3204 1.391 . S
C3206 H3196 0.950 . S
C3206 C3207 1.386 . S
C3206 C3208 1.391 . S
C3207 C3206 1.386 . S
C3207 C3211 1.393 . S
C3208 H3197 0.950 . S
C3208 C3206 1.391 . S
C3208 C3209 1.400 . S
C3209 C3203 1.491 . S
C3209 C3208 1.400 . S
C3209 C3210 1.398 . S
C3210 H3198 0.950 . S
C3210 C3209 1.398 . S
C3210 C3211 1.391 . S
C3211 H3199 0.950 . S
C3211 C3207 1.393 . S
C3211 C3210 1.391 . S
H3212 C3220 0.950 . S
H3213 C3225 0.950 . S
H3214 C3222 0.950 . S
H3215 C3224 0.950 . S
H3216 C3226 0.950 . S
H3217 C3228 0.950 . S
H3218 C3230 0.950 . S
H3219 C3231 0.950 . S
C3220 H3212 0.950 . S
C3220 C3221 1.386 . S
C3220 C3222 1.391 . S
C3221 C3220 1.386 . S
C3221 C3225 1.393 . S
C3222 H3214 0.950 . S
C3222 C3220 1.391 . S
C3222 C3223 1.400 . S
C3223 C3222 1.400 . S
C3223 C3224 1.398 . S
C3223 C3229 1.491 . S
C3224 H3215 0.950 . S
C3224 C3223 1.398 . S
C3224 C3225 1.391 . S
C3225 H3213 0.950 . S
C3225 C3221 1.393 . S
C3225 C3224 1.391 . S
C3226 H3216 0.950 . S
C3226 C3227 1.386 . S
C3226 C3228 1.391 . S
C3227 C3226 1.386 . S
C3227 C3231 1.393 . S
C3228 H3217 0.950 . S
C3228 C3226 1.391 . S
C3228 C3229 1.400 . S
C3229 C3223 1.491 . S
C3229 C3228 1.400 . S
C3229 C3230 1.398 . S
C3230 H3218 0.950 . S
C3230 C3229 1.398 . S
C3230 C3231 1.391 . S
C3231 H3219 0.950 . S
C3231 C3227 1.393 . S
C3231 C3230 1.391 . S
H3232 C3240 0.950 . S
H3233 C3245 0.950 . S
H3234 C3242 0.950 . S
H3235 C3244 0.950 . S
H3236 C3246 0.950 . S
H3237 C3248 0.950 . S
H3238 C3250 0.950 . S
H3239 C3251 0.950 . S
C3240 H3232 0.950 . S
C3240 C3241 1.386 . S
C3240 C3242 1.391 . S
C3241 C3240 1.386 . S
C3241 C3245 1.393 . S
C3242 H3234 0.950 . S
C3242 C3240 1.391 . S
C3242 C3243 1.400 . S
C3243 C3242 1.400 . S
C3243 C3244 1.398 . S
C3243 C3249 1.491 . S
C3244 H3235 0.950 . S
C3244 C3243 1.398 . S
C3244 C3245 1.391 . S
C3245 H3233 0.950 . S
C3245 C3241 1.393 . S
C3245 C3244 1.391 . S
C3246 H3236 0.950 . S
C3246 C3247 1.386 . S
C3246 C3248 1.391 . S
C3247 C3246 1.386 . S
C3247 C3251 1.393 . S
C3248 H3237 0.950 . S
C3248 C3246 1.391 . S
C3248 C3249 1.400 . S
C3249 C3243 1.491 . S
C3249 C3248 1.400 . S
C3249 C3250 1.398 . S
C3250 H3238 0.950 . S
C3250 C3249 1.398 . S
C3250 C3251 1.391 . S
C3251 H3239 0.950 . S
C3251 C3247 1.393 . S
C3251 C3250 1.391 . S
H3252 C3260 0.950 . S
H3253 C3265 0.950 . S
H3254 C3262 0.950 . S
H3255 C3264 0.950 . S
H3256 C3266 0.950 . S
H3257 C3268 0.950 . S
H3258 C3270 0.950 . S
H3259 C3271 0.950 . S
C3260 H3252 0.950 . S
C3260 C3261 1.386 . S
C3260 C3262 1.391 . S
C3261 C3260 1.386 . S
C3261 C3265 1.393 . S
C3262 H3254 0.950 . S
C3262 C3260 1.391 . S
C3262 C3263 1.400 . S
C3263 C3262 1.400 . S
C3263 C3264 1.398 . S
C3263 C3269 1.491 . S
C3264 H3255 0.950 . S
C3264 C3263 1.398 . S
C3264 C3265 1.391 . S
C3265 H3253 0.950 . S
C3265 C3261 1.393 . S
C3265 C3264 1.391 . S
C3266 H3256 0.950 . S
C3266 C3267 1.386 . S
C3266 C3268 1.391 . S
C3267 C3266 1.386 . S
C3267 C3271 1.393 . S
C3268 H3257 0.950 . S
C3268 C3266 1.391 . S
C3268 C3269 1.400 . S
C3269 C3263 1.491 . S
C3269 C3268 1.400 . S
C3269 C3270 1.398 . S
C3270 H3258 0.950 . S
C3270 C3269 1.398 . S
C3270 C3271 1.391 . S
C3271 H3259 0.950 . S
C3271 C3267 1.393 . S
C3271 C3270 1.391 . S
H3272 C3280 0.950 . S
H3273 C3285 0.950 . S
H3274 C3282 0.950 . S
H3275 C3284 0.950 . S
H3276 C3286 0.950 . S
H3277 C3288 0.950 . S
H3278 C3290 0.950 . S
H3279 C3291 0.950 . S
C3280 H3272 0.950 . S
C3280 C3281 1.386 . S
C3280 C3282 1.391 . S
C3281 C3280 1.386 . S
C3281 C3285 1.393 . S
C3282 H3274 0.950 . S
C3282 C3280 1.391 . S
C3282 C3283 1.400 . S
C3283 C3282 1.400 . S
C3283 C3284 1.398 . S
C3283 C3289 1.491 . S
C3284 H3275 0.950 . S
C3284 C3283 1.398 . S
C3284 C3285 1.391 . S
C3285 H3273 0.950 . S
C3285 C3281 1.393 . S
C3285 C3284 1.391 . S
C3286 H3276 0.950 . S
C3286 C3287 1.386 . S
C3286 C3288 1.391 . S
C3287 C3286 1.386 . S
C3287 C3291 1.393 . S
C3288 H3277 0.950 . S
C3288 C3286 1.391 . S
C3288 C3289 1.400 . S
C3289 C3283 1.491 . S
C3289 C3288 1.400 . S
C3289 C3290 1.398 . S
C3290 H3278 0.950 . S
C3290 C3289 1.398 . S
C3290 C3291 1.391 . S
C3291 H3279 0.950 . S
C3291 C3287 1.393 . S
C3291 C3290 1.391 . S
H3292 C3300 0.950 . S
H3293 C3305 0.950 . S
H3294 C3302 0.950 . S
H3295 C3304 0.950 . S
H3296 C3306 0.950 . S
H3297 C3308 0.950 . S
H3298 C3310 0.950 . S
H3299 C3311 0.950 . S
C3300 H3292 0.950 . S
C3300 C3301 1.386 . S
C3300 C3302 1.391 . S
C3301 C3300 1.386 . S
C3301 C3305 1.393 . S
C3302 H3294 0.950 . S
C3302 C3300 1.391 . S
C3302 C3303 1.400 . S
C3303 C3302 1.400 . S
C3303 C3304 1.398 . S
C3303 C3309 1.491 . S
C3304 H3295 0.950 . S
C3304 C3303 1.398 . S
C3304 C3305 1.391 . S
C3305 H3293 0.950 . S
C3305 C3301 1.393 . S
C3305 C3304 1.391 . S
C3306 H3296 0.950 . S
C3306 C3307 1.386 . S
C3306 C3308 1.391 . S
C3307 C3306 1.386 . S
C3307 C3311 1.393 . S
C3308 H3297 0.950 . S
C3308 C3306 1.391 . S
C3308 C3309 1.400 . S
C3309 C3303 1.491 . S
C3309 C3308 1.400 . S
C3309 C3310 1.398 . S
C3310 H3298 0.950 . S
C3310 C3309 1.398 . S
C3310 C3311 1.391 . S
C3311 H3299 0.950 . S
C3311 C3307 1.393 . S
C3311 C3310 1.391 . S
H3312 C3320 0.950 . S
H3313 C3325 0.950 . S
H3314 C3322 0.950 . S
H3315 C3324 0.950 . S
H3316 C3326 0.950 . S
H3317 C3328 0.950 . S
H3318 C3330 0.950 . S
H3319 C3331 0.950 . S
C3320 H3312 0.950 . S
C3320 C3321 1.386 . S
C3320 C3322 1.391 . S
C3321 C3320 1.386 . S
C3321 C3325 1.393 . S
C3322 H3314 0.950 . S
C3322 C3320 1.391 . S
C3322 C3323 1.400 . S
C3323 C3322 1.400 . S
C3323 C3324 1.398 . S
C3323 C3329 1.491 . S
C3324 H3315 0.950 . S
C3324 C3323 1.398 . S
C3324 C3325 1.391 . S
C3325 H3313 0.950 . S
C3325 C3321 1.393 . S
C3325 C3324 1.391 . S
C3326 H3316 0.950 . S
C3326 C3327 1.386 . S
C3326 C3328 1.391 . S
C3327 C3326 1.386 . S
C3327 C3331 1.393 . S
C3328 H3317 0.950 . S
C3328 C3326 1.391 . S
C3328 C3329 1.400 . S
C3329 C3323 1.491 . S
C3329 C3328 1.400 . S
C3329 C3330 1.398 . S
C3330 H3318 0.950 . S
C3330 C3329 1.398 . S
C3330 C3331 1.391 . S
C3331 H3319 0.950 . S
C3331 C3327 1.393 . S
C3331 C3330 1.391 . S
H3332 C3340 0.950 . S
H3333 C3345 0.950 . S
H3334 C3342 0.950 . S
H3335 C3344 0.950 . S
H3336 C3346 0.950 . S
H3337 C3348 0.950 . S
H3338 C3350 0.950 . S
H3339 C3351 0.950 . S
C3340 H3332 0.950 . S
C3340 C3341 1.386 . S
C3340 C3342 1.391 . S
C3341 C3340 1.386 . S
C3341 C3345 1.393 . S
C3342 H3334 0.950 . S
C3342 C3340 1.391 . S
C3342 C3343 1.400 . S
C3343 C3342 1.400 . S
C3343 C3344 1.398 . S
C3343 C3349 1.491 . S
C3344 H3335 0.950 . S
C3344 C3343 1.398 . S
C3344 C3345 1.391 . S
C3345 H3333 0.950 . S
C3345 C3341 1.393 . S
C3345 C3344 1.391 . S
C3346 H3336 0.950 . S
C3346 C3347 1.386 . S
C3346 C3348 1.391 . S
C3347 C3346 1.386 . S
C3347 C3351 1.393 . S
C3348 H3337 0.950 . S
C3348 C3346 1.391 . S
C3348 C3349 1.400 . S
C3349 C3343 1.491 . S
C3349 C3348 1.400 . S
C3349 C3350 1.398 . S
C3350 H3338 0.950 . S
C3350 C3349 1.398 . S
C3350 C3351 1.391 . S
C3351 H3339 0.950 . S
C3351 C3347 1.393 . S
C3351 C3350 1.391 . S
H3352 C3360 0.950 . S
H3353 C3365 0.950 . S
H3354 C3362 0.950 . S
H3355 C3364 0.950 . S
H3356 C3366 0.950 . S
H3357 C3368 0.950 . S
H3358 C3370 0.950 . S
H3359 C3371 0.950 . S
C3360 H3352 0.950 . S
C3360 C3361 1.386 . S
C3360 C3362 1.391 . S
C3361 C3360 1.386 . S
C3361 C3365 1.393 . S
C3362 H3354 0.950 . S
C3362 C3360 1.391 . S
C3362 C3363 1.400 . S
C3363 C3362 1.400 . S
C3363 C3364 1.398 . S
C3363 C3369 1.491 . S
C3364 H3355 0.950 . S
C3364 C3363 1.398 . S
C3364 C3365 1.391 . S
C3365 H3353 0.950 . S
C3365 C3361 1.393 . S
C3365 C3364 1.391 . S
C3366 H3356 0.950 . S
C3366 C3367 1.386 . S
C3366 C3368 1.391 . S
C3367 C3366 1.386 . S
C3367 C3371 1.393 . S
C3368 H3357 0.950 . S
C3368 C3366 1.391 . S
C3368 C3369 1.400 . S
C3369 C3363 1.491 . S
C3369 C3368 1.400 . S
C3369 C3370 1.398 . S
C3370 H3358 0.950 . S
C3370 C3369 1.398 . S
C3370 C3371 1.391 . S
C3371 H3359 0.950 . S
C3371 C3367 1.393 . S
C3371 C3370 1.391 . S
H3372 C3380 0.950 . S
H3373 C3385 0.950 . S
H3374 C3382 0.950 . S
H3375 C3384 0.950 . S
H3376 C3386 0.950 . S
H3377 C3388 0.950 . S
H3378 C3390 0.950 . S
H3379 C3391 0.950 . S
C3380 H3372 0.950 . S
C3380 C3381 1.386 . S
C3380 C3382 1.391 . S
C3381 C3380 1.386 . S
C3381 C3385 1.393 . S
C3382 H3374 0.950 . S
C3382 C3380 1.391 . S
C3382 C3383 1.400 . S
C3383 C3382 1.400 . S
C3383 C3384 1.398 . S
C3383 C3389 1.491 . S
C3384 H3375 0.950 . S
C3384 C3383 1.398 . S
C3384 C3385 1.391 . S
C3385 H3373 0.950 . S
C3385 C3381 1.393 . S
C3385 C3384 1.391 . S
C3386 H3376 0.950 . S
C3386 C3387 1.386 . S
C3386 C3388 1.391 . S
C3387 C3386 1.386 . S
C3387 C3391 1.393 . S
C3388 H3377 0.950 . S
C3388 C3386 1.391 . S
C3388 C3389 1.400 . S
C3389 C3383 1.491 . S
C3389 C3388 1.400 . S
C3389 C3390 1.398 . S
C3390 H3378 0.950 . S
C3390 C3389 1.398 . S
C3390 C3391 1.391 . S
C3391 H3379 0.950 . S
C3391 C3387 1.393 . S
C3391 C3390 1.391 . S
H3392 C3400 0.950 . S
H3393 C3405 0.950 . S
H3394 C3402 0.950 . S
H3395 C3404 0.950 . S
H3396 C3406 0.950 . S
H3397 C3408 0.950 . S
H3398 C3410 0.950 . S
H3399 C3411 0.950 . S
C3400 H3392 0.950 . S
C3400 C3401 1.386 . S
C3400 C3402 1.391 . S
C3401 C3400 1.386 . S
C3401 C3405 1.393 . S
C3402 H3394 0.950 . S
C3402 C3400 1.391 . S
C3402 C3403 1.400 . S
C3403 C3402 1.400 . S
C3403 C3404 1.398 . S
C3403 C3409 1.491 . S
C3404 H3395 0.950 . S
C3404 C3403 1.398 . S
C3404 C3405 1.391 . S
C3405 H3393 0.950 . S
C3405 C3401 1.393 . S
C3405 C3404 1.391 . S
C3406 H3396 0.950 . S
C3406 C3407 1.386 . S
C3406 C3408 1.391 . S
C3407 C3406 1.386 . S
C3407 C3411 1.393 . S
C3408 H3397 0.950 . S
C3408 C3406 1.391 . S
C3408 C3409 1.400 . S
C3409 C3403 1.491 . S
C3409 C3408 1.400 . S
C3409 C3410 1.398 . S
C3410 H3398 0.950 . S
C3410 C3409 1.398 . S
C3410 C3411 1.391 . S
C3411 H3399 0.950 . S
C3411 C3407 1.393 . S
C3411 C3410 1.391 . S
H3412 C3420 0.950 . S
H3413 C3425 0.950 . S
H3414 C3422 0.950 . S
H3415 C3424 0.950 . S
H3416 C3426 0.950 . S
H3417 C3428 0.950 . S
H3418 C3430 0.950 . S
H3419 C3431 0.950 . S
C3420 H3412 0.950 . S
C3420 C3421 1.386 . S
C3420 C3422 1.391 . S
C3421 C3420 1.386 . S
C3421 C3425 1.393 . S
C3422 H3414 0.950 . S
C3422 C3420 1.391 . S
C3422 C3423 1.400 . S
C3423 C3422 1.400 . S
C3423 C3424 1.398 . S
C3423 C3429 1.491 . S
C3424 H3415 0.950 . S
C3424 C3423 1.398 . S
C3424 C3425 1.391 . S
C3425 H3413 0.950 . S
C3425 C3421 1.393 . S
C3425 C3424 1.391 . S
C3426 H3416 0.950 . S
C3426 C3427 1.386 . S
C3426 C3428 1.391 . S
C3427 C3426 1.386 . S
C3427 C3431 1.393 . S
C3428 H3417 0.950 . S
C3428 C3426 1.391 . S
C3428 C3429 1.400 . S
C3429 C3423 1.491 . S
C3429 C3428 1.400 . S
C3429 C3430 1.398 . S
C3430 H3418 0.950 . S
C3430 C3429 1.398 . S
C3430 C3431 1.391 . S
C3431 H3419 0.950 . S
C3431 C3427 1.393 . S
C3431 C3430 1.391 . S
H3432 C3440 0.950 . S
H3433 C3445 0.950 . S
H3434 C3442 0.950 . S
H3435 C3444 0.950 . S
H3436 C3446 0.950 . S
H3437 C3448 0.950 . S
H3438 C3450 0.950 . S
H3439 C3451 0.950 . S
C3440 H3432 0.950 . S
C3440 C3441 1.386 . S
C3440 C3442 1.391 . S
C3441 C3440 1.386 . S
C3441 C3445 1.393 . S
C3442 H3434 0.950 . S
C3442 C3440 1.391 . S
C3442 C3443 1.400 . S
C3443 C3442 1.400 . S
C3443 C3444 1.398 . S
C3443 C3449 1.491 . S
C3444 H3435 0.950 . S
C3444 C3443 1.398 . S
C3444 C3445 1.391 . S
C3445 H3433 0.950 . S
C3445 C3441 1.393 . S
C3445 C3444 1.391 . S
C3446 H3436 0.950 . S
C3446 C3447 1.386 . S
C3446 C3448 1.391 . S
C3447 C3446 1.386 . S
C3447 C3451 1.393 . S
C3448 H3437 0.950 . S
C3448 C3446 1.391 . S
C3448 C3449 1.400 . S
C3449 C3443 1.491 . S
C3449 C3448 1.400 . S
C3449 C3450 1.398 . S
C3450 H3438 0.950 . S
C3450 C3449 1.398 . S
C3450 C3451 1.391 . S
C3451 H3439 0.950 . S
C3451 C3447 1.393 . S
C3451 C3450 1.391 . S
H3452 C3460 0.950 . S
H3453 C3465 0.950 . S
H3454 C3462 0.950 . S
H3455 C3464 0.950 . S
H3456 C3466 0.950 . S
H3457 C3468 0.950 . S
H3458 C3470 0.950 . S
H3459 C3471 0.950 . S
C3460 H3452 0.950 . S
C3460 C3461 1.386 . S
C3460 C3462 1.391 . S
C3461 C3460 1.386 . S
C3461 C3465 1.393 . S
C3462 H3454 0.950 . S
C3462 C3460 1.391 . S
C3462 C3463 1.400 . S
C3463 C3462 1.400 . S
C3463 C3464 1.398 . S
C3463 C3469 1.491 . S
C3464 H3455 0.950 . S
C3464 C3463 1.398 . S
C3464 C3465 1.391 . S
C3465 H3453 0.950 . S
C3465 C3461 1.393 . S
C3465 C3464 1.391 . S
C3466 H3456 0.950 . S
C3466 C3467 1.386 . S
C3466 C3468 1.391 . S
C3467 C3466 1.386 . S
C3467 C3471 1.393 . S
C3468 H3457 0.950 . S
C3468 C3466 1.391 . S
C3468 C3469 1.400 . S
C3469 C3463 1.491 . S
C3469 C3468 1.400 . S
C3469 C3470 1.398 . S
C3470 H3458 0.950 . S
C3470 C3469 1.398 . S
C3470 C3471 1.391 . S
C3471 H3459 0.950 . S
C3471 C3467 1.393 . S
C3471 C3470 1.391 . S
H3472 C3480 0.950 . S
H3473 C3485 0.950 . S
H3474 C3482 0.950 . S
H3475 C3484 0.950 . S
H3476 C3486 0.950 . S
H3477 C3488 0.950 . S
H3478 C3490 0.950 . S
H3479 C3491 0.950 . S
C3480 H3472 0.950 . S
C3480 C3481 1.386 . S
C3480 C3482 1.391 . S
C3481 C3480 1.386 . S
C3481 C3485 1.393 . S
C3482 H3474 0.950 . S
C3482 C3480 1.391 . S
C3482 C3483 1.400 . S
C3483 C3482 1.400 . S
C3483 C3484 1.398 . S
C3483 C3489 1.491 . S
C3484 H3475 0.950 . S
C3484 C3483 1.398 . S
C3484 C3485 1.391 . S
C3485 H3473 0.950 . S
C3485 C3481 1.393 . S
C3485 C3484 1.391 . S
C3486 H3476 0.950 . S
C3486 C3487 1.386 . S
C3486 C3488 1.391 . S
C3487 C3486 1.386 . S
C3487 C3491 1.393 . S
C3488 H3477 0.950 . S
C3488 C3486 1.391 . S
C3488 C3489 1.400 . S
C3489 C3483 1.491 . S
C3489 C3488 1.400 . S
C3489 C3490 1.398 . S
C3490 H3478 0.950 . S
C3490 C3489 1.398 . S
C3490 C3491 1.391 . S
C3491 H3479 0.950 . S
C3491 C3487 1.393 . S
C3491 C3490 1.391 . S
H3492 C3500 0.950 . S
H3493 C3505 0.950 . S
H3494 C3502 0.950 . S
H3495 C3504 0.950 . S
H3496 C3506 0.950 . S
H3497 C3508 0.950 . S
H3498 C3510 0.950 . S
H3499 C3511 0.950 . S
C3500 H3492 0.950 . S
C3500 C3501 1.386 . S
C3500 C3502 1.391 . S
C3501 C3500 1.386 . S
C3501 C3505 1.393 . S
C3502 H3494 0.950 . S
C3502 C3500 1.391 . S
C3502 C3503 1.400 . S
C3503 C3502 1.400 . S
C3503 C3504 1.398 . S
C3503 C3509 1.491 . S
C3504 H3495 0.950 . S
C3504 C3503 1.398 . S
C3504 C3505 1.391 . S
C3505 H3493 0.950 . S
C3505 C3501 1.393 . S
C3505 C3504 1.391 . S
C3506 H3496 0.950 . S
C3506 C3507 1.386 . S
C3506 C3508 1.391 . S
C3507 C3506 1.386 . S
C3507 C3511 1.393 . S
C3508 H3497 0.950 . S
C3508 C3506 1.391 . S
C3508 C3509 1.400 . S
C3509 C3503 1.491 . S
C3509 C3508 1.400 . S
C3509 C3510 1.398 . S
C3510 H3498 0.950 . S
C3510 C3509 1.398 . S
C3510 C3511 1.391 . S
C3511 H3499 0.950 . S
C3511 C3507 1.393 . S
C3511 C3510 1.391 . S
H3512 C3520 0.950 . S
H3513 C3525 0.950 . S
H3514 C3522 0.950 . S
H3515 C3524 0.950 . S
H3516 C3526 0.950 . S
H3517 C3528 0.950 . S
H3518 C3530 0.950 . S
H3519 C3531 0.950 . S
C3520 H3512 0.950 . S
C3520 C3521 1.386 . S
C3520 C3522 1.391 . S
C3521 C3520 1.386 . S
C3521 C3525 1.393 . S
C3522 H3514 0.950 . S
C3522 C3520 1.391 . S
C3522 C3523 1.400 . S
C3523 C3522 1.400 . S
C3523 C3524 1.398 . S
C3523 C3529 1.491 . S
C3524 H3515 0.950 . S
C3524 C3523 1.398 . S
C3524 C3525 1.391 . S
C3525 H3513 0.950 . S
C3525 C3521 1.393 . S
C3525 C3524 1.391 . S
C3526 H3516 0.950 . S
C3526 C3527 1.386 . S
C3526 C3528 1.391 . S
C3527 C3526 1.386 . S
C3527 C3531 1.393 . S
C3528 H3517 0.950 . S
C3528 C3526 1.391 . S
C3528 C3529 1.400 . S
C3529 C3523 1.491 . S
C3529 C3528 1.400 . S
C3529 C3530 1.398 . S
C3530 H3518 0.950 . S
C3530 C3529 1.398 . S
C3530 C3531 1.391 . S
C3531 H3519 0.950 . S
C3531 C3527 1.393 . S
C3531 C3530 1.391 . S
H3532 C3540 0.950 . S
H3533 C3545 0.950 . S
H3534 C3542 0.950 . S
H3535 C3544 0.950 . S
H3536 C3546 0.950 . S
H3537 C3548 0.950 . S
H3538 C3550 0.950 . S
H3539 C3551 0.950 . S
C3540 H3532 0.950 . S
C3540 C3541 1.386 . S
C3540 C3542 1.391 . S
C3541 C3540 1.386 . S
C3541 C3545 1.393 . S
C3542 H3534 0.950 . S
C3542 C3540 1.391 . S
C3542 C3543 1.400 . S
C3543 C3542 1.400 . S
C3543 C3544 1.398 . S
C3543 C3549 1.491 . S
C3544 H3535 0.950 . S
C3544 C3543 1.398 . S
C3544 C3545 1.391 . S
C3545 H3533 0.950 . S
C3545 C3541 1.393 . S
C3545 C3544 1.391 . S
C3546 H3536 0.950 . S
C3546 C3547 1.386 . S
C3546 C3548 1.391 . S
C3547 C3546 1.386 . S
C3547 C3551 1.393 . S
C3548 H3537 0.950 . S
C3548 C3546 1.391 . S
C3548 C3549 1.400 . S
C3549 C3543 1.491 . S
C3549 C3548 1.400 . S
C3549 C3550 1.398 . S
C3550 H3538 0.950 . S
C3550 C3549 1.398 . S
C3550 C3551 1.391 . S
C3551 H3539 0.950 . S
C3551 C3547 1.393 . S
C3551 C3550 1.391 . S
H3552 C3560 0.950 . S
H3553 C3565 0.950 . S
H3554 C3562 0.950 . S
H3555 C3564 0.950 . S
H3556 C3566 0.950 . S
H3557 C3568 0.950 . S
H3558 C3570 0.950 . S
H3559 C3571 0.950 . S
C3560 H3552 0.950 . S
C3560 C3561 1.386 . S
C3560 C3562 1.391 . S
C3561 C3560 1.386 . S
C3561 C3565 1.393 . S
C3562 H3554 0.950 . S
C3562 C3560 1.391 . S
C3562 C3563 1.400 . S
C3563 C3562 1.400 . S
C3563 C3564 1.398 . S
C3563 C3569 1.491 . S
C3564 H3555 0.950 . S
C3564 C3563 1.398 . S
C3564 C3565 1.391 . S
C3565 H3553 0.950 . S
C3565 C3561 1.393 . S
C3565 C3564 1.391 . S
C3566 H3556 0.950 . S
C3566 C3567 1.386 . S
C3566 C3568 1.391 . S
C3567 C3566 1.386 . S
C3567 C3571 1.393 . S
C3568 H3557 0.950 . S
C3568 C3566 1.391 . S
C3568 C3569 1.400 . S
C3569 C3563 1.491 . S
C3569 C3568 1.400 . S
C3569 C3570 1.398 . S
C3570 H3558 0.950 . S
C3570 C3569 1.398 . S
C3570 C3571 1.391 . S
C3571 H3559 0.950 . S
C3571 C3567 1.393 . S
C3571 C3570 1.391 . S
H3572 C3580 0.950 . S
H3573 C3585 0.950 . S
H3574 C3582 0.950 . S
H3575 C3584 0.950 . S
H3576 C3586 0.950 . S
H3577 C3588 0.950 . S
H3578 C3590 0.950 . S
H3579 C3591 0.950 . S
C3580 H3572 0.950 . S
C3580 C3581 1.386 . S
C3580 C3582 1.391 . S
C3581 C3580 1.386 . S
C3581 C3585 1.393 . S
C3582 H3574 0.950 . S
C3582 C3580 1.391 . S
C3582 C3583 1.400 . S
C3583 C3582 1.400 . S
C3583 C3584 1.398 . S
C3583 C3589 1.491 . S
C3584 H3575 0.950 . S
C3584 C3583 1.398 . S
C3584 C3585 1.391 . S
C3585 H3573 0.950 . S
C3585 C3581 1.393 . S
C3585 C3584 1.391 . S
C3586 H3576 0.950 . S
C3586 C3587 1.386 . S
C3586 C3588 1.391 . S
C3587 C3586 1.386 . S
C3587 C3591 1.393 . S
C3588 H3577 0.950 . S
C3588 C3586 1.391 . S
C3588 C3589 1.400 . S
C3589 C3583 1.491 . S
C3589 C3588 1.400 . S
C3589 C3590 1.398 . S
C3590 H3578 0.950 . S
C3590 C3589 1.398 . S
C3590 C3591 1.391 . S
C3591 H3579 0.950 . S
C3591 C3587 1.393 . S
C3591 C3590 1.391 . S
H3592 C3600 0.950 . S
H3593 C3605 0.950 . S
H3594 C3602 0.950 . S
H3595 C3604 0.950 . S
H3596 C3606 0.950 . S
H3597 C3608 0.950 . S
H3598 C3610 0.950 . S
H3599 C3611 0.950 . S
C3600 H3592 0.950 . S
C3600 C3601 1.386 . S
C3600 C3602 1.391 . S
C3601 C3600 1.386 . S
C3601 C3605 1.393 . S
C3602 H3594 0.950 . S
C3602 C3600 1.391 . S
C3602 C3603 1.400 . S
C3603 C3602 1.400 . S
C3603 C3604 1.398 . S
C3603 C3609 1.491 . S
C3604 H3595 0.950 . S
C3604 C3603 1.398 . S
C3604 C3605 1.391 . S
C3605 H3593 0.950 . S
C3605 C3601 1.393 . S
C3605 C3604 1.391 . S
C3606 H3596 0.950 . S
C3606 C3607 1.386 . S
C3606 C3608 1.391 . S
C3607 C3606 1.386 . S
C3607 C3611 1.393 . S
C3608 H3597 0.950 . S
C3608 C3606 1.391 . S
C3608 C3609 1.400 . S
C3609 C3603 1.491 . S
C3609 C3608 1.400 . S
C3609 C3610 1.398 . S
C3610 H3598 0.950 . S
C3610 C3609 1.398 . S
C3610 C3611 1.391 . S
C3611 H3599 0.950 . S
C3611 C3607 1.393 . S
C3611 C3610 1.391 . S
H3612 C3620 0.950 . S
H3613 C3625 0.950 . S
H3614 C3622 0.950 . S
H3615 C3624 0.950 . S
H3616 C3626 0.950 . S
H3617 C3628 0.950 . S
H3618 C3630 0.950 . S
H3619 C3631 0.950 . S
C3620 H3612 0.950 . S
C3620 C3621 1.386 . S
C3620 C3622 1.391 . S
C3621 C3620 1.386 . S
C3621 C3625 1.393 . S
C3622 H3614 0.950 . S
C3622 C3620 1.391 . S
C3622 C3623 1.400 . S
C3623 C3622 1.400 . S
C3623 C3624 1.398 . S
C3623 C3629 1.491 . S
C3624 H3615 0.950 . S
C3624 C3623 1.398 . S
C3624 C3625 1.391 . S
C3625 H3613 0.950 . S
C3625 C3621 1.393 . S
C3625 C3624 1.391 . S
C3626 H3616 0.950 . S
C3626 C3627 1.386 . S
C3626 C3628 1.391 . S
C3627 C3626 1.386 . S
C3627 C3631 1.393 . S
C3628 H3617 0.950 . S
C3628 C3626 1.391 . S
C3628 C3629 1.400 . S
C3629 C3623 1.491 . S
C3629 C3628 1.400 . S
C3629 C3630 1.398 . S
C3630 H3618 0.950 . S
C3630 C3629 1.398 . S
C3630 C3631 1.391 . S
C3631 H3619 0.950 . S
C3631 C3627 1.393 . S
C3631 C3630 1.391 . S
C1727 C1294 1.508 . S
C1721 C21 1.546 . S
C1747 C1306 1.424 . S
C1741 C42 1.501 . S
C1761 C82 1.535 . S
C1767 C1330 1.499 . S
C1787 C1341 1.461 . S
C1781 C135 1.539 . S
C1801 C175 1.481 . S
C1807 C1348 1.406 . S
C1821 C221 1.532 . S
C1827 C1287 1.482 . S
C1841 C255 1.526 . S
C1847 C1314 1.443 . S
C1867 C1323 1.500 . S
C1861 C301 1.587 . S
C1887 C1360 1.481 . S
C1881 C15 1.541 . S
C1901 C55 1.496 . S
C1907 C1386 1.418 . S
C1921 C101 1.558 . S
C1927 C1402 1.523 . S
C1947 C1422 1.457 . S
C1941 C141 1.547 . S
C1961 C162 1.496 . S
C1967 C1431 1.460 . S
C1987 C1456 1.481 . S
C1981 C215 1.545 . S
C2001 C261 1.548 . S
C2007 C1476 1.482 . S
C2027 C1492 1.501 . S
C2021 C282 1.551 . S
C2041 C2 1.515 . S
C2047 C1414 1.477 . S
C2061 C181 1.473 . S
C2067 C1449 1.435 . S
C2087 C1468 1.517 . S
C2081 C202 1.550 . S
C2101 C242 1.551 . S
C2107 C1485 1.466 . S
C2127 C1438 1.463 . S
C2121 C295 1.539 . S
C2147 C1378 1.495 . S
C2141 C95 1.549 . S
C2161 C122 1.538 . S
C2167 C1395 1.452 . S
C2187 C1368 1.422 . S
C2181 C61 1.520 . S
C2207 C1512 1.508 . S
C2201 C341 1.551 . S
C2221 C362 1.502 . S
C2227 C1522 1.426 . S
C2241 C402 1.525 . S
C2247 C1546 1.488 . S
C2267 C1558 1.455 . S
C2261 C455 1.532 . S
C2281 C495 1.487 . S
C2287 C1566 1.419 . S
C2301 C541 1.529 . S
C2307 C1504 1.491 . S
C2321 C575 1.533 . S
C2327 C1530 1.460 . S
C2341 C621 1.583 . S
C2347 C1539 1.522 . S
C2367 C1432 1.464 . S
C2361 C335 1.536 . S
C2381 C375 1.505 . S
C2387 C1582 1.445 . S
C2407 C1474 1.502 . S
C2401 C421 1.545 . S
C2421 C461 1.545 . S
C2427 C1602 1.482 . S
C2441 C482 1.495 . S
C2447 C1359 1.459 . S
C2467 C1620 1.482 . S
C2461 C535 1.544 . S
C2481 C581 1.549 . S
C2487 C1404 1.460 . S
C2507 C1636 1.497 . S
C2501 C602 1.553 . S
C2521 C322 1.512 . S
C2527 C1594 1.474 . S
C2547 C1612 1.447 . S
C2541 C501 1.478 . S
C2561 C522 1.539 . S
C2567 C1396 1.505 . S
C2587 C1629 1.489 . S
C2581 C562 1.547 . S
C2601 C615 1.543 . S
C2607 C1366 1.485 . S
C2621 C415 1.542 . S
C2627 C1575 1.461 . S
C2641 C442 1.542 . S
C2647 C1467 1.467 . S
C2661 C381 1.522 . S
C2667 C1440 1.442 . S
C2681 C661 1.552 . S
C2687 C1548 1.507 . S
C2707 C1557 1.420 . S
C2701 C682 1.496 . S
C2721 C722 1.520 . S
C2727 C1510 1.480 . S
C2741 C775 1.537 . S
C2747 C1521 1.456 . S
C2761 C815 1.479 . S
C2767 C1528 1.403 . S
C2781 C861 1.536 . S
C2787 C1540 1.496 . S
C2807 C1564 1.475 . S
C2801 C895 1.534 . S
C2821 C941 1.583 . S
C2827 C1503 1.515 . S
C2847 C1654 1.487 . S
C2841 C655 1.545 . S
C2861 C695 1.503 . S
C2867 C1458 1.438 . S
C2887 C1672 1.511 . S
C2881 C741 1.550 . S
C2901 C781 1.547 . S
C2907 C1494 1.486 . S
C2921 C802 1.481 . S
C2927 C1692 1.442 . S
C2941 C855 1.541 . S
C2947 C1384 1.471 . S
C2967 C1708 1.490 . S
C2961 C901 1.546 . S
C2981 C922 1.550 . S
C2987 C1420 1.496 . S
C3007 C1486 1.500 . S
C3001 C642 1.530 . S
C3027 C1377 1.420 . S
C3021 C821 1.462 . S
C3041 C842 1.536 . S
C3047 C1701 1.490 . S
C3061 C882 1.550 . S
C3067 C1413 1.461 . S
C3087 C1684 1.485 . S
C3081 C935 1.541 . S
C3107 C1450 1.471 . S
C3101 C735 1.542 . S
C3127 C1665 1.466 . S
C3121 C762 1.535 . S
C3147 C1647 1.445 . S
C3141 C701 1.521 . S
C3161 C981 1.555 . S
C3167 C1332 1.515 . S
C3181 C1002 1.496 . S
C3187 C1342 1.419 . S
C3207 C1296 1.469 . S
C3201 C1042 1.519 . S
C3227 C1305 1.448 . S
C3221 C1095 1.532 . S
C3247 C1312 1.405 . S
C3241 C1135 1.479 . S
C3267 C1324 1.488 . S
C3261 C1181 1.530 . S
C3287 C1350 1.447 . S
C3281 C1215 1.530 . S
C3301 C1261 1.578 . S
C3307 C1288 1.524 . S
C3321 C975 1.545 . S
C3327 C1690 1.484 . S
C3347 C1618 1.435 . S
C3341 C1015 1.501 . S
C3367 C1710 1.519 . S
C3361 C1061 1.558 . S
C3387 C1638 1.478 . S
C3381 C1101 1.544 . S
C3401 C1122 1.497 . S
C3407 C1656 1.451 . S
C3427 C1584 1.454 . S
C3421 C1175 1.535 . S
C3447 C1674 1.466 . S
C3441 C1221 1.547 . S
C3461 C1242 1.543 . S
C3467 C1600 1.480 . S
C3487 C1630 1.500 . S
C3481 C962 1.535 . S
C3507 C1576 1.418 . S
C3501 C1141 1.457 . S
C3527 C1666 1.493 . S
C3521 C1162 1.532 . S
C3541 C1202 1.550 . S
C3547 C1593 1.485 . S
C3561 C1255 1.534 . S
C3567 C1648 1.461 . S
C3581 C1055 1.543 . S
C3587 C1611 1.466 . S
C3601 C1082 1.541 . S
C3607 C1702 1.467 . S
C3627 C1683 1.427 . S
C3621 C1021 1.518 . S
