# Generated by pormake.
# Topology llk, (3,12)-cn, num edge types: 1
# Building blocks:
#     Node 0, Type 0, BuildingBlock: BELTOD_clean_linker_0, # of connection points: 3
#     Node 1, Type 0, BuildingBlock: BELTOD_clean_linker_0, # of connection points: 3
#     Node 2, Type 0, BuildingBlock: BELTOD_clean_linker_0, # of connection points: 3
#     Node 3, Type 0, BuildingBlock: BELTOD_clean_linker_0, # of connection points: 3
#     Node 4, Type 0, BuildingBlock: BELTOD_clean_linker_0, # of connection points: 3
#     Node 5, Type 0, BuildingBlock: BELTOD_clean_linker_0, # of connection points: 3
#     Node 6, Type 0, BuildingBlock: BELTOD_clean_linker_0, # of connection points: 3
#     Node 7, Type 0, BuildingBlock: BELTOD_clean_linker_0, # of connection points: 3
#     Node 8, Type 0, BuildingBlock: BELTOD_clean_linker_0, # of connection points: 3
#     Node 9, Type 0, BuildingBlock: BELTOD_clean_linker_0, # of connection points: 3
#     Node 10, Type 0, BuildingBlock: BELTOD_clean_linker_0, # of connection points: 3
#     Node 11, Type 0, BuildingBlock: BELTOD_clean_linker_0, # of connection points: 3
#     Node 12, Type 0, BuildingBlock: BELTOD_clean_linker_0, # of connection points: 3
#     Node 13, Type 0, BuildingBlock: BELTOD_clean_linker_0, # of connection points: 3
#     Node 14, Type 0, BuildingBlock: BELTOD_clean_linker_0, # of connection points: 3
#     Node 15, Type 0, BuildingBlock: BELTOD_clean_linker_0, # of connection points: 3
#     Node 16, Type 0, BuildingBlock: BELTOD_clean_linker_0, # of connection points: 3
#     Node 17, Type 0, BuildingBlock: BELTOD_clean_linker_0, # of connection points: 3
#     Node 18, Type 0, BuildingBlock: BELTOD_clean_linker_0, # of connection points: 3
#     Node 19, Type 0, BuildingBlock: BELTOD_clean_linker_0, # of connection points: 3
#     Node 20, Type 0, BuildingBlock: BELTOD_clean_linker_0, # of connection points: 3
#     Node 21, Type 0, BuildingBlock: BELTOD_clean_linker_0, # of connection points: 3
#     Node 22, Type 0, BuildingBlock: BELTOD_clean_linker_0, # of connection points: 3
#     Node 23, Type 0, BuildingBlock: BELTOD_clean_linker_0, # of connection points: 3
#     Node 24, Type 1, BuildingBlock: EZIPEK_clean_sbu_0, # of connection points: 12
#     Node 25, Type 1, BuildingBlock: EZIPEK_clean_sbu_0, # of connection points: 12
#     Node 26, Type 1, BuildingBlock: EZIPEK_clean_sbu_0, # of connection points: 12
#     Node 27, Type 1, BuildingBlock: EZIPEK_clean_sbu_0, # of connection points: 12
#     Node 28, Type 1, BuildingBlock: EZIPEK_clean_sbu_0, # of connection points: 12
#     Node 29, Type 1, BuildingBlock: EZIPEK_clean_sbu_0, # of connection points: 12
#     Edge 30, Type (0, 1), BuildingBlock: KIFKEQ_clean_linker_1, # of connection points: 2
#     Edge 31, Type (0, 1), BuildingBlock: KIFKEQ_clean_linker_1, # of connection points: 2
#     Edge 32, Type (0, 1), BuildingBlock: KIFKEQ_clean_linker_1, # of connection points: 2
#     Edge 33, Type (0, 1), BuildingBlock: KIFKEQ_clean_linker_1, # of connection points: 2
#     Edge 34, Type (0, 1), BuildingBlock: KIFKEQ_clean_linker_1, # of connection points: 2
#     Edge 35, Type (0, 1), BuildingBlock: KIFKEQ_clean_linker_1, # of connection points: 2
#     Edge 36, Type (0, 1), BuildingBlock: KIFKEQ_clean_linker_1, # of connection points: 2
#     Edge 37, Type (0, 1), BuildingBlock: KIFKEQ_clean_linker_1, # of connection points: 2
#     Edge 38, Type (0, 1), BuildingBlock: KIFKEQ_clean_linker_1, # of connection points: 2
#     Edge 39, Type (0, 1), BuildingBlock: KIFKEQ_clean_linker_1, # of connection points: 2
#     Edge 40, Type (0, 1), BuildingBlock: KIFKEQ_clean_linker_1, # of connection points: 2
#     Edge 41, Type (0, 1), BuildingBlock: KIFKEQ_clean_linker_1, # of connection points: 2
#     Edge 42, Type (0, 1), BuildingBlock: KIFKEQ_clean_linker_1, # of connection points: 2
#     Edge 43, Type (0, 1), BuildingBlock: KIFKEQ_clean_linker_1, # of connection points: 2
#     Edge 44, Type (0, 1), BuildingBlock: KIFKEQ_clean_linker_1, # of connection points: 2
#     Edge 45, Type (0, 1), BuildingBlock: KIFKEQ_clean_linker_1, # of connection points: 2
#     Edge 46, Type (0, 1), BuildingBlock: KIFKEQ_clean_linker_1, # of connection points: 2
#     Edge 47, Type (0, 1), BuildingBlock: KIFKEQ_clean_linker_1, # of connection points: 2
#     Edge 48, Type (0, 1), BuildingBlock: KIFKEQ_clean_linker_1, # of connection points: 2
#     Edge 49, Type (0, 1), BuildingBlock: KIFKEQ_clean_linker_1, # of connection points: 2
#     Edge 50, Type (0, 1), BuildingBlock: KIFKEQ_clean_linker_1, # of connection points: 2
#     Edge 51, Type (0, 1), BuildingBlock: KIFKEQ_clean_linker_1, # of connection points: 2
#     Edge 52, Type (0, 1), BuildingBlock: KIFKEQ_clean_linker_1, # of connection points: 2
#     Edge 53, Type (0, 1), BuildingBlock: KIFKEQ_clean_linker_1, # of connection points: 2
#     Edge 54, Type (0, 1), BuildingBlock: KIFKEQ_clean_linker_1, # of connection points: 2
#     Edge 55, Type (0, 1), BuildingBlock: KIFKEQ_clean_linker_1, # of connection points: 2
#     Edge 56, Type (0, 1), BuildingBlock: KIFKEQ_clean_linker_1, # of connection points: 2
#     Edge 57, Type (0, 1), BuildingBlock: KIFKEQ_clean_linker_1, # of connection points: 2
#     Edge 58, Type (0, 1), BuildingBlock: KIFKEQ_clean_linker_1, # of connection points: 2
#     Edge 59, Type (0, 1), BuildingBlock: KIFKEQ_clean_linker_1, # of connection points: 2
#     Edge 60, Type (0, 1), BuildingBlock: KIFKEQ_clean_linker_1, # of connection points: 2
#     Edge 61, Type (0, 1), BuildingBlock: KIFKEQ_clean_linker_1, # of connection points: 2
#     Edge 62, Type (0, 1), BuildingBlock: KIFKEQ_clean_linker_1, # of connection points: 2
#     Edge 63, Type (0, 1), BuildingBlock: KIFKEQ_clean_linker_1, # of connection points: 2
#     Edge 64, Type (0, 1), BuildingBlock: KIFKEQ_clean_linker_1, # of connection points: 2
#     Edge 65, Type (0, 1), BuildingBlock: KIFKEQ_clean_linker_1, # of connection points: 2
#     Edge 66, Type (0, 1), BuildingBlock: KIFKEQ_clean_linker_1, # of connection points: 2
#     Edge 67, Type (0, 1), BuildingBlock: KIFKEQ_clean_linker_1, # of connection points: 2
#     Edge 68, Type (0, 1), BuildingBlock: KIFKEQ_clean_linker_1, # of connection points: 2
#     Edge 69, Type (0, 1), BuildingBlock: KIFKEQ_clean_linker_1, # of connection points: 2
#     Edge 70, Type (0, 1), BuildingBlock: KIFKEQ_clean_linker_1, # of connection points: 2
#     Edge 71, Type (0, 1), BuildingBlock: KIFKEQ_clean_linker_1, # of connection points: 2
#     Edge 72, Type (0, 1), BuildingBlock: KIFKEQ_clean_linker_1, # of connection points: 2
#     Edge 73, Type (0, 1), BuildingBlock: KIFKEQ_clean_linker_1, # of connection points: 2
#     Edge 74, Type (0, 1), BuildingBlock: KIFKEQ_clean_linker_1, # of connection points: 2
#     Edge 75, Type (0, 1), BuildingBlock: KIFKEQ_clean_linker_1, # of connection points: 2
#     Edge 76, Type (0, 1), BuildingBlock: KIFKEQ_clean_linker_1, # of connection points: 2
#     Edge 77, Type (0, 1), BuildingBlock: KIFKEQ_clean_linker_1, # of connection points: 2
#     Edge 78, Type (0, 1), BuildingBlock: KIFKEQ_clean_linker_1, # of connection points: 2
#     Edge 79, Type (0, 1), BuildingBlock: KIFKEQ_clean_linker_1, # of connection points: 2
#     Edge 80, Type (0, 1), BuildingBlock: KIFKEQ_clean_linker_1, # of connection points: 2
#     Edge 81, Type (0, 1), BuildingBlock: KIFKEQ_clean_linker_1, # of connection points: 2
#     Edge 82, Type (0, 1), BuildingBlock: KIFKEQ_clean_linker_1, # of connection points: 2
#     Edge 83, Type (0, 1), BuildingBlock: KIFKEQ_clean_linker_1, # of connection points: 2
#     Edge 84, Type (0, 1), BuildingBlock: KIFKEQ_clean_linker_1, # of connection points: 2
#     Edge 85, Type (0, 1), BuildingBlock: KIFKEQ_clean_linker_1, # of connection points: 2
#     Edge 86, Type (0, 1), BuildingBlock: KIFKEQ_clean_linker_1, # of connection points: 2
#     Edge 87, Type (0, 1), BuildingBlock: KIFKEQ_clean_linker_1, # of connection points: 2
#     Edge 88, Type (0, 1), BuildingBlock: KIFKEQ_clean_linker_1, # of connection points: 2
#     Edge 89, Type (0, 1), BuildingBlock: KIFKEQ_clean_linker_1, # of connection points: 2
#     Edge 90, Type (0, 1), BuildingBlock: KIFKEQ_clean_linker_1, # of connection points: 2
#     Edge 91, Type (0, 1), BuildingBlock: KIFKEQ_clean_linker_1, # of connection points: 2
#     Edge 92, Type (0, 1), BuildingBlock: KIFKEQ_clean_linker_1, # of connection points: 2
#     Edge 93, Type (0, 1), BuildingBlock: KIFKEQ_clean_linker_1, # of connection points: 2
#     Edge 94, Type (0, 1), BuildingBlock: KIFKEQ_clean_linker_1, # of connection points: 2
#     Edge 95, Type (0, 1), BuildingBlock: KIFKEQ_clean_linker_1, # of connection points: 2
#     Edge 96, Type (0, 1), BuildingBlock: KIFKEQ_clean_linker_1, # of connection points: 2
#     Edge 97, Type (0, 1), BuildingBlock: KIFKEQ_clean_linker_1, # of connection points: 2
#     Edge 98, Type (0, 1), BuildingBlock: KIFKEQ_clean_linker_1, # of connection points: 2
#     Edge 99, Type (0, 1), BuildingBlock: KIFKEQ_clean_linker_1, # of connection points: 2
#     Edge 100, Type (0, 1), BuildingBlock: KIFKEQ_clean_linker_1, # of connection points: 2
#     Edge 101, Type (0, 1), BuildingBlock: KIFKEQ_clean_linker_1, # of connection points: 2
# Relax obj value: 0.096
# Max RMSD: 0.146
# Mean RMSD: 0.122
data_MOF--net-llk--node1-EZIPEK_clean_sbu_0--node2-BELTOD_clean_linker_0--edge1-KIFKEQ_clean_linker_1
_symmetry_space_group_name_H-M    P1
_symmetry_Int_Tables_number       1
_symmetry_cell_setting            triclinic
loop_
_symmetry_equiv_pos_as_xyz
'x, y, z'
_cell_length_a     53.432013
_cell_length_b     53.559975
_cell_length_c     53.320503
_cell_angle_alpha  89.981554
_cell_angle_beta   89.991658
_cell_angle_gamma 90.029156
loop_
_atom_site_label
_atom_site_type_symbol
_atom_site_fract_x
_atom_site_fract_y
_atom_site_fract_z
_atom_type_partial_charge
P0 P 0.95725 0.25337 0.25026 0.0
H1 H 0.94159 0.25926 0.19813 0.0
H2 H 0.95561 0.28793 0.16578 0.0
H3 H 0.0214 0.30505 0.20965 0.0
H4 H 0.00701 0.27636 0.24226 0.0
H5 H 0.92909 0.21471 0.27534 0.0
H6 H 0.94125 0.18249 0.30483 0.0
H7 H 0.0191 0.19646 0.28809 0.0
H8 H 0.00657 0.22845 0.25747 0.0
H9 H 0.92477 0.29408 0.26758 0.0
H10 H 0.9975 0.26416 0.28586 0.0
O11 O 0.92687 0.25088 0.24334 0.0
H12 H 0.92975 0.32558 0.3005 0.0
H13 H 0.00278 0.29559 0.31799 0.0
C14 C 0.97297 0.26585 0.22294 0.0
C15 C 0.95943 0.26852 0.20057 0.0
C16 C 0.96752 0.28506 0.18195 0.0
C17 C 0.9894 0.29931 0.18528 0.0
C18 C 0.00412 0.29487 0.20673 0.0
C19 C 0.99603 0.2782 0.22533 0.0
C20 C 0.96688 0.22405 0.26403 0.0
C21 C 0.94878 0.21032 0.27717 0.0
C22 C 0.9558 0.1921 0.29447 0.0
C23 C 0.98117 0.18737 0.29943 0.0
C24 C 0.99937 0.19971 0.28481 0.0
C25 C 0.99224 0.21793 0.26719 0.0
C26 C 0.96048 0.27633 0.27463 0.0
C27 C 0.94171 0.29414 0.27872 0.0
C28 C 0.94466 0.31225 0.29738 0.0
C29 C 0.96655 0.31287 0.31204 0.0
C30 C 0.98543 0.29523 0.30749 0.0
C31 C 0.98241 0.27718 0.289 0.0
P32 P 0.75583 0.9596 0.25317 0.0
H33 H 0.75857 0.95361 0.19868 0.0
H34 H 0.73016 0.96667 0.16542 0.0
H35 H 0.69044 0.01329 0.21834 0.0
H36 H 0.72005 1.00137 0.25098 0.0
H37 H 0.8057 0.93995 0.26318 0.0
H38 H 0.83897 0.95444 0.29053 0.0
H39 H 0.80057 0.0248 0.29992 0.0
H40 H 0.76689 0.00987 0.27242 0.0
H41 H 0.70264 0.94719 0.25332 0.0
H42 H 0.75933 0.96433 0.30841 0.0
O43 O 0.76257 0.93074 0.24351 0.0
H44 H 0.67051 0.94966 0.28587 0.0
H45 H 0.72737 0.96719 0.34071 0.0
C46 C 0.74104 0.97597 0.22747 0.0
C47 C 0.74425 0.96727 0.20292 0.0
C48 C 0.72765 0.97449 0.18397 0.0
C49 C 0.70723 0.9903 0.18928 0.0
C50 C 0.70571 1.00097 0.21339 0.0
C51 C 0.72268 0.9941 0.23221 0.0
C52 C 0.78386 0.97389 0.26552 0.0
C53 C 0.80477 0.95884 0.27032 0.0
C54 C 0.82387 0.96718 0.28611 0.0
C55 C 0.8224 0.99073 0.29768 0.0
C56 C 0.80215 0.00644 0.29157 0.0
C57 C 0.78307 0.99811 0.27553 0.0
C58 C 0.73324 0.95677 0.27812 0.0
C59 C 0.70821 0.9514 0.27238 0.0
C60 C 0.68987 0.95286 0.29096 0.0
C61 C 0.69639 0.95919 0.31569 0.0
C62 C 0.72176 0.96244 0.32178 0.0
C63 C 0.74006 0.9611 0.30316 0.0
P64 P 0.04702 0.75566 0.25259 0.0
H65 H 0.05349 0.75896 0.19817 0.0
H66 H 0.04036 0.73112 0.16453 0.0
H67 H 0.99238 0.69173 0.21656 0.0
H68 H 0.00432 0.72087 0.24956 0.0
H69 H 0.0679 0.80511 0.26206 0.0
H70 H 0.05491 0.83839 0.29001 0.0
H71 H 0.98391 0.80141 0.30137 0.0
H72 H 0.99737 0.76766 0.27328 0.0
H73 H 0.05663 0.70189 0.25242 0.0
H74 H 0.0442 0.7593 0.30786 0.0
O75 O 0.07618 0.7617 0.24314 0.0
H76 H 0.0532 0.67003 0.28499 0.0
H77 H 0.04131 0.72768 0.34041 0.0
C78 C 0.03045 0.74158 0.22657 0.0
C79 C 0.03951 0.74485 0.20214 0.0
C80 C 0.03226 0.72855 0.18296 0.0
C81 C 0.01607 0.70833 0.1879 0.0
C82 C 0.00502 0.70682 0.21187 0.0
C83 C 0.01189 0.72353 0.2309 0.0
C84 C 0.03355 0.78391 0.26534 0.0
C85 C 0.04917 0.80448 0.26977 0.0
C86 C 0.04169 0.82361 0.28593 0.0
C87 C 0.01842 0.82256 0.29823 0.0
C88 C 0.00209 0.80268 0.29249 0.0
C89 C 0.00957 0.78356 0.2761 0.0
C90 C 0.04924 0.73289 0.2774 0.0
C91 C 0.05328 0.70768 0.27158 0.0
C92 C 0.05155 0.68948 0.29027 0.0
C93 C 0.0463 0.69632 0.31517 0.0
C94 C 0.04449 0.72179 0.32124 0.0
C95 C 0.04611 0.73992 0.30254 0.0
P96 P 0.25202 0.96094 0.25296 0.0
H97 H 0.19755 0.95551 0.25276 0.0
H98 H 0.16583 0.97081 0.28199 0.0
H99 H 0.22023 0.02055 0.31494 0.0
H100 H 0.25175 0.00559 0.28539 0.0
H101 H 0.27227 0.93296 0.21131 0.0
H102 H 0.2999 0.94475 0.17713 0.0
H103 H 0.28963 0.02254 0.19571 0.0
H104 H 0.26117 0.01048 0.22994 0.0
H105 H 0.2654 0.92797 0.29478 0.0
H106 H 0.29458 0.99473 0.26013 0.0
O107 O 0.24179 0.93163 0.24988 0.0
H108 H 0.29891 0.92977 0.32612 0.0
H109 H 0.32723 0.99697 0.29124 0.0
C110 C 0.22721 0.97895 0.26718 0.0
C111 C 0.20247 0.97034 0.26565 0.0
C112 C 0.18433 0.97907 0.28245 0.0
C113 C 0.19071 0.99647 0.30114 0.0
C114 C 0.21492 0.00676 0.30106 0.0
C115 C 0.23294 0.99826 0.28404 0.0
C116 C 0.26438 0.97083 0.22306 0.0
C117 C 0.27502 0.95263 0.20747 0.0
C118 C 0.29102 0.9594 0.18795 0.0
C119 C 0.29715 0.98457 0.18385 0.0
C120 C 0.28539 0.00297 0.19857 0.0
C121 C 0.26888 0.99613 0.21789 0.0
C122 C 0.27783 0.96078 0.27463 0.0
C123 C 0.27917 0.94276 0.29365 0.0
C124 C 0.29817 0.94395 0.31167 0.0
C125 C 0.31591 0.96337 0.31101 0.0
C126 C 0.31435 0.98136 0.29192 0.0
C127 C 0.29554 0.98007 0.27397 0.0
P128 P 0.95519 0.7567 0.75458 0.0
H129 H 0.93302 0.74589 0.80343 0.0
H130 H 0.94513 0.71635 0.83591 0.0
H131 H 0.01729 0.70732 0.8007 0.0
H132 H 0.00501 0.73711 0.76798 0.0
H133 H 0.93859 0.80827 0.74786 0.0
H134 H 0.95242 0.84067 0.71917 0.0
H135 H 0.01871 0.79768 0.70221 0.0
H136 H 0.00432 0.76485 0.73078 0.0
H137 H 0.95525 0.70187 0.75806 0.0
H138 H 0.95525 0.75759 0.69949 0.0
O139 O 0.92506 0.76344 0.7594 0.0
H140 H 0.96115 0.66927 0.72684 0.0
H141 H 0.96169 0.72504 0.66824 0.0
C142 C 0.96811 0.7439 0.7832 0.0
C143 C 0.95181 0.73836 0.80306 0.0
C144 C 0.95863 0.72115 0.82153 0.0
C145 C 0.98196 0.70907 0.82057 0.0
C146 C 0.99918 0.71631 0.80195 0.0
C147 C 0.99227 0.73354 0.78335 0.0
C148 C 0.97034 0.784 0.74151 0.0
C149 C 0.9565 0.80606 0.73865 0.0
C150 C 0.96448 0.82469 0.72209 0.0
C151 C 0.98652 0.82169 0.70796 0.0
C152 C 1.0014 0.80042 0.7124 0.0
C153 C 0.99342 0.7818 0.72911 0.0
C154 C 0.95615 0.73237 0.73128 0.0
C155 C 0.95675 0.70721 0.73855 0.0
C156 C 0.96012 0.68852 0.72067 0.0
C157 C 0.9625 0.69465 0.69516 0.0
C158 C 0.96007 0.71972 0.68777 0.0
C159 C 0.95667 0.7384 0.70569 0.0
P160 P 0.25114 0.95759 0.75591 0.0
H161 H 0.24824 0.95299 0.81053 0.0
H162 H 0.27668 0.96686 0.84343 0.0
H163 H 0.31632 0.01231 0.78937 0.0
H164 H 0.28668 0.9996 0.75706 0.0
H165 H 0.2017 0.93725 0.74524 0.0
H166 H 0.16864 0.9512 0.71738 0.0
H167 H 0.20639 0.02196 0.70804 0.0
H168 H 0.23987 0.00759 0.73609 0.0
H169 H 0.30415 0.94465 0.75657 0.0
H170 H 0.24843 0.96204 0.70057 0.0
O171 O 0.24443 0.92895 0.76629 0.0
H172 H 0.33683 0.94712 0.72456 0.0
H173 H 0.28092 0.96492 0.66883 0.0
C174 C 0.26574 0.97471 0.7812 0.0
C175 C 0.26253 0.96659 0.80595 0.0
C176 C 0.27915 0.97427 0.8247 0.0
C177 C 0.29957 0.98995 0.81897 0.0
C178 C 0.30105 1.0001 0.79462 0.0
C179 C 0.28405 0.99278 0.77601 0.0
C180 C 0.22318 0.97146 0.743 0.0
C181 C 0.20252 0.95612 0.738 0.0
C182 C 0.18354 0.96414 0.72191 0.0
C183 C 0.1849 0.98765 0.71024 0.0
C184 C 0.20491 0.00364 0.71649 0.0
C185 C 0.22386 0.99561 0.73283 0.0
C186 C 0.27399 0.95429 0.73126 0.0
C187 C 0.2989 0.94884 0.73741 0.0
C188 C 0.31755 0.95032 0.71915 0.0
C189 C 0.31146 0.95678 0.69434 0.0
C190 C 0.2862 0.96005 0.68782 0.0
C191 C 0.26759 0.9587 0.70612 0.0
P192 P 0.0526 0.25068 0.75633 0.0
H193 H 0.07552 0.26196 0.80469 0.0
H194 H 0.06377 0.29137 0.83739 0.0
H195 H 0.99115 0.30038 0.80313 0.0
H196 H 0.00306 0.27068 0.77021 0.0
H197 H 0.06827 0.19877 0.74997 0.0
H198 H 0.05363 0.16645 0.72161 0.0
H199 H 0.98786 0.21041 0.70512 0.0
H200 H 0.00309 0.24315 0.73327 0.0
H201 H 0.05159 0.30567 0.75859 0.0
H202 H 0.05358 0.24861 0.70139 0.0
O203 O 0.08266 0.24352 0.7609 0.0
H204 H 0.04562 0.33742 0.72651 0.0
H205 H 0.04799 0.28048 0.66917 0.0
C206 C 0.04016 0.26393 0.78494 0.0
C207 C 0.05673 0.26949 0.80456 0.0
C208 C 0.0501 0.28661 0.82317 0.0
C209 C 0.02673 0.29862 0.82256 0.0
C210 C 0.0093 0.29144 0.80412 0.0
C211 C 0.01601 0.27427 0.78539 0.0
C212 C 0.03685 0.2235 0.74379 0.0
C213 C 0.05029 0.2012 0.74096 0.0
C214 C 0.04184 0.18262 0.72459 0.0
C215 C 0.01972 0.18591 0.71066 0.0
C216 C 0.00522 0.20742 0.71515 0.0
C217 C 0.01368 0.22601 0.73164 0.0
C218 C 0.05174 0.27456 0.73253 0.0
C219 C 0.05069 0.29987 0.73918 0.0
C220 C 0.04756 0.31812 0.72077 0.0
C221 C 0.04582 0.31136 0.69537 0.0
C222 C 0.04858 0.28614 0.68866 0.0
C223 C 0.05177 0.26793 0.70709 0.0
P224 P 0.75557 0.04943 0.75743 0.0
H225 H 0.7562 0.0534 0.81223 0.0
H226 H 0.72706 0.0375 0.84371 0.0
H227 H 0.69367 0.98931 0.78811 0.0
H228 H 0.72324 0.00499 0.75672 0.0
H229 H 0.80254 0.07305 0.74341 0.0
H230 H 0.83435 0.06144 0.71295 0.0
H231 H 0.80123 0.98822 0.70627 0.0
H232 H 0.76921 1.0 0.73719 0.0
H233 H 0.70228 0.06102 0.75998 0.0
H234 H 0.75693 0.04729 0.7019 0.0
O235 O 0.76171 0.07768 0.76913 0.0
H236 H 0.66891 0.05959 0.72863 0.0
H237 H 0.72381 0.04541 0.67086 0.0
C238 C 0.74168 0.0307 0.782 0.0
C239 C 0.74328 0.03873 0.80698 0.0
C240 C 0.72651 0.02966 0.82499 0.0
C241 C 0.70771 0.01253 0.81825 0.0
C242 C 0.70768 0.00281 0.79375 0.0
C243 C 0.72476 0.01158 0.77586 0.0
C244 C 0.78359 0.03731 0.74288 0.0
C245 C 0.80254 0.05417 0.73619 0.0
C246 C 0.82059 0.04762 0.71844 0.0
C247 C 0.82003 0.02409 0.70683 0.0
C248 C 0.80217 0.00649 0.71492 0.0
C249 C 0.78399 0.01312 0.73275 0.0
C250 C 0.73202 0.05329 0.73353 0.0
C251 C 0.70715 0.05788 0.74051 0.0
C252 C 0.6881 0.05697 0.72262 0.0
C253 C 0.69372 0.0519 0.69738 0.0
C254 C 0.71887 0.0493 0.69017 0.0
C255 C 0.73788 0.0501 0.70807 0.0
P256 P 0.25193 0.25393 0.96069 0.0
H257 H 0.2604 0.20378 0.94102 0.0
H258 H 0.28922 0.1711 0.95361 0.0
H259 H 0.30419 0.21055 0.02268 0.0
H260 H 0.27529 0.24367 0.0096 0.0
H261 H 0.19757 0.25483 0.95338 0.0
H262 H 0.16575 0.28397 0.9683 0.0
H263 H 0.21902 0.31553 0.02024 0.0
H264 H 0.25076 0.28588 0.00558 0.0
H265 H 0.307 0.24996 0.95884 0.0
H266 H 0.25139 0.30815 0.95304 0.0
O267 O 0.24155 0.24719 0.93195 0.0
H268 H 0.33985 0.28132 0.96102 0.0
H269 H 0.28426 0.33966 0.95575 0.0
C270 C 0.26543 0.22616 0.97444 0.0
C271 C 0.26912 0.20508 0.95929 0.0
C272 C 0.28579 0.18631 0.96653 0.0
C273 C 0.29934 0.18823 0.98908 0.0
C274 C 0.29437 0.20862 0.00503 0.0
C275 C 0.2775 0.22738 0.99779 0.0
C276 C 0.22669 0.26839 0.97808 0.0
C277 C 0.20223 0.26738 0.9686 0.0
C278 C 0.18401 0.28414 0.97712 0.0
C279 C 0.19002 0.30239 0.9951 0.0
C280 C 0.21396 0.30193 0.00609 0.0
C281 C 0.23203 0.28481 0.9979 0.0
C282 C 0.27655 0.27672 0.95725 0.0
C283 C 0.30174 0.26945 0.95817 0.0
C284 C 0.3206 0.28742 0.95938 0.0
C285 C 0.31459 0.31295 0.95931 0.0
C286 C 0.2895 0.32013 0.95605 0.0
C287 C 0.27065 0.30211 0.95476 0.0
P288 P 0.25273 0.7558 0.95735 0.0
H289 H 0.20177 0.74845 0.93881 0.0
H290 H 0.16885 0.72007 0.95201 0.0
H291 H 0.2095 0.70461 0.02033 0.0
H292 H 0.24286 0.73283 0.00658 0.0
H293 H 0.26088 0.80639 0.93846 0.0
H294 H 0.2892 0.83921 0.95191 0.0
H295 H 0.30323 0.79915 0.02085 0.0
H296 H 0.27504 0.76588 0.00686 0.0
H297 H 0.25032 0.70102 0.9563 0.0
H298 H 0.30776 0.75777 0.95776 0.0
O299 O 0.24667 0.76182 0.92724 0.0
H300 H 0.28211 0.66885 0.96178 0.0
H301 H 0.33951 0.72569 0.96368 0.0
C302 C 0.22487 0.74288 0.97168 0.0
C303 C 0.20332 0.73965 0.95702 0.0
C304 C 0.1844 0.72327 0.96463 0.0
C305 C 0.18659 0.70966 0.98711 0.0
C306 C 0.20736 0.71441 0.00269 0.0
C307 C 0.22628 0.73093 0.99507 0.0
C308 C 0.26571 0.78359 0.97163 0.0
C309 C 0.26934 0.80494 0.95684 0.0
C310 C 0.28569 0.82381 0.9646 0.0
C311 C 0.29887 0.82176 0.98736 0.0
C312 C 0.29375 0.80117 0.00301 0.0
C313 C 0.27726 0.7823 0.99524 0.0
C314 C 0.27648 0.73194 0.95797 0.0
C315 C 0.26971 0.70665 0.95801 0.0
C316 C 0.28789 0.68823 0.96113 0.0
C317 C 0.31321 0.6948 0.96376 0.0
C318 C 0.32012 0.72005 0.96186 0.0
C319 C 0.3019 0.73845 0.95877 0.0
P320 P 0.75582 0.25265 0.95725 0.0
H321 H 0.80732 0.25955 0.93999 0.0
H322 H 0.83989 0.28815 0.95354 0.0
H323 H 0.7974 0.30487 0.02042 0.0
H324 H 0.76439 0.27646 0.00628 0.0
H325 H 0.74746 0.20191 0.93891 0.0
H326 H 0.71881 0.1694 0.95246 0.0
H327 H 0.70403 0.21046 0.02061 0.0
H328 H 0.73255 0.24342 0.00652 0.0
H329 H 0.7588 0.30728 0.95431 0.0
H330 H 0.70073 0.25123 0.95717 0.0
O331 O 0.7627 0.24605 0.92744 0.0
H332 H 0.72734 0.33995 0.95857 0.0
H333 H 0.66932 0.2838 0.96192 0.0
C334 C 0.78333 0.26572 0.97211 0.0
C335 C 0.80528 0.26867 0.95799 0.0
C336 C 0.82401 0.28518 0.9658 0.0
C337 C 0.82121 0.29921 0.98794 0.0
C338 C 0.80001 0.29476 0.00304 0.0
C339 C 0.78129 0.27812 0.99521 0.0
C340 C 0.74231 0.22517 0.9717 0.0
C341 C 0.73874 0.20365 0.95715 0.0
C342 C 0.72221 0.18496 0.96496 0.0
C343 C 0.70875 0.18736 0.98753 0.0
C344 C 0.71373 0.20816 0.00293 0.0
C345 C 0.73041 0.22685 0.99511 0.0
C346 C 0.73229 0.27671 0.95677 0.0
C347 C 0.73934 0.30193 0.95603 0.0
C348 C 0.72134 0.32062 0.95846 0.0
C349 C 0.69593 0.31441 0.96119 0.0
C350 C 0.68876 0.28918 0.96 0.0
C351 C 0.7068 0.2705 0.95759 0.0
P352 P 0.75638 0.75589 0.04397 0.0
H353 H 0.81111 0.75613 0.04782 0.0
H354 H 0.84237 0.72655 0.03255 0.0
H355 H 0.78645 0.69171 0.98575 0.0
H356 H 0.75527 0.72171 1.00079 0.0
H357 H 0.74677 0.80574 0.06365 0.0
H358 H 0.71778 0.83816 0.05085 0.0
H359 H 0.7034 0.79844 0.98181 0.0
H360 H 0.73255 0.76557 0.99509 0.0
H361 H 0.75859 0.70297 0.05688 0.0
H362 H 0.70099 0.75808 0.04422 0.0
O363 O 0.76826 0.76344 0.07191 0.0
H364 H 0.72683 0.67012 0.05727 0.0
H365 H 0.66944 0.7254 0.04411 0.0
C366 C 0.78073 0.74095 0.02575 0.0
C367 C 0.80572 0.74274 0.03361 0.0
C368 C 0.82361 0.72572 0.02489 0.0
C369 C 0.81676 0.70646 0.00832 0.0
C370 C 0.79219 0.70608 0.99883 0.0
C371 C 0.77442 0.72341 0.00723 0.0
C372 C 0.74213 0.78328 0.03023 0.0
C373 C 0.73813 0.80432 0.04535 0.0
C374 C 0.72137 0.82294 0.03799 0.0
C375 C 0.708 0.82091 0.01535 0.0
C376 C 0.71313 0.80047 0.9995 0.0
C377 C 0.73011 0.78186 0.00686 0.0
C378 C 0.73237 0.73284 0.04932 0.0
C379 C 0.73915 0.70805 0.0543 0.0
C380 C 0.72101 0.68929 0.05447 0.0
C381 C 0.69574 0.69514 0.05013 0.0
C382 C 0.68878 0.72029 0.04736 0.0
C383 C 0.70695 0.73901 0.04711 0.0
P384 P 0.45459 0.75158 0.75287 0.0
H385 H 0.43455 0.76058 0.70273 0.0
H386 H 0.44727 0.78996 0.67031 0.0
H387 H 0.51726 0.80213 0.70882 0.0
H388 H 0.50437 0.77257 0.74147 0.0
H389 H 0.43451 0.70187 0.76301 0.0
H390 H 0.44746 0.67002 0.79286 0.0
H391 H 0.51765 0.70844 0.80375 0.0
H392 H 0.50451 0.74052 0.77372 0.0
H393 H 0.45506 0.80643 0.75032 0.0
H394 H 0.45501 0.74974 0.80796 0.0
O395 O 0.42435 0.74595 0.74735 0.0
H396 H 0.4615 0.83846 0.78206 0.0
H397 H 0.461 0.78181 0.83979 0.0
C398 C 0.46847 0.76427 0.72465 0.0
C399 C 0.45302 0.7688 0.70387 0.0
C400 C 0.46019 0.78588 0.68542 0.0
C401 C 0.48302 0.7988 0.6873 0.0
C402 C 0.49955 0.79248 0.70685 0.0
C403 C 0.49229 0.77537 0.72543 0.0
C404 C 0.46851 0.72369 0.766 0.0
C405 C 0.45306 0.70311 0.77106 0.0
C406 C 0.46037 0.68499 0.78842 0.0
C407 C 0.48334 0.68701 0.8011 0.0
C408 C 0.49983 0.70636 0.7943 0.0
C409 C 0.49243 0.72462 0.77691 0.0
C410 C 0.4559 0.7755 0.77657 0.0
C411 C 0.4565 0.80079 0.76975 0.0
C412 C 0.4599 0.81918 0.78797 0.0
C413 C 0.4623 0.81258 0.81336 0.0
C414 C 0.45996 0.78737 0.82028 0.0
C415 C 0.45655 0.76901 0.80205 0.0
P416 P 0.25808 0.45542 0.75283 0.0
H417 H 0.24663 0.43197 0.70478 0.0
H418 H 0.21726 0.44355 0.67189 0.0
H419 H 0.20915 0.51662 0.70501 0.0
H420 H 0.23877 0.50488 0.73811 0.0
H421 H 0.30981 0.43897 0.7595 0.0
H422 H 0.34257 0.45359 0.78745 0.0
H423 H 0.29971 0.52029 0.8027 0.0
H424 H 0.26653 0.50509 0.77497 0.0
H425 H 0.20306 0.45626 0.75008 0.0
H426 H 0.25972 0.45636 0.80785 0.0
O427 O 0.26473 0.42523 0.7488 0.0
H428 H 0.17085 0.46254 0.78173 0.0
H429 H 0.22754 0.46315 0.83953 0.0
C430 C 0.24509 0.46757 0.72397 0.0
C431 C 0.23932 0.45081 0.7046 0.0
C432 C 0.22222 0.45734 0.6859 0.0
C433 C 0.21048 0.48081 0.68614 0.0
C434 C 0.2179 0.4984 0.70429 0.0
C435 C 0.23502 0.49178 0.72313 0.0
C436 C 0.28559 0.47086 0.76512 0.0
C437 C 0.30772 0.45713 0.76816 0.0
C438 C 0.32655 0.46556 0.78428 0.0
C439 C 0.32369 0.48798 0.79775 0.0
C440 C 0.30236 0.50271 0.79303 0.0
C441 C 0.28352 0.49426 0.77678 0.0
C442 C 0.234 0.4571 0.77642 0.0
C443 C 0.20869 0.45788 0.7695 0.0
C444 C 0.19022 0.46147 0.78763 0.0
C445 C 0.19672 0.46392 0.81304 0.0
C446 C 0.22195 0.46146 0.82008 0.0
C447 C 0.2404 0.45785 0.80192 0.0
P448 P 0.55184 0.25704 0.75111 0.0
H449 H 0.57159 0.24903 0.70069 0.0
H450 H 0.55917 0.21984 0.66802 0.0
H451 H 0.48936 0.20652 0.70645 0.0
H452 H 0.50184 0.23597 0.7393 0.0
H453 H 0.57965 0.29745 0.77401 0.0
H454 H 0.56745 0.33149 0.80127 0.0
H455 H 0.4896 0.31529 0.78696 0.0
H456 H 0.5021 0.28123 0.7586 0.0
H457 H 0.58375 0.21698 0.77065 0.0
H458 H 0.50925 0.24522 0.78377 0.0
O459 O 0.5826 0.25926 0.74596 0.0
H460 H 0.5771 0.18513 0.80285 0.0
H461 H 0.50233 0.21334 0.81521 0.0
C462 C 0.53788 0.24453 0.72283 0.0
C463 C 0.55325 0.24052 0.70187 0.0
C464 C 0.54625 0.22357 0.68322 0.0
C465 C 0.52359 0.21036 0.68499 0.0
C466 C 0.50702 0.21629 0.70463 0.0
C467 C 0.51414 0.23323 0.72343 0.0
C468 C 0.54184 0.28668 0.76403 0.0
C469 C 0.55992 0.30163 0.77583 0.0
C470 C 0.5529 0.32115 0.79164 0.0
C471 C 0.52755 0.32601 0.7965 0.0
C472 C 0.50931 0.31183 0.78377 0.0
C473 C 0.51643 0.29249 0.76742 0.0
C474 C 0.54724 0.23394 0.77517 0.0
C475 C 0.56604 0.21649 0.78051 0.0
C476 C 0.56214 0.19814 0.79875 0.0
C477 C 0.53926 0.19687 0.81173 0.0
C478 C 0.52038 0.21417 0.80599 0.0
C479 C 0.52434 0.23248 0.78789 0.0
P480 P 0.75212 0.46124 0.75143 0.0
H481 H 0.70173 0.4429 0.76168 0.0
H482 H 0.66994 0.45656 0.79119 0.0
H483 H 0.71194 0.5241 0.80511 0.0
H484 H 0.74407 0.51004 0.77545 0.0
H485 H 0.75232 0.45599 0.6967 0.0
H486 H 0.78178 0.47124 0.66519 0.0
H487 H 0.81503 0.52013 0.72026 0.0
H488 H 0.78518 0.50508 0.75168 0.0
H489 H 0.7506 0.46023 0.80688 0.0
H490 H 0.80547 0.44962 0.74839 0.0
O491 O 0.74398 0.43337 0.74003 0.0
H492 H 0.78376 0.4614 0.83805 0.0
H493 H 0.83882 0.45035 0.77974 0.0
C494 C 0.72522 0.47554 0.76609 0.0
C495 C 0.70378 0.46106 0.77035 0.0
C496 C 0.68554 0.46891 0.78739 0.0
C497 C 0.68843 0.49136 0.80076 0.0
C498 C 0.70927 0.50657 0.79537 0.0
C499 C 0.72747 0.49875 0.7781 0.0
C500 C 0.76671 0.47914 0.72666 0.0
C501 C 0.7653 0.47065 0.70182 0.0
C502 C 0.78224 0.47935 0.68379 0.0
C503 C 0.80104 0.49653 0.69039 0.0
C504 C 0.80098 0.50662 0.71474 0.0
C505 C 0.78373 0.49822 0.73264 0.0
C506 C 0.77565 0.45613 0.7751 0.0
C507 C 0.76973 0.45798 0.80066 0.0
C508 C 0.78874 0.45835 0.8186 0.0
C509 C 0.81392 0.45655 0.81125 0.0
C510 C 0.81959 0.45243 0.78585 0.0
C511 C 0.80055 0.45196 0.76795 0.0
P512 P 0.46202 0.25454 0.25683 0.0
H513 H 0.4549 0.25346 0.31132 0.0
H514 H 0.46958 0.22404 0.34305 0.0
H515 H 0.52098 0.19224 0.2894 0.0
H516 H 0.50656 0.22218 0.25775 0.0
H517 H 0.44353 0.30518 0.24858 0.0
H518 H 0.4561 0.33727 0.21899 0.0
H519 H 0.52354 0.29595 0.20245 0.0
H520 H 0.51049 0.26345 0.23214 0.0
H521 H 0.45438 0.20026 0.25753 0.0
H522 H 0.45846 0.2586 0.20176 0.0
O523 O 0.4336 0.26194 0.26748 0.0
H524 H 0.45676 0.16884 0.22451 0.0
H525 H 0.46028 0.22733 0.16877 0.0
C526 C 0.47935 0.23983 0.28201 0.0
C527 C 0.46995 0.2408 0.30656 0.0
C528 C 0.47833 0.22387 0.32473 0.0
C529 C 0.49609 0.20548 0.31859 0.0
C530 C 0.507 0.20595 0.29457 0.0
C531 C 0.49896 0.22325 0.27655 0.0
C532 C 0.47615 0.28192 0.24284 0.0
C533 C 0.46148 0.30335 0.23934 0.0
C534 C 0.46869 0.32177 0.22223 0.0
C535 C 0.49074 0.31915 0.20802 0.0
C536 C 0.50627 0.29842 0.21278 0.0
C537 C 0.49906 0.28002 0.2301 0.0
C538 C 0.45785 0.23177 0.23228 0.0
C539 C 0.45565 0.20635 0.23821 0.0
C540 C 0.45673 0.18838 0.21928 0.0
C541 C 0.45947 0.19564 0.1941 0.0
C542 C 0.45907 0.22118 0.18809 0.0
C543 C 0.45807 0.2391 0.20702 0.0
P544 P 0.75224 0.55132 0.25614 0.0
H545 H 0.70101 0.56901 0.24883 0.0
H546 H 0.668 0.55485 0.22095 0.0
H547 H 0.70938 0.48707 0.20648 0.0
H548 H 0.74282 0.50178 0.23415 0.0
H549 H 0.76094 0.5707 0.30664 0.0
H550 H 0.78968 0.55775 0.33942 0.0
H551 H 0.80363 0.48884 0.29968 0.0
H552 H 0.77505 0.50232 0.26645 0.0
H553 H 0.74937 0.55137 0.20109 0.0
H554 H 0.80723 0.55197 0.25764 0.0
O555 O 0.74582 0.58126 0.26198 0.0
H556 H 0.78096 0.54552 0.16865 0.0
H557 H 0.83887 0.5465 0.2252 0.0
C558 C 0.72447 0.53648 0.2437 0.0
C559 C 0.70271 0.55073 0.24037 0.0
C560 C 0.68373 0.54256 0.22429 0.0
C561 C 0.68611 0.51993 0.21109 0.0
C562 C 0.70711 0.50479 0.21597 0.0
C563 C 0.72608 0.51298 0.23218 0.0
C564 C 0.76568 0.53748 0.28403 0.0
C565 C 0.76949 0.55244 0.30527 0.0
C566 C 0.78607 0.54497 0.32411 0.0
C567 C 0.79933 0.52235 0.32212 0.0
C568 C 0.79409 0.50657 0.30165 0.0
C569 C 0.77737 0.51405 0.28281 0.0
C570 C 0.77578 0.55076 0.23196 0.0
C571 C 0.76883 0.55021 0.2066 0.0
C572 C 0.78694 0.54713 0.18799 0.0
C573 C 0.81234 0.54497 0.19447 0.0
C574 C 0.81937 0.54735 0.21975 0.0
C575 C 0.80124 0.55047 0.23831 0.0
P576 P 0.55195 0.75246 0.25637 0.0
H577 H 0.57449 0.76126 0.3055 0.0
H578 H 0.56294 0.78982 0.33904 0.0
H579 H 0.49071 0.80098 0.3046 0.0
H580 H 0.50243 0.77216 0.27079 0.0
H581 H 0.57438 0.70349 0.24776 0.0
H582 H 0.5624 0.66964 0.2198 0.0
H583 H 0.48999 0.7037 0.20914 0.0
H584 H 0.50216 0.73783 0.23737 0.0
H585 H 0.54928 0.80718 0.25849 0.0
H586 H 0.54768 0.74999 0.20143 0.0
O587 O 0.5828 0.74893 0.25986 0.0
H588 H 0.54179 0.83892 0.22663 0.0
H589 H 0.53975 0.78165 0.1696 0.0
C590 C 0.53939 0.76457 0.28546 0.0
C591 C 0.55583 0.7691 0.30546 0.0
C592 C 0.54931 0.78572 0.32457 0.0
C593 C 0.52615 0.79814 0.32416 0.0
C594 C 0.50872 0.79175 0.30543 0.0
C595 C 0.51532 0.77508 0.28619 0.0
C596 C 0.53923 0.72337 0.24465 0.0
C597 C 0.5556 0.7034 0.24017 0.0
C598 C 0.54882 0.6841 0.2239 0.0
C599 C 0.52547 0.68428 0.21179 0.0
C600 C 0.50813 0.70304 0.21816 0.0
C601 C 0.515 0.72248 0.23447 0.0
C602 C 0.54779 0.77601 0.23259 0.0
C603 C 0.54693 0.80133 0.23921 0.0
C604 C 0.54266 0.81952 0.22097 0.0
C605 C 0.53969 0.81273 0.19569 0.0
C606 C 0.54186 0.78746 0.18894 0.0
C607 C 0.54609 0.76929 0.20722 0.0
P608 P 0.25511 0.5507 0.25644 0.0
H609 H 0.24911 0.5662 0.30866 0.0
H610 H 0.22083 0.55171 0.34123 0.0
H611 H 0.2035 0.48644 0.29687 0.0
H612 H 0.23155 0.50153 0.26388 0.0
H613 H 0.30337 0.5734 0.24475 0.0
H614 H 0.33587 0.5614 0.21516 0.0
H615 H 0.30148 0.48895 0.20678 0.0
H616 H 0.26878 0.5011 0.23666 0.0
H617 H 0.20027 0.55205 0.2584 0.0
H618 H 0.25751 0.54965 0.20124 0.0
O619 O 0.25985 0.58065 0.26368 0.0
H620 H 0.1682 0.54631 0.22638 0.0
H621 H 0.22551 0.54434 0.16923 0.0
C622 C 0.24249 0.53502 0.28372 0.0
C623 C 0.23991 0.54836 0.30619 0.0
C624 C 0.2236 0.54 0.32491 0.0
C625 C 0.20946 0.51806 0.32158 0.0
C626 C 0.21368 0.50366 0.29988 0.0
C627 C 0.23011 0.51204 0.28116 0.0
C628 C 0.28359 0.53813 0.24313 0.0
C629 C 0.30318 0.5546 0.23733 0.0
C630 C 0.32166 0.54783 0.22009 0.0
C631 C 0.32096 0.52442 0.20821 0.0
C632 C 0.30255 0.50712 0.21562 0.0
C633 C 0.28394 0.51397 0.2329 0.0
C634 C 0.2314 0.54999 0.23243 0.0
C635 C 0.20599 0.55027 0.23901 0.0
C636 C 0.18762 0.54724 0.22065 0.0
C637 C 0.1944 0.54432 0.19536 0.0
C638 C 0.21979 0.54579 0.18866 0.0
C639 C 0.23812 0.54881 0.20703 0.0
P640 P 0.75318 0.75274 0.4641 0.0
H641 H 0.74777 0.69844 0.46278 0.0
H642 H 0.77649 0.66522 0.47522 0.0
H643 H 0.82227 0.71941 0.51403 0.0
H644 H 0.79289 0.752 0.50276 0.0
H645 H 0.71022 0.7717 0.43718 0.0
H646 H 0.6765 0.79943 0.44962 0.0
H647 H 0.69816 0.79131 0.52719 0.0
H648 H 0.73187 0.76263 0.51452 0.0
H649 H 0.7925 0.76747 0.42863 0.0
H650 H 0.76183 0.79465 0.49834 0.0
O651 O 0.7492 0.7425 0.43479 0.0
H652 H 0.82319 0.80152 0.42903 0.0
H653 H 0.79217 0.82799 0.49901 0.0
C654 C 0.76833 0.72787 0.48132 0.0
C655 C 0.7635 0.70301 0.47474 0.0
C656 C 0.78024 0.68406 0.48154 0.0
C657 C 0.80231 0.68965 0.49493 0.0
C658 C 0.80567 0.71424 0.50364 0.0
C659 C 0.78876 0.73309 0.49705 0.0
C660 C 0.72351 0.76484 0.47491 0.0
C661 C 0.70716 0.77491 0.45699 0.0
C662 C 0.6879 0.79099 0.46413 0.0
C663 C 0.68481 0.79781 0.48937 0.0
C664 C 0.70025 0.78656 0.50756 0.0
C665 C 0.71928 0.76993 0.50039 0.0
C666 C 0.77431 0.77889 0.46303 0.0
C667 C 0.79204 0.78094 0.44376 0.0
C668 C 0.80968 0.80025 0.44412 0.0
C669 C 0.80988 0.81762 0.4639 0.0
C670 C 0.79208 0.81538 0.48313 0.0
C671 C 0.77456 0.7962 0.48272 0.0
P672 P 0.75084 0.25675 0.45949 0.0
H673 H 0.69912 0.25047 0.44292 0.0
H674 H 0.66671 0.22158 0.45614 0.0
H675 H 0.70965 0.20365 0.52241 0.0
H676 H 0.7424 0.23246 0.50872 0.0
H677 H 0.77291 0.29786 0.43202 0.0
H678 H 0.80061 0.3315 0.44449 0.0
H679 H 0.78789 0.31347 0.52236 0.0
H680 H 0.75908 0.27989 0.50963 0.0
H681 H 0.76962 0.21763 0.42588 0.0
H682 H 0.78585 0.24518 0.50018 0.0
O683 O 0.74421 0.25967 0.42902 0.0
H684 H 0.80298 0.18662 0.43036 0.0
H685 H 0.81846 0.21426 0.50491 0.0
C686 C 0.72352 0.24349 0.47457 0.0
C687 C 0.70137 0.24093 0.46068 0.0
C688 C 0.6827 0.22426 0.46832 0.0
C689 C 0.68568 0.20977 0.49014 0.0
C690 C 0.70696 0.21399 0.50517 0.0
C691 C 0.72565 0.23075 0.49748 0.0
C692 C 0.76368 0.2863 0.46984 0.0
C693 C 0.77514 0.30162 0.45184 0.0
C694 C 0.79122 0.32087 0.459 0.0
C695 C 0.79668 0.32504 0.48441 0.0
C696 C 0.78422 0.31054 0.50261 0.0
C697 C 0.76759 0.2915 0.49536 0.0
C698 C 0.77558 0.23419 0.46243 0.0
C699 C 0.78041 0.21718 0.44306 0.0
C700 C 0.79933 0.19935 0.44571 0.0
C701 C 0.81353 0.19821 0.46789 0.0
C702 C 0.80831 0.21506 0.48734 0.0
C703 C 0.78953 0.23282 0.48464 0.0
P704 P 0.25571 0.75279 0.45833 0.0
H705 H 0.30741 0.75884 0.44157 0.0
H706 H 0.34028 0.78696 0.45535 0.0
H707 H 0.29785 0.8038 0.52223 0.0
H708 H 0.26464 0.77578 0.508 0.0
H709 H 0.23285 0.71248 0.43036 0.0
H710 H 0.20582 0.6782 0.44264 0.0
H711 H 0.22042 0.69424 0.52062 0.0
H712 H 0.24846 0.72852 0.50804 0.0
H713 H 0.23779 0.79352 0.42628 0.0
H714 H 0.22058 0.76319 0.49926 0.0
O715 O 0.26202 0.75052 0.42773 0.0
H716 H 0.20516 0.82507 0.43193 0.0
H717 H 0.1887 0.7947 0.50522 0.0
C718 C 0.28326 0.76537 0.4735 0.0
C719 C 0.30538 0.76796 0.45956 0.0
C720 C 0.3243 0.78417 0.46753 0.0
C721 C 0.32159 0.79815 0.48971 0.0
C722 C 0.30032 0.79384 0.50474 0.0
C723 C 0.28138 0.77754 0.49674 0.0
C724 C 0.24294 0.72308 0.46823 0.0
C725 C 0.23114 0.70817 0.45012 0.0
C726 C 0.21547 0.68854 0.45718 0.0
C727 C 0.21078 0.68359 0.48261 0.0
C728 C 0.22351 0.69776 0.50086 0.0
C729 C 0.23971 0.71719 0.4937 0.0
C730 C 0.23126 0.77555 0.46205 0.0
C731 C 0.22692 0.79348 0.44341 0.0
C732 C 0.20842 0.81163 0.44676 0.0
C733 C 0.19417 0.81221 0.46894 0.0
C734 C 0.19889 0.7944 0.48767 0.0
C735 C 0.21724 0.77629 0.48425 0.0
P736 P 0.25694 0.25475 0.54676 0.0
H737 H 0.31162 0.25474 0.55134 0.0
H738 H 0.34292 0.22517 0.53618 0.0
H739 H 0.28749 0.19113 0.48823 0.0
H740 H 0.25625 0.22113 0.50316 0.0
H741 H 0.24724 0.30488 0.56573 0.0
H742 H 0.21786 0.33689 0.55267 0.0
H743 H 0.20313 0.29593 0.48444 0.0
H744 H 0.23267 0.26353 0.49795 0.0
H745 H 0.25954 0.20162 0.55891 0.0
H746 H 0.20159 0.25667 0.54771 0.0
O747 O 0.26859 0.2626 0.57471 0.0
H748 H 0.22797 0.16859 0.55867 0.0
H749 H 0.17022 0.22383 0.54698 0.0
C750 C 0.28147 0.23997 0.52867 0.0
C751 C 0.30635 0.24154 0.5369 0.0
C752 C 0.32427 0.22453 0.52824 0.0
C753 C 0.31755 0.20549 0.51137 0.0
C754 C 0.29312 0.20535 0.50152 0.0
C755 C 0.27533 0.22268 0.50986 0.0
C756 C 0.24244 0.28186 0.53272 0.0
C757 C 0.23843 0.3031 0.54754 0.0
C758 C 0.22146 0.32147 0.54003 0.0
C759 C 0.20788 0.31896 0.51757 0.0
C760 C 0.21302 0.29833 0.502 0.0
C761 C 0.23023 0.27998 0.50949 0.0
C762 C 0.23312 0.2315 0.55206 0.0
C763 C 0.24006 0.20665 0.55653 0.0
C764 C 0.22203 0.18779 0.55634 0.0
C765 C 0.19672 0.19359 0.55219 0.0
C766 C 0.1896 0.21875 0.55007 0.0
C767 C 0.20765 0.23757 0.55017 0.0
C768 C 0.00337 0.94438 0.564 0.0
C769 C 0.00328 0.94606 0.44154 0.0
C770 C 0.00212 0.06511 0.56547 0.0
C771 C 0.0074 0.06678 0.443 0.0
C772 C 0.94481 0.06726 0.50009 0.0
C773 C 0.94252 0.94649 0.49777 0.0
C774 C 0.06584 0.06486 0.50974 0.0
C775 C 0.06363 0.94414 0.50101 0.0
C776 C 0.06598 0.0054 0.44372 0.0
C777 C 0.94507 0.00834 0.44106 0.0
C778 C 0.06305 0.00471 0.566 0.0
C779 C 0.94205 0.00459 0.56322 0.0
Eu780 Eu 0.00319 0.95808 0.50293 0.0
O781 O 0.98215 0.9843 0.48079 0.0
O782 O 0.02557 0.98255 0.5259 0.0
Eu783 Eu 0.95661 0.00656 0.50245 0.0
Eu784 Eu 0.05168 0.00477 0.50454 0.0
O785 O 0.98054 0.98317 0.525 0.0
O786 O 0.0264 0.98331 0.48169 0.0
Eu787 Eu 0.00285 0.00488 0.55052 0.0
Eu788 Eu 0.00528 0.0063 0.45644 0.0
O789 O 0.98165 0.02823 0.52546 0.0
O790 O 0.98295 0.02854 0.48131 0.0
O791 O 0.02767 0.02811 0.48196 0.0
O792 O 0.02598 0.02691 0.52615 0.0
Eu793 Eu 0.0051 0.05324 0.50408 0.0
O794 O 0.00256 0.93665 0.54011 0.0
O795 O 0.00336 0.93777 0.46523 0.0
O796 O 0.00343 0.07346 0.54182 0.0
O797 O 0.00716 0.07449 0.4669 0.0
O798 O 0.93663 0.04373 0.50103 0.0
O799 O 0.93535 0.97034 0.49863 0.0
O800 O 0.07301 0.04102 0.50843 0.0
O801 O 0.07179 0.96765 0.50252 0.0
O802 O 0.04224 0.00468 0.43606 0.0
O803 O 0.96915 0.00818 0.4344 0.0
O804 O 0.03898 0.00589 0.57256 0.0
O805 O 0.96578 0.00362 0.57096 0.0
O806 O 0.04231 0.07309 0.50799 0.0
O807 O 0.9687 0.07451 0.50112 0.0
O808 O 0.03972 0.9369 0.50126 0.0
O809 O 0.96596 0.93816 0.49989 0.0
O810 O 0.00375 0.97004 0.4347 0.0
O811 O 0.00689 0.043 0.43561 0.0
O812 O 0.00379 0.96817 0.57137 0.0
O813 O 1.00158 0.04113 0.57226 0.0
O814 O 0.93471 0.00611 0.53926 0.0
O815 O 0.93657 0.00764 0.46466 0.0
O816 O 0.07158 0.00328 0.54243 0.0
O817 O 0.07349 0.00638 0.46766 0.0
C818 C 0.50596 0.94396 0.06444 0.0
C819 C 0.50013 0.06504 0.06437 0.0
C820 C 0.50062 0.94407 0.94284 0.0
C821 C 0.50721 0.06513 0.94287 0.0
C822 C 0.56489 0.00418 0.94304 0.0
C823 C 0.56466 0.00395 0.06434 0.0
C824 C 0.44278 0.00466 0.94289 0.0
C825 C 0.44236 0.00457 0.06385 0.0
C826 C 0.44289 0.06511 0.00342 0.0
C827 C 0.56506 0.0648 0.00513 0.0
C828 C 0.44248 0.94442 0.00465 0.0
C829 C 0.56467 0.94408 1.00179 0.0
Eu830 Eu 0.50362 0.00455 0.05144 0.0
O831 O 0.52592 0.02696 0.02622 0.0
O832 O 0.48154 0.98219 0.02608 0.0
Eu833 Eu 0.55063 0.00448 0.00368 0.0
Eu834 Eu 0.45701 0.00471 0.00346 0.0
O835 O 0.52559 0.9823 0.02597 0.0
O836 O 0.48199 0.02674 0.02576 0.0
Eu837 Eu 0.50363 0.95701 0.00363 0.0
Eu838 Eu 0.50394 0.05214 0.00361 0.0
O839 O 0.52574 0.98221 0.98115 0.0
O840 O 0.52577 0.02671 0.9813 0.0
O841 O 0.48173 0.02717 0.98091 0.0
O842 O 0.48187 0.98243 0.98122 0.0
Eu843 Eu 0.5038 0.00461 0.95573 0.0
O844 O 0.50522 0.96767 0.07216 0.0
O845 O 0.50108 0.04135 0.07213 0.0
O846 O 0.5015 0.96777 0.93508 0.0
O847 O 0.50612 0.04147 0.93504 0.0
O848 O 0.57194 0.00555 0.96702 0.0
O849 O 0.57171 0.00291 0.04036 0.0
O850 O 0.43578 0.00394 0.96689 0.0
O851 O 0.43563 0.00526 0.03981 0.0
O852 O 0.46664 0.0731 0.00258 0.0
O853 O 0.54135 0.07289 0.00476 0.0
O854 O 0.46619 0.93629 0.00445 0.0
O855 O 0.54092 0.93609 0.00237 0.0
O856 O 0.46647 0.00569 0.93476 0.0
O857 O 0.54119 0.00291 0.93497 0.0
O858 O 0.46602 0.00373 0.07219 0.0
O859 O 0.54097 0.00547 0.07241 0.0
O860 O 0.50141 0.07269 0.04056 0.0
O861 O 0.50637 0.07272 0.9667 0.0
O862 O 0.50532 0.93635 0.0406 0.0
O863 O 0.50154 0.93644 0.96667 0.0
O864 O 0.5718 0.96796 0.00215 0.0
O865 O 0.57206 0.04089 0.00488 0.0
O866 O 0.43552 0.96833 0.00432 0.0
O867 O 0.43581 0.04123 0.00395 0.0
C868 C 0.00483 0.4442 0.06406 0.0
C869 C 0.00445 0.44309 0.94286 0.0
C870 C 0.00301 0.56615 0.06266 0.0
C871 C 0.00387 0.56491 0.9413 0.0
C872 C 0.9426 0.56499 1.00067 0.0
C873 C 0.94356 0.44316 0.00435 0.0
C874 C 0.06372 0.56606 0.00293 0.0
C875 C 0.06463 0.4442 0.00381 0.0
C876 C 0.06506 0.5021 0.94274 0.0
C877 C 0.94386 0.49939 0.94129 0.0
C878 C 0.0635 0.50822 0.06426 0.0
C879 C 0.94219 0.50745 0.06275 0.0
Eu880 Eu 0.004 0.45778 0.00337 0.0
O881 O 0.98194 0.48234 0.98053 0.0
O882 O 0.026 0.48293 0.02583 0.0
Eu883 Eu 0.95597 0.50419 0.00214 0.0
Eu884 Eu 0.05127 0.505 0.00334 0.0
O885 O 0.98097 0.4825 0.02531 0.0
O886 O 0.02626 0.48269 0.98104 0.0
Eu887 Eu 0.00301 0.50502 0.05053 0.0
Eu888 Eu 0.00423 0.50415 0.95504 0.0
O889 O 0.98104 0.52654 0.02443 0.0
O890 O 0.98121 0.52637 0.97964 0.0
O891 O 0.02626 0.52673 0.98022 0.0
O892 O 0.02527 0.52684 0.02496 0.0
Eu893 Eu 0.00329 0.5515 0.0021 0.0
O894 O 0.00548 0.43698 0.04014 0.0
O895 O 0.00333 0.43616 0.96688 0.0
O896 O 0.00339 0.573 0.0386 0.0
O897 O 0.00418 0.57234 0.96519 0.0
O898 O 0.93482 0.54123 0.99982 0.0
O899 O 0.93536 0.46677 0.00349 0.0
O900 O 0.07191 0.54243 0.0024 0.0
O901 O 0.07243 0.46793 0.00511 0.0
O902 O 0.04139 0.50301 0.93476 0.0
O903 O 0.96769 0.50086 0.93389 0.0
O904 O 0.03965 0.5072 0.07171 0.0
O905 O 0.96585 0.50643 0.07072 0.0
O906 O 0.03973 0.57296 0.00309 0.0
O907 O 0.96644 0.57232 1.00197 0.0
O908 O 0.04079 0.4369 0.00248 0.0
O909 O 0.96756 0.43627 0.00453 0.0
O910 O 0.00544 0.46669 0.93466 0.0
O911 O 0.00341 0.54112 0.93359 0.0
O912 O 0.00337 0.46792 0.07193 0.0
O913 O 0.00246 0.54256 0.07099 0.0
O914 O 0.93478 0.50673 0.03884 0.0
O915 O 0.93581 0.50067 0.96497 0.0
O916 O 0.07144 0.50742 0.04053 0.0
O917 O 0.07243 0.50278 0.96666 0.0
C918 C 0.5049 0.44221 0.06405 0.0
C919 C 0.50312 0.56302 0.06774 0.0
C920 C 0.50566 0.44641 0.94137 0.0
C921 C 0.50637 0.56705 0.94553 0.0
C922 C 0.56638 0.50779 0.94482 0.0
C923 C 0.56377 0.5022 0.06703 0.0
C924 C 0.44539 0.50651 0.94234 0.0
C925 C 0.44272 0.50249 0.06461 0.0
C926 C 0.44395 0.565 0.00267 0.0
C927 C 0.56514 0.56485 0.01151 0.0
C928 C 0.44408 0.44402 0.99915 0.0
C929 C 0.56538 0.44423 1.00088 0.0
Eu930 Eu 0.50349 0.50296 0.05174 0.0
O931 O 0.52615 0.52586 0.02773 0.0
O932 O 0.48162 0.4812 0.02578 0.0
Eu933 Eu 0.55216 0.50457 0.00563 0.0
Eu934 Eu 0.45703 0.50445 0.00376 0.0
O935 O 0.52651 0.48148 0.02654 0.0
O936 O 0.48167 0.52624 0.02714 0.0
Eu937 Eu 0.50467 0.45694 0.00316 0.0
Eu938 Eu 0.50457 0.5521 0.00622 0.0
O939 O 0.52725 0.48311 0.98236 0.0
O940 O 0.52762 0.52789 0.98362 0.0
O941 O 0.4828 0.52747 0.98297 0.0
O942 O 0.48305 0.48319 0.98156 0.0
Eu943 Eu 0.50566 0.50632 0.95766 0.0
O944 O 0.50449 0.46587 0.07182 0.0
O945 O 0.50286 0.53893 0.07428 0.0
O946 O 0.50597 0.47055 0.9352 0.0
O947 O 0.50645 0.54346 0.93756 0.0
O948 O 0.57395 0.50692 0.96874 0.0
O949 O 0.57224 0.50259 0.0434 0.0
O950 O 0.43694 0.5051 0.96594 0.0
O951 O 0.43529 0.50393 0.04067 0.0
O952 O 0.46766 0.57272 0.00437 0.0
O953 O 0.54145 0.57266 0.00994 0.0
O954 O 0.46783 0.43637 1.00025 0.0
O955 O 0.54163 0.43646 1.00122 0.0
O956 O 0.46945 0.5074 0.93569 0.0
O957 O 0.54261 0.50749 0.93721 0.0
O958 O 0.46647 0.50153 0.07228 0.0
O959 O 0.53971 0.50249 0.07374 0.0
O960 O 0.50356 0.57162 0.04418 0.0
O961 O 0.50574 0.57425 0.96957 0.0
O962 O 0.50461 0.43484 0.04002 0.0
O963 O 0.50518 0.43752 0.96487 0.0
O964 O 0.57297 0.46792 0.00265 0.0
O965 O 0.57275 0.54117 0.00995 0.0
O966 O 0.43635 0.46768 1.00056 0.0
O967 O 0.43635 0.54125 0.00253 0.0
C968 C 0.00687 0.44265 0.56577 0.0
C969 C 0.99974 0.44303 0.44427 0.0
C970 C 0.00307 0.56381 0.56583 0.0
C971 C 0.00908 0.56387 0.44428 0.0
C972 C 0.94484 0.56471 0.50403 0.0
C973 C 0.94221 0.44423 0.5061 0.0
C974 C 0.0672 0.56231 0.50525 0.0
C975 C 0.06444 0.44168 0.50319 0.0
C976 C 0.06559 0.50114 0.4442 0.0
C977 C 0.94343 0.50445 0.44465 0.0
C978 C 0.06601 0.5027 0.56543 0.0
C979 C 0.94396 0.50401 0.56585 0.0
Eu980 Eu 0.00364 0.45572 0.50504 0.0
O981 O 0.98234 0.48162 0.48277 0.0
O982 O 0.02628 0.48058 0.52726 0.0
Eu983 Eu 0.95796 0.50417 0.5052 0.0
Eu984 Eu 0.05156 0.50229 0.50485 0.0
O985 O 0.98219 0.48126 0.52772 0.0
O986 O 0.02617 0.4805 0.48244 0.0
Eu987 Eu 0.00492 0.50324 0.5528 0.0
Eu988 Eu 0.00458 0.50341 0.45718 0.0
O989 O 0.98342 0.5259 0.52737 0.0
O990 O 0.98303 0.52623 0.48258 0.0
O991 O 0.02704 0.52508 0.48267 0.0
O992 O 0.02739 0.52525 0.52747 0.0
Eu993 Eu 0.00575 0.55091 0.50505 0.0
O994 O 0.00577 0.43506 0.54195 0.0
O995 O 1.00037 0.43534 0.46809 0.0
O996 O 0.00403 0.57148 0.54202 0.0
O997 O 0.00821 0.5715 0.4681 0.0
O998 O 0.9374 0.54095 0.50455 0.0
O999 O 0.93584 0.46829 0.50551 0.0
O1000 O 0.0736 0.53826 0.50449 0.0
O1001 O 0.072 0.4654 0.50407 0.0
O1002 O 0.04185 0.50167 0.43617 0.0
O1003 O 0.96712 0.50525 0.43646 0.0
O1004 O 0.0423 0.5032 0.57354 0.0
O1005 O 0.96769 0.50348 0.57387 0.0
O1006 O 0.04365 0.57091 0.50591 0.0
O1007 O 0.96871 0.57242 0.50412 0.0
O1008 O 0.04054 0.43408 0.50332 0.0
O1009 O 0.96575 0.43561 0.50632 0.0
O1010 O 1.0016 0.46665 0.43647 0.0
O1011 O 0.00771 0.54021 0.4365 0.0
O1012 O 0.00629 0.46636 0.57352 0.0
O1013 O 0.00369 0.54008 0.57353 0.0
O1014 O 0.93676 0.50444 0.5419 0.0
O1015 O 0.93652 0.50361 0.46867 0.0
O1016 O 0.07307 0.50219 0.54143 0.0
O1017 O 0.07274 0.50145 0.46817 0.0
C1018 C 0.50515 0.94332 0.5674 0.0
C1019 C 0.50537 0.9417 0.44608 0.0
C1020 C 0.50217 0.06504 0.56563 0.0
C1021 C 0.50421 0.06348 0.44429 0.0
C1022 C 0.44276 0.06355 0.50434 0.0
C1023 C 0.44429 0.94172 0.50655 0.0
C1024 C 0.56394 0.06497 0.50564 0.0
C1025 C 0.56516 0.94279 0.50836 0.0
C1026 C 0.56572 0.99959 0.4459 0.0
C1027 C 0.44469 0.99833 0.44429 0.0
C1028 C 0.56387 0.00888 0.56734 0.0
C1029 C 0.44284 0.99998 0.56583 0.0
Eu1030 Eu 0.50468 0.95653 0.50661 0.0
O1031 O 0.48259 0.98099 0.48368 0.0
O1032 O 0.52674 0.98173 0.52906 0.0
Eu1033 Eu 0.45644 0.00281 0.50514 0.0
Eu1034 Eu 0.552 0.00376 0.50645 0.0
O1035 O 0.48183 0.98154 0.52809 0.0
O1036 O 0.52704 0.98132 0.48422 0.0
Eu1037 Eu 0.50354 0.00397 0.55347 0.0
Eu1038 Eu 0.50499 0.00276 0.45824 0.0
O1039 O 0.48104 0.02552 0.52775 0.0
O1040 O 0.4817 0.02494 0.48264 0.0
O1041 O 0.52678 0.02548 0.48345 0.0
O1042 O 0.52568 0.02559 0.52777 0.0
Eu1043 Eu 0.50346 0.05023 0.50516 0.0
O1044 O 0.50529 0.93581 0.54356 0.0
O1045 O 0.50451 0.93479 0.47013 0.0
O1046 O 0.50245 0.07196 0.54158 0.0
O1047 O 0.50326 0.07092 0.46816 0.0
O1048 O 0.43502 0.03976 0.50398 0.0
O1049 O 0.43603 0.96529 0.50524 0.0
O1050 O 0.57229 0.04139 0.50492 0.0
O1051 O 0.57318 0.96652 0.50861 0.0
O1052 O 0.54205 1.00068 0.43801 0.0
O1053 O 0.46857 0.99943 0.43702 0.0
O1054 O 0.54002 0.00743 0.57467 0.0
O1055 O 0.46651 1.00129 0.57373 0.0
O1056 O 0.5399 0.07175 0.50613 0.0
O1057 O 0.4666 0.07096 0.50493 0.0
O1058 O 0.54127 0.93573 0.5072 0.0
O1059 O 0.4683 0.93493 0.50747 0.0
O1060 O 0.50605 0.96531 0.43786 0.0
O1061 O 0.50526 0.03968 0.43663 0.0
O1062 O 0.50458 0.96712 0.57504 0.0
O1063 O 0.50235 0.04143 0.57389 0.0
O1064 O 0.43532 1.00094 0.54195 0.0
O1065 O 0.4364 0.99995 0.46786 0.0
O1066 O 0.57202 0.00742 0.5437 0.0
O1067 O 0.57324 1.00083 0.46976 0.0
H1068 H 0.2026 0.15187 0.52369 0.0
H1069 H 0.14881 0.19037 0.57019 0.0
H1070 H 0.17121 0.12067 0.51316 0.0
H1071 H 0.11733 0.15895 0.55979 0.0
H1072 H 0.06088 0.11575 0.5123 0.0
H1073 H 0.09283 0.14618 0.52342 0.0
H1074 H 0.14707 0.08688 0.53111 0.0
H1075 H 0.11543 0.05645 0.51948 0.0
C1076 C 0.18419 0.15338 0.53207 0.0
C1077 C 0.17817 0.17352 0.54783 0.0
C1078 C 0.16618 0.13554 0.52597 0.0
C1079 C 0.14176 0.13741 0.53554 0.0
C1080 C 0.13587 0.15726 0.55176 0.0
C1081 C 0.1539 0.17516 0.55781 0.0
C1082 C 0.07965 0.10916 0.51618 0.0
C1083 C 0.08553 0.0836 0.51492 0.0
C1084 C 0.0979 0.12661 0.52278 0.0
C1085 C 0.12243 0.11891 0.52831 0.0
C1086 C 0.12841 0.09343 0.52672 0.0
C1087 C 0.1102 0.07598 0.52007 0.0
H1088 H 0.85963 0.20486 0.48881 0.0
H1089 H 0.81243 0.1489 0.45455 0.0
H1090 H 0.89119 0.17329 0.49734 0.0
H1091 H 0.84461 0.11747 0.46199 0.0
H1092 H 0.89406 0.0634 0.50571 0.0
H1093 H 0.86271 0.09525 0.49722 0.0
H1094 H 0.92116 0.14708 0.47641 0.0
H1095 H 0.95256 0.11553 0.48544 0.0
C1096 C 0.85606 0.18582 0.48299 0.0
C1097 C 0.83348 0.17932 0.47117 0.0
C1098 C 0.87427 0.16778 0.48764 0.0
C1099 C 0.87036 0.14287 0.48043 0.0
C1100 C 0.848 0.13645 0.4681 0.0
C1101 C 0.82973 0.15451 0.46352 0.0
C1102 C 0.90025 0.08162 0.49944 0.0
C1103 C 0.92583 0.08693 0.49634 0.0
C1104 C 0.88226 0.09981 0.49439 0.0
C1105 C 0.88946 0.12363 0.48601 0.0
C1106 C 0.91504 0.129 0.48314 0.0
C1107 C 0.93303 0.11088 0.48832 0.0
H1108 H 0.8034 0.86613 0.47792 0.0
H1109 H 0.85993 0.81369 0.45378 0.0
H1110 H 0.83559 0.89714 0.48592 0.0
H1111 H 0.89214 0.84529 0.46044 0.0
H1112 H 0.94426 0.89605 0.5058 0.0
H1113 H 0.91222 0.86532 0.49551 0.0
H1114 H 0.86503 0.92406 0.46627 0.0
H1115 H 0.89659 0.95477 0.47724 0.0
C1116 C 0.82272 0.86134 0.47405 0.0
C1117 C 0.82916 0.8374 0.46546 0.0
C1118 C 0.84116 0.87921 0.47838 0.0
C1119 C 0.86647 0.87364 0.47397 0.0
C1120 C 0.87284 0.85001 0.46443 0.0
C1121 C 0.85436 0.83204 0.46024 0.0
C1122 C 0.92699 0.90239 0.49728 0.0
C1123 C 0.92287 0.92786 0.49257 0.0
C1124 C 0.90873 0.88476 0.49117 0.0
C1125 C 0.8861 0.89224 0.48001 0.0
C1126 C 0.88207 0.91771 0.47522 0.0
C1127 C 0.90019 0.93533 0.48154 0.0
H1128 H 0.14794 0.80593 0.48976 0.0
H1129 H 0.19632 0.86193 0.45719 0.0
H1130 H 0.11679 0.83778 0.4987 0.0
H1131 H 0.16453 0.89365 0.46497 0.0
H1132 H 0.11432 0.94778 0.5077 0.0
H1133 H 0.14572 0.91579 0.49981 0.0
H1134 H 0.08749 0.86435 0.47752 0.0
H1135 H 0.05608 0.89599 0.48596 0.0
C1136 C 0.15189 0.82505 0.48444 0.0
C1137 C 0.17465 0.83144 0.47289 0.0
C1138 C 0.13391 0.84325 0.48931 0.0
C1139 C 0.1382 0.86825 0.48258 0.0
C1140 C 0.16081 0.87461 0.47069 0.0
C1141 C 0.17887 0.85638 0.46591 0.0
C1142 C 0.1082 0.92961 0.50124 0.0
C1143 C 0.08267 0.92444 0.49755 0.0
C1144 C 0.12622 0.91134 0.49655 0.0
C1145 C 0.1191 0.88757 0.48795 0.0
C1146 C 0.09356 0.88236 0.48447 0.0
C1147 C 0.07555 0.90055 0.48929 0.0
H1148 H 0.49389 0.1988 0.15662 0.0
H1149 H 0.43749 0.14982 0.18757 0.0
H1150 H 0.5045 0.16731 0.12553 0.0
H1151 H 0.44816 0.11819 0.15633 0.0
H1152 H 0.4932 0.05847 0.1149 0.0
H1153 H 0.48325 0.09018 0.14601 0.0
H1154 H 0.48655 0.14709 0.08868 0.0
H1155 H 0.49696 0.11562 0.0576 0.0
C1156 C 0.48347 0.18145 0.15651 0.0
C1157 C 0.46473 0.17684 0.17444 0.0
C1158 C 0.48962 0.16338 0.13875 0.0
C1159 C 0.47719 0.14029 0.13852 0.0
C1160 C 0.45831 0.1357 0.15631 0.0
C1161 C 0.45215 0.15381 0.17412 0.0
C1162 C 0.49204 0.07775 0.1089 0.0
C1163 C 0.49591 0.08443 0.08367 0.0
C1164 C 0.4861 0.09588 0.12673 0.0
C1165 C 0.48396 0.12108 0.11974 0.0
C1166 C 0.48828 0.12784 0.09467 0.0
C1167 C 0.49419 0.10974 0.07683 0.0
H1168 H 0.81685 0.5651 0.14749 0.0
H1169 H 0.85037 0.51131 0.19765 0.0
H1170 H 0.84779 0.55465 0.11546 0.0
H1171 H 0.88117 0.50079 0.16569 0.0
H1172 H 0.94855 0.51112 0.11355 0.0
H1173 H 0.91697 0.51989 0.14503 0.0
H1174 H 0.85983 0.52015 0.08772 0.0
H1175 H 0.89148 0.51185 0.05594 0.0
C1176 C 0.83074 0.55096 0.1516 0.0
C1177 C 0.83131 0.53914 0.17511 0.0
C1178 C 0.84839 0.54492 0.13326 0.0
C1179 C 0.8669 0.5269 0.13807 0.0
C1180 C 0.86737 0.51503 0.16156 0.0
C1181 C 0.84978 0.52109 0.17988 0.0
C1182 C 0.92927 0.51286 0.10757 0.0
C1183 C 0.92263 0.51082 0.08212 0.0
C1184 C 0.91113 0.5178 0.12569 0.0
C1185 C 0.88594 0.52079 0.11884 0.0
C1186 C 0.87917 0.51829 0.0935 0.0
C1187 C 0.89732 0.51334 0.07533 0.0
H1188 H 0.50691 0.85163 0.19933 0.0
H1189 H 0.55965 0.81708 0.14867 0.0
H1190 H 0.49732 0.88307 0.16767 0.0
H1191 H 0.55009 0.84854 0.11703 0.0
H1192 H 0.50867 0.8933 0.05781 0.0
H1193 H 0.51579 0.86151 0.08958 0.0
H1194 H 0.51746 0.91847 0.1469 0.0
H1195 H 0.50988 0.95032 0.1153 0.0
C1196 C 0.51661 0.85089 0.18151 0.0
C1197 C 0.53406 0.83192 0.17649 0.0
C1198 C 0.51109 0.86887 0.16338 0.0
C1199 C 0.52292 0.86825 0.13986 0.0
C1200 C 0.54037 0.84926 0.13483 0.0
C1201 C 0.54587 0.83128 0.15296 0.0
C1202 C 0.51037 0.89911 0.07719 0.0
C1203 C 0.50875 0.92446 0.08393 0.0
C1204 C 0.51462 0.88086 0.09537 0.0
C1205 C 0.51734 0.88751 0.1207 0.0
C1206 C 0.51521 0.91274 0.12755 0.0
C1207 C 0.51096 0.93102 0.10937 0.0
H1208 H 0.14819 0.56568 0.18987 0.0
H1209 H 0.19715 0.51006 0.1577 0.0
H1210 H 0.11641 0.55572 0.15854 0.0
H1211 H 0.16542 0.50009 0.12646 0.0
H1212 H 0.11432 0.51088 0.05818 0.0
H1213 H 0.14569 0.5194 0.09001 0.0
H1214 H 0.08803 0.52157 0.14677 0.0
H1215 H 0.05642 0.51353 0.11492 0.0
C1216 C 0.15209 0.55125 0.17619 0.0
C1217 C 0.17519 0.53875 0.17614 0.0
C1218 C 0.13389 0.5455 0.15831 0.0
C1219 C 0.13844 0.52712 0.14006 0.0
C1220 C 0.16153 0.5146 0.14006 0.0
C1221 C 0.1797 0.52035 0.15791 0.0
C1222 C 0.10824 0.51303 0.07744 0.0
C1223 C 0.08276 0.51158 0.08391 0.0
C1224 C 0.12629 0.51781 0.09571 0.0
C1225 C 0.1193 0.52124 0.12086 0.0
C1226 C 0.09392 0.51936 0.12746 0.0
C1227 C 0.07584 0.51455 0.10919 0.0
H1228 H 0.44222 0.85934 0.818 0.0
H1229 H 0.49602 0.80923 0.85156 0.0
H1230 H 0.45287 0.89118 0.84895 0.0
H1231 H 0.50666 0.84103 0.88244 0.0
H1232 H 0.49644 0.89357 0.94976 0.0
H1233 H 0.48748 0.86199 0.91835 0.0
H1234 H 0.48799 0.91852 0.86056 0.0
H1235 H 0.49653 0.95036 0.89197 0.0
C1236 C 0.4564 0.85519 0.8319 0.0
C1237 C 0.4682 0.83177 0.83244 0.0
C1238 C 0.46254 0.87343 0.84957 0.0
C1239 C 0.48062 0.86859 0.86809 0.0
C1240 C 0.49241 0.84516 0.86861 0.0
C1241 C 0.48626 0.82695 0.85097 0.0
C1242 C 0.49483 0.89935 0.93036 0.0
C1243 C 0.49714 0.9246 0.92346 0.0
C1244 C 0.48978 0.88117 0.91234 0.0
C1245 C 0.48692 0.8878 0.88702 0.0
C1246 C 0.48973 0.91293 0.88 0.0
C1247 C 0.49481 0.93114 0.89802 0.0
H1248 H 0.15852 0.49739 0.80879 0.0
H1249 H 0.19139 0.44428 0.86014 0.0
H1250 H 0.12706 0.50804 0.84009 0.0
H1251 H 0.15989 0.45497 0.89149 0.0
H1252 H 0.11576 0.49872 0.94982 0.0
H1253 H 0.14768 0.49026 0.91841 0.0
H1254 H 0.09093 0.48874 0.86074 0.0
H1255 H 0.05898 0.49758 0.89193 0.0
C1256 C 0.15885 0.4878 0.82668 0.0
C1257 C 0.17736 0.46992 0.83198 0.0
C1258 C 0.14087 0.49394 0.8446 0.0
C1259 C 0.14104 0.48237 0.86824 0.0
C1260 C 0.15954 0.46449 0.87357 0.0
C1261 C 0.17753 0.45833 0.85562 0.0
C1262 C 0.11004 0.49679 0.93044 0.0
C1263 C 0.08472 0.4988 0.92347 0.0
C1264 C 0.12835 0.49176 0.91247 0.0
C1265 C 0.12177 0.48868 0.88716 0.0
C1266 C 0.09659 0.49125 0.88008 0.0
C1267 C 0.07826 0.49625 0.89803 0.0
H1268 H 0.51591 0.20259 0.85688 0.0
H1269 H 0.55254 0.14753 0.81038 0.0
H1270 H 0.5069 0.17065 0.88802 0.0
H1271 H 0.54461 0.11575 0.8422 0.0
H1272 H 0.50247 0.06048 0.89191 0.0
H1273 H 0.51005 0.09236 0.86021 0.0
H1274 H 0.52842 0.14541 0.91842 0.0
H1275 H 0.52032 0.11389 0.9501 0.0
C1276 C 0.52207 0.18365 0.85333 0.0
C1277 C 0.53485 0.17756 0.83113 0.0
C1278 C 0.51715 0.16541 0.8713 0.0
C1279 C 0.52504 0.14068 0.86757 0.0
C1280 C 0.53801 0.13459 0.84547 0.0
C1281 C 0.54286 0.15285 0.82741 0.0
C1282 C 0.50802 0.07897 0.89796 0.0
C1283 C 0.5107 0.08462 0.92357 0.0
C1284 C 0.51252 0.09719 0.87978 0.0
C1285 C 0.51989 0.12138 0.88681 0.0
C1286 C 0.5224 0.12706 0.9124 0.0
C1287 C 0.51779 0.10892 0.93057 0.0
H1288 H 0.81782 0.43867 0.85922 0.0
H1289 H 0.85528 0.48555 0.80498 0.0
H1290 H 0.84948 0.44941 0.89044 0.0
H1291 H 0.88672 0.49644 0.83613 0.0
H1292 H 0.95182 0.49049 0.89135 0.0
H1293 H 0.92107 0.47898 0.85987 0.0
H1294 H 0.86215 0.48562 0.91497 0.0
H1295 H 0.89291 0.49661 0.94674 0.0
C1296 C 0.83284 0.45122 0.85398 0.0
C1297 C 0.83414 0.46119 0.82965 0.0
C1298 C 0.85089 0.45747 0.87186 0.0
C1299 C 0.87052 0.47389 0.86578 0.0
C1300 C 0.87203 0.48348 0.84131 0.0
C1301 C 0.85405 0.47718 0.82343 0.0
C1302 C 0.93231 0.4897 0.8968 0.0
C1303 C 0.9249 0.49448 0.92166 0.0
C1304 C 0.91466 0.48313 0.87868 0.0
C1305 C 0.8892 0.48124 0.88496 0.0
C1306 C 0.8817 0.48648 0.90966 0.0
C1307 C 0.89935 0.493 0.92782 0.0
H1308 H 0.64783 0.69268 0.0683 0.0
H1309 H 0.70133 0.65264 0.0228 0.0
H1310 H 0.61626 0.66097 0.0591 0.0
H1311 H 0.66986 0.62116 0.01345 0.0
H1312 H 0.61466 0.55708 0.02195 0.0
H1313 H 0.64606 0.588 0.03276 0.0
H1314 H 0.5914 0.64671 0.02354 0.0
H1315 H 0.55966 0.61575 0.01323 0.0
C1316 C 0.65283 0.67709 0.05638 0.0
C1317 C 0.67706 0.67507 0.04636 0.0
C1318 C 0.63475 0.659 0.05102 0.0
C1319 C 0.64054 0.63861 0.03547 0.0
C1320 C 0.6649 0.63644 0.0258 0.0
C1321 C 0.68296 0.65444 0.03121 0.0
C1322 C 0.60927 0.57657 0.02203 0.0
C1323 C 0.58457 0.58388 0.0166 0.0
C1324 C 0.62735 0.59431 0.02822 0.0
C1325 C 0.62122 0.6198 0.02905 0.0
C1326 C 0.59661 0.62717 0.02343 0.0
C1327 C 0.57847 0.60941 0.01731 0.0
H1328 H 0.36019 0.68988 0.94394 0.0
H1329 H 0.30915 0.65647 0.99712 0.0
H1330 H 0.39177 0.65877 0.95474 0.0
H1331 H 0.34069 0.62547 0.00797 0.0
H1332 H 0.3933 0.55833 0.99856 0.0
H1333 H 0.36182 0.58971 0.98931 0.0
H1334 H 0.41875 0.647 0.98995 0.0
H1335 H 0.45048 0.61562 0.99868 0.0
C1336 C 0.35578 0.67596 0.958 0.0
C1337 C 0.33219 0.67553 0.9696 0.0
C1338 C 0.37387 0.65821 0.96425 0.0
C1339 C 0.36872 0.63972 0.98225 0.0
C1340 C 0.34509 0.63927 0.99378 0.0
C1341 C 0.32701 0.65698 0.98752 0.0
C1342 C 0.39918 0.57762 0.99691 0.0
C1343 C 0.42451 0.58437 0.9993 0.0
C1344 C 0.38106 0.59563 0.9917 0.0
C1345 C 0.38784 0.6208 0.98877 0.0
C1346 C 0.41303 0.62768 0.99172 0.0
C1347 C 0.43118 0.60968 0.99694 0.0
H1348 H 0.32132 0.35839 0.93654 0.0
H1349 H 0.35165 0.31048 0.99423 0.0
H1350 H 0.35249 0.39017 0.94684 0.0
H1351 H 0.38268 0.34212 0.00447 0.0
H1352 H 0.45067 0.39339 0.99665 0.0
H1353 H 0.41964 0.36186 0.98637 0.0
H1354 H 0.36273 0.4189 0.98139 0.0
H1355 H 0.39382 0.45068 0.99117 0.0
C1356 C 0.33461 0.35467 0.95142 0.0
C1357 C 0.33414 0.33188 0.96446 0.0
C1358 C 0.35239 0.37287 0.95736 0.0
C1359 C 0.37 0.36863 0.97648 0.0
C1360 C 0.3696 0.34578 0.98939 0.0
C1361 C 0.35187 0.32763 0.98346 0.0
C1362 C 0.43154 0.3993 0.9935 0.0
C1363 C 0.4248 0.42465 0.99476 0.0
C1364 C 0.41373 0.38116 0.98769 0.0
C1365 C 0.38878 0.38792 0.98299 0.0
C1366 C 0.38191 0.41318 0.98457 0.0
C1367 C 0.39972 0.43136 0.99042 0.0
H1368 H 0.7005 0.35357 0.99346 0.0
H1369 H 0.6489 0.31926 0.94145 0.0
H1370 H 0.66912 0.38482 0.004 0.0
H1371 H 0.61746 0.35061 0.95197 0.0
H1372 H 0.55925 0.39357 0.99706 0.0
H1373 H 0.59103 0.36246 0.98761 0.0
H1374 H 0.64738 0.42028 0.98528 0.0
H1375 H 0.61583 0.45141 0.99516 0.0
C1376 C 0.68256 0.35293 0.98402 0.0
C1377 C 0.67717 0.33402 0.96657 0.0
C1378 C 0.66458 0.37079 0.9901 0.0
C1379 C 0.64082 0.37012 0.97887 0.0
C1380 C 0.63548 0.35135 0.96124 0.0
C1381 C 0.65348 0.33346 0.95516 0.0
C1382 C 0.57842 0.3997 0.99473 0.0
C1383 C 0.58492 0.42506 0.99689 0.0
C1384 C 0.5966 0.38185 0.98911 0.0
C1385 C 0.62165 0.38896 0.98553 0.0
C1386 C 0.62826 0.41421 0.98816 0.0
C1387 C 0.61011 0.43206 0.99378 0.0
H1388 H 0.94293 0.6887 0.64811 0.0
H1389 H 0.99613 0.65669 0.69999 0.0
H1390 H 0.95419 0.65724 0.617 0.0
H1391 H 0.00732 0.62524 0.66894 0.0
H1392 H 0.99829 0.5573 0.61659 0.0
H1393 H 0.98869 0.58889 0.64789 0.0
H1394 H 0.99025 0.64589 0.59059 0.0
H1395 H 0.99946 0.61439 0.5591 0.0
C1396 C 0.95709 0.67502 0.65281 0.0
C1397 C 0.96859 0.67511 0.6765 0.0
C1398 C 0.96357 0.65705 0.63501 0.0
C1399 C 0.98168 0.63884 0.64054 0.0
C1400 C 0.99307 0.63885 0.66427 0.0
C1401 C 0.98661 0.65681 0.68205 0.0
C1402 C 0.99682 0.57657 0.61062 0.0
C1403 C 0.99958 0.58323 0.58524 0.0
C1404 C 0.99138 0.59468 0.62861 0.0
C1405 C 0.98856 0.61981 0.62164 0.0
C1406 C 0.99192 0.62658 0.59643 0.0
C1407 C 0.9974 0.60851 0.57842 0.0
H1408 H 0.35389 0.98386 0.70168 0.0
H1409 H 0.31367 0.94231 0.64515 0.0
H1410 H 0.38539 0.99537 0.6708 0.0
H1411 H 0.34542 0.95359 0.61418 0.0
H1412 H 0.39182 1.00059 0.56013 0.0
H1413 H 0.3603 0.99001 0.59139 0.0
H1414 H 0.41856 0.97742 0.64615 0.0
H1415 H 0.45 0.98851 0.61527 0.0
C1416 C 0.35204 0.97682 0.68273 0.0
C1417 C 0.3314 0.96208 0.67583 0.0
C1418 C 0.37005 0.98346 0.66502 0.0
C1419 C 0.36787 0.97545 0.64002 0.0
C1420 C 0.34739 0.96042 0.63319 0.0
C1421 C 0.3293 0.95385 0.65092 0.0
C1422 C 0.39792 0.99578 0.57889 0.0
C1423 C 0.42348 0.99548 0.58515 0.0
C1424 C 0.37985 0.98951 0.59674 0.0
C1425 C 0.38694 0.98274 0.6212 0.0
C1426 C 0.41245 0.98285 0.62756 0.0
C1427 C 0.4305 0.9892 0.60978 0.0
H1428 H 0.06565 0.35823 0.69069 0.0
H1429 H 0.01263 0.30754 0.65678 0.0
H1430 H 0.05494 0.38995 0.65963 0.0
H1431 H 1.00183 0.33923 0.62584 0.0
H1432 H 0.01104 0.39217 0.55878 0.0
H1433 H 0.02034 0.36057 0.59008 0.0
H1434 H 0.01994 0.417 0.64796 0.0
H1435 H 0.01114 0.44886 0.61664 0.0
C1436 C 0.05163 0.35393 0.67667 0.0
C1437 C 0.04005 0.33039 0.67609 0.0
C1438 C 0.04544 0.37209 0.65895 0.0
C1439 C 0.02749 0.36709 0.64034 0.0
C1440 C 0.01597 0.34352 0.63973 0.0
C1441 C 0.0222 0.32536 0.65741 0.0
C1442 C 0.01273 0.39792 0.57818 0.0
C1443 C 0.01038 0.42315 0.58512 0.0
C1444 C 0.01798 0.37973 0.59614 0.0
C1445 C 0.02099 0.38632 0.62145 0.0
C1446 C 0.01811 0.41142 0.62852 0.0
C1447 C 0.01286 0.42964 0.61056 0.0
H1448 H 0.65132 0.02449 0.70421 0.0
H1449 H 0.69074 0.06844 0.64889 0.0
H1450 H 0.61978 0.01368 0.67308 0.0
H1451 H 0.65906 0.05772 0.6177 0.0
H1452 H 0.61494 0.00973 0.56253 0.0
H1453 H 0.64564 0.02088 0.59433 0.0
H1454 H 0.58625 0.03167 0.64824 0.0
H1455 H 0.55554 0.0201 0.61673 0.0
C1456 C 0.65297 0.03223 0.68551 0.0
C1457 C 0.67347 0.04734 0.67898 0.0
C1458 C 0.63495 0.02597 0.66766 0.0
C1459 C 0.63702 0.03472 0.6429 0.0
C1460 C 0.65721 0.05031 0.63652 0.0
C1461 C 0.67528 0.05654 0.65437 0.0
C1462 C 0.60839 0.01431 0.5812 0.0
C1463 C 0.58272 0.01395 0.58703 0.0
C1464 C 0.626 0.02091 0.59936 0.0
C1465 C 0.61835 0.02732 0.62374 0.0
C1466 C 0.59275 0.02659 0.62969 0.0
C1467 C 0.57514 0.01995 0.61156 0.0
H1468 H 0.9864 0.30609 0.35864 0.0
H1469 H 0.95477 0.36259 0.31022 0.0
H1470 H 0.9951 0.33763 0.3902 0.0
H1471 H 0.9623 0.39405 0.34245 0.0
H1472 H 0.00586 0.44726 0.39345 0.0
H1473 H 0.99715 0.41578 0.36166 0.0
H1474 H 0.97413 0.36415 0.41958 0.0
H1475 H 0.98342 0.39525 0.45135 0.0
C1476 C 0.98121 0.32526 0.35479 0.0
C1477 C 0.97006 0.33189 0.33187 0.0
C1478 C 0.98593 0.34329 0.373 0.0
C1479 C 0.97943 0.36835 0.36881 0.0
C1480 C 0.96784 0.37494 0.34608 0.0
C1481 C 0.96321 0.35688 0.32777 0.0
C1482 C 0.99904 0.42916 0.39941 0.0
C1483 C 0.99548 0.42374 0.42496 0.0
C1484 C 0.99387 0.41118 0.38117 0.0
C1485 C 0.98489 0.3875 0.3881 0.0
C1486 C 0.98139 0.38209 0.41364 0.0
C1487 C 0.98671 0.39997 0.43187 0.0
H1488 H 0.69508 0.94424 0.36479 0.0
H1489 H 0.65375 0.98615 0.30934 0.0
H1490 H 0.66361 0.95473 0.39631 0.0
H1491 H 0.62255 0.99689 0.34077 0.0
H1492 H 0.5585 0.98837 0.39643 0.0
H1493 H 0.58988 0.97801 0.3653 0.0
H1494 H 0.64828 0.99043 0.41995 0.0
H1495 H 0.61679 1.00027 0.45149 0.0
C1496 C 0.67928 0.95571 0.35938 0.0
C1497 C 0.67676 0.96423 0.3346 0.0
C1498 C 0.66134 0.96182 0.37743 0.0
C1499 C 0.64061 0.97669 0.37105 0.0
C1500 C 0.63808 0.98508 0.34621 0.0
C1501 C 0.65592 0.97888 0.32818 0.0
C1502 C 0.57802 0.98915 0.40186 0.0
C1503 C 0.58508 0.99522 0.42653 0.0
C1504 C 0.59603 0.98323 0.38393 0.0
C1505 C 0.62157 0.98335 0.39015 0.0
C1506 C 0.62872 0.98979 0.41468 0.0
C1507 C 0.61066 0.99563 0.4327 0.0
H1508 H 0.00955 0.69671 0.35057 0.0
H1509 H 0.07106 0.65214 0.32295 0.0
H1510 H 0.9999 0.66464 0.38143 0.0
H1511 H 0.06127 0.6199 0.35387 0.0
H1512 H 0.0188 0.55725 0.39423 0.0
H1513 H 0.02775 0.58928 0.36306 0.0
H1514 H 0.01826 0.64641 0.41941 0.0
H1515 H 0.00887 0.61459 0.45053 0.0
C1516 C 0.02124 0.68021 0.35132 0.0
C1517 C 0.04119 0.67703 0.33443 0.0
C1518 C 0.01564 0.66181 0.36895 0.0
C1519 C 0.02982 0.63978 0.37005 0.0
C1520 C 0.0498 0.63656 0.35321 0.0
C1521 C 0.05544 0.65502 0.33556 0.0
C1522 C 0.01838 0.57664 0.39998 0.0
C1523 C 0.01306 0.5833 0.42494 0.0
C1524 C 0.02375 0.59496 0.38214 0.0
C1525 C 0.02381 0.62032 0.38884 0.0
C1526 C 0.01813 0.62701 0.41365 0.0
C1527 C 0.01284 0.60873 0.43151 0.0
H1528 H 0.36472 0.97699 0.30469 0.0
H1529 H 0.31123 0.95548 0.36156 0.0
H1530 H 0.39546 0.98582 0.33697 0.0
H1531 H 0.34264 0.96275 0.39391 0.0
H1532 H 0.39424 0.00702 0.44593 0.0
H1533 H 0.36336 0.99708 0.41378 0.0
H1534 H 0.42198 0.96694 0.36679 0.0
H1535 H 0.45281 0.97769 0.39838 0.0
C1536 C 0.3596 0.97392 0.32411 0.0
C1537 C 0.33545 0.96577 0.33057 0.0
C1538 C 0.37735 0.97869 0.34262 0.0
C1539 C 0.3715 0.97511 0.36806 0.0
C1540 C 0.34761 0.96612 0.37451 0.0
C1541 C 0.32973 0.96156 0.35595 0.0
C1542 C 0.4005 0.9984 0.42865 0.0
C1543 C 0.42597 0.99337 0.42459 0.0
C1544 C 0.38279 0.99249 0.41033 0.0
C1545 C 0.39018 0.98116 0.38771 0.0
C1546 C 0.41568 0.97606 0.38377 0.0
C1547 C 0.43338 0.98223 0.40192 0.0
H1548 H 0.95995 0.18643 0.34595 0.0
H1549 H 0.0185 0.1519 0.30225 0.0
H1550 H 0.96906 0.15867 0.38077 0.0
H1551 H 0.02834 0.1245 0.33769 0.0
H1552 H 0.01306 0.05912 0.39254 0.0
H1553 H 0.0095 0.08929 0.35882 0.0
H1554 H 0.99875 0.14823 0.41304 0.0
H1555 H 1.00171 0.1178 0.44704 0.0
C1556 C 0.97483 0.17289 0.34376 0.0
C1557 C 0.98819 0.17112 0.32107 0.0
C1558 C 0.98033 0.15719 0.36395 0.0
C1559 C 0.99942 0.13925 0.36213 0.0
C1560 C 0.0133 0.1379 0.33967 0.0
C1561 C 0.0078 0.15372 0.3194 0.0
C1562 C 0.01008 0.07852 0.39744 0.0
C1563 C 0.00746 0.08589 0.42267 0.0
C1564 C 0.00826 0.09592 0.37797 0.0
C1565 C 0.00375 0.12124 0.3831 0.0
C1566 C 0.0019 0.12881 0.40835 0.0
C1567 C 0.00376 0.11136 0.4279 0.0
H1568 H 0.8731 0.98277 0.29817 0.0
H1569 H 0.81316 0.01365 0.34276 0.0
H1570 H 0.90199 0.98877 0.33291 0.0
H1571 H 0.84236 0.02069 0.37724 0.0
H1572 H 0.89459 0.99818 0.443 0.0
H1573 H 0.86509 0.99666 0.40807 0.0
H1574 H 0.92393 0.019 0.3572 0.0
H1575 H 0.95343 0.01995 0.39182 0.0
C1576 C 0.86614 0.99113 0.31529 0.0
C1577 C 0.84074 0.99761 0.31763 0.0
C1578 C 0.88279 0.99481 0.33519 0.0
C1579 C 0.87455 0.00514 0.35802 0.0
C1580 C 0.84932 0.01237 0.3601 0.0
C1581 C 0.83264 0.00868 0.34015 0.0
C1582 C 0.90119 0.00295 0.4244 0.0
C1583 C 0.92649 0.00897 0.42028 0.0
C1584 C 0.88423 1.00219 0.40434 0.0
C1585 C 0.89211 0.00755 0.3797 0.0
C1586 C 0.91725 0.01427 0.37578 0.0
C1587 C 0.93419 0.0149 0.39574 0.0
H1588 H 0.02787 0.87293 0.29874 0.0
H1589 H 0.99596 0.81394 0.34379 0.0
H1590 H 0.02297 0.90191 0.33347 0.0
H1591 H 0.98994 0.84329 0.37827 0.0
H1592 H 0.0126 0.89549 0.44387 0.0
H1593 H 0.01396 0.86579 0.40913 0.0
H1594 H 0.99351 0.92463 0.35763 0.0
H1595 H 0.99278 0.95427 0.39202 0.0
C1596 C 0.01954 0.86618 0.31597 0.0
C1597 C 0.01242 0.84101 0.31839 0.0
C1598 C 0.01648 0.88291 0.33589 0.0
C1599 C 0.0061 0.87502 0.35884 0.0
C1600 C 0.99831 0.85 0.36105 0.0
C1601 C 1.00141 0.83323 0.34109 0.0
C1602 C 0.00826 0.90205 0.42516 0.0
C1603 C 0.00282 0.92739 0.42083 0.0
C1604 C 0.00892 0.88497 0.4052 0.0
C1605 C 0.00402 0.89277 0.38042 0.0
C1606 C 0.99792 0.91797 0.37629 0.0
C1607 C 0.99741 0.93501 0.39614 0.0
H1608 H 0.14075 0.00776 0.2986 0.0
H1609 H 0.20094 0.99606 0.35122 0.0
H1610 H 0.11133 0.012 0.33333 0.0
H1611 H 0.17155 0.99926 0.38598 0.0
H1612 H 0.11445 0.02286 0.44524 0.0
H1613 H 0.14477 0.02379 0.41088 0.0
H1614 H 0.09121 0.98682 0.36275 0.0
H1615 H 0.0609 0.98688 0.39651 0.0
C1616 C 0.14767 0.00616 0.31763 0.0
C1617 C 0.17314 1.00161 0.32216 0.0
C1618 C 0.1308 0.00839 0.3376 0.0
C1619 C 0.13889 0.00565 0.36263 0.0
C1620 C 0.16456 1.00181 0.3671 0.0
C1621 C 0.18146 0.99994 0.34713 0.0
C1622 C 0.10925 0.01492 0.4273 0.0
C1623 C 0.08519 0.00497 0.42361 0.0
C1624 C 0.12664 0.01539 0.40757 0.0
C1625 C 0.12047 0.00561 0.38379 0.0
C1626 C 0.09653 0.99521 0.38043 0.0
C1627 C 0.07913 0.99505 0.39996 0.0
H1628 H 0.00503 0.81131 0.66101 0.0
H1629 H 0.98119 0.87271 0.70775 0.0
H1630 H 0.01146 0.8401 0.62614 0.0
H1631 H 0.98638 0.90121 0.67265 0.0
H1632 H 0.01753 0.95109 0.61271 0.0
H1633 H 0.01625 0.92135 0.64696 0.0
H1634 H 0.98823 0.86478 0.59649 0.0
H1635 H 0.99019 0.89459 0.56177 0.0
C1636 C 1.00143 0.83098 0.66398 0.0
C1637 C 0.9926 0.83962 0.68731 0.0
C1638 C 0.00475 0.84747 0.64381 0.0
C1639 C 0.99934 0.87305 0.64639 0.0
C1640 C 0.99104 0.88173 0.66991 0.0
C1641 C 0.98779 0.86529 0.69005 0.0
C1642 C 0.01111 0.93231 0.60878 0.0
C1643 C 0.00372 0.92537 0.58441 0.0
C1644 C 0.01027 0.91522 0.62856 0.0
C1645 C 1.00183 0.89065 0.62471 0.0
C1646 C 0.99504 0.88345 0.60019 0.0
C1647 C 0.99606 0.90059 0.58026 0.0
H1648 H 0.19438 0.01037 0.66508 0.0
H1649 H 0.13431 0.9792 0.70936 0.0
H1650 H 0.1654 0.01698 0.63031 0.0
H1651 H 0.10567 0.98477 0.67436 0.0
H1652 H 0.0545 0.01589 0.61529 0.0
H1653 H 0.08382 0.01494 0.64998 0.0
H1654 H 0.1429 0.99275 0.59936 0.0
H1655 H 0.11354 0.9943 0.56428 0.0
C1656 C 0.17493 0.00524 0.66755 0.0
C1657 C 0.1667 0.99423 0.69007 0.0
C1658 C 0.15838 0.00868 0.64745 0.0
C1659 C 0.13319 1.00126 0.64938 0.0
C1660 C 0.12485 0.99095 0.67219 0.0
C1661 C 0.14135 0.98753 0.69225 0.0
C1662 C 0.07373 0.01082 0.61141 0.0
C1663 C 0.08153 0.00493 0.58689 0.0
C1664 C 0.09058 0.0102 0.63143 0.0
C1665 C 0.11573 0.00354 0.62761 0.0
C1666 C 0.12373 0.9982 0.60301 0.0
C1667 C 0.10684 0.99894 0.58287 0.0
H1668 H 1.00092 0.19673 0.66396 0.0
H1669 H 0.02446 0.13481 0.71019 0.0
H1670 H 0.99404 0.16826 0.62898 0.0
H1671 H 0.01884 0.10659 0.67492 0.0
H1672 H 0.98774 0.05751 0.61406 0.0
H1673 H 0.98904 0.08673 0.64883 0.0
H1674 H 0.01731 0.14401 0.59926 0.0
H1675 H 0.01536 0.11481 0.56413 0.0
C1676 C 0.00434 0.177 0.66681 0.0
C1677 C 0.01325 0.16813 0.69002 0.0
C1678 C 1.00077 0.1607 0.64656 0.0
C1679 C 0.00602 0.13507 0.64894 0.0
C1680 C 0.01432 0.12613 0.67235 0.0
C1681 C 0.01782 0.1424 0.69259 0.0
C1682 C 0.99417 0.07636 0.61046 0.0
C1683 C 1.00161 0.0837 0.58622 0.0
C1684 C 0.99503 0.09314 0.63052 0.0
C1685 C 0.00353 0.11775 0.62705 0.0
C1686 C 0.0104 0.12531 0.60267 0.0
C1687 C 0.00938 0.10852 0.58249 0.0
H1688 H 0.82906 0.05454 0.66695 0.0
H1689 H 0.84814 0.98215 0.69696 0.0
H1690 H 0.85697 0.04753 0.63153 0.0
H1691 H 0.87607 0.97495 0.66114 0.0
H1692 H 0.94723 0.99007 0.61214 0.0
H1693 H 0.91652 0.99265 0.64576 0.0
H1694 H 0.86186 0.02121 0.5935 0.0
H1695 H 0.89271 0.0188 0.55969 0.0
C1696 C 0.83928 0.0371 0.66598 0.0
C1697 C 0.83662 0.01902 0.68495 0.0
C1698 C 0.85505 0.03296 0.64549 0.0
C1699 C 0.86875 0.01068 0.64346 0.0
C1700 C 0.86589 0.9924 0.66225 0.0
C1701 C 0.84983 0.99644 0.68268 0.0
C1702 C 0.92864 0.99679 0.60769 0.0
C1703 C 0.92255 0.00443 0.58315 0.0
C1704 C 0.91095 0.99805 0.62699 0.0
C1705 C 0.88676 0.00721 0.62237 0.0
C1706 C 0.88043 0.01429 0.59773 0.0
C1707 C 0.89808 0.01278 0.57832 0.0
H1708 H 0.33716 0.01582 0.19081 0.0
H1709 H 0.30312 0.96704 0.13616 0.0
H1710 H 0.3727 0.02257 0.16251 0.0
H1711 H 0.33861 0.9734 0.10816 0.0
H1712 H 0.4443 1.00035 0.1156 0.0
H1713 H 0.40883 0.99789 0.14472 0.0
H1714 H 0.35759 0.00638 0.08274 0.0
H1715 H 0.3924 0.00862 0.05388 0.0
C1716 C 0.33709 0.00686 0.1726 0.0
C1717 C 0.31728 0.99099 0.16565 0.0
C1718 C 0.35759 0.01045 0.15656 0.0
C1719 C 0.35854 0.99846 0.13312 0.0
C1720 C 0.3384 0.9831 0.12598 0.0
C1721 C 0.31808 0.97936 0.14206 0.0
C1722 C 0.42548 1.00181 0.10822 0.0
C1723 C 0.42138 0.00438 0.08228 0.0
C1724 C 0.40516 1.00053 0.12492 0.0
C1725 C 0.38036 1.00169 0.116 0.0
C1726 C 0.37639 0.00496 0.0902 0.0
C1727 C 0.39652 0.00631 0.07363 0.0
H1728 H 0.98463 0.30006 0.13399 0.0
H1729 H 0.00711 0.34613 0.19653 0.0
H1730 H 0.98962 0.33548 0.10588 0.0
H1731 H 0.01329 0.38134 0.16817 0.0
H1732 H 0.99104 0.44564 0.11393 0.0
H1733 H 0.9895 0.41069 0.14347 0.0
H1734 H 0.01962 0.36181 0.08654 0.0
H1735 H 0.02055 0.39628 0.05709 0.0
C1736 C 0.9909 0.31767 0.14174 0.0
C1737 C 0.9954 0.32014 0.1676 0.0
C1738 C 0.99402 0.338 0.12554 0.0
C1739 C 0.00184 0.36141 0.13469 0.0
C1740 C 0.00694 0.36373 0.16047 0.0
C1741 C 0.00377 0.34338 0.1767 0.0
C1742 C 0.99749 0.42747 0.10781 0.0
C1743 C 0.00561 0.42379 0.083 0.0
C1744 C 0.9967 0.40741 0.12478 0.0
C1745 C 0.00417 0.38326 0.11736 0.0
C1746 C 0.01313 0.37992 0.09281 0.0
C1747 C 0.01375 0.39982 0.07589 0.0
H1748 H 0.68915 0.95589 0.15581 0.0
H1749 H 0.67747 0.03184 0.18075 0.0
H1750 H 0.65484 0.96021 0.12634 0.0
H1751 H 0.64226 0.03565 0.15164 0.0
H1752 H 0.56364 0.018 0.11416 0.0
H1753 H 0.59815 0.01598 0.14451 0.0
H1754 H 0.64638 0.98547 0.08732 0.0
H1755 H 0.61237 0.98744 0.05719 0.0
C1756 C 0.6796 0.97368 0.15484 0.0
C1757 C 0.68654 0.99363 0.1706 0.0
C1758 C 0.6597 0.97604 0.13802 0.0
C1759 C 0.64585 0.99827 0.13664 0.0
C1760 C 0.65245 0.0182 0.15246 0.0
C1761 C 0.67266 0.01597 0.16915 0.0
C1762 C 0.58161 0.01085 0.1081 0.0
C1763 C 0.58515 0.00288 0.0832 0.0
C1764 C 0.6014 0.00988 0.12543 0.0
C1765 C 0.62496 1.00052 0.11829 0.0
C1766 C 0.62842 0.99258 0.09345 0.0
C1767 C 0.60887 0.99386 0.07613 0.0
H1768 H 0.97434 0.67877 0.17894 0.0
H1769 H 0.0506 0.69043 0.15431 0.0
H1770 H 0.97055 0.64382 0.14963 0.0
H1771 H 0.04626 0.65644 0.12459 0.0
H1772 H 0.01922 0.61386 0.05531 0.0
H1773 H 0.021 0.64793 0.08537 0.0
H1774 H 0.9904 0.59982 0.14262 0.0
H1775 H 0.98864 0.56529 0.11237 0.0
C1776 C 0.99029 0.67404 0.16737 0.0
C1777 C 0.01272 0.68784 0.16901 0.0
C1778 C 0.98806 0.65398 0.15055 0.0
C1779 C 0.00807 0.64745 0.13473 0.0
C1780 C 0.03037 0.66124 0.13625 0.0
C1781 C 0.03273 0.68098 0.15323 0.0
C1782 C 0.01273 0.61043 0.07425 0.0
C1783 C 0.00379 0.58674 0.08138 0.0
C1784 C 0.01389 0.63 0.09152 0.0
C1785 C 0.00588 0.62658 0.11637 0.0
C1786 C 0.99656 0.60305 0.12354 0.0
C1787 C 0.99574 0.58325 0.10627 0.0
H1788 H 0.31775 0.95606 0.85287 0.0
H1789 H 0.32951 0.03156 0.82656 0.0
H1790 H 0.35227 0.96076 0.88201 0.0
H1791 H 0.36494 0.03576 0.85538 0.0
H1792 H 0.44379 0.01803 0.89286 0.0
H1793 H 0.40913 0.01588 0.86265 0.0
H1794 H 0.36077 0.98682 0.92054 0.0
H1795 H 0.39489 0.98892 0.95049 0.0
C1796 C 0.32736 0.97384 0.85348 0.0
C1797 C 0.32038 0.99355 0.83744 0.0
C1798 C 0.34739 0.97641 0.8701 0.0
C1799 C 0.3613 0.99863 0.87102 0.0
C1800 C 0.35468 0.01832 0.85491 0.0
C1801 C 0.33435 0.01588 0.83841 0.0
C1802 C 0.42575 0.0112 0.89909 0.0
C1803 C 0.4222 0.00366 0.92413 0.0
C1804 C 0.40589 0.01014 0.88185 0.0
C1805 C 0.38226 1.00112 0.88924 0.0
C1806 C 0.37879 0.99366 0.91423 0.0
C1807 C 0.39841 0.99501 0.93144 0.0
H1808 H 0.98429 0.30871 0.85007 0.0
H1809 H 0.05784 0.3375 0.83307 0.0
H1810 H 0.97685 0.34441 0.87797 0.0
H1811 H 0.05053 0.37284 0.86088 0.0
H1812 H 0.02026 0.4454 0.89387 0.0
H1813 H 0.02379 0.41102 0.86392 0.0
H1814 H 0.99388 0.36013 0.91911 0.0
H1815 H 0.99027 0.39435 0.94902 0.0
C1816 C 0.99881 0.32266 0.85226 0.0
C1817 C 0.02174 0.32012 0.83958 0.0
C1818 C 0.99462 0.34302 0.86829 0.0
C1819 C 0.0131 0.36149 0.87161 0.0
C1820 C 0.03582 0.35911 0.85858 0.0
C1821 C 0.04012 0.33867 0.84287 0.0
C1822 C 0.0142 0.42694 0.89956 0.0
C1823 C 0.00513 0.42267 0.92395 0.0
C1824 C 0.01637 0.4072 0.88243 0.0
C1825 C 0.0092 0.3828 0.88916 0.0
C1826 C 0.99939 0.37871 0.91326 0.0
C1827 C 0.99751 0.39834 0.93048 0.0
H1828 H 0.65768 0.01369 0.80822 0.0
H1829 H 0.71021 1.00019 0.86812 0.0
H1830 H 0.62307 0.01051 0.83775 0.0
H1831 H 0.67561 0.99593 0.89767 0.0
H1832 H 0.61277 0.02087 0.94894 0.0
H1833 H 0.64662 0.02068 0.9187 0.0
H1834 H 0.59784 0.98612 0.86409 0.0
H1835 H 0.56349 0.98733 0.89429 0.0
C1836 C 0.66178 0.0094 0.82764 0.0
C1837 C 0.6867 0.00722 0.83584 0.0
C1838 C 0.64188 0.00754 0.84465 0.0
C1839 C 0.64635 0.00319 0.87031 0.0
C1840 C 0.67132 0.99995 0.87824 0.0
C1841 C 0.69123 1.00217 0.86128 0.0
C1842 C 0.6092 0.01317 0.9305 0.0
C1843 C 0.58533 0.00409 0.9241 0.0
C1844 C 0.62878 0.01286 0.91312 0.0
C1845 C 0.62526 0.00315 0.88885 0.0
C1846 C 0.60132 0.99404 0.88244 0.0
C1847 C 0.58157 0.99466 0.89979 0.0
H1848 H 0.95094 0.67008 0.831 0.0
H1849 H 0.02457 0.69878 0.84772 0.0
H1850 H 0.9584 0.63459 0.85863 0.0
H1851 H 0.03214 0.66297 0.87546 0.0
H1852 H 0.01848 0.61352 0.94688 0.0
H1853 H 0.0151 0.64749 0.91666 0.0
H1854 H 0.98512 0.59628 0.86186 0.0
H1855 H 0.98845 0.5621 0.89217 0.0
C1856 C 0.96872 0.66885 0.84069 0.0
C1857 C 0.98706 0.68743 0.8374 0.0
C1858 C 0.9731 0.64832 0.85629 0.0
C1859 C 0.99587 0.64589 0.86922 0.0
C1860 C 0.01434 0.66438 0.86585 0.0
C1861 C 0.01007 0.68481 0.84992 0.0
C1862 C 0.01128 0.60939 0.92834 0.0
C1863 C 0.00355 0.58504 0.92205 0.0
C1864 C 0.00955 0.62888 0.91095 0.0
C1865 C 0.99976 0.62464 0.88688 0.0
C1866 C 0.99253 0.6002 0.88035 0.0
C1867 C 0.99458 0.58058 0.89767 0.0
H1868 H 0.13989 0.29955 0.00563 0.0
H1869 H 0.20001 0.35235 0.99546 0.0
H1870 H 0.11024 0.33389 0.00988 0.0
H1871 H 0.17039 0.38677 0.99853 0.0
H1872 H 0.11301 0.44553 0.0216 0.0
H1873 H 0.14334 0.4114 0.02255 0.0
H1874 H 0.08981 0.36336 0.98551 0.0
H1875 H 0.05944 0.39693 0.98564 0.0
C1876 C 0.14675 0.31855 0.00436 0.0
C1877 C 0.17228 0.32322 1.00026 0.0
C1878 C 0.12973 0.33832 0.00656 0.0
C1879 C 0.13769 0.36333 0.00422 0.0
C1880 C 0.16343 0.36792 1.00079 0.0
C1881 C 0.18049 0.34814 0.99898 0.0
C1882 C 0.10779 0.42765 0.01368 0.0
C1883 C 0.08372 0.42398 0.00369 0.0
C1884 C 0.12522 0.40803 0.01414 0.0
C1885 C 0.11913 0.38434 0.00429 0.0
C1886 C 0.09513 0.38096 0.99394 0.0
C1887 C 0.07767 0.40039 0.99382 0.0
H1888 H 0.13568 0.70926 0.97984 0.0
H1889 H 0.19632 0.66338 0.00709 0.0
H1890 H 0.10695 0.67438 0.98476 0.0
H1891 H 0.16728 0.62878 0.01324 0.0
H1892 H 0.11398 0.56407 0.99135 0.0
H1893 H 0.14364 0.59879 0.9896 0.0
H1894 H 0.08561 0.64925 0.01434 0.0
H1895 H 0.056 0.61493 0.0154 0.0
C1896 C 0.14287 0.69181 0.98713 0.0
C1897 C 0.16841 0.68923 0.99297 0.0
C1898 C 0.1263 0.67179 0.99022 0.0
C1899 C 0.13471 0.64859 0.99937 0.0
C1900 C 0.16013 0.6462 0.00583 0.0
C1901 C 0.17675 0.66623 0.00267 0.0
C1902 C 0.1076 0.58256 0.99653 0.0
C1903 C 0.08248 0.58665 0.00323 0.0
C1904 C 0.12466 0.6025 0.99565 0.0
C1905 C 0.11705 0.62699 1.00162 0.0
C1906 C 0.09209 0.63084 0.00903 0.0
C1907 C 0.07507 0.61103 0.00974 0.0
H1908 H 0.2997 0.13757 0.98127 0.0
H1909 H 0.34582 0.19777 0.009 0.0
H1910 H 0.33462 0.10886 0.98575 0.0
H1911 H 0.38054 0.16871 0.01465 0.0
H1912 H 0.44516 0.11533 0.99198 0.0
H1913 H 0.41052 0.14513 0.99058 0.0
H1914 H 0.3597 0.08736 0.01528 0.0
H1915 H 0.3939 0.05765 0.01603 0.0
C1916 C 0.31722 0.14466 0.98857 0.0
C1917 C 0.31985 0.17007 0.99468 0.0
C1918 C 0.33727 0.12809 0.99139 0.0
C1919 C 0.36056 0.13637 1.00054 0.0
C1920 C 0.36304 0.16167 0.00725 0.0
C1921 C 0.34295 0.17829 0.00437 0.0
C1922 C 0.42661 0.10903 0.9972 0.0
C1923 C 0.42238 0.08395 0.00379 0.0
C1924 C 0.40672 0.12617 0.99653 0.0
C1925 C 0.38215 0.11867 0.00259 0.0
C1926 C 0.37817 0.09376 0.0099 0.0
C1927 C 0.39792 0.07668 0.01041 0.0
H1928 H 0.8723 0.29957 0.98194 0.0
H1929 H 0.81096 0.3458 0.00692 0.0
H1930 H 0.90088 0.33454 0.98707 0.0
H1931 H 0.83981 0.38049 0.01331 0.0
H1932 H 0.89356 0.44493 0.99181 0.0
H1933 H 0.864 0.41016 0.98991 0.0
H1934 H 0.92149 0.36013 0.01672 0.0
H1935 H 0.95104 0.39453 0.01794 0.0
C1936 C 0.86491 0.31712 0.98878 0.0
C1937 C 0.83923 0.31975 0.99392 0.0
C1938 C 0.8814 0.33719 0.99199 0.0
C1939 C 0.87275 0.36051 1.00059 0.0
C1940 C 0.84716 0.36297 0.00634 0.0
C1941 C 0.83064 0.34289 0.00305 0.0
C1942 C 0.89983 0.42654 0.99747 0.0
C1943 C 0.92479 0.42258 0.00481 0.0
C1944 C 0.88283 0.40656 0.99648 0.0
C1945 C 0.89032 0.38216 0.00297 0.0
C1946 C 0.91511 0.37846 0.01102 0.0
C1947 C 0.93209 0.39831 0.01184 0.0
H1948 H 0.70774 0.87158 0.02285 0.0
H1949 H 0.6616 0.81134 0.99525 0.0
H1950 H 0.67286 0.90032 0.01825 0.0
H1951 H 0.62691 0.84043 0.98947 0.0
H1952 H 0.56241 0.8938 0.01271 0.0
H1953 H 0.59702 0.86397 0.01365 0.0
H1954 H 0.64768 0.92183 0.98886 0.0
H1955 H 0.61348 0.95159 0.98858 0.0
C1956 C 0.69022 0.86449 0.01554 0.0
C1957 C 0.68755 0.83906 0.00954 0.0
C1958 C 0.6702 0.88107 0.01264 0.0
C1959 C 0.6469 0.87278 0.00351 0.0
C1960 C 0.64442 0.84747 0.99686 0.0
C1961 C 0.66448 0.83083 0.99981 0.0
C1962 C 0.58091 0.9001 0.00731 0.0
C1963 C 0.58511 0.92521 1.00084 0.0
C1964 C 0.60078 0.88295 0.00774 0.0
C1965 C 0.62531 0.89047 1.00155 0.0
C1966 C 0.62925 0.91541 0.99432 0.0
C1967 C 0.60951 0.93252 0.99406 0.0
H1968 H 0.86632 0.70913 0.99523 0.0
H1969 H 0.8072 0.65643 0.01059 0.0
H1970 H 0.89603 0.67482 0.99109 0.0
H1971 H 0.83692 0.62211 0.00752 0.0
H1972 H 0.89368 0.5628 0.98441 0.0
H1973 H 0.86314 0.59672 0.9831 0.0
H1974 H 0.91765 0.64653 0.0161 0.0
H1975 H 0.94818 0.61313 0.01639 0.0
C1976 C 0.85969 0.69017 0.99766 0.0
C1977 C 0.83441 0.68553 0.0032 0.0
C1978 C 0.87675 0.67043 0.99551 0.0
C1979 C 0.8691 0.64549 0.99929 0.0
C1980 C 0.8436 0.64089 0.00413 0.0
C1981 C 0.82649 0.66063 0.00593 0.0
C1982 C 0.8991 0.58102 0.99135 0.0
C1983 C 0.92347 0.5852 1.00037 0.0
C1984 C 0.88154 0.60052 0.99068 0.0
C1985 C 0.88781 0.62462 0.99932 0.0
C1986 C 0.91215 0.62856 0.00863 0.0
C1987 C 0.92971 0.60923 0.00899 0.0
H1988 H 0.29944 0.8725 0.97978 0.0
H1989 H 0.34488 0.81213 0.00823 0.0
H1990 H 0.33432 0.90117 0.98517 0.0
H1991 H 0.37947 0.84113 0.01481 0.0
H1992 H 0.44468 0.89422 0.99347 0.0
H1993 H 0.40993 0.8646 0.99141 0.0
H1994 H 0.35898 0.92256 0.01519 0.0
H1995 H 0.39336 0.95213 0.01661 0.0
C1996 C 0.31679 0.86536 0.98744 0.0
C1997 C 0.31925 0.83991 0.99348 0.0
C1998 C 0.3368 0.8819 0.99079 0.0
C1999 C 0.35987 0.87355 1.00041 0.0
C2000 C 0.36215 0.84822 0.00705 0.0
C2001 C 0.34212 0.83163 0.00364 0.0
C2002 C 0.42609 0.90058 0.99842 0.0
C2003 C 0.42189 0.92566 0.00497 0.0
C2004 C 0.40612 0.88355 0.99734 0.0
C2005 C 0.38149 0.89116 0.00293 0.0
C2006 C 0.37751 0.91608 0.0102 0.0
C2007 C 0.39736 0.93307 0.01112 0.0
H2008 H 0.66252 0.19726 0.0078 0.0
H2009 H 0.70824 0.13652 0.98068 0.0
H2010 H 0.62788 0.16835 0.01451 0.0
H2011 H 0.67333 0.10791 0.98618 0.0
H2012 H 0.61406 0.0573 0.01769 0.0
H2013 H 0.64843 0.08689 0.01622 0.0
H2014 H 0.59762 0.14452 0.99129 0.0
H2015 H 0.56289 0.11488 0.99342 0.0
C2016 C 0.66533 0.1777 0.00353 0.0
C2017 C 0.68829 0.1693 0.9937 0.0
C2018 C 0.64527 0.16115 0.00701 0.0
C2019 C 0.64762 0.13573 1.00077 0.0
C2020 C 0.67079 0.12726 0.99149 0.0
C2021 C 0.69082 0.14377 0.98806 0.0
C2022 C 0.61009 0.07629 0.01195 0.0
C2023 C 0.58562 0.0836 0.0055 0.0
C2024 C 0.62993 0.0933 0.01099 0.0
C2025 C 0.626 0.11813 0.00338 0.0
C2026 C 0.6014 0.12564 0.9975 0.0
C2027 C 0.58144 0.10861 0.99862 0.0
H2028 H 0.45195 0.67508 0.83949 0.0
H2029 H 0.52695 0.66208 0.81241 0.0
H2030 H 0.45991 0.64793 0.8753 0.0
H2031 H 0.53503 0.63484 0.84854 0.0
H2032 H 0.52313 0.56276 0.89736 0.0
H2033 H 0.51958 0.59303 0.86344 0.0
H2034 H 0.48579 0.64577 0.91443 0.0
H2035 H 0.48929 0.61535 0.94857 0.0
C2036 C 0.47014 0.66632 0.84115 0.0
C2037 C 0.48873 0.67049 0.82293 0.0
C2038 C 0.4748 0.65101 0.86186 0.0
C2039 C 0.49811 0.63926 0.86483 0.0
C2040 C 0.51682 0.64353 0.84672 0.0
C2041 C 0.51225 0.65917 0.82609 0.0
C2042 C 0.51511 0.58088 0.90146 0.0
C2043 C 0.50633 0.58656 0.92569 0.0
C2044 C 0.51326 0.5983 0.882 0.0
C2045 C 0.50231 0.62177 0.88618 0.0
C2046 C 0.49413 0.62774 0.91057 0.0
C2047 C 0.49628 0.61039 0.93016 0.0
H2048 H 0.31335 0.50778 0.8441 0.0
H2049 H 0.37483 0.48245 0.79809 0.0
H2050 H 0.34213 0.5148 0.87885 0.0
H2051 H 0.40336 0.48826 0.83315 0.0
H2052 H 0.45318 0.51973 0.89341 0.0
H2053 H 0.42382 0.51818 0.85871 0.0
H2054 H 0.36614 0.49155 0.90883 0.0
H2055 H 0.39547 0.49375 0.94388 0.0
C2056 C 0.33305 0.50399 0.84124 0.0
C2057 C 0.3417 0.49454 0.81817 0.0
C2058 C 0.34952 0.50765 0.86136 0.0
C2059 C 0.37512 0.50194 0.859 0.0
C2060 C 0.38386 0.49312 0.83571 0.0
C2061 C 0.36741 0.48953 0.8156 0.0
C2062 C 0.43422 0.5136 0.89715 0.0
C2063 C 0.4268 0.50671 0.92153 0.0
C2064 C 0.41736 0.5126 0.87713 0.0
C2065 C 0.39258 0.50452 0.88078 0.0
C2066 C 0.38497 0.49814 0.90528 0.0
C2067 C 0.40184 0.4993 0.92541 0.0
H2068 H 0.49373 0.32088 0.83491 0.0
H2069 H 0.5466 0.37291 0.80301 0.0
H2070 H 0.48642 0.34961 0.86994 0.0
H2071 H 0.53971 0.40129 0.83802 0.0
H2072 H 0.50567 0.45708 0.89117 0.0
H2073 H 0.50813 0.4285 0.85607 0.0
H2074 H 0.50954 0.366 0.90717 0.0
H2075 H 0.50677 0.39477 0.94276 0.0
C2076 C 0.50348 0.33861 0.83517 0.0
C2077 C 0.52071 0.34464 0.81614 0.0
C2078 C 0.49956 0.35492 0.85541 0.0
C2079 C 0.51255 0.37774 0.8569 0.0
C2080 C 0.52919 0.38401 0.83743 0.0
C2081 C 0.53325 0.36768 0.81738 0.0
C2082 C 0.50644 0.43727 0.89515 0.0
C2083 C 0.50622 0.42836 0.92003 0.0
C2084 C 0.50794 0.42084 0.87487 0.0
C2085 C 0.50925 0.39493 0.87872 0.0
C2086 C 0.50839 0.38585 0.90351 0.0
C2087 C 0.50695 0.40237 0.92394 0.0
H2088 H 0.69944 0.51032 0.84732 0.0
H2089 H 0.63743 0.48601 0.80148 0.0
H2090 H 0.67091 0.51699 0.88249 0.0
H2091 H 0.60917 0.49165 0.83677 0.0
H2092 H 0.5599 0.52349 0.89663 0.0
H2093 H 0.5897 0.52252 0.86233 0.0
H2094 H 0.64612 0.49311 0.91228 0.0
H2095 H 0.61621 0.49461 0.94703 0.0
C2096 C 0.67969 0.50669 0.84462 0.0
C2097 C 0.67075 0.49764 0.8215 0.0
C2098 C 0.66337 0.51017 0.86493 0.0
C2099 C 0.6377 0.50478 0.86259 0.0
C2100 C 0.62874 0.49629 0.83927 0.0
C2101 C 0.64501 0.49281 0.81903 0.0
C2102 C 0.57868 0.51686 0.90043 0.0
C2103 C 0.58554 0.50886 0.92462 0.0
C2104 C 0.59579 0.51623 0.88065 0.0
C2105 C 0.62027 0.50741 0.88435 0.0
C2106 C 0.62747 0.50018 0.90874 0.0
C2107 C 0.61031 0.50097 0.92867 0.0
H2108 H 0.48428 0.36997 0.20746 0.0
H2109 H 0.50906 0.30879 0.16095 0.0
H2110 H 0.48882 0.39839 0.17222 0.0
H2111 H 0.51475 0.33754 0.12584 0.0
H2112 H 0.51953 0.44864 0.11258 0.0
H2113 H 0.51876 0.41872 0.14666 0.0
H2114 H 0.49102 0.36211 0.09608 0.0
H2115 H 0.49241 0.39219 0.06148 0.0
C2116 C 0.49093 0.36259 0.18976 0.0
C2117 C 0.49624 0.33701 0.18715 0.0
C2118 C 0.4938 0.37898 0.16953 0.0
C2119 C 0.50218 0.37036 0.14603 0.0
C2120 C 0.50798 0.34485 0.14351 0.0
C2121 C 0.50508 0.3284 0.16381 0.0
C2122 C 0.51326 0.42982 0.10858 0.0
C2123 C 0.50572 0.42297 0.08423 0.0
C2124 C 0.51273 0.41262 0.12827 0.0
C2125 C 0.50447 0.388 0.12435 0.0
C2126 C 0.49765 0.38085 0.09982 0.0
C2127 C 0.49835 0.39812 0.07997 0.0
H2128 H 0.63509 0.52643 0.21082 0.0
H2129 H 0.69596 0.49944 0.16494 0.0
H2130 H 0.60635 0.52073 0.17591 0.0
H2131 H 0.66695 0.49254 0.13036 0.0
H2132 H 0.61387 0.51402 0.06527 0.0
H2133 H 0.64331 0.51601 0.10023 0.0
H2134 H 0.58527 0.49084 0.15071 0.0
H2135 H 0.55581 0.48949 0.11605 0.0
C2136 C 0.64232 0.51902 0.19338 0.0
C2137 C 0.66793 0.5135 0.19078 0.0
C2138 C 0.62575 0.51548 0.17336 0.0
C2139 C 0.63426 0.50623 0.15015 0.0
C2140 C 0.65974 0.50003 0.14778 0.0
C2141 C 0.67634 0.50362 0.16781 0.0
C2142 C 0.60745 0.50873 0.0838 0.0
C2143 C 0.58238 0.5018 0.0878 0.0
C2144 C 0.62438 0.50977 0.10388 0.0
C2145 C 0.6167 0.50375 0.12844 0.0
C2146 C 0.59179 0.49613 0.13223 0.0
C2147 C 0.57487 0.49526 0.11224 0.0
H2148 H 0.55655 0.67285 0.17308 0.0
H2149 H 0.48319 0.65619 0.20258 0.0
H2150 H 0.54925 0.64438 0.1382 0.0
H2151 H 0.4758 0.6275 0.16737 0.0
H2152 H 0.48979 0.55627 0.11698 0.0
H2153 H 0.49342 0.58605 0.15151 0.0
H2154 H 0.52163 0.64165 0.10016 0.0
H2155 H 0.51802 0.61197 0.06559 0.0
C2156 C 0.53889 0.66295 0.17219 0.0
C2157 C 0.52054 0.6666 0.19076 0.0
C2158 C 0.5346 0.64684 0.15203 0.0
C2159 C 0.51192 0.63373 0.14995 0.0
C2160 C 0.49352 0.63726 0.16853 0.0
C2161 C 0.49769 0.65374 0.1886 0.0
C2162 C 0.49663 0.57489 0.11298 0.0
C2163 C 0.50371 0.58165 0.08845 0.0
C2164 C 0.49854 0.592 0.13278 0.0
C2165 C 0.50791 0.61617 0.12861 0.0
C2166 C 0.51455 0.62309 0.10403 0.0
C2167 C 0.51233 0.6061 0.08417 0.0
H2168 H 0.33155 0.55515 0.16891 0.0
H2169 H 0.34823 0.48193 0.19833 0.0
H2170 H 0.35945 0.5476 0.13357 0.0
H2171 H 0.37618 0.47424 0.16262 0.0
H2172 H 0.44775 0.4876 0.11344 0.0
H2173 H 0.41728 0.49094 0.14725 0.0
H2174 H 0.36315 0.52106 0.09533 0.0
H2175 H 0.39372 0.51782 0.06133 0.0
C2176 C 0.34128 0.53744 0.16787 0.0
C2177 C 0.3379 0.51924 0.18661 0.0
C2178 C 0.35703 0.533 0.14742 0.0
C2179 C 0.37002 0.51031 0.14522 0.0
C2180 C 0.36654 0.49198 0.16385 0.0
C2181 C 0.35048 0.49632 0.18423 0.0
C2182 C 0.42931 0.49479 0.10911 0.0
C2183 C 0.42329 0.50261 0.08461 0.0
C2184 C 0.41177 0.49652 0.12852 0.0
C2185 C 0.38782 0.50636 0.12404 0.0
C2186 C 0.38155 0.51362 0.09944 0.0
C2187 C 0.39902 0.51162 0.07992 0.0
H2188 H 0.851 0.49507 0.70058 0.0
H2189 H 0.79871 0.5086 0.64048 0.0
H2190 H 0.88571 0.49792 0.67113 0.0
H2191 H 0.83341 0.51259 0.61101 0.0
H2192 H 0.89616 0.4874 0.55991 0.0
H2193 H 0.86227 0.48768 0.59014 0.0
H2194 H 0.91116 0.52202 0.64481 0.0
H2195 H 0.94555 0.52064 0.61461 0.0
C2196 C 0.84699 0.4993 0.68112 0.0
C2197 C 0.82211 0.50158 0.67284 0.0
C2198 C 0.86693 0.50097 0.66417 0.0
C2199 C 0.86255 0.50526 0.63848 0.0
C2200 C 0.83762 0.50861 0.63046 0.0
C2201 C 0.81767 0.50655 0.64737 0.0
C2202 C 0.89972 0.49505 0.57838 0.0
C2203 C 0.9236 0.50401 0.58482 0.0
C2204 C 0.88014 0.49541 0.59574 0.0
C2205 C 0.88369 0.50513 0.62001 0.0
C2206 C 0.90767 0.5141 0.62647 0.0
C2207 C 0.92743 0.51338 0.60914 0.0
H2208 H 0.45118 0.83652 0.6751 0.0
H2209 H 0.52648 0.81039 0.66208 0.0
H2210 H 0.45877 0.87221 0.64776 0.0
H2211 H 0.53417 0.8464 0.63462 0.0
H2212 H 0.52183 0.89539 0.56243 0.0
H2213 H 0.5184 0.86128 0.59252 0.0
H2214 H 0.48456 0.91141 0.64607 0.0
H2215 H 0.48796 0.94571 0.61588 0.0
C2216 C 0.46935 0.83835 0.66627 0.0
C2217 C 0.48814 0.82045 0.67052 0.0
C2218 C 0.47379 0.85899 0.65085 0.0
C2219 C 0.49709 0.8622 0.63907 0.0
C2220 C 0.51598 0.84437 0.64336 0.0
C2221 C 0.51163 0.82382 0.65912 0.0
C2222 C 0.51382 0.89924 0.58069 0.0
C2223 C 0.50503 0.92329 0.58668 0.0
C2224 C 0.51203 0.87969 0.598 0.0
C2225 C 0.50112 0.88359 0.62164 0.0
C2226 C 0.49288 0.90777 0.6279 0.0
C2227 C 0.49497 0.92745 0.61068 0.0
H2228 H 0.17102 0.45016 0.67631 0.0
H2229 H 0.20094 0.52276 0.65785 0.0
H2230 H 0.13563 0.45747 0.64842 0.0
H2231 H 0.16522 0.53019 0.62986 0.0
H2232 H 0.11502 0.51598 0.55902 0.0
H2233 H 0.14925 0.51251 0.58905 0.0
H2234 H 0.09773 0.48475 0.64486 0.0
H2235 H 0.06333 0.48817 0.61477 0.0
C2236 C 0.17009 0.46767 0.66617 0.0
C2237 C 0.18896 0.48578 0.66907 0.0
C2238 C 0.14963 0.47197 0.65042 0.0
C2239 C 0.14756 0.49442 0.63696 0.0
C2240 C 0.16636 0.51264 0.63989 0.0
C2241 C 0.18673 0.50845 0.65597 0.0
C2242 C 0.1109 0.50924 0.57774 0.0
C2243 C 0.08639 0.5022 0.58442 0.0
C2244 C 0.13054 0.50745 0.59501 0.0
C2245 C 0.12626 0.49828 0.61932 0.0
C2246 C 0.10168 0.49169 0.62619 0.0
C2247 C 0.08194 0.49379 0.609 0.0
H2248 H 0.48035 0.19871 0.65936 0.0
H2249 H 0.55573 0.17297 0.6726 0.0
H2250 H 0.47303 0.1628 0.63163 0.0
H2251 H 0.54847 0.13733 0.64511 0.0
H2252 H 0.51891 0.06335 0.61425 0.0
H2253 H 0.52231 0.09803 0.64394 0.0
H2254 H 0.48951 0.1477 0.58933 0.0
H2255 H 0.48617 0.11317 0.55963 0.0
C2256 C 0.4953 0.18539 0.65638 0.0
C2257 C 0.51869 0.18883 0.66796 0.0
C2258 C 0.49116 0.16491 0.64047 0.0
C2259 C 0.51016 0.14717 0.63624 0.0
C2260 C 0.53338 0.15049 0.64815 0.0
C2261 C 0.53762 0.17109 0.66367 0.0
C2262 C 0.51214 0.08159 0.60868 0.0
C2263 C 0.50238 0.08547 0.58451 0.0
C2264 C 0.51424 0.10149 0.62563 0.0
C2265 C 0.50625 0.12564 0.61895 0.0
C2266 C 0.49567 0.12931 0.59511 0.0
C2267 C 0.49393 0.10953 0.57804 0.0
H2268 H 0.84534 0.50171 0.31221 0.0
H2269 H 0.80024 0.53024 0.37301 0.0
H2270 H 0.8801 0.49527 0.34114 0.0
H2271 H 0.83528 0.52498 0.40161 0.0
H2272 H 0.94557 0.51613 0.39428 0.0
H2273 H 0.91073 0.51857 0.36465 0.0
H2274 H 0.8598 0.4948 0.4229 0.0
H2275 H 0.89421 0.49299 0.45246 0.0
C2276 C 0.8427 0.50636 0.33179 0.0
C2277 C 0.81987 0.51647 0.34022 0.0
C2278 C 0.86282 0.50303 0.34833 0.0
C2279 C 0.86067 0.50971 0.37376 0.0
C2280 C 0.83765 0.51934 0.38226 0.0
C2281 C 0.81756 0.52261 0.36576 0.0
C2282 C 0.92695 0.51132 0.40072 0.0
C2283 C 0.92277 0.50464 0.42589 0.0
C2284 C 0.90695 0.5126 0.38368 0.0
C2285 C 0.88231 0.50709 0.39137 0.0
C2286 C 0.87835 0.49974 0.41637 0.0
C2287 C 0.89822 0.4986 0.43336 0.0
H2288 H 0.48384 0.80841 0.35187 0.0
H2289 H 0.55788 0.83627 0.33551 0.0
H2290 H 0.47693 0.84377 0.38037 0.0
H2291 H 0.55107 0.8713 0.36385 0.0
H2292 H 0.52135 0.94408 0.39718 0.0
H2293 H 0.52464 0.90984 0.36703 0.0
H2294 H 0.49428 0.85888 0.4219 0.0
H2295 H 0.49097 0.89298 0.45205 0.0
C2296 C 0.49859 0.82207 0.35434 0.0
C2297 C 0.52149 0.81938 0.34164 0.0
C2298 C 0.49469 0.84224 0.37071 0.0
C2299 C 0.51344 0.86038 0.37434 0.0
C2300 C 0.53616 0.85782 0.36133 0.0
C2301 C 0.54016 0.83756 0.3453 0.0
C2302 C 0.51516 0.92563 0.40276 0.0
C2303 C 0.50603 0.92131 0.42712 0.0
C2304 C 0.51718 0.90598 0.38552 0.0
C2305 C 0.50979 0.8816 0.39209 0.0
C2306 C 0.49997 0.87744 0.41618 0.0
C2307 C 0.49826 0.897 0.43352 0.0
H2308 H 0.20941 0.52257 0.37293 0.0
H2309 H 0.16263 0.49971 0.31099 0.0
H2310 H 0.17439 0.51709 0.40152 0.0
H2311 H 0.12788 0.49295 0.33983 0.0
H2312 H 0.06376 0.51437 0.39431 0.0
H2313 H 0.09854 0.51615 0.36459 0.0
H2314 H 0.14836 0.48744 0.42153 0.0
H2315 H 0.11396 0.48635 0.45124 0.0
C2316 C 0.19173 0.51611 0.36541 0.0
C2317 C 0.18895 0.51169 0.33956 0.0
C2318 C 0.17164 0.51268 0.3819 0.0
C2319 C 0.14814 0.50461 0.37307 0.0
C2320 C 0.14554 0.49951 0.34731 0.0
C2321 C 0.16565 0.50302 0.33079 0.0
C2322 C 0.0821 0.50826 0.4004 0.0
C2323 C 0.08605 0.50047 0.42527 0.0
C2324 C 0.10208 0.50918 0.38331 0.0
C2325 C 0.12644 0.50216 0.39064 0.0
C2326 C 0.13008 0.49357 0.4153 0.0
C2327 C 0.11024 0.49284 0.43236 0.0
H2328 H 0.49606 0.15552 0.30848 0.0
H2329 H 0.50673 0.20808 0.3688 0.0
H2330 H 0.4989 0.12099 0.33811 0.0
H2331 H 0.51073 0.17364 0.39845 0.0
H2332 H 0.48621 0.1108 0.4494 0.0
H2333 H 0.48618 0.14434 0.41892 0.0
H2334 H 0.52265 0.09606 0.3652 0.0
H2335 H 0.52162 0.06195 0.39566 0.0
C2336 C 0.49964 0.15965 0.32804 0.0
C2337 C 0.50112 0.18454 0.33631 0.0
C2338 C 0.5013 0.13981 0.34511 0.0
C2339 C 0.50479 0.1443 0.37091 0.0
C2340 C 0.50735 0.16928 0.37892 0.0
C2341 C 0.50529 0.18911 0.3619 0.0
C2342 C 0.49427 0.10727 0.4311 0.0
C2343 C 0.50398 0.08362 0.42505 0.0
C2344 C 0.49445 0.12669 0.41357 0.0
C2345 C 0.5047 0.12325 0.38949 0.0
C2346 C 0.51433 0.09949 0.38339 0.0
C2347 C 0.51382 0.07988 0.40089 0.0
H2348 H 0.69301 0.83877 0.51907 0.0
H2349 H 0.63645 0.80311 0.47373 0.0
H2350 H 0.66498 0.87439 0.52589 0.0
H2351 H 0.60867 0.83862 0.48025 0.0
H2352 H 0.55586 0.89327 0.51597 0.0
H2353 H 0.58478 0.85858 0.51406 0.0
H2354 H 0.64587 0.9096 0.50054 0.0
H2355 H 0.61665 0.94491 0.50252 0.0
C2356 C 0.67446 0.83837 0.51091 0.0
C2357 C 0.66688 0.81806 0.49596 0.0
C2358 C 0.65855 0.8589 0.51454 0.0
C2359 C 0.63461 0.8594 0.50357 0.0
C2360 C 0.62689 0.83878 0.48916 0.0
C2361 C 0.64283 0.81844 0.48534 0.0
C2362 C 0.57543 0.89734 0.5126 0.0
C2363 C 0.58378 0.92206 0.50905 0.0
C2364 C 0.59204 0.8773 0.51147 0.0
C2365 C 0.61759 0.88123 0.50683 0.0
C2366 C 0.62627 0.90595 0.50423 0.0
C2367 C 0.60953 0.92618 0.50529 0.0
H2368 H 0.6961 0.16296 0.50857 0.0
H2369 H 0.63456 0.20922 0.48411 0.0
H2370 H 0.6674 0.12808 0.51453 0.0
H2371 H 0.60617 0.17406 0.48874 0.0
H2372 H 0.55619 0.11361 0.51896 0.0
H2373 H 0.58556 0.14812 0.51789 0.0
H2374 H 0.64338 0.09843 0.49115 0.0
H2375 H 0.61398 0.0635 0.49297 0.0
C2376 C 0.67642 0.16583 0.50471 0.0
C2377 C 0.66774 0.18905 0.49585 0.0
C2378 C 0.65998 0.14563 0.50775 0.0
C2379 C 0.63439 0.14804 0.50199 0.0
C2380 C 0.62565 0.17143 0.49366 0.0
C2381 C 0.64204 0.19162 0.49072 0.0
C2382 C 0.57517 0.10992 0.51285 0.0
C2383 C 0.58258 0.08569 0.50583 0.0
C2384 C 0.59205 0.12985 0.51213 0.0
C2385 C 0.61689 0.12629 0.50416 0.0
C2386 C 0.62451 0.10193 0.49764 0.0
C2387 C 0.60759 0.08186 0.49855 0.0
H2388 H 0.8353 0.68271 0.53436 0.0
H2389 H 0.81655 0.65403 0.46093 0.0
H2390 H 0.8705 0.6536 0.53661 0.0
H2391 H 0.85109 0.62473 0.46362 0.0
H2392 H 0.8965 0.55746 0.48957 0.0
H2393 H 0.86247 0.58741 0.48855 0.0
H2394 H 0.91235 0.64509 0.515 0.0
H2395 H 0.94684 0.61481 0.51621 0.0
C2396 C 0.83857 0.67026 0.51871 0.0
C2397 C 0.82277 0.67071 0.49754 0.0
C2398 C 0.85881 0.6536 0.52001 0.0
C2399 C 0.86359 0.63683 0.50031 0.0
C2400 C 0.84773 0.63715 0.47929 0.0
C2401 C 0.82772 0.65389 0.47787 0.0
C2402 C 0.90037 0.57649 0.49526 0.0
C2403 C 0.92452 0.58367 0.503 0.0
C2404 C 0.8808 0.59372 0.49451 0.0
C2405 C 0.88467 0.61865 0.50164 0.0
C2406 C 0.90874 0.62595 0.50955 0.0
C2407 C 0.92853 0.60867 0.51004 0.0
H2408 H 0.3727 0.79825 0.48367 0.0
H2409 H 0.31162 0.84467 0.50894 0.0
H2410 H 0.40144 0.83309 0.48883 0.0
H2411 H 0.34063 0.8792 0.51536 0.0
H2412 H 0.39434 0.94351 0.49382 0.0
H2413 H 0.36476 0.90878 0.49182 0.0
H2414 H 0.42222 0.85862 0.51846 0.0
H2415 H 0.4518 0.89298 0.51979 0.0
C2416 C 0.36541 0.8158 0.49058 0.0
C2417 C 0.33974 0.81854 0.49578 0.0
C2418 C 0.38198 0.8358 0.49381 0.0
C2419 C 0.37343 0.85913 0.50247 0.0
C2420 C 0.34788 0.86168 0.50833 0.0
C2421 C 0.33127 0.84168 0.50502 0.0
C2422 C 0.40061 0.9251 0.49939 0.0
C2423 C 0.42557 0.9211 0.50674 0.0
C2424 C 0.3836 0.90514 0.49836 0.0
C2425 C 0.39107 0.88073 0.50481 0.0
C2426 C 0.41586 0.87697 0.51281 0.0
C2427 C 0.43285 0.8968 0.51368 0.0
H2428 H 0.20742 0.36975 0.52396 0.0
H2429 H 0.16127 0.30864 0.49838 0.0
H2430 H 0.17235 0.39821 0.51903 0.0
H2431 H 0.12633 0.33742 0.49234 0.0
H2432 H 0.06204 0.39165 0.51531 0.0
H2433 H 0.09661 0.36169 0.51642 0.0
H2434 H 0.14692 0.41864 0.48893 0.0
H2435 H 0.11281 0.44848 0.48843 0.0
C2436 C 0.18985 0.36241 0.51703 0.0
C2437 C 0.18724 0.33684 0.51165 0.0
C2438 C 0.16972 0.37881 0.51395 0.0
C2439 C 0.14637 0.37019 0.50528 0.0
C2440 C 0.1439 0.34471 0.49933 0.0
C2441 C 0.16409 0.32825 0.50244 0.0
C2442 C 0.08045 0.39767 0.50933 0.0
C2443 C 0.08464 0.42258 0.50211 0.0
C2444 C 0.10029 0.38048 0.50987 0.0
C2445 C 0.12473 0.38777 0.50304 0.0
C2446 C 0.12858 0.41245 0.49493 0.0
C2447 C 0.10889 0.42959 0.49456 0.0
H2448 H 0.36727 0.20792 0.49889 0.0
H2449 H 0.30763 0.15554 0.51327 0.0
H2450 H 0.39681 0.17344 0.49501 0.0
H2451 H 0.33718 0.12104 0.51047 0.0
H2452 H 0.39396 0.06152 0.48779 0.0
H2453 H 0.36356 0.09558 0.48634 0.0
H2454 H 0.41791 0.14498 0.52023 0.0
H2455 H 0.4483 0.11144 0.52065 0.0
C2456 C 0.36049 0.18899 0.50116 0.0
C2457 C 0.33512 0.18448 0.50636 0.0
C2458 C 0.37745 0.16916 0.49915 0.0
C2459 C 0.3696 0.14426 0.50276 0.0
C2460 C 0.34401 0.13979 0.50724 0.0
C2461 C 0.327 0.15962 0.50888 0.0
C2462 C 0.39934 0.07968 0.49492 0.0
C2463 C 0.42363 0.08372 0.5042 0.0
C2464 C 0.38188 0.09925 0.49416 0.0
C2465 C 0.38818 0.12329 0.50297 0.0
C2466 C 0.41241 0.12707 0.5126 0.0
C2467 C 0.42989 0.10767 0.51304 0.0
H2468 H 0.80309 0.3725 0.46682 0.0
H2469 H 0.83596 0.31831 0.51683 0.0
H2470 H 0.83842 0.40043 0.47388 0.0
H2471 H 0.87139 0.34652 0.52422 0.0
H2472 H 0.94368 0.39266 0.50279 0.0
H2473 H 0.90806 0.3639 0.50014 0.0
H2474 H 0.85715 0.42608 0.50687 0.0
H2475 H 0.89221 0.45461 0.50936 0.0
C2476 C 0.81776 0.36669 0.47957 0.0
C2477 C 0.81667 0.34322 0.49131 0.0
C2478 C 0.83799 0.38274 0.48371 0.0
C2479 C 0.85782 0.37571 0.49959 0.0
C2480 C 0.85655 0.35241 0.51172 0.0
C2481 C 0.83611 0.3364 0.50775 0.0
C2482 C 0.9249 0.40017 0.50389 0.0
C2483 C 0.921 0.42607 0.50604 0.0
C2484 C 0.90447 0.38366 0.50248 0.0
C2485 C 0.87971 0.39271 0.50306 0.0
C2486 C 0.87591 0.41849 0.50591 0.0
C2487 C 0.89618 0.43488 0.50741 0.0
H2488 H 0.17248 0.68875 0.51645 0.0
H2489 H 0.20448 0.6366 0.46376 0.0
H2490 H 0.13769 0.65984 0.52405 0.0
H2491 H 0.16974 0.60799 0.47102 0.0
H2492 H 0.11736 0.55213 0.50622 0.0
H2493 H 0.15214 0.58102 0.50351 0.0
H2494 H 0.10061 0.64298 0.5006 0.0
H2495 H 0.06532 0.61391 0.50353 0.0
C2496 C 0.17229 0.67095 0.5068 0.0
C2497 C 0.19128 0.66492 0.48955 0.0
C2498 C 0.1522 0.65455 0.51091 0.0
C2499 C 0.15084 0.63163 0.49808 0.0
C2500 C 0.17025 0.62537 0.48139 0.0
C2501 C 0.19014 0.64181 0.47713 0.0
C2502 C 0.11321 0.57189 0.50507 0.0
C2503 C 0.08831 0.58056 0.50488 0.0
C2504 C 0.13331 0.58849 0.50344 0.0
C2505 C 0.12923 0.61431 0.50162 0.0
C2506 C 0.10441 0.62318 0.50214 0.0
C2507 C 0.08417 0.60649 0.5037 0.0
loop_
_geom_bond_atom_site_label_1
_geom_bond_atom_site_label_2
_geom_bond_distance
_geom_bond_site_symmetry_2
_ccdc_geom_bond_type
P0 O11 1.490 . S
P0 C14 1.812 . S
P0 C20 1.803 . S
P0 C26 1.819 . S
H1 C15 0.941 . S
H2 C16 0.939 . S
H3 C18 0.940 . S
H4 C19 0.940 . S
H5 C21 0.939 . S
H6 C22 0.942 . S
H7 C24 0.940 . S
H8 C25 0.939 . S
H9 C27 0.941 . S
H10 C31 0.939 1_455 S
O11 P0 1.490 . S
H12 C28 0.939 . S
H13 C30 0.940 . S
C14 P0 1.812 . S
C14 C15 1.389 . S
C14 C19 1.391 1_655 S
C15 H1 0.941 . S
C15 C14 1.389 . S
C15 C16 1.397 . S
C16 H2 0.939 . S
C16 C15 1.397 . S
C16 C17 1.378 . S
C17 C16 1.378 . S
C17 C18 1.378 1_655 S
C18 H3 0.940 . S
C18 C17 1.378 1_455 S
C18 C19 1.396 . S
C19 H4 0.940 . S
C19 C14 1.391 1_455 S
C19 C18 1.396 . S
C20 P0 1.803 . S
C20 C21 1.378 . S
C20 C25 1.400 1_655 S
C21 H5 0.939 . S
C21 C20 1.378 . S
C21 C22 1.361 . S
C22 H6 0.942 . S
C22 C21 1.361 . S
C22 C23 1.369 . S
C23 C22 1.369 . S
C23 C24 1.404 1_655 S
C24 H7 0.940 . S
C24 C23 1.404 1_455 S
C24 C25 1.389 . S
C25 H8 0.939 . S
C25 C20 1.400 1_455 S
C25 C24 1.389 . S
C26 P0 1.819 . S
C26 C27 1.391 . S
C26 C31 1.391 . S
C27 H9 0.941 . S
C27 C26 1.391 . S
C27 C28 1.396 . S
C28 H12 0.939 . S
C28 C27 1.396 . S
C28 C29 1.397 . S
C29 C28 1.397 . S
C29 C30 1.385 1_655 S
C30 H13 0.940 . S
C30 C29 1.385 1_455 S
C30 C31 1.388 1_455 S
C31 H10 0.939 1_655 S
C31 C26 1.391 . S
C31 C30 1.388 1_655 S
P32 O43 1.490 . S
P32 C46 1.812 . S
P32 C52 1.803 . S
P32 C58 1.819 . S
H33 C47 0.941 . S
H34 C48 0.939 . S
H35 C50 0.940 . S
H36 C51 0.940 . S
H37 C53 0.939 . S
H38 C54 0.942 . S
H39 C56 0.940 . S
H40 C57 0.939 . S
H41 C59 0.941 . S
H42 C63 0.939 1_545 S
O43 P32 1.490 . S
H44 C60 0.939 . S
H45 C62 0.940 . S
C46 P32 1.812 . S
C46 C47 1.389 . S
C46 C51 1.391 1_565 S
C47 H33 0.941 . S
C47 C46 1.389 . S
C47 C48 1.397 . S
C48 H34 0.939 . S
C48 C47 1.397 . S
C48 C49 1.378 . S
C49 C48 1.378 . S
C49 C50 1.378 1_565 S
C50 H35 0.940 . S
C50 C49 1.378 1_545 S
C50 C51 1.396 . S
C51 H36 0.940 . S
C51 C46 1.391 1_545 S
C51 C50 1.396 . S
C52 P32 1.803 . S
C52 C53 1.378 . S
C52 C57 1.400 1_565 S
C53 H37 0.939 . S
C53 C52 1.378 . S
C53 C54 1.361 . S
C54 H38 0.942 . S
C54 C53 1.361 . S
C54 C55 1.369 . S
C55 C54 1.369 . S
C55 C56 1.404 1_565 S
C56 H39 0.940 . S
C56 C55 1.404 1_545 S
C56 C57 1.389 . S
C57 H40 0.939 . S
C57 C52 1.400 1_545 S
C57 C56 1.389 . S
C58 P32 1.819 . S
C58 C59 1.391 . S
C58 C63 1.391 . S
C59 H41 0.941 . S
C59 C58 1.391 . S
C59 C60 1.396 . S
C60 H44 0.939 . S
C60 C59 1.396 . S
C60 C61 1.397 . S
C61 C60 1.397 . S
C61 C62 1.385 1_565 S
C62 H45 0.940 . S
C62 C61 1.385 1_545 S
C62 C63 1.388 1_545 S
C63 H42 0.939 1_565 S
C63 C58 1.391 . S
C63 C62 1.388 1_565 S
P64 O75 1.490 . S
P64 C78 1.812 . S
P64 C84 1.803 . S
P64 C90 1.819 . S
H65 C79 0.941 . S
H66 C80 0.939 . S
H67 C82 0.940 . S
H68 C83 0.940 1_655 S
H69 C85 0.939 . S
H70 C86 0.942 . S
H71 C88 0.940 . S
H72 C89 0.939 1_655 S
H73 C91 0.941 . S
H74 C95 0.939 . S
O75 P64 1.490 . S
H76 C92 0.939 . S
H77 C94 0.940 . S
C78 P64 1.812 . S
C78 C79 1.389 . S
C78 C83 1.391 . S
C79 H65 0.941 . S
C79 C78 1.389 . S
C79 C80 1.397 . S
C80 H66 0.939 . S
C80 C79 1.397 . S
C80 C81 1.378 . S
C81 C80 1.378 . S
C81 C82 1.378 1_455 S
C82 H67 0.940 . S
C82 C81 1.378 1_655 S
C82 C83 1.396 1_655 S
C83 H68 0.940 1_455 S
C83 C78 1.391 . S
C83 C82 1.396 1_455 S
C84 P64 1.803 . S
C84 C85 1.378 . S
C84 C89 1.400 . S
C85 H69 0.939 . S
C85 C84 1.378 . S
C85 C86 1.361 . S
C86 H70 0.942 . S
C86 C85 1.361 . S
C86 C87 1.369 . S
C87 C86 1.369 . S
C87 C88 1.404 1_455 S
C88 H71 0.940 . S
C88 C87 1.404 1_655 S
C88 C89 1.389 1_655 S
C89 H72 0.939 1_455 S
C89 C84 1.400 . S
C89 C88 1.389 1_455 S
C90 P64 1.819 . S
C90 C91 1.391 . S
C90 C95 1.391 . S
C91 H73 0.941 . S
C91 C90 1.391 . S
C91 C92 1.396 . S
C92 H76 0.939 . S
C92 C91 1.396 . S
C92 C93 1.397 . S
C93 C92 1.397 . S
C93 C94 1.385 1_455 S
C94 H77 0.940 . S
C94 C93 1.385 1_655 S
C94 C95 1.388 1_655 S
C95 H74 0.939 . S
C95 C90 1.391 . S
C95 C94 1.388 1_455 S
P96 O107 1.490 . S
P96 C110 1.812 . S
P96 C116 1.803 . S
P96 C122 1.819 . S
H97 C111 0.941 . S
H98 C112 0.939 . S
H99 C114 0.940 . S
H100 C115 0.940 . S
H101 C117 0.939 . S
H102 C118 0.942 . S
H103 C120 0.940 . S
H104 C121 0.939 . S
H105 C123 0.941 . S
H106 C127 0.939 1_545 S
O107 P96 1.490 . S
H108 C124 0.939 . S
H109 C126 0.940 . S
C110 P96 1.812 . S
C110 C111 1.389 . S
C110 C115 1.391 1_565 S
C111 H97 0.941 . S
C111 C110 1.389 . S
C111 C112 1.397 . S
C112 H98 0.939 . S
C112 C111 1.397 . S
C112 C113 1.378 . S
C113 C112 1.378 . S
C113 C114 1.378 1_565 S
C114 H99 0.940 . S
C114 C113 1.378 1_545 S
C114 C115 1.396 . S
C115 H100 0.940 . S
C115 C110 1.391 1_545 S
C115 C114 1.396 . S
C116 P96 1.803 . S
C116 C117 1.378 . S
C116 C121 1.400 1_565 S
C117 H101 0.939 . S
C117 C116 1.378 . S
C117 C118 1.361 . S
C118 H102 0.942 . S
C118 C117 1.361 . S
C118 C119 1.369 . S
C119 C118 1.369 . S
C119 C120 1.404 1_565 S
C120 H103 0.940 . S
C120 C119 1.404 1_545 S
C120 C121 1.389 . S
C121 H104 0.939 . S
C121 C116 1.400 1_545 S
C121 C120 1.389 . S
C122 P96 1.819 . S
C122 C123 1.391 . S
C122 C127 1.391 . S
C123 H105 0.941 . S
C123 C122 1.391 . S
C123 C124 1.396 . S
C124 H108 0.939 . S
C124 C123 1.396 . S
C124 C125 1.397 . S
C125 C124 1.397 . S
C125 C126 1.385 1_565 S
C126 H109 0.940 . S
C126 C125 1.385 1_545 S
C126 C127 1.388 1_545 S
C127 H106 0.939 1_565 S
C127 C122 1.391 . S
C127 C126 1.388 1_565 S
P128 O139 1.490 . S
P128 C142 1.812 . S
P128 C148 1.803 . S
P128 C154 1.819 . S
H129 C143 0.941 . S
H130 C144 0.939 . S
H131 C146 0.940 . S
H132 C147 0.940 . S
H133 C149 0.939 . S
H134 C150 0.942 . S
H135 C152 0.940 . S
H136 C153 0.939 . S
H137 C155 0.941 . S
H138 C159 0.939 1_455 S
O139 P128 1.490 . S
H140 C156 0.939 . S
H141 C158 0.940 . S
C142 P128 1.812 . S
C142 C143 1.389 . S
C142 C147 1.391 1_655 S
C143 H129 0.941 . S
C143 C142 1.389 . S
C143 C144 1.397 . S
C144 H130 0.939 . S
C144 C143 1.397 . S
C144 C145 1.378 . S
C145 C144 1.378 . S
C145 C146 1.378 1_655 S
C146 H131 0.940 . S
C146 C145 1.378 1_455 S
C146 C147 1.396 . S
C147 H132 0.940 . S
C147 C142 1.391 1_455 S
C147 C146 1.396 . S
C148 P128 1.803 . S
C148 C149 1.378 . S
C148 C153 1.400 1_655 S
C149 H133 0.939 . S
C149 C148 1.378 . S
C149 C150 1.361 . S
C150 H134 0.942 . S
C150 C149 1.361 . S
C150 C151 1.369 . S
C151 C150 1.369 . S
C151 C152 1.404 1_655 S
C152 H135 0.940 . S
C152 C151 1.404 1_455 S
C152 C153 1.389 . S
C153 H136 0.939 . S
C153 C148 1.400 1_455 S
C153 C152 1.389 . S
C154 P128 1.819 . S
C154 C155 1.391 . S
C154 C159 1.391 . S
C155 H137 0.941 . S
C155 C154 1.391 . S
C155 C156 1.396 . S
C156 H140 0.939 . S
C156 C155 1.396 . S
C156 C157 1.397 . S
C157 C156 1.397 . S
C157 C158 1.385 1_655 S
C158 H141 0.940 . S
C158 C157 1.385 1_455 S
C158 C159 1.388 1_455 S
C159 H138 0.939 1_655 S
C159 C154 1.391 . S
C159 C158 1.388 1_655 S
P160 O171 1.490 . S
P160 C174 1.812 . S
P160 C180 1.803 . S
P160 C186 1.819 . S
H161 C175 0.941 . S
H162 C176 0.939 . S
H163 C178 0.940 . S
H164 C179 0.940 . S
H165 C181 0.939 . S
H166 C182 0.942 . S
H167 C184 0.940 . S
H168 C185 0.939 . S
H169 C187 0.941 . S
H170 C191 0.939 1_545 S
O171 P160 1.490 . S
H172 C188 0.939 . S
H173 C190 0.940 . S
C174 P160 1.812 . S
C174 C175 1.389 . S
C174 C179 1.391 1_565 S
C175 H161 0.941 . S
C175 C174 1.389 . S
C175 C176 1.397 . S
C176 H162 0.939 . S
C176 C175 1.397 . S
C176 C177 1.378 . S
C177 C176 1.378 . S
C177 C178 1.378 1_565 S
C178 H163 0.940 . S
C178 C177 1.378 1_545 S
C178 C179 1.396 . S
C179 H164 0.940 . S
C179 C174 1.391 1_545 S
C179 C178 1.396 . S
C180 P160 1.803 . S
C180 C181 1.378 . S
C180 C185 1.400 1_565 S
C181 H165 0.939 . S
C181 C180 1.378 . S
C181 C182 1.361 . S
C182 H166 0.942 . S
C182 C181 1.361 . S
C182 C183 1.369 . S
C183 C182 1.369 . S
C183 C184 1.404 1_565 S
C184 H167 0.940 . S
C184 C183 1.404 1_545 S
C184 C185 1.389 . S
C185 H168 0.939 . S
C185 C180 1.400 1_545 S
C185 C184 1.389 . S
C186 P160 1.819 . S
C186 C187 1.391 . S
C186 C191 1.391 . S
C187 H169 0.941 . S
C187 C186 1.391 . S
C187 C188 1.396 . S
C188 H172 0.939 . S
C188 C187 1.396 . S
C188 C189 1.397 . S
C189 C188 1.397 . S
C189 C190 1.385 1_565 S
C190 H173 0.940 . S
C190 C189 1.385 1_545 S
C190 C191 1.388 1_545 S
C191 H170 0.939 1_565 S
C191 C186 1.391 . S
C191 C190 1.388 1_565 S
P192 O203 1.490 . S
P192 C206 1.812 . S
P192 C212 1.803 . S
P192 C218 1.819 . S
H193 C207 0.941 . S
H194 C208 0.939 . S
H195 C210 0.940 . S
H196 C211 0.940 1_655 S
H197 C213 0.939 . S
H198 C214 0.942 . S
H199 C216 0.940 . S
H200 C217 0.939 1_655 S
H201 C219 0.941 . S
H202 C223 0.939 . S
O203 P192 1.490 . S
H204 C220 0.939 . S
H205 C222 0.940 . S
C206 P192 1.812 . S
C206 C207 1.389 . S
C206 C211 1.391 . S
C207 H193 0.941 . S
C207 C206 1.389 . S
C207 C208 1.397 . S
C208 H194 0.939 . S
C208 C207 1.397 . S
C208 C209 1.378 . S
C209 C208 1.378 . S
C209 C210 1.378 1_455 S
C210 H195 0.940 . S
C210 C209 1.378 1_655 S
C210 C211 1.396 1_655 S
C211 H196 0.940 1_455 S
C211 C206 1.391 . S
C211 C210 1.396 1_455 S
C212 P192 1.803 . S
C212 C213 1.378 . S
C212 C217 1.400 . S
C213 H197 0.939 . S
C213 C212 1.378 . S
C213 C214 1.361 . S
C214 H198 0.942 . S
C214 C213 1.361 . S
C214 C215 1.369 . S
C215 C214 1.369 . S
C215 C216 1.404 1_455 S
C216 H199 0.940 . S
C216 C215 1.404 1_655 S
C216 C217 1.389 1_655 S
C217 H200 0.939 1_455 S
C217 C212 1.400 . S
C217 C216 1.389 1_455 S
C218 P192 1.819 . S
C218 C219 1.391 . S
C218 C223 1.391 . S
C219 H201 0.941 . S
C219 C218 1.391 . S
C219 C220 1.396 . S
C220 H204 0.939 . S
C220 C219 1.396 . S
C220 C221 1.397 . S
C221 C220 1.397 . S
C221 C222 1.385 1_455 S
C222 H205 0.940 . S
C222 C221 1.385 1_655 S
C222 C223 1.388 1_655 S
C223 H202 0.939 . S
C223 C218 1.391 . S
C223 C222 1.388 1_455 S
P224 O235 1.490 . S
P224 C238 1.812 . S
P224 C244 1.803 . S
P224 C250 1.819 . S
H225 C239 0.941 . S
H226 C240 0.939 . S
H227 C242 0.940 . S
H228 C243 0.918 1_565 S
H229 C245 0.939 . S
H230 C246 0.942 . S
H231 C248 0.940 . S
H232 C249 0.928 1_565 S
H233 C251 0.941 . S
H234 C255 0.948 . S
O235 P224 1.490 . S
H236 C252 0.939 . S
H237 C254 0.940 . S
C238 P224 1.812 . S
C238 C239 1.389 . S
C238 C243 1.427 . S
C239 H225 0.941 . S
C239 C238 1.389 . S
C239 C240 1.397 . S
C240 H226 0.939 . S
C240 C239 1.397 . S
C240 C241 1.378 . S
C241 C240 1.378 . S
C241 C242 1.378 1_545 S
C242 H227 0.940 . S
C242 C241 1.378 1_565 S
C242 C243 1.383 1_565 S
C243 H228 0.918 1_545 S
C243 C238 1.427 . S
C243 C242 1.383 1_545 S
C244 P224 1.803 . S
C244 C245 1.378 . S
C244 C249 1.419 . S
C245 H229 0.939 . S
C245 C244 1.378 . S
C245 C246 1.361 . S
C246 H230 0.942 . S
C246 C245 1.361 . S
C246 C247 1.369 . S
C247 C246 1.369 . S
C247 C248 1.404 1_545 S
C248 H231 0.940 . S
C248 C247 1.404 1_565 S
C248 C249 1.382 1_565 S
C249 H232 0.928 1_545 S
C249 C244 1.419 . S
C249 C248 1.382 1_545 S
C250 P224 1.819 . S
C250 C251 1.391 . S
C250 C255 1.391 . S
C251 H233 0.941 . S
C251 C250 1.391 . S
C251 C252 1.396 . S
C252 H236 0.939 . S
C252 C251 1.396 . S
C252 C253 1.397 . S
C253 C252 1.397 . S
C253 C254 1.385 1_545 S
C254 H237 0.940 . S
C254 C253 1.385 1_565 S
C254 C255 1.388 1_565 S
C255 H234 0.948 . S
C255 C250 1.391 . S
C255 C254 1.388 1_545 S
P256 O267 1.490 . S
P256 C270 1.812 . S
P256 C276 1.803 . S
P256 C282 1.819 . S
H257 C271 0.941 . S
H258 C272 0.939 . S
H259 C274 0.940 . S
H260 C275 0.957 . S
H261 C277 0.939 . S
H262 C278 0.942 . S
H263 C280 0.940 . S
H264 C281 0.967 . S
H265 C283 0.941 . S
H266 C287 0.924 1_554 S
O267 P256 1.490 . S
H268 C284 0.939 . S
H269 C286 0.940 . S
C270 P256 1.812 . S
C270 C271 1.389 . S
C270 C275 1.364 1_556 S
C271 H257 0.941 . S
C271 C270 1.389 . S
C271 C272 1.397 . S
C272 H258 0.939 . S
C272 C271 1.397 . S
C272 C273 1.378 . S
C273 C272 1.378 . S
C273 C274 1.378 1_556 S
C274 H259 0.940 . S
C274 C273 1.378 1_554 S
C274 C275 1.407 . S
C275 H260 0.957 . S
C275 C270 1.364 1_554 S
C275 C274 1.407 . S
C276 P256 1.803 . S
C276 C277 1.378 . S
C276 C281 1.356 1_556 S
C277 H261 0.939 . S
C277 C276 1.378 . S
C277 C278 1.361 . S
C278 H262 0.942 . S
C278 C277 1.361 . S
C278 C279 1.369 . S
C279 C278 1.369 . S
C279 C280 1.404 1_556 S
C280 H263 0.940 . S
C280 C279 1.404 1_554 S
C280 C281 1.407 . S
C281 H264 0.967 . S
C281 C276 1.356 1_554 S
C281 C280 1.407 . S
C282 P256 1.819 . S
C282 C283 1.391 . S
C282 C287 1.391 . S
C283 H265 0.941 . S
C283 C282 1.391 . S
C283 C284 1.396 . S
C284 H268 0.939 . S
C284 C283 1.396 . S
C284 C285 1.397 . S
C285 C284 1.397 . S
C285 C286 1.385 1_556 S
C286 H269 0.940 . S
C286 C285 1.385 1_554 S
C286 C287 1.388 1_554 S
C287 H266 0.924 1_556 S
C287 C282 1.391 . S
C287 C286 1.388 1_556 S
P288 O299 1.490 . S
P288 C302 1.812 . S
P288 C308 1.803 . S
P288 C314 1.819 . S
H289 C303 0.941 . S
H290 C304 0.939 . S
H291 C306 0.940 . S
H292 C307 0.958 . S
H293 C309 0.939 . S
H294 C310 0.942 . S
H295 C312 0.940 . S
H296 C313 0.967 . S
H297 C315 0.941 . S
H298 C319 0.925 1_554 S
O299 P288 1.490 . S
H300 C316 0.939 . S
H301 C318 0.940 . S
C302 P288 1.812 . S
C302 C303 1.389 . S
C302 C307 1.362 1_556 S
C303 H289 0.941 . S
C303 C302 1.389 . S
C303 C304 1.397 . S
C304 H290 0.939 . S
C304 C303 1.397 . S
C304 C305 1.378 . S
C305 C304 1.378 . S
C305 C306 1.378 1_556 S
C306 H291 0.940 . S
C306 C305 1.378 1_554 S
C306 C307 1.408 . S
C307 H292 0.958 . S
C307 C302 1.362 1_554 S
C307 C306 1.408 . S
C308 P288 1.803 . S
C308 C309 1.378 . S
C308 C313 1.357 1_556 S
C309 H293 0.939 . S
C309 C308 1.378 . S
C309 C310 1.361 . S
C310 H294 0.942 . S
C310 C309 1.361 . S
C310 C311 1.369 . S
C311 C310 1.369 . S
C311 C312 1.404 1_556 S
C312 H295 0.940 . S
C312 C311 1.404 1_554 S
C312 C313 1.407 . S
C313 H296 0.967 . S
C313 C308 1.357 1_554 S
C313 C312 1.407 . S
C314 P288 1.819 . S
C314 C315 1.391 . S
C314 C319 1.391 . S
C315 H297 0.941 . S
C315 C314 1.391 . S
C315 C316 1.396 . S
C316 H300 0.939 . S
C316 C315 1.396 . S
C316 C317 1.397 . S
C317 C316 1.397 . S
C317 C318 1.385 1_556 S
C318 H301 0.940 . S
C318 C317 1.385 1_554 S
C318 C319 1.388 1_554 S
C319 H298 0.925 1_556 S
C319 C314 1.391 . S
C319 C318 1.388 1_556 S
P320 O331 1.490 . S
P320 C334 1.812 . S
P320 C340 1.803 . S
P320 C346 1.819 . S
H321 C335 0.941 . S
H322 C336 0.939 . S
H323 C338 0.940 . S
H324 C339 0.956 . S
H325 C341 0.939 . S
H326 C342 0.942 . S
H327 C344 0.940 . S
H328 C345 0.964 . S
H329 C347 0.941 . S
H330 C351 0.926 1_554 S
O331 P320 1.490 . S
H332 C348 0.939 . S
H333 C350 0.940 . S
C334 P320 1.812 . S
C334 C335 1.389 . S
C334 C339 1.366 1_556 S
C335 H321 0.941 . S
C335 C334 1.389 . S
C335 C336 1.397 . S
C336 H322 0.939 . S
C336 C335 1.397 . S
C336 C337 1.378 . S
C337 C336 1.378 . S
C337 C338 1.378 1_556 S
C338 H323 0.940 . S
C338 C337 1.378 1_554 S
C338 C339 1.406 . S
C339 H324 0.956 . S
C339 C334 1.366 1_554 S
C339 C338 1.406 . S
C340 P320 1.803 . S
C340 C341 1.378 . S
C340 C345 1.361 1_556 S
C341 H325 0.939 . S
C341 C340 1.378 . S
C341 C342 1.361 . S
C342 H326 0.942 . S
C342 C341 1.361 . S
C342 C343 1.369 . S
C343 C342 1.369 . S
C343 C344 1.404 1_556 S
C344 H327 0.940 . S
C344 C343 1.404 1_554 S
C344 C345 1.405 . S
C345 H328 0.964 . S
C345 C340 1.361 1_554 S
C345 C344 1.405 . S
C346 P320 1.819 . S
C346 C347 1.391 . S
C346 C351 1.391 . S
C347 H329 0.941 . S
C347 C346 1.391 . S
C347 C348 1.396 . S
C348 H332 0.939 . S
C348 C347 1.396 . S
C348 C349 1.397 . S
C349 C348 1.397 . S
C349 C350 1.385 1_556 S
C350 H333 0.940 . S
C350 C349 1.385 1_554 S
C350 C351 1.388 1_554 S
C351 H330 0.926 1_556 S
C351 C346 1.391 . S
C351 C350 1.388 1_556 S
P352 O363 1.490 . S
P352 C366 1.812 . S
P352 C372 1.803 . S
P352 C378 1.819 . S
H353 C367 0.941 . S
H354 C368 0.939 . S
H355 C370 0.940 . S
H356 C371 0.939 . S
H357 C373 0.939 . S
H358 C374 0.942 . S
H359 C376 0.940 . S
H360 C377 0.948 . S
H361 C379 0.941 . S
H362 C383 0.936 1_556 S
O363 P352 1.490 . S
H364 C380 0.939 . S
H365 C382 0.940 . S
C366 P352 1.812 . S
C366 C367 1.389 . S
C366 C371 1.393 1_554 S
C367 H353 0.941 . S
C367 C366 1.389 . S
C367 C368 1.397 . S
C368 H354 0.939 . S
C368 C367 1.397 . S
C368 C369 1.378 . S
C369 C368 1.378 . S
C369 C370 1.378 1_554 S
C370 H355 0.940 . S
C370 C369 1.378 1_556 S
C370 C371 1.396 . S
C371 H356 0.939 . S
C371 C366 1.393 1_556 S
C371 C370 1.396 . S
C372 P352 1.803 . S
C372 C373 1.378 . S
C372 C377 1.385 1_554 S
C373 H357 0.939 . S
C373 C372 1.378 . S
C373 C374 1.361 . S
C374 H358 0.942 . S
C374 C373 1.361 . S
C374 C375 1.369 . S
C375 C374 1.369 . S
C375 C376 1.404 1_554 S
C376 H359 0.940 . S
C376 C375 1.404 1_556 S
C376 C377 1.395 . S
C377 H360 0.948 . S
C377 C372 1.385 1_556 S
C377 C376 1.395 . S
C378 P352 1.819 . S
C378 C379 1.391 . S
C378 C383 1.391 . S
C379 H361 0.941 . S
C379 C378 1.391 . S
C379 C380 1.396 . S
C380 H364 0.939 . S
C380 C379 1.396 . S
C380 C381 1.397 . S
C381 C380 1.397 . S
C381 C382 1.385 1_554 S
C382 H365 0.940 . S
C382 C381 1.385 1_556 S
C382 C383 1.388 1_556 S
C383 H362 0.936 1_554 S
C383 C378 1.391 . S
C383 C382 1.388 1_554 S
P384 O395 1.490 . S
P384 C398 1.812 . S
P384 C404 1.803 . S
P384 C410 1.819 . S
H385 C399 0.941 . S
H386 C400 0.939 . S
H387 C402 0.940 . S
H388 C403 0.940 . S
H389 C405 0.939 . S
H390 C406 0.942 . S
H391 C408 0.940 . S
H392 C409 0.939 . S
H393 C411 0.941 . S
H394 C415 0.939 . S
O395 P384 1.490 . S
H396 C412 0.939 . S
H397 C414 0.940 . S
C398 P384 1.812 . S
C398 C399 1.389 . S
C398 C403 1.391 . S
C399 H385 0.941 . S
C399 C398 1.389 . S
C399 C400 1.397 . S
C400 H386 0.939 . S
C400 C399 1.397 . S
C400 C401 1.378 . S
C401 C400 1.378 . S
C401 C402 1.378 . S
C402 H387 0.940 . S
C402 C401 1.378 . S
C402 C403 1.396 . S
C403 H388 0.940 . S
C403 C398 1.391 . S
C403 C402 1.396 . S
C404 P384 1.803 . S
C404 C405 1.378 . S
C404 C409 1.400 . S
C405 H389 0.939 . S
C405 C404 1.378 . S
C405 C406 1.361 . S
C406 H390 0.942 . S
C406 C405 1.361 . S
C406 C407 1.369 . S
C407 C406 1.369 . S
C407 C408 1.404 . S
C408 H391 0.940 . S
C408 C407 1.404 . S
C408 C409 1.389 . S
C409 H392 0.939 . S
C409 C404 1.400 . S
C409 C408 1.389 . S
C410 P384 1.819 . S
C410 C411 1.391 . S
C410 C415 1.391 . S
C411 H393 0.941 . S
C411 C410 1.391 . S
C411 C412 1.396 . S
C412 H396 0.939 . S
C412 C411 1.396 . S
C412 C413 1.397 . S
C413 C412 1.397 . S
C413 C414 1.385 . S
C414 H397 0.940 . S
C414 C413 1.385 . S
C414 C415 1.388 . S
C415 H394 0.939 . S
C415 C410 1.391 . S
C415 C414 1.388 . S
P416 O427 1.490 . S
P416 C430 1.812 . S
P416 C436 1.803 . S
P416 C442 1.819 . S
H417 C431 0.941 . S
H418 C432 0.939 . S
H419 C434 0.940 . S
H420 C435 0.940 . S
H421 C437 0.939 . S
H422 C438 0.942 . S
H423 C440 0.940 . S
H424 C441 0.939 . S
H425 C443 0.941 . S
H426 C447 0.939 . S
O427 P416 1.490 . S
H428 C444 0.939 . S
H429 C446 0.940 . S
C430 P416 1.812 . S
C430 C431 1.389 . S
C430 C435 1.391 . S
C431 H417 0.941 . S
C431 C430 1.389 . S
C431 C432 1.397 . S
C432 H418 0.939 . S
C432 C431 1.397 . S
C432 C433 1.378 . S
C433 C432 1.378 . S
C433 C434 1.378 . S
C434 H419 0.940 . S
C434 C433 1.378 . S
C434 C435 1.396 . S
C435 H420 0.940 . S
C435 C430 1.391 . S
C435 C434 1.396 . S
C436 P416 1.803 . S
C436 C437 1.378 . S
C436 C441 1.400 . S
C437 H421 0.939 . S
C437 C436 1.378 . S
C437 C438 1.361 . S
C438 H422 0.942 . S
C438 C437 1.361 . S
C438 C439 1.369 . S
C439 C438 1.369 . S
C439 C440 1.404 . S
C440 H423 0.940 . S
C440 C439 1.404 . S
C440 C441 1.389 . S
C441 H424 0.939 . S
C441 C436 1.400 . S
C441 C440 1.389 . S
C442 P416 1.819 . S
C442 C443 1.391 . S
C442 C447 1.391 . S
C443 H425 0.941 . S
C443 C442 1.391 . S
C443 C444 1.396 . S
C444 H428 0.939 . S
C444 C443 1.396 . S
C444 C445 1.397 . S
C445 C444 1.397 . S
C445 C446 1.385 . S
C446 H429 0.940 . S
C446 C445 1.385 . S
C446 C447 1.388 . S
C447 H426 0.939 . S
C447 C442 1.391 . S
C447 C446 1.388 . S
P448 O459 1.490 . S
P448 C462 1.812 . S
P448 C468 1.803 . S
P448 C474 1.819 . S
H449 C463 0.941 . S
H450 C464 0.939 . S
H451 C466 0.940 . S
H452 C467 0.940 . S
H453 C469 0.939 . S
H454 C470 0.942 . S
H455 C472 0.940 . S
H456 C473 0.939 . S
H457 C475 0.941 . S
H458 C479 0.939 . S
O459 P448 1.490 . S
H460 C476 0.939 . S
H461 C478 0.940 . S
C462 P448 1.812 . S
C462 C463 1.389 . S
C462 C467 1.391 . S
C463 H449 0.941 . S
C463 C462 1.389 . S
C463 C464 1.397 . S
C464 H450 0.939 . S
C464 C463 1.397 . S
C464 C465 1.378 . S
C465 C464 1.378 . S
C465 C466 1.378 . S
C466 H451 0.940 . S
C466 C465 1.378 . S
C466 C467 1.396 . S
C467 H452 0.940 . S
C467 C462 1.391 . S
C467 C466 1.396 . S
C468 P448 1.803 . S
C468 C469 1.378 . S
C468 C473 1.400 . S
C469 H453 0.939 . S
C469 C468 1.378 . S
C469 C470 1.361 . S
C470 H454 0.942 . S
C470 C469 1.361 . S
C470 C471 1.369 . S
C471 C470 1.369 . S
C471 C472 1.404 . S
C472 H455 0.940 . S
C472 C471 1.404 . S
C472 C473 1.389 . S
C473 H456 0.939 . S
C473 C468 1.400 . S
C473 C472 1.389 . S
C474 P448 1.819 . S
C474 C475 1.391 . S
C474 C479 1.391 . S
C475 H457 0.941 . S
C475 C474 1.391 . S
C475 C476 1.396 . S
C476 H460 0.939 . S
C476 C475 1.396 . S
C476 C477 1.397 . S
C477 C476 1.397 . S
C477 C478 1.385 . S
C478 H461 0.940 . S
C478 C477 1.385 . S
C478 C479 1.388 . S
C479 H458 0.939 . S
C479 C474 1.391 . S
C479 C478 1.388 . S
P480 O491 1.490 . S
P480 C494 1.812 . S
P480 C500 1.803 . S
P480 C506 1.819 . S
H481 C495 0.941 . S
H482 C496 0.939 . S
H483 C498 0.940 . S
H484 C499 0.940 . S
H485 C501 0.939 . S
H486 C502 0.942 . S
H487 C504 0.940 . S
H488 C505 0.939 . S
H489 C507 0.941 . S
H490 C511 0.939 . S
O491 P480 1.490 . S
H492 C508 0.939 . S
H493 C510 0.940 . S
C494 P480 1.812 . S
C494 C495 1.389 . S
C494 C499 1.391 . S
C495 H481 0.941 . S
C495 C494 1.389 . S
C495 C496 1.397 . S
C496 H482 0.939 . S
C496 C495 1.397 . S
C496 C497 1.378 . S
C497 C496 1.378 . S
C497 C498 1.378 . S
C498 H483 0.940 . S
C498 C497 1.378 . S
C498 C499 1.396 . S
C499 H484 0.940 . S
C499 C494 1.391 . S
C499 C498 1.396 . S
C500 P480 1.803 . S
C500 C501 1.378 . S
C500 C505 1.400 . S
C501 H485 0.939 . S
C501 C500 1.378 . S
C501 C502 1.361 . S
C502 H486 0.942 . S
C502 C501 1.361 . S
C502 C503 1.369 . S
C503 C502 1.369 . S
C503 C504 1.404 . S
C504 H487 0.940 . S
C504 C503 1.404 . S
C504 C505 1.389 . S
C505 H488 0.939 . S
C505 C500 1.400 . S
C505 C504 1.389 . S
C506 P480 1.819 . S
C506 C507 1.391 . S
C506 C511 1.391 . S
C507 H489 0.941 . S
C507 C506 1.391 . S
C507 C508 1.396 . S
C508 H492 0.939 . S
C508 C507 1.396 . S
C508 C509 1.397 . S
C509 C508 1.397 . S
C509 C510 1.385 . S
C510 H493 0.940 . S
C510 C509 1.385 . S
C510 C511 1.388 . S
C511 H490 0.939 . S
C511 C506 1.391 . S
C511 C510 1.388 . S
P512 O523 1.490 . S
P512 C526 1.812 . S
P512 C532 1.803 . S
P512 C538 1.819 . S
H513 C527 0.941 . S
H514 C528 0.939 . S
H515 C530 0.940 . S
H516 C531 0.940 . S
H517 C533 0.939 . S
H518 C534 0.942 . S
H519 C536 0.940 . S
H520 C537 0.939 . S
H521 C539 0.941 . S
H522 C543 0.939 . S
O523 P512 1.490 . S
H524 C540 0.939 . S
H525 C542 0.940 . S
C526 P512 1.812 . S
C526 C527 1.389 . S
C526 C531 1.391 . S
C527 H513 0.941 . S
C527 C526 1.389 . S
C527 C528 1.397 . S
C528 H514 0.939 . S
C528 C527 1.397 . S
C528 C529 1.378 . S
C529 C528 1.378 . S
C529 C530 1.378 . S
C530 H515 0.940 . S
C530 C529 1.378 . S
C530 C531 1.396 . S
C531 H516 0.940 . S
C531 C526 1.391 . S
C531 C530 1.396 . S
C532 P512 1.803 . S
C532 C533 1.378 . S
C532 C537 1.400 . S
C533 H517 0.939 . S
C533 C532 1.378 . S
C533 C534 1.361 . S
C534 H518 0.942 . S
C534 C533 1.361 . S
C534 C535 1.369 . S
C535 C534 1.369 . S
C535 C536 1.404 . S
C536 H519 0.940 . S
C536 C535 1.404 . S
C536 C537 1.389 . S
C537 H520 0.939 . S
C537 C532 1.400 . S
C537 C536 1.389 . S
C538 P512 1.819 . S
C538 C539 1.391 . S
C538 C543 1.391 . S
C539 H521 0.941 . S
C539 C538 1.391 . S
C539 C540 1.396 . S
C540 H524 0.939 . S
C540 C539 1.396 . S
C540 C541 1.397 . S
C541 C540 1.397 . S
C541 C542 1.385 . S
C542 H525 0.940 . S
C542 C541 1.385 . S
C542 C543 1.388 . S
C543 H522 0.939 . S
C543 C538 1.391 . S
C543 C542 1.388 . S
P544 O555 1.490 . S
P544 C558 1.812 . S
P544 C564 1.803 . S
P544 C570 1.819 . S
H545 C559 0.941 . S
H546 C560 0.939 . S
H547 C562 0.940 . S
H548 C563 0.940 . S
H549 C565 0.939 . S
H550 C566 0.942 . S
H551 C568 0.940 . S
H552 C569 0.939 . S
H553 C571 0.941 . S
H554 C575 0.939 . S
O555 P544 1.490 . S
H556 C572 0.939 . S
H557 C574 0.940 . S
C558 P544 1.812 . S
C558 C559 1.389 . S
C558 C563 1.391 . S
C559 H545 0.941 . S
C559 C558 1.389 . S
C559 C560 1.397 . S
C560 H546 0.939 . S
C560 C559 1.397 . S
C560 C561 1.378 . S
C561 C560 1.378 . S
C561 C562 1.378 . S
C562 H547 0.940 . S
C562 C561 1.378 . S
C562 C563 1.396 . S
C563 H548 0.940 . S
C563 C558 1.391 . S
C563 C562 1.396 . S
C564 P544 1.803 . S
C564 C565 1.378 . S
C564 C569 1.400 . S
C565 H549 0.939 . S
C565 C564 1.378 . S
C565 C566 1.361 . S
C566 H550 0.942 . S
C566 C565 1.361 . S
C566 C567 1.369 . S
C567 C566 1.369 . S
C567 C568 1.404 . S
C568 H551 0.940 . S
C568 C567 1.404 . S
C568 C569 1.389 . S
C569 H552 0.939 . S
C569 C564 1.400 . S
C569 C568 1.389 . S
C570 P544 1.819 . S
C570 C571 1.391 . S
C570 C575 1.391 . S
C571 H553 0.941 . S
C571 C570 1.391 . S
C571 C572 1.396 . S
C572 H556 0.939 . S
C572 C571 1.396 . S
C572 C573 1.397 . S
C573 C572 1.397 . S
C573 C574 1.385 . S
C574 H557 0.940 . S
C574 C573 1.385 . S
C574 C575 1.388 . S
C575 H554 0.939 . S
C575 C570 1.391 . S
C575 C574 1.388 . S
P576 O587 1.490 . S
P576 C590 1.812 . S
P576 C596 1.803 . S
P576 C602 1.819 . S
H577 C591 0.941 . S
H578 C592 0.939 . S
H579 C594 0.940 . S
H580 C595 0.940 . S
H581 C597 0.939 . S
H582 C598 0.942 . S
H583 C600 0.940 . S
H584 C601 0.939 . S
H585 C603 0.941 . S
H586 C607 0.939 . S
O587 P576 1.490 . S
H588 C604 0.939 . S
H589 C606 0.940 . S
C590 P576 1.812 . S
C590 C591 1.389 . S
C590 C595 1.391 . S
C591 H577 0.941 . S
C591 C590 1.389 . S
C591 C592 1.397 . S
C592 H578 0.939 . S
C592 C591 1.397 . S
C592 C593 1.378 . S
C593 C592 1.378 . S
C593 C594 1.378 . S
C594 H579 0.940 . S
C594 C593 1.378 . S
C594 C595 1.396 . S
C595 H580 0.940 . S
C595 C590 1.391 . S
C595 C594 1.396 . S
C596 P576 1.803 . S
C596 C597 1.378 . S
C596 C601 1.400 . S
C597 H581 0.939 . S
C597 C596 1.378 . S
C597 C598 1.361 . S
C598 H582 0.942 . S
C598 C597 1.361 . S
C598 C599 1.369 . S
C599 C598 1.369 . S
C599 C600 1.404 . S
C600 H583 0.940 . S
C600 C599 1.404 . S
C600 C601 1.389 . S
C601 H584 0.939 . S
C601 C596 1.400 . S
C601 C600 1.389 . S
C602 P576 1.819 . S
C602 C603 1.391 . S
C602 C607 1.391 . S
C603 H585 0.941 . S
C603 C602 1.391 . S
C603 C604 1.396 . S
C604 H588 0.939 . S
C604 C603 1.396 . S
C604 C605 1.397 . S
C605 C604 1.397 . S
C605 C606 1.385 . S
C606 H589 0.940 . S
C606 C605 1.385 . S
C606 C607 1.388 . S
C607 H586 0.939 . S
C607 C602 1.391 . S
C607 C606 1.388 . S
P608 O619 1.490 . S
P608 C622 1.812 . S
P608 C628 1.803 . S
P608 C634 1.819 . S
H609 C623 0.941 . S
H610 C624 0.939 . S
H611 C626 0.940 . S
H612 C627 0.940 . S
H613 C629 0.939 . S
H614 C630 0.942 . S
H615 C632 0.940 . S
H616 C633 0.939 . S
H617 C635 0.941 . S
H618 C639 0.939 . S
O619 P608 1.490 . S
H620 C636 0.939 . S
H621 C638 0.940 . S
C622 P608 1.812 . S
C622 C623 1.389 . S
C622 C627 1.391 . S
C623 H609 0.941 . S
C623 C622 1.389 . S
C623 C624 1.397 . S
C624 H610 0.939 . S
C624 C623 1.397 . S
C624 C625 1.378 . S
C625 C624 1.378 . S
C625 C626 1.378 . S
C626 H611 0.940 . S
C626 C625 1.378 . S
C626 C627 1.396 . S
C627 H612 0.940 . S
C627 C622 1.391 . S
C627 C626 1.396 . S
C628 P608 1.803 . S
C628 C629 1.378 . S
C628 C633 1.400 . S
C629 H613 0.939 . S
C629 C628 1.378 . S
C629 C630 1.361 . S
C630 H614 0.942 . S
C630 C629 1.361 . S
C630 C631 1.369 . S
C631 C630 1.369 . S
C631 C632 1.404 . S
C632 H615 0.940 . S
C632 C631 1.404 . S
C632 C633 1.389 . S
C633 H616 0.939 . S
C633 C628 1.400 . S
C633 C632 1.389 . S
C634 P608 1.819 . S
C634 C635 1.391 . S
C634 C639 1.391 . S
C635 H617 0.941 . S
C635 C634 1.391 . S
C635 C636 1.396 . S
C636 H620 0.939 . S
C636 C635 1.396 . S
C636 C637 1.397 . S
C637 C636 1.397 . S
C637 C638 1.385 . S
C638 H621 0.940 . S
C638 C637 1.385 . S
C638 C639 1.388 . S
C639 H618 0.939 . S
C639 C634 1.391 . S
C639 C638 1.388 . S
P640 O651 1.490 . S
P640 C654 1.812 . S
P640 C660 1.803 . S
P640 C666 1.819 . S
H641 C655 0.941 . S
H642 C656 0.939 . S
H643 C658 0.940 . S
H644 C659 0.940 . S
H645 C661 0.939 . S
H646 C662 0.942 . S
H647 C664 0.940 . S
H648 C665 0.939 . S
H649 C667 0.941 . S
H650 C671 0.939 . S
O651 P640 1.490 . S
H652 C668 0.939 . S
H653 C670 0.940 . S
C654 P640 1.812 . S
C654 C655 1.389 . S
C654 C659 1.391 . S
C655 H641 0.941 . S
C655 C654 1.389 . S
C655 C656 1.397 . S
C656 H642 0.939 . S
C656 C655 1.397 . S
C656 C657 1.378 . S
C657 C656 1.378 . S
C657 C658 1.378 . S
C658 H643 0.940 . S
C658 C657 1.378 . S
C658 C659 1.396 . S
C659 H644 0.940 . S
C659 C654 1.391 . S
C659 C658 1.396 . S
C660 P640 1.803 . S
C660 C661 1.378 . S
C660 C665 1.400 . S
C661 H645 0.939 . S
C661 C660 1.378 . S
C661 C662 1.361 . S
C662 H646 0.942 . S
C662 C661 1.361 . S
C662 C663 1.369 . S
C663 C662 1.369 . S
C663 C664 1.404 . S
C664 H647 0.940 . S
C664 C663 1.404 . S
C664 C665 1.389 . S
C665 H648 0.939 . S
C665 C660 1.400 . S
C665 C664 1.389 . S
C666 P640 1.819 . S
C666 C667 1.391 . S
C666 C671 1.391 . S
C667 H649 0.941 . S
C667 C666 1.391 . S
C667 C668 1.396 . S
C668 H652 0.939 . S
C668 C667 1.396 . S
C668 C669 1.397 . S
C669 C668 1.397 . S
C669 C670 1.385 . S
C670 H653 0.940 . S
C670 C669 1.385 . S
C670 C671 1.388 . S
C671 H650 0.939 . S
C671 C666 1.391 . S
C671 C670 1.388 . S
P672 O683 1.490 . S
P672 C686 1.812 . S
P672 C692 1.803 . S
P672 C698 1.819 . S
H673 C687 0.941 . S
H674 C688 0.939 . S
H675 C690 0.940 . S
H676 C691 0.940 . S
H677 C693 0.939 . S
H678 C694 0.942 . S
H679 C696 0.940 . S
H680 C697 0.939 . S
H681 C699 0.941 . S
H682 C703 0.939 . S
O683 P672 1.490 . S
H684 C700 0.939 . S
H685 C702 0.940 . S
C686 P672 1.812 . S
C686 C687 1.389 . S
C686 C691 1.391 . S
C687 H673 0.941 . S
C687 C686 1.389 . S
C687 C688 1.397 . S
C688 H674 0.939 . S
C688 C687 1.397 . S
C688 C689 1.378 . S
C689 C688 1.378 . S
C689 C690 1.378 . S
C690 H675 0.940 . S
C690 C689 1.378 . S
C690 C691 1.396 . S
C691 H676 0.940 . S
C691 C686 1.391 . S
C691 C690 1.396 . S
C692 P672 1.803 . S
C692 C693 1.378 . S
C692 C697 1.400 . S
C693 H677 0.939 . S
C693 C692 1.378 . S
C693 C694 1.361 . S
C694 H678 0.942 . S
C694 C693 1.361 . S
C694 C695 1.369 . S
C695 C694 1.369 . S
C695 C696 1.404 . S
C696 H679 0.940 . S
C696 C695 1.404 . S
C696 C697 1.389 . S
C697 H680 0.939 . S
C697 C692 1.400 . S
C697 C696 1.389 . S
C698 P672 1.819 . S
C698 C699 1.391 . S
C698 C703 1.391 . S
C699 H681 0.941 . S
C699 C698 1.391 . S
C699 C700 1.396 . S
C700 H684 0.939 . S
C700 C699 1.396 . S
C700 C701 1.397 . S
C701 C700 1.397 . S
C701 C702 1.385 . S
C702 H685 0.940 . S
C702 C701 1.385 . S
C702 C703 1.388 . S
C703 H682 0.939 . S
C703 C698 1.391 . S
C703 C702 1.388 . S
P704 O715 1.490 . S
P704 C718 1.812 . S
P704 C724 1.803 . S
P704 C730 1.819 . S
H705 C719 0.941 . S
H706 C720 0.939 . S
H707 C722 0.940 . S
H708 C723 0.940 . S
H709 C725 0.939 . S
H710 C726 0.942 . S
H711 C728 0.940 . S
H712 C729 0.939 . S
H713 C731 0.941 . S
H714 C735 0.939 . S
O715 P704 1.490 . S
H716 C732 0.939 . S
H717 C734 0.940 . S
C718 P704 1.812 . S
C718 C719 1.389 . S
C718 C723 1.391 . S
C719 H705 0.941 . S
C719 C718 1.389 . S
C719 C720 1.397 . S
C720 H706 0.939 . S
C720 C719 1.397 . S
C720 C721 1.378 . S
C721 C720 1.378 . S
C721 C722 1.378 . S
C722 H707 0.940 . S
C722 C721 1.378 . S
C722 C723 1.396 . S
C723 H708 0.940 . S
C723 C718 1.391 . S
C723 C722 1.396 . S
C724 P704 1.803 . S
C724 C725 1.378 . S
C724 C729 1.400 . S
C725 H709 0.939 . S
C725 C724 1.378 . S
C725 C726 1.361 . S
C726 H710 0.942 . S
C726 C725 1.361 . S
C726 C727 1.369 . S
C727 C726 1.369 . S
C727 C728 1.404 . S
C728 H711 0.940 . S
C728 C727 1.404 . S
C728 C729 1.389 . S
C729 H712 0.939 . S
C729 C724 1.400 . S
C729 C728 1.389 . S
C730 P704 1.819 . S
C730 C731 1.391 . S
C730 C735 1.391 . S
C731 H713 0.941 . S
C731 C730 1.391 . S
C731 C732 1.396 . S
C732 H716 0.939 . S
C732 C731 1.396 . S
C732 C733 1.397 . S
C733 C732 1.397 . S
C733 C734 1.385 . S
C734 H717 0.940 . S
C734 C733 1.385 . S
C734 C735 1.388 . S
C735 H714 0.939 . S
C735 C730 1.391 . S
C735 C734 1.388 . S
P736 O747 1.490 . S
P736 C750 1.812 . S
P736 C756 1.803 . S
P736 C762 1.819 . S
H737 C751 0.941 . S
H738 C752 0.939 . S
H739 C754 0.940 . S
H740 C755 0.940 . S
H741 C757 0.939 . S
H742 C758 0.942 . S
H743 C760 0.940 . S
H744 C761 0.939 . S
H745 C763 0.941 . S
H746 C767 0.939 . S
O747 P736 1.490 . S
H748 C764 0.939 . S
H749 C766 0.940 . S
C750 P736 1.812 . S
C750 C751 1.389 . S
C750 C755 1.391 . S
C751 H737 0.941 . S
C751 C750 1.389 . S
C751 C752 1.397 . S
C752 H738 0.939 . S
C752 C751 1.397 . S
C752 C753 1.378 . S
C753 C752 1.378 . S
C753 C754 1.378 . S
C754 H739 0.940 . S
C754 C753 1.378 . S
C754 C755 1.396 . S
C755 H740 0.940 . S
C755 C750 1.391 . S
C755 C754 1.396 . S
C756 P736 1.803 . S
C756 C757 1.378 . S
C756 C761 1.400 . S
C757 H741 0.939 . S
C757 C756 1.378 . S
C757 C758 1.361 . S
C758 H742 0.942 . S
C758 C757 1.361 . S
C758 C759 1.369 . S
C759 C758 1.369 . S
C759 C760 1.404 . S
C760 H743 0.940 . S
C760 C759 1.404 . S
C760 C761 1.389 . S
C761 H744 0.939 . S
C761 C756 1.400 . S
C761 C760 1.389 . S
C762 P736 1.819 . S
C762 C763 1.391 . S
C762 C767 1.391 . S
C763 H745 0.941 . S
C763 C762 1.391 . S
C763 C764 1.396 . S
C764 H748 0.939 . S
C764 C763 1.396 . S
C764 C765 1.397 . S
C765 C764 1.397 . S
C765 C766 1.385 . S
C766 H749 0.940 . S
C766 C765 1.385 . S
C766 C767 1.388 . S
C767 H746 0.939 . S
C767 C762 1.391 . S
C767 C766 1.388 . S
C768 O794 1.283 . S
C768 O812 1.283 . S
C769 O795 1.283 . S
C769 O810 1.283 . S
C770 O796 1.283 . S
C770 O813 1.283 . S
C771 O797 1.283 . S
C771 O811 1.283 . S
C772 O798 1.283 . S
C772 O807 1.283 . S
C773 O799 1.283 . S
C773 O809 1.283 . S
C774 O800 1.283 . S
C774 O806 1.283 . S
C775 O801 1.283 . S
C775 O808 1.283 . S
C776 O802 1.283 . S
C776 O817 1.283 . S
C777 O803 1.283 . S
C777 O815 1.283 . S
C778 O804 1.283 . S
C778 O816 1.283 . S
C779 O805 1.283 . S
C779 O814 1.283 . S
Eu780 O781 2.370 1_455 S
Eu780 O782 2.370 . S
Eu780 O785 2.370 1_455 S
Eu780 O786 2.370 . S
Eu780 O794 2.363 . S
Eu780 O795 2.363 . S
Eu780 O808 2.363 . S
Eu780 O809 2.363 1_455 S
O781 Eu780 2.370 1_655 S
O781 Eu783 2.350 1_565 S
O781 Eu788 2.349 1_665 S
O782 Eu780 2.370 . S
O782 Eu784 2.348 1_565 S
O782 Eu787 2.349 1_565 S
Eu783 O781 2.350 1_545 S
Eu783 O785 2.350 1_545 S
Eu783 O789 2.391 . S
Eu783 O790 2.391 . S
Eu783 O798 2.398 . S
Eu783 O799 2.328 1_545 S
Eu783 O814 2.363 . S
Eu783 O815 2.363 . S
Eu784 O782 2.348 1_545 S
Eu784 O786 2.348 1_545 S
Eu784 O791 2.392 . S
Eu784 O792 2.392 . S
Eu784 O800 2.400 . S
Eu784 O801 2.326 1_545 S
Eu784 O816 2.363 . S
Eu784 O817 2.363 . S
O785 Eu780 2.370 1_655 S
O785 Eu783 2.350 1_565 S
O785 Eu787 2.349 1_665 S
O786 Eu780 2.370 . S
O786 Eu784 2.348 1_565 S
O786 Eu788 2.349 1_565 S
Eu787 O782 2.349 1_545 S
Eu787 O785 2.349 1_445 S
Eu787 O789 2.392 1_455 S
Eu787 O792 2.392 . S
Eu787 O804 2.363 . S
Eu787 O805 2.363 1_455 S
Eu787 O812 2.327 1_545 S
Eu787 O813 2.399 . S
Eu788 O781 2.349 1_445 S
Eu788 O786 2.349 1_545 S
Eu788 O790 2.392 1_455 S
Eu788 O791 2.392 . S
Eu788 O802 2.363 . S
Eu788 O803 2.363 1_455 S
Eu788 O810 2.327 1_545 S
Eu788 O811 2.399 . S
O789 Eu783 2.391 . S
O789 Eu787 2.392 1_655 S
O789 Eu793 2.370 1_655 S
O790 Eu783 2.391 . S
O790 Eu788 2.392 1_655 S
O790 Eu793 2.370 1_655 S
O791 Eu784 2.392 . S
O791 Eu788 2.392 . S
O791 Eu793 2.370 . S
O792 Eu784 2.392 . S
O792 Eu787 2.392 . S
O792 Eu793 2.370 . S
Eu793 O789 2.370 1_455 S
Eu793 O790 2.370 1_455 S
Eu793 O791 2.370 . S
Eu793 O792 2.370 . S
Eu793 O796 2.363 . S
Eu793 O797 2.363 . S
Eu793 O806 2.363 . S
Eu793 O807 2.363 1_455 S
O794 C768 1.283 . S
O794 Eu780 2.363 . S
O795 C769 1.283 . S
O795 Eu780 2.363 . S
O796 C770 1.283 . S
O796 Eu793 2.363 . S
O797 C771 1.283 . S
O797 Eu793 2.363 . S
O798 C772 1.283 . S
O798 Eu783 2.398 . S
O799 C773 1.283 . S
O799 Eu783 2.328 1_565 S
O800 C774 1.283 . S
O800 Eu784 2.400 . S
O801 C775 1.283 . S
O801 Eu784 2.326 1_565 S
O802 C776 1.283 . S
O802 Eu788 2.363 . S
O803 C777 1.283 . S
O803 Eu788 2.363 1_655 S
O804 C778 1.283 . S
O804 Eu787 2.363 . S
O805 C779 1.283 . S
O805 Eu787 2.363 1_655 S
O806 C774 1.283 . S
O806 Eu793 2.363 . S
O807 C772 1.283 . S
O807 Eu793 2.363 1_655 S
O808 C775 1.283 . S
O808 Eu780 2.363 . S
O809 C773 1.283 . S
O809 Eu780 2.363 1_655 S
O810 C769 1.283 . S
O810 Eu788 2.327 1_565 S
O811 C771 1.283 . S
O811 Eu788 2.399 . S
O812 C768 1.283 . S
O812 Eu787 2.327 1_565 S
O813 C770 1.283 . S
O813 Eu787 2.399 . S
O814 C779 1.283 . S
O814 Eu783 2.363 . S
O815 C777 1.283 . S
O815 Eu783 2.363 . S
O816 C778 1.283 . S
O816 Eu784 2.363 . S
O817 C776 1.283 . S
O817 Eu784 2.363 . S
C818 O844 1.283 . S
C818 O862 1.283 . S
C819 O845 1.283 . S
C819 O860 1.283 . S
C820 O846 1.283 . S
C820 O863 1.283 . S
C821 O847 1.283 . S
C821 O861 1.283 . S
C822 O848 1.283 . S
C822 O857 1.283 . S
C823 O849 1.283 . S
C823 O859 1.283 . S
C824 O850 1.283 . S
C824 O856 1.283 . S
C825 O851 1.283 . S
C825 O858 1.283 . S
C826 O852 1.283 . S
C826 O867 1.283 . S
C827 O853 1.283 . S
C827 O865 1.283 . S
C828 O854 1.283 . S
C828 O866 1.283 . S
C829 O855 1.283 . S
C829 O864 1.283 . S
Eu830 O831 2.370 . S
Eu830 O832 2.370 1_545 S
Eu830 O835 2.370 1_545 S
Eu830 O836 2.370 . S
Eu830 O844 2.363 1_545 S
Eu830 O845 2.363 . S
Eu830 O858 2.363 . S
Eu830 O859 2.363 . S
O831 Eu830 2.370 . S
O831 Eu833 2.370 . S
O831 Eu838 2.370 . S
O832 Eu830 2.370 1_565 S
O832 Eu834 2.370 1_565 S
O832 Eu837 2.370 . S
Eu833 O831 2.370 . S
Eu833 O835 2.370 1_545 S
Eu833 O839 2.370 1_544 S
Eu833 O840 2.370 1_554 S
Eu833 O848 2.363 1_554 S
Eu833 O849 2.363 . S
Eu833 O864 2.363 1_545 S
Eu833 O865 2.363 . S
Eu834 O832 2.370 1_545 S
Eu834 O836 2.370 . S
Eu834 O841 2.370 1_554 S
Eu834 O842 2.370 1_544 S
Eu834 O850 2.363 1_554 S
Eu834 O851 2.363 . S
Eu834 O866 2.363 1_545 S
Eu834 O867 2.363 . S
O835 Eu830 2.370 1_565 S
O835 Eu833 2.370 1_565 S
O835 Eu837 2.370 . S
O836 Eu830 2.370 . S
O836 Eu834 2.370 . S
O836 Eu838 2.370 . S
Eu837 O832 2.370 . S
Eu837 O835 2.370 . S
Eu837 O839 2.370 1_554 S
Eu837 O842 2.370 1_554 S
Eu837 O854 2.363 . S
Eu837 O855 2.363 . S
Eu837 O862 2.363 . S
Eu837 O863 2.363 1_554 S
Eu838 O831 2.370 . S
Eu838 O836 2.370 . S
Eu838 O840 2.370 1_554 S
Eu838 O841 2.370 1_554 S
Eu838 O852 2.363 . S
Eu838 O853 2.363 . S
Eu838 O860 2.363 . S
Eu838 O861 2.363 1_554 S
O839 Eu833 2.370 1_566 S
O839 Eu837 2.370 1_556 S
O839 Eu843 2.370 1_565 S
O840 Eu833 2.370 1_556 S
O840 Eu838 2.370 1_556 S
O840 Eu843 2.370 . S
O841 Eu834 2.370 1_556 S
O841 Eu838 2.370 1_556 S
O841 Eu843 2.370 . S
O842 Eu834 2.370 1_566 S
O842 Eu837 2.370 1_556 S
O842 Eu843 2.370 1_565 S
Eu843 O839 2.370 1_545 S
Eu843 O840 2.370 . S
Eu843 O841 2.370 . S
Eu843 O842 2.370 1_545 S
Eu843 O846 2.363 1_545 S
Eu843 O847 2.363 . S
Eu843 O856 2.363 . S
Eu843 O857 2.363 . S
O844 C818 1.283 . S
O844 Eu830 2.363 1_565 S
O845 C819 1.283 . S
O845 Eu830 2.363 . S
O846 C820 1.283 . S
O846 Eu843 2.363 1_565 S
O847 C821 1.283 . S
O847 Eu843 2.363 . S
O848 C822 1.283 . S
O848 Eu833 2.363 1_556 S
O849 C823 1.283 . S
O849 Eu833 2.363 . S
O850 C824 1.283 . S
O850 Eu834 2.363 1_556 S
O851 C825 1.283 . S
O851 Eu834 2.363 . S
O852 C826 1.283 . S
O852 Eu838 2.363 . S
O853 C827 1.283 . S
O853 Eu838 2.363 . S
O854 C828 1.283 . S
O854 Eu837 2.363 . S
O855 C829 1.283 . S
O855 Eu837 2.363 . S
O856 C824 1.283 . S
O856 Eu843 2.363 . S
O857 C822 1.283 . S
O857 Eu843 2.363 . S
O858 C825 1.283 . S
O858 Eu830 2.363 . S
O859 C823 1.283 . S
O859 Eu830 2.363 . S
O860 C819 1.283 . S
O860 Eu838 2.363 . S
O861 C821 1.283 . S
O861 Eu838 2.363 1_556 S
O862 C818 1.283 . S
O862 Eu837 2.363 . S
O863 C820 1.283 . S
O863 Eu837 2.363 1_556 S
O864 C829 1.283 . S
O864 Eu833 2.363 1_565 S
O865 C827 1.283 . S
O865 Eu833 2.363 . S
O866 C828 1.283 . S
O866 Eu834 2.363 1_565 S
O867 C826 1.283 . S
O867 Eu834 2.363 . S
C868 O894 1.283 . S
C868 O912 1.283 . S
C869 O895 1.283 . S
C869 O910 1.283 . S
C870 O896 1.283 . S
C870 O913 1.283 . S
C871 O897 1.283 . S
C871 O911 1.283 . S
C872 O898 1.283 . S
C872 O907 1.283 . S
C873 O899 1.283 . S
C873 O909 1.283 . S
C874 O900 1.283 . S
C874 O906 1.283 . S
C875 O901 1.283 . S
C875 O908 1.283 . S
C876 O902 1.283 . S
C876 O917 1.283 . S
C877 O903 1.283 . S
C877 O915 1.283 . S
C878 O904 1.283 . S
C878 O916 1.283 . S
C879 O905 1.283 . S
C879 O914 1.283 . S
Eu880 O881 2.362 1_454 S
Eu880 O882 2.379 . S
Eu880 O885 2.379 1_455 S
Eu880 O886 2.362 1_554 S
Eu880 O894 2.377 . S
Eu880 O895 2.349 1_554 S
Eu880 O908 2.363 . S
Eu880 O909 2.363 1_455 S
O881 Eu880 2.362 1_656 S
O881 Eu883 2.362 1_556 S
O881 Eu888 2.370 1_655 S
O882 Eu880 2.379 . S
O882 Eu884 2.379 . S
O882 Eu887 2.370 . S
Eu883 O881 2.362 1_554 S
Eu883 O885 2.378 . S
Eu883 O889 2.378 . S
Eu883 O890 2.362 1_554 S
Eu883 O898 2.363 . S
Eu883 O899 2.363 . S
Eu883 O914 2.377 . S
Eu883 O915 2.349 1_554 S
Eu884 O882 2.379 . S
Eu884 O886 2.362 1_554 S
Eu884 O891 2.362 1_554 S
Eu884 O892 2.379 . S
Eu884 O900 2.363 . S
Eu884 O901 2.363 . S
Eu884 O916 2.377 . S
Eu884 O917 2.349 1_554 S
O885 Eu880 2.379 1_655 S
O885 Eu883 2.378 . S
O885 Eu887 2.370 1_655 S
O886 Eu880 2.362 1_556 S
O886 Eu884 2.362 1_556 S
O886 Eu888 2.370 . S
Eu887 O882 2.370 . S
Eu887 O885 2.370 1_455 S
Eu887 O889 2.370 1_455 S
Eu887 O892 2.370 . S
Eu887 O904 2.363 . S
Eu887 O905 2.363 1_455 S
Eu887 O912 2.363 . S
Eu887 O913 2.363 . S
Eu888 O881 2.370 1_455 S
Eu888 O886 2.370 . S
Eu888 O890 2.370 1_455 S
Eu888 O891 2.370 . S
Eu888 O902 2.363 . S
Eu888 O903 2.363 1_455 S
Eu888 O910 2.363 . S
Eu888 O911 2.363 . S
O889 Eu883 2.378 . S
O889 Eu887 2.370 1_655 S
O889 Eu893 2.379 1_655 S
O890 Eu883 2.362 1_556 S
O890 Eu888 2.370 1_655 S
O890 Eu893 2.362 1_656 S
O891 Eu884 2.362 1_556 S
O891 Eu888 2.370 . S
O891 Eu893 2.362 1_556 S
O892 Eu884 2.379 . S
O892 Eu887 2.370 . S
O892 Eu893 2.379 . S
Eu893 O889 2.379 1_455 S
Eu893 O890 2.362 1_454 S
Eu893 O891 2.362 1_554 S
Eu893 O892 2.379 . S
Eu893 O896 2.377 . S
Eu893 O897 2.349 1_554 S
Eu893 O906 2.363 . S
Eu893 O907 2.363 1_455 S
O894 C868 1.283 . S
O894 Eu880 2.377 . S
O895 C869 1.283 . S
O895 Eu880 2.349 1_556 S
O896 C870 1.283 . S
O896 Eu893 2.377 . S
O897 C871 1.283 . S
O897 Eu893 2.349 1_556 S
O898 C872 1.283 . S
O898 Eu883 2.363 . S
O899 C873 1.283 . S
O899 Eu883 2.363 . S
O900 C874 1.283 . S
O900 Eu884 2.363 . S
O901 C875 1.283 . S
O901 Eu884 2.363 . S
O902 C876 1.283 . S
O902 Eu888 2.363 . S
O903 C877 1.283 . S
O903 Eu888 2.363 1_655 S
O904 C878 1.283 . S
O904 Eu887 2.363 . S
O905 C879 1.283 . S
O905 Eu887 2.363 1_655 S
O906 C874 1.283 . S
O906 Eu893 2.363 . S
O907 C872 1.283 . S
O907 Eu893 2.363 1_655 S
O908 C875 1.283 . S
O908 Eu880 2.363 . S
O909 C873 1.283 . S
O909 Eu880 2.363 1_655 S
O910 C869 1.283 . S
O910 Eu888 2.363 . S
O911 C871 1.283 . S
O911 Eu888 2.363 . S
O912 C868 1.283 . S
O912 Eu887 2.363 . S
O913 C870 1.283 . S
O913 Eu887 2.363 . S
O914 C879 1.283 . S
O914 Eu883 2.377 . S
O915 C877 1.283 . S
O915 Eu883 2.349 1_556 S
O916 C878 1.283 . S
O916 Eu884 2.377 . S
O917 C876 1.283 . S
O917 Eu884 2.349 1_556 S
C918 O944 1.283 . S
C918 O962 1.283 . S
C919 O945 1.283 . S
C919 O960 1.283 . S
C920 O946 1.283 . S
C920 O963 1.283 . S
C921 O947 1.283 . S
C921 O961 1.283 . S
C922 O948 1.283 . S
C922 O957 1.283 . S
C923 O949 1.283 . S
C923 O959 1.283 . S
C924 O950 1.283 . S
C924 O956 1.283 . S
C925 O951 1.283 . S
C925 O958 1.283 . S
C926 O952 1.283 . S
C926 O967 1.283 . S
C927 O953 1.283 . S
C927 O965 1.283 . S
C928 O954 1.283 . S
C928 O966 1.283 . S
C929 O955 1.283 . S
C929 O964 1.283 . S
Eu930 O931 2.370 . S
Eu930 O932 2.370 . S
Eu930 O935 2.370 . S
Eu930 O936 2.370 . S
Eu930 O944 2.363 . S
Eu930 O945 2.363 . S
Eu930 O958 2.363 . S
Eu930 O959 2.363 . S
O931 Eu930 2.370 . S
O931 Eu933 2.381 . S
O931 Eu938 2.381 . S
O932 Eu930 2.370 . S
O932 Eu934 2.381 . S
O932 Eu937 2.381 . S
Eu933 O931 2.381 . S
Eu933 O935 2.381 . S
Eu933 O939 2.360 1_554 S
Eu933 O940 2.360 1_554 S
Eu933 O948 2.345 1_554 S
Eu933 O949 2.381 . S
Eu933 O964 2.363 . S
Eu933 O965 2.363 . S
Eu934 O932 2.381 . S
Eu934 O936 2.381 . S
Eu934 O941 2.360 1_554 S
Eu934 O942 2.360 1_554 S
Eu934 O950 2.345 1_554 S
Eu934 O951 2.381 . S
Eu934 O966 2.363 . S
Eu934 O967 2.363 . S
O935 Eu930 2.370 . S
O935 Eu933 2.381 . S
O935 Eu937 2.381 . S
O936 Eu930 2.370 . S
O936 Eu934 2.381 . S
O936 Eu938 2.381 . S
Eu937 O932 2.381 . S
Eu937 O935 2.381 . S
Eu937 O939 2.360 1_554 S
Eu937 O942 2.360 1_554 S
Eu937 O954 2.363 . S
Eu937 O955 2.363 . S
Eu937 O962 2.381 . S
Eu937 O963 2.345 1_554 S
Eu938 O931 2.381 . S
Eu938 O936 2.381 . S
Eu938 O940 2.360 1_554 S
Eu938 O941 2.360 1_554 S
Eu938 O952 2.363 . S
Eu938 O953 2.363 . S
Eu938 O960 2.381 . S
Eu938 O961 2.345 1_554 S
O939 Eu933 2.360 1_556 S
O939 Eu937 2.360 1_556 S
O939 Eu943 2.370 . S
O940 Eu933 2.360 1_556 S
O940 Eu938 2.360 1_556 S
O940 Eu943 2.370 . S
O941 Eu934 2.360 1_556 S
O941 Eu938 2.360 1_556 S
O941 Eu943 2.370 . S
O942 Eu934 2.360 1_556 S
O942 Eu937 2.360 1_556 S
O942 Eu943 2.370 . S
Eu943 O939 2.370 . S
Eu943 O940 2.370 . S
Eu943 O941 2.370 . S
Eu943 O942 2.370 . S
Eu943 O946 2.363 . S
Eu943 O947 2.363 . S
Eu943 O956 2.363 . S
Eu943 O957 2.363 . S
O944 C918 1.283 . S
O944 Eu930 2.363 . S
O945 C919 1.283 . S
O945 Eu930 2.363 . S
O946 C920 1.283 . S
O946 Eu943 2.363 . S
O947 C921 1.283 . S
O947 Eu943 2.363 . S
O948 C922 1.283 . S
O948 Eu933 2.345 1_556 S
O949 C923 1.283 . S
O949 Eu933 2.381 . S
O950 C924 1.283 . S
O950 Eu934 2.345 1_556 S
O951 C925 1.283 . S
O951 Eu934 2.381 . S
O952 C926 1.283 . S
O952 Eu938 2.363 . S
O953 C927 1.283 . S
O953 Eu938 2.363 . S
O954 C928 1.283 . S
O954 Eu937 2.363 . S
O955 C929 1.283 . S
O955 Eu937 2.363 . S
O956 C924 1.283 . S
O956 Eu943 2.363 . S
O957 C922 1.283 . S
O957 Eu943 2.363 . S
O958 C925 1.283 . S
O958 Eu930 2.363 . S
O959 C923 1.283 . S
O959 Eu930 2.363 . S
O960 C919 1.283 . S
O960 Eu938 2.381 . S
O961 C921 1.283 . S
O961 Eu938 2.345 1_556 S
O962 C918 1.283 . S
O962 Eu937 2.381 . S
O963 C920 1.283 . S
O963 Eu937 2.345 1_556 S
O964 C929 1.283 . S
O964 Eu933 2.363 . S
O965 C927 1.283 . S
O965 Eu933 2.363 . S
O966 C928 1.283 . S
O966 Eu934 2.363 . S
O967 C926 1.283 . S
O967 Eu934 2.363 . S
C968 O994 1.283 . S
C968 O1012 1.283 . S
C969 O995 1.283 . S
C969 O1010 1.283 . S
C970 O996 1.283 . S
C970 O1013 1.283 . S
C971 O997 1.283 . S
C971 O1011 1.283 . S
C972 O998 1.283 . S
C972 O1007 1.283 . S
C973 O999 1.283 . S
C973 O1009 1.283 . S
C974 O1000 1.283 . S
C974 O1006 1.283 . S
C975 O1001 1.283 . S
C975 O1008 1.283 . S
C976 O1002 1.283 . S
C976 O1017 1.283 . S
C977 O1003 1.283 . S
C977 O1015 1.283 . S
C978 O1004 1.283 . S
C978 O1016 1.283 . S
C979 O1005 1.283 . S
C979 O1014 1.283 . S
Eu980 O981 2.370 1_455 S
Eu980 O982 2.370 . S
Eu980 O985 2.370 1_455 S
Eu980 O986 2.370 . S
Eu980 O994 2.363 . S
Eu980 O995 2.363 . S
Eu980 O1008 2.363 . S
Eu980 O1009 2.363 1_455 S
O981 Eu980 2.370 1_655 S
O981 Eu983 2.370 . S
O981 Eu988 2.370 1_655 S
O982 Eu980 2.370 . S
O982 Eu984 2.370 . S
O982 Eu987 2.370 . S
Eu983 O981 2.370 . S
Eu983 O985 2.370 . S
Eu983 O989 2.370 . S
Eu983 O990 2.370 . S
Eu983 O998 2.363 . S
Eu983 O999 2.363 . S
Eu983 O1014 2.363 . S
Eu983 O1015 2.363 . S
Eu984 O982 2.370 . S
Eu984 O986 2.370 . S
Eu984 O991 2.370 . S
Eu984 O992 2.370 . S
Eu984 O1000 2.363 . S
Eu984 O1001 2.363 . S
Eu984 O1016 2.363 . S
Eu984 O1017 2.363 . S
O985 Eu980 2.370 1_655 S
O985 Eu983 2.370 . S
O985 Eu987 2.370 1_655 S
O986 Eu980 2.370 . S
O986 Eu984 2.370 . S
O986 Eu988 2.370 . S
Eu987 O982 2.370 . S
Eu987 O985 2.370 1_455 S
Eu987 O989 2.370 1_455 S
Eu987 O992 2.370 . S
Eu987 O1004 2.363 . S
Eu987 O1005 2.363 1_455 S
Eu987 O1012 2.363 . S
Eu987 O1013 2.363 . S
Eu988 O981 2.370 1_455 S
Eu988 O986 2.370 . S
Eu988 O990 2.370 1_455 S
Eu988 O991 2.370 . S
Eu988 O1002 2.363 . S
Eu988 O1003 2.363 1_455 S
Eu988 O1010 2.363 . S
Eu988 O1011 2.363 . S
O989 Eu983 2.370 . S
O989 Eu987 2.370 1_655 S
O989 Eu993 2.370 1_655 S
O990 Eu983 2.370 . S
O990 Eu988 2.370 1_655 S
O990 Eu993 2.370 1_655 S
O991 Eu984 2.370 . S
O991 Eu988 2.370 . S
O991 Eu993 2.370 . S
O992 Eu984 2.370 . S
O992 Eu987 2.370 . S
O992 Eu993 2.370 . S
Eu993 O989 2.370 1_455 S
Eu993 O990 2.370 1_455 S
Eu993 O991 2.370 . S
Eu993 O992 2.370 . S
Eu993 O996 2.363 . S
Eu993 O997 2.363 . S
Eu993 O1006 2.363 . S
Eu993 O1007 2.363 1_455 S
O994 C968 1.283 . S
O994 Eu980 2.363 . S
O995 C969 1.283 . S
O995 Eu980 2.363 . S
O996 C970 1.283 . S
O996 Eu993 2.363 . S
O997 C971 1.283 . S
O997 Eu993 2.363 . S
O998 C972 1.283 . S
O998 Eu983 2.363 . S
O999 C973 1.283 . S
O999 Eu983 2.363 . S
O1000 C974 1.283 . S
O1000 Eu984 2.363 . S
O1001 C975 1.283 . S
O1001 Eu984 2.363 . S
O1002 C976 1.283 . S
O1002 Eu988 2.363 . S
O1003 C977 1.283 . S
O1003 Eu988 2.363 1_655 S
O1004 C978 1.283 . S
O1004 Eu987 2.363 . S
O1005 C979 1.283 . S
O1005 Eu987 2.363 1_655 S
O1006 C974 1.283 . S
O1006 Eu993 2.363 . S
O1007 C972 1.283 . S
O1007 Eu993 2.363 1_655 S
O1008 C975 1.283 . S
O1008 Eu980 2.363 . S
O1009 C973 1.283 . S
O1009 Eu980 2.363 1_655 S
O1010 C969 1.283 . S
O1010 Eu988 2.363 . S
O1011 C971 1.283 . S
O1011 Eu988 2.363 . S
O1012 C968 1.283 . S
O1012 Eu987 2.363 . S
O1013 C970 1.283 . S
O1013 Eu987 2.363 . S
O1014 C979 1.283 . S
O1014 Eu983 2.363 . S
O1015 C977 1.283 . S
O1015 Eu983 2.363 . S
O1016 C978 1.283 . S
O1016 Eu984 2.363 . S
O1017 C976 1.283 . S
O1017 Eu984 2.363 . S
C1018 O1044 1.283 . S
C1018 O1062 1.283 . S
C1019 O1045 1.283 . S
C1019 O1060 1.283 . S
C1020 O1046 1.283 . S
C1020 O1063 1.283 . S
C1021 O1047 1.283 . S
C1021 O1061 1.283 . S
C1022 O1048 1.283 . S
C1022 O1057 1.283 . S
C1023 O1049 1.283 . S
C1023 O1059 1.283 . S
C1024 O1050 1.283 . S
C1024 O1056 1.283 . S
C1025 O1051 1.283 . S
C1025 O1058 1.283 . S
C1026 O1052 1.283 . S
C1026 O1067 1.283 . S
C1027 O1053 1.283 . S
C1027 O1065 1.283 . S
C1028 O1054 1.283 . S
C1028 O1066 1.283 . S
C1029 O1055 1.283 . S
C1029 O1064 1.283 . S
Eu1030 O1031 2.370 . S
Eu1030 O1032 2.370 . S
Eu1030 O1035 2.370 . S
Eu1030 O1036 2.370 . S
Eu1030 O1044 2.363 . S
Eu1030 O1045 2.363 . S
Eu1030 O1058 2.363 . S
Eu1030 O1059 2.363 . S
O1031 Eu1030 2.370 . S
O1031 Eu1033 2.370 1_565 S
O1031 Eu1038 2.370 1_565 S
O1032 Eu1030 2.370 . S
O1032 Eu1034 2.370 1_565 S
O1032 Eu1037 2.370 1_565 S
Eu1033 O1031 2.370 1_545 S
Eu1033 O1035 2.370 1_545 S
Eu1033 O1039 2.370 . S
Eu1033 O1040 2.370 . S
Eu1033 O1048 2.363 . S
Eu1033 O1049 2.363 1_545 S
Eu1033 O1064 2.363 . S
Eu1033 O1065 2.363 . S
Eu1034 O1032 2.370 1_545 S
Eu1034 O1036 2.370 1_545 S
Eu1034 O1041 2.370 . S
Eu1034 O1042 2.370 . S
Eu1034 O1050 2.363 . S
Eu1034 O1051 2.363 1_545 S
Eu1034 O1066 2.363 . S
Eu1034 O1067 2.363 . S
O1035 Eu1030 2.370 . S
O1035 Eu1033 2.370 1_565 S
O1035 Eu1037 2.370 1_565 S
O1036 Eu1030 2.370 . S
O1036 Eu1034 2.370 1_565 S
O1036 Eu1038 2.370 1_565 S
Eu1037 O1032 2.370 1_545 S
Eu1037 O1035 2.370 1_545 S
Eu1037 O1039 2.370 . S
Eu1037 O1042 2.370 . S
Eu1037 O1054 2.363 . S
Eu1037 O1055 2.363 . S
Eu1037 O1062 2.363 1_545 S
Eu1037 O1063 2.363 . S
Eu1038 O1031 2.370 1_545 S
Eu1038 O1036 2.370 1_545 S
Eu1038 O1040 2.370 . S
Eu1038 O1041 2.370 . S
Eu1038 O1052 2.363 . S
Eu1038 O1053 2.363 . S
Eu1038 O1060 2.363 1_545 S
Eu1038 O1061 2.363 . S
O1039 Eu1033 2.370 . S
O1039 Eu1037 2.370 . S
O1039 Eu1043 2.370 . S
O1040 Eu1033 2.370 . S
O1040 Eu1038 2.370 . S
O1040 Eu1043 2.370 . S
O1041 Eu1034 2.370 . S
O1041 Eu1038 2.370 . S
O1041 Eu1043 2.370 . S
O1042 Eu1034 2.370 . S
O1042 Eu1037 2.370 . S
O1042 Eu1043 2.370 . S
Eu1043 O1039 2.370 . S
Eu1043 O1040 2.370 . S
Eu1043 O1041 2.370 . S
Eu1043 O1042 2.370 . S
Eu1043 O1046 2.363 . S
Eu1043 O1047 2.363 . S
Eu1043 O1056 2.363 . S
Eu1043 O1057 2.363 . S
O1044 C1018 1.283 . S
O1044 Eu1030 2.363 . S
O1045 C1019 1.283 . S
O1045 Eu1030 2.363 . S
O1046 C1020 1.283 . S
O1046 Eu1043 2.363 . S
O1047 C1021 1.283 . S
O1047 Eu1043 2.363 . S
O1048 C1022 1.283 . S
O1048 Eu1033 2.363 . S
O1049 C1023 1.283 . S
O1049 Eu1033 2.363 1_565 S
O1050 C1024 1.283 . S
O1050 Eu1034 2.363 . S
O1051 C1025 1.283 . S
O1051 Eu1034 2.363 1_565 S
O1052 C1026 1.283 . S
O1052 Eu1038 2.363 . S
O1053 C1027 1.283 . S
O1053 Eu1038 2.363 . S
O1054 C1028 1.283 . S
O1054 Eu1037 2.363 . S
O1055 C1029 1.283 . S
O1055 Eu1037 2.363 . S
O1056 C1024 1.283 . S
O1056 Eu1043 2.363 . S
O1057 C1022 1.283 . S
O1057 Eu1043 2.363 . S
O1058 C1025 1.283 . S
O1058 Eu1030 2.363 . S
O1059 C1023 1.283 . S
O1059 Eu1030 2.363 . S
O1060 C1019 1.283 . S
O1060 Eu1038 2.363 1_565 S
O1061 C1021 1.283 . S
O1061 Eu1038 2.363 . S
O1062 C1018 1.283 . S
O1062 Eu1037 2.363 1_565 S
O1063 C1020 1.283 . S
O1063 Eu1037 2.363 . S
O1064 C1029 1.283 . S
O1064 Eu1033 2.363 . S
O1065 C1027 1.283 . S
O1065 Eu1033 2.363 . S
O1066 C1028 1.283 . S
O1066 Eu1034 2.363 . S
O1067 C1026 1.283 . S
O1067 Eu1034 2.363 . S
H1068 C1076 0.950 . S
H1069 C1081 0.950 . S
H1070 C1078 0.950 . S
H1071 C1080 0.950 . S
H1072 C1082 0.950 . S
H1073 C1084 0.950 . S
H1074 C1086 0.950 . S
H1075 C1087 0.950 . S
C1076 H1068 0.950 . S
C1076 C1077 1.386 . S
C1076 C1078 1.391 . S
C1077 C1076 1.386 . S
C1077 C1081 1.393 . S
C1078 H1070 0.950 . S
C1078 C1076 1.391 . S
C1078 C1079 1.400 . S
C1079 C1078 1.400 . S
C1079 C1080 1.398 . S
C1079 C1085 1.491 . S
C1080 H1071 0.950 . S
C1080 C1079 1.398 . S
C1080 C1081 1.391 . S
C1081 H1069 0.950 . S
C1081 C1077 1.393 . S
C1081 C1080 1.391 . S
C1082 H1072 0.950 . S
C1082 C1083 1.386 . S
C1082 C1084 1.391 . S
C1083 C1082 1.386 . S
C1083 C1087 1.393 . S
C1084 H1073 0.950 . S
C1084 C1082 1.391 . S
C1084 C1085 1.400 . S
C1085 C1079 1.491 . S
C1085 C1084 1.400 . S
C1085 C1086 1.398 . S
C1086 H1074 0.950 . S
C1086 C1085 1.398 . S
C1086 C1087 1.391 . S
C1087 H1075 0.950 . S
C1087 C1083 1.393 . S
C1087 C1086 1.391 . S
H1088 C1096 0.950 . S
H1089 C1101 0.950 . S
H1090 C1098 0.950 . S
H1091 C1100 0.950 . S
H1092 C1102 0.950 . S
H1093 C1104 0.950 . S
H1094 C1106 0.950 . S
H1095 C1107 0.950 . S
C1096 H1088 0.950 . S
C1096 C1097 1.386 . S
C1096 C1098 1.391 . S
C1097 C1096 1.386 . S
C1097 C1101 1.393 . S
C1098 H1090 0.950 . S
C1098 C1096 1.391 . S
C1098 C1099 1.400 . S
C1099 C1098 1.400 . S
C1099 C1100 1.398 . S
C1099 C1105 1.491 . S
C1100 H1091 0.950 . S
C1100 C1099 1.398 . S
C1100 C1101 1.391 . S
C1101 H1089 0.950 . S
C1101 C1097 1.393 . S
C1101 C1100 1.391 . S
C1102 H1092 0.950 . S
C1102 C1103 1.386 . S
C1102 C1104 1.391 . S
C1103 C1102 1.386 . S
C1103 C1107 1.393 . S
C1104 H1093 0.950 . S
C1104 C1102 1.391 . S
C1104 C1105 1.400 . S
C1105 C1099 1.491 . S
C1105 C1104 1.400 . S
C1105 C1106 1.398 . S
C1106 H1094 0.950 . S
C1106 C1105 1.398 . S
C1106 C1107 1.391 . S
C1107 H1095 0.950 . S
C1107 C1103 1.393 . S
C1107 C1106 1.391 . S
H1108 C1116 0.950 . S
H1109 C1121 0.950 . S
H1110 C1118 0.950 . S
H1111 C1120 0.950 . S
H1112 C1122 0.950 . S
H1113 C1124 0.950 . S
H1114 C1126 0.950 . S
H1115 C1127 0.950 . S
C1116 H1108 0.950 . S
C1116 C1117 1.386 . S
C1116 C1118 1.391 . S
C1117 C1116 1.386 . S
C1117 C1121 1.393 . S
C1118 H1110 0.950 . S
C1118 C1116 1.391 . S
C1118 C1119 1.400 . S
C1119 C1118 1.400 . S
C1119 C1120 1.398 . S
C1119 C1125 1.491 . S
C1120 H1111 0.950 . S
C1120 C1119 1.398 . S
C1120 C1121 1.391 . S
C1121 H1109 0.950 . S
C1121 C1117 1.393 . S
C1121 C1120 1.391 . S
C1122 H1112 0.950 . S
C1122 C1123 1.386 . S
C1122 C1124 1.391 . S
C1123 C1122 1.386 . S
C1123 C1127 1.393 . S
C1124 H1113 0.950 . S
C1124 C1122 1.391 . S
C1124 C1125 1.400 . S
C1125 C1119 1.491 . S
C1125 C1124 1.400 . S
C1125 C1126 1.398 . S
C1126 H1114 0.950 . S
C1126 C1125 1.398 . S
C1126 C1127 1.391 . S
C1127 H1115 0.950 . S
C1127 C1123 1.393 . S
C1127 C1126 1.391 . S
H1128 C1136 0.950 . S
H1129 C1141 0.950 . S
H1130 C1138 0.950 . S
H1131 C1140 0.950 . S
H1132 C1142 0.950 . S
H1133 C1144 0.950 . S
H1134 C1146 0.950 . S
H1135 C1147 0.950 . S
C1136 H1128 0.950 . S
C1136 C1137 1.386 . S
C1136 C1138 1.391 . S
C1137 C1136 1.386 . S
C1137 C1141 1.393 . S
C1138 H1130 0.950 . S
C1138 C1136 1.391 . S
C1138 C1139 1.400 . S
C1139 C1138 1.400 . S
C1139 C1140 1.398 . S
C1139 C1145 1.491 . S
C1140 H1131 0.950 . S
C1140 C1139 1.398 . S
C1140 C1141 1.391 . S
C1141 H1129 0.950 . S
C1141 C1137 1.393 . S
C1141 C1140 1.391 . S
C1142 H1132 0.950 . S
C1142 C1143 1.386 . S
C1142 C1144 1.391 . S
C1143 C1142 1.386 . S
C1143 C1147 1.393 . S
C1144 H1133 0.950 . S
C1144 C1142 1.391 . S
C1144 C1145 1.400 . S
C1145 C1139 1.491 . S
C1145 C1144 1.400 . S
C1145 C1146 1.398 . S
C1146 H1134 0.950 . S
C1146 C1145 1.398 . S
C1146 C1147 1.391 . S
C1147 H1135 0.950 . S
C1147 C1143 1.393 . S
C1147 C1146 1.391 . S
H1148 C1156 0.950 . S
H1149 C1161 0.950 . S
H1150 C1158 0.950 . S
H1151 C1160 0.950 . S
H1152 C1162 0.950 . S
H1153 C1164 0.950 . S
H1154 C1166 0.950 . S
H1155 C1167 0.950 . S
C1156 H1148 0.950 . S
C1156 C1157 1.386 . S
C1156 C1158 1.391 . S
C1157 C1156 1.386 . S
C1157 C1161 1.393 . S
C1158 H1150 0.950 . S
C1158 C1156 1.391 . S
C1158 C1159 1.400 . S
C1159 C1158 1.400 . S
C1159 C1160 1.398 . S
C1159 C1165 1.491 . S
C1160 H1151 0.950 . S
C1160 C1159 1.398 . S
C1160 C1161 1.391 . S
C1161 H1149 0.950 . S
C1161 C1157 1.393 . S
C1161 C1160 1.391 . S
C1162 H1152 0.950 . S
C1162 C1163 1.386 . S
C1162 C1164 1.391 . S
C1163 C1162 1.386 . S
C1163 C1167 1.393 . S
C1164 H1153 0.950 . S
C1164 C1162 1.391 . S
C1164 C1165 1.400 . S
C1165 C1159 1.491 . S
C1165 C1164 1.400 . S
C1165 C1166 1.398 . S
C1166 H1154 0.950 . S
C1166 C1165 1.398 . S
C1166 C1167 1.391 . S
C1167 H1155 0.950 . S
C1167 C1163 1.393 . S
C1167 C1166 1.391 . S
H1168 C1176 0.950 . S
H1169 C1181 0.950 . S
H1170 C1178 0.950 . S
H1171 C1180 0.950 . S
H1172 C1182 0.950 . S
H1173 C1184 0.950 . S
H1174 C1186 0.950 . S
H1175 C1187 0.950 . S
C1176 H1168 0.950 . S
C1176 C1177 1.386 . S
C1176 C1178 1.391 . S
C1177 C1176 1.386 . S
C1177 C1181 1.393 . S
C1178 H1170 0.950 . S
C1178 C1176 1.391 . S
C1178 C1179 1.400 . S
C1179 C1178 1.400 . S
C1179 C1180 1.398 . S
C1179 C1185 1.491 . S
C1180 H1171 0.950 . S
C1180 C1179 1.398 . S
C1180 C1181 1.391 . S
C1181 H1169 0.950 . S
C1181 C1177 1.393 . S
C1181 C1180 1.391 . S
C1182 H1172 0.950 . S
C1182 C1183 1.386 . S
C1182 C1184 1.391 . S
C1183 C1182 1.386 . S
C1183 C1187 1.393 . S
C1184 H1173 0.950 . S
C1184 C1182 1.391 . S
C1184 C1185 1.400 . S
C1185 C1179 1.491 . S
C1185 C1184 1.400 . S
C1185 C1186 1.398 . S
C1186 H1174 0.950 . S
C1186 C1185 1.398 . S
C1186 C1187 1.391 . S
C1187 H1175 0.950 . S
C1187 C1183 1.393 . S
C1187 C1186 1.391 . S
H1188 C1196 0.950 . S
H1189 C1201 0.950 . S
H1190 C1198 0.950 . S
H1191 C1200 0.950 . S
H1192 C1202 0.950 . S
H1193 C1204 0.950 . S
H1194 C1206 0.950 . S
H1195 C1207 0.950 . S
C1196 H1188 0.950 . S
C1196 C1197 1.386 . S
C1196 C1198 1.391 . S
C1197 C1196 1.386 . S
C1197 C1201 1.393 . S
C1198 H1190 0.950 . S
C1198 C1196 1.391 . S
C1198 C1199 1.400 . S
C1199 C1198 1.400 . S
C1199 C1200 1.398 . S
C1199 C1205 1.491 . S
C1200 H1191 0.950 . S
C1200 C1199 1.398 . S
C1200 C1201 1.391 . S
C1201 H1189 0.950 . S
C1201 C1197 1.393 . S
C1201 C1200 1.391 . S
C1202 H1192 0.950 . S
C1202 C1203 1.386 . S
C1202 C1204 1.391 . S
C1203 C1202 1.386 . S
C1203 C1207 1.393 . S
C1204 H1193 0.950 . S
C1204 C1202 1.391 . S
C1204 C1205 1.400 . S
C1205 C1199 1.491 . S
C1205 C1204 1.400 . S
C1205 C1206 1.398 . S
C1206 H1194 0.950 . S
C1206 C1205 1.398 . S
C1206 C1207 1.391 . S
C1207 H1195 0.950 . S
C1207 C1203 1.393 . S
C1207 C1206 1.391 . S
H1208 C1216 0.950 . S
H1209 C1221 0.950 . S
H1210 C1218 0.950 . S
H1211 C1220 0.950 . S
H1212 C1222 0.950 . S
H1213 C1224 0.950 . S
H1214 C1226 0.950 . S
H1215 C1227 0.950 . S
C1216 H1208 0.950 . S
C1216 C1217 1.386 . S
C1216 C1218 1.391 . S
C1217 C1216 1.386 . S
C1217 C1221 1.393 . S
C1218 H1210 0.950 . S
C1218 C1216 1.391 . S
C1218 C1219 1.400 . S
C1219 C1218 1.400 . S
C1219 C1220 1.398 . S
C1219 C1225 1.491 . S
C1220 H1211 0.950 . S
C1220 C1219 1.398 . S
C1220 C1221 1.391 . S
C1221 H1209 0.950 . S
C1221 C1217 1.393 . S
C1221 C1220 1.391 . S
C1222 H1212 0.950 . S
C1222 C1223 1.386 . S
C1222 C1224 1.391 . S
C1223 C1222 1.386 . S
C1223 C1227 1.393 . S
C1224 H1213 0.950 . S
C1224 C1222 1.391 . S
C1224 C1225 1.400 . S
C1225 C1219 1.491 . S
C1225 C1224 1.400 . S
C1225 C1226 1.398 . S
C1226 H1214 0.950 . S
C1226 C1225 1.398 . S
C1226 C1227 1.391 . S
C1227 H1215 0.950 . S
C1227 C1223 1.393 . S
C1227 C1226 1.391 . S
H1228 C1236 0.950 . S
H1229 C1241 0.950 . S
H1230 C1238 0.950 . S
H1231 C1240 0.950 . S
H1232 C1242 0.950 . S
H1233 C1244 0.950 . S
H1234 C1246 0.950 . S
H1235 C1247 0.950 . S
C1236 H1228 0.950 . S
C1236 C1237 1.386 . S
C1236 C1238 1.391 . S
C1237 C1236 1.386 . S
C1237 C1241 1.393 . S
C1238 H1230 0.950 . S
C1238 C1236 1.391 . S
C1238 C1239 1.400 . S
C1239 C1238 1.400 . S
C1239 C1240 1.398 . S
C1239 C1245 1.491 . S
C1240 H1231 0.950 . S
C1240 C1239 1.398 . S
C1240 C1241 1.391 . S
C1241 H1229 0.950 . S
C1241 C1237 1.393 . S
C1241 C1240 1.391 . S
C1242 H1232 0.950 . S
C1242 C1243 1.386 . S
C1242 C1244 1.391 . S
C1243 C1242 1.386 . S
C1243 C1247 1.393 . S
C1244 H1233 0.950 . S
C1244 C1242 1.391 . S
C1244 C1245 1.400 . S
C1245 C1239 1.491 . S
C1245 C1244 1.400 . S
C1245 C1246 1.398 . S
C1246 H1234 0.950 . S
C1246 C1245 1.398 . S
C1246 C1247 1.391 . S
C1247 H1235 0.950 . S
C1247 C1243 1.393 . S
C1247 C1246 1.391 . S
H1248 C1256 0.950 . S
H1249 C1261 0.950 . S
H1250 C1258 0.950 . S
H1251 C1260 0.950 . S
H1252 C1262 0.950 . S
H1253 C1264 0.950 . S
H1254 C1266 0.950 . S
H1255 C1267 0.950 . S
C1256 H1248 0.950 . S
C1256 C1257 1.386 . S
C1256 C1258 1.391 . S
C1257 C1256 1.386 . S
C1257 C1261 1.393 . S
C1258 H1250 0.950 . S
C1258 C1256 1.391 . S
C1258 C1259 1.400 . S
C1259 C1258 1.400 . S
C1259 C1260 1.398 . S
C1259 C1265 1.491 . S
C1260 H1251 0.950 . S
C1260 C1259 1.398 . S
C1260 C1261 1.391 . S
C1261 H1249 0.950 . S
C1261 C1257 1.393 . S
C1261 C1260 1.391 . S
C1262 H1252 0.950 . S
C1262 C1263 1.386 . S
C1262 C1264 1.391 . S
C1263 C1262 1.386 . S
C1263 C1267 1.393 . S
C1264 H1253 0.950 . S
C1264 C1262 1.391 . S
C1264 C1265 1.400 . S
C1265 C1259 1.491 . S
C1265 C1264 1.400 . S
C1265 C1266 1.398 . S
C1266 H1254 0.950 . S
C1266 C1265 1.398 . S
C1266 C1267 1.391 . S
C1267 H1255 0.950 . S
C1267 C1263 1.393 . S
C1267 C1266 1.391 . S
H1268 C1276 0.950 . S
H1269 C1281 0.950 . S
H1270 C1278 0.950 . S
H1271 C1280 0.950 . S
H1272 C1282 0.950 . S
H1273 C1284 0.950 . S
H1274 C1286 0.950 . S
H1275 C1287 0.950 . S
C1276 H1268 0.950 . S
C1276 C1277 1.386 . S
C1276 C1278 1.391 . S
C1277 C1276 1.386 . S
C1277 C1281 1.393 . S
C1278 H1270 0.950 . S
C1278 C1276 1.391 . S
C1278 C1279 1.400 . S
C1279 C1278 1.400 . S
C1279 C1280 1.398 . S
C1279 C1285 1.491 . S
C1280 H1271 0.950 . S
C1280 C1279 1.398 . S
C1280 C1281 1.391 . S
C1281 H1269 0.950 . S
C1281 C1277 1.393 . S
C1281 C1280 1.391 . S
C1282 H1272 0.950 . S
C1282 C1283 1.386 . S
C1282 C1284 1.391 . S
C1283 C1282 1.386 . S
C1283 C1287 1.393 . S
C1284 H1273 0.950 . S
C1284 C1282 1.391 . S
C1284 C1285 1.400 . S
C1285 C1279 1.491 . S
C1285 C1284 1.400 . S
C1285 C1286 1.398 . S
C1286 H1274 0.950 . S
C1286 C1285 1.398 . S
C1286 C1287 1.391 . S
C1287 H1275 0.950 . S
C1287 C1283 1.393 . S
C1287 C1286 1.391 . S
H1288 C1296 0.950 . S
H1289 C1301 0.950 . S
H1290 C1298 0.950 . S
H1291 C1300 0.950 . S
H1292 C1302 0.950 . S
H1293 C1304 0.950 . S
H1294 C1306 0.950 . S
H1295 C1307 0.950 . S
C1296 H1288 0.950 . S
C1296 C1297 1.386 . S
C1296 C1298 1.391 . S
C1297 C1296 1.386 . S
C1297 C1301 1.393 . S
C1298 H1290 0.950 . S
C1298 C1296 1.391 . S
C1298 C1299 1.400 . S
C1299 C1298 1.400 . S
C1299 C1300 1.398 . S
C1299 C1305 1.491 . S
C1300 H1291 0.950 . S
C1300 C1299 1.398 . S
C1300 C1301 1.391 . S
C1301 H1289 0.950 . S
C1301 C1297 1.393 . S
C1301 C1300 1.391 . S
C1302 H1292 0.950 . S
C1302 C1303 1.386 . S
C1302 C1304 1.391 . S
C1303 C1302 1.386 . S
C1303 C1307 1.393 . S
C1304 H1293 0.950 . S
C1304 C1302 1.391 . S
C1304 C1305 1.400 . S
C1305 C1299 1.491 . S
C1305 C1304 1.400 . S
C1305 C1306 1.398 . S
C1306 H1294 0.950 . S
C1306 C1305 1.398 . S
C1306 C1307 1.391 . S
C1307 H1295 0.950 . S
C1307 C1303 1.393 . S
C1307 C1306 1.391 . S
H1308 C1316 0.950 . S
H1309 C1321 0.949 . S
H1310 C1318 0.950 . S
H1311 C1320 0.950 . S
H1312 C1322 0.950 . S
H1313 C1324 0.950 . S
H1314 C1326 0.950 . S
H1315 C1327 0.949 1_556 S
C1316 H1308 0.950 . S
C1316 C1317 1.387 . S
C1316 C1318 1.391 . S
C1317 C1316 1.387 . S
C1317 C1321 1.392 1_556 S
C1318 H1310 0.950 . S
C1318 C1316 1.391 . S
C1318 C1319 1.400 . S
C1319 C1318 1.400 . S
C1319 C1320 1.398 1_556 S
C1319 C1325 1.490 1_556 S
C1320 H1311 0.950 . S
C1320 C1319 1.398 1_554 S
C1320 C1321 1.391 . S
C1321 H1309 0.949 . S
C1321 C1317 1.392 1_554 S
C1321 C1320 1.391 . S
C1322 H1312 0.950 . S
C1322 C1323 1.386 . S
C1322 C1324 1.391 . S
C1323 C1322 1.386 . S
C1323 C1327 1.394 . S
C1324 H1313 0.950 . S
C1324 C1322 1.391 . S
C1324 C1325 1.403 . S
C1325 C1319 1.490 1_554 S
C1325 C1324 1.403 . S
C1325 C1326 1.398 . S
C1326 H1314 0.950 . S
C1326 C1325 1.398 . S
C1326 C1327 1.391 . S
C1327 H1315 0.949 1_554 S
C1327 C1323 1.394 . S
C1327 C1326 1.391 . S
H1328 C1336 0.950 . S
H1329 C1341 0.950 . S
H1330 C1338 0.950 . S
H1331 C1340 0.950 . S
H1332 C1342 0.950 . S
H1333 C1344 0.950 . S
H1334 C1346 0.950 . S
H1335 C1347 0.950 . S
C1336 H1328 0.950 . S
C1336 C1337 1.386 . S
C1336 C1338 1.391 . S
C1337 C1336 1.386 . S
C1337 C1341 1.393 1_554 S
C1338 H1330 0.950 . S
C1338 C1336 1.391 . S
C1338 C1339 1.421 . S
C1339 C1338 1.421 . S
C1339 C1340 1.379 1_554 S
C1339 C1345 1.490 . S
C1340 H1331 0.950 . S
C1340 C1339 1.379 1_556 S
C1340 C1341 1.391 . S
C1341 H1329 0.950 . S
C1341 C1337 1.393 1_556 S
C1341 C1340 1.391 . S
C1342 H1332 0.950 . S
C1342 C1343 1.387 . S
C1342 C1344 1.391 . S
C1343 C1342 1.387 . S
C1343 C1347 1.392 1_556 S
C1344 H1333 0.950 . S
C1344 C1342 1.391 . S
C1344 C1345 1.399 1_556 S
C1345 C1339 1.490 . S
C1345 C1344 1.399 1_554 S
C1345 C1346 1.399 . S
C1346 H1334 0.950 . S
C1346 C1345 1.399 . S
C1346 C1347 1.391 . S
C1347 H1335 0.950 . S
C1347 C1343 1.392 1_554 S
C1347 C1346 1.391 . S
H1348 C1356 0.950 . S
H1349 C1361 0.950 . S
H1350 C1358 0.950 . S
H1351 C1360 0.950 . S
H1352 C1362 0.950 . S
H1353 C1364 0.950 . S
H1354 C1366 0.950 . S
H1355 C1367 0.950 . S
C1356 H1348 0.950 . S
C1356 C1357 1.386 . S
C1356 C1358 1.391 . S
C1357 C1356 1.386 . S
C1357 C1361 1.393 1_554 S
C1358 H1350 0.950 . S
C1358 C1356 1.391 . S
C1358 C1359 1.419 . S
C1359 C1358 1.419 . S
C1359 C1360 1.381 1_554 S
C1359 C1365 1.490 . S
C1360 H1351 0.950 . S
C1360 C1359 1.381 1_556 S
C1360 C1361 1.391 . S
C1361 H1349 0.950 . S
C1361 C1357 1.393 1_556 S
C1361 C1360 1.391 . S
C1362 H1352 0.950 . S
C1362 C1363 1.389 . S
C1362 C1364 1.391 . S
C1363 C1362 1.389 . S
C1363 C1367 1.390 1_556 S
C1364 H1353 0.950 . S
C1364 C1362 1.391 . S
C1364 C1365 1.401 1_556 S
C1365 C1359 1.490 . S
C1365 C1364 1.401 1_554 S
C1365 C1366 1.398 . S
C1366 H1354 0.950 . S
C1366 C1365 1.398 . S
C1366 C1367 1.391 . S
C1367 H1355 0.950 . S
C1367 C1363 1.390 1_554 S
C1367 C1366 1.391 . S
H1368 C1376 0.950 . S
H1369 C1381 0.950 . S
H1370 C1378 0.950 . S
H1371 C1380 0.950 . S
H1372 C1382 0.950 . S
H1373 C1384 0.950 . S
H1374 C1386 0.950 . S
H1375 C1387 0.950 . S
C1376 H1368 0.950 . S
C1376 C1377 1.389 . S
C1376 C1378 1.391 . S
C1377 C1376 1.389 . S
C1377 C1381 1.391 1_556 S
C1378 H1370 0.950 . S
C1378 C1376 1.391 . S
C1378 C1379 1.400 . S
C1379 C1378 1.400 . S
C1379 C1380 1.398 1_556 S
C1379 C1385 1.490 1_556 S
C1380 H1371 0.950 . S
C1380 C1379 1.398 1_554 S
C1380 C1381 1.391 . S
C1381 H1369 0.950 . S
C1381 C1377 1.391 1_554 S
C1381 C1380 1.391 . S
C1382 H1372 0.950 . S
C1382 C1383 1.386 . S
C1382 C1384 1.391 . S
C1383 C1382 1.386 . S
C1383 C1387 1.393 1_554 S
C1384 H1373 0.950 . S
C1384 C1382 1.391 . S
C1384 C1385 1.406 . S
C1385 C1379 1.490 1_554 S
C1385 C1384 1.406 . S
C1385 C1386 1.396 1_554 S
C1386 H1374 0.950 . S
C1386 C1385 1.396 1_556 S
C1386 C1387 1.391 . S
C1387 H1375 0.950 . S
C1387 C1383 1.393 1_556 S
C1387 C1386 1.391 . S
H1388 C1396 0.950 . S
H1389 C1401 0.950 . S
H1390 C1398 0.950 . S
H1391 C1400 0.950 . S
H1392 C1402 0.950 . S
H1393 C1404 0.950 . S
H1394 C1406 0.950 . S
H1395 C1407 0.950 . S
C1396 H1388 0.950 . S
C1396 C1397 1.386 . S
C1396 C1398 1.391 . S
C1397 C1396 1.386 . S
C1397 C1401 1.393 1_455 S
C1398 H1390 0.950 . S
C1398 C1396 1.391 . S
C1398 C1399 1.400 . S
C1399 C1398 1.400 . S
C1399 C1400 1.398 1_455 S
C1399 C1405 1.491 . S
C1400 H1391 0.950 . S
C1400 C1399 1.398 1_655 S
C1400 C1401 1.391 . S
C1401 H1389 0.950 . S
C1401 C1397 1.393 1_655 S
C1401 C1400 1.391 . S
C1402 H1392 0.950 . S
C1402 C1403 1.386 1_655 S
C1402 C1404 1.391 . S
C1403 C1402 1.386 1_455 S
C1403 C1407 1.393 . S
C1404 H1393 0.950 . S
C1404 C1402 1.391 . S
C1404 C1405 1.400 1_655 S
C1405 C1399 1.491 . S
C1405 C1404 1.400 1_455 S
C1405 C1406 1.398 . S
C1406 H1394 0.950 . S
C1406 C1405 1.398 . S
C1406 C1407 1.391 . S
C1407 H1395 0.950 . S
C1407 C1403 1.393 . S
C1407 C1406 1.391 . S
H1408 C1416 0.950 . S
H1409 C1421 0.950 . S
H1410 C1418 0.950 . S
H1411 C1420 0.950 . S
H1412 C1422 0.950 . S
H1413 C1424 0.950 . S
H1414 C1426 0.950 . S
H1415 C1427 0.950 . S
C1416 H1408 0.950 . S
C1416 C1417 1.371 1_565 S
C1416 C1418 1.391 . S
C1417 C1416 1.371 1_545 S
C1417 C1421 1.407 . S
C1418 H1410 0.950 . S
C1418 C1416 1.391 . S
C1418 C1419 1.378 1_565 S
C1419 C1418 1.378 1_545 S
C1419 C1420 1.421 . S
C1419 C1425 1.492 . S
C1420 H1411 0.950 . S
C1420 C1419 1.421 . S
C1420 C1421 1.391 . S
C1421 H1409 0.950 . S
C1421 C1417 1.407 . S
C1421 C1420 1.391 . S
C1422 H1412 0.950 . S
C1422 C1423 1.386 . S
C1422 C1424 1.391 . S
C1423 C1422 1.386 . S
C1423 C1427 1.393 1_545 S
C1424 H1413 0.950 . S
C1424 C1422 1.391 . S
C1424 C1425 1.400 . S
C1425 C1419 1.492 . S
C1425 C1424 1.400 . S
C1425 C1426 1.398 1_545 S
C1426 H1414 0.950 . S
C1426 C1425 1.398 1_565 S
C1426 C1427 1.391 . S
C1427 H1415 0.950 . S
C1427 C1423 1.393 1_565 S
C1427 C1426 1.391 . S
H1428 C1436 0.950 . S
H1429 C1441 0.950 . S
H1430 C1438 0.950 . S
H1431 C1440 0.950 . S
H1432 C1442 0.950 . S
H1433 C1444 0.950 . S
H1434 C1446 0.950 . S
H1435 C1447 0.950 . S
C1436 H1428 0.950 . S
C1436 C1437 1.386 . S
C1436 C1438 1.391 . S
C1437 C1436 1.386 . S
C1437 C1441 1.393 1_455 S
C1438 H1430 0.950 . S
C1438 C1436 1.391 . S
C1438 C1439 1.400 . S
C1439 C1438 1.400 . S
C1439 C1440 1.398 1_455 S
C1439 C1445 1.491 . S
C1440 H1431 0.950 . S
C1440 C1439 1.398 1_655 S
C1440 C1441 1.391 . S
C1441 H1429 0.950 . S
C1441 C1437 1.393 1_655 S
C1441 C1440 1.391 . S
C1442 H1432 0.950 . S
C1442 C1443 1.386 1_655 S
C1442 C1444 1.391 . S
C1443 C1442 1.386 1_455 S
C1443 C1447 1.393 . S
C1444 H1433 0.950 . S
C1444 C1442 1.391 . S
C1444 C1445 1.400 1_655 S
C1445 C1439 1.491 . S
C1445 C1444 1.400 1_455 S
C1445 C1446 1.398 . S
C1446 H1434 0.950 . S
C1446 C1445 1.398 . S
C1446 C1447 1.391 . S
C1447 H1435 0.950 . S
C1447 C1443 1.393 . S
C1447 C1446 1.391 . S
H1448 C1456 0.950 . S
H1449 C1461 0.950 . S
H1450 C1458 0.950 . S
H1451 C1460 0.950 . S
H1452 C1462 0.950 . S
H1453 C1464 0.950 . S
H1454 C1466 0.950 . S
H1455 C1467 0.950 . S
C1456 H1448 0.950 . S
C1456 C1457 1.386 . S
C1456 C1458 1.391 . S
C1457 C1456 1.386 . S
C1457 C1461 1.393 1_545 S
C1458 H1450 0.950 . S
C1458 C1456 1.391 . S
C1458 C1459 1.400 . S
C1459 C1458 1.400 . S
C1459 C1460 1.398 1_545 S
C1459 C1465 1.492 . S
C1460 H1451 0.950 . S
C1460 C1459 1.398 1_565 S
C1460 C1461 1.391 . S
C1461 H1449 0.950 . S
C1461 C1457 1.393 1_565 S
C1461 C1460 1.391 . S
C1462 H1452 0.950 . S
C1462 C1463 1.370 1_565 S
C1462 C1464 1.391 . S
C1463 C1462 1.370 1_545 S
C1463 C1467 1.408 . S
C1464 H1453 0.950 . S
C1464 C1462 1.391 . S
C1464 C1465 1.377 1_565 S
C1465 C1459 1.492 . S
C1465 C1464 1.377 1_545 S
C1465 C1466 1.421 . S
C1466 H1454 0.950 . S
C1466 C1465 1.421 . S
C1466 C1467 1.391 . S
C1467 H1455 0.950 . S
C1467 C1463 1.408 . S
C1467 C1466 1.391 . S
H1468 C1476 0.950 . S
H1469 C1481 0.950 . S
H1470 C1478 0.950 . S
H1471 C1480 0.950 . S
H1472 C1482 0.950 . S
H1473 C1484 0.950 . S
H1474 C1486 0.950 . S
H1475 C1487 0.950 . S
C1476 H1468 0.950 . S
C1476 C1477 1.386 1_655 S
C1476 C1478 1.391 . S
C1477 C1476 1.386 1_455 S
C1477 C1481 1.393 . S
C1478 H1470 0.950 . S
C1478 C1476 1.391 . S
C1478 C1479 1.400 1_655 S
C1479 C1478 1.400 1_455 S
C1479 C1480 1.398 . S
C1479 C1485 1.491 . S
C1480 H1471 0.950 . S
C1480 C1479 1.398 . S
C1480 C1481 1.391 . S
C1481 H1469 0.950 . S
C1481 C1477 1.393 . S
C1481 C1480 1.391 . S
C1482 H1472 0.950 . S
C1482 C1483 1.386 . S
C1482 C1484 1.391 . S
C1483 C1482 1.386 . S
C1483 C1487 1.393 1_455 S
C1484 H1473 0.950 . S
C1484 C1482 1.391 . S
C1484 C1485 1.400 . S
C1485 C1479 1.491 . S
C1485 C1484 1.400 . S
C1485 C1486 1.398 1_455 S
C1486 H1474 0.950 . S
C1486 C1485 1.398 1_655 S
C1486 C1487 1.391 . S
C1487 H1475 0.950 . S
C1487 C1483 1.393 1_655 S
C1487 C1486 1.391 . S
H1488 C1496 0.950 . S
H1489 C1501 0.950 . S
H1490 C1498 0.950 . S
H1491 C1500 0.950 . S
H1492 C1502 0.950 . S
H1493 C1504 0.950 . S
H1494 C1506 0.950 . S
H1495 C1507 0.950 . S
C1496 H1488 0.950 . S
C1496 C1497 1.386 . S
C1496 C1498 1.391 . S
C1497 C1496 1.386 . S
C1497 C1501 1.393 1_545 S
C1498 H1490 0.950 . S
C1498 C1496 1.391 . S
C1498 C1499 1.400 . S
C1499 C1498 1.400 . S
C1499 C1500 1.398 1_545 S
C1499 C1505 1.492 . S
C1500 H1491 0.950 . S
C1500 C1499 1.398 1_565 S
C1500 C1501 1.391 . S
C1501 H1489 0.950 . S
C1501 C1497 1.393 1_565 S
C1501 C1500 1.391 . S
C1502 H1492 0.950 . S
C1502 C1503 1.370 1_565 S
C1502 C1504 1.391 . S
C1503 C1502 1.370 1_545 S
C1503 C1507 1.409 . S
C1504 H1493 0.950 . S
C1504 C1502 1.391 . S
C1504 C1505 1.376 1_565 S
C1505 C1499 1.492 . S
C1505 C1504 1.376 1_545 S
C1505 C1506 1.422 . S
C1506 H1494 0.950 . S
C1506 C1505 1.422 . S
C1506 C1507 1.391 . S
C1507 H1495 0.950 . S
C1507 C1503 1.409 . S
C1507 C1506 1.391 . S
H1508 C1516 0.950 . S
H1509 C1521 0.950 . S
H1510 C1518 0.950 . S
H1511 C1520 0.950 . S
H1512 C1522 0.950 . S
H1513 C1524 0.950 . S
H1514 C1526 0.950 . S
H1515 C1527 0.950 . S
C1516 H1508 0.950 . S
C1516 C1517 1.386 1_655 S
C1516 C1518 1.391 . S
C1517 C1516 1.386 1_455 S
C1517 C1521 1.393 . S
C1518 H1510 0.950 . S
C1518 C1516 1.391 . S
C1518 C1519 1.400 1_655 S
C1519 C1518 1.400 1_455 S
C1519 C1520 1.398 . S
C1519 C1525 1.491 . S
C1520 H1511 0.950 . S
C1520 C1519 1.398 . S
C1520 C1521 1.391 . S
C1521 H1509 0.950 . S
C1521 C1517 1.393 . S
C1521 C1520 1.391 . S
C1522 H1512 0.950 . S
C1522 C1523 1.386 . S
C1522 C1524 1.391 . S
C1523 C1522 1.386 . S
C1523 C1527 1.393 1_455 S
C1524 H1513 0.950 . S
C1524 C1522 1.391 . S
C1524 C1525 1.400 . S
C1525 C1519 1.491 . S
C1525 C1524 1.400 . S
C1525 C1526 1.398 1_455 S
C1526 H1514 0.950 . S
C1526 C1525 1.398 1_655 S
C1526 C1527 1.391 . S
C1527 H1515 0.950 . S
C1527 C1523 1.393 1_655 S
C1527 C1526 1.391 . S
H1528 C1536 0.950 . S
H1529 C1541 0.950 . S
H1530 C1538 0.950 . S
H1531 C1540 0.950 . S
H1532 C1542 0.950 . S
H1533 C1544 0.950 . S
H1534 C1546 0.950 . S
H1535 C1547 0.950 . S
C1536 H1528 0.950 . S
C1536 C1537 1.386 1_565 S
C1536 C1538 1.391 . S
C1537 C1536 1.386 1_545 S
C1537 C1541 1.393 . S
C1538 H1530 0.950 . S
C1538 C1536 1.391 . S
C1538 C1539 1.400 1_565 S
C1539 C1538 1.400 1_545 S
C1539 C1540 1.398 . S
C1539 C1545 1.492 . S
C1540 H1531 0.950 . S
C1540 C1539 1.398 . S
C1540 C1541 1.391 . S
C1541 H1529 0.950 . S
C1541 C1537 1.393 . S
C1541 C1540 1.391 . S
C1542 H1532 0.950 . S
C1542 C1543 1.407 . S
C1542 C1544 1.391 . S
C1543 C1542 1.407 . S
C1543 C1547 1.372 1_545 S
C1544 H1533 0.950 . S
C1544 C1542 1.391 . S
C1544 C1545 1.432 . S
C1545 C1539 1.492 . S
C1545 C1544 1.432 . S
C1545 C1546 1.366 1_545 S
C1546 H1534 0.950 . S
C1546 C1545 1.366 1_565 S
C1546 C1547 1.391 . S
C1547 H1535 0.950 . S
C1547 C1543 1.372 1_565 S
C1547 C1546 1.391 . S
H1548 C1556 0.950 . S
H1549 C1561 0.950 . S
H1550 C1558 0.950 . S
H1551 C1560 0.950 . S
H1552 C1562 0.950 . S
H1553 C1564 0.950 . S
H1554 C1566 0.950 . S
H1555 C1567 0.950 . S
C1556 H1548 0.950 . S
C1556 C1557 1.386 1_655 S
C1556 C1558 1.391 . S
C1557 C1556 1.386 1_455 S
C1557 C1561 1.393 . S
C1558 H1550 0.950 . S
C1558 C1556 1.391 . S
C1558 C1559 1.400 1_655 S
C1559 C1558 1.400 1_455 S
C1559 C1560 1.398 . S
C1559 C1565 1.491 . S
C1560 H1551 0.950 . S
C1560 C1559 1.398 . S
C1560 C1561 1.391 . S
C1561 H1549 0.950 . S
C1561 C1557 1.393 . S
C1561 C1560 1.391 . S
C1562 H1552 0.950 . S
C1562 C1563 1.386 . S
C1562 C1564 1.391 . S
C1563 C1562 1.386 . S
C1563 C1567 1.393 1_455 S
C1564 H1553 0.950 . S
C1564 C1562 1.391 . S
C1564 C1565 1.400 . S
C1565 C1559 1.491 . S
C1565 C1564 1.400 . S
C1565 C1566 1.398 1_455 S
C1566 H1554 0.950 . S
C1566 C1565 1.398 1_655 S
C1566 C1567 1.391 . S
C1567 H1555 0.950 . S
C1567 C1563 1.393 1_655 S
C1567 C1566 1.391 . S
H1568 C1576 0.950 . S
H1569 C1581 0.950 . S
H1570 C1578 0.950 . S
H1571 C1580 0.950 . S
H1572 C1582 0.950 . S
H1573 C1584 0.950 . S
H1574 C1586 0.950 . S
H1575 C1587 0.950 . S
C1576 H1568 0.950 . S
C1576 C1577 1.386 . S
C1576 C1578 1.391 . S
C1577 C1576 1.386 . S
C1577 C1581 1.393 1_545 S
C1578 H1570 0.950 . S
C1578 C1576 1.391 . S
C1578 C1579 1.400 . S
C1579 C1578 1.400 . S
C1579 C1580 1.398 1_545 S
C1579 C1585 1.491 . S
C1580 H1571 0.950 . S
C1580 C1579 1.398 1_565 S
C1580 C1581 1.391 . S
C1581 H1569 0.950 . S
C1581 C1577 1.393 1_565 S
C1581 C1580 1.391 . S
C1582 H1572 0.950 . S
C1582 C1583 1.384 1_565 S
C1582 C1584 1.391 . S
C1583 C1582 1.384 1_545 S
C1583 C1587 1.394 . S
C1584 H1573 0.950 . S
C1584 C1582 1.391 . S
C1584 C1585 1.388 1_565 S
C1585 C1579 1.491 . S
C1585 C1584 1.388 1_545 S
C1585 C1586 1.410 . S
C1586 H1574 0.950 . S
C1586 C1585 1.410 . S
C1586 C1587 1.391 . S
C1587 H1575 0.950 . S
C1587 C1583 1.394 . S
C1587 C1586 1.391 . S
H1588 C1596 0.950 . S
H1589 C1601 0.950 . S
H1590 C1598 0.950 . S
H1591 C1600 0.950 . S
H1592 C1602 0.950 . S
H1593 C1604 0.950 . S
H1594 C1606 0.950 . S
H1595 C1607 0.950 . S
C1596 H1588 0.950 . S
C1596 C1597 1.386 1_655 S
C1596 C1598 1.391 . S
C1597 C1596 1.386 1_455 S
C1597 C1601 1.393 . S
C1598 H1590 0.950 . S
C1598 C1596 1.391 . S
C1598 C1599 1.400 1_655 S
C1599 C1598 1.400 1_455 S
C1599 C1600 1.398 . S
C1599 C1605 1.491 . S
C1600 H1591 0.950 . S
C1600 C1599 1.398 . S
C1600 C1601 1.391 . S
C1601 H1589 0.950 . S
C1601 C1597 1.393 . S
C1601 C1600 1.391 . S
C1602 H1592 0.950 . S
C1602 C1603 1.386 . S
C1602 C1604 1.391 . S
C1603 C1602 1.386 . S
C1603 C1607 1.393 1_455 S
C1604 H1593 0.950 . S
C1604 C1602 1.391 . S
C1604 C1605 1.400 . S
C1605 C1599 1.491 . S
C1605 C1604 1.400 . S
C1605 C1606 1.398 1_455 S
C1606 H1594 0.950 . S
C1606 C1605 1.398 1_655 S
C1606 C1607 1.391 . S
C1607 H1595 0.950 . S
C1607 C1603 1.393 1_655 S
C1607 C1606 1.391 . S
H1608 C1616 0.950 . S
H1609 C1621 0.950 . S
H1610 C1618 0.950 . S
H1611 C1620 0.950 . S
H1612 C1622 0.950 . S
H1613 C1624 0.950 . S
H1614 C1626 0.950 . S
H1615 C1627 0.950 . S
C1616 H1608 0.950 . S
C1616 C1617 1.376 1_565 S
C1616 C1618 1.391 . S
C1617 C1616 1.376 1_545 S
C1617 C1621 1.403 . S
C1618 H1610 0.950 . S
C1618 C1616 1.391 . S
C1618 C1619 1.384 1_565 S
C1619 C1618 1.384 1_545 S
C1619 C1620 1.414 . S
C1619 C1625 1.492 . S
C1620 H1611 0.950 . S
C1620 C1619 1.414 . S
C1620 C1621 1.391 . S
C1621 H1609 0.950 . S
C1621 C1617 1.403 . S
C1621 C1620 1.391 . S
C1622 H1612 0.950 . S
C1622 C1623 1.386 . S
C1622 C1624 1.391 . S
C1623 C1622 1.386 . S
C1623 C1627 1.393 1_545 S
C1624 H1613 0.950 . S
C1624 C1622 1.391 . S
C1624 C1625 1.400 . S
C1625 C1619 1.492 . S
C1625 C1624 1.400 . S
C1625 C1626 1.398 1_545 S
C1626 H1614 0.950 . S
C1626 C1625 1.398 1_565 S
C1626 C1627 1.391 . S
C1627 H1615 0.950 . S
C1627 C1623 1.393 1_565 S
C1627 C1626 1.391 . S
H1628 C1636 0.950 . S
H1629 C1641 0.950 . S
H1630 C1638 0.950 . S
H1631 C1640 0.950 . S
H1632 C1642 0.950 . S
H1633 C1644 0.950 . S
H1634 C1646 0.950 . S
H1635 C1647 0.950 . S
C1636 H1628 0.950 . S
C1636 C1637 1.386 1_655 S
C1636 C1638 1.391 . S
C1637 C1636 1.386 1_455 S
C1637 C1641 1.393 . S
C1638 H1630 0.950 . S
C1638 C1636 1.391 . S
C1638 C1639 1.400 1_655 S
C1639 C1638 1.400 1_455 S
C1639 C1640 1.398 . S
C1639 C1645 1.491 . S
C1640 H1631 0.950 . S
C1640 C1639 1.398 . S
C1640 C1641 1.391 . S
C1641 H1629 0.950 . S
C1641 C1637 1.393 . S
C1641 C1640 1.391 . S
C1642 H1632 0.950 . S
C1642 C1643 1.386 . S
C1642 C1644 1.391 . S
C1643 C1642 1.386 . S
C1643 C1647 1.393 1_455 S
C1644 H1633 0.950 . S
C1644 C1642 1.391 . S
C1644 C1645 1.400 . S
C1645 C1639 1.491 . S
C1645 C1644 1.400 . S
C1645 C1646 1.398 1_455 S
C1646 H1634 0.950 . S
C1646 C1645 1.398 1_655 S
C1646 C1647 1.391 . S
C1647 H1635 0.950 . S
C1647 C1643 1.393 1_655 S
C1647 C1646 1.391 . S
H1648 C1656 0.950 . S
H1649 C1661 0.950 . S
H1650 C1658 0.950 . S
H1651 C1660 0.950 . S
H1652 C1662 0.950 . S
H1653 C1664 0.950 . S
H1654 C1666 0.950 . S
H1655 C1667 0.950 . S
C1656 H1648 0.950 . S
C1656 C1657 1.387 . S
C1656 C1658 1.391 . S
C1657 C1656 1.387 . S
C1657 C1661 1.391 1_545 S
C1658 H1650 0.950 . S
C1658 C1656 1.391 . S
C1658 C1659 1.407 . S
C1659 C1658 1.407 . S
C1659 C1660 1.391 1_545 S
C1659 C1665 1.492 . S
C1660 H1651 0.950 . S
C1660 C1659 1.391 1_565 S
C1660 C1661 1.391 . S
C1661 H1649 0.950 . S
C1661 C1657 1.391 1_565 S
C1661 C1660 1.391 . S
C1662 H1652 0.950 . S
C1662 C1663 1.386 1_565 S
C1662 C1664 1.391 . S
C1663 C1662 1.386 1_545 S
C1663 C1667 1.393 . S
C1664 H1653 0.950 . S
C1664 C1662 1.391 . S
C1664 C1665 1.400 1_565 S
C1665 C1659 1.492 . S
C1665 C1664 1.400 1_545 S
C1665 C1666 1.398 . S
C1666 H1654 0.950 . S
C1666 C1665 1.398 . S
C1666 C1667 1.391 . S
C1667 H1655 0.950 . S
C1667 C1663 1.393 . S
C1667 C1666 1.391 . S
H1668 C1676 0.950 . S
H1669 C1681 0.950 . S
H1670 C1678 0.950 . S
H1671 C1680 0.950 . S
H1672 C1682 0.950 . S
H1673 C1684 0.950 . S
H1674 C1686 0.950 . S
H1675 C1687 0.950 . S
C1676 H1668 0.950 . S
C1676 C1677 1.386 1_655 S
C1676 C1678 1.391 . S
C1677 C1676 1.386 1_455 S
C1677 C1681 1.393 . S
C1678 H1670 0.950 . S
C1678 C1676 1.391 . S
C1678 C1679 1.400 1_655 S
C1679 C1678 1.400 1_455 S
C1679 C1680 1.398 . S
C1679 C1685 1.491 . S
C1680 H1671 0.950 . S
C1680 C1679 1.398 . S
C1680 C1681 1.391 . S
C1681 H1669 0.950 . S
C1681 C1677 1.393 . S
C1681 C1680 1.391 . S
C1682 H1672 0.950 . S
C1682 C1683 1.386 . S
C1682 C1684 1.391 . S
C1683 C1682 1.386 . S
C1683 C1687 1.393 1_455 S
C1684 H1673 0.950 . S
C1684 C1682 1.391 . S
C1684 C1685 1.400 . S
C1685 C1679 1.491 . S
C1685 C1684 1.400 . S
C1685 C1686 1.398 1_455 S
C1686 H1674 0.950 . S
C1686 C1685 1.398 1_655 S
C1686 C1687 1.391 . S
C1687 H1675 0.950 . S
C1687 C1683 1.393 1_655 S
C1687 C1686 1.391 . S
H1688 C1696 0.950 . S
H1689 C1701 0.950 . S
H1690 C1698 0.950 . S
H1691 C1700 0.950 . S
H1692 C1702 0.950 . S
H1693 C1704 0.950 . S
H1694 C1706 0.950 . S
H1695 C1707 0.950 . S
C1696 H1688 0.950 . S
C1696 C1697 1.386 . S
C1696 C1698 1.391 . S
C1697 C1696 1.386 . S
C1697 C1701 1.393 1_545 S
C1698 H1690 0.950 . S
C1698 C1696 1.391 . S
C1698 C1699 1.400 . S
C1699 C1698 1.400 . S
C1699 C1700 1.398 1_545 S
C1699 C1705 1.491 . S
C1700 H1691 0.950 . S
C1700 C1699 1.398 1_565 S
C1700 C1701 1.391 . S
C1701 H1689 0.950 . S
C1701 C1697 1.393 1_565 S
C1701 C1700 1.391 . S
C1702 H1692 0.950 . S
C1702 C1703 1.367 1_565 S
C1702 C1704 1.391 . S
C1703 C1702 1.367 1_545 S
C1703 C1707 1.412 . S
C1704 H1693 0.950 . S
C1704 C1702 1.391 . S
C1704 C1705 1.373 1_565 S
C1705 C1699 1.491 . S
C1705 C1704 1.373 1_545 S
C1705 C1706 1.425 . S
C1706 H1694 0.950 . S
C1706 C1705 1.425 . S
C1706 C1707 1.391 . S
C1707 H1695 0.950 . S
C1707 C1703 1.412 . S
C1707 C1706 1.391 . S
H1708 C1716 0.950 . S
H1709 C1721 0.950 . S
H1710 C1718 0.950 . S
H1711 C1720 0.950 . S
H1712 C1722 0.950 . S
H1713 C1724 0.950 . S
H1714 C1726 0.950 . S
H1715 C1727 0.950 . S
C1716 H1708 0.950 . S
C1716 C1717 1.386 . S
C1716 C1718 1.391 . S
C1717 C1716 1.386 . S
C1717 C1721 1.393 1_545 S
C1718 H1710 0.950 . S
C1718 C1716 1.391 . S
C1718 C1719 1.400 . S
C1719 C1718 1.400 . S
C1719 C1720 1.398 1_545 S
C1719 C1725 1.491 . S
C1720 H1711 0.950 . S
C1720 C1719 1.398 1_565 S
C1720 C1721 1.391 . S
C1721 H1709 0.950 . S
C1721 C1717 1.393 1_565 S
C1721 C1720 1.391 . S
C1722 H1712 0.950 . S
C1722 C1723 1.386 1_565 S
C1722 C1724 1.391 . S
C1723 C1722 1.386 1_545 S
C1723 C1727 1.393 . S
C1724 H1713 0.950 . S
C1724 C1722 1.391 . S
C1724 C1725 1.400 1_565 S
C1725 C1719 1.491 . S
C1725 C1724 1.400 1_545 S
C1725 C1726 1.398 . S
C1726 H1714 0.950 . S
C1726 C1725 1.398 . S
C1726 C1727 1.391 . S
C1727 H1715 0.950 . S
C1727 C1723 1.393 . S
C1727 C1726 1.391 . S
H1728 C1736 0.950 . S
H1729 C1741 0.950 . S
H1730 C1738 0.950 . S
H1731 C1740 0.950 . S
H1732 C1742 0.950 . S
H1733 C1744 0.950 . S
H1734 C1746 0.950 . S
H1735 C1747 0.950 . S
C1736 H1728 0.950 . S
C1736 C1737 1.393 . S
C1736 C1738 1.391 . S
C1737 C1736 1.393 . S
C1737 C1741 1.386 1_455 S
C1738 H1730 0.950 . S
C1738 C1736 1.391 . S
C1738 C1739 1.400 . S
C1739 C1738 1.400 . S
C1739 C1740 1.398 1_455 S
C1739 C1745 1.491 . S
C1740 H1731 0.950 . S
C1740 C1739 1.398 1_655 S
C1740 C1741 1.391 . S
C1741 H1729 0.950 . S
C1741 C1737 1.386 1_655 S
C1741 C1740 1.391 . S
C1742 H1732 0.950 . S
C1742 C1743 1.386 1_655 S
C1742 C1744 1.391 . S
C1743 C1742 1.386 1_455 S
C1743 C1747 1.393 . S
C1744 H1733 0.950 . S
C1744 C1742 1.391 . S
C1744 C1745 1.400 1_655 S
C1745 C1739 1.491 . S
C1745 C1744 1.400 1_455 S
C1745 C1746 1.398 . S
C1746 H1734 0.950 . S
C1746 C1745 1.398 . S
C1746 C1747 1.391 . S
C1747 H1735 0.950 . S
C1747 C1743 1.393 . S
C1747 C1746 1.391 . S
H1748 C1756 0.950 . S
H1749 C1761 0.950 . S
H1750 C1758 0.950 . S
H1751 C1760 0.950 . S
H1752 C1762 0.950 . S
H1753 C1764 0.950 . S
H1754 C1766 0.950 . S
H1755 C1767 0.950 . S
C1756 H1748 0.950 . S
C1756 C1757 1.357 1_565 S
C1756 C1758 1.391 . S
C1757 C1756 1.357 1_545 S
C1757 C1761 1.422 . S
C1758 H1750 0.950 . S
C1758 C1756 1.391 . S
C1758 C1759 1.400 1_565 S
C1759 C1758 1.400 1_545 S
C1759 C1760 1.398 . S
C1759 C1765 1.491 . S
C1760 H1751 0.950 . S
C1760 C1759 1.398 . S
C1760 C1761 1.391 . S
C1761 H1749 0.950 . S
C1761 C1757 1.422 . S
C1761 C1760 1.391 . S
C1762 H1752 0.950 . S
C1762 C1763 1.386 . S
C1762 C1764 1.391 . S
C1763 C1762 1.386 . S
C1763 C1767 1.393 1_545 S
C1764 H1753 0.950 . S
C1764 C1762 1.391 . S
C1764 C1765 1.400 . S
C1765 C1759 1.491 . S
C1765 C1764 1.400 . S
C1765 C1766 1.398 1_545 S
C1766 H1754 0.950 . S
C1766 C1765 1.398 1_565 S
C1766 C1767 1.391 . S
C1767 H1755 0.950 . S
C1767 C1763 1.393 1_565 S
C1767 C1766 1.391 . S
H1768 C1776 0.950 . S
H1769 C1781 0.950 . S
H1770 C1778 0.950 . S
H1771 C1780 0.950 . S
H1772 C1782 0.950 . S
H1773 C1784 0.950 . S
H1774 C1786 0.950 . S
H1775 C1787 0.950 . S
C1776 H1768 0.950 . S
C1776 C1777 1.386 1_655 S
C1776 C1778 1.391 . S
C1777 C1776 1.386 1_455 S
C1777 C1781 1.393 . S
C1778 H1770 0.950 . S
C1778 C1776 1.391 . S
C1778 C1779 1.400 1_655 S
C1779 C1778 1.400 1_455 S
C1779 C1780 1.398 . S
C1779 C1785 1.491 . S
C1780 H1771 0.950 . S
C1780 C1779 1.398 . S
C1780 C1781 1.391 . S
C1781 H1769 0.950 . S
C1781 C1777 1.393 . S
C1781 C1780 1.391 . S
C1782 H1772 0.950 . S
C1782 C1783 1.386 . S
C1782 C1784 1.391 . S
C1783 C1782 1.386 . S
C1783 C1787 1.393 1_455 S
C1784 H1773 0.950 . S
C1784 C1782 1.391 . S
C1784 C1785 1.400 . S
C1785 C1779 1.491 . S
C1785 C1784 1.400 . S
C1785 C1786 1.398 1_455 S
C1786 H1774 0.950 . S
C1786 C1785 1.398 1_655 S
C1786 C1787 1.391 . S
C1787 H1775 0.950 . S
C1787 C1783 1.393 1_655 S
C1787 C1786 1.391 . S
H1788 C1796 0.950 . S
H1789 C1801 0.950 . S
H1790 C1798 0.950 . S
H1791 C1800 0.950 . S
H1792 C1802 0.950 . S
H1793 C1804 0.950 . S
H1794 C1806 0.950 . S
H1795 C1807 0.950 . S
C1796 H1788 0.950 . S
C1796 C1797 1.386 1_565 S
C1796 C1798 1.391 . S
C1797 C1796 1.386 1_545 S
C1797 C1801 1.393 . S
C1798 H1790 0.950 . S
C1798 C1796 1.391 . S
C1798 C1799 1.400 1_565 S
C1799 C1798 1.400 1_545 S
C1799 C1800 1.398 . S
C1799 C1805 1.491 . S
C1800 H1791 0.950 . S
C1800 C1799 1.398 . S
C1800 C1801 1.391 . S
C1801 H1789 0.950 . S
C1801 C1797 1.393 . S
C1801 C1800 1.391 . S
C1802 H1792 0.950 . S
C1802 C1803 1.386 . S
C1802 C1804 1.391 . S
C1803 C1802 1.386 . S
C1803 C1807 1.393 1_545 S
C1804 H1793 0.950 . S
C1804 C1802 1.391 . S
C1804 C1805 1.400 . S
C1805 C1799 1.491 . S
C1805 C1804 1.400 . S
C1805 C1806 1.398 1_545 S
C1806 H1794 0.950 . S
C1806 C1805 1.398 1_565 S
C1806 C1807 1.391 . S
C1807 H1795 0.950 . S
C1807 C1803 1.393 1_565 S
C1807 C1806 1.391 . S
H1808 C1816 0.950 . S
H1809 C1821 0.950 . S
H1810 C1818 0.950 . S
H1811 C1820 0.950 . S
H1812 C1822 0.950 . S
H1813 C1824 0.950 . S
H1814 C1826 0.950 . S
H1815 C1827 0.950 . S
C1816 H1808 0.950 . S
C1816 C1817 1.386 1_655 S
C1816 C1818 1.391 . S
C1817 C1816 1.386 1_455 S
C1817 C1821 1.393 . S
C1818 H1810 0.950 . S
C1818 C1816 1.391 . S
C1818 C1819 1.400 1_655 S
C1819 C1818 1.400 1_455 S
C1819 C1820 1.398 . S
C1819 C1825 1.491 . S
C1820 H1811 0.950 . S
C1820 C1819 1.398 . S
C1820 C1821 1.391 . S
C1821 H1809 0.950 . S
C1821 C1817 1.393 . S
C1821 C1820 1.391 . S
C1822 H1812 0.950 . S
C1822 C1823 1.409 . S
C1822 C1824 1.391 . S
C1823 C1822 1.409 . S
C1823 C1827 1.369 1_455 S
C1824 H1813 0.950 . S
C1824 C1822 1.391 . S
C1824 C1825 1.400 . S
C1825 C1819 1.491 . S
C1825 C1824 1.400 . S
C1825 C1826 1.398 1_455 S
C1826 H1814 0.950 . S
C1826 C1825 1.398 1_655 S
C1826 C1827 1.391 . S
C1827 H1815 0.950 . S
C1827 C1823 1.369 1_655 S
C1827 C1826 1.391 . S
H1828 C1836 0.950 . S
H1829 C1841 0.950 . S
H1830 C1838 0.950 . S
H1831 C1840 0.950 . S
H1832 C1842 0.950 . S
H1833 C1844 0.950 . S
H1834 C1846 0.950 . S
H1835 C1847 0.950 . S
C1836 H1828 0.950 . S
C1836 C1837 1.372 1_565 S
C1836 C1838 1.391 . S
C1837 C1836 1.372 1_545 S
C1837 C1841 1.406 . S
C1838 H1830 0.950 . S
C1838 C1836 1.391 . S
C1838 C1839 1.376 1_565 S
C1839 C1838 1.376 1_545 S
C1839 C1840 1.422 . S
C1839 C1845 1.493 . S
C1840 H1831 0.950 . S
C1840 C1839 1.422 . S
C1840 C1841 1.391 . S
C1841 H1829 0.950 . S
C1841 C1837 1.406 . S
C1841 C1840 1.391 . S
C1842 H1832 0.950 . S
C1842 C1843 1.386 . S
C1842 C1844 1.391 . S
C1843 C1842 1.386 . S
C1843 C1847 1.393 1_545 S
C1844 H1833 0.950 . S
C1844 C1842 1.391 . S
C1844 C1845 1.400 . S
C1845 C1839 1.493 . S
C1845 C1844 1.400 . S
C1845 C1846 1.398 1_545 S
C1846 H1834 0.950 . S
C1846 C1845 1.398 1_565 S
C1846 C1847 1.391 . S
C1847 H1835 0.950 . S
C1847 C1843 1.393 1_565 S
C1847 C1846 1.391 . S
H1848 C1856 0.950 . S
H1849 C1861 0.950 . S
H1850 C1858 0.950 . S
H1851 C1860 0.950 . S
H1852 C1862 0.950 . S
H1853 C1864 0.950 . S
H1854 C1866 0.950 . S
H1855 C1867 0.950 . S
C1856 H1848 0.950 . S
C1856 C1857 1.386 1_655 S
C1856 C1858 1.391 . S
C1857 C1856 1.386 1_455 S
C1857 C1861 1.393 . S
C1858 H1850 0.950 . S
C1858 C1856 1.391 . S
C1858 C1859 1.400 1_655 S
C1859 C1858 1.400 1_455 S
C1859 C1860 1.398 . S
C1859 C1865 1.491 . S
C1860 H1851 0.950 . S
C1860 C1859 1.398 . S
C1860 C1861 1.391 . S
C1861 H1849 0.950 . S
C1861 C1857 1.393 . S
C1861 C1860 1.391 . S
C1862 H1852 0.950 . S
C1862 C1863 1.401 . S
C1862 C1864 1.391 . S
C1863 C1862 1.401 . S
C1863 C1867 1.377 1_455 S
C1864 H1853 0.950 . S
C1864 C1862 1.391 . S
C1864 C1865 1.400 . S
C1865 C1859 1.491 . S
C1865 C1864 1.400 . S
C1865 C1866 1.398 1_455 S
C1866 H1854 0.950 . S
C1866 C1865 1.398 1_655 S
C1866 C1867 1.391 . S
C1867 H1855 0.950 . S
C1867 C1863 1.377 1_655 S
C1867 C1866 1.391 . S
H1868 C1876 0.950 . S
H1869 C1881 0.950 . S
H1870 C1878 0.950 . S
H1871 C1880 0.950 . S
H1872 C1882 0.950 . S
H1873 C1884 0.950 . S
H1874 C1886 0.950 . S
H1875 C1887 0.950 . S
C1876 H1868 0.950 . S
C1876 C1877 1.359 1_556 S
C1876 C1878 1.391 . S
C1877 C1876 1.359 1_554 S
C1877 C1881 1.420 . S
C1878 H1870 0.950 . S
C1878 C1876 1.391 . S
C1878 C1879 1.381 1_556 S
C1879 C1878 1.381 1_554 S
C1879 C1880 1.418 . S
C1879 C1885 1.490 . S
C1880 H1871 0.950 . S
C1880 C1879 1.418 . S
C1880 C1881 1.391 . S
C1881 H1869 0.950 . S
C1881 C1877 1.420 . S
C1881 C1880 1.391 . S
C1882 H1872 0.950 . S
C1882 C1883 1.384 . S
C1882 C1884 1.391 . S
C1883 C1882 1.384 . S
C1883 C1887 1.394 1_554 S
C1884 H1873 0.950 . S
C1884 C1882 1.391 . S
C1884 C1885 1.406 . S
C1885 C1879 1.490 . S
C1885 C1884 1.406 . S
C1885 C1886 1.393 1_554 S
C1886 H1874 0.950 . S
C1886 C1885 1.393 1_556 S
C1886 C1887 1.391 . S
C1887 H1875 0.950 . S
C1887 C1883 1.394 1_556 S
C1887 C1886 1.391 . S
H1888 C1896 0.950 . S
H1889 C1901 0.950 . S
H1890 C1898 0.950 . S
H1891 C1900 0.950 . S
H1892 C1902 0.950 . S
H1893 C1904 0.950 . S
H1894 C1906 0.950 . S
H1895 C1907 0.950 . S
C1896 H1888 0.950 . S
C1896 C1897 1.391 . S
C1896 C1898 1.391 . S
C1897 C1896 1.391 . S
C1897 C1901 1.388 1_556 S
C1898 H1890 0.950 . S
C1898 C1896 1.391 . S
C1898 C1899 1.402 1_556 S
C1899 C1898 1.402 1_554 S
C1899 C1900 1.396 . S
C1899 C1905 1.490 . S
C1900 H1891 0.950 . S
C1900 C1899 1.396 . S
C1900 C1901 1.391 . S
C1901 H1889 0.950 . S
C1901 C1897 1.388 1_554 S
C1901 C1900 1.391 . S
C1902 H1892 0.950 . S
C1902 C1903 1.386 . S
C1902 C1904 1.391 . S
C1903 C1902 1.386 . S
C1903 C1907 1.393 1_554 S
C1904 H1893 0.950 . S
C1904 C1902 1.391 . S
C1904 C1905 1.418 . S
C1905 C1899 1.490 . S
C1905 C1904 1.418 . S
C1905 C1906 1.382 1_554 S
C1906 H1894 0.950 . S
C1906 C1905 1.382 1_556 S
C1906 C1907 1.391 . S
C1907 H1895 0.950 . S
C1907 C1903 1.393 1_556 S
C1907 C1906 1.391 . S
H1908 C1916 0.950 . S
H1909 C1921 0.950 . S
H1910 C1918 0.950 . S
H1911 C1920 0.950 . S
H1912 C1922 0.950 . S
H1913 C1924 0.950 . S
H1914 C1926 0.950 . S
H1915 C1927 0.950 . S
C1916 H1908 0.950 . S
C1916 C1917 1.393 . S
C1916 C1918 1.391 . S
C1917 C1916 1.393 . S
C1917 C1921 1.386 1_556 S
C1918 H1910 0.950 . S
C1918 C1916 1.391 . S
C1918 C1919 1.402 . S
C1919 C1918 1.402 . S
C1919 C1920 1.397 1_556 S
C1919 C1925 1.490 1_556 S
C1920 H1911 0.950 . S
C1920 C1919 1.397 1_554 S
C1920 C1921 1.391 . S
C1921 H1909 0.950 . S
C1921 C1917 1.386 1_554 S
C1921 C1920 1.391 . S
C1922 H1912 0.950 . S
C1922 C1923 1.401 . S
C1922 C1924 1.391 . S
C1923 C1922 1.401 . S
C1923 C1927 1.380 1_554 S
C1924 H1913 0.950 . S
C1924 C1922 1.391 . S
C1924 C1925 1.409 . S
C1925 C1919 1.490 1_554 S
C1925 C1924 1.409 . S
C1925 C1926 1.391 1_554 S
C1926 H1914 0.950 . S
C1926 C1925 1.391 1_556 S
C1926 C1927 1.391 . S
C1927 H1915 0.950 . S
C1927 C1923 1.380 1_556 S
C1927 C1926 1.391 . S
H1928 C1936 0.950 . S
H1929 C1941 0.950 . S
H1930 C1938 0.950 . S
H1931 C1940 0.950 . S
H1932 C1942 0.950 . S
H1933 C1944 0.950 . S
H1934 C1946 0.950 . S
H1935 C1947 0.950 . S
C1936 H1928 0.950 . S
C1936 C1937 1.391 . S
C1936 C1938 1.391 . S
C1937 C1936 1.391 . S
C1937 C1941 1.388 1_556 S
C1938 H1930 0.950 . S
C1938 C1936 1.391 . S
C1938 C1939 1.400 . S
C1939 C1938 1.400 . S
C1939 C1940 1.398 1_556 S
C1939 C1945 1.490 1_556 S
C1940 H1931 0.950 . S
C1940 C1939 1.398 1_554 S
C1940 C1941 1.391 . S
C1941 H1929 0.950 . S
C1941 C1937 1.388 1_554 S
C1941 C1940 1.391 . S
C1942 H1932 0.950 . S
C1942 C1943 1.386 . S
C1942 C1944 1.391 . S
C1943 C1942 1.386 . S
C1943 C1947 1.393 1_554 S
C1944 H1933 0.950 . S
C1944 C1942 1.391 . S
C1944 C1945 1.409 . S
C1945 C1939 1.490 1_554 S
C1945 C1944 1.409 . S
C1945 C1946 1.392 1_554 S
C1946 H1934 0.950 . S
C1946 C1945 1.392 1_556 S
C1946 C1947 1.391 . S
C1947 H1935 0.950 . S
C1947 C1943 1.393 1_556 S
C1947 C1946 1.391 . S
H1948 C1956 0.950 . S
H1949 C1961 0.950 . S
H1950 C1958 0.950 . S
H1951 C1960 0.950 . S
H1952 C1962 0.950 . S
H1953 C1964 0.950 . S
H1954 C1966 0.950 . S
H1955 C1967 0.950 . S
C1956 H1948 0.950 . S
C1956 C1957 1.395 . S
C1956 C1958 1.391 . S
C1957 C1956 1.395 . S
C1957 C1961 1.384 1_556 S
C1958 H1950 0.950 . S
C1958 C1956 1.391 . S
C1958 C1959 1.402 . S
C1959 C1958 1.402 . S
C1959 C1960 1.397 1_556 S
C1959 C1965 1.490 1_556 S
C1960 H1951 0.950 . S
C1960 C1959 1.397 1_554 S
C1960 C1961 1.391 . S
C1961 H1949 0.950 . S
C1961 C1957 1.384 1_554 S
C1961 C1960 1.391 . S
C1962 H1952 0.950 . S
C1962 C1963 1.404 . S
C1962 C1964 1.391 . S
C1963 C1962 1.404 . S
C1963 C1967 1.375 1_554 S
C1964 H1953 0.950 . S
C1964 C1962 1.391 . S
C1964 C1965 1.411 . S
C1965 C1959 1.490 1_554 S
C1965 C1964 1.411 . S
C1965 C1966 1.388 1_554 S
C1966 H1954 0.950 . S
C1966 C1965 1.388 1_556 S
C1966 C1967 1.391 . S
C1967 H1955 0.950 . S
C1967 C1963 1.375 1_556 S
C1967 C1966 1.391 . S
H1968 C1976 0.950 . S
H1969 C1981 0.950 . S
H1970 C1978 0.950 . S
H1971 C1980 0.950 . S
H1972 C1982 0.950 . S
H1973 C1984 0.950 . S
H1974 C1986 0.950 . S
H1975 C1987 0.950 . S
C1976 H1968 0.950 . S
C1976 C1977 1.410 . S
C1976 C1978 1.391 . S
C1977 C1976 1.410 . S
C1977 C1981 1.370 1_554 S
C1978 H1970 0.950 . S
C1978 C1976 1.391 . S
C1978 C1979 1.416 . S
C1979 C1978 1.416 . S
C1979 C1980 1.384 1_554 S
C1979 C1985 1.490 1_554 S
C1980 H1971 0.950 . S
C1980 C1979 1.384 1_556 S
C1980 C1981 1.391 . S
C1981 H1969 0.950 . S
C1981 C1977 1.370 1_556 S
C1981 C1980 1.391 . S
C1982 H1972 0.950 . S
C1982 C1983 1.391 . S
C1982 C1984 1.391 . S
C1983 C1982 1.391 . S
C1983 C1987 1.388 1_556 S
C1984 H1973 0.950 . S
C1984 C1982 1.391 . S
C1984 C1985 1.398 . S
C1985 C1979 1.490 1_556 S
C1985 C1984 1.398 . S
C1985 C1986 1.401 1_556 S
C1986 H1974 0.950 . S
C1986 C1985 1.401 1_554 S
C1986 C1987 1.391 . S
C1987 H1975 0.950 . S
C1987 C1983 1.388 1_554 S
C1987 C1986 1.391 . S
H1988 C1996 0.950 . S
H1989 C2001 0.950 . S
H1990 C1998 0.950 . S
H1991 C2000 0.950 . S
H1992 C2002 0.950 . S
H1993 C2004 0.950 . S
H1994 C2006 0.950 . S
H1995 C2007 0.950 . S
C1996 H1988 0.950 . S
C1996 C1997 1.405 . S
C1996 C1998 1.391 . S
C1997 C1996 1.405 . S
C1997 C2001 1.373 1_554 S
C1998 H1990 0.950 . S
C1998 C1996 1.391 . S
C1998 C1999 1.412 . S
C1999 C1998 1.412 . S
C1999 C2000 1.387 1_554 S
C1999 C2005 1.490 . S
C2000 H1991 0.950 . S
C2000 C1999 1.387 1_556 S
C2000 C2001 1.391 . S
C2001 H1989 0.950 . S
C2001 C1997 1.373 1_556 S
C2001 C2000 1.391 . S
C2002 H1992 0.950 . S
C2002 C2003 1.388 . S
C2002 C2004 1.391 . S
C2003 C2002 1.388 . S
C2003 C2007 1.390 1_556 S
C2004 H1993 0.950 . S
C2004 C2002 1.391 . S
C2004 C2005 1.403 1_556 S
C2005 C1999 1.490 . S
C2005 C2004 1.403 1_554 S
C2005 C2006 1.396 . S
C2006 H1994 0.950 . S
C2006 C2005 1.396 . S
C2006 C2007 1.391 . S
C2007 H1995 0.950 . S
C2007 C2003 1.390 1_554 S
C2007 C2006 1.391 . S
H2008 C2016 0.950 . S
H2009 C2021 0.950 . S
H2010 C2018 0.950 . S
H2011 C2020 0.950 . S
H2012 C2022 0.950 . S
H2013 C2024 0.950 . S
H2014 C2026 0.950 . S
H2015 C2027 0.950 . S
C2016 H2008 0.950 . S
C2016 C2017 1.388 . S
C2016 C2018 1.391 . S
C2017 C2016 1.388 . S
C2017 C2021 1.391 1_556 S
C2018 H2010 0.950 . S
C2018 C2016 1.391 . S
C2018 C2019 1.397 . S
C2019 C2018 1.397 . S
C2019 C2020 1.401 1_556 S
C2019 C2025 1.490 1_556 S
C2020 H2011 0.950 . S
C2020 C2019 1.401 1_554 S
C2020 C2021 1.391 . S
C2021 H2009 0.950 . S
C2021 C2017 1.391 1_554 S
C2021 C2020 1.391 . S
C2022 H2012 0.950 . S
C2022 C2023 1.401 . S
C2022 C2024 1.391 . S
C2023 C2022 1.401 . S
C2023 C2027 1.378 1_554 S
C2024 H2013 0.950 . S
C2024 C2022 1.391 . S
C2024 C2025 1.410 . S
C2025 C2019 1.490 1_554 S
C2025 C2024 1.410 . S
C2025 C2026 1.388 1_554 S
C2026 H2014 0.950 . S
C2026 C2025 1.388 1_556 S
C2026 C2027 1.391 . S
C2027 H2015 0.950 . S
C2027 C2023 1.378 1_556 S
C2027 C2026 1.391 . S
H2028 C2036 0.950 . S
H2029 C2041 0.950 . S
H2030 C2038 0.950 . S
H2031 C2040 0.950 . S
H2032 C2042 0.950 . S
H2033 C2044 0.950 . S
H2034 C2046 0.950 . S
H2035 C2047 0.950 . S
C2036 H2028 0.950 . S
C2036 C2037 1.386 . S
C2036 C2038 1.391 . S
C2037 C2036 1.386 . S
C2037 C2041 1.393 . S
C2038 H2030 0.950 . S
C2038 C2036 1.391 . S
C2038 C2039 1.400 . S
C2039 C2038 1.400 . S
C2039 C2040 1.398 . S
C2039 C2045 1.491 . S
C2040 H2031 0.950 . S
C2040 C2039 1.398 . S
C2040 C2041 1.391 . S
C2041 H2029 0.950 . S
C2041 C2037 1.393 . S
C2041 C2040 1.391 . S
C2042 H2032 0.950 . S
C2042 C2043 1.386 . S
C2042 C2044 1.391 . S
C2043 C2042 1.386 . S
C2043 C2047 1.393 . S
C2044 H2033 0.950 . S
C2044 C2042 1.391 . S
C2044 C2045 1.400 . S
C2045 C2039 1.491 . S
C2045 C2044 1.400 . S
C2045 C2046 1.398 . S
C2046 H2034 0.950 . S
C2046 C2045 1.398 . S
C2046 C2047 1.391 . S
C2047 H2035 0.950 . S
C2047 C2043 1.393 . S
C2047 C2046 1.391 . S
H2048 C2056 0.950 . S
H2049 C2061 0.950 . S
H2050 C2058 0.950 . S
H2051 C2060 0.950 . S
H2052 C2062 0.950 . S
H2053 C2064 0.950 . S
H2054 C2066 0.950 . S
H2055 C2067 0.950 . S
C2056 H2048 0.950 . S
C2056 C2057 1.386 . S
C2056 C2058 1.391 . S
C2057 C2056 1.386 . S
C2057 C2061 1.393 . S
C2058 H2050 0.950 . S
C2058 C2056 1.391 . S
C2058 C2059 1.400 . S
C2059 C2058 1.400 . S
C2059 C2060 1.398 . S
C2059 C2065 1.491 . S
C2060 H2051 0.950 . S
C2060 C2059 1.398 . S
C2060 C2061 1.391 . S
C2061 H2049 0.950 . S
C2061 C2057 1.393 . S
C2061 C2060 1.391 . S
C2062 H2052 0.950 . S
C2062 C2063 1.386 . S
C2062 C2064 1.391 . S
C2063 C2062 1.386 . S
C2063 C2067 1.393 . S
C2064 H2053 0.950 . S
C2064 C2062 1.391 . S
C2064 C2065 1.400 . S
C2065 C2059 1.491 . S
C2065 C2064 1.400 . S
C2065 C2066 1.398 . S
C2066 H2054 0.950 . S
C2066 C2065 1.398 . S
C2066 C2067 1.391 . S
C2067 H2055 0.950 . S
C2067 C2063 1.393 . S
C2067 C2066 1.391 . S
H2068 C2076 0.950 . S
H2069 C2081 0.950 . S
H2070 C2078 0.950 . S
H2071 C2080 0.950 . S
H2072 C2082 0.950 . S
H2073 C2084 0.950 . S
H2074 C2086 0.950 . S
H2075 C2087 0.950 . S
C2076 H2068 0.950 . S
C2076 C2077 1.386 . S
C2076 C2078 1.391 . S
C2077 C2076 1.386 . S
C2077 C2081 1.393 . S
C2078 H2070 0.950 . S
C2078 C2076 1.391 . S
C2078 C2079 1.400 . S
C2079 C2078 1.400 . S
C2079 C2080 1.398 . S
C2079 C2085 1.491 . S
C2080 H2071 0.950 . S
C2080 C2079 1.398 . S
C2080 C2081 1.391 . S
C2081 H2069 0.950 . S
C2081 C2077 1.393 . S
C2081 C2080 1.391 . S
C2082 H2072 0.950 . S
C2082 C2083 1.386 . S
C2082 C2084 1.391 . S
C2083 C2082 1.386 . S
C2083 C2087 1.393 . S
C2084 H2073 0.950 . S
C2084 C2082 1.391 . S
C2084 C2085 1.400 . S
C2085 C2079 1.491 . S
C2085 C2084 1.400 . S
C2085 C2086 1.398 . S
C2086 H2074 0.950 . S
C2086 C2085 1.398 . S
C2086 C2087 1.391 . S
C2087 H2075 0.950 . S
C2087 C2083 1.393 . S
C2087 C2086 1.391 . S
H2088 C2096 0.950 . S
H2089 C2101 0.950 . S
H2090 C2098 0.950 . S
H2091 C2100 0.950 . S
H2092 C2102 0.950 . S
H2093 C2104 0.950 . S
H2094 C2106 0.950 . S
H2095 C2107 0.950 . S
C2096 H2088 0.950 . S
C2096 C2097 1.386 . S
C2096 C2098 1.391 . S
C2097 C2096 1.386 . S
C2097 C2101 1.393 . S
C2098 H2090 0.950 . S
C2098 C2096 1.391 . S
C2098 C2099 1.400 . S
C2099 C2098 1.400 . S
C2099 C2100 1.398 . S
C2099 C2105 1.491 . S
C2100 H2091 0.950 . S
C2100 C2099 1.398 . S
C2100 C2101 1.391 . S
C2101 H2089 0.950 . S
C2101 C2097 1.393 . S
C2101 C2100 1.391 . S
C2102 H2092 0.950 . S
C2102 C2103 1.386 . S
C2102 C2104 1.391 . S
C2103 C2102 1.386 . S
C2103 C2107 1.393 . S
C2104 H2093 0.950 . S
C2104 C2102 1.391 . S
C2104 C2105 1.400 . S
C2105 C2099 1.491 . S
C2105 C2104 1.400 . S
C2105 C2106 1.398 . S
C2106 H2094 0.950 . S
C2106 C2105 1.398 . S
C2106 C2107 1.391 . S
C2107 H2095 0.950 . S
C2107 C2103 1.393 . S
C2107 C2106 1.391 . S
H2108 C2116 0.950 . S
H2109 C2121 0.950 . S
H2110 C2118 0.950 . S
H2111 C2120 0.950 . S
H2112 C2122 0.950 . S
H2113 C2124 0.950 . S
H2114 C2126 0.950 . S
H2115 C2127 0.950 . S
C2116 H2108 0.950 . S
C2116 C2117 1.386 . S
C2116 C2118 1.391 . S
C2117 C2116 1.386 . S
C2117 C2121 1.393 . S
C2118 H2110 0.950 . S
C2118 C2116 1.391 . S
C2118 C2119 1.400 . S
C2119 C2118 1.400 . S
C2119 C2120 1.398 . S
C2119 C2125 1.491 . S
C2120 H2111 0.950 . S
C2120 C2119 1.398 . S
C2120 C2121 1.391 . S
C2121 H2109 0.950 . S
C2121 C2117 1.393 . S
C2121 C2120 1.391 . S
C2122 H2112 0.950 . S
C2122 C2123 1.386 . S
C2122 C2124 1.391 . S
C2123 C2122 1.386 . S
C2123 C2127 1.393 . S
C2124 H2113 0.950 . S
C2124 C2122 1.391 . S
C2124 C2125 1.400 . S
C2125 C2119 1.491 . S
C2125 C2124 1.400 . S
C2125 C2126 1.398 . S
C2126 H2114 0.950 . S
C2126 C2125 1.398 . S
C2126 C2127 1.391 . S
C2127 H2115 0.950 . S
C2127 C2123 1.393 . S
C2127 C2126 1.391 . S
H2128 C2136 0.950 . S
H2129 C2141 0.950 . S
H2130 C2138 0.950 . S
H2131 C2140 0.950 . S
H2132 C2142 0.950 . S
H2133 C2144 0.950 . S
H2134 C2146 0.950 . S
H2135 C2147 0.950 . S
C2136 H2128 0.950 . S
C2136 C2137 1.386 . S
C2136 C2138 1.391 . S
C2137 C2136 1.386 . S
C2137 C2141 1.393 . S
C2138 H2130 0.950 . S
C2138 C2136 1.391 . S
C2138 C2139 1.400 . S
C2139 C2138 1.400 . S
C2139 C2140 1.398 . S
C2139 C2145 1.491 . S
C2140 H2131 0.950 . S
C2140 C2139 1.398 . S
C2140 C2141 1.391 . S
C2141 H2129 0.950 . S
C2141 C2137 1.393 . S
C2141 C2140 1.391 . S
C2142 H2132 0.950 . S
C2142 C2143 1.386 . S
C2142 C2144 1.391 . S
C2143 C2142 1.386 . S
C2143 C2147 1.393 . S
C2144 H2133 0.950 . S
C2144 C2142 1.391 . S
C2144 C2145 1.400 . S
C2145 C2139 1.491 . S
C2145 C2144 1.400 . S
C2145 C2146 1.398 . S
C2146 H2134 0.950 . S
C2146 C2145 1.398 . S
C2146 C2147 1.391 . S
C2147 H2135 0.950 . S
C2147 C2143 1.393 . S
C2147 C2146 1.391 . S
H2148 C2156 0.950 . S
H2149 C2161 0.950 . S
H2150 C2158 0.950 . S
H2151 C2160 0.950 . S
H2152 C2162 0.950 . S
H2153 C2164 0.950 . S
H2154 C2166 0.950 . S
H2155 C2167 0.950 . S
C2156 H2148 0.950 . S
C2156 C2157 1.386 . S
C2156 C2158 1.391 . S
C2157 C2156 1.386 . S
C2157 C2161 1.393 . S
C2158 H2150 0.950 . S
C2158 C2156 1.391 . S
C2158 C2159 1.400 . S
C2159 C2158 1.400 . S
C2159 C2160 1.398 . S
C2159 C2165 1.491 . S
C2160 H2151 0.950 . S
C2160 C2159 1.398 . S
C2160 C2161 1.391 . S
C2161 H2149 0.950 . S
C2161 C2157 1.393 . S
C2161 C2160 1.391 . S
C2162 H2152 0.950 . S
C2162 C2163 1.386 . S
C2162 C2164 1.391 . S
C2163 C2162 1.386 . S
C2163 C2167 1.393 . S
C2164 H2153 0.950 . S
C2164 C2162 1.391 . S
C2164 C2165 1.400 . S
C2165 C2159 1.491 . S
C2165 C2164 1.400 . S
C2165 C2166 1.398 . S
C2166 H2154 0.950 . S
C2166 C2165 1.398 . S
C2166 C2167 1.391 . S
C2167 H2155 0.950 . S
C2167 C2163 1.393 . S
C2167 C2166 1.391 . S
H2168 C2176 0.950 . S
H2169 C2181 0.950 . S
H2170 C2178 0.950 . S
H2171 C2180 0.950 . S
H2172 C2182 0.950 . S
H2173 C2184 0.950 . S
H2174 C2186 0.950 . S
H2175 C2187 0.950 . S
C2176 H2168 0.950 . S
C2176 C2177 1.386 . S
C2176 C2178 1.391 . S
C2177 C2176 1.386 . S
C2177 C2181 1.393 . S
C2178 H2170 0.950 . S
C2178 C2176 1.391 . S
C2178 C2179 1.400 . S
C2179 C2178 1.400 . S
C2179 C2180 1.398 . S
C2179 C2185 1.491 . S
C2180 H2171 0.950 . S
C2180 C2179 1.398 . S
C2180 C2181 1.391 . S
C2181 H2169 0.950 . S
C2181 C2177 1.393 . S
C2181 C2180 1.391 . S
C2182 H2172 0.950 . S
C2182 C2183 1.386 . S
C2182 C2184 1.391 . S
C2183 C2182 1.386 . S
C2183 C2187 1.393 . S
C2184 H2173 0.950 . S
C2184 C2182 1.391 . S
C2184 C2185 1.400 . S
C2185 C2179 1.491 . S
C2185 C2184 1.400 . S
C2185 C2186 1.398 . S
C2186 H2174 0.950 . S
C2186 C2185 1.398 . S
C2186 C2187 1.391 . S
C2187 H2175 0.950 . S
C2187 C2183 1.393 . S
C2187 C2186 1.391 . S
H2188 C2196 0.950 . S
H2189 C2201 0.950 . S
H2190 C2198 0.950 . S
H2191 C2200 0.950 . S
H2192 C2202 0.950 . S
H2193 C2204 0.950 . S
H2194 C2206 0.950 . S
H2195 C2207 0.950 . S
C2196 H2188 0.950 . S
C2196 C2197 1.386 . S
C2196 C2198 1.391 . S
C2197 C2196 1.386 . S
C2197 C2201 1.393 . S
C2198 H2190 0.950 . S
C2198 C2196 1.391 . S
C2198 C2199 1.400 . S
C2199 C2198 1.400 . S
C2199 C2200 1.398 . S
C2199 C2205 1.491 . S
C2200 H2191 0.950 . S
C2200 C2199 1.398 . S
C2200 C2201 1.391 . S
C2201 H2189 0.950 . S
C2201 C2197 1.393 . S
C2201 C2200 1.391 . S
C2202 H2192 0.950 . S
C2202 C2203 1.386 . S
C2202 C2204 1.391 . S
C2203 C2202 1.386 . S
C2203 C2207 1.393 . S
C2204 H2193 0.950 . S
C2204 C2202 1.391 . S
C2204 C2205 1.400 . S
C2205 C2199 1.491 . S
C2205 C2204 1.400 . S
C2205 C2206 1.398 . S
C2206 H2194 0.950 . S
C2206 C2205 1.398 . S
C2206 C2207 1.391 . S
C2207 H2195 0.950 . S
C2207 C2203 1.393 . S
C2207 C2206 1.391 . S
H2208 C2216 0.950 . S
H2209 C2221 0.950 . S
H2210 C2218 0.950 . S
H2211 C2220 0.950 . S
H2212 C2222 0.950 . S
H2213 C2224 0.950 . S
H2214 C2226 0.950 . S
H2215 C2227 0.950 . S
C2216 H2208 0.950 . S
C2216 C2217 1.386 . S
C2216 C2218 1.391 . S
C2217 C2216 1.386 . S
C2217 C2221 1.393 . S
C2218 H2210 0.950 . S
C2218 C2216 1.391 . S
C2218 C2219 1.400 . S
C2219 C2218 1.400 . S
C2219 C2220 1.398 . S
C2219 C2225 1.491 . S
C2220 H2211 0.950 . S
C2220 C2219 1.398 . S
C2220 C2221 1.391 . S
C2221 H2209 0.950 . S
C2221 C2217 1.393 . S
C2221 C2220 1.391 . S
C2222 H2212 0.950 . S
C2222 C2223 1.386 . S
C2222 C2224 1.391 . S
C2223 C2222 1.386 . S
C2223 C2227 1.393 . S
C2224 H2213 0.950 . S
C2224 C2222 1.391 . S
C2224 C2225 1.400 . S
C2225 C2219 1.491 . S
C2225 C2224 1.400 . S
C2225 C2226 1.398 . S
C2226 H2214 0.950 . S
C2226 C2225 1.398 . S
C2226 C2227 1.391 . S
C2227 H2215 0.950 . S
C2227 C2223 1.393 . S
C2227 C2226 1.391 . S
H2228 C2236 0.950 . S
H2229 C2241 0.950 . S
H2230 C2238 0.950 . S
H2231 C2240 0.950 . S
H2232 C2242 0.950 . S
H2233 C2244 0.950 . S
H2234 C2246 0.950 . S
H2235 C2247 0.950 . S
C2236 H2228 0.950 . S
C2236 C2237 1.386 . S
C2236 C2238 1.391 . S
C2237 C2236 1.386 . S
C2237 C2241 1.393 . S
C2238 H2230 0.950 . S
C2238 C2236 1.391 . S
C2238 C2239 1.400 . S
C2239 C2238 1.400 . S
C2239 C2240 1.398 . S
C2239 C2245 1.491 . S
C2240 H2231 0.950 . S
C2240 C2239 1.398 . S
C2240 C2241 1.391 . S
C2241 H2229 0.950 . S
C2241 C2237 1.393 . S
C2241 C2240 1.391 . S
C2242 H2232 0.950 . S
C2242 C2243 1.386 . S
C2242 C2244 1.391 . S
C2243 C2242 1.386 . S
C2243 C2247 1.393 . S
C2244 H2233 0.950 . S
C2244 C2242 1.391 . S
C2244 C2245 1.400 . S
C2245 C2239 1.491 . S
C2245 C2244 1.400 . S
C2245 C2246 1.398 . S
C2246 H2234 0.950 . S
C2246 C2245 1.398 . S
C2246 C2247 1.391 . S
C2247 H2235 0.950 . S
C2247 C2243 1.393 . S
C2247 C2246 1.391 . S
H2248 C2256 0.950 . S
H2249 C2261 0.950 . S
H2250 C2258 0.950 . S
H2251 C2260 0.950 . S
H2252 C2262 0.950 . S
H2253 C2264 0.950 . S
H2254 C2266 0.950 . S
H2255 C2267 0.950 . S
C2256 H2248 0.950 . S
C2256 C2257 1.386 . S
C2256 C2258 1.391 . S
C2257 C2256 1.386 . S
C2257 C2261 1.393 . S
C2258 H2250 0.950 . S
C2258 C2256 1.391 . S
C2258 C2259 1.400 . S
C2259 C2258 1.400 . S
C2259 C2260 1.398 . S
C2259 C2265 1.491 . S
C2260 H2251 0.950 . S
C2260 C2259 1.398 . S
C2260 C2261 1.391 . S
C2261 H2249 0.950 . S
C2261 C2257 1.393 . S
C2261 C2260 1.391 . S
C2262 H2252 0.950 . S
C2262 C2263 1.386 . S
C2262 C2264 1.391 . S
C2263 C2262 1.386 . S
C2263 C2267 1.393 . S
C2264 H2253 0.950 . S
C2264 C2262 1.391 . S
C2264 C2265 1.400 . S
C2265 C2259 1.491 . S
C2265 C2264 1.400 . S
C2265 C2266 1.398 . S
C2266 H2254 0.950 . S
C2266 C2265 1.398 . S
C2266 C2267 1.391 . S
C2267 H2255 0.950 . S
C2267 C2263 1.393 . S
C2267 C2266 1.391 . S
H2268 C2276 0.950 . S
H2269 C2281 0.950 . S
H2270 C2278 0.950 . S
H2271 C2280 0.950 . S
H2272 C2282 0.950 . S
H2273 C2284 0.950 . S
H2274 C2286 0.950 . S
H2275 C2287 0.950 . S
C2276 H2268 0.950 . S
C2276 C2277 1.386 . S
C2276 C2278 1.391 . S
C2277 C2276 1.386 . S
C2277 C2281 1.393 . S
C2278 H2270 0.950 . S
C2278 C2276 1.391 . S
C2278 C2279 1.400 . S
C2279 C2278 1.400 . S
C2279 C2280 1.398 . S
C2279 C2285 1.491 . S
C2280 H2271 0.950 . S
C2280 C2279 1.398 . S
C2280 C2281 1.391 . S
C2281 H2269 0.950 . S
C2281 C2277 1.393 . S
C2281 C2280 1.391 . S
C2282 H2272 0.950 . S
C2282 C2283 1.386 . S
C2282 C2284 1.391 . S
C2283 C2282 1.386 . S
C2283 C2287 1.393 . S
C2284 H2273 0.950 . S
C2284 C2282 1.391 . S
C2284 C2285 1.400 . S
C2285 C2279 1.491 . S
C2285 C2284 1.400 . S
C2285 C2286 1.398 . S
C2286 H2274 0.950 . S
C2286 C2285 1.398 . S
C2286 C2287 1.391 . S
C2287 H2275 0.950 . S
C2287 C2283 1.393 . S
C2287 C2286 1.391 . S
H2288 C2296 0.950 . S
H2289 C2301 0.950 . S
H2290 C2298 0.950 . S
H2291 C2300 0.950 . S
H2292 C2302 0.950 . S
H2293 C2304 0.950 . S
H2294 C2306 0.950 . S
H2295 C2307 0.950 . S
C2296 H2288 0.950 . S
C2296 C2297 1.386 . S
C2296 C2298 1.391 . S
C2297 C2296 1.386 . S
C2297 C2301 1.393 . S
C2298 H2290 0.950 . S
C2298 C2296 1.391 . S
C2298 C2299 1.400 . S
C2299 C2298 1.400 . S
C2299 C2300 1.398 . S
C2299 C2305 1.491 . S
C2300 H2291 0.950 . S
C2300 C2299 1.398 . S
C2300 C2301 1.391 . S
C2301 H2289 0.950 . S
C2301 C2297 1.393 . S
C2301 C2300 1.391 . S
C2302 H2292 0.950 . S
C2302 C2303 1.386 . S
C2302 C2304 1.391 . S
C2303 C2302 1.386 . S
C2303 C2307 1.393 . S
C2304 H2293 0.950 . S
C2304 C2302 1.391 . S
C2304 C2305 1.400 . S
C2305 C2299 1.491 . S
C2305 C2304 1.400 . S
C2305 C2306 1.398 . S
C2306 H2294 0.950 . S
C2306 C2305 1.398 . S
C2306 C2307 1.391 . S
C2307 H2295 0.950 . S
C2307 C2303 1.393 . S
C2307 C2306 1.391 . S
H2308 C2316 0.950 . S
H2309 C2321 0.950 . S
H2310 C2318 0.950 . S
H2311 C2320 0.950 . S
H2312 C2322 0.950 . S
H2313 C2324 0.950 . S
H2314 C2326 0.950 . S
H2315 C2327 0.950 . S
C2316 H2308 0.950 . S
C2316 C2317 1.386 . S
C2316 C2318 1.391 . S
C2317 C2316 1.386 . S
C2317 C2321 1.393 . S
C2318 H2310 0.950 . S
C2318 C2316 1.391 . S
C2318 C2319 1.400 . S
C2319 C2318 1.400 . S
C2319 C2320 1.398 . S
C2319 C2325 1.491 . S
C2320 H2311 0.950 . S
C2320 C2319 1.398 . S
C2320 C2321 1.391 . S
C2321 H2309 0.950 . S
C2321 C2317 1.393 . S
C2321 C2320 1.391 . S
C2322 H2312 0.950 . S
C2322 C2323 1.386 . S
C2322 C2324 1.391 . S
C2323 C2322 1.386 . S
C2323 C2327 1.393 . S
C2324 H2313 0.950 . S
C2324 C2322 1.391 . S
C2324 C2325 1.400 . S
C2325 C2319 1.491 . S
C2325 C2324 1.400 . S
C2325 C2326 1.398 . S
C2326 H2314 0.950 . S
C2326 C2325 1.398 . S
C2326 C2327 1.391 . S
C2327 H2315 0.950 . S
C2327 C2323 1.393 . S
C2327 C2326 1.391 . S
H2328 C2336 0.950 . S
H2329 C2341 0.950 . S
H2330 C2338 0.950 . S
H2331 C2340 0.950 . S
H2332 C2342 0.950 . S
H2333 C2344 0.950 . S
H2334 C2346 0.950 . S
H2335 C2347 0.950 . S
C2336 H2328 0.950 . S
C2336 C2337 1.386 . S
C2336 C2338 1.391 . S
C2337 C2336 1.386 . S
C2337 C2341 1.393 . S
C2338 H2330 0.950 . S
C2338 C2336 1.391 . S
C2338 C2339 1.400 . S
C2339 C2338 1.400 . S
C2339 C2340 1.398 . S
C2339 C2345 1.491 . S
C2340 H2331 0.950 . S
C2340 C2339 1.398 . S
C2340 C2341 1.391 . S
C2341 H2329 0.950 . S
C2341 C2337 1.393 . S
C2341 C2340 1.391 . S
C2342 H2332 0.950 . S
C2342 C2343 1.386 . S
C2342 C2344 1.391 . S
C2343 C2342 1.386 . S
C2343 C2347 1.393 . S
C2344 H2333 0.950 . S
C2344 C2342 1.391 . S
C2344 C2345 1.400 . S
C2345 C2339 1.491 . S
C2345 C2344 1.400 . S
C2345 C2346 1.398 . S
C2346 H2334 0.950 . S
C2346 C2345 1.398 . S
C2346 C2347 1.391 . S
C2347 H2335 0.950 . S
C2347 C2343 1.393 . S
C2347 C2346 1.391 . S
H2348 C2356 0.950 . S
H2349 C2361 0.950 . S
H2350 C2358 0.950 . S
H2351 C2360 0.950 . S
H2352 C2362 0.950 . S
H2353 C2364 0.950 . S
H2354 C2366 0.950 . S
H2355 C2367 0.950 . S
C2356 H2348 0.950 . S
C2356 C2357 1.386 . S
C2356 C2358 1.391 . S
C2357 C2356 1.386 . S
C2357 C2361 1.393 . S
C2358 H2350 0.950 . S
C2358 C2356 1.391 . S
C2358 C2359 1.400 . S
C2359 C2358 1.400 . S
C2359 C2360 1.398 . S
C2359 C2365 1.491 . S
C2360 H2351 0.950 . S
C2360 C2359 1.398 . S
C2360 C2361 1.391 . S
C2361 H2349 0.950 . S
C2361 C2357 1.393 . S
C2361 C2360 1.391 . S
C2362 H2352 0.950 . S
C2362 C2363 1.386 . S
C2362 C2364 1.391 . S
C2363 C2362 1.386 . S
C2363 C2367 1.393 . S
C2364 H2353 0.950 . S
C2364 C2362 1.391 . S
C2364 C2365 1.400 . S
C2365 C2359 1.491 . S
C2365 C2364 1.400 . S
C2365 C2366 1.398 . S
C2366 H2354 0.950 . S
C2366 C2365 1.398 . S
C2366 C2367 1.391 . S
C2367 H2355 0.950 . S
C2367 C2363 1.393 . S
C2367 C2366 1.391 . S
H2368 C2376 0.950 . S
H2369 C2381 0.950 . S
H2370 C2378 0.950 . S
H2371 C2380 0.950 . S
H2372 C2382 0.950 . S
H2373 C2384 0.950 . S
H2374 C2386 0.950 . S
H2375 C2387 0.950 . S
C2376 H2368 0.950 . S
C2376 C2377 1.386 . S
C2376 C2378 1.391 . S
C2377 C2376 1.386 . S
C2377 C2381 1.393 . S
C2378 H2370 0.950 . S
C2378 C2376 1.391 . S
C2378 C2379 1.400 . S
C2379 C2378 1.400 . S
C2379 C2380 1.398 . S
C2379 C2385 1.491 . S
C2380 H2371 0.950 . S
C2380 C2379 1.398 . S
C2380 C2381 1.391 . S
C2381 H2369 0.950 . S
C2381 C2377 1.393 . S
C2381 C2380 1.391 . S
C2382 H2372 0.950 . S
C2382 C2383 1.386 . S
C2382 C2384 1.391 . S
C2383 C2382 1.386 . S
C2383 C2387 1.393 . S
C2384 H2373 0.950 . S
C2384 C2382 1.391 . S
C2384 C2385 1.400 . S
C2385 C2379 1.491 . S
C2385 C2384 1.400 . S
C2385 C2386 1.398 . S
C2386 H2374 0.950 . S
C2386 C2385 1.398 . S
C2386 C2387 1.391 . S
C2387 H2375 0.950 . S
C2387 C2383 1.393 . S
C2387 C2386 1.391 . S
H2388 C2396 0.950 . S
H2389 C2401 0.950 . S
H2390 C2398 0.950 . S
H2391 C2400 0.950 . S
H2392 C2402 0.950 . S
H2393 C2404 0.950 . S
H2394 C2406 0.950 . S
H2395 C2407 0.950 . S
C2396 H2388 0.950 . S
C2396 C2397 1.386 . S
C2396 C2398 1.391 . S
C2397 C2396 1.386 . S
C2397 C2401 1.393 . S
C2398 H2390 0.950 . S
C2398 C2396 1.391 . S
C2398 C2399 1.400 . S
C2399 C2398 1.400 . S
C2399 C2400 1.398 . S
C2399 C2405 1.491 . S
C2400 H2391 0.950 . S
C2400 C2399 1.398 . S
C2400 C2401 1.391 . S
C2401 H2389 0.950 . S
C2401 C2397 1.393 . S
C2401 C2400 1.391 . S
C2402 H2392 0.950 . S
C2402 C2403 1.386 . S
C2402 C2404 1.391 . S
C2403 C2402 1.386 . S
C2403 C2407 1.393 . S
C2404 H2393 0.950 . S
C2404 C2402 1.391 . S
C2404 C2405 1.400 . S
C2405 C2399 1.491 . S
C2405 C2404 1.400 . S
C2405 C2406 1.398 . S
C2406 H2394 0.950 . S
C2406 C2405 1.398 . S
C2406 C2407 1.391 . S
C2407 H2395 0.950 . S
C2407 C2403 1.393 . S
C2407 C2406 1.391 . S
H2408 C2416 0.950 . S
H2409 C2421 0.950 . S
H2410 C2418 0.950 . S
H2411 C2420 0.950 . S
H2412 C2422 0.950 . S
H2413 C2424 0.950 . S
H2414 C2426 0.950 . S
H2415 C2427 0.950 . S
C2416 H2408 0.950 . S
C2416 C2417 1.386 . S
C2416 C2418 1.391 . S
C2417 C2416 1.386 . S
C2417 C2421 1.393 . S
C2418 H2410 0.950 . S
C2418 C2416 1.391 . S
C2418 C2419 1.400 . S
C2419 C2418 1.400 . S
C2419 C2420 1.398 . S
C2419 C2425 1.491 . S
C2420 H2411 0.950 . S
C2420 C2419 1.398 . S
C2420 C2421 1.391 . S
C2421 H2409 0.950 . S
C2421 C2417 1.393 . S
C2421 C2420 1.391 . S
C2422 H2412 0.950 . S
C2422 C2423 1.386 . S
C2422 C2424 1.391 . S
C2423 C2422 1.386 . S
C2423 C2427 1.393 . S
C2424 H2413 0.950 . S
C2424 C2422 1.391 . S
C2424 C2425 1.400 . S
C2425 C2419 1.491 . S
C2425 C2424 1.400 . S
C2425 C2426 1.398 . S
C2426 H2414 0.950 . S
C2426 C2425 1.398 . S
C2426 C2427 1.391 . S
C2427 H2415 0.950 . S
C2427 C2423 1.393 . S
C2427 C2426 1.391 . S
H2428 C2436 0.950 . S
H2429 C2441 0.950 . S
H2430 C2438 0.950 . S
H2431 C2440 0.950 . S
H2432 C2442 0.950 . S
H2433 C2444 0.950 . S
H2434 C2446 0.950 . S
H2435 C2447 0.950 . S
C2436 H2428 0.950 . S
C2436 C2437 1.386 . S
C2436 C2438 1.391 . S
C2437 C2436 1.386 . S
C2437 C2441 1.393 . S
C2438 H2430 0.950 . S
C2438 C2436 1.391 . S
C2438 C2439 1.400 . S
C2439 C2438 1.400 . S
C2439 C2440 1.398 . S
C2439 C2445 1.491 . S
C2440 H2431 0.950 . S
C2440 C2439 1.398 . S
C2440 C2441 1.391 . S
C2441 H2429 0.950 . S
C2441 C2437 1.393 . S
C2441 C2440 1.391 . S
C2442 H2432 0.950 . S
C2442 C2443 1.386 . S
C2442 C2444 1.391 . S
C2443 C2442 1.386 . S
C2443 C2447 1.393 . S
C2444 H2433 0.950 . S
C2444 C2442 1.391 . S
C2444 C2445 1.400 . S
C2445 C2439 1.491 . S
C2445 C2444 1.400 . S
C2445 C2446 1.398 . S
C2446 H2434 0.950 . S
C2446 C2445 1.398 . S
C2446 C2447 1.391 . S
C2447 H2435 0.950 . S
C2447 C2443 1.393 . S
C2447 C2446 1.391 . S
H2448 C2456 0.950 . S
H2449 C2461 0.950 . S
H2450 C2458 0.950 . S
H2451 C2460 0.950 . S
H2452 C2462 0.950 . S
H2453 C2464 0.950 . S
H2454 C2466 0.950 . S
H2455 C2467 0.950 . S
C2456 H2448 0.950 . S
C2456 C2457 1.386 . S
C2456 C2458 1.391 . S
C2457 C2456 1.386 . S
C2457 C2461 1.393 . S
C2458 H2450 0.950 . S
C2458 C2456 1.391 . S
C2458 C2459 1.400 . S
C2459 C2458 1.400 . S
C2459 C2460 1.398 . S
C2459 C2465 1.491 . S
C2460 H2451 0.950 . S
C2460 C2459 1.398 . S
C2460 C2461 1.391 . S
C2461 H2449 0.950 . S
C2461 C2457 1.393 . S
C2461 C2460 1.391 . S
C2462 H2452 0.950 . S
C2462 C2463 1.386 . S
C2462 C2464 1.391 . S
C2463 C2462 1.386 . S
C2463 C2467 1.393 . S
C2464 H2453 0.950 . S
C2464 C2462 1.391 . S
C2464 C2465 1.400 . S
C2465 C2459 1.491 . S
C2465 C2464 1.400 . S
C2465 C2466 1.398 . S
C2466 H2454 0.950 . S
C2466 C2465 1.398 . S
C2466 C2467 1.391 . S
C2467 H2455 0.950 . S
C2467 C2463 1.393 . S
C2467 C2466 1.391 . S
H2468 C2476 0.950 . S
H2469 C2481 0.950 . S
H2470 C2478 0.950 . S
H2471 C2480 0.950 . S
H2472 C2482 0.950 . S
H2473 C2484 0.950 . S
H2474 C2486 0.950 . S
H2475 C2487 0.950 . S
C2476 H2468 0.950 . S
C2476 C2477 1.386 . S
C2476 C2478 1.391 . S
C2477 C2476 1.386 . S
C2477 C2481 1.393 . S
C2478 H2470 0.950 . S
C2478 C2476 1.391 . S
C2478 C2479 1.400 . S
C2479 C2478 1.400 . S
C2479 C2480 1.398 . S
C2479 C2485 1.491 . S
C2480 H2471 0.950 . S
C2480 C2479 1.398 . S
C2480 C2481 1.391 . S
C2481 H2469 0.950 . S
C2481 C2477 1.393 . S
C2481 C2480 1.391 . S
C2482 H2472 0.950 . S
C2482 C2483 1.386 . S
C2482 C2484 1.391 . S
C2483 C2482 1.386 . S
C2483 C2487 1.393 . S
C2484 H2473 0.950 . S
C2484 C2482 1.391 . S
C2484 C2485 1.400 . S
C2485 C2479 1.491 . S
C2485 C2484 1.400 . S
C2485 C2486 1.398 . S
C2486 H2474 0.950 . S
C2486 C2485 1.398 . S
C2486 C2487 1.391 . S
C2487 H2475 0.950 . S
C2487 C2483 1.393 . S
C2487 C2486 1.391 . S
H2488 C2496 0.950 . S
H2489 C2501 0.950 . S
H2490 C2498 0.950 . S
H2491 C2500 0.950 . S
H2492 C2502 0.950 . S
H2493 C2504 0.950 . S
H2494 C2506 0.950 . S
H2495 C2507 0.950 . S
C2496 H2488 0.950 . S
C2496 C2497 1.386 . S
C2496 C2498 1.391 . S
C2497 C2496 1.386 . S
C2497 C2501 1.393 . S
C2498 H2490 0.950 . S
C2498 C2496 1.391 . S
C2498 C2499 1.400 . S
C2499 C2498 1.400 . S
C2499 C2500 1.398 . S
C2499 C2505 1.491 . S
C2500 H2491 0.950 . S
C2500 C2499 1.398 . S
C2500 C2501 1.391 . S
C2501 H2489 0.950 . S
C2501 C2497 1.393 . S
C2501 C2500 1.391 . S
C2502 H2492 0.950 . S
C2502 C2503 1.386 . S
C2502 C2504 1.391 . S
C2503 C2502 1.386 . S
C2503 C2507 1.393 . S
C2504 H2493 0.950 . S
C2504 C2502 1.391 . S
C2504 C2505 1.400 . S
C2505 C2499 1.491 . S
C2505 C2504 1.400 . S
C2505 C2506 1.398 . S
C2506 H2494 0.950 . S
C2506 C2505 1.398 . S
C2506 C2507 1.391 . S
C2507 H2495 0.950 . S
C2507 C2503 1.393 . S
C2507 C2506 1.391 . S
C1083 C774 1.128 . S
C1077 C765 1.093 . S
C1097 C701 1.135 . S
C1103 C772 1.145 . S
C1123 C773 1.136 . S
C1117 C669 1.123 . S
C1137 C733 1.109 . S
C1143 C775 1.119 . S
C1163 C819 1.129 . S
C1157 C541 1.109 . S
C1183 C879 1.107 . S
C1177 C573 1.085 . S
C1197 C605 1.101 . S
C1203 C818 1.136 . S
C1223 C878 1.136 . S
C1217 C637 1.107 . S
C1237 C413 1.101 . S
C1243 C820 1.127 . S
C1263 C876 1.135 . S
C1257 C445 1.100 . S
C1277 C477 1.105 . S
C1283 C821 1.118 . S
C1297 C509 1.087 . S
C1303 C877 1.106 . S
C1323 C927 1.122 . S
C1317 C381 1.106 1_556 S
C1337 C317 1.138 1_554 S
C1343 C926 1.150 1_556 S
C1357 C285 1.130 1_554 S
C1363 C928 1.140 1_556 S
C1383 C929 1.113 . S
C1377 C349 1.082 . S
C1397 C157 1.114 1_455 S
C1403 C970 1.123 . S
C1417 C189 1.068 1_545 S
C1423 C1029 1.107 . S
C1437 C221 1.100 . S
C1443 C968 1.132 . S
C1457 C253 1.092 . S
C1463 C1028 1.125 . S
C1483 C969 1.133 . S
C1477 C29 1.121 1_455 S
C1503 C1026 1.137 . S
C1497 C61 1.124 1_545 S
C1517 C93 1.105 . S
C1523 C971 1.125 . S
C1543 C1027 1.119 . S
C1537 C125 1.102 1_545 S
C1563 C771 1.774 . S
C1557 C23 1.677 1_455 S
C1577 C55 1.652 1_545 S
C1583 C777 1.755 . S
C1597 C87 1.649 . S
C1603 C769 1.759 . S
C1617 C113 1.644 1_545 S
C1623 C776 1.747 . S
C1637 C151 1.657 1_455 S
C1643 C768 1.765 . S
C1663 C778 1.744 . S
C1657 C183 1.628 1_545 S
C1677 C215 1.654 . S
C1683 C770 1.769 . S
C1703 C779 1.758 . S
C1697 C247 1.660 . S
C1723 C825 1.742 . S
C1717 C119 1.628 1_545 S
C1737 C17 1.661 1_455 S
C1743 C868 1.761 . S
C1763 C823 1.752 . S
C1757 C49 1.648 1_545 S
C1783 C870 1.763 . S
C1777 C81 1.682 . S
C1797 C177 1.644 1_545 S
C1803 C824 1.741 . S
C1823 C869 1.764 . S
C1817 C209 1.676 . S
C1843 C822 1.754 . S
C1837 C241 1.682 . S
C1863 C871 1.757 . S
C1857 C145 1.669 1_455 S
C1883 C875 1.778 . S
C1877 C279 1.680 1_554 S
C1897 C305 1.682 . S
C1903 C874 1.779 . S
C1923 C826 1.774 . S
C1917 C273 1.679 . S
C1943 C873 1.755 . S
C1937 C337 1.659 . S
C1957 C375 1.660 1_556 S
C1963 C829 1.767 . S
C1977 C369 1.665 . S
C1983 C872 1.758 1_556 S
C2003 C828 1.774 1_556 S
C1997 C311 1.661 1_554 S
C2023 C827 1.771 . S
C2017 C343 1.672 . S
C2043 C921 1.773 . S
C2037 C407 1.675 . S
C2063 C924 1.763 . S
C2057 C439 1.663 . S
C2077 C471 1.643 . S
C2083 C920 1.759 . S
C2103 C922 1.747 . S
C2097 C497 1.668 . S
C2123 C918 1.766 . S
C2117 C535 1.671 . S
C2137 C561 1.648 . S
C2143 C923 1.745 . S
C2157 C599 1.676 . S
C2163 C919 1.774 . S
C2183 C925 1.762 . S
C2177 C631 1.665 . S
C2203 C979 1.739 . S
C2197 C503 1.623 . S
C2217 C401 1.658 . S
C2223 C1018 1.753 . S
C2243 C978 1.752 . S
C2237 C433 1.668 . S
C2263 C1020 1.758 . S
C2257 C465 1.670 . S
C2283 C977 1.738 . S
C2277 C567 1.624 . S
C2297 C593 1.688 . S
C2303 C1019 1.769 . S
C2323 C976 1.752 . S
C2317 C625 1.653 . S
C2343 C1021 1.766 . S
C2337 C529 1.688 . S
C2363 C1025 1.772 . S
C2357 C663 1.663 . S
C2377 C689 1.696 . S
C2383 C1024 1.776 . S
C2403 C972 1.780 . S
C2397 C657 1.701 . S
C2417 C721 1.661 . S
C2423 C1023 1.759 . S
C2443 C975 1.767 . S
C2437 C759 1.657 . S
C2463 C1022 1.762 . S
C2457 C753 1.662 . S
C2483 C973 1.775 . S
C2477 C695 1.670 . S
C2497 C727 1.664 . S
C2503 C974 1.770 . S
