# Generated by pormake.
# Topology anh, (6,3)-cn, num edge types: 1
# Building blocks:
#     Node 0, Type 0, BuildingBlock: BETDIP_clean_sbu_0, # of connection points: 6
#     Node 1, Type 0, BuildingBlock: BETDIP_clean_sbu_0, # of connection points: 6
#     Node 2, Type 0, BuildingBlock: BETDIP_clean_sbu_0, # of connection points: 6
#     Node 3, Type 1, BuildingBlock: BETDAH_clean_linker_0, # of connection points: 3
#     Node 4, Type 1, BuildingBlock: BETDAH_clean_linker_0, # of connection points: 3
#     Node 5, Type 1, BuildingBlock: BETDAH_clean_linker_0, # of connection points: 3
#     Node 6, Type 1, BuildingBlock: BETDAH_clean_linker_0, # of connection points: 3
#     Node 7, Type 1, BuildingBlock: BETDAH_clean_linker_0, # of connection points: 3
#     Node 8, Type 1, BuildingBlock: BETDAH_clean_linker_0, # of connection points: 3
#     Edge 9, Type (0, 1), BuildingBlock: UVAHIK_clean_linker_0, # of connection points: 2
#     Edge 10, Type (0, 1), BuildingBlock: UVAHIK_clean_linker_0, # of connection points: 2
#     Edge 11, Type (0, 1), BuildingBlock: UVAHIK_clean_linker_0, # of connection points: 2
#     Edge 12, Type (0, 1), BuildingBlock: UVAHIK_clean_linker_0, # of connection points: 2
#     Edge 13, Type (0, 1), BuildingBlock: UVAHIK_clean_linker_0, # of connection points: 2
#     Edge 14, Type (0, 1), BuildingBlock: UVAHIK_clean_linker_0, # of connection points: 2
#     Edge 15, Type (0, 1), BuildingBlock: UVAHIK_clean_linker_0, # of connection points: 2
#     Edge 16, Type (0, 1), BuildingBlock: UVAHIK_clean_linker_0, # of connection points: 2
#     Edge 17, Type (0, 1), BuildingBlock: UVAHIK_clean_linker_0, # of connection points: 2
#     Edge 18, Type (0, 1), BuildingBlock: UVAHIK_clean_linker_0, # of connection points: 2
#     Edge 19, Type (0, 1), BuildingBlock: UVAHIK_clean_linker_0, # of connection points: 2
#     Edge 20, Type (0, 1), BuildingBlock: UVAHIK_clean_linker_0, # of connection points: 2
#     Edge 21, Type (0, 1), BuildingBlock: UVAHIK_clean_linker_0, # of connection points: 2
#     Edge 22, Type (0, 1), BuildingBlock: UVAHIK_clean_linker_0, # of connection points: 2
#     Edge 23, Type (0, 1), BuildingBlock: UVAHIK_clean_linker_0, # of connection points: 2
#     Edge 24, Type (0, 1), BuildingBlock: UVAHIK_clean_linker_0, # of connection points: 2
#     Edge 25, Type (0, 1), BuildingBlock: UVAHIK_clean_linker_0, # of connection points: 2
#     Edge 26, Type (0, 1), BuildingBlock: UVAHIK_clean_linker_0, # of connection points: 2
# Relax obj value: 0.187
# Max RMSD: 0.145
# Mean RMSD: 0.111
data_MOF--net-anh--node1-BETDIP_clean_sbu_0--node2-BETDAH_clean_linker_0--edge1-UVAHIK_clean_linker_0
_symmetry_space_group_name_H-M    P1
_symmetry_Int_Tables_number       1
_symmetry_cell_setting            triclinic
loop_
_symmetry_equiv_pos_as_xyz
'x, y, z'
_cell_length_a     40.154108
_cell_length_b     40.404345
_cell_length_c     63.587821
_cell_angle_alpha  92.495177
_cell_angle_beta   91.696041
_cell_angle_gamma 119.92078
loop_
_atom_site_label
_atom_site_type_symbol
_atom_site_fract_x
_atom_site_fract_y
_atom_site_fract_z
_atom_type_partial_charge
Tb0 Tb 0.11179 0.60152 0.16271 0.0
Tb1 Tb 0.07339 0.51759 0.15292 0.0
C2 C 0.15168 0.66775 0.1799 0.0
C3 C 0.19116 0.69988 0.17947 0.0
C4 C 0.20806 0.72451 0.19758 0.0
C5 C 0.24374 0.75772 0.19694 0.0
C6 C 0.263 0.76694 0.1781 0.0
C7 C 0.2467 0.74137 0.16017 0.0
C8 C 0.2111 0.70792 0.16088 0.0
C9 C 0.09618 0.57948 0.12244 0.0
C10 C 0.16475 0.56112 0.15575 0.0
C11 C 1.03211 0.45151 0.13561 0.0
C12 C 0.99336 0.43226 0.12504 0.0
C13 C 0.98572 0.40992 0.10607 0.0
C14 C 0.94906 0.39237 0.09572 0.0
C15 C 0.91975 0.39737 0.10414 0.0
C16 C 0.92787 0.4203 0.12297 0.0
C17 C 0.96422 0.43752 0.1333 0.0
C18 C 0.08883 0.53918 0.19356 0.0
C19 C 1.02191 0.55929 0.15542 0.0
O20 O 0.14736 0.63711 0.18857 0.0
O21 O 0.13001 0.65969 0.16252 0.0
O22 O 0.10795 0.56611 0.13633 0.0
O23 O 0.095 0.60872 0.1307 0.0
O24 O 0.16294 0.59262 0.16112 0.0
O25 O 0.13256 0.52802 0.15095 0.0
O26 O 1.05828 0.48009 0.12596 0.0
O27 O 1.03434 0.45947 0.15597 0.0
O28 O 0.07675 0.55321 0.17997 0.0
O29 O 0.0905 0.51059 0.18462 0.0
O30 O 1.02544 0.53025 0.14728 0.0
O31 O 1.05206 0.5888 0.16576 0.0
H32 H 0.19303 0.71873 0.21204 0.0
H33 H 0.25535 0.77711 0.21094 0.0
H34 H 0.2611 0.74766 0.14552 0.0
H35 H 0.19861 0.689 0.14675 0.0
H36 H 1.00806 0.40599 0.09931 0.0
H37 H 0.9436 0.37488 0.08123 0.0
H38 H 0.90574 0.42408 0.13013 0.0
H39 H 0.96936 0.45477 0.14784 0.0
Tb40 Tb 0.59966 0.06089 0.49488 0.0
Tb41 Tb 0.55339 0.10212 0.48386 0.0
C42 C 0.62764 1.02565 0.51288 0.0
C43 C 0.61802 0.99221 0.52525 0.0
C44 C 0.62592 0.9973 0.5472 0.0
C45 C 0.6262 0.96838 0.55834 0.0
C46 C 0.6189 0.93396 0.54771 0.0
C47 C 0.60765 0.92767 0.52608 0.0
C48 C 0.60732 0.95653 0.51496 0.0
C49 C 0.59647 0.07533 0.45541 0.0
C50 C 0.50538 1.011 0.48701 0.0
C51 C 0.53117 0.14065 0.46471 0.0
C52 C 0.54799 0.18243 0.46812 0.0
C53 C 0.56678 0.20587 0.45168 0.0
C54 C 0.59465 0.24438 0.45616 0.0
C55 C 0.60407 0.25978 0.47713 0.0
C56 C 0.58252 0.23737 0.49324 0.0
C57 C 0.5547 0.19909 0.48879 0.0
C58 C 0.56788 0.1049 0.52552 0.0
C59 C 0.64735 0.15146 0.48945 0.0
O60 O 0.62588 0.05443 0.52211 0.0
O61 O 0.61578 1.01913 0.49287 0.0
O62 O 0.57 0.06562 0.46802 0.0
O63 O 0.62549 0.07457 0.46445 0.0
O64 O 0.53821 1.01281 0.49402 0.0
O65 O 0.50507 1.04217 0.48099 0.0
O66 O 0.55531 0.13098 0.45707 0.0
O67 O 0.51245 0.11973 0.48022 0.0
O68 O 0.5763 0.08995 0.51054 0.0
O69 O 0.54995 0.12054 0.51691 0.0
O70 O 0.61429 0.14906 0.48288 0.0
O71 O 0.64795 0.12123 0.49679 0.0
H72 H 0.63431 1.0245 0.55558 0.0
H73 H 0.63442 0.97385 0.57506 0.0
H74 H 0.60219 0.90168 0.51734 0.0
H75 H 0.60124 0.95169 0.49804 0.0
H76 H 0.56245 0.19358 0.43566 0.0
H77 H 0.61082 0.26119 0.44346 0.0
H78 H 0.58874 0.24889 0.50949 0.0
H79 H 0.5409 0.18192 0.50186 0.0
Tb80 Tb 0.56973 0.58835 0.8244 0.0
Tb81 Tb 0.65402 0.63394 0.8238 0.0
C82 C 0.5016 0.55947 0.83513 0.0
C83 C 0.46598 0.56134 0.83242 0.0
C84 C 0.44879 0.56572 0.85041 0.0
C85 C 0.41108 0.5589 0.84892 0.0
C86 C 0.38977 0.5472 0.82942 0.0
C87 C 0.40796 0.54554 0.81119 0.0
C88 C 0.44578 0.55265 0.81265 0.0
C89 C 0.59563 0.59728 0.78646 0.0
C90 C 0.6106 0.68152 0.82133 0.0
C91 C 0.72346 0.66043 0.81574 0.0
C92 C 0.74873 0.64394 0.81562 0.0
C93 C 0.78213 0.66035 0.80433 0.0
C94 C 0.80519 0.64344 0.8034 0.0
C95 C 0.79466 0.60959 0.81348 0.0
C96 C 0.76123 0.59342 0.82483 0.0
C97 C 0.73859 0.61057 0.82599 0.0
C98 C 0.62709 0.62413 0.86193 0.0
C99 C 0.61276 0.54083 0.82204 0.0
O100 O 0.53093 0.58744 0.84628 0.0
O101 O 0.51199 0.54688 0.81874 0.0
O102 O 0.60836 0.62175 0.8018 0.0
O103 O 0.56464 0.56717 0.79141 0.0
O104 O 0.57884 0.64841 0.8247 0.0
O105 O 0.64351 0.68187 0.81863 0.0
O106 O 0.695 0.64508 0.8014 0.0
O107 O 0.71232 0.66511 0.8342 0.0
O108 O 0.6154 0.59922 0.84668 0.0
O109 O 0.65566 0.65557 0.85618 0.0
O110 O 0.64359 0.57407 0.81831 0.0
O111 O 0.58112 0.54055 0.82783 0.0
H112 H 0.46367 0.5721 0.86583 0.0
H113 H 0.39773 0.5601 0.86328 0.0
H114 H 0.39231 0.53701 0.79593 0.0
H115 H 0.4583 0.54919 0.79846 0.0
H116 H 0.7902 0.68604 0.79616 0.0
H117 H 0.83087 0.65644 0.79458 0.0
H118 H 0.75286 0.56774 0.83307 0.0
H119 H 0.7131 0.59767 0.83494 0.0
H120 H 0.53128 0.13021 0.24485 0.0
H121 H 0.60718 0.2523 0.24921 0.0
H122 H 0.54493 0.19385 0.1904 0.0
C123 C 0.54454 0.15742 0.23763 0.0
C124 C 0.53503 0.15845 0.21644 0.0
C125 C 0.57094 0.19093 0.24956 0.0
C126 C 0.58677 0.22611 0.24019 0.0
C127 C 0.57808 0.22732 0.21878 0.0
C128 C 0.55228 0.19324 0.20686 0.0
N129 N 0.59615 0.26295 0.20945 0.0
C130 C 0.60548 0.26567 0.18851 0.0
H131 H 0.79385 0.59244 0.59527 0.0
H132 H 0.81913 0.709 0.59991 0.0
H133 H 0.85369 0.66736 0.54644 0.0
C134 C 0.80768 0.62068 0.58925 0.0
C135 C 0.8249 0.62645 0.56978 0.0
C136 C 0.80511 0.65027 0.60005 0.0
C137 C 0.82085 0.68608 0.59153 0.0
C138 C 0.83838 0.69233 0.57221 0.0
C139 C 0.84097 0.66271 0.56161 0.0
N140 N 0.85093 0.72722 0.56248 0.0
C141 C 0.83174 0.74766 0.56483 0.0
H142 H 0.93363 0.41617 0.91803 0.0
H143 H 0.95596 0.32391 0.92802 0.0
H144 H 0.94792 0.35557 0.86527 0.0
C145 C 0.9376 0.39296 0.91194 0.0
C146 C 0.93851 0.38741 0.89012 0.0
C147 C 0.94354 0.3701 0.92589 0.0
C148 C 0.95017 0.34116 0.91758 0.0
C149 C 0.95224 0.33624 0.8958 0.0
C150 C 0.94567 0.35894 0.88208 0.0
N151 N 0.96641 0.31253 0.88808 0.0
C152 C 0.9995 0.32898 0.87695 0.0
H153 H 0.15038 0.64772 0.41868 0.0
H154 H 1.04505 0.54402 0.42825 0.0
H155 H 0.11559 0.61845 0.48183 0.0
C156 C 0.1303 0.62864 0.42948 0.0
C157 C 0.13843 0.63791 0.45134 0.0
C158 C 0.09703 0.59523 0.42106 0.0
C159 C 1.07051 0.5697 0.43478 0.0
C160 C 0.07634 0.57764 0.4568 0.0
C161 C 0.1105 0.61216 0.46493 0.0
N162 N 1.04897 0.55201 0.4711 0.0
C163 C 1.01391 0.51651 0.46681 0.0
H164 H 0.60422 0.18039 0.75122 0.0
H165 H 0.60771 0.07734 0.76092 0.0
H166 H 0.61286 0.14995 0.81431 0.0
C167 C 0.60714 0.16176 0.76192 0.0
C168 C 0.61037 0.17122 0.78378 0.0
C169 C 0.60682 0.12869 0.7534 0.0
C170 C 0.6077 0.10264 0.76725 0.0
C171 C 0.60931 0.10939 0.78928 0.0
C172 C 0.61076 0.14402 0.79741 0.0
N173 N 0.61014 0.0827 0.8036 0.0
C174 C 0.60897 0.04711 0.79923 0.0
H175 H 0.673 0.5714 0.08264 0.0
H176 H 0.56853 0.57279 0.09368 0.0
H177 H 0.63506 0.56476 0.14586 0.0
C178 C 0.65262 0.57072 0.09367 0.0
C179 C 0.65934 0.56854 0.11533 0.0
C180 C 0.62023 0.57224 0.08581 0.0
C181 C 0.59329 0.57151 0.09981 0.0
C182 C 0.5978 0.56834 0.12153 0.0
C183 C 0.631 0.56671 0.12914 0.0
N184 N 0.57002 0.56691 0.13606 0.0
C185 C 0.53547 0.56797 0.13203 0.0
C186 C 0.2392 0.59748 0.15714 0.0
C187 C 0.20361 0.56301 0.15363 0.0
C188 C 0.27493 0.59878 0.15457 0.0
C189 C 0.3184 0.54092 0.13067 0.0
H190 H 0.41033 0.61474 0.16383 0.0
C191 C 0.46254 0.53469 0.12866 0.0
C192 C 0.49848 0.56849 0.13234 0.0
C193 C 0.42735 0.53459 0.13079 0.0
C194 C 0.3853 0.59407 0.15411 0.0
H195 H 0.17931 0.50265 0.14468 0.0
H196 H 0.24038 0.50469 0.14055 0.0
H197 H 0.34979 0.61374 0.16845 0.0
H198 H 0.52472 0.62887 0.14138 0.0
H199 H 0.46417 0.62912 0.14471 0.0
H200 H 0.35381 0.52124 0.11632 0.0
C201 C 0.24114 0.53123 0.14496 0.0
C202 C 0.34998 0.59349 0.15682 0.0
C203 C 0.20556 0.52996 0.14754 0.0
C204 C 0.49783 0.60225 0.13818 0.0
C205 C 0.46268 0.60221 0.14035 0.0
C206 C 0.35367 0.5415 0.12797 0.0
C207 C 0.27689 0.56567 0.1483 0.0
C208 C 0.31546 0.5668 0.14523 0.0
C209 C 0.42638 0.56831 0.13684 0.0
C210 C 0.38815 0.56802 0.13964 0.0
H211 H 0.23956 0.62378 0.16174 0.0
H212 H 0.3011 0.62618 0.15716 0.0
H213 H 0.29341 0.52025 0.12093 0.0
H214 H 0.46155 0.50793 0.12446 0.0
H215 H 0.40079 0.50754 0.12817 0.0
C216 C 0.7216 0.19354 0.49273 0.0
C217 C 0.68511 0.1894 0.48769 0.0
C218 C 0.75643 0.22838 0.49035 0.0
C219 C 0.79713 0.33514 0.48176 0.0
H220 H 0.88897 0.33181 0.46866 0.0
C221 C 0.94071 0.47601 0.46269 0.0
C222 C 0.97686 0.47914 0.46719 0.0
C223 C 0.90557 0.44129 0.46484 0.0
C224 C 0.86405 0.33392 0.4726 0.0
H225 H 0.65833 0.22073 0.47603 0.0
H226 H 0.71801 0.28045 0.47188 0.0
H227 H 0.82939 0.27271 0.47328 0.0
H228 H 1.0033 0.44712 0.47787 0.0
H229 H 0.94313 0.38742 0.4817 0.0
H230 H 0.83182 0.39638 0.48113 0.0
C231 C 0.72009 0.25691 0.47796 0.0
C232 C 0.8292 0.29934 0.4753 0.0
C233 C 0.68531 0.22205 0.48027 0.0
C234 C 0.97635 0.44605 0.47388 0.0
C235 C 0.9413 0.41136 0.47604 0.0
C236 C 0.83204 0.36976 0.4791 0.0
C237 C 0.75675 0.26111 0.48283 0.0
C238 C 0.79467 0.29885 0.47997 0.0
C239 C 0.90477 0.40791 0.47169 0.0
C240 C 0.86662 0.37024 0.47445 0.0
H241 H 0.72341 0.16962 0.49847 0.0
H242 H 0.78329 0.22959 0.49469 0.0
H243 H 0.7721 0.33713 0.48565 0.0
H244 H 0.93948 0.50068 0.4577 0.0
H245 H 0.8789 0.44077 0.46095 0.0
C246 C 0.64265 0.75326 0.81497 0.0
C247 C 0.60927 0.71865 0.81911 0.0
C248 C 0.64204 0.78777 0.81261 0.0
C249 C 0.57439 0.82826 0.80402 0.0
H250 H 0.66693 0.92536 0.81844 0.0
C251 C 0.57412 0.97529 0.80309 0.0
C252 C 0.60809 1.0095 0.79937 0.0
C253 C 0.57382 0.94018 0.80507 0.0
C254 C 0.6407 0.8988 0.81396 0.0
H255 H 0.54861 0.69494 0.82394 0.0
H256 H 0.54747 0.75449 0.82008 0.0
H257 H 0.66701 0.86593 0.82283 0.0
H258 H 0.66868 1.03253 0.79496 0.0
H259 H 0.66832 0.97208 0.79794 0.0
H260 H 0.54808 0.86124 0.79519 0.0
C261 C 0.57448 0.75507 0.81837 0.0
C262 C 0.64074 0.86401 0.81654 0.0
C263 C 0.57513 0.72045 0.82077 0.0
C264 C 0.64176 1.00704 0.79763 0.0
C265 C 0.64154 0.97196 0.79962 0.0
C266 C 0.57435 0.8631 0.80143 0.0
C267 C 0.60797 0.78982 0.81423 0.0
C268 C 0.60762 0.82764 0.81161 0.0
C269 C 0.60759 0.93746 0.80356 0.0
C270 C 0.60754 0.89947 0.80629 0.0
H271 H 0.66969 0.75381 0.81341 0.0
H272 H 0.6686 0.81286 0.80911 0.0
H273 H 0.54817 0.80165 0.79961 0.0
H274 H 0.5476 0.97574 0.80488 0.0
H275 H 0.54694 0.91526 0.80837 0.0
C276 C 0.97988 0.5902 0.16064 0.0
C277 C 0.98381 0.55922 0.15258 0.0
C278 C 0.94505 0.59087 0.15763 0.0
C279 C 0.83772 0.52824 0.14218 0.0
H280 H 0.84294 0.62546 0.13544 0.0
C281 C 0.6971 0.54289 0.13647 0.0
C282 C 0.69645 0.56897 0.12256 0.0
C283 C 0.73128 0.54129 0.14094 0.0
C284 C 0.84048 0.59782 0.13717 0.0
H285 H 0.95238 0.50455 0.13465 0.0
H286 H 0.8921 0.50538 0.12964 0.0
H287 H 0.90201 0.62308 0.1408 0.0
H288 H 0.73322 0.61478 0.10323 0.0
H289 H 0.79162 0.61233 0.11101 0.0
H290 H 0.77602 0.50303 0.13835 0.0
C291 C 0.91599 0.52932 0.13855 0.0
C292 C 0.87488 0.59649 0.14054 0.0
C293 C 0.95101 0.52883 0.14142 0.0
C294 C 0.73182 0.59403 0.11392 0.0
C295 C 0.76586 0.59278 0.11855 0.0
C296 C 0.80321 0.52963 0.13903 0.0
C297 C 0.91211 0.56049 0.14649 0.0
C298 C 0.87454 0.56168 0.14304 0.0
C299 C 0.76655 0.56614 0.132 0.0
C300 C 0.80367 0.56446 0.13629 0.0
H301 H 1.00398 0.61435 0.16931 0.0
H302 H 0.94394 0.61534 0.16437 0.0
H303 H 0.83537 0.50071 0.14418 0.0
H304 H 0.67083 0.52281 0.14343 0.0
H305 H 0.72998 0.52048 0.15154 0.0
C306 C 0.43226 0.96918 0.47809 0.0
C307 C 0.46757 0.97231 0.48513 0.0
C308 C 0.39732 0.93343 0.47593 0.0
C309 C 0.35738 0.82505 0.47267 0.0
H310 H 0.2594 0.82005 0.47916 0.0
C311 C 0.2109 0.68327 0.44876 0.0
C312 C 0.17659 0.67424 0.45877 0.0
C313 C 0.24558 0.71846 0.45321 0.0
C314 C 0.2863 0.82042 0.4774 0.0
H315 H 0.49203 0.93817 0.49545 0.0
H316 H 0.43196 0.87667 0.49187 0.0
H317 H 0.31918 0.88145 0.48443 0.0
H318 H 0.15383 0.69705 0.48206 0.0
H319 H 0.21414 0.75813 0.49004 0.0
H320 H 0.32469 0.76407 0.46592 0.0
C321 C 0.43108 0.90191 0.48771 0.0
C322 C 0.32115 0.85628 0.48021 0.0
C323 C 0.46602 0.93772 0.48995 0.0
C324 C 0.17918 0.70215 0.47399 0.0
C325 C 0.21407 0.73778 0.47838 0.0
C326 C 0.32259 0.78929 0.46977 0.0
C327 C 0.39567 0.89867 0.48059 0.0
C328 C 0.35774 0.85968 0.47786 0.0
C329 C 0.2482 0.74703 0.46795 0.0
C330 C 0.28598 0.78588 0.47194 0.0
H331 H 0.4315 0.99457 0.47407 0.0
H332 H 0.37157 0.93316 0.47013 0.0
H333 H 0.38415 0.8254 0.47042 0.0
H334 H 0.2109 0.66303 0.43701 0.0
H335 H 0.27021 0.72355 0.44445 0.0
C336 C 0.64779 0.50248 0.81596 0.0
C337 C 0.61365 0.50322 0.81977 0.0
C338 C 0.64837 0.46757 0.81359 0.0
C339 C 0.58627 0.35818 0.81905 0.0
H340 H 0.66854 0.35673 0.78977 0.0
C341 C 0.59542 0.21512 0.80849 0.0
C342 C 0.61389 0.20996 0.79106 0.0
C343 C 0.5961 0.25043 0.81316 0.0
C344 C 0.64473 0.35574 0.79779 0.0
H345 H 0.55293 0.4658 0.82374 0.0
H346 H 0.55345 0.40589 0.81903 0.0
H347 H 0.66721 0.41565 0.79435 0.0
H348 H 0.64951 0.2408 0.7658 0.0
H349 H 0.64951 0.2998 0.77317 0.0
H350 H 0.56304 0.29767 0.82169 0.0
C351 C 0.58051 0.43224 0.8184 0.0
C352 C 0.64436 0.39061 0.80083 0.0
C353 C 0.58008 0.46719 0.82101 0.0
C354 C 0.63406 0.24234 0.77913 0.0
C355 C 0.63456 0.27721 0.78366 0.0
C356 C 0.58646 0.32313 0.81583 0.0
C357 C 0.61468 0.43123 0.8146 0.0
C358 C 0.6151 0.39305 0.81152 0.0
C359 C 0.61542 0.28248 0.8007 0.0
C360 C 0.6156 0.32073 0.80498 0.0
H361 H 0.67447 0.52909 0.81485 0.0
H362 H 0.67581 0.46953 0.81116 0.0
H363 H 0.56323 0.3576 0.8277 0.0
H364 H 0.57944 0.1915 0.81824 0.0
H365 H 0.5813 0.25239 0.82667 0.0
C366 C 0.6081 0.8681 0.55316 0.0
C367 C 0.62948 0.90786 0.55792 0.0
C368 C 0.62312 0.84481 0.5587 0.0
C369 C 0.70484 0.84449 0.58828 0.0
H370 H 0.69921 0.77994 0.53979 0.0
C371 C 0.7909 0.76429 0.58577 0.0
C372 C 0.80778 0.76464 0.56675 0.0
C373 C 0.76495 0.77774 0.58707 0.0
C374 C 0.70116 0.79792 0.55346 0.0
H375 H 0.68214 0.95387 0.57359 0.0
H376 H 0.70815 0.91358 0.58315 0.0
H377 H 0.65896 0.80911 0.53968 0.0
H378 H 0.81169 0.77922 0.53427 0.0
H379 H 0.76711 0.80376 0.53654 0.0
H380 H 0.74871 0.83493 0.60152 0.0
C381 C 0.67964 0.90011 0.57536 0.0
C382 C 0.67756 0.81413 0.55356 0.0
C383 C 0.66463 0.92331 0.56988 0.0
C384 C 0.79898 0.77895 0.54911 0.0
C385 C 0.77316 0.79252 0.55038 0.0
C386 C 0.72857 0.82835 0.58815 0.0
C387 C 0.65984 0.86088 0.56905 0.0
C388 C 0.67983 0.83843 0.57074 0.0
C389 C 0.75552 0.7917 0.56932 0.0
C390 C 0.72772 0.80572 0.57048 0.0
H391 H 0.58063 0.85527 0.54425 0.0
H392 H 0.60678 0.81452 0.55401 0.0
H393 H 0.70696 0.86272 0.60186 0.0
H394 H 0.79721 0.75311 0.59955 0.0
H395 H 0.7517 0.77646 0.60182 0.0
C396 C 0.8585 0.61327 0.81833 0.0
C397 C 0.81884 0.59151 0.81296 0.0
C398 C 0.88011 0.59519 0.82113 0.0
C399 C 0.87942 0.50346 0.8132 0.0
H400 H 0.92935 0.53014 0.86936 0.0
C401 C 0.90392 0.39853 0.86048 0.0
C402 C 0.93428 0.41314 0.87594 0.0
C403 C 0.89742 0.42342 0.84873 0.0
C404 C 0.91655 0.52278 0.85341 0.0
H405 H 0.77121 0.53438 0.8046 0.0
H406 H 0.80891 0.50278 0.80948 0.0
H407 H 0.90527 0.56917 0.85488 0.0
H408 H 0.98342 0.46448 0.89035 0.0
H409 H 0.97319 0.50807 0.86931 0.0
H410 H 0.89003 0.45651 0.81191 0.0
C411 C 0.82335 0.53371 0.81156 0.0
C412 C 0.90266 0.54524 0.84512 0.0
C413 C 0.80171 0.55172 0.80898 0.0
C414 C 0.95945 0.45275 0.87867 0.0
C415 C 0.95343 0.47761 0.86669 0.0
C416 C 0.89376 0.48116 0.8214 0.0
C417 C 0.86245 0.55513 0.81836 0.0
C418 C 0.883 0.5352 0.8252 0.0
C419 C 0.9216 0.46335 0.85205 0.0
C420 C 0.91149 0.48991 0.84188 0.0
H421 H 0.87234 0.64398 0.82152 0.0
H422 H 0.91028 0.61235 0.82626 0.0
H423 H 0.86463 0.4953 0.79771 0.0
H424 H 0.88418 0.36799 0.85819 0.0
H425 H 0.87235 0.41134 0.83782 0.0
C426 C 0.32657 0.81973 0.19347 0.0
C427 C 0.29804 0.80476 0.1769 0.0
C428 C 0.35606 0.85782 0.1942 0.0
C429 C 0.40355 0.9453 0.16446 0.0
H430 H 0.41452 0.99568 0.21963 0.0
C431 C 0.46836 0.10446 0.21055 0.0
C432 C 0.50659 0.12253 0.20484 0.0
C433 C 0.44291 0.06659 0.20351 0.0
C434 C 0.41155 0.98214 0.20406 0.0
H435 H 0.27929 0.81715 0.14743 0.0
H436 H 0.33072 0.88386 0.14879 0.0
H437 H 0.37337 0.92688 0.21442 0.0
H438 H 0.54814 0.11674 0.18651 0.0
H439 H 0.50351 0.04984 0.17422 0.0
H440 H 0.44157 1.00126 0.15416 0.0
C441 C 0.33052 0.86607 0.1611 0.0
C442 C 0.38846 0.94258 0.20117 0.0
C443 C 0.30106 0.82786 0.16033 0.0
C444 C 0.51852 0.10321 0.19086 0.0
C445 C 0.49304 0.06506 0.18389 0.0
C446 C 0.42696 0.98513 0.1674 0.0
C447 C 0.35747 0.88178 0.17844 0.0
C448 C 0.38408 0.92367 0.18136 0.0
C449 C 0.45546 0.04598 0.19088 0.0
C450 C 0.43081 1.00393 0.18721 0.0
H451 H 0.32527 0.80235 0.20626 0.0
H452 H 0.37695 0.86894 0.20753 0.0
H453 H 0.40074 0.93143 0.14902 0.0
H454 H 0.45878 0.11902 0.22138 0.0
H455 H 0.41388 0.05284 0.20879 0.0
C456 C 0.64481 0.33017 0.47254 0.0
C457 C 0.63852 0.29755 0.48268 0.0
C458 C 0.67593 0.36613 0.4793 0.0
C459 C 0.73427 0.41502 0.52775 0.0
H460 H 0.79134 0.49897 0.49239 0.0
C461 C 0.8273 0.5657 0.56582 0.0
C462 C 0.8207 0.59314 0.55677 0.0
C463 C 0.81619 0.53084 0.55469 0.0
C464 C 0.77566 0.47578 0.50247 0.0
H465 H 0.66148 0.27612 0.50639 0.0
H466 H 0.71589 0.33862 0.51799 0.0
H467 H 0.7498 0.43431 0.47615 0.0
H468 H 0.79942 0.60664 0.52859 0.0
H469 H 0.7793 0.54573 0.50937 0.0
H470 H 0.75818 0.45616 0.55396 0.0
C471 C 0.6963 0.33677 0.50531 0.0
C472 C 0.7519 0.43881 0.49316 0.0
C473 C 0.66512 0.30105 0.49872 0.0
C474 C 0.80522 0.58617 0.53589 0.0
C475 C 0.79375 0.55119 0.52484 0.0
C476 C 0.75776 0.45182 0.53701 0.0
C477 C 0.70136 0.36987 0.49616 0.0
C478 C 0.73033 0.40821 0.50571 0.0
C479 C 0.79775 0.52253 0.53441 0.0
C480 C 0.77808 0.48285 0.5245 0.0
H481 H 0.6248 0.32809 0.46005 0.0
H482 H 0.67893 0.39115 0.47203 0.0
H483 H 0.71757 0.39223 0.53787 0.0
H484 H 0.83961 0.5706 0.58182 0.0
H485 H 0.82048 0.50972 0.56234 0.0
C486 C 0.3228 0.49608 0.81804 0.0
C487 C 0.34761 0.5318 0.82869 0.0
C488 C 0.28314 0.47812 0.8201 0.0
C489 C 0.21473 0.47651 0.85787 0.0
H490 H 0.13845 0.40619 0.81495 0.0
C491 C 1.05413 0.39279 0.87342 0.0
C492 C 1.03561 0.35341 0.86805 0.0
C493 C 0.09041 0.4171 0.86628 0.0
C494 C 0.1595 0.42568 0.82708 0.0
H495 H 0.35021 0.57794 0.84865 0.0
H496 H 0.28071 0.54708 0.85182 0.0
H497 H 0.20519 0.44638 0.80595 0.0
H498 H 1.03899 0.30803 0.85075 0.0
H499 H 0.10299 0.35072 0.83808 0.0
H500 H 0.16917 0.4557 0.87899 0.0
C501 C 0.29199 0.53241 0.84235 0.0
C502 C 0.19771 0.44868 0.82195 0.0
C503 C 0.33176 0.55022 0.84045 0.0
C504 C 1.05305 0.33848 0.85497 0.0
C505 C 0.08941 0.36288 0.84769 0.0
C506 C 0.17656 0.45382 0.86291 0.0
C507 C 0.26731 0.49559 0.83274 0.0
C508 C 0.22593 0.474 0.83738 0.0
C509 C 0.1087 0.40236 0.85359 0.0
C510 C 0.14865 0.42783 0.84766 0.0
H511 H 0.33421 0.4809 0.80911 0.0
H512 H 0.26522 0.4496 0.8127 0.0
H513 H 0.23569 0.49497 0.87029 0.0
H514 H 1.04083 0.40471 0.88348 0.0
H515 H 0.10437 0.44742 0.87086 0.0
C516 C 0.86158 0.33673 0.0897 0.0
C517 C 0.8797 0.37631 0.0948 0.0
C518 C 0.82145 0.31494 0.08703 0.0
C519 C 0.73153 0.32198 0.0898 0.0
H520 H 0.70691 0.24509 0.1302 0.0
C521 C 0.63876 0.30326 0.15885 0.0
C522 C 0.6193 0.26788 0.16773 0.0
C523 C 0.65872 0.30694 0.14067 0.0
C524 C 0.71254 0.26559 0.11845 0.0
H525 H 0.87085 0.42494 0.09785 0.0
H526 H 0.8013 0.38723 0.09402 0.0
H527 H 0.76598 0.2691 0.11241 0.0
H528 H 0.60282 0.20805 0.16436 0.0
H529 H 0.63761 0.21426 0.13241 0.0
H530 H 0.67916 0.32045 0.09744 0.0
C531 C 0.81748 0.37257 0.09197 0.0
C532 C 0.74665 0.27942 0.1081 0.0
C533 C 0.85749 0.3943 0.09446 0.0
C534 C 0.61773 0.23561 0.1576 0.0
C535 C 0.63769 0.23922 0.13941 0.0
C536 C 0.69743 0.30827 0.1003 0.0
C537 C 0.79885 0.33237 0.08963 0.0
C538 C 0.75772 0.30944 0.09461 0.0
C539 C 0.65967 0.27525 0.13122 0.0
C540 C 0.68871 0.28149 0.11561 0.0
H541 H 0.87801 0.3221 0.08965 0.0
H542 H 0.80806 0.28412 0.08465 0.0
H543 H 0.73868 0.34439 0.07908 0.0
H544 H 0.6404 0.32848 0.16662 0.0
H545 H 0.67577 0.3352 0.13501 0.0
C546 C 1.04369 0.5579 0.09415 0.0
C547 C 0.07665 0.55821 0.10237 0.0
C548 C 1.02236 0.53324 0.07665 0.0
C549 C 1.0065 0.445 0.04691 0.0
H550 H 0.97016 0.48116 0.00103 0.0
C551 C 0.97779 0.38139 0.96137 0.0
C552 C 0.94749 0.38001 0.94897 0.0
C553 C 0.98583 0.39708 0.98215 0.0
C554 C 0.97943 0.47034 0.01388 0.0
H555 H 0.11432 0.53473 0.09857 0.0
H556 H 0.07793 0.49255 0.06773 0.0
H557 H 1.00019 0.52242 0.03309 0.0
H558 H 0.89999 0.39124 0.94926 0.0
H559 H 0.91453 0.41926 0.9855 0.0
H560 H 0.98712 0.39351 0.0273 0.0
C561 C 1.06772 0.51031 0.07502 0.0
C562 C 0.99668 0.49402 0.03225 0.0
C563 C 0.08885 0.53478 0.09247 0.0
C564 C 0.92398 0.39254 0.95827 0.0
C565 C 0.93224 0.40853 0.979 0.0
C566 C 0.98945 0.42143 0.02851 0.0
C567 C 1.03387 0.50874 0.0671 0.0
C568 C 1.01136 0.48201 0.04872 0.0
C569 C 0.9639 0.41193 0.99094 0.0
C570 C 0.9766 0.43424 0.01161 0.0
H571 H 1.03355 0.57548 0.10174 0.0
H572 H 0.99635 0.53261 0.07095 0.0
H573 H 1.01668 0.43455 0.05955 0.0
H574 H 0.99683 0.37254 0.95467 0.0
H575 H 1.01068 0.39968 0.99089 0.0
C576 C 0.56315 0.08283 0.42375 0.0
C577 C 0.5974 0.09151 0.43501 0.0
C578 C 0.56431 0.0992 0.40467 0.0
C579 C 0.62759 0.1434 0.36126 0.0
H580 H 0.55293 0.17401 0.34641 0.0
C581 C 0.58199 0.21188 0.28821 0.0
C582 C 0.58233 0.18815 0.2715 0.0
C583 C 0.58875 0.20591 0.30907 0.0
C584 C 0.57437 0.16618 0.35044 0.0
H585 H 0.65965 0.12378 0.43534 0.0
H586 H 0.6618 0.15254 0.40208 0.0
H587 H 0.55442 0.1522 0.38144 0.0
H588 H 0.59222 0.14123 0.26333 0.0
H589 H 0.60354 0.13057 0.29949 0.0
H590 H 0.64757 0.15736 0.33031 0.0
C591 C 0.63402 0.1329 0.40781 0.0
C592 C 0.57486 0.15316 0.3704 0.0
C593 C 0.63283 0.11646 0.42684 0.0
C594 C 0.59131 0.15965 0.27594 0.0
C595 C 0.5982 0.15381 0.29666 0.0
C596 C 0.62713 0.15645 0.34134 0.0
C597 C 0.59978 0.12446 0.39648 0.0
C598 C 0.60101 0.14096 0.37589 0.0
C599 C 0.59635 0.17639 0.31352 0.0
C600 C 0.60001 0.16725 0.33554 0.0
H601 H 0.5355 0.06341 0.42972 0.0
H602 H 0.53741 0.09156 0.39617 0.0
H603 H 0.64797 0.13403 0.36491 0.0
H604 H 0.5751 0.23403 0.2852 0.0
H605 H 0.58752 0.22402 0.32173 0.0
C606 C 0.60183 0.57027 0.75167 0.0
C607 C 0.61438 0.60165 0.7664 0.0
C608 C 0.62137 0.57396 0.73329 0.0
C609 C 0.716 0.62943 0.71238 0.0
H610 H 0.66213 0.59553 0.6572 0.0
C611 C 0.78944 0.62487 0.63594 0.0
C612 C 0.78299 0.64293 0.6192 0.0
C613 C 0.76834 0.61814 0.65395 0.0
C614 C 0.67747 0.60503 0.67253 0.0
H615 H 0.65577 0.66186 0.7731 0.0
H616 H 0.69053 0.66804 0.74126 0.0
H617 H 0.62562 0.58723 0.68864 0.0
H618 H 0.74892 0.66725 0.60786 0.0
H619 H 0.71179 0.65509 0.6392 0.0
H620 H 0.76784 0.64721 0.69629 0.0
C621 C 0.66589 0.64056 0.74402 0.0
C622 C 0.65661 0.6001 0.69047 0.0
C623 C 0.64602 0.63701 0.76219 0.0
C624 C 0.75473 0.65363 0.62064 0.0
C625 C 0.73328 0.64638 0.63846 0.0
C626 C 0.73679 0.63381 0.69447 0.0
C627 C 0.65395 0.60899 0.72949 0.0
C628 C 0.67575 0.61269 0.71053 0.0
C629 C 0.73998 0.62873 0.65531 0.0
C630 C 0.71775 0.62205 0.67437 0.0
H631 H 0.57741 0.54272 0.75454 0.0
H632 H 0.61163 0.5492 0.72231 0.0
H633 H 0.73137 0.63908 0.72771 0.0
H634 H 0.81108 0.61639 0.63518 0.0
H635 H 0.7739 0.60434 0.66672 0.0
C636 C 0.58067 0.13645 0.56164 0.0
C637 C 0.57612 0.10556 0.54847 0.0
C638 C 0.58547 0.13674 0.58353 0.0
C639 C 0.60414 0.08652 0.62709 0.0
H640 H 0.56559 0.1413 0.66061 0.0
C641 C 0.5851 0.08532 0.71953 0.0
C642 C 0.60588 0.12225 0.72983 0.0
C643 C 0.58231 0.08029 0.69736 0.0
C644 C 0.57644 0.12584 0.65145 0.0
H645 H 0.57261 0.05034 0.54789 0.0
H646 H 0.57957 0.04989 0.58626 0.0
H647 H 0.558 0.13769 0.62239 0.0
H648 H 0.64223 0.18247 0.7244 0.0
H649 H 0.63548 0.17364 0.68611 0.0
H650 H 0.62108 0.07364 0.65672 0.0
C651 C 0.58079 0.07473 0.57973 0.0
C652 C 0.57257 0.12409 0.62942 0.0
C653 C 0.57682 0.0749 0.55766 0.0
C654 C 0.62484 0.15368 0.71726 0.0
C655 C 0.62136 0.14869 0.69524 0.0
C656 C 0.60725 0.08761 0.64924 0.0
C657 C 0.58467 0.1055 0.59308 0.0
C658 C 0.58708 0.10514 0.61677 0.0
C659 C 0.59974 0.11207 0.68503 0.0
C660 C 0.59399 0.10786 0.66161 0.0
H661 H 0.58047 0.16058 0.55496 0.0
H662 H 0.58972 0.16167 0.59292 0.0
H663 H 0.61603 0.07188 0.61813 0.0
H664 H 0.56991 0.06037 0.7285 0.0
H665 H 0.56536 0.05172 0.68985 0.0
C666 C 0.62967 0.64632 0.89965 0.0
C667 C 0.61924 0.61604 0.88438 0.0
C668 C 0.62533 0.63958 0.92112 0.0
C669 C 0.6264 0.57603 0.95957 0.0
H670 H 0.57742 0.61655 0.99582 0.0
C671 C 0.61414 0.54702 0.04823 0.0
C672 C 0.615 0.57471 0.06272 0.0
C673 C 0.6113 0.55018 0.02645 0.0
C674 C 0.59184 0.60551 0.98612 0.0
H675 H 0.59565 0.5548 0.87964 0.0
H676 H 0.58917 0.54313 0.91729 0.0
H677 H 0.57883 0.62595 0.95815 0.0
H678 H 0.61367 0.62752 0.06579 0.0
H679 H 0.61064 0.63432 0.02794 0.0
H680 H 0.64141 0.55731 0.98732 0.0
C681 C 0.60029 0.57206 0.91257 0.0
C682 C 0.59231 0.61068 0.96441 0.0
C683 C 0.60381 0.5787 0.89102 0.0
C684 C 0.61268 0.60555 0.05496 0.0
C685 C 0.61072 0.60923 0.03316 0.0
C686 C 0.6267 0.57155 0.98131 0.0
C687 C 0.61125 0.60247 0.92788 0.0
C688 C 0.60954 0.59594 0.95087 0.0
C689 C 0.6102 0.58169 0.01846 0.0
C690 C 0.60938 0.58615 0.99504 0.0
H691 H 0.64167 0.6754 0.895 0.0
H692 H 0.63421 0.66362 0.93251 0.0
H693 H 0.64041 0.56481 0.9496 0.0
H694 H 0.61557 0.52276 0.05378 0.0
H695 H 0.60991 0.52768 0.01595 0.0
C696 C 0.09286 0.5212 0.23041 0.0
C697 C 0.08969 0.54613 0.21679 0.0
C698 C 0.09196 0.52629 0.25229 0.0
C699 C 0.1093 0.59812 0.2953 0.0
H700 H 1.04556 0.51017 0.32677 0.0
C701 C 0.09414 0.6162 0.38471 0.0
C702 C 0.09079 0.58748 0.39766 0.0
C703 C 0.09174 0.61057 0.36269 0.0
C704 C 1.06402 0.53505 0.31838 0.0
H705 H 0.08367 0.59637 0.21555 0.0
H706 H 0.083 0.60587 0.2539 0.0
H707 H 1.04698 0.50218 0.28864 0.0
H708 H 0.08181 0.53006 0.39756 0.0
H709 H 0.07875 0.52041 0.35919 0.0
H710 H 0.12746 0.63091 0.32492 0.0
C711 C 0.08595 0.58219 0.24758 0.0
C712 C 1.06467 0.53043 0.29642 0.0
C713 C 0.08628 0.57674 0.22562 0.0
C714 C 0.08413 0.55259 0.38802 0.0
C715 C 0.0823 0.54711 0.36594 0.0
C716 C 0.1091 0.60268 0.3173 0.0
C717 C 0.08842 0.55679 0.2612 0.0
C718 C 0.08731 0.5619 0.28458 0.0
C719 C 0.08653 0.57621 0.35288 0.0
C720 C 0.0864 0.57124 0.32926 0.0
H721 H 0.09557 0.49734 0.22414 0.0
H722 H 0.0944 0.50647 0.26228 0.0
H723 H 0.12746 0.62289 0.28673 0.0
H724 H 0.09886 0.64327 0.39167 0.0
H725 H 0.09408 0.63337 0.3534 0.0
loop_
_geom_bond_atom_site_label_1
_geom_bond_atom_site_label_2
_geom_bond_distance
_geom_bond_site_symmetry_2
_ccdc_geom_bond_type
Tb0 C2 2.809 . S
Tb0 O20 2.484 . S
Tb0 O21 2.440 . S
Tb0 O22 2.658 . S
Tb0 O23 2.409 . S
Tb0 O24 2.378 . S
Tb0 O28 2.325 . S
Tb0 O31 2.341 1_455 S
Tb1 C11 2.809 . S
Tb1 O22 2.325 1_655 S
Tb1 O25 2.341 1_655 S
Tb1 O26 2.484 . S
Tb1 O27 2.440 . S
Tb1 O28 2.658 1_655 S
Tb1 O29 2.409 1_655 S
Tb1 O30 2.378 . S
C2 Tb0 2.809 . S
C2 C3 1.514 . S
C2 O20 1.248 . S
C2 O21 1.266 . S
C3 C2 1.514 . S
C3 C4 1.359 . S
C3 C8 1.348 . S
C4 C3 1.359 . S
C4 C5 1.380 . S
C4 H32 0.929 . S
C5 C4 1.380 . S
C5 C6 1.347 . S
C5 H33 0.931 . S
C6 C5 1.347 . S
C6 C7 1.369 . S
C7 C6 1.369 . S
C7 C8 1.408 . S
C7 H34 0.930 . S
C8 C3 1.348 . S
C8 C7 1.408 . S
C8 H35 0.930 . S
C9 O22 1.281 . S
C9 O23 1.254 . S
C10 O24 1.236 . S
C10 O25 1.266 . S
C11 Tb1 2.809 . S
C11 C12 1.514 . S
C11 O26 1.248 . S
C11 O27 1.266 . S
C12 C11 1.514 . S
C12 C13 1.359 . S
C12 C17 1.348 . S
C13 C12 1.359 . S
C13 C14 1.380 . S
C13 H36 0.929 . S
C14 C13 1.380 . S
C14 C15 1.347 . S
C14 H37 0.931 . S
C15 C14 1.347 . S
C15 C16 1.369 . S
C16 C15 1.369 . S
C16 C17 1.408 . S
C16 H38 0.930 . S
C17 C12 1.348 . S
C17 C16 1.408 . S
C17 H39 0.930 . S
C18 O28 1.281 . S
C18 O29 1.254 . S
C19 O30 1.236 . S
C19 O31 1.266 . S
O20 Tb0 2.484 . S
O20 C2 1.248 . S
O21 Tb0 2.440 . S
O21 C2 1.266 . S
O22 Tb0 2.658 . S
O22 Tb1 2.325 1_455 S
O22 C9 1.281 . S
O23 Tb0 2.409 . S
O23 C9 1.254 . S
O24 Tb0 2.378 . S
O24 C10 1.236 . S
O25 Tb1 2.341 1_455 S
O25 C10 1.266 . S
O26 Tb1 2.484 . S
O26 C11 1.248 . S
O27 Tb1 2.440 . S
O27 C11 1.266 . S
O28 Tb0 2.325 . S
O28 Tb1 2.658 1_455 S
O28 C18 1.281 . S
O29 Tb1 2.409 1_455 S
O29 C18 1.254 . S
O30 Tb1 2.378 . S
O30 C19 1.236 . S
O31 Tb0 2.341 1_655 S
O31 C19 1.266 . S
H32 C4 0.929 . S
H33 C5 0.931 . S
H34 C7 0.930 . S
H35 C8 0.930 . S
H36 C13 0.929 . S
H37 C14 0.931 . S
H38 C16 0.930 . S
H39 C17 0.930 . S
Tb40 C42 2.809 1_545 S
Tb40 O60 2.484 1_545 S
Tb40 O61 2.440 1_545 S
Tb40 O62 2.658 . S
Tb40 O63 2.409 . S
Tb40 O64 2.378 1_545 S
Tb40 O68 2.325 . S
Tb40 O71 2.341 . S
Tb41 C51 2.809 . S
Tb41 O62 2.325 . S
Tb41 O65 2.341 . S
Tb41 O66 2.484 . S
Tb41 O67 2.440 . S
Tb41 O68 2.658 . S
Tb41 O69 2.409 . S
Tb41 O70 2.378 . S
C42 Tb40 2.809 1_565 S
C42 C43 1.514 . S
C42 O60 1.248 . S
C42 O61 1.266 . S
C43 C42 1.514 . S
C43 C44 1.359 . S
C43 C48 1.348 . S
C44 C43 1.359 . S
C44 C45 1.380 . S
C44 H72 0.929 . S
C45 C44 1.380 . S
C45 C46 1.347 . S
C45 H73 0.931 . S
C46 C45 1.347 . S
C46 C47 1.369 . S
C47 C46 1.369 . S
C47 C48 1.408 . S
C47 H74 0.930 . S
C48 C43 1.348 . S
C48 C47 1.408 . S
C48 H75 0.930 . S
C49 O62 1.281 . S
C49 O63 1.254 . S
C50 O64 1.236 . S
C50 O65 1.266 1_565 S
C51 Tb41 2.809 . S
C51 C52 1.514 . S
C51 O66 1.248 . S
C51 O67 1.266 . S
C52 C51 1.514 . S
C52 C53 1.359 . S
C52 C57 1.348 . S
C53 C52 1.359 . S
C53 C54 1.380 . S
C53 H76 0.929 . S
C54 C53 1.380 . S
C54 C55 1.347 . S
C54 H77 0.931 . S
C55 C54 1.347 . S
C55 C56 1.369 . S
C56 C55 1.369 . S
C56 C57 1.408 . S
C56 H78 0.930 . S
C57 C52 1.348 . S
C57 C56 1.408 . S
C57 H79 0.930 . S
C58 O68 1.281 . S
C58 O69 1.254 . S
C59 O70 1.236 . S
C59 O71 1.266 . S
O60 Tb40 2.484 1_565 S
O60 C42 1.248 . S
O61 Tb40 2.440 1_565 S
O61 C42 1.266 . S
O62 Tb40 2.658 . S
O62 Tb41 2.325 . S
O62 C49 1.281 . S
O63 Tb40 2.409 . S
O63 C49 1.254 . S
O64 Tb40 2.378 1_565 S
O64 C50 1.236 . S
O65 Tb41 2.341 . S
O65 C50 1.266 1_545 S
O66 Tb41 2.484 . S
O66 C51 1.248 . S
O67 Tb41 2.440 . S
O67 C51 1.266 . S
O68 Tb40 2.325 . S
O68 Tb41 2.658 . S
O68 C58 1.281 . S
O69 Tb41 2.409 . S
O69 C58 1.254 . S
O70 Tb41 2.378 . S
O70 C59 1.236 . S
O71 Tb40 2.341 . S
O71 C59 1.266 . S
H72 C44 0.929 . S
H73 C45 0.931 . S
H74 C47 0.930 . S
H75 C48 0.930 . S
H76 C53 0.929 . S
H77 C54 0.931 . S
H78 C56 0.930 . S
H79 C57 0.930 . S
Tb80 C82 2.809 . S
Tb80 O100 2.484 . S
Tb80 O101 2.440 . S
Tb80 O102 2.658 . S
Tb80 O103 2.409 . S
Tb80 O104 2.378 . S
Tb80 O108 2.325 . S
Tb80 O111 2.341 . S
Tb81 C91 2.809 . S
Tb81 O102 2.325 . S
Tb81 O105 2.341 . S
Tb81 O106 2.484 . S
Tb81 O107 2.440 . S
Tb81 O108 2.658 . S
Tb81 O109 2.409 . S
Tb81 O110 2.378 . S
C82 Tb80 2.809 . S
C82 C83 1.514 . S
C82 O100 1.248 . S
C82 O101 1.266 . S
C83 C82 1.514 . S
C83 C84 1.359 . S
C83 C88 1.348 . S
C84 C83 1.359 . S
C84 C85 1.380 . S
C84 H112 0.929 . S
C85 C84 1.380 . S
C85 C86 1.347 . S
C85 H113 0.931 . S
C86 C85 1.347 . S
C86 C87 1.369 . S
C87 C86 1.369 . S
C87 C88 1.408 . S
C87 H114 0.930 . S
C88 C83 1.348 . S
C88 C87 1.408 . S
C88 H115 0.930 . S
C89 O102 1.281 . S
C89 O103 1.254 . S
C90 O104 1.236 . S
C90 O105 1.266 . S
C91 Tb81 2.809 . S
C91 C92 1.514 . S
C91 O106 1.248 . S
C91 O107 1.266 . S
C92 C91 1.514 . S
C92 C93 1.359 . S
C92 C97 1.348 . S
C93 C92 1.359 . S
C93 C94 1.380 . S
C93 H116 0.929 . S
C94 C93 1.380 . S
C94 C95 1.347 . S
C94 H117 0.931 . S
C95 C94 1.347 . S
C95 C96 1.369 . S
C96 C95 1.369 . S
C96 C97 1.408 . S
C96 H118 0.930 . S
C97 C92 1.348 . S
C97 C96 1.408 . S
C97 H119 0.930 . S
C98 O108 1.281 . S
C98 O109 1.254 . S
C99 O110 1.236 . S
C99 O111 1.266 . S
O100 Tb80 2.484 . S
O100 C82 1.248 . S
O101 Tb80 2.440 . S
O101 C82 1.266 . S
O102 Tb80 2.658 . S
O102 Tb81 2.325 . S
O102 C89 1.281 . S
O103 Tb80 2.409 . S
O103 C89 1.254 . S
O104 Tb80 2.378 . S
O104 C90 1.236 . S
O105 Tb81 2.341 . S
O105 C90 1.266 . S
O106 Tb81 2.484 . S
O106 C91 1.248 . S
O107 Tb81 2.440 . S
O107 C91 1.266 . S
O108 Tb80 2.325 . S
O108 Tb81 2.658 . S
O108 C98 1.281 . S
O109 Tb81 2.409 . S
O109 C98 1.254 . S
O110 Tb81 2.378 . S
O110 C99 1.236 . S
O111 Tb80 2.341 . S
O111 C99 1.266 . S
H112 C84 0.929 . S
H113 C85 0.931 . S
H114 C87 0.930 . S
H115 C88 0.930 . S
H116 C93 0.929 . S
H117 C94 0.931 . S
H118 C96 0.930 . S
H119 C97 0.930 . S
H120 C123 0.929 . S
H121 C126 0.929 . S
H122 C128 0.930 . S
C123 H120 0.929 . S
C123 C124 1.398 . S
C123 C125 1.396 . S
C124 C123 1.398 . S
C124 C128 1.407 . S
C125 C123 1.396 . S
C125 C126 1.394 . S
C126 H121 0.929 . S
C126 C125 1.394 . S
C126 C127 1.382 . S
C127 C126 1.382 . S
C127 C128 1.392 . S
C127 N129 1.420 . S
C128 H122 0.930 . S
C128 C124 1.407 . S
C128 C127 1.392 . S
N129 C127 1.420 . S
N129 C130 1.244 . S
C130 N129 1.244 . S
H131 C134 0.929 . S
H132 C137 0.929 . S
H133 C139 0.930 . S
C134 H131 0.929 . S
C134 C135 1.398 . S
C134 C136 1.396 . S
C135 C134 1.398 . S
C135 C139 1.407 . S
C136 C134 1.396 . S
C136 C137 1.394 . S
C137 H132 0.929 . S
C137 C136 1.394 . S
C137 C138 1.382 . S
C138 C137 1.382 . S
C138 C139 1.392 . S
C138 N140 1.420 . S
C139 H133 0.930 . S
C139 C135 1.407 . S
C139 C138 1.392 . S
N140 C138 1.420 . S
N140 C141 1.244 . S
C141 N140 1.244 . S
H142 C145 0.929 . S
H143 C148 0.929 . S
H144 C150 0.930 . S
C145 H142 0.929 . S
C145 C146 1.398 . S
C145 C147 1.396 1_655 S
C146 C145 1.398 . S
C146 C150 1.407 . S
C147 C145 1.396 1_455 S
C147 C148 1.394 . S
C148 H143 0.929 . S
C148 C147 1.394 . S
C148 C149 1.382 . S
C149 C148 1.382 . S
C149 C150 1.392 1_455 S
C149 N151 1.420 . S
C150 H144 0.930 . S
C150 C146 1.407 . S
C150 C149 1.392 1_655 S
N151 C149 1.420 . S
N151 C152 1.244 . S
C152 N151 1.244 . S
H153 C156 0.929 . S
H154 C159 0.929 1_655 S
H155 C161 0.930 . S
C156 H153 0.929 . S
C156 C157 1.398 . S
C156 C158 1.396 . S
C157 C156 1.398 . S
C157 C161 1.407 . S
C158 C156 1.396 . S
C158 C159 1.394 . S
C159 H154 0.929 1_455 S
C159 C158 1.394 . S
C159 C160 1.382 . S
C160 C159 1.382 . S
C160 C161 1.392 . S
C160 N162 1.420 1_455 S
C161 H155 0.930 . S
C161 C157 1.407 . S
C161 C160 1.392 . S
N162 C160 1.420 1_655 S
N162 C163 1.244 . S
C163 N162 1.244 . S
H164 C167 0.929 . S
H165 C170 0.929 1_565 S
H166 C172 0.930 . S
C167 H164 0.929 . S
C167 C168 1.398 . S
C167 C169 1.396 . S
C168 C167 1.398 . S
C168 C172 1.407 . S
C169 C167 1.396 . S
C169 C170 1.394 . S
C170 H165 0.929 1_545 S
C170 C169 1.394 . S
C170 C171 1.382 . S
C171 C170 1.382 . S
C171 C172 1.392 . S
C171 N173 1.420 1_545 S
C172 H166 0.930 . S
C172 C168 1.407 . S
C172 C171 1.392 . S
N173 C171 1.420 1_565 S
N173 C174 1.244 . S
C174 N173 1.244 . S
H175 C178 0.929 . S
H176 C181 0.929 . S
H177 C183 0.930 . S
C178 H175 0.929 . S
C178 C179 1.398 . S
C178 C180 1.396 . S
C179 C178 1.398 . S
C179 C183 1.407 . S
C180 C178 1.396 . S
C180 C181 1.394 . S
C181 H176 0.929 . S
C181 C180 1.394 . S
C181 C182 1.382 . S
C182 C181 1.382 . S
C182 C183 1.392 . S
C182 N184 1.420 . S
C183 H177 0.930 . S
C183 C179 1.407 . S
C183 C182 1.392 . S
N184 C182 1.420 . S
N184 C185 1.244 . S
C185 N184 1.244 . S
C186 C187 1.349 . S
C186 C188 1.327 . S
C186 H211 0.950 . S
C187 C186 1.349 . S
C187 C203 1.349 . S
C188 C186 1.327 . S
C188 C207 1.429 . S
C188 H212 0.950 . S
C189 C206 1.574 . S
C189 C208 1.368 . S
C189 H213 0.949 . S
H190 C194 0.949 . S
C191 C192 1.349 . S
C191 C193 1.327 . S
C191 H214 0.950 . S
C192 C191 1.349 . S
C192 C204 1.349 . S
C193 C191 1.327 . S
C193 C209 1.429 . S
C193 H215 0.950 . S
C194 H190 0.949 . S
C194 C202 1.574 . S
C194 C210 1.368 . S
H195 C203 0.950 . S
H196 C201 0.950 . S
H197 C202 0.949 . S
H198 C204 0.950 . S
H199 C205 0.950 . S
H200 C206 0.949 . S
C201 H196 0.950 . S
C201 C203 1.327 . S
C201 C207 1.429 . S
C202 C194 1.574 . S
C202 H197 0.949 . S
C202 C208 1.368 . S
C203 C187 1.349 . S
C203 H195 0.950 . S
C203 C201 1.327 . S
C204 C192 1.349 . S
C204 H198 0.950 . S
C204 C205 1.327 . S
C205 H199 0.950 . S
C205 C204 1.327 . S
C205 C209 1.429 . S
C206 C189 1.574 . S
C206 H200 0.949 . S
C206 C210 1.368 . S
C207 C188 1.429 . S
C207 C201 1.429 . S
C207 C208 1.523 . S
C208 C189 1.368 . S
C208 C202 1.368 . S
C208 C207 1.523 . S
C209 C193 1.429 . S
C209 C205 1.429 . S
C209 C210 1.523 . S
C210 C194 1.368 . S
C210 C206 1.368 . S
C210 C209 1.523 . S
H211 C186 0.950 . S
H212 C188 0.950 . S
H213 C189 0.949 . S
H214 C191 0.950 . S
H215 C193 0.950 . S
C216 C217 1.349 . S
C216 C218 1.327 . S
C216 H241 0.950 . S
C217 C216 1.349 . S
C217 C233 1.349 . S
C218 C216 1.327 . S
C218 C237 1.429 . S
C218 H242 0.950 . S
C219 C236 1.574 . S
C219 C238 1.368 . S
C219 H243 0.949 . S
H220 C224 0.949 . S
C221 C222 1.349 . S
C221 C223 1.327 . S
C221 H244 0.950 . S
C222 C221 1.349 . S
C222 C234 1.349 . S
C223 C221 1.327 . S
C223 C239 1.429 . S
C223 H245 0.950 . S
C224 H220 0.949 . S
C224 C232 1.574 . S
C224 C240 1.368 . S
H225 C233 0.950 . S
H226 C231 0.950 . S
H227 C232 0.949 . S
H228 C234 0.950 . S
H229 C235 0.950 . S
H230 C236 0.949 . S
C231 H226 0.950 . S
C231 C233 1.327 . S
C231 C237 1.429 . S
C232 C224 1.574 . S
C232 H227 0.949 . S
C232 C238 1.368 . S
C233 C217 1.349 . S
C233 H225 0.950 . S
C233 C231 1.327 . S
C234 C222 1.349 . S
C234 H228 0.950 . S
C234 C235 1.327 . S
C235 H229 0.950 . S
C235 C234 1.327 . S
C235 C239 1.429 . S
C236 C219 1.574 . S
C236 H230 0.949 . S
C236 C240 1.368 . S
C237 C218 1.429 . S
C237 C231 1.429 . S
C237 C238 1.523 . S
C238 C219 1.368 . S
C238 C232 1.368 . S
C238 C237 1.523 . S
C239 C223 1.429 . S
C239 C235 1.429 . S
C239 C240 1.523 . S
C240 C224 1.368 . S
C240 C236 1.368 . S
C240 C239 1.523 . S
H241 C216 0.950 . S
H242 C218 0.950 . S
H243 C219 0.949 . S
H244 C221 0.950 . S
H245 C223 0.950 . S
C246 C247 1.349 . S
C246 C248 1.327 . S
C246 H271 0.950 . S
C247 C246 1.349 . S
C247 C263 1.349 . S
C248 C246 1.327 . S
C248 C267 1.429 . S
C248 H272 0.950 . S
C249 C266 1.574 . S
C249 C268 1.368 . S
C249 H273 0.949 . S
H250 C254 0.949 . S
C251 C252 1.349 . S
C251 C253 1.327 . S
C251 H274 0.950 . S
C252 C251 1.349 . S
C252 C264 1.349 . S
C253 C251 1.327 . S
C253 C269 1.429 . S
C253 H275 0.950 . S
C254 H250 0.949 . S
C254 C262 1.574 . S
C254 C270 1.368 . S
H255 C263 0.950 . S
H256 C261 0.950 . S
H257 C262 0.949 . S
H258 C264 0.950 . S
H259 C265 0.950 . S
H260 C266 0.949 . S
C261 H256 0.950 . S
C261 C263 1.327 . S
C261 C267 1.429 . S
C262 C254 1.574 . S
C262 H257 0.949 . S
C262 C268 1.368 . S
C263 C247 1.349 . S
C263 H255 0.950 . S
C263 C261 1.327 . S
C264 C252 1.349 . S
C264 H258 0.950 . S
C264 C265 1.327 . S
C265 H259 0.950 . S
C265 C264 1.327 . S
C265 C269 1.429 . S
C266 C249 1.574 . S
C266 H260 0.949 . S
C266 C270 1.368 . S
C267 C248 1.429 . S
C267 C261 1.429 . S
C267 C268 1.523 . S
C268 C249 1.368 . S
C268 C262 1.368 . S
C268 C267 1.523 . S
C269 C253 1.429 . S
C269 C265 1.429 . S
C269 C270 1.523 . S
C270 C254 1.368 . S
C270 C266 1.368 . S
C270 C269 1.523 . S
H271 C246 0.950 . S
H272 C248 0.950 . S
H273 C249 0.949 . S
H274 C251 0.950 . S
H275 C253 0.950 . S
C276 C277 1.349 . S
C276 C278 1.327 . S
C276 H301 0.950 . S
C277 C276 1.349 . S
C277 C293 1.349 . S
C278 C276 1.327 . S
C278 C297 1.429 . S
C278 H302 0.950 . S
C279 C296 1.574 . S
C279 C298 1.368 . S
C279 H303 0.949 . S
H280 C284 0.949 . S
C281 C282 1.349 . S
C281 C283 1.327 . S
C281 H304 0.950 . S
C282 C281 1.349 . S
C282 C294 1.349 . S
C283 C281 1.327 . S
C283 C299 1.429 . S
C283 H305 0.950 . S
C284 H280 0.949 . S
C284 C292 1.574 . S
C284 C300 1.368 . S
H285 C293 0.950 . S
H286 C291 0.950 . S
H287 C292 0.949 . S
H288 C294 0.950 . S
H289 C295 0.950 . S
H290 C296 0.949 . S
C291 H286 0.950 . S
C291 C293 1.327 . S
C291 C297 1.429 . S
C292 C284 1.574 . S
C292 H287 0.949 . S
C292 C298 1.368 . S
C293 C277 1.349 . S
C293 H285 0.950 . S
C293 C291 1.327 . S
C294 C282 1.349 . S
C294 H288 0.950 . S
C294 C295 1.327 . S
C295 H289 0.950 . S
C295 C294 1.327 . S
C295 C299 1.429 . S
C296 C279 1.574 . S
C296 H290 0.949 . S
C296 C300 1.368 . S
C297 C278 1.429 . S
C297 C291 1.429 . S
C297 C298 1.523 . S
C298 C279 1.368 . S
C298 C292 1.368 . S
C298 C297 1.523 . S
C299 C283 1.429 . S
C299 C295 1.429 . S
C299 C300 1.523 . S
C300 C284 1.368 . S
C300 C296 1.368 . S
C300 C299 1.523 . S
H301 C276 0.950 . S
H302 C278 0.950 . S
H303 C279 0.949 . S
H304 C281 0.950 . S
H305 C283 0.950 . S
C306 C307 1.349 . S
C306 C308 1.327 . S
C306 H331 0.950 . S
C307 C306 1.349 . S
C307 C323 1.349 . S
C308 C306 1.327 . S
C308 C327 1.429 . S
C308 H332 0.950 . S
C309 C326 1.574 . S
C309 C328 1.368 . S
C309 H333 0.949 . S
H310 C314 0.949 . S
C311 C312 1.349 . S
C311 C313 1.327 . S
C311 H334 0.950 . S
C312 C311 1.349 . S
C312 C324 1.349 . S
C313 C311 1.327 . S
C313 C329 1.429 . S
C313 H335 0.950 . S
C314 H310 0.949 . S
C314 C322 1.574 . S
C314 C330 1.368 . S
H315 C323 0.950 . S
H316 C321 0.950 . S
H317 C322 0.949 . S
H318 C324 0.950 . S
H319 C325 0.950 . S
H320 C326 0.949 . S
C321 H316 0.950 . S
C321 C323 1.327 . S
C321 C327 1.429 . S
C322 C314 1.574 . S
C322 H317 0.949 . S
C322 C328 1.368 . S
C323 C307 1.349 . S
C323 H315 0.950 . S
C323 C321 1.327 . S
C324 C312 1.349 . S
C324 H318 0.950 . S
C324 C325 1.327 . S
C325 H319 0.950 . S
C325 C324 1.327 . S
C325 C329 1.429 . S
C326 C309 1.574 . S
C326 H320 0.949 . S
C326 C330 1.368 . S
C327 C308 1.429 . S
C327 C321 1.429 . S
C327 C328 1.523 . S
C328 C309 1.368 . S
C328 C322 1.368 . S
C328 C327 1.523 . S
C329 C313 1.429 . S
C329 C325 1.429 . S
C329 C330 1.523 . S
C330 C314 1.368 . S
C330 C326 1.368 . S
C330 C329 1.523 . S
H331 C306 0.950 . S
H332 C308 0.950 . S
H333 C309 0.949 . S
H334 C311 0.950 . S
H335 C313 0.950 . S
C336 C337 1.349 . S
C336 C338 1.327 . S
C336 H361 0.950 . S
C337 C336 1.349 . S
C337 C353 1.349 . S
C338 C336 1.327 . S
C338 C357 1.429 . S
C338 H362 0.950 . S
C339 C356 1.574 . S
C339 C358 1.368 . S
C339 H363 0.949 . S
H340 C344 0.949 . S
C341 C342 1.349 . S
C341 C343 1.327 . S
C341 H364 0.950 . S
C342 C341 1.349 . S
C342 C354 1.349 . S
C343 C341 1.327 . S
C343 C359 1.429 . S
C343 H365 0.950 . S
C344 H340 0.949 . S
C344 C352 1.574 . S
C344 C360 1.368 . S
H345 C353 0.950 . S
H346 C351 0.950 . S
H347 C352 0.949 . S
H348 C354 0.950 . S
H349 C355 0.950 . S
H350 C356 0.949 . S
C351 H346 0.950 . S
C351 C353 1.327 . S
C351 C357 1.429 . S
C352 C344 1.574 . S
C352 H347 0.949 . S
C352 C358 1.368 . S
C353 C337 1.349 . S
C353 H345 0.950 . S
C353 C351 1.327 . S
C354 C342 1.349 . S
C354 H348 0.950 . S
C354 C355 1.327 . S
C355 H349 0.950 . S
C355 C354 1.327 . S
C355 C359 1.429 . S
C356 C339 1.574 . S
C356 H350 0.949 . S
C356 C360 1.368 . S
C357 C338 1.429 . S
C357 C351 1.429 . S
C357 C358 1.523 . S
C358 C339 1.368 . S
C358 C352 1.368 . S
C358 C357 1.523 . S
C359 C343 1.429 . S
C359 C355 1.429 . S
C359 C360 1.523 . S
C360 C344 1.368 . S
C360 C356 1.368 . S
C360 C359 1.523 . S
H361 C336 0.950 . S
H362 C338 0.950 . S
H363 C339 0.949 . S
H364 C341 0.950 . S
H365 C343 0.950 . S
C366 C367 1.349 . S
C366 C368 1.327 . S
C366 H391 0.950 . S
C367 C366 1.349 . S
C367 C383 1.349 . S
C368 C366 1.327 . S
C368 C387 1.429 . S
C368 H392 0.950 . S
C369 C386 1.574 . S
C369 C388 1.368 . S
C369 H393 0.949 . S
H370 C374 0.949 . S
C371 C372 1.349 . S
C371 C373 1.327 . S
C371 H394 0.950 . S
C372 C371 1.349 . S
C372 C384 1.349 . S
C373 C371 1.327 . S
C373 C389 1.429 . S
C373 H395 0.950 . S
C374 H370 0.949 . S
C374 C382 1.574 . S
C374 C390 1.368 . S
H375 C383 0.950 . S
H376 C381 0.950 . S
H377 C382 0.949 . S
H378 C384 0.950 . S
H379 C385 0.950 . S
H380 C386 0.949 . S
C381 H376 0.950 . S
C381 C383 1.327 . S
C381 C387 1.429 . S
C382 C374 1.574 . S
C382 H377 0.949 . S
C382 C388 1.368 . S
C383 C367 1.349 . S
C383 H375 0.950 . S
C383 C381 1.327 . S
C384 C372 1.349 . S
C384 H378 0.950 . S
C384 C385 1.327 . S
C385 H379 0.950 . S
C385 C384 1.327 . S
C385 C389 1.429 . S
C386 C369 1.574 . S
C386 H380 0.949 . S
C386 C390 1.368 . S
C387 C368 1.429 . S
C387 C381 1.429 . S
C387 C388 1.523 . S
C388 C369 1.368 . S
C388 C382 1.368 . S
C388 C387 1.523 . S
C389 C373 1.429 . S
C389 C385 1.429 . S
C389 C390 1.523 . S
C390 C374 1.368 . S
C390 C386 1.368 . S
C390 C389 1.523 . S
H391 C366 0.950 . S
H392 C368 0.950 . S
H393 C369 0.949 . S
H394 C371 0.950 . S
H395 C373 0.950 . S
C396 C397 1.349 . S
C396 C398 1.327 . S
C396 H421 0.950 . S
C397 C396 1.349 . S
C397 C413 1.349 . S
C398 C396 1.327 . S
C398 C417 1.429 . S
C398 H422 0.950 . S
C399 C416 1.574 . S
C399 C418 1.368 . S
C399 H423 0.949 . S
H400 C404 0.949 . S
C401 C402 1.349 . S
C401 C403 1.327 . S
C401 H424 0.950 . S
C402 C401 1.349 . S
C402 C414 1.349 . S
C403 C401 1.327 . S
C403 C419 1.429 . S
C403 H425 0.950 . S
C404 H400 0.949 . S
C404 C412 1.574 . S
C404 C420 1.368 . S
H405 C413 0.950 . S
H406 C411 0.950 . S
H407 C412 0.949 . S
H408 C414 0.950 . S
H409 C415 0.950 . S
H410 C416 0.949 . S
C411 H406 0.950 . S
C411 C413 1.327 . S
C411 C417 1.429 . S
C412 C404 1.574 . S
C412 H407 0.949 . S
C412 C418 1.368 . S
C413 C397 1.349 . S
C413 H405 0.950 . S
C413 C411 1.327 . S
C414 C402 1.349 . S
C414 H408 0.950 . S
C414 C415 1.327 . S
C415 H409 0.950 . S
C415 C414 1.327 . S
C415 C419 1.429 . S
C416 C399 1.574 . S
C416 H410 0.949 . S
C416 C420 1.368 . S
C417 C398 1.429 . S
C417 C411 1.429 . S
C417 C418 1.523 . S
C418 C399 1.368 . S
C418 C412 1.368 . S
C418 C417 1.523 . S
C419 C403 1.429 . S
C419 C415 1.429 . S
C419 C420 1.523 . S
C420 C404 1.368 . S
C420 C416 1.368 . S
C420 C419 1.523 . S
H421 C396 0.950 . S
H422 C398 0.950 . S
H423 C399 0.949 . S
H424 C401 0.950 . S
H425 C403 0.950 . S
C426 C427 1.349 . S
C426 C428 1.327 . S
C426 H451 0.950 . S
C427 C426 1.349 . S
C427 C443 1.349 . S
C428 C426 1.327 . S
C428 C447 1.429 . S
C428 H452 0.950 . S
C429 C446 1.574 . S
C429 C448 1.368 . S
C429 H453 0.949 . S
H430 C434 0.949 . S
C431 C432 1.349 . S
C431 C433 1.327 1_545 S
C431 H454 0.950 . S
C432 C431 1.349 . S
C432 C444 1.349 1_545 S
C433 C431 1.327 1_565 S
C433 C449 1.429 . S
C433 H455 0.950 . S
C434 H430 0.949 . S
C434 C442 1.574 . S
C434 C450 1.368 . S
H435 C443 0.950 . S
H436 C441 0.950 . S
H437 C442 0.949 . S
H438 C444 0.950 1_545 S
H439 C445 0.950 . S
H440 C446 0.949 . S
C441 H436 0.950 . S
C441 C443 1.327 . S
C441 C447 1.429 . S
C442 C434 1.574 . S
C442 H437 0.949 . S
C442 C448 1.368 . S
C443 C427 1.349 . S
C443 H435 0.950 . S
C443 C441 1.327 . S
C444 C432 1.349 1_565 S
C444 H438 0.950 1_565 S
C444 C445 1.327 . S
C445 H439 0.950 . S
C445 C444 1.327 . S
C445 C449 1.429 . S
C446 C429 1.574 . S
C446 H440 0.949 . S
C446 C450 1.368 . S
C447 C428 1.429 . S
C447 C441 1.429 . S
C447 C448 1.523 . S
C448 C429 1.368 . S
C448 C442 1.368 . S
C448 C447 1.523 . S
C449 C433 1.429 . S
C449 C445 1.429 . S
C449 C450 1.523 . S
C450 C434 1.368 . S
C450 C446 1.368 . S
C450 C449 1.523 . S
H451 C426 0.950 . S
H452 C428 0.950 . S
H453 C429 0.949 . S
H454 C431 0.950 . S
H455 C433 0.950 . S
C456 C457 1.349 . S
C456 C458 1.327 . S
C456 H481 0.950 . S
C457 C456 1.349 . S
C457 C473 1.349 . S
C458 C456 1.327 . S
C458 C477 1.429 . S
C458 H482 0.950 . S
C459 C476 1.574 . S
C459 C478 1.368 . S
C459 H483 0.949 . S
H460 C464 0.949 . S
C461 C462 1.349 . S
C461 C463 1.327 . S
C461 H484 0.950 . S
C462 C461 1.349 . S
C462 C474 1.349 . S
C463 C461 1.327 . S
C463 C479 1.429 . S
C463 H485 0.950 . S
C464 H460 0.949 . S
C464 C472 1.574 . S
C464 C480 1.368 . S
H465 C473 0.950 . S
H466 C471 0.950 . S
H467 C472 0.949 . S
H468 C474 0.950 . S
H469 C475 0.950 . S
H470 C476 0.949 . S
C471 H466 0.950 . S
C471 C473 1.327 . S
C471 C477 1.429 . S
C472 C464 1.574 . S
C472 H467 0.949 . S
C472 C478 1.368 . S
C473 C457 1.349 . S
C473 H465 0.950 . S
C473 C471 1.327 . S
C474 C462 1.349 . S
C474 H468 0.950 . S
C474 C475 1.327 . S
C475 H469 0.950 . S
C475 C474 1.327 . S
C475 C479 1.429 . S
C476 C459 1.574 . S
C476 H470 0.949 . S
C476 C480 1.368 . S
C477 C458 1.429 . S
C477 C471 1.429 . S
C477 C478 1.523 . S
C478 C459 1.368 . S
C478 C472 1.368 . S
C478 C477 1.523 . S
C479 C463 1.429 . S
C479 C475 1.429 . S
C479 C480 1.523 . S
C480 C464 1.368 . S
C480 C476 1.368 . S
C480 C479 1.523 . S
H481 C456 0.950 . S
H482 C458 0.950 . S
H483 C459 0.949 . S
H484 C461 0.950 . S
H485 C463 0.950 . S
C486 C487 1.349 . S
C486 C488 1.327 . S
C486 H511 0.950 . S
C487 C486 1.349 . S
C487 C503 1.349 . S
C488 C486 1.327 . S
C488 C507 1.429 . S
C488 H512 0.950 . S
C489 C506 1.574 . S
C489 C508 1.368 . S
C489 H513 0.949 . S
H490 C494 0.949 . S
C491 C492 1.349 . S
C491 C493 1.327 . S
C491 H514 0.950 . S
C492 C491 1.349 . S
C492 C504 1.349 . S
C493 C491 1.327 . S
C493 C509 1.429 . S
C493 H515 0.950 . S
C494 H490 0.949 . S
C494 C502 1.574 . S
C494 C510 1.368 . S
H495 C503 0.950 . S
H496 C501 0.950 . S
H497 C502 0.949 . S
H498 C504 0.950 . S
H499 C505 0.950 . S
H500 C506 0.949 . S
C501 H496 0.950 . S
C501 C503 1.327 . S
C501 C507 1.429 . S
C502 C494 1.574 . S
C502 H497 0.949 . S
C502 C508 1.368 . S
C503 C487 1.349 . S
C503 H495 0.950 . S
C503 C501 1.327 . S
C504 C492 1.349 . S
C504 H498 0.950 . S
C504 C505 1.327 . S
C505 H499 0.950 . S
C505 C504 1.327 . S
C505 C509 1.429 . S
C506 C489 1.574 . S
C506 H500 0.949 . S
C506 C510 1.368 . S
C507 C488 1.429 . S
C507 C501 1.429 . S
C507 C508 1.523 . S
C508 C489 1.368 . S
C508 C502 1.368 . S
C508 C507 1.523 . S
C509 C493 1.429 . S
C509 C505 1.429 . S
C509 C510 1.523 . S
C510 C494 1.368 . S
C510 C506 1.368 . S
C510 C509 1.523 . S
H511 C486 0.950 . S
H512 C488 0.950 . S
H513 C489 0.949 . S
H514 C491 0.950 . S
H515 C493 0.950 . S
C516 C517 1.349 . S
C516 C518 1.327 . S
C516 H541 0.950 . S
C517 C516 1.349 . S
C517 C533 1.349 . S
C518 C516 1.327 . S
C518 C537 1.429 . S
C518 H542 0.950 . S
C519 C536 1.574 . S
C519 C538 1.368 . S
C519 H543 0.949 . S
H520 C524 0.949 . S
C521 C522 1.349 . S
C521 C523 1.327 . S
C521 H544 0.950 . S
C522 C521 1.349 . S
C522 C534 1.349 . S
C523 C521 1.327 . S
C523 C539 1.429 . S
C523 H545 0.950 . S
C524 H520 0.949 . S
C524 C532 1.574 . S
C524 C540 1.368 . S
H525 C533 0.950 . S
H526 C531 0.950 . S
H527 C532 0.949 . S
H528 C534 0.950 . S
H529 C535 0.950 . S
H530 C536 0.949 . S
C531 H526 0.950 . S
C531 C533 1.327 . S
C531 C537 1.429 . S
C532 C524 1.574 . S
C532 H527 0.949 . S
C532 C538 1.368 . S
C533 C517 1.349 . S
C533 H525 0.950 . S
C533 C531 1.327 . S
C534 C522 1.349 . S
C534 H528 0.950 . S
C534 C535 1.327 . S
C535 H529 0.950 . S
C535 C534 1.327 . S
C535 C539 1.429 . S
C536 C519 1.574 . S
C536 H530 0.949 . S
C536 C540 1.368 . S
C537 C518 1.429 . S
C537 C531 1.429 . S
C537 C538 1.523 . S
C538 C519 1.368 . S
C538 C532 1.368 . S
C538 C537 1.523 . S
C539 C523 1.429 . S
C539 C535 1.429 . S
C539 C540 1.523 . S
C540 C524 1.368 . S
C540 C536 1.368 . S
C540 C539 1.523 . S
H541 C516 0.950 . S
H542 C518 0.950 . S
H543 C519 0.949 . S
H544 C521 0.950 . S
H545 C523 0.950 . S
C546 C547 1.349 1_655 S
C546 C548 1.327 . S
C546 H571 0.950 . S
C547 C546 1.349 1_455 S
C547 C563 1.349 . S
C548 C546 1.327 . S
C548 C567 1.429 1_655 S
C548 H572 0.950 . S
C549 C566 1.574 . S
C549 C568 1.368 . S
C549 H573 0.949 . S
H550 C554 0.949 1_556 S
C551 C552 1.349 . S
C551 C553 1.327 . S
C551 H574 0.950 . S
C552 C551 1.349 . S
C552 C564 1.349 1_455 S
C553 C551 1.327 . S
C553 C569 1.429 . S
C553 H575 0.950 . S
C554 H550 0.949 1_554 S
C554 C562 1.574 . S
C554 C570 1.368 1_654 S
H555 C563 0.950 . S
H556 C561 0.950 . S
H557 C562 0.949 . S
H558 C564 0.950 . S
H559 C565 0.950 . S
H560 C566 0.949 1_556 S
C561 H556 0.950 . S
C561 C563 1.327 . S
C561 C567 1.429 . S
C562 C554 1.574 . S
C562 H557 0.949 . S
C562 C568 1.368 1_655 S
C563 C547 1.349 . S
C563 H555 0.950 . S
C563 C561 1.327 . S
C564 C552 1.349 1_655 S
C564 H558 0.950 . S
C564 C565 1.327 . S
C565 H559 0.950 . S
C565 C564 1.327 . S
C565 C569 1.429 1_655 S
C566 C549 1.574 . S
C566 H560 0.949 1_554 S
C566 C570 1.368 1_554 S
C567 C548 1.429 1_455 S
C567 C561 1.429 . S
C567 C568 1.523 . S
C568 C549 1.368 . S
C568 C562 1.368 1_455 S
C568 C567 1.523 . S
C569 C553 1.429 . S
C569 C565 1.429 1_455 S
C569 C570 1.523 . S
C570 C554 1.368 1_456 S
C570 C566 1.368 1_556 S
C570 C569 1.523 . S
H571 C546 0.950 . S
H572 C548 0.950 . S
H573 C549 0.949 . S
H574 C551 0.950 . S
H575 C553 0.950 . S
C576 C577 1.349 . S
C576 C578 1.327 . S
C576 H601 0.950 . S
C577 C576 1.349 . S
C577 C593 1.349 . S
C578 C576 1.327 . S
C578 C597 1.429 . S
C578 H602 0.950 . S
C579 C596 1.574 . S
C579 C598 1.368 . S
C579 H603 0.949 . S
H580 C584 0.949 . S
C581 C582 1.349 . S
C581 C583 1.327 . S
C581 H604 0.950 . S
C582 C581 1.349 . S
C582 C594 1.349 . S
C583 C581 1.327 . S
C583 C599 1.429 . S
C583 H605 0.950 . S
C584 H580 0.949 . S
C584 C592 1.574 . S
C584 C600 1.368 . S
H585 C593 0.950 . S
H586 C591 0.950 . S
H587 C592 0.949 . S
H588 C594 0.950 . S
H589 C595 0.950 . S
H590 C596 0.949 . S
C591 H586 0.950 . S
C591 C593 1.327 . S
C591 C597 1.429 . S
C592 C584 1.574 . S
C592 H587 0.949 . S
C592 C598 1.368 . S
C593 C577 1.349 . S
C593 H585 0.950 . S
C593 C591 1.327 . S
C594 C582 1.349 . S
C594 H588 0.950 . S
C594 C595 1.327 . S
C595 H589 0.950 . S
C595 C594 1.327 . S
C595 C599 1.429 . S
C596 C579 1.574 . S
C596 H590 0.949 . S
C596 C600 1.368 . S
C597 C578 1.429 . S
C597 C591 1.429 . S
C597 C598 1.523 . S
C598 C579 1.368 . S
C598 C592 1.368 . S
C598 C597 1.523 . S
C599 C583 1.429 . S
C599 C595 1.429 . S
C599 C600 1.523 . S
C600 C584 1.368 . S
C600 C596 1.368 . S
C600 C599 1.523 . S
H601 C576 0.950 . S
H602 C578 0.950 . S
H603 C579 0.949 . S
H604 C581 0.950 . S
H605 C583 0.950 . S
C606 C607 1.349 . S
C606 C608 1.327 . S
C606 H631 0.950 . S
C607 C606 1.349 . S
C607 C623 1.349 . S
C608 C606 1.327 . S
C608 C627 1.429 . S
C608 H632 0.950 . S
C609 C626 1.574 . S
C609 C628 1.368 . S
C609 H633 0.949 . S
H610 C614 0.949 . S
C611 C612 1.349 . S
C611 C613 1.327 . S
C611 H634 0.950 . S
C612 C611 1.349 . S
C612 C624 1.349 . S
C613 C611 1.327 . S
C613 C629 1.429 . S
C613 H635 0.950 . S
C614 H610 0.949 . S
C614 C622 1.574 . S
C614 C630 1.368 . S
H615 C623 0.950 . S
H616 C621 0.950 . S
H617 C622 0.949 . S
H618 C624 0.950 . S
H619 C625 0.950 . S
H620 C626 0.949 . S
C621 H616 0.950 . S
C621 C623 1.327 . S
C621 C627 1.429 . S
C622 C614 1.574 . S
C622 H617 0.949 . S
C622 C628 1.368 . S
C623 C607 1.349 . S
C623 H615 0.950 . S
C623 C621 1.327 . S
C624 C612 1.349 . S
C624 H618 0.950 . S
C624 C625 1.327 . S
C625 H619 0.950 . S
C625 C624 1.327 . S
C625 C629 1.429 . S
C626 C609 1.574 . S
C626 H620 0.949 . S
C626 C630 1.368 . S
C627 C608 1.429 . S
C627 C621 1.429 . S
C627 C628 1.523 . S
C628 C609 1.368 . S
C628 C622 1.368 . S
C628 C627 1.523 . S
C629 C613 1.429 . S
C629 C625 1.429 . S
C629 C630 1.523 . S
C630 C614 1.368 . S
C630 C626 1.368 . S
C630 C629 1.523 . S
H631 C606 0.950 . S
H632 C608 0.950 . S
H633 C609 0.949 . S
H634 C611 0.950 . S
H635 C613 0.950 . S
C636 C637 1.349 . S
C636 C638 1.327 . S
C636 H661 0.950 . S
C637 C636 1.349 . S
C637 C653 1.349 . S
C638 C636 1.327 . S
C638 C657 1.429 . S
C638 H662 0.950 . S
C639 C656 1.574 . S
C639 C658 1.368 . S
C639 H663 0.949 1_545 S
H640 C644 0.949 . S
C641 C642 1.319 1_565 S
C641 C643 1.321 1_565 S
C641 H664 0.985 . S
C642 C641 1.319 1_545 S
C642 C654 1.349 . S
C643 C641 1.321 1_545 S
C643 C659 1.440 . S
C643 H665 0.940 1_545 S
C644 H640 0.949 . S
C644 C652 1.574 . S
C644 C660 1.368 . S
H645 C653 0.950 1_565 S
H646 C651 0.950 1_565 S
H647 C652 0.949 . S
H648 C654 0.950 . S
H649 C655 0.950 . S
H650 C656 0.949 1_565 S
C651 H646 0.950 1_545 S
C651 C653 1.327 . S
C651 C657 1.429 . S
C652 C644 1.574 . S
C652 H647 0.949 . S
C652 C658 1.368 . S
C653 C637 1.349 . S
C653 H645 0.950 1_545 S
C653 C651 1.327 . S
C654 C642 1.349 . S
C654 H648 0.950 . S
C654 C655 1.327 . S
C655 H649 0.950 . S
C655 C654 1.327 . S
C655 C659 1.429 . S
C656 C639 1.574 . S
C656 H650 0.949 1_545 S
C656 C660 1.368 . S
C657 C638 1.429 . S
C657 C651 1.429 . S
C657 C658 1.523 . S
C658 C639 1.368 . S
C658 C652 1.368 . S
C658 C657 1.523 . S
C659 C643 1.440 . S
C659 C655 1.429 . S
C659 C660 1.523 . S
C660 C644 1.368 . S
C660 C656 1.368 . S
C660 C659 1.523 . S
H661 C636 0.950 . S
H662 C638 0.950 . S
H663 C639 0.949 1_565 S
H664 C641 0.985 . S
H665 C643 0.940 1_565 S
C666 C667 1.349 . S
C666 C668 1.327 . S
C666 H691 0.950 . S
C667 C666 1.349 . S
C667 C683 1.349 . S
C668 C666 1.327 . S
C668 C687 1.429 . S
C668 H692 0.950 . S
C669 C686 1.574 . S
C669 C688 1.368 . S
C669 H693 0.949 . S
H670 C674 0.949 . S
C671 C672 1.349 . S
C671 C673 1.327 . S
C671 H694 0.950 . S
C672 C671 1.349 . S
C672 C684 1.349 . S
C673 C671 1.327 . S
C673 C689 1.429 . S
C673 H695 0.950 . S
C674 H670 0.949 . S
C674 C682 1.574 . S
C674 C690 1.368 1_556 S
H675 C683 0.950 . S
H676 C681 0.950 . S
H677 C682 0.949 . S
H678 C684 0.950 . S
H679 C685 0.950 . S
H680 C686 0.949 1_554 S
C681 H676 0.950 . S
C681 C683 1.327 . S
C681 C687 1.429 . S
C682 C674 1.574 . S
C682 H677 0.949 . S
C682 C688 1.368 . S
C683 C667 1.349 . S
C683 H675 0.950 . S
C683 C681 1.327 . S
C684 C672 1.349 . S
C684 H678 0.950 . S
C684 C685 1.327 . S
C685 H679 0.950 . S
C685 C684 1.327 . S
C685 C689 1.429 . S
C686 C669 1.574 . S
C686 H680 0.949 1_556 S
C686 C690 1.368 1_556 S
C687 C668 1.429 . S
C687 C681 1.429 . S
C687 C688 1.523 . S
C688 C669 1.368 . S
C688 C682 1.368 . S
C688 C687 1.523 . S
C689 C673 1.429 . S
C689 C685 1.429 . S
C689 C690 1.523 . S
C690 C674 1.368 1_554 S
C690 C686 1.368 1_554 S
C690 C689 1.523 . S
H691 C666 0.950 . S
H692 C668 0.950 . S
H693 C669 0.949 . S
H694 C671 0.950 . S
H695 C673 0.950 . S
C696 C697 1.349 . S
C696 C698 1.327 . S
C696 H721 0.950 . S
C697 C696 1.349 . S
C697 C713 1.349 . S
C698 C696 1.327 . S
C698 C717 1.429 . S
C698 H722 0.950 . S
C699 C716 1.574 . S
C699 C718 1.368 . S
C699 H723 0.949 . S
H700 C704 0.949 . S
C701 C702 1.349 . S
C701 C703 1.327 . S
C701 H724 0.950 . S
C702 C701 1.349 . S
C702 C714 1.349 . S
C703 C701 1.327 . S
C703 C719 1.429 . S
C703 H725 0.950 . S
C704 H700 0.949 . S
C704 C712 1.574 . S
C704 C720 1.368 . S
H705 C713 0.950 . S
H706 C711 0.950 . S
H707 C712 0.949 . S
H708 C714 0.950 . S
H709 C715 0.950 . S
H710 C716 0.949 . S
C711 H706 0.950 . S
C711 C713 1.327 . S
C711 C717 1.429 . S
C712 C704 1.574 . S
C712 H707 0.949 . S
C712 C718 1.368 . S
C713 C697 1.349 . S
C713 H705 0.950 . S
C713 C711 1.327 . S
C714 C702 1.349 . S
C714 H708 0.950 . S
C714 C715 1.327 . S
C715 H709 0.950 . S
C715 C714 1.327 . S
C715 C719 1.429 . S
C716 C699 1.574 . S
C716 H710 0.949 . S
C716 C720 1.368 . S
C717 C698 1.429 . S
C717 C711 1.429 . S
C717 C718 1.523 . S
C718 C699 1.368 . S
C718 C712 1.368 . S
C718 C717 1.523 . S
C719 C703 1.429 . S
C719 C715 1.429 . S
C719 C720 1.523 . S
C720 C704 1.368 . S
C720 C716 1.368 . S
C720 C719 1.523 . S
H721 C696 0.950 . S
H722 C698 0.950 . S
H723 C699 0.949 . S
H724 C701 0.950 . S
H725 C703 0.950 . S
C187 C10 3.046 . S
C192 C185 3.011 . S
C217 C59 3.136 . S
C222 C163 3.070 . S
C247 C90 3.029 . S
C252 C174 2.990 . S
C277 C19 2.959 . S
C282 C179 2.920 . S
C312 C157 2.858 . S
C307 C50 2.882 . S
C342 C168 2.929 . S
C337 C99 2.967 . S
C367 C46 0.482 . S
C372 C141 0.494 . S
C397 C95 0.228 . S
C402 C146 0.193 . S
C427 C6 0.194 . S
C432 C124 0.262 . S
C462 C135 0.197 . S
C457 C55 0.212 . S
C492 C152 0.425 . S
C487 C86 0.395 . S
C517 C15 0.361 . S
C522 C130 0.333 . S
C552 C147 1.313 . S
C547 C9 1.294 . S
C577 C49 1.209 . S
C582 C125 1.255 . S
C607 C89 1.254 . S
C612 C136 1.285 . S
C642 C169 1.721 . S
C637 C58 1.679 . S
C672 C180 1.746 . S
C667 C98 1.687 . S
C697 C18 1.676 . S
C702 C158 1.783 . S
