# Generated by pormake.
# Topology tsx, (6,3)-cn, num edge types: 1
# Building blocks:
#     Node 0, Type 0, BuildingBlock: JUFBIX_clean_sbu_0, # of connection points: 6
#     Node 1, Type 0, BuildingBlock: JUFBIX_clean_sbu_0, # of connection points: 6
#     Node 2, Type 1, BuildingBlock: PAMTOO_clean_linker_0, # of connection points: 3
#     Node 3, Type 1, BuildingBlock: PAMTOO_clean_linker_0, # of connection points: 3
#     Node 4, Type 1, BuildingBlock: PAMTOO_clean_linker_0, # of connection points: 3
#     Node 5, Type 1, BuildingBlock: PAMTOO_clean_linker_0, # of connection points: 3
#     Edge 6, Type (0, 1), BuildingBlock: TEMPAE_clean_linker_10, # of connection points: 2
#     Edge 7, Type (0, 1), BuildingBlock: TEMPAE_clean_linker_10, # of connection points: 2
#     Edge 8, Type (0, 1), BuildingBlock: TEMPAE_clean_linker_10, # of connection points: 2
#     Edge 9, Type (0, 1), BuildingBlock: TEMPAE_clean_linker_10, # of connection points: 2
#     Edge 10, Type (0, 1), BuildingBlock: TEMPAE_clean_linker_10, # of connection points: 2
#     Edge 11, Type (0, 1), BuildingBlock: TEMPAE_clean_linker_10, # of connection points: 2
#     Edge 12, Type (0, 1), BuildingBlock: TEMPAE_clean_linker_10, # of connection points: 2
#     Edge 13, Type (0, 1), BuildingBlock: TEMPAE_clean_linker_10, # of connection points: 2
#     Edge 14, Type (0, 1), BuildingBlock: TEMPAE_clean_linker_10, # of connection points: 2
#     Edge 15, Type (0, 1), BuildingBlock: TEMPAE_clean_linker_10, # of connection points: 2
#     Edge 16, Type (0, 1), BuildingBlock: TEMPAE_clean_linker_10, # of connection points: 2
#     Edge 17, Type (0, 1), BuildingBlock: TEMPAE_clean_linker_10, # of connection points: 2
# Relax obj value: 0.109
# Max RMSD: 0.125
# Mean RMSD: 0.121
data_MOF--net-tsx--node1-JUFBIX_clean_sbu_0--node2-PAMTOO_clean_linker_0--edge1-TEMPAE_clean_linker_10
_symmetry_space_group_name_H-M    P1
_symmetry_Int_Tables_number       1
_symmetry_cell_setting            triclinic
loop_
_symmetry_equiv_pos_as_xyz
'x, y, z'
_cell_length_a     19.946425
_cell_length_b     23.94558
_cell_length_c     33.397818
_cell_angle_alpha  84.322568
_cell_angle_beta   89.561269
_cell_angle_gamma 98.985059
loop_
_atom_site_label
_atom_site_type_symbol
_atom_site_fract_x
_atom_site_fract_y
_atom_site_fract_z
_atom_type_partial_charge
Co0 Co 0.06822 0.93775 0.016 0.0
C1 C 0.058 0.97286 0.93487 0.0
Co2 Co 0.98235 0.98495 0.00206 0.0
C3 C 0.16855 0.86068 0.01001 0.0
C4 C 0.18352 0.91079 0.05972 0.0
N5 N 0.14253 0.90073 0.02843 0.0
N6 N 0.22384 0.84524 0.02886 0.0
C7 C 0.2331 0.87688 0.06013 0.0
H8 H 0.14702 0.84293 0.98351 0.0
H9 H 0.17806 0.94138 0.08081 0.0
C10 C 0.9926 0.95179 0.08326 0.0
N11 N 0.90779 0.02283 -0.00813 0.0
C12 C 0.90605 0.07914 0.98352 0.0
C13 C 0.84208 0.99926 -0.00165 0.0
N14 N 0.84216 0.0914 0.98519 0.0
C15 C 0.8019 0.041 -0.00585 0.0
C16 C 0.95013 0.86751 0.00068 0.0
O17 O 0.04501 0.93314 0.07172 0.0
O18 O 0.95643 0.97439 0.0572 0.0
O19 O 0.92886 0.9147 -0.00643 0.0
O20 O 1.01065 0.86672 0.01232 0.0
O21 O 1.0092 0.99571 0.94722 0.0
H22 H 0.8243 0.95482 0.00757 0.0
H23 H 0.95093 0.11096 0.97846 0.0
O24 O 0.08993 0.94353 0.95982 0.0
O25 O 0.12467 1.00933 0.01988 0.0
O26 O 0.03735 0.05399 0.01042 0.0
C27 C 0.10007 0.05544 0.0172 0.0
H28 H 0.27375 0.87649 0.08139 0.0
H29 H 0.74727 0.03473 -0.00174 0.0
Co30 Co 0.58432 0.56797 0.47953 0.0
C31 C 0.51039 0.60466 0.41357 0.0
Co32 Co 0.49856 0.61104 0.49432 0.0
C33 C 0.67913 0.48721 0.47682 0.0
C34 C 0.70075 0.55909 0.43262 0.0
N35 N 0.65724 0.53601 0.46309 0.0
N36 N 0.73484 0.47923 0.45612 0.0
C37 C 0.74836 0.52444 0.42829 0.0
H38 H 0.65487 0.4584 0.5016 0.0
H39 H 0.69765 0.59849 0.41438 0.0
C40 C 0.57269 0.57444 0.56017 0.0
N41 N 0.4261 0.64412 0.51017 0.0
C42 C 0.40895 0.69478 0.4964 0.0
C43 C 0.37757 0.6212 0.538 0.0
N44 N 0.35133 0.70402 0.51428 0.0
C45 C 0.33125 0.65776 0.54036 0.0
C46 C 0.46484 0.49281 0.49371 0.0
O47 O 0.60859 0.55677 0.53398 0.0
O48 O 0.52241 0.59837 0.54899 0.0
O49 O 0.44177 0.5384 0.49845 0.0
O50 O 0.52755 0.49553 0.48496 0.0
O51 O 0.47482 0.62321 0.43945 0.0
H52 H 0.37564 0.58024 0.5552 0.0
H53 H 0.43707 0.72362 0.4729 0.0
O54 O 0.55961 0.57975 0.42512 0.0
O55 O 0.64047 0.63975 0.47498 0.0
O56 O 0.55675 0.68345 0.49028 0.0
C57 C 0.61936 0.68534 0.4816 0.0
H58 H 0.78882 0.53139 0.40571 0.0
H59 H 0.28624 0.65091 0.55966 0.0
H60 H 0.04777 0.95476 0.37299 0.0
H61 H 0.96256 0.10908 0.37063 0.0
H62 H 0.10369 0.0714 0.46178 0.0
H63 H 1.00629 0.13521 0.49578 0.0
C64 C 0.97791 0.14078 0.46765 0.0
O65 O 1.02232 0.14217 0.43556 0.0
H66 H 0.93551 0.10457 0.46756 0.0
C67 C 0.04312 0.99369 0.38604 0.0
C68 C 0.08132 1.00812 0.41974 0.0
C69 C 1.00151 0.03027 0.36754 0.0
C70 C 0.99466 0.08042 0.38449 0.0
C71 C 0.03033 0.09435 0.41896 0.0
C72 C 0.07444 0.05888 0.43611 0.0
H73 H 0.19881 0.12106 0.63928 0.0
H74 H 0.04937 0.97645 0.61973 0.0
H75 H 0.10339 0.10903 0.5246 0.0
H76 H 0.94648 0.05919 0.53399 0.0
C77 C 0.95554 0.01934 0.55121 0.0
O78 O 1.02294 0.01318 0.54722 0.0
H79 H 0.9422 0.02289 0.58324 0.0
C80 C 0.16403 0.09814 0.61971 0.0
C81 C 0.15848 0.12103 0.57949 0.0
C82 C 0.12373 0.04673 0.63522 0.0
C83 C 0.07981 0.01682 0.60921 0.0
C84 C 0.07142 0.03991 0.56989 0.0
C85 C 0.11088 0.09155 0.55498 0.0
H86 H 0.70115 0.44865 0.85727 0.0
H87 H 0.59886 0.59193 0.86735 0.0
H88 H 0.62301 0.47873 0.97246 0.0
H89 H 0.48126 0.5142 0.95641 0.0
C90 C 0.49953 0.55742 0.94136 0.0
O91 O 0.56954 0.56856 0.94363 0.0
H92 H 0.48448 0.55804 0.90931 0.0
C93 C 0.67617 0.47446 0.87572 0.0
C94 C 0.66695 0.45851 0.91721 0.0
C95 C 0.65127 0.52198 0.85736 0.0
C96 C 0.62002 0.55591 0.88124 0.0
C97 C 0.60905 0.54012 0.92257 0.0
C98 C 0.63312 0.49168 0.94072 0.0
H99 H 0.5455 0.62761 0.11672 0.0
H100 H 0.39466 0.47728 0.12354 0.0
H101 H 0.53146 0.51768 0.02178 0.0
H102 H 0.39713 0.46053 -0.00052 0.0
C103 C 0.37777 0.44294 0.03006 0.0
O104 O 0.43158 0.44458 0.05576 0.0
H105 H 0.34044 0.46928 0.0398 0.0
C106 C 0.51956 0.59134 0.10302 0.0
C107 C 0.54315 0.57922 0.06554 0.0
C108 C 0.4663 0.55504 0.12447 0.0
C109 C 0.43585 0.50605 0.1077 0.0
C110 C 0.45947 0.493 0.07073 0.0
C111 C 0.51323 0.5291 0.04992 0.0
C112 C 0.11659 0.16121 0.01465 0.0
C113 C 0.14367 0.11049 0.02116 0.0
C114 C 0.15709 0.214 0.01724 0.0
C115 C 0.22637 0.21623 0.02682 0.0
C116 C 0.25396 0.16523 0.03394 0.0
C117 C 0.21227 0.11288 0.03093 0.0
C118 C 0.12582 0.26746 0.00925 0.0
C119 C 0.32757 0.16605 0.04445 0.0
C120 C 0.33978 0.356 -0.00576 0.0
C121 C 0.34254 0.38277 0.02976 0.0
C122 C 0.3037 0.30102 -0.00684 0.0
C123 C 0.26988 0.27224 0.02851 0.0
C124 C 0.27422 0.29855 0.06476 0.0
C125 C 0.3104 0.35371 0.0649 0.0
C126 C 0.30003 0.27445 0.9539 0.0
C127 C 0.23915 0.26906 0.10309 0.0
H128 H 0.06365 0.15983 0.00709 0.0
H129 H 0.2335 0.07386 0.03613 0.0
H130 H 0.13173 0.29217 0.03575 0.0
H131 H 0.15256 0.2948 0.98338 0.0
H132 H 0.07096 0.25831 0.00251 0.0
H133 H 0.34072 0.12261 0.05017 0.0
H134 H 0.36071 0.18964 0.01952 0.0
H135 H 0.3391 0.18867 0.07161 0.0
H136 H 0.36484 0.37853 0.96708 0.0
H137 H 0.31282 0.37465 0.09232 0.0
H138 H 0.24674 0.26788 0.94383 0.0
H139 H 0.31643 0.23212 0.95806 0.0
H140 H 0.33215 0.3012 0.92973 0.0
H141 H 0.18335 0.26276 0.09931 0.0
H142 H 0.25145 0.2937 0.12929 0.0
H143 H 0.25393 0.22639 0.10978 0.0
C144 C 0.30012 0.77514 0.04783 0.0
C145 C 0.26571 0.80458 0.01807 0.0
C146 C 0.34211 0.73626 0.03791 0.0
C147 C 0.3503 0.72659 -0.00284 0.0
C148 C 0.3162 0.75646 0.96694 0.0
C149 C 0.27413 0.79482 0.97777 0.0
C150 C 0.37668 0.7047 0.07111 0.0
C151 C 0.32386 0.74761 0.92311 0.0
C152 C 0.4973 0.65641 0.96309 0.0
C153 C 0.46478 0.60066 0.96007 0.0
C154 C 0.46133 0.69757 0.97634 0.0
C155 C 0.39108 0.68278 -0.01374 0.0
C156 C 0.3586 0.6263 0.98395 0.0
C157 C 0.39557 0.58637 0.97035 0.0
C158 C 0.49804 0.7572 0.97865 0.0
C159 C 0.28411 0.60832 -0.00541 0.0
H160 H 0.29331 0.78179 0.0791 0.0
H161 H 0.24861 0.81788 0.95458 0.0
H162 H 0.35809 0.6584 0.07215 0.0
H163 H 0.43226 0.71099 0.06505 0.0
H164 H 0.3674 0.71869 0.10112 0.0
H165 H 0.29641 0.77585 0.90312 0.0
H166 H 0.37837 0.75567 0.9139 0.0
H167 H 0.30403 0.70284 0.9185 0.0
H168 H 0.55047 0.66823 0.95439 0.0
H169 H 0.36966 0.54405 0.9666 0.0
H170 H 0.4922 0.76997 0.00935 0.0
H171 H 0.47529 0.78736 0.95752 0.0
H172 H 0.55309 0.76138 0.97115 0.0
H173 H 0.27274 0.62008 0.02494 0.0
H174 H 0.26789 0.56183 -0.00578 0.0
H175 H 0.25326 0.63089 0.97285 0.0
C176 C 0.89402 0.77442 0.03369 0.0
C177 C 0.9013 0.81476 6e-05 0.0
C178 C 0.83722 0.73137 0.03831 0.0
C179 C 0.7881 0.72755 0.00779 0.0
C180 C 0.79899 0.76496 0.97197 0.0
C181 C 0.85467 0.80912 0.96897 0.0
C182 C 0.82678 0.69337 0.07744 0.0
C183 C 0.7497 0.76073 0.93792 0.0
C184 C 0.65336 0.59608 0.0254 0.0
C185 C 0.60156 0.61775 0.04463 0.0
C186 C 0.71267 0.63199 0.01042 0.0
C187 C 0.72133 0.69044 0.0162 0.0
C188 C 0.66764 0.71298 0.03351 0.0
C189 C 0.60802 0.67658 0.04668 0.0
C190 C 0.76705 0.60701 -0.01011 0.0
C191 C 0.67443 0.77505 0.04032 0.0
H192 H 0.92972 0.77937 0.0579 0.0
H193 H 0.86056 0.84042 0.94288 0.0
H194 H 0.78238 0.70303 0.09419 0.0
H195 H 0.8156 0.64811 0.07162 0.0
H196 H 0.87178 0.69912 0.09687 0.0
H197 H 0.77327 0.78282 0.90923 0.0
H198 H 0.73091 0.71567 0.93352 0.0
H199 H 0.70514 0.78074 0.94512 0.0
H200 H 0.64905 0.55079 0.0235 0.0
H201 H 0.56719 0.69407 0.06002 0.0
H202 H 0.81125 0.60607 0.00975 0.0
H203 H 0.78515 0.63378 0.96169 0.0
H204 H 0.74868 0.56302 0.98262 0.0
H205 H 0.71757 0.78619 0.06038 0.0
H206 H 0.62777 0.78567 0.05415 0.0
H207 H 0.68547 0.80209 0.01142 0.0
C208 C 0.85701 0.19182 0.95596 0.0
C209 C 0.82102 0.1467 0.98129 0.0
C210 C 0.83385 0.24452 0.94984 0.0
C211 C 0.77343 0.25242 0.96969 0.0
C212 C 0.73874 0.2079 -0.00325 0.0
C213 C 0.76284 0.15568 0.00215 0.0
C214 C 0.87233 0.29087 0.92067 0.0
C215 C 0.67455 0.21459 0.01881 0.0
C216 C 0.73137 0.40305 0.96728 0.0
C217 C 0.6886 0.40462 0.93423 0.0
C218 C 0.75876 0.3535 0.97978 0.0
C219 C 0.74256 0.30462 0.95878 0.0
C220 C 0.69714 0.30557 0.92646 0.0
C221 C 0.67073 0.35539 0.91469 0.0
C222 C 0.80662 0.354 0.01454 0.0
C223 C 0.67776 0.25438 0.90349 0.0
H224 H 0.9019 0.18524 0.93974 0.0
H225 H 0.73566 0.1216 0.0226 0.0
H226 H 0.84119 0.29806 0.89381 0.0
H227 H 0.88219 0.33141 0.93466 0.0
H228 H 0.92154 0.2801 0.91061 0.0
H229 H 0.65757 0.17826 0.04184 0.0
H230 H 0.68225 0.25437 0.03379 0.0
H231 H 0.63331 0.21778 -0.003 0.0
H232 H 0.74543 0.44114 0.98232 0.0
H233 H 0.63688 0.35629 0.88945 0.0
H234 H 0.85803 0.34966 0.0036 0.0
H235 H 0.78972 0.31729 0.03719 0.0
H236 H 0.8103 0.39377 0.02948 0.0
H237 H 0.72372 0.24344 0.88915 0.0
H238 H 0.64057 0.2617 0.8797 0.0
H239 H 0.65548 0.21707 0.92439 0.0
C240 C 0.64844 0.7889 0.49199 0.0
C241 C 0.6692 0.73806 0.48321 0.0
C242 C 0.69641 0.83662 0.49858 0.0
C243 C 0.76668 0.83315 0.4968 0.0
C244 C 0.78788 0.78283 0.48609 0.0
C245 C 0.73899 0.73612 0.47922 0.0
C246 C 0.67184 0.8899 0.50924 0.0
C247 C 0.86216 0.77706 0.48418 0.0
C248 C 0.89638 0.9684 0.49546 0.0
C249 C 0.91016 0.96955 0.53648 0.0
C250 C 0.84996 0.92423 0.48187 0.0
C251 C 0.81758 0.87981 0.51001 0.0
C252 C 0.83391 0.87964 0.55125 0.0
C253 C 0.88009 0.92448 0.56395 0.0
C254 C 0.83461 0.92575 0.43762 0.0
C255 C 0.80187 0.83245 0.58212 0.0
H256 H 0.59473 0.79094 0.49492 0.0
H257 H 0.75576 0.69714 0.47232 0.0
H258 H 0.68341 0.89622 0.54108 0.0
H259 H 0.69874 0.92756 0.49032 0.0
H260 H 0.61629 0.88795 0.50529 0.0
H261 H 0.87052 0.73749 0.47145 0.0
H262 H 0.89158 0.81393 0.4657 0.0
H263 H 0.88289 0.77651 0.51494 0.0
H264 H 0.92097 1.00263 0.47414 0.0
H265 H 0.89183 0.92493 0.59558 0.0
H266 H 0.78008 0.92847 0.43324 0.0
H267 H 0.8443 0.88599 0.42581 0.0
H268 H 0.86556 0.96241 0.41956 0.0
H269 H 0.74602 0.8311 0.58316 0.0
H270 H 0.82151 0.83782 0.61277 0.0
H271 H 0.81161 0.79081 0.57351 0.0
C272 C 0.84063 0.43927 0.45022 0.0
C273 C 0.77146 0.43179 0.46106 0.0
C274 C 0.87621 0.3931 0.45204 0.0
C275 C 0.84187 0.33804 0.46519 0.0
C276 C 0.7725 0.33028 0.47721 0.0
C277 C 0.73808 0.37733 0.47501 0.0
C278 C 0.95027 0.40311 0.43922 0.0
C279 C 0.7343 0.27213 0.49154 0.0
C280 C 0.91271 0.21156 0.4317 0.0
C281 C 0.94718 0.19431 0.46595 0.0
C282 C 0.87855 0.25859 0.43094 0.0
C283 C 0.87832 0.28847 0.46548 0.0
C284 C 0.9132 0.27119 0.50015 0.0
C285 C 0.94715 0.22417 0.49998 0.0
C286 C 0.8421 0.27592 0.39338 0.0
C287 C 0.91385 0.30186 0.53757 0.0
H288 H 0.86703 0.4814 0.44016 0.0
H289 H 0.68456 0.37119 0.48308 0.0
H290 H 0.98127 0.38716 0.46398 0.0
H291 H 0.95746 0.37912 0.41316 0.0
H292 H 0.9699 0.44878 0.43064 0.0
H293 H 0.68132 0.27364 0.50135 0.0
H294 H 0.73291 0.24401 0.46698 0.0
H295 H 0.76079 0.25248 0.51704 0.0
H296 H 0.91179 0.18768 0.40572 0.0
H297 H 0.97288 0.21015 0.52673 0.0
H298 H 0.86193 0.32068 0.3822 0.0
H299 H 0.78719 0.27347 0.40037 0.0
H300 H 0.84794 0.24862 0.36895 0.0
H301 H 0.93541 0.34737 0.53034 0.0
H302 H 0.94396 0.28334 0.56185 0.0
H303 H 0.86116 0.30006 0.5491 0.0
C304 C 0.34904 0.43404 0.4974 0.0
C305 C 0.41961 0.43718 0.50055 0.0
C306 C 0.30511 0.38232 0.50661 0.0
C307 C 0.3322 0.33279 0.52044 0.0
C308 C 0.40355 0.33553 0.52293 0.0
C309 C 0.4464 0.38752 0.51247 0.0
C310 C 0.22957 0.381 0.50242 0.0
C311 C 0.43454 0.28412 0.53832 0.0
C312 C 0.21874 0.21954 0.58895 0.0
C313 C 0.20103 0.17622 0.56366 0.0
C314 C 0.26161 0.27025 0.57531 0.0
C315 C 0.28588 0.27917 0.53487 0.0
C316 C 0.26641 0.23674 0.50868 0.0
C317 C 0.22506 0.18559 0.52347 0.0
C318 C 0.28159 0.31406 0.60443 0.0
C319 C 0.28969 0.24516 0.46509 0.0
H320 H 0.32804 0.47221 0.4879 0.0
H321 H 0.50086 0.38973 0.51521 0.0
H322 H 0.20792 0.34583 0.48477 0.0
H323 H 0.20427 0.37292 0.53258 0.0
H324 H 0.21714 0.42155 0.48748 0.0
H325 H 0.49092 0.29261 0.53686 0.0
H326 H 0.4178 0.27064 0.57005 0.0
H327 H 0.41681 0.24803 0.52063 0.0
H328 H 0.19905 0.2141 0.61962 0.0
H329 H 0.21255 0.15257 0.50358 0.0
H330 H 0.26388 0.35445 0.59364 0.0
H331 H 0.33773 0.32323 0.60613 0.0
H332 H 0.26011 0.29993 0.63521 0.0
H333 H 0.27677 0.28568 0.4505 0.0
H334 H 0.26635 0.20989 0.44796 0.0
H335 H 0.34569 0.24818 0.46305 0.0
C336 C 0.24515 0.74247 0.50261 0.0
C337 C 0.31595 0.75147 0.50536 0.0
C338 C 0.20997 0.78773 0.49158 0.0
C339 C 0.24648 0.84354 0.48405 0.0
C340 C 0.3178 0.85319 0.4885 0.0
C341 C 0.35186 0.8068 0.49853 0.0
C342 C 0.13412 0.77545 0.48629 0.0
C343 C 0.35817 0.91227 0.48188 0.0
C344 C 0.16547 0.94251 0.41078 0.0
C345 C 0.12921 0.97046 0.43663 0.0
C346 C 0.20502 0.90213 0.4259 0.0
C347 C 0.21048 0.89059 0.46801 0.0
C348 C 0.17774 0.92122 0.49433 0.0
C349 C 0.13691 0.96039 0.47832 0.0
C350 C 0.23862 0.87011 0.39674 0.0
C351 C 0.18372 0.91123 0.53941 0.0
H352 H 0.21759 0.69956 0.5076 0.0
H353 H 0.40657 0.81365 0.50122 0.0
H354 H 0.10808 0.80182 0.50489 0.0
H355 H 0.12209 0.7868 0.45441 0.0
H356 H 0.11306 0.73001 0.49471 0.0
H357 H 0.41192 0.91324 0.49065 0.0
H358 H 0.35727 0.9286 0.44966 0.0
H359 H 0.33501 0.94165 0.49944 0.0
H360 H 0.16203 0.95141 0.37848 0.0
H361 H 0.10941 0.98174 0.49853 0.0
H362 H 0.21793 0.82412 0.40185 0.0
H363 H 0.29399 0.87469 0.40181 0.0
H364 H 0.2306 0.88511 0.36484 0.0
H365 H 0.15395 0.86941 0.5505 0.0
H366 H 0.16448 0.94452 0.55516 0.0
H367 H 0.23734 0.91017 0.5476 0.0
C368 C 1.02713 0.94313 0.15492 0.0
C369 C 0.97776 0.95288 0.12658 0.0
C370 C 1.01841 0.95265 0.19522 0.0
C371 C 0.9584 0.9716 0.20758 0.0
C372 C 0.90642 0.97788 0.17971 0.0
C373 C 0.91693 0.96887 0.13939 0.0
C374 C 0.07522 0.94556 0.22404 0.0
C375 C 0.84117 0.99675 0.19198 0.0
C376 C 0.94186 0.9644 0.32095 0.0
C377 C 0.97377 0.01902 0.32767 0.0
C378 C 0.93112 0.94936 0.28168 0.0
C379 C 0.95374 0.98977 0.24863 0.0
C380 C 0.98072 0.04628 0.25538 0.0
C381 C 0.99007 0.06031 0.29492 0.0
C382 C 0.90053 0.88912 0.27571 0.0
C383 C 1.00552 0.09067 0.22095 0.0
H384 H 0.0742 0.93072 0.14526 0.0
H385 H 0.87824 0.97599 0.11768 0.0
H386 H 0.09664 0.98743 0.23396 0.0
H387 H 0.05558 0.91728 0.25128 0.0
H388 H 0.11688 0.92756 0.21023 0.0
H389 H 0.80205 0.9912 0.16859 0.0
H390 H 0.82043 0.97259 0.22063 0.0
H391 H 0.85131 0.04234 0.19711 0.0
H392 H 0.92867 0.93261 0.34638 0.0
H393 H 1.01521 0.10243 0.30007 0.0
H394 H 0.94133 0.8655 0.26739 0.0
H395 H 0.86397 0.88836 0.25082 0.0
H396 H 0.87415 0.86648 0.30347 0.0
H397 H 0.05161 0.07967 0.20679 0.0
H398 H 1.01834 0.13384 0.23102 0.0
H399 H 0.96658 0.09173 0.19749 0.0
C400 C 0.06819 0.03154 0.86885 0.0
C401 C 0.07753 0.98127 0.89179 0.0
C402 C 0.08355 0.03981 0.82749 0.0
C403 C 0.10688 0.99598 0.80839 0.0
C404 C 0.11765 0.94547 0.83158 0.0
C405 C 0.10371 0.93903 0.87325 0.0
C406 C 0.07303 0.09493 0.80406 0.0
C407 C 0.14079 0.89724 0.81213 0.0
C408 C 0.06094 1.00143 0.69862 0.0
C409 C 0.12239 0.02723 0.67919 0.0
C410 C 0.05657 0.98762 0.74039 0.0
C411 C 0.11438 1.00174 0.76379 0.0
C412 C 0.17707 0.02616 0.74457 0.0
C413 C 0.18059 0.0378 0.70245 0.0
C414 C 0.98901 0.9604 0.75964 0.0
C415 C 0.23956 0.04273 0.7686 0.0
H416 H 0.04882 0.06457 0.88331 0.0
H417 H 0.11075 0.90007 0.89104 0.0
H418 H 0.11911 0.11345 0.7856 0.0
H419 H 0.0305 0.08676 0.78314 0.0
H420 H 0.06119 0.12674 0.82401 0.0
H421 H 0.15234 0.86297 0.83471 0.0
H422 H 0.10037 0.87882 0.79244 0.0
H423 H 0.18661 0.91295 0.7928 0.0
H424 H 1.01506 0.99397 0.68153 0.0
H425 H 0.22874 0.05644 0.68793 0.0
H426 H 0.96774 0.99161 0.77641 0.0
H427 H 0.9955 0.92378 0.78155 0.0
H428 H 0.95159 0.94538 0.73704 0.0
H429 H 0.23166 0.07804 0.78638 0.0
H430 H 0.28567 0.05673 0.74909 0.0
H431 H 0.24861 1.00665 0.79026 0.0
C432 C 0.54202 0.57686 0.63237 0.0
C433 C 0.58931 0.56827 0.60322 0.0
C434 C 0.55655 0.57123 0.67339 0.0
C435 C 0.62026 0.55737 0.68553 0.0
C436 C 0.66872 0.54957 0.65625 0.0
C437 C 0.65246 0.55471 0.61537 0.0
C438 C 0.50313 0.57899 0.70379 0.0
C439 C 0.73741 0.5353 0.66814 0.0
C440 C 0.66803 0.58529 0.79241 0.0
C441 C 0.64926 0.53111 0.81293 0.0
C442 C 0.6614 0.59422 0.75051 0.0
C443 C 0.63429 0.54801 0.72904 0.0
C444 C 0.61639 0.49308 0.74961 0.0
C445 C 0.62433 0.4853 0.79127 0.0
C446 C 0.68179 0.65322 0.72939 0.0
C447 C 0.58632 0.4429 0.72789 0.0
H448 H 0.49305 0.58723 0.62317 0.0
H449 H 0.6894 0.54849 0.59291 0.0
H450 H 0.48858 0.539 0.7238 0.0
H451 H 0.52375 0.61246 0.72308 0.0
H452 H 0.45671 0.59088 0.68931 0.0
H453 H 0.7707 0.53365 0.64161 0.0
H454 H 0.76319 0.56733 0.6871 0.0
H455 H 0.73115 0.49348 0.68644 0.0
H456 H 0.68748 0.62065 0.80917 0.0
H457 H 0.60862 0.44352 0.8072 0.0
H458 H 0.63621 0.66946 0.71709 0.0
H459 H 0.7168 0.65214 0.70359 0.0
H460 H 0.70696 0.6835 0.74985 0.0
H461 H 0.53687 0.4503 0.71514 0.0
H462 H 0.57805 0.40253 0.74804 0.0
H463 H 0.62012 0.43796 0.70239 0.0
C464 C 0.54509 0.60827 0.3418 0.0
C465 C 0.4938 0.60882 0.37054 0.0
C466 C 0.53 0.60477 0.3012 0.0
C467 C 0.46165 0.60066 0.28912 0.0
C468 C 0.40986 0.60373 0.31771 0.0
C469 C 0.42668 0.60825 0.35822 0.0
C470 C 0.58705 0.60288 0.27156 0.0
C471 C 0.33643 0.59904 0.30601 0.0
C472 C 0.44911 0.62148 0.1759 0.0
C473 C 0.44863 0.56573 0.16608 0.0
C474 C 0.44788 0.63342 0.21617 0.0
C475 C 0.44514 0.5884 0.24724 0.0
C476 C 0.43766 0.53159 0.23746 0.0
C477 C 0.43994 0.52094 0.19699 0.0
C478 C 0.45552 0.69455 0.22527 0.0
C479 C 0.43333 0.48225 0.26975 0.0
H480 H 0.59714 0.60933 0.35124 0.0
H481 H 0.38691 0.6084 0.3805 0.0
H482 H 0.58114 0.56036 0.26029 0.0
H483 H 0.58524 0.63466 0.24523 0.0
H484 H 0.63779 0.61133 0.28521 0.0
H485 H 0.30398 0.61055 0.33012 0.0
H486 H 0.33106 0.62678 0.27797 0.0
H487 H 0.31731 0.55468 0.30001 0.0
H488 H 0.45407 0.65621 0.15209 0.0
H489 H 0.4397 0.47774 0.18983 0.0
H490 H 0.50845 0.70857 0.23426 0.0
H491 H 0.42147 0.69926 0.25071 0.0
H492 H 0.44445 0.72316 0.19872 0.0
H493 H 0.48387 0.48172 0.28333 0.0
H494 H 0.41722 0.44082 0.2576 0.0
H495 H 0.39709 0.48677 0.29414 0.0
loop_
_geom_bond_atom_site_label_1
_geom_bond_atom_site_label_2
_geom_bond_distance
_geom_bond_site_symmetry_2
_ccdc_geom_bond_type
Co0 N5 2.057 . S
Co0 O17 2.021 . S
Co0 O20 2.062 1_455 S
Co0 O24 2.117 1_564 S
Co0 O25 2.020 1_565 S
C1 O21 1.259 1_455 S
C1 O24 1.258 . S
Co2 N11 2.057 . S
Co2 O18 2.117 . S
Co2 O19 2.020 1_545 S
Co2 O21 2.021 1_554 S
Co2 O26 2.062 1_655 S
C3 N5 1.316 . S
C3 N6 1.347 . S
C3 H8 0.931 . S
C4 N5 1.375 1_556 S
C4 C7 1.350 . S
C4 H9 0.930 . S
N5 Co0 2.057 . S
N5 C3 1.316 . S
N5 C4 1.375 1_554 S
N6 C3 1.347 . S
N6 C7 1.373 1_554 S
C7 C4 1.350 . S
C7 N6 1.373 1_556 S
C7 H28 0.931 . S
H8 C3 0.931 . S
H9 C4 0.930 . S
C10 O17 1.259 1_545 S
C10 O18 1.258 1_455 S
N11 Co2 2.057 . S
N11 C12 1.316 1_554 S
N11 C13 1.375 . S
C12 N11 1.316 1_556 S
C12 N14 1.347 1_556 S
C12 H23 0.931 . S
C13 N11 1.375 . S
C13 C15 1.350 . S
C13 H22 0.930 . S
N14 C12 1.347 1_554 S
N14 C15 1.373 . S
C15 C13 1.350 . S
C15 N14 1.373 . S
C15 H29 0.931 . S
C16 O19 1.256 . S
C16 O20 1.255 . S
O17 Co0 2.021 . S
O17 C10 1.259 1_565 S
O18 Co2 2.117 . S
O18 C10 1.258 1_655 S
O19 Co2 2.020 1_565 S
O19 C16 1.256 . S
O20 Co0 2.062 1_655 S
O20 C16 1.255 . S
O21 C1 1.259 1_655 S
O21 Co2 2.021 1_556 S
H22 C13 0.930 . S
H23 C12 0.931 . S
O24 Co0 2.117 1_546 S
O24 C1 1.258 . S
O25 Co0 2.020 1_545 S
O25 C27 1.256 . S
O26 Co2 2.062 1_455 S
O26 C27 1.255 . S
C27 O25 1.256 . S
C27 O26 1.255 . S
H28 C7 0.931 . S
H29 C15 0.931 . S
Co30 N35 2.057 . S
Co30 O47 2.021 . S
Co30 O50 2.062 . S
Co30 O54 2.117 . S
Co30 O55 2.020 . S
C31 O51 1.259 . S
C31 O54 1.258 . S
Co32 N41 2.057 . S
Co32 O48 2.117 . S
Co32 O49 2.020 . S
Co32 O51 2.021 . S
Co32 O56 2.062 . S
C33 N35 1.316 . S
C33 N36 1.347 . S
C33 H38 0.931 . S
C34 N35 1.375 . S
C34 C37 1.350 . S
C34 H39 0.930 . S
N35 Co30 2.057 . S
N35 C33 1.316 . S
N35 C34 1.375 . S
N36 C33 1.347 . S
N36 C37 1.373 . S
C37 C34 1.350 . S
C37 N36 1.373 . S
C37 H58 0.931 . S
H38 C33 0.931 . S
H39 C34 0.930 . S
C40 O47 1.259 . S
C40 O48 1.258 . S
N41 Co32 2.057 . S
N41 C42 1.316 . S
N41 C43 1.375 . S
C42 N41 1.316 . S
C42 N44 1.347 . S
C42 H53 0.931 . S
C43 N41 1.375 . S
C43 C45 1.350 . S
C43 H52 0.930 . S
N44 C42 1.347 . S
N44 C45 1.373 . S
C45 C43 1.350 . S
C45 N44 1.373 . S
C45 H59 0.931 . S
C46 O49 1.256 . S
C46 O50 1.255 . S
O47 Co30 2.021 . S
O47 C40 1.259 . S
O48 Co32 2.117 . S
O48 C40 1.258 . S
O49 Co32 2.020 . S
O49 C46 1.256 . S
O50 Co30 2.062 . S
O50 C46 1.255 . S
O51 C31 1.259 . S
O51 Co32 2.021 . S
H52 C43 0.930 . S
H53 C42 0.931 . S
O54 Co30 2.117 . S
O54 C31 1.258 . S
O55 Co30 2.020 . S
O55 C57 1.256 . S
O56 Co32 2.062 . S
O56 C57 1.255 . S
C57 O55 1.256 . S
C57 O56 1.255 . S
H58 C37 0.931 . S
H59 C45 0.931 . S
H60 C67 0.929 . S
H61 C70 0.930 . S
H62 C72 0.929 . S
H63 C64 0.969 . S
C64 H63 0.969 . S
C64 O65 1.550 . S
C64 H66 0.973 . S
O65 C64 1.550 . S
O65 C71 1.412 . S
H66 C64 0.973 . S
C67 H60 0.929 . S
C67 C68 1.400 . S
C67 C69 1.364 . S
C68 C67 1.400 . S
C68 C72 1.377 . S
C69 C67 1.364 . S
C69 C70 1.374 1_465 S
C70 H61 0.930 . S
C70 C69 1.374 1_645 S
C70 C71 1.383 . S
C71 O65 1.412 . S
C71 C70 1.383 . S
C71 C72 1.394 1_645 S
C72 H62 0.929 . S
C72 C68 1.377 . S
C72 C71 1.394 1_465 S
H73 C80 0.929 . S
H74 C83 0.930 1_565 S
H75 C85 0.929 . S
H76 C77 0.969 . S
C77 H76 0.969 . S
C77 O78 1.550 . S
C77 H79 0.973 . S
O78 C77 1.550 . S
O78 C84 1.412 1_565 S
H79 C77 0.973 . S
C80 H73 0.929 . S
C80 C81 1.400 . S
C80 C82 1.364 . S
C81 C80 1.400 . S
C81 C85 1.377 . S
C82 C80 1.364 . S
C82 C83 1.374 1_455 S
C83 H74 0.930 1_545 S
C83 C82 1.374 1_655 S
C83 C84 1.383 . S
C84 O78 1.412 1_545 S
C84 C83 1.383 . S
C84 C85 1.394 1_655 S
C85 H75 0.929 . S
C85 C81 1.377 . S
C85 C84 1.394 1_455 S
H86 C93 0.929 . S
H87 C96 0.930 . S
H88 C98 0.929 1_554 S
H89 C90 0.969 . S
C90 H89 0.969 . S
C90 O91 1.550 . S
C90 H92 0.973 . S
O91 C90 1.550 . S
O91 C97 1.412 . S
H92 C90 0.973 . S
C93 H86 0.929 . S
C93 C94 1.400 . S
C93 C95 1.364 . S
C94 C93 1.400 . S
C94 C98 1.377 . S
C95 C93 1.364 . S
C95 C96 1.374 . S
C96 H87 0.930 . S
C96 C95 1.374 . S
C96 C97 1.383 . S
C97 O91 1.412 . S
C97 C96 1.383 . S
C97 C98 1.394 . S
C98 H88 0.929 1_556 S
C98 C94 1.377 . S
C98 C97 1.394 . S
H99 C106 0.929 . S
H100 C109 0.930 . S
H101 C111 0.929 . S
H102 C103 0.969 . S
C103 H102 0.969 . S
C103 O104 1.550 . S
C103 H105 0.973 . S
O104 C103 1.550 . S
O104 C110 1.412 . S
H105 C103 0.973 . S
C106 H99 0.929 . S
C106 C107 1.400 . S
C106 C108 1.364 . S
C107 C106 1.400 . S
C107 C111 1.377 . S
C108 C106 1.364 . S
C108 C109 1.374 . S
C109 H100 0.930 . S
C109 C108 1.374 . S
C109 C110 1.383 . S
C110 O104 1.412 . S
C110 C109 1.383 . S
C110 C111 1.394 . S
C111 H101 0.929 . S
C111 C107 1.377 . S
C111 C110 1.394 . S
C112 C113 1.391 1_556 S
C112 C114 1.394 . S
C112 H128 0.931 . S
C113 C112 1.391 1_554 S
C113 C117 1.376 . S
C114 C112 1.394 . S
C114 C115 1.369 1_556 S
C114 C118 1.531 . S
C115 C114 1.369 1_554 S
C115 C116 1.410 . S
C115 C123 1.503 . S
C116 C115 1.410 . S
C116 C117 1.392 . S
C116 C119 1.511 . S
C117 C113 1.376 . S
C117 C116 1.392 . S
C117 H129 0.929 . S
C118 C114 1.531 . S
C118 H130 0.960 . S
C118 H131 0.962 . S
C118 H132 0.960 . S
C119 C116 1.511 . S
C119 H133 0.961 . S
C119 H134 0.961 . S
C119 H135 0.961 . S
C120 C121 1.370 1_556 S
C120 C122 1.363 . S
C120 H136 0.931 . S
C121 C120 1.370 1_554 S
C121 C125 1.408 . S
C122 C120 1.363 . S
C122 C123 1.370 1_556 S
C122 C126 1.524 . S
C123 C115 1.503 . S
C123 C122 1.370 1_554 S
C123 C124 1.403 . S
C124 C123 1.403 . S
C124 C125 1.404 . S
C124 C127 1.539 . S
C125 C121 1.408 . S
C125 C124 1.404 . S
C125 H137 0.930 . S
C126 C122 1.524 . S
C126 H138 0.956 . S
C126 H139 0.961 . S
C126 H140 0.961 . S
C127 C124 1.539 . S
C127 H141 0.958 . S
C127 H142 0.961 . S
C127 H143 0.960 . S
H128 C112 0.931 . S
H129 C117 0.929 . S
H130 C118 0.960 . S
H131 C118 0.962 . S
H132 C118 0.960 . S
H133 C119 0.961 . S
H134 C119 0.961 . S
H135 C119 0.961 . S
H136 C120 0.931 . S
H137 C125 0.930 . S
H138 C126 0.956 . S
H139 C126 0.961 . S
H140 C126 0.961 . S
H141 C127 0.958 . S
H142 C127 0.961 . S
H143 C127 0.960 . S
C144 C145 1.391 . S
C144 C146 1.394 . S
C144 H160 0.931 . S
C145 C144 1.391 . S
C145 C149 1.376 1_554 S
C146 C144 1.394 . S
C146 C147 1.369 . S
C146 C150 1.531 . S
C147 C146 1.369 . S
C147 C148 1.410 1_554 S
C147 C155 1.503 . S
C148 C147 1.410 1_556 S
C148 C149 1.392 . S
C148 C151 1.511 . S
C149 C145 1.376 1_556 S
C149 C148 1.392 . S
C149 H161 0.929 . S
C150 C146 1.531 . S
C150 H162 0.960 . S
C150 H163 0.962 . S
C150 H164 0.960 . S
C151 C148 1.511 . S
C151 H165 0.961 . S
C151 H166 0.961 . S
C151 H167 0.961 . S
C152 C153 1.370 . S
C152 C154 1.363 . S
C152 H168 0.931 . S
C153 C152 1.370 . S
C153 C157 1.408 1_556 S
C154 C152 1.363 . S
C154 C155 1.370 1_556 S
C154 C158 1.524 . S
C155 C147 1.503 . S
C155 C154 1.370 1_554 S
C155 C156 1.403 . S
C156 C155 1.403 . S
C156 C157 1.404 . S
C156 C159 1.539 . S
C157 C153 1.408 1_554 S
C157 C156 1.404 . S
C157 H169 0.930 . S
C158 C154 1.524 . S
C158 H170 0.956 . S
C158 H171 0.961 . S
C158 H172 0.961 . S
C159 C156 1.539 . S
C159 H173 0.958 . S
C159 H174 0.961 . S
C159 H175 0.960 . S
H160 C144 0.931 . S
H161 C149 0.929 . S
H162 C150 0.960 . S
H163 C150 0.962 . S
H164 C150 0.960 . S
H165 C151 0.961 . S
H166 C151 0.961 . S
H167 C151 0.961 . S
H168 C152 0.931 . S
H169 C157 0.930 . S
H170 C158 0.956 . S
H171 C158 0.961 . S
H172 C158 0.961 . S
H173 C159 0.958 . S
H174 C159 0.961 . S
H175 C159 0.960 . S
C176 C177 1.391 . S
C176 C178 1.394 . S
C176 H192 0.931 . S
C177 C176 1.391 . S
C177 C181 1.376 1_554 S
C178 C176 1.394 . S
C178 C179 1.369 . S
C178 C182 1.531 . S
C179 C178 1.369 . S
C179 C180 1.410 . S
C179 C187 1.503 . S
C180 C179 1.410 . S
C180 C181 1.392 1_554 S
C180 C183 1.511 1_554 S
C181 C177 1.376 1_556 S
C181 C180 1.392 1_556 S
C181 H193 0.929 . S
C182 C178 1.531 . S
C182 H194 0.960 . S
C182 H195 0.962 . S
C182 H196 0.960 . S
C183 C180 1.511 1_556 S
C183 H197 0.961 . S
C183 H198 0.961 . S
C183 H199 0.961 . S
C184 C185 1.370 . S
C184 C186 1.363 . S
C184 H200 0.931 . S
C185 C184 1.370 . S
C185 C189 1.408 . S
C186 C184 1.363 . S
C186 C187 1.370 . S
C186 C190 1.524 1_554 S
C187 C179 1.503 . S
C187 C186 1.370 . S
C187 C188 1.403 . S
C188 C187 1.403 . S
C188 C189 1.404 . S
C188 C191 1.539 . S
C189 C185 1.408 . S
C189 C188 1.404 . S
C189 H201 0.930 . S
C190 C186 1.524 1_556 S
C190 H202 0.956 1_556 S
C190 H203 0.961 . S
C190 H204 0.961 . S
C191 C188 1.539 . S
C191 H205 0.958 . S
C191 H206 0.961 . S
C191 H207 0.960 . S
H192 C176 0.931 . S
H193 C181 0.929 . S
H194 C182 0.960 . S
H195 C182 0.962 . S
H196 C182 0.960 . S
H197 C183 0.961 . S
H198 C183 0.961 . S
H199 C183 0.961 . S
H200 C184 0.931 . S
H201 C189 0.930 . S
H202 C190 0.956 1_554 S
H203 C190 0.961 . S
H204 C190 0.961 . S
H205 C191 0.958 . S
H206 C191 0.961 . S
H207 C191 0.960 . S
C208 C209 1.391 . S
C208 C210 1.394 . S
C208 H224 0.931 . S
C209 C208 1.391 . S
C209 C213 1.373 1_556 S
C210 C208 1.394 . S
C210 C211 1.369 . S
C210 C214 1.531 . S
C211 C210 1.369 . S
C211 C212 1.410 . S
C211 C219 1.503 . S
C212 C211 1.410 . S
C212 C213 1.390 1_556 S
C212 C215 1.510 1_556 S
C213 C209 1.373 1_554 S
C213 C212 1.390 1_554 S
C213 H225 0.934 . S
C214 C210 1.531 . S
C214 H226 0.960 . S
C214 H227 0.962 . S
C214 H228 0.960 . S
C215 C212 1.510 1_554 S
C215 H229 0.966 . S
C215 H230 0.965 . S
C215 H231 0.952 1_554 S
C216 C217 1.370 1_554 S
C216 C218 1.363 . S
C216 H232 0.931 . S
C217 C216 1.370 1_556 S
C217 C221 1.408 . S
C218 C216 1.363 . S
C218 C219 1.370 1_554 S
C218 C222 1.524 . S
C219 C211 1.503 . S
C219 C218 1.370 1_556 S
C219 C220 1.403 . S
C220 C219 1.403 . S
C220 C221 1.404 . S
C220 C223 1.539 . S
C221 C217 1.408 . S
C221 C220 1.404 . S
C221 H233 0.930 . S
C222 C218 1.524 . S
C222 H234 0.956 . S
C222 H235 0.961 . S
C222 H236 0.961 . S
C223 C220 1.539 . S
C223 H237 0.958 . S
C223 H238 0.961 . S
C223 H239 0.960 . S
H224 C208 0.931 . S
H225 C213 0.934 . S
H226 C214 0.960 . S
H227 C214 0.962 . S
H228 C214 0.960 . S
H229 C215 0.966 . S
H230 C215 0.965 . S
H231 C215 0.952 1_556 S
H232 C216 0.931 . S
H233 C221 0.930 . S
H234 C222 0.956 . S
H235 C222 0.961 . S
H236 C222 0.961 . S
H237 C223 0.958 . S
H238 C223 0.961 . S
H239 C223 0.960 . S
C240 C241 1.391 . S
C240 C242 1.394 . S
C240 H256 0.931 . S
C241 C240 1.391 . S
C241 C245 1.376 . S
C242 C240 1.394 . S
C242 C243 1.369 . S
C242 C246 1.531 . S
C243 C242 1.369 . S
C243 C244 1.410 . S
C243 C251 1.503 . S
C244 C243 1.410 . S
C244 C245 1.392 . S
C244 C247 1.511 . S
C245 C241 1.376 . S
C245 C244 1.392 . S
C245 H257 0.929 . S
C246 C242 1.531 . S
C246 H258 0.960 . S
C246 H259 0.962 . S
C246 H260 0.960 . S
C247 C244 1.511 . S
C247 H261 0.961 . S
C247 H262 0.961 . S
C247 H263 0.961 . S
C248 C249 1.370 . S
C248 C250 1.363 . S
C248 H264 0.931 . S
C249 C248 1.370 . S
C249 C253 1.408 . S
C250 C248 1.363 . S
C250 C251 1.370 . S
C250 C254 1.524 . S
C251 C243 1.503 . S
C251 C250 1.370 . S
C251 C252 1.403 . S
C252 C251 1.403 . S
C252 C253 1.404 . S
C252 C255 1.539 . S
C253 C249 1.408 . S
C253 C252 1.404 . S
C253 H265 0.930 . S
C254 C250 1.524 . S
C254 H266 0.956 . S
C254 H267 0.961 . S
C254 H268 0.961 . S
C255 C252 1.539 . S
C255 H269 0.958 . S
C255 H270 0.961 . S
C255 H271 0.960 . S
H256 C240 0.931 . S
H257 C245 0.929 . S
H258 C246 0.960 . S
H259 C246 0.962 . S
H260 C246 0.960 . S
H261 C247 0.961 . S
H262 C247 0.961 . S
H263 C247 0.961 . S
H264 C248 0.931 . S
H265 C253 0.930 . S
H266 C254 0.956 . S
H267 C254 0.961 . S
H268 C254 0.961 . S
H269 C255 0.958 . S
H270 C255 0.961 . S
H271 C255 0.960 . S
C272 C273 1.391 . S
C272 C274 1.394 . S
C272 H288 0.931 . S
C273 C272 1.391 . S
C273 C277 1.376 . S
C274 C272 1.394 . S
C274 C275 1.369 . S
C274 C278 1.531 . S
C275 C274 1.369 . S
C275 C276 1.410 . S
C275 C283 1.503 . S
C276 C275 1.410 . S
C276 C277 1.392 . S
C276 C279 1.511 . S
C277 C273 1.376 . S
C277 C276 1.392 . S
C277 H289 0.929 . S
C278 C274 1.531 . S
C278 H290 0.960 . S
C278 H291 0.962 . S
C278 H292 0.960 . S
C279 C276 1.511 . S
C279 H293 0.961 . S
C279 H294 0.961 . S
C279 H295 0.961 . S
C280 C281 1.370 . S
C280 C282 1.363 . S
C280 H296 0.931 . S
C281 C280 1.370 . S
C281 C285 1.408 . S
C282 C280 1.363 . S
C282 C283 1.370 . S
C282 C286 1.524 . S
C283 C275 1.503 . S
C283 C282 1.370 . S
C283 C284 1.403 . S
C284 C283 1.403 . S
C284 C285 1.404 . S
C284 C287 1.539 . S
C285 C281 1.408 . S
C285 C284 1.404 . S
C285 H297 0.930 . S
C286 C282 1.524 . S
C286 H298 0.956 . S
C286 H299 0.961 . S
C286 H300 0.961 . S
C287 C284 1.539 . S
C287 H301 0.958 . S
C287 H302 0.961 . S
C287 H303 0.960 . S
H288 C272 0.931 . S
H289 C277 0.929 . S
H290 C278 0.960 . S
H291 C278 0.962 . S
H292 C278 0.960 . S
H293 C279 0.961 . S
H294 C279 0.961 . S
H295 C279 0.961 . S
H296 C280 0.931 . S
H297 C285 0.930 . S
H298 C286 0.956 . S
H299 C286 0.961 . S
H300 C286 0.961 . S
H301 C287 0.958 . S
H302 C287 0.961 . S
H303 C287 0.960 . S
C304 C305 1.391 . S
C304 C306 1.394 . S
C304 H320 0.931 . S
C305 C304 1.391 . S
C305 C309 1.376 . S
C306 C304 1.394 . S
C306 C307 1.369 . S
C306 C310 1.531 . S
C307 C306 1.369 . S
C307 C308 1.410 . S
C307 C315 1.503 . S
C308 C307 1.410 . S
C308 C309 1.392 . S
C308 C311 1.511 . S
C309 C305 1.376 . S
C309 C308 1.392 . S
C309 H321 0.929 . S
C310 C306 1.531 . S
C310 H322 0.960 . S
C310 H323 0.962 . S
C310 H324 0.960 . S
C311 C308 1.511 . S
C311 H325 0.961 . S
C311 H326 0.961 . S
C311 H327 0.961 . S
C312 C313 1.370 . S
C312 C314 1.363 . S
C312 H328 0.931 . S
C313 C312 1.370 . S
C313 C317 1.408 . S
C314 C312 1.363 . S
C314 C315 1.370 . S
C314 C318 1.524 . S
C315 C307 1.503 . S
C315 C314 1.370 . S
C315 C316 1.403 . S
C316 C315 1.403 . S
C316 C317 1.404 . S
C316 C319 1.539 . S
C317 C313 1.408 . S
C317 C316 1.404 . S
C317 H329 0.930 . S
C318 C314 1.524 . S
C318 H330 0.956 . S
C318 H331 0.961 . S
C318 H332 0.961 . S
C319 C316 1.539 . S
C319 H333 0.958 . S
C319 H334 0.961 . S
C319 H335 0.960 . S
H320 C304 0.931 . S
H321 C309 0.929 . S
H322 C310 0.960 . S
H323 C310 0.962 . S
H324 C310 0.960 . S
H325 C311 0.961 . S
H326 C311 0.961 . S
H327 C311 0.961 . S
H328 C312 0.931 . S
H329 C317 0.930 . S
H330 C318 0.956 . S
H331 C318 0.961 . S
H332 C318 0.961 . S
H333 C319 0.958 . S
H334 C319 0.961 . S
H335 C319 0.960 . S
C336 C337 1.391 . S
C336 C338 1.394 . S
C336 H352 0.931 . S
C337 C336 1.391 . S
C337 C341 1.376 . S
C338 C336 1.394 . S
C338 C339 1.369 . S
C338 C342 1.531 . S
C339 C338 1.369 . S
C339 C340 1.410 . S
C339 C347 1.503 . S
C340 C339 1.410 . S
C340 C341 1.392 . S
C340 C343 1.511 . S
C341 C337 1.376 . S
C341 C340 1.392 . S
C341 H353 0.929 . S
C342 C338 1.531 . S
C342 H354 0.960 . S
C342 H355 0.962 . S
C342 H356 0.960 . S
C343 C340 1.511 . S
C343 H357 0.961 . S
C343 H358 0.961 . S
C343 H359 0.961 . S
C344 C345 1.370 . S
C344 C346 1.363 . S
C344 H360 0.931 . S
C345 C344 1.370 . S
C345 C349 1.408 . S
C346 C344 1.363 . S
C346 C347 1.370 . S
C346 C350 1.524 . S
C347 C339 1.503 . S
C347 C346 1.370 . S
C347 C348 1.403 . S
C348 C347 1.403 . S
C348 C349 1.404 . S
C348 C351 1.539 . S
C349 C345 1.408 . S
C349 C348 1.404 . S
C349 H361 0.930 . S
C350 C346 1.524 . S
C350 H362 0.956 . S
C350 H363 0.961 . S
C350 H364 0.961 . S
C351 C348 1.539 . S
C351 H365 0.958 . S
C351 H366 0.961 . S
C351 H367 0.960 . S
H352 C336 0.931 . S
H353 C341 0.929 . S
H354 C342 0.960 . S
H355 C342 0.962 . S
H356 C342 0.960 . S
H357 C343 0.961 . S
H358 C343 0.961 . S
H359 C343 0.961 . S
H360 C344 0.931 . S
H361 C349 0.930 . S
H362 C350 0.956 . S
H363 C350 0.961 . S
H364 C350 0.961 . S
H365 C351 0.958 . S
H366 C351 0.961 . S
H367 C351 0.960 . S
C368 C369 1.391 . S
C368 C370 1.394 . S
C368 H384 0.931 . S
C369 C368 1.391 . S
C369 C373 1.376 1_445 S
C370 C368 1.394 . S
C370 C371 1.369 . S
C370 C374 1.531 . S
C371 C370 1.369 . S
C371 C372 1.410 1_445 S
C371 C379 1.503 . S
C372 C371 1.410 1_665 S
C372 C373 1.392 . S
C372 C375 1.511 . S
C373 C369 1.376 1_665 S
C373 C372 1.392 . S
C373 H385 0.929 . S
C374 C370 1.531 . S
C374 H386 0.960 . S
C374 H387 0.962 . S
C374 H388 0.960 . S
C375 C372 1.511 . S
C375 H389 0.961 . S
C375 H390 0.961 . S
C375 H391 0.961 . S
C376 C377 1.370 . S
C376 C378 1.363 . S
C376 H392 0.931 . S
C377 C376 1.370 . S
C377 C381 1.408 1_465 S
C378 C376 1.363 . S
C378 C379 1.370 1_565 S
C378 C382 1.524 . S
C379 C371 1.503 . S
C379 C378 1.370 1_545 S
C379 C380 1.403 1_455 S
C380 C379 1.403 1_655 S
C380 C381 1.404 . S
C380 C383 1.539 . S
C381 C377 1.408 1_645 S
C381 C380 1.404 . S
C381 H393 0.930 . S
C382 C378 1.524 . S
C382 H394 0.956 . S
C382 H395 0.961 . S
C382 H396 0.961 . S
C383 C380 1.539 . S
C383 H397 0.958 . S
C383 H398 0.961 . S
C383 H399 0.960 . S
H384 C368 0.931 . S
H385 C373 0.929 . S
H386 C374 0.960 . S
H387 C374 0.962 . S
H388 C374 0.960 . S
H389 C375 0.961 . S
H390 C375 0.961 . S
H391 C375 0.961 . S
H392 C376 0.931 . S
H393 C381 0.930 . S
H394 C382 0.956 . S
H395 C382 0.961 . S
H396 C382 0.961 . S
H397 C383 0.958 . S
H398 C383 0.961 . S
H399 C383 0.960 . S
C400 C401 1.391 . S
C400 C402 1.394 . S
C400 H416 0.931 . S
C401 C400 1.391 . S
C401 C405 1.376 1_545 S
C402 C400 1.394 . S
C402 C403 1.369 . S
C402 C406 1.531 . S
C403 C402 1.369 . S
C403 C404 1.410 1_545 S
C403 C411 1.503 . S
C404 C403 1.410 1_565 S
C404 C405 1.392 . S
C404 C407 1.511 . S
C405 C401 1.376 1_565 S
C405 C404 1.392 . S
C405 H417 0.929 . S
C406 C402 1.531 . S
C406 H418 0.960 . S
C406 H419 0.962 1_455 S
C406 H420 0.960 . S
C407 C404 1.511 . S
C407 H421 0.961 . S
C407 H422 0.961 . S
C407 H423 0.961 . S
C408 C409 1.370 1_655 S
C408 C410 1.363 . S
C408 H424 0.931 . S
C409 C408 1.370 1_455 S
C409 C413 1.408 . S
C410 C408 1.363 . S
C410 C411 1.370 1_655 S
C410 C414 1.524 . S
C411 C403 1.503 . S
C411 C410 1.370 1_455 S
C411 C412 1.403 . S
C412 C411 1.403 . S
C412 C413 1.404 . S
C412 C415 1.539 . S
C413 C409 1.408 . S
C413 C412 1.404 . S
C413 H425 0.930 . S
C414 C410 1.524 . S
C414 H426 0.956 . S
C414 H427 0.961 1_545 S
C414 H428 0.961 . S
C415 C412 1.539 . S
C415 H429 0.958 . S
C415 H430 0.961 . S
C415 H431 0.960 . S
H416 C400 0.931 . S
H417 C405 0.929 . S
H418 C406 0.960 . S
H419 C406 0.962 1_655 S
H420 C406 0.960 . S
H421 C407 0.961 . S
H422 C407 0.961 . S
H423 C407 0.961 . S
H424 C408 0.931 . S
H425 C413 0.930 . S
H426 C414 0.956 . S
H427 C414 0.961 1_565 S
H428 C414 0.961 . S
H429 C415 0.958 . S
H430 C415 0.961 . S
H431 C415 0.960 . S
C432 C433 1.391 . S
C432 C434 1.394 . S
C432 H448 0.931 . S
C433 C432 1.391 . S
C433 C437 1.376 . S
C434 C432 1.394 . S
C434 C435 1.369 . S
C434 C438 1.531 . S
C435 C434 1.369 . S
C435 C436 1.410 . S
C435 C443 1.503 . S
C436 C435 1.410 . S
C436 C437 1.392 . S
C436 C439 1.511 . S
C437 C433 1.376 . S
C437 C436 1.392 . S
C437 H449 0.929 . S
C438 C434 1.531 . S
C438 H450 0.960 . S
C438 H451 0.962 . S
C438 H452 0.960 . S
C439 C436 1.511 . S
C439 H453 0.961 . S
C439 H454 0.961 . S
C439 H455 0.961 . S
C440 C441 1.370 . S
C440 C442 1.363 . S
C440 H456 0.931 . S
C441 C440 1.370 . S
C441 C445 1.408 . S
C442 C440 1.363 . S
C442 C443 1.370 . S
C442 C446 1.524 . S
C443 C435 1.503 . S
C443 C442 1.370 . S
C443 C444 1.403 . S
C444 C443 1.403 . S
C444 C445 1.404 . S
C444 C447 1.539 . S
C445 C441 1.408 . S
C445 C444 1.404 . S
C445 H457 0.930 . S
C446 C442 1.524 . S
C446 H458 0.956 . S
C446 H459 0.961 . S
C446 H460 0.961 . S
C447 C444 1.539 . S
C447 H461 0.958 . S
C447 H462 0.961 . S
C447 H463 0.960 . S
H448 C432 0.931 . S
H449 C437 0.929 . S
H450 C438 0.960 . S
H451 C438 0.962 . S
H452 C438 0.960 . S
H453 C439 0.961 . S
H454 C439 0.961 . S
H455 C439 0.961 . S
H456 C440 0.931 . S
H457 C445 0.930 . S
H458 C446 0.956 . S
H459 C446 0.961 . S
H460 C446 0.961 . S
H461 C447 0.958 . S
H462 C447 0.961 . S
H463 C447 0.960 . S
C464 C465 1.391 . S
C464 C466 1.394 . S
C464 H480 0.931 . S
C465 C464 1.391 . S
C465 C469 1.376 . S
C466 C464 1.394 . S
C466 C467 1.369 . S
C466 C470 1.531 . S
C467 C466 1.369 . S
C467 C468 1.410 . S
C467 C475 1.503 . S
C468 C467 1.410 . S
C468 C469 1.392 . S
C468 C471 1.511 . S
C469 C465 1.376 . S
C469 C468 1.392 . S
C469 H481 0.929 . S
C470 C466 1.531 . S
C470 H482 0.960 . S
C470 H483 0.962 . S
C470 H484 0.960 . S
C471 C468 1.511 . S
C471 H485 0.961 . S
C471 H486 0.961 . S
C471 H487 0.961 . S
C472 C473 1.370 . S
C472 C474 1.363 . S
C472 H488 0.931 . S
C473 C472 1.370 . S
C473 C477 1.408 . S
C474 C472 1.363 . S
C474 C475 1.370 . S
C474 C478 1.524 . S
C475 C467 1.503 . S
C475 C474 1.370 . S
C475 C476 1.403 . S
C476 C475 1.403 . S
C476 C477 1.404 . S
C476 C479 1.539 . S
C477 C473 1.408 . S
C477 C476 1.404 . S
C477 H489 0.930 . S
C478 C474 1.524 . S
C478 H490 0.956 . S
C478 H491 0.961 . S
C478 H492 0.961 . S
C479 C476 1.539 . S
C479 H493 0.958 . S
C479 H494 0.961 . S
C479 H495 0.960 . S
H480 C464 0.931 . S
H481 C469 0.929 . S
H482 C470 0.960 . S
H483 C470 0.962 . S
H484 C470 0.960 . S
H485 C471 0.961 . S
H486 C471 0.961 . S
H487 C471 0.961 . S
H488 C472 0.931 . S
H489 C477 0.930 . S
H490 C478 0.956 . S
H491 C478 0.961 . S
H492 C478 0.961 . S
H493 C479 0.958 . S
H494 C479 0.961 . S
H495 C479 0.960 . S
C121 C103 1.287 . S
C113 C27 1.421 . S
C145 N6 1.390 . S
C153 C90 1.308 . S
C177 C16 1.478 . S
C185 C107 1.465 . S
C209 N14 1.443 1_556 S
C217 C94 1.438 . S
C241 C57 1.421 . S
C249 C77 1.288 . S
C273 N36 1.399 . S
C281 C64 1.321 . S
C313 C81 1.476 . S
C305 C46 1.491 . S
C345 C68 1.454 . S
C337 N44 1.407 . S
C369 C10 1.471 . S
C377 C69 1.474 . S
C401 C1 1.557 . S
C409 C82 1.551 . S
C441 C95 1.468 . S
C433 C40 1.467 . S
C465 C31 1.545 . S
C473 C108 1.556 . S
