# Generated by pormake.
# Topology pyr, (3,6)-cn, num edge types: 1
# Building blocks:
#     Node 0, Type 0, BuildingBlock: KAKCAD_clean_linker_0, # of connection points: 3
#     Node 1, Type 0, BuildingBlock: KAKCAD_clean_linker_0, # of connection points: 3
#     Node 2, Type 0, BuildingBlock: KAKCAD_clean_linker_0, # of connection points: 3
#     Node 3, Type 0, BuildingBlock: KAKCAD_clean_linker_0, # of connection points: 3
#     Node 4, Type 0, BuildingBlock: KAKCAD_clean_linker_0, # of connection points: 3
#     Node 5, Type 0, BuildingBlock: KAKCAD_clean_linker_0, # of connection points: 3
#     Node 6, Type 0, BuildingBlock: KAKCAD_clean_linker_0, # of connection points: 3
#     Node 7, Type 0, BuildingBlock: KAKCAD_clean_linker_0, # of connection points: 3
#     Node 8, Type 1, BuildingBlock: BETFAJ_clean_sbu_0, # of connection points: 6
#     Node 9, Type 1, BuildingBlock: BETFAJ_clean_sbu_0, # of connection points: 6
#     Node 10, Type 1, BuildingBlock: BETFAJ_clean_sbu_0, # of connection points: 6
#     Node 11, Type 1, BuildingBlock: BETFAJ_clean_sbu_0, # of connection points: 6
#     Edge 12, Type (0, 1), BuildingBlock: CIFDUS_clean_linker_0, # of connection points: 2
#     Edge 13, Type (0, 1), BuildingBlock: CIFDUS_clean_linker_0, # of connection points: 2
#     Edge 14, Type (0, 1), BuildingBlock: CIFDUS_clean_linker_0, # of connection points: 2
#     Edge 15, Type (0, 1), BuildingBlock: CIFDUS_clean_linker_0, # of connection points: 2
#     Edge 16, Type (0, 1), BuildingBlock: CIFDUS_clean_linker_0, # of connection points: 2
#     Edge 17, Type (0, 1), BuildingBlock: CIFDUS_clean_linker_0, # of connection points: 2
#     Edge 18, Type (0, 1), BuildingBlock: CIFDUS_clean_linker_0, # of connection points: 2
#     Edge 19, Type (0, 1), BuildingBlock: CIFDUS_clean_linker_0, # of connection points: 2
#     Edge 20, Type (0, 1), BuildingBlock: CIFDUS_clean_linker_0, # of connection points: 2
#     Edge 21, Type (0, 1), BuildingBlock: CIFDUS_clean_linker_0, # of connection points: 2
#     Edge 22, Type (0, 1), BuildingBlock: CIFDUS_clean_linker_0, # of connection points: 2
#     Edge 23, Type (0, 1), BuildingBlock: CIFDUS_clean_linker_0, # of connection points: 2
#     Edge 24, Type (0, 1), BuildingBlock: CIFDUS_clean_linker_0, # of connection points: 2
#     Edge 25, Type (0, 1), BuildingBlock: CIFDUS_clean_linker_0, # of connection points: 2
#     Edge 26, Type (0, 1), BuildingBlock: CIFDUS_clean_linker_0, # of connection points: 2
#     Edge 27, Type (0, 1), BuildingBlock: CIFDUS_clean_linker_0, # of connection points: 2
#     Edge 28, Type (0, 1), BuildingBlock: CIFDUS_clean_linker_0, # of connection points: 2
#     Edge 29, Type (0, 1), BuildingBlock: CIFDUS_clean_linker_0, # of connection points: 2
#     Edge 30, Type (0, 1), BuildingBlock: CIFDUS_clean_linker_0, # of connection points: 2
#     Edge 31, Type (0, 1), BuildingBlock: CIFDUS_clean_linker_0, # of connection points: 2
#     Edge 32, Type (0, 1), BuildingBlock: CIFDUS_clean_linker_0, # of connection points: 2
#     Edge 33, Type (0, 1), BuildingBlock: CIFDUS_clean_linker_0, # of connection points: 2
#     Edge 34, Type (0, 1), BuildingBlock: CIFDUS_clean_linker_0, # of connection points: 2
#     Edge 35, Type (0, 1), BuildingBlock: CIFDUS_clean_linker_0, # of connection points: 2
# Relax obj value: 0.108
# Max RMSD: 0.123
# Mean RMSD: 0.059
data_MOF--net-pyr--node1-BETFAJ_clean_sbu_0--node2-KAKCAD_clean_linker_0--edge1-CIFDUS_clean_linker_0
_symmetry_space_group_name_H-M    P1
_symmetry_Int_Tables_number       1
_symmetry_cell_setting            triclinic
loop_
_symmetry_equiv_pos_as_xyz
'x, y, z'
_cell_length_a     41.637274
_cell_length_b     44.50607
_cell_length_c     40.659852
_cell_angle_alpha  90.86783
_cell_angle_beta   88.720721
_cell_angle_gamma 101.3445
loop_
_atom_site_label
_atom_site_type_symbol
_atom_site_fract_x
_atom_site_fract_y
_atom_site_fract_z
_atom_type_partial_charge
C0 C 0.24218 0.25435 0.30314 0.0
C1 C 0.2545 0.2433 0.33147 0.0
C2 C 0.26305 0.26582 0.27713 0.0
C3 C 0.29685 0.26646 0.27859 0.0
C4 C 0.30947 0.25597 0.30705 0.0
C5 C 0.28849 0.24461 0.33334 0.0
C6 C 0.31793 0.27604 0.24923 0.0
C7 C 0.31324 0.30128 0.23109 0.0
C8 C 0.32724 0.30687 0.19953 0.0
C9 C 0.34743 0.28752 0.18665 0.0
C10 C 0.35331 0.2626 0.20499 0.0
C11 C 0.3387 0.25727 0.23644 0.0
C12 C 0.3709 0.23969 0.18992 0.0
C13 C 0.36368 0.22877 0.15779 0.0
C14 C 0.39276 0.22665 0.20836 0.0
C15 C 0.40633 0.20256 0.19527 0.0
C16 C 0.39805 0.19089 0.16362 0.0
C17 C 0.31588 0.32969 0.17876 0.0
C18 C 0.30289 0.32097 0.14766 0.0
C19 C 0.31231 0.35814 0.19224 0.0
C20 C 0.29341 0.37607 0.17651 0.0
C21 C 0.27777 0.36592 0.14695 0.0
C22 C 0.28399 0.33895 0.13188 0.0
C23 C 0.37707 0.20464 0.14482 0.0
H24 H 0.21612 0.25293 0.30031 0.0
H25 H 0.25243 0.273 0.25521 0.0
H26 H 0.33545 0.25626 0.30879 0.0
H27 H 0.29882 0.23649 0.35492 0.0
H28 H 0.29654 0.31531 0.24065 0.0
H29 H 0.34126 0.23698 0.24977 0.0
H30 H 0.35777 0.29135 0.16201 0.0
H31 H 0.34663 0.23803 0.14308 0.0
H32 H 0.39888 0.2347 0.23314 0.0
H33 H 0.42239 0.19239 0.21034 0.0
H34 H 0.30497 0.29905 0.13678 0.0
H35 H 0.32242 0.3656 0.216 0.0
H36 H 0.37062 0.19642 0.12016 0.0
H37 H 0.27218 0.33046 0.10918 0.0
H38 H 0.28956 0.39707 0.18837 0.0
C39 C 0.34358 0.91994 0.68767 0.0
C40 C 0.37283 0.93758 0.69952 0.0
C41 C 0.33902 0.91564 0.6539 0.0
C42 C 0.3638 0.9286 0.63139 0.0
C43 C 0.3932 0.94597 0.64323 0.0
C44 C 0.39759 0.95061 0.67702 0.0
C45 C 0.35894 0.92369 0.59565 0.0
C46 C 0.32981 0.92779 0.58154 0.0
C47 C 0.32402 0.92146 0.54804 0.0
C48 C 0.34781 0.91094 0.52845 0.0
C49 C 0.3771 0.90645 0.54239 0.0
C50 C 0.38261 0.91334 0.57592 0.0
C51 C 0.40002 0.89058 0.52385 0.0
C52 C 0.38787 0.86309 0.50693 0.0
C53 C 0.434 0.89961 0.52793 0.0
C54 C 0.45493 0.87985 0.51882 0.0
C55 C 0.44221 0.85075 0.50549 0.0
C56 C 0.29266 0.92559 0.53427 0.0
C57 C 0.26318 0.91412 0.55127 0.0
C58 C 0.29214 0.94345 0.5062 0.0
C59 C 0.26293 0.95163 0.49678 0.0
C60 C 0.23391 0.94195 0.51532 0.0
C61 C 0.2341 0.92218 0.54186 0.0
C62 C 0.40881 0.84333 0.4978 0.0
H63 H 0.32406 0.90981 0.70453 0.0
H64 H 0.31625 0.90189 0.64537 0.0
H65 H 0.41261 0.95623 0.62632 0.0
H66 H 0.42046 0.96413 0.6856 0.0
H67 H 0.31161 0.93616 0.59671 0.0
H68 H 0.40449 0.90883 0.58726 0.0
H69 H 0.34311 0.90538 0.50273 0.0
H70 H 0.36179 0.85545 0.50353 0.0
H71 H 0.44407 0.92098 0.54037 0.0
H72 H 0.48069 0.88635 0.5245 0.0
H73 H 0.26288 0.8998 0.57265 0.0
H74 H 0.31461 0.95257 0.49274 0.0
H75 H 0.39822 0.821 0.4877 0.0
H76 H 0.21192 0.91386 0.55613 0.0
H77 H 0.26346 0.96696 0.47625 0.0
C78 C 0.76254 0.43655 0.90952 0.0
C79 C 0.78624 0.41863 0.91579 0.0
C80 C 0.7334 0.42416 0.89275 0.0
C81 C 0.72671 0.39332 0.88199 0.0
C82 C 0.75067 0.3757 0.8875 0.0
C83 C 0.77985 0.38812 0.90374 0.0
C84 C 0.69458 0.37885 0.86637 0.0
C85 C 0.68082 0.39351 0.84111 0.0
C86 C 0.65101 0.37959 0.82596 0.0
C87 C 0.635 0.35011 0.83723 0.0
C88 C 0.64803 0.33483 0.86286 0.0
C89 C 0.67778 0.34982 0.87692 0.0
C90 C 0.63076 0.30372 0.87601 0.0
C91 C 0.59631 0.29527 0.87798 0.0
C92 C 0.64869 0.28256 0.88841 0.0
C93 C 0.63299 0.25493 0.90332 0.0
C94 C 0.59855 0.24695 0.90632 0.0
C95 C 0.63686 0.39614 0.79867 0.0
C96 C 0.64052 0.42838 0.79902 0.0
C97 C 0.61995 0.38032 0.77175 0.0
C98 C 0.6074 0.39609 0.74643 0.0
C99 C 0.61093 0.42835 0.74703 0.0
C100 C 0.62796 0.44405 0.77389 0.0
C101 C 0.58059 0.26751 0.89268 0.0
H102 H 0.76595 0.46 0.91836 0.0
H103 H 0.71558 0.43849 0.88916 0.0
H104 H 0.74687 0.35207 0.87912 0.0
H105 H 0.79749 0.37351 0.90673 0.0
H106 H 0.69403 0.41553 0.83261 0.0
H107 H 0.6877 0.33923 0.89715 0.0
H108 H 0.61224 0.33912 0.82615 0.0
H109 H 0.58125 0.31051 0.86901 0.0
H110 H 0.67519 0.28736 0.88689 0.0
H111 H 0.64813 0.24026 0.91333 0.0
H112 H 0.65285 0.4418 0.81912 0.0
H113 H 0.61669 0.35562 0.76993 0.0
H114 H 0.55409 0.26235 0.89343 0.0
H115 H 0.63194 0.46879 0.77554 0.0
H116 H 0.59439 0.38281 0.7266 0.0
C117 C 0.88495 0.6348 0.2442 0.0
C118 C 0.91917 0.63762 0.2399 0.0
C119 C 0.87134 0.64824 0.27155 0.0
C120 C 0.89134 0.66513 0.29579 0.0
C121 C 0.92552 0.6678 0.29156 0.0
C122 C 0.9391 0.65433 0.26431 0.0
C123 C 0.8768 0.67957 0.32535 0.0
C124 C 0.8469 0.66474 0.34051 0.0
C125 C 0.83386 0.67736 0.36874 0.0
C126 C 0.85052 0.70568 0.38134 0.0
C127 C 0.87989 0.72159 0.36674 0.0
C128 C 0.89297 0.70807 0.33898 0.0
C129 C 0.89667 0.75205 0.3812 0.0
C130 C 0.87837 0.77412 0.39169 0.0
C131 C 0.93071 0.75886 0.38628 0.0
C132 C 0.9457 0.78628 0.40223 0.0
C133 C 0.92728 0.80811 0.41323 0.0
C134 C 0.80367 0.66073 0.3866 0.0
C135 C 0.77284 0.65395 0.37166 0.0
C136 C 0.80532 0.65334 0.4199 0.0
C137 C 0.77705 0.64026 0.43802 0.0
C138 C 0.74571 0.63479 0.42384 0.0
C139 C 0.74424 0.64136 0.39004 0.0
C140 C 0.8934 0.80169 0.4072 0.0
H141 H 0.86847 0.62266 0.22606 0.0
H142 H 0.84497 0.64579 0.27331 0.0
H143 H 0.94201 0.67992 0.30971 0.0
H144 H 0.96546 0.65671 0.26277 0.0
H145 H 0.83435 0.6427 0.33125 0.0
H146 H 0.91542 0.7202 0.3275 0.0
H147 H 0.84062 0.71524 0.40311 0.0
H148 H 0.85217 0.77 0.38805 0.0
H149 H 0.9457 0.74255 0.37879 0.0
H150 H 0.97186 0.79035 0.40602 0.0
H151 H 0.77068 0.65949 0.34606 0.0
H152 H 0.82868 0.65791 0.43211 0.0
H153 H 0.87822 0.81762 0.41535 0.0
H154 H 0.7209 0.63779 0.37793 0.0
H155 H 0.77998 0.63468 0.46344 0.0
C156 C 0.76046 0.77623 0.72991 0.0
C157 C 0.7729 0.80693 0.72171 0.0
C158 C 0.73754 0.76909 0.75573 0.0
C159 C 0.72696 0.79256 0.77405 0.0
C160 C 0.73768 0.82308 0.76413 0.0
C161 C 0.76025 0.83014 0.73827 0.0
C162 C 0.7094 0.7862 0.80625 0.0
C163 C 0.71944 0.76593 0.82811 0.0
C164 C 0.70922 0.76477 0.86133 0.0
C165 C 0.68814 0.78403 0.87256 0.0
C166 C 0.67781 0.80448 0.85097 0.0
C167 C 0.68754 0.80451 0.81768 0.0
C168 C 0.66163 0.82921 0.86396 0.0
C169 C 0.63535 0.82315 0.88674 0.0
C170 C 0.674 0.8597 0.85476 0.0
C171 C 0.66083 0.88364 0.8684 0.0
C172 C 0.63489 0.87771 0.89148 0.0
C173 C 0.72552 0.74742 0.88464 0.0
C174 C 0.73244 0.71876 0.87538 0.0
C175 C 0.73887 0.76147 0.9138 0.0
C176 C 0.76081 0.74841 0.93171 0.0
C177 C 0.77008 0.72116 0.92072 0.0
C178 C 0.75458 0.70584 0.89311 0.0
C179 C 0.6219 0.8472 0.9002 0.0
H180 H 0.76948 0.75784 0.7173 0.0
H181 H 0.72937 0.7453 0.7624 0.0
H182 H 0.7307 0.84189 0.77788 0.0
H183 H 0.76965 0.85408 0.73302 0.0
H184 H 0.73786 0.75316 0.82007 0.0
H185 H 0.6797 0.82035 0.80106 0.0
H186 H 0.68148 0.7845 0.89846 0.0
H187 H 0.6254 0.79987 0.89428 0.0
H188 H 0.69459 0.8652 0.83767 0.0
H189 H 0.67117 0.90691 0.86108 0.0
H190 H 0.7222 0.70717 0.85325 0.0
H191 H 0.73423 0.78362 0.92161 0.0
H192 H 0.60202 0.84205 0.91814 0.0
H193 H 0.76111 0.68487 0.8838 0.0
H194 H 0.77172 0.76046 0.95331 0.0
C195 C 0.71067 0.12269 0.36813 0.0
C196 C 0.71033 0.14598 0.34525 0.0
C197 C 0.71645 0.12988 0.40127 0.0
C198 C 0.72205 0.16051 0.41223 0.0
C199 C 0.7229 0.18388 0.38914 0.0
C200 C 0.71713 0.17669 0.35597 0.0
C201 C 0.72529 0.1679 0.44784 0.0
C202 C 0.74357 0.15252 0.46789 0.0
C203 C 0.74552 0.15866 0.50187 0.0
C204 C 0.72913 0.18056 0.51588 0.0
C205 C 0.71079 0.19613 0.49605 0.0
C206 C 0.70897 0.18964 0.46215 0.0
C207 C 0.69225 0.21844 0.51024 0.0
C208 C 0.67097 0.21086 0.53753 0.0
C209 C 0.69301 0.24618 0.49404 0.0
C210 C 0.67112 0.26483 0.50318 0.0
C211 C 0.64826 0.2562 0.52883 0.0
C212 C 0.76554 0.14246 0.52212 0.0
C213 C 0.76268 0.11066 0.51846 0.0
C214 C 0.78983 0.15892 0.54248 0.0
C215 C 0.81262 0.14411 0.55678 0.0
C216 C 0.81126 0.1127 0.55089 0.0
C217 C 0.78528 0.0959 0.5328 0.0
C218 C 0.64903 0.22974 0.54683 0.0
H219 H 0.70595 0.09884 0.36049 0.0
H220 H 0.71544 0.11135 0.41846 0.0
H221 H 0.72759 0.20773 0.39681 0.0
H222 H 0.71688 0.19511 0.33894 0.0
H223 H 0.75683 0.1361 0.45693 0.0
H224 H 0.69381 0.20084 0.44703 0.0
H225 H 0.73057 0.1854 0.54208 0.0
H226 H 0.66992 0.18951 0.55033 0.0
H227 H 0.70958 0.25278 0.47331 0.0
H228 H 0.6711 0.28543 0.48931 0.0
H229 H 0.74375 0.09743 0.50333 0.0
H230 H 0.79251 0.1835 0.54558 0.0
H231 H 0.63151 0.22283 0.56672 0.0
H232 H 0.7834 0.07154 0.5284 0.0
H233 H 0.83252 0.1576 0.57052 0.0
C234 C 0.25109 0.64143 0.18479 0.0
C235 C 0.24715 0.64647 0.15107 0.0
C236 C 0.27991 0.65549 0.20122 0.0
C237 C 0.30596 0.6748 0.18438 0.0
C238 C 0.30231 0.67854 0.15029 0.0
C239 C 0.27348 0.66496 0.13412 0.0
C240 C 0.33634 0.69176 0.20183 0.0
C241 C 0.34956 0.67928 0.22921 0.0
C242 C 0.37856 0.69487 0.24458 0.0
C243 C 0.39424 0.72386 0.23195 0.0
C244 C 0.38149 0.73719 0.20484 0.0
C245 C 0.3525 0.72088 0.19057 0.0
C246 C 0.39783 0.76806 0.19082 0.0
C247 C 0.40992 0.79353 0.21118 0.0
C248 C 0.3999 0.77275 0.15648 0.0
C249 C 0.41289 0.80175 0.14304 0.0
C250 C 0.42418 0.82747 0.16334 0.0
C251 C 0.39288 0.68034 0.27309 0.0
C252 C 0.37292 0.66598 0.29922 0.0
C253 C 0.42665 0.67995 0.27412 0.0
C254 C 0.43976 0.66513 0.29966 0.0
C255 C 0.41983 0.65063 0.32571 0.0
C256 C 0.38619 0.65174 0.32522 0.0
C257 C 0.42263 0.82271 0.19772 0.0
H258 H 0.23139 0.62745 0.19878 0.0
H259 H 0.28127 0.65189 0.22737 0.0
H260 H 0.32183 0.69213 0.13576 0.0
H261 H 0.2718 0.66899 0.10807 0.0
H262 H 0.33794 0.65683 0.23796 0.0
H263 H 0.34199 0.7315 0.17077 0.0
H264 H 0.41648 0.73602 0.24318 0.0
H265 H 0.40874 0.79115 0.23767 0.0
H266 H 0.39126 0.75387 0.13975 0.0
H267 H 0.41328 0.80412 0.11657 0.0
H268 H 0.34687 0.66581 0.29965 0.0
H269 H 0.44296 0.69046 0.25459 0.0
H270 H 0.43135 0.8416 0.21439 0.0
H271 H 0.36987 0.64078 0.34452 0.0
H272 H 0.46575 0.665 0.29899 0.0
C273 C 0.14523 0.25636 0.67091 0.0
C274 C 0.11161 0.24895 0.6638 0.0
C275 C 0.15906 0.2845 0.68606 0.0
C276 C 0.13976 0.3062 0.69512 0.0
C277 C 0.10592 0.29836 0.68913 0.0
C278 C 0.09215 0.27036 0.67353 0.0
C279 C 0.15541 0.33738 0.70885 0.0
C280 C 0.18481 0.35341 0.69441 0.0
C281 C 0.20103 0.3823 0.70637 0.0
C282 C 0.18665 0.39537 0.73362 0.0
C283 C 0.15679 0.38034 0.74868 0.0
C284 C 0.14143 0.35131 0.73573 0.0
C285 C 0.14182 0.395 0.77783 0.0
C286 C 0.16154 0.41236 0.80198 0.0
C287 C 0.10759 0.3921 0.78179 0.0
C288 C 0.0937 0.40593 0.80863 0.0
C289 C 0.11338 0.42322 0.83287 0.0
C290 C 0.23264 0.39855 0.68976 0.0
C291 C 0.25429 0.38163 0.6744 0.0
C292 C 0.24109 0.43087 0.68776 0.0
C293 C 0.26941 0.44546 0.67019 0.0
C294 C 0.28987 0.42822 0.65367 0.0
C295 C 0.28205 0.39616 0.65636 0.0
C296 C 0.14764 0.42614 0.82889 0.0
H297 H 0.16121 0.24079 0.66377 0.0
H298 H 0.18513 0.28939 0.69046 0.0
H299 H 0.09018 0.31433 0.69553 0.0
H300 H 0.06612 0.26554 0.66892 0.0
H301 H 0.19456 0.34347 0.67285 0.0
H302 H 0.11901 0.33906 0.74715 0.0
H303 H 0.19869 0.41746 0.74312 0.0
H304 H 0.18793 0.41494 0.80051 0.0
H305 H 0.09131 0.37952 0.76373 0.0
H306 H 0.06732 0.40339 0.80996 0.0
H307 H 0.2498 0.35691 0.67598 0.0
H308 H 0.2253 0.44501 0.69877 0.0
H309 H 0.16395 0.43865 0.84695 0.0
H310 H 0.2974 0.38217 0.64419 0.0
H311 H 0.27458 0.47021 0.6684 0.0
Sm312 Sm 0.02341 0.04582 0.50815 0.0
Sm313 Sm 0.0216 1.01002 0.56896 0.0
C314 C 0.0218 0.08761 0.46308 0.0
C315 C 0.04632 0.11466 0.45394 0.0
C316 C 0.04198 0.1319 0.42647 0.0
C317 C 0.06725 0.15546 0.41574 0.0
C318 C 0.09723 0.16185 0.43226 0.0
C319 C 0.10088 0.14526 0.4606 0.0
C320 C 0.07561 0.12187 0.47136 0.0
C321 C 0.07823 1.02099 0.51584 0.0
C322 C 0.05213 0.08197 0.57669 0.0
C323 C 0.01945 0.96846 0.6149 0.0
C324 C 0.99065 0.94628 0.62739 0.0
C325 C 0.98588 0.91516 0.61806 0.0
C326 C 0.956 0.89536 0.62493 0.0
C327 C 0.93041 0.90649 0.64099 0.0
C328 C 0.93585 0.93711 0.65183 0.0
C329 C 0.9656 0.95675 0.64523 0.0
C330 C 0.96629 1.034 0.56014 0.0
C331 C 0.99362 0.97388 0.50015 0.0
O332 O 1.00839 0.08852 0.49238 0.0
O333 O 0.03051 0.06147 0.45655 0.0
O334 O 0.06416 1.03352 0.53831 0.0
O335 O 0.06494 1.02298 0.48771 0.0
O336 O 0.03693 0.08394 0.54877 0.0
O337 O 0.05507 0.05472 0.5874 0.0
O338 O 0.02878 0.96406 0.58457 0.0
O339 O 0.01972 0.99734 0.62155 0.0
O340 O 0.98096 1.0214 0.53836 0.0
O341 O 0.97952 1.03299 0.58844 0.0
O342 O 1.00927 0.97193 0.52785 0.0
O343 O 0.99036 1.0011 0.48967 0.0
H344 H 0.01955 0.12647 0.41271 0.0
H345 H 0.06391 0.16767 0.39363 0.0
H346 H 0.12359 0.14988 0.47393 0.0
H347 H 0.07932 0.10867 0.49265 0.0
H348 H 1.00475 0.90647 0.60429 0.0
H349 H 0.95242 0.87173 0.61656 0.0
H350 H 0.91678 0.94606 0.66499 0.0
H351 H 0.96834 0.98048 0.65305 0.0
Sm352 Sm 0.54793 0.03782 0.04553 0.0
Sm353 Sm 0.4871 1.02921 1.01804 0.0
C354 C 0.6047 0.05827 0.07456 0.0
C355 C 0.61497 0.06806 0.10786 0.0
C356 C 0.64834 0.07506 0.1151 0.0
C357 C 0.65826 0.08352 0.14709 0.0
C358 C 0.63487 0.08504 0.17226 0.0
C359 C 0.6014 0.07835 0.16466 0.0
C360 C 0.59154 0.06987 0.13271 0.0
C361 C 0.51003 0.98195 0.06561 0.0
C362 C 0.49094 0.06701 0.08339 0.0
C363 C 0.43136 1.01004 0.9869 0.0
C364 C 0.42228 1.00256 0.95244 0.0
C365 C 0.43299 0.9785 0.93539 0.0
C366 C 0.42579 0.97293 0.90223 0.0
C367 C 0.40796 0.99139 0.88544 0.0
C368 C 0.39678 1.01509 0.90261 0.0
C369 C 0.40374 1.02051 0.93587 0.0
C370 C 0.52678 0.08406 0.99637 0.0
C371 C 0.54295 0.9983 0.98094 0.0
O372 O 0.58851 0.07594 0.05929 0.0
O373 O 0.59189 1.02928 0.07093 0.0
O374 O 0.49986 1.00711 0.06521 0.0
O375 O 0.53993 0.98596 0.05461 0.0
O376 O 0.52251 0.07081 0.07663 0.0
O377 O 0.47046 0.04624 0.06719 0.0
O378 O 0.4471 0.99168 1.00174 0.0
O379 O 0.44304 0.03883 0.99349 0.0
O380 O 0.53549 0.05835 0.99781 0.0
O381 O 0.49699 0.08138 1.0074 0.0
O382 O 0.51148 0.99511 0.98782 0.0
O383 O 0.56384 1.01928 0.99657 0.0
H384 H 0.66668 0.07365 0.09612 0.0
H385 H 0.68418 0.08821 0.15227 0.0
H386 H 0.58284 0.07972 0.18341 0.0
H387 H 0.56563 0.06453 0.12744 0.0
H388 H 0.44741 0.96428 0.94742 0.0
H389 H 0.43495 0.95468 0.88948 0.0
H390 H 0.38268 1.02945 0.8903 0.0
H391 H 0.39509 0.03909 0.94853 0.0
Sm392 Sm 0.50925 0.51283 0.51566 0.0
Sm393 Sm 0.51762 0.56391 0.55698 0.0
C394 C 0.51541 0.46337 0.48121 0.0
C395 C 0.5225 0.43338 0.48962 0.0
C396 C 0.5493 0.43135 0.50922 0.0
C397 C 0.55642 0.40291 0.51635 0.0
C398 C 0.5368 0.37584 0.50418 0.0
C399 C 0.50924 0.37787 0.48555 0.0
C400 C 0.50221 0.40645 0.47828 0.0
C401 C 0.45397 0.51116 0.55582 0.0
C402 C 0.54213 0.50686 0.58884 0.0
C403 C 0.5122 0.61414 0.59045 0.0
C404 C 0.50993 0.64544 0.58082 0.0
C405 C 0.48521 0.65057 0.55989 0.0
C406 C 0.48384 0.68021 0.55025 0.0
C407 C 0.5073 0.7054 0.56109 0.0
C408 C 0.53225 0.70017 0.58175 0.0
C409 C 0.53348 0.67046 0.59159 0.0
C410 C 0.57297 0.56524 0.51699 0.0
C411 C 0.48405 0.5694 0.48394 0.0
O412 O 0.53926 0.48703 0.48491 0.0
O413 O 0.4871 0.46867 0.49142 0.0
O414 O 0.48335 0.51824 0.56523 0.0
O415 O 0.45331 0.50595 0.52435 0.0
O416 O 0.54018 0.49721 0.5578 0.0
O417 O 0.53088 0.53176 0.59682 0.0
O418 O 0.48719 0.59231 0.58373 0.0
O419 O 0.54028 0.60616 0.58429 0.0
O420 O 0.5436 0.55851 0.5075 0.0
O421 O 0.57354 0.57063 0.54838 0.0
O422 O 0.48638 0.57929 0.51488 0.0
O423 O 0.49514 0.54447 0.47595 0.0
H424 H 0.56527 0.45176 0.5185 0.0
H425 H 0.57818 0.4023 0.53023 0.0
H426 H 0.49349 0.35742 0.47609 0.0
H427 H 0.48118 0.40755 0.46344 0.0
H428 H 0.46677 0.63174 0.551 0.0
H429 H 0.46389 0.6834 0.53488 0.0
H430 H 0.55087 0.71901 0.5903 0.0
H431 H 0.55293 0.66701 0.60751 0.0
Sm432 Sm 1.01414 0.50325 0.05057 0.0
Sm433 Sm 1.01808 0.56005 1.02008 0.0
C434 C 0.02715 0.45183 0.07423 0.0
C435 C 0.05715 0.44278 0.08552 0.0
C436 C 0.08801 0.45694 0.07288 0.0
C437 C 0.11647 0.44871 0.08426 0.0
C438 C 0.11456 0.42632 0.10862 0.0
C439 C 0.08358 0.41225 0.12122 0.0
C440 C 0.05512 0.42042 0.10973 0.0
C441 C 0.97834 0.5396 0.08674 0.0
C442 C 0.07945 0.55817 0.06548 0.0
C443 C 1.00524 0.61155 0.99637 0.0
C444 C 0.97473 0.62168 0.98883 0.0
C445 C 0.94469 0.60645 1.00233 0.0
C446 C 0.91562 0.61577 0.99476 0.0
C447 C 0.91609 0.64061 0.97369 0.0
C448 C 0.94629 0.65583 0.96028 0.0
C449 C 0.97537 0.64638 0.96776 0.0
C450 C 0.05367 0.52341 0.98398 0.0
C451 C 0.95247 0.50554 1.00588 0.0
O452 O 0.02617 0.45724 0.04284 0.0
O453 O 1.01612 0.47207 0.09249 0.0
O454 O 1.00667 0.54877 0.07405 0.0
O455 O 0.968 0.51083 0.07958 0.0
O456 O 0.06692 0.52845 0.0649 0.0
O457 O 0.06376 0.57722 0.05124 0.0
O458 O 1.01001 0.6075 1.02747 0.0
O459 O 1.01238 0.58958 0.97773 0.0
O460 O 0.0253 0.51449 0.99661 0.0
O461 O 0.06413 0.55219 0.99101 0.0
O462 O 0.96474 0.53527 1.00742 0.0
O463 O 0.96866 0.48624 1.01898 0.0
H464 H 0.09015 0.47446 0.05432 0.0
H465 H 0.13998 0.4602 0.07438 0.0
H466 H 0.08132 0.39469 0.13976 0.0
H467 H 0.03152 0.40933 0.11981 0.0
H468 H 0.94372 0.58741 1.01883 0.0
H469 H 0.89283 0.60379 1.00574 0.0
H470 H 0.94739 0.67479 0.94363 0.0
H471 H 0.99832 0.65828 0.95702 0.0
H472 H 0.19877 0.26042 0.35477 0.0
H473 H 0.25781 0.19171 0.36603 0.0
H474 H 0.21558 0.16235 0.40166 0.0
H475 H 0.15924 0.15285 0.42358 0.0
H476 H 0.09837 0.21931 0.40879 0.0
H477 H 0.14369 0.25256 0.37983 0.0
C478 C 0.20247 0.23905 0.36507 0.0
C479 C 0.23132 0.22817 0.35734 0.0
C480 C 0.17752 0.22162 0.38444 0.0
C481 C 0.23604 0.20084 0.37168 0.0
C482 C 0.2117 0.18381 0.39179 0.0
C483 C 0.15612 0.17492 0.41463 0.0
C484 C 0.12553 0.18363 0.41819 0.0
C485 C 0.18199 0.19353 0.39749 0.0
C486 C 0.12164 0.21203 0.40602 0.0
C487 C 0.14753 0.23103 0.38956 0.0
H488 H 0.39348 0.99155 0.73133 0.0
H489 H 0.36201 0.89462 0.74764 0.0
H490 H 0.36973 0.90271 0.80683 0.0
H491 H 0.38592 0.9374 0.8538 0.0
H492 H 0.41659 0.03444 0.83747 0.0
H493 H 0.40851 1.02635 0.7784 0.0
C494 C 0.38852 0.97223 0.74789 0.0
C495 C 0.3774 0.94255 0.73528 0.0
C496 C 0.39273 0.9771 0.78181 0.0
C497 C 0.37048 0.9177 0.75692 0.0
C498 C 0.37496 0.9223 0.79068 0.0
C499 C 0.39092 0.95672 0.83723 0.0
C500 C 0.40189 0.98644 0.84986 0.0
C501 C 0.38614 0.95189 0.80338 0.0
C502 C 0.40784 1.01138 0.82829 0.0
C503 C 0.40341 1.00675 0.79454 0.0
H504 H 0.60434 0.41662 0.67932 0.0
H505 H 0.58386 0.47986 0.75479 0.0
H506 H 0.5621 0.50936 0.71381 0.0
H507 H 0.54826 0.51804 0.65609 0.0
H508 H 0.56762 0.45458 0.58054 0.0
H509 H 0.58968 0.4249 0.62146 0.0
C510 C 0.59494 0.4367 0.68702 0.0
C511 C 0.59646 0.44576 0.72074 0.0
C512 C 0.58201 0.45391 0.66296 0.0
C513 C 0.58407 0.47224 0.7294 0.0
C514 C 0.57124 0.48923 0.70579 0.0
C515 C 0.55733 0.49776 0.64843 0.0
C516 C 0.55611 0.48896 0.61472 0.0
C517 C 0.57014 0.48047 0.67241 0.0
C518 C 0.56808 0.46233 0.6059 0.0
C519 C 0.58079 0.44516 0.62951 0.0
H520 H 0.89514 0.58375 0.20532 0.0
H521 H 0.97737 0.65981 0.20639 0.0
H522 H 1.00254 0.63731 0.15987 0.0
H523 H 1.00209 0.59534 0.11832 0.0
H524 H 0.91924 0.52003 0.11712 0.0
H525 H 0.89375 0.54305 0.16309 0.0
C526 C 0.9184 0.59574 0.19532 0.0
C527 C 0.93411 0.62364 0.21022 0.0
C528 C 0.93291 0.58269 0.16801 0.0
C529 C 0.9646 0.63814 0.19648 0.0
C530 C 0.97908 0.62533 0.16944 0.0
C531 C 0.97837 0.58405 0.12798 0.0
C532 C 0.96282 0.55573 0.11394 0.0
C533 C 0.96362 0.59749 0.15496 0.0
C534 C 0.93204 0.54166 0.12715 0.0
C535 C 0.91734 0.55486 0.15365 0.0
H536 H 0.4602 0.17978 0.16529 0.0
H537 H 0.36274 0.14098 0.13269 0.0
H538 H 0.38243 0.09755 0.10794 0.0
H539 H 0.42766 0.07244 0.09235 0.0
H540 H 0.52576 0.11157 0.123 0.0
H541 H 0.50535 0.1526 0.1524 0.0
C542 C 0.44326 0.16161 0.15311 0.0
C543 C 0.41015 0.16379 0.15046 0.0
C544 C 0.45482 0.13674 0.13866 0.0
C545 C 0.38847 0.14014 0.13448 0.0
C546 C 0.39966 0.11521 0.1205 0.0
C547 C 0.44458 0.08964 0.10587 0.0
C548 C 0.47821 0.089 0.10532 0.0
C549 C 0.43284 0.11353 0.12196 0.0
C550 C 0.49974 0.11157 0.12292 0.0
C551 C 0.48811 0.13513 0.13962 0.0
H552 H 0.19706 0.96492 0.56083 0.0
H553 H 0.20537 0.94866 0.45643 0.0
H554 H 0.15757 0.9718 0.44728 0.0
H555 H 0.1137 0.99692 0.46928 0.0
H556 H 0.10639 1.0133 0.57381 0.0
H557 H 0.15349 0.98949 0.58271 0.0
C558 C 0.18813 0.96604 0.5361 0.0
C559 C 0.20443 0.95485 0.50936 0.0
C560 C 0.16097 0.97946 0.53111 0.0
C561 C 0.19317 0.95717 0.47737 0.0
C562 C 0.16587 0.97032 0.47217 0.0
C563 C 0.1225 0.99526 0.49396 0.0
C564 C 0.1068 1.00688 0.52086 0.0
C565 C 0.14966 0.98163 0.49887 0.0
C566 C 0.11827 1.00461 0.55274 0.0
C567 C 0.14511 0.99097 0.55785 0.0
H568 H 0.82274 0.47831 0.92036 0.0
H569 H 0.81955 0.38706 0.95683 0.0
H570 H 0.86967 0.40517 0.98663 0.0
H571 H 0.91546 0.44675 1.00282 0.0
H572 H 0.91724 0.53856 0.9693 0.0
H573 H 0.86699 0.52052 0.939 0.0
C574 C 0.83263 0.46228 0.93504 0.0
C575 C 0.81693 0.43094 0.93534 0.0
C576 C 0.86161 0.47304 0.95308 0.0
C577 C 0.83098 0.41101 0.95475 0.0
C578 C 0.85976 0.42145 0.97231 0.0
C579 C 0.90488 0.4629 0.98899 0.0
C580 C 0.92063 0.49411 0.98852 0.0
C581 C 0.87551 0.45237 0.97159 0.0
C582 C 0.90605 0.51447 0.97039 0.0
C583 C 0.87714 0.50411 0.95286 0.0
H584 H 0.68562 0.59823 0.40651 0.0
H585 H 0.73554 0.64706 0.48932 0.0
H586 H 0.68839 0.62871 0.52463 0.0
H587 H 0.63247 0.5994 0.53304 0.0
H588 H 0.57969 0.55367 0.45066 0.0
H589 H 0.62785 0.57044 0.41458 0.0
C590 C 0.68626 0.60515 0.43219 0.0
C591 C 0.71515 0.62369 0.44488 0.0
C592 C 0.65822 0.59504 0.45275 0.0
C593 C 0.71473 0.63205 0.47851 0.0
C594 C 0.68739 0.62179 0.49894 0.0
C595 C 0.63143 0.59296 0.5072 0.0
C596 C 0.60235 0.57505 0.49475 0.0
C597 C 0.65904 0.60321 0.48647 0.0
C598 C 0.60162 0.56734 0.46104 0.0
C599 C 0.62925 0.57698 0.44037 0.0
H600 H 0.22934 0.38418 0.18251 0.0
H601 H 0.26691 0.38003 0.08318 0.0
H602 H 0.22019 0.39957 0.06255 0.0
H603 H 0.16711 0.4151 0.07275 0.0
H604 H 0.12965 0.41818 0.17231 0.0
H605 H 0.17802 0.40181 0.19291 0.0
C606 C 0.22772 0.38818 0.1564 0.0
C607 C 0.25169 0.38089 0.13441 0.0
C608 C 0.20063 0.39889 0.14477 0.0
C609 C 0.24874 0.38543 0.10057 0.0
C610 C 0.22204 0.39657 0.0888 0.0
C611 C 0.16977 0.41255 0.09898 0.0
C612 C 0.14474 0.41767 0.12096 0.0
C613 C 0.19759 0.40295 0.11065 0.0
C614 C 0.14833 0.41393 0.15485 0.0
C615 C 0.17605 0.40474 0.16666 0.0
H616 H 0.61741 0.19019 0.91252 0.0
H617 H 0.54083 0.23822 0.94275 0.0
H618 H 0.51259 0.19314 0.97196 0.0
H619 H 0.50891 0.13977 0.98995 0.0
H620 H 0.5858 0.09171 0.96217 0.0
H621 H 0.61445 0.13683 0.93197 0.0
C622 C 0.59469 0.1911 0.92564 0.0
C623 C 0.58148 0.21823 0.92456 0.0
C624 C 0.57842 0.16479 0.94325 0.0
C625 C 0.55165 0.21801 0.94187 0.0
C626 C 0.53542 0.19209 0.95909 0.0
C627 C 0.53197 0.13908 0.97734 0.0
C628 C 0.54497 0.11201 0.97846 0.0
C629 C 0.54844 0.1653 0.95998 0.0
C630 C 0.57503 0.11196 0.9619 0.0
C631 C 0.59145 0.13789 0.94451 0.0
H632 H 0.91687 0.86735 0.40778 0.0
H633 H 0.97332 0.81368 0.46147 0.0
H634 H 0.99828 0.85916 0.493 0.0
H635 H 1.00413 0.91468 0.50609 0.0
H636 H 0.94892 0.96852 0.45097 0.0
H637 H 0.92367 0.92295 0.41989 0.0
C638 C 0.93455 0.8655 0.42644 0.0
C639 C 0.94303 0.83672 0.43196 0.0
C640 C 0.94918 0.89205 0.44451 0.0
C641 C 0.96641 0.83529 0.45615 0.0
C642 C 0.98065 0.8614 0.47444 0.0
C643 C 0.98656 0.9165 0.4873 0.0
C644 C 0.97857 0.94537 0.48117 0.0
C645 C 0.97226 0.88999 0.46893 0.0
C646 C 0.95581 0.94693 0.45642 0.0
C647 C 0.94122 0.92071 0.43854 0.0
H648 H 0.47924 0.83842 0.55507 0.0
H649 H 0.44692 0.80698 0.45822 0.0
H650 H 0.46834 0.7601 0.46553 0.0
H651 H 0.48983 0.72565 0.50229 0.0
H652 H 0.51769 0.7563 0.60077 0.0
H653 H 0.50551 0.80638 0.5895 0.0
C654 C 0.47783 0.82182 0.53508 0.0
C655 C 0.46151 0.82613 0.50614 0.0
C656 C 0.48916 0.79464 0.53991 0.0
C657 C 0.45927 0.80406 0.48078 0.0
C658 C 0.47138 0.77725 0.48502 0.0
C659 C 0.49336 0.74333 0.52125 0.0
C660 C 0.50428 0.73702 0.55248 0.0
C661 C 0.48523 0.77182 0.51499 0.0
C662 C 0.50953 0.76047 0.57646 0.0
C663 C 0.5023 0.78909 0.57014 0.0
H664 H 0.78357 0.85121 0.67524 0.0
H665 H 0.82821 0.78251 0.71957 0.0
H666 H 0.8809 0.80499 0.69405 0.0
H667 H 0.91603 0.84936 0.66716 0.0
H668 H 0.87159 0.91988 0.62644 0.0
H669 H 0.8173 0.89183 0.64277 0.0
C670 C 0.80474 0.84089 0.67888 0.0
C671 C 0.80206 0.81555 0.69967 0.0
C672 C 0.83521 0.85469 0.66533 0.0
C673 C 0.82951 0.80197 0.70358 0.0
C674 C 0.8598 0.81506 0.68933 0.0
C675 C 0.89435 0.85815 0.66128 0.0
C676 C 0.89771 0.88683 0.64621 0.0
C677 C 0.86322 0.8422 0.67138 0.0
C678 C 0.86953 0.89809 0.63864 0.0
C679 C 0.83852 0.88205 0.64788 0.0
H680 H 0.66069 0.10167 0.32423 0.0
H681 H 0.73884 0.17309 0.28893 0.0
H682 H 0.72224 0.16072 0.23217 0.0
H683 H 0.68518 0.1297 0.19275 0.0
H684 H 0.60782 0.05771 0.2286 0.0
H685 H 0.62448 0.07027 0.28508 0.0
C686 C 0.67438 0.11426 0.30409 0.0
C687 C 0.70107 0.13811 0.31073 0.0
C688 C 0.66473 0.10705 0.27168 0.0
C689 C 0.71809 0.15472 0.28443 0.0
C690 C 0.70868 0.1476 0.25201 0.0
C691 C 0.67217 0.11661 0.21292 0.0
C692 C 0.64525 0.09287 0.20648 0.0
C693 C 0.682 0.12382 0.24536 0.0
C694 C 0.62833 0.07638 0.23291 0.0
C695 C 0.63796 0.08341 0.2652 0.0
H696 H 0.41135 0.65194 0.39393 0.0
H697 H 0.46048 0.60959 0.31699 0.0
H698 H 0.4836 0.58066 0.3579 0.0
H699 H 0.49043 0.5669 0.41598 0.0
H700 H 0.44438 0.61157 0.4934 0.0
H701 H 0.41997 0.63958 0.45247 0.0
C702 C 0.42704 0.63633 0.38606 0.0
C703 C 0.43393 0.63318 0.35196 0.0
C704 C 0.44103 0.61995 0.4101 0.0
C705 C 0.45475 0.61291 0.34274 0.0
C706 C 0.46798 0.59616 0.36627 0.0
C707 C 0.47498 0.58268 0.42401 0.0
C708 C 0.46927 0.58667 0.45817 0.0
C709 C 0.46139 0.59941 0.40009 0.0
C710 C 0.44941 0.60773 0.46759 0.0
C711 C 0.4353 0.62385 0.44403 0.0
H712 H 0.13712 0.4777 0.86651 0.0
H713 H 0.05493 0.40158 0.86627 0.0
H714 H 0.02957 0.42478 0.91218 0.0
H715 H 0.02993 0.46731 0.95306 0.0
H716 H 0.11278 0.54264 0.95345 0.0
H717 H 0.13836 0.519 0.90799 0.0
C718 C 0.11383 0.46584 0.87657 0.0
C719 C 0.09821 0.4377 0.86209 0.0
C720 C 0.09922 0.47929 0.90353 0.0
C721 C 0.06765 0.42341 0.87586 0.0
C722 C 0.05307 0.43662 0.90255 0.0
C723 C 0.05365 0.47848 0.94333 0.0
C724 C 0.06919 0.50698 0.957 0.0
C725 C 0.06847 0.46467 0.91664 0.0
C726 C 0.09999 0.52088 0.94371 0.0
C727 C 0.11474 0.50732 0.9175 0.0
H728 H 0.57148 0.88403 0.89997 0.0
H729 H 0.67097 0.92937 0.91846 0.0
H730 H 0.65143 0.97196 0.94542 0.0
H731 H 0.60615 0.9952 0.96592 0.0
H732 H 0.50642 0.94999 0.94782 0.0
H733 H 0.52597 0.90876 0.91822 0.0
C734 C 0.58879 0.90325 0.90998 0.0
C735 C 0.62257 0.90355 0.90734 0.0
C736 C 0.57738 0.92775 0.92536 0.0
C737 C 0.64483 0.92874 0.92001 0.0
C738 C 0.63369 0.95305 0.93549 0.0
C739 C 0.58866 0.97654 0.95517 0.0
C740 C 0.55488 0.97568 0.95924 0.0
C741 C 0.60003 0.95271 0.9385 0.0
C742 C 0.53258 0.95128 0.9451 0.0
C743 C 0.54373 0.92756 0.92829 0.0
H744 H 0.84216 0.07867 0.51089 0.0
H745 H 0.8433 0.11579 0.60952 0.0
H746 H 0.8914 0.09391 0.62159 0.0
H747 H 0.93371 0.06501 0.60323 0.0
H748 H 0.93242 1.02966 0.50372 0.0
H749 H 0.88342 0.04985 0.49287 0.0
C750 C 0.85258 0.08151 0.53524 0.0
C751 C 0.83906 0.09838 0.55946 0.0
C752 C 0.8802 0.06931 0.54172 0.0
C753 C 0.85334 0.10275 0.59057 0.0
C754 C 0.88075 0.09026 0.59743 0.0
C755 C 0.92251 0.06167 0.57928 0.0
C756 C 0.93645 0.04586 0.55433 0.0
C757 C 0.89449 0.07364 0.57309 0.0
C758 C 0.92203 0.04177 0.52329 0.0
C759 C 0.89405 0.05328 0.51707 0.0
H760 H 0.20912 0.58772 0.15152 0.0
H761 H 0.21351 0.67738 0.11087 0.0
H762 H 0.16303 0.6586 0.08121 0.0
H763 H 0.11706 0.61671 0.06629 0.0
H764 H 0.1135 0.52636 0.10492 0.0
H765 H 0.16356 0.54523 0.13533 0.0
C766 C 0.19895 0.60319 0.1363 0.0
C767 C 0.21547 0.63409 0.13362 0.0
C768 C 0.16981 0.59202 0.11863 0.0
C769 C 0.2018 0.65352 0.11336 0.0
C770 C 0.17272 0.64277 0.09636 0.0
C771 C 0.12719 0.60106 0.08129 0.0
C772 C 0.11105 0.57001 0.08311 0.0
C773 C 0.15647 0.61205 0.09866 0.0
C774 C 0.12504 0.5503 0.10275 0.0
C775 C 0.15381 0.56113 0.12034 0.0
H776 H 0.34529 0.47132 0.66883 0.0
H777 H 0.2972 0.4178 0.58836 0.0
H778 H 0.34227 0.43965 0.55098 0.0
H779 H 0.39617 0.47295 0.54097 0.0
H780 H 0.44702 0.52381 0.62162 0.0
H781 H 0.40052 0.50432 0.65879 0.0
C782 C 0.34468 0.46464 0.64306 0.0
C783 C 0.31769 0.44295 0.63144 0.0
C784 C 0.37136 0.47683 0.62165 0.0
C785 C 0.31756 0.43432 0.59802 0.0
C786 C 0.34338 0.44686 0.57657 0.0
C787 C 0.39706 0.47997 0.56664 0.0
C788 C 0.42515 0.50008 0.57833 0.0
C789 C 0.37053 0.46799 0.58807 0.0
C790 C 0.42581 0.50848 0.61185 0.0
C791 C 0.39916 0.49728 0.63315 0.0
H792 H 0.77718 0.66228 0.93183 0.0
H793 H 0.82716 0.75656 0.94197 0.0
H794 H 0.87587 0.73996 0.9607 0.0
H795 H 0.90565 0.69887 0.97108 0.0
H796 H 0.85707 0.60457 0.95842 0.0
H797 H 0.80667 0.621 0.94361 0.0
C798 C 0.79871 0.67921 0.93815 0.0
C799 C 0.79831 0.71064 0.93549 0.0
C800 C 0.82708 0.66952 0.9482 0.0
C801 C 0.82637 0.73222 0.9443 0.0
C802 C 0.85448 0.72276 0.95468 0.0
C803 C 0.88408 0.68192 0.96492 0.0
C804 C 0.88519 0.65057 0.96564 0.0
C805 C 0.8553 0.69151 0.95618 0.0
C806 C 0.85681 0.62886 0.95826 0.0
C807 C 0.82802 0.63823 0.94965 0.0
H808 H 0.46202 0.84277 0.107 0.0
H809 H 0.41496 0.88401 0.1864 0.0
H810 H 0.43471 0.93478 0.16291 0.0
H811 H 0.46679 0.96853 0.11971 0.0
H812 H 0.51532 0.92631 0.04219 0.0
H813 H 0.49322 0.8757 0.0644 0.0
C814 C 0.45574 0.86274 0.11916 0.0
C815 C 0.43682 0.85899 0.14873 0.0
C816 C 0.46743 0.89217 0.10553 0.0
C817 C 0.42971 0.88571 0.16399 0.0
C818 C 0.44088 0.91496 0.15036 0.0
C819 C 0.47209 0.94821 0.10745 0.0
C820 C 0.49259 0.95151 0.07891 0.0
C821 C 0.45989 0.91866 0.12109 0.0
C822 C 0.49962 0.92472 0.06398 0.0
C823 C 0.48703 0.8956 0.07678 0.0
H824 H 0.12371 0.19023 0.67049 0.0
H825 H 0.06711 0.24178 0.6141 0.0
H826 H 0.04443 0.19578 0.58235 0.0
H827 H 0.04057 0.14052 0.5698 0.0
H828 H 0.0956 0.08841 0.62735 0.0
H829 H 0.11882 0.13456 0.65879 0.0
C830 C 0.10649 0.1915 0.6512 0.0
C831 C 0.09726 0.21987 0.64502 0.0
C832 C 0.09315 0.1646 0.63295 0.0
C833 C 0.07452 0.22053 0.61999 0.0
C834 C 0.06161 0.19411 0.60155 0.0
C835 C 0.05769 0.13918 0.58918 0.0
C836 C 0.06626 0.11066 0.59587 0.0
C837 C 0.07071 0.16596 0.60771 0.0
C838 C 0.08836 0.10974 0.62141 0.0
C839 C 0.10175 0.13628 0.6395 0.0
H840 H 0.60341 0.26278 0.48514 0.0
H841 H 0.63491 0.2884 0.58355 0.0
H842 H 0.59785 0.3251 0.58679 0.0
H843 H 0.56294 0.35468 0.55815 0.0
H844 H 0.5354 0.33073 0.45788 0.0
H845 H 0.56344 0.28776 0.45921 0.0
C846 C 0.60158 0.27605 0.50749 0.0
C847 C 0.6219 0.27351 0.5339 0.0
C848 C 0.581 0.29733 0.50874 0.0
C849 C 0.61939 0.2903 0.56296 0.0
C850 C 0.59841 0.31129 0.56468 0.0
C851 C 0.56279 0.33984 0.53673 0.0
C852 C 0.54755 0.34625 0.50779 0.0
C853 C 0.58009 0.31582 0.53719 0.0
C854 C 0.54677 0.32633 0.48054 0.0
C855 C 0.56314 0.30191 0.48111 0.0
loop_
_geom_bond_atom_site_label_1
_geom_bond_atom_site_label_2
_geom_bond_distance
_geom_bond_site_symmetry_2
_ccdc_geom_bond_type
C0 C1 1.386 . S
C0 C2 1.397 . S
C0 H24 0.931 . S
C1 C0 1.386 . S
C1 C5 1.397 . S
C2 C0 1.397 . S
C2 C3 1.384 . S
C2 H25 0.930 . S
C3 C2 1.384 . S
C3 C4 1.377 . S
C3 C6 1.481 . S
C4 C3 1.377 . S
C4 C5 1.389 . S
C4 H26 0.929 . S
C5 C1 1.397 . S
C5 C4 1.389 . S
C5 H27 0.931 . S
C6 C3 1.481 . S
C6 C7 1.387 . S
C6 C11 1.390 . S
C7 C6 1.387 . S
C7 C8 1.401 . S
C7 H28 0.930 . S
C8 C7 1.401 . S
C8 C9 1.376 . S
C8 C17 1.511 . S
C9 C8 1.376 . S
C9 C10 1.392 . S
C9 H30 0.931 . S
C10 C9 1.392 . S
C10 C11 1.361 . S
C10 C12 1.500 . S
C11 C6 1.390 . S
C11 C10 1.361 . S
C11 H29 0.931 . S
C12 C10 1.500 . S
C12 C13 1.371 . S
C12 C14 1.365 . S
C13 C12 1.371 . S
C13 C23 1.386 . S
C13 H31 0.931 . S
C14 C12 1.365 . S
C14 C15 1.409 . S
C14 H32 0.929 . S
C15 C14 1.409 . S
C15 C16 1.380 . S
C15 H33 0.930 . S
C16 C15 1.380 . S
C16 C23 1.357 . S
C17 C8 1.511 . S
C17 C18 1.341 . S
C17 C19 1.371 . S
C18 C17 1.341 . S
C18 C22 1.394 . S
C18 H34 0.930 . S
C19 C17 1.371 . S
C19 C20 1.392 . S
C19 H35 0.931 . S
C20 C19 1.392 . S
C20 C21 1.331 . S
C20 H38 0.932 . S
C21 C20 1.331 . S
C21 C22 1.336 . S
C22 C18 1.394 . S
C22 C21 1.336 . S
C22 H37 0.929 . S
C23 C13 1.386 . S
C23 C16 1.357 . S
C23 H36 0.928 . S
H24 C0 0.931 . S
H25 C2 0.930 . S
H26 C4 0.929 . S
H27 C5 0.931 . S
H28 C7 0.930 . S
H29 C11 0.931 . S
H30 C9 0.931 . S
H31 C13 0.931 . S
H32 C14 0.929 . S
H33 C15 0.930 . S
H34 C18 0.930 . S
H35 C19 0.931 . S
H36 C23 0.928 . S
H37 C22 0.929 . S
H38 C20 0.932 . S
C39 C40 1.386 . S
C39 C41 1.397 . S
C39 H63 0.931 . S
C40 C39 1.386 . S
C40 C44 1.397 . S
C41 C39 1.397 . S
C41 C42 1.384 . S
C41 H64 0.930 . S
C42 C41 1.384 . S
C42 C43 1.377 . S
C42 C45 1.481 . S
C43 C42 1.377 . S
C43 C44 1.389 . S
C43 H65 0.929 . S
C44 C40 1.397 . S
C44 C43 1.389 . S
C44 H66 0.931 . S
C45 C42 1.481 . S
C45 C46 1.387 . S
C45 C50 1.390 . S
C46 C45 1.387 . S
C46 C47 1.401 . S
C46 H67 0.930 . S
C47 C46 1.401 . S
C47 C48 1.376 . S
C47 C56 1.511 . S
C48 C47 1.376 . S
C48 C49 1.392 . S
C48 H69 0.931 . S
C49 C48 1.392 . S
C49 C50 1.361 . S
C49 C51 1.500 . S
C50 C45 1.390 . S
C50 C49 1.361 . S
C50 H68 0.931 . S
C51 C49 1.500 . S
C51 C52 1.371 . S
C51 C53 1.365 . S
C52 C51 1.371 . S
C52 C62 1.386 . S
C52 H70 0.931 . S
C53 C51 1.365 . S
C53 C54 1.409 . S
C53 H71 0.929 . S
C54 C53 1.409 . S
C54 C55 1.380 . S
C54 H72 0.930 . S
C55 C54 1.380 . S
C55 C62 1.357 . S
C56 C47 1.511 . S
C56 C57 1.341 . S
C56 C58 1.371 . S
C57 C56 1.341 . S
C57 C61 1.394 . S
C57 H73 0.930 . S
C58 C56 1.371 . S
C58 C59 1.392 . S
C58 H74 0.931 . S
C59 C58 1.392 . S
C59 C60 1.331 . S
C59 H77 0.932 . S
C60 C59 1.331 . S
C60 C61 1.336 . S
C61 C57 1.394 . S
C61 C60 1.336 . S
C61 H76 0.929 . S
C62 C52 1.386 . S
C62 C55 1.357 . S
C62 H75 0.928 . S
H63 C39 0.931 . S
H64 C41 0.930 . S
H65 C43 0.929 . S
H66 C44 0.931 . S
H67 C46 0.930 . S
H68 C50 0.931 . S
H69 C48 0.931 . S
H70 C52 0.931 . S
H71 C53 0.929 . S
H72 C54 0.930 . S
H73 C57 0.930 . S
H74 C58 0.931 . S
H75 C62 0.928 . S
H76 C61 0.929 . S
H77 C59 0.932 . S
C78 C79 1.386 . S
C78 C80 1.397 . S
C78 H102 0.931 . S
C79 C78 1.386 . S
C79 C83 1.397 . S
C80 C78 1.397 . S
C80 C81 1.384 . S
C80 H103 0.930 . S
C81 C80 1.384 . S
C81 C82 1.377 . S
C81 C84 1.481 . S
C82 C81 1.377 . S
C82 C83 1.389 . S
C82 H104 0.929 . S
C83 C79 1.397 . S
C83 C82 1.389 . S
C83 H105 0.931 . S
C84 C81 1.481 . S
C84 C85 1.387 . S
C84 C89 1.390 . S
C85 C84 1.387 . S
C85 C86 1.401 . S
C85 H106 0.930 . S
C86 C85 1.401 . S
C86 C87 1.376 . S
C86 C95 1.511 . S
C87 C86 1.376 . S
C87 C88 1.392 . S
C87 H108 0.931 . S
C88 C87 1.392 . S
C88 C89 1.361 . S
C88 C90 1.500 . S
C89 C84 1.390 . S
C89 C88 1.361 . S
C89 H107 0.931 . S
C90 C88 1.500 . S
C90 C91 1.371 . S
C90 C92 1.365 . S
C91 C90 1.371 . S
C91 C101 1.386 . S
C91 H109 0.931 . S
C92 C90 1.365 . S
C92 C93 1.409 . S
C92 H110 0.929 . S
C93 C92 1.409 . S
C93 C94 1.380 . S
C93 H111 0.930 . S
C94 C93 1.380 . S
C94 C101 1.357 . S
C95 C86 1.511 . S
C95 C96 1.341 . S
C95 C97 1.371 . S
C96 C95 1.341 . S
C96 C100 1.394 . S
C96 H112 0.930 . S
C97 C95 1.371 . S
C97 C98 1.392 . S
C97 H113 0.931 . S
C98 C97 1.392 . S
C98 C99 1.331 . S
C98 H116 0.932 . S
C99 C98 1.331 . S
C99 C100 1.336 . S
C100 C96 1.394 . S
C100 C99 1.336 . S
C100 H115 0.929 . S
C101 C91 1.386 . S
C101 C94 1.357 . S
C101 H114 0.928 . S
H102 C78 0.931 . S
H103 C80 0.930 . S
H104 C82 0.929 . S
H105 C83 0.931 . S
H106 C85 0.930 . S
H107 C89 0.931 . S
H108 C87 0.931 . S
H109 C91 0.931 . S
H110 C92 0.929 . S
H111 C93 0.930 . S
H112 C96 0.930 . S
H113 C97 0.931 . S
H114 C101 0.928 . S
H115 C100 0.929 . S
H116 C98 0.932 . S
C117 C118 1.386 . S
C117 C119 1.397 . S
C117 H141 0.931 . S
C118 C117 1.386 . S
C118 C122 1.397 . S
C119 C117 1.397 . S
C119 C120 1.384 . S
C119 H142 0.930 . S
C120 C119 1.384 . S
C120 C121 1.377 . S
C120 C123 1.481 . S
C121 C120 1.377 . S
C121 C122 1.389 . S
C121 H143 0.929 . S
C122 C118 1.397 . S
C122 C121 1.389 . S
C122 H144 0.931 . S
C123 C120 1.481 . S
C123 C124 1.387 . S
C123 C128 1.390 . S
C124 C123 1.387 . S
C124 C125 1.401 . S
C124 H145 0.930 . S
C125 C124 1.401 . S
C125 C126 1.376 . S
C125 C134 1.511 . S
C126 C125 1.376 . S
C126 C127 1.392 . S
C126 H147 0.931 . S
C127 C126 1.392 . S
C127 C128 1.361 . S
C127 C129 1.500 . S
C128 C123 1.390 . S
C128 C127 1.361 . S
C128 H146 0.931 . S
C129 C127 1.500 . S
C129 C130 1.371 . S
C129 C131 1.365 . S
C130 C129 1.371 . S
C130 C140 1.386 . S
C130 H148 0.931 . S
C131 C129 1.365 . S
C131 C132 1.409 . S
C131 H149 0.929 . S
C132 C131 1.409 . S
C132 C133 1.380 . S
C132 H150 0.930 . S
C133 C132 1.380 . S
C133 C140 1.357 . S
C134 C125 1.511 . S
C134 C135 1.341 . S
C134 C136 1.371 . S
C135 C134 1.341 . S
C135 C139 1.394 . S
C135 H151 0.930 . S
C136 C134 1.371 . S
C136 C137 1.392 . S
C136 H152 0.931 . S
C137 C136 1.392 . S
C137 C138 1.331 . S
C137 H155 0.932 . S
C138 C137 1.331 . S
C138 C139 1.336 . S
C139 C135 1.394 . S
C139 C138 1.336 . S
C139 H154 0.929 . S
C140 C130 1.386 . S
C140 C133 1.357 . S
C140 H153 0.928 . S
H141 C117 0.931 . S
H142 C119 0.930 . S
H143 C121 0.929 . S
H144 C122 0.931 . S
H145 C124 0.930 . S
H146 C128 0.931 . S
H147 C126 0.931 . S
H148 C130 0.931 . S
H149 C131 0.929 . S
H150 C132 0.930 . S
H151 C135 0.930 . S
H152 C136 0.931 . S
H153 C140 0.928 . S
H154 C139 0.929 . S
H155 C137 0.932 . S
C156 C157 1.386 . S
C156 C158 1.397 . S
C156 H180 0.931 . S
C157 C156 1.386 . S
C157 C161 1.397 . S
C158 C156 1.397 . S
C158 C159 1.384 . S
C158 H181 0.930 . S
C159 C158 1.384 . S
C159 C160 1.377 . S
C159 C162 1.481 . S
C160 C159 1.377 . S
C160 C161 1.389 . S
C160 H182 0.929 . S
C161 C157 1.397 . S
C161 C160 1.389 . S
C161 H183 0.931 . S
C162 C159 1.481 . S
C162 C163 1.387 . S
C162 C167 1.390 . S
C163 C162 1.387 . S
C163 C164 1.401 . S
C163 H184 0.930 . S
C164 C163 1.401 . S
C164 C165 1.376 . S
C164 C173 1.511 . S
C165 C164 1.376 . S
C165 C166 1.392 . S
C165 H186 0.931 . S
C166 C165 1.392 . S
C166 C167 1.361 . S
C166 C168 1.500 . S
C167 C162 1.390 . S
C167 C166 1.361 . S
C167 H185 0.931 . S
C168 C166 1.500 . S
C168 C169 1.371 . S
C168 C170 1.365 . S
C169 C168 1.371 . S
C169 C179 1.386 . S
C169 H187 0.931 . S
C170 C168 1.365 . S
C170 C171 1.409 . S
C170 H188 0.929 . S
C171 C170 1.409 . S
C171 C172 1.380 . S
C171 H189 0.930 . S
C172 C171 1.380 . S
C172 C179 1.357 . S
C173 C164 1.511 . S
C173 C174 1.341 . S
C173 C175 1.371 . S
C174 C173 1.341 . S
C174 C178 1.394 . S
C174 H190 0.930 . S
C175 C173 1.371 . S
C175 C176 1.392 . S
C175 H191 0.931 . S
C176 C175 1.392 . S
C176 C177 1.331 . S
C176 H194 0.932 . S
C177 C176 1.331 . S
C177 C178 1.336 . S
C178 C174 1.394 . S
C178 C177 1.336 . S
C178 H193 0.929 . S
C179 C169 1.386 . S
C179 C172 1.357 . S
C179 H192 0.928 . S
H180 C156 0.931 . S
H181 C158 0.930 . S
H182 C160 0.929 . S
H183 C161 0.931 . S
H184 C163 0.930 . S
H185 C167 0.931 . S
H186 C165 0.931 . S
H187 C169 0.931 . S
H188 C170 0.929 . S
H189 C171 0.930 . S
H190 C174 0.930 . S
H191 C175 0.931 . S
H192 C179 0.928 . S
H193 C178 0.929 . S
H194 C176 0.932 . S
C195 C196 1.386 . S
C195 C197 1.397 . S
C195 H219 0.931 . S
C196 C195 1.386 . S
C196 C200 1.397 . S
C197 C195 1.397 . S
C197 C198 1.384 . S
C197 H220 0.930 . S
C198 C197 1.384 . S
C198 C199 1.377 . S
C198 C201 1.481 . S
C199 C198 1.377 . S
C199 C200 1.389 . S
C199 H221 0.929 . S
C200 C196 1.397 . S
C200 C199 1.389 . S
C200 H222 0.931 . S
C201 C198 1.481 . S
C201 C202 1.387 . S
C201 C206 1.390 . S
C202 C201 1.387 . S
C202 C203 1.401 . S
C202 H223 0.930 . S
C203 C202 1.401 . S
C203 C204 1.376 . S
C203 C212 1.511 . S
C204 C203 1.376 . S
C204 C205 1.392 . S
C204 H225 0.931 . S
C205 C204 1.392 . S
C205 C206 1.361 . S
C205 C207 1.500 . S
C206 C201 1.390 . S
C206 C205 1.361 . S
C206 H224 0.931 . S
C207 C205 1.500 . S
C207 C208 1.371 . S
C207 C209 1.365 . S
C208 C207 1.371 . S
C208 C218 1.386 . S
C208 H226 0.931 . S
C209 C207 1.365 . S
C209 C210 1.409 . S
C209 H227 0.929 . S
C210 C209 1.409 . S
C210 C211 1.380 . S
C210 H228 0.930 . S
C211 C210 1.380 . S
C211 C218 1.357 . S
C212 C203 1.511 . S
C212 C213 1.341 . S
C212 C214 1.371 . S
C213 C212 1.341 . S
C213 C217 1.394 . S
C213 H229 0.930 . S
C214 C212 1.371 . S
C214 C215 1.392 . S
C214 H230 0.931 . S
C215 C214 1.392 . S
C215 C216 1.331 . S
C215 H233 0.932 . S
C216 C215 1.331 . S
C216 C217 1.336 . S
C217 C213 1.394 . S
C217 C216 1.336 . S
C217 H232 0.929 . S
C218 C208 1.386 . S
C218 C211 1.357 . S
C218 H231 0.928 . S
H219 C195 0.931 . S
H220 C197 0.930 . S
H221 C199 0.929 . S
H222 C200 0.931 . S
H223 C202 0.930 . S
H224 C206 0.931 . S
H225 C204 0.931 . S
H226 C208 0.931 . S
H227 C209 0.929 . S
H228 C210 0.930 . S
H229 C213 0.930 . S
H230 C214 0.931 . S
H231 C218 0.928 . S
H232 C217 0.929 . S
H233 C215 0.932 . S
C234 C235 1.386 . S
C234 C236 1.397 . S
C234 H258 0.931 . S
C235 C234 1.386 . S
C235 C239 1.397 . S
C236 C234 1.397 . S
C236 C237 1.384 . S
C236 H259 0.930 . S
C237 C236 1.384 . S
C237 C238 1.377 . S
C237 C240 1.481 . S
C238 C237 1.377 . S
C238 C239 1.389 . S
C238 H260 0.929 . S
C239 C235 1.397 . S
C239 C238 1.389 . S
C239 H261 0.931 . S
C240 C237 1.481 . S
C240 C241 1.387 . S
C240 C245 1.390 . S
C241 C240 1.387 . S
C241 C242 1.401 . S
C241 H262 0.930 . S
C242 C241 1.401 . S
C242 C243 1.376 . S
C242 C251 1.511 . S
C243 C242 1.376 . S
C243 C244 1.392 . S
C243 H264 0.931 . S
C244 C243 1.392 . S
C244 C245 1.361 . S
C244 C246 1.500 . S
C245 C240 1.390 . S
C245 C244 1.361 . S
C245 H263 0.931 . S
C246 C244 1.500 . S
C246 C247 1.371 . S
C246 C248 1.365 . S
C247 C246 1.371 . S
C247 C257 1.386 . S
C247 H265 0.931 . S
C248 C246 1.365 . S
C248 C249 1.409 . S
C248 H266 0.929 . S
C249 C248 1.409 . S
C249 C250 1.380 . S
C249 H267 0.930 . S
C250 C249 1.380 . S
C250 C257 1.357 . S
C251 C242 1.511 . S
C251 C252 1.341 . S
C251 C253 1.371 . S
C252 C251 1.341 . S
C252 C256 1.394 . S
C252 H268 0.930 . S
C253 C251 1.371 . S
C253 C254 1.392 . S
C253 H269 0.931 . S
C254 C253 1.392 . S
C254 C255 1.331 . S
C254 H272 0.932 . S
C255 C254 1.331 . S
C255 C256 1.336 . S
C256 C252 1.394 . S
C256 C255 1.336 . S
C256 H271 0.929 . S
C257 C247 1.386 . S
C257 C250 1.357 . S
C257 H270 0.928 . S
H258 C234 0.931 . S
H259 C236 0.930 . S
H260 C238 0.929 . S
H261 C239 0.931 . S
H262 C241 0.930 . S
H263 C245 0.931 . S
H264 C243 0.931 . S
H265 C247 0.931 . S
H266 C248 0.929 . S
H267 C249 0.930 . S
H268 C252 0.930 . S
H269 C253 0.931 . S
H270 C257 0.928 . S
H271 C256 0.929 . S
H272 C254 0.932 . S
C273 C274 1.386 . S
C273 C275 1.397 . S
C273 H297 0.931 . S
C274 C273 1.386 . S
C274 C278 1.397 . S
C275 C273 1.397 . S
C275 C276 1.384 . S
C275 H298 0.930 . S
C276 C275 1.384 . S
C276 C277 1.377 . S
C276 C279 1.481 . S
C277 C276 1.377 . S
C277 C278 1.389 . S
C277 H299 0.929 . S
C278 C274 1.397 . S
C278 C277 1.389 . S
C278 H300 0.931 . S
C279 C276 1.481 . S
C279 C280 1.387 . S
C279 C284 1.390 . S
C280 C279 1.387 . S
C280 C281 1.401 . S
C280 H301 0.930 . S
C281 C280 1.401 . S
C281 C282 1.376 . S
C281 C290 1.511 . S
C282 C281 1.376 . S
C282 C283 1.392 . S
C282 H303 0.931 . S
C283 C282 1.392 . S
C283 C284 1.361 . S
C283 C285 1.500 . S
C284 C279 1.390 . S
C284 C283 1.361 . S
C284 H302 0.931 . S
C285 C283 1.500 . S
C285 C286 1.371 . S
C285 C287 1.365 . S
C286 C285 1.371 . S
C286 C296 1.386 . S
C286 H304 0.931 . S
C287 C285 1.365 . S
C287 C288 1.409 . S
C287 H305 0.929 . S
C288 C287 1.409 . S
C288 C289 1.380 . S
C288 H306 0.930 . S
C289 C288 1.380 . S
C289 C296 1.357 . S
C290 C281 1.511 . S
C290 C291 1.341 . S
C290 C292 1.371 . S
C291 C290 1.341 . S
C291 C295 1.394 . S
C291 H307 0.930 . S
C292 C290 1.371 . S
C292 C293 1.392 . S
C292 H308 0.931 . S
C293 C292 1.392 . S
C293 C294 1.331 . S
C293 H311 0.932 . S
C294 C293 1.331 . S
C294 C295 1.336 . S
C295 C291 1.394 . S
C295 C294 1.336 . S
C295 H310 0.929 . S
C296 C286 1.386 . S
C296 C289 1.357 . S
C296 H309 0.928 . S
H297 C273 0.931 . S
H298 C275 0.930 . S
H299 C277 0.929 . S
H300 C278 0.931 . S
H301 C280 0.930 . S
H302 C284 0.931 . S
H303 C282 0.931 . S
H304 C286 0.931 . S
H305 C287 0.929 . S
H306 C288 0.930 . S
H307 C291 0.930 . S
H308 C292 0.931 . S
H309 C296 0.928 . S
H310 C295 0.929 . S
H311 C293 0.932 . S
Sm312 C314 2.846 . S
Sm312 O332 2.543 . S
Sm312 O333 2.450 . S
Sm312 O334 2.681 1_545 S
Sm312 O335 2.464 1_545 S
Sm312 O336 2.396 . S
Sm312 O340 2.386 1_455 S
Sm312 O343 2.408 1_445 S
Sm313 C323 2.846 . S
Sm313 O334 2.386 1_655 S
Sm313 O337 2.408 1_665 S
Sm313 O338 2.543 . S
Sm313 O339 2.450 . S
Sm313 O340 2.681 1_565 S
Sm313 O341 2.464 1_565 S
Sm313 O342 2.396 . S
C314 Sm312 2.846 . S
C314 C315 1.506 . S
C314 O332 1.261 . S
C314 O333 1.242 . S
C315 C314 1.506 . S
C315 C316 1.358 . S
C315 C320 1.382 . S
C316 C315 1.358 . S
C316 C317 1.385 . S
C316 H344 0.930 . S
C317 C316 1.385 . S
C317 C318 1.395 . S
C317 H345 0.929 . S
C318 C317 1.395 . S
C318 C319 1.335 . S
C319 C318 1.335 . S
C319 C320 1.398 . S
C319 H346 0.930 . S
C320 C315 1.382 . S
C320 C319 1.398 . S
C320 H347 0.929 . S
C321 O334 1.271 . S
C321 O335 1.251 . S
C322 O336 1.252 . S
C322 O337 1.272 . S
C323 Sm313 2.846 . S
C323 C324 1.506 . S
C323 O338 1.261 . S
C323 O339 1.242 . S
C324 C323 1.506 . S
C324 C325 1.358 . S
C324 C329 1.382 . S
C325 C324 1.358 . S
C325 C326 1.385 . S
C325 H348 0.930 . S
C326 C325 1.385 . S
C326 C327 1.395 . S
C326 H349 0.929 . S
C327 C326 1.395 . S
C327 C328 1.335 . S
C328 C327 1.335 . S
C328 C329 1.398 . S
C328 H350 0.930 . S
C329 C324 1.382 . S
C329 C328 1.398 . S
C329 H351 0.929 . S
C330 O340 1.271 . S
C330 O341 1.251 . S
C331 O342 1.252 . S
C331 O343 1.272 . S
O332 Sm312 2.543 . S
O332 C314 1.261 . S
O333 Sm312 2.450 . S
O333 C314 1.242 . S
O334 Sm312 2.681 1_565 S
O334 Sm313 2.386 1_455 S
O334 C321 1.271 . S
O335 Sm312 2.464 1_565 S
O335 C321 1.251 . S
O336 Sm312 2.396 . S
O336 C322 1.252 . S
O337 Sm313 2.408 1_445 S
O337 C322 1.272 . S
O338 Sm313 2.543 . S
O338 C323 1.261 . S
O339 Sm313 2.450 . S
O339 C323 1.242 . S
O340 Sm312 2.386 1_655 S
O340 Sm313 2.681 1_545 S
O340 C330 1.271 . S
O341 Sm313 2.464 1_545 S
O341 C330 1.251 . S
O342 Sm313 2.396 . S
O342 C331 1.252 . S
O343 Sm312 2.408 1_665 S
O343 C331 1.272 . S
H344 C316 0.930 . S
H345 C317 0.929 . S
H346 C319 0.930 . S
H347 C320 0.929 . S
H348 C325 0.930 . S
H349 C326 0.929 . S
H350 C328 0.930 . S
H351 C329 0.929 . S
Sm352 C354 2.830 1_565 S
Sm352 O372 2.515 1_565 S
Sm352 O373 2.448 1_565 S
Sm352 O374 2.694 . S
Sm352 O375 2.488 . S
Sm352 O376 2.378 1_565 S
Sm352 O380 2.363 1_564 S
Sm352 O383 2.427 1_554 S
Sm353 C363 2.846 1_545 S
Sm353 O374 2.386 1_546 S
Sm353 O377 2.408 1_556 S
Sm353 O378 2.543 1_545 S
Sm353 O379 2.450 1_545 S
Sm353 O380 2.681 . S
Sm353 O381 2.464 . S
Sm353 O382 2.396 1_545 S
C354 Sm352 2.830 1_545 S
C354 C355 1.506 . S
C354 O372 1.261 . S
C354 O373 1.242 . S
C355 C354 1.506 . S
C355 C356 1.358 . S
C355 C360 1.382 . S
C356 C355 1.358 . S
C356 C357 1.385 . S
C356 H384 0.930 . S
C357 C356 1.385 . S
C357 C358 1.395 . S
C357 H385 0.929 . S
C358 C357 1.395 . S
C358 C359 1.335 . S
C359 C358 1.335 . S
C359 C360 1.398 . S
C359 H386 0.930 . S
C360 C355 1.382 . S
C360 C359 1.398 . S
C360 H387 0.929 . S
C361 O374 1.271 . S
C361 O375 1.251 . S
C362 O376 1.252 . S
C362 O377 1.272 . S
C363 Sm353 2.846 1_565 S
C363 C364 1.506 . S
C363 O378 1.261 . S
C363 O379 1.242 . S
C364 C363 1.506 . S
C364 C365 1.358 . S
C364 C369 1.382 . S
C365 C364 1.358 . S
C365 C366 1.385 . S
C365 H388 0.930 . S
C366 C365 1.385 . S
C366 C367 1.395 . S
C366 H389 0.929 . S
C367 C366 1.395 . S
C367 C368 1.335 . S
C368 C367 1.335 . S
C368 C369 1.398 . S
C368 H390 0.930 . S
C369 C364 1.382 . S
C369 C368 1.398 . S
C369 H391 0.929 . S
C370 O380 1.271 . S
C370 O381 1.251 . S
C371 O382 1.252 . S
C371 O383 1.272 . S
O372 Sm352 2.515 1_545 S
O372 C354 1.261 . S
O373 Sm352 2.448 1_545 S
O373 C354 1.242 . S
O374 Sm352 2.694 . S
O374 Sm353 2.386 1_564 S
O374 C361 1.271 . S
O375 Sm352 2.488 . S
O375 C361 1.251 . S
O376 Sm352 2.378 1_545 S
O376 C362 1.252 . S
O377 Sm353 2.408 1_554 S
O377 C362 1.272 . S
O378 Sm353 2.543 1_565 S
O378 C363 1.261 . S
O379 Sm353 2.450 1_565 S
O379 C363 1.242 . S
O380 Sm352 2.363 1_546 S
O380 Sm353 2.681 . S
O380 C370 1.271 . S
O381 Sm353 2.464 . S
O381 C370 1.251 . S
O382 Sm353 2.396 1_565 S
O382 C371 1.252 . S
O383 Sm352 2.427 1_556 S
O383 C371 1.272 . S
H384 C356 0.930 . S
H385 C357 0.929 . S
H386 C359 0.930 . S
H387 C360 0.929 . S
H388 C365 0.930 . S
H389 C366 0.929 . S
H390 C368 0.930 . S
H391 C369 0.929 . S
Sm392 C394 2.846 . S
Sm392 O412 2.543 . S
Sm392 O413 2.450 . S
Sm392 O414 2.681 . S
Sm392 O415 2.464 . S
Sm392 O416 2.396 . S
Sm392 O420 2.386 . S
Sm392 O423 2.408 . S
Sm393 C403 2.846 . S
Sm393 O414 2.386 . S
Sm393 O417 2.408 . S
Sm393 O418 2.543 . S
Sm393 O419 2.450 . S
Sm393 O420 2.681 . S
Sm393 O421 2.464 . S
Sm393 O422 2.396 . S
C394 Sm392 2.846 . S
C394 C395 1.506 . S
C394 O412 1.261 . S
C394 O413 1.242 . S
C395 C394 1.506 . S
C395 C396 1.358 . S
C395 C400 1.382 . S
C396 C395 1.358 . S
C396 C397 1.385 . S
C396 H424 0.930 . S
C397 C396 1.385 . S
C397 C398 1.395 . S
C397 H425 0.929 . S
C398 C397 1.395 . S
C398 C399 1.335 . S
C399 C398 1.335 . S
C399 C400 1.398 . S
C399 H426 0.930 . S
C400 C395 1.382 . S
C400 C399 1.398 . S
C400 H427 0.929 . S
C401 O414 1.271 . S
C401 O415 1.251 . S
C402 O416 1.252 . S
C402 O417 1.272 . S
C403 Sm393 2.846 . S
C403 C404 1.506 . S
C403 O418 1.261 . S
C403 O419 1.242 . S
C404 C403 1.506 . S
C404 C405 1.358 . S
C404 C409 1.382 . S
C405 C404 1.358 . S
C405 C406 1.385 . S
C405 H428 0.930 . S
C406 C405 1.385 . S
C406 C407 1.395 . S
C406 H429 0.929 . S
C407 C406 1.395 . S
C407 C408 1.335 . S
C408 C407 1.335 . S
C408 C409 1.398 . S
C408 H430 0.930 . S
C409 C404 1.382 . S
C409 C408 1.398 . S
C409 H431 0.929 . S
C410 O420 1.271 . S
C410 O421 1.251 . S
C411 O422 1.252 . S
C411 O423 1.272 . S
O412 Sm392 2.543 . S
O412 C394 1.261 . S
O413 Sm392 2.450 . S
O413 C394 1.242 . S
O414 Sm392 2.681 . S
O414 Sm393 2.386 . S
O414 C401 1.271 . S
O415 Sm392 2.464 . S
O415 C401 1.251 . S
O416 Sm392 2.396 . S
O416 C402 1.252 . S
O417 Sm393 2.408 . S
O417 C402 1.272 . S
O418 Sm393 2.543 . S
O418 C403 1.261 . S
O419 Sm393 2.450 . S
O419 C403 1.242 . S
O420 Sm392 2.386 . S
O420 Sm393 2.681 . S
O420 C410 1.271 . S
O421 Sm393 2.464 . S
O421 C410 1.251 . S
O422 Sm393 2.396 . S
O422 C411 1.252 . S
O423 Sm392 2.408 . S
O423 C411 1.272 . S
H424 C396 0.930 . S
H425 C397 0.929 . S
H426 C399 0.930 . S
H427 C400 0.929 . S
H428 C405 0.930 . S
H429 C406 0.929 . S
H430 C408 0.930 . S
H431 C409 0.929 . S
Sm432 C434 2.846 . S
Sm432 O452 2.543 . S
Sm432 O453 2.450 . S
Sm432 O454 2.681 1_455 S
Sm432 O455 2.464 1_455 S
Sm432 O456 2.396 . S
Sm432 O460 2.386 1_554 S
Sm432 O463 2.408 1_454 S
Sm433 C443 2.846 . S
Sm433 O454 2.386 1_556 S
Sm433 O457 2.408 1_656 S
Sm433 O458 2.543 . S
Sm433 O459 2.450 . S
Sm433 O460 2.681 1_655 S
Sm433 O461 2.464 1_655 S
Sm433 O462 2.396 . S
C434 Sm432 2.846 . S
C434 C435 1.506 . S
C434 O452 1.261 . S
C434 O453 1.242 . S
C435 C434 1.506 . S
C435 C436 1.358 . S
C435 C440 1.382 . S
C436 C435 1.358 . S
C436 C437 1.385 . S
C436 H464 0.930 . S
C437 C436 1.385 . S
C437 C438 1.395 . S
C437 H465 0.929 . S
C438 C437 1.395 . S
C438 C439 1.335 . S
C439 C438 1.335 . S
C439 C440 1.398 . S
C439 H466 0.930 . S
C440 C435 1.382 . S
C440 C439 1.398 . S
C440 H467 0.929 . S
C441 O454 1.271 . S
C441 O455 1.251 . S
C442 O456 1.252 . S
C442 O457 1.272 . S
C443 Sm433 2.846 . S
C443 C444 1.506 . S
C443 O458 1.261 . S
C443 O459 1.242 . S
C444 C443 1.506 . S
C444 C445 1.358 . S
C444 C449 1.382 . S
C445 C444 1.358 . S
C445 C446 1.385 . S
C445 H468 0.930 . S
C446 C445 1.385 . S
C446 C447 1.395 . S
C446 H469 0.929 . S
C447 C446 1.395 . S
C447 C448 1.335 . S
C448 C447 1.335 . S
C448 C449 1.398 . S
C448 H470 0.930 . S
C449 C444 1.382 . S
C449 C448 1.398 . S
C449 H471 0.929 . S
C450 O460 1.271 . S
C450 O461 1.251 . S
C451 O462 1.252 . S
C451 O463 1.272 . S
O452 Sm432 2.543 . S
O452 C434 1.261 . S
O453 Sm432 2.450 . S
O453 C434 1.242 . S
O454 Sm432 2.681 1_655 S
O454 Sm433 2.386 1_554 S
O454 C441 1.271 . S
O455 Sm432 2.464 1_655 S
O455 C441 1.251 . S
O456 Sm432 2.396 . S
O456 C442 1.252 . S
O457 Sm433 2.408 1_454 S
O457 C442 1.272 . S
O458 Sm433 2.543 . S
O458 C443 1.261 . S
O459 Sm433 2.450 . S
O459 C443 1.242 . S
O460 Sm432 2.386 1_556 S
O460 Sm433 2.681 1_455 S
O460 C450 1.271 . S
O461 Sm433 2.464 1_455 S
O461 C450 1.251 . S
O462 Sm433 2.396 . S
O462 C451 1.252 . S
O463 Sm432 2.408 1_656 S
O463 C451 1.272 . S
H464 C436 0.930 . S
H465 C437 0.929 . S
H466 C439 0.930 . S
H467 C440 0.929 . S
H468 C445 0.930 . S
H469 C446 0.929 . S
H470 C448 0.930 . S
H471 C449 0.929 . S
H472 C478 0.930 . S
H473 C481 0.930 . S
H474 C482 0.930 . S
H475 C483 0.930 . S
H476 C486 0.930 . S
H477 C487 0.930 . S
C478 H472 0.930 . S
C478 C479 1.355 . S
C478 C480 1.415 . S
C479 C478 1.355 . S
C479 C481 1.419 . S
C480 C478 1.415 . S
C480 C485 1.425 . S
C480 C487 1.409 . S
C481 H473 0.930 . S
C481 C479 1.419 . S
C481 C482 1.362 . S
C482 H474 0.930 . S
C482 C481 1.362 . S
C482 C485 1.409 . S
C483 H475 0.930 . S
C483 C484 1.355 . S
C483 C485 1.415 . S
C484 C483 1.355 . S
C484 C486 1.419 . S
C485 C480 1.425 . S
C485 C482 1.409 . S
C485 C483 1.415 . S
C486 H476 0.930 . S
C486 C484 1.419 . S
C486 C487 1.362 . S
C487 H477 0.930 . S
C487 C480 1.409 . S
C487 C486 1.362 . S
H488 C494 0.930 . S
H489 C497 0.930 . S
H490 C498 0.930 . S
H491 C499 0.930 . S
H492 C502 0.930 . S
H493 C503 0.930 . S
C494 H488 0.930 . S
C494 C495 1.355 . S
C494 C496 1.415 . S
C495 C494 1.355 . S
C495 C497 1.419 . S
C496 C494 1.415 . S
C496 C501 1.425 . S
C496 C503 1.409 . S
C497 H489 0.930 . S
C497 C495 1.419 . S
C497 C498 1.362 . S
C498 H490 0.930 . S
C498 C497 1.362 . S
C498 C501 1.409 . S
C499 H491 0.930 . S
C499 C500 1.355 . S
C499 C501 1.415 . S
C500 C499 1.355 . S
C500 C502 1.419 . S
C501 C496 1.425 . S
C501 C498 1.409 . S
C501 C499 1.415 . S
C502 H492 0.930 . S
C502 C500 1.419 . S
C502 C503 1.362 . S
C503 H493 0.930 . S
C503 C496 1.409 . S
C503 C502 1.362 . S
H504 C510 0.930 . S
H505 C513 0.930 . S
H506 C514 0.930 . S
H507 C515 0.930 . S
H508 C518 0.930 . S
H509 C519 0.930 . S
C510 H504 0.930 . S
C510 C511 1.355 . S
C510 C512 1.415 . S
C511 C510 1.355 . S
C511 C513 1.419 . S
C512 C510 1.415 . S
C512 C517 1.425 . S
C512 C519 1.409 . S
C513 H505 0.930 . S
C513 C511 1.419 . S
C513 C514 1.362 . S
C514 H506 0.930 . S
C514 C513 1.362 . S
C514 C517 1.409 . S
C515 H507 0.930 . S
C515 C516 1.355 . S
C515 C517 1.415 . S
C516 C515 1.355 . S
C516 C518 1.419 . S
C517 C512 1.425 . S
C517 C514 1.409 . S
C517 C515 1.415 . S
C518 H508 0.930 . S
C518 C516 1.419 . S
C518 C519 1.362 . S
C519 H509 0.930 . S
C519 C512 1.409 . S
C519 C518 1.362 . S
H520 C526 0.930 . S
H521 C529 0.930 . S
H522 C530 0.930 . S
H523 C531 0.930 . S
H524 C534 0.930 . S
H525 C535 0.930 . S
C526 H520 0.930 . S
C526 C527 1.355 . S
C526 C528 1.415 . S
C527 C526 1.355 . S
C527 C529 1.419 . S
C528 C526 1.415 . S
C528 C533 1.425 . S
C528 C535 1.409 . S
C529 H521 0.930 . S
C529 C527 1.419 . S
C529 C530 1.362 . S
C530 H522 0.930 . S
C530 C529 1.362 . S
C530 C533 1.409 . S
C531 H523 0.930 . S
C531 C532 1.355 . S
C531 C533 1.415 . S
C532 C531 1.355 . S
C532 C534 1.419 . S
C533 C528 1.425 . S
C533 C530 1.409 . S
C533 C531 1.415 . S
C534 H524 0.930 . S
C534 C532 1.419 . S
C534 C535 1.362 . S
C535 H525 0.930 . S
C535 C528 1.409 . S
C535 C534 1.362 . S
H536 C542 0.930 . S
H537 C545 0.930 . S
H538 C546 0.930 . S
H539 C547 0.930 . S
H540 C550 0.930 . S
H541 C551 0.930 . S
C542 H536 0.930 . S
C542 C543 1.355 . S
C542 C544 1.415 . S
C543 C542 1.355 . S
C543 C545 1.419 . S
C544 C542 1.415 . S
C544 C549 1.425 . S
C544 C551 1.409 . S
C545 H537 0.930 . S
C545 C543 1.419 . S
C545 C546 1.362 . S
C546 H538 0.930 . S
C546 C545 1.362 . S
C546 C549 1.409 . S
C547 H539 0.930 . S
C547 C548 1.355 . S
C547 C549 1.415 . S
C548 C547 1.355 . S
C548 C550 1.419 . S
C549 C544 1.425 . S
C549 C546 1.409 . S
C549 C547 1.415 . S
C550 H540 0.930 . S
C550 C548 1.419 . S
C550 C551 1.362 . S
C551 H541 0.930 . S
C551 C544 1.409 . S
C551 C550 1.362 . S
H552 C558 0.930 . S
H553 C561 0.930 . S
H554 C562 0.930 . S
H555 C563 0.930 . S
H556 C566 0.930 . S
H557 C567 0.930 . S
C558 H552 0.930 . S
C558 C559 1.355 . S
C558 C560 1.415 . S
C559 C558 1.355 . S
C559 C561 1.419 . S
C560 C558 1.415 . S
C560 C565 1.425 . S
C560 C567 1.409 . S
C561 H553 0.930 . S
C561 C559 1.419 . S
C561 C562 1.362 . S
C562 H554 0.930 . S
C562 C561 1.362 . S
C562 C565 1.409 . S
C563 H555 0.930 . S
C563 C564 1.355 . S
C563 C565 1.415 . S
C564 C563 1.355 . S
C564 C566 1.419 . S
C565 C560 1.425 . S
C565 C562 1.409 . S
C565 C563 1.415 . S
C566 H556 0.930 . S
C566 C564 1.419 . S
C566 C567 1.362 . S
C567 H557 0.930 . S
C567 C560 1.409 . S
C567 C566 1.362 . S
H568 C574 0.930 . S
H569 C577 0.930 . S
H570 C578 0.930 . S
H571 C579 0.930 . S
H572 C582 0.930 . S
H573 C583 0.930 . S
C574 H568 0.930 . S
C574 C575 1.355 . S
C574 C576 1.415 . S
C575 C574 1.355 . S
C575 C577 1.419 . S
C576 C574 1.415 . S
C576 C581 1.425 . S
C576 C583 1.409 . S
C577 H569 0.930 . S
C577 C575 1.419 . S
C577 C578 1.362 . S
C578 H570 0.930 . S
C578 C577 1.362 . S
C578 C581 1.409 . S
C579 H571 0.930 . S
C579 C580 1.355 . S
C579 C581 1.415 . S
C580 C579 1.355 . S
C580 C582 1.419 . S
C581 C576 1.425 . S
C581 C578 1.409 . S
C581 C579 1.415 . S
C582 H572 0.930 . S
C582 C580 1.419 . S
C582 C583 1.362 . S
C583 H573 0.930 . S
C583 C576 1.409 . S
C583 C582 1.362 . S
H584 C590 0.930 . S
H585 C593 0.930 . S
H586 C594 0.930 . S
H587 C595 0.930 . S
H588 C598 0.930 . S
H589 C599 0.930 . S
C590 H584 0.930 . S
C590 C591 1.355 . S
C590 C592 1.415 . S
C591 C590 1.355 . S
C591 C593 1.419 . S
C592 C590 1.415 . S
C592 C597 1.425 . S
C592 C599 1.409 . S
C593 H585 0.930 . S
C593 C591 1.419 . S
C593 C594 1.362 . S
C594 H586 0.930 . S
C594 C593 1.362 . S
C594 C597 1.409 . S
C595 H587 0.930 . S
C595 C596 1.355 . S
C595 C597 1.415 . S
C596 C595 1.355 . S
C596 C598 1.419 . S
C597 C592 1.425 . S
C597 C594 1.409 . S
C597 C595 1.415 . S
C598 H588 0.930 . S
C598 C596 1.419 . S
C598 C599 1.362 . S
C599 H589 0.930 . S
C599 C592 1.409 . S
C599 C598 1.362 . S
H600 C606 0.930 . S
H601 C609 0.930 . S
H602 C610 0.930 . S
H603 C611 0.930 . S
H604 C614 0.930 . S
H605 C615 0.930 . S
C606 H600 0.930 . S
C606 C607 1.355 . S
C606 C608 1.415 . S
C607 C606 1.355 . S
C607 C609 1.419 . S
C608 C606 1.415 . S
C608 C613 1.425 . S
C608 C615 1.409 . S
C609 H601 0.930 . S
C609 C607 1.419 . S
C609 C610 1.362 . S
C610 H602 0.930 . S
C610 C609 1.362 . S
C610 C613 1.409 . S
C611 H603 0.930 . S
C611 C612 1.355 . S
C611 C613 1.415 . S
C612 C611 1.355 . S
C612 C614 1.419 . S
C613 C608 1.425 . S
C613 C610 1.409 . S
C613 C611 1.415 . S
C614 H604 0.930 . S
C614 C612 1.419 . S
C614 C615 1.362 . S
C615 H605 0.930 . S
C615 C608 1.409 . S
C615 C614 1.362 . S
H616 C622 0.930 . S
H617 C625 0.930 . S
H618 C626 0.930 . S
H619 C627 0.930 . S
H620 C630 0.930 . S
H621 C631 0.930 . S
C622 H616 0.930 . S
C622 C623 1.355 . S
C622 C624 1.415 . S
C623 C622 1.355 . S
C623 C625 1.419 . S
C624 C622 1.415 . S
C624 C629 1.425 . S
C624 C631 1.409 . S
C625 H617 0.930 . S
C625 C623 1.419 . S
C625 C626 1.362 . S
C626 H618 0.930 . S
C626 C625 1.362 . S
C626 C629 1.409 . S
C627 H619 0.930 . S
C627 C628 1.355 . S
C627 C629 1.415 . S
C628 C627 1.355 . S
C628 C630 1.419 . S
C629 C624 1.425 . S
C629 C626 1.409 . S
C629 C627 1.415 . S
C630 H620 0.930 . S
C630 C628 1.419 . S
C630 C631 1.362 . S
C631 H621 0.930 . S
C631 C624 1.409 . S
C631 C630 1.362 . S
H632 C638 0.930 . S
H633 C641 0.930 . S
H634 C642 0.930 . S
H635 C643 0.930 . S
H636 C646 0.930 . S
H637 C647 0.930 . S
C638 H632 0.930 . S
C638 C639 1.355 . S
C638 C640 1.415 . S
C639 C638 1.355 . S
C639 C641 1.419 . S
C640 C638 1.415 . S
C640 C645 1.425 . S
C640 C647 1.409 . S
C641 H633 0.930 . S
C641 C639 1.419 . S
C641 C642 1.362 . S
C642 H634 0.930 . S
C642 C641 1.362 . S
C642 C645 1.409 . S
C643 H635 0.930 . S
C643 C644 1.355 . S
C643 C645 1.415 . S
C644 C643 1.355 . S
C644 C646 1.419 . S
C645 C640 1.425 . S
C645 C642 1.409 . S
C645 C643 1.415 . S
C646 H636 0.930 . S
C646 C644 1.419 . S
C646 C647 1.362 . S
C647 H637 0.930 . S
C647 C640 1.409 . S
C647 C646 1.362 . S
H648 C654 0.930 . S
H649 C657 0.930 . S
H650 C658 0.930 . S
H651 C659 0.930 . S
H652 C662 0.930 . S
H653 C663 0.930 . S
C654 H648 0.930 . S
C654 C655 1.355 . S
C654 C656 1.415 . S
C655 C654 1.355 . S
C655 C657 1.419 . S
C656 C654 1.415 . S
C656 C661 1.425 . S
C656 C663 1.409 . S
C657 H649 0.930 . S
C657 C655 1.419 . S
C657 C658 1.362 . S
C658 H650 0.930 . S
C658 C657 1.362 . S
C658 C661 1.409 . S
C659 H651 0.930 . S
C659 C660 1.355 . S
C659 C661 1.415 . S
C660 C659 1.355 . S
C660 C662 1.419 . S
C661 C656 1.425 . S
C661 C658 1.409 . S
C661 C659 1.415 . S
C662 H652 0.930 . S
C662 C660 1.419 . S
C662 C663 1.362 . S
C663 H653 0.930 . S
C663 C656 1.409 . S
C663 C662 1.362 . S
H664 C670 0.930 . S
H665 C673 0.930 . S
H666 C674 0.930 . S
H667 C675 0.930 . S
H668 C678 0.930 . S
H669 C679 0.930 . S
C670 H664 0.930 . S
C670 C671 1.355 . S
C670 C672 1.415 . S
C671 C670 1.355 . S
C671 C673 1.419 . S
C672 C670 1.415 . S
C672 C677 1.425 . S
C672 C679 1.409 . S
C673 H665 0.930 . S
C673 C671 1.419 . S
C673 C674 1.362 . S
C674 H666 0.930 . S
C674 C673 1.362 . S
C674 C677 1.409 . S
C675 H667 0.930 . S
C675 C676 1.355 . S
C675 C677 1.415 . S
C676 C675 1.355 . S
C676 C678 1.419 . S
C677 C672 1.425 . S
C677 C674 1.409 . S
C677 C675 1.415 . S
C678 H668 0.930 . S
C678 C676 1.419 . S
C678 C679 1.362 . S
C679 H669 0.930 . S
C679 C672 1.409 . S
C679 C678 1.362 . S
H680 C686 0.930 . S
H681 C689 0.930 . S
H682 C690 0.930 . S
H683 C691 0.930 . S
H684 C694 0.930 . S
H685 C695 0.930 . S
C686 H680 0.930 . S
C686 C687 1.355 . S
C686 C688 1.415 . S
C687 C686 1.355 . S
C687 C689 1.419 . S
C688 C686 1.415 . S
C688 C693 1.425 . S
C688 C695 1.409 . S
C689 H681 0.930 . S
C689 C687 1.419 . S
C689 C690 1.362 . S
C690 H682 0.930 . S
C690 C689 1.362 . S
C690 C693 1.409 . S
C691 H683 0.930 . S
C691 C692 1.355 . S
C691 C693 1.415 . S
C692 C691 1.355 . S
C692 C694 1.419 . S
C693 C688 1.425 . S
C693 C690 1.409 . S
C693 C691 1.415 . S
C694 H684 0.930 . S
C694 C692 1.419 . S
C694 C695 1.362 . S
C695 H685 0.930 . S
C695 C688 1.409 . S
C695 C694 1.362 . S
H696 C702 0.930 . S
H697 C705 0.930 . S
H698 C706 0.930 . S
H699 C707 0.930 . S
H700 C710 0.930 . S
H701 C711 0.930 . S
C702 H696 0.930 . S
C702 C703 1.355 . S
C702 C704 1.415 . S
C703 C702 1.355 . S
C703 C705 1.419 . S
C704 C702 1.415 . S
C704 C709 1.425 . S
C704 C711 1.409 . S
C705 H697 0.930 . S
C705 C703 1.419 . S
C705 C706 1.362 . S
C706 H698 0.930 . S
C706 C705 1.362 . S
C706 C709 1.409 . S
C707 H699 0.930 . S
C707 C708 1.355 . S
C707 C709 1.415 . S
C708 C707 1.355 . S
C708 C710 1.419 . S
C709 C704 1.425 . S
C709 C706 1.409 . S
C709 C707 1.415 . S
C710 H700 0.930 . S
C710 C708 1.419 . S
C710 C711 1.362 . S
C711 H701 0.930 . S
C711 C704 1.409 . S
C711 C710 1.362 . S
H712 C718 0.930 . S
H713 C721 0.930 . S
H714 C722 0.930 . S
H715 C723 0.930 . S
H716 C726 0.930 . S
H717 C727 0.930 . S
C718 H712 0.930 . S
C718 C719 1.355 . S
C718 C720 1.415 . S
C719 C718 1.355 . S
C719 C721 1.419 . S
C720 C718 1.415 . S
C720 C725 1.425 . S
C720 C727 1.409 . S
C721 H713 0.930 . S
C721 C719 1.419 . S
C721 C722 1.362 . S
C722 H714 0.930 . S
C722 C721 1.362 . S
C722 C725 1.409 . S
C723 H715 0.930 . S
C723 C724 1.355 . S
C723 C725 1.415 . S
C724 C723 1.355 . S
C724 C726 1.419 . S
C725 C720 1.425 . S
C725 C722 1.409 . S
C725 C723 1.415 . S
C726 H716 0.930 . S
C726 C724 1.419 . S
C726 C727 1.362 . S
C727 H717 0.930 . S
C727 C720 1.409 . S
C727 C726 1.362 . S
H728 C734 0.930 . S
H729 C737 0.930 . S
H730 C738 0.930 . S
H731 C739 0.930 . S
H732 C742 0.930 . S
H733 C743 0.930 . S
C734 H728 0.930 . S
C734 C735 1.355 . S
C734 C736 1.415 . S
C735 C734 1.355 . S
C735 C737 1.419 . S
C736 C734 1.415 . S
C736 C741 1.425 . S
C736 C743 1.409 . S
C737 H729 0.930 . S
C737 C735 1.419 . S
C737 C738 1.362 . S
C738 H730 0.930 . S
C738 C737 1.362 . S
C738 C741 1.409 . S
C739 H731 0.930 . S
C739 C740 1.355 . S
C739 C741 1.415 . S
C740 C739 1.355 . S
C740 C742 1.419 . S
C741 C736 1.425 . S
C741 C738 1.409 . S
C741 C739 1.415 . S
C742 H732 0.930 . S
C742 C740 1.419 . S
C742 C743 1.362 . S
C743 H733 0.930 . S
C743 C736 1.409 . S
C743 C742 1.362 . S
H744 C750 0.930 . S
H745 C753 0.930 . S
H746 C754 0.930 . S
H747 C755 0.930 . S
H748 C758 0.930 . S
H749 C759 0.930 . S
C750 H744 0.930 . S
C750 C751 1.355 . S
C750 C752 1.415 . S
C751 C750 1.355 . S
C751 C753 1.419 . S
C752 C750 1.415 . S
C752 C757 1.425 . S
C752 C759 1.409 . S
C753 H745 0.930 . S
C753 C751 1.419 . S
C753 C754 1.362 . S
C754 H746 0.930 . S
C754 C753 1.362 . S
C754 C757 1.409 . S
C755 H747 0.930 . S
C755 C756 1.355 . S
C755 C757 1.415 . S
C756 C755 1.355 . S
C756 C758 1.419 . S
C757 C752 1.425 . S
C757 C754 1.409 . S
C757 C755 1.415 . S
C758 H748 0.930 . S
C758 C756 1.419 . S
C758 C759 1.362 . S
C759 H749 0.930 . S
C759 C752 1.409 . S
C759 C758 1.362 . S
H760 C766 0.930 . S
H761 C769 0.930 . S
H762 C770 0.930 . S
H763 C771 0.930 . S
H764 C774 0.930 . S
H765 C775 0.930 . S
C766 H760 0.930 . S
C766 C767 1.355 . S
C766 C768 1.415 . S
C767 C766 1.355 . S
C767 C769 1.419 . S
C768 C766 1.415 . S
C768 C773 1.425 . S
C768 C775 1.409 . S
C769 H761 0.930 . S
C769 C767 1.419 . S
C769 C770 1.362 . S
C770 H762 0.930 . S
C770 C769 1.362 . S
C770 C773 1.409 . S
C771 H763 0.930 . S
C771 C772 1.355 . S
C771 C773 1.415 . S
C772 C771 1.355 . S
C772 C774 1.419 . S
C773 C768 1.425 . S
C773 C770 1.409 . S
C773 C771 1.415 . S
C774 H764 0.930 . S
C774 C772 1.419 . S
C774 C775 1.362 . S
C775 H765 0.930 . S
C775 C768 1.409 . S
C775 C774 1.362 . S
H776 C782 0.930 . S
H777 C785 0.930 . S
H778 C786 0.930 . S
H779 C787 0.930 . S
H780 C790 0.930 . S
H781 C791 0.930 . S
C782 H776 0.930 . S
C782 C783 1.355 . S
C782 C784 1.415 . S
C783 C782 1.355 . S
C783 C785 1.419 . S
C784 C782 1.415 . S
C784 C789 1.425 . S
C784 C791 1.409 . S
C785 H777 0.930 . S
C785 C783 1.419 . S
C785 C786 1.362 . S
C786 H778 0.930 . S
C786 C785 1.362 . S
C786 C789 1.409 . S
C787 H779 0.930 . S
C787 C788 1.355 . S
C787 C789 1.415 . S
C788 C787 1.355 . S
C788 C790 1.419 . S
C789 C784 1.425 . S
C789 C786 1.409 . S
C789 C787 1.415 . S
C790 H780 0.930 . S
C790 C788 1.419 . S
C790 C791 1.362 . S
C791 H781 0.930 . S
C791 C784 1.409 . S
C791 C790 1.362 . S
H792 C798 0.930 . S
H793 C801 0.930 . S
H794 C802 0.930 . S
H795 C803 0.930 . S
H796 C806 0.930 . S
H797 C807 0.930 . S
C798 H792 0.930 . S
C798 C799 1.355 . S
C798 C800 1.415 . S
C799 C798 1.355 . S
C799 C801 1.419 . S
C800 C798 1.415 . S
C800 C805 1.425 . S
C800 C807 1.409 . S
C801 H793 0.930 . S
C801 C799 1.419 . S
C801 C802 1.362 . S
C802 H794 0.930 . S
C802 C801 1.362 . S
C802 C805 1.409 . S
C803 H795 0.930 . S
C803 C804 1.355 . S
C803 C805 1.415 . S
C804 C803 1.355 . S
C804 C806 1.419 . S
C805 C800 1.425 . S
C805 C802 1.409 . S
C805 C803 1.415 . S
C806 H796 0.930 . S
C806 C804 1.419 . S
C806 C807 1.362 . S
C807 H797 0.930 . S
C807 C800 1.409 . S
C807 C806 1.362 . S
H808 C814 0.930 . S
H809 C817 0.930 . S
H810 C818 0.930 . S
H811 C819 0.930 . S
H812 C822 0.930 . S
H813 C823 0.930 . S
C814 H808 0.930 . S
C814 C815 1.355 . S
C814 C816 1.415 . S
C815 C814 1.355 . S
C815 C817 1.419 . S
C816 C814 1.415 . S
C816 C821 1.425 . S
C816 C823 1.409 . S
C817 H809 0.930 . S
C817 C815 1.419 . S
C817 C818 1.362 . S
C818 H810 0.930 . S
C818 C817 1.362 . S
C818 C821 1.409 . S
C819 H811 0.930 . S
C819 C820 1.355 . S
C819 C821 1.415 . S
C820 C819 1.355 . S
C820 C822 1.419 . S
C821 C816 1.425 . S
C821 C818 1.409 . S
C821 C819 1.415 . S
C822 H812 0.930 . S
C822 C820 1.419 . S
C822 C823 1.362 . S
C823 H813 0.930 . S
C823 C816 1.409 . S
C823 C822 1.362 . S
H824 C830 0.930 . S
H825 C833 0.930 . S
H826 C834 0.930 . S
H827 C835 0.930 . S
H828 C838 0.930 . S
H829 C839 0.930 . S
C830 H824 0.930 . S
C830 C831 1.355 . S
C830 C832 1.415 . S
C831 C830 1.355 . S
C831 C833 1.419 . S
C832 C830 1.415 . S
C832 C837 1.425 . S
C832 C839 1.409 . S
C833 H825 0.930 . S
C833 C831 1.419 . S
C833 C834 1.362 . S
C834 H826 0.930 . S
C834 C833 1.362 . S
C834 C837 1.409 . S
C835 H827 0.930 . S
C835 C836 1.355 . S
C835 C837 1.415 . S
C836 C835 1.355 . S
C836 C838 1.419 . S
C837 C832 1.425 . S
C837 C834 1.409 . S
C837 C835 1.415 . S
C838 H828 0.930 . S
C838 C836 1.419 . S
C838 C839 1.362 . S
C839 H829 0.930 . S
C839 C832 1.409 . S
C839 C838 1.362 . S
H840 C846 0.930 . S
H841 C849 0.930 . S
H842 C850 0.930 . S
H843 C851 0.930 . S
H844 C854 0.930 . S
H845 C855 0.930 . S
C846 H840 0.930 . S
C846 C847 1.355 . S
C846 C848 1.415 . S
C847 C846 1.355 . S
C847 C849 1.419 . S
C848 C846 1.415 . S
C848 C853 1.425 . S
C848 C855 1.409 . S
C849 H841 0.930 . S
C849 C847 1.419 . S
C849 C850 1.362 . S
C850 H842 0.930 . S
C850 C849 1.362 . S
C850 C853 1.409 . S
C851 H843 0.930 . S
C851 C852 1.355 . S
C851 C853 1.415 . S
C852 C851 1.355 . S
C852 C854 1.419 . S
C853 C848 1.425 . S
C853 C850 1.409 . S
C853 C851 1.415 . S
C854 H844 0.930 . S
C854 C852 1.419 . S
C854 C855 1.362 . S
C855 H845 0.930 . S
C855 C848 1.409 . S
C855 C854 1.362 . S
C479 C1 1.290 . S
C484 C318 1.356 . S
C495 C40 1.018 . S
C500 C367 1.014 . S
C516 C402 2.472 . S
C511 C99 2.521 . S
C527 C118 2.411 . S
C532 C441 2.370 . S
C548 C362 2.524 . S
C543 C16 2.345 . S
C564 C321 0.760 . S
C559 C60 0.829 . S
C580 C451 1.931 . S
C575 C79 1.968 . S
C596 C410 1.645 . S
C591 C138 1.636 . S
C607 C21 1.656 . S
C612 C438 1.763 . S
C628 C370 2.321 . S
C623 C94 2.419 . S
C639 C133 2.332 . S
C644 C331 2.316 . S
C655 C55 0.974 . S
C660 C407 0.953 . S
C676 C327 1.297 . S
C671 C157 1.222 . S
C687 C196 0.990 . S
C692 C358 0.978 . S
C703 C255 2.526 . S
C708 C411 2.491 . S
C719 C289 2.402 . S
C724 C450 2.324 . S
C735 C172 2.359 . S
C740 C371 2.528 . S
C756 C330 0.856 . S
C751 C216 0.837 . S
C772 C442 1.933 . S
C767 C235 1.969 . S
C788 C401 1.627 . S
C783 C294 1.650 . S
C799 C177 1.657 . S
C804 C447 1.752 . S
C820 C361 2.325 . S
C815 C250 2.424 . S
C836 C322 2.319 . S
C831 C274 2.336 . S
C847 C211 0.975 . S
C852 C398 0.955 . S
