# Generated by pormake.
# Topology wbl, (4,4)-cn, num edge types: 1
# Building blocks:
#     Node 0, Type 0, BuildingBlock: MIFKUJ_clean_linker_1, # of connection points: 4
#     Node 1, Type 0, BuildingBlock: MIFKUJ_clean_linker_1, # of connection points: 4
#     Node 2, Type 0, BuildingBlock: MIFKUJ_clean_linker_1, # of connection points: 4
#     Node 3, Type 0, BuildingBlock: MIFKUJ_clean_linker_1, # of connection points: 4
#     Node 4, Type 0, BuildingBlock: MIFKUJ_clean_linker_1, # of connection points: 4
#     Node 5, Type 0, BuildingBlock: MIFKUJ_clean_linker_1, # of connection points: 4
#     Node 6, Type 0, BuildingBlock: MIFKUJ_clean_linker_1, # of connection points: 4
#     Node 7, Type 0, BuildingBlock: MIFKUJ_clean_linker_1, # of connection points: 4
#     Node 8, Type 1, BuildingBlock: QUQFOY_clean_sbu_1, # of connection points: 4
#     Node 9, Type 1, BuildingBlock: QUQFOY_clean_sbu_1, # of connection points: 4
#     Node 10, Type 1, BuildingBlock: QUQFOY_clean_sbu_1, # of connection points: 4
#     Node 11, Type 1, BuildingBlock: QUQFOY_clean_sbu_1, # of connection points: 4
#     Node 12, Type 1, BuildingBlock: QUQFOY_clean_sbu_1, # of connection points: 4
#     Node 13, Type 1, BuildingBlock: QUQFOY_clean_sbu_1, # of connection points: 4
#     Node 14, Type 1, BuildingBlock: QUQFOY_clean_sbu_1, # of connection points: 4
#     Node 15, Type 1, BuildingBlock: QUQFOY_clean_sbu_1, # of connection points: 4
#     Edge 16, Type (0, 1), BuildingBlock: UVAHIK_clean_linker_0, # of connection points: 2
#     Edge 17, Type (0, 1), BuildingBlock: UVAHIK_clean_linker_0, # of connection points: 2
#     Edge 18, Type (0, 1), BuildingBlock: UVAHIK_clean_linker_0, # of connection points: 2
#     Edge 19, Type (0, 1), BuildingBlock: UVAHIK_clean_linker_0, # of connection points: 2
#     Edge 20, Type (0, 1), BuildingBlock: UVAHIK_clean_linker_0, # of connection points: 2
#     Edge 21, Type (0, 1), BuildingBlock: UVAHIK_clean_linker_0, # of connection points: 2
#     Edge 22, Type (0, 1), BuildingBlock: UVAHIK_clean_linker_0, # of connection points: 2
#     Edge 23, Type (0, 1), BuildingBlock: UVAHIK_clean_linker_0, # of connection points: 2
#     Edge 24, Type (0, 1), BuildingBlock: UVAHIK_clean_linker_0, # of connection points: 2
#     Edge 25, Type (0, 1), BuildingBlock: UVAHIK_clean_linker_0, # of connection points: 2
#     Edge 26, Type (0, 1), BuildingBlock: UVAHIK_clean_linker_0, # of connection points: 2
#     Edge 27, Type (0, 1), BuildingBlock: UVAHIK_clean_linker_0, # of connection points: 2
#     Edge 28, Type (0, 1), BuildingBlock: UVAHIK_clean_linker_0, # of connection points: 2
#     Edge 29, Type (0, 1), BuildingBlock: UVAHIK_clean_linker_0, # of connection points: 2
#     Edge 30, Type (0, 1), BuildingBlock: UVAHIK_clean_linker_0, # of connection points: 2
#     Edge 31, Type (0, 1), BuildingBlock: UVAHIK_clean_linker_0, # of connection points: 2
#     Edge 32, Type (0, 1), BuildingBlock: UVAHIK_clean_linker_0, # of connection points: 2
#     Edge 33, Type (0, 1), BuildingBlock: UVAHIK_clean_linker_0, # of connection points: 2
#     Edge 34, Type (0, 1), BuildingBlock: UVAHIK_clean_linker_0, # of connection points: 2
#     Edge 35, Type (0, 1), BuildingBlock: UVAHIK_clean_linker_0, # of connection points: 2
#     Edge 36, Type (0, 1), BuildingBlock: UVAHIK_clean_linker_0, # of connection points: 2
#     Edge 37, Type (0, 1), BuildingBlock: UVAHIK_clean_linker_0, # of connection points: 2
#     Edge 38, Type (0, 1), BuildingBlock: UVAHIK_clean_linker_0, # of connection points: 2
#     Edge 39, Type (0, 1), BuildingBlock: UVAHIK_clean_linker_0, # of connection points: 2
#     Edge 40, Type (0, 1), BuildingBlock: UVAHIK_clean_linker_0, # of connection points: 2
#     Edge 41, Type (0, 1), BuildingBlock: UVAHIK_clean_linker_0, # of connection points: 2
#     Edge 42, Type (0, 1), BuildingBlock: UVAHIK_clean_linker_0, # of connection points: 2
#     Edge 43, Type (0, 1), BuildingBlock: UVAHIK_clean_linker_0, # of connection points: 2
#     Edge 44, Type (0, 1), BuildingBlock: UVAHIK_clean_linker_0, # of connection points: 2
#     Edge 45, Type (0, 1), BuildingBlock: UVAHIK_clean_linker_0, # of connection points: 2
#     Edge 46, Type (0, 1), BuildingBlock: UVAHIK_clean_linker_0, # of connection points: 2
#     Edge 47, Type (0, 1), BuildingBlock: UVAHIK_clean_linker_0, # of connection points: 2
# Relax obj value: 0.175
# Max RMSD: 0.212
# Mean RMSD: 0.160
data_MOF--net-wbl--node1-QUQFOY_clean_sbu_1--node2-MIFKUJ_clean_linker_1--edge1-UVAHIK_clean_linker_0
_symmetry_space_group_name_H-M    P1
_symmetry_Int_Tables_number       1
_symmetry_cell_setting            triclinic
loop_
_symmetry_equiv_pos_as_xyz
'x, y, z'
_cell_length_a     56.7283
_cell_length_b     56.741395
_cell_length_c     94.766599
_cell_angle_alpha  93.279515
_cell_angle_beta   93.246252
_cell_angle_gamma 90.303896
loop_
_atom_site_label
_atom_site_type_symbol
_atom_site_fract_x
_atom_site_fract_y
_atom_site_fract_z
_atom_type_partial_charge
H0 H 0.14556 0.12239 0.3734 0.0
H1 H 0.12224 0.14859 0.38854 0.0
H2 H 0.05926 0.10861 0.3748 0.0
H3 H 0.08266 0.08247 0.35968 0.0
H4 H 0.14976 0.07353 0.37585 0.0
H5 H 0.12121 0.12734 0.34222 0.0
H6 H 0.08999 0.14919 0.33031 0.0
H7 H 0.06215 0.08389 0.3099 0.0
H8 H 0.09197 0.06201 0.323 0.0
H9 H 0.13572 0.01047 0.32649 0.0
H10 H 0.15651 0.98014 0.31267 0.0
H11 H 0.22328 0.01201 0.32771 0.0
H12 H 0.20242 0.0424 0.34135 0.0
H13 H 0.1358 0.05788 0.32402 0.0
H14 H 0.15201 0.00585 0.362 0.0
H15 H 0.17311 0.98232 0.37952 0.0
H16 H 0.22071 0.04091 0.3907 0.0
H17 H 0.19936 0.06448 0.37331 0.0
C18 C 0.1158 0.10058 0.3654 0.0
C19 C 0.12669 0.11945 0.37355 0.0
C20 C 0.11334 0.13448 0.3821 0.0
C21 C 0.08896 0.13061 0.38281 0.0
C22 C 0.07804 0.11191 0.37447 0.0
C23 C 0.09135 0.09706 0.36581 0.0
C24 C 0.13019 0.08376 0.35708 0.0
C25 C 0.14704 0.07047 0.36446 0.0
C26 C 0.12606 0.07928 0.34229 0.0
C27 C 0.10858 0.09292 0.33388 0.0
C28 C 0.10815 0.11768 0.33536 0.0
C29 C 0.09047 0.13024 0.32829 0.0
C30 C 0.07325 0.11836 0.3192 0.0
C31 C 0.07463 0.09366 0.3171 0.0
C32 C 0.09193 0.08108 0.32446 0.0
C33 C 0.16755 0.02858 0.33499 0.0
C34 C 0.15484 0.01086 0.32681 0.0
C35 C 0.16671 0.99352 0.31898 0.0
C36 C 0.19149 0.99381 0.31907 0.0
C37 C 0.20416 0.01153 0.32731 0.0
C38 C 0.19229 0.02875 0.33522 0.0
C39 C 0.15492 0.04742 0.34286 0.0
C40 C 0.13862 0.0612 0.33538 0.0
C41 C 0.15917 0.05213 0.35757 0.0
C42 C 0.17421 0.03684 0.36637 0.0
C43 C 0.16732 0.01342 0.368 0.0
C44 C 0.17927 6e-05 0.37803 0.0
C45 C 0.19846 0.00986 0.38644 0.0
C46 C 0.2061 0.0329 0.38425 0.0
C47 C 0.1939 0.04637 0.37438 0.0
H48 H 0.03349 0.5906 0.57222 0.0
H49 H 0.01397 0.55926 0.55717 0.0
H50 H 0.94764 0.59612 0.55978 0.0
H51 H 0.9673 0.627 0.57534 0.0
H52 H 0.03835 0.63839 0.56967 0.0
H53 H 0.00677 0.58591 0.60168 0.0
H54 H 0.97998 0.56291 0.61499 0.0
H55 H 0.93851 0.62525 0.62328 0.0
H56 H 0.96539 0.64824 0.60991 0.0
H57 H 0.02429 0.6982 0.62118 0.0
H58 H 0.04743 0.71939 0.64052 0.0
H59 H 0.10886 0.67878 0.62988 0.0
H60 H 0.08541 0.657 0.61105 0.0
H61 H 0.01376 0.65242 0.61884 0.0
H62 H 0.05264 0.70541 0.59034 0.0
H63 H 0.08682 0.72665 0.5828 0.0
H64 H 0.11802 0.66044 0.56918 0.0
H65 H 0.084 0.63919 0.5772 0.0
C66 C 0.0018 0.61098 0.57496 0.0
C67 C 0.01478 0.59201 0.56943 0.0
C68 C 0.00358 0.57418 0.56073 0.0
C69 C 0.97917 0.57511 0.55721 0.0
C70 C 0.96636 0.5946 0.56244 0.0
C71 C 0.97756 0.61232 0.57128 0.0
C72 C 0.01363 0.62896 0.58488 0.0
C73 C 0.03301 0.64147 0.58043 0.0
C74 C 0.00636 0.63328 0.59881 0.0
C75 C 0.98799 0.61875 0.60476 0.0
C76 C 0.99155 0.59449 0.60602 0.0
C77 C 0.97634 0.58141 0.61369 0.0
C78 C 0.95726 0.59235 0.6202 0.0
C79 C 0.95296 0.61635 0.61826 0.0
C80 C 0.96833 0.6295 0.6107 0.0
C81 C 0.05313 0.67615 0.61459 0.0
C82 C 0.04278 0.694 0.62298 0.0
C83 C 0.05609 0.70623 0.63395 0.0
C84 C 0.08 0.70075 0.63677 0.0
C85 C 0.09043 0.68325 0.62811 0.0
C86 C 0.0771 0.67097 0.61721 0.0
C87 C 0.03863 0.66179 0.60371 0.0
C88 C 0.01872 0.64991 0.60797 0.0
C89 C 0.0456 0.65785 0.58967 0.0
C90 C 0.06585 0.67072 0.58442 0.0
C91 C 0.06687 0.69546 0.58577 0.0
C92 C 0.08634 0.70758 0.58135 0.0
C93 C 0.10512 0.69521 0.57538 0.0
C94 C 0.10394 0.67044 0.57388 0.0
C95 C 0.08443 0.6583 0.57832 0.0
H96 H 0.49401 0.59356 0.85506 0.0
H97 H 0.47579 0.61634 0.87429 0.0
H98 H 0.44046 0.55324 0.88581 0.0
H99 H 0.459 0.53046 0.86668 0.0
H100 H 0.50956 0.5276 0.86477 0.0
H101 H 0.49469 0.58731 0.81777 0.0
H102 H 0.46611 0.61723 0.81081 0.0
H103 H 0.41226 0.58115 0.83214 0.0
H104 H 0.44046 0.55071 0.83822 0.0
H105 H 0.51104 0.48896 0.80811 0.0
H106 H 0.5396 0.47164 0.79199 0.0
H107 H 0.59457 0.51615 0.81287 0.0
H108 H 0.56607 0.53325 0.82886 0.0
H109 H 0.50046 0.54107 0.81346 0.0
H110 H 0.52271 0.47038 0.84258 0.0
H111 H 0.54877 0.44512 0.85663 0.0
H112 H 0.58829 0.5069 0.87332 0.0
H113 H 0.56172 0.53187 0.85969 0.0
C114 C 0.47775 0.56039 0.85946 0.0
C115 C 0.48212 0.58472 0.86163 0.0
C116 C 0.47181 0.59766 0.87262 0.0
C117 C 0.45678 0.58649 0.8815 0.0
C118 C 0.45185 0.56226 0.87903 0.0
C119 C 0.46247 0.54926 0.86818 0.0
C120 C 0.49048 0.54634 0.84873 0.0
C121 C 0.50731 0.5303 0.85353 0.0
C122 C 0.4876 0.55008 0.8341 0.0
C123 C 0.46981 0.56692 0.82867 0.0
C124 C 0.47659 0.58563 0.82068 0.0
C125 C 0.46028 0.60291 0.81688 0.0
C126 C 0.43687 0.60182 0.82102 0.0
C127 C 0.43 0.58253 0.8286 0.0
C128 C 0.44621 0.56519 0.83224 0.0
C129 C 0.53655 0.51224 0.81968 0.0
C130 C 0.52924 0.49498 0.80914 0.0
C131 C 0.54554 0.48508 0.8 0.0
C132 C 0.56926 0.49264 0.80114 0.0
C133 C 0.57636 0.5102 0.81161 0.0
C134 C 0.56016 0.51985 0.82082 0.0
C135 C 0.5197 0.52248 0.82961 0.0
C136 C 0.50224 0.53798 0.82466 0.0
C137 C 0.52206 0.5185 0.84417 0.0
C138 C 0.5403 0.50292 0.85021 0.0
C139 C 0.53732 0.47832 0.84906 0.0
C140 C 0.55225 0.46394 0.85707 0.0
C141 C 0.57034 0.47404 0.8663 0.0
C142 C 0.57417 0.4986 0.86659 0.0
C143 C 0.55916 0.51289 0.85873 0.0
H144 H 0.5744 0.98168 0.06369 0.0
H145 H 0.53916 0.95888 0.0551 0.0
H146 H 0.49946 0.99382 0.08762 0.0
H147 H 0.53442 0.01731 0.09583 0.0
H148 H 0.58726 0.02722 0.06716 0.0
H149 H 0.57672 0.96305 0.10002 0.0
H150 H 0.55409 0.94162 0.11665 0.0
H151 H 0.54306 0.00703 0.14088 0.0
H152 H 0.56574 0.02826 0.12434 0.0
H153 H 0.62897 0.08207 0.10153 0.0
H154 H 0.65946 0.10231 0.11707 0.0
H155 H 0.69132 0.0351 0.12542 0.0
H156 H 0.66038 0.01501 0.11016 0.0
H157 H 0.61324 0.01998 0.11759 0.0
H158 H 0.59874 0.07488 0.06974 0.0
H159 H 0.62106 0.09937 0.05481 0.0
H160 H 0.6818 0.05453 0.06096 0.0
H161 H 0.65946 0.03065 0.07634 0.0
C162 C 0.55719 0.00079 0.08061 0.0
C163 C 0.55799 0.98482 0.06878 0.0
C164 C 0.53788 0.97183 0.06388 0.0
C165 C 0.51675 0.97449 0.07082 0.0
C166 C 0.51566 0.99129 0.08222 0.0
C167 C 0.53563 0.00459 0.08694 0.0
C168 C 0.5792 0.01238 0.0868 0.0
C169 C 0.59299 0.02556 0.07818 0.0
C170 C 0.58668 0.01035 0.10117 0.0
C171 C 0.57285 0.99721 0.11098 0.0
C172 C 0.56936 0.97272 0.10891 0.0
C173 C 0.5565 0.96053 0.1184 0.0
C174 C 0.54676 0.97272 0.13 0.0
C175 C 0.55013 0.99726 0.13194 0.0
C176 C 0.56322 0.00936 0.12258 0.0
C177 C 0.64242 0.04707 0.10475 0.0
C178 C 0.64291 0.07179 0.10641 0.0
C179 C 0.66039 0.08333 0.1153 0.0
C180 C 0.67764 0.07028 0.12266 0.0
C181 C 0.678 0.04562 0.12015 0.0
C182 C 0.66046 0.03412 0.11135 0.0
C183 C 0.6214 0.03463 0.09796 0.0
C184 C 0.60769 0.02139 0.10653 0.0
C185 C 0.61394 0.03687 0.08363 0.0
C186 C 0.6275 0.05108 0.07421 0.0
C187 C 0.61684 0.0703 0.06781 0.0
C188 C 0.62962 0.08418 0.05918 0.0
C189 C 0.65328 0.07894 0.05661 0.0
C190 C 0.66376 0.05935 0.06286 0.0
C191 C 0.65101 0.04561 0.07162 0.0
H192 H 0.99614 0.68322 0.93826 0.0
H193 H 0.02057 0.70913 0.92516 0.0
H194 H 0.08012 0.66327 0.93209 0.0
H195 H 0.05561 0.6374 0.94511 0.0
H196 H 0.98831 0.63616 0.92845 0.0
H197 H 0.01969 0.6783 0.97162 0.0
H198 H 0.05223 0.69436 0.9874 0.0
H199 H 0.08044 0.62412 0.99065 0.0
H200 H 0.04775 0.60823 0.97508 0.0
H201 H 0.99672 0.56302 0.96874 0.0
H202 H 0.97328 0.53007 0.97608 0.0
H203 H 0.90936 0.5656 0.96256 0.0
H204 H 0.93282 0.59891 0.95594 0.0
H205 H 0.0011 0.60751 0.97674 0.0
H206 H 0.97813 0.56467 0.93411 0.0
H207 H 0.9542 0.54459 0.91479 0.0
H208 H 0.91747 0.60965 0.90738 0.0
H209 H 0.94151 0.62969 0.9268 0.0
C210 C 0.02409 0.65845 0.94269 0.0
C211 C 0.01461 0.67908 0.93723 0.0
C212 C 0.0286 0.69391 0.92982 0.0
C213 C 0.05219 0.68812 0.92756 0.0
C214 C 0.06194 0.66806 0.93362 0.0
C215 C 0.04801 0.65337 0.94113 0.0
C216 C 0.0084 0.64077 0.94838 0.0
C217 C 0.99064 0.63032 0.93914 0.0
C218 C 0.01238 0.63231 0.96205 0.0
C219 C 0.03142 0.6421 0.97208 0.0
C220 C 0.03288 0.6664 0.97577 0.0
C221 C 0.0515 0.67554 0.98478 0.0
C222 C 0.06898 0.66053 0.99028 0.0
C223 C 0.0671 0.63614 0.9868 0.0
C224 C 0.04848 0.62702 0.97784 0.0
C225 C 0.96654 0.58337 0.96169 0.0
C226 C 0.97764 0.56381 0.96752 0.0
C227 C 0.96422 0.54486 0.97156 0.0
C228 C 0.93943 0.54511 0.96985 0.0
C229 C 0.92839 0.5649 0.96418 0.0
C230 C 0.9418 0.58388 0.96025 0.0
C231 C 0.98083 0.603 0.95682 0.0
C232 C 0.99835 0.61371 0.96615 0.0
C233 C 0.97724 0.61116 0.94303 0.0
C234 C 0.96146 0.59864 0.93199 0.0
C235 C 0.96459 0.57451 0.92853 0.0
C236 C 0.95088 0.56304 0.91748 0.0
C237 C 0.93392 0.57553 0.90957 0.0
C238 C 0.93054 0.59961 0.91321 0.0
C239 C 0.94422 0.61106 0.9243 0.0
H240 H 0.57818 0.55206 0.21565 0.0
H241 H 0.55787 0.58249 0.22951 0.0
H242 H 0.49082 0.54917 0.21661 0.0
H243 H 0.51126 0.51854 0.20288 0.0
H244 H 0.58208 0.50625 0.21659 0.0
H245 H 0.55122 0.55872 0.18285 0.0
H246 H 0.52244 0.582 0.16963 0.0
H247 H 0.48374 0.51823 0.15581 0.0
H248 H 0.51269 0.49499 0.16906 0.0
H249 H 0.5637 0.44276 0.16749 0.0
H250 H 0.58337 0.41671 0.15051 0.0
H251 H 0.64906 0.45437 0.16094 0.0
H252 H 0.62929 0.48015 0.17807 0.0
H253 H 0.55902 0.49 0.16568 0.0
H254 H 0.59171 0.43797 0.20001 0.0
H255 H 0.62211 0.41618 0.21302 0.0
H256 H 0.65897 0.48162 0.22536 0.0
H257 H 0.6287 0.5033 0.2121 0.0
C258 C 0.54622 0.53323 0.20807 0.0
C259 C 0.55913 0.55114 0.21595 0.0
C260 C 0.54752 0.56845 0.2239 0.0
C261 C 0.52277 0.56819 0.22411 0.0
C262 C 0.50989 0.54992 0.2165 0.0
C263 C 0.52154 0.53249 0.20864 0.0
C264 C 0.5586 0.51554 0.19915 0.0
C265 C 0.57722 0.5029 0.20541 0.0
C266 C 0.55201 0.51091 0.18463 0.0
C267 C 0.534 0.52512 0.17704 0.0
C268 C 0.53635 0.54978 0.17714 0.0
C269 C 0.51984 0.56308 0.1696 0.0
C270 C 0.50075 0.55197 0.16169 0.0
C271 C 0.49836 0.52728 0.16168 0.0
C272 C 0.51486 0.51399 0.16926 0.0
C273 C 0.59503 0.46336 0.17405 0.0
C274 C 0.5824 0.4452 0.16624 0.0
C275 C 0.59365 0.43041 0.1565 0.0
C276 C 0.61774 0.43361 0.15428 0.0
C277 C 0.63056 0.45127 0.1625 0.0
C278 C 0.61928 0.46605 0.17228 0.0
C279 C 0.58238 0.48059 0.18314 0.0
C280 C 0.56377 0.49326 0.17688 0.0
C281 C 0.58921 0.48551 0.19759 0.0
C282 C 0.60807 0.47221 0.205 0.0
C283 C 0.60647 0.44758 0.20539 0.0
C284 C 0.6237 0.4352 0.21295 0.0
C285 C 0.64283 0.44723 0.22027 0.0
C286 C 0.64451 0.47188 0.21975 0.0
C287 C 0.6272 0.48427 0.21224 0.0
H288 H 0.61795 0.97945 0.43492 0.0
H289 H 0.59153 0.95495 0.41891 0.0
H290 H 0.53228 0.99699 0.43166 0.0
H291 H 0.55893 0.02141 0.44786 0.0
H292 H 0.62055 0.02789 0.4298 0.0
H293 H 0.59795 0.97791 0.4665 0.0
H294 H 0.56983 0.96058 0.48147 0.0
H295 H 0.55622 0.02992 0.50056 0.0
H296 H 0.58261 0.04727 0.48463 0.0
H297 H 0.63368 0.09113 0.48027 0.0
H298 H 0.66366 0.11887 0.49094 0.0
H299 H 0.71735 0.08046 0.46881 0.0
H300 H 0.68755 0.0523 0.45874 0.0
H301 H 0.62646 0.04551 0.48171 0.0
H302 H 0.642 0.09661 0.44546 0.0
H303 H 0.66302 0.11832 0.42847 0.0
H304 H 0.68461 0.05227 0.40829 0.0
H305 H 0.66473 0.03078 0.42579 0.0
C306 C 0.59038 0.00226 0.44249 0.0
C307 C 0.59919 0.98303 0.43452 0.0
C308 C 0.58411 0.96913 0.42535 0.0
C309 C 0.55994 0.97433 0.42389 0.0
C310 C 0.55083 0.99255 0.43263 0.0
C311 C 0.566 0.00651 0.44186 0.0
C312 C 0.60719 0.01957 0.44974 0.0
C313 C 0.62212 0.0315 0.44119 0.0
C314 C 0.60818 0.02507 0.46451 0.0
C315 C 0.59202 0.01402 0.47411 0.0
C316 C 0.58853 0.98945 0.47368 0.0
C317 C 0.57272 0.97948 0.4825 0.0
C318 C 0.5605 0.99379 0.49224 0.0
C319 C 0.56476 0.01831 0.49299 0.0
C320 C 0.58015 0.02828 0.48397 0.0
C321 C 0.65835 0.06982 0.46859 0.0
C322 C 0.65197 0.08858 0.47786 0.0
C323 C 0.66908 0.10453 0.48384 0.0
C324 C 0.69289 0.10194 0.48068 0.0
C325 C 0.69924 0.08283 0.4716 0.0
C326 C 0.68217 0.06685 0.4657 0.0
C327 C 0.64014 0.05345 0.46177 0.0
C328 C 0.62492 0.04182 0.47033 0.0
C329 C 0.63827 0.04868 0.44693 0.0
C330 C 0.65198 0.06202 0.43703 0.0
C331 C 0.65169 0.08681 0.43757 0.0
C332 C 0.66346 0.09922 0.4277 0.0
C333 C 0.67551 0.0871 0.41695 0.0
C334 C 0.67588 0.06226 0.41653 0.0
C335 C 0.6643 0.0499 0.42646 0.0
H336 H 0.09873 0.20918 0.71348 0.0
H337 H 0.06836 0.23735 0.71981 0.0
H338 H 0.02801 0.18127 0.73633 0.0
H339 H 0.05782 0.15289 0.72903 0.0
H340 H 0.10325 0.14499 0.73452 0.0
H341 H 0.12395 0.19014 0.68353 0.0
H342 H 0.10577 0.21461 0.66555 0.0
H343 H 0.03673 0.19024 0.6756 0.0
H344 H 0.05503 0.16579 0.69356 0.0
H345 H 0.1164 0.09631 0.68112 0.0
H346 H 0.14225 0.06932 0.6686 0.0
H347 H 0.19964 0.08839 0.69916 0.0
H348 H 0.17365 0.11615 0.71144 0.0
H349 H 0.12147 0.14263 0.68387 0.0
H350 H 0.11299 0.07998 0.71567 0.0
H351 H 0.12824 0.04959 0.731 0.0
H352 H 0.16702 0.10295 0.75728 0.0
H353 H 0.15162 0.13337 0.74187 0.0
C354 C 0.08036 0.17884 0.72051 0.0
C355 C 0.08334 0.20295 0.71848 0.0
C356 C 0.06601 0.21912 0.72227 0.0
C357 C 0.04551 0.21163 0.72849 0.0
C358 C 0.04325 0.18763 0.73127 0.0
C359 C 0.06047 0.1714 0.72728 0.0
C360 C 0.09697 0.1612 0.71462 0.0
C361 C 0.10734 0.14459 0.72347 0.0
C362 C 0.10213 0.16036 0.70015 0.0
C363 C 0.09085 0.17626 0.68993 0.0
C364 C 0.10489 0.19019 0.68191 0.0
C365 C 0.09449 0.20412 0.67163 0.0
C366 C 0.06983 0.20431 0.66915 0.0
C367 C 0.05575 0.19071 0.6774 0.0
C368 C 0.06619 0.17669 0.68764 0.0
C369 C 0.14305 0.10823 0.69722 0.0
C370 C 0.13449 0.09455 0.68521 0.0
C371 C 0.14929 0.07896 0.67812 0.0
C372 C 0.17305 0.07661 0.68288 0.0
C373 C 0.18149 0.08992 0.69515 0.0
C374 C 0.1666 0.1056 0.70226 0.0
C375 C 0.12764 0.1264 0.70371 0.0
C376 C 0.1176 0.14322 0.69497 0.0
C377 C 0.12242 0.12706 0.71814 0.0
C378 C 0.13133 0.10885 0.7276 0.0
C379 C 0.12474 0.08512 0.72475 0.0
C380 C 0.13332 0.06783 0.73356 0.0
C381 C 0.14877 0.07394 0.74534 0.0
C382 C 0.15524 0.09776 0.74823 0.0
C383 C 0.1464 0.11511 0.73949 0.0
O384 O 0.35552 0.71451 0.00788 0.0
Cd385 Cd 0.34207 0.73441 0.02432 0.0
Cd386 Cd 0.3819 0.71846 0.03929 0.0
O387 O 0.38842 0.70402 0.01934 0.0
O388 O 0.30914 0.74129 0.01778 0.0
O389 O 0.31803 0.71991 0.03613 0.0
C390 C 0.30216 0.72908 0.02783 0.0
C391 C 0.3921 0.69525 0.0583 0.0
C392 C 0.3752 0.70393 0.00804 0.0
C393 C 0.37488 0.77116 0.03828 0.0
O394 O 0.38638 0.75429 0.04352 0.0
O395 O 0.35695 0.76709 0.02985 0.0
O396 O 0.40781 0.70552 0.05147 0.0
O397 O 0.3702 0.69794 0.05426 0.0
O398 O 0.42513 0.84791 0.29997 0.0
Cd399 Cd 0.40818 0.83136 0.2823 0.0
Cd400 Cd 0.44704 0.84581 0.26921 0.0
O401 O 0.45429 0.86289 0.2888 0.0
O402 O 0.37438 0.82908 0.28635 0.0
O403 O 0.38768 0.85135 0.26997 0.0
C404 C 0.3702 0.84409 0.27681 0.0
C405 C 0.45603 0.86542 0.24912 0.0
C406 C 0.44359 0.86072 0.30009 0.0
C407 C 0.43764 0.79323 0.27018 0.0
O408 O 0.45129 0.80977 0.26711 0.0
O409 O 0.41847 0.79793 0.27598 0.0
O410 O 0.47225 0.85695 0.25738 0.0
O411 O 0.43438 0.8634 0.25246 0.0
O412 O 0.30064 0.90831 0.51998 0.0
Cd413 Cd 0.314 0.89521 0.53868 0.0
Cd414 Cd 0.27848 0.92112 0.5495 0.0
O415 O 0.2754 0.93326 0.52942 0.0
O416 O 0.34691 0.88554 0.53537 0.0
O417 O 0.33798 0.91562 0.55003 0.0
C418 C 0.35382 0.90312 0.54385 0.0
C419 C 0.27203 0.94676 0.56912 0.0
C420 C 0.28541 0.92452 0.51868 0.0
C421 C 0.27603 0.86776 0.55025 0.0
O422 O 0.2659 0.88759 0.55159 0.0
O423 O 0.29694 0.86654 0.54615 0.0
O424 O 0.25513 0.93982 0.5602 0.0
O425 O 0.29316 0.94003 0.5666 0.0
O426 O 0.21673 0.80346 0.76775 0.0
Cd427 Cd 0.23371 0.81607 0.78652 0.0
Cd428 Cd 0.20418 0.78586 0.79845 0.0
O429 O 0.18851 0.78566 0.77826 0.0
O430 O 0.24554 0.84837 0.78373 0.0
O431 O 0.21644 0.84093 0.79758 0.0
C432 C 0.22942 0.85613 0.79185 0.0
C433 C 0.17858 0.77979 0.81654 0.0
C434 C 0.19715 0.79236 0.76706 0.0
C435 C 0.25709 0.7762 0.79994 0.0
O436 O 0.23613 0.76904 0.80134 0.0
O437 O 0.26072 0.7962 0.79506 0.0
O438 O 0.18329 0.76337 0.80724 0.0
O439 O 0.18816 0.80026 0.81552 0.0
O440 O 0.93593 0.29391 0.54194 0.0
Cd441 Cd 0.91663 0.30133 0.52363 0.0
Cd442 Cd 0.94286 0.26331 0.51256 0.0
O443 O 0.96028 0.26842 0.53218 0.0
O444 O 0.90231 0.33245 0.52816 0.0
O445 O 0.92852 0.32691 0.51188 0.0
C446 C 0.91506 0.3411 0.51885 0.0
C447 C 0.96572 0.24962 0.494 0.0
C448 C 0.95387 0.28068 0.54292 0.0
C449 C 0.88947 0.25834 0.51311 0.0
O450 O 0.90936 0.24877 0.51136 0.0
O451 O 0.88825 0.27998 0.51717 0.0
O452 O 0.96051 0.23648 0.504 0.0
O453 O 0.95836 0.27113 0.4946 0.0
O454 O 0.83927 0.4303 0.78011 0.0
Cd455 Cd 0.82759 0.41203 0.76153 0.0
Cd456 Cd 0.8573 0.44226 0.74937 0.0
O457 O 0.8559 0.45883 0.76925 0.0
O458 O 0.79587 0.39885 0.76451 0.0
O459 O 0.80189 0.42747 0.75008 0.0
C460 C 0.78731 0.41409 0.75604 0.0
C461 C 0.86365 0.46733 0.73105 0.0
C462 C 0.84936 0.45039 0.78054 0.0
C463 C 0.86872 0.38969 0.74884 0.0
O464 O 0.87528 0.41079 0.74729 0.0
O465 O 0.84863 0.38556 0.75348 0.0
O466 O 0.87973 0.46339 0.74071 0.0
O467 O 0.84335 0.45724 0.73182 0.0
O468 O 0.74021 0.33421 0.0274 0.0
Cd469 Cd 0.75354 0.32212 0.00852 0.0
Cd470 Cd 0.72164 0.35276 0.99775 0.0
O471 O 0.70826 0.34932 0.01732 0.0
O472 O 0.76724 0.29081 0.01215 0.0
O473 O 0.7356 0.29562 0.99781 0.0
C474 C 0.75006 0.28157 0.00413 0.0
C475 C 0.69468 0.36087 0.97898 0.0
C476 C 0.7199 0.34327 0.02837 0.0
C477 C 0.77412 0.36373 0.99708 0.0
O478 O 0.753 0.37112 0.99684 0.0
O479 O 0.77862 0.34263 1.00007 0.0
O480 O 0.69924 0.37576 0.98953 0.0
O481 O 0.70489 0.34061 0.9792 0.0
O482 O 0.79723 0.21097 0.24626 0.0
Cd483 Cd 0.81067 0.23191 0.26321 0.0
Cd484 Cd 0.80098 0.19246 0.27814 0.0
O485 O 0.78832 0.18004 0.2581 0.0
O486 O 0.81037 0.26456 0.25682 0.0
O487 O 0.78851 0.25291 0.27383 0.0
C488 C 0.79483 0.26942 0.26594 0.0
C489 C 0.78029 0.18166 0.29751 0.0
C490 C 0.78876 0.19024 0.2465 0.0
C491 C 0.85168 0.21032 0.27826 0.0
O492 O 0.83699 0.19566 0.28247 0.0
O493 O 0.8449 0.22647 0.27029 0.0
O494 O 0.79293 0.1668 0.29055 0.0
O495 O 0.77874 0.20284 0.29323 0.0
C496 C 0.22306 0.9822 0.30268 0.0
C497 C 0.2042 0.97566 0.31066 0.0
C498 C 0.23613 0.96504 0.29551 0.0
C499 C 0.25438 0.90428 0.29846 0.0
H500 H 0.2802 0.91207 0.26196 0.0
C501 C 0.3269 0.84283 0.28 0.0
C502 C 0.34645 0.85431 0.27495 0.0
C503 C 0.30533 0.85438 0.28086 0.0
C504 C 0.27317 0.90964 0.27217 0.0
H505 H 0.18373 0.94612 0.31703 0.0
H506 H 0.20669 0.91604 0.30452 0.0
H507 H 0.24982 0.93903 0.27027 0.0
H508 H 0.35839 0.88618 0.2659 0.0
H509 H 0.32103 0.9067 0.26785 0.0
H510 H 0.27844 0.8759 0.30084 0.0
C511 C 0.21134 0.93446 0.30384 0.0
C512 C 0.25575 0.92505 0.2769 0.0
C513 C 0.19814 0.95166 0.31093 0.0
C514 C 0.34358 0.8769 0.26983 0.0
C515 C 0.32209 0.88862 0.27089 0.0
C516 C 0.27189 0.88905 0.2938 0.0
C517 C 0.2307 0.94097 0.29625 0.0
C518 C 0.24658 0.92283 0.29024 0.0
C519 C 0.30297 0.87782 0.27694 0.0
C520 C 0.28192 0.89185 0.28074 0.0
H521 H 0.22792 0.0006 0.30214 0.0
H522 H 0.25109 0.97059 0.28987 0.0
H523 H 0.24791 0.90233 0.30887 0.0
H524 H 0.32854 0.82526 0.28384 0.0
H525 H 0.29079 0.84527 0.28519 0.0
C526 C 0.14894 0.70034 0.57366 0.0
C527 C 0.12581 0.70827 0.57077 0.0
C528 C 0.16836 0.71345 0.56992 0.0
C529 C 0.18457 0.76207 0.5475 0.0
H530 H 0.23588 0.77414 0.57589 0.0
C531 C 0.23765 0.84742 0.5527 0.0
C532 C 0.26237 0.84613 0.55245 0.0
C533 C 0.22413 0.82717 0.5538 0.0
C534 C 0.2219 0.77053 0.56777 0.0
H535 H 0.10493 0.73569 0.56122 0.0
H536 H 0.13858 0.75879 0.55506 0.0
H537 H 0.20575 0.74438 0.57959 0.0
H538 H 0.29233 0.82258 0.55356 0.0
H539 H 0.26834 0.78688 0.55598 0.0
H540 H 0.19991 0.78929 0.53615 0.0
C541 C 0.14185 0.74232 0.56005 0.0
C542 C 0.20467 0.75351 0.56985 0.0
C543 C 0.12252 0.72925 0.56376 0.0
C544 C 0.27332 0.82409 0.5537 0.0
C545 C 0.25968 0.80374 0.55508 0.0
C546 C 0.20159 0.77919 0.54552 0.0
C547 C 0.16502 0.7347 0.56316 0.0
C548 C 0.18537 0.74969 0.55995 0.0
C549 C 0.23496 0.80516 0.5549 0.0
C550 C 0.21995 0.78406 0.55583 0.0
H551 H 0.15205 0.68431 0.57914 0.0
H552 H 0.18597 0.70703 0.57239 0.0
H553 H 0.17029 0.75913 0.5395 0.0
H554 H 0.22859 0.86406 0.55172 0.0
H555 H 0.20509 0.8287 0.55382 0.0
C556 C 0.39573 0.61592 0.81504 0.0
C557 C 0.41985 0.62107 0.81802 0.0
C558 C 0.37943 0.63405 0.81342 0.0
C559 C 0.37205 0.69526 0.80447 0.0
H560 H 0.31685 0.69294 0.82671 0.0
C561 C 0.30062 0.76813 0.80329 0.0
C562 C 0.27705 0.76036 0.80334 0.0
C563 C 0.31923 0.75253 0.8059 0.0
C564 C 0.33199 0.69375 0.82028 0.0
H565 H 0.44568 0.64955 0.82126 0.0
H566 H 0.41717 0.68115 0.81793 0.0
H567 H 0.34689 0.66267 0.82883 0.0
H568 H 0.2546 0.73006 0.80616 0.0
H569 H 0.28672 0.70297 0.81026 0.0
H570 H 0.3568 0.72584 0.79551 0.0
C571 C 0.41101 0.66299 0.81697 0.0
C572 C 0.34922 0.67644 0.82156 0.0
C573 C 0.42733 0.64484 0.81879 0.0
C574 C 0.27253 0.73676 0.80616 0.0
C575 C 0.29103 0.72119 0.80862 0.0
C576 C 0.3546 0.71245 0.80304 0.0
C577 C 0.38687 0.65775 0.81453 0.0
C578 C 0.36926 0.67685 0.81355 0.0
C579 C 0.31464 0.7288 0.80852 0.0
C580 C 0.33417 0.71172 0.81079 0.0
H581 H 0.38935 0.59785 0.81403 0.0
H582 H 0.36093 0.62953 0.81132 0.0
H583 H 0.38734 0.69591 0.79816 0.0
H584 H 0.3047 0.78622 0.80119 0.0
H585 H 0.33719 0.7591 0.80591 0.0
C586 C 0.48802 0.95468 0.05281 0.0
C587 C 0.49658 0.95837 0.06694 0.0
C588 C 0.47019 0.93797 0.04913 0.0
C589 C 0.42674 0.8983 0.06483 0.0
H590 H 0.43364 0.86028 0.03 0.0
C591 C 0.39639 0.80141 0.05436 0.0
C592 C 0.38321 0.79562 0.04162 0.0
C593 C 0.40589 0.82405 0.05711 0.0
C594 C 0.4313 0.87099 0.03965 0.0
H595 H 0.49337 0.94774 0.08833 0.0
H596 H 0.46312 0.91797 0.08194 0.0
H597 H 0.45873 0.89495 0.03533 0.0
H598 H 0.36928 0.809 0.02188 0.0
H599 H 0.38675 0.84852 0.02653 0.0
H600 H 0.40039 0.87306 0.06949 0.0
C601 C 0.46932 0.92844 0.07368 0.0
C602 C 0.44558 0.89096 0.04271 0.0
C603 C 0.48679 0.94543 0.07737 0.0
C604 C 0.37929 0.81304 0.03181 0.0
C605 C 0.38929 0.83556 0.03443 0.0
C606 C 0.41281 0.87804 0.06188 0.0
C607 C 0.46093 0.92426 0.05948 0.0
C608 C 0.44383 0.90464 0.05548 0.0
C609 C 0.40281 0.84114 0.04705 0.0
C610 C 0.41527 0.86405 0.04938 0.0
H611 H 0.49524 0.96461 0.0446 0.0
H612 H 0.46389 0.93564 0.03814 0.0
H613 H 0.4244 0.90868 0.07458 0.0
H614 H 0.3996 0.78833 0.06212 0.0
H615 H 0.41643 0.82793 0.06687 0.0
C616 C 0.09952 0.65827 0.01046 0.0
C617 C 0.08979 0.6703 0.99896 0.0
C618 C 0.12047 0.66628 0.0177 0.0
C619 C 0.16162 0.71755 0.02287 0.0
H620 H 0.20984 0.6698 0.02676 0.0
C621 C 0.26009 0.73773 0.02119 0.0
C622 C 0.27666 0.72507 0.02926 0.0
C623 C 0.23605 0.7326 0.02131 0.0
C624 C 0.19649 0.68333 0.02608 0.0
H625 H 0.09417 0.70055 0.98631 0.0
H626 H 0.1305 0.71453 0.99895 0.0
H627 H 0.16927 0.65793 0.01999 0.0
H628 H 0.28095 0.69776 0.04427 0.0
H629 H 0.2387 0.68868 0.04443 0.0
H630 H 0.18906 0.743 0.02842 0.0
C631 C 0.12182 0.69908 0.0025 0.0
C632 C 0.17321 0.67652 0.02218 0.0
C633 C 0.10096 0.69104 0.99524 0.0
C634 C 0.26859 0.70777 0.03791 0.0
C635 C 0.24444 0.70251 0.03796 0.0
C636 C 0.18488 0.72436 0.02679 0.0
C637 C 0.13206 0.68654 0.01363 0.0
C638 C 0.15569 0.6936 0.02007 0.0
C639 C 0.22796 0.71463 0.02946 0.0
C640 C 0.20272 0.70736 0.02797 0.0
H641 H 0.09113 0.64246 0.01375 0.0
H642 H 0.12779 0.65641 0.02634 0.0
H643 H 0.1484 0.73109 0.02159 0.0
H644 H 0.26572 0.75124 0.01445 0.0
H645 H 0.22391 0.74205 0.01448 0.0
C646 C 0.51891 0.59643 0.24514 0.0
C647 C 0.51048 0.58767 0.23162 0.0
C648 C 0.50879 0.61636 0.25158 0.0
C649 C 0.45739 0.6567 0.24911 0.0
H650 H 0.50291 0.70338 0.26522 0.0
C651 C 0.43047 0.74964 0.27107 0.0
C652 C 0.44451 0.76844 0.26717 0.0
C653 C 0.43743 0.72627 0.2684 0.0
C654 C 0.48997 0.69054 0.26075 0.0
H655 H 0.48443 0.59244 0.2144 0.0
H656 H 0.46697 0.6274 0.22552 0.0
H657 H 0.51628 0.66428 0.25769 0.0
H658 H 0.47673 0.77739 0.25727 0.0
H659 H 0.48859 0.73683 0.25248 0.0
H660 H 0.43125 0.68349 0.25156 0.0
C661 C 0.48109 0.61866 0.2313 0.0
C662 C 0.49759 0.668 0.25661 0.0
C663 C 0.49113 0.59866 0.2249 0.0
C664 C 0.46554 0.76337 0.26049 0.0
C665 C 0.47245 0.74009 0.25783 0.0
C666 C 0.44977 0.67931 0.25323 0.0
C667 C 0.49013 0.62804 0.24458 0.0
C668 C 0.48146 0.65096 0.25048 0.0
C669 C 0.45856 0.72128 0.26181 0.0
C670 C 0.46608 0.69661 0.2588 0.0
H671 H 0.53359 0.58807 0.25064 0.0
H672 H 0.51589 0.62291 0.26192 0.0
H673 H 0.44449 0.64386 0.24458 0.0
H674 H 0.4142 0.75295 0.27626 0.0
H675 H 0.42642 0.71213 0.27166 0.0
C676 C 0.52251 0.99597 0.50477 0.0
C677 C 0.54293 0.98337 0.5013 0.0
C678 C 0.50563 0.98605 0.51285 0.0
C679 C 0.47959 0.93034 0.51938 0.0
H680 H 0.45222 0.964 0.55117 0.0
C681 C 0.39643 0.89362 0.54185 0.0
C682 C 0.37894 0.91021 0.54497 0.0
C683 C 0.41958 0.90096 0.54009 0.0
C684 C 0.4595 0.9544 0.54225 0.0
H685 H 0.56166 0.9505 0.50412 0.0
H686 H 0.53143 0.93281 0.51765 0.0
H687 H 0.48677 0.98039 0.54084 0.0
H688 H 0.37211 0.94731 0.54948 0.0
H689 H 0.41205 0.96031 0.54577 0.0
H690 H 0.45164 0.90525 0.51992 0.0
C691 C 0.52884 0.95051 0.51416 0.0
C692 C 0.47939 0.96375 0.53642 0.0
C693 C 0.54601 0.96061 0.50629 0.0
C694 C 0.3853 0.93412 0.54716 0.0
C695 C 0.40832 0.94154 0.54507 0.0
C696 C 0.45946 0.92122 0.525 0.0
C697 C 0.50848 0.96313 0.51746 0.0
C698 C 0.48934 0.95198 0.52478 0.0
C699 C 0.42561 0.92513 0.54102 0.0
C700 C 0.44882 0.93334 0.53635 0.0
H701 H 0.51913 0.01328 0.5009 0.0
H702 H 0.48986 0.99598 0.51506 0.0
H703 H 0.48679 0.92107 0.5103 0.0
H704 H 0.39203 0.87502 0.54025 0.0
H705 H 0.4325 0.88769 0.53745 0.0
C706 C 0.18296 0.0545 0.75777 0.0
C707 C 0.15859 0.05533 0.75428 0.0
C708 C 0.1925 0.03575 0.7651 0.0
C709 C 0.17826 0.98683 0.78728 0.0
H710 H 0.22889 0.95446 0.76861 0.0
C711 C 0.20151 0.88953 0.79564 0.0
C712 C 0.22439 0.88165 0.79313 0.0
C713 C 0.19546 0.91311 0.79393 0.0
C714 C 0.21519 0.96348 0.77425 0.0
H715 H 0.12496 0.03793 0.75631 0.0
H716 H 0.14162 0.00522 0.7692 0.0
H717 H 0.21463 0.99162 0.76015 0.0
H718 H 0.25946 0.89259 0.78816 0.0
H719 H 0.24933 0.9339 0.78589 0.0
H720 H 0.17872 0.95864 0.80137 0.0
C721 C 0.15334 0.01902 0.76625 0.0
C722 C 0.20694 0.9848 0.76932 0.0
C723 C 0.14383 0.0376 0.75877 0.0
C724 C 0.24159 0.89813 0.78999 0.0
C725 C 0.23569 0.92178 0.78856 0.0
C726 C 0.18674 0.96561 0.79237 0.0
C727 C 0.17782 0.01766 0.76924 0.0
C728 C 0.18809 0.99646 0.77559 0.0
C729 C 0.2123 0.92939 0.7899 0.0
C730 C 0.20502 0.95338 0.78573 0.0
H731 H 0.19475 0.06787 0.75438 0.0
H732 H 0.21142 0.03518 0.76733 0.0
H733 H 0.16383 0.9956 0.7924 0.0
H734 H 0.18784 0.87718 0.798 0.0
H735 H 0.17723 0.91814 0.79495 0.0
C736 C 0.60337 0.4961 0.78568 0.0
C737 C 0.58692 0.48184 0.79184 0.0
C738 C 0.6216 0.48592 0.77817 0.0
C739 C 0.65783 0.43342 0.77782 0.0
H740 H 0.68197 0.4577 0.74398 0.0
C741 C 0.74596 0.40021 0.75845 0.0
C742 C 0.76153 0.4177 0.75456 0.0
C743 C 0.72201 0.40507 0.75961 0.0
C744 C 0.67554 0.45078 0.75347 0.0
H745 H 0.57609 0.44577 0.79453 0.0
H746 H 0.6081 0.42793 0.78146 0.0
H747 H 0.64446 0.47215 0.75242 0.0
H748 H 0.76405 0.45354 0.748 0.0
H749 H 0.72251 0.46237 0.7505 0.0
H750 H 0.68924 0.41309 0.77946 0.0
C751 C 0.60686 0.44699 0.78245 0.0
C752 C 0.65401 0.459 0.75826 0.0
C753 C 0.58848 0.45719 0.78985 0.0
C754 C 0.75244 0.43968 0.75098 0.0
C755 C 0.72853 0.44469 0.75238 0.0
C756 C 0.67942 0.42541 0.77314 0.0
C757 C 0.62388 0.46127 0.77677 0.0
C758 C 0.64514 0.45068 0.77062 0.0
C759 C 0.71315 0.42769 0.75718 0.0
C760 C 0.68881 0.43426 0.76104 0.0
H761 H 0.60244 0.51517 0.78694 0.0
H762 H 0.63454 0.49738 0.77402 0.0
H763 H 0.65166 0.42694 0.7875 0.0
H764 H 0.75244 0.383 0.76111 0.0
H765 H 0.71061 0.3913 0.76292 0.0
C766 C 0.69098 0.09969 0.05163 0.0
C767 C 0.6671 0.09445 0.04789 0.0
C768 C 0.70337 0.11587 0.04422 0.0
C769 C 0.70036 0.15091 0.01189 0.0
H770 H 0.73918 0.19489 0.03601 0.0
C771 C 0.72357 0.24638 0.99855 0.0
C772 C 0.74548 0.25585 0.00385 0.0
C773 C 0.71722 0.22324 0.00122 0.0
C774 C 0.72881 0.18253 0.02904 0.0
H775 H 0.63804 0.10116 0.03278 0.0
H776 H 0.65925 0.13016 0.02035 0.0
H777 H 0.72202 0.16092 0.04605 0.0
H778 H 0.7788 0.24778 0.01483 0.0
H779 H 0.76781 0.20747 0.01933 0.0
H780 H 0.70642 0.17349 0.99501 0.0
C781 C 0.66857 0.12151 0.02887 0.0
C782 C 0.71895 0.16295 0.0348 0.0
C783 C 0.65625 0.10512 0.03618 0.0
C784 C 0.76167 0.24112 0.01076 0.0
C785 C 0.75535 0.21804 0.01341 0.0
C786 C 0.71012 0.17069 0.00612 0.0
C787 C 0.69215 0.12748 0.03299 0.0
C788 C 0.70433 0.14702 0.02637 0.0
C789 C 0.73269 0.20921 0.00921 0.0
C790 C 0.72423 0.18685 0.01469 0.0
H791 H 0.69994 0.09198 0.06062 0.0
H792 H 0.72164 0.11967 0.04753 0.0
H793 H 0.68949 0.13883 0.00502 0.0
H794 H 0.71072 0.25727 0.99317 0.0
H795 H 0.69961 0.21697 0.99788 0.0
C796 C 0.05617 0.15489 0.30866 0.0
C797 C 0.05325 0.13148 0.31256 0.0
C798 C 0.03684 0.16764 0.30347 0.0
C799 C 0.98163 0.16497 0.28421 0.0
H800 H 0.95439 0.209 0.31149 0.0
C801 C 0.89411 0.21448 0.27296 0.0
C802 C 0.877 0.20766 0.28212 0.0
C803 C 0.91794 0.20957 0.27592 0.0
C804 C 0.96206 0.19706 0.30371 0.0
H805 H 0.02745 0.10328 0.31384 0.0
H806 H 0.99423 0.12524 0.30412 0.0
H807 H 0.99302 0.19142 0.31714 0.0
H808 H 0.87138 0.19156 0.30187 0.0
H809 H 0.91315 0.18368 0.30725 0.0
H810 H 0.95043 0.17006 0.27093 0.0
C811 C 0.01153 0.13357 0.30521 0.0
C812 C 0.98405 0.18713 0.3069 0.0
C813 C 0.03065 0.12098 0.31067 0.0
C814 C 0.88421 0.1969 0.29461 0.0
C815 C 0.90806 0.19253 0.29773 0.0
C816 C 0.95987 0.17527 0.28089 0.0
C817 C 0.01445 0.15703 0.30178 0.0
C818 C 0.99362 0.17058 0.29732 0.0
C819 C 0.92502 0.19838 0.28826 0.0
C820 C 0.94964 0.19085 0.29079 0.0
H821 H 0.07332 0.16346 0.30969 0.0
H822 H 0.03932 0.1858 0.30085 0.0
H823 H 0.98873 0.15204 0.27677 0.0
H824 H 0.88898 0.22269 0.26322 0.0
H825 H 0.9308 0.21415 0.26847 0.0
C826 C 0.97843 0.54224 0.53818 0.0
C827 C 0.96703 0.55502 0.54895 0.0
C828 C 0.96843 0.52141 0.53183 0.0
C829 C 0.92788 0.47442 0.54058 0.0
H830 H 0.93739 0.44982 0.50231 0.0
C831 C 0.89798 0.381 0.52325 0.0
C832 C 0.91546 0.36683 0.51726 0.0
C833 C 0.9003 0.40552 0.52412 0.0
C834 C 0.9346 0.45651 0.51302 0.0
H835 H 0.93535 0.55657 0.56079 0.0
H836 H 0.91752 0.52098 0.54929 0.0
H837 H 0.94832 0.49078 0.5094 0.0
H838 H 0.94816 0.36721 0.5065 0.0
H839 H 0.95248 0.4102 0.50826 0.0
H840 H 0.91471 0.44023 0.54437 0.0
C841 C 0.93454 0.52667 0.54605 0.0
C842 C 0.94088 0.47992 0.51709 0.0
C843 C 0.94465 0.54731 0.55251 0.0
C844 C 0.93445 0.37771 0.51121 0.0
C845 C 0.93686 0.40233 0.51217 0.0
C846 C 0.92151 0.45119 0.53651 0.0
C847 C 0.94669 0.513 0.536 0.0
C848 C 0.93789 0.48905 0.531 0.0
C849 C 0.92025 0.41641 0.51914 0.0
C850 C 0.92505 0.44184 0.52275 0.0
H851 H 0.99544 0.54793 0.53492 0.0
H852 H 0.97835 0.51134 0.52416 0.0
H853 H 0.92585 0.48056 0.55148 0.0
H854 H 0.88294 0.37313 0.52781 0.0
H855 H 0.88694 0.41593 0.52926 0.0
C856 C 0.73373 0.11186 0.49086 0.0
C857 C 0.71103 0.11935 0.4865 0.0
C858 C 0.75133 0.12829 0.49537 0.0
C859 C 0.76788 0.19054 0.49208 0.0
H860 H 0.81591 0.17673 0.52113 0.0
C861 C 0.84533 0.25442 0.5104 0.0
C862 C 0.86771 0.24385 0.51084 0.0
C863 C 0.82486 0.2405 0.5085 0.0
C864 C 0.80261 0.18078 0.51299 0.0
H865 H 0.68889 0.15002 0.4838 0.0
H866 H 0.71945 0.17869 0.49212 0.0
H867 H 0.78204 0.15021 0.51649 0.0
H868 H 0.88614 0.21041 0.5097 0.0
H869 H 0.85045 0.18623 0.5065 0.0
H870 H 0.78862 0.22113 0.48861 0.0
C871 C 0.72374 0.16009 0.49179 0.0
C872 C 0.78326 0.16559 0.51029 0.0
C873 C 0.70614 0.14364 0.48719 0.0
C874 C 0.86919 0.21912 0.50938 0.0
C875 C 0.84876 0.20525 0.50766 0.0
C876 C 0.78715 0.20586 0.49487 0.0
C877 C 0.74664 0.15262 0.49574 0.0
C878 C 0.76591 0.17001 0.4996 0.0
C879 C 0.82642 0.21578 0.50721 0.0
C880 C 0.80492 0.20084 0.50515 0.0
H881 H 0.73799 0.09327 0.49065 0.0
H882 H 0.76883 0.12188 0.49818 0.0
H883 H 0.75502 0.19435 0.48365 0.0
H884 H 0.84362 0.27343 0.51149 0.0
H885 H 0.80782 0.24903 0.50822 0.0
C886 C 0.03138 0.25234 0.73571 0.0
C887 C 0.02619 0.22862 0.73145 0.0
C888 C 0.01329 0.26869 0.73736 0.0
C889 C 0.95119 0.27562 0.74434 0.0
H890 H 0.95595 0.33318 0.72449 0.0
C891 C 0.87777 0.34645 0.74511 0.0
C892 C 0.88527 0.37016 0.74584 0.0
C893 C 0.89388 0.32823 0.74269 0.0
C894 C 0.95444 0.31738 0.73028 0.0
H895 H 0.99757 0.20358 0.72588 0.0
H896 H 0.96604 0.23207 0.72932 0.0
H897 H 0.98644 0.30337 0.7224 0.0
H898 H 0.91563 0.39329 0.74475 0.0
H899 H 0.94362 0.36182 0.74104 0.0
H900 H 0.91966 0.28991 0.75267 0.0
C901 C 0.98421 0.23788 0.73127 0.0
C902 C 0.97189 0.30027 0.72901 0.0
C903 C 0.00232 0.22156 0.72939 0.0
C904 C 0.90916 0.37524 0.7441 0.0
C905 C 0.92525 0.35711 0.74186 0.0
C906 C 0.93386 0.29293 0.7458 0.0
C907 C 0.98956 0.26166 0.73503 0.0
C908 C 0.97055 0.27934 0.73613 0.0
C909 C 0.91788 0.33334 0.74109 0.0
C910 C 0.9354 0.31417 0.7389 0.0
H911 H 0.04946 0.25837 0.73772 0.0
H912 H 0.01785 0.28689 0.74048 0.0
H913 H 0.94981 0.25961 0.74996 0.0
H914 H 0.85945 0.34197 0.74638 0.0
H915 H 0.88748 0.31017 0.74198 0.0
C916 C 0.93249 0.50145 0.97114 0.0
C917 C 0.92507 0.52481 0.97387 0.0
C918 C 0.91857 0.48242 0.97457 0.0
C919 C 0.86832 0.46756 0.99612 0.0
H920 H 0.86051 0.41329 0.96941 0.0
C921 C 0.789 0.40472 0.99494 0.0
C922 C 0.7934 0.38034 0.99453 0.0
C923 C 0.80709 0.42076 0.99312 0.0
C924 C 0.86279 0.4282 0.97704 0.0
H925 H 0.89743 0.5464 0.98268 0.0
H926 H 0.87284 0.51339 0.98814 0.0
H927 H 0.88853 0.44458 0.96505 0.0
H928 H 0.82019 0.35365 0.9916 0.0
H929 H 0.85192 0.38195 0.98808 0.0
H930 H 0.84185 0.4516 0.00777 0.0
C931 C 0.88959 0.50968 0.98358 0.0
C932 C 0.87886 0.4461 0.97459 0.0
C933 C 0.90355 0.52866 0.98024 0.0
C934 C 0.81628 0.37233 0.99201 0.0
C935 C 0.83439 0.38846 0.98996 0.0
C936 C 0.85212 0.44983 0.99848 0.0
C937 C 0.89688 0.48631 0.98077 0.0
C938 C 0.88148 0.46622 0.98397 0.0
C939 C 0.82996 0.41283 0.99067 0.0
C940 C 0.8489 0.43022 0.98884 0.0
H941 H 0.94885 0.49783 0.96611 0.0
H942 H 0.92483 0.46466 0.97238 0.0
H943 H 0.8703 0.48248 0.00376 0.0
H944 H 0.7716 0.41152 0.99688 0.0
H945 H 0.80316 0.43945 0.99353 0.0
C946 C 0.65422 0.416 0.23695 0.0
C947 C 0.66096 0.43401 0.22839 0.0
C948 C 0.67126 0.40255 0.24394 0.0
C949 C 0.73119 0.38175 0.24007 0.0
H950 H 0.72496 0.35901 0.27752 0.0
C951 C 0.79425 0.3118 0.26039 0.0
C952 C 0.78348 0.29275 0.26641 0.0
C953 C 0.78206 0.33282 0.25866 0.0
C954 C 0.72691 0.36515 0.26704 0.0
H955 H 0.6908 0.45254 0.22078 0.0
H956 H 0.72064 0.42901 0.23302 0.0
H957 H 0.69804 0.38917 0.26887 0.0
H958 H 0.75212 0.28118 0.27617 0.0
H959 H 0.73046 0.3176 0.27273 0.0
H960 H 0.75917 0.35714 0.23784 0.0
C961 C 0.70215 0.42526 0.23426 0.0
C962 C 0.71154 0.38244 0.26211 0.0
C963 C 0.6851 0.43881 0.22733 0.0
C964 C 0.76084 0.29561 0.27149 0.0
C965 C 0.74849 0.31655 0.26957 0.0
C966 C 0.74641 0.3644 0.24494 0.0
C967 C 0.69539 0.40676 0.24246 0.0
C968 C 0.71327 0.39059 0.24847 0.0
C969 C 0.75868 0.33511 0.26269 0.0
C970 C 0.74422 0.35556 0.25838 0.0
H971 H 0.63574 0.41212 0.23812 0.0
H972 H 0.6655 0.38827 0.25007 0.0
H973 H 0.73274 0.38738 0.22943 0.0
H974 H 0.81184 0.31021 0.25657 0.0
H975 H 0.79069 0.34698 0.25368 0.0
C976 C 0.19429 0.98831 0.40836 0.0
C977 C 0.20896 0.99712 0.39842 0.0
C978 C 0.20399 0.97834 0.42047 0.0
C979 C 0.25996 0.97677 0.44284 0.0
H980 H 0.22554 0.9291 0.46125 0.0
C981 C 0.29368 0.92965 0.49332 0.0
C982 C 0.27843 0.93247 0.50448 0.0
C983 C 0.28661 0.93651 0.47979 0.0
C984 C 0.23532 0.94238 0.45617 0.0
H985 H 0.24518 0.00169 0.393 0.0
H986 H 0.26228 0.98325 0.41386 0.0
H987 H 0.21103 0.94128 0.4381 0.0
H988 H 0.24384 0.94452 0.51022 0.0
H989 H 0.23129 0.95582 0.48646 0.0
H990 H 0.28455 0.97721 0.46092 0.0
C991 C 0.24327 0.98471 0.41259 0.0
C992 C 0.22696 0.94953 0.44296 0.0
C993 C 0.23353 0.9951 0.40057 0.0
C994 C 0.25601 0.94225 0.50185 0.0
C995 C 0.24877 0.94858 0.48827 0.0
C996 C 0.26857 0.96922 0.45593 0.0
C997 C 0.22864 0.97655 0.42284 0.0
C998 C 0.23886 0.96722 0.43624 0.0
C999 C 0.26399 0.94574 0.47714 0.0
C1000 C 0.25605 0.95233 0.46281 0.0
H1001 H 0.17529 0.99002 0.40706 0.0
H1002 H 0.19208 0.97281 0.4282 0.0
H1003 H 0.26947 0.99067 0.43816 0.0
H1004 H 0.31107 0.92221 0.49506 0.0
H1005 H 0.29859 0.93418 0.47132 0.0
C1006 C 0.09103 0.73628 0.653 0.0
C1007 C 0.09359 0.71213 0.64922 0.0
C1008 C 0.10287 0.74649 0.66522 0.0
C1009 C 0.13933 0.76551 0.68826 0.0
H1010 H 0.13976 0.7288 0.72156 0.0
C1011 C 0.19501 0.79045 0.74044 0.0
C1012 C 0.18458 0.78631 0.75319 0.0
C1013 C 0.18363 0.7831 0.72743 0.0
C1014 C 0.13964 0.7394 0.7124 0.0
H1015 H 0.11079 0.67986 0.65528 0.0
H1016 H 0.13175 0.69772 0.67632 0.0
H1017 H 0.12075 0.71279 0.69943 0.0
H1018 H 0.15351 0.77219 0.76222 0.0
H1019 H 0.13366 0.75972 0.73962 0.0
H1020 H 0.15796 0.79231 0.70141 0.0
C1021 C 0.12041 0.70874 0.66994 0.0
C1022 C 0.129 0.73007 0.69966 0.0
C1023 C 0.10861 0.69856 0.65777 0.0
C1024 C 0.16219 0.77543 0.75263 0.0
C1025 C 0.15084 0.76817 0.73966 0.0
C1026 C 0.15005 0.77486 0.70105 0.0
C1027 C 0.11743 0.73272 0.67393 0.0
C1028 C 0.12877 0.74296 0.68743 0.0
C1029 C 0.1616 0.77151 0.72692 0.0
C1030 C 0.15026 0.7619 0.71327 0.0
H1031 H 0.07977 0.74727 0.64656 0.0
H1032 H 0.10011 0.76499 0.66805 0.0
H1033 H 0.13956 0.77581 0.67899 0.0
H1034 H 0.21223 0.79882 0.74051 0.0
H1035 H 0.19243 0.78581 0.7178 0.0
C1036 C 0.46273 0.61291 0.9034 0.0
C1037 C 0.44737 0.59975 0.89382 0.0
C1038 C 0.45424 0.62454 0.91544 0.0
C1039 C 0.40278 0.62568 0.93819 0.0
H1040 H 0.43201 0.68444 0.95333 0.0
C1041 C 0.36635 0.68523 0.98372 0.0
C1042 C 0.38288 0.6917 0.99491 0.0
C1043 C 0.37366 0.67391 0.97125 0.0
C1044 C 0.42378 0.66798 0.94923 0.0
H1045 H 0.41106 0.58877 0.88905 0.0
H1046 H 0.3959 0.60988 0.90978 0.0
H1047 H 0.4452 0.66573 0.9314 0.0
H1048 H 0.42002 0.6915 0.00177 0.0
H1049 H 0.4328 0.67222 0.97979 0.0
H1050 H 0.38088 0.62855 0.95593 0.0
C1051 C 0.41466 0.61068 0.90829 0.0
C1052 C 0.43139 0.65715 0.9367 0.0
C1053 C 0.42327 0.59871 0.89636 0.0
C1054 C 0.40686 0.68667 0.99335 0.0
C1055 C 0.4142 0.67576 0.98077 0.0
C1056 C 0.3949 0.63676 0.95059 0.0
C1057 C 0.43008 0.6236 0.91807 0.0
C1058 C 0.42119 0.6357 0.93108 0.0
C1059 C 0.39766 0.66928 0.96962 0.0
C1060 C 0.40551 0.65787 0.95629 0.0
H1061 H 0.48146 0.61369 0.90178 0.0
H1062 H 0.46678 0.63382 0.92283 0.0
H1063 H 0.39475 0.609 0.93438 0.0
H1064 H 0.34774 0.68879 0.98463 0.0
H1065 H 0.3606 0.66915 0.96276 0.0
C1066 C 0.54365 0.93977 0.14628 0.0
C1067 C 0.53384 0.9599 0.1404 0.0
C1068 C 0.53243 0.92875 0.15691 0.0
C1069 C 0.48858 0.9405 0.18407 0.0
H1070 H 0.49434 0.87314 0.18814 0.0
C1071 C 0.44617 0.89011 0.22839 0.0
C1072 C 0.46232 0.87623 0.23599 0.0
C1073 C 0.45252 0.90003 0.21592 0.0
C1074 C 0.49258 0.89197 0.1871 0.0
H1075 H 0.50415 0.98373 0.14056 0.0
H1076 H 0.48411 0.96409 0.15882 0.0
H1077 H 0.50918 0.89049 0.16739 0.0
H1078 H 0.49763 0.86162 0.23639 0.0
H1079 H 0.50844 0.87853 0.2146 0.0
H1080 H 0.47176 0.94174 0.20381 0.0
C1081 C 0.50082 0.95718 0.15556 0.0
C1082 C 0.5012 0.90197 0.17527 0.0
C1083 C 0.51222 0.96837 0.14505 0.0
C1084 C 0.4848 0.87231 0.23082 0.0
C1085 C 0.49096 0.88184 0.21829 0.0
C1086 C 0.47965 0.93041 0.19581 0.0
C1087 C 0.51096 0.93742 0.1618 0.0
C1088 C 0.49979 0.92645 0.17373 0.0
C1089 C 0.47493 0.8958 0.21072 0.0
C1090 C 0.48202 0.90614 0.19758 0.0
H1091 H 0.56045 0.93305 0.14301 0.0
H1092 H 0.54106 0.91388 0.16161 0.0
H1093 H 0.48743 0.95944 0.18339 0.0
H1094 H 0.42874 0.89344 0.23212 0.0
H1095 H 0.43986 0.91074 0.21024 0.0
C1096 C 0.06603 0.72611 0.9181 0.0
C1097 C 0.06563 0.70128 0.91753 0.0
C1098 C 0.07717 0.73816 0.90777 0.0
C1099 C 0.09061 0.73104 0.8709 0.0
H1100 H 0.14188 0.77617 0.8789 0.0
C1101 C 0.15397 0.75175 0.82877 0.0
C1102 C 0.16321 0.77464 0.82812 0.0
C1103 C 0.1402 0.74606 0.83981 0.0
C1104 C 0.12726 0.76399 0.87648 0.0
H1105 H 0.07652 0.66965 0.9058 0.0
H1106 H 0.09561 0.69064 0.88776 0.0
H1107 H 0.12152 0.76026 0.89848 0.0
H1108 H 0.16505 0.80967 0.83855 0.0
H1109 H 0.14052 0.79974 0.85793 0.0
H1110 H 0.09607 0.73453 0.84902 0.0
C1111 C 0.08753 0.70076 0.89622 0.0
C1112 C 0.11571 0.75484 0.88769 0.0
C1113 C 0.07681 0.68877 0.90661 0.0
C1114 C 0.15814 0.79187 0.83876 0.0
C1115 C 0.14422 0.78615 0.84988 0.0
C1116 C 0.10188 0.74035 0.85974 0.0
C1117 C 0.08758 0.72552 0.8966 0.0
C1118 C 0.0978 0.73774 0.88497 0.0
C1119 C 0.1351 0.76313 0.85051 0.0
C1120 C 0.12089 0.7563 0.86238 0.0
H1121 H 0.05755 0.73615 0.92642 0.0
H1122 H 0.077 0.75728 0.90826 0.0
H1123 H 0.07655 0.71818 0.86854 0.0
H1124 H 0.15761 0.73797 0.82082 0.0
H1125 H 0.13399 0.72802 0.8401 0.0
C1126 C 0.47632 0.58822 0.15812 0.0
C1127 C 0.4841 0.56604 0.15296 0.0
C1128 C 0.46221 0.60224 0.14946 0.0
C1129 C 0.42517 0.6014 0.11574 0.0
H1130 H 0.44533 0.66678 0.11556 0.0
C1131 C 0.3829 0.66771 0.07721 0.0
C1132 C 0.39935 0.68109 0.07042 0.0
C1133 C 0.39029 0.6542 0.08856 0.0
C1134 C 0.43944 0.64858 0.1155 0.0
H1135 H 0.48271 0.54102 0.13475 0.0
H1136 H 0.45821 0.56547 0.11965 0.0
H1137 H 0.46312 0.64154 0.13307 0.0
H1138 H 0.43637 0.69092 0.07029 0.0
H1139 H 0.44913 0.6675 0.08991 0.0
H1140 H 0.40217 0.60833 0.09774 0.0
C1141 C 0.46269 0.5719 0.13045 0.0
C1142 C 0.44945 0.63417 0.12564 0.0
C1143 C 0.47678 0.55788 0.13911 0.0
C1144 C 0.42321 0.68085 0.07527 0.0
C1145 C 0.43053 0.66755 0.08661 0.0
C1146 C 0.41509 0.61588 0.10559 0.0
C1147 C 0.45557 0.59441 0.13544 0.0
C1148 C 0.44282 0.61027 0.1257 0.0
C1149 C 0.4142 0.65406 0.09339 0.0
C1150 C 0.42255 0.63946 0.10516 0.0
H1151 H 0.48132 0.59484 0.16882 0.0
H1152 H 0.45672 0.61935 0.15369 0.0
H1153 H 0.41947 0.58314 0.11561 0.0
H1154 H 0.36439 0.66755 0.07371 0.0
H1155 H 0.37731 0.64402 0.09361 0.0
C1156 C 0.55376 0.96071 0.3985 0.0
C1157 C 0.54511 0.96267 0.41212 0.0
C1158 C 0.53989 0.9507 0.38711 0.0
C1159 C 0.4914 0.90987 0.3773 0.0
H1160 H 0.48996 0.94143 0.34201 0.0
C1161 C 0.4407 0.87198 0.32596 0.0
C1162 C 0.45273 0.87323 0.31344 0.0
C1163 C 0.44945 0.88386 0.33852 0.0
C1164 C 0.4903 0.93231 0.35175 0.0
H1165 H 0.5152 0.95559 0.42451 0.0
H1166 H 0.4908 0.93763 0.4044 0.0
H1167 H 0.50969 0.96036 0.36322 0.0
H1168 H 0.48347 0.88787 0.30436 0.0
H1169 H 0.49886 0.90822 0.32621 0.0
H1170 H 0.47264 0.88144 0.3657 0.0
C1171 C 0.50839 0.94395 0.40267 0.0
C1172 C 0.50152 0.9432 0.3639 0.0
C1173 C 0.52225 0.95427 0.41412 0.0
C1174 C 0.47369 0.8866 0.31377 0.0
C1175 C 0.48242 0.89843 0.3263 0.0
C1176 C 0.48025 0.89887 0.36509 0.0
C1177 C 0.51705 0.94231 0.38903 0.0
C1178 C 0.50265 0.93187 0.3767 0.0
C1179 C 0.4704 0.89726 0.33882 0.0
C1180 C 0.48007 0.90976 0.35211 0.0
H1181 H 0.57116 0.96735 0.39659 0.0
H1182 H 0.54712 0.94941 0.37675 0.0
H1183 H 0.49213 0.90072 0.38704 0.0
H1184 H 0.42445 0.86186 0.32606 0.0
H1185 H 0.43969 0.88277 0.34796 0.0
C1186 C 0.21196 0.06866 0.67203 0.0
C1187 C 0.18898 0.06116 0.67457 0.0
C1188 C 0.22581 0.05532 0.66282 0.0
C1189 C 0.22876 0.99644 0.64306 0.0
H1190 H 0.26139 0.03141 0.61594 0.0
C1191 C 0.24353 0.96066 0.58674 0.0
C1192 C 0.26672 0.96059 0.58226 0.0
C1193 C 0.23821 0.97238 0.59947 0.0
C1194 C 0.2527 0.02144 0.62359 0.0
H1195 H 0.16316 0.03302 0.67008 0.0
H1196 H 0.18674 0.01034 0.65373 0.0
H1197 H 0.24449 0.05256 0.63612 0.0
H1198 H 0.30248 0.97319 0.58748 0.0
H1199 H 0.29282 0.99465 0.60972 0.0
H1200 H 0.23565 0.96553 0.62992 0.0
C1201 C 0.19436 0.02631 0.65894 0.0
C1202 C 0.24306 0.0335 0.63519 0.0
C1203 C 0.18063 0.03952 0.66819 0.0
C1204 C 0.28446 0.97296 0.59068 0.0
C1205 C 0.27897 0.98519 0.60336 0.0
C1206 C 0.23805 0.98449 0.63137 0.0
C1207 C 0.21698 0.03421 0.65591 0.0
C1208 C 0.23036 0.0212 0.64486 0.0
C1209 C 0.25584 0.98467 0.60792 0.0
C1210 C 0.24956 0.99695 0.62136 0.0
H1211 H 0.21891 0.0853 0.67671 0.0
H1212 H 0.24327 0.06179 0.6609 0.0
H1213 H 0.21968 0.98629 0.65046 0.0
H1214 H 0.22948 0.95121 0.58055 0.0
H1215 H 0.2202 0.97195 0.60271 0.0
C1216 C 0.58839 0.46862 0.89056 0.0
C1217 C 0.58382 0.45959 0.87654 0.0
C1218 C 0.60089 0.45547 0.90039 0.0
C1219 C 0.61814 0.39552 0.90899 0.0
H1220 H 0.66396 0.42969 0.93446 0.0
C1221 C 0.67816 0.35436 0.95378 0.0
C1222 C 0.67957 0.36793 0.96671 0.0
C1223 C 0.66631 0.36306 0.94178 0.0
C1224 C 0.65116 0.41991 0.92746 0.0
H1225 H 0.58844 0.4293 0.86197 0.0
H1226 H 0.61042 0.4061 0.87934 0.0
H1227 H 0.64452 0.44961 0.91501 0.0
H1228 H 0.66839 0.4005 0.97739 0.0
H1229 H 0.64785 0.41544 0.95664 0.0
H1230 H 0.62483 0.36581 0.9217 0.0
C1231 C 0.60423 0.42348 0.88261 0.0
C1232 C 0.64002 0.43131 0.91632 0.0
C1233 C 0.59168 0.43675 0.87269 0.0
C1234 C 0.66792 0.3897 0.96757 0.0
C1235 C 0.65622 0.39835 0.95565 0.0
C1236 C 0.62943 0.384 0.92018 0.0
C1237 C 0.60916 0.43286 0.89653 0.0
C1238 C 0.6229 0.4195 0.90719 0.0
C1239 C 0.65584 0.38548 0.94255 0.0
C1240 C 0.64555 0.39634 0.92975 0.0
H1241 H 0.58198 0.48581 0.89404 0.0
H1242 H 0.60384 0.46297 0.91112 0.0
H1243 H 0.60499 0.38597 0.90212 0.0
H1244 H 0.68696 0.3375 0.9528 0.0
H1245 H 0.6662 0.35276 0.93179 0.0
C1246 C 0.69759 0.07131 0.14694 0.0
C1247 C 0.69349 0.08201 0.13401 0.0
C1248 C 0.71062 0.083 0.15818 0.0
C1249 C 0.72731 0.14268 0.1723 0.0
H1250 H 0.76918 0.10903 0.19779 0.0
C1251 C 0.77908 0.18942 0.22033 0.0
C1252 C 0.77945 0.17793 0.23311 0.0
C1253 C 0.77034 0.17789 0.20768 0.0
C1254 C 0.75741 0.11862 0.19082 0.0
H1255 H 0.70062 0.11311 0.12262 0.0
H1256 H 0.72346 0.1336 0.14233 0.0
H1257 H 0.7518 0.08854 0.17633 0.0
H1258 H 0.77094 0.14524 0.24255 0.0
H1259 H 0.75552 0.12517 0.22049 0.0
H1260 H 0.73269 0.17268 0.18689 0.0
C1261 C 0.7163 0.11623 0.14378 0.0
C1262 C 0.74749 0.1069 0.17852 0.0
C1263 C 0.70325 0.10449 0.13249 0.0
C1264 C 0.77094 0.15459 0.23292 0.0
C1265 C 0.76226 0.14304 0.22025 0.0
C1266 C 0.73727 0.15441 0.1846 0.0
C1267 C 0.71987 0.10571 0.15681 0.0
C1268 C 0.73207 0.1187 0.16921 0.0
C1269 C 0.76183 0.15457 0.20749 0.0
C1270 C 0.75219 0.14243 0.19408 0.0
H1271 H 0.68993 0.05425 0.14861 0.0
H1272 H 0.71266 0.07455 0.16813 0.0
H1273 H 0.71524 0.15219 0.16547 0.0
H1274 H 0.78555 0.20739 0.22007 0.0
H1275 H 0.77047 0.18716 0.19801 0.0
C1276 C 0.06083 0.13378 0.40216 0.0
C1277 C 0.07534 0.14498 0.39301 0.0
C1278 C 0.04944 0.14695 0.41259 0.0
C1279 C 0.02718 0.20501 0.42314 0.0
H1280 H 0.03601 0.18343 0.46115 0.0
C1281 C 0.98812 0.25419 0.47209 0.0
C1282 C 0.97917 0.23976 0.48214 0.0
C1283 C 0.00085 0.24429 0.46097 0.0
C1284 C 0.03309 0.18958 0.45059 0.0
H1285 H 0.08866 0.17876 0.38723 0.0
H1286 H 0.06828 0.20195 0.40544 0.0
H1287 H 0.0553 0.16281 0.44183 0.0
H1288 H 0.97601 0.20362 0.48821 0.0
H1289 H 0.99737 0.18647 0.46882 0.0
H1290 H 0.00429 0.23133 0.43182 0.0
C1291 C 0.06593 0.18295 0.40454 0.0
C1292 C 0.04424 0.17779 0.43954 0.0
C1293 C 0.07765 0.16971 0.39421 0.0
C1294 C 0.98292 0.21532 0.48076 0.0
C1295 C 0.99535 0.20546 0.46966 0.0
C1296 C 0.01571 0.21668 0.4342 0.0
C1297 C 0.05209 0.17162 0.41399 0.0
C1298 C 0.04114 0.18516 0.42569 0.0
C1299 C 0.0047 0.21978 0.45968 0.0
C1300 C 0.01823 0.20883 0.44803 0.0
H1301 H 0.05889 0.11474 0.40156 0.0
H1302 H 0.03869 0.13782 0.41968 0.0
H1303 H 0.02453 0.211 0.41252 0.0
H1304 H 0.98549 0.2731 0.47287 0.0
H1305 H 0.00792 0.25587 0.45353 0.0
C1306 C 0.91887 0.58027 0.62994 0.0
C1307 C 0.94368 0.57953 0.6303 0.0
C1308 C 0.9065 0.56941 0.64024 0.0
C1309 C 0.91314 0.55508 0.67685 0.0
H1310 H 0.86763 0.50421 0.66865 0.0
C1311 C 0.89191 0.49166 0.7188 0.0
C1312 C 0.86897 0.48248 0.7194 0.0
C1313 C 0.89771 0.5054 0.70778 0.0
C1314 C 0.87991 0.51873 0.67112 0.0
H1315 H 0.97496 0.567 0.64167 0.0
H1316 H 0.95343 0.54848 0.65971 0.0
H1317 H 0.88372 0.52467 0.64915 0.0
H1318 H 0.83401 0.4807 0.70889 0.0
H1319 H 0.84413 0.50522 0.68956 0.0
H1320 H 0.90958 0.54944 0.6987 0.0
C1321 C 0.94357 0.55718 0.6514 0.0
C1322 C 0.88915 0.53034 0.65997 0.0
C1323 C 0.95585 0.5676 0.64102 0.0
C1324 C 0.85184 0.48754 0.70871 0.0
C1325 C 0.85767 0.50147 0.69762 0.0
C1326 C 0.90373 0.54378 0.68796 0.0
C1327 C 0.91884 0.55818 0.65119 0.0
C1328 C 0.90639 0.54809 0.66277 0.0
C1329 C 0.88072 0.51058 0.69706 0.0
C1330 C 0.88764 0.52489 0.68525 0.0
H1331 H 0.90911 0.58937 0.62177 0.0
H1332 H 0.88742 0.57039 0.6399 0.0
H1333 H 0.92616 0.569 0.67926 0.0
H1334 H 0.90563 0.48799 0.72678 0.0
H1335 H 0.91578 0.51157 0.70754 0.0
C1336 C 0.67643 0.12024 0.40038 0.0
C1337 C 0.68703 0.10014 0.40595 0.0
C1338 C 0.68668 0.13177 0.38956 0.0
C1339 C 0.74275 0.13638 0.37111 0.0
H1340 H 0.7017 0.15856 0.3406 0.0
C1341 C 0.77539 0.15336 0.31634 0.0
C1342 C 0.76883 0.17457 0.31028 0.0
C1343 C 0.76541 0.14665 0.32863 0.0
C1344 C 0.71335 0.15272 0.34913 0.0
H1345 H 0.71722 0.07694 0.40473 0.0
H1346 H 0.7345 0.09635 0.38556 0.0
H1347 H 0.68449 0.14236 0.36105 0.0
H1348 H 0.74639 0.20525 0.31228 0.0
H1349 H 0.72844 0.19314 0.33374 0.0
H1350 H 0.77156 0.1459 0.35886 0.0
C1351 C 0.71847 0.10353 0.38969 0.0
C1352 C 0.70352 0.14349 0.36089 0.0
C1353 C 0.70834 0.09214 0.40058 0.0
C1354 C 0.75179 0.18881 0.31671 0.0
C1355 C 0.7415 0.18188 0.32895 0.0
C1356 C 0.75252 0.14534 0.3593 0.0
C1357 C 0.70772 0.12343 0.38397 0.0
C1358 C 0.7181 0.13487 0.37194 0.0
C1359 C 0.7484 0.16082 0.33508 0.0
C1360 C 0.73793 0.15328 0.3481 0.0
H1361 H 0.65988 0.12679 0.40413 0.0
H1362 H 0.67804 0.1472 0.38556 0.0
H1363 H 0.75456 0.13048 0.37954 0.0
H1364 H 0.7885 0.14199 0.31169 0.0
H1365 H 0.77084 0.13019 0.33303 0.0
C1366 C 0.0689 0.2166 0.64419 0.0
C1367 C 0.05893 0.21756 0.65744 0.0
C1368 C 0.05809 0.22789 0.63286 0.0
C1369 C 0.00018 0.24945 0.61993 0.0
H1370 H 0.0373 0.27659 0.59168 0.0
C1371 C 0.95738 0.28748 0.56936 0.0
C1372 C 0.96696 0.27872 0.55675 0.0
C1373 C 0.96902 0.284 0.58247 0.0
C1374 C 0.02672 0.26909 0.5995 0.0
H1375 H 0.03019 0.23175 0.66934 0.0
H1376 H 0.01133 0.25173 0.64955 0.0
H1377 H 0.05693 0.26355 0.61342 0.0
H1378 H 0.99671 0.26023 0.54801 0.0
H1379 H 0.01699 0.2543 0.57085 0.0
H1380 H 0.97001 0.25473 0.60588 0.0
C1381 C 0.02734 0.24189 0.64787 0.0
C1382 C 0.03794 0.26155 0.61192 0.0
C1383 C 0.03813 0.23048 0.6592 0.0
C1384 C 0.98879 0.26713 0.55752 0.0
C1385 C 0.00051 0.26387 0.5706 0.0
C1386 C 0.98894 0.25715 0.60754 0.0
C1387 C 0.03708 0.24053 0.63452 0.0
C1388 C 0.02488 0.25111 0.62213 0.0
C1389 C 0.99059 0.27195 0.58322 0.0
C1390 C 0.00216 0.26653 0.59706 0.0
H1391 H 0.08469 0.20645 0.64242 0.0
H1392 H 0.06583 0.22603 0.62268 0.0
H1393 H 0.98959 0.24125 0.62748 0.0
H1394 H 0.94059 0.29651 0.56913 0.0
H1395 H 0.96106 0.29055 0.59204 0.0
C1396 C 0.9184 0.57535 0.88428 0.0
C1397 C 0.92099 0.5638 0.897 0.0
C1398 C 0.90817 0.56368 0.87207 0.0
C1399 C 0.87116 0.51263 0.85865 0.0
H1400 H 0.9053 0.5184 0.82469 0.0
C1401 C 0.85215 0.45341 0.80715 0.0
C1402 C 0.85425 0.46396 0.79421 0.0
C1403 C 0.85841 0.46598 0.81997 0.0
C1404 C 0.8953 0.51686 0.834 0.0
H1405 H 0.91391 0.53128 0.90702 0.0
H1406 H 0.89616 0.51078 0.88558 0.0
H1407 H 0.91913 0.53989 0.84652 0.0
H1408 H 0.86347 0.49635 0.78462 0.0
H1409 H 0.87383 0.51831 0.80687 0.0
H1410 H 0.84729 0.48954 0.84605 0.0
C1411 C 0.90202 0.5289 0.88511 0.0
C1412 C 0.90327 0.52917 0.84653 0.0
C1413 C 0.91237 0.54056 0.89734 0.0
C1414 C 0.86193 0.48757 0.79439 0.0
C1415 C 0.868 0.50014 0.80716 0.0
C1416 C 0.86308 0.50035 0.84605 0.0
C1417 C 0.90023 0.5402 0.87228 0.0
C1418 C 0.89129 0.52725 0.85899 0.0
C1419 C 0.86676 0.4894 0.8201 0.0
C1420 C 0.87505 0.50238 0.83356 0.0
H1421 H 0.92504 0.59316 0.88363 0.0
H1422 H 0.90676 0.57294 0.86238 0.0
H1423 H 0.86149 0.51093 0.86807 0.0
H1424 H 0.84629 0.43524 0.80737 0.0
H1425 H 0.8574 0.45711 0.82974 0.0
C1426 C 0.61662 0.41552 0.12954 0.0
C1427 C 0.62894 0.41971 0.14274 0.0
C1428 C 0.62728 0.40352 0.11837 0.0
C1429 C 0.68548 0.3895 0.10513 0.0
H1430 H 0.64859 0.3475 0.0786 0.0
C1431 C 0.72407 0.34534 0.05493 0.0
C1432 C 0.71 0.34761 0.04239 0.0
C1433 C 0.71498 0.35087 0.06813 0.0
C1434 C 0.65911 0.3592 0.08592 0.0
H1435 H 0.66203 0.41415 0.15463 0.0
H1436 H 0.68074 0.39307 0.13504 0.0
H1437 H 0.63134 0.3629 0.10021 0.0
H1438 H 0.67514 0.35683 0.0339 0.0
H1439 H 0.65934 0.36637 0.05685 0.0
H1440 H 0.71311 0.38607 0.09067 0.0
C1441 C 0.66286 0.39932 0.13334 0.0
C1442 C 0.64923 0.36806 0.09828 0.0
C1443 C 0.65215 0.41138 0.14455 0.0
C1444 C 0.68648 0.35492 0.04334 0.0
C1445 C 0.67736 0.36024 0.05651 0.0
C1446 C 0.69541 0.38055 0.09278 0.0
C1447 C 0.65056 0.39537 0.1201 0.0
C1448 C 0.66209 0.38377 0.10786 0.0
C1449 C 0.69156 0.35852 0.06903 0.0
C1450 C 0.68211 0.36575 0.08289 0.0
H1451 H 0.59891 0.42214 0.12768 0.0
H1452 H 0.61747 0.40126 0.10824 0.0
H1453 H 0.69579 0.40173 0.11222 0.0
H1454 H 0.74227 0.33975 0.05457 0.0
H1455 H 0.72627 0.34923 0.07762 0.0
loop_
_geom_bond_atom_site_label_1
_geom_bond_atom_site_label_2
_geom_bond_distance
_geom_bond_site_symmetry_2
_ccdc_geom_bond_type
H0 C19 0.949 . S
H1 C20 0.950 . S
H2 C22 0.950 . S
H3 C23 0.950 . S
H4 C25 0.950 . S
H5 C28 0.950 . S
H6 C29 0.950 . S
H7 C31 0.951 . S
H8 C32 0.949 . S
H9 C34 0.949 . S
H10 C35 0.950 . S
H11 C37 0.950 . S
H12 C38 0.950 . S
H13 C40 0.950 . S
H14 C43 0.950 . S
H15 C44 0.950 . S
H16 C46 0.951 . S
H17 C47 0.949 . S
C18 C19 1.376 . S
C18 C23 1.386 . S
C18 C24 1.483 . S
C19 H0 0.949 . S
C19 C18 1.376 . S
C19 C20 1.397 . S
C20 H1 0.950 . S
C20 C19 1.397 . S
C20 C21 1.391 . S
C21 C20 1.391 . S
C21 C22 1.405 . S
C22 H2 0.950 . S
C22 C21 1.405 . S
C22 C23 1.367 . S
C23 H3 0.950 . S
C23 C18 1.386 . S
C23 C22 1.367 . S
C24 C18 1.483 . S
C24 C25 1.382 . S
C24 C26 1.403 . S
C25 H4 0.950 . S
C25 C24 1.382 . S
C25 C41 1.411 . S
C26 C24 1.403 . S
C26 C27 1.489 . S
C26 C40 1.411 . S
C27 C26 1.489 . S
C27 C28 1.383 . S
C27 C32 1.382 . S
C28 H5 0.950 . S
C28 C27 1.383 . S
C28 C29 1.395 . S
C29 H6 0.950 . S
C29 C28 1.395 . S
C29 C30 1.288 . S
C30 C29 1.288 . S
C30 C31 1.392 . S
C31 H7 0.951 . S
C31 C30 1.392 . S
C31 C32 1.392 . S
C32 H8 0.949 . S
C32 C27 1.382 . S
C32 C31 1.392 . S
C33 C34 1.376 1_545 S
C33 C38 1.386 . S
C33 C39 1.483 . S
C34 H9 0.949 . S
C34 C33 1.376 1_565 S
C34 C35 1.397 . S
C35 H10 0.950 . S
C35 C34 1.397 . S
C35 C36 1.391 . S
C36 C35 1.391 . S
C36 C37 1.405 1_565 S
C37 H11 0.950 . S
C37 C36 1.405 1_545 S
C37 C38 1.367 . S
C38 H12 0.950 . S
C38 C33 1.386 . S
C38 C37 1.367 . S
C39 C33 1.483 . S
C39 C40 1.382 . S
C39 C41 1.403 . S
C40 H13 0.950 . S
C40 C26 1.411 . S
C40 C39 1.382 . S
C41 C25 1.411 . S
C41 C39 1.403 . S
C41 C42 1.489 . S
C42 C41 1.489 . S
C42 C43 1.383 1_545 S
C42 C47 1.382 . S
C43 H14 0.950 . S
C43 C42 1.383 1_565 S
C43 C44 1.395 . S
C44 H15 0.950 . S
C44 C43 1.395 . S
C44 C45 1.288 1_565 S
C45 C44 1.288 1_545 S
C45 C46 1.392 . S
C46 H16 0.951 . S
C46 C45 1.392 . S
C46 C47 1.392 . S
C47 H17 0.949 . S
C47 C42 1.382 . S
C47 C46 1.392 . S
H48 C67 0.949 . S
H49 C68 0.950 . S
H50 C70 0.950 . S
H51 C71 0.950 . S
H52 C73 0.950 . S
H53 C76 0.950 . S
H54 C77 0.950 . S
H55 C79 0.951 . S
H56 C80 0.949 . S
H57 C82 0.949 . S
H58 C83 0.950 . S
H59 C85 0.950 . S
H60 C86 0.950 . S
H61 C88 0.950 . S
H62 C91 0.950 . S
H63 C92 0.950 . S
H64 C94 0.951 . S
H65 C95 0.949 . S
C66 C67 1.376 . S
C66 C71 1.386 1_455 S
C66 C72 1.483 . S
C67 H48 0.949 . S
C67 C66 1.376 . S
C67 C68 1.397 . S
C68 H49 0.950 . S
C68 C67 1.397 . S
C68 C69 1.391 . S
C69 C68 1.391 . S
C69 C70 1.405 1_455 S
C70 H50 0.950 . S
C70 C69 1.405 1_655 S
C70 C71 1.367 . S
C71 H51 0.950 . S
C71 C66 1.386 1_655 S
C71 C70 1.367 . S
C72 C66 1.483 . S
C72 C73 1.382 . S
C72 C74 1.403 . S
C73 H52 0.950 . S
C73 C72 1.382 . S
C73 C89 1.411 . S
C74 C72 1.403 . S
C74 C75 1.489 . S
C74 C88 1.411 . S
C75 C74 1.489 . S
C75 C76 1.383 . S
C75 C80 1.382 1_455 S
C76 H53 0.950 . S
C76 C75 1.383 . S
C76 C77 1.395 1_455 S
C77 H54 0.950 . S
C77 C76 1.395 1_655 S
C77 C78 1.288 . S
C78 C77 1.288 . S
C78 C79 1.392 . S
C79 H55 0.951 . S
C79 C78 1.392 . S
C79 C80 1.392 . S
C80 H56 0.949 . S
C80 C75 1.382 1_655 S
C80 C79 1.392 . S
C81 C82 1.376 . S
C81 C86 1.386 . S
C81 C87 1.483 . S
C82 H57 0.949 . S
C82 C81 1.376 . S
C82 C83 1.397 . S
C83 H58 0.950 . S
C83 C82 1.397 . S
C83 C84 1.391 . S
C84 C83 1.391 . S
C84 C85 1.405 . S
C85 H59 0.950 . S
C85 C84 1.405 . S
C85 C86 1.367 . S
C86 H60 0.950 . S
C86 C81 1.386 . S
C86 C85 1.367 . S
C87 C81 1.483 . S
C87 C88 1.382 . S
C87 C89 1.403 . S
C88 H61 0.950 . S
C88 C74 1.411 . S
C88 C87 1.382 . S
C89 C73 1.411 . S
C89 C87 1.403 . S
C89 C90 1.489 . S
C90 C89 1.489 . S
C90 C91 1.383 . S
C90 C95 1.382 . S
C91 H62 0.950 . S
C91 C90 1.383 . S
C91 C92 1.395 . S
C92 H63 0.950 . S
C92 C91 1.395 . S
C92 C93 1.288 . S
C93 C92 1.288 . S
C93 C94 1.392 . S
C94 H64 0.951 . S
C94 C93 1.392 . S
C94 C95 1.392 . S
C95 H65 0.949 . S
C95 C90 1.382 . S
C95 C94 1.392 . S
H96 C115 0.949 . S
H97 C116 0.950 . S
H98 C118 0.950 . S
H99 C119 0.950 . S
H100 C121 0.950 . S
H101 C124 0.950 . S
H102 C125 0.950 . S
H103 C127 0.951 . S
H104 C128 0.949 . S
H105 C130 0.949 . S
H106 C131 0.950 . S
H107 C133 0.950 . S
H108 C134 0.950 . S
H109 C136 0.950 . S
H110 C139 0.950 . S
H111 C140 0.950 . S
H112 C142 0.951 . S
H113 C143 0.949 . S
C114 C115 1.376 . S
C114 C119 1.386 . S
C114 C120 1.483 . S
C115 H96 0.949 . S
C115 C114 1.376 . S
C115 C116 1.397 . S
C116 H97 0.950 . S
C116 C115 1.397 . S
C116 C117 1.391 . S
C117 C116 1.391 . S
C117 C118 1.405 . S
C118 H98 0.950 . S
C118 C117 1.405 . S
C118 C119 1.367 . S
C119 H99 0.950 . S
C119 C114 1.386 . S
C119 C118 1.367 . S
C120 C114 1.483 . S
C120 C121 1.382 . S
C120 C122 1.403 . S
C121 H100 0.950 . S
C121 C120 1.382 . S
C121 C137 1.411 . S
C122 C120 1.403 . S
C122 C123 1.489 . S
C122 C136 1.411 . S
C123 C122 1.489 . S
C123 C124 1.383 . S
C123 C128 1.382 . S
C124 H101 0.950 . S
C124 C123 1.383 . S
C124 C125 1.395 . S
C125 H102 0.950 . S
C125 C124 1.395 . S
C125 C126 1.288 . S
C126 C125 1.288 . S
C126 C127 1.392 . S
C127 H103 0.951 . S
C127 C126 1.392 . S
C127 C128 1.392 . S
C128 H104 0.949 . S
C128 C123 1.382 . S
C128 C127 1.392 . S
C129 C130 1.376 . S
C129 C134 1.386 . S
C129 C135 1.483 . S
C130 H105 0.949 . S
C130 C129 1.376 . S
C130 C131 1.397 . S
C131 H106 0.950 . S
C131 C130 1.397 . S
C131 C132 1.391 . S
C132 C131 1.391 . S
C132 C133 1.405 . S
C133 H107 0.950 . S
C133 C132 1.405 . S
C133 C134 1.367 . S
C134 H108 0.950 . S
C134 C129 1.386 . S
C134 C133 1.367 . S
C135 C129 1.483 . S
C135 C136 1.382 . S
C135 C137 1.403 . S
C136 H109 0.950 . S
C136 C122 1.411 . S
C136 C135 1.382 . S
C137 C121 1.411 . S
C137 C135 1.403 . S
C137 C138 1.489 . S
C138 C137 1.489 . S
C138 C139 1.383 . S
C138 C143 1.382 . S
C139 H110 0.950 . S
C139 C138 1.383 . S
C139 C140 1.395 . S
C140 H111 0.950 . S
C140 C139 1.395 . S
C140 C141 1.288 . S
C141 C140 1.288 . S
C141 C142 1.392 . S
C142 H112 0.951 . S
C142 C141 1.392 . S
C142 C143 1.392 . S
C143 H113 0.949 . S
C143 C138 1.382 . S
C143 C142 1.392 . S
H144 C163 0.949 . S
H145 C164 0.950 . S
H146 C166 0.950 . S
H147 C167 0.950 . S
H148 C169 0.950 . S
H149 C172 0.950 . S
H150 C173 0.950 . S
H151 C175 0.951 . S
H152 C176 0.949 . S
H153 C178 0.949 . S
H154 C179 0.950 . S
H155 C181 0.950 . S
H156 C182 0.950 . S
H157 C184 0.950 . S
H158 C187 0.950 . S
H159 C188 0.950 . S
H160 C190 0.951 . S
H161 C191 0.949 . S
C162 C163 1.376 . S
C162 C167 1.386 . S
C162 C168 1.483 . S
C163 H144 0.949 . S
C163 C162 1.376 . S
C163 C164 1.397 . S
C164 H145 0.950 . S
C164 C163 1.397 . S
C164 C165 1.391 . S
C165 C164 1.391 . S
C165 C166 1.405 . S
C166 H146 0.950 . S
C166 C165 1.405 . S
C166 C167 1.367 . S
C167 H147 0.950 . S
C167 C162 1.386 . S
C167 C166 1.367 . S
C168 C162 1.483 . S
C168 C169 1.382 . S
C168 C170 1.403 . S
C169 H148 0.950 . S
C169 C168 1.382 . S
C169 C185 1.411 1_565 S
C170 C168 1.403 . S
C170 C171 1.489 . S
C170 C184 1.411 1_565 S
C171 C170 1.489 . S
C171 C172 1.383 . S
C171 C176 1.382 . S
C172 H149 0.950 . S
C172 C171 1.383 . S
C172 C173 1.395 . S
C173 H150 0.950 . S
C173 C172 1.395 . S
C173 C174 1.288 . S
C174 C173 1.288 . S
C174 C175 1.392 . S
C175 H151 0.951 . S
C175 C174 1.392 . S
C175 C176 1.392 . S
C176 H152 0.949 . S
C176 C171 1.382 . S
C176 C175 1.392 . S
C177 C178 1.376 . S
C177 C182 1.386 . S
C177 C183 1.483 . S
C178 H153 0.949 . S
C178 C177 1.376 . S
C178 C179 1.397 . S
C179 H154 0.950 . S
C179 C178 1.397 . S
C179 C180 1.391 . S
C180 C179 1.391 . S
C180 C181 1.405 . S
C181 H155 0.950 . S
C181 C180 1.405 . S
C181 C182 1.367 . S
C182 H156 0.950 . S
C182 C177 1.386 . S
C182 C181 1.367 . S
C183 C177 1.483 . S
C183 C184 1.382 . S
C183 C185 1.403 . S
C184 H157 0.950 . S
C184 C170 1.411 1_545 S
C184 C183 1.382 . S
C185 C169 1.411 1_545 S
C185 C183 1.403 . S
C185 C186 1.489 . S
C186 C185 1.489 . S
C186 C187 1.383 . S
C186 C191 1.382 . S
C187 H158 0.950 . S
C187 C186 1.383 . S
C187 C188 1.395 . S
C188 H159 0.950 . S
C188 C187 1.395 . S
C188 C189 1.288 . S
C189 C188 1.288 . S
C189 C190 1.392 . S
C190 H160 0.951 . S
C190 C189 1.392 . S
C190 C191 1.392 . S
C191 H161 0.949 . S
C191 C186 1.382 . S
C191 C190 1.392 . S
H192 C211 0.949 . S
H193 C212 0.950 . S
H194 C214 0.950 . S
H195 C215 0.950 . S
H196 C217 0.950 . S
H197 C220 0.950 . S
H198 C221 0.950 . S
H199 C223 0.951 . S
H200 C224 0.949 . S
H201 C226 0.949 . S
H202 C227 0.950 . S
H203 C229 0.950 . S
H204 C230 0.950 . S
H205 C232 0.950 . S
H206 C235 0.950 . S
H207 C236 0.950 . S
H208 C238 0.951 . S
H209 C239 0.949 . S
C210 C211 1.376 . S
C210 C215 1.386 . S
C210 C216 1.483 . S
C211 H192 0.949 . S
C211 C210 1.376 . S
C211 C212 1.397 . S
C212 H193 0.950 . S
C212 C211 1.397 . S
C212 C213 1.391 . S
C213 C212 1.391 . S
C213 C214 1.405 . S
C214 H194 0.950 . S
C214 C213 1.405 . S
C214 C215 1.367 . S
C215 H195 0.950 . S
C215 C210 1.386 . S
C215 C214 1.367 . S
C216 C210 1.483 . S
C216 C217 1.382 1_455 S
C216 C218 1.403 . S
C217 H196 0.950 . S
C217 C216 1.382 1_655 S
C217 C233 1.411 . S
C218 C216 1.403 . S
C218 C219 1.489 . S
C218 C232 1.411 . S
C219 C218 1.489 . S
C219 C220 1.383 . S
C219 C224 1.382 . S
C220 H197 0.950 . S
C220 C219 1.383 . S
C220 C221 1.395 . S
C221 H198 0.950 . S
C221 C220 1.395 . S
C221 C222 1.288 . S
C222 C221 1.288 . S
C222 C223 1.392 . S
C223 H199 0.951 . S
C223 C222 1.392 . S
C223 C224 1.392 . S
C224 H200 0.949 . S
C224 C219 1.382 . S
C224 C223 1.392 . S
C225 C226 1.376 . S
C225 C230 1.386 . S
C225 C231 1.483 . S
C226 H201 0.949 . S
C226 C225 1.376 . S
C226 C227 1.397 . S
C227 H202 0.950 . S
C227 C226 1.397 . S
C227 C228 1.391 . S
C228 C227 1.391 . S
C228 C229 1.405 . S
C229 H203 0.950 . S
C229 C228 1.405 . S
C229 C230 1.367 . S
C230 H204 0.950 . S
C230 C225 1.386 . S
C230 C229 1.367 . S
C231 C225 1.483 . S
C231 C232 1.382 1_655 S
C231 C233 1.403 . S
C232 H205 0.950 . S
C232 C218 1.411 . S
C232 C231 1.382 1_455 S
C233 C217 1.411 . S
C233 C231 1.403 . S
C233 C234 1.489 . S
C234 C233 1.489 . S
C234 C235 1.383 . S
C234 C239 1.382 . S
C235 H206 0.950 . S
C235 C234 1.383 . S
C235 C236 1.395 . S
C236 H207 0.950 . S
C236 C235 1.395 . S
C236 C237 1.288 . S
C237 C236 1.288 . S
C237 C238 1.392 . S
C238 H208 0.951 . S
C238 C237 1.392 . S
C238 C239 1.392 . S
C239 H209 0.949 . S
C239 C234 1.382 . S
C239 C238 1.392 . S
H240 C259 0.949 . S
H241 C260 0.950 . S
H242 C262 0.950 . S
H243 C263 0.950 . S
H244 C265 0.950 . S
H245 C268 0.950 . S
H246 C269 0.950 . S
H247 C271 0.951 . S
H248 C272 0.949 . S
H249 C274 0.949 . S
H250 C275 0.950 . S
H251 C277 0.950 . S
H252 C278 0.950 . S
H253 C280 0.950 . S
H254 C283 0.950 . S
H255 C284 0.950 . S
H256 C286 0.951 . S
H257 C287 0.949 . S
C258 C259 1.376 . S
C258 C263 1.386 . S
C258 C264 1.483 . S
C259 H240 0.949 . S
C259 C258 1.376 . S
C259 C260 1.397 . S
C260 H241 0.950 . S
C260 C259 1.397 . S
C260 C261 1.391 . S
C261 C260 1.391 . S
C261 C262 1.405 . S
C262 H242 0.950 . S
C262 C261 1.405 . S
C262 C263 1.367 . S
C263 H243 0.950 . S
C263 C258 1.386 . S
C263 C262 1.367 . S
C264 C258 1.483 . S
C264 C265 1.382 . S
C264 C266 1.403 . S
C265 H244 0.950 . S
C265 C264 1.382 . S
C265 C281 1.411 . S
C266 C264 1.403 . S
C266 C267 1.489 . S
C266 C280 1.411 . S
C267 C266 1.489 . S
C267 C268 1.383 . S
C267 C272 1.382 . S
C268 H245 0.950 . S
C268 C267 1.383 . S
C268 C269 1.395 . S
C269 H246 0.950 . S
C269 C268 1.395 . S
C269 C270 1.288 . S
C270 C269 1.288 . S
C270 C271 1.392 . S
C271 H247 0.951 . S
C271 C270 1.392 . S
C271 C272 1.392 . S
C272 H248 0.949 . S
C272 C267 1.382 . S
C272 C271 1.392 . S
C273 C274 1.376 . S
C273 C278 1.386 . S
C273 C279 1.483 . S
C274 H249 0.949 . S
C274 C273 1.376 . S
C274 C275 1.397 . S
C275 H250 0.950 . S
C275 C274 1.397 . S
C275 C276 1.391 . S
C276 C275 1.391 . S
C276 C277 1.405 . S
C277 H251 0.950 . S
C277 C276 1.405 . S
C277 C278 1.367 . S
C278 H252 0.950 . S
C278 C273 1.386 . S
C278 C277 1.367 . S
C279 C273 1.483 . S
C279 C280 1.382 . S
C279 C281 1.403 . S
C280 H253 0.950 . S
C280 C266 1.411 . S
C280 C279 1.382 . S
C281 C265 1.411 . S
C281 C279 1.403 . S
C281 C282 1.489 . S
C282 C281 1.489 . S
C282 C283 1.383 . S
C282 C287 1.382 . S
C283 H254 0.950 . S
C283 C282 1.383 . S
C283 C284 1.395 . S
C284 H255 0.950 . S
C284 C283 1.395 . S
C284 C285 1.288 . S
C285 C284 1.288 . S
C285 C286 1.392 . S
C286 H256 0.951 . S
C286 C285 1.392 . S
C286 C287 1.392 . S
C287 H257 0.949 . S
C287 C282 1.382 . S
C287 C286 1.392 . S
H288 C307 0.949 . S
H289 C308 0.950 . S
H290 C310 0.950 . S
H291 C311 0.950 1_545 S
H292 C313 0.950 . S
H293 C316 0.950 . S
H294 C317 0.950 . S
H295 C319 0.951 . S
H296 C320 0.949 . S
H297 C322 0.949 . S
H298 C323 0.950 . S
H299 C325 0.950 . S
H300 C326 0.950 . S
H301 C328 0.950 . S
H302 C331 0.950 . S
H303 C332 0.950 . S
H304 C334 0.951 . S
H305 C335 0.949 . S
C306 C307 1.376 . S
C306 C311 1.386 . S
C306 C312 1.483 1_565 S
C307 H288 0.949 . S
C307 C306 1.376 . S
C307 C308 1.397 . S
C308 H289 0.950 . S
C308 C307 1.397 . S
C308 C309 1.391 . S
C309 C308 1.391 . S
C309 C310 1.405 . S
C310 H290 0.950 . S
C310 C309 1.405 . S
C310 C311 1.367 . S
C311 H291 0.950 1_565 S
C311 C306 1.386 . S
C311 C310 1.367 . S
C312 C306 1.483 1_545 S
C312 C313 1.382 . S
C312 C314 1.403 . S
C313 H292 0.950 . S
C313 C312 1.382 . S
C313 C329 1.411 . S
C314 C312 1.403 . S
C314 C315 1.489 . S
C314 C328 1.411 . S
C315 C314 1.489 . S
C315 C316 1.383 1_545 S
C315 C320 1.382 . S
C316 H293 0.950 . S
C316 C315 1.383 1_565 S
C316 C317 1.395 . S
C317 H294 0.950 . S
C317 C316 1.395 . S
C317 C318 1.288 . S
C318 C317 1.288 . S
C318 C319 1.392 1_565 S
C319 H295 0.951 . S
C319 C318 1.392 1_545 S
C319 C320 1.392 . S
C320 H296 0.949 . S
C320 C315 1.382 . S
C320 C319 1.392 . S
C321 C322 1.376 . S
C321 C326 1.386 . S
C321 C327 1.483 . S
C322 H297 0.949 . S
C322 C321 1.376 . S
C322 C323 1.397 . S
C323 H298 0.950 . S
C323 C322 1.397 . S
C323 C324 1.391 . S
C324 C323 1.391 . S
C324 C325 1.405 . S
C325 H299 0.950 . S
C325 C324 1.405 . S
C325 C326 1.367 . S
C326 H300 0.950 . S
C326 C321 1.386 . S
C326 C325 1.367 . S
C327 C321 1.483 . S
C327 C328 1.382 . S
C327 C329 1.403 . S
C328 H301 0.950 . S
C328 C314 1.411 . S
C328 C327 1.382 . S
C329 C313 1.411 . S
C329 C327 1.403 . S
C329 C330 1.489 . S
C330 C329 1.489 . S
C330 C331 1.383 . S
C330 C335 1.382 . S
C331 H302 0.950 . S
C331 C330 1.383 . S
C331 C332 1.395 . S
C332 H303 0.950 . S
C332 C331 1.395 . S
C332 C333 1.288 . S
C333 C332 1.288 . S
C333 C334 1.392 . S
C334 H304 0.951 . S
C334 C333 1.392 . S
C334 C335 1.392 . S
C335 H305 0.949 . S
C335 C330 1.382 . S
C335 C334 1.392 . S
H336 C355 0.949 . S
H337 C356 0.950 . S
H338 C358 0.950 . S
H339 C359 0.950 . S
H340 C361 0.950 . S
H341 C364 0.950 . S
H342 C365 0.950 . S
H343 C367 0.951 . S
H344 C368 0.949 . S
H345 C370 0.949 . S
H346 C371 0.950 . S
H347 C373 0.950 . S
H348 C374 0.950 . S
H349 C376 0.950 . S
H350 C379 0.950 . S
H351 C380 0.950 . S
H352 C382 0.951 . S
H353 C383 0.949 . S
C354 C355 1.376 . S
C354 C359 1.386 . S
C354 C360 1.483 . S
C355 H336 0.949 . S
C355 C354 1.376 . S
C355 C356 1.397 . S
C356 H337 0.950 . S
C356 C355 1.397 . S
C356 C357 1.391 . S
C357 C356 1.391 . S
C357 C358 1.405 . S
C358 H338 0.950 . S
C358 C357 1.405 . S
C358 C359 1.367 . S
C359 H339 0.950 . S
C359 C354 1.386 . S
C359 C358 1.367 . S
C360 C354 1.483 . S
C360 C361 1.382 . S
C360 C362 1.403 . S
C361 H340 0.950 . S
C361 C360 1.382 . S
C361 C377 1.411 . S
C362 C360 1.403 . S
C362 C363 1.489 . S
C362 C376 1.411 . S
C363 C362 1.489 . S
C363 C364 1.383 . S
C363 C368 1.382 . S
C364 H341 0.950 . S
C364 C363 1.383 . S
C364 C365 1.395 . S
C365 H342 0.950 . S
C365 C364 1.395 . S
C365 C366 1.288 . S
C366 C365 1.288 . S
C366 C367 1.392 . S
C367 H343 0.951 . S
C367 C366 1.392 . S
C367 C368 1.392 . S
C368 H344 0.949 . S
C368 C363 1.382 . S
C368 C367 1.392 . S
C369 C370 1.376 . S
C369 C374 1.386 . S
C369 C375 1.483 . S
C370 H345 0.949 . S
C370 C369 1.376 . S
C370 C371 1.397 . S
C371 H346 0.950 . S
C371 C370 1.397 . S
C371 C372 1.391 . S
C372 C371 1.391 . S
C372 C373 1.405 . S
C373 H347 0.950 . S
C373 C372 1.405 . S
C373 C374 1.367 . S
C374 H348 0.950 . S
C374 C369 1.386 . S
C374 C373 1.367 . S
C375 C369 1.483 . S
C375 C376 1.382 . S
C375 C377 1.403 . S
C376 H349 0.950 . S
C376 C362 1.411 . S
C376 C375 1.382 . S
C377 C361 1.411 . S
C377 C375 1.403 . S
C377 C378 1.489 . S
C378 C377 1.489 . S
C378 C379 1.383 . S
C378 C383 1.382 . S
C379 H350 0.950 . S
C379 C378 1.383 . S
C379 C380 1.395 . S
C380 H351 0.950 . S
C380 C379 1.395 . S
C380 C381 1.288 . S
C381 C380 1.288 . S
C381 C382 1.392 . S
C382 H352 0.951 . S
C382 C381 1.392 . S
C382 C383 1.392 . S
C383 H353 0.949 . S
C383 C378 1.382 . S
C383 C382 1.392 . S
O384 Cd385 2.223 . S
O384 C392 1.315 . S
Cd385 O384 2.223 . S
Cd385 O388 2.297 . S
Cd385 O389 2.439 . S
Cd385 O395 2.240 . S
Cd386 O387 2.240 . S
Cd386 O394 2.223 . S
Cd386 O396 2.297 . S
Cd386 O397 2.439 . S
O387 Cd386 2.240 . S
O387 C392 1.279 . S
O388 Cd385 2.297 . S
O388 C390 1.247 . S
O389 Cd385 2.439 . S
O389 C390 1.208 . S
C390 O388 1.247 . S
C390 O389 1.208 . S
C391 O396 1.247 . S
C391 O397 1.208 . S
C392 O384 1.315 . S
C392 O387 1.279 . S
C393 O394 1.315 . S
C393 O395 1.279 . S
O394 Cd386 2.223 . S
O394 C393 1.315 . S
O395 Cd385 2.240 . S
O395 C393 1.279 . S
O396 Cd386 2.297 . S
O396 C391 1.247 . S
O397 Cd386 2.439 . S
O397 C391 1.208 . S
O398 Cd399 2.223 . S
O398 C406 1.315 . S
Cd399 O398 2.223 . S
Cd399 O402 2.297 . S
Cd399 O403 2.439 . S
Cd399 O409 2.240 . S
Cd400 O401 2.240 . S
Cd400 O408 2.223 . S
Cd400 O410 2.297 . S
Cd400 O411 2.439 . S
O401 Cd400 2.240 . S
O401 C406 1.279 . S
O402 Cd399 2.297 . S
O402 C404 1.247 . S
O403 Cd399 2.439 . S
O403 C404 1.208 . S
C404 O402 1.247 . S
C404 O403 1.208 . S
C405 O410 1.247 . S
C405 O411 1.208 . S
C406 O398 1.315 . S
C406 O401 1.279 . S
C407 O408 1.315 . S
C407 O409 1.279 . S
O408 Cd400 2.223 . S
O408 C407 1.315 . S
O409 Cd399 2.240 . S
O409 C407 1.279 . S
O410 Cd400 2.297 . S
O410 C405 1.247 . S
O411 Cd400 2.439 . S
O411 C405 1.208 . S
O412 Cd413 2.223 . S
O412 C420 1.315 . S
Cd413 O412 2.223 . S
Cd413 O416 2.297 . S
Cd413 O417 2.439 . S
Cd413 O423 2.240 . S
Cd414 O415 2.240 . S
Cd414 O422 2.223 . S
Cd414 O424 2.297 . S
Cd414 O425 2.439 . S
O415 Cd414 2.240 . S
O415 C420 1.279 . S
O416 Cd413 2.297 . S
O416 C418 1.247 . S
O417 Cd413 2.439 . S
O417 C418 1.208 . S
C418 O416 1.247 . S
C418 O417 1.208 . S
C419 O424 1.247 . S
C419 O425 1.208 . S
C420 O412 1.315 . S
C420 O415 1.279 . S
C421 O422 1.315 . S
C421 O423 1.279 . S
O422 Cd414 2.223 . S
O422 C421 1.315 . S
O423 Cd413 2.240 . S
O423 C421 1.279 . S
O424 Cd414 2.297 . S
O424 C419 1.247 . S
O425 Cd414 2.439 . S
O425 C419 1.208 . S
O426 Cd427 2.223 . S
O426 C434 1.315 . S
Cd427 O426 2.223 . S
Cd427 O430 2.297 . S
Cd427 O431 2.439 . S
Cd427 O437 2.240 . S
Cd428 O429 2.240 . S
Cd428 O436 2.223 . S
Cd428 O438 2.297 . S
Cd428 O439 2.439 . S
O429 Cd428 2.240 . S
O429 C434 1.279 . S
O430 Cd427 2.297 . S
O430 C432 1.247 . S
O431 Cd427 2.439 . S
O431 C432 1.208 . S
C432 O430 1.247 . S
C432 O431 1.208 . S
C433 O438 1.247 . S
C433 O439 1.208 . S
C434 O426 1.315 . S
C434 O429 1.279 . S
C435 O436 1.315 . S
C435 O437 1.279 . S
O436 Cd428 2.223 . S
O436 C435 1.315 . S
O437 Cd427 2.240 . S
O437 C435 1.279 . S
O438 Cd428 2.297 . S
O438 C433 1.247 . S
O439 Cd428 2.439 . S
O439 C433 1.208 . S
O440 Cd441 2.223 . S
O440 C448 1.315 . S
Cd441 O440 2.223 . S
Cd441 O444 2.297 . S
Cd441 O445 2.439 . S
Cd441 O451 2.240 . S
Cd442 O443 2.240 . S
Cd442 O450 2.223 . S
Cd442 O452 2.297 . S
Cd442 O453 2.439 . S
O443 Cd442 2.240 . S
O443 C448 1.279 . S
O444 Cd441 2.297 . S
O444 C446 1.247 . S
O445 Cd441 2.439 . S
O445 C446 1.208 . S
C446 O444 1.247 . S
C446 O445 1.208 . S
C447 O452 1.247 . S
C447 O453 1.208 . S
C448 O440 1.315 . S
C448 O443 1.279 . S
C449 O450 1.315 . S
C449 O451 1.279 . S
O450 Cd442 2.223 . S
O450 C449 1.315 . S
O451 Cd441 2.240 . S
O451 C449 1.279 . S
O452 Cd442 2.297 . S
O452 C447 1.247 . S
O453 Cd442 2.439 . S
O453 C447 1.208 . S
O454 Cd455 2.223 . S
O454 C462 1.315 . S
Cd455 O454 2.223 . S
Cd455 O458 2.297 . S
Cd455 O459 2.439 . S
Cd455 O465 2.240 . S
Cd456 O457 2.240 . S
Cd456 O464 2.223 . S
Cd456 O466 2.297 . S
Cd456 O467 2.439 . S
O457 Cd456 2.240 . S
O457 C462 1.279 . S
O458 Cd455 2.297 . S
O458 C460 1.247 . S
O459 Cd455 2.439 . S
O459 C460 1.208 . S
C460 O458 1.247 . S
C460 O459 1.208 . S
C461 O466 1.247 . S
C461 O467 1.208 . S
C462 O454 1.315 . S
C462 O457 1.279 . S
C463 O464 1.315 . S
C463 O465 1.279 . S
O464 Cd456 2.223 . S
O464 C463 1.315 . S
O465 Cd455 2.240 . S
O465 C463 1.279 . S
O466 Cd456 2.297 . S
O466 C461 1.247 . S
O467 Cd456 2.439 . S
O467 C461 1.208 . S
O468 Cd469 2.223 . S
O468 C476 1.315 . S
Cd469 O468 2.223 . S
Cd469 O472 2.297 . S
Cd469 O473 2.439 . S
Cd469 O479 2.240 1_554 S
Cd470 O471 2.240 1_556 S
Cd470 O478 2.223 . S
Cd470 O480 2.297 . S
Cd470 O481 2.439 . S
O471 Cd470 2.240 1_554 S
O471 C476 1.279 . S
O472 Cd469 2.297 . S
O472 C474 1.247 . S
O473 Cd469 2.439 . S
O473 C474 1.208 . S
C474 O472 1.247 . S
C474 O473 1.208 . S
C475 O480 1.247 . S
C475 O481 1.208 . S
C476 O468 1.315 . S
C476 O471 1.279 . S
C477 O478 1.315 . S
C477 O479 1.279 . S
O478 Cd470 2.223 . S
O478 C477 1.315 . S
O479 Cd469 2.240 1_556 S
O479 C477 1.279 . S
O480 Cd470 2.297 . S
O480 C475 1.247 . S
O481 Cd470 2.439 . S
O481 C475 1.208 . S
O482 Cd483 2.223 . S
O482 C490 1.315 . S
Cd483 O482 2.223 . S
Cd483 O486 2.297 . S
Cd483 O487 2.439 . S
Cd483 O493 2.240 . S
Cd484 O485 2.240 . S
Cd484 O492 2.223 . S
Cd484 O494 2.297 . S
Cd484 O495 2.439 . S
O485 Cd484 2.240 . S
O485 C490 1.279 . S
O486 Cd483 2.297 . S
O486 C488 1.247 . S
O487 Cd483 2.439 . S
O487 C488 1.208 . S
C488 O486 1.247 . S
C488 O487 1.208 . S
C489 O494 1.247 . S
C489 O495 1.208 . S
C490 O482 1.315 . S
C490 O485 1.279 . S
C491 O492 1.315 . S
C491 O493 1.279 . S
O492 Cd484 2.223 . S
O492 C491 1.315 . S
O493 Cd483 2.240 . S
O493 C491 1.279 . S
O494 Cd484 2.297 . S
O494 C489 1.247 . S
O495 Cd484 2.439 . S
O495 C489 1.208 . S
C496 C497 1.349 . S
C496 C498 1.327 . S
C496 H521 0.950 . S
C497 C496 1.349 . S
C497 C513 1.349 . S
C498 C496 1.327 . S
C498 C517 1.429 . S
C498 H522 0.950 . S
C499 C516 1.574 . S
C499 C518 1.368 . S
C499 H523 0.949 . S
H500 C504 0.949 . S
C501 C502 1.349 . S
C501 C503 1.327 . S
C501 H524 0.950 . S
C502 C501 1.349 . S
C502 C514 1.349 . S
C503 C501 1.327 . S
C503 C519 1.429 . S
C503 H525 0.950 . S
C504 H500 0.949 . S
C504 C512 1.574 . S
C504 C520 1.368 . S
H505 C513 0.950 . S
H506 C511 0.950 . S
H507 C512 0.949 . S
H508 C514 0.950 . S
H509 C515 0.950 . S
H510 C516 0.949 . S
C511 H506 0.950 . S
C511 C513 1.327 . S
C511 C517 1.429 . S
C512 C504 1.574 . S
C512 H507 0.949 . S
C512 C518 1.368 . S
C513 C497 1.349 . S
C513 H505 0.950 . S
C513 C511 1.327 . S
C514 C502 1.349 . S
C514 H508 0.950 . S
C514 C515 1.327 . S
C515 H509 0.950 . S
C515 C514 1.327 . S
C515 C519 1.429 . S
C516 C499 1.574 . S
C516 H510 0.949 . S
C516 C520 1.368 . S
C517 C498 1.429 . S
C517 C511 1.429 . S
C517 C518 1.523 . S
C518 C499 1.368 . S
C518 C512 1.368 . S
C518 C517 1.523 . S
C519 C503 1.429 . S
C519 C515 1.429 . S
C519 C520 1.523 . S
C520 C504 1.368 . S
C520 C516 1.368 . S
C520 C519 1.523 . S
H521 C496 0.950 . S
H522 C498 0.950 . S
H523 C499 0.949 . S
H524 C501 0.950 . S
H525 C503 0.950 . S
C526 C527 1.349 . S
C526 C528 1.327 . S
C526 H551 0.950 . S
C527 C526 1.349 . S
C527 C543 1.349 . S
C528 C526 1.327 . S
C528 C547 1.429 . S
C528 H552 0.950 . S
C529 C546 1.574 . S
C529 C548 1.368 . S
C529 H553 0.949 . S
H530 C534 0.949 . S
C531 C532 1.349 . S
C531 C533 1.327 . S
C531 H554 0.950 . S
C532 C531 1.349 . S
C532 C544 1.349 . S
C533 C531 1.327 . S
C533 C549 1.429 . S
C533 H555 0.950 . S
C534 H530 0.949 . S
C534 C542 1.574 . S
C534 C550 1.368 . S
H535 C543 0.950 . S
H536 C541 0.950 . S
H537 C542 0.949 . S
H538 C544 0.950 . S
H539 C545 0.950 . S
H540 C546 0.949 . S
C541 H536 0.950 . S
C541 C543 1.327 . S
C541 C547 1.429 . S
C542 C534 1.574 . S
C542 H537 0.949 . S
C542 C548 1.368 . S
C543 C527 1.349 . S
C543 H535 0.950 . S
C543 C541 1.327 . S
C544 C532 1.349 . S
C544 H538 0.950 . S
C544 C545 1.327 . S
C545 H539 0.950 . S
C545 C544 1.327 . S
C545 C549 1.429 . S
C546 C529 1.574 . S
C546 H540 0.949 . S
C546 C550 1.368 . S
C547 C528 1.429 . S
C547 C541 1.429 . S
C547 C548 1.523 . S
C548 C529 1.368 . S
C548 C542 1.368 . S
C548 C547 1.523 . S
C549 C533 1.429 . S
C549 C545 1.429 . S
C549 C550 1.523 . S
C550 C534 1.368 . S
C550 C546 1.368 . S
C550 C549 1.523 . S
H551 C526 0.950 . S
H552 C528 0.950 . S
H553 C529 0.949 . S
H554 C531 0.950 . S
H555 C533 0.950 . S
C556 C557 1.349 . S
C556 C558 1.327 . S
C556 H581 0.950 . S
C557 C556 1.349 . S
C557 C573 1.349 . S
C558 C556 1.327 . S
C558 C577 1.429 . S
C558 H582 0.950 . S
C559 C576 1.574 . S
C559 C578 1.368 . S
C559 H583 0.949 . S
H560 C564 0.949 . S
C561 C562 1.349 . S
C561 C563 1.327 . S
C561 H584 0.950 . S
C562 C561 1.349 . S
C562 C574 1.349 . S
C563 C561 1.327 . S
C563 C579 1.429 . S
C563 H585 0.950 . S
C564 H560 0.949 . S
C564 C572 1.574 . S
C564 C580 1.368 . S
H565 C573 0.950 . S
H566 C571 0.950 . S
H567 C572 0.949 . S
H568 C574 0.950 . S
H569 C575 0.950 . S
H570 C576 0.949 . S
C571 H566 0.950 . S
C571 C573 1.327 . S
C571 C577 1.429 . S
C572 C564 1.574 . S
C572 H567 0.949 . S
C572 C578 1.368 . S
C573 C557 1.349 . S
C573 H565 0.950 . S
C573 C571 1.327 . S
C574 C562 1.349 . S
C574 H568 0.950 . S
C574 C575 1.327 . S
C575 H569 0.950 . S
C575 C574 1.327 . S
C575 C579 1.429 . S
C576 C559 1.574 . S
C576 H570 0.949 . S
C576 C580 1.368 . S
C577 C558 1.429 . S
C577 C571 1.429 . S
C577 C578 1.523 . S
C578 C559 1.368 . S
C578 C572 1.368 . S
C578 C577 1.523 . S
C579 C563 1.429 . S
C579 C575 1.429 . S
C579 C580 1.523 . S
C580 C564 1.368 . S
C580 C576 1.368 . S
C580 C579 1.523 . S
H581 C556 0.950 . S
H582 C558 0.950 . S
H583 C559 0.949 . S
H584 C561 0.950 . S
H585 C563 0.950 . S
C586 C587 1.349 . S
C586 C588 1.327 . S
C586 H611 0.950 . S
C587 C586 1.349 . S
C587 C603 1.349 . S
C588 C586 1.327 . S
C588 C607 1.429 . S
C588 H612 0.950 . S
C589 C606 1.574 . S
C589 C608 1.368 . S
C589 H613 0.949 . S
H590 C594 0.949 . S
C591 C592 1.349 . S
C591 C593 1.327 . S
C591 H614 0.950 . S
C592 C591 1.349 . S
C592 C604 1.349 . S
C593 C591 1.327 . S
C593 C609 1.429 . S
C593 H615 0.950 . S
C594 H590 0.949 . S
C594 C602 1.574 . S
C594 C610 1.368 . S
H595 C603 0.950 . S
H596 C601 0.950 . S
H597 C602 0.949 . S
H598 C604 0.950 . S
H599 C605 0.950 . S
H600 C606 0.949 . S
C601 H596 0.950 . S
C601 C603 1.327 . S
C601 C607 1.429 . S
C602 C594 1.574 . S
C602 H597 0.949 . S
C602 C608 1.368 . S
C603 C587 1.349 . S
C603 H595 0.950 . S
C603 C601 1.327 . S
C604 C592 1.349 . S
C604 H598 0.950 . S
C604 C605 1.327 . S
C605 H599 0.950 . S
C605 C604 1.327 . S
C605 C609 1.429 . S
C606 C589 1.574 . S
C606 H600 0.949 . S
C606 C610 1.368 . S
C607 C588 1.429 . S
C607 C601 1.429 . S
C607 C608 1.523 . S
C608 C589 1.368 . S
C608 C602 1.368 . S
C608 C607 1.523 . S
C609 C593 1.429 . S
C609 C605 1.429 . S
C609 C610 1.523 . S
C610 C594 1.368 . S
C610 C606 1.368 . S
C610 C609 1.523 . S
H611 C586 0.950 . S
H612 C588 0.950 . S
H613 C589 0.949 . S
H614 C591 0.950 . S
H615 C593 0.950 . S
C616 C617 1.349 1_554 S
C616 C618 1.327 . S
C616 H641 0.950 . S
C617 C616 1.349 1_556 S
C617 C633 1.349 . S
C618 C616 1.327 . S
C618 C637 1.429 . S
C618 H642 0.950 . S
C619 C636 1.574 . S
C619 C638 1.368 . S
C619 H643 0.905 1_554 S
H620 C624 0.949 . S
C621 C622 1.349 . S
C621 C623 1.327 . S
C621 H644 0.950 . S
C622 C621 1.349 . S
C622 C634 1.349 . S
C623 C621 1.327 . S
C623 C639 1.429 . S
C623 H645 0.950 . S
C624 H620 0.949 . S
C624 C632 1.574 . S
C624 C640 1.368 . S
H625 C633 0.950 . S
H626 C631 0.950 . S
H627 C632 0.949 . S
H628 C634 0.950 . S
H629 C635 0.950 . S
H630 C636 0.949 . S
C631 H626 0.950 . S
C631 C633 1.327 . S
C631 C637 1.429 1_556 S
C632 C624 1.574 . S
C632 H627 0.949 . S
C632 C638 1.368 . S
C633 C617 1.349 . S
C633 H625 0.950 . S
C633 C631 1.327 . S
C634 C622 1.349 . S
C634 H628 0.950 . S
C634 C635 1.327 . S
C635 H629 0.950 . S
C635 C634 1.327 . S
C635 C639 1.429 . S
C636 C619 1.574 . S
C636 H630 0.949 . S
C636 C640 1.368 . S
C637 C618 1.429 . S
C637 C631 1.429 1_554 S
C637 C638 1.523 . S
C638 C619 1.368 . S
C638 C632 1.368 . S
C638 C637 1.523 . S
C639 C623 1.429 . S
C639 C635 1.429 . S
C639 C640 1.523 . S
C640 C624 1.368 . S
C640 C636 1.368 . S
C640 C639 1.523 . S
H641 C616 0.950 . S
H642 C618 0.950 . S
H643 C619 0.905 1_556 S
H644 C621 0.950 . S
H645 C623 0.950 . S
C646 C647 1.349 . S
C646 C648 1.327 . S
C646 H671 0.950 . S
C647 C646 1.349 . S
C647 C663 1.349 . S
C648 C646 1.327 . S
C648 C667 1.429 . S
C648 H672 0.950 . S
C649 C666 1.574 . S
C649 C668 1.368 . S
C649 H673 0.949 . S
H650 C654 0.949 . S
C651 C652 1.349 . S
C651 C653 1.327 . S
C651 H674 0.950 . S
C652 C651 1.349 . S
C652 C664 1.349 . S
C653 C651 1.327 . S
C653 C669 1.429 . S
C653 H675 0.950 . S
C654 H650 0.949 . S
C654 C662 1.574 . S
C654 C670 1.368 . S
H655 C663 0.950 . S
H656 C661 0.950 . S
H657 C662 0.949 . S
H658 C664 0.950 . S
H659 C665 0.950 . S
H660 C666 0.949 . S
C661 H656 0.950 . S
C661 C663 1.327 . S
C661 C667 1.429 . S
C662 C654 1.574 . S
C662 H657 0.949 . S
C662 C668 1.368 . S
C663 C647 1.349 . S
C663 H655 0.950 . S
C663 C661 1.327 . S
C664 C652 1.349 . S
C664 H658 0.950 . S
C664 C665 1.327 . S
C665 H659 0.950 . S
C665 C664 1.327 . S
C665 C669 1.429 . S
C666 C649 1.574 . S
C666 H660 0.949 . S
C666 C670 1.368 . S
C667 C648 1.429 . S
C667 C661 1.429 . S
C667 C668 1.523 . S
C668 C649 1.368 . S
C668 C662 1.368 . S
C668 C667 1.523 . S
C669 C653 1.429 . S
C669 C665 1.429 . S
C669 C670 1.523 . S
C670 C654 1.368 . S
C670 C666 1.368 . S
C670 C669 1.523 . S
H671 C646 0.950 . S
H672 C648 0.950 . S
H673 C649 0.949 . S
H674 C651 0.950 . S
H675 C653 0.950 . S
C676 C677 1.349 . S
C676 C678 1.327 . S
C676 H701 0.950 1_565 S
C677 C676 1.349 . S
C677 C693 1.349 . S
C678 C676 1.327 . S
C678 C697 1.429 . S
C678 H702 0.915 1_565 S
C679 C696 1.574 . S
C679 C698 1.368 . S
C679 H703 0.949 . S
H680 C684 0.949 . S
C681 C682 1.349 . S
C681 C683 1.327 . S
C681 H704 0.950 . S
C682 C681 1.349 . S
C682 C694 1.349 . S
C683 C681 1.327 . S
C683 C699 1.429 . S
C683 H705 0.950 . S
C684 H680 0.949 . S
C684 C692 1.574 . S
C684 C700 1.368 . S
H685 C693 0.950 . S
H686 C691 0.950 . S
H687 C692 0.949 . S
H688 C694 0.950 . S
H689 C695 0.950 . S
H690 C696 0.949 . S
C691 H686 0.950 . S
C691 C693 1.327 . S
C691 C697 1.429 . S
C692 C684 1.574 . S
C692 H687 0.949 . S
C692 C698 1.368 . S
C693 C677 1.349 . S
C693 H685 0.950 . S
C693 C691 1.327 . S
C694 C682 1.349 . S
C694 H688 0.950 . S
C694 C695 1.327 . S
C695 H689 0.950 . S
C695 C694 1.327 . S
C695 C699 1.429 . S
C696 C679 1.574 . S
C696 H690 0.949 . S
C696 C700 1.368 . S
C697 C678 1.429 . S
C697 C691 1.429 . S
C697 C698 1.523 . S
C698 C679 1.368 . S
C698 C692 1.368 . S
C698 C697 1.523 . S
C699 C683 1.429 . S
C699 C695 1.429 . S
C699 C700 1.523 . S
C700 C684 1.368 . S
C700 C696 1.368 . S
C700 C699 1.523 . S
H701 C676 0.950 1_545 S
H702 C678 0.915 1_545 S
H703 C679 0.949 . S
H704 C681 0.950 . S
H705 C683 0.950 . S
C706 C707 1.349 . S
C706 C708 1.327 . S
C706 H731 0.950 . S
C707 C706 1.349 . S
C707 C723 1.349 . S
C708 C706 1.327 . S
C708 C727 1.429 . S
C708 H732 0.950 . S
C709 C726 1.574 1_545 S
C709 C728 1.368 . S
C709 H733 0.949 . S
H710 C714 0.949 . S
C711 C712 1.349 . S
C711 C713 1.327 . S
C711 H734 0.950 . S
C712 C711 1.349 . S
C712 C724 1.349 . S
C713 C711 1.327 . S
C713 C729 1.429 . S
C713 H735 0.950 . S
C714 H710 0.949 . S
C714 C722 1.574 . S
C714 C730 1.368 . S
H715 C723 0.950 . S
H716 C721 0.950 . S
H717 C722 0.949 1_545 S
H718 C724 0.950 . S
H719 C725 0.950 . S
H720 C726 0.949 . S
C721 H716 0.950 . S
C721 C723 1.327 . S
C721 C727 1.429 . S
C722 C714 1.574 . S
C722 H717 0.949 1_565 S
C722 C728 1.368 1_565 S
C723 C707 1.349 . S
C723 H715 0.950 . S
C723 C721 1.327 . S
C724 C712 1.349 . S
C724 H718 0.950 . S
C724 C725 1.327 . S
C725 H719 0.950 . S
C725 C724 1.327 . S
C725 C729 1.429 . S
C726 C709 1.574 1_565 S
C726 H720 0.949 . S
C726 C730 1.368 . S
C727 C708 1.429 . S
C727 C721 1.429 . S
C727 C728 1.523 . S
C728 C709 1.368 . S
C728 C722 1.368 1_545 S
C728 C727 1.523 . S
C729 C713 1.429 . S
C729 C725 1.429 . S
C729 C730 1.523 . S
C730 C714 1.368 . S
C730 C726 1.368 . S
C730 C729 1.523 . S
H731 C706 0.950 . S
H732 C708 0.950 . S
H733 C709 0.949 . S
H734 C711 0.950 . S
H735 C713 0.950 . S
C736 C737 1.349 . S
C736 C738 1.327 . S
C736 H761 0.950 . S
C737 C736 1.349 . S
C737 C753 1.349 . S
C738 C736 1.327 . S
C738 C757 1.429 . S
C738 H762 0.950 . S
C739 C756 1.574 . S
C739 C758 1.368 . S
C739 H763 0.949 . S
H740 C744 0.949 . S
C741 C742 1.349 . S
C741 C743 1.327 . S
C741 H764 0.950 . S
C742 C741 1.349 . S
C742 C754 1.349 . S
C743 C741 1.327 . S
C743 C759 1.429 . S
C743 H765 0.950 . S
C744 H740 0.949 . S
C744 C752 1.574 . S
C744 C760 1.368 . S
H745 C753 0.950 . S
H746 C751 0.950 . S
H747 C752 0.949 . S
H748 C754 0.950 . S
H749 C755 0.950 . S
H750 C756 0.949 . S
C751 H746 0.950 . S
C751 C753 1.327 . S
C751 C757 1.429 . S
C752 C744 1.574 . S
C752 H747 0.949 . S
C752 C758 1.368 . S
C753 C737 1.349 . S
C753 H745 0.950 . S
C753 C751 1.327 . S
C754 C742 1.349 . S
C754 H748 0.950 . S
C754 C755 1.327 . S
C755 H749 0.950 . S
C755 C754 1.327 . S
C755 C759 1.429 . S
C756 C739 1.574 . S
C756 H750 0.949 . S
C756 C760 1.368 . S
C757 C738 1.429 . S
C757 C751 1.429 . S
C757 C758 1.523 . S
C758 C739 1.368 . S
C758 C752 1.368 . S
C758 C757 1.523 . S
C759 C743 1.429 . S
C759 C755 1.429 . S
C759 C760 1.523 . S
C760 C744 1.368 . S
C760 C756 1.368 . S
C760 C759 1.523 . S
H761 C736 0.950 . S
H762 C738 0.950 . S
H763 C739 0.949 . S
H764 C741 0.950 . S
H765 C743 0.950 . S
C766 C767 1.349 . S
C766 C768 1.327 . S
C766 H791 0.950 . S
C767 C766 1.349 . S
C767 C783 1.349 . S
C768 C766 1.327 . S
C768 C787 1.429 . S
C768 H792 0.950 . S
C769 C786 1.574 . S
C769 C788 1.368 . S
C769 H793 0.949 . S
H770 C774 0.949 . S
C771 C772 1.349 . S
C771 C773 1.327 . S
C771 H794 0.950 1_554 S
C772 C771 1.349 . S
C772 C784 1.349 . S
C773 C771 1.327 . S
C773 C789 1.429 . S
C773 H795 0.950 . S
C774 H770 0.949 . S
C774 C782 1.574 . S
C774 C790 1.368 . S
H775 C783 0.950 . S
H776 C781 0.950 . S
H777 C782 0.949 . S
H778 C784 0.950 . S
H779 C785 0.950 . S
H780 C786 0.949 . S
C781 H776 0.950 . S
C781 C783 1.327 . S
C781 C787 1.429 . S
C782 C774 1.574 . S
C782 H777 0.949 . S
C782 C788 1.368 . S
C783 C767 1.349 . S
C783 H775 0.950 . S
C783 C781 1.327 . S
C784 C772 1.349 . S
C784 H778 0.950 . S
C784 C785 1.327 . S
C785 H779 0.950 . S
C785 C784 1.327 . S
C785 C789 1.429 . S
C786 C769 1.574 . S
C786 H780 0.949 . S
C786 C790 1.368 . S
C787 C768 1.429 . S
C787 C781 1.429 . S
C787 C788 1.523 . S
C788 C769 1.368 . S
C788 C782 1.368 . S
C788 C787 1.523 . S
C789 C773 1.429 . S
C789 C785 1.429 . S
C789 C790 1.523 . S
C790 C774 1.368 . S
C790 C786 1.368 . S
C790 C789 1.523 . S
H791 C766 0.950 . S
H792 C768 0.950 . S
H793 C769 0.949 . S
H794 C771 0.950 1_556 S
H795 C773 0.950 . S
C796 C797 1.349 . S
C796 C798 1.327 . S
C796 H821 0.950 . S
C797 C796 1.349 . S
C797 C813 1.349 . S
C798 C796 1.327 . S
C798 C817 1.429 1_455 S
C798 H822 0.950 . S
C799 C816 1.574 . S
C799 C818 1.368 . S
C799 H823 0.949 . S
H800 C804 0.949 . S
C801 C802 1.349 . S
C801 C803 1.327 . S
C801 H824 0.950 . S
C802 C801 1.349 . S
C802 C814 1.349 . S
C803 C801 1.327 . S
C803 C819 1.429 . S
C803 H825 0.950 . S
C804 H800 0.949 . S
C804 C812 1.574 . S
C804 C820 1.368 . S
H805 C813 0.950 . S
H806 C811 0.950 . S
H807 C812 0.949 . S
H808 C814 0.950 . S
H809 C815 0.950 . S
H810 C816 0.949 . S
C811 H806 0.950 . S
C811 C813 1.327 1_655 S
C811 C817 1.429 . S
C812 C804 1.574 . S
C812 H807 0.949 . S
C812 C818 1.368 . S
C813 C797 1.349 . S
C813 H805 0.950 . S
C813 C811 1.327 1_455 S
C814 C802 1.349 . S
C814 H808 0.950 . S
C814 C815 1.327 . S
C815 H809 0.950 . S
C815 C814 1.327 . S
C815 C819 1.429 . S
C816 C799 1.574 . S
C816 H810 0.949 . S
C816 C820 1.368 . S
C817 C798 1.429 1_655 S
C817 C811 1.429 . S
C817 C818 1.523 . S
C818 C799 1.368 . S
C818 C812 1.368 . S
C818 C817 1.523 . S
C819 C803 1.429 . S
C819 C815 1.429 . S
C819 C820 1.523 . S
C820 C804 1.368 . S
C820 C816 1.368 . S
C820 C819 1.523 . S
H821 C796 0.950 . S
H822 C798 0.950 . S
H823 C799 0.949 . S
H824 C801 0.950 . S
H825 C803 0.950 . S
C826 C827 1.349 1_455 S
C826 C828 1.327 1_455 S
C826 H851 0.950 . S
C827 C826 1.349 1_655 S
C827 C843 1.349 . S
C828 C826 1.327 1_655 S
C828 C847 1.429 . S
C828 H852 0.950 1_655 S
C829 C846 1.574 . S
C829 C848 1.368 . S
C829 H853 0.949 . S
H830 C834 0.949 . S
C831 C832 1.349 . S
C831 C833 1.327 . S
C831 H854 0.950 . S
C832 C831 1.349 . S
C832 C844 1.349 . S
C833 C831 1.327 . S
C833 C849 1.429 . S
C833 H855 0.950 . S
C834 H830 0.949 . S
C834 C842 1.574 . S
C834 C850 1.368 . S
H835 C843 0.950 . S
H836 C841 0.950 . S
H837 C842 0.949 . S
H838 C844 0.950 . S
H839 C845 0.950 . S
H840 C846 0.949 . S
C841 H836 0.950 . S
C841 C843 1.327 . S
C841 C847 1.429 . S
C842 C834 1.574 . S
C842 H837 0.949 . S
C842 C848 1.368 . S
C843 C827 1.349 . S
C843 H835 0.950 . S
C843 C841 1.327 . S
C844 C832 1.349 . S
C844 H838 0.950 . S
C844 C845 1.327 . S
C845 H839 0.950 . S
C845 C844 1.327 . S
C845 C849 1.429 . S
C846 C829 1.574 . S
C846 H840 0.949 . S
C846 C850 1.368 . S
C847 C828 1.429 . S
C847 C841 1.429 . S
C847 C848 1.523 . S
C848 C829 1.368 . S
C848 C842 1.368 . S
C848 C847 1.523 . S
C849 C833 1.429 . S
C849 C845 1.429 . S
C849 C850 1.523 . S
C850 C834 1.368 . S
C850 C846 1.368 . S
C850 C849 1.523 . S
H851 C826 0.950 . S
H852 C828 0.950 1_455 S
H853 C829 0.949 . S
H854 C831 0.950 . S
H855 C833 0.950 . S
C856 C857 1.349 . S
C856 C858 1.327 . S
C856 H881 0.950 . S
C857 C856 1.349 . S
C857 C873 1.349 . S
C858 C856 1.327 . S
C858 C877 1.429 . S
C858 H882 0.950 . S
C859 C876 1.574 . S
C859 C878 1.368 . S
C859 H883 0.949 . S
H860 C864 0.949 . S
C861 C862 1.349 . S
C861 C863 1.327 . S
C861 H884 0.950 . S
C862 C861 1.349 . S
C862 C874 1.349 . S
C863 C861 1.327 . S
C863 C879 1.429 . S
C863 H885 0.950 . S
C864 H860 0.949 . S
C864 C872 1.574 . S
C864 C880 1.368 . S
H865 C873 0.950 . S
H866 C871 0.950 . S
H867 C872 0.949 . S
H868 C874 0.950 . S
H869 C875 0.950 . S
H870 C876 0.949 . S
C871 H866 0.950 . S
C871 C873 1.327 . S
C871 C877 1.429 . S
C872 C864 1.574 . S
C872 H867 0.949 . S
C872 C878 1.368 . S
C873 C857 1.349 . S
C873 H865 0.950 . S
C873 C871 1.327 . S
C874 C862 1.349 . S
C874 H868 0.950 . S
C874 C875 1.327 . S
C875 H869 0.950 . S
C875 C874 1.327 . S
C875 C879 1.429 . S
C876 C859 1.574 . S
C876 H870 0.949 . S
C876 C880 1.368 . S
C877 C858 1.429 . S
C877 C871 1.429 . S
C877 C878 1.523 . S
C878 C859 1.368 . S
C878 C872 1.368 . S
C878 C877 1.523 . S
C879 C863 1.429 . S
C879 C875 1.429 . S
C879 C880 1.523 . S
C880 C864 1.368 . S
C880 C876 1.368 . S
C880 C879 1.523 . S
H881 C856 0.950 . S
H882 C858 0.950 . S
H883 C859 0.949 . S
H884 C861 0.950 . S
H885 C863 0.950 . S
C886 C887 1.349 . S
C886 C888 1.324 . S
C886 H911 0.950 . S
C887 C886 1.349 . S
C887 C903 1.349 1_455 S
C888 C886 1.324 . S
C888 C907 1.432 1_455 S
C888 H912 0.951 . S
C889 C906 1.574 . S
C889 C908 1.368 . S
C889 H913 0.949 . S
H890 C894 0.949 . S
C891 C892 1.349 . S
C891 C893 1.327 . S
C891 H914 0.950 . S
C892 C891 1.349 . S
C892 C904 1.349 . S
C893 C891 1.327 . S
C893 C909 1.429 . S
C893 H915 0.950 . S
C894 H890 0.949 . S
C894 C902 1.574 . S
C894 C910 1.368 . S
H895 C903 0.950 . S
H896 C901 0.950 . S
H897 C902 0.949 . S
H898 C904 0.950 . S
H899 C905 0.950 . S
H900 C906 0.949 . S
C901 H896 0.950 . S
C901 C903 1.327 . S
C901 C907 1.429 . S
C902 C894 1.574 . S
C902 H897 0.949 . S
C902 C908 1.368 . S
C903 C887 1.349 1_655 S
C903 H895 0.950 . S
C903 C901 1.327 . S
C904 C892 1.349 . S
C904 H898 0.950 . S
C904 C905 1.327 . S
C905 H899 0.950 . S
C905 C904 1.327 . S
C905 C909 1.429 . S
C906 C889 1.574 . S
C906 H900 0.949 . S
C906 C910 1.368 . S
C907 C888 1.432 1_655 S
C907 C901 1.429 . S
C907 C908 1.523 . S
C908 C889 1.368 . S
C908 C902 1.368 . S
C908 C907 1.523 . S
C909 C893 1.429 . S
C909 C905 1.429 . S
C909 C910 1.523 . S
C910 C894 1.368 . S
C910 C906 1.368 . S
C910 C909 1.523 . S
H911 C886 0.950 . S
H912 C888 0.951 . S
H913 C889 0.949 . S
H914 C891 0.950 . S
H915 C893 0.950 . S
C916 C917 1.349 . S
C916 C918 1.327 . S
C916 H941 0.950 . S
C917 C916 1.349 . S
C917 C933 1.349 . S
C918 C916 1.327 . S
C918 C937 1.429 . S
C918 H942 0.950 . S
C919 C936 1.573 1_556 S
C919 C938 1.368 . S
C919 H943 0.949 1_556 S
H920 C924 0.949 . S
C921 C922 1.349 1_554 S
C921 C923 1.327 . S
C921 H944 0.950 . S
C922 C921 1.349 1_556 S
C922 C934 1.349 . S
C923 C921 1.327 . S
C923 C939 1.429 1_554 S
C923 H945 0.950 . S
C924 H920 0.949 . S
C924 C932 1.574 . S
C924 C940 1.368 . S
H925 C933 0.950 . S
H926 C931 0.950 1_554 S
H927 C932 0.949 . S
H928 C934 0.950 . S
H929 C935 0.950 . S
H930 C936 0.951 . S
C931 H926 0.950 1_556 S
C931 C933 1.327 . S
C931 C937 1.429 . S
C932 C924 1.574 . S
C932 H927 0.949 . S
C932 C938 1.368 . S
C933 C917 1.349 . S
C933 H925 0.950 . S
C933 C931 1.327 . S
C934 C922 1.349 . S
C934 H928 0.950 . S
C934 C935 1.327 . S
C935 H929 0.950 . S
C935 C934 1.327 . S
C935 C939 1.429 . S
C936 C919 1.573 1_554 S
C936 H930 0.951 . S
C936 C940 1.367 1_554 S
C937 C918 1.429 . S
C937 C931 1.429 . S
C937 C938 1.523 . S
C938 C919 1.368 . S
C938 C932 1.368 . S
C938 C937 1.523 . S
C939 C923 1.429 1_556 S
C939 C935 1.429 . S
C939 C940 1.523 . S
C940 C924 1.368 . S
C940 C936 1.367 1_556 S
C940 C939 1.523 . S
H941 C916 0.950 . S
H942 C918 0.950 . S
H943 C919 0.949 1_554 S
H944 C921 0.950 . S
H945 C923 0.950 . S
C946 C947 1.349 . S
C946 C948 1.327 . S
C946 H971 0.950 . S
C947 C946 1.349 . S
C947 C963 1.349 . S
C948 C946 1.327 . S
C948 C967 1.429 . S
C948 H972 0.950 . S
C949 C966 1.574 . S
C949 C968 1.368 . S
C949 H973 0.949 . S
H950 C954 0.949 . S
C951 C952 1.349 . S
C951 C953 1.327 . S
C951 H974 0.950 . S
C952 C951 1.349 . S
C952 C964 1.349 . S
C953 C951 1.327 . S
C953 C969 1.429 . S
C953 H975 0.950 . S
C954 H950 0.949 . S
C954 C962 1.574 . S
C954 C970 1.368 . S
H955 C963 0.950 . S
H956 C961 0.950 . S
H957 C962 0.949 . S
H958 C964 0.950 . S
H959 C965 0.950 . S
H960 C966 0.949 . S
C961 H956 0.950 . S
C961 C963 1.327 . S
C961 C967 1.429 . S
C962 C954 1.574 . S
C962 H957 0.949 . S
C962 C968 1.368 . S
C963 C947 1.349 . S
C963 H955 0.950 . S
C963 C961 1.327 . S
C964 C952 1.349 . S
C964 H958 0.950 . S
C964 C965 1.327 . S
C965 H959 0.950 . S
C965 C964 1.327 . S
C965 C969 1.429 . S
C966 C949 1.574 . S
C966 H960 0.949 . S
C966 C970 1.368 . S
C967 C948 1.429 . S
C967 C961 1.429 . S
C967 C968 1.523 . S
C968 C949 1.368 . S
C968 C962 1.368 . S
C968 C967 1.523 . S
C969 C953 1.429 . S
C969 C965 1.429 . S
C969 C970 1.523 . S
C970 C954 1.368 . S
C970 C966 1.368 . S
C970 C969 1.523 . S
H971 C946 0.950 . S
H972 C948 0.950 . S
H973 C949 0.949 . S
H974 C951 0.950 . S
H975 C953 0.950 . S
C976 C977 1.349 . S
C976 C978 1.327 . S
C976 H1001 0.950 . S
C977 C976 1.349 . S
C977 C993 1.349 . S
C978 C976 1.327 . S
C978 C997 1.429 . S
C978 H1002 0.950 . S
C979 C996 1.574 . S
C979 C998 1.368 . S
C979 H1003 0.949 . S
H980 C984 0.949 . S
C981 C982 1.349 . S
C981 C983 1.327 . S
C981 H1004 0.950 . S
C982 C981 1.349 . S
C982 C994 1.349 . S
C983 C981 1.327 . S
C983 C999 1.429 . S
C983 H1005 0.950 . S
C984 H980 0.949 . S
C984 C992 1.574 . S
C984 C1000 1.368 . S
H985 C993 0.950 . S
H986 C991 0.950 . S
H987 C992 0.949 . S
H988 C994 0.950 . S
H989 C995 0.950 . S
H990 C996 0.949 . S
C991 H986 0.950 . S
C991 C993 1.327 . S
C991 C997 1.429 . S
C992 C984 1.574 . S
C992 H987 0.949 . S
C992 C998 1.368 . S
C993 C977 1.349 . S
C993 H985 0.950 . S
C993 C991 1.327 . S
C994 C982 1.349 . S
C994 H988 0.950 . S
C994 C995 1.327 . S
C995 H989 0.950 . S
C995 C994 1.327 . S
C995 C999 1.429 . S
C996 C979 1.574 . S
C996 H990 0.949 . S
C996 C1000 1.368 . S
C997 C978 1.429 . S
C997 C991 1.429 . S
C997 C998 1.523 . S
C998 C979 1.368 . S
C998 C992 1.368 . S
C998 C997 1.523 . S
C999 C983 1.429 . S
C999 C995 1.429 . S
C999 C1000 1.523 . S
C1000 C984 1.368 . S
C1000 C996 1.368 . S
C1000 C999 1.523 . S
H1001 C976 0.950 . S
H1002 C978 0.950 . S
H1003 C979 0.949 . S
H1004 C981 0.950 . S
H1005 C983 0.950 . S
C1006 C1007 1.349 . S
C1006 C1008 1.327 . S
C1006 H1031 0.950 . S
C1007 C1006 1.349 . S
C1007 C1023 1.349 . S
C1008 C1006 1.327 . S
C1008 C1027 1.429 . S
C1008 H1032 0.950 . S
C1009 C1026 1.574 . S
C1009 C1028 1.368 . S
C1009 H1033 0.949 . S
H1010 C1014 0.949 . S
C1011 C1012 1.349 . S
C1011 C1013 1.327 . S
C1011 H1034 0.950 . S
C1012 C1011 1.349 . S
C1012 C1024 1.349 . S
C1013 C1011 1.327 . S
C1013 C1029 1.429 . S
C1013 H1035 0.950 . S
C1014 H1010 0.949 . S
C1014 C1022 1.574 . S
C1014 C1030 1.368 . S
H1015 C1023 0.950 . S
H1016 C1021 0.950 . S
H1017 C1022 0.949 . S
H1018 C1024 0.950 . S
H1019 C1025 0.950 . S
H1020 C1026 0.949 . S
C1021 H1016 0.950 . S
C1021 C1023 1.327 . S
C1021 C1027 1.429 . S
C1022 C1014 1.574 . S
C1022 H1017 0.949 . S
C1022 C1028 1.368 . S
C1023 C1007 1.349 . S
C1023 H1015 0.950 . S
C1023 C1021 1.327 . S
C1024 C1012 1.349 . S
C1024 H1018 0.950 . S
C1024 C1025 1.327 . S
C1025 H1019 0.950 . S
C1025 C1024 1.327 . S
C1025 C1029 1.429 . S
C1026 C1009 1.574 . S
C1026 H1020 0.949 . S
C1026 C1030 1.368 . S
C1027 C1008 1.429 . S
C1027 C1021 1.429 . S
C1027 C1028 1.523 . S
C1028 C1009 1.368 . S
C1028 C1022 1.368 . S
C1028 C1027 1.523 . S
C1029 C1013 1.429 . S
C1029 C1025 1.429 . S
C1029 C1030 1.523 . S
C1030 C1014 1.368 . S
C1030 C1026 1.368 . S
C1030 C1029 1.523 . S
H1031 C1006 0.950 . S
H1032 C1008 0.950 . S
H1033 C1009 0.949 . S
H1034 C1011 0.950 . S
H1035 C1013 0.950 . S
C1036 C1037 1.349 . S
C1036 C1038 1.327 . S
C1036 H1061 0.950 . S
C1037 C1036 1.349 . S
C1037 C1053 1.349 . S
C1038 C1036 1.327 . S
C1038 C1057 1.429 . S
C1038 H1062 0.950 . S
C1039 C1056 1.574 . S
C1039 C1058 1.368 . S
C1039 H1063 0.949 . S
H1040 C1044 0.949 . S
C1041 C1042 1.349 . S
C1041 C1043 1.327 . S
C1041 H1064 0.950 . S
C1042 C1041 1.349 . S
C1042 C1054 1.349 . S
C1043 C1041 1.327 . S
C1043 C1059 1.429 . S
C1043 H1065 0.950 . S
C1044 H1040 0.949 . S
C1044 C1052 1.574 . S
C1044 C1060 1.368 . S
H1045 C1053 0.950 . S
H1046 C1051 0.950 . S
H1047 C1052 0.949 . S
H1048 C1054 0.950 1_554 S
H1049 C1055 0.950 . S
H1050 C1056 0.949 . S
C1051 H1046 0.950 . S
C1051 C1053 1.327 . S
C1051 C1057 1.429 . S
C1052 C1044 1.574 . S
C1052 H1047 0.949 . S
C1052 C1058 1.368 . S
C1053 C1037 1.349 . S
C1053 H1045 0.950 . S
C1053 C1051 1.327 . S
C1054 C1042 1.349 . S
C1054 H1048 0.950 1_556 S
C1054 C1055 1.327 . S
C1055 H1049 0.950 . S
C1055 C1054 1.327 . S
C1055 C1059 1.429 . S
C1056 C1039 1.574 . S
C1056 H1050 0.949 . S
C1056 C1060 1.368 . S
C1057 C1038 1.429 . S
C1057 C1051 1.429 . S
C1057 C1058 1.523 . S
C1058 C1039 1.368 . S
C1058 C1052 1.368 . S
C1058 C1057 1.523 . S
C1059 C1043 1.429 . S
C1059 C1055 1.429 . S
C1059 C1060 1.523 . S
C1060 C1044 1.368 . S
C1060 C1056 1.368 . S
C1060 C1059 1.523 . S
H1061 C1036 0.950 . S
H1062 C1038 0.950 . S
H1063 C1039 0.949 . S
H1064 C1041 0.950 . S
H1065 C1043 0.950 . S
C1066 C1067 1.349 . S
C1066 C1068 1.327 . S
C1066 H1091 0.950 . S
C1067 C1066 1.349 . S
C1067 C1083 1.349 . S
C1068 C1066 1.327 . S
C1068 C1087 1.429 . S
C1068 H1092 0.950 . S
C1069 C1086 1.574 . S
C1069 C1088 1.368 . S
C1069 H1093 0.949 . S
H1070 C1074 0.949 . S
C1071 C1072 1.349 . S
C1071 C1073 1.327 . S
C1071 H1094 0.950 . S
C1072 C1071 1.349 . S
C1072 C1084 1.349 . S
C1073 C1071 1.327 . S
C1073 C1089 1.429 . S
C1073 H1095 0.950 . S
C1074 H1070 0.949 . S
C1074 C1082 1.574 . S
C1074 C1090 1.368 . S
H1075 C1083 0.950 . S
H1076 C1081 0.950 . S
H1077 C1082 0.949 . S
H1078 C1084 0.950 . S
H1079 C1085 0.950 . S
H1080 C1086 0.949 . S
C1081 H1076 0.950 . S
C1081 C1083 1.327 . S
C1081 C1087 1.429 . S
C1082 C1074 1.574 . S
C1082 H1077 0.949 . S
C1082 C1088 1.368 . S
C1083 C1067 1.349 . S
C1083 H1075 0.950 . S
C1083 C1081 1.327 . S
C1084 C1072 1.349 . S
C1084 H1078 0.950 . S
C1084 C1085 1.327 . S
C1085 H1079 0.950 . S
C1085 C1084 1.327 . S
C1085 C1089 1.429 . S
C1086 C1069 1.574 . S
C1086 H1080 0.949 . S
C1086 C1090 1.368 . S
C1087 C1068 1.429 . S
C1087 C1081 1.429 . S
C1087 C1088 1.523 . S
C1088 C1069 1.368 . S
C1088 C1082 1.368 . S
C1088 C1087 1.523 . S
C1089 C1073 1.429 . S
C1089 C1085 1.429 . S
C1089 C1090 1.523 . S
C1090 C1074 1.368 . S
C1090 C1086 1.368 . S
C1090 C1089 1.523 . S
H1091 C1066 0.950 . S
H1092 C1068 0.950 . S
H1093 C1069 0.949 . S
H1094 C1071 0.950 . S
H1095 C1073 0.950 . S
C1096 C1097 1.349 . S
C1096 C1098 1.327 . S
C1096 H1121 0.950 . S
C1097 C1096 1.349 . S
C1097 C1113 1.349 . S
C1098 C1096 1.327 . S
C1098 C1117 1.429 . S
C1098 H1122 0.950 . S
C1099 C1116 1.574 . S
C1099 C1118 1.368 . S
C1099 H1123 0.949 . S
H1100 C1104 0.949 . S
C1101 C1102 1.349 . S
C1101 C1103 1.327 . S
C1101 H1124 0.950 . S
C1102 C1101 1.349 . S
C1102 C1114 1.349 . S
C1103 C1101 1.327 . S
C1103 C1119 1.429 . S
C1103 H1125 0.950 . S
C1104 H1100 0.949 . S
C1104 C1112 1.574 . S
C1104 C1120 1.368 . S
H1105 C1113 0.950 . S
H1106 C1111 0.950 . S
H1107 C1112 0.949 . S
H1108 C1114 0.950 . S
H1109 C1115 0.950 . S
H1110 C1116 0.949 . S
C1111 H1106 0.950 . S
C1111 C1113 1.327 . S
C1111 C1117 1.429 . S
C1112 C1104 1.574 . S
C1112 H1107 0.949 . S
C1112 C1118 1.368 . S
C1113 C1097 1.349 . S
C1113 H1105 0.950 . S
C1113 C1111 1.327 . S
C1114 C1102 1.349 . S
C1114 H1108 0.950 . S
C1114 C1115 1.327 . S
C1115 H1109 0.950 . S
C1115 C1114 1.327 . S
C1115 C1119 1.429 . S
C1116 C1099 1.574 . S
C1116 H1110 0.949 . S
C1116 C1120 1.368 . S
C1117 C1098 1.429 . S
C1117 C1111 1.429 . S
C1117 C1118 1.523 . S
C1118 C1099 1.368 . S
C1118 C1112 1.368 . S
C1118 C1117 1.523 . S
C1119 C1103 1.429 . S
C1119 C1115 1.429 . S
C1119 C1120 1.523 . S
C1120 C1104 1.368 . S
C1120 C1116 1.368 . S
C1120 C1119 1.523 . S
H1121 C1096 0.950 . S
H1122 C1098 0.950 . S
H1123 C1099 0.949 . S
H1124 C1101 0.950 . S
H1125 C1103 0.950 . S
C1126 C1127 1.349 . S
C1126 C1128 1.327 . S
C1126 H1151 0.950 . S
C1127 C1126 1.349 . S
C1127 C1143 1.349 . S
C1128 C1126 1.327 . S
C1128 C1147 1.429 . S
C1128 H1152 0.950 . S
C1129 C1146 1.574 . S
C1129 C1148 1.368 . S
C1129 H1153 0.949 . S
H1130 C1134 0.949 . S
C1131 C1132 1.349 . S
C1131 C1133 1.327 . S
C1131 H1154 0.950 . S
C1132 C1131 1.349 . S
C1132 C1144 1.349 . S
C1133 C1131 1.327 . S
C1133 C1149 1.429 . S
C1133 H1155 0.950 . S
C1134 H1130 0.949 . S
C1134 C1142 1.574 . S
C1134 C1150 1.368 . S
H1135 C1143 0.950 . S
H1136 C1141 0.950 . S
H1137 C1142 0.949 . S
H1138 C1144 0.950 . S
H1139 C1145 0.950 . S
H1140 C1146 0.949 . S
C1141 H1136 0.950 . S
C1141 C1143 1.327 . S
C1141 C1147 1.429 . S
C1142 C1134 1.574 . S
C1142 H1137 0.949 . S
C1142 C1148 1.368 . S
C1143 C1127 1.349 . S
C1143 H1135 0.950 . S
C1143 C1141 1.327 . S
C1144 C1132 1.349 . S
C1144 H1138 0.950 . S
C1144 C1145 1.327 . S
C1145 H1139 0.950 . S
C1145 C1144 1.327 . S
C1145 C1149 1.429 . S
C1146 C1129 1.574 . S
C1146 H1140 0.949 . S
C1146 C1150 1.368 . S
C1147 C1128 1.429 . S
C1147 C1141 1.429 . S
C1147 C1148 1.523 . S
C1148 C1129 1.368 . S
C1148 C1142 1.368 . S
C1148 C1147 1.523 . S
C1149 C1133 1.429 . S
C1149 C1145 1.429 . S
C1149 C1150 1.523 . S
C1150 C1134 1.368 . S
C1150 C1146 1.368 . S
C1150 C1149 1.523 . S
H1151 C1126 0.950 . S
H1152 C1128 0.950 . S
H1153 C1129 0.949 . S
H1154 C1131 0.950 . S
H1155 C1133 0.950 . S
C1156 C1157 1.349 . S
C1156 C1158 1.327 . S
C1156 H1181 0.950 . S
C1157 C1156 1.349 . S
C1157 C1173 1.349 . S
C1158 C1156 1.327 . S
C1158 C1177 1.429 . S
C1158 H1182 0.950 . S
C1159 C1176 1.574 . S
C1159 C1178 1.368 . S
C1159 H1183 0.949 . S
H1160 C1164 0.949 . S
C1161 C1162 1.349 . S
C1161 C1163 1.327 . S
C1161 H1184 0.950 . S
C1162 C1161 1.349 . S
C1162 C1174 1.349 . S
C1163 C1161 1.327 . S
C1163 C1179 1.429 . S
C1163 H1185 0.950 . S
C1164 H1160 0.949 . S
C1164 C1172 1.574 . S
C1164 C1180 1.368 . S
H1165 C1173 0.950 . S
H1166 C1171 0.950 . S
H1167 C1172 0.949 . S
H1168 C1174 0.950 . S
H1169 C1175 0.950 . S
H1170 C1176 0.949 . S
C1171 H1166 0.950 . S
C1171 C1173 1.327 . S
C1171 C1177 1.429 . S
C1172 C1164 1.574 . S
C1172 H1167 0.949 . S
C1172 C1178 1.368 . S
C1173 C1157 1.349 . S
C1173 H1165 0.950 . S
C1173 C1171 1.327 . S
C1174 C1162 1.349 . S
C1174 H1168 0.950 . S
C1174 C1175 1.327 . S
C1175 H1169 0.950 . S
C1175 C1174 1.327 . S
C1175 C1179 1.429 . S
C1176 C1159 1.574 . S
C1176 H1170 0.949 . S
C1176 C1180 1.368 . S
C1177 C1158 1.429 . S
C1177 C1171 1.429 . S
C1177 C1178 1.523 . S
C1178 C1159 1.368 . S
C1178 C1172 1.368 . S
C1178 C1177 1.523 . S
C1179 C1163 1.429 . S
C1179 C1175 1.429 . S
C1179 C1180 1.523 . S
C1180 C1164 1.368 . S
C1180 C1176 1.368 . S
C1180 C1179 1.523 . S
H1181 C1156 0.950 . S
H1182 C1158 0.950 . S
H1183 C1159 0.949 . S
H1184 C1161 0.950 . S
H1185 C1163 0.950 . S
C1186 C1187 1.349 . S
C1186 C1188 1.327 . S
C1186 H1211 0.950 . S
C1187 C1186 1.349 . S
C1187 C1203 1.349 . S
C1188 C1186 1.327 . S
C1188 C1207 1.429 . S
C1188 H1212 0.950 . S
C1189 C1206 1.574 1_545 S
C1189 C1208 1.368 . S
C1189 H1213 0.949 1_545 S
H1190 C1194 0.949 . S
C1191 C1192 1.349 . S
C1191 C1193 1.327 . S
C1191 H1214 0.950 . S
C1192 C1191 1.349 . S
C1192 C1204 1.349 . S
C1193 C1191 1.327 . S
C1193 C1209 1.429 . S
C1193 H1215 0.950 . S
C1194 H1190 0.949 . S
C1194 C1202 1.574 . S
C1194 C1210 1.368 1_545 S
H1195 C1203 0.950 . S
H1196 C1201 0.950 . S
H1197 C1202 0.949 . S
H1198 C1204 0.950 . S
H1199 C1205 0.950 1_545 S
H1200 C1206 0.949 . S
C1201 H1196 0.950 . S
C1201 C1203 1.327 . S
C1201 C1207 1.429 . S
C1202 C1194 1.574 . S
C1202 H1197 0.949 . S
C1202 C1208 1.368 . S
C1203 C1187 1.349 . S
C1203 H1195 0.950 . S
C1203 C1201 1.327 . S
C1204 C1192 1.349 . S
C1204 H1198 0.950 . S
C1204 C1205 1.327 . S
C1205 H1199 0.950 1_565 S
C1205 C1204 1.327 . S
C1205 C1209 1.429 . S
C1206 C1189 1.574 1_565 S
C1206 H1200 0.949 . S
C1206 C1210 1.368 . S
C1207 C1188 1.429 . S
C1207 C1201 1.429 . S
C1207 C1208 1.523 . S
C1208 C1189 1.368 . S
C1208 C1202 1.368 . S
C1208 C1207 1.523 . S
C1209 C1193 1.429 . S
C1209 C1205 1.429 . S
C1209 C1210 1.523 . S
C1210 C1194 1.368 1_565 S
C1210 C1206 1.368 . S
C1210 C1209 1.523 . S
H1211 C1186 0.950 . S
H1212 C1188 0.950 . S
H1213 C1189 0.949 1_565 S
H1214 C1191 0.950 . S
H1215 C1193 0.950 . S
C1216 C1217 1.349 . S
C1216 C1218 1.327 . S
C1216 H1241 0.950 . S
C1217 C1216 1.349 . S
C1217 C1233 1.349 . S
C1218 C1216 1.327 . S
C1218 C1237 1.429 . S
C1218 H1242 0.950 . S
C1219 C1236 1.574 . S
C1219 C1238 1.368 . S
C1219 H1243 0.949 . S
H1220 C1224 0.949 . S
C1221 C1222 1.349 . S
C1221 C1223 1.327 . S
C1221 H1244 0.950 . S
C1222 C1221 1.349 . S
C1222 C1234 1.349 . S
C1223 C1221 1.327 . S
C1223 C1239 1.429 . S
C1223 H1245 0.950 . S
C1224 H1220 0.949 . S
C1224 C1232 1.574 . S
C1224 C1240 1.368 . S
H1225 C1233 0.950 . S
H1226 C1231 0.950 . S
H1227 C1232 0.949 . S
H1228 C1234 0.950 . S
H1229 C1235 0.950 . S
H1230 C1236 0.949 . S
C1231 H1226 0.950 . S
C1231 C1233 1.327 . S
C1231 C1237 1.429 . S
C1232 C1224 1.574 . S
C1232 H1227 0.949 . S
C1232 C1238 1.368 . S
C1233 C1217 1.349 . S
C1233 H1225 0.950 . S
C1233 C1231 1.327 . S
C1234 C1222 1.349 . S
C1234 H1228 0.950 . S
C1234 C1235 1.327 . S
C1235 H1229 0.950 . S
C1235 C1234 1.327 . S
C1235 C1239 1.429 . S
C1236 C1219 1.574 . S
C1236 H1230 0.949 . S
C1236 C1240 1.368 . S
C1237 C1218 1.429 . S
C1237 C1231 1.429 . S
C1237 C1238 1.523 . S
C1238 C1219 1.368 . S
C1238 C1232 1.368 . S
C1238 C1237 1.523 . S
C1239 C1223 1.429 . S
C1239 C1235 1.429 . S
C1239 C1240 1.523 . S
C1240 C1224 1.368 . S
C1240 C1236 1.368 . S
C1240 C1239 1.523 . S
H1241 C1216 0.950 . S
H1242 C1218 0.950 . S
H1243 C1219 0.949 . S
H1244 C1221 0.950 . S
H1245 C1223 0.950 . S
C1246 C1247 1.349 . S
C1246 C1248 1.327 . S
C1246 H1271 0.950 . S
C1247 C1246 1.349 . S
C1247 C1263 1.349 . S
C1248 C1246 1.327 . S
C1248 C1267 1.429 . S
C1248 H1272 0.950 . S
C1249 C1266 1.574 . S
C1249 C1268 1.368 . S
C1249 H1273 0.949 . S
H1250 C1254 0.949 . S
C1251 C1252 1.349 . S
C1251 C1253 1.327 . S
C1251 H1274 0.950 . S
C1252 C1251 1.349 . S
C1252 C1264 1.349 . S
C1253 C1251 1.327 . S
C1253 C1269 1.429 . S
C1253 H1275 0.950 . S
C1254 H1250 0.949 . S
C1254 C1262 1.574 . S
C1254 C1270 1.368 . S
H1255 C1263 0.950 . S
H1256 C1261 0.950 . S
H1257 C1262 0.949 . S
H1258 C1264 0.950 . S
H1259 C1265 0.950 . S
H1260 C1266 0.949 . S
C1261 H1256 0.950 . S
C1261 C1263 1.327 . S
C1261 C1267 1.429 . S
C1262 C1254 1.574 . S
C1262 H1257 0.949 . S
C1262 C1268 1.368 . S
C1263 C1247 1.349 . S
C1263 H1255 0.950 . S
C1263 C1261 1.327 . S
C1264 C1252 1.349 . S
C1264 H1258 0.950 . S
C1264 C1265 1.327 . S
C1265 H1259 0.950 . S
C1265 C1264 1.327 . S
C1265 C1269 1.429 . S
C1266 C1249 1.574 . S
C1266 H1260 0.949 . S
C1266 C1270 1.368 . S
C1267 C1248 1.429 . S
C1267 C1261 1.429 . S
C1267 C1268 1.523 . S
C1268 C1249 1.368 . S
C1268 C1262 1.368 . S
C1268 C1267 1.523 . S
C1269 C1253 1.429 . S
C1269 C1265 1.429 . S
C1269 C1270 1.523 . S
C1270 C1254 1.368 . S
C1270 C1266 1.368 . S
C1270 C1269 1.523 . S
H1271 C1246 0.950 . S
H1272 C1248 0.950 . S
H1273 C1249 0.949 . S
H1274 C1251 0.950 . S
H1275 C1253 0.950 . S
C1276 C1277 1.349 . S
C1276 C1278 1.325 . S
C1276 H1301 0.950 . S
C1277 C1276 1.349 . S
C1277 C1293 1.349 . S
C1278 C1276 1.325 . S
C1278 C1297 1.427 . S
C1278 H1302 0.953 1_455 S
C1279 C1296 1.574 1_455 S
C1279 C1298 1.368 1_455 S
C1279 H1303 0.949 . S
H1280 C1284 0.949 . S
C1281 C1282 1.349 . S
C1281 C1283 1.327 . S
C1281 H1304 0.950 . S
C1282 C1281 1.349 . S
C1282 C1294 1.349 . S
C1283 C1281 1.327 . S
C1283 C1299 1.429 . S
C1283 H1305 0.950 . S
C1284 H1280 0.949 . S
C1284 C1292 1.574 . S
C1284 C1300 1.368 . S
H1285 C1293 0.950 . S
H1286 C1291 0.950 . S
H1287 C1292 0.949 . S
H1288 C1294 0.950 . S
H1289 C1295 0.950 . S
H1290 C1296 0.949 . S
C1291 H1286 0.950 . S
C1291 C1293 1.327 . S
C1291 C1297 1.429 . S
C1292 C1284 1.574 . S
C1292 H1287 0.949 . S
C1292 C1298 1.368 . S
C1293 C1277 1.349 . S
C1293 H1285 0.950 . S
C1293 C1291 1.327 . S
C1294 C1282 1.349 . S
C1294 H1288 0.950 . S
C1294 C1295 1.327 . S
C1295 H1289 0.950 . S
C1295 C1294 1.327 . S
C1295 C1299 1.429 . S
C1296 C1279 1.574 1_655 S
C1296 H1290 0.949 . S
C1296 C1300 1.368 . S
C1297 C1278 1.427 . S
C1297 C1291 1.429 . S
C1297 C1298 1.523 1_455 S
C1298 C1279 1.368 1_655 S
C1298 C1292 1.368 . S
C1298 C1297 1.523 1_655 S
C1299 C1283 1.429 . S
C1299 C1295 1.429 . S
C1299 C1300 1.523 . S
C1300 C1284 1.368 . S
C1300 C1296 1.368 . S
C1300 C1299 1.523 . S
H1301 C1276 0.950 . S
H1302 C1278 0.953 1_655 S
H1303 C1279 0.949 . S
H1304 C1281 0.950 . S
H1305 C1283 0.950 . S
C1306 C1307 1.349 . S
C1306 C1308 1.327 . S
C1306 H1331 0.950 . S
C1307 C1306 1.349 . S
C1307 C1323 1.349 . S
C1308 C1306 1.327 . S
C1308 C1327 1.429 . S
C1308 H1332 0.950 . S
C1309 C1326 1.574 . S
C1309 C1328 1.368 . S
C1309 H1333 0.949 . S
H1310 C1314 0.949 . S
C1311 C1312 1.349 . S
C1311 C1313 1.327 . S
C1311 H1334 0.950 . S
C1312 C1311 1.349 . S
C1312 C1324 1.349 . S
C1313 C1311 1.327 . S
C1313 C1329 1.429 . S
C1313 H1335 0.950 . S
C1314 H1310 0.949 . S
C1314 C1322 1.574 . S
C1314 C1330 1.368 . S
H1315 C1323 0.950 . S
H1316 C1321 0.950 . S
H1317 C1322 0.949 . S
H1318 C1324 0.950 . S
H1319 C1325 0.950 . S
H1320 C1326 0.949 . S
C1321 H1316 0.950 . S
C1321 C1323 1.327 . S
C1321 C1327 1.429 . S
C1322 C1314 1.574 . S
C1322 H1317 0.949 . S
C1322 C1328 1.368 . S
C1323 C1307 1.349 . S
C1323 H1315 0.950 . S
C1323 C1321 1.327 . S
C1324 C1312 1.349 . S
C1324 H1318 0.950 . S
C1324 C1325 1.327 . S
C1325 H1319 0.950 . S
C1325 C1324 1.327 . S
C1325 C1329 1.429 . S
C1326 C1309 1.574 . S
C1326 H1320 0.949 . S
C1326 C1330 1.368 . S
C1327 C1308 1.429 . S
C1327 C1321 1.429 . S
C1327 C1328 1.523 . S
C1328 C1309 1.368 . S
C1328 C1322 1.368 . S
C1328 C1327 1.523 . S
C1329 C1313 1.429 . S
C1329 C1325 1.429 . S
C1329 C1330 1.523 . S
C1330 C1314 1.368 . S
C1330 C1326 1.368 . S
C1330 C1329 1.523 . S
H1331 C1306 0.950 . S
H1332 C1308 0.950 . S
H1333 C1309 0.949 . S
H1334 C1311 0.950 . S
H1335 C1313 0.950 . S
C1336 C1337 1.349 . S
C1336 C1338 1.327 . S
C1336 H1361 0.950 . S
C1337 C1336 1.349 . S
C1337 C1353 1.349 . S
C1338 C1336 1.327 . S
C1338 C1357 1.429 . S
C1338 H1362 0.950 . S
C1339 C1356 1.574 . S
C1339 C1358 1.368 . S
C1339 H1363 0.949 . S
H1340 C1344 0.949 . S
C1341 C1342 1.349 . S
C1341 C1343 1.327 . S
C1341 H1364 0.950 . S
C1342 C1341 1.349 . S
C1342 C1354 1.349 . S
C1343 C1341 1.327 . S
C1343 C1359 1.429 . S
C1343 H1365 0.950 . S
C1344 H1340 0.949 . S
C1344 C1352 1.574 . S
C1344 C1360 1.368 . S
H1345 C1353 0.950 . S
H1346 C1351 0.950 . S
H1347 C1352 0.949 . S
H1348 C1354 0.950 . S
H1349 C1355 0.950 . S
H1350 C1356 0.949 . S
C1351 H1346 0.950 . S
C1351 C1353 1.327 . S
C1351 C1357 1.429 . S
C1352 C1344 1.574 . S
C1352 H1347 0.949 . S
C1352 C1358 1.368 . S
C1353 C1337 1.349 . S
C1353 H1345 0.950 . S
C1353 C1351 1.327 . S
C1354 C1342 1.349 . S
C1354 H1348 0.950 . S
C1354 C1355 1.327 . S
C1355 H1349 0.950 . S
C1355 C1354 1.327 . S
C1355 C1359 1.429 . S
C1356 C1339 1.574 . S
C1356 H1350 0.949 . S
C1356 C1360 1.368 . S
C1357 C1338 1.429 . S
C1357 C1351 1.429 . S
C1357 C1358 1.523 . S
C1358 C1339 1.368 . S
C1358 C1352 1.368 . S
C1358 C1357 1.523 . S
C1359 C1343 1.429 . S
C1359 C1355 1.429 . S
C1359 C1360 1.523 . S
C1360 C1344 1.368 . S
C1360 C1356 1.368 . S
C1360 C1359 1.523 . S
H1361 C1336 0.950 . S
H1362 C1338 0.950 . S
H1363 C1339 0.949 . S
H1364 C1341 0.950 . S
H1365 C1343 0.950 . S
C1366 C1367 1.349 . S
C1366 C1368 1.327 . S
C1366 H1391 0.950 . S
C1367 C1366 1.349 . S
C1367 C1383 1.349 . S
C1368 C1366 1.327 . S
C1368 C1387 1.429 . S
C1368 H1392 0.950 . S
C1369 C1386 1.574 . S
C1369 C1388 1.368 . S
C1369 H1393 0.949 . S
H1370 C1374 0.942 1_455 S
C1371 C1372 1.349 . S
C1371 C1373 1.327 . S
C1371 H1394 0.950 . S
C1372 C1371 1.349 . S
C1372 C1384 1.349 . S
C1373 C1371 1.327 . S
C1373 C1389 1.429 . S
C1373 H1395 0.950 . S
C1374 H1370 0.942 1_655 S
C1374 C1382 1.574 1_655 S
C1374 C1390 1.368 . S
H1375 C1383 0.950 . S
H1376 C1381 0.950 1_655 S
H1377 C1382 0.949 . S
H1378 C1384 0.950 . S
H1379 C1385 0.950 . S
H1380 C1386 0.949 . S
C1381 H1376 0.950 1_455 S
C1381 C1383 1.327 . S
C1381 C1387 1.429 . S
C1382 C1374 1.574 1_455 S
C1382 H1377 0.949 . S
C1382 C1388 1.368 1_455 S
C1383 C1367 1.349 . S
C1383 H1375 0.950 . S
C1383 C1381 1.327 . S
C1384 C1372 1.349 . S
C1384 H1378 0.950 . S
C1384 C1385 1.327 . S
C1385 H1379 0.950 . S
C1385 C1384 1.327 . S
C1385 C1389 1.429 . S
C1386 C1369 1.574 . S
C1386 H1380 0.949 . S
C1386 C1390 1.368 . S
C1387 C1368 1.429 . S
C1387 C1381 1.429 . S
C1387 C1388 1.523 1_455 S
C1388 C1369 1.368 . S
C1388 C1382 1.368 1_655 S
C1388 C1387 1.523 1_655 S
C1389 C1373 1.429 . S
C1389 C1385 1.429 . S
C1389 C1390 1.523 . S
C1390 C1374 1.368 . S
C1390 C1386 1.368 . S
C1390 C1389 1.523 . S
H1391 C1366 0.950 . S
H1392 C1368 0.950 . S
H1393 C1369 0.949 . S
H1394 C1371 0.950 . S
H1395 C1373 0.950 . S
C1396 C1397 1.349 . S
C1396 C1398 1.327 . S
C1396 H1421 0.950 . S
C1397 C1396 1.349 . S
C1397 C1413 1.349 . S
C1398 C1396 1.327 . S
C1398 C1417 1.429 . S
C1398 H1422 0.950 . S
C1399 C1416 1.574 . S
C1399 C1418 1.368 . S
C1399 H1423 0.949 . S
H1400 C1404 0.949 . S
C1401 C1402 1.349 . S
C1401 C1403 1.327 . S
C1401 H1424 0.950 . S
C1402 C1401 1.349 . S
C1402 C1414 1.349 . S
C1403 C1401 1.327 . S
C1403 C1419 1.429 . S
C1403 H1425 0.950 . S
C1404 H1400 0.949 . S
C1404 C1412 1.574 . S
C1404 C1420 1.368 . S
H1405 C1413 0.950 . S
H1406 C1411 0.950 . S
H1407 C1412 0.949 . S
H1408 C1414 0.950 . S
H1409 C1415 0.950 . S
H1410 C1416 0.949 . S
C1411 H1406 0.950 . S
C1411 C1413 1.327 . S
C1411 C1417 1.429 . S
C1412 C1404 1.574 . S
C1412 H1407 0.949 . S
C1412 C1418 1.368 . S
C1413 C1397 1.349 . S
C1413 H1405 0.950 . S
C1413 C1411 1.327 . S
C1414 C1402 1.349 . S
C1414 H1408 0.950 . S
C1414 C1415 1.327 . S
C1415 H1409 0.950 . S
C1415 C1414 1.327 . S
C1415 C1419 1.429 . S
C1416 C1399 1.574 . S
C1416 H1410 0.949 . S
C1416 C1420 1.368 . S
C1417 C1398 1.429 . S
C1417 C1411 1.429 . S
C1417 C1418 1.523 . S
C1418 C1399 1.368 . S
C1418 C1412 1.368 . S
C1418 C1417 1.523 . S
C1419 C1403 1.429 . S
C1419 C1415 1.429 . S
C1419 C1420 1.523 . S
C1420 C1404 1.368 . S
C1420 C1416 1.368 . S
C1420 C1419 1.523 . S
H1421 C1396 0.950 . S
H1422 C1398 0.950 . S
H1423 C1399 0.949 . S
H1424 C1401 0.950 . S
H1425 C1403 0.950 . S
C1426 C1427 1.349 . S
C1426 C1428 1.327 . S
C1426 H1451 0.950 . S
C1427 C1426 1.349 . S
C1427 C1443 1.349 . S
C1428 C1426 1.327 . S
C1428 C1447 1.429 . S
C1428 H1452 0.950 . S
C1429 C1446 1.574 . S
C1429 C1448 1.368 . S
C1429 H1453 0.949 . S
H1430 C1434 0.949 . S
C1431 C1432 1.349 . S
C1431 C1433 1.327 . S
C1431 H1454 0.950 . S
C1432 C1431 1.349 . S
C1432 C1444 1.349 . S
C1433 C1431 1.327 . S
C1433 C1449 1.429 . S
C1433 H1455 0.950 . S
C1434 H1430 0.949 . S
C1434 C1442 1.574 . S
C1434 C1450 1.368 . S
H1435 C1443 0.950 . S
H1436 C1441 0.950 . S
H1437 C1442 0.949 . S
H1438 C1444 0.950 . S
H1439 C1445 0.950 . S
H1440 C1446 0.949 . S
C1441 H1436 0.950 . S
C1441 C1443 1.327 . S
C1441 C1447 1.429 . S
C1442 C1434 1.574 . S
C1442 H1437 0.949 . S
C1442 C1448 1.368 . S
C1443 C1427 1.349 . S
C1443 H1435 0.950 . S
C1443 C1441 1.327 . S
C1444 C1432 1.349 . S
C1444 H1438 0.950 . S
C1444 C1445 1.327 . S
C1445 H1439 0.950 . S
C1445 C1444 1.327 . S
C1445 C1449 1.429 . S
C1446 C1429 1.574 . S
C1446 H1440 0.949 . S
C1446 C1450 1.368 . S
C1447 C1428 1.429 . S
C1447 C1441 1.429 . S
C1447 C1448 1.523 . S
C1448 C1429 1.368 . S
C1448 C1442 1.368 . S
C1448 C1447 1.523 . S
C1449 C1433 1.429 . S
C1449 C1445 1.429 . S
C1449 C1450 1.523 . S
C1450 C1434 1.368 . S
C1450 C1446 1.368 . S
C1450 C1449 1.523 . S
H1451 C1426 0.950 . S
H1452 C1428 0.950 . S
H1453 C1429 0.949 . S
H1454 C1431 0.950 . S
H1455 C1433 0.950 . S
C502 C404 1.265 . S
C497 C36 1.249 . S
C532 C421 1.338 . S
C527 C93 1.366 . S
C562 C435 1.484 . S
C557 C126 1.521 . S
C587 C165 1.244 . S
C592 C393 1.231 . S
C617 C222 1.199 . S
C622 C390 1.231 . S
C647 C261 1.043 . S
C652 C407 1.034 . S
C682 C418 1.490 . S
C677 C318 1.460 . S
C712 C432 1.335 . S
C707 C381 1.340 . S
C737 C132 1.320 . S
C742 C460 1.334 . S
C772 C474 1.492 . S
C767 C189 1.502 . S
C797 C30 1.049 . S
C802 C491 1.035 . S
C832 C446 1.229 . S
C827 C69 1.199 1_655 S
C857 C324 1.240 . S
C862 C449 1.232 . S
C887 C357 1.506 . S
C892 C463 1.484 . S
C922 C477 1.337 . S
C917 C228 1.361 . S
C947 C285 1.260 . S
C952 C488 1.264 . S
C982 C420 2.025 . S
C977 C45 2.016 1_565 S
C1012 C434 2.093 . S
C1007 C84 2.094 . S
C1037 C117 1.996 . S
C1042 C392 2.012 1_556 S
C1067 C174 1.843 . S
C1072 C405 1.781 . S
C1097 C213 1.712 . S
C1102 C433 1.581 . S
C1132 C391 1.516 . S
C1127 C270 1.619 . S
C1162 C406 1.908 . S
C1157 C309 1.918 . S
C1192 C419 1.704 . S
C1187 C372 1.827 . S
C1222 C475 1.703 . S
C1217 C141 1.808 . S
C1252 C490 1.907 . S
C1247 C180 1.914 . S
C1277 C21 1.640 . S
C1282 C447 1.516 . S
C1312 C461 1.579 . S
C1307 C78 1.699 . S
C1342 C489 1.781 . S
C1337 C333 1.896 . S
C1367 C366 1.960 . S
C1372 C448 2.012 . S
C1402 C462 2.092 . S
C1397 C237 2.093 . S
C1432 C476 2.026 . S
C1427 C276 2.031 . S
