# Generated by pormake.
# Topology zzz, (3,6)-cn, num edge types: 1
# Building blocks:
#     Node 0, Type 0, BuildingBlock: BELTOD_clean_linker_0, # of connection points: 3
#     Node 1, Type 0, BuildingBlock: BELTOD_clean_linker_0, # of connection points: 3
#     Node 2, Type 0, BuildingBlock: BELTOD_clean_linker_0, # of connection points: 3
#     Node 3, Type 0, BuildingBlock: BELTOD_clean_linker_0, # of connection points: 3
#     Node 4, Type 0, BuildingBlock: BELTOD_clean_linker_0, # of connection points: 3
#     Node 5, Type 0, BuildingBlock: BELTOD_clean_linker_0, # of connection points: 3
#     Node 6, Type 0, BuildingBlock: BELTOD_clean_linker_0, # of connection points: 3
#     Node 7, Type 0, BuildingBlock: BELTOD_clean_linker_0, # of connection points: 3
#     Node 8, Type 1, BuildingBlock: KUMBUR_clean_sbu_1, # of connection points: 6
#     Node 9, Type 1, BuildingBlock: KUMBUR_clean_sbu_1, # of connection points: 6
#     Node 10, Type 1, BuildingBlock: KUMBUR_clean_sbu_1, # of connection points: 6
#     Node 11, Type 1, BuildingBlock: KUMBUR_clean_sbu_1, # of connection points: 6
#     Edge 12, Type (0, 1), BuildingBlock: UVAHIK_clean_linker_0, # of connection points: 2
#     Edge 13, Type (0, 1), BuildingBlock: UVAHIK_clean_linker_0, # of connection points: 2
#     Edge 14, Type (0, 1), BuildingBlock: UVAHIK_clean_linker_0, # of connection points: 2
#     Edge 15, Type (0, 1), BuildingBlock: UVAHIK_clean_linker_0, # of connection points: 2
#     Edge 16, Type (0, 1), BuildingBlock: UVAHIK_clean_linker_0, # of connection points: 2
#     Edge 17, Type (0, 1), BuildingBlock: UVAHIK_clean_linker_0, # of connection points: 2
#     Edge 18, Type (0, 1), BuildingBlock: UVAHIK_clean_linker_0, # of connection points: 2
#     Edge 19, Type (0, 1), BuildingBlock: UVAHIK_clean_linker_0, # of connection points: 2
#     Edge 20, Type (0, 1), BuildingBlock: UVAHIK_clean_linker_0, # of connection points: 2
#     Edge 21, Type (0, 1), BuildingBlock: UVAHIK_clean_linker_0, # of connection points: 2
#     Edge 22, Type (0, 1), BuildingBlock: UVAHIK_clean_linker_0, # of connection points: 2
#     Edge 23, Type (0, 1), BuildingBlock: UVAHIK_clean_linker_0, # of connection points: 2
#     Edge 24, Type (0, 1), BuildingBlock: UVAHIK_clean_linker_0, # of connection points: 2
#     Edge 25, Type (0, 1), BuildingBlock: UVAHIK_clean_linker_0, # of connection points: 2
#     Edge 26, Type (0, 1), BuildingBlock: UVAHIK_clean_linker_0, # of connection points: 2
#     Edge 27, Type (0, 1), BuildingBlock: UVAHIK_clean_linker_0, # of connection points: 2
#     Edge 28, Type (0, 1), BuildingBlock: UVAHIK_clean_linker_0, # of connection points: 2
#     Edge 29, Type (0, 1), BuildingBlock: UVAHIK_clean_linker_0, # of connection points: 2
#     Edge 30, Type (0, 1), BuildingBlock: UVAHIK_clean_linker_0, # of connection points: 2
#     Edge 31, Type (0, 1), BuildingBlock: UVAHIK_clean_linker_0, # of connection points: 2
#     Edge 32, Type (0, 1), BuildingBlock: UVAHIK_clean_linker_0, # of connection points: 2
#     Edge 33, Type (0, 1), BuildingBlock: UVAHIK_clean_linker_0, # of connection points: 2
#     Edge 34, Type (0, 1), BuildingBlock: UVAHIK_clean_linker_0, # of connection points: 2
#     Edge 35, Type (0, 1), BuildingBlock: UVAHIK_clean_linker_0, # of connection points: 2
# Relax obj value: 0.273
# Max RMSD: 0.194
# Mean RMSD: 0.169
data_MOF--net-zzz--node1-KUMBUR_clean_sbu_1--node2-BELTOD_clean_linker_0--edge1-UVAHIK_clean_linker_0
_symmetry_space_group_name_H-M    P1
_symmetry_Int_Tables_number       1
_symmetry_cell_setting            triclinic
loop_
_symmetry_equiv_pos_as_xyz
'x, y, z'
_cell_length_a     66.874244
_cell_length_b     67.065413
_cell_length_c     24.581394
_cell_angle_alpha  90.100126
_cell_angle_beta   89.993513
_cell_angle_gamma 90.513185
loop_
_atom_site_label
_atom_site_type_symbol
_atom_site_fract_x
_atom_site_fract_y
_atom_site_fract_z
_atom_type_partial_charge
P0 P 0.72894 0.52622 0.23955 0.0
H1 H 0.73482 0.50704 0.34535 0.0
H2 H 0.76335 0.51028 0.40632 0.0
H3 H 0.77908 0.56644 0.33117 0.0
H4 H 0.74991 0.5635 0.27209 0.0
H5 H 0.6965 0.49883 0.2109 0.0
H6 H 0.66751 0.50316 0.15353 0.0
H7 H 0.67497 0.56703 0.1629 0.0
H8 H 0.70415 0.5626 0.22284 0.0
H9 H 0.77136 0.52206 0.22387 0.0
H10 H 0.72294 0.55046 0.13812 0.0
O11 O 0.73216 0.50156 0.23874 0.0
H12 H 0.79484 0.53515 0.15713 0.0
H13 H 0.74638 0.56429 0.07348 0.0
C14 C 0.74037 0.53472 0.30279 0.0
C15 C 0.74377 0.52057 0.34368 0.0
C16 C 0.76048 0.52224 0.37791 0.0
C17 C 0.77423 0.53816 0.37218 0.0
C18 C 0.76911 0.55379 0.33664 0.0
C19 C 0.75218 0.5522 0.30287 0.0
C20 C 0.70293 0.53038 0.22085 0.0
C21 C 0.69162 0.51388 0.20291 0.0
C22 C 0.67492 0.51635 0.16954 0.0
C23 C 0.66912 0.53542 0.15256 0.0
C24 C 0.67923 0.55211 0.17468 0.0
C25 C 0.69572 0.5496 0.20972 0.0
C26 C 0.74534 0.53546 0.1871 0.0
C27 C 0.76577 0.53131 0.19125 0.0
C28 C 0.77923 0.53911 0.15361 0.0
C29 C 0.77248 0.55115 0.11077 0.0
C30 C 0.75201 0.55523 0.10644 0.0
C31 C 0.73853 0.54733 0.14402 0.0
P32 P 0.99725 0.72812 0.23737 0.0
H33 H 0.01581 0.73764 0.34189 0.0
H34 H 0.01092 0.7663 0.39948 0.0
H35 H 0.95305 0.7758 0.32575 0.0
H36 H 0.95883 0.74749 0.26531 0.0
H37 H 0.02225 0.69585 0.19864 0.0
H38 H 0.01511 0.66777 0.13936 0.0
H39 H 0.95191 0.67697 0.16023 0.0
H40 H 0.95907 0.70487 0.22322 0.0
H41 H 0.01474 0.76568 0.20478 0.0
H42 H 0.96441 0.72909 0.15521 0.0
O43 O 0.02216 0.72915 0.24225 0.0
H44 H 1.00385 0.79168 0.14262 0.0
H45 H 0.95372 0.75496 0.09307 0.0
C46 C 0.98791 0.74041 0.29818 0.0
C47 C 1.0017 0.74537 0.33914 0.0
C48 C 0.99884 0.76207 0.37246 0.0
C49 C 0.98179 0.77412 0.36682 0.0
C50 C 0.96677 0.76754 0.33032 0.0
C51 C 0.96982 0.75091 0.29638 0.0
C52 C 0.9912 0.70287 0.21522 0.0
C53 C 0.00677 0.6915 0.19295 0.0
C54 C 1.00274 0.6754 0.1585 0.0
C55 C 0.98302 0.67041 0.14468 0.0
C56 C 0.96728 0.68062 0.17022 0.0
C57 C 0.97138 0.69648 0.20637 0.0
C58 C 0.99081 0.74512 0.18393 0.0
C59 C 1.00165 0.76299 0.17979 0.0
C60 C 0.99526 0.77793 0.14492 0.0
C61 C 0.97785 0.77527 0.11379 0.0
C62 C 0.96722 0.75724 0.11673 0.0
C63 C 0.97352 0.74234 0.15212 0.0
P64 P 0.79123 0.99355 0.23938 0.0
H65 H 0.78515 0.00859 0.35029 0.0
H66 H 0.75609 1.00373 0.40918 0.0
H67 H 0.73908 0.95166 0.31646 0.0
H68 H 0.76855 0.95611 0.25881 0.0
H69 H 0.82184 0.02106 0.20118 0.0
H70 H 0.85054 0.01635 0.14294 0.0
H71 H 0.84576 0.95269 0.16449 0.0
H72 H 0.81707 0.95756 0.22618 0.0
H73 H 0.75158 0.00592 0.20953 0.0
H74 H 0.79474 0.96359 0.14963 0.0
O75 O 0.7885 0.01818 0.24555 0.0
H76 H 0.72765 0.9939 0.14189 0.0
H77 H 0.771 0.95185 0.08231 0.0
C78 C 0.779 0.98301 0.29905 0.0
C79 C 0.77586 0.99547 0.34426 0.0
C80 C 0.75902 0.99281 0.37772 0.0
C81 C 0.74493 0.97765 0.36651 0.0
C82 C 0.74943 0.96373 0.32549 0.0
C83 C 0.76651 0.96615 0.29285 0.0
C84 C 0.81701 0.98967 0.21834 0.0
C85 C 0.82732 0.00605 0.19591 0.0
C86 C 0.84379 1.00336 0.16189 0.0
C87 C 0.85026 0.98415 0.14835 0.0
C88 C 0.84098 0.9677 0.17387 0.0
C89 C 0.82476 0.97049 0.20974 0.0
C90 C 0.77524 0.98618 0.18404 0.0
C91 C 0.75607 0.99431 0.18148 0.0
C92 C 0.74232 0.98719 0.1436 0.0
C93 C 0.74757 0.97181 0.10765 0.0
C94 C 0.76672 0.9637 0.10987 0.0
C95 C 0.78041 0.97067 0.14826 0.0
P96 P 0.52627 0.79159 0.23804 0.0
H97 H 0.50772 0.78293 0.34333 0.0
H98 H 0.51179 0.75403 0.40053 0.0
H99 H 0.56916 0.74277 0.32591 0.0
H100 H 0.56427 0.77136 0.2662 0.0
H101 H 0.49955 0.82318 0.20396 0.0
H102 H 0.50439 0.85183 0.1463 0.0
H103 H 0.56835 0.8454 0.15864 0.0
H104 H 0.5634 0.81658 0.21974 0.0
H105 H 0.51125 0.75274 0.20872 0.0
H106 H 0.55822 0.79236 0.15274 0.0
O107 O 0.5014 0.78945 0.24188 0.0
H108 H 0.52308 0.72715 0.14638 0.0
H109 H 0.56982 0.76689 0.09041 0.0
C110 C 0.53545 0.77936 0.29927 0.0
C111 C 0.52158 0.77477 0.34038 0.0
C112 C 0.52393 0.7579 0.3734 0.0
C113 C 0.54055 0.74526 0.3673 0.0
C114 C 0.55572 0.75146 0.33082 0.0
C115 C 0.5532 0.76828 0.2973 0.0
C116 C 0.53109 0.8172 0.21596 0.0
C117 C 0.51474 0.82812 0.19647 0.0
C118 C 0.5175 0.84467 0.16285 0.0
C119 C 0.53674 0.85079 0.14684 0.0
C120 C 0.55329 0.84088 0.16953 0.0
C121 C 0.55046 0.82449 0.20486 0.0
C122 C 0.53342 0.77475 0.1848 0.0
C123 C 0.52381 0.75615 0.1824 0.0
C124 C 0.53076 0.74144 0.14749 0.0
C125 C 0.54749 0.74512 0.11443 0.0
C126 C 0.5569 0.76382 0.11575 0.0
C127 C 0.55006 0.77849 0.15127 0.0
P128 P 0.2945 0.4505 0.98952 0.0
H129 H 0.28175 0.43926 0.8794 0.0
H130 H 0.25195 0.44797 0.82819 0.0
H131 H 0.24107 0.49663 0.93917 0.0
H132 H 0.27115 0.48782 0.99034 0.0
H133 H 0.32805 0.4292 0.03286 0.0
H134 H 0.35432 0.43876 0.09479 0.0
H135 H 0.34044 0.50087 0.06903 0.0
H136 H 0.31309 0.49082 0.00762 0.0
H137 H 0.2562 0.43109 0.00663 0.0
H138 H 0.29678 0.46809 0.10059 0.0
O139 O 0.29771 0.4271 0.96814 0.0
H140 H 0.23088 0.43479 0.07802 0.0
H141 H 0.27168 0.47145 0.17105 0.0
C142 C 0.279 0.4629 0.93895 0.0
C143 C 0.27349 0.4523 0.89179 0.0
C144 C 0.25609 0.4571 0.86285 0.0
C145 C 0.24366 0.47275 0.88001 0.0
C146 C 0.25016 0.48449 0.92446 0.0
C147 C 0.2676 0.4796 0.95358 0.0
C148 C 0.31867 0.45924 0.01433 0.0
C149 C 0.33107 0.44496 0.03839 0.0
C150 C 0.34625 0.45053 0.07453 0.0
C151 C 0.34969 0.47068 0.08788 0.0
C152 C 0.33814 0.48517 0.0607 0.0
C153 C 0.32273 0.4795 0.02441 0.0
C154 C 0.27844 0.4492 0.04795 0.0
C155 C 0.25993 0.43942 0.0431 0.0
C156 C 0.24553 0.44152 0.0836 0.0
C157 C 0.24966 0.45322 0.12953 0.0
C158 C 0.26847 0.46213 0.136 0.0
C159 C 0.28279 0.46021 0.09531 0.0
P160 P 0.07219 0.2953 0.99296 0.0
H161 H 0.08868 0.27756 0.8947 0.0
H162 H 0.07945 0.24795 0.84604 0.0
H163 H 0.02102 0.24895 0.92202 0.0
H164 H 0.03159 0.27786 0.97551 0.0
H165 H 0.09374 0.32897 0.03762 0.0
H166 H 0.08419 0.35482 0.10087 0.0
H167 H 0.02199 0.33964 0.07653 0.0
H168 H 0.03179 0.31335 0.01182 0.0
H169 H 0.08755 0.25534 1.00469 0.0
H170 H 0.05551 0.29735 0.10534 0.0
O171 O 0.09621 0.29863 0.9764 0.0
H172 H 0.08186 0.2295 0.07322 0.0
H173 H 0.05028 0.2717 0.17334 0.0
C174 C 0.06081 0.28045 0.93872 0.0
C175 C 0.07359 0.27192 0.89992 0.0
C176 C 0.06815 0.25457 0.87157 0.0
C177 C 0.04938 0.24524 0.87958 0.0
C178 C 0.03587 0.25492 0.91517 0.0
C179 C 0.04164 0.27205 0.94492 0.0
C180 C 0.06354 0.31918 0.01885 0.0
C181 C 0.07795 0.33158 0.04365 0.0
C182 C 0.07247 0.34626 0.08097 0.0
C183 C 0.05234 0.34905 0.09505 0.0
C184 C 0.03766 0.33786 0.06679 0.0
C185 C 0.04322 0.32294 0.02918 0.0
C186 C 0.07176 0.27825 0.04912 0.0
C187 C 0.07965 0.25915 0.04167 0.0
C188 C 0.07638 0.24443 0.08054 0.0
C189 C 0.06557 0.24881 0.12776 0.0
C190 C 0.05871 0.26816 0.13696 0.0
C191 C 0.06168 0.28281 0.0977 0.0
P192 P 0.22709 0.07433 0.99625 0.0
H193 H 0.23954 0.08472 0.8854 0.0
H194 H 0.26873 0.07508 0.83268 0.0
H195 H 0.27994 0.02728 0.9457 0.0
H196 H 0.25045 0.03698 0.99832 0.0
H197 H 0.19484 0.09592 0.0448 0.0
H198 H 0.16871 0.08615 0.10677 0.0
H199 H 0.17952 0.02416 0.06934 0.0
H200 H 0.20685 0.03439 0.00808 0.0
H201 H 0.26456 0.09511 0.02087 0.0
H202 H 0.22422 0.05434 0.10299 0.0
O203 O 0.22443 0.09781 0.97516 0.0
H204 H 0.2889 0.09074 0.09491 0.0
H205 H 0.24795 0.05042 0.17531 0.0
C206 C 0.24254 0.06159 0.9461 0.0
C207 C 0.24777 0.0717 0.89804 0.0
C208 C 0.2648 0.06635 0.86819 0.0
C209 C 0.27714 0.05066 0.88535 0.0
C210 C 0.2709 0.03945 0.93097 0.0
C211 C 0.25383 0.04488 0.961 0.0
C212 C 0.20267 0.06599 0.02032 0.0
C213 C 0.19112 0.08021 0.04771 0.0
C214 C 0.17604 0.07451 0.08394 0.0
C215 C 0.17174 0.05426 0.0939 0.0
C216 C 0.18245 0.03991 0.06359 0.0
C217 C 0.19781 0.04572 0.02728 0.0
C218 C 0.24247 0.07517 0.05606 0.0
C219 C 0.26061 0.08585 0.05536 0.0
C220 C 0.2744 0.08346 0.09754 0.0
C221 C 0.27005 0.07031 0.14029 0.0
C222 C 0.25144 0.06072 0.14264 0.0
C223 C 0.23783 0.063 0.10076 0.0
P224 P 0.44776 0.2273 0.99767 0.0
H225 H 0.43964 0.2365 0.88265 0.0
H226 H 0.4491 0.26574 0.82863 0.0
H227 H 0.49337 0.28171 0.9488 0.0
H228 H 0.48436 0.2521 1.00194 0.0
H229 H 0.42576 0.19577 0.05058 0.0
H230 H 0.43574 0.16946 0.11288 0.0
H231 H 0.49763 0.18077 0.07414 0.0
H232 H 0.48755 0.20778 0.01178 0.0
H233 H 0.42869 0.2656 0.0112 0.0
H234 H 0.46573 0.22686 0.10795 0.0
O235 O 0.42441 0.22402 0.97519 0.0
H236 H 0.4333 0.29211 0.0787 0.0
H237 H 0.47015 0.25308 0.17482 0.0
C238 C 0.46124 0.24189 0.94672 0.0
C239 C 0.45206 0.24567 0.89629 0.0
C240 C 0.45734 0.26259 0.86551 0.0
C241 C 0.47173 0.27627 0.8849 0.0
C242 C 0.48207 0.27158 0.93304 0.0
C243 C 0.4771 0.25443 0.96312 0.0
C244 C 0.45584 0.20354 0.02513 0.0
C245 C 0.44148 0.19215 0.05337 0.0
C246 C 0.44717 0.17719 0.08959 0.0
C247 C 0.46741 0.17308 0.09825 0.0
C248 C 0.48189 0.18357 0.0677 0.0
C249 C 0.47615 0.19884 0.03162 0.0
C250 C 0.44665 0.24416 0.05446 0.0
C251 C 0.43724 0.26256 0.04763 0.0
C252 C 0.44004 0.27772 0.08582 0.0
C253 C 0.45216 0.27457 0.13158 0.0
C254 C 0.46059 0.25578 0.14005 0.0
C255 C 0.458 0.24073 0.10155 0.0
Tb256 Tb 0.99009 0.02112 0.57107 0.0
C257 C 0.06404 0.02613 0.72499 0.0
N258 N 0.06161 0.01548 0.6783 0.0
C259 C 0.09561 0.02244 0.65309 0.0
C260 C 0.08246 0.03545 0.73744 0.0
C261 C 0.0771 0.01339 0.64257 0.0
C262 C 0.09832 0.03351 0.70073 0.0
C263 C 0.05 0.03845 0.80951 0.0
C264 C 0.04795 0.02766 0.76047 0.0
C265 C 0.06833 0.04774 0.82208 0.0
C266 C 0.08451 0.04622 0.78618 0.0
Tb267 Tb 0.03148 0.99968 0.66902 0.0
N268 N 0.03043 0.01834 0.74721 0.0
C269 C 0.03371 0.03922 0.84507 0.0
C270 C 0.01504 0.01798 0.78372 0.0
C271 C 0.01622 0.02877 0.83231 0.0
H272 H 0.0755 1.00412 0.60698 0.0
H273 H 1.00383 0.02852 0.86066 0.0
H274 H 0.94643 0.01864 0.63661 0.0
H275 H 0.01473 0.99049 0.37867 0.0
H276 H 1.00224 0.00865 0.77758 0.0
H277 H 0.03469 0.04731 0.88319 0.0
H278 H 0.01876 0.00859 0.46401 0.0
H279 H 0.10788 0.02061 0.62485 0.0
H280 H 0.0702 0.05597 0.85973 0.0
H281 H 0.0986 0.05336 0.79663 0.0
H282 H 0.91289 1.00466 0.61957 0.0
H283 H 0.11274 0.04035 0.70898 0.0
H284 H 0.98182 0.97603 0.35416 0.0
N285 N 0.95886 0.00749 0.56307 0.0
C286 C 0.95521 0.99791 0.51527 0.0
C287 C 0.92471 1.00248 0.59013 0.0
C288 C 0.93604 0.99022 0.50304 0.0
C289 C 0.94391 0.01001 0.60028 0.0
C290 C 0.92074 0.99256 0.54128 0.0
N291 N 0.98929 1.00276 0.49252 0.0
C292 C 0.00474 1.00145 0.45641 0.0
C293 C 0.96761 0.98569 0.42872 0.0
C294 C 0.97085 0.99564 0.47862 0.0
C295 C 0.98369 0.98354 0.3929 0.0
C296 C 1.00231 0.99154 0.40677 0.0
H297 H 0.90579 0.98691 0.53332 0.0
H298 H 0.91808 0.97462 0.44288 0.0
H299 H 0.94571 0.97068 0.37782 0.0
O300 O 0.99436 0.04312 0.51164 0.0
O301 O 0.99071 0.98828 0.57699 0.0
O302 O 0.02309 0.98017 0.60069 0.0
O303 O 0.96658 0.04081 0.5554 0.0
O304 O 0.02188 0.02733 0.5523 0.0
O305 O 0.03986 1.00041 0.58302 0.0
O306 O 0.02972 0.97906 0.73266 0.0
O307 O 0.03092 0.03241 0.65723 0.0
O308 O 0.99776 0.03939 0.64271 0.0
O309 O 0.05542 0.97995 0.68033 0.0
O310 O 0.99979 0.9924 0.68618 0.0
O311 O 0.98224 0.01972 0.65722 0.0
C312 C 0.00527 0.97527 0.58184 0.0
C313 C 0.97661 0.07283 0.52565 0.0
C314 C 0.98815 0.10499 0.49292 0.0
C315 C 0.97603 0.11455 0.53131 0.0
C316 C 0.96429 0.08248 0.56373 0.0
C317 C 0.96403 0.10328 0.56635 0.0
C318 C 0.9883 0.08421 0.48995 0.0
C319 C 0.03777 0.01581 0.55046 0.0
C320 C 0.97694 0.05104 0.52049 0.0
C321 C 0.93275 0.98049 0.45316 0.0
C322 C 0.94848 0.97824 0.41611 0.0
C323 C 0.01579 0.04482 0.65869 0.0
C324 C 0.04531 0.9484 0.71435 0.0
C325 C 0.03071 0.91685 0.74437 0.0
C326 C 0.04366 0.90661 0.70925 0.0
C327 C 0.05839 0.93793 0.68012 0.0
C328 C 0.03153 0.93773 0.74621 0.0
C329 C 0.0574 0.91715 0.67731 0.0
C330 C 0.98381 1.00376 0.68781 0.0
C331 C 0.04626 0.97031 0.71884 0.0
H332 H 0.97562 0.13068 0.53348 0.0
H333 H 0.95482 0.07403 0.5912 0.0
H334 H 0.95447 0.11069 0.59544 0.0
H335 H 0.99763 0.07693 0.45989 0.0
H336 H 0.04359 0.89048 0.70763 0.0
H337 H 0.06934 0.94576 0.65549 0.0
H338 H 0.02145 0.9457 0.7729 0.0
H339 H 0.06749 0.90916 0.65086 0.0
Tb340 Tb 0.52138 0.03383 0.67264 0.0
C341 C 0.50679 0.94773 0.56554 0.0
N342 N 0.51553 0.96456 0.54576 0.0
C343 C 0.53903 0.94487 0.49562 0.0
C344 C 0.51374 0.9287 0.55061 0.0
C345 C 0.53144 0.96339 0.51103 0.0
C346 C 0.53013 0.92743 0.51541 0.0
C347 C 0.48069 0.93247 0.62027 0.0
C348 C 0.49056 0.94961 0.60017 0.0
C349 C 0.48749 0.91348 0.60534 0.0
C350 C 0.50399 0.9116 0.57066 0.0
Tb351 Tb 0.5006 0.99377 0.56987 0.0
N352 N 0.48429 0.96824 0.61344 0.0
C353 C 0.46403 0.93492 0.65392 0.0
C354 C 0.46754 0.97062 0.64446 0.0
C355 C 0.45738 0.95409 0.66583 0.0
H356 H 0.53769 0.97666 0.49301 0.0
H357 H 0.44417 0.95615 0.69057 0.0
H358 H 0.48316 0.05122 0.74591 0.0
H359 H 0.57363 0.06954 0.53514 0.0
H360 H 0.46141 0.98503 0.65171 0.0
H361 H 0.45597 0.92214 0.66998 0.0
H362 H 0.55759 0.04106 0.5799 0.0
H363 H 0.5515 0.94405 0.46765 0.0
H364 H 0.48 0.90015 0.62011 0.0
H365 H 0.50901 0.89685 0.55929 0.0
H366 H 0.46913 0.08405 0.76753 0.0
H367 H 0.53587 0.91309 0.50282 0.0
H368 H 0.56211 0.10374 0.55464 0.0
N369 N 0.50521 0.06276 0.69151 0.0
C370 C 0.5137 0.07935 0.6694 0.0
C371 C 0.48156 0.08293 0.73953 0.0
C372 C 0.50651 0.09849 0.68204 0.0
C373 C 0.48932 0.06426 0.72627 0.0
C374 C 0.49024 0.10013 0.71755 0.0
N375 N 0.53591 0.05835 0.6215 0.0
C376 C 0.55174 0.05559 0.58733 0.0
C377 C 0.53878 0.09399 0.60985 0.0
C378 C 0.52964 0.07711 0.63362 0.0
C379 C 0.55466 0.09116 0.57367 0.0
C380 C 0.56114 0.07187 0.56236 0.0
H381 H 0.48432 0.11458 0.72843 0.0
H382 H 0.51062 0.1302 0.66878 0.0
H383 H 0.53887 0.12626 0.60567 0.0
O384 O 0.55017 0.03649 0.70529 0.0
O385 O 0.50571 0.04517 0.59973 0.0
O386 O 0.51394 0.02118 0.53862 0.0
O387 O 0.52443 0.04468 0.75245 0.0
O388 O 0.54322 0.01234 0.63886 0.0
O389 O 0.53082 0.005 0.55408 0.0
O390 O 0.47276 0.99875 0.5331 0.0
O391 O 0.51432 0.98107 0.6437 0.0
O392 O 0.5109 0.00573 0.70879 0.0
O393 O 0.49696 0.98402 0.489 0.0
O394 O 0.47889 0.01394 0.60986 0.0
O395 O 0.49198 0.02165 0.69402 0.0
C396 C 0.50693 0.03891 0.54914 0.0
C397 C 0.55174 0.03063 0.79905 0.0
C398 C 0.58018 0.01452 0.8403 0.0
C399 C 0.56804 0.00792 0.88329 0.0
C400 C 0.5396 0.02408 0.84237 0.0
C401 C 0.54781 0.01284 0.88445 0.0
C402 C 0.57211 0.02608 0.79888 0.0
C403 C 0.54566 0.00535 0.58917 0.0
C404 C 0.54358 0.04179 0.75297 0.0
C405 C 0.5158 0.11535 0.65909 0.0
C406 C 0.53189 0.11311 0.62312 0.0
C407 C 0.51464 0.98717 0.69468 0.0
C408 C 0.46596 0.98862 0.4401 0.0
C409 C 0.43338 0.99195 0.3986 0.0
C410 C 0.44118 0.98502 0.34904 0.0
C411 C 0.47374 0.98179 0.39043 0.0
C412 C 0.44582 0.99385 0.44385 0.0
C413 C 0.46133 0.98005 0.34502 0.0
C414 C 0.47669 0.01992 0.66068 0.0
C415 C 0.47876 0.99051 0.48795 0.0
H416 H 0.57426 0.99912 0.916 0.0
H417 H 0.5238 0.02749 0.84365 0.0
H418 H 0.53848 0.00783 0.91778 0.0
H419 H 0.58166 0.03113 0.76584 0.0
H420 H 0.43177 0.98384 0.31328 0.0
H421 H 0.48936 0.9779 0.38662 0.0
H422 H 0.43971 0.99927 0.48195 0.0
H423 H 0.46735 0.97493 0.30665 0.0
Tb424 Tb 0.53029 0.49749 0.56987 0.0
C425 C 0.45605 0.49611 0.7252 0.0
N426 N 0.4596 0.50539 0.67689 0.0
C427 C 0.42578 0.49839 0.64914 0.0
C428 C 0.43733 0.48723 0.7368 0.0
C429 C 0.44444 0.50734 0.63998 0.0
C430 C 0.42225 0.48813 0.69753 0.0
C431 C 0.46752 0.48794 0.81616 0.0
C432 C 0.47088 0.49647 0.76449 0.0
C433 C 0.44906 0.47873 0.82741 0.0
C434 C 0.43401 0.47836 0.78781 0.0
Tb435 Tb 0.49016 0.52102 0.67002 0.0
N436 N 0.48861 0.50536 0.75216 0.0
C437 C 0.48276 0.4891 0.85511 0.0
C438 C 0.50307 0.50752 0.79106 0.0
C439 C 0.50057 0.49907 0.84256 0.0
H440 H 0.44616 0.51655 0.60453 0.0
H441 H 0.51223 0.5006 0.87287 0.0
H442 H 0.57296 0.50567 0.63491 0.0
H443 H 0.50529 0.51694 0.36662 0.0
H444 H 0.51633 0.51615 0.78307 0.0
H445 H 0.48077 0.48273 0.89523 0.0
H446 H 0.50286 0.50009 0.45422 0.0
H447 H 0.41394 0.49992 0.61947 0.0
H448 H 0.4462 0.47207 0.86682 0.0
H449 H 0.41971 0.4715 0.7974 0.0
H450 H 0.60502 0.52254 0.61664 0.0
H451 H 0.40765 0.48155 0.70493 0.0
H452 H 0.53572 0.53627 0.34332 0.0
N453 N 0.5597 0.51431 0.55998 0.0
C454 C 0.56281 0.52264 0.51032 0.0
C455 C 0.59316 0.52297 0.58671 0.0
C456 C 0.58108 0.53221 0.49771 0.0
C457 C 0.57476 0.51375 0.59743 0.0
C458 C 0.5963 0.53238 0.53678 0.0
N459 N 0.5302 0.51194 0.48537 0.0
C460 C 0.51551 0.50959 0.4472 0.0
C461 C 0.54999 0.53078 0.42083 0.0
C462 C 0.54746 0.52177 0.47222 0.0
C463 C 0.53439 0.52947 0.38313 0.0
C464 C 0.51715 0.51869 0.39626 0.0
H465 H 0.61061 0.53945 0.52851 0.0
H466 H 0.59755 0.5486 0.43616 0.0
H467 H 0.57029 0.54752 0.36906 0.0
O468 O 0.54039 0.4785 0.50805 0.0
O469 O 0.53056 0.53044 0.57927 0.0
O470 O 0.49768 0.53803 0.59631 0.0
O471 O 0.55056 0.47498 0.59063 0.0
O472 O 0.49876 0.49214 0.54745 0.0
O473 O 0.48051 0.51823 0.58428 0.0
O474 O 0.4965 0.54471 0.72244 0.0
O475 O 0.50025 0.49017 0.68591 0.0
O476 O 0.50681 0.47748 0.60122 0.0
O477 O 0.46683 0.54068 0.69026 0.0
O478 O 0.52189 0.52785 0.68353 0.0
O479 O 0.53774 0.49924 0.65695 0.0
C480 C 0.51567 0.54325 0.57949 0.0
C481 C 0.54844 0.4459 0.53701 0.0
C482 C 0.53275 0.41623 0.49807 0.0
C483 C 0.54593 0.40431 0.52808 0.0
C484 C 0.56156 0.43374 0.5663 0.0
C485 C 0.56025 0.41305 0.56191 0.0
C486 C 0.53404 0.43707 0.50264 0.0
C487 C 0.48278 0.50362 0.54867 0.0
C488 C 0.55068 0.46766 0.54155 0.0
C489 C 0.58361 0.54118 0.44659 0.0
C490 C 0.56808 0.54056 0.40838 0.0
C491 C 0.50198 0.47487 0.65255 0.0
C492 C 0.47744 0.57365 0.71342 0.0
C493 C 0.48914 0.60618 0.7447 0.0
C494 C 0.47479 0.61535 0.71156 0.0
C495 C 0.46295 0.58291 0.68101 0.0
C496 C 0.49053 0.58538 0.74448 0.0
C497 C 0.46183 0.60372 0.67974 0.0
C498 C 0.53661 0.51513 0.68827 0.0
C499 C 0.47857 0.55191 0.71948 0.0
H500 H 0.54547 0.38822 0.52434 0.0
H501 H 0.57293 0.44029 0.59234 0.0
H502 H 0.57051 0.40377 0.58433 0.0
H503 H 0.52386 0.44627 0.47952 0.0
H504 H 0.47321 0.6314 0.71136 0.0
H505 H 0.4525 0.57415 0.65702 0.0
H506 H 0.50172 0.57819 0.76943 0.0
H507 H 0.45064 0.61085 0.65482 0.0
Tb508 Tb 0.02415 0.53044 0.57393 0.0
C509 C 0.01402 0.45374 0.72114 0.0
N510 N 0.00584 0.45793 0.67192 0.0
C511 C 0.01012 0.42397 0.64377 0.0
C512 C 0.02059 0.43437 0.73364 0.0
C513 C 1.00385 0.44342 0.63316 0.0
C514 C 0.01851 0.41941 0.69422 0.0
C515 C 0.02432 0.46519 0.8106 0.0
C516 C 0.01589 0.46899 0.75906 0.0
C517 C 0.03088 0.44592 0.82323 0.0
C518 C 0.029 0.43054 0.78489 0.0
Tb519 Tb 0.99553 0.48994 0.66041 0.0
N520 N 0.00945 0.4875 0.74535 0.0
C521 C 0.02567 0.48082 0.84817 0.0
C522 C 0.0097 0.50243 0.78322 0.0
C523 C 0.01815 0.49947 0.83454 0.0
H524 H 0.99689 0.44662 0.59456 0.0
H525 H 0.0185 0.51151 0.86395 0.0
H526 H 0.01882 0.57432 0.63493 0.0
H527 H 0.0069 0.50572 0.36931 0.0
H528 H 1.00292 0.51648 0.77548 0.0
H529 H 0.03206 0.47853 0.88816 0.0
H530 H 0.02308 0.50386 0.45841 0.0
H531 H 0.00835 0.41247 0.61315 0.0
H532 H 0.03735 0.44274 0.86266 0.0
H533 H 0.03407 0.41573 0.7953 0.0
H534 H 1.00303 0.60652 0.6148 0.0
H535 H 0.02329 0.40432 0.70235 0.0
H536 H 0.98779 0.53575 0.34433 0.0
N537 N 0.01044 0.56104 0.5596 0.0
C538 C 1.00163 0.56374 0.51039 0.0
C539 C 1.0024 0.59456 0.58522 0.0
C540 C 0.99262 0.58199 0.49684 0.0
C541 C 0.01111 0.57618 0.59682 0.0
C542 C 0.99305 0.59747 0.53508 0.0
N543 N 0.01041 0.53065 0.48852 0.0
C544 C 0.01334 0.5161 0.45053 0.0
C545 C 0.99288 0.55031 0.42184 0.0
C546 C 1.00154 0.54801 0.47372 0.0
C547 C 0.99418 0.53457 0.38468 0.0
C548 C 0.0048 0.51753 0.39878 0.0
H549 H 0.98635 0.61175 0.52617 0.0
H550 H 0.97658 0.59811 0.43447 0.0
H551 H 0.97695 0.57043 0.36861 0.0
O552 O 0.05008 0.52517 0.52883 0.0
O553 O 0.99102 0.5318 0.57483 0.0
O554 O 0.98349 0.49887 0.58173 0.0
O555 O 0.04532 0.55404 0.56783 0.0
O556 O 0.02962 0.49846 0.55463 0.0
O557 O 1.00003 0.48247 0.57486 0.0
O558 O 0.96861 0.49834 0.69666 0.0
O559 O 0.0287 0.48887 0.66471 0.0
O560 O 0.03772 0.52149 0.65099 0.0
O561 O 0.97306 0.46808 0.66955 0.0
O562 O 0.9913 0.52157 0.68308 0.0
O563 O 0.02014 0.53858 0.65945 0.0
C564 C 0.97804 0.51708 0.57057 0.0
C565 C 0.07628 0.54984 0.51684 0.0
C566 C 0.10611 0.54297 0.46419 0.0
C567 C 0.11287 0.56257 0.473 0.0
C568 C 0.08322 0.56936 0.52614 0.0
C569 C 0.1015 0.57566 0.5043 0.0
C570 C 0.08792 0.53664 0.48637 0.0
C571 C 0.01713 0.48327 0.5487 0.0
C572 C 0.05697 0.54304 0.53836 0.0
C573 C 0.98358 0.58419 0.44567 0.0
C574 C 0.98372 0.5684 0.40824 0.0
C575 C 0.04221 0.5033 0.66589 0.0
C576 C 0.94998 0.47333 0.7416 0.0
C577 C 0.92354 0.47989 0.80641 0.0
C578 C 0.92341 0.45979 0.82187 0.0
C579 C 0.95004 0.45322 0.75763 0.0
C580 C 0.93688 0.48662 0.76684 0.0
C581 C 0.93683 0.44654 0.79792 0.0
C582 C 1.00342 0.53711 0.68754 0.0
C583 C 0.96112 0.48037 0.6939 0.0
H584 H 0.12697 0.56764 0.45604 0.0
H585 H 0.07451 0.57975 0.54997 0.0
H586 H 0.10681 0.59072 0.51142 0.0
H587 H 0.08273 0.5215 0.47889 0.0
H588 H 0.91277 0.45434 0.85169 0.0
H589 H 0.9598 0.44257 0.7381 0.0
H590 H 0.93626 0.50204 0.75365 0.0
H591 H 0.93663 0.43099 0.80954 0.0
C592 C 0.14087 0.06095 0.15103 0.0
C593 C 0.15715 0.04857 0.13825 0.0
C594 C 0.12845 0.05694 0.19571 0.0
C595 C 0.12565 0.02698 0.32486 0.0
H596 H 0.0702 0.04316 0.32041 0.0
C597 C 0.06731 0.00539 0.49269 0.0
C598 C 0.05307 0.0198 0.50724 0.0
C599 C 0.08058 0.00872 0.44918 0.0
C600 C 0.0857 0.03871 0.32274 0.0
H601 H 0.17249 0.02171 0.16326 0.0
H602 H 0.15019 0.01408 0.23889 0.0
H603 H 0.09135 0.04845 0.24143 0.0
H604 H 0.04207 0.04925 0.48761 0.0
H605 H 0.06507 0.05502 0.41236 0.0
H606 H 0.11966 0.01687 0.40618 0.0
C607 C 0.14741 0.02738 0.21527 0.0
C608 C 0.09796 0.0418 0.27718 0.0
C609 C 0.16007 0.03157 0.1709 0.0
C610 C 0.05273 0.03774 0.47764 0.0
C611 C 0.06589 0.04102 0.43409 0.0
C612 C 0.11329 0.02371 0.37034 0.0
C613 C 0.13149 0.04013 0.22889 0.0
C614 C 0.11822 0.03614 0.27742 0.0
C615 C 0.07986 0.02648 0.41868 0.0
C616 C 0.09315 0.02967 0.37012 0.0
H617 H 0.13771 0.074 0.12677 0.0
H618 H 0.11666 0.06739 0.20471 0.0
H619 H 0.14117 0.02265 0.32752 0.0
H620 H 0.06789 0.99128 0.51395 0.0
H621 H 0.09097 0.99708 0.43836 0.0
C622 C 0.47092 0.16586 0.19755 0.0
C623 C 0.47308 0.1595 0.14345 0.0
C624 C 0.47489 0.15294 0.24093 0.0
C625 C 0.4993 0.1043 0.27516 0.0
H626 H 0.46807 0.10929 0.40727 0.0
C627 C 0.50359 0.04599 0.44906 0.0
C628 C 0.50291 0.05284 0.50319 0.0
C629 C 0.49998 0.05893 0.40548 0.0
C630 C 0.47712 0.10779 0.37098 0.0
H631 H 0.48073 0.13453 0.09209 0.0
H632 H 0.4872 0.11164 0.16759 0.0
H633 H 0.46169 0.13144 0.33113 0.0
H634 H 0.49759 0.07885 0.55347 0.0
H635 H 0.49179 0.1015 0.47763 0.0
H636 H 0.51453 0.08044 0.31502 0.0
C637 C 0.48302 0.12682 0.17695 0.0
C638 C 0.47348 0.12059 0.32703 0.0
C639 C 0.47926 0.13989 0.13348 0.0
C640 C 0.49837 0.07301 0.51248 0.0
C641 C 0.49487 0.086 0.46881 0.0
C642 C 0.50285 0.09142 0.31902 0.0
C643 C 0.48082 0.13311 0.23152 0.0
C644 C 0.48456 0.11915 0.27834 0.0
C645 C 0.49563 0.07917 0.41457 0.0
C646 C 0.49185 0.09299 0.36771 0.0
H647 H 0.46608 0.18091 0.20628 0.0
H648 H 0.47337 0.15863 0.28194 0.0
H649 H 0.50844 0.1028 0.23907 0.0
H650 H 0.50679 0.03051 0.44018 0.0
H651 H 0.50035 0.05295 0.36455 0.0
C652 C 0.36013 0.49194 0.16899 0.0
C653 C 0.36404 0.47603 0.13303 0.0
C654 C 0.37241 0.49556 0.21446 0.0
C655 C 0.4073 0.46998 0.30752 0.0
H656 H 0.42471 0.52323 0.34789 0.0
C657 C 0.46687 0.48246 0.47549 0.0
C658 C 0.4672 0.50031 0.50572 0.0
C659 C 0.45356 0.47976 0.43202 0.0
C660 C 0.41975 0.50824 0.33813 0.0
H661 H 0.38495 0.45215 0.11642 0.0
H662 H 0.40579 0.45813 0.19598 0.0
H663 H 0.40334 0.51845 0.26856 0.0
H664 H 0.45318 0.52915 0.51412 0.0
H665 H 0.42912 0.524 0.44084 0.0
H666 H 0.42308 0.45968 0.37747 0.0
C667 C 0.39306 0.46769 0.18924 0.0
C668 C 0.40752 0.50552 0.29217 0.0
C669 C 0.38099 0.46424 0.14345 0.0
C670 C 0.45331 0.51513 0.49222 0.0
C671 C 0.43967 0.51227 0.4493 0.0
C672 C 0.41925 0.47271 0.35391 0.0
C673 C 0.38883 0.48325 0.22578 0.0
C674 C 0.40133 0.48632 0.2758 0.0
C675 C 0.43974 0.49464 0.41783 0.0
C676 C 0.42595 0.49187 0.36976 0.0
H677 H 0.34714 0.50122 0.16333 0.0
H678 H 0.36862 0.50762 0.24185 0.0
H679 H 0.40253 0.455 0.29682 0.0
H680 H 0.47733 0.47067 0.48447 0.0
H681 H 0.45458 0.46611 0.40871 0.0
C682 C 0.05894 0.36183 0.18982 0.0
C683 C 0.04726 0.36234 0.14217 0.0
C684 C 0.05493 0.37445 0.23386 0.0
C685 C 0.02787 0.4212 0.27142 0.0
H686 H 0.03946 0.40357 0.41821 0.0
C687 C 1.00461 0.46413 0.46792 0.0
C688 C 0.02035 0.46872 0.50395 0.0
C689 C 0.00757 0.45119 0.42388 0.0
C690 C 0.03627 0.40873 0.37741 0.0
H691 H 0.02186 0.3765 0.10436 0.0
H692 H 0.01452 0.39834 0.18167 0.0
H693 H 0.04408 0.38072 0.34195 0.0
H694 H 0.0513 0.46292 0.52313 0.0
H695 H 0.0562 0.43928 0.44757 0.0
H696 H 0.01939 0.44904 0.30787 0.0
C697 C 0.0271 0.38835 0.18464 0.0
C698 C 0.03901 0.39567 0.33342 0.0
C699 C 0.03115 0.37566 0.14036 0.0
C700 C 0.03898 0.45969 0.49583 0.0
C701 C 0.04174 0.44617 0.45275 0.0
C702 C 0.0248 0.43414 0.3156 0.0
C703 C 0.03898 0.388 0.23216 0.0
C704 C 0.03508 0.40173 0.2795 0.0
C705 C 0.02612 0.44197 0.41588 0.0
C706 C 0.02915 0.42811 0.36903 0.0
H707 H 0.07128 0.35156 0.19326 0.0
H708 H 0.06468 0.37375 0.26893 0.0
H709 H 0.02496 0.42668 0.23082 0.0
H710 H 0.99014 0.47102 0.47295 0.0
H711 H 0.99526 0.44822 0.39629 0.0
C712 C 0.88312 0.99329 0.10521 0.0
C713 C 0.86546 0.98181 0.10434 0.0
C714 C 0.89594 0.99377 0.06017 0.0
C715 C 0.90708 0.96953 0.92568 0.0
H716 H 0.93229 0.02074 0.89751 0.0
C717 C 0.96755 0.98122 0.7573 0.0
C718 C 0.9684 0.99973 0.73048 0.0
C719 C 0.95428 0.97803 0.80075 0.0
C720 C 0.92522 0.00636 0.90411 0.0
H721 H 0.84761 0.96145 0.05566 0.0
H722 H 0.86973 0.96256 0.97636 0.0
H723 H 0.911 0.01672 0.97643 0.0
H724 H 0.95573 0.02936 0.72846 0.0
H725 H 0.93223 0.02364 0.80243 0.0
H726 H 0.92086 0.95947 0.85183 0.0
C727 C 0.87399 0.97091 0.01234 0.0
C728 C 0.91321 1.00392 0.9503 0.0
C729 C 0.86128 0.97022 0.05789 0.0
C730 C 0.95534 0.01482 0.74753 0.0
C731 C 0.94202 0.01161 0.7907 0.0
C732 C 0.91904 0.97202 0.87908 0.0
C733 C 0.89131 0.98308 0.0123 0.0
C734 C 0.90404 0.98544 0.96223 0.0
C735 C 0.9415 0.99328 0.81868 0.0
C736 C 0.92834 0.99049 0.86764 0.0
H737 H 0.8868 1.00232 0.14046 0.0
H738 H 0.90936 1.00286 0.06273 0.0
H739 H 0.90043 0.95503 0.93331 0.0
H740 H 0.97745 0.96927 0.74545 0.0
H741 H 0.95454 0.96378 0.82138 0.0
C742 C 0.55072 0.8632 0.05713 0.0
C743 C 0.53885 0.86641 0.10361 0.0
C744 C 0.54966 0.87614 0.01216 0.0
C745 C 0.51483 0.91344 0.9515 0.0
H746 H 0.55908 0.92576 0.85504 0.0
C747 C 0.51083 0.9763 0.7919 0.0
C748 C 0.51765 0.97229 0.7389 0.0
C749 C 0.51402 0.96277 0.83425 0.0
C750 C 0.54653 0.9223 0.88136 0.0
H751 H 0.51774 0.88663 0.14054 0.0
H752 H 0.51636 0.90937 0.06373 0.0
H753 H 0.56444 0.90424 0.93416 0.0
H754 H 0.53338 0.9508 0.68918 0.0
H755 H 0.53938 0.92726 0.76385 0.0
H756 H 0.49704 0.93176 0.89949 0.0
C757 C 0.52594 0.89649 0.06068 0.0
C758 C 0.54959 0.90993 0.92681 0.0
C759 C 0.52688 0.88353 0.10519 0.0
C760 C 0.52785 0.95432 0.72945 0.0
C761 C 0.5314 0.9409 0.77228 0.0
C762 C 0.51185 0.9259 0.90662 0.0
C763 C 0.53678 0.89269 0.01264 0.0
C764 C 0.5338 0.90549 0.96305 0.0
C765 C 0.52443 0.94493 0.82523 0.0
C766 C 0.52767 0.93068 0.87119 0.0
H767 H 0.55998 0.85007 0.05429 0.0
H768 H 0.55826 0.87261 0.97614 0.0
H769 H 0.50208 0.90996 0.97703 0.0
H770 H 0.50288 0.98994 0.80077 0.0
H771 H 0.50857 0.96644 0.87451 0.0
C772 C 0.65822 0.5486 0.06118 0.0
C773 C 0.65399 0.53729 0.10802 0.0
C774 C 0.64562 0.5476 0.01543 0.0
C775 C 0.60637 0.51435 0.95351 0.0
H776 H 0.59956 0.55834 0.85351 0.0
C777 C 0.56446 0.50326 0.74932 0.0
C778 C 0.55181 0.51861 0.7319 0.0
C779 C 0.57766 0.50626 0.79306 0.0
C780 C 0.60113 0.5459 0.88115 0.0
H781 H 0.63255 0.51697 0.14444 0.0
H782 H 0.61023 0.51582 0.0662 0.0
H783 H 0.61964 0.56304 0.93536 0.0
H784 H 0.5436 0.54939 0.74626 0.0
H785 H 0.5662 0.55449 0.8227 0.0
H786 H 0.58733 0.49742 0.90057 0.0
C787 C 0.62364 0.52493 0.06357 0.0
C788 C 0.61292 0.54854 0.92802 0.0
C789 C 0.63634 0.52575 0.1089 0.0
C790 C 0.55307 0.53718 0.75855 0.0
C791 C 0.56621 0.54016 0.80234 0.0
C792 C 0.59452 0.51176 0.90698 0.0
C793 C 0.62833 0.53537 0.01543 0.0
C794 C 0.61568 0.53281 0.96517 0.0
C795 C 0.57854 0.52467 0.82084 0.0
C796 C 0.59167 0.52747 0.86996 0.0
H797 H 0.67184 0.55742 0.0588 0.0
H798 H 0.64995 0.55577 0.9793 0.0
H799 H 0.60836 0.50168 0.98011 0.0
H800 H 0.56392 0.48877 0.72985 0.0
H801 H 0.58713 0.49404 0.80519 0.0
C802 C 0.98307 0.63594 0.1046 0.0
C803 C 0.97953 0.65642 0.0987 0.0
C804 C 0.98319 0.62332 0.05897 0.0
C805 C 0.99277 0.62477 0.91094 0.0
H806 H 0.9713 0.5709 0.91263 0.0
C807 C 0.01394 0.56576 0.74823 0.0
C808 C 0.99909 0.55225 0.73051 0.0
C809 C 0.01023 0.57904 0.79111 0.0
C810 C 0.97724 0.58596 0.91116 0.0
H811 H 0.97339 0.67983 0.04085 0.0
H812 H 0.97362 0.65789 0.96105 0.0
H813 H 0.96629 0.59267 0.99113 0.0
H814 H 0.96848 0.54247 0.74393 0.0
H815 H 0.96201 0.56561 0.81842 0.0
H816 H 1.00374 0.61812 0.83107 0.0
C817 C 0.97616 0.65147 1.00083 0.0
C818 C 0.97453 0.59839 0.9565 0.0
C819 C 0.97576 0.66401 0.04653 0.0
C820 C 0.98032 0.5526 0.75644 0.0
C821 C 0.97663 0.56582 0.7995 0.0
C822 C 0.99559 0.61232 0.86576 0.0
C823 C 0.9802 0.631 0.00628 0.0
C824 C 0.98233 0.61795 0.95715 0.0
C825 C 0.99159 0.57913 0.81779 0.0
C826 C 0.98797 0.59268 0.86527 0.0
H827 H 0.98639 0.62983 0.14432 0.0
H828 H 0.98653 0.6077 0.06475 0.0
H829 H 0.99919 0.63965 0.9101 0.0
H830 H 0.02867 0.56577 0.72988 0.0
H831 H 0.02222 0.58885 0.8044 0.0
C832 C 0.06658 0.23371 0.21972 0.0
C833 C 0.06022 0.23286 0.16554 0.0
C834 C 0.06136 0.21844 0.25543 0.0
C835 C 0.04313 0.1664 0.2587 0.0
H836 H 0.02596 0.18078 0.40407 0.0
C837 C 0.99734 0.1149 0.39889 0.0
C838 C 1.00044 0.11664 0.45511 0.0
C839 C 0.00785 0.12723 0.36317 0.0
C840 C 0.03111 0.17646 0.364 0.0
H841 H 0.04303 0.2163 0.10577 0.0
H842 H 0.03326 0.18982 0.16871 0.0
H843 H 0.03736 0.20665 0.34238 0.0
H844 H 0.01783 0.13096 0.51847 0.0
H845 H 0.0367 0.15228 0.4559 0.0
H846 H 0.03631 0.13619 0.28017 0.0
C847 C 0.04287 0.20177 0.18324 0.0
C848 C 0.03759 0.1913 0.32863 0.0
C849 C 0.04833 0.21689 0.14741 0.0
C850 C 0.015 0.12983 0.47517 0.0
C851 C 0.02572 0.14194 0.43948 0.0
C852 C 0.03661 0.15152 0.29416 0.0
C853 C 0.04945 0.20235 0.23748 0.0
C854 C 0.04349 0.18644 0.27553 0.0
C855 C 0.02173 0.14124 0.38338 0.0
C856 C 0.03039 0.15647 0.34699 0.0
H857 H 0.07574 0.24604 0.2341 0.0
H858 H 0.06677 0.21916 0.29693 0.0
H859 H 0.04786 0.16224 0.21812 0.0
H860 H 0.98621 0.10463 0.38287 0.0
H861 H 1.00436 0.12648 0.32018 0.0
C862 C 0.29068 0.04324 0.17584 0.0
C863 C 0.28577 0.06349 0.17688 0.0
C864 C 0.30477 0.03587 0.21154 0.0
C865 C 0.33045 0.04448 0.34008 0.0
H866 H 0.36906 0.00889 0.27468 0.0
C867 C 0.40783 0.0178 0.41691 0.0
C868 C 0.41246 0.99816 0.40198 0.0
C869 C 0.38879 0.02521 0.40664 0.0
C870 C 0.35815 0.01852 0.29367 0.0
H871 H 0.29147 0.09209 0.21497 0.0
H872 H 0.31684 0.07906 0.27811 0.0
H873 H 0.34444 0.0248 0.21765 0.0
H874 H 0.40062 0.96994 0.37314 0.0
H875 H 0.36724 0.98286 0.3553 0.0
H876 H 0.34504 0.03848 0.41626 0.0
C877 C 0.30947 0.06897 0.24994 0.0
C878 C 0.34417 0.02772 0.26102 0.0
C879 C 0.29525 0.07642 0.21376 0.0
C880 C 0.39733 0.98526 0.38371 0.0
C881 C 0.37829 0.99257 0.37412 0.0
C882 C 0.34474 0.03535 0.37302 0.0
C883 C 0.31436 0.04864 0.24869 0.0
C884 C 0.33 0.04049 0.28393 0.0
C885 C 0.37441 0.01292 0.38167 0.0
C886 C 0.35841 0.02205 0.34988 0.0
H887 H 0.28352 0.03309 0.14735 0.0
H888 H 0.30814 0.0201 0.21016 0.0
H889 H 0.31957 0.05429 0.35845 0.0
H890 H 0.41937 0.0279 0.4316 0.0
H891 H 0.38605 0.04096 0.41258 0.0
C892 C 0.45656 0.28909 0.22451 0.0
C893 C 0.45745 0.2913 0.16782 0.0
C894 C 0.46232 0.3048 0.25847 0.0
C895 C 0.4936 0.34972 0.26169 0.0
H896 H 0.4614 0.36345 0.38737 0.0
C897 C 0.51787 0.41262 0.40527 0.0
C898 C 0.51852 0.4067 0.46001 0.0
C899 C 0.50721 0.40122 0.3673 0.0
C900 C 0.47052 0.35978 0.35239 0.0
H901 H 0.46557 0.31122 0.10191 0.0
H902 H 0.47556 0.33876 0.1613 0.0
H903 H 0.45 0.33713 0.32563 0.0
H904 H 0.50723 0.38551 0.51911 0.0
H905 H 0.48877 0.36551 0.45296 0.0
H906 H 0.51441 0.37188 0.28914 0.0
C907 C 0.47028 0.32497 0.17946 0.0
C908 C 0.46405 0.3447 0.31728 0.0
C909 C 0.46437 0.30934 0.14556 0.0
C910 C 0.50714 0.39017 0.47693 0.0
C911 C 0.49644 0.37885 0.43913 0.0
C912 C 0.5001 0.36475 0.29686 0.0
C913 C 0.46925 0.32287 0.23618 0.0
C914 C 0.47565 0.33939 0.27202 0.0
C915 C 0.49698 0.38385 0.38367 0.0
C916 C 0.48875 0.36975 0.34296 0.0
H917 H 0.45138 0.27523 0.24248 0.0
H918 H 0.46167 0.30271 0.30212 0.0
H919 H 0.50294 0.34573 0.22741 0.0
H920 H 0.52652 0.42534 0.39128 0.0
H921 H 0.50762 0.40555 0.32487 0.0
C922 C 0.23149 0.44928 0.21712 0.0
C923 C 0.2335 0.45854 0.16643 0.0
C924 C 0.21579 0.45456 0.25153 0.0
C925 C 0.16658 0.47893 0.2493 0.0
H926 H 0.17716 0.48998 0.40154 0.0
C927 C 0.12207 0.53391 0.37668 0.0
C928 C 0.11776 0.52913 0.43085 0.0
C929 C 0.13355 0.5211 0.3452 0.0
C930 C 0.17388 0.48652 0.35939 0.0
H931 H 0.22181 0.48084 0.11182 0.0
H932 H 0.19462 0.49049 0.17226 0.0
H933 H 0.20341 0.47576 0.345 0.0
H934 H 0.1211 0.50715 0.4946 0.0
H935 H 0.14187 0.48482 0.43964 0.0
H936 H 0.13737 0.49065 0.26314 0.0
C937 C 0.20458 0.47873 0.18498 0.0
C938 C 0.18889 0.47842 0.32706 0.0
C939 C 0.22012 0.47336 0.15063 0.0
C940 C 0.12449 0.51111 0.45287 0.0
C941 C 0.13627 0.49841 0.42161 0.0
C942 C 0.15164 0.48712 0.28151 0.0
C943 C 0.20211 0.46922 0.23546 0.0
C944 C 0.18553 0.47513 0.27138 0.0
C945 C 0.14108 0.50346 0.36776 0.0
C946 C 0.15538 0.49152 0.33638 0.0
H947 H 0.24192 0.43791 0.22972 0.0
H948 H 0.21422 0.44706 0.29029 0.0
H949 H 0.16349 0.47611 0.2067 0.0
H950 H 0.11668 0.54762 0.35892 0.0
H951 H 0.1372 0.52538 0.30387 0.0
C952 C 0.97002 0.8109 0.09943 0.0
C953 C 0.97108 0.79149 0.07846 0.0
C954 C 0.96824 0.82702 0.06441 0.0
C955 C 0.96194 0.84375 0.92304 0.0
H956 H 0.01021 0.87418 0.95439 0.0
C957 C 0.00692 0.88865 0.76404 0.0
C958 C 0.0172 0.90584 0.78159 0.0
C959 C 0.99575 0.87732 0.80088 0.0
C960 C 0.99638 0.86627 0.94561 0.0
H961 H 0.96882 0.77326 0.00585 0.0
H962 H 0.96609 0.80168 0.94397 0.0
H963 H 0.99855 0.84948 0.01873 0.0
H964 H 0.02306 0.92518 0.8509 0.0
H965 H 1.0031 0.90583 0.91442 0.0
H966 H 0.96025 0.86035 0.8487 0.0
C967 C 0.96646 0.80439 0.98742 0.0
C968 C 0.98971 0.85209 0.98252 0.0
C969 C 0.96814 0.78819 0.02265 0.0
C970 C 0.01522 0.91208 0.83592 0.0
C971 C 1.00393 0.90089 0.87249 0.0
C972 C 0.96856 0.85818 0.88602 0.0
C973 C 0.96765 0.82392 0.00798 0.0
C974 C 0.9726 0.84055 0.97134 0.0
C975 C 0.99464 0.88305 0.85579 0.0
C976 C 0.98602 0.86936 0.89673 0.0
H977 H 0.97186 0.81367 0.1426 0.0
H978 H 0.96892 0.84198 0.08108 0.0
H979 H 0.94877 0.83489 0.91361 0.0
H980 H 0.0079 0.88371 0.72216 0.0
H981 H 0.98884 0.86357 0.78691 0.0
C982 C 0.73883 0.96716 0.01041 0.0
C983 C 0.73337 0.96558 0.06538 0.0
C984 C 0.72406 0.96773 0.97046 0.0
C985 C 0.67731 0.99102 0.96906 0.0
H986 H 0.66838 0.97055 0.82336 0.0
C987 C 0.61593 0.02413 0.84748 0.0
C988 C 0.60134 0.00935 0.83881 0.0
C989 C 0.63572 0.01868 0.85613 0.0
C990 C 0.67102 0.97652 0.86372 0.0
H991 H 0.70902 0.96014 0.12163 0.0
H992 H 0.68316 0.96104 0.05169 0.0
H993 H 0.69485 0.95609 0.88041 0.0
H994 H 0.59573 0.97794 0.82528 0.0
H995 H 0.63039 0.96826 0.84101 0.0
H996 H 0.65357 0.01111 0.95389 0.0
C997 C 0.69871 0.96216 0.03955 0.0
C998 C 0.68592 0.96818 0.89622 0.0
C999 C 0.71341 0.96173 0.07941 0.0
C1000 C 0.6069 0.9894 0.83301 0.0
C1001 C 0.6267 0.98395 0.84114 0.0
C1002 C 0.66274 0.99945 0.93667 0.0
C1003 C 0.70388 0.96667 0.98558 0.0
C1004 C 0.68866 0.97505 0.94963 0.0
C1005 C 0.64097 0.99843 0.856 0.0
C1006 C 0.65917 0.99203 0.88418 0.0
H1007 H 0.75423 0.97006 0.99893 0.0
H1008 H 0.72829 0.97119 0.92896 0.0
H1009 H 0.67958 0.99689 0.00974 0.0
H1010 H 0.61179 0.03965 0.85139 0.0
H1011 H 0.64656 0.03007 0.8673 0.0
C1012 C 0.55567 0.73293 0.02162 0.0
C1013 C 0.55449 0.72939 0.07773 0.0
C1014 C 0.55718 0.71692 0.98564 0.0
C1015 C 0.53644 0.66789 0.98466 0.0
H1016 H 0.55904 0.66429 0.83977 0.0
C1017 C 0.50605 0.61079 0.83448 0.0
C1018 C 0.50211 0.61792 0.78181 0.0
C1019 C 0.51803 0.62171 0.87004 0.0
C1020 C 0.55264 0.66514 0.88017 0.0
H1021 H 0.55665 0.70715 0.14114 0.0
H1022 H 0.55944 0.67912 0.07824 0.0
H1023 H 0.57269 0.68866 0.90463 0.0
H1024 H 0.50807 0.64184 0.72473 0.0
H1025 H 0.52816 0.6616 0.78824 0.0
H1026 H 0.51555 0.64558 0.95997 0.0
C1027 C 0.55884 0.6941 0.06196 0.0
C1028 C 0.56053 0.67893 0.91721 0.0
C1029 C 0.55719 0.71006 0.09781 0.0
C1030 C 0.51063 0.63613 0.7653 0.0
C1031 C 0.52243 0.64724 0.80131 0.0
C1032 C 0.52848 0.65431 0.94774 0.0
C1033 C 0.55759 0.69732 1.00567 0.0
C1034 C 0.55222 0.68062 0.96941 0.0
C1035 C 0.52599 0.64025 0.8543 0.0
C1036 C 0.53622 0.65305 0.89476 0.0
H1037 H 0.55365 0.7478 1.00549 0.0
H1038 H 0.55608 0.71977 0.94239 0.0
H1039 H 0.52935 0.66924 0.02413 0.0
H1040 H 0.49951 0.59694 0.84887 0.0
H1041 H 0.52069 0.61582 0.91038 0.0
C1042 C 0.78103 0.55405 0.01266 0.0
C1043 C 0.78649 0.55707 0.06722 0.0
C1044 C 0.7956 0.5539 0.97233 0.0
C1045 C 0.84925 0.5589 0.93997 0.0
H1046 H 0.842 0.50444 0.8898 0.0
C1047 C 0.91312 0.50787 0.86627 0.0
C1048 C 0.90834 0.49353 0.82675 0.0
C1049 C 0.89833 0.52054 0.88598 0.0
C1050 C 0.84412 0.51984 0.90197 0.0
H1051 H 0.8108 0.56534 0.12139 0.0
H1052 H 0.83646 0.56432 0.05083 0.0
H1053 H 0.8154 0.52049 0.93894 0.0
H1054 H 0.88543 0.48208 0.77277 0.0
H1055 H 0.8596 0.50449 0.80599 0.0
H1056 H 0.87844 0.55782 0.9039 0.0
C1057 C 0.82095 0.56219 0.0393 0.0
C1058 C 0.82883 0.52906 0.93016 0.0
C1059 C 0.80632 0.56248 0.07972 0.0
C1060 C 0.88911 0.49273 0.80452 0.0
C1061 C 0.87444 0.50556 0.82343 0.0
C1062 C 0.86463 0.54968 0.91096 0.0
C1063 C 0.81581 0.55655 0.98611 0.0
C1064 C 0.83127 0.54857 0.94979 0.0
C1065 C 0.87871 0.51912 0.86565 0.0
C1066 C 0.86222 0.52996 0.89218 0.0
H1067 H 0.76588 0.54984 1.00168 0.0
H1068 H 0.79133 0.5497 0.93131 0.0
H1069 H 0.85149 0.57389 0.95545 0.0
H1070 H 0.92812 0.50888 0.88276 0.0
H1071 H 0.90204 0.53079 0.91862 0.0
C1072 C 0.05524 0.21814 0.80778 0.0
C1073 C 0.04466 0.22508 0.85378 0.0
C1074 C 0.05218 0.19884 0.78683 0.0
C1075 C 0.02628 0.14937 0.81948 0.0
H1076 H 0.04168 0.13703 0.67129 0.0
C1077 C 1.00329 0.0761 0.70442 0.0
C1078 C 0.01911 0.06535 0.68103 0.0
C1079 C 0.00648 0.09532 0.72585 0.0
C1080 C 0.03735 0.14023 0.71285 0.0
H1081 H 0.02178 0.2161 0.91195 0.0
H1082 H 0.01509 0.18387 0.87264 0.0
H1083 H 0.04602 0.1708 0.7056 0.0
H1084 H 0.05071 0.06662 0.66156 0.0
H1085 H 0.05604 0.10048 0.69693 0.0
H1086 H 0.01661 0.11877 0.8248 0.0
C1087 C 0.0267 0.19289 0.85416 0.0
C1088 C 0.04001 0.15971 0.7331 0.0
C1089 C 0.03025 0.21197 0.87629 0.0
C1090 C 0.03817 0.07443 0.67926 0.0
C1091 C 0.04123 0.09387 0.69936 0.0
C1092 C 0.02312 0.13006 0.79861 0.0
C1093 C 0.03783 0.1857 0.80949 0.0
C1094 C 0.03464 0.16475 0.78709 0.0
C1095 C 0.02545 0.10454 0.72319 0.0
C1096 C 0.02872 0.12519 0.74517 0.0
H1097 H 0.06611 0.22749 0.78732 0.0
H1098 H 0.06147 0.19428 0.75315 0.0
H1099 H 0.02236 0.15198 0.86152 0.0
H1100 H 0.98845 0.06955 0.70681 0.0
H1101 H 0.994 0.10314 0.74382 0.0
C1102 C 0.30914 0.06318 0.84125 0.0
C1103 C 0.29701 0.04704 0.85823 0.0
C1104 C 0.32805 0.06006 0.81795 0.0
C1105 C 0.3683 0.02174 0.80541 0.0
H1106 H 0.38891 0.05761 0.69493 0.0
C1107 C 0.45171 0.02093 0.73768 0.0
C1108 C 0.45604 0.02338 0.68204 0.0
C1109 C 0.43222 0.02358 0.75766 0.0
C1110 C 0.38338 0.04733 0.72546 0.0
H1111 H 0.29552 0.0148 0.86246 0.0
H1112 H 0.32826 0.00932 0.82128 0.0
H1113 H 0.3552 0.06222 0.73043 0.0
H1114 H 0.44308 0.03065 0.6039 0.0
H1115 H 0.40917 0.03556 0.63872 0.0
H1116 H 0.3964 0.00669 0.79977 0.0
C1117 C 0.32332 0.02451 0.827 0.0
C1118 C 0.36403 0.05012 0.74643 0.0
C1119 C 0.30442 0.02764 0.85059 0.0
C1120 C 0.44032 0.02866 0.64698 0.0
C1121 C 0.42086 0.03159 0.66708 0.0
C1122 C 0.38766 0.01899 0.78453 0.0
C1123 C 0.33556 0.04067 0.81057 0.0
C1124 C 0.35614 0.03741 0.78697 0.0
C1125 C 0.41645 0.02898 0.72275 0.0
C1126 C 0.39557 0.03178 0.74436 0.0
H1127 H 0.30427 0.07838 0.84729 0.0
H1128 H 0.33699 0.07298 0.80701 0.0
H1129 H 0.36304 0.01172 0.83688 0.0
H1130 H 0.46337 0.01667 0.76584 0.0
H1131 H 0.42957 0.0216 0.80077 0.0
C1132 C 0.47253 0.31376 0.88886 0.0
C1133 C 0.47458 0.29619 0.85823 0.0
C1134 C 0.47487 0.33258 0.86464 0.0
C1135 C 0.47882 0.35884 0.72892 0.0
H1136 H 0.50048 0.40123 0.81905 0.0
C1137 C 0.50103 0.43718 0.64004 0.0
C1138 C 0.49871 0.45406 0.67371 0.0
C1139 C 0.49806 0.41774 0.66053 0.0
C1140 C 0.49413 0.38976 0.79311 0.0
H1141 H 0.48041 0.28468 0.77759 0.0
H1142 H 0.48551 0.31743 0.73556 0.0
H1143 H 0.49527 0.36847 0.85747 0.0
H1144 H 0.49211 0.46308 0.75619 0.0
H1145 H 0.48538 0.43001 0.79049 0.0
H1146 H 0.47794 0.38033 0.6643 0.0
C1147 C 0.48158 0.31682 0.77822 0.0
C1148 C 0.49108 0.37074 0.81544 0.0
C1149 C 0.47882 0.29794 0.80238 0.0
C1150 C 0.49342 0.45078 0.72835 0.0
C1151 C 0.49001 0.4315 0.74849 0.0
C1152 C 0.48192 0.37795 0.70646 0.0
C1153 C 0.47977 0.33453 0.80901 0.0
C1154 C 0.48323 0.35489 0.78403 0.0
C1155 C 0.49245 0.41455 0.71527 0.0
C1156 C 0.4895 0.39383 0.73831 0.0
H1157 H 0.46878 0.31296 0.93169 0.0
H1158 H 0.47262 0.34562 0.88982 0.0
H1159 H 0.47255 0.34729 0.70311 0.0
H1160 H 0.50533 0.43894 0.59786 0.0
H1161 H 0.50051 0.40524 0.63352 0.0
C1162 C 0.2114 0.45927 0.83923 0.0
C1163 C 0.22344 0.47577 0.85424 0.0
C1164 C 0.19217 0.46187 0.81741 0.0
C1165 C 0.15924 0.49903 0.74985 0.0
H1166 H 0.11627 0.46438 0.7992 0.0
C1167 C 0.0766 0.51535 0.69361 0.0
C1168 C 0.06277 0.49952 0.6879 0.0
C1169 C 0.09607 0.51207 0.7128 0.0
C1170 C 0.12803 0.47405 0.78402 0.0
H1171 H 0.22439 0.50806 0.85663 0.0
H1172 H 0.19092 0.51259 0.81869 0.0
H1173 H 0.15009 0.45946 0.83291 0.0
H1174 H 0.05896 0.46762 0.69795 0.0
H1175 H 0.09296 0.46176 0.72996 0.0
H1176 H 0.13744 0.51339 0.7001 0.0
C1177 C 0.19643 0.49757 0.82372 0.0
C1178 C 0.14757 0.47124 0.80369 0.0
C1179 C 0.21563 0.49497 0.84601 0.0
C1180 C 0.06908 0.48024 0.70204 0.0
C1181 C 0.08868 0.47691 0.72082 0.0
C1182 C 0.13976 0.50171 0.72968 0.0
C1183 C 0.1843 0.48105 0.80948 0.0
C1184 C 0.16348 0.48378 0.7873 0.0
C1185 C 0.1026 0.49278 0.7265 0.0
C1186 C 0.12369 0.4894 0.74675 0.0
H1187 H 0.21664 0.44422 0.84546 0.0
H1188 H 0.18348 0.44876 0.80652 0.0
H1189 H 0.17107 0.50879 0.73539 0.0
H1190 H 0.07242 0.53044 0.68332 0.0
H1191 H 0.1059 0.52486 0.71746 0.0
C1192 C 0.9911 0.7979 0.44386 0.0
C1193 C 0.98076 0.79418 0.39482 0.0
C1194 C 0.99242 0.81716 0.46605 0.0
C1195 C 0.98437 0.87119 0.42862 0.0
H1196 H 0.99573 0.87945 0.58171 0.0
C1197 C 0.98412 0.94908 0.53408 0.0
C1198 C 1.00166 0.95431 0.56268 0.0
C1199 C 0.98099 0.92965 0.51461 0.0
C1200 C 0.99264 0.87736 0.5388 0.0
H1201 H 0.96283 0.80851 0.33261 0.0
H1202 H 0.96368 0.84134 0.37331 0.0
H1203 H 0.98982 0.84578 0.54764 0.0
H1204 H 0.02915 0.94245 0.59564 0.0
H1205 H 0.02315 0.90822 0.56432 0.0
H1206 H 0.98632 0.90305 0.42097 0.0
C1207 C 0.97173 0.82956 0.39353 0.0
C1208 C 0.98936 0.85795 0.51889 0.0
C1209 C 0.97083 0.81037 0.37056 0.0
C1210 C 0.01558 0.93916 0.57329 0.0
C1211 C 0.01214 0.91951 0.55541 0.0
C1212 C 0.98714 0.8906 0.44887 0.0
C1213 C 0.98298 0.83348 0.441 0.0
C1214 C 0.98541 0.85442 0.46319 0.0
C1215 C 0.99493 0.91459 0.5251 0.0
C1216 C 0.99154 0.89391 0.50406 0.0
H1217 H 0.99858 0.78598 0.46509 0.0
H1218 H 1.00142 0.8192 0.50221 0.0
H1219 H 0.98185 0.86945 0.3854 0.0
H1220 H 0.97266 0.95993 0.52666 0.0
H1221 H 0.96745 0.9263 0.49206 0.0
C1222 C 0.72232 0.98016 0.44899 0.0
C1223 C 0.72468 0.97795 0.39241 0.0
C1224 C 0.70317 0.98193 0.47216 0.0
C1225 C 0.65221 0.99852 0.43811 0.0
H1226 H 0.63559 0.96994 0.5676 0.0
C1227 C 0.57043 1.00167 0.51276 0.0
C1228 C 0.56634 1.00134 0.5689 0.0
C1229 C 0.58971 0.99816 0.49296 0.0
C1230 C 0.64002 0.9783 0.53188 0.0
H1231 H 0.70868 0.97611 0.3159 0.0
H1232 H 0.67546 0.9795 0.356 0.0
H1233 H 0.66914 0.96493 0.53051 0.0
H1234 H 0.57972 0.99738 0.64835 0.0
H1235 H 0.61358 0.99178 0.61399 0.0
H1236 H 0.62353 0.01231 0.43973 0.0
C1237 C 0.68836 0.97964 0.38265 0.0
C1238 C 0.65929 0.97534 0.51048 0.0
C1239 C 0.70741 0.97749 0.35968 0.0
C1240 C 0.58226 0.99763 0.60483 0.0
C1241 C 0.60169 0.99425 0.58498 0.0
C1242 C 0.6331 1.00165 0.45974 0.0
C1243 C 0.68594 0.98203 0.43917 0.0
C1244 C 0.66559 0.9853 0.46301 0.0
C1245 C 0.60576 0.99454 0.52861 0.0
C1246 C 0.62655 0.99147 0.50672 0.0
H1247 H 0.73531 0.98063 0.47529 0.0
H1248 H 0.7019 0.98385 0.51577 0.0
H1249 H 0.65664 0.00674 0.40211 0.0
H1250 H 0.55874 0.00492 0.48371 0.0
H1251 H 0.59195 0.99821 0.44935 0.0
C1252 C 0.53069 0.72153 0.44411 0.0
C1253 C 0.54099 0.72507 0.39491 0.0
C1254 C 0.52905 0.70225 0.46623 0.0
C1255 C 0.53597 0.64795 0.42817 0.0
H1256 H 0.52547 0.63969 0.58162 0.0
C1257 C 0.53626 0.56957 0.53018 0.0
C1258 C 0.51928 0.56436 0.56107 0.0
C1259 C 0.53931 0.58912 0.51138 0.0
C1260 C 0.5283 0.64176 0.5386 0.0
H1261 H 0.55837 0.71033 0.33215 0.0
H1262 H 0.55687 0.67748 0.37238 0.0
H1263 H 0.53137 0.67337 0.54761 0.0
H1264 H 0.49265 0.5764 0.59849 0.0
H1265 H 0.49851 0.61079 0.56828 0.0
H1266 H 0.5337 0.61611 0.42014 0.0
C1267 C 0.54916 0.68943 0.39298 0.0
C1268 C 0.53159 0.66119 0.51872 0.0
C1269 C 0.55044 0.70863 0.37024 0.0
C1270 C 0.5058 0.57966 0.57442 0.0
C1271 C 0.50919 0.59943 0.55717 0.0
C1272 C 0.53315 0.62853 0.44832 0.0
C1273 C 0.53803 0.68571 0.44078 0.0
C1274 C 0.53532 0.66475 0.46291 0.0
C1275 C 0.52584 0.60436 0.52461 0.0
C1276 C 0.5291 0.62515 0.50369 0.0
H1277 H 0.52354 0.73361 0.46563 0.0
H1278 H 0.52019 0.7004 0.50269 0.0
H1279 H 0.53826 0.64967 0.38488 0.0
H1280 H 0.54725 0.55861 0.52 0.0
H1281 H 0.55242 0.59238 0.48697 0.0
C1282 C 0.80503 0.55442 0.41538 0.0
C1283 C 0.79466 0.53717 0.39781 0.0
C1284 C 0.82475 0.55328 0.43521 0.0
C1285 C 0.86926 0.51988 0.43135 0.0
H1286 H 0.88881 0.55271 0.55024 0.0
C1287 C 0.94495 0.50441 0.53578 0.0
C1288 C 0.95738 0.52065 0.54987 0.0
C1289 C 0.92539 0.50739 0.51727 0.0
C1290 C 0.88366 0.54358 0.51657 0.0
H1291 H 0.79747 0.50514 0.38757 0.0
H1292 H 0.83112 0.50313 0.42338 0.0
H1293 H 0.85419 0.55602 0.51937 0.0
H1294 H 0.95872 0.55288 0.55578 0.0
H1295 H 0.92444 0.5581 0.52363 0.0
H1296 H 0.89856 0.50729 0.42878 0.0
C1297 C 0.8242 0.51765 0.42128 0.0
C1298 C 0.86376 0.54548 0.49879 0.0
C1299 C 0.8046 0.51878 0.40151 0.0
C1300 C 0.94963 0.54002 0.54508 0.0
C1301 C 0.9299 0.543 0.52701 0.0
C1302 C 0.88905 0.51792 0.44923 0.0
C1303 C 0.83476 0.53488 0.43777 0.0
C1304 C 0.85617 0.53351 0.45618 0.0
C1305 C 0.91752 0.52671 0.51259 0.0
C1306 C 0.89654 0.5296 0.4924 0.0
H1307 H 0.79796 0.56886 0.41354 0.0
H1308 H 0.83232 0.56694 0.4472 0.0
H1309 H 0.86429 0.51073 0.39755 0.0
H1310 H 0.9503 0.48926 0.53899 0.0
H1311 H 0.9163 0.49444 0.50734 0.0
loop_
_geom_bond_atom_site_label_1
_geom_bond_atom_site_label_2
_geom_bond_distance
_geom_bond_site_symmetry_2
_ccdc_geom_bond_type
P0 O11 1.490 . S
P0 C14 1.812 . S
P0 C20 1.803 . S
P0 C26 1.819 . S
H1 C15 0.941 . S
H2 C16 0.939 . S
H3 C18 0.940 . S
H4 C19 0.940 . S
H5 C21 0.939 . S
H6 C22 0.942 . S
H7 C24 0.940 . S
H8 C25 0.939 . S
H9 C27 0.941 . S
H10 C31 0.939 . S
O11 P0 1.490 . S
H12 C28 0.939 . S
H13 C30 0.940 . S
C14 P0 1.812 . S
C14 C15 1.389 . S
C14 C19 1.391 . S
C15 H1 0.941 . S
C15 C14 1.389 . S
C15 C16 1.397 . S
C16 H2 0.939 . S
C16 C15 1.397 . S
C16 C17 1.378 . S
C17 C16 1.378 . S
C17 C18 1.378 . S
C18 H3 0.940 . S
C18 C17 1.378 . S
C18 C19 1.396 . S
C19 H4 0.940 . S
C19 C14 1.391 . S
C19 C18 1.396 . S
C20 P0 1.803 . S
C20 C21 1.378 . S
C20 C25 1.400 . S
C21 H5 0.939 . S
C21 C20 1.378 . S
C21 C22 1.361 . S
C22 H6 0.942 . S
C22 C21 1.361 . S
C22 C23 1.369 . S
C23 C22 1.369 . S
C23 C24 1.404 . S
C24 H7 0.940 . S
C24 C23 1.404 . S
C24 C25 1.389 . S
C25 H8 0.939 . S
C25 C20 1.400 . S
C25 C24 1.389 . S
C26 P0 1.819 . S
C26 C27 1.391 . S
C26 C31 1.391 . S
C27 H9 0.941 . S
C27 C26 1.391 . S
C27 C28 1.396 . S
C28 H12 0.939 . S
C28 C27 1.396 . S
C28 C29 1.397 . S
C29 C28 1.397 . S
C29 C30 1.385 . S
C30 H13 0.940 . S
C30 C29 1.385 . S
C30 C31 1.388 . S
C31 H10 0.939 . S
C31 C26 1.391 . S
C31 C30 1.388 . S
P32 O43 1.490 1_655 S
P32 C46 1.812 . S
P32 C52 1.803 . S
P32 C58 1.819 . S
H33 C47 0.941 1_455 S
H34 C48 0.939 . S
H35 C50 0.940 . S
H36 C51 0.940 . S
H37 C53 0.939 1_455 S
H38 C54 0.942 . S
H39 C56 0.940 . S
H40 C57 0.939 . S
H41 C59 0.941 1_455 S
H42 C63 0.939 . S
O43 P32 1.490 1_455 S
H44 C60 0.939 . S
H45 C62 0.940 . S
C46 P32 1.812 . S
C46 C47 1.389 . S
C46 C51 1.391 . S
C47 H33 0.941 1_655 S
C47 C46 1.389 . S
C47 C48 1.397 . S
C48 H34 0.939 . S
C48 C47 1.397 . S
C48 C49 1.378 . S
C49 C48 1.378 . S
C49 C50 1.378 . S
C50 H35 0.940 . S
C50 C49 1.378 . S
C50 C51 1.396 . S
C51 H36 0.940 . S
C51 C46 1.391 . S
C51 C50 1.396 . S
C52 P32 1.803 . S
C52 C53 1.378 . S
C52 C57 1.400 . S
C53 H37 0.939 1_655 S
C53 C52 1.378 . S
C53 C54 1.361 . S
C54 H38 0.942 . S
C54 C53 1.361 . S
C54 C55 1.369 . S
C55 C54 1.369 . S
C55 C56 1.404 . S
C56 H39 0.940 . S
C56 C55 1.404 . S
C56 C57 1.389 . S
C57 H40 0.939 . S
C57 C52 1.400 . S
C57 C56 1.389 . S
C58 P32 1.819 . S
C58 C59 1.391 . S
C58 C63 1.391 . S
C59 H41 0.941 1_655 S
C59 C58 1.391 . S
C59 C60 1.396 . S
C60 H44 0.939 . S
C60 C59 1.396 . S
C60 C61 1.397 . S
C61 C60 1.397 . S
C61 C62 1.385 . S
C62 H45 0.940 . S
C62 C61 1.385 . S
C62 C63 1.388 . S
C63 H42 0.939 . S
C63 C58 1.391 . S
C63 C62 1.388 . S
P64 O75 1.490 1_565 S
P64 C78 1.812 . S
P64 C84 1.803 . S
P64 C90 1.819 . S
H65 C79 0.941 1_545 S
H66 C80 0.939 . S
H67 C82 0.940 . S
H68 C83 0.940 . S
H69 C85 0.939 1_545 S
H70 C86 0.942 . S
H71 C88 0.940 . S
H72 C89 0.939 . S
H73 C91 0.941 1_545 S
H74 C95 0.939 . S
O75 P64 1.490 1_545 S
H76 C92 0.939 . S
H77 C94 0.940 . S
C78 P64 1.812 . S
C78 C79 1.389 . S
C78 C83 1.391 . S
C79 H65 0.941 1_565 S
C79 C78 1.389 . S
C79 C80 1.397 . S
C80 H66 0.939 . S
C80 C79 1.397 . S
C80 C81 1.378 . S
C81 C80 1.378 . S
C81 C82 1.378 . S
C82 H67 0.940 . S
C82 C81 1.378 . S
C82 C83 1.396 . S
C83 H68 0.940 . S
C83 C78 1.391 . S
C83 C82 1.396 . S
C84 P64 1.803 . S
C84 C85 1.378 . S
C84 C89 1.400 . S
C85 H69 0.939 1_565 S
C85 C84 1.378 . S
C85 C86 1.361 . S
C86 H70 0.942 . S
C86 C85 1.361 . S
C86 C87 1.369 . S
C87 C86 1.369 . S
C87 C88 1.404 . S
C88 H71 0.940 . S
C88 C87 1.404 . S
C88 C89 1.389 . S
C89 H72 0.939 . S
C89 C84 1.400 . S
C89 C88 1.389 . S
C90 P64 1.819 . S
C90 C91 1.391 . S
C90 C95 1.391 . S
C91 H73 0.941 1_565 S
C91 C90 1.391 . S
C91 C92 1.396 . S
C92 H76 0.939 . S
C92 C91 1.396 . S
C92 C93 1.397 . S
C93 C92 1.397 . S
C93 C94 1.385 . S
C94 H77 0.940 . S
C94 C93 1.385 . S
C94 C95 1.388 . S
C95 H74 0.939 . S
C95 C90 1.391 . S
C95 C94 1.388 . S
P96 O107 1.490 . S
P96 C110 1.812 . S
P96 C116 1.803 . S
P96 C122 1.819 . S
H97 C111 0.941 . S
H98 C112 0.939 . S
H99 C114 0.940 . S
H100 C115 0.940 . S
H101 C117 0.939 . S
H102 C118 0.942 . S
H103 C120 0.940 . S
H104 C121 0.939 . S
H105 C123 0.941 . S
H106 C127 0.939 . S
O107 P96 1.490 . S
H108 C124 0.939 . S
H109 C126 0.940 . S
C110 P96 1.812 . S
C110 C111 1.389 . S
C110 C115 1.391 . S
C111 H97 0.941 . S
C111 C110 1.389 . S
C111 C112 1.397 . S
C112 H98 0.939 . S
C112 C111 1.397 . S
C112 C113 1.378 . S
C113 C112 1.378 . S
C113 C114 1.378 . S
C114 H99 0.940 . S
C114 C113 1.378 . S
C114 C115 1.396 . S
C115 H100 0.940 . S
C115 C110 1.391 . S
C115 C114 1.396 . S
C116 P96 1.803 . S
C116 C117 1.378 . S
C116 C121 1.400 . S
C117 H101 0.939 . S
C117 C116 1.378 . S
C117 C118 1.361 . S
C118 H102 0.942 . S
C118 C117 1.361 . S
C118 C119 1.369 . S
C119 C118 1.369 . S
C119 C120 1.404 . S
C120 H103 0.940 . S
C120 C119 1.404 . S
C120 C121 1.389 . S
C121 H104 0.939 . S
C121 C116 1.400 . S
C121 C120 1.389 . S
C122 P96 1.819 . S
C122 C123 1.391 . S
C122 C127 1.391 . S
C123 H105 0.941 . S
C123 C122 1.391 . S
C123 C124 1.396 . S
C124 H108 0.939 . S
C124 C123 1.396 . S
C124 C125 1.397 . S
C125 C124 1.397 . S
C125 C126 1.385 . S
C126 H109 0.940 . S
C126 C125 1.385 . S
C126 C127 1.388 . S
C127 H106 0.939 . S
C127 C122 1.391 . S
C127 C126 1.388 . S
P128 O139 1.490 . S
P128 C142 1.812 1_554 S
P128 C148 1.803 . S
P128 C154 1.819 . S
H129 C143 0.941 . S
H130 C144 0.939 . S
H131 C146 0.940 . S
H132 C147 0.940 . S
H133 C149 0.939 . S
H134 C150 0.942 . S
H135 C152 0.940 . S
H136 C153 0.939 . S
H137 C155 0.941 . S
H138 C159 0.939 . S
O139 P128 1.490 . S
H140 C156 0.939 . S
H141 C158 0.940 . S
C142 P128 1.812 1_556 S
C142 C143 1.389 . S
C142 C147 1.391 . S
C143 H129 0.941 . S
C143 C142 1.389 . S
C143 C144 1.397 . S
C144 H130 0.939 . S
C144 C143 1.397 . S
C144 C145 1.378 . S
C145 C144 1.378 . S
C145 C146 1.378 . S
C146 H131 0.940 . S
C146 C145 1.378 . S
C146 C147 1.396 . S
C147 H132 0.940 . S
C147 C142 1.391 . S
C147 C146 1.396 . S
C148 P128 1.803 . S
C148 C149 1.378 . S
C148 C153 1.400 . S
C149 H133 0.939 . S
C149 C148 1.378 . S
C149 C150 1.361 . S
C150 H134 0.942 . S
C150 C149 1.361 . S
C150 C151 1.369 . S
C151 C150 1.369 . S
C151 C152 1.404 . S
C152 H135 0.940 . S
C152 C151 1.404 . S
C152 C153 1.389 . S
C153 H136 0.939 . S
C153 C148 1.400 . S
C153 C152 1.389 . S
C154 P128 1.819 . S
C154 C155 1.391 . S
C154 C159 1.391 . S
C155 H137 0.941 . S
C155 C154 1.391 . S
C155 C156 1.396 . S
C156 H140 0.939 . S
C156 C155 1.396 . S
C156 C157 1.397 . S
C157 C156 1.397 . S
C157 C158 1.385 . S
C158 H141 0.940 . S
C158 C157 1.385 . S
C158 C159 1.388 . S
C159 H138 0.939 . S
C159 C154 1.391 . S
C159 C158 1.388 . S
P160 O171 1.490 . S
P160 C174 1.812 1_554 S
P160 C180 1.803 . S
P160 C186 1.819 . S
H161 C175 0.941 . S
H162 C176 0.939 . S
H163 C178 0.940 . S
H164 C179 0.942 . S
H165 C181 0.939 . S
H166 C182 0.942 . S
H167 C184 0.940 . S
H168 C185 0.939 . S
H169 C187 0.941 . S
H170 C191 0.939 . S
O171 P160 1.490 . S
H172 C188 0.939 . S
H173 C190 0.940 . S
C174 P160 1.812 1_556 S
C174 C175 1.389 . S
C174 C179 1.391 . S
C175 H161 0.941 . S
C175 C174 1.389 . S
C175 C176 1.397 . S
C176 H162 0.939 . S
C176 C175 1.397 . S
C176 C177 1.378 . S
C177 C176 1.378 . S
C177 C178 1.378 . S
C178 H163 0.940 . S
C178 C177 1.378 . S
C178 C179 1.396 . S
C179 H164 0.942 . S
C179 C174 1.391 . S
C179 C178 1.396 . S
C180 P160 1.803 . S
C180 C181 1.378 . S
C180 C185 1.400 . S
C181 H165 0.939 . S
C181 C180 1.378 . S
C181 C182 1.361 . S
C182 H166 0.942 . S
C182 C181 1.361 . S
C182 C183 1.369 . S
C183 C182 1.369 . S
C183 C184 1.404 . S
C184 H167 0.940 . S
C184 C183 1.404 . S
C184 C185 1.389 . S
C185 H168 0.939 . S
C185 C180 1.400 . S
C185 C184 1.389 . S
C186 P160 1.819 . S
C186 C187 1.391 . S
C186 C191 1.391 . S
C187 H169 0.941 . S
C187 C186 1.391 . S
C187 C188 1.396 . S
C188 H172 0.939 . S
C188 C187 1.396 . S
C188 C189 1.397 . S
C189 C188 1.397 . S
C189 C190 1.385 . S
C190 H173 0.940 . S
C190 C189 1.385 . S
C190 C191 1.388 . S
C191 H170 0.939 . S
C191 C186 1.391 . S
C191 C190 1.388 . S
P192 O203 1.490 . S
P192 C206 1.812 1_554 S
P192 C212 1.803 . S
P192 C218 1.819 . S
H193 C207 0.941 . S
H194 C208 0.939 . S
H195 C210 0.940 . S
H196 C211 0.938 . S
H197 C213 0.939 . S
H198 C214 0.942 . S
H199 C216 0.940 . S
H200 C217 0.939 . S
H201 C219 0.941 . S
H202 C223 0.939 . S
O203 P192 1.490 . S
H204 C220 0.939 . S
H205 C222 0.940 . S
C206 P192 1.812 1_556 S
C206 C207 1.389 . S
C206 C211 1.391 . S
C207 H193 0.941 . S
C207 C206 1.389 . S
C207 C208 1.397 . S
C208 H194 0.939 . S
C208 C207 1.397 . S
C208 C209 1.378 . S
C209 C208 1.378 . S
C209 C210 1.378 . S
C210 H195 0.940 . S
C210 C209 1.378 . S
C210 C211 1.396 . S
C211 H196 0.938 . S
C211 C206 1.391 . S
C211 C210 1.396 . S
C212 P192 1.803 . S
C212 C213 1.378 . S
C212 C217 1.400 . S
C213 H197 0.939 . S
C213 C212 1.378 . S
C213 C214 1.361 . S
C214 H198 0.942 . S
C214 C213 1.361 . S
C214 C215 1.369 . S
C215 C214 1.369 . S
C215 C216 1.404 . S
C216 H199 0.940 . S
C216 C215 1.404 . S
C216 C217 1.389 . S
C217 H200 0.939 . S
C217 C212 1.400 . S
C217 C216 1.389 . S
C218 P192 1.819 . S
C218 C219 1.391 . S
C218 C223 1.391 . S
C219 H201 0.941 . S
C219 C218 1.391 . S
C219 C220 1.396 . S
C220 H204 0.939 . S
C220 C219 1.396 . S
C220 C221 1.397 . S
C221 C220 1.397 . S
C221 C222 1.385 . S
C222 H205 0.940 . S
C222 C221 1.385 . S
C222 C223 1.388 . S
C223 H202 0.939 . S
C223 C218 1.391 . S
C223 C222 1.388 . S
P224 O235 1.490 . S
P224 C238 1.812 1_554 S
P224 C244 1.803 . S
P224 C250 1.819 . S
H225 C239 0.941 . S
H226 C240 0.939 . S
H227 C242 0.940 . S
H228 C243 0.940 . S
H229 C245 0.939 . S
H230 C246 0.942 . S
H231 C248 0.940 . S
H232 C249 0.939 . S
H233 C251 0.941 . S
H234 C255 0.939 . S
O235 P224 1.490 . S
H236 C252 0.939 . S
H237 C254 0.940 . S
C238 P224 1.812 1_556 S
C238 C239 1.389 . S
C238 C243 1.391 . S
C239 H225 0.941 . S
C239 C238 1.389 . S
C239 C240 1.397 . S
C240 H226 0.939 . S
C240 C239 1.397 . S
C240 C241 1.378 . S
C241 C240 1.378 . S
C241 C242 1.378 . S
C242 H227 0.940 . S
C242 C241 1.378 . S
C242 C243 1.396 . S
C243 H228 0.940 . S
C243 C238 1.391 . S
C243 C242 1.396 . S
C244 P224 1.803 . S
C244 C245 1.378 . S
C244 C249 1.400 . S
C245 H229 0.939 . S
C245 C244 1.378 . S
C245 C246 1.361 . S
C246 H230 0.942 . S
C246 C245 1.361 . S
C246 C247 1.369 . S
C247 C246 1.369 . S
C247 C248 1.404 . S
C248 H231 0.940 . S
C248 C247 1.404 . S
C248 C249 1.389 . S
C249 H232 0.939 . S
C249 C244 1.400 . S
C249 C248 1.389 . S
C250 P224 1.819 . S
C250 C251 1.391 . S
C250 C255 1.391 . S
C251 H233 0.941 . S
C251 C250 1.391 . S
C251 C252 1.396 . S
C252 H236 0.939 . S
C252 C251 1.396 . S
C252 C253 1.397 . S
C253 C252 1.397 . S
C253 C254 1.385 . S
C254 H237 0.940 . S
C254 C253 1.385 . S
C254 C255 1.388 . S
C255 H234 0.939 . S
C255 C250 1.391 . S
C255 C254 1.388 . S
Tb256 N285 2.617 . S
Tb256 N291 2.572 . S
Tb256 O300 2.463 . S
Tb256 O301 2.387 1_545 S
Tb256 O303 2.428 . S
Tb256 O304 2.308 1_655 S
Tb256 O308 2.349 1_655 S
Tb256 O311 2.393 . S
Tb256 C320 2.802 . S
C257 N258 1.379 1_545 S
C257 C260 1.416 . S
C257 C264 1.424 . S
N258 C257 1.379 1_565 S
N258 C261 1.334 . S
N258 Tb267 2.617 . S
C259 C261 1.390 1_545 S
C259 C262 1.339 . S
C259 H279 0.930 . S
C260 C257 1.416 . S
C260 C262 1.416 . S
C260 C266 1.448 . S
C261 N258 1.334 . S
C261 C259 1.390 1_565 S
C261 H272 0.930 . S
C262 C259 1.339 . S
C262 C260 1.416 . S
C262 H283 0.930 . S
C263 C264 1.413 . S
C263 C265 1.427 . S
C263 C269 1.416 . S
C264 C257 1.424 . S
C264 C263 1.413 . S
C264 N268 1.361 . S
C265 C263 1.427 . S
C265 C266 1.328 . S
C265 H280 0.929 . S
C266 C260 1.448 . S
C266 C265 1.328 . S
C266 H281 0.930 . S
Tb267 N258 2.617 . S
Tb267 N268 2.572 1_565 S
Tb267 O302 2.349 . S
Tb267 O305 2.393 . S
Tb267 O306 2.465 . S
Tb267 O307 2.387 1_565 S
Tb267 O309 2.428 . S
Tb267 O310 2.301 1_465 S
Tb267 C331 2.802 . S
N268 C264 1.361 . S
N268 Tb267 2.572 1_545 S
N268 C270 1.340 . S
C269 C263 1.416 . S
C269 C271 1.332 . S
C269 H277 0.931 . S
C270 N268 1.340 . S
C270 C271 1.407 . S
C270 H276 0.869 1_445 S
C271 C269 1.332 . S
C271 C270 1.407 . S
C271 H273 0.960 . S
H272 C261 0.930 . S
H273 C271 0.960 . S
H274 C289 0.930 . S
H275 C296 0.929 1_455 S
H276 C270 0.869 1_665 S
H277 C269 0.931 . S
H278 C292 0.912 1_455 S
H279 C259 0.930 . S
H280 C265 0.929 . S
H281 C266 0.930 . S
H282 C287 0.930 . S
H283 C262 0.930 . S
H284 C295 0.931 . S
N285 Tb256 2.617 . S
N285 C286 1.379 . S
N285 C289 1.334 . S
C286 N285 1.379 . S
C286 C288 1.416 1_545 S
C286 C294 1.424 . S
C287 H282 0.930 . S
C287 C289 1.390 . S
C287 C290 1.317 1_545 S
C288 C286 1.416 1_565 S
C288 C290 1.421 . S
C288 C321 1.448 . S
C289 H274 0.930 . S
C289 N285 1.334 . S
C289 C287 1.390 . S
C290 C287 1.317 1_565 S
C290 C288 1.421 . S
C290 H297 0.949 . S
N291 Tb256 2.572 . S
N291 C292 1.356 . S
N291 C294 1.361 . S
C292 H278 0.912 1_655 S
C292 N291 1.356 . S
C292 C296 1.408 1_545 S
C293 C294 1.413 1_565 S
C293 C295 1.416 . S
C293 C322 1.427 . S
C294 C286 1.424 . S
C294 N291 1.361 . S
C294 C293 1.413 1_545 S
C295 H284 0.931 . S
C295 C293 1.416 . S
C295 C296 1.332 . S
C296 H275 0.929 1_655 S
C296 C292 1.408 1_565 S
C296 C295 1.332 . S
H297 C290 0.949 . S
H298 C321 0.930 . S
H299 C322 0.929 . S
O300 Tb256 2.463 . S
O300 C320 1.259 . S
O301 Tb256 2.387 1_565 S
O301 C312 1.264 . S
O302 Tb267 2.349 . S
O302 C312 1.243 1_455 S
O303 Tb256 2.428 . S
O303 C320 1.256 . S
O304 Tb256 2.308 1_455 S
O304 C319 1.266 . S
O305 Tb267 2.393 . S
O305 C319 1.248 1_565 S
O306 Tb267 2.465 . S
O306 C331 1.264 . S
O307 Tb267 2.387 1_545 S
O307 C323 1.264 . S
O308 Tb256 2.349 1_455 S
O308 C323 1.243 . S
O309 Tb267 2.428 . S
O309 C331 1.256 . S
O310 Tb267 2.301 1_645 S
O310 C330 1.272 . S
O311 Tb256 2.393 . S
O311 C330 1.248 . S
C312 O301 1.264 . S
C312 O302 1.243 1_655 S
C313 C316 1.399 . S
C313 C318 1.383 . S
C313 C320 1.496 . S
C314 C315 1.399 . S
C314 C318 1.389 . S
C315 C314 1.399 . S
C315 C317 1.380 . S
C315 H332 0.929 . S
C316 C313 1.399 . S
C316 C317 1.392 . S
C316 H333 0.929 . S
C317 C315 1.380 . S
C317 C316 1.392 . S
C317 H334 0.929 . S
C318 C313 1.383 . S
C318 C314 1.389 . S
C318 H335 0.931 1_655 S
C319 O304 1.266 . S
C319 O305 1.248 1_545 S
C320 Tb256 2.802 . S
C320 O300 1.259 . S
C320 O303 1.256 . S
C320 C313 1.496 . S
C321 C288 1.448 . S
C321 H298 0.930 . S
C321 C322 1.328 . S
C322 C293 1.427 . S
C322 H299 0.929 . S
C322 C321 1.328 . S
C323 O307 1.264 . S
C323 O308 1.243 . S
C324 C327 1.399 . S
C324 C328 1.383 . S
C324 C331 1.496 . S
C325 C326 1.399 . S
C325 C328 1.389 . S
C326 C325 1.399 . S
C326 C329 1.380 . S
C326 H336 0.929 . S
C327 C324 1.399 . S
C327 C329 1.392 . S
C327 H337 0.929 . S
C328 C324 1.383 . S
C328 C325 1.389 . S
C328 H338 0.957 . S
C329 C326 1.380 . S
C329 C327 1.392 . S
C329 H339 0.929 . S
C330 O310 1.272 . S
C330 O311 1.248 . S
C331 Tb267 2.802 . S
C331 O306 1.264 . S
C331 O309 1.256 . S
C331 C324 1.496 . S
H332 C315 0.929 . S
H333 C316 0.929 . S
H334 C317 0.929 . S
H335 C318 0.931 1_455 S
H336 C326 0.929 . S
H337 C327 0.929 . S
H338 C328 0.957 . S
H339 C329 0.929 . S
Tb340 N369 2.617 . S
Tb340 N375 2.572 . S
Tb340 O384 2.465 . S
Tb340 O385 2.387 . S
Tb340 O387 2.428 . S
Tb340 O388 2.308 . S
Tb340 O392 2.349 1_545 S
Tb340 O395 2.393 . S
Tb340 C404 2.802 . S
C341 N342 1.379 . S
C341 C344 1.416 . S
C341 C348 1.424 . S
N342 C341 1.379 . S
N342 C345 1.334 . S
N342 Tb351 2.617 . S
C343 C345 1.390 . S
C343 C346 1.339 . S
C343 H363 0.930 . S
C344 C341 1.416 . S
C344 C346 1.416 . S
C344 C350 1.448 . S
C345 N342 1.334 . S
C345 C343 1.390 . S
C345 H356 0.930 . S
C346 C343 1.339 . S
C346 C344 1.416 . S
C346 H367 0.930 . S
C347 C348 1.413 . S
C347 C349 1.427 . S
C347 C353 1.416 . S
C348 C341 1.424 . S
C348 C347 1.413 . S
C348 N352 1.361 . S
C349 C347 1.427 . S
C349 C350 1.328 . S
C349 H364 0.929 . S
C350 C344 1.448 . S
C350 C349 1.328 . S
C350 H365 0.930 . S
Tb351 N342 2.617 . S
Tb351 N352 2.572 . S
Tb351 O386 2.349 1_565 S
Tb351 O389 2.393 . S
Tb351 O390 2.465 . S
Tb351 O391 2.387 . S
Tb351 O393 2.428 . S
Tb351 O394 2.308 1_565 S
Tb351 C415 2.802 . S
N352 C348 1.361 . S
N352 Tb351 2.572 . S
N352 C354 1.340 . S
C353 C347 1.416 . S
C353 C355 1.332 . S
C353 H361 0.931 . S
C354 N352 1.340 . S
C354 C355 1.407 . S
C354 H360 0.930 . S
C355 C353 1.332 . S
C355 C354 1.407 . S
C355 H357 0.929 . S
H356 C345 0.930 . S
H357 C355 0.929 . S
H358 C373 0.930 . S
H359 C380 0.929 . S
H360 C354 0.930 . S
H361 C353 0.931 . S
H362 C376 0.930 . S
H363 C343 0.930 . S
H364 C349 0.929 . S
H365 C350 0.930 . S
H366 C371 0.930 . S
H367 C346 0.930 . S
H368 C379 0.931 . S
N369 Tb340 2.617 . S
N369 C370 1.379 . S
N369 C373 1.334 . S
C370 N369 1.379 . S
C370 C372 1.416 . S
C370 C378 1.424 . S
C371 H366 0.930 . S
C371 C373 1.390 . S
C371 C374 1.339 . S
C372 C370 1.416 . S
C372 C374 1.416 . S
C372 C405 1.448 . S
C373 H358 0.930 . S
C373 N369 1.334 . S
C373 C371 1.390 . S
C374 C371 1.339 . S
C374 C372 1.416 . S
C374 H381 0.930 . S
N375 Tb340 2.572 . S
N375 C376 1.340 . S
N375 C378 1.361 . S
C376 H362 0.930 . S
C376 N375 1.340 . S
C376 C380 1.407 . S
C377 C378 1.413 . S
C377 C379 1.416 . S
C377 C406 1.427 . S
C378 C370 1.424 . S
C378 N375 1.361 . S
C378 C377 1.413 . S
C379 H368 0.931 . S
C379 C377 1.416 . S
C379 C380 1.332 . S
C380 H359 0.929 . S
C380 C376 1.407 . S
C380 C379 1.332 . S
H381 C374 0.930 . S
H382 C405 0.930 . S
H383 C406 0.929 . S
O384 Tb340 2.465 . S
O384 C404 1.264 . S
O385 Tb340 2.387 . S
O385 C396 1.264 . S
O386 Tb351 2.349 1_545 S
O386 C396 1.243 . S
O387 Tb340 2.428 . S
O387 C404 1.256 . S
O388 Tb340 2.308 . S
O388 C403 1.266 1_545 S
O389 Tb351 2.393 . S
O389 C403 1.248 . S
O390 Tb351 2.465 . S
O390 C415 1.264 . S
O391 Tb351 2.387 . S
O391 C407 1.264 . S
O392 Tb340 2.349 1_565 S
O392 C407 1.243 . S
O393 Tb351 2.428 . S
O393 C415 1.256 . S
O394 Tb351 2.308 1_545 S
O394 C414 1.266 . S
O395 Tb340 2.393 . S
O395 C414 1.248 . S
C396 O385 1.264 . S
C396 O386 1.243 . S
C397 C400 1.399 . S
C397 C402 1.383 . S
C397 C404 1.496 . S
C398 C399 1.399 . S
C398 C402 1.389 . S
C399 C398 1.399 . S
C399 C401 1.380 . S
C399 H416 0.929 . S
C400 C397 1.399 . S
C400 C401 1.392 . S
C400 H417 0.929 . S
C401 C399 1.380 . S
C401 C400 1.392 . S
C401 H418 0.929 . S
C402 C397 1.383 . S
C402 C398 1.389 . S
C402 H419 0.931 . S
C403 O388 1.266 1_565 S
C403 O389 1.248 . S
C404 Tb340 2.802 . S
C404 O384 1.264 . S
C404 O387 1.256 . S
C404 C397 1.496 . S
C405 C372 1.448 . S
C405 H382 0.930 . S
C405 C406 1.328 . S
C406 C377 1.427 . S
C406 H383 0.929 . S
C406 C405 1.328 . S
C407 O391 1.264 . S
C407 O392 1.243 . S
C408 C411 1.399 . S
C408 C412 1.383 1_565 S
C408 C415 1.496 . S
C409 C410 1.399 1_545 S
C409 C412 1.389 . S
C410 C409 1.399 1_565 S
C410 C413 1.380 . S
C410 H420 0.929 . S
C411 C408 1.399 . S
C411 C413 1.392 . S
C411 H421 0.929 . S
C412 C408 1.383 1_545 S
C412 C409 1.389 . S
C412 H422 0.931 . S
C413 C410 1.380 . S
C413 C411 1.392 . S
C413 H423 0.929 . S
C414 O394 1.266 . S
C414 O395 1.248 . S
C415 Tb351 2.802 . S
C415 O390 1.264 . S
C415 O393 1.256 . S
C415 C408 1.496 . S
H416 C399 0.929 . S
H417 C400 0.929 . S
H418 C401 0.929 . S
H419 C402 0.931 . S
H420 C410 0.929 . S
H421 C411 0.929 . S
H422 C412 0.931 . S
H423 C413 0.929 . S
Tb424 N453 2.617 . S
Tb424 N459 2.572 . S
Tb424 O468 2.465 . S
Tb424 O469 2.387 . S
Tb424 O471 2.428 . S
Tb424 O472 2.308 . S
Tb424 O476 2.349 . S
Tb424 O479 2.393 . S
Tb424 C488 2.802 . S
C425 N426 1.379 . S
C425 C428 1.416 . S
C425 C432 1.424 . S
N426 C425 1.379 . S
N426 C429 1.334 . S
N426 Tb435 2.617 . S
C427 C429 1.390 . S
C427 C430 1.339 . S
C427 H447 0.930 . S
C428 C425 1.416 . S
C428 C430 1.416 . S
C428 C434 1.448 . S
C429 N426 1.334 . S
C429 C427 1.390 . S
C429 H440 0.930 . S
C430 C427 1.339 . S
C430 C428 1.416 . S
C430 H451 0.930 . S
C431 C432 1.413 . S
C431 C433 1.427 . S
C431 C437 1.416 . S
C432 C425 1.424 . S
C432 C431 1.413 . S
C432 N436 1.361 . S
C433 C431 1.427 . S
C433 C434 1.328 . S
C433 H448 0.929 . S
C434 C428 1.448 . S
C434 C433 1.328 . S
C434 H449 0.930 . S
Tb435 N426 2.617 . S
Tb435 N436 2.572 . S
Tb435 O470 2.349 . S
Tb435 O473 2.393 . S
Tb435 O474 2.465 . S
Tb435 O475 2.387 . S
Tb435 O477 2.428 . S
Tb435 O478 2.308 . S
Tb435 C499 2.802 . S
N436 C432 1.361 . S
N436 Tb435 2.572 . S
N436 C438 1.340 . S
C437 C431 1.416 . S
C437 C439 1.332 . S
C437 H445 0.931 . S
C438 N436 1.340 . S
C438 C439 1.407 . S
C438 H444 0.930 . S
C439 C437 1.332 . S
C439 C438 1.407 . S
C439 H441 0.929 . S
H440 C429 0.930 . S
H441 C439 0.929 . S
H442 C457 0.930 . S
H443 C464 0.929 . S
H444 C438 0.930 . S
H445 C437 0.931 . S
H446 C460 0.930 . S
H447 C427 0.930 . S
H448 C433 0.929 . S
H449 C434 0.930 . S
H450 C455 0.930 . S
H451 C430 0.930 . S
H452 C463 0.931 . S
N453 Tb424 2.617 . S
N453 C454 1.379 . S
N453 C457 1.334 . S
C454 N453 1.379 . S
C454 C456 1.416 . S
C454 C462 1.424 . S
C455 H450 0.930 . S
C455 C457 1.390 . S
C455 C458 1.339 . S
C456 C454 1.416 . S
C456 C458 1.416 . S
C456 C489 1.448 . S
C457 H442 0.930 . S
C457 N453 1.334 . S
C457 C455 1.390 . S
C458 C455 1.339 . S
C458 C456 1.416 . S
C458 H465 0.930 . S
N459 Tb424 2.572 . S
N459 C460 1.340 . S
N459 C462 1.361 . S
C460 H446 0.930 . S
C460 N459 1.340 . S
C460 C464 1.407 . S
C461 C462 1.413 . S
C461 C463 1.416 . S
C461 C490 1.427 . S
C462 C454 1.424 . S
C462 N459 1.361 . S
C462 C461 1.413 . S
C463 H452 0.931 . S
C463 C461 1.416 . S
C463 C464 1.332 . S
C464 H443 0.929 . S
C464 C460 1.407 . S
C464 C463 1.332 . S
H465 C458 0.930 . S
H466 C489 0.930 . S
H467 C490 0.929 . S
O468 Tb424 2.465 . S
O468 C488 1.264 . S
O469 Tb424 2.387 . S
O469 C480 1.264 . S
O470 Tb435 2.349 . S
O470 C480 1.243 . S
O471 Tb424 2.428 . S
O471 C488 1.256 . S
O472 Tb424 2.308 . S
O472 C487 1.266 . S
O473 Tb435 2.393 . S
O473 C487 1.248 . S
O474 Tb435 2.465 . S
O474 C499 1.264 . S
O475 Tb435 2.387 . S
O475 C491 1.264 . S
O476 Tb424 2.349 . S
O476 C491 1.243 . S
O477 Tb435 2.428 . S
O477 C499 1.256 . S
O478 Tb435 2.308 . S
O478 C498 1.266 . S
O479 Tb424 2.393 . S
O479 C498 1.248 . S
C480 O469 1.264 . S
C480 O470 1.243 . S
C481 C484 1.399 . S
C481 C486 1.383 . S
C481 C488 1.496 . S
C482 C483 1.399 . S
C482 C486 1.389 . S
C483 C482 1.399 . S
C483 C485 1.380 . S
C483 H500 0.929 . S
C484 C481 1.399 . S
C484 C485 1.392 . S
C484 H501 0.929 . S
C485 C483 1.380 . S
C485 C484 1.392 . S
C485 H502 0.929 . S
C486 C481 1.383 . S
C486 C482 1.389 . S
C486 H503 0.931 . S
C487 O472 1.266 . S
C487 O473 1.248 . S
C488 Tb424 2.802 . S
C488 O468 1.264 . S
C488 O471 1.256 . S
C488 C481 1.496 . S
C489 C456 1.448 . S
C489 H466 0.930 . S
C489 C490 1.328 . S
C490 C461 1.427 . S
C490 H467 0.929 . S
C490 C489 1.328 . S
C491 O475 1.264 . S
C491 O476 1.243 . S
C492 C495 1.399 . S
C492 C496 1.383 . S
C492 C499 1.496 . S
C493 C494 1.399 . S
C493 C496 1.389 . S
C494 C493 1.399 . S
C494 C497 1.380 . S
C494 H504 0.929 . S
C495 C492 1.399 . S
C495 C497 1.392 . S
C495 H505 0.929 . S
C496 C492 1.383 . S
C496 C493 1.389 . S
C496 H506 0.931 . S
C497 C494 1.380 . S
C497 C495 1.392 . S
C497 H507 0.929 . S
C498 O478 1.266 . S
C498 O479 1.248 . S
C499 Tb435 2.802 . S
C499 O474 1.264 . S
C499 O477 1.256 . S
C499 C492 1.496 . S
H500 C483 0.929 . S
H501 C484 0.929 . S
H502 C485 0.929 . S
H503 C486 0.931 . S
H504 C494 0.929 . S
H505 C495 0.929 . S
H506 C496 0.931 . S
H507 C497 0.929 . S
Tb508 N537 2.617 . S
Tb508 N543 2.572 . S
Tb508 O552 2.465 . S
Tb508 O553 2.387 1_455 S
Tb508 O555 2.428 . S
Tb508 O556 2.308 . S
Tb508 O560 2.349 . S
Tb508 O563 2.393 . S
Tb508 C572 2.802 . S
C509 N510 1.379 1_455 S
C509 C512 1.416 . S
C509 C516 1.424 . S
N510 C509 1.379 1_655 S
N510 C513 1.334 . S
N510 Tb519 2.617 . S
C511 C513 1.390 1_455 S
C511 C514 1.339 . S
C511 H531 0.930 1_455 S
C512 C509 1.416 . S
C512 C514 1.416 . S
C512 C518 1.448 . S
C513 N510 1.334 . S
C513 C511 1.390 1_655 S
C513 H524 0.930 . S
C514 C511 1.339 . S
C514 C512 1.416 . S
C514 H535 0.930 . S
C515 C516 1.413 . S
C515 C517 1.427 . S
C515 C521 1.416 . S
C516 C509 1.424 . S
C516 C515 1.413 . S
C516 N520 1.361 . S
C517 C515 1.427 . S
C517 C518 1.328 . S
C517 H532 0.929 . S
C518 C512 1.448 . S
C518 C517 1.328 . S
C518 H533 0.930 . S
Tb519 N510 2.617 . S
Tb519 N520 2.572 1_655 S
Tb519 O554 2.349 . S
Tb519 O557 2.393 . S
Tb519 O558 2.465 . S
Tb519 O559 2.387 1_655 S
Tb519 O561 2.428 . S
Tb519 O562 2.308 1_655 S
Tb519 C583 2.802 . S
N520 C516 1.361 . S
N520 Tb519 2.572 1_455 S
N520 C522 1.340 . S
C521 C515 1.416 . S
C521 C523 1.332 . S
C521 H529 0.931 . S
C522 N520 1.340 . S
C522 C523 1.407 . S
C522 H528 0.930 1_455 S
C523 C521 1.332 . S
C523 C522 1.407 . S
C523 H525 0.929 . S
H524 C513 0.930 . S
H525 C523 0.929 . S
H526 C541 0.930 . S
H527 C548 0.929 . S
H528 C522 0.930 1_655 S
H529 C521 0.931 . S
H530 C544 0.930 . S
H531 C511 0.930 1_655 S
H532 C517 0.929 . S
H533 C518 0.930 . S
H534 C539 0.930 . S
H535 C514 0.930 . S
H536 C547 0.931 . S
N537 Tb508 2.617 . S
N537 C538 1.379 . S
N537 C541 1.334 . S
C538 N537 1.379 . S
C538 C540 1.416 1_455 S
C538 C546 1.424 . S
C539 H534 0.930 . S
C539 C541 1.390 . S
C539 C542 1.340 . S
C540 C538 1.416 1_655 S
C540 C542 1.416 1_655 S
C540 C573 1.448 . S
C541 H526 0.930 . S
C541 N537 1.334 . S
C541 C539 1.390 . S
C542 C539 1.340 . S
C542 C540 1.416 1_455 S
C542 H549 0.929 1_455 S
N543 Tb508 2.572 . S
N543 C544 1.340 . S
N543 C546 1.361 . S
C544 H530 0.930 . S
C544 N543 1.340 . S
C544 C548 1.407 1_455 S
C545 C546 1.413 1_655 S
C545 C547 1.416 . S
C545 C574 1.427 . S
C546 C538 1.424 . S
C546 N543 1.361 . S
C546 C545 1.413 1_455 S
C547 H536 0.931 . S
C547 C545 1.416 . S
C547 C548 1.332 . S
C548 H527 0.929 . S
C548 C544 1.407 1_655 S
C548 C547 1.332 . S
H549 C542 0.929 1_655 S
H550 C573 0.930 . S
H551 C574 0.929 . S
O552 Tb508 2.465 . S
O552 C572 1.264 . S
O553 Tb508 2.387 1_655 S
O553 C564 1.264 . S
O554 Tb519 2.349 . S
O554 C564 1.243 . S
O555 Tb508 2.428 . S
O555 C572 1.256 . S
O556 Tb508 2.308 . S
O556 C571 1.266 . S
O557 Tb519 2.393 . S
O557 C571 1.248 1_655 S
O558 Tb519 2.465 . S
O558 C583 1.264 . S
O559 Tb519 2.387 1_455 S
O559 C575 1.264 . S
O560 Tb508 2.349 . S
O560 C575 1.243 . S
O561 Tb519 2.428 . S
O561 C583 1.256 . S
O562 Tb519 2.308 1_455 S
O562 C582 1.266 . S
O563 Tb508 2.393 . S
O563 C582 1.248 . S
C564 O553 1.264 . S
C564 O554 1.243 . S
C565 C568 1.399 . S
C565 C570 1.383 . S
C565 C572 1.496 . S
C566 C567 1.399 . S
C566 C570 1.389 . S
C567 C566 1.399 . S
C567 C569 1.380 . S
C567 H584 0.929 . S
C568 C565 1.399 . S
C568 C569 1.392 . S
C568 H585 0.929 . S
C569 C567 1.380 . S
C569 C568 1.392 . S
C569 H586 0.929 . S
C570 C565 1.383 . S
C570 C566 1.389 . S
C570 H587 0.931 . S
C571 O556 1.266 . S
C571 O557 1.248 1_455 S
C572 Tb508 2.802 . S
C572 O552 1.264 . S
C572 O555 1.256 . S
C572 C565 1.496 . S
C573 C540 1.448 . S
C573 H550 0.930 . S
C573 C574 1.328 . S
C574 C545 1.427 . S
C574 H551 0.929 . S
C574 C573 1.328 . S
C575 O559 1.264 . S
C575 O560 1.243 . S
C576 C579 1.399 . S
C576 C580 1.383 . S
C576 C583 1.496 . S
C577 C578 1.399 . S
C577 C580 1.389 . S
C578 C577 1.399 . S
C578 C581 1.380 . S
C578 H588 0.929 . S
C579 C576 1.399 . S
C579 C581 1.392 . S
C579 H589 0.929 . S
C580 C576 1.383 . S
C580 C577 1.389 . S
C580 H590 0.931 . S
C581 C578 1.380 . S
C581 C579 1.392 . S
C581 H591 0.929 . S
C582 O562 1.266 . S
C582 O563 1.248 . S
C583 Tb519 2.802 . S
C583 O558 1.264 . S
C583 O561 1.256 . S
C583 C576 1.496 . S
H584 C567 0.929 . S
H585 C568 0.929 . S
H586 C569 0.929 . S
H587 C570 0.931 . S
H588 C578 0.929 . S
H589 C579 0.929 . S
H590 C580 0.931 . S
H591 C581 0.929 . S
C592 C593 1.349 . S
C592 C594 1.327 . S
C592 H617 0.950 . S
C593 C592 1.349 . S
C593 C609 1.349 . S
C594 C592 1.327 . S
C594 C613 1.429 . S
C594 H618 0.950 . S
C595 C612 1.574 . S
C595 C614 1.368 . S
C595 H619 0.949 . S
H596 C600 0.949 . S
C597 C598 1.349 . S
C597 C599 1.327 . S
C597 H620 0.950 1_545 S
C598 C597 1.349 . S
C598 C610 1.349 . S
C599 C597 1.327 . S
C599 C615 1.429 . S
C599 H621 0.950 1_545 S
C600 H596 0.949 . S
C600 C608 1.574 . S
C600 C616 1.368 . S
H601 C609 0.950 . S
H602 C607 0.950 . S
H603 C608 0.949 . S
H604 C610 0.950 . S
H605 C611 0.950 . S
H606 C612 0.949 . S
C607 H602 0.950 . S
C607 C609 1.327 . S
C607 C613 1.429 . S
C608 C600 1.574 . S
C608 H603 0.949 . S
C608 C614 1.368 . S
C609 C593 1.349 . S
C609 H601 0.950 . S
C609 C607 1.327 . S
C610 C598 1.349 . S
C610 H604 0.950 . S
C610 C611 1.327 . S
C611 H605 0.950 . S
C611 C610 1.327 . S
C611 C615 1.429 . S
C612 C595 1.574 . S
C612 H606 0.949 . S
C612 C616 1.368 . S
C613 C594 1.429 . S
C613 C607 1.429 . S
C613 C614 1.523 . S
C614 C595 1.368 . S
C614 C608 1.368 . S
C614 C613 1.523 . S
C615 C599 1.429 . S
C615 C611 1.429 . S
C615 C616 1.523 . S
C616 C600 1.368 . S
C616 C612 1.368 . S
C616 C615 1.523 . S
H617 C592 0.950 . S
H618 C594 0.950 . S
H619 C595 0.949 . S
H620 C597 0.950 1_565 S
H621 C599 0.950 1_565 S
C622 C623 1.349 . S
C622 C624 1.327 . S
C622 H647 0.950 . S
C623 C622 1.349 . S
C623 C639 1.349 . S
C624 C622 1.327 . S
C624 C643 1.429 . S
C624 H648 0.950 . S
C625 C642 1.574 . S
C625 C644 1.368 . S
C625 H649 0.949 . S
H626 C630 0.949 . S
C627 C628 1.349 . S
C627 C629 1.327 . S
C627 H650 0.950 . S
C628 C627 1.349 . S
C628 C640 1.349 . S
C629 C627 1.327 . S
C629 C645 1.429 . S
C629 H651 0.950 . S
C630 H626 0.949 . S
C630 C638 1.574 . S
C630 C646 1.368 . S
H631 C639 0.950 . S
H632 C637 0.950 . S
H633 C638 0.949 . S
H634 C640 0.950 . S
H635 C641 0.950 . S
H636 C642 0.949 . S
C637 H632 0.950 . S
C637 C639 1.327 . S
C637 C643 1.429 . S
C638 C630 1.574 . S
C638 H633 0.949 . S
C638 C644 1.368 . S
C639 C623 1.349 . S
C639 H631 0.950 . S
C639 C637 1.327 . S
C640 C628 1.349 . S
C640 H634 0.950 . S
C640 C641 1.327 . S
C641 H635 0.950 . S
C641 C640 1.327 . S
C641 C645 1.429 . S
C642 C625 1.574 . S
C642 H636 0.949 . S
C642 C646 1.368 . S
C643 C624 1.429 . S
C643 C637 1.429 . S
C643 C644 1.523 . S
C644 C625 1.368 . S
C644 C638 1.368 . S
C644 C643 1.523 . S
C645 C629 1.429 . S
C645 C641 1.429 . S
C645 C646 1.523 . S
C646 C630 1.368 . S
C646 C642 1.368 . S
C646 C645 1.523 . S
H647 C622 0.950 . S
H648 C624 0.950 . S
H649 C625 0.949 . S
H650 C627 0.950 . S
H651 C629 0.950 . S
C652 C653 1.349 . S
C652 C654 1.327 . S
C652 H677 0.950 . S
C653 C652 1.349 . S
C653 C669 1.349 . S
C654 C652 1.327 . S
C654 C673 1.429 . S
C654 H678 0.950 . S
C655 C672 1.574 . S
C655 C674 1.368 . S
C655 H679 0.949 . S
H656 C660 0.949 . S
C657 C658 1.349 . S
C657 C659 1.327 . S
C657 H680 0.950 . S
C658 C657 1.349 . S
C658 C670 1.349 . S
C659 C657 1.327 . S
C659 C675 1.429 . S
C659 H681 0.950 . S
C660 H656 0.949 . S
C660 C668 1.574 . S
C660 C676 1.368 . S
H661 C669 0.950 . S
H662 C667 0.950 . S
H663 C668 0.949 . S
H664 C670 0.950 . S
H665 C671 0.950 . S
H666 C672 0.949 . S
C667 H662 0.950 . S
C667 C669 1.327 . S
C667 C673 1.429 . S
C668 C660 1.574 . S
C668 H663 0.949 . S
C668 C674 1.368 . S
C669 C653 1.349 . S
C669 H661 0.950 . S
C669 C667 1.327 . S
C670 C658 1.349 . S
C670 H664 0.950 . S
C670 C671 1.327 . S
C671 H665 0.950 . S
C671 C670 1.327 . S
C671 C675 1.429 . S
C672 C655 1.574 . S
C672 H666 0.949 . S
C672 C676 1.368 . S
C673 C654 1.429 . S
C673 C667 1.429 . S
C673 C674 1.523 . S
C674 C655 1.368 . S
C674 C668 1.368 . S
C674 C673 1.523 . S
C675 C659 1.429 . S
C675 C671 1.429 . S
C675 C676 1.523 . S
C676 C660 1.368 . S
C676 C672 1.368 . S
C676 C675 1.523 . S
H677 C652 0.950 . S
H678 C654 0.950 . S
H679 C655 0.949 . S
H680 C657 0.950 . S
H681 C659 0.950 . S
C682 C683 1.349 . S
C682 C684 1.327 . S
C682 H707 0.950 . S
C683 C682 1.349 . S
C683 C699 1.349 . S
C684 C682 1.327 . S
C684 C703 1.429 . S
C684 H708 0.950 . S
C685 C702 1.574 . S
C685 C704 1.368 . S
C685 H709 0.949 . S
H686 C690 0.949 . S
C687 C688 1.349 . S
C687 C689 1.327 . S
C687 H710 0.950 . S
C688 C687 1.349 . S
C688 C700 1.349 . S
C689 C687 1.327 . S
C689 C705 1.429 . S
C689 H711 0.950 . S
C690 H686 0.949 . S
C690 C698 1.574 . S
C690 C706 1.368 . S
H691 C699 0.950 . S
H692 C697 0.950 . S
H693 C698 0.949 . S
H694 C700 0.950 . S
H695 C701 0.950 . S
H696 C702 0.949 . S
C697 H692 0.950 . S
C697 C699 1.327 . S
C697 C703 1.429 . S
C698 C690 1.574 . S
C698 H693 0.949 . S
C698 C704 1.368 . S
C699 C683 1.349 . S
C699 H691 0.950 . S
C699 C697 1.327 . S
C700 C688 1.349 . S
C700 H694 0.950 . S
C700 C701 1.327 . S
C701 H695 0.950 . S
C701 C700 1.327 . S
C701 C705 1.429 . S
C702 C685 1.574 . S
C702 H696 0.949 . S
C702 C706 1.368 . S
C703 C684 1.429 . S
C703 C697 1.429 . S
C703 C704 1.523 . S
C704 C685 1.368 . S
C704 C698 1.368 . S
C704 C703 1.523 . S
C705 C689 1.429 . S
C705 C701 1.429 . S
C705 C706 1.523 . S
C706 C690 1.368 . S
C706 C702 1.368 . S
C706 C705 1.523 . S
H707 C682 0.950 . S
H708 C684 0.950 . S
H709 C685 0.949 . S
H710 C687 0.950 . S
H711 C689 0.950 . S
C712 C713 1.349 . S
C712 C714 1.327 . S
C712 H737 0.950 . S
C713 C712 1.349 . S
C713 C729 1.349 . S
C714 C712 1.327 . S
C714 C733 1.429 . S
C714 H738 0.950 1_565 S
C715 C732 1.574 . S
C715 C734 1.368 . S
C715 H739 0.949 . S
H716 C720 0.949 . S
C717 C718 1.349 . S
C717 C719 1.327 . S
C717 H740 0.950 . S
C718 C717 1.349 . S
C718 C730 1.349 1_565 S
C719 C717 1.327 . S
C719 C735 1.429 . S
C719 H741 0.950 . S
C720 H716 0.949 . S
C720 C728 1.574 1_545 S
C720 C736 1.368 1_545 S
H721 C729 0.950 . S
H722 C727 0.950 1_556 S
H723 C728 0.949 1_545 S
H724 C730 0.950 . S
H725 C731 0.950 . S
H726 C732 0.949 . S
C727 H722 0.950 1_554 S
C727 C729 1.327 . S
C727 C733 1.429 . S
C728 C720 1.574 1_565 S
C728 H723 0.949 1_565 S
C728 C734 1.368 . S
C729 C713 1.349 . S
C729 H721 0.950 . S
C729 C727 1.327 . S
C730 C718 1.349 1_545 S
C730 H724 0.950 . S
C730 C731 1.327 . S
C731 H725 0.950 . S
C731 C730 1.327 . S
C731 C735 1.429 1_545 S
C732 C715 1.574 . S
C732 H726 0.949 . S
C732 C736 1.368 . S
C733 C714 1.429 . S
C733 C727 1.429 . S
C733 C734 1.523 1_554 S
C734 C715 1.368 . S
C734 C728 1.368 . S
C734 C733 1.523 1_556 S
C735 C719 1.429 . S
C735 C731 1.429 1_565 S
C735 C736 1.523 . S
C736 C720 1.368 1_565 S
C736 C732 1.368 . S
C736 C735 1.523 . S
H737 C712 0.950 . S
H738 C714 0.950 1_545 S
H739 C715 0.949 . S
H740 C717 0.950 . S
H741 C719 0.950 . S
C742 C743 1.349 . S
C742 C744 1.327 . S
C742 H767 0.950 . S
C743 C742 1.349 . S
C743 C759 1.349 . S
C744 C742 1.327 . S
C744 C763 1.429 . S
C744 H768 0.950 1_554 S
C745 C762 1.574 . S
C745 C764 1.368 . S
C745 H769 0.949 . S
H746 C750 0.949 . S
C747 C748 1.349 . S
C747 C749 1.327 . S
C747 H770 0.950 . S
C748 C747 1.349 . S
C748 C760 1.349 . S
C749 C747 1.327 . S
C749 C765 1.429 . S
C749 H771 0.950 . S
C750 H746 0.949 . S
C750 C758 1.574 . S
C750 C766 1.368 . S
H751 C759 0.950 . S
H752 C757 0.950 . S
H753 C758 0.949 . S
H754 C760 0.950 . S
H755 C761 0.950 . S
H756 C762 0.949 . S
C757 H752 0.950 . S
C757 C759 1.327 . S
C757 C763 1.429 . S
C758 C750 1.574 . S
C758 H753 0.949 . S
C758 C764 1.368 . S
C759 C743 1.349 . S
C759 H751 0.950 . S
C759 C757 1.327 . S
C760 C748 1.349 . S
C760 H754 0.950 . S
C760 C761 1.327 . S
C761 H755 0.950 . S
C761 C760 1.327 . S
C761 C765 1.429 . S
C762 C745 1.574 . S
C762 H756 0.949 . S
C762 C766 1.368 . S
C763 C744 1.429 . S
C763 C757 1.429 . S
C763 C764 1.523 1_554 S
C764 C745 1.368 . S
C764 C758 1.368 . S
C764 C763 1.523 1_556 S
C765 C749 1.429 . S
C765 C761 1.429 . S
C765 C766 1.523 . S
C766 C750 1.368 . S
C766 C762 1.368 . S
C766 C765 1.523 . S
H767 C742 0.950 . S
H768 C744 0.950 1_556 S
H769 C745 0.949 . S
H770 C747 0.950 . S
H771 C749 0.950 . S
C772 C773 1.349 . S
C772 C774 1.327 . S
C772 H797 0.950 . S
C773 C772 1.349 . S
C773 C789 1.349 . S
C774 C772 1.327 . S
C774 C793 1.429 . S
C774 H798 0.950 1_554 S
C775 C792 1.574 . S
C775 C794 1.368 . S
C775 H799 0.949 . S
H776 C780 0.949 . S
C777 C778 1.349 . S
C777 C779 1.327 . S
C777 H800 0.950 . S
C778 C777 1.349 . S
C778 C790 1.349 . S
C779 C777 1.327 . S
C779 C795 1.429 . S
C779 H801 0.950 . S
C780 H776 0.949 . S
C780 C788 1.574 . S
C780 C796 1.368 . S
H781 C789 0.950 . S
H782 C787 0.950 . S
H783 C788 0.949 . S
H784 C790 0.950 . S
H785 C791 0.950 . S
H786 C792 0.949 . S
C787 H782 0.950 . S
C787 C789 1.327 . S
C787 C793 1.429 . S
C788 C780 1.574 . S
C788 H783 0.949 . S
C788 C794 1.368 . S
C789 C773 1.349 . S
C789 H781 0.950 . S
C789 C787 1.327 . S
C790 C778 1.349 . S
C790 H784 0.950 . S
C790 C791 1.327 . S
C791 H785 0.950 . S
C791 C790 1.327 . S
C791 C795 1.429 . S
C792 C775 1.574 . S
C792 H786 0.949 . S
C792 C796 1.368 . S
C793 C774 1.429 . S
C793 C787 1.429 . S
C793 C794 1.523 1_554 S
C794 C775 1.368 . S
C794 C788 1.368 . S
C794 C793 1.523 1_556 S
C795 C779 1.429 . S
C795 C791 1.429 . S
C795 C796 1.523 . S
C796 C780 1.368 . S
C796 C792 1.368 . S
C796 C795 1.523 . S
H797 C772 0.950 . S
H798 C774 0.950 1_556 S
H799 C775 0.949 . S
H800 C777 0.950 . S
H801 C779 0.950 . S
C802 C803 1.349 . S
C802 C804 1.327 . S
C802 H827 0.950 . S
C803 C802 1.349 . S
C803 C819 1.349 . S
C804 C802 1.327 . S
C804 C823 1.429 . S
C804 H828 0.950 . S
C805 C822 1.574 . S
C805 C824 1.368 . S
C805 H829 0.949 . S
H806 C810 0.949 . S
C807 C808 1.349 1_455 S
C807 C809 1.329 . S
C807 H830 0.950 . S
C808 C807 1.349 1_655 S
C808 C820 1.349 . S
C809 C807 1.329 . S
C809 C825 1.423 1_455 S
C809 H831 0.954 . S
C810 H806 0.949 . S
C810 C818 1.574 . S
C810 C826 1.368 . S
H811 C819 0.950 . S
H812 C817 0.950 1_556 S
H813 C818 0.949 . S
H814 C820 0.950 . S
H815 C821 0.950 . S
H816 C822 0.934 1_455 S
C817 H812 0.950 1_554 S
C817 C819 1.327 . S
C817 C823 1.429 . S
C818 C810 1.574 . S
C818 H813 0.949 . S
C818 C824 1.368 . S
C819 C803 1.349 . S
C819 H811 0.950 . S
C819 C817 1.327 . S
C820 C808 1.349 . S
C820 H814 0.950 . S
C820 C821 1.327 . S
C821 H815 0.950 . S
C821 C820 1.327 . S
C821 C825 1.429 . S
C822 C805 1.574 . S
C822 H816 0.934 1_655 S
C822 C826 1.368 . S
C823 C804 1.429 . S
C823 C817 1.429 . S
C823 C824 1.523 1_554 S
C824 C805 1.368 . S
C824 C818 1.368 . S
C824 C823 1.523 1_556 S
C825 C809 1.423 1_655 S
C825 C821 1.429 . S
C825 C826 1.523 . S
C826 C810 1.368 . S
C826 C822 1.368 . S
C826 C825 1.523 . S
H827 C802 0.950 . S
H828 C804 0.950 . S
H829 C805 0.949 . S
H830 C807 0.950 . S
H831 C809 0.954 . S
C832 C833 1.349 . S
C832 C834 1.327 . S
C832 H857 0.950 . S
C833 C832 1.349 . S
C833 C849 1.349 . S
C834 C832 1.327 . S
C834 C853 1.429 . S
C834 H858 0.950 . S
C835 C852 1.574 . S
C835 C854 1.368 . S
C835 H859 0.949 . S
H836 C840 0.949 . S
C837 C838 1.349 1_655 S
C837 C839 1.327 1_655 S
C837 H860 0.950 . S
C838 C837 1.349 1_455 S
C838 C850 1.349 . S
C839 C837 1.327 1_455 S
C839 C855 1.429 . S
C839 H861 0.950 1_455 S
C840 H836 0.949 . S
C840 C848 1.574 . S
C840 C856 1.368 . S
H841 C849 0.950 . S
H842 C847 0.950 . S
H843 C848 0.949 . S
H844 C850 0.950 . S
H845 C851 0.950 . S
H846 C852 0.949 . S
C847 H842 0.950 . S
C847 C849 1.327 . S
C847 C853 1.429 . S
C848 C840 1.574 . S
C848 H843 0.949 . S
C848 C854 1.368 . S
C849 C833 1.349 . S
C849 H841 0.950 . S
C849 C847 1.327 . S
C850 C838 1.349 . S
C850 H844 0.950 . S
C850 C851 1.327 . S
C851 H845 0.950 . S
C851 C850 1.327 . S
C851 C855 1.429 . S
C852 C835 1.574 . S
C852 H846 0.949 . S
C852 C856 1.368 . S
C853 C834 1.429 . S
C853 C847 1.429 . S
C853 C854 1.523 . S
C854 C835 1.368 . S
C854 C848 1.368 . S
C854 C853 1.523 . S
C855 C839 1.429 . S
C855 C851 1.429 . S
C855 C856 1.523 . S
C856 C840 1.368 . S
C856 C852 1.368 . S
C856 C855 1.523 . S
H857 C832 0.950 . S
H858 C834 0.950 . S
H859 C835 0.949 . S
H860 C837 0.950 . S
H861 C839 0.950 1_655 S
C862 C863 1.349 . S
C862 C864 1.327 . S
C862 H887 0.950 . S
C863 C862 1.349 . S
C863 C879 1.349 . S
C864 C862 1.327 . S
C864 C883 1.429 . S
C864 H888 0.950 . S
C865 C882 1.574 . S
C865 C884 1.368 . S
C865 H889 0.949 . S
H866 C870 0.949 1_565 S
C867 C868 1.349 . S
C867 C869 1.327 . S
C867 H890 0.950 . S
C868 C867 1.349 . S
C868 C880 1.349 1_545 S
C869 C867 1.327 . S
C869 C885 1.429 . S
C869 H891 0.950 . S
C870 H866 0.949 1_545 S
C870 C878 1.574 . S
C870 C886 1.368 . S
H871 C879 0.950 . S
H872 C877 0.950 . S
H873 C878 0.949 . S
H874 C880 0.950 . S
H875 C881 0.950 . S
H876 C882 0.949 . S
C877 H872 0.950 . S
C877 C879 1.327 . S
C877 C883 1.429 . S
C878 C870 1.574 . S
C878 H873 0.949 . S
C878 C884 1.368 . S
C879 C863 1.349 . S
C879 H871 0.950 . S
C879 C877 1.327 . S
C880 C868 1.349 1_565 S
C880 H874 0.950 . S
C880 C881 1.327 . S
C881 H875 0.950 . S
C881 C880 1.327 . S
C881 C885 1.429 1_565 S
C882 C865 1.574 . S
C882 H876 0.949 . S
C882 C886 1.368 . S
C883 C864 1.429 . S
C883 C877 1.429 . S
C883 C884 1.523 . S
C884 C865 1.368 . S
C884 C878 1.368 . S
C884 C883 1.523 . S
C885 C869 1.429 . S
C885 C881 1.429 1_545 S
C885 C886 1.523 . S
C886 C870 1.368 . S
C886 C882 1.368 . S
C886 C885 1.523 . S
H887 C862 0.950 . S
H888 C864 0.950 . S
H889 C865 0.949 . S
H890 C867 0.950 . S
H891 C869 0.950 . S
C892 C893 1.349 . S
C892 C894 1.327 . S
C892 H917 0.950 . S
C893 C892 1.349 . S
C893 C909 1.349 . S
C894 C892 1.327 . S
C894 C913 1.429 . S
C894 H918 0.950 . S
C895 C912 1.574 . S
C895 C914 1.368 . S
C895 H919 0.949 . S
H896 C900 0.949 . S
C897 C898 1.349 . S
C897 C899 1.327 . S
C897 H920 0.950 . S
C898 C897 1.349 . S
C898 C910 1.349 . S
C899 C897 1.327 . S
C899 C915 1.429 . S
C899 H921 0.950 . S
C900 H896 0.949 . S
C900 C908 1.574 . S
C900 C916 1.368 . S
H901 C909 0.950 . S
H902 C907 0.950 . S
H903 C908 0.949 . S
H904 C910 0.950 . S
H905 C911 0.950 . S
H906 C912 0.949 . S
C907 H902 0.950 . S
C907 C909 1.327 . S
C907 C913 1.429 . S
C908 C900 1.574 . S
C908 H903 0.949 . S
C908 C914 1.368 . S
C909 C893 1.349 . S
C909 H901 0.950 . S
C909 C907 1.327 . S
C910 C898 1.349 . S
C910 H904 0.950 . S
C910 C911 1.327 . S
C911 H905 0.950 . S
C911 C910 1.327 . S
C911 C915 1.429 . S
C912 C895 1.574 . S
C912 H906 0.949 . S
C912 C916 1.368 . S
C913 C894 1.429 . S
C913 C907 1.429 . S
C913 C914 1.523 . S
C914 C895 1.368 . S
C914 C908 1.368 . S
C914 C913 1.523 . S
C915 C899 1.429 . S
C915 C911 1.429 . S
C915 C916 1.523 . S
C916 C900 1.368 . S
C916 C912 1.368 . S
C916 C915 1.523 . S
H917 C892 0.950 . S
H918 C894 0.950 . S
H919 C895 0.949 . S
H920 C897 0.950 . S
H921 C899 0.950 . S
C922 C923 1.349 . S
C922 C924 1.327 . S
C922 H947 0.950 . S
C923 C922 1.349 . S
C923 C939 1.349 . S
C924 C922 1.327 . S
C924 C943 1.429 . S
C924 H948 0.950 . S
C925 C942 1.574 . S
C925 C944 1.368 . S
C925 H949 0.949 . S
H926 C930 0.949 . S
C927 C928 1.349 . S
C927 C929 1.327 . S
C927 H950 0.950 . S
C928 C927 1.349 . S
C928 C940 1.349 . S
C929 C927 1.327 . S
C929 C945 1.429 . S
C929 H951 0.950 . S
C930 H926 0.949 . S
C930 C938 1.574 . S
C930 C946 1.368 . S
H931 C939 0.950 . S
H932 C937 0.950 . S
H933 C938 0.949 . S
H934 C940 0.950 . S
H935 C941 0.950 . S
H936 C942 0.949 . S
C937 H932 0.950 . S
C937 C939 1.327 . S
C937 C943 1.429 . S
C938 C930 1.574 . S
C938 H933 0.949 . S
C938 C944 1.368 . S
C939 C923 1.349 . S
C939 H931 0.950 . S
C939 C937 1.327 . S
C940 C928 1.349 . S
C940 H934 0.950 . S
C940 C941 1.327 . S
C941 H935 0.950 . S
C941 C940 1.327 . S
C941 C945 1.429 . S
C942 C925 1.574 . S
C942 H936 0.949 . S
C942 C946 1.368 . S
C943 C924 1.429 . S
C943 C937 1.429 . S
C943 C944 1.523 . S
C944 C925 1.368 . S
C944 C938 1.368 . S
C944 C943 1.523 . S
C945 C929 1.429 . S
C945 C941 1.429 . S
C945 C946 1.523 . S
C946 C930 1.368 . S
C946 C942 1.368 . S
C946 C945 1.523 . S
H947 C922 0.950 . S
H948 C924 0.950 . S
H949 C925 0.949 . S
H950 C927 0.950 . S
H951 C929 0.950 . S
C952 C953 1.349 . S
C952 C954 1.327 . S
C952 H977 0.950 . S
C953 C952 1.349 . S
C953 C969 1.349 . S
C954 C952 1.327 . S
C954 C973 1.411 1_554 S
C954 H978 0.950 . S
C955 C972 1.574 . S
C955 C974 1.368 . S
C955 H979 0.949 . S
H956 C960 0.949 . S
C957 C958 1.349 1_655 S
C957 C959 1.327 . S
C957 H980 0.950 . S
C958 C957 1.349 1_455 S
C958 C970 1.349 . S
C959 C957 1.327 . S
C959 C975 1.429 . S
C959 H981 0.950 . S
C960 H956 0.949 . S
C960 C968 1.574 1_455 S
C960 C976 1.368 1_455 S
H961 C969 0.950 . S
H962 C967 0.950 . S
H963 C968 0.949 1_454 S
H964 C970 0.950 . S
H965 C971 0.950 . S
H966 C972 0.949 . S
C967 H962 0.950 . S
C967 C969 1.327 1_556 S
C967 C973 1.433 . S
C968 C960 1.574 1_655 S
C968 H963 0.949 1_656 S
C968 C974 1.368 . S
C969 C953 1.349 . S
C969 H961 0.950 . S
C969 C967 1.327 1_554 S
C970 C958 1.349 . S
C970 H964 0.950 . S
C970 C971 1.327 . S
C971 H965 0.950 . S
C971 C970 1.327 . S
C971 C975 1.429 1_455 S
C972 C955 1.574 . S
C972 H966 0.949 . S
C972 C976 1.368 . S
C973 C954 1.411 1_556 S
C973 C967 1.433 . S
C973 C974 1.535 . S
C974 C955 1.368 . S
C974 C968 1.368 . S
C974 C973 1.535 . S
C975 C959 1.429 . S
C975 C971 1.429 1_655 S
C975 C976 1.523 . S
C976 C960 1.368 1_655 S
C976 C972 1.368 . S
C976 C975 1.523 . S
H977 C952 0.950 . S
H978 C954 0.950 . S
H979 C955 0.949 . S
H980 C957 0.950 . S
H981 C959 0.950 . S
C982 C983 1.349 . S
C982 C984 1.327 1_554 S
C982 H1007 0.950 1_554 S
C983 C982 1.349 . S
C983 C999 1.349 . S
C984 C982 1.327 1_556 S
C984 C1003 1.426 1_556 S
C984 H1008 0.950 . S
C985 C1002 1.574 . S
C985 C1004 1.368 . S
C985 H1009 0.949 1_556 S
H986 C990 0.949 . S
C987 C988 1.349 . S
C987 C989 1.327 . S
C987 H1010 0.950 . S
C988 C987 1.349 . S
C988 C1000 1.349 1_545 S
C989 C987 1.327 . S
C989 C1005 1.429 1_545 S
C989 H1011 0.950 . S
C990 H986 0.949 . S
C990 C998 1.574 . S
C990 C1006 1.368 . S
H991 C999 0.950 . S
H992 C997 0.950 . S
H993 C998 0.949 . S
H994 C1000 0.950 . S
H995 C1001 0.950 . S
H996 C1002 0.949 1_545 S
C997 H992 0.950 . S
C997 C999 1.327 . S
C997 C1003 1.435 . S
C998 C990 1.574 . S
C998 H993 0.949 . S
C998 C1004 1.368 . S
C999 C983 1.349 . S
C999 H991 0.950 . S
C999 C997 1.327 . S
C1000 C988 1.349 1_565 S
C1000 H994 0.950 . S
C1000 C1001 1.327 . S
C1001 H995 0.950 . S
C1001 C1000 1.327 . S
C1001 C1005 1.429 . S
C1002 C985 1.574 . S
C1002 H996 0.949 1_565 S
C1002 C1006 1.368 . S
C1003 C984 1.426 1_554 S
C1003 C997 1.435 . S
C1003 C1004 1.519 1_554 S
C1004 C985 1.368 . S
C1004 C998 1.368 . S
C1004 C1003 1.519 1_556 S
C1005 C989 1.429 1_565 S
C1005 C1001 1.429 . S
C1005 C1006 1.523 . S
C1006 C990 1.368 . S
C1006 C1002 1.368 . S
C1006 C1005 1.523 . S
H1007 C982 0.950 1_556 S
H1008 C984 0.950 . S
H1009 C985 0.949 1_554 S
H1010 C987 0.950 . S
H1011 C989 0.950 . S
C1012 C1013 1.349 . S
C1012 C1014 1.327 1_554 S
C1012 H1037 0.950 . S
C1013 C1012 1.349 . S
C1013 C1029 1.349 . S
C1014 C1012 1.327 1_556 S
C1014 C1033 1.429 1_556 S
C1014 H1038 0.950 . S
C1015 C1032 1.574 . S
C1015 C1034 1.368 . S
C1015 H1039 0.949 1_556 S
H1016 C1020 0.949 . S
C1017 C1018 1.349 . S
C1017 C1019 1.327 . S
C1017 H1040 0.950 . S
C1018 C1017 1.349 . S
C1018 C1030 1.349 . S
C1019 C1017 1.327 . S
C1019 C1035 1.429 . S
C1019 H1041 0.950 . S
C1020 H1016 0.949 . S
C1020 C1028 1.574 . S
C1020 C1036 1.368 . S
H1021 C1029 0.950 . S
H1022 C1027 0.950 . S
H1023 C1028 0.949 . S
H1024 C1030 0.950 . S
H1025 C1031 0.950 . S
H1026 C1032 0.949 . S
C1027 H1022 0.950 . S
C1027 C1029 1.327 . S
C1027 C1033 1.429 . S
C1028 C1020 1.574 . S
C1028 H1023 0.949 . S
C1028 C1034 1.368 . S
C1029 C1013 1.349 . S
C1029 H1021 0.950 . S
C1029 C1027 1.327 . S
C1030 C1018 1.349 . S
C1030 H1024 0.950 . S
C1030 C1031 1.327 . S
C1031 H1025 0.950 . S
C1031 C1030 1.327 . S
C1031 C1035 1.429 . S
C1032 C1015 1.574 . S
C1032 H1026 0.949 . S
C1032 C1036 1.368 . S
C1033 C1014 1.429 1_554 S
C1033 C1027 1.429 . S
C1033 C1034 1.523 1_554 S
C1034 C1015 1.368 . S
C1034 C1028 1.368 . S
C1034 C1033 1.523 1_556 S
C1035 C1019 1.429 . S
C1035 C1031 1.429 . S
C1035 C1036 1.523 . S
C1036 C1020 1.368 . S
C1036 C1032 1.368 . S
C1036 C1035 1.523 . S
H1037 C1012 0.950 . S
H1038 C1014 0.950 . S
H1039 C1015 0.949 1_554 S
H1040 C1017 0.950 . S
H1041 C1019 0.950 . S
C1042 C1043 1.349 . S
C1042 C1044 1.327 . S
C1042 H1067 0.950 . S
C1043 C1042 1.349 . S
C1043 C1059 1.349 . S
C1044 C1042 1.327 . S
C1044 C1063 1.430 . S
C1044 H1068 0.950 1_554 S
C1045 C1062 1.574 . S
C1045 C1064 1.368 . S
C1045 H1069 0.949 . S
H1046 C1050 0.949 . S
C1047 C1048 1.349 . S
C1047 C1049 1.327 . S
C1047 H1070 0.950 . S
C1048 C1047 1.349 . S
C1048 C1060 1.349 . S
C1049 C1047 1.327 . S
C1049 C1065 1.429 . S
C1049 H1071 0.950 . S
C1050 H1046 0.949 . S
C1050 C1058 1.574 . S
C1050 C1066 1.368 . S
H1051 C1059 0.950 . S
H1052 C1057 0.950 . S
H1053 C1058 0.949 . S
H1054 C1060 0.950 . S
H1055 C1061 0.950 . S
H1056 C1062 0.949 . S
C1057 H1052 0.950 . S
C1057 C1059 1.327 . S
C1057 C1063 1.436 . S
C1058 C1050 1.574 . S
C1058 H1053 0.949 . S
C1058 C1064 1.368 . S
C1059 C1043 1.349 . S
C1059 H1051 0.950 . S
C1059 C1057 1.327 . S
C1060 C1048 1.349 . S
C1060 H1054 0.950 . S
C1060 C1061 1.327 . S
C1061 H1055 0.950 . S
C1061 C1060 1.327 . S
C1061 C1065 1.429 . S
C1062 C1045 1.574 . S
C1062 H1056 0.949 . S
C1062 C1066 1.368 . S
C1063 C1044 1.430 . S
C1063 C1057 1.436 . S
C1063 C1064 1.515 1_554 S
C1064 C1045 1.368 . S
C1064 C1058 1.368 . S
C1064 C1063 1.515 1_556 S
C1065 C1049 1.429 . S
C1065 C1061 1.429 . S
C1065 C1066 1.523 . S
C1066 C1050 1.368 . S
C1066 C1062 1.368 . S
C1066 C1065 1.523 . S
H1067 C1042 0.950 . S
H1068 C1044 0.950 1_556 S
H1069 C1045 0.949 . S
H1070 C1047 0.950 . S
H1071 C1049 0.950 . S
C1072 C1073 1.349 . S
C1072 C1074 1.327 . S
C1072 H1097 0.950 . S
C1073 C1072 1.349 . S
C1073 C1089 1.349 . S
C1074 C1072 1.327 . S
C1074 C1093 1.429 . S
C1074 H1098 0.950 . S
C1075 C1092 1.574 . S
C1075 C1094 1.368 . S
C1075 H1099 0.949 . S
H1076 C1080 0.949 . S
C1077 C1078 1.349 . S
C1077 C1079 1.327 . S
C1077 H1100 0.917 1_455 S
C1078 C1077 1.349 . S
C1078 C1090 1.349 . S
C1079 C1077 1.327 . S
C1079 C1095 1.429 . S
C1079 H1101 0.950 . S
C1080 H1076 0.949 . S
C1080 C1088 1.574 . S
C1080 C1096 1.368 . S
H1081 C1089 0.950 . S
H1082 C1087 0.950 . S
H1083 C1088 0.949 . S
H1084 C1090 0.950 . S
H1085 C1091 0.950 . S
H1086 C1092 0.949 . S
C1087 H1082 0.950 . S
C1087 C1089 1.327 . S
C1087 C1093 1.429 . S
C1088 C1080 1.574 . S
C1088 H1083 0.949 . S
C1088 C1094 1.368 . S
C1089 C1073 1.349 . S
C1089 H1081 0.950 . S
C1089 C1087 1.327 . S
C1090 C1078 1.349 . S
C1090 H1084 0.950 . S
C1090 C1091 1.327 . S
C1091 H1085 0.950 . S
C1091 C1090 1.327 . S
C1091 C1095 1.429 . S
C1092 C1075 1.574 . S
C1092 H1086 0.949 . S
C1092 C1096 1.368 . S
C1093 C1074 1.429 . S
C1093 C1087 1.429 . S
C1093 C1094 1.523 . S
C1094 C1075 1.368 . S
C1094 C1088 1.368 . S
C1094 C1093 1.523 . S
C1095 C1079 1.429 . S
C1095 C1091 1.429 . S
C1095 C1096 1.523 . S
C1096 C1080 1.368 . S
C1096 C1092 1.368 . S
C1096 C1095 1.523 . S
H1097 C1072 0.950 . S
H1098 C1074 0.950 . S
H1099 C1075 0.949 . S
H1100 C1077 0.917 1_655 S
H1101 C1079 0.950 . S
C1102 C1103 1.349 . S
C1102 C1104 1.327 . S
C1102 H1127 0.950 . S
C1103 C1102 1.349 . S
C1103 C1119 1.349 . S
C1104 C1102 1.327 . S
C1104 C1123 1.429 . S
C1104 H1128 0.950 . S
C1105 C1122 1.574 . S
C1105 C1124 1.368 . S
C1105 H1129 0.949 . S
H1106 C1110 0.949 . S
C1107 C1108 1.349 . S
C1107 C1109 1.327 . S
C1107 H1130 0.950 1_545 S
C1108 C1107 1.349 . S
C1108 C1120 1.349 . S
C1109 C1107 1.327 . S
C1109 C1125 1.429 . S
C1109 H1131 0.915 1_545 S
C1110 H1106 0.949 . S
C1110 C1118 1.574 . S
C1110 C1126 1.368 . S
H1111 C1119 0.950 . S
H1112 C1117 0.950 . S
H1113 C1118 0.949 . S
H1114 C1120 0.950 . S
H1115 C1121 0.950 . S
H1116 C1122 0.949 . S
C1117 H1112 0.950 . S
C1117 C1119 1.327 . S
C1117 C1123 1.429 . S
C1118 C1110 1.574 . S
C1118 H1113 0.949 . S
C1118 C1124 1.368 . S
C1119 C1103 1.349 . S
C1119 H1111 0.950 . S
C1119 C1117 1.327 . S
C1120 C1108 1.349 . S
C1120 H1114 0.950 . S
C1120 C1121 1.327 . S
C1121 H1115 0.950 . S
C1121 C1120 1.327 . S
C1121 C1125 1.429 . S
C1122 C1105 1.574 . S
C1122 H1116 0.949 . S
C1122 C1126 1.368 . S
C1123 C1104 1.429 . S
C1123 C1117 1.429 . S
C1123 C1124 1.523 . S
C1124 C1105 1.368 . S
C1124 C1118 1.368 . S
C1124 C1123 1.523 . S
C1125 C1109 1.429 . S
C1125 C1121 1.429 . S
C1125 C1126 1.523 . S
C1126 C1110 1.368 . S
C1126 C1122 1.368 . S
C1126 C1125 1.523 . S
H1127 C1102 0.950 . S
H1128 C1104 0.950 . S
H1129 C1105 0.949 . S
H1130 C1107 0.950 1_565 S
H1131 C1109 0.915 1_565 S
C1132 C1133 1.349 . S
C1132 C1134 1.327 . S
C1132 H1157 0.950 . S
C1133 C1132 1.349 . S
C1133 C1149 1.349 . S
C1134 C1132 1.327 . S
C1134 C1153 1.429 . S
C1134 H1158 0.950 . S
C1135 C1152 1.574 . S
C1135 C1154 1.368 . S
C1135 H1159 0.949 . S
H1136 C1140 0.949 . S
C1137 C1138 1.349 . S
C1137 C1139 1.327 . S
C1137 H1160 0.950 . S
C1138 C1137 1.349 . S
C1138 C1150 1.349 . S
C1139 C1137 1.327 . S
C1139 C1155 1.429 . S
C1139 H1161 0.950 . S
C1140 H1136 0.949 . S
C1140 C1148 1.574 . S
C1140 C1156 1.368 . S
H1141 C1149 0.950 . S
H1142 C1147 0.950 . S
H1143 C1148 0.949 . S
H1144 C1150 0.950 . S
H1145 C1151 0.950 . S
H1146 C1152 0.949 . S
C1147 H1142 0.950 . S
C1147 C1149 1.327 . S
C1147 C1153 1.429 . S
C1148 C1140 1.574 . S
C1148 H1143 0.949 . S
C1148 C1154 1.368 . S
C1149 C1133 1.349 . S
C1149 H1141 0.950 . S
C1149 C1147 1.327 . S
C1150 C1138 1.349 . S
C1150 H1144 0.950 . S
C1150 C1151 1.327 . S
C1151 H1145 0.950 . S
C1151 C1150 1.327 . S
C1151 C1155 1.429 . S
C1152 C1135 1.574 . S
C1152 H1146 0.949 . S
C1152 C1156 1.368 . S
C1153 C1134 1.429 . S
C1153 C1147 1.429 . S
C1153 C1154 1.523 . S
C1154 C1135 1.368 . S
C1154 C1148 1.368 . S
C1154 C1153 1.523 . S
C1155 C1139 1.429 . S
C1155 C1151 1.429 . S
C1155 C1156 1.523 . S
C1156 C1140 1.368 . S
C1156 C1152 1.368 . S
C1156 C1155 1.523 . S
H1157 C1132 0.950 . S
H1158 C1134 0.950 . S
H1159 C1135 0.949 . S
H1160 C1137 0.950 . S
H1161 C1139 0.950 . S
C1162 C1163 1.349 . S
C1162 C1164 1.327 . S
C1162 H1187 0.950 . S
C1163 C1162 1.349 . S
C1163 C1179 1.349 . S
C1164 C1162 1.327 . S
C1164 C1183 1.429 . S
C1164 H1188 0.950 . S
C1165 C1182 1.574 . S
C1165 C1184 1.368 . S
C1165 H1189 0.949 . S
H1166 C1170 0.949 . S
C1167 C1168 1.349 . S
C1167 C1169 1.327 . S
C1167 H1190 0.950 . S
C1168 C1167 1.349 . S
C1168 C1180 1.349 . S
C1169 C1167 1.327 . S
C1169 C1185 1.429 . S
C1169 H1191 0.950 . S
C1170 H1166 0.949 . S
C1170 C1178 1.574 . S
C1170 C1186 1.368 . S
H1171 C1179 0.950 . S
H1172 C1177 0.950 . S
H1173 C1178 0.949 . S
H1174 C1180 0.950 . S
H1175 C1181 0.950 . S
H1176 C1182 0.949 . S
C1177 H1172 0.950 . S
C1177 C1179 1.327 . S
C1177 C1183 1.429 . S
C1178 C1170 1.574 . S
C1178 H1173 0.949 . S
C1178 C1184 1.368 . S
C1179 C1163 1.349 . S
C1179 H1171 0.950 . S
C1179 C1177 1.327 . S
C1180 C1168 1.349 . S
C1180 H1174 0.950 . S
C1180 C1181 1.327 . S
C1181 H1175 0.950 . S
C1181 C1180 1.327 . S
C1181 C1185 1.429 . S
C1182 C1165 1.574 . S
C1182 H1176 0.949 . S
C1182 C1186 1.368 . S
C1183 C1164 1.429 . S
C1183 C1177 1.429 . S
C1183 C1184 1.523 . S
C1184 C1165 1.368 . S
C1184 C1178 1.368 . S
C1184 C1183 1.523 . S
C1185 C1169 1.429 . S
C1185 C1181 1.429 . S
C1185 C1186 1.523 . S
C1186 C1170 1.368 . S
C1186 C1182 1.368 . S
C1186 C1185 1.523 . S
H1187 C1162 0.950 . S
H1188 C1164 0.950 . S
H1189 C1165 0.949 . S
H1190 C1167 0.950 . S
H1191 C1169 0.950 . S
C1192 C1193 1.349 . S
C1192 C1194 1.327 . S
C1192 H1217 0.950 . S
C1193 C1192 1.349 . S
C1193 C1209 1.349 . S
C1194 C1192 1.327 . S
C1194 C1213 1.429 . S
C1194 H1218 0.950 . S
C1195 C1212 1.574 . S
C1195 C1214 1.368 . S
C1195 H1219 0.949 . S
H1196 C1200 0.981 . S
C1197 C1198 1.349 . S
C1197 C1199 1.327 . S
C1197 H1220 0.950 . S
C1198 C1197 1.349 . S
C1198 C1210 1.372 . S
C1199 C1197 1.327 . S
C1199 C1215 1.429 . S
C1199 H1221 0.950 . S
C1200 H1196 0.981 . S
C1200 C1208 1.574 . S
C1200 C1216 1.368 . S
H1201 C1209 0.950 . S
H1202 C1207 0.950 . S
H1203 C1208 0.949 . S
H1204 C1210 0.922 1_455 S
H1205 C1211 0.950 1_455 S
H1206 C1212 0.949 . S
C1207 H1202 0.950 . S
C1207 C1209 1.327 . S
C1207 C1213 1.429 . S
C1208 C1200 1.574 . S
C1208 H1203 0.949 . S
C1208 C1214 1.368 . S
C1209 C1193 1.349 . S
C1209 H1201 0.950 . S
C1209 C1207 1.327 . S
C1210 C1198 1.372 . S
C1210 H1204 0.922 1_655 S
C1210 C1211 1.334 . S
C1211 H1205 0.950 1_655 S
C1211 C1210 1.334 . S
C1211 C1215 1.429 . S
C1212 C1195 1.574 . S
C1212 H1206 0.949 . S
C1212 C1216 1.368 . S
C1213 C1194 1.429 . S
C1213 C1207 1.429 . S
C1213 C1214 1.523 . S
C1214 C1195 1.368 . S
C1214 C1208 1.368 . S
C1214 C1213 1.523 . S
C1215 C1199 1.429 . S
C1215 C1211 1.429 . S
C1215 C1216 1.523 . S
C1216 C1200 1.368 . S
C1216 C1212 1.368 . S
C1216 C1215 1.523 . S
H1217 C1192 0.950 . S
H1218 C1194 0.950 . S
H1219 C1195 0.949 . S
H1220 C1197 0.950 . S
H1221 C1199 0.950 . S
C1222 C1223 1.349 . S
C1222 C1224 1.327 . S
C1222 H1247 0.950 . S
C1223 C1222 1.349 . S
C1223 C1239 1.349 . S
C1224 C1222 1.327 . S
C1224 C1243 1.429 . S
C1224 H1248 0.950 . S
C1225 C1242 1.574 . S
C1225 C1244 1.368 . S
C1225 H1249 0.949 . S
H1226 C1230 0.949 . S
C1227 C1228 1.349 . S
C1227 C1229 1.327 . S
C1227 H1250 0.950 1_565 S
C1228 C1227 1.349 . S
C1228 C1240 1.349 . S
C1229 C1227 1.327 . S
C1229 C1245 1.429 . S
C1229 H1251 0.947 . S
C1230 H1226 0.949 . S
C1230 C1238 1.574 . S
C1230 C1246 1.368 . S
H1231 C1239 0.950 . S
H1232 C1237 0.950 . S
H1233 C1238 0.949 . S
H1234 C1240 0.950 . S
H1235 C1241 0.950 . S
H1236 C1242 0.949 . S
C1237 H1232 0.950 . S
C1237 C1239 1.327 . S
C1237 C1243 1.429 . S
C1238 C1230 1.574 . S
C1238 H1233 0.949 . S
C1238 C1244 1.368 . S
C1239 C1223 1.349 . S
C1239 H1231 0.950 . S
C1239 C1237 1.327 . S
C1240 C1228 1.349 . S
C1240 H1234 0.950 . S
C1240 C1241 1.327 . S
C1241 H1235 0.950 . S
C1241 C1240 1.327 . S
C1241 C1245 1.429 . S
C1242 C1225 1.574 . S
C1242 H1236 0.949 . S
C1242 C1246 1.368 . S
C1243 C1224 1.429 . S
C1243 C1237 1.429 . S
C1243 C1244 1.523 . S
C1244 C1225 1.368 . S
C1244 C1238 1.368 . S
C1244 C1243 1.523 . S
C1245 C1229 1.429 . S
C1245 C1241 1.429 . S
C1245 C1246 1.523 . S
C1246 C1230 1.368 . S
C1246 C1242 1.368 . S
C1246 C1245 1.523 . S
H1247 C1222 0.950 . S
H1248 C1224 0.950 . S
H1249 C1225 0.949 . S
H1250 C1227 0.950 1_545 S
H1251 C1229 0.947 . S
C1252 C1253 1.349 . S
C1252 C1254 1.327 . S
C1252 H1277 0.950 . S
C1253 C1252 1.349 . S
C1253 C1269 1.349 . S
C1254 C1252 1.327 . S
C1254 C1273 1.429 . S
C1254 H1278 0.950 . S
C1255 C1272 1.574 . S
C1255 C1274 1.368 . S
C1255 H1279 0.949 . S
H1256 C1260 0.949 . S
C1257 C1258 1.349 . S
C1257 C1259 1.327 . S
C1257 H1280 0.950 . S
C1258 C1257 1.349 . S
C1258 C1270 1.349 . S
C1259 C1257 1.327 . S
C1259 C1275 1.429 . S
C1259 H1281 0.950 . S
C1260 H1256 0.949 . S
C1260 C1268 1.574 . S
C1260 C1276 1.368 . S
H1261 C1269 0.950 . S
H1262 C1267 0.950 . S
H1263 C1268 0.949 . S
H1264 C1270 0.950 . S
H1265 C1271 0.950 . S
H1266 C1272 0.949 . S
C1267 H1262 0.950 . S
C1267 C1269 1.327 . S
C1267 C1273 1.429 . S
C1268 C1260 1.574 . S
C1268 H1263 0.949 . S
C1268 C1274 1.368 . S
C1269 C1253 1.349 . S
C1269 H1261 0.950 . S
C1269 C1267 1.327 . S
C1270 C1258 1.349 . S
C1270 H1264 0.950 . S
C1270 C1271 1.327 . S
C1271 H1265 0.950 . S
C1271 C1270 1.327 . S
C1271 C1275 1.429 . S
C1272 C1255 1.574 . S
C1272 H1266 0.949 . S
C1272 C1276 1.368 . S
C1273 C1254 1.429 . S
C1273 C1267 1.429 . S
C1273 C1274 1.523 . S
C1274 C1255 1.368 . S
C1274 C1268 1.368 . S
C1274 C1273 1.523 . S
C1275 C1259 1.429 . S
C1275 C1271 1.429 . S
C1275 C1276 1.523 . S
C1276 C1260 1.368 . S
C1276 C1272 1.368 . S
C1276 C1275 1.523 . S
H1277 C1252 0.950 . S
H1278 C1254 0.950 . S
H1279 C1255 0.949 . S
H1280 C1257 0.950 . S
H1281 C1259 0.950 . S
C1282 C1283 1.349 . S
C1282 C1284 1.327 . S
C1282 H1307 0.950 . S
C1283 C1282 1.349 . S
C1283 C1299 1.349 . S
C1284 C1282 1.327 . S
C1284 C1303 1.429 . S
C1284 H1308 0.950 . S
C1285 C1302 1.574 . S
C1285 C1304 1.368 . S
C1285 H1309 0.949 . S
H1286 C1290 0.949 . S
C1287 C1288 1.349 . S
C1287 C1289 1.327 . S
C1287 H1310 0.950 . S
C1288 C1287 1.349 . S
C1288 C1300 1.349 . S
C1289 C1287 1.327 . S
C1289 C1305 1.429 . S
C1289 H1311 0.950 . S
C1290 H1286 0.949 . S
C1290 C1298 1.574 . S
C1290 C1306 1.368 . S
H1291 C1299 0.950 . S
H1292 C1297 0.950 . S
H1293 C1298 0.949 . S
H1294 C1300 0.950 . S
H1295 C1301 0.950 . S
H1296 C1302 0.949 . S
C1297 H1292 0.950 . S
C1297 C1299 1.327 . S
C1297 C1303 1.429 . S
C1298 C1290 1.574 . S
C1298 H1293 0.949 . S
C1298 C1304 1.368 . S
C1299 C1283 1.349 . S
C1299 H1291 0.950 . S
C1299 C1297 1.327 . S
C1300 C1288 1.349 . S
C1300 H1294 0.950 . S
C1300 C1301 1.327 . S
C1301 H1295 0.950 . S
C1301 C1300 1.327 . S
C1301 C1305 1.429 . S
C1302 C1285 1.574 . S
C1302 H1296 0.949 . S
C1302 C1306 1.368 . S
C1303 C1284 1.429 . S
C1303 C1297 1.429 . S
C1303 C1304 1.523 . S
C1304 C1285 1.368 . S
C1304 C1298 1.368 . S
C1304 C1303 1.523 . S
C1305 C1289 1.429 . S
C1305 C1301 1.429 . S
C1305 C1306 1.523 . S
C1306 C1290 1.368 . S
C1306 C1302 1.368 . S
C1306 C1305 1.523 . S
H1307 C1282 0.950 . S
H1308 C1284 0.950 . S
H1309 C1285 0.949 . S
H1310 C1287 0.950 . S
H1311 C1289 0.950 . S
C593 C215 1.976 . S
C598 C319 2.048 . S
C628 C396 2.065 . S
C623 C247 1.990 . S
C658 C487 2.038 . S
C653 C151 1.964 . S
C688 C571 2.024 . S
C683 C183 1.951 . S
C718 C330 2.048 1_565 S
C713 C87 1.911 . S
C743 C119 1.925 . S
C748 C407 2.066 . S
C773 C23 1.903 . S
C778 C498 2.038 . S
C803 C55 1.889 . S
C808 C582 2.023 1_655 S
C838 C314 0.451 1_455 S
C833 C189 0.290 . S
C868 C409 0.533 . S
C863 C221 0.250 . S
C898 C482 0.450 . S
C893 C253 0.297 . S
C923 C157 0.273 . S
C928 C566 0.444 . S
C953 C61 0.485 . S
C958 C325 0.451 . S
C988 C398 0.533 . S
C983 C93 0.483 . S
C1018 C493 0.450 . S
C1013 C125 0.494 . S
C1043 C29 0.482 . S
C1048 C577 0.444 . S
C1073 C177 2.200 . S
C1078 C323 2.366 . S
C1103 C209 2.191 . S
C1108 C414 2.365 . S
C1138 C491 2.387 . S
C1133 C241 2.222 . S
C1168 C575 2.392 . S
C1163 C145 2.225 . S
C1193 C49 2.149 . S
C1198 C312 2.365 . S
C1228 C403 2.365 . S
C1223 C81 2.137 . S
C1258 C480 2.388 . S
C1253 C113 2.167 . S
C1283 C17 2.174 . S
C1288 C564 2.391 . S
