# Generated by pormake.
# Topology anh, (6,3)-cn, num edge types: 1
# Building blocks:
#     Node 0, Type 0, BuildingBlock: PAMTUU_clean_sbu_0, # of connection points: 6
#     Node 1, Type 0, BuildingBlock: PAMTUU_clean_sbu_0, # of connection points: 6
#     Node 2, Type 0, BuildingBlock: PAMTUU_clean_sbu_0, # of connection points: 6
#     Node 3, Type 1, BuildingBlock: MIDCAF_clean_linker_0, # of connection points: 3
#     Node 4, Type 1, BuildingBlock: MIDCAF_clean_linker_0, # of connection points: 3
#     Node 5, Type 1, BuildingBlock: MIDCAF_clean_linker_0, # of connection points: 3
#     Node 6, Type 1, BuildingBlock: MIDCAF_clean_linker_0, # of connection points: 3
#     Node 7, Type 1, BuildingBlock: MIDCAF_clean_linker_0, # of connection points: 3
#     Node 8, Type 1, BuildingBlock: MIDCAF_clean_linker_0, # of connection points: 3
#     Edge 9, Type (0, 1), BuildingBlock: EZIPEK_clean_linker_0, # of connection points: 2
#     Edge 10, Type (0, 1), BuildingBlock: EZIPEK_clean_linker_0, # of connection points: 2
#     Edge 11, Type (0, 1), BuildingBlock: EZIPEK_clean_linker_0, # of connection points: 2
#     Edge 12, Type (0, 1), BuildingBlock: EZIPEK_clean_linker_0, # of connection points: 2
#     Edge 13, Type (0, 1), BuildingBlock: EZIPEK_clean_linker_0, # of connection points: 2
#     Edge 14, Type (0, 1), BuildingBlock: EZIPEK_clean_linker_0, # of connection points: 2
#     Edge 15, Type (0, 1), BuildingBlock: EZIPEK_clean_linker_0, # of connection points: 2
#     Edge 16, Type (0, 1), BuildingBlock: EZIPEK_clean_linker_0, # of connection points: 2
#     Edge 17, Type (0, 1), BuildingBlock: EZIPEK_clean_linker_0, # of connection points: 2
#     Edge 18, Type (0, 1), BuildingBlock: EZIPEK_clean_linker_0, # of connection points: 2
#     Edge 19, Type (0, 1), BuildingBlock: EZIPEK_clean_linker_0, # of connection points: 2
#     Edge 20, Type (0, 1), BuildingBlock: EZIPEK_clean_linker_0, # of connection points: 2
#     Edge 21, Type (0, 1), BuildingBlock: EZIPEK_clean_linker_0, # of connection points: 2
#     Edge 22, Type (0, 1), BuildingBlock: EZIPEK_clean_linker_0, # of connection points: 2
#     Edge 23, Type (0, 1), BuildingBlock: EZIPEK_clean_linker_0, # of connection points: 2
#     Edge 24, Type (0, 1), BuildingBlock: EZIPEK_clean_linker_0, # of connection points: 2
#     Edge 25, Type (0, 1), BuildingBlock: EZIPEK_clean_linker_0, # of connection points: 2
#     Edge 26, Type (0, 1), BuildingBlock: EZIPEK_clean_linker_0, # of connection points: 2
# Relax obj value: 0.306
# Max RMSD: 0.199
# Mean RMSD: 0.164
data_MOF--net-anh--node1-PAMTUU_clean_sbu_0--node2-MIDCAF_clean_linker_0--edge1-EZIPEK_clean_linker_0
_symmetry_space_group_name_H-M    P1
_symmetry_Int_Tables_number       1
_symmetry_cell_setting            triclinic
loop_
_symmetry_equiv_pos_as_xyz
'x, y, z'
_cell_length_a     28.169916
_cell_length_b     28.406022
_cell_length_c     52.13246
_cell_angle_alpha  92.472983
_cell_angle_beta   91.047301
_cell_angle_gamma 119.67479
loop_
_atom_site_label
_atom_site_type_symbol
_atom_site_fract_x
_atom_site_fract_y
_atom_site_fract_z
_atom_type_partial_charge
Tb0 Tb 0.18546 0.709 0.15899 0.0
Tb1 Tb 0.2514 0.64882 0.17629 0.0
C2 C 0.22827 0.65834 0.11737 0.0
C3 C 1.06978 0.73002 0.15423 0.0
C4 C 0.96 0.66098 0.16481 0.0
C5 C 0.97515 0.67304 0.13942 0.0
C6 C 1.02959 0.70767 0.13417 0.0
C7 C 1.05362 0.72226 0.17986 0.0
C8 C 0.99876 0.68837 0.18512 0.0
C9 C 0.12729 0.75013 0.14803 0.0
O10 O 1.1191 0.62232 0.1598 0.0
O11 O 0.16507 0.5846 0.17929 0.0
O12 O 0.24744 0.69401 0.21039 0.0
O13 O 0.16681 0.68828 0.19828 0.0
O14 O 0.2593 0.59648 0.20108 0.0
O15 O 0.31666 0.63413 0.17147 0.0
O16 O 0.31861 0.73327 0.17367 0.0
O17 O 0.2702 0.77808 0.16808 0.0
O18 O 0.22055 0.69895 0.12394 0.0
O19 O 0.23264 0.62841 0.13483 0.0
C20 C 1.11873 0.58062 0.17061 0.0
O21 O 0.16319 0.76838 0.16733 0.0
O22 O 0.13466 0.71785 0.13208 0.0
C23 C 0.2033 0.69588 0.21616 0.0
C24 C 0.29175 0.5449 0.17913 0.0
C25 C 0.2891 0.45487 0.15359 0.0
C26 C 0.33054 0.48634 0.17236 0.0
C27 C 0.3319 0.53126 0.18507 0.0
C28 C 0.24813 0.51126 0.16164 0.0
C29 C 0.24671 0.46622 0.14894 0.0
C30 C 0.29934 0.59757 0.1885 0.0
C31 C 0.3175 0.77904 0.17191 0.0
H32 H 0.94536 0.65291 0.12354 0.0
H33 H 1.04092 0.71321 0.11431 0.0
H34 H 1.0836 0.73908 0.19581 0.0
H35 H 0.98735 0.68014 0.20484 0.0
H36 H 0.36374 0.47821 0.17594 0.0
H37 H 0.36589 0.55702 0.19841 0.0
H38 H 0.21701 0.52163 0.15675 0.0
H39 H 0.21487 0.44259 0.13428 0.0
Tb40 Tb 0.65063 0.07844 0.48688 0.0
Tb41 Tb 0.7782 0.14483 0.50515 0.0
C42 C 0.73863 0.12943 0.4469 0.0
C43 C 0.50302 1.03323 0.48036 0.0
C44 C 0.40825 1.03402 0.49516 0.0
C45 C 0.40809 1.00672 0.47204 0.0
C46 C 0.45517 1.0063 0.4647 0.0
C47 C 0.50404 1.0624 0.50308 0.0
C48 C 0.45666 1.06269 0.51051 0.0
C49 C 0.55063 1.02861 0.47321 0.0
O50 O 0.67029 1.01313 0.49471 0.0
O51 O 0.76427 1.06106 0.49895 0.0
O52 O 0.73383 0.10423 0.53864 0.0
O53 O 0.65221 0.09839 0.52742 0.0
O54 O 0.85982 0.16947 0.49713 0.0
O55 O 0.83945 0.19516 0.5329 0.0
O56 O 0.75409 0.20772 0.51036 0.0
O57 O 0.66839 0.16444 0.49032 0.0
O58 O 0.69503 0.08473 0.45243 0.0
O59 O 0.77123 0.16388 0.46532 0.0
C60 C 0.71773 1.01421 0.4978 0.0
O61 O 0.5878 1.06873 0.4611 0.0
O62 O 0.57197 1.01321 0.49111 0.0
C63 C 0.68564 0.0968 0.54456 0.0
C64 C 0.91082 0.26207 0.51125 0.0
C65 C 0.9491 0.37224 0.50414 0.0
C66 C 0.96007 0.35638 0.52762 0.0
C67 C 0.9408 0.30137 0.53119 0.0
C68 C 0.90308 0.27883 0.48729 0.0
C69 C 0.92217 0.33348 0.48379 0.0
C70 C 0.87786 0.20462 0.51693 0.0
C71 C 0.71049 0.20881 0.50145 0.0
H72 H 0.37087 0.98425 0.46008 0.0
H73 H 0.45384 0.98382 0.44712 0.0
H74 H 0.54097 0.08365 0.51532 0.0
H75 H 0.45721 0.08367 0.52845 0.0
H76 H 0.98116 0.38617 0.54344 0.0
H77 H 0.94641 0.28925 0.54991 0.0
H78 H 0.87946 0.24956 0.47165 0.0
H79 H 0.91385 0.34535 0.46551 0.0
Tb80 Tb 0.67672 0.52497 0.81799 0.0
Tb81 Tb 0.74147 0.65091 0.83727 0.0
C82 C 0.72301 0.61331 0.77902 0.0
C83 C 0.5755 0.37858 0.8036 0.0
C84 C 0.4775 0.28227 0.80996 0.0
C85 C 0.5119 0.28506 0.79025 0.0
C86 C 0.56054 0.33288 0.7871 0.0
C87 C 0.54062 0.37663 0.823 0.0
C88 C 0.49159 0.32845 0.82618 0.0
C89 C 0.62782 0.42749 0.8002 0.0
O90 O 0.76573 0.55059 0.81708 0.0
O91 O 0.80346 0.62675 0.84454 0.0
O92 O 0.70481 0.60943 0.87206 0.0
O93 O 0.67527 0.5203 0.85903 0.0
O94 O 0.77564 0.73044 0.82565 0.0
O95 O 0.77926 0.71555 0.86553 0.0
O96 O 0.65552 0.63242 0.8309 0.0
O97 O 0.60961 0.5393 0.83036 0.0
O98 O 0.67903 0.57065 0.78562 0.0
O99 O 0.76034 0.6447 0.79676 0.0
C100 C 0.80741 0.58743 0.83214 0.0
O101 O 0.6251 0.46653 0.78944 0.0
O102 O 0.66264 0.44541 0.81983 0.0
C103 C 0.68471 0.55806 0.87687 0.0
C104 C 0.75566 0.78195 0.85466 0.0
C105 C 0.67679 0.8146 0.85186 0.0
C106 C 0.72167 0.83699 0.83609 0.0
C107 C 0.76112 0.82108 0.83762 0.0
C108 C 0.71401 0.76432 0.87245 0.0
C109 C 0.67497 0.78099 0.87117 0.0
C110 C 0.78387 0.7509 0.8492 0.0
C111 C 0.60929 0.58585 0.83224 0.0
H112 H 0.50157 0.24964 0.77765 0.0
H113 H 0.58692 0.33394 0.77199 0.0
H114 H 0.55173 0.41195 0.83581 0.0
H115 H 0.46547 0.32674 0.84153 0.0
H116 H 0.72391 0.86353 0.82127 0.0
H117 H 0.79285 0.83528 0.82377 0.0
H118 H 0.70888 0.73432 0.8859 0.0
H119 H 0.64091 0.7641 0.88371 0.0
C120 C 0.56774 0.98736 0.20771 0.0
C121 C 0.53211 0.98753 0.18851 0.0
C122 C 0.5507 1.03673 0.17598 0.0
C123 C 0.60216 0.08415 0.18306 0.0
H124 H 0.82789 0.23808 0.17112 0.0
H125 H 0.90977 0.32144 0.1586 0.0
H126 H 0.89399 0.41118 0.22328 0.0
H127 H 0.81404 0.32862 0.23608 0.0
H128 H 0.80884 0.25651 0.29092 0.0
H129 H 0.81517 0.24955 0.33762 0.0
H130 H 0.68749 0.0823 0.32978 0.0
H131 H 0.68051 0.08855 0.28347 0.0
H132 H 0.64312 1.03116 0.23008 0.0
H133 H 0.5558 0.95082 0.21777 0.0
H134 H 0.52482 1.0389 0.16101 0.0
H135 H 0.61346 0.12128 0.17366 0.0
N136 N 0.72482 0.18011 0.20258 0.0
N137 N 0.77383 0.22076 0.24228 0.0
N138 N 0.69568 0.13492 0.241 0.0
C139 C 0.7688 0.22359 0.21632 0.0
C140 C 0.73793 0.17671 0.25474 0.0
C141 C 0.68749 0.1351 0.21524 0.0
C142 C 0.81281 0.27551 0.20466 0.0
C143 C 0.84097 0.27573 0.18239 0.0
C144 C 0.88859 0.3239 0.17527 0.0
C145 C 0.90981 0.37418 0.18989 0.0
C146 C 0.88006 0.37405 0.21143 0.0
C147 C 0.83347 0.32614 0.21873 0.0
C148 C 0.74398 0.17324 0.28317 0.0
C149 C 0.78226 0.21814 0.29906 0.0
C150 C 0.78599 0.21425 0.3258 0.0
C151 C 0.75183 0.16533 0.33724 0.0
C152 C 0.71432 0.12038 0.32144 0.0
C153 C 0.71034 0.12425 0.29485 0.0
C154 C 0.63702 0.08414 0.20298 0.0
C155 C 0.61852 1.03411 0.2147 0.0
C156 C 0.75299 0.45764 0.53765 0.0
C157 C 0.71798 0.42336 0.5172 0.0
C158 C 0.68817 0.44318 0.50339 0.0
C159 C 0.6923 0.49452 0.51036 0.0
H160 H 0.75306 0.71095 0.49637 0.0
H161 H 0.75363 0.79407 0.48306 0.0
H162 H 0.67533 0.7995 0.55227 0.0
H163 H 0.67435 0.71789 0.56542 0.0
H164 H 0.72843 0.70217 0.61713 0.0
H165 H 0.7305 0.70474 0.66324 0.0
H166 H 0.74578 0.56109 0.66139 0.0
H167 H 0.74477 0.55921 0.6153 0.0
H168 H 0.7837 0.53174 0.561 0.0
H169 H 0.77681 0.44466 0.5488 0.0
H170 H 0.66062 0.41833 0.48748 0.0
H171 H 0.66702 0.50673 0.49988 0.0
N172 N 0.71977 0.61694 0.53037 0.0
N173 N 0.72376 0.66261 0.57014 0.0
N174 N 0.72971 0.58348 0.56971 0.0
C175 C 0.71932 0.66019 0.54395 0.0
C176 C 0.72911 0.62507 0.58319 0.0
C177 C 0.72503 0.57789 0.54357 0.0
C178 C 0.71361 0.70622 0.53217 0.0
C179 C 0.73489 0.72902 0.50854 0.0
C180 C 0.73553 0.77729 0.50095 0.0
C181 C 0.7147 0.80461 0.51658 0.0
C182 C 0.69197 0.78061 0.53961 0.0
C183 C 0.69149 0.7331 0.54715 0.0
C184 C 0.73229 0.62811 0.61202 0.0
C185 C 0.72956 0.66947 0.62655 0.0
C186 C 0.72838 0.66949 0.65353 0.0
C187 C 0.72599 0.62608 0.66706 0.0
C188 C 0.7375 0.58994 0.65238 0.0
C189 C 0.73875 0.58976 0.62549 0.0
C190 C 0.7263 0.52801 0.5315 0.0
C191 C 0.75699 0.50827 0.54458 0.0
C192 C 1.02378 0.57367 0.87831 0.0
C193 C 1.01658 0.58503 0.85302 0.0
C194 C 1.06011 0.59623 0.83647 0.0
C195 C 1.10904 0.59692 0.84521 0.0
H196 H 0.30247 0.61817 0.83413 0.0
H197 H 0.38581 0.61795 0.81963 0.0
H198 H 0.39931 0.55362 0.89085 0.0
H199 H 0.31776 0.55363 0.90523 0.0
H200 H 0.30103 0.61368 0.95612 0.0
H201 H 0.30601 0.62517 0.00322 0.0
H202 H 0.14667 0.61124 0.00161 0.0
H203 H 0.14113 0.59995 0.95468 0.0
H204 H 1.0741 0.5654 0.90676 0.0
H205 H 0.99185 0.56456 0.89173 0.0
H206 H 1.0565 0.60499 0.81676 0.0
H207 H 0.14144 0.60676 0.832 0.0
N208 N 0.21044 0.58863 0.86961 0.0
N209 N 0.25704 0.59678 0.90929 0.0
N210 N 0.1743 0.59687 0.90904 0.0
C211 C 0.25496 0.59107 0.88308 0.0
C212 C 0.21748 0.59991 0.92245 0.0
C213 C 0.16915 0.59116 0.88289 0.0
C214 C 0.30202 0.58602 0.87109 0.0
C215 C 0.32253 0.60312 0.84657 0.0
C216 C 0.37083 0.60323 0.83826 0.0
C217 C 0.40026 0.58585 0.85403 0.0
C218 C 0.37867 0.56748 0.87805 0.0
C219 C 0.33122 0.56762 0.88631 0.0
C220 C 0.22072 0.606 0.9513 0.0
C221 C 0.26686 0.61287 0.96569 0.0
C222 C 0.26982 0.61939 0.9927 0.0
C223 C 0.22667 0.61899 0.00601 0.0
C224 C 0.1804 0.61157 0.99181 0.0
C225 C 0.17746 0.60526 0.96486 0.0
C226 C 1.11638 0.58653 0.87088 0.0
C227 C 1.07192 0.57433 0.88694 0.0
C228 C 0.14386 0.9156 0.48151 0.0
C229 C 0.19898 0.94617 0.47549 0.0
C230 C 0.21473 0.93821 0.45101 0.0
C231 C 0.17764 0.89678 0.43387 0.0
H232 H 1.0336 0.70954 0.47913 0.0
H233 H 1.01019 0.62952 0.50325 0.0
H234 H 0.95445 0.52849 0.43292 0.0
H235 H 0.97796 0.608 0.40846 0.0
H236 H 1.03419 0.66314 0.35582 0.0
H237 H 1.06842 0.65096 0.31464 0.0
H238 H 0.20167 0.81585 0.32317 0.0
H239 H 0.16762 0.82893 0.36408 0.0
H240 H 1.06564 0.84655 0.47049 0.0
H241 H 0.13031 0.92254 0.49988 0.0
H242 H 0.25692 0.96179 0.44577 0.0
H243 H 0.1924 0.88963 0.4159 0.0
N244 N 1.05788 0.76434 0.4388 0.0
N245 N 1.04652 0.70919 0.40182 0.0
N246 N 1.10261 0.80341 0.40151 0.0
C247 C 1.03517 0.71416 0.4267 0.0
C248 C 1.07996 0.75361 0.38904 0.0
C249 C 1.09119 0.8092 0.42627 0.0
C250 C 1.00851 0.66531 0.44176 0.0
C251 C 1.0149 0.67017 0.46879 0.0
C252 C 1.00168 0.6246 0.48267 0.0
C253 C 0.98116 0.57356 0.46974 0.0
C254 C 0.97042 0.5678 0.4431 0.0
C255 C 0.98393 0.6133 0.4292 0.0
C256 C 1.09799 0.7471 0.36325 0.0
C257 C 1.07059 0.69697 0.34889 0.0
C258 C 1.09017 0.68979 0.32544 0.0
C259 C 0.13771 0.73239 0.31607 0.0
C260 C 0.16501 0.78249 0.33021 0.0
C261 C 0.14517 0.78993 0.35349 0.0
C262 C 0.12428 0.8615 0.44112 0.0
C263 C 1.1069 0.87263 0.46463 0.0
C264 C 0.4093 0.10007 0.75894 0.0
C265 C 0.3745 0.07941 0.77946 0.0
C266 C 0.34853 1.02355 0.78304 0.0
C267 C 0.36306 0.99038 0.76847 0.0
H268 H 0.43031 0.89776 0.79427 0.0
H269 H 0.46713 0.86216 0.82634 0.0
H270 H 0.57567 0.85552 0.77097 0.0
H271 H 0.53922 0.89018 0.73877 0.0
H272 H 0.57187 0.96336 0.69337 0.0
H273 H 0.62508 0.99595 0.65515 0.0
H274 H 0.52518 1.06352 0.63133 0.0
H275 H 0.47192 1.03183 0.66976 0.0
H276 H 0.45217 0.08499 0.72936 0.0
H277 H 0.42929 0.14297 0.7556 0.0
H278 H 0.31997 1.00639 0.79814 0.0
H279 H 0.34602 0.94827 0.77288 0.0
N280 N 0.4353 0.94831 0.75344 0.0
N281 N 0.49304 0.94221 0.72335 0.0
N282 N 0.45368 0.99652 0.71606 0.0
C283 C 0.46773 0.92788 0.74595 0.0
C284 C 0.48592 0.97609 0.70818 0.0
C285 C 0.42786 0.98241 0.73857 0.0
C286 C 0.4824 0.8977 0.76399 0.0
C287 C 0.46133 0.88783 0.78874 0.0
C288 C 0.48224 0.86758 0.80712 0.0
C289 C 0.52468 0.85737 0.80103 0.0
C290 C 0.54329 0.86386 0.776 0.0
C291 C 0.52229 0.88366 0.75762 0.0
C292 C 0.5173 0.99469 0.68462 0.0
C293 C 0.56099 0.98508 0.68005 0.0
C294 C 0.59176 1.00395 0.65831 0.0
C295 C 0.57908 1.03221 0.64054 0.0
C296 C 0.53565 1.04199 0.64495 0.0
C297 C 0.50518 1.02364 0.66686 0.0
C298 C 0.40182 1.01238 0.74945 0.0
C299 C 0.42233 1.06678 0.74388 0.0
C300 C 0.76591 0.46859 0.11619 0.0
C301 C 0.75677 0.47892 0.14161 0.0
C302 C 0.70409 0.4503 0.15086 0.0
C303 C 0.66005 0.41545 0.13407 0.0
H304 H 0.50644 0.37316 0.12841 0.0
H305 H 0.42623 0.37787 0.14089 0.0
H306 H 0.34431 0.30004 0.06793 0.0
H307 H 0.42645 0.29791 0.05447 0.0
H308 H 0.53104 0.4216 0.0193 0.0
H309 H 0.55605 0.46839 0.97933 0.0
H310 H 0.69757 0.44769 0.97642 0.0
H311 H 0.67398 0.40259 0.01713 0.0
H312 H 0.73009 0.42945 0.07947 0.0
H313 H 0.8066 0.49013 0.10889 0.0
H314 H 0.69664 0.45774 0.17053 0.0
H315 H 0.61926 0.39675 0.14128 0.0
N316 N 0.5697 0.36254 0.09684 0.0
N317 N 0.53683 0.36262 0.05524 0.0
N318 N 0.6306 0.39704 0.06371 0.0
C319 C 0.527 0.35018 0.08016 0.0
C320 C 0.58852 0.38564 0.04684 0.0
C321 C 0.62157 0.38549 0.08877 0.0
C322 C 0.47327 0.33653 0.09016 0.0
C323 C 0.471 0.35556 0.11517 0.0
C324 C 0.42511 0.35835 0.12238 0.0
C325 C 0.38033 0.341 0.10497 0.0
C326 C 0.37917 0.31466 0.08137 0.0
C327 C 0.42601 0.31353 0.07373 0.0
C328 C 0.60031 0.40795 0.02119 0.0
C329 C 0.56717 0.42643 0.01004 0.0
C330 C 0.58166 0.45366 0.98735 0.0
C331 C 0.62874 0.46166 0.97502 0.0
C332 C 0.66128 0.44217 0.98577 0.0
C333 C 0.64755 0.41612 0.00886 0.0
C334 C 0.66833 0.40919 0.10782 0.0
C335 C 0.72208 0.43393 0.09941 0.0
C336 C 0.32723 0.43757 0.11385 0.0
C337 C 0.29649 0.41703 0.13595 0.0
C338 C 0.3046 0.33527 0.13137 0.0
C339 C 0.33964 0.3582 0.1108 0.0
N340 N 0.37168 0.42261 0.07764 0.0
N341 N 0.24395 0.3423 0.16208 0.0
C342 C 0.34612 0.4062 0.10025 0.0
C343 C 0.28082 0.36411 0.14337 0.0
N344 N 0.34179 0.48886 0.10705 0.0
N345 N 0.29648 0.28719 0.14 0.0
H346 H 0.22635 0.36319 0.17101 0.0
H347 H 0.22779 0.30262 0.1675 0.0
H348 H 0.31134 0.26432 0.13053 0.0
H349 H 0.2763 0.27045 0.15657 0.0
H350 H 0.37057 0.50948 0.09354 0.0
H351 H 0.3272 0.51251 0.1159 0.0
H352 H 0.37232 0.45375 0.06757 0.0
H353 H 0.38845 0.40241 0.06756 0.0
C354 C 1.01119 0.46333 0.48804 0.0
C355 C 0.96302 0.42899 0.50068 0.0
C356 C 0.93086 0.49469 0.4974 0.0
C357 C 0.97743 0.52718 0.48327 0.0
N358 N 1.06835 0.55116 0.4709 0.0
N359 N 0.88045 0.41302 0.52085 0.0
C360 C 1.01972 0.5142 0.48046 0.0
C361 C 0.92419 0.44546 0.50677 0.0
N362 N 1.0475 0.44604 0.48233 0.0
N363 N 0.89285 0.51065 0.50121 0.0
H364 H 0.87417 0.3764 0.52756 0.0
H365 H 0.85103 0.42245 0.52685 0.0
H366 H 0.89679 0.54635 0.49439 0.0
H367 H 0.85734 0.48934 0.51106 0.0
H368 H 1.07978 0.4656 0.47026 0.0
H369 H 1.04391 0.41023 0.48883 0.0
H370 H 1.10283 0.54669 0.47059 0.0
H371 H 1.07595 0.5889 0.46514 0.0
C372 C 0.58341 0.77845 0.83081 0.0
C373 C 0.62892 0.8209 0.84535 0.0
C374 C 0.5964 0.88405 0.8365 0.0
C375 C 0.5528 0.8427 0.82074 0.0
N376 N 0.49474 0.74765 0.80939 0.0
N377 N 0.67411 0.91137 0.86557 0.0
C378 C 0.54284 0.78874 0.82022 0.0
C379 C 0.63317 0.87236 0.84968 0.0
N380 N 0.58127 0.72991 0.82526 0.0
N381 N 0.60523 0.93575 0.83868 0.0
H382 H 0.70159 0.90411 0.876 0.0
H383 H 0.67912 0.95013 0.86885 0.0
H384 H 0.58062 0.94852 0.82959 0.0
H385 H 0.58062 0.94852 0.82959 0.0
H386 H 0.55258 0.69986 0.81233 0.0
H387 H 0.61045 0.72072 0.83221 0.0
H388 H 0.48249 0.70671 0.81052 0.0
H389 H 0.46463 0.75462 0.80146 0.0
C390 C 0.8963 0.56349 0.17343 0.0
C391 C 0.90437 0.61601 0.16912 0.0
C392 C 0.80845 0.57758 0.15537 0.0
C393 C 0.80183 0.5249 0.15696 0.0
N394 N 0.83181 0.46651 0.17415 0.0
N395 N 0.86639 0.67462 0.1649 0.0
C396 C 0.84327 0.51758 0.1686 0.0
C397 C 0.85946 0.62344 0.16327 0.0
N398 N 0.93981 0.55742 0.18057 0.0
N399 N 0.7673 0.5837 0.14467 0.0
H400 H 0.90383 0.70854 0.17076 0.0
H401 H 0.83449 0.68293 0.16286 0.0
H402 H 0.72877 0.55097 0.13936 0.0
H403 H 0.77188 0.62094 0.14 0.0
H404 H 0.93749 0.52022 0.18273 0.0
H405 H 0.9793 0.58991 0.18403 0.0
H406 H 0.85866 0.45785 0.18407 0.0
H407 H 0.79303 0.43269 0.1705 0.0
C408 C 0.33543 1.05935 0.49308 0.0
C409 C 0.35545 1.02714 0.50362 0.0
C410 C 0.26251 0.95699 0.51179 0.0
C411 C 0.24314 0.98197 0.49479 0.0
N412 N 0.25562 1.06292 0.47665 0.0
N413 N 0.34116 0.95184 0.5281 0.0
C414 C 0.27801 1.0362 0.48858 0.0
C415 C 0.31982 0.97877 0.51541 0.0
N416 N 0.37177 0.11018 0.48604 0.0
N417 N 0.22616 0.91157 0.52342 0.0
H418 H 0.38317 0.96846 0.53165 0.0
H419 H 0.31799 0.91318 0.53469 0.0
H420 H 0.18408 0.89563 0.52127 0.0
H421 H 0.23722 0.89254 0.53699 0.0
H422 H 0.3608 0.13622 0.47771 0.0
H423 H 0.41384 0.12701 0.4896 0.0
H424 H 0.27784 0.10205 0.47047 0.0
H425 H 0.21328 1.04521 0.47365 0.0
C426 C 0.43759 0.19196 0.82807 0.0
C427 C 0.42927 0.2288 0.81389 0.0
C428 C 0.35433 0.15384 0.7885 0.0
C429 C 0.37213 0.11913 0.79814 0.0
N430 N 0.41235 0.09809 0.83384 0.0
N431 N 0.3707 0.24643 0.78701 0.0
C432 C 0.40696 0.13572 0.82061 0.0
C433 C 0.38336 0.20987 0.79664 0.0
N434 N 0.47806 0.21167 0.847 0.0
N435 N 0.31265 0.13318 0.7702 0.0
H436 H 0.39223 0.28744 0.79324 0.0
H437 H 0.33833 0.23642 0.77393 0.0
H438 H 0.29159 0.0918 0.76461 0.0
H439 H 0.29813 0.15579 0.76117 0.0
H440 H 0.49106 0.18825 0.85642 0.0
H441 H 0.4994 0.25271 0.85312 0.0
H442 H 0.4353 0.10685 0.85101 0.0
H443 H 0.38973 1.05672 0.82879 0.0
C444 C 0.68997 0.9141 0.48416 0.0
C445 C 0.71864 0.96073 0.50167 0.0
C446 C 0.75173 0.90743 0.52589 0.0
C447 C 0.71829 0.85914 0.51013 0.0
N448 N 0.64939 0.81611 0.47588 0.0
N449 N 0.76867 0.99595 0.5425 0.0
C450 C 0.68589 0.86259 0.48966 0.0
C451 C 0.74752 0.95573 0.52332 0.0
N452 N 0.66831 0.91938 0.46154 0.0
N453 N 0.78921 0.90792 0.54306 0.0
H454 H 0.76561 1.03094 0.54207 0.0
H455 H 0.78426 0.99214 0.56008 0.0
H456 H 0.79411 0.87425 0.54535 0.0
H457 H 0.81907 0.94306 0.55309 0.0
H458 H 0.65208 0.88923 0.44669 0.0
H459 H 0.67137 0.95592 0.45657 0.0
H460 H 0.62002 0.81414 0.46278 0.0
H461 H 0.64555 0.77841 0.47907 0.0
C462 C 0.91297 0.63239 0.83178 0.0
C463 C 0.86109 0.58545 0.83519 0.0
C464 C 0.91157 0.53614 0.8449 0.0
C465 C 0.96335 0.58476 0.84474 0.0
N466 N 1.01137 0.68166 0.8414 0.0
N467 N 0.81322 0.49431 0.84939 0.0
C468 C 0.96336 0.63346 0.83896 0.0
C469 C 0.86112 0.53769 0.84275 0.0
N470 N 0.91444 0.67572 0.82064 0.0
N471 N 0.91036 0.4877 0.84649 0.0
H472 H 0.77602 0.49389 0.84883 0.0
H473 H 0.8112 0.46084 0.85783 0.0
H474 H 0.94581 0.48476 0.8477 0.0
H475 H 0.87461 0.45027 0.84399 0.0
H476 H 0.9504 0.70882 0.8151 0.0
H477 H 0.87921 0.67607 0.81445 0.0
H478 H 1.01352 0.71922 0.84051 0.0
H479 H 1.04866 0.68443 0.84652 0.0
C480 C 0.37868 0.87611 0.19335 0.0
C481 C 0.37209 0.83386 0.17515 0.0
C482 C 0.47089 0.8925 0.16567 0.0
C483 C 0.47589 0.93609 0.18232 0.0
N484 N 0.43059 0.97117 0.20911 0.0
N485 N 0.41245 0.80683 0.1413 0.0
C486 C 0.42838 0.92833 0.1951 0.0
C487 C 0.41855 0.84358 0.16067 0.0
N488 N 0.33896 0.86516 0.2105 0.0
N489 N 0.51682 0.89723 0.15492 0.0
H490 H 0.37609 0.77064 0.13723 0.0
H491 H 0.44191 0.81399 0.12791 0.0
H492 H 0.55469 0.93276 0.15697 0.0
H493 H 0.51835 0.86506 0.14541 0.0
H494 H 0.34306 0.89158 0.22595 0.0
H495 H 0.30431 0.82705 0.21107 0.0
H496 H 0.39628 0.97071 0.21651 0.0
H497 H 0.46609 1.00894 0.2115 0.0
C498 C 0.67386 0.26929 0.52131 0.0
C499 C 0.70938 0.26274 0.50406 0.0
C500 C 0.74629 0.35965 0.49338 0.0
C501 C 0.71235 0.3668 0.51131 0.0
N502 N 0.63841 0.32591 0.53982 0.0
N503 N 0.78336 0.3043 0.47543 0.0
C504 C 0.6747 0.32072 0.52455 0.0
C505 C 0.74654 0.30878 0.49059 0.0
N506 N 0.6412 0.22686 0.53574 0.0
N507 N 0.7771 0.40129 0.4782 0.0
H508 H 0.78307 0.26781 0.47174 0.0
H509 H 0.81613 0.337 0.46756 0.0
H510 H 0.77771 0.43832 0.47966 0.0
H511 H 0.79898 0.39839 0.46295 0.0
H512 H 0.61837 0.22917 0.55067 0.0
H513 H 0.63906 0.18918 0.53376 0.0
H514 H 0.60614 0.29391 0.54831 0.0
H515 H 0.6384 0.36245 0.54284 0.0
C516 C 0.5076 0.55594 0.82055 0.0
C517 C 0.5555 0.58642 0.83704 0.0
C518 C 0.50402 0.62327 0.86123 0.0
C519 C 0.45446 0.58835 0.84664 0.0
N520 N 0.40863 0.51535 0.81422 0.0
N521 N 0.59348 0.64071 0.87672 0.0
C522 C 0.45633 0.55317 0.82673 0.0
C523 C 0.55199 0.61789 0.8583 0.0
N524 N 0.51135 0.53105 0.7983 0.0
N525 N 0.50606 0.66328 0.8775 0.0
H526 H 0.62817 0.63662 0.87595 0.0
H527 H 0.59096 0.65887 0.89404 0.0
H528 H 0.47274 0.66936 0.87979 0.0
H529 H 0.54215 0.69378 0.88661 0.0
H530 H 0.48012 0.51317 0.78405 0.0
H531 H 0.54758 0.53263 0.79295 0.0
H532 H 0.40569 0.48436 0.80169 0.0
H533 H 0.37098 0.51226 0.81796 0.0
C534 C 1.02238 0.49971 0.15505 0.0
C535 C 1.06406 0.528 0.17497 0.0
C536 C 1.00813 0.45156 0.20275 0.0
C537 C 0.96386 0.42615 0.18393 0.0
N538 N 0.92693 0.43391 0.14332 0.0
N539 N 1.08653 0.53503 0.22036 0.0
C540 C 0.97074 0.45233 0.16032 0.0
C541 C 1.054 0.50485 0.19948 0.0
N542 N 1.03244 0.51676 0.13065 0.0
N543 N 1.00774 0.42396 0.22362 0.0
H544 H 1.11781 0.57502 0.21939 0.0
H545 H 1.07822 0.52287 0.2391 0.0
H546 H 0.97661 0.3846 0.22638 0.0
H547 H 1.04113 0.43769 0.23661 0.0
H548 H 1.00681 0.49477 0.11476 0.0
H549 H 1.0688 0.55044 0.12592 0.0
H550 H 0.92684 0.45461 0.12732 0.0
H551 H 0.88882 0.40077 0.14655 0.0
C552 C 0.26634 0.68949 0.07374 0.0
C553 C 0.23153 0.64646 0.08919 0.0
C554 C 0.20071 0.58373 0.05042 0.0
C555 C 0.23033 0.62804 0.03479 0.0
N556 N 0.28588 0.72454 0.03127 0.0
N557 N 0.15894 0.55353 0.09116 0.0
C558 C 0.26179 0.68129 0.0464 0.0
C559 C 0.19726 0.59363 0.07728 0.0
N560 N 0.30534 0.73793 0.08523 0.0
N561 N 0.17646 0.53192 0.03964 0.0
H562 H 0.15398 0.55882 0.11061 0.0
H563 H 0.12865 0.51633 0.0829 0.0
H564 H 0.17763 0.52324 0.02009 0.0
H565 H 0.15945 0.49765 0.05037 0.0
H566 H 0.33589 0.76868 0.07526 0.0
H567 H 0.31058 0.74552 0.10507 0.0
H568 H 0.30368 0.76475 0.03843 0.0
H569 H 0.28423 0.72035 0.01125 0.0
C570 C 0.77532 0.12431 0.4035 0.0
C571 C 0.74731 0.14354 0.41938 0.0
C572 C 0.72384 0.17867 0.38161 0.0
C573 C 0.75336 0.16106 0.36585 0.0
N574 N 0.81485 0.12543 0.36223 0.0
N575 N 0.70336 0.19743 0.42463 0.0
C576 C 0.78144 0.13636 0.37698 0.0
C577 C 0.7243 0.17343 0.40873 0.0
N578 N 0.79488 0.09335 0.41368 0.0
N579 N 0.69336 0.19836 0.37051 0.0
H580 H 0.70179 0.1934 0.44439 0.0
H581 H 0.69165 0.22484 0.41866 0.0
H582 H 0.69285 0.20395 0.35088 0.0
H583 H 0.66556 0.20562 0.38033 0.0
H584 H 0.81021 1.07278 0.40274 0.0
H585 H 0.79291 0.08558 0.43313 0.0
H586 H 0.84086 0.11256 0.36954 0.0
H587 H 0.81981 0.13335 0.34281 0.0
C588 C 0.72622 0.6638 0.73959 0.0
C589 C 0.73005 0.62112 0.75082 0.0
C590 C 0.71038 0.57355 0.70817 0.0
C591 C 0.71691 0.62034 0.69617 0.0
N592 N 0.6855 0.68448 0.70399 0.0
N593 N 0.73286 0.53791 0.74477 0.0
C594 C 0.71319 0.65981 0.71264 0.0
C595 C 0.72457 0.57701 0.73473 0.0
N596 N 0.73299 0.70736 0.75465 0.0
N597 N 0.68126 0.52364 0.69557 0.0
H598 H 0.74446 0.53951 0.76405 0.0
H599 H 0.73362 0.50728 0.73331 0.0
H600 H 0.66048 0.51817 0.67794 0.0
H601 H 0.67085 0.48758 0.70426 0.0
H602 H 0.7357 0.7419 0.74703 0.0
H603 H 0.74051 0.71075 0.77448 0.0
H604 H 0.67779 0.71058 0.71554 0.0
H605 H 0.66131 0.6705 0.68697 0.0
C606 C 0.63531 1.02563 0.57548 0.0
C607 C 0.66552 0.08144 0.57059 0.0
C608 C 0.64577 0.10538 0.61327 0.0
C609 C 0.60988 1.04944 0.61668 0.0
N610 N 0.56357 0.95653 0.59929 0.0
N611 N 0.69652 0.17493 0.58352 0.0
C612 C 0.60298 1.00953 0.59737 0.0
C613 C 0.67007 0.12156 0.58917 0.0
N614 N 0.63795 0.98797 0.5593 0.0
N615 N 0.65773 0.14278 0.63329 0.0
H616 H 0.71684 0.18829 0.56652 0.0
H617 H 0.69565 0.20547 0.59493 0.0
H618 H 0.64089 0.13228 0.65122 0.0
H619 H 0.68768 0.18343 0.63286 0.0
H620 H 0.62145 0.9473 0.56324 0.0
H621 H 0.66147 0.99848 0.54318 0.0
H622 H 0.55252 0.92677 0.58444 0.0
H623 H 0.53819 0.94302 0.61479 0.0
C624 C 0.70799 0.56126 0.92427 0.0
C625 C 0.66906 0.53986 0.90321 0.0
C626 C 0.60621 0.46548 0.92868 0.0
C627 C 0.64286 0.48917 0.95042 0.0
N628 N 0.72304 0.56665 0.97049 0.0
N629 N 0.57492 0.48181 0.88849 0.0
C630 C 0.69212 0.53932 0.94873 0.0
C631 C 0.61622 0.49509 0.9064 0.0
N632 N 0.76072 0.60036 0.92078 0.0
N633 N 0.56303 0.41377 0.92882 0.0
H634 H 0.57986 0.50503 0.87283 0.0
H635 H 0.53447 0.45229 0.89096 0.0
H636 H 0.55523 0.38961 0.94443 0.0
H637 H 0.53845 0.39294 0.91245 0.0
H638 H 0.79199 0.6129 0.93487 0.0
H639 H 0.77438 0.61705 0.90317 0.0
H640 H 0.75642 0.60583 0.97062 0.0
H641 H 0.71223 0.55235 0.98877 0.0
C642 C 0.17946 0.75018 0.24675 0.0
C643 C 0.19423 0.7094 0.2428 0.0
C644 C 0.18091 0.69034 0.28837 0.0
C645 C 0.15823 0.72507 0.29102 0.0
N646 N 0.12719 0.78106 0.27136 0.0
N647 N 0.20248 0.63541 0.25933 0.0
C648 C 0.15519 0.7532 0.26984 0.0
C649 C 0.19371 0.67826 0.26352 0.0
N650 N 0.19025 0.7873 0.22873 0.0
N651 N 0.19125 0.66978 0.30963 0.0
H652 H 0.21162 0.6248 0.24148 0.0
H653 H 0.19616 0.60756 0.27307 0.0
H654 H 0.18258 0.67792 0.32813 0.0
H655 H 0.2129 0.64883 0.30922 0.0
H656 H 0.1851 0.82098 0.23168 0.0
H657 H 0.21018 0.78784 0.21203 0.0
H658 H 1.11863 0.79718 0.2555 0.0
H659 H 1.1079 0.78363 0.28781 0.0
loop_
_geom_bond_atom_site_label_1
_geom_bond_atom_site_label_2
_geom_bond_distance
_geom_bond_site_symmetry_2
_ccdc_geom_bond_type
Tb0 C9 2.764 1_455 S
Tb0 O10 2.325 1_455 S
Tb0 O13 2.303 . S
Tb0 O17 2.322 . S
Tb0 O18 2.349 . S
Tb0 O21 2.415 1_455 S
Tb0 O22 2.399 1_455 S
Tb1 O11 2.322 1_455 S
Tb1 O12 2.349 . S
Tb1 O14 2.415 . S
Tb1 O15 2.399 . S
Tb1 O16 2.325 . S
Tb1 O19 2.303 . S
Tb1 C30 2.764 . S
C2 O18 1.261 . S
C2 O19 1.257 . S
C3 C6 1.358 . S
C3 C7 1.332 . S
C3 C9 1.504 . S
C4 C5 1.373 . S
C4 C8 1.308 . S
C5 C4 1.373 . S
C5 C6 1.429 . S
C5 H32 0.932 . S
C6 C3 1.358 . S
C6 C5 1.429 . S
C6 H33 0.930 . S
C7 C3 1.332 . S
C7 C8 1.394 . S
C7 H34 0.932 . S
C8 C4 1.308 . S
C8 C7 1.394 . S
C8 H35 0.929 . S
C9 Tb0 2.764 1_655 S
C9 C3 1.504 . S
C9 O21 1.239 . S
C9 O22 1.263 . S
O10 Tb0 2.325 1_655 S
O10 C20 1.236 . S
O11 Tb1 2.322 1_655 S
O11 C20 1.257 . S
O12 Tb1 2.349 . S
O12 C23 1.261 . S
O13 Tb0 2.303 . S
O13 C23 1.257 . S
O14 Tb1 2.415 . S
O14 C30 1.239 . S
O15 Tb1 2.399 . S
O15 C30 1.263 . S
O16 Tb1 2.325 . S
O16 C31 1.236 . S
O17 Tb0 2.322 . S
O17 C31 1.257 . S
O18 Tb0 2.349 . S
O18 C2 1.261 . S
O19 Tb1 2.303 . S
O19 C2 1.257 . S
C20 O10 1.236 . S
C20 O11 1.257 . S
O21 Tb0 2.415 1_655 S
O21 C9 1.239 . S
O22 Tb0 2.399 1_655 S
O22 C9 1.263 . S
C23 O12 1.261 . S
C23 O13 1.257 . S
C24 C27 1.358 . S
C24 C28 1.332 . S
C24 C30 1.504 . S
C25 C26 1.373 . S
C25 C29 1.308 . S
C26 C25 1.373 . S
C26 C27 1.429 . S
C26 H36 0.932 . S
C27 C24 1.358 . S
C27 C26 1.429 . S
C27 H37 0.930 . S
C28 C24 1.332 . S
C28 C29 1.394 . S
C28 H38 0.932 . S
C29 C25 1.308 . S
C29 C28 1.394 . S
C29 H39 0.929 . S
C30 Tb1 2.764 . S
C30 O14 1.239 . S
C30 O15 1.263 . S
C30 C24 1.504 . S
C31 O16 1.236 . S
C31 O17 1.257 . S
H32 C5 0.932 . S
H33 C6 0.930 . S
H34 C7 0.932 . S
H35 C8 0.929 . S
H36 C26 0.932 . S
H37 C27 0.930 . S
H38 C28 0.932 . S
H39 C29 0.929 . S
Tb40 C49 2.764 . S
Tb40 O50 2.325 . S
Tb40 O53 2.303 1_565 S
Tb40 O57 2.322 1_565 S
Tb40 O58 2.349 1_565 S
Tb40 O61 2.415 . S
Tb40 O62 2.399 . S
Tb41 O51 2.322 1_545 S
Tb41 O52 2.349 . S
Tb41 O54 2.415 . S
Tb41 O55 2.399 . S
Tb41 O56 2.325 . S
Tb41 O59 2.303 . S
Tb41 C70 2.764 . S
C42 O58 1.261 . S
C42 O59 1.257 . S
C43 C46 1.358 . S
C43 C47 1.332 . S
C43 C49 1.504 . S
C44 C45 1.373 . S
C44 C48 1.308 . S
C45 C44 1.373 . S
C45 C46 1.429 . S
C45 H72 0.932 . S
C46 C43 1.358 . S
C46 C45 1.429 . S
C46 H73 0.930 . S
C47 C43 1.332 . S
C47 C48 1.394 . S
C47 H74 0.932 . S
C48 C44 1.308 . S
C48 C47 1.394 . S
C48 H75 0.929 . S
C49 Tb40 2.764 . S
C49 C43 1.504 . S
C49 O61 1.239 . S
C49 O62 1.263 . S
O50 Tb40 2.325 . S
O50 C60 1.236 . S
O51 Tb41 2.322 1_565 S
O51 C60 1.257 . S
O52 Tb41 2.349 . S
O52 C63 1.261 . S
O53 Tb40 2.303 1_545 S
O53 C63 1.257 . S
O54 Tb41 2.415 . S
O54 C70 1.239 . S
O55 Tb41 2.399 . S
O55 C70 1.263 . S
O56 Tb41 2.325 . S
O56 C71 1.236 . S
O57 Tb40 2.322 1_545 S
O57 C71 1.257 . S
O58 Tb40 2.349 1_545 S
O58 C42 1.261 . S
O59 Tb41 2.303 . S
O59 C42 1.257 . S
C60 O50 1.236 . S
C60 O51 1.257 . S
O61 Tb40 2.415 . S
O61 C49 1.239 . S
O62 Tb40 2.399 . S
O62 C49 1.263 . S
C63 O52 1.261 . S
C63 O53 1.257 . S
C64 C67 1.358 . S
C64 C68 1.332 . S
C64 C70 1.504 . S
C65 C66 1.373 . S
C65 C69 1.308 . S
C66 C65 1.373 . S
C66 C67 1.429 . S
C66 H76 0.932 . S
C67 C64 1.358 . S
C67 C66 1.429 . S
C67 H77 0.930 . S
C68 C64 1.332 . S
C68 C69 1.394 . S
C68 H78 0.932 . S
C69 C65 1.308 . S
C69 C68 1.394 . S
C69 H79 0.929 . S
C70 Tb41 2.764 . S
C70 O54 1.239 . S
C70 O55 1.263 . S
C70 C64 1.504 . S
C71 O56 1.236 . S
C71 O57 1.257 . S
H72 C45 0.932 . S
H73 C46 0.930 . S
H74 C47 0.932 . S
H75 C48 0.929 . S
H76 C66 0.932 . S
H77 C67 0.930 . S
H78 C68 0.932 . S
H79 C69 0.929 . S
Tb80 C89 2.764 . S
Tb80 O90 2.325 . S
Tb80 O93 2.303 . S
Tb80 O97 2.322 . S
Tb80 O98 2.349 . S
Tb80 O101 2.415 . S
Tb80 O102 2.399 . S
Tb81 O91 2.322 . S
Tb81 O92 2.349 . S
Tb81 O94 2.415 . S
Tb81 O95 2.399 . S
Tb81 O96 2.325 . S
Tb81 O99 2.303 . S
Tb81 C110 2.764 . S
C82 O98 1.261 . S
C82 O99 1.257 . S
C83 C86 1.358 . S
C83 C87 1.332 . S
C83 C89 1.504 . S
C84 C85 1.373 . S
C84 C88 1.308 . S
C85 C84 1.373 . S
C85 C86 1.429 . S
C85 H112 0.932 . S
C86 C83 1.358 . S
C86 C85 1.429 . S
C86 H113 0.930 . S
C87 C83 1.332 . S
C87 C88 1.394 . S
C87 H114 0.932 . S
C88 C84 1.308 . S
C88 C87 1.394 . S
C88 H115 0.929 . S
C89 Tb80 2.764 . S
C89 C83 1.504 . S
C89 O101 1.239 . S
C89 O102 1.263 . S
O90 Tb80 2.325 . S
O90 C100 1.236 . S
O91 Tb81 2.322 . S
O91 C100 1.257 . S
O92 Tb81 2.349 . S
O92 C103 1.261 . S
O93 Tb80 2.303 . S
O93 C103 1.257 . S
O94 Tb81 2.415 . S
O94 C110 1.239 . S
O95 Tb81 2.399 . S
O95 C110 1.263 . S
O96 Tb81 2.325 . S
O96 C111 1.236 . S
O97 Tb80 2.322 . S
O97 C111 1.257 . S
O98 Tb80 2.349 . S
O98 C82 1.261 . S
O99 Tb81 2.303 . S
O99 C82 1.257 . S
C100 O90 1.236 . S
C100 O91 1.257 . S
O101 Tb80 2.415 . S
O101 C89 1.239 . S
O102 Tb80 2.399 . S
O102 C89 1.263 . S
C103 O92 1.261 . S
C103 O93 1.257 . S
C104 C107 1.358 . S
C104 C108 1.332 . S
C104 C110 1.504 . S
C105 C106 1.373 . S
C105 C109 1.308 . S
C106 C105 1.373 . S
C106 C107 1.429 . S
C106 H116 0.932 . S
C107 C104 1.358 . S
C107 C106 1.429 . S
C107 H117 0.930 . S
C108 C104 1.332 . S
C108 C109 1.394 . S
C108 H118 0.932 . S
C109 C105 1.308 . S
C109 C108 1.394 . S
C109 H119 0.929 . S
C110 Tb81 2.764 . S
C110 O94 1.239 . S
C110 O95 1.263 . S
C110 C104 1.504 . S
C111 O96 1.236 . S
C111 O97 1.257 . S
H112 C85 0.932 . S
H113 C86 0.930 . S
H114 C87 0.932 . S
H115 C88 0.929 . S
H116 C106 0.932 . S
H117 C107 0.930 . S
H118 C108 0.932 . S
H119 C109 0.929 . S
C120 C121 1.384 . S
C120 H133 0.947 . S
C120 C155 1.382 . S
C121 C120 1.384 . S
C121 C122 1.378 . S
C122 C121 1.378 . S
C122 C123 1.378 . S
C122 H134 0.952 . S
C123 C122 1.378 . S
C123 H135 0.950 . S
C123 C154 1.383 . S
H124 C143 0.947 . S
H125 C144 0.946 . S
H126 C146 0.953 . S
H127 C147 0.945 . S
H128 C149 0.952 . S
H129 C150 0.949 . S
H130 C152 0.942 1_565 S
H131 C153 0.948 . S
H132 C155 0.951 . S
H133 C120 0.947 . S
H134 C122 0.952 . S
H135 C123 0.950 . S
N136 C139 1.382 . S
N136 C141 1.363 1_545 S
N137 C139 1.371 . S
N137 C140 1.372 . S
N138 C140 1.361 1_565 S
N138 C141 1.377 . S
C139 N136 1.382 . S
C139 N137 1.371 . S
C139 C142 1.480 . S
C140 N137 1.372 . S
C140 N138 1.361 1_545 S
C140 C148 1.457 . S
C141 N136 1.363 1_565 S
C141 N138 1.377 . S
C141 C154 1.479 . S
C142 C139 1.480 . S
C142 C143 1.383 . S
C142 C147 1.385 . S
C143 H124 0.947 . S
C143 C142 1.383 . S
C143 C144 1.388 . S
C144 H125 0.946 . S
C144 C143 1.388 . S
C144 C145 1.384 . S
C145 C144 1.384 . S
C145 C146 1.377 . S
C146 H126 0.953 . S
C146 C145 1.377 . S
C146 C147 1.369 . S
C147 H127 0.945 . S
C147 C142 1.385 . S
C147 C146 1.369 . S
C148 C140 1.457 . S
C148 C149 1.372 . S
C148 C153 1.364 1_545 S
C149 H128 0.952 . S
C149 C148 1.372 . S
C149 C150 1.389 . S
C150 H129 0.949 . S
C150 C149 1.389 . S
C150 C151 1.387 . S
C151 C150 1.387 . S
C151 C152 1.381 . S
C152 H130 0.942 1_545 S
C152 C151 1.381 . S
C152 C153 1.378 1_545 S
C153 H131 0.948 . S
C153 C148 1.364 1_565 S
C153 C152 1.378 1_565 S
C154 C123 1.383 . S
C154 C141 1.479 . S
C154 C155 1.398 . S
C155 C120 1.382 . S
C155 H132 0.951 . S
C155 C154 1.398 . S
C156 C157 1.384 . S
C156 H169 0.947 . S
C156 C191 1.382 . S
C157 C156 1.384 . S
C157 C158 1.378 . S
C158 C157 1.378 . S
C158 C159 1.378 . S
C158 H170 0.952 . S
C159 C158 1.378 . S
C159 H171 0.950 . S
C159 C190 1.383 . S
H160 C179 0.947 . S
H161 C180 0.946 . S
H162 C182 0.953 . S
H163 C183 0.945 . S
H164 C185 0.952 . S
H165 C186 0.949 . S
H166 C188 0.950 . S
H167 C189 0.948 . S
H168 C191 0.951 . S
H169 C156 0.947 . S
H170 C158 0.952 . S
H171 C159 0.950 . S
N172 C175 1.382 . S
N172 C177 1.363 . S
N173 C175 1.371 . S
N173 C176 1.372 . S
N174 C176 1.361 . S
N174 C177 1.377 . S
C175 N172 1.382 . S
C175 N173 1.371 . S
C175 C178 1.480 . S
C176 N173 1.372 . S
C176 N174 1.361 . S
C176 C184 1.457 . S
C177 N172 1.363 . S
C177 N174 1.377 . S
C177 C190 1.479 . S
C178 C175 1.480 . S
C178 C179 1.383 . S
C178 C183 1.385 . S
C179 H160 0.947 . S
C179 C178 1.383 . S
C179 C180 1.388 . S
C180 H161 0.946 . S
C180 C179 1.388 . S
C180 C181 1.384 . S
C181 C180 1.384 . S
C181 C182 1.377 . S
C182 H162 0.953 . S
C182 C181 1.377 . S
C182 C183 1.369 . S
C183 H163 0.945 . S
C183 C178 1.385 . S
C183 C182 1.369 . S
C184 C176 1.457 . S
C184 C185 1.372 . S
C184 C189 1.364 . S
C185 H164 0.952 . S
C185 C184 1.372 . S
C185 C186 1.389 . S
C186 H165 0.949 . S
C186 C185 1.389 . S
C186 C187 1.387 . S
C187 C186 1.387 . S
C187 C188 1.372 . S
C188 H166 0.950 . S
C188 C187 1.372 . S
C188 C189 1.379 . S
C189 H167 0.948 . S
C189 C184 1.364 . S
C189 C188 1.379 . S
C190 C159 1.383 . S
C190 C177 1.479 . S
C190 C191 1.398 . S
C191 C156 1.382 . S
C191 H168 0.951 . S
C191 C190 1.398 . S
C192 C193 1.384 . S
C192 H205 0.947 . S
C192 C227 1.382 . S
C193 C192 1.384 . S
C193 C194 1.378 . S
C194 C193 1.378 . S
C194 C195 1.378 . S
C194 H206 0.952 . S
C195 C194 1.378 . S
C195 H207 0.950 1_655 S
C195 C226 1.383 . S
H196 C215 0.947 . S
H197 C216 0.946 . S
H198 C218 0.953 . S
H199 C219 0.945 . S
H200 C221 0.952 . S
H201 C222 0.949 . S
H202 C224 0.950 1_655 S
H203 C225 0.948 1_655 S
H204 C227 0.951 . S
H205 C192 0.947 . S
H206 C194 0.952 . S
H207 C195 0.950 1_455 S
N208 C211 1.382 . S
N208 C213 1.363 . S
N209 C211 1.371 . S
N209 C212 1.372 . S
N210 C212 1.361 . S
N210 C213 1.377 . S
C211 N208 1.382 . S
C211 N209 1.371 . S
C211 C214 1.480 . S
C212 N209 1.372 . S
C212 N210 1.361 . S
C212 C220 1.457 . S
C213 N208 1.363 . S
C213 N210 1.377 . S
C213 C226 1.479 1_455 S
C214 C211 1.480 . S
C214 C215 1.383 . S
C214 C219 1.385 . S
C215 H196 0.947 . S
C215 C214 1.383 . S
C215 C216 1.388 . S
C216 H197 0.946 . S
C216 C215 1.388 . S
C216 C217 1.384 . S
C217 C216 1.384 . S
C217 C218 1.377 . S
C218 H198 0.953 . S
C218 C217 1.377 . S
C218 C219 1.369 . S
C219 H199 0.945 . S
C219 C214 1.385 . S
C219 C218 1.369 . S
C220 C212 1.457 . S
C220 C221 1.372 . S
C220 C225 1.364 . S
C221 H200 0.952 . S
C221 C220 1.372 . S
C221 C222 1.389 . S
C222 H201 0.949 . S
C222 C221 1.389 . S
C222 C223 1.374 1_556 S
C223 C222 1.374 1_554 S
C223 C224 1.358 1_554 S
C224 H202 0.950 1_455 S
C224 C223 1.358 1_556 S
C224 C225 1.379 . S
C225 H203 0.948 1_455 S
C225 C220 1.364 . S
C225 C224 1.379 . S
C226 C195 1.383 . S
C226 C213 1.479 1_655 S
C226 C227 1.398 . S
C227 C192 1.382 . S
C227 H204 0.951 . S
C227 C226 1.398 . S
C228 C229 1.384 . S
C228 H241 0.947 . S
C228 C263 1.382 . S
C229 C228 1.384 . S
C229 C230 1.378 . S
C230 C229 1.378 . S
C230 C231 1.378 . S
C230 H242 0.952 . S
C231 C230 1.378 . S
C231 H243 0.950 . S
C231 C262 1.383 . S
H232 C251 0.947 . S
H233 C252 0.946 . S
H234 C254 0.953 . S
H235 C255 0.945 . S
H236 C257 0.952 . S
H237 C258 0.949 . S
H238 C260 0.950 . S
H239 C261 0.948 . S
H240 C263 0.951 . S
H241 C228 0.947 . S
H242 C230 0.952 . S
H243 C231 0.950 . S
N244 C247 1.382 1_455 S
N244 C249 1.363 . S
N245 C247 1.371 . S
N245 C248 1.372 1_655 S
N246 C248 1.361 . S
N246 C249 1.377 . S
C247 N244 1.382 1_655 S
C247 N245 1.371 . S
C247 C250 1.480 . S
C248 N245 1.372 1_455 S
C248 N246 1.361 . S
C248 C256 1.457 . S
C249 N244 1.363 . S
C249 N246 1.377 . S
C249 C262 1.479 . S
C250 C247 1.480 . S
C250 C251 1.383 . S
C250 C255 1.385 . S
C251 H232 0.947 . S
C251 C250 1.383 . S
C251 C252 1.388 . S
C252 H233 0.946 . S
C252 C251 1.388 . S
C252 C253 1.384 . S
C253 C252 1.384 . S
C253 C254 1.377 . S
C254 H234 0.953 . S
C254 C253 1.377 . S
C254 C255 1.369 . S
C255 H235 0.945 . S
C255 C250 1.385 . S
C255 C254 1.369 . S
C256 C248 1.457 . S
C256 C257 1.372 1_455 S
C256 C261 1.364 . S
C257 H236 0.952 . S
C257 C256 1.372 1_655 S
C257 C258 1.389 . S
C258 H237 0.949 . S
C258 C257 1.389 . S
C258 C259 1.374 1_655 S
C259 C258 1.374 1_455 S
C259 C260 1.385 . S
C260 H238 0.950 . S
C260 C259 1.385 . S
C260 C261 1.379 . S
C261 H239 0.948 . S
C261 C256 1.364 . S
C261 C260 1.379 . S
C262 C231 1.383 . S
C262 C249 1.479 . S
C262 C263 1.398 . S
C263 C228 1.382 . S
C263 H240 0.951 . S
C263 C262 1.398 . S
C264 C265 1.384 . S
C264 H277 0.947 . S
C264 C299 1.382 . S
C265 C264 1.384 . S
C265 C266 1.378 . S
C266 C265 1.378 . S
C266 C267 1.378 . S
C266 H278 0.952 . S
C267 C266 1.378 . S
C267 H279 0.950 . S
C267 C298 1.383 . S
H268 C287 0.947 . S
H269 C288 0.946 . S
H270 C290 0.953 . S
H271 C291 0.945 . S
H272 C293 0.952 . S
H273 C294 0.949 . S
H274 C296 0.950 . S
H275 C297 0.948 . S
H276 C299 0.951 . S
H277 C264 0.947 . S
H278 C266 0.952 . S
H279 C267 0.950 . S
N280 C283 1.382 1_545 S
N280 C285 1.363 . S
N281 C283 1.371 . S
N281 C284 1.372 1_565 S
N282 C284 1.361 . S
N282 C285 1.377 . S
C283 N280 1.382 1_565 S
C283 N281 1.371 . S
C283 C286 1.480 . S
C284 N281 1.372 1_545 S
C284 N282 1.361 . S
C284 C292 1.457 . S
C285 N280 1.363 . S
C285 N282 1.377 . S
C285 C298 1.479 . S
C286 C283 1.480 . S
C286 C287 1.383 . S
C286 C291 1.385 . S
C287 H268 0.947 . S
C287 C286 1.383 . S
C287 C288 1.388 . S
C288 H269 0.946 . S
C288 C287 1.388 . S
C288 C289 1.384 . S
C289 C288 1.384 . S
C289 C290 1.377 . S
C290 H270 0.953 . S
C290 C289 1.377 . S
C290 C291 1.369 . S
C291 H271 0.945 . S
C291 C286 1.385 . S
C291 C290 1.369 . S
C292 C284 1.457 . S
C292 C293 1.372 1_545 S
C292 C297 1.364 . S
C293 H272 0.952 . S
C293 C292 1.372 1_565 S
C293 C294 1.389 . S
C294 H273 0.949 . S
C294 C293 1.389 . S
C294 C295 1.387 . S
C295 C294 1.387 . S
C295 C296 1.372 1_565 S
C296 H274 0.950 . S
C296 C295 1.372 1_545 S
C296 C297 1.379 . S
C297 H275 0.948 . S
C297 C292 1.364 . S
C297 C296 1.379 . S
C298 C267 1.383 . S
C298 C285 1.479 . S
C298 C299 1.398 . S
C299 C264 1.382 . S
C299 H276 0.951 . S
C299 C298 1.398 . S
C300 C301 1.384 . S
C300 H313 0.947 . S
C300 C335 1.382 . S
C301 C300 1.384 . S
C301 C302 1.378 . S
C302 C301 1.378 . S
C302 C303 1.378 . S
C302 H314 0.952 . S
C303 C302 1.378 . S
C303 H315 0.950 . S
C303 C334 1.383 . S
H304 C323 0.947 . S
H305 C324 0.946 . S
H306 C326 0.953 . S
H307 C327 0.945 . S
H308 C329 0.952 . S
H309 C330 0.949 . S
H310 C332 0.950 . S
H311 C333 0.948 . S
H312 C335 0.951 . S
H313 C300 0.947 . S
H314 C302 0.952 . S
H315 C303 0.950 . S
N316 C319 1.382 . S
N316 C321 1.363 . S
N317 C319 1.371 . S
N317 C320 1.372 . S
N318 C320 1.361 . S
N318 C321 1.377 . S
C319 N316 1.382 . S
C319 N317 1.371 . S
C319 C322 1.480 . S
C320 N317 1.372 . S
C320 N318 1.361 . S
C320 C328 1.457 . S
C321 N316 1.363 . S
C321 N318 1.377 . S
C321 C334 1.479 . S
C322 C319 1.480 . S
C322 C323 1.383 . S
C322 C327 1.385 . S
C323 H304 0.947 . S
C323 C322 1.383 . S
C323 C324 1.388 . S
C324 H305 0.946 . S
C324 C323 1.388 . S
C324 C325 1.384 . S
C325 C324 1.384 . S
C325 C326 1.377 . S
C326 H306 0.953 . S
C326 C325 1.377 . S
C326 C327 1.369 . S
C327 H307 0.945 . S
C327 C322 1.385 . S
C327 C326 1.369 . S
C328 C320 1.457 . S
C328 C329 1.372 . S
C328 C333 1.364 . S
C329 H308 0.952 . S
C329 C328 1.372 . S
C329 C330 1.389 1_554 S
C330 H309 0.949 . S
C330 C329 1.389 1_556 S
C330 C331 1.387 . S
C331 C330 1.387 . S
C331 C332 1.372 . S
C332 H310 0.950 . S
C332 C331 1.372 . S
C332 C333 1.379 1_556 S
C333 H311 0.948 . S
C333 C328 1.364 . S
C333 C332 1.379 1_554 S
C334 C303 1.383 . S
C334 C321 1.479 . S
C334 C335 1.398 . S
C335 C300 1.382 . S
C335 H312 0.951 . S
C335 C334 1.398 . S
C336 C337 1.363 . S
C336 C342 1.379 . S
C336 N344 1.356 . S
C337 C336 1.363 . S
C337 C343 1.363 . S
C338 C339 1.363 . S
C338 C343 1.379 . S
C338 N345 1.356 . S
C339 C338 1.363 . S
C339 C342 1.363 . S
N340 C342 1.356 . S
N340 H352 0.984 . S
N340 H353 0.985 . S
N341 C343 1.356 . S
N341 H346 0.984 . S
N341 H347 0.985 . S
C342 C336 1.379 . S
C342 C339 1.363 . S
C342 N340 1.356 . S
C343 C337 1.363 . S
C343 C338 1.379 . S
C343 N341 1.356 . S
N344 C336 1.356 . S
N344 H350 0.984 . S
N344 H351 0.984 . S
N345 C338 1.356 . S
N345 H348 0.984 . S
N345 H349 0.985 . S
H346 N341 0.984 . S
H347 N341 0.985 . S
H348 N345 0.984 . S
H349 N345 0.985 . S
H350 N344 0.984 . S
H351 N344 0.984 . S
H352 N340 0.984 . S
H353 N340 0.985 . S
C354 C355 1.363 . S
C354 C360 1.379 . S
C354 N362 1.356 . S
C355 C354 1.363 . S
C355 C361 1.363 . S
C356 C357 1.363 . S
C356 C361 1.379 . S
C356 N363 1.356 . S
C357 C356 1.363 . S
C357 C360 1.363 . S
N358 C360 1.356 . S
N358 H370 0.984 . S
N358 H371 0.985 . S
N359 C361 1.356 . S
N359 H364 0.984 . S
N359 H365 0.985 . S
C360 C354 1.379 . S
C360 C357 1.363 . S
C360 N358 1.356 . S
C361 C355 1.363 . S
C361 C356 1.379 . S
C361 N359 1.356 . S
N362 C354 1.356 . S
N362 H368 0.984 . S
N362 H369 0.984 . S
N363 C356 1.356 . S
N363 H366 0.984 . S
N363 H367 0.985 . S
H364 N359 0.984 . S
H365 N359 0.985 . S
H366 N363 0.984 . S
H367 N363 0.985 . S
H368 N362 0.984 . S
H369 N362 0.984 . S
H370 N358 0.984 . S
H371 N358 0.985 . S
C372 C373 1.363 . S
C372 C378 1.379 . S
C372 N380 1.356 . S
C373 C372 1.363 . S
C373 C379 1.363 . S
C374 C375 1.363 . S
C374 C379 1.379 . S
C374 N381 1.356 . S
C375 C374 1.363 . S
C375 C378 1.363 . S
N376 C378 1.356 . S
N376 H388 0.984 . S
N376 H389 0.985 . S
N377 C379 1.356 . S
N377 H382 0.984 . S
N377 H383 0.985 . S
C378 C372 1.379 . S
C378 C375 1.363 . S
C378 N376 1.356 . S
C379 C373 1.363 . S
C379 C374 1.379 . S
C379 N377 1.356 . S
N380 C372 1.356 . S
N380 H386 0.984 . S
N380 H387 0.984 . S
N381 C374 1.356 . S
N381 H384 0.984 . S
N381 H385 0.985 . S
H382 N377 0.984 . S
H383 N377 0.985 . S
H384 N381 0.984 . S
H385 N381 0.985 . S
H386 N380 0.984 . S
H387 N380 0.984 . S
H388 N376 0.984 . S
H389 N376 0.985 . S
C390 C391 1.363 . S
C390 C396 1.379 . S
C390 N398 1.356 . S
C391 C390 1.363 . S
C391 C397 1.363 . S
C392 C393 1.363 . S
C392 C397 1.379 . S
C392 N399 1.356 . S
C393 C392 1.363 . S
C393 C396 1.363 . S
N394 C396 1.356 . S
N394 H406 0.984 . S
N394 H407 0.985 . S
N395 C397 1.356 . S
N395 H400 0.984 . S
N395 H401 0.985 . S
C396 C390 1.379 . S
C396 C393 1.363 . S
C396 N394 1.356 . S
C397 C391 1.363 . S
C397 C392 1.379 . S
C397 N395 1.356 . S
N398 C390 1.356 . S
N398 H404 0.984 . S
N398 H405 0.984 . S
N399 C392 1.356 . S
N399 H402 0.984 . S
N399 H403 0.985 . S
H400 N395 0.984 . S
H401 N395 0.985 . S
H402 N399 0.984 . S
H403 N399 0.985 . S
H404 N398 0.984 . S
H405 N398 0.984 . S
H406 N394 0.984 . S
H407 N394 0.985 . S
C408 C409 1.363 . S
C408 C414 1.379 . S
C408 N416 1.356 . S
C409 C408 1.363 . S
C409 C415 1.363 . S
C410 C411 1.363 . S
C410 C415 1.379 . S
C410 N417 1.356 . S
C411 C410 1.363 . S
C411 C414 1.363 . S
N412 C414 1.356 . S
N412 H424 0.984 . S
N412 H425 0.985 . S
N413 C415 1.356 . S
N413 H418 0.984 . S
N413 H419 0.985 . S
C414 C408 1.379 . S
C414 C411 1.363 . S
C414 N412 1.356 . S
C415 C409 1.363 . S
C415 C410 1.379 . S
C415 N413 1.356 . S
N416 C408 1.356 . S
N416 H422 0.984 . S
N416 H423 0.984 . S
N417 C410 1.356 . S
N417 H420 0.984 . S
N417 H421 0.985 . S
H418 N413 0.984 . S
H419 N413 0.985 . S
H420 N417 0.984 . S
H421 N417 0.985 . S
H422 N416 0.984 . S
H423 N416 0.984 . S
H424 N412 0.984 . S
H425 N412 0.985 . S
C426 C427 1.363 . S
C426 C432 1.379 . S
C426 N434 1.356 . S
C427 C426 1.363 . S
C427 C433 1.363 . S
C428 C429 1.363 . S
C428 C433 1.379 . S
C428 N435 1.356 . S
C429 C428 1.363 . S
C429 C432 1.363 . S
N430 C432 1.356 . S
N430 H442 0.984 . S
N430 H443 0.985 . S
N431 C433 1.356 . S
N431 H436 0.984 . S
N431 H437 0.985 . S
C432 C426 1.379 . S
C432 C429 1.363 . S
C432 N430 1.356 . S
C433 C427 1.363 . S
C433 C428 1.379 . S
C433 N431 1.356 . S
N434 C426 1.356 . S
N434 H440 0.984 . S
N434 H441 0.984 . S
N435 C428 1.356 . S
N435 H438 0.984 . S
N435 H439 0.985 . S
H436 N431 0.984 . S
H437 N431 0.985 . S
H438 N435 0.984 . S
H439 N435 0.985 . S
H440 N434 0.984 . S
H441 N434 0.984 . S
H442 N430 0.984 . S
H443 N430 0.985 . S
C444 C445 1.363 . S
C444 C450 1.379 . S
C444 N452 1.356 . S
C445 C444 1.363 . S
C445 C451 1.363 . S
C446 C447 1.363 . S
C446 C451 1.379 . S
C446 N453 1.356 . S
C447 C446 1.363 . S
C447 C450 1.363 . S
N448 C450 1.356 . S
N448 H460 0.984 . S
N448 H461 0.985 . S
N449 C451 1.356 . S
N449 H454 0.984 . S
N449 H455 0.985 . S
C450 C444 1.379 . S
C450 C447 1.363 . S
C450 N448 1.356 . S
C451 C445 1.363 . S
C451 C446 1.379 . S
C451 N449 1.356 . S
N452 C444 1.356 . S
N452 H458 0.984 . S
N452 H459 0.984 . S
N453 C446 1.356 . S
N453 H456 0.984 . S
N453 H457 0.985 . S
H454 N449 0.984 . S
H455 N449 0.985 . S
H456 N453 0.984 . S
H457 N453 0.985 . S
H458 N452 0.984 . S
H459 N452 0.984 . S
H460 N448 0.984 . S
H461 N448 0.985 . S
C462 C463 1.363 . S
C462 C468 1.379 . S
C462 N470 1.356 . S
C463 C462 1.363 . S
C463 C469 1.363 . S
C464 C465 1.363 . S
C464 C469 1.379 . S
C464 N471 1.356 . S
C465 C464 1.363 . S
C465 C468 1.363 . S
N466 C468 1.356 . S
N466 H478 0.984 . S
N466 H479 0.985 . S
N467 C469 1.356 . S
N467 H472 0.984 . S
N467 H473 0.985 . S
C468 C462 1.379 . S
C468 C465 1.363 . S
C468 N466 1.356 . S
C469 C463 1.363 . S
C469 C464 1.379 . S
C469 N467 1.356 . S
N470 C462 1.356 . S
N470 H476 0.984 . S
N470 H477 0.984 . S
N471 C464 1.356 . S
N471 H474 0.984 . S
N471 H475 0.985 . S
H472 N467 0.984 . S
H473 N467 0.985 . S
H474 N471 0.984 . S
H475 N471 0.985 . S
H476 N470 0.984 . S
H477 N470 0.984 . S
H478 N466 0.984 . S
H479 N466 0.985 . S
C480 C481 1.363 . S
C480 C486 1.379 . S
C480 N488 1.356 . S
C481 C480 1.363 . S
C481 C487 1.363 . S
C482 C483 1.363 . S
C482 C487 1.379 . S
C482 N489 1.356 . S
C483 C482 1.363 . S
C483 C486 1.363 . S
N484 C486 1.356 . S
N484 H496 0.984 . S
N484 H497 0.985 . S
N485 C487 1.356 . S
N485 H490 0.984 . S
N485 H491 0.985 . S
C486 C480 1.379 . S
C486 C483 1.363 . S
C486 N484 1.356 . S
C487 C481 1.363 . S
C487 C482 1.379 . S
C487 N485 1.356 . S
N488 C480 1.356 . S
N488 H494 0.984 . S
N488 H495 0.984 . S
N489 C482 1.356 . S
N489 H492 0.984 . S
N489 H493 0.985 . S
H490 N485 0.984 . S
H491 N485 0.985 . S
H492 N489 0.984 . S
H493 N489 0.985 . S
H494 N488 0.984 . S
H495 N488 0.984 . S
H496 N484 0.984 . S
H497 N484 0.985 . S
C498 C499 1.363 . S
C498 C504 1.379 . S
C498 N506 1.356 . S
C499 C498 1.363 . S
C499 C505 1.363 . S
C500 C501 1.363 . S
C500 C505 1.379 . S
C500 N507 1.356 . S
C501 C500 1.363 . S
C501 C504 1.363 . S
N502 C504 1.356 . S
N502 H514 0.984 . S
N502 H515 0.985 . S
N503 C505 1.356 . S
N503 H508 0.984 . S
N503 H509 0.985 . S
C504 C498 1.379 . S
C504 C501 1.363 . S
C504 N502 1.356 . S
C505 C499 1.363 . S
C505 C500 1.379 . S
C505 N503 1.356 . S
N506 C498 1.356 . S
N506 H512 0.984 . S
N506 H513 0.984 . S
N507 C500 1.356 . S
N507 H510 0.984 . S
N507 H511 0.985 . S
H508 N503 0.984 . S
H509 N503 0.985 . S
H510 N507 0.984 . S
H511 N507 0.985 . S
H512 N506 0.984 . S
H513 N506 0.984 . S
H514 N502 0.984 . S
H515 N502 0.985 . S
C516 C517 1.363 . S
C516 C522 1.379 . S
C516 N524 1.356 . S
C517 C516 1.363 . S
C517 C523 1.363 . S
C518 C519 1.363 . S
C518 C523 1.379 . S
C518 N525 1.356 . S
C519 C518 1.363 . S
C519 C522 1.363 . S
N520 C522 1.356 . S
N520 H532 0.984 . S
N520 H533 0.985 . S
N521 C523 1.356 . S
N521 H526 0.984 . S
N521 H527 0.985 . S
C522 C516 1.379 . S
C522 C519 1.363 . S
C522 N520 1.356 . S
C523 C517 1.363 . S
C523 C518 1.379 . S
C523 N521 1.356 . S
N524 C516 1.356 . S
N524 H530 0.984 . S
N524 H531 0.984 . S
N525 C518 1.356 . S
N525 H528 0.984 . S
N525 H529 0.985 . S
H526 N521 0.984 . S
H527 N521 0.985 . S
H528 N525 0.984 . S
H529 N525 0.985 . S
H530 N524 0.984 . S
H531 N524 0.984 . S
H532 N520 0.984 . S
H533 N520 0.985 . S
C534 C535 1.363 . S
C534 C540 1.379 . S
C534 N542 1.356 . S
C535 C534 1.363 . S
C535 C541 1.363 . S
C536 C537 1.363 . S
C536 C541 1.379 . S
C536 N543 1.356 . S
C537 C536 1.363 . S
C537 C540 1.363 . S
N538 C540 1.356 . S
N538 H550 0.984 . S
N538 H551 0.985 . S
N539 C541 1.356 . S
N539 H544 0.984 . S
N539 H545 0.985 . S
C540 C534 1.379 . S
C540 C537 1.363 . S
C540 N538 1.356 . S
C541 C535 1.363 . S
C541 C536 1.379 . S
C541 N539 1.356 . S
N542 C534 1.356 . S
N542 H548 0.984 . S
N542 H549 0.984 . S
N543 C536 1.356 . S
N543 H546 0.984 . S
N543 H547 0.985 . S
H544 N539 0.984 . S
H545 N539 0.985 . S
H546 N543 0.984 . S
H547 N543 0.985 . S
H548 N542 0.984 . S
H549 N542 0.984 . S
H550 N538 0.984 . S
H551 N538 0.985 . S
C552 C553 1.363 . S
C552 C558 1.379 . S
C552 N560 1.356 . S
C553 C552 1.363 . S
C553 C559 1.363 . S
C554 C555 1.363 . S
C554 C559 1.379 . S
C554 N561 1.356 . S
C555 C554 1.363 . S
C555 C558 1.363 . S
N556 C558 1.356 . S
N556 H568 0.984 . S
N556 H569 0.985 . S
N557 C559 1.356 . S
N557 H562 0.984 . S
N557 H563 0.985 . S
C558 C552 1.379 . S
C558 C555 1.363 . S
C558 N556 1.356 . S
C559 C553 1.363 . S
C559 C554 1.379 . S
C559 N557 1.356 . S
N560 C552 1.356 . S
N560 H566 0.984 . S
N560 H567 0.984 . S
N561 C554 1.356 . S
N561 H564 0.984 . S
N561 H565 0.985 . S
H562 N557 0.984 . S
H563 N557 0.985 . S
H564 N561 0.984 . S
H565 N561 0.985 . S
H566 N560 0.984 . S
H567 N560 0.984 . S
H568 N556 0.984 . S
H569 N556 0.985 . S
C570 C571 1.363 . S
C570 C576 1.379 . S
C570 N578 1.356 1_545 S
C571 C570 1.363 . S
C571 C577 1.363 . S
C572 C573 1.363 . S
C572 C577 1.379 . S
C572 N579 1.356 . S
C573 C572 1.363 . S
C573 C576 1.363 . S
N574 C576 1.356 1_565 S
N574 H586 0.984 . S
N574 H587 0.985 . S
N575 C577 1.356 . S
N575 H580 0.984 . S
N575 H581 0.985 . S
C576 C570 1.379 . S
C576 C573 1.363 . S
C576 N574 1.356 1_545 S
C577 C571 1.363 . S
C577 C572 1.379 . S
C577 N575 1.356 . S
N578 C570 1.356 1_565 S
N578 H584 0.984 . S
N578 H585 0.984 . S
N579 C572 1.356 . S
N579 H582 0.984 . S
N579 H583 0.985 . S
H580 N575 0.984 . S
H581 N575 0.985 . S
H582 N579 0.984 . S
H583 N579 0.985 . S
H584 N578 0.984 . S
H585 N578 0.984 . S
H586 N574 0.984 . S
H587 N574 0.985 . S
C588 C589 1.363 . S
C588 C594 1.379 . S
C588 N596 1.356 . S
C589 C588 1.363 . S
C589 C595 1.363 . S
C590 C591 1.363 . S
C590 C595 1.379 . S
C590 N597 1.356 . S
C591 C590 1.363 . S
C591 C594 1.363 . S
N592 C594 1.356 . S
N592 H604 0.984 . S
N592 H605 0.985 . S
N593 C595 1.356 . S
N593 H598 0.984 . S
N593 H599 0.985 . S
C594 C588 1.379 . S
C594 C591 1.363 . S
C594 N592 1.356 . S
C595 C589 1.363 . S
C595 C590 1.379 . S
C595 N593 1.356 . S
N596 C588 1.356 . S
N596 H602 0.984 . S
N596 H603 0.984 . S
N597 C590 1.356 . S
N597 H600 0.984 . S
N597 H601 0.985 . S
H598 N593 0.984 . S
H599 N593 0.985 . S
H600 N597 0.984 . S
H601 N597 0.985 . S
H602 N596 0.984 . S
H603 N596 0.984 . S
H604 N592 0.984 . S
H605 N592 0.985 . S
C606 C607 1.363 1_565 S
C606 C612 1.379 . S
C606 N614 1.356 . S
C607 C606 1.363 1_545 S
C607 C613 1.363 . S
C608 C609 1.363 1_545 S
C608 C613 1.379 . S
C608 N615 1.356 . S
C609 C608 1.363 1_565 S
C609 C612 1.363 . S
N610 C612 1.356 . S
N610 H622 0.984 . S
N610 H623 0.985 . S
N611 C613 1.356 . S
N611 H616 0.984 . S
N611 H617 0.985 . S
C612 C606 1.379 . S
C612 C609 1.363 . S
C612 N610 1.356 . S
C613 C607 1.363 . S
C613 C608 1.379 . S
C613 N611 1.356 . S
N614 C606 1.356 . S
N614 H620 0.984 . S
N614 H621 0.984 . S
N615 C608 1.356 . S
N615 H618 0.984 . S
N615 H619 0.985 . S
H616 N611 0.984 . S
H617 N611 0.985 . S
H618 N615 0.984 . S
H619 N615 0.985 . S
H620 N614 0.984 . S
H621 N614 0.984 . S
H622 N610 0.984 . S
H623 N610 0.985 . S
C624 C625 1.363 . S
C624 C630 1.379 . S
C624 N632 1.356 . S
C625 C624 1.363 . S
C625 C631 1.363 . S
C626 C627 1.363 . S
C626 C631 1.379 . S
C626 N633 1.356 . S
C627 C626 1.363 . S
C627 C630 1.363 . S
N628 C630 1.356 . S
N628 H640 0.984 . S
N628 H641 0.985 . S
N629 C631 1.356 . S
N629 H634 0.984 . S
N629 H635 0.985 . S
C630 C624 1.379 . S
C630 C627 1.363 . S
C630 N628 1.356 . S
C631 C625 1.363 . S
C631 C626 1.379 . S
C631 N629 1.356 . S
N632 C624 1.356 . S
N632 H638 0.984 . S
N632 H639 0.984 . S
N633 C626 1.356 . S
N633 H636 0.984 . S
N633 H637 0.985 . S
H634 N629 0.984 . S
H635 N629 0.985 . S
H636 N633 0.984 . S
H637 N633 0.985 . S
H638 N632 0.984 . S
H639 N632 0.984 . S
H640 N628 0.984 . S
H641 N628 0.985 . S
C642 C643 1.363 . S
C642 C648 1.379 . S
C642 N650 1.356 . S
C643 C642 1.363 . S
C643 C649 1.363 1_455 S
C644 C645 1.362 1_655 S
C644 C649 1.379 . S
C644 N651 1.356 . S
C645 C644 1.362 1_455 S
C645 C648 1.365 . S
N646 C648 1.356 . S
N646 H658 0.984 . S
N646 H659 0.985 . S
N647 C649 1.356 . S
N647 H652 0.984 . S
N647 H653 0.985 . S
C648 C642 1.379 . S
C648 C645 1.365 . S
C648 N646 1.356 . S
C649 C643 1.363 1_655 S
C649 C644 1.379 . S
C649 N647 1.356 . S
N650 C642 1.356 . S
N650 H656 0.984 . S
N650 H657 0.984 . S
N651 C644 1.356 . S
N651 H654 0.984 . S
N651 H655 0.985 . S
H652 N647 0.984 . S
H653 N647 0.985 . S
H654 N651 0.984 . S
H655 N651 0.985 . S
H656 N650 0.984 . S
H657 N650 0.984 . S
H658 N646 0.984 . S
H659 N646 0.985 . S
C337 C25 0.686 . S
C339 C325 0.665 . S
C355 C65 0.661 . S
C357 C253 0.591 . S
C373 C105 0.746 . S
C375 C289 0.744 . S
C391 C4 0.747 . S
C393 C301 0.745 . S
C411 C229 0.606 . S
C409 C44 0.631 . S
C429 C265 0.694 . S
C427 C84 0.698 . S
C445 C60 3.022 . S
C447 C181 2.929 . S
C463 C100 3.180 . S
C465 C193 3.116 . S
C481 C31 3.208 . S
C483 C121 3.126 . S
C501 C157 3.135 . S
C499 C71 3.206 . S
C519 C217 2.956 . S
C517 C111 3.048 . S
C535 C20 3.029 . S
C537 C145 2.937 . S
C555 C223 1.844 . S
C553 C2 1.754 . S
C571 C42 1.779 . S
C573 C151 1.811 . S
C589 C82 1.769 . S
C591 C187 1.816 . S
C609 C295 1.040 . S
C607 C63 1.073 . S
C627 C331 1.123 . S
C625 C103 1.129 . S
C643 C23 1.032 . S
C645 C259 1.014 . S
