# Generated by pormake.
# Topology sqc, (4,8)-cn, num edge types: 1
# Building blocks:
#     Node 0, Type 0, BuildingBlock: AZAVOO_clean_linker_0, # of connection points: 4
#     Node 1, Type 0, BuildingBlock: AZAVOO_clean_linker_0, # of connection points: 4
#     Node 2, Type 0, BuildingBlock: AZAVOO_clean_linker_0, # of connection points: 4
#     Node 3, Type 0, BuildingBlock: AZAVOO_clean_linker_0, # of connection points: 4
#     Node 4, Type 0, BuildingBlock: AZAVOO_clean_linker_0, # of connection points: 4
#     Node 5, Type 0, BuildingBlock: AZAVOO_clean_linker_0, # of connection points: 4
#     Node 6, Type 0, BuildingBlock: AZAVOO_clean_linker_0, # of connection points: 4
#     Node 7, Type 0, BuildingBlock: AZAVOO_clean_linker_0, # of connection points: 4
#     Node 8, Type 1, BuildingBlock: VETTIZ_charged_sbu_0, # of connection points: 8
#     Node 9, Type 1, BuildingBlock: VETTIZ_charged_sbu_0, # of connection points: 8
#     Node 10, Type 1, BuildingBlock: VETTIZ_charged_sbu_0, # of connection points: 8
#     Node 11, Type 1, BuildingBlock: VETTIZ_charged_sbu_0, # of connection points: 8
#     Edge 12, Type (0, 1), BuildingBlock: MIFKUJ_clean_linker_0, # of connection points: 2
#     Edge 13, Type (0, 1), BuildingBlock: MIFKUJ_clean_linker_0, # of connection points: 2
#     Edge 14, Type (0, 1), BuildingBlock: MIFKUJ_clean_linker_0, # of connection points: 2
#     Edge 15, Type (0, 1), BuildingBlock: MIFKUJ_clean_linker_0, # of connection points: 2
#     Edge 16, Type (0, 1), BuildingBlock: MIFKUJ_clean_linker_0, # of connection points: 2
#     Edge 17, Type (0, 1), BuildingBlock: MIFKUJ_clean_linker_0, # of connection points: 2
#     Edge 18, Type (0, 1), BuildingBlock: MIFKUJ_clean_linker_0, # of connection points: 2
#     Edge 19, Type (0, 1), BuildingBlock: MIFKUJ_clean_linker_0, # of connection points: 2
#     Edge 20, Type (0, 1), BuildingBlock: MIFKUJ_clean_linker_0, # of connection points: 2
#     Edge 21, Type (0, 1), BuildingBlock: MIFKUJ_clean_linker_0, # of connection points: 2
#     Edge 22, Type (0, 1), BuildingBlock: MIFKUJ_clean_linker_0, # of connection points: 2
#     Edge 23, Type (0, 1), BuildingBlock: MIFKUJ_clean_linker_0, # of connection points: 2
#     Edge 24, Type (0, 1), BuildingBlock: MIFKUJ_clean_linker_0, # of connection points: 2
#     Edge 25, Type (0, 1), BuildingBlock: MIFKUJ_clean_linker_0, # of connection points: 2
#     Edge 26, Type (0, 1), BuildingBlock: MIFKUJ_clean_linker_0, # of connection points: 2
#     Edge 27, Type (0, 1), BuildingBlock: MIFKUJ_clean_linker_0, # of connection points: 2
#     Edge 28, Type (0, 1), BuildingBlock: MIFKUJ_clean_linker_0, # of connection points: 2
#     Edge 29, Type (0, 1), BuildingBlock: MIFKUJ_clean_linker_0, # of connection points: 2
#     Edge 30, Type (0, 1), BuildingBlock: MIFKUJ_clean_linker_0, # of connection points: 2
#     Edge 31, Type (0, 1), BuildingBlock: MIFKUJ_clean_linker_0, # of connection points: 2
#     Edge 32, Type (0, 1), BuildingBlock: MIFKUJ_clean_linker_0, # of connection points: 2
#     Edge 33, Type (0, 1), BuildingBlock: MIFKUJ_clean_linker_0, # of connection points: 2
#     Edge 34, Type (0, 1), BuildingBlock: MIFKUJ_clean_linker_0, # of connection points: 2
#     Edge 35, Type (0, 1), BuildingBlock: MIFKUJ_clean_linker_0, # of connection points: 2
#     Edge 36, Type (0, 1), BuildingBlock: MIFKUJ_clean_linker_0, # of connection points: 2
#     Edge 37, Type (0, 1), BuildingBlock: MIFKUJ_clean_linker_0, # of connection points: 2
#     Edge 38, Type (0, 1), BuildingBlock: MIFKUJ_clean_linker_0, # of connection points: 2
#     Edge 39, Type (0, 1), BuildingBlock: MIFKUJ_clean_linker_0, # of connection points: 2
#     Edge 40, Type (0, 1), BuildingBlock: MIFKUJ_clean_linker_0, # of connection points: 2
#     Edge 41, Type (0, 1), BuildingBlock: MIFKUJ_clean_linker_0, # of connection points: 2
#     Edge 42, Type (0, 1), BuildingBlock: MIFKUJ_clean_linker_0, # of connection points: 2
#     Edge 43, Type (0, 1), BuildingBlock: MIFKUJ_clean_linker_0, # of connection points: 2
# Relax obj value: 0.160
# Max RMSD: 0.277
# Mean RMSD: 0.234
data_MOF--net-sqc--node1-VETTIZ_charged_sbu_0--node2-AZAVOO_clean_linker_0--edge1-MIFKUJ_clean_linker_0
_symmetry_space_group_name_H-M    P1
_symmetry_Int_Tables_number       1
_symmetry_cell_setting            triclinic
loop_
_symmetry_equiv_pos_as_xyz
'x, y, z'
_cell_length_a     32.894489
_cell_length_b     32.85895
_cell_length_c     111.12078
_cell_angle_alpha  90.628681
_cell_angle_beta   90.014475
_cell_angle_gamma 90.706243
loop_
_atom_site_label
_atom_site_type_symbol
_atom_site_fract_x
_atom_site_fract_y
_atom_site_fract_z
_atom_type_partial_charge
H0 H 0.0798 0.09478 0.62765 0.0
H1 H 0.757 0.94526 0.52389 0.0
H2 H 0.09669 0.04273 0.55607 0.0
H3 H 0.15457 0.06509 0.56842 0.0
H4 H 0.13447 0.96318 0.59199 0.0
H5 H 0.07696 0.94069 0.57949 0.0
H6 H 0.041 0.06948 0.57675 0.0
H7 H 0.06037 0.09177 0.59705 0.0
H8 H 0.01154 0.97938 0.61129 0.0
H9 H 0.99311 0.95707 0.59088 0.0
H10 H 0.94703 0.06617 0.57624 0.0
H11 H 0.89149 0.07891 0.59046 0.0
H12 H 0.85387 0.95282 0.58748 0.0
H13 H 0.91016 0.93998 0.57355 0.0
H14 H 0.91362 0.04793 0.54814 0.0
H15 H 0.84638 0.04796 0.53867 0.0
H16 H 0.84453 0.91634 0.53865 0.0
H17 H 0.91141 0.91681 0.54829 0.0
H18 H 0.97873 0.02768 0.52838 0.0
H19 H 0.93702 0.01565 0.51048 0.0
H20 H 0.93951 0.88634 0.51694 0.0
H21 H 0.98163 0.89873 0.53483 0.0
H22 H 0.06444 0.00635 0.52976 0.0
H23 H 0.1225 0.98213 0.51797 0.0
H24 H 0.13574 0.88146 0.5423 0.0
H25 H 0.07781 0.90584 0.554 0.0
O26 O 0.07097 0.08582 0.61972 0.0
O27 O 0.04264 0.02904 0.62673 0.0
O28 O 0.7833 0.01376 0.52937 0.0
O29 O 0.78274 0.94615 0.52811 0.0
C30 C 0.04026 0.98574 0.56226 0.0
C31 C 0.00753 0.99676 0.56988 0.0
C32 C 0.96719 0.99381 0.56564 0.0
C33 C 0.9597 0.98255 0.55356 0.0
C34 C 0.99245 0.97283 0.54578 0.0
C35 C 0.03273 0.9729 0.55025 0.0
C36 C 0.0824 0.99033 0.56696 0.0
C37 C 0.10596 0.02417 0.56357 0.0
C38 C 0.13883 0.03706 0.57069 0.0
C39 C 0.14841 0.01631 0.58131 0.0
C40 C 0.12729 0.98009 0.58397 0.0
C41 C 0.09478 0.96696 0.57677 0.0
C42 C 0.01583 0.0116 0.58235 0.0
C43 C 0.03439 0.04979 0.58427 0.0
C44 C 0.04543 0.06244 0.59587 0.0
C45 C 0.03764 0.03729 0.60578 0.0
C46 C 0.01804 0.99945 0.60385 0.0
C47 C 0.00729 0.98671 0.59222 0.0
C48 C 0.93268 0.00213 0.57389 0.0
C49 C 0.92695 0.04127 0.57872 0.0
C50 C 0.89537 0.04846 0.58684 0.0
C51 C 0.86861 0.01677 0.59008 0.0
C52 C 0.874 0.97777 0.58508 0.0
C53 C 0.906 0.97046 0.57712 0.0
C54 C 0.9174 0.98239 0.54883 0.0
C55 C 0.89836 0.01918 0.54622 0.0
C56 C 0.86006 0.01908 0.54077 0.0
C57 C 0.84018 0.98211 0.53783 0.0
C58 C 0.85902 0.94532 0.54074 0.0
C59 C 0.8972 0.94549 0.54626 0.0
C60 C 0.98307 0.9641 0.53293 0.0
C61 C 0.97203 0.99662 0.52559 0.0
C62 C 0.94767 0.98972 0.51547 0.0
C63 C 0.93416 0.95014 0.51248 0.0
C64 C 0.94941 0.91718 0.51901 0.0
C65 C 0.97378 0.92415 0.52919 0.0
C66 C 0.06676 0.95779 0.54271 0.0
C67 C 0.07961 0.97883 0.53245 0.0
C68 C 0.11278 0.96494 0.52574 0.0
C69 C 0.13383 0.9299 0.52922 0.0
C70 C 0.12059 0.90882 0.53947 0.0
C71 C 0.08737 0.92259 0.54612 0.0
C72 C 0.05041 0.05036 0.61806 0.0
C73 C 0.80032 0.9818 0.53156 0.0
H74 H 0.29181 0.66225 0.72121 0.0
H75 H 0.28603 0.03949 0.80591 0.0
H76 H 0.19267 0.68882 0.77883 0.0
H77 H 0.20243 0.62391 0.76829 0.0
H78 H 0.31402 0.60666 0.78797 0.0
H79 H 0.30411 0.67178 0.7984 0.0
H80 H 0.22266 0.75447 0.76147 0.0
H81 H 0.24198 0.72029 0.74267 0.0
H82 H 0.35366 0.68139 0.75929 0.0
H83 H 0.3342 0.71618 0.77796 0.0
H84 H 0.22076 0.84757 0.77025 0.0
H85 H 0.24534 0.88668 0.753 0.0
H86 H 0.36704 0.84347 0.75941 0.0
H87 H 0.3424 0.80592 0.77686 0.0
H88 H 0.18606 0.86414 0.79644 0.0
H89 H 0.18523 0.93801 0.79944 0.0
H90 H 0.31657 0.93987 0.80139 0.0
H91 H 0.3169 0.86589 0.79845 0.0
H92 H 0.16243 0.79782 0.81414 0.0
H93 H 0.14148 0.84379 0.83045 0.0
H94 H 0.26764 0.87271 0.83783 0.0
H95 H 0.28807 0.82585 0.8218 0.0
H96 H 0.16502 0.71061 0.80765 0.0
H97 H 0.15153 0.65393 0.82134 0.0
H98 H 0.27569 0.66144 0.83394 0.0
H99 H 0.28877 0.71825 0.82029 0.0
O100 O 0.28528 0.67652 0.72861 0.0
O101 O 0.34193 0.65679 0.73766 0.0
O102 O 0.21871 0.00824 0.80176 0.0
O103 O 0.28559 0.01026 0.8047 0.0
C104 C 0.24968 0.72969 0.79199 0.0
C105 C 0.26362 0.75548 0.78275 0.0
C106 C 0.26472 0.79791 0.78457 0.0
C107 C 0.25172 0.8149 0.79561 0.0
C108 C 0.239 0.78922 0.8051 0.0
C109 C 0.2382 0.74647 0.80326 0.0
C110 C 0.24762 0.68509 0.78941 0.0
C111 C 0.21826 0.67016 0.78126 0.0
C112 C 0.22424 0.63338 0.7751 0.0
C113 C 0.25941 0.61054 0.77712 0.0
C114 C 0.28656 0.62347 0.78622 0.0
C115 C 0.28075 0.66053 0.7923 0.0
C116 C 0.27697 0.73763 0.77106 0.0
C117 C 0.25149 0.73896 0.76097 0.0
C118 C 0.26252 0.71924 0.75027 0.0
C119 C 0.29926 0.69789 0.7495 0.0
C120 C 0.32511 0.69744 0.75958 0.0
C121 C 0.3141 0.7173 0.77025 0.0
C122 C 0.2799 0.82422 0.77479 0.0
C123 C 0.2528 0.84715 0.768 0.0
C124 C 0.2668 0.86894 0.75807 0.0
C125 C 0.30809 0.86792 0.75479 0.0
C126 C 0.33516 0.84524 0.76177 0.0
C127 C 0.32118 0.82372 0.77171 0.0
C128 C 0.25152 0.85978 0.79724 0.0
C129 C 0.21459 0.88059 0.79753 0.0
C130 C 0.21422 0.92276 0.79922 0.0
C131 C 0.25087 0.94484 0.80064 0.0
C132 C 0.28783 0.92379 0.80034 0.0
C133 C 0.28814 0.8816 0.79862 0.0
C134 C 0.22681 0.80818 0.8168 0.0
C135 C 0.18553 0.81294 0.81958 0.0
C136 C 0.17363 0.83984 0.82879 0.0
C137 C 0.2028 0.8626 0.8354 0.0
C138 C 0.24423 0.8556 0.83306 0.0
C139 C 0.25605 0.82867 0.82389 0.0
C140 C 0.2277 0.71861 0.81311 0.0
C141 C 0.18886 0.70075 0.81364 0.0
C142 C 0.1813 0.66841 0.82141 0.0
C143 C 0.21271 0.6532 0.82861 0.0
C144 C 0.25111 0.67238 0.8284 0.0
C145 C 0.25848 0.705 0.82073 0.0
C146 C 0.31028 0.67585 0.73826 0.0
C147 C 0.25059 0.98966 0.80241 0.0
H148 H 0.40501 0.90192 0.1136 0.0
H149 H 0.76872 0.13493 0.04597 0.0
H150 H 0.41251 1.00038 0.04969 0.0
H151 H 0.34738 0.98151 0.0589 0.0
H152 H 0.36393 0.07795 0.08532 0.0
H153 H 0.42769 0.09742 0.07573 0.0
H154 H 0.46773 0.96155 0.06771 0.0
H155 H 0.44016 0.92553 0.08512 0.0
H156 H 0.46874 0.02992 0.10775 0.0
H157 H 0.4956 0.06581 0.09021 0.0
H158 H 0.57486 0.97003 0.06268 0.0
H159 H 0.62698 0.94141 0.07578 0.0
H160 H 0.62463 0.05035 0.09792 0.0
H161 H 0.57238 0.07855 0.08477 0.0
H162 H 0.60075 0.02072 0.03942 0.0
H163 H 0.67211 0.03416 0.0344 0.0
H164 H 0.67343 0.1367 0.05914 0.0
H165 H 0.60203 0.12293 0.06404 0.0
H166 H 0.54245 0.05504 0.0233 0.0
H167 H 0.58986 0.08974 0.00973 0.0
H168 H 0.59267 0.19396 0.03366 0.0
H169 H 0.54379 0.15989 0.04694 0.0
H170 H 0.47053 0.03992 0.026 0.0
H171 H 0.41682 0.05345 0.0114 0.0
H172 H 0.36756 0.14456 0.03539 0.0
H173 H 0.42224 0.13165 0.04985 0.0
O174 O 0.41678 0.91641 0.10688 0.0
O175 O 0.43636 0.96889 0.11838 0.0
O176 O 0.73901 0.07444 0.03572 0.0
O177 O 0.74087 0.12822 0.04804 0.0
C178 C 0.46847 0.05441 0.05886 0.0
C179 C 0.49756 0.0389 0.06697 0.0
C180 C 0.53934 0.04381 0.06464 0.0
C181 C 0.55225 0.06475 0.05432 0.0
C182 C 0.52342 0.08005 0.0461 0.0
C183 C 0.48129 0.07379 0.04815 0.0
C184 C 0.42478 0.05023 0.06205 0.0
C185 C 0.40114 0.01838 0.05716 0.0
C186 C 0.36427 0.00727 0.06258 0.0
C187 C 0.35066 0.02769 0.07302 0.0
C188 C 0.37305 0.06168 0.07726 0.0
C189 C 0.40961 0.07293 0.07178 0.0
C190 C 0.4839 0.01611 0.07774 0.0
C191 C 0.46828 0.97642 0.07646 0.0
C192 C 0.45245 0.95599 0.08641 0.0
C193 C 0.45223 0.97485 0.09783 0.0
C194 C 0.46854 0.01448 0.09909 0.0
C195 C 0.48414 0.03495 0.08911 0.0
C196 C 0.56981 0.02618 0.07284 0.0
C197 C 0.5855 0.98752 0.07041 0.0
C198 C 0.61536 0.97138 0.07785 0.0
C199 C 0.62991 0.99364 0.08789 0.0
C200 C 0.61367 0.03225 0.09036 0.0
C201 C 0.58398 0.04846 0.08285 0.0
C202 C 0.59638 0.07089 0.05207 0.0
C203 C 0.61668 0.04582 0.04382 0.0
C204 C 0.65736 0.05365 0.04095 0.0
C205 C 0.67844 0.08664 0.04634 0.0
C206 C 0.65811 0.11112 0.05481 0.0
C207 C 0.61742 0.10324 0.05767 0.0
C208 C 0.53886 0.1052 0.03601 0.0
C209 C 0.55119 0.0863 0.02524 0.0
C210 C 0.57879 0.10592 0.01759 0.0
C211 C 0.59511 0.14429 0.02075 0.0
C212 C 0.58054 0.16434 0.03107 0.0
C213 C 0.55221 0.14515 0.03855 0.0
C214 C 0.4508 0.08519 0.03893 0.0
C215 C 0.44888 0.06363 0.02797 0.0
C216 C 0.41799 0.07118 0.01967 0.0
C217 C 0.3879 0.09998 0.02226 0.0
C218 C 0.39012 0.12192 0.03319 0.0
C219 C 0.42142 0.11475 0.04142 0.0
C220 C 0.43473 0.95334 0.10834 0.0
C221 C 0.72126 0.09587 0.04304 0.0
H222 H 0.12931 0.21994 0.23384 0.0
H223 H 0.3449 0.5293 0.32492 0.0
H224 H 0.1911 0.19648 0.29498 0.0
H225 H 0.18156 0.1357 0.28235 0.0
H226 H 0.3114 0.12937 0.27704 0.0
H227 H 0.32068 0.1904 0.28973 0.0
H228 H 0.17047 0.27796 0.28234 0.0
H229 H 0.14175 0.25758 0.26283 0.0
H230 H 0.26133 0.22251 0.25068 0.0
H231 H 0.28971 0.24363 0.27016 0.0
H232 H 0.18796 0.36311 0.29519 0.0
H233 H 0.16796 0.41655 0.28131 0.0
H234 H 0.27105 0.38817 0.25869 0.0
H235 H 0.29172 0.33617 0.27295 0.0
H236 H 0.21763 0.37142 0.31744 0.0
H237 H 0.23116 0.4401 0.32536 0.0
H238 H 0.3497 0.4392 0.30854 0.0
H239 H 0.3356 0.37062 0.30063 0.0
H240 H 0.23959 0.30766 0.33331 0.0
H241 H 0.26201 0.35561 0.34895 0.0
H242 H 0.3835 0.35405 0.33415 0.0
H243 H 0.36016 0.30768 0.31824 0.0
H244 H 0.22789 0.19273 0.31923 0.0
H245 H 0.24885 0.13185 0.33009 0.0
H246 H 0.37419 0.17146 0.32761 0.0
H247 H 0.35321 0.23148 0.31643 0.0
O248 O 0.14141 0.22853 0.2414 0.0
O249 O 0.20342 0.2103 0.23568 0.0
O250 O 0.27487 0.5043 0.32851 0.0
O251 O 0.33813 0.50287 0.32149 0.0
C252 C 0.26073 0.24077 0.29756 0.0
C253 C 0.24896 0.27228 0.28976 0.0
C254 C 0.2531 0.31328 0.29342 0.0
C255 C 0.26929 0.32295 0.30484 0.0
C256 C 0.2812 0.29162 0.31272 0.0
C257 C 0.2768 0.2503 0.3091 0.0
C258 C 0.25654 0.19797 0.29321 0.0
C259 C 0.21758 0.18113 0.29144 0.0
C260 C 0.21218 0.14672 0.28413 0.0
C261 C 0.24569 0.12833 0.27852 0.0
C262 C 0.28504 0.14291 0.28124 0.0
C263 C 0.29042 0.17761 0.28854 0.0
C264 C 0.23209 0.26214 0.27766 0.0
C265 C 0.19043 0.26625 0.27541 0.0
C266 C 0.1741 0.25441 0.26428 0.0
C267 C 0.19922 0.23823 0.25521 0.0
C268 C 0.24112 0.23475 0.25747 0.0
C269 C 0.25741 0.24677 0.26858 0.0
C270 C 0.24144 0.34612 0.28511 0.0
C271 C 0.20642 0.36887 0.2873 0.0
C272 C 0.1948 0.399 0.27928 0.0
C273 C 0.21786 0.40663 0.26886 0.0
C274 C 0.25293 0.38355 0.26671 0.0
C275 C 0.26468 0.35368 0.27479 0.0
C276 C 0.2756 0.36623 0.30845 0.0
C277 C 0.2462 0.38642 0.31533 0.0
C278 C 0.25411 0.42553 0.31988 0.0
C279 C 0.29162 0.44506 0.31763 0.0
C280 C 0.32057 0.42501 0.31047 0.0
C281 C 0.31253 0.38597 0.30588 0.0
C282 C 0.29821 0.30393 0.32464 0.0
C283 C 0.2715 0.31606 0.33381 0.0
C284 C 0.28438 0.3439 0.3427 0.0
C285 C 0.32438 0.3597 0.34264 0.0
C286 C 0.3522 0.3435 0.33428 0.0
C287 C 0.33917 0.31607 0.32534 0.0
C288 C 0.28899 0.21681 0.31714 0.0
C289 C 0.25984 0.18848 0.32116 0.0
C290 C 0.27181 0.15367 0.32728 0.0
C291 C 0.31311 0.14698 0.32966 0.0
C292 C 0.34211 0.17611 0.326 0.0
C293 C 0.33016 0.21056 0.3197 0.0
C294 C 0.18165 0.22484 0.2435 0.0
C295 C 0.30084 0.48588 0.32287 0.0
H296 H 0.79824 0.19813 0.22154 0.0
H297 H 0.79119 0.52559 0.32522 0.0
H298 H 0.69738 0.19987 0.281 0.0
H299 H 0.69601 0.13654 0.26926 0.0
H300 H 0.80951 0.1019 0.28567 0.0
H301 H 0.80971 0.16474 0.29765 0.0
H302 H 0.7331 0.27115 0.26566 0.0
H303 H 0.75094 0.24635 0.2455 0.0
H304 H 0.86001 0.19313 0.25991 0.0
H305 H 0.84194 0.2184 0.27998 0.0
H306 H 0.73367 0.35929 0.27875 0.0
H307 H 0.76093 0.41346 0.26598 0.0
H308 H 0.88166 0.36511 0.27015 0.0
H309 H 0.85402 0.31098 0.28286 0.0
H310 H 0.69628 0.35905 0.30405 0.0
H311 H 0.69332 0.42908 0.31166 0.0
H312 H 0.82438 0.43199 0.31481 0.0
H313 H 0.82681 0.36163 0.30735 0.0
H314 H 0.67308 0.2841 0.3185 0.0
H315 H 0.649 0.33287 0.33357 0.0
H316 H 0.7737 0.36254 0.34287 0.0
H317 H 0.79697 0.31213 0.32837 0.0
H318 H 0.68581 0.1845 0.30658 0.0
H319 H 0.67508 0.12724 0.32022 0.0
H320 H 0.77965 0.16613 0.34102 0.0
H321 H 0.79126 0.22241 0.32708 0.0
O322 O 0.79224 0.20848 0.22953 0.0
O323 O 0.84767 0.18135 0.23742 0.0
O324 O 0.7242 0.49452 0.32053 0.0
O325 O 0.7916 0.49826 0.3219 0.0
C326 C 0.75921 0.22893 0.2947 0.0
C327 C 0.77374 0.25877 0.28659 0.0
C328 C 0.77582 0.3 0.29015 0.0
C329 C 0.76284 0.31143 0.30177 0.0
C330 C 0.75056 0.28133 0.31016 0.0
C331 C 0.7492 0.23976 0.3067 0.0
C332 C 0.75364 0.18673 0.29015 0.0
C333 C 0.72113 0.17783 0.28236 0.0
C334 C 0.72065 0.14189 0.27556 0.0
C335 C 0.75291 0.11443 0.27639 0.0
C336 C 0.78393 0.12214 0.2849 0.0
C337 C 0.78419 0.15802 0.29177 0.0
C338 C 0.78622 0.24651 0.27424 0.0
C339 C 0.76104 0.25452 0.2644 0.0
C340 C 0.77122 0.24014 0.25292 0.0
C341 C 0.80679 0.21753 0.2511 0.0
C342 C 0.83232 0.21028 0.26099 0.0
C343 C 0.82214 0.22474 0.27245 0.0
C344 C 0.79188 0.33129 0.28176 0.0
C345 C 0.76597 0.36036 0.27685 0.0
C346 C 0.78164 0.39137 0.26961 0.0
C347 C 0.82353 0.39376 0.26709 0.0
C348 C 0.84923 0.36394 0.27181 0.0
C349 C 0.83353 0.33305 0.27909 0.0
C350 C 0.76173 0.35526 0.30522 0.0
C351 C 0.72432 0.37498 0.30632 0.0
C352 C 0.72272 0.41494 0.31068 0.0
C353 C 0.75862 0.43605 0.31392 0.0
C354 C 0.79617 0.41656 0.31245 0.0
C355 C 0.7977 0.37648 0.30813 0.0
C356 C 0.73676 0.2951 0.32222 0.0
C357 C 0.69502 0.29945 0.3243 0.0
C358 C 0.68139 0.32809 0.33273 0.0
C359 C 0.70939 0.35293 0.33911 0.0
C360 C 0.75109 0.34427 0.33814 0.0
C361 C 0.76459 0.31516 0.32987 0.0
C362 C 0.73964 0.20757 0.3157 0.0
C363 C 0.70657 0.18062 0.31403 0.0
C364 C 0.70047 0.1479 0.32183 0.0
C365 C 0.72676 0.142 0.33162 0.0
C366 C 0.75887 0.16994 0.33356 0.0
C367 C 0.76541 0.2022 0.32563 0.0
C368 C 0.81696 0.20134 0.23896 0.0
C369 C 0.75693 0.47803 0.31895 0.0
H370 H 0.72502 0.87562 0.72296 0.0
H371 H 0.71695 0.51611 0.81574 0.0
H372 H 0.84839 0.84236 0.77586 0.0
H373 H 0.83948 0.90576 0.76489 0.0
H374 H 0.73758 0.9354 0.78776 0.0
H375 H 0.74721 0.87222 0.79875 0.0
H376 H 0.80308 0.78088 0.76058 0.0
H377 H 0.77868 0.81508 0.74253 0.0
H378 H 0.67667 0.86154 0.76277 0.0
H379 H 0.70129 0.82693 0.78071 0.0
H380 H 0.79772 0.69003 0.76952 0.0
H381 H 0.7631 0.65479 0.75285 0.0
H382 H 0.64854 0.7045 0.76464 0.0
H383 H 0.68348 0.73909 0.78145 0.0
H384 H 0.8354 0.664 0.79374 0.0
H385 H 0.82593 0.5927 0.79939 0.0
H386 H 0.70194 0.61791 0.80973 0.0
H387 H 0.71205 0.68923 0.80418 0.0
H388 H 0.88055 0.72394 0.80765 0.0
H389 H 0.90281 0.67504 0.82273 0.0
H390 H 0.78554 0.68214 0.84004 0.0
H391 H 0.76361 0.73093 0.82491 0.0
H392 H 0.88553 0.82483 0.79982 0.0
H393 H 0.91441 0.88085 0.81193 0.0
H394 H 0.80726 0.87888 0.8345 0.0
H395 H 0.77952 0.82228 0.82258 0.0
O396 O 0.73342 0.86127 0.73008 0.0
O397 O 0.68116 0.8838 0.74084 0.0
O398 O 0.78526 0.53252 0.80776 0.0
O399 O 0.72139 0.54396 0.81328 0.0
C400 C 0.79335 0.80888 0.79114 0.0
C401 C 0.77087 0.78391 0.78309 0.0
C402 C 0.76486 0.74241 0.78556 0.0
C403 C 0.78121 0.7255 0.79606 0.0
C404 C 0.80349 0.75038 0.80427 0.0
C405 C 0.80959 0.7922 0.80177 0.0
C406 C 0.79846 0.85265 0.78811 0.0
C407 C 0.82544 0.86353 0.77887 0.0
C408 C 0.81978 0.89942 0.77247 0.0
C409 C 0.78716 0.92519 0.77524 0.0
C410 C 0.76303 0.91635 0.78537 0.0
C411 C 0.76869 0.88036 0.79176 0.0
C412 C 0.75396 0.80155 0.77192 0.0
C413 C 0.7752 0.79805 0.76103 0.0
C414 C 0.7613 0.81778 0.75077 0.0
C415 C 0.72584 0.84125 0.75123 0.0
C416 C 0.70413 0.84381 0.76211 0.0
C417 C 0.71804 0.82402 0.77236 0.0
C418 C 0.74295 0.71669 0.77668 0.0
C419 C 0.76507 0.69266 0.7686 0.0
C420 C 0.74538 0.67323 0.759 0.0
C421 C 0.70329 0.67766 0.75735 0.0
C422 C 0.681 0.70074 0.7657 0.0
C423 C 0.70078 0.72023 0.77531 0.0
C424 C 0.77445 0.68169 0.7986 0.0
C425 C 0.80619 0.65397 0.79719 0.0
C426 C 0.8007 0.61331 0.80043 0.0
C427 C 0.76319 0.59964 0.80506 0.0
C428 C 0.73121 0.62743 0.80623 0.0
C429 C 0.73681 0.66812 0.80301 0.0
C430 C 0.82059 0.73135 0.81523 0.0
C431 C 0.86024 0.71612 0.81496 0.0
C432 C 0.87264 0.68767 0.82347 0.0
C433 C 0.84574 0.67425 0.83249 0.0
C434 C 0.80707 0.69194 0.83326 0.0
C435 C 0.79457 0.72008 0.82467 0.0
C436 C 0.83065 0.8195 0.81041 0.0
C437 C 0.86901 0.83581 0.80762 0.0
C438 C 0.88517 0.86808 0.81445 0.0
C439 C 0.86298 0.88467 0.82411 0.0
C440 C 0.82546 0.86659 0.82723 0.0
C441 C 0.80949 0.83422 0.82044 0.0
C442 C 0.71195 0.86337 0.74043 0.0
C443 C 0.75744 0.55667 0.80876 0.0
H444 H 0.44342 0.36502 0.98149 0.0
H445 H 0.7959 0.49293 0.06028 0.0
H446 H 0.44694 0.5265 0.02641 0.0
H447 H 0.37659 0.51675 0.02057 0.0
H448 H 0.35234 0.45711 0.05445 0.0
H449 H 0.42436 0.46348 0.05959 0.0
H450 H 0.51251 0.49059 0.01347 0.0
H451 H 0.48722 0.4456 0.99737 0.0
H452 H 0.44862 0.35802 0.02393 0.0
H453 H 0.47454 0.40311 0.03994 0.0
H454 H 0.58881 0.51918 0.02029 0.0
H455 H 0.63876 0.49237 0.00599 0.0
H456 H 0.63463 0.37646 0.02392 0.0
H457 H 0.58371 0.40329 0.03805 0.0
H458 H 0.61615 0.57034 0.04555 0.0
H459 H 0.68959 0.57918 0.04831 0.0
H460 H 0.6981 0.45321 0.05881 0.0
H461 H 0.62458 0.44499 0.05615 0.0
H462 H 0.55237 0.60052 0.06338 0.0
H463 H 0.59344 0.63044 0.07983 0.0
H464 H 0.61751 0.50979 0.09293 0.0
H465 H 0.57698 0.4804 0.07653 0.0
H466 H 0.4494 0.57983 0.05199 0.0
H467 H 0.39943 0.60836 0.06605 0.0
H468 H 0.44229 0.52886 0.09384 0.0
H469 H 0.49064 0.49873 0.0796 0.0
O470 O 0.45293 0.38253 0.98801 0.0
O471 O 0.43786 0.33667 0.00194 0.0
O472 O 0.76079 0.55489 0.0537 0.0
O473 O 0.76685 0.49027 0.0591 0.0
C474 C 0.48553 0.49623 0.04579 0.0
C475 C 0.5122 0.47651 0.03765 0.0
C476 C 0.55459 0.48054 0.03917 0.0
C477 C 0.5705 0.50217 0.04915 0.0
C478 C 0.54405 0.51949 0.05776 0.0
C479 C 0.5015 0.51747 0.05597 0.0
C480 C 0.44106 0.49507 0.04332 0.0
C481 C 0.42641 0.51128 0.03257 0.0
C482 C 0.38571 0.50625 0.02935 0.0
C483 C 0.35815 0.48594 0.03699 0.0
C484 C 0.37254 0.47205 0.04816 0.0
C485 C 0.4137 0.47609 0.05122 0.0
C486 C 0.49576 0.4499 0.02785 0.0
C487 C 0.49883 0.46157 0.01578 0.0
C488 C 0.48418 0.43588 0.00661 0.0
C489 C 0.46616 0.39807 0.00936 0.0
C490 C 0.4626 0.38679 0.0215 0.0
C491 C 0.47728 0.41251 0.03065 0.0
C492 C 0.5827 0.46308 0.03013 0.0
C493 C 0.59824 0.48782 0.02099 0.0
C494 C 0.62655 0.47245 0.01284 0.0
C495 C 0.64032 0.43233 0.01385 0.0
C496 C 0.62443 0.40746 0.02297 0.0
C497 C 0.59543 0.42265 0.03099 0.0
C498 C 0.6152 0.507 0.05059 0.0
C499 C 0.63399 0.54472 0.04843 0.0
C500 C 0.6759 0.54966 0.05001 0.0
C501 C 0.69974 0.51686 0.05377 0.0
C502 C 0.68069 0.47906 0.0559 0.0
C503 C 0.63875 0.47421 0.05434 0.0
C504 C 0.56188 0.53834 0.06878 0.0
C505 C 0.56576 0.58075 0.07 0.0
C506 C 0.58921 0.59772 0.07936 0.0
C507 C 0.60916 0.57237 0.08754 0.0
C508 C 0.60313 0.53003 0.08664 0.0
C509 C 0.57974 0.51321 0.07735 0.0
C510 C 0.47372 0.53717 0.06475 0.0
C511 C 0.44805 0.56857 0.06111 0.0
C512 C 0.41967 0.58486 0.06911 0.0
C513 C 0.41737 0.57075 0.08097 0.0
C514 C 0.44391 0.54035 0.08474 0.0
C515 C 0.47156 0.52332 0.07665 0.0
C516 C 0.45141 0.37047 0.99958 0.0
C517 C 0.74426 0.52198 0.0555 0.0
H518 H 0.96406 0.37153 0.61722 0.0
H519 H 0.29906 0.59077 0.53494 0.0
H520 H 0.96781 0.43497 0.55329 0.0
H521 H 0.91153 0.4066 0.56502 0.0
H522 H 0.8931 0.52429 0.58167 0.0
H523 H 0.94955 0.55242 0.56988 0.0
H524 H 0.02766 0.41826 0.57017 0.0
H525 H 0.00361 0.38687 0.58877 0.0
H526 H 0.99725 0.50593 0.60559 0.0
H527 H 0.02109 0.53691 0.58688 0.0
H528 H 0.10896 0.43799 0.57053 0.0
H529 H 0.16192 0.4292 0.58586 0.0
H530 H 0.1708 0.55959 0.59055 0.0
H531 H 0.11664 0.56812 0.57565 0.0
H532 H 0.13417 0.47202 0.54045 0.0
H533 H 0.2045 0.48128 0.5337 0.0
H534 H 0.20497 0.60391 0.54825 0.0
H535 H 0.13458 0.59427 0.55487 0.0
H536 H 0.06545 0.49928 0.52189 0.0
H537 H 0.10955 0.52416 0.50565 0.0
H538 H 0.1194 0.64079 0.52365 0.0
H539 H 0.07473 0.6162 0.53968 0.0
H540 H 0.95509 0.48343 0.53454 0.0
H541 H 0.89595 0.50906 0.52358 0.0
H542 H 0.93868 0.63224 0.52952 0.0
H543 H 0.99629 0.60685 0.54113 0.0
O544 O 0.97495 0.38445 0.6101 0.0
O545 O 0.97461 0.44603 0.61861 0.0
O546 O 0.27041 0.52214 0.53088 0.0
O547 O 0.27165 0.58593 0.53777 0.0
C548 C 0.00469 0.50786 0.55731 0.0
C549 C 0.03619 0.49896 0.56553 0.0
C550 C 0.07672 0.50946 0.56285 0.0
C551 C 0.08619 0.52693 0.55167 0.0
C552 C 0.0548 0.53712 0.54354 0.0
C553 C 0.01365 0.52844 0.54646 0.0
C554 C 0.9626 0.49581 0.56067 0.0
C555 C 0.95038 0.45507 0.55904 0.0
C556 C 0.91869 0.43876 0.56589 0.0
C557 C 0.89848 0.46307 0.57442 0.0
C558 C 0.90809 0.50487 0.57515 0.0
C559 C 0.94005 0.52111 0.56834 0.0
C560 C 0.02609 0.47978 0.57722 0.0
C561 C 0.02152 0.43742 0.57794 0.0
C562 C 0.00762 0.41961 0.58855 0.0
C563 C 0.99828 0.44391 0.59865 0.0
C564 C 0.00406 0.48635 0.59797 0.0
C565 C 0.01787 0.50411 0.58733 0.0
C566 C 0.10914 0.50369 0.57195 0.0
C567 C 0.12209 0.46458 0.57495 0.0
C568 C 0.15222 0.45963 0.58367 0.0
C569 C 0.17032 0.49378 0.58931 0.0
C570 C 0.15745 0.53287 0.58624 0.0
C571 C 0.12674 0.53774 0.57773 0.0
C572 C 0.12944 0.53242 0.54816 0.0
C573 C 0.14967 0.50074 0.54223 0.0
C574 C 0.18978 0.50615 0.53838 0.0
C575 C 0.21037 0.54337 0.54044 0.0
C576 C 0.19005 0.57487 0.54653 0.0
C577 C 0.1499 0.56943 0.55035 0.0
C578 C 0.06668 0.55598 0.53195 0.0
C579 C 0.0752 0.53089 0.52198 0.0
C580 C 0.10062 0.54501 0.51276 0.0
C581 C 0.11803 0.58421 0.51351 0.0
C582 C 0.10627 0.61047 0.52289 0.0
C583 C 0.08046 0.59658 0.53198 0.0
C584 C 0.9801 0.5432 0.53871 0.0
C585 C 0.95162 0.51595 0.53356 0.0
C586 C 0.91799 0.53053 0.52729 0.0
C587 C 0.91296 0.57253 0.52578 0.0
C588 C 0.94211 0.59971 0.53055 0.0
C589 C 0.97513 0.5852 0.53709 0.0
C590 C 0.982 0.42502 0.60975 0.0
C591 C 0.25262 0.54964 0.53608 0.0
Fe592 Fe 0.02799 0.8145 0.20281 0.0
O593 O 0.02501 0.81185 0.18508 0.0
Fe594 Fe 0.97391 0.78214 0.17762 0.0
Fe595 Fe 0.06744 0.78415 0.17515 0.0
O596 O 0.02089 0.81158 0.18523 0.0
O597 O 0.01635 0.75594 0.16744 0.0
O598 O 0.02006 0.75584 0.16738 0.0
Fe599 Fe 0.01328 0.74979 0.14999 0.0
C600 C 0.10668 0.84829 0.19266 0.0
O601 O 0.07333 0.77216 0.20423 0.0
O602 O 0.07073 0.73711 0.18706 0.0
O603 O 0.96514 0.71073 0.15417 0.0
O604 O 0.92995 0.74787 0.16839 0.0
O605 O 0.97918 0.73457 0.18934 0.0
O606 O 0.98577 0.76895 0.20656 0.0
O607 O 0.1054 0.75008 0.16374 0.0
O608 O 0.06154 0.71069 0.15208 0.0
C609 C 0.97756 0.73632 0.20074 0.0
O610 O 0.9697 0.7938 0.1482 0.0
O611 O 0.96618 0.82867 0.16559 0.0
O612 O 0.07371 0.85517 0.19875 0.0
O613 O 0.11169 0.81855 0.1849 0.0
C614 C 0.0786 0.73955 0.19822 0.0
C615 C 0.09755 0.72011 0.15623 0.0
C616 C 0.07125 0.82437 0.15144 0.0
O617 O 0.0667 0.8305 0.1627 0.0
O618 O 0.05758 0.79248 0.14612 0.0
C619 C 0.93251 0.71908 0.16031 0.0
O620 O 0.9352 0.81362 0.18957 0.0
O621 O 0.97903 0.85216 0.20145 0.0
C622 C 0.95851 0.82462 0.15438 0.0
C623 C 0.94316 0.8425 0.1974 0.0
Fe624 Fe 0.52633 0.77127 0.44133 0.0
O625 O 0.54841 0.73726 0.42797 0.0
Fe626 Fe 0.50583 0.86285 0.42817 0.0
Fe627 Fe 0.54416 0.6777 0.42798 0.0
O628 O 0.50211 0.80331 0.42806 0.0
O629 O 0.50167 0.80312 0.42679 0.0
O630 O 0.54835 0.73727 0.42673 0.0
Fe631 Fe 0.52496 0.76982 0.41327 0.0
C632 C 0.5831 0.70489 0.45166 0.0
O633 O 0.47436 0.73698 0.44198 0.0
O634 O 0.49976 0.67478 0.4414 0.0
O635 O 0.4968 0.80999 0.40117 0.0
O636 O 0.4671 0.85839 0.4136 0.0
O637 O 0.46404 0.85587 0.44172 0.0
O638 O 0.49743 0.81045 0.45376 0.0
O639 O 0.49916 0.67216 0.41533 0.0
O640 O 0.47273 0.73378 0.41254 0.0
C641 C 0.46843 0.83623 0.4517 0.0
O642 O 0.57715 0.80593 0.41253 0.0
O643 O 0.55129 0.86784 0.41567 0.0
O644 O 0.55685 0.73367 0.45368 0.0
O645 O 0.58589 0.68449 0.44164 0.0
C646 C 0.47134 0.69931 0.44412 0.0
C647 C 0.471 0.69504 0.41166 0.0
C648 C 0.57888 0.69963 0.40329 0.0
O649 O 0.58359 0.68177 0.41359 0.0
O650 O 0.55367 0.72921 0.40116 0.0
C651 C 0.47339 0.84126 0.40316 0.0
O652 O 0.54955 0.86661 0.44168 0.0
O653 O 0.57824 0.80599 0.44098 0.0
C654 C 0.57902 0.84467 0.41169 0.0
C655 C 0.58003 0.84379 0.44331 0.0
Fe656 Fe 0.51843 0.26125 0.70705 0.0
O657 O 0.52084 0.25602 0.68968 0.0
Fe658 Fe 0.4678 0.26874 0.67885 0.0
Fe659 Fe 0.56843 0.26167 0.67864 0.0
O660 O 0.5156 0.27153 0.68993 0.0
O661 O 0.51453 0.26005 0.66767 0.0
O662 O 0.52159 0.27401 0.6679 0.0
Fe663 Fe 0.51838 0.27036 0.65058 0.0
C664 C 0.57162 0.33259 0.69776 0.0
O665 O 0.57011 0.22621 0.7068 0.0
O666 O 0.61057 0.24031 0.69082 0.0
O667 O 0.46288 0.24023 0.64982 0.0
O668 O 0.4238 0.25641 0.66597 0.0
O669 O 0.46235 0.20872 0.68512 0.0
O670 O 0.48149 0.21015 0.70504 0.0
O671 O 0.56589 0.2039 0.67039 0.0
O672 O 0.54947 0.2159 0.65064 0.0
C673 C 0.46503 0.19264 0.69569 0.0
O674 O 0.48727 0.32422 0.65259 0.0
O675 O 0.46958 0.32886 0.67255 0.0
O676 O 0.55539 0.31264 0.70657 0.0
O677 O 0.57427 0.31955 0.68673 0.0
C678 C 0.6038 0.22376 0.70106 0.0
C679 C 0.56364 0.19336 0.65912 0.0
C680 C 0.60805 0.29663 0.6564 0.0
O681 O 0.61256 0.27654 0.66615 0.0
O682 O 0.57378 0.30097 0.65106 0.0
C683 C 0.42864 0.24098 0.65538 0.0
O684 O 0.42584 0.28661 0.69173 0.0
O685 O 0.46688 0.2964 0.70793 0.0
C686 C 0.47234 0.34337 0.66177 0.0
C687 C 0.43313 0.30088 0.70235 0.0
Fe688 Fe 0.01939 0.27998 0.93895 0.0
O689 O 0.99398 0.24747 0.9257 0.0
Fe690 Fe 0.06173 0.36335 0.92498 0.0
Fe691 Fe 0.98483 0.18876 0.92677 0.0
O692 O 0.05347 0.30417 0.92599 0.0
O693 O 0.05393 0.30376 0.92482 0.0
O694 O 0.99391 0.24744 0.9246 0.0
Fe695 Fe 0.0268 0.27243 0.9114 0.0
C696 C 0.05745 0.2 0.94387 0.0
O697 O 0.97871 0.25176 0.9511 0.0
O698 O 0.94179 0.20698 0.93917 0.0
O699 O 0.98333 0.31699 0.90906 0.0
O700 O 0.02174 0.37326 0.91114 0.0
O701 O 0.01599 0.3777 0.93722 0.0
O702 O 0.97609 0.32287 0.93653 0.0
O703 O 0.95102 0.19656 0.91127 0.0
O704 O 0.99352 0.23559 0.89928 0.0
C705 C 0.98156 0.36037 0.93869 0.0
O706 O 0.06532 0.30374 0.89947 0.0
O707 O 0.10289 0.3481 0.91161 0.0
O708 O 0.06285 0.2372 0.9414 0.0
O709 O 0.02444 0.18097 0.94131 0.0
C710 C 0.94652 0.22954 0.94874 0.0
C711 C 0.96303 0.21038 0.90089 0.0
C712 C 0.06328 0.18886 0.91144 0.0
O713 O 0.03053 0.17228 0.91516 0.0
O714 O 0.07024 0.22714 0.9123 0.0
C715 C 0.98985 0.3549 0.90741 0.0
O716 O 0.09681 0.35373 0.94002 0.0
O717 O 0.0514 0.31668 0.95145 0.0
C718 C 0.09554 0.3291 0.90146 0.0
C719 C 0.08379 0.33951 0.95021 0.0
H720 H 0.14263 0.92511 0.50475 0.0
H721 H 0.20186 0.9023 0.49336 0.0
H722 H 0.26506 0.87855 0.52653 0.0
H723 H 0.20617 0.90225 0.53798 0.0
H724 H 0.3139 0.91749 0.51139 0.0
H725 H 0.232 0.79886 0.50934 0.0
H726 H 0.1711 0.7555 0.50624 0.0
H727 H 0.16652 0.7903 0.46914 0.0
H728 H 0.22718 0.83422 0.47204 0.0
H729 H 0.47281 0.82255 0.47612 0.0
H730 H 0.41881 0.83335 0.49107 0.0
H731 H 0.33844 0.87324 0.46302 0.0
H732 H 0.39186 0.86353 0.44821 0.0
H733 H 0.30195 0.81723 0.47784 0.0
H734 H 0.38425 0.94129 0.48182 0.0
H735 H 0.44853 0.97849 0.4858 0.0
H736 H 0.45541 0.9251 0.52084 0.0
H737 H 0.39137 0.88719 0.51699 0.0
C738 C 0.16919 0.9152 0.50962 0.0
C739 C 0.16965 0.91548 0.52227 0.0
C740 C 0.20289 0.90173 0.50311 0.0
C741 C 0.23777 0.88818 0.50909 0.0
C742 C 0.23843 0.88862 0.52172 0.0
C743 C 0.20464 0.90195 0.52825 0.0
C744 C 0.27396 0.87518 0.50208 0.0
C745 C 0.31143 0.89498 0.5042 0.0
C746 C 0.27094 0.84579 0.49271 0.0
C747 C 0.23389 0.82019 0.49095 0.0
C748 C 0.21774 0.79762 0.50055 0.0
C749 C 0.18335 0.77283 0.49882 0.0
C750 C 0.16488 0.77024 0.48751 0.0
C751 C 0.18082 0.79239 0.4779 0.0
C752 C 0.21525 0.81719 0.47958 0.0
C753 C 0.44364 0.83369 0.47318 0.0
C754 C 0.43681 0.84256 0.461 0.0
C755 C 0.41283 0.83975 0.48171 0.0
C756 C 0.37457 0.85393 0.47813 0.0
C757 C 0.36767 0.8622 0.46598 0.0
C758 C 0.39845 0.85688 0.45753 0.0
C759 C 0.34126 0.8605 0.48691 0.0
C760 C 0.30436 0.83945 0.48511 0.0
C761 C 0.34512 0.88799 0.49673 0.0
C762 C 0.38328 0.91115 0.49908 0.0
C763 C 0.39962 0.9373 0.49034 0.0
C764 C 0.43598 0.95854 0.49258 0.0
C765 C 0.4561 0.95408 0.50355 0.0
C766 C 0.43982 0.92848 0.51233 0.0
C767 C 0.40348 0.90715 0.51014 0.0
H768 H 0.48426 0.97052 0.50527 0.0
H769 H 0.13828 0.75099 0.48618 0.0
H770 H 0.27156 0.87598 0.73276 0.0
H771 H 0.29516 0.91735 0.71586 0.0
H772 H 0.40196 0.95264 0.73616 0.0
H773 H 0.37845 0.9122 0.75305 0.0
H774 H 0.3063 0.99813 0.7162 0.0
H775 H 0.48131 0.96812 0.71867 0.0
H776 H 0.52666 0.9099 0.72154 0.0
H777 H 0.43271 0.82788 0.70911 0.0
H778 H 0.38694 0.88563 0.70596 0.0
H779 H 0.44512 0.15654 0.71682 0.0
H780 H 0.41415 0.08973 0.71969 0.0
H781 H 0.41472 0.06792 0.68137 0.0
H782 H 0.44532 0.13565 0.67828 0.0
H783 H 0.44849 0.00238 0.70129 0.0
H784 H 0.33372 0.07207 0.68573 0.0
H785 H 0.28979 0.13163 0.6832 0.0
H786 H 0.26292 0.13195 0.72102 0.0
H787 H 0.30731 0.07284 0.72381 0.0
C788 C 0.30012 0.89251 0.73359 0.0
C789 C 0.32311 0.89091 0.74425 0.0
C790 C 0.3137 0.91577 0.72389 0.0
C791 C 0.35063 0.93743 0.72468 0.0
C792 C 0.37392 0.93525 0.73523 0.0
C793 C 0.36036 0.9122 0.74491 0.0
C794 C 0.36308 0.96618 0.71518 0.0
C795 C 0.33702 0.99846 0.71265 0.0
C796 C 0.40293 0.96619 0.71037 0.0
C797 C 0.43061 0.93132 0.71209 0.0
C798 C 0.47038 0.93773 0.71644 0.0
C799 C 0.49616 0.90477 0.71814 0.0
C800 C 0.48257 0.86521 0.71552 0.0
C801 C 0.44318 0.85853 0.71116 0.0
C802 C 0.41728 0.89137 0.70943 0.0
C803 C 0.43891 0.13765 0.70897 0.0
C804 C 0.44759 0.15147 0.69732 0.0
C805 C 0.42114 0.09954 0.71064 0.0
C806 C 0.41212 0.07433 0.70073 0.0
C807 C 0.42147 0.08729 0.68908 0.0
C808 C 0.43878 0.1259 0.68736 0.0
C809 C 0.39237 0.03476 0.70297 0.0
C810 C 0.41715 1.00078 0.7043 0.0
C811 C 0.35129 0.03293 0.70659 0.0
C812 C 0.32398 0.06809 0.70497 0.0
C813 C 0.31867 0.08501 0.69352 0.0
C814 C 0.29366 0.11868 0.69204 0.0
C815 C 0.27359 0.13558 0.70195 0.0
C816 C 0.27845 0.1188 0.71335 0.0
C817 C 0.3035 0.08517 0.71488 0.0
H818 H 0.25424 0.16165 0.70078 0.0
H819 H 0.50257 0.83974 0.71685 0.0
H820 H 0.39187 0.10959 0.99784 0.0
H821 H 0.33546 0.12052 0.98384 0.0
H822 H 0.25048 0.11476 0.01332 0.0
H823 H 0.30675 0.10395 0.02737 0.0
H824 H 0.22651 0.06933 0.99166 0.0
H825 H 0.28301 0.20005 0.00406 0.0
H826 H 0.34053 0.24814 0.00603 0.0
H827 H 0.35027 0.25486 0.96761 0.0
H828 H 0.29516 0.20384 0.96535 0.0
H829 H 0.05117 0.15488 0.96435 0.0
H830 H 0.10727 0.1329 0.97719 0.0
H831 H 0.19365 0.17802 0.95112 0.0
H832 H 0.13765 0.20209 0.93874 0.0
H833 H 0.21824 0.20204 0.97104 0.0
H834 H 0.17467 0.07139 0.9571 0.0
H835 H 0.12689 0.01483 0.95266 0.0
H836 H 0.09921 0.00454 0.99028 0.0
H837 H 0.14656 0.06139 0.99493 0.0
C838 C 0.36113 0.11039 0.00132 0.0
C839 C 0.35375 0.10625 0.01372 0.0
C840 C 0.32897 0.11663 0.99332 0.0
C841 C 0.28881 0.11854 0.99755 0.0
C842 C 0.28124 0.11334 0.00987 0.0
C843 C 0.31342 0.1076 0.0179 0.0
C844 C 0.25486 0.12801 0.98925 0.0
C845 C 0.22438 0.09846 0.98722 0.0
C846 C 0.25303 0.16553 0.98314 0.0
C847 C 0.28515 0.19752 0.98454 0.0
C848 C 0.2977 0.21124 0.99601 0.0
C849 C 0.32991 0.23912 0.99718 0.0
C850 C 0.3487 0.25502 0.98697 0.0
C851 C 0.33565 0.24259 0.97553 0.0
C852 C 0.30419 0.21384 0.9743 0.0
C853 C 0.08217 0.15926 0.9613 0.0
C854 C 0.09021 0.17996 0.95057 0.0
C855 C 0.11432 0.14667 0.96862 0.0
C856 C 0.15504 0.15349 0.96515 0.0
C857 C 0.16274 0.17262 0.95411 0.0
C858 C 0.13073 0.18609 0.94698 0.0
C859 C 0.18964 0.14314 0.97326 0.0
C860 C 0.22023 0.1727 0.97537 0.0
C861 C 0.1924 0.1051 0.97909 0.0
C862 C 0.16385 0.07093 0.97635 0.0
C863 C 0.15816 0.05728 0.96442 0.0
C864 C 0.1312 0.02513 0.96186 0.0
C865 C 0.10991 0.00619 0.97118 0.0
C866 C 0.11567 0.01929 0.98307 0.0
C867 C 0.14261 0.05144 0.98567 0.0
H868 H 0.08904 0.9813 0.96918 0.0
H869 H 0.37343 0.27686 0.98792 0.0
H870 H 0.28493 0.05562 0.27509 0.0
H871 H 0.27296 0.00513 0.25896 0.0
H872 H 0.18074 0.0818 0.24389 0.0
H873 H 0.19216 0.13166 0.25998 0.0
H874 H 0.15371 0.00684 0.2449 0.0
H875 H 0.27782 0.07185 0.23142 0.0
H876 H 0.34938 0.09438 0.23324 0.0
H877 H 0.38637 0.97045 0.23739 0.0
H878 H 0.31492 0.94723 0.23576 0.0
H879 H 0.1126 0.92919 0.1895 0.0
H880 H 0.1517 0.97566 0.20247 0.0
H881 H 0.21416 0.87383 0.21773 0.0
H882 H 0.1752 0.82715 0.20457 0.0
H883 H 0.2604 0.95515 0.21728 0.0
H884 H 0.13536 0.89089 0.23077 0.0
H885 H 0.06394 0.86911 0.22795 0.0
H886 H 0.02893 0.99353 0.22356 0.0
H887 H 0.10036 0.01597 0.2261 0.0
C888 C 0.26218 0.06157 0.26831 0.0
C889 C 0.23906 0.09725 0.26889 0.0
C890 C 0.25548 0.03284 0.25907 0.0
C891 C 0.22603 0.0397 0.25016 0.0
C892 C 0.20338 0.0756 0.25069 0.0
C893 C 0.20979 0.10401 0.25994 0.0
C894 C 0.21747 0.00927 0.24043 0.0
C895 C 0.17712 0.9959 0.23884 0.0
C896 C 0.24807 0.99395 0.23268 0.0
C897 C 0.291 0.00786 0.2336 0.0
C898 C 0.30119 0.04944 0.23282 0.0
C899 C 0.34172 0.06233 0.2338 0.0
C900 C 0.37239 0.03387 0.23547 0.0
C901 C 0.36258 0.99246 0.23612 0.0
C902 C 0.32207 0.97942 0.23516 0.0
C903 C 0.13641 0.91698 0.19509 0.0
C904 C 0.14119 0.87478 0.19602 0.0
C905 C 0.15856 0.94349 0.20255 0.0
C906 C 0.18529 0.92807 0.21118 0.0
C907 C 0.19378 0.88629 0.2111 0.0
C908 C 0.1717 0.85967 0.20354 0.0
C909 C 0.19672 0.95397 0.22168 0.0
C910 C 0.23731 0.96611 0.22344 0.0
C911 C 0.16642 0.96834 0.22965 0.0
C912 C 0.12325 0.95506 0.22851 0.0
C913 C 0.11247 0.91358 0.22912 0.0
C914 C 0.07199 0.90111 0.22758 0.0
C915 C 0.04192 0.92991 0.22555 0.0
C916 C 0.05227 0.97125 0.22512 0.0
C917 C 0.09274 0.98386 0.22661 0.0
H918 H 0.0106 0.9202 0.22434 0.0
H919 H 0.40375 0.04391 0.23622 0.0
H920 H 0.13612 0.02641 0.60539 0.0
H921 H 0.17993 0.06236 0.61991 0.0
H922 H 0.26763 0.08561 0.59188 0.0
H923 H 0.22392 0.04948 0.5773 0.0
H924 H 0.30302 0.06063 0.61338 0.0
H925 H 0.20325 0.15687 0.59994 0.0
H926 H 0.1336 0.18115 0.59656 0.0
H927 H 0.10991 0.1767 0.63452 0.0
H928 H 0.17917 0.15146 0.6381 0.0
H929 H 0.42237 0.22351 0.63151 0.0
H930 H 0.36986 0.18394 0.62124 0.0
H931 H 0.30296 0.17309 0.65444 0.0
H932 H 0.35594 0.21338 0.66496 0.0
H933 H 0.25342 0.18675 0.63322 0.0
H934 H 0.35443 0.09585 0.64702 0.0
H935 H 0.42444 0.07289 0.65055 0.0
H936 H 0.44547 0.06712 0.61244 0.0
H937 H 0.37575 0.09074 0.60867 0.0
C938 C 0.16509 0.03856 0.60237 0.0
C939 C 0.17678 0.03496 0.59022 0.0
C940 C 0.18989 0.05937 0.61065 0.0
C941 C 0.22688 0.07686 0.60695 0.0
C942 C 0.23918 0.07231 0.59491 0.0
C943 C 0.21419 0.05182 0.58659 0.0
C944 C 0.25237 0.10095 0.61551 0.0
C945 C 0.29223 0.08827 0.61767 0.0
C946 C 0.23779 0.13632 0.62142 0.0
C947 C 0.19624 0.15176 0.61927 0.0
C948 C 0.18306 0.16066 0.60756 0.0
C949 C 0.14367 0.17464 0.60561 0.0
C950 C 0.11731 0.18035 0.61532 0.0
C951 C 0.13035 0.17221 0.62701 0.0
C952 C 0.16965 0.158 0.629 0.0
C953 C 0.39641 0.21317 0.63668 0.0
C954 C 0.39368 0.22124 0.64912 0.0
C955 C 0.36636 0.1905 0.63077 0.0
C956 C 0.33294 0.175 0.63712 0.0
C957 C 0.3287 0.18469 0.6494 0.0
C958 C 0.35895 0.20768 0.65538 0.0
C959 C 0.30424 0.14682 0.63086 0.0
C960 C 0.2639 0.15869 0.6291 0.0
C961 C 0.31821 0.11049 0.62538 0.0
C962 C 0.3599 0.09531 0.62757 0.0
C963 C 0.37404 0.0899 0.63939 0.0
C964 C 0.41368 0.07676 0.64143 0.0
C965 C 0.43942 0.06862 0.63172 0.0
C966 C 0.4255 0.07345 0.61995 0.0
C967 C 0.38589 0.08667 0.61785 0.0
H968 H 0.47012 0.05851 0.63332 0.0
H969 H 0.08681 0.19116 0.61379 0.0
H970 H 0.13976 0.91611 0.83315 0.0
H971 H 0.12188 0.97251 0.84653 0.0
H972 H 0.22041 0.94233 0.87022 0.0
H973 H 0.23763 0.8846 0.85714 0.0
H974 H 0.15364 0.96282 0.88295 0.0
H975 H 0.22842 0.02143 0.84998 0.0
H976 H 0.24411 0.03636 0.82876 0.0
H977 H 0.12671 0.09001 0.82446 0.0
H978 H 0.11002 0.07478 0.84559 0.0
H979 H 0.13282 0.14709 0.91664 0.0
H980 H 0.16401 0.09393 0.90398 0.0
H981 H 0.07691 0.11762 0.87592 0.0
H982 H 0.04715 0.17126 0.88833 0.0
H983 H 0.14477 0.10119 0.86583 0.0
H984 H 0.06564 0.03796 0.89702 0.0
H985 H 0.04577 0.024 0.91799 0.0
H986 H 0.16509 0.97875 0.92528 0.0
H987 H 0.1858 0.99289 0.90436 0.0
C988 C 0.15728 0.92083 0.84131 0.0
C989 C 0.19029 0.89557 0.84401 0.0
C990 C 0.14729 0.95357 0.84888 0.0
C991 C 0.17022 0.96232 0.85928 0.0
C992 C 0.2024 0.93651 0.86221 0.0
C993 C 0.2124 0.90362 0.85466 0.0
C994 C 0.16082 0.99863 0.86696 0.0
C995 C 0.15237 0.99318 0.87924 0.0
C996 C 0.15814 0.03825 0.86212 0.0
C997 C 0.1679 0.04675 0.84935 0.0
C998 C 0.20581 0.03606 0.84448 0.0
C999 C 0.21489 0.04462 0.83247 0.0
C1000 C 0.18641 0.06413 0.82528 0.0
C1001 C 0.14872 0.0749 0.83005 0.0
C1002 C 0.13945 0.06634 0.84204 0.0
C1003 C 0.12145 0.14169 0.9076 0.0
C1004 C 0.08821 0.16365 0.90333 0.0
C1005 C 0.13878 0.11094 0.90044 0.0
C1006 C 0.12243 0.10107 0.88902 0.0
C1007 C 0.09029 0.12446 0.88463 0.0
C1008 C 0.07336 0.15529 0.89171 0.0
C1009 C 0.137 0.06539 0.88179 0.0
C1010 C 0.1464 0.07092 0.86958 0.0
C1011 C 0.13983 0.02577 0.88665 0.0
C1012 C 0.12739 0.01688 0.89918 0.0
C1013 C 0.0877 0.02526 0.90312 0.0
C1014 C 0.07628 0.01729 0.91499 0.0
C1015 C 0.10418 1.00059 0.92297 0.0
C1016 C 0.14354 0.99174 0.91909 0.0
C1017 C 0.15512 0.99969 0.90723 0.0
H1018 H 0.09526 0.9944 0.93215 0.0
H1019 H 0.19359 0.07109 0.81602 0.0
H1020 H 0.29231 0.07014 0.08559 0.0
H1021 H 0.24059 0.04249 0.09919 0.0
H1022 H 0.2785 0.92068 0.09035 0.0
H1023 H 0.33105 0.94782 0.07711 0.0
H1024 H 0.1941 0.92938 0.0906 0.0
H1025 H 0.31074 0.96338 0.11539 0.0
H1026 H 0.36327 0.00985 0.12372 0.0
H1027 H 0.27071 0.08583 0.13887 0.0
H1028 H 0.21754 0.04017 0.13043 0.0
H1029 H 0.12598 0.80021 0.13496 0.0
H1030 H 0.16918 0.84211 0.1222 0.0
H1031 H 0.12194 0.9506 0.13902 0.0
H1032 H 0.0793 0.90813 0.15232 0.0
H1033 H 0.20313 0.95805 0.13449 0.0
H1034 H 0.08627 0.91841 0.11162 0.0
H1035 H 0.03454 0.87095 0.10333 0.0
H1036 H 0.12725 0.80573 0.08429 0.0
H1037 H 0.17968 0.8521 0.09271 0.0
C1038 C 0.28969 0.03745 0.08653 0.0
C1039 C 0.31597 0.01127 0.08021 0.0
C1040 C 0.26003 0.02174 0.09429 0.0
C1041 C 0.25591 0.97956 0.09583 0.0
C1042 C 0.28106 0.95333 0.08925 0.0
C1043 C 0.31093 0.96897 0.08159 0.0
C1044 C 0.22623 0.96241 0.10453 0.0
C1045 C 0.19612 0.9355 0.1002 0.0
C1046 C 0.2282 0.9714 0.11701 0.0
C1047 C 0.26015 0.99866 0.12215 0.0
C1048 C 0.30157 0.9902 0.1204 0.0
C1049 C 0.33147 0.01635 0.12516 0.0
C1050 C 0.32035 0.05082 0.13179 0.0
C1051 C 0.27928 0.05916 0.1337 0.0
C1052 C 0.24925 0.03317 0.12894 0.0
C1053 C 0.12468 0.83302 0.13595 0.0
C1054 C 0.09864 0.85103 0.14443 0.0
C1055 C 0.14935 0.85692 0.12863 0.0
C1056 C 0.14781 0.8995 0.12935 0.0
C1057 C 0.12319 0.91777 0.1382 0.0
C1058 C 0.09887 0.89361 0.14576 0.0
C1059 C 0.17151 0.92415 0.12059 0.0
C1060 C 0.20052 0.95246 0.12488 0.0
C1061 C 0.16853 0.9165 0.10803 0.0
C1062 C 0.13696 0.8887 0.10284 0.0
C1063 C 0.09568 0.89378 0.10573 0.0
C1064 C 0.06622 0.86703 0.10102 0.0
C1065 C 0.07761 0.8353 0.09331 0.0
C1066 C 0.11847 0.8303 0.09027 0.0
C1067 C 0.14808 0.8568 0.09502 0.0
H1068 H 0.05477 0.81461 0.08967 0.0
H1069 H 0.34355 0.07102 0.13547 0.0
H1070 H 0.36477 0.14055 0.34865 0.0
H1071 H 0.3897 0.07843 0.35782 0.0
H1072 H 0.31705 0.00592 0.33314 0.0
H1073 H 0.29098 0.0684 0.32415 0.0
H1074 H 0.31607 0.97319 0.35537 0.0
H1075 H 0.42021 0.01505 0.32802 0.0
H1076 H 0.46394 0.06697 0.31847 0.0
H1077 H 0.51983 0.09446 0.35257 0.0
H1078 H 0.47659 0.04256 0.36231 0.0
H1079 H 0.43932 0.81155 0.38193 0.0
H1080 H 0.41076 0.85267 0.36549 0.0
H1081 H 0.44481 0.96252 0.38478 0.0
H1082 H 0.47217 0.92239 0.40103 0.0
H1083 H 0.4657 0.96266 0.3599 0.0
H1084 H 0.3522 0.9307 0.38719 0.0
H1085 H 0.30509 0.88272 0.39713 0.0
H1086 H 0.26581 0.83676 0.36266 0.0
H1087 H 0.31315 0.88418 0.35253 0.0
C1088 C 0.35406 0.11137 0.34521 0.0
C1089 C 0.32627 0.10924 0.33564 0.0
C1090 C 0.36839 0.07587 0.35041 0.0
C1091 C 0.35605 0.03744 0.34596 0.0
C1092 C 0.3272 0.03519 0.33666 0.0
C1093 C 0.31234 0.07085 0.33155 0.0
C1094 C 0.37424 1.00006 0.35097 0.0
C1095 C 0.34879 0.97028 0.35608 0.0
C1096 C 0.41693 0.99596 0.35183 0.0
C1097 C 0.44512 0.025 0.34588 0.0
C1098 C 0.442 0.03204 0.33346 0.0
C1099 C 0.46663 0.0615 0.32802 0.0
C1100 C 0.49447 0.08415 0.33492 0.0
C1101 C 0.49815 0.07696 0.34725 0.0
C1102 C 0.47383 0.0473 0.35271 0.0
C1103 C 0.44069 0.84445 0.38256 0.0
C1104 C 0.45734 0.86382 0.3928 0.0
C1105 C 0.42445 0.86782 0.37322 0.0
C1106 C 0.42576 0.91062 0.37396 0.0
C1107 C 0.44358 0.92961 0.38402 0.0
C1108 C 0.45889 0.90656 0.39334 0.0
C1109 C 0.40751 0.93682 0.3647 0.0
C1110 C 0.43301 0.96464 0.35877 0.0
C1111 C 0.36496 0.93885 0.36303 0.0
C1112 C 0.33657 0.9105 0.36912 0.0
C1113 C 0.3338 0.91008 0.38174 0.0
C1114 C 0.307 0.88306 0.38741 0.0
C1115 C 0.28259 0.85659 0.38053 0.0
C1116 C 0.28483 0.85719 0.36797 0.0
C1117 C 0.31162 0.88412 0.36227 0.0
H1118 H 0.26185 0.83571 0.38493 0.0
H1119 H 0.51335 0.10713 0.33071 0.0
H1120 H 0.7887 0.99629 0.58716 0.0
H1121 H 0.73204 0.01279 0.60062 0.0
H1122 H 0.81564 0.07094 0.62549 0.0
H1123 H 0.87244 0.05487 0.61199 0.0
H1124 H 0.75147 0.0194 0.63642 0.0
H1125 H 0.77142 0.13158 0.60919 0.0
H1126 H 0.7799 0.16303 0.58928 0.0
H1127 H 0.66381 0.11457 0.57817 0.0
H1128 H 0.65485 0.08251 0.598 0.0
H1129 H 0.63318 0.16346 0.66845 0.0
H1130 H 0.67974 0.11775 0.65822 0.0
H1131 H 0.58976 0.09412 0.63063 0.0
H1132 H 0.54379 0.14178 0.64057 0.0
H1133 H 0.65447 0.12046 0.62081 0.0
H1134 H 0.63043 0.01727 0.65013 0.0
H1135 H 0.62321 0.98962 0.67057 0.0
H1136 H 0.74717 0.02261 0.67844 0.0
H1137 H 0.75502 0.05092 0.65809 0.0
C1138 C 0.79499 0.01212 0.59558 0.0
C1139 C 0.8348 0.02455 0.59854 0.0
C1140 C 0.7627 0.02149 0.60323 0.0
C1141 C 0.76981 0.04298 0.61402 0.0
C1142 C 0.80969 0.05412 0.61722 0.0
C1143 C 0.84194 0.04529 0.60948 0.0
C1144 C 0.73527 0.05685 0.62144 0.0
C1145 C 0.73017 0.04157 0.63309 0.0
C1146 C 0.70734 0.08518 0.61695 0.0
C1147 C 0.71271 0.10423 0.60501 0.0
C1148 C 0.74789 0.1273 0.60246 0.0
C1149 C 0.75274 0.14533 0.5912 0.0
C1150 C 0.72248 0.14066 0.58245 0.0
C1151 C 0.68726 0.11808 0.58495 0.0
C1152 C 0.68226 0.10001 0.5962 0.0
C1153 C 0.62266 0.14723 0.66047 0.0
C1154 C 0.58501 0.15632 0.65525 0.0
C1155 C 0.64939 0.12094 0.65461 0.0
C1156 C 0.63842 0.1024 0.6436 0.0
C1157 C 0.59907 0.10829 0.63906 0.0
C1158 C 0.57271 0.13533 0.64477 0.0
C1159 C 0.66985 0.0829 0.63594 0.0
C1160 C 0.67483 0.09748 0.62418 0.0
C1161 C 0.69764 0.05408 0.64041 0.0
C1162 C 0.69323 0.03642 0.65259 0.0
C1163 C 0.6561 0.01881 0.65624 0.0
C1164 C 0.6519 0.003 0.66781 0.0
C1165 C 0.68469 0.00441 0.6758 0.0
C1166 C 0.7218 0.02152 0.67223 0.0
C1167 C 0.72617 0.03737 0.66067 0.0
H1168 H 0.68136 0.99222 0.68476 0.0
H1169 H 0.72627 0.15465 0.57374 0.0
H1170 H 0.71595 0.06206 0.32523 0.0
H1171 H 0.70411 0.00399 0.33847 0.0
H1172 H 0.71151 0.08405 0.36946 0.0
H1173 H 0.72492 0.14188 0.35624 0.0
H1174 H 0.74581 0.01508 0.37471 0.0
H1175 H 0.62242 0.05318 0.35534 0.0
H1176 H 0.5794 0.06701 0.33782 0.0
H1177 H 0.58428 0.94134 0.32702 0.0
H1178 H 0.63017 0.9273 0.344 0.0
H1179 H 0.61618 0.91684 0.41661 0.0
H1180 H 0.65442 0.95915 0.40259 0.0
H1181 H 0.6512 0.8617 0.37626 0.0
H1182 H 0.61256 0.81902 0.39039 0.0
H1183 H 0.62084 0.93233 0.36753 0.0
H1184 H 0.74152 0.89436 0.38828 0.0
H1185 H 0.78449 0.88286 0.40607 0.0
H1186 H 0.77825 0.00964 0.41555 0.0
H1187 H 0.73474 0.02184 0.39791 0.0
C1188 C 0.71517 0.06718 0.33488 0.0
C1189 C 0.72088 0.10658 0.3397 0.0
C1190 C 0.70847 0.03396 0.34244 0.0
C1191 C 0.70615 0.03957 0.35499 0.0
C1192 C 0.71312 0.07878 0.35983 0.0
C1193 C 0.7206 0.11188 0.35227 0.0
C1194 C 0.69421 0.00528 0.36304 0.0
C1195 C 0.71837 0.99713 0.37316 0.0
C1196 C 0.65876 0.98113 0.36093 0.0
C1197 C 0.63032 0.98931 0.35087 0.0
C1198 C 0.61479 0.02853 0.34917 0.0
C1199 C 0.58986 0.03643 0.33931 0.0
C1200 C 0.57868 0.00501 0.33137 0.0
C1201 C 0.59293 0.96567 0.33319 0.0
C1202 C 0.61876 0.9578 0.34286 0.0
C1203 C 0.62483 0.90392 0.40798 0.0
C1204 C 0.61152 0.86461 0.4046 0.0
C1205 C 0.64674 0.92816 0.39996 0.0
C1206 C 0.65577 0.91371 0.38835 0.0
C1207 C 0.64466 0.87348 0.38519 0.0
C1208 C 0.62299 0.84895 0.3933 0.0
C1209 C 0.67229 0.94234 0.3792 0.0
C1210 C 0.64875 0.9497 0.36893 0.0
C1211 C 0.70792 0.96605 0.38126 0.0
C1212 C 0.73464 0.95896 0.39179 0.0
C1213 C 0.7491 0.91976 0.39419 0.0
C1214 C 0.77359 0.91312 0.40425 0.0
C1215 C 0.78404 0.94548 0.41195 0.0
C1216 C 0.77013 0.9846 0.40958 0.0
C1217 C 0.74561 0.9914 0.39954 0.0
H1218 H 0.80295 0.94027 0.41974 0.0
H1219 H 0.55906 0.01118 0.3238 0.0
H1220 H 0.63507 0.99459 0.11251 0.0
H1221 H 0.69029 0.96886 0.12499 0.0
H1222 H 0.75413 0.93014 0.09303 0.0
H1223 H 0.69902 0.95549 0.08054 0.0
H1224 H 0.75687 0.87319 0.10981 0.0
H1225 H 0.77977 0.01906 0.10866 0.0
H1226 H 0.76032 0.09071 0.11166 0.0
H1227 H 0.74134 0.0694 0.14932 0.0
H1228 H 0.76019 0.99745 0.1465 0.0
H1229 H 0.95364 0.84181 0.13055 0.0
H1230 H 0.89801 0.87565 0.12029 0.0
H1231 H 0.84292 0.90387 0.15456 0.0
H1232 H 0.89907 0.8706 0.16492 0.0
H1233 H 0.83158 0.96449 0.13825 0.0
H1234 H 0.82186 0.81992 0.13934 0.0
H1235 H 0.84556 0.75017 0.13583 0.0
H1236 H 0.83655 0.76639 0.09768 0.0
H1237 H 0.81654 0.83765 0.10087 0.0
C1238 C 0.66097 0.98072 0.10816 0.0
C1239 C 0.66274 0.97716 0.09554 0.0
C1240 C 0.69249 0.96602 0.1153 0.0
C1241 C 0.72661 0.94799 0.10994 0.0
C1242 C 0.72809 0.94386 0.09736 0.0
C1243 C 0.69653 0.95829 0.09024 0.0
C1244 C 0.7611 0.93365 0.11735 0.0
C1245 C 0.77361 0.89323 0.11591 0.0
C1246 C 0.78192 0.9595 0.12564 0.0
C1247 C 0.77098 0.00281 0.12735 0.0
C1248 C 0.77119 0.0296 0.11756 0.0
C1249 C 0.76031 0.07027 0.11923 0.0
C1250 C 0.74949 0.08457 0.13067 0.0
C1251 C 0.74966 0.05826 0.14046 0.0
C1252 C 0.76047 0.01755 0.13884 0.0
C1253 C 0.93019 0.85607 0.13592 0.0
C1254 C 0.93042 0.8531 0.14853 0.0
C1255 C 0.89835 0.87528 0.13004 0.0
C1256 C 0.86577 0.89125 0.13665 0.0
C1257 C 0.86761 0.89141 0.14928 0.0
C1258 C 0.89977 0.8725 0.1552 0.0
C1259 C 0.82842 0.9044 0.13036 0.0
C1260 C 0.81502 0.94438 0.13212 0.0
C1261 C 0.80689 0.87807 0.1223 0.0
C1262 C 0.8183 0.83471 0.12037 0.0
C1263 C 0.82572 0.80907 0.13018 0.0
C1264 C 0.83872 0.76923 0.12825 0.0
C1265 C 0.84238 0.75375 0.11655 0.0
C1266 C 0.83376 0.77841 0.10675 0.0
C1267 C 0.82209 0.81876 0.10861 0.0
H1268 H 0.85181 0.72264 0.1151 0.0
H1269 H 0.74107 0.11606 0.13194 0.0
H1270 H 0.89903 0.95182 0.81405 0.0
H1271 H 0.9156 0.01685 0.82393 0.0
H1272 H 0.87318 0.96941 0.85776 0.0
H1273 H 0.85785 0.90387 0.8481 0.0
H1274 H 0.83795 0.04571 0.85032 0.0
H1275 H 0.97152 0.98009 0.85385 0.0
H1276 H 0.03238 0.9483 0.845 0.0
H1277 H 0.05464 0.05491 0.82388 0.0
H1278 H 0.99394 0.08728 0.8326 0.0
H1279 H 0.90074 0.15476 0.90027 0.0
H1280 H 0.88119 0.11123 0.88357 0.0
H1281 H 0.96166 0.17809 0.86007 0.0
H1282 H 0.98328 0.22102 0.87707 0.0
H1283 H 0.97621 0.10298 0.85739 0.0
H1284 H 0.85406 0.17512 0.85601 0.0
H1285 H 0.79297 0.21031 0.86334 0.0
H1286 H 0.74636 0.09821 0.87764 0.0
H1287 H 0.80741 0.06241 0.87057 0.0
C1288 C 0.89417 0.95482 0.82365 0.0
C1289 C 0.87698 0.92261 0.83029 0.0
C1290 C 0.90337 0.99212 0.82924 0.0
C1291 C 0.89533 0.99783 0.84152 0.0
C1292 C 0.87924 0.96554 0.84823 0.0
C1293 C 0.8704 0.92819 0.84269 0.0
C1294 C 0.90202 0.03784 0.84741 0.0
C1295 C 0.86811 0.05835 0.85194 0.0
C1296 C 0.9412 0.05527 0.84882 0.0
C1297 C 0.97794 0.03586 0.84375 0.0
C1298 C 0.98927 0.99662 0.84727 0.0
C1299 C 0.0238 0.97856 0.8423 0.0
C1300 C 0.04723 0.9995 0.83383 0.0
C1301 C 0.03643 0.03869 0.83041 0.0
C1302 C 0.00205 0.05694 0.83539 0.0
C1303 C 0.9138 0.16103 0.89152 0.0
C1304 C 0.94411 0.19116 0.8901 0.0
C1305 C 0.90218 0.13617 0.88189 0.0
C1306 C 0.91964 0.14144 0.87048 0.0
C1307 C 0.94778 0.17337 0.86879 0.0
C1308 C 0.95993 0.19806 0.87852 0.0
C1309 C 0.91211 0.11025 0.86094 0.0
C1310 C 0.9458 0.09127 0.85561 0.0
C1311 C 0.87253 0.09479 0.85852 0.0
C1312 C 0.83548 0.11608 0.86277 0.0
C1313 C 0.83091 0.15798 0.86078 0.0
C1314 C 0.79625 0.17805 0.86488 0.0
C1315 C 0.76581 0.15651 0.87096 0.0
C1316 C 0.76994 0.11485 0.87292 0.0
C1317 C 0.80454 0.09463 0.86884 0.0
H1318 H 0.73902 0.17211 0.87413 0.0
H1319 H 0.07377 0.9854 0.82992 0.0
H1320 H 0.92595 0.89206 0.49458 0.0
H1321 H 0.86648 0.87956 0.4816 0.0
H1322 H 0.80539 0.98078 0.49835 0.0
H1323 H 0.86443 0.99348 0.51124 0.0
H1324 H 0.75819 0.90963 0.4973 0.0
H1325 H 0.84025 0.99169 0.47097 0.0
H1326 H 0.90181 0.0107 0.45958 0.0
H1327 H 0.89506 0.89765 0.43989 0.0
H1328 H 0.83381 0.87764 0.4513 0.0
H1329 H 0.58821 0.91172 0.45766 0.0
H1330 H 0.64956 0.93533 0.46832 0.0
H1331 H 0.71759 0.83763 0.45215 0.0
H1332 H 0.65643 0.81334 0.44172 0.0
H1333 H 0.76065 0.91117 0.45266 0.0
H1334 H 0.68365 0.82571 0.47904 0.0
H1335 H 0.62334 0.80275 0.49032 0.0
H1336 H 0.62208 0.9161 0.50991 0.0
H1337 H 0.68224 0.94001 0.49863 0.0
C1338 C 0.89997 0.91184 0.49539 0.0
C1339 C 0.90004 0.94398 0.50385 0.0
C1340 C 0.86613 0.90478 0.48796 0.0
C1341 C 0.83167 0.92946 0.48896 0.0
C1342 C 0.83174 0.96154 0.49738 0.0
C1343 C 0.86565 0.96893 0.50467 0.0
C1344 C 0.79483 0.9209 0.4816 0.0
C1345 C 0.75855 0.91062 0.48755 0.0
C1346 C 0.79564 0.92118 0.46887 0.0
C1347 C 0.83269 0.93299 0.46209 0.0
C1348 C 0.85214 0.97068 0.4643 0.0
C1349 C 0.88693 0.98168 0.45783 0.0
C1350 C 0.90241 0.95535 0.44904 0.0
C1351 C 0.88308 0.91799 0.44671 0.0
C1352 C 0.84832 0.90681 0.45318 0.0
C1353 C 0.61635 0.89552 0.4563 0.0
C1354 C 0.61746 0.86047 0.44895 0.0
C1355 C 0.6513 0.90897 0.46241 0.0
C1356 C 0.68798 0.88793 0.46112 0.0
C1357 C 0.68956 0.85411 0.45334 0.0
C1358 C 0.65455 0.84022 0.44742 0.0
C1359 C 0.72419 0.89967 0.46837 0.0
C1360 C 0.76024 0.91064 0.46242 0.0
C1361 C 0.72344 0.89921 0.4811 0.0
C1362 C 0.68722 0.88489 0.48788 0.0
C1363 C 0.67039 0.84592 0.48568 0.0
C1364 C 0.63625 0.83268 0.49209 0.0
C1365 C 0.61881 0.858 0.5008 0.0
C1366 C 0.63558 0.89656 0.50314 0.0
C1367 C 0.66972 0.90997 0.49675 0.0
H1368 H 0.59236 0.84769 0.50575 0.0
H1369 H 0.92931 0.96395 0.44403 0.0
H1370 H 0.77958 0.03694 0.28027 0.0
H1371 H 0.7984 0.98656 0.26496 0.0
H1372 H 0.7541 0.06477 0.23711 0.0
H1373 H 0.73636 0.11593 0.25226 0.0
H1374 H 0.74082 0.974 0.23332 0.0
H1375 H 0.84329 0.07719 0.24101 0.0
H1376 H 0.88599 0.12089 0.25417 0.0
H1377 H 0.94023 0.0151 0.26946 0.0
H1378 H 0.89723 0.97069 0.25654 0.0
H1379 H 0.88171 0.88912 0.18824 0.0
H1380 H 0.83528 0.93207 0.20019 0.0
H1381 H 0.884 0.88212 0.23286 0.0
H1382 H 0.93026 0.84029 0.22107 0.0
H1383 H 0.89123 0.96432 0.23215 0.0
H1384 H 0.78821 0.86083 0.2243 0.0
H1385 H 0.74463 0.8175 0.21128 0.0
H1386 H 0.69201 0.92382 0.19579 0.0
H1387 H 0.73573 0.96782 0.20862 0.0
C1388 C 0.77326 0.04319 0.27091 0.0
C1389 C 0.75689 0.08064 0.26749 0.0
C1390 C 0.78364 0.01424 0.2622 0.0
C1391 C 0.77769 0.02215 0.24994 0.0
C1392 C 0.7585 0.05804 0.24654 0.0
C1393 C 0.74839 0.0872 0.25524 0.0
C1394 C 0.79743 0.99616 0.24079 0.0
C1395 C 0.77369 0.97208 0.23292 0.0
C1396 C 0.84025 0.99401 0.24029 0.0
C1397 C 0.86674 0.02062 0.2479 0.0
C1398 C 0.86407 0.06323 0.24725 0.0
C1399 C 0.88835 0.08814 0.25466 0.0
C1400 C 0.91572 0.07079 0.26267 0.0
C1401 C 0.91896 0.02849 0.26326 0.0
C1402 C 0.89466 0.00343 0.2559 0.0
C1403 C 0.88147 0.88674 0.19795 0.0
C1404 C 0.90946 0.86188 0.20381 0.0
C1405 C 0.85512 0.91117 0.20476 0.0
C1406 C 0.85654 0.91045 0.21741 0.0
C1407 C 0.88265 0.88338 0.22313 0.0
C1408 C 0.90895 0.85948 0.2164 0.0
C1409 C 0.83476 0.94066 0.2249 0.0
C1410 C 0.85832 0.96614 0.23243 0.0
C1411 C 0.79193 0.94403 0.22498 0.0
C1412 C 0.76558 0.91761 0.21731 0.0
C1413 C 0.76763 0.87498 0.21804 0.0
C1414 C 0.74284 0.85029 0.21071 0.0
C1415 C 0.71566 0.86789 0.20269 0.0
C1416 C 0.71313 0.91022 0.202 0.0
C1417 C 0.73789 0.93505 0.2093 0.0
H1418 H 0.69649 0.84873 0.19702 0.0
H1419 H 0.9345 0.09013 0.2684 0.0
H1420 H 0.66974 0.16388 0.02971 0.0
H1421 H 0.73037 0.18522 0.01854 0.0
H1422 H 0.66032 0.18452 0.98565 0.0
H1423 H 0.60031 0.16094 0.99678 0.0
H1424 H 0.72684 0.14815 0.9818 0.0
H1425 H 0.69323 0.27121 0.00297 0.0
H1426 H 0.68074 0.31591 0.02038 0.0
H1427 H 0.80325 0.29948 0.03252 0.0
H1428 H 0.81632 0.25352 0.01533 0.0
H1429 H 0.86705 0.23349 0.94283 0.0
H1430 H 0.80814 0.22915 0.9561 0.0
H1431 H 0.88762 0.22291 0.9869 0.0
H1432 H 0.94711 0.22942 0.97355 0.0
H1433 H 0.81853 0.26391 0.99252 0.0
H1434 H 0.84917 0.13545 0.97365 0.0
H1435 H 0.86365 0.08957 0.9565 0.0
H1436 H 0.74759 0.11636 0.94097 0.0
H1437 H 0.73265 0.16283 0.95796 0.0
C1438 C 0.66733 0.16879 0.02011 0.0
C1439 C 0.63041 0.16105 0.01408 0.0
C1440 C 0.70193 0.18116 0.01373 0.0
C1441 C 0.70001 0.18715 0.00124 0.0
C1442 C 0.66274 0.18017 0.99528 0.0
C1443 C 0.6284 0.16686 0.00162 0.0
C1444 C 0.73711 0.19812 0.99419 0.0
C1445 C 0.74641 0.17391 0.9841 0.0
C1446 C 0.7638 0.23082 0.99741 0.0
C1447 C 0.7557 0.25841 0.00784 0.0
C1448 C 0.71749 0.27663 0.00938 0.0
C1449 C 0.71026 0.30225 0.01924 0.0
C1450 C 0.74115 0.31051 0.02757 0.0
C1451 C 0.77932 0.29303 0.02606 0.0
C1452 C 0.78663 0.2671 0.01626 0.0
C1453 C 0.872 0.23161 0.95245 0.0
C1454 C 0.91163 0.23089 0.95715 0.0
C1455 C 0.83829 0.22914 0.96003 0.0
C1456 C 0.84335 0.22443 0.97249 0.0
C1457 C 0.88291 0.22616 0.97731 0.0
C1458 C 0.91687 0.22968 0.9697 0.0
C1459 C 0.80751 0.2142 0.98016 0.0
C1460 C 0.7987 0.23828 0.99033 0.0
C1461 C 0.78123 0.18116 0.97716 0.0
C1462 C 0.78993 0.15281 0.96702 0.0
C1463 C 0.82683 0.13169 0.96654 0.0
C1464 C 0.83512 0.10558 0.95686 0.0
C1465 C 0.80659 0.10011 0.94764 0.0
C1466 C 0.76967 0.12065 0.94811 0.0
C1467 C 0.76125 0.14683 0.95777 0.0
H1468 H 0.81307 0.07991 0.94015 0.0
H1469 H 0.73552 0.33055 0.03517 0.0
H1470 H 0.78612 0.9227 0.75062 0.0
H1471 H 0.76215 0.97465 0.73686 0.0
H1472 H 0.73608 0.05381 0.76702 0.0
H1473 H 0.7604 0.00202 0.78088 0.0
H1474 H 0.67258 0.04789 0.75132 0.0
H1475 H 0.81784 0.07155 0.74856 0.0
H1476 H 0.88867 0.05115 0.74483 0.0
H1477 H 0.85738 0.01485 0.70873 0.0
H1478 H 0.78621 0.03454 0.71229 0.0
H1479 H 0.6276 0.22907 0.72423 0.0
H1480 H 0.6668 0.17953 0.73541 0.0
H1481 H 0.68819 0.11172 0.7026 0.0
H1482 H 0.64958 0.1624 0.69125 0.0
H1483 H 0.75386 0.1081 0.7182 0.0
H1484 H 0.6113 0.08365 0.71997 0.0
H1485 H 0.53923 0.10114 0.72283 0.0
H1486 H 0.56311 0.13351 0.75972 0.0
H1487 H 0.6355 0.11684 0.75703 0.0
C1488 C 0.7762 0.95152 0.75434 0.0
C1489 C 0.77559 0.95831 0.76688 0.0
C1490 C 0.76231 0.98116 0.74643 0.0
C1491 C 0.74764 0.01834 0.75088 0.0
C1492 C 0.74729 0.02536 0.76338 0.0
C1493 C 0.76117 0.99572 0.77129 0.0
C1494 C 0.73095 0.04924 0.74257 0.0
C1495 C 0.69058 0.06144 0.7442 0.0
C1496 C 0.75379 0.06564 0.73291 0.0
C1497 C 0.79663 0.05417 0.73073 0.0
C1498 C 0.826 0.05895 0.73985 0.0
C1499 C 0.86622 0.04756 0.73777 0.0
C1500 C 0.8775 0.03162 0.72656 0.0
C1501 C 0.8486 0.02716 0.71741 0.0
C1502 C 0.80833 0.03847 0.71945 0.0
C1503 C 0.64168 0.20424 0.71934 0.0
C1504 C 0.63554 0.19944 0.7069 0.0
C1505 C 0.66384 0.17579 0.72574 0.0
C1506 C 0.67954 0.14132 0.7199 0.0
C1507 C 0.67615 0.13798 0.7073 0.0
C1508 C 0.65429 0.16698 0.70082 0.0
C1509 C 0.69594 0.10752 0.72721 0.0
C1510 C 0.73595 0.09453 0.72533 0.0
C1511 C 0.67258 0.08974 0.73654 0.0
C1512 C 0.62892 0.0993 0.73826 0.0
C1513 C 0.60125 0.09475 0.72867 0.0
C1514 C 0.56033 0.10449 0.73026 0.0
C1515 C 0.54662 0.1185 0.74144 0.0
C1516 C 0.57379 0.12269 0.75106 0.0
C1517 C 0.61476 0.11306 0.74951 0.0
H1518 H 0.51494 0.12605 0.74266 0.0
H1519 H 0.90864 0.0228 0.72497 0.0
H1520 H 0.64316 0.43502 0.98935 0.0
H1521 H 0.70142 0.41957 0.97639 0.0
H1522 H 0.76988 0.3826 0.00745 0.0
H1523 H 0.71171 0.39819 0.02043 0.0
H1524 H 0.80773 0.44335 0.9938 0.0
H1525 H 0.74354 0.31301 0.98737 0.0
H1526 H 0.69002 0.26297 0.98157 0.0
H1527 H 0.68646 0.31249 0.94605 0.0
H1528 H 0.73969 0.36273 0.95163 0.0
H1529 H 0.98443 0.37847 0.96235 0.0
H1530 H 0.92599 0.39144 0.97533 0.0
H1531 H 0.84873 0.39822 0.94396 0.0
H1532 H 0.90683 0.38182 0.93113 0.0
H1533 H 0.81537 0.35093 0.95836 0.0
H1534 H 0.87476 0.48396 0.96412 0.0
H1535 H 0.92824 0.53468 0.96909 0.0
H1536 H 0.93881 0.48548 0.00457 0.0
H1537 H 0.88565 0.4342 0.99978 0.0
C1538 C 0.67045 0.42293 0.99335 0.0
C1539 C 0.6731 0.41775 0.00586 0.0
C1540 C 0.70354 0.4139 0.98596 0.0
C1541 C 0.73986 0.39991 0.99098 0.0
C1542 C 0.74204 0.39331 0.00342 0.0
C1543 C 0.70882 0.40198 0.0108 0.0
C1544 C 0.77679 0.39665 0.98345 0.0
C1545 C 0.80971 0.42279 0.98612 0.0
C1546 C 0.77859 0.37088 0.97321 0.0
C1547 C 0.7453 0.34185 0.96999 0.0
C1548 C 0.73095 0.31344 0.97838 0.0
C1549 C 0.70084 0.28498 0.97512 0.0
C1550 C 0.68482 0.28465 0.96349 0.0
C1551 C 0.69886 0.31279 0.95507 0.0
C1552 C 0.72905 0.34121 0.95828 0.0
C1553 C 0.95516 0.38425 0.95826 0.0
C1554 C 0.94997 0.38021 0.94579 0.0
C1555 C 0.92172 0.39164 0.96567 0.0
C1556 C 0.8828 0.39628 0.96066 0.0
C1557 C 0.87834 0.39471 0.94807 0.0
C1558 C 0.91155 0.38602 0.94071 0.0
C1559 C 0.84624 0.39843 0.96849 0.0
C1560 C 0.81343 0.37188 0.96595 0.0
C1561 C 0.84416 0.4245 0.97869 0.0
C1562 C 0.87641 0.45507 0.98156 0.0
C1563 C 0.8887 0.48377 0.97295 0.0
C1564 C 0.9189 0.51266 0.97574 0.0
C1565 C 0.93687 0.51331 0.98714 0.0
C1566 C 0.9248 0.48498 0.99576 0.0
C1567 C 0.8946 0.45604 0.99301 0.0
H1568 H 0.96001 0.53589 0.98932 0.0
H1569 H 0.66157 0.26254 0.96098 0.0
H1570 H 0.88175 0.39021 0.24944 0.0
H1571 H 0.91008 0.44647 0.23775 0.0
H1572 H 0.83223 0.53043 0.25661 0.0
H1573 H 0.80378 0.47436 0.26831 0.0
H1574 H 0.83193 0.54584 0.23322 0.0
H1575 H 0.93569 0.52609 0.26322 0.0
H1576 H 0.98497 0.48658 0.27491 0.0
H1577 H 0.04659 0.45254 0.24236 0.0
H1578 H 0.99742 0.49175 0.23044 0.0
H1579 H 0.93697 0.733 0.22212 0.0
H1580 H 0.91291 0.67205 0.23264 0.0
H1581 H 0.96572 0.596 0.20509 0.0
H1582 H 0.98892 0.65689 0.19432 0.0
H1583 H 0.98033 0.57468 0.23172 0.0
H1584 H 0.87696 0.59712 0.20187 0.0
H1585 H 0.82846 0.63877 0.19058 0.0
H1586 H 0.76608 0.66848 0.22341 0.0
H1587 H 0.81457 0.62734 0.23491 0.0
C1588 C 0.87088 0.4207 0.25116 0.0
C1589 C 0.8405 0.42777 0.25982 0.0
C1590 C 0.88712 0.45286 0.24447 0.0
C1591 C 0.87363 0.49282 0.24638 0.0
C1592 C 0.84308 0.49988 0.25495 0.0
C1593 C 0.82673 0.46775 0.2616 0.0
C1594 C 0.89097 0.52728 0.23938 0.0
C1595 C 0.86434 0.55229 0.23301 0.0
C1596 C 0.93336 0.53531 0.23885 0.0
C1597 C 0.96286 0.51169 0.24595 0.0
C1598 C 0.95966 0.51004 0.25855 0.0
C1599 C 0.9876 0.48778 0.26521 0.0
C1600 C 0.01894 0.46715 0.25936 0.0
C1601 C 0.0224 0.46873 0.24685 0.0
C1602 C 0.99459 0.49102 0.24014 0.0
C1603 C 0.94359 0.70329 0.21834 0.0
C1604 C 0.96451 0.69964 0.20736 0.0
C1605 C 0.92983 0.66858 0.22434 0.0
C1606 C 0.93752 0.62965 0.21961 0.0
C1607 C 0.95952 0.62583 0.20886 0.0
C1608 C 0.97249 0.66057 0.2027 0.0
C1609 C 0.92119 0.59315 0.22573 0.0
C1610 C 0.94797 0.5679 0.23191 0.0
C1611 C 0.87896 0.58492 0.22614 0.0
C1612 C 0.84965 0.60954 0.21927 0.0
C1613 C 0.85314 0.61285 0.2067 0.0
C1614 C 0.82559 0.63628 0.20026 0.0
C1615 C 0.79429 0.65637 0.20628 0.0
C1616 C 0.79039 0.65295 0.21876 0.0
C1617 C 0.81786 0.62954 0.22524 0.0
H1618 H 0.773 0.67451 0.20129 0.0
H1619 H 0.04055 0.44993 0.26453 0.0
H1620 H 0.83375 0.56637 0.53259 0.0
H1621 H 0.77421 0.59356 0.52227 0.0
H1622 H 0.85214 0.63924 0.49406 0.0
H1623 H 0.9117 0.61427 0.50482 0.0
H1624 H 0.7993 0.69169 0.49764 0.0
H1625 H 0.79092 0.54729 0.49184 0.0
H1626 H 0.788 0.47525 0.49783 0.0
H1627 H 0.67825 0.4972 0.51766 0.0
H1628 H 0.68082 0.56954 0.5119 0.0
H1629 H 0.62676 0.63548 0.453 0.0
H1630 H 0.67922 0.61834 0.46727 0.0
H1631 H 0.65982 0.73122 0.4865 0.0
H1632 H 0.60706 0.74939 0.47184 0.0
H1633 H 0.67934 0.60291 0.48954 0.0
H1634 H 0.75801 0.76004 0.49952 0.0
H1635 H 0.77681 0.82434 0.48964 0.0
H1636 H 0.75885 0.7681 0.45496 0.0
H1637 H 0.74131 0.70308 0.46461 0.0
C1638 C 0.83792 0.5823 0.52418 0.0
C1639 C 0.87703 0.5881 0.51941 0.0
C1640 C 0.80395 0.59768 0.51826 0.0
C1641 C 0.80836 0.61797 0.50724 0.0
C1642 C 0.84771 0.62389 0.50254 0.0
C1643 C 0.88173 0.60942 0.50863 0.0
C1644 C 0.77223 0.63261 0.50047 0.0
C1645 C 0.77291 0.67236 0.49594 0.0
C1646 C 0.73794 0.60731 0.49807 0.0
C1647 C 0.73635 0.5639 0.50157 0.0
C1648 C 0.76635 0.53681 0.49756 0.0
C1649 C 0.76473 0.49592 0.50089 0.0
C1650 C 0.73304 0.48169 0.50815 0.0
C1651 C 0.70284 0.5083 0.51206 0.0
C1652 C 0.70435 0.54923 0.50876 0.0
C1653 C 0.63334 0.65687 0.46025 0.0
C1654 C 0.61256 0.69395 0.46122 0.0
C1655 C 0.66339 0.64682 0.46848 0.0
C1656 C 0.67371 0.6734 0.47799 0.0
C1657 C 0.65264 0.71029 0.47919 0.0
C1658 C 0.62224 0.72048 0.47088 0.0
C1659 C 0.70683 0.66174 0.4864 0.0
C1660 C 0.70537 0.62259 0.49139 0.0
C1661 C 0.74128 0.68694 0.4887 0.0
C1662 C 0.7476 0.72683 0.48282 0.0
C1663 C 0.75767 0.7615 0.48979 0.0
C1664 C 0.76842 0.798 0.48422 0.0
C1665 C 0.76897 0.80029 0.47168 0.0
C1666 C 0.75828 0.76627 0.46468 0.0
C1667 C 0.7479 0.72957 0.4702 0.0
H1668 H 0.77806 0.82828 0.46738 0.0
H1669 H 0.73183 0.45002 0.51072 0.0
H1670 H 0.6327 0.63348 0.75775 0.0
H1671 H 0.60682 0.5881 0.74191 0.0
H1672 H 0.70189 0.62941 0.71808 0.0
H1673 H 0.72795 0.67504 0.73392 0.0
H1674 H 0.58291 0.5861 0.71758 0.0
H1675 H 0.74687 0.54296 0.70786 0.0
H1676 H 0.81535 0.55133 0.71675 0.0
H1677 H 0.7635 0.55255 0.75222 0.0
H1678 H 0.69489 0.54349 0.74354 0.0
H1679 H 0.57767 0.39733 0.68256 0.0
H1680 H 0.60014 0.46693 0.68776 0.0
H1681 H 0.62352 0.42953 0.72417 0.0
H1682 H 0.60076 0.36052 0.71916 0.0
H1683 H 0.68662 0.47831 0.71331 0.0
H1684 H 0.53944 0.47204 0.72006 0.0
H1685 H 0.46895 0.46018 0.71314 0.0
H1686 H 0.48413 0.55246 0.68639 0.0
H1687 H 0.55492 0.5645 0.69308 0.0
C1688 C 0.64724 0.63392 0.74901 0.0
C1689 C 0.68286 0.65693 0.74712 0.0
C1690 C 0.63228 0.60818 0.73994 0.0
C1691 C 0.65283 0.60514 0.72891 0.0
C1692 C 0.68588 0.63121 0.72658 0.0
C1693 C 0.70095 0.65684 0.73566 0.0
C1694 C 0.64489 0.56934 0.72112 0.0
C1695 C 0.60579 0.5629 0.71638 0.0
C1696 C 0.67468 0.53893 0.71971 0.0
C1697 C 0.71584 0.54311 0.72504 0.0
C1698 C 0.75018 0.54486 0.71756 0.0
C1699 C 0.78898 0.54971 0.72256 0.0
C1700 C 0.79375 0.55263 0.73504 0.0
C1701 C 0.75976 0.5504 0.74255 0.0
C1702 C 0.72093 0.54539 0.7376 0.0
C1703 C 0.58799 0.40399 0.69163 0.0
C1704 C 0.58731 0.37372 0.70049 0.0
C1705 C 0.60068 0.44361 0.69457 0.0
C1706 C 0.6134 0.45302 0.70632 0.0
C1707 C 0.6139 0.42258 0.71504 0.0
C1708 C 0.60066 0.38333 0.71219 0.0
C1709 C 0.62456 0.49485 0.70992 0.0
C1710 C 0.66428 0.50227 0.71397 0.0
C1711 C 0.59514 0.52569 0.71087 0.0
C1712 C 0.55253 0.51882 0.70696 0.0
C1713 C 0.52782 0.48957 0.71264 0.0
C1714 C 0.48781 0.48286 0.70878 0.0
C1715 C 0.47212 0.50546 0.6993 0.0
C1716 C 0.49635 0.53493 0.69371 0.0
C1717 C 0.5364 0.54172 0.69754 0.0
H1718 H 0.44115 0.5002 0.69632 0.0
H1719 H 0.8238 0.55651 0.73889 0.0
H1720 H 0.60024 0.63846 0.10267 0.0
H1721 H 0.64884 0.66395 0.11785 0.0
H1722 H 0.733 0.57024 0.10739 0.0
H1723 H 0.68478 0.54474 0.09239 0.0
H1724 H 0.72795 0.5728 0.13069 0.0
H1725 H 0.74447 0.67089 0.09952 0.0
H1726 H 0.7297 0.72572 0.08528 0.0
H1727 H 0.69474 0.80402 0.11457 0.0
H1728 H 0.70835 0.74931 0.12899 0.0
H1729 H 0.92318 0.65189 0.14565 0.0
H1730 H 0.85975 0.62496 0.13716 0.0
H1731 H 0.79169 0.71134 0.15826 0.0
H1732 H 0.85478 0.7384 0.1669 0.0
H1733 H 0.77819 0.71521 0.1334 0.0
H1734 H 0.77605 0.61755 0.16418 0.0
H1735 H 0.80358 0.56511 0.17749 0.0
H1736 H 0.82474 0.48699 0.14696 0.0
H1737 H 0.79802 0.53928 0.13342 0.0
C1738 C 0.62925 0.62357 0.10359 0.0
C1739 C 0.63852 0.5893 0.09647 0.0
C1740 C 0.65698 0.63813 0.11225 0.0
C1741 C 0.69456 0.61892 0.11379 0.0
C1742 C 0.70403 0.58526 0.10649 0.0
C1743 C 0.67639 0.57064 0.09793 0.0
C1744 C 0.72401 0.63287 0.12314 0.0
C1745 C 0.73934 0.6039 0.13115 0.0
C1746 C 0.73791 0.67377 0.12407 0.0
C1747 C 0.7265 0.70556 0.11533 0.0
C1748 C 0.73271 0.69943 0.10292 0.0
C1749 C 0.72476 0.7306 0.09481 0.0
C1750 C 0.71103 0.76824 0.09901 0.0
C1751 C 0.70509 0.77475 0.11132 0.0
C1752 C 0.71278 0.74362 0.11946 0.0
C1753 C 0.89473 0.6646 0.14871 0.0
C1754 C 0.89424 0.69762 0.15687 0.0
C1755 C 0.85847 0.64902 0.14389 0.0
C1756 C 0.82111 0.66621 0.1471 0.0
C1757 C 0.82025 0.69762 0.15572 0.0
C1758 C 0.85645 0.71297 0.16065 0.0
C1759 C 0.78401 0.65479 0.14027 0.0
C1760 C 0.7668 0.68424 0.13288 0.0
C1761 C 0.76942 0.61428 0.13965 0.0
C1762 C 0.78521 0.5825 0.14776 0.0
C1763 C 0.78685 0.58933 0.16028 0.0
C1764 C 0.80228 0.5596 0.16787 0.0
C1765 C 0.81594 0.52276 0.16307 0.0
C1766 C 0.81414 0.51555 0.15066 0.0
C1767 C 0.7988 0.54522 0.14302 0.0
H1768 H 0.82787 0.49977 0.16896 0.0
H1769 H 0.7052 0.79242 0.09273 0.0
H1770 H 0.74074 0.38868 0.3597 0.0
H1771 H 0.72369 0.45463 0.36838 0.0
H1772 H 0.62954 0.46874 0.34175 0.0
H1773 H 0.64867 0.40442 0.3324 0.0
H1774 H 0.66517 0.5377 0.34448 0.0
H1775 H 0.60867 0.44279 0.37206 0.0
H1776 H 0.60663 0.38386 0.38561 0.0
H1777 H 0.69902 0.43964 0.40781 0.0
H1778 H 0.70197 0.49871 0.3943 0.0
H1779 H 0.55104 0.6817 0.38062 0.0
H1780 H 0.58027 0.63088 0.36693 0.0
H1781 H 0.68524 0.62242 0.39002 0.0
H1782 H 0.65624 0.67299 0.40362 0.0
H1783 H 0.64536 0.55201 0.38852 0.0
H1784 H 0.69341 0.65154 0.36039 0.0
H1785 H 0.6875 0.71016 0.34686 0.0
H1786 H 0.59833 0.64503 0.32572 0.0
H1787 H 0.60328 0.5862 0.33922 0.0
C1788 C 0.71651 0.40579 0.35563 0.0
C1789 C 0.69589 0.39076 0.34539 0.0
C1790 C 0.70647 0.44344 0.36069 0.0
C1791 C 0.6748 0.46652 0.35586 0.0
C1792 C 0.65397 0.45153 0.34569 0.0
C1793 C 0.66449 0.41422 0.34048 0.0
C1794 C 0.66353 0.50624 0.36142 0.0
C1795 C 0.66011 0.54071 0.35409 0.0
C1796 C 0.65736 0.51048 0.37397 0.0
C1797 C 0.65585 0.47495 0.38209 0.0
C1798 C 0.62879 0.44233 0.37978 0.0
C1799 C 0.62742 0.40894 0.38746 0.0
C1800 C 0.65276 0.40795 0.39754 0.0
C1801 C 0.67945 0.44042 0.39998 0.0
C1802 C 0.68096 0.47387 0.39232 0.0
C1803 C 0.5812 0.67038 0.38244 0.0
C1804 C 0.60126 0.68087 0.39321 0.0
C1805 C 0.59785 0.64117 0.37464 0.0
C1806 C 0.63466 0.62226 0.37757 0.0
C1807 C 0.65662 0.63622 0.38765 0.0
C1808 C 0.64007 0.6652 0.3954 0.0
C1809 C 0.64659 0.58353 0.37161 0.0
C1810 C 0.65014 0.54909 0.37889 0.0
C1811 C 0.6514 0.57928 0.35902 0.0
C1812 C 0.64848 0.61458 0.35088 0.0
C1813 C 0.67229 0.64984 0.35291 0.0
C1814 C 0.66917 0.68308 0.34524 0.0
C1815 C 0.64249 0.68136 0.33545 0.0
C1816 C 0.61896 0.64634 0.33331 0.0
C1817 C 0.62195 0.61301 0.34096 0.0
H1818 H 0.64012 0.70713 0.32952 0.0
H1819 H 0.65165 0.38208 0.40348 0.0
H1820 H 0.91177 0.39505 0.58758 0.0
H1821 H 0.86837 0.36556 0.60315 0.0
H1822 H 0.7798 0.45909 0.59722 0.0
H1823 H 0.82362 0.48913 0.58177 0.0
H1824 H 0.79095 0.44956 0.62037 0.0
H1825 H 0.76833 0.35875 0.58667 0.0
H1826 H 0.78591 0.31014 0.57049 0.0
H1827 H 0.83556 0.22887 0.59651 0.0
H1828 H 0.81898 0.27736 0.61284 0.0
H1829 H 0.6093 0.36411 0.64257 0.0
H1830 H 0.66586 0.39146 0.63092 0.0
H1831 H 0.7444 0.29921 0.64499 0.0
H1832 H 0.68744 0.27151 0.65684 0.0
H1833 H 0.74587 0.30494 0.61978 0.0
H1834 H 0.76113 0.39368 0.65365 0.0
H1835 H 0.73839 0.44084 0.66962 0.0
H1836 H 0.69864 0.52511 0.64294 0.0
H1837 H 0.72054 0.47818 0.6268 0.0
C1838 C 0.88274 0.40895 0.58947 0.0
C1839 C 0.8708 0.44412 0.58335 0.0
C1840 C 0.85799 0.3921 0.59839 0.0
C1841 C 0.82052 0.40975 0.60127 0.0
C1842 C 0.80857 0.4449 0.59517 0.0
C1843 C 0.83352 0.46201 0.58632 0.0
C1844 C 0.79406 0.39224 0.61082 0.0
C1845 C 0.78085 0.418 0.62017 0.0
C1846 C 0.78196 0.35067 0.61082 0.0
C1847 C 0.79293 0.32199 0.60097 0.0
C1848 C 0.78349 0.33077 0.58893 0.0
C1849 C 0.79319 0.30318 0.57973 0.0
C1850 C 0.81199 0.26651 0.58247 0.0
C1851 C 0.82114 0.25735 0.5944 0.0
C1852 C 0.81163 0.28489 0.60363 0.0
C1853 C 0.63872 0.34988 0.64333 0.0
C1854 C 0.64393 0.31558 0.6506 0.0
C1855 C 0.67108 0.3657 0.6367 0.0
C1856 C 0.70936 0.3475 0.63713 0.0
C1857 C 0.71507 0.31376 0.64458 0.0
C1858 C 0.68265 0.29814 0.65138 0.0
C1859 C 0.74219 0.36248 0.62911 0.0
C1860 C 0.75658 0.3363 0.62006 0.0
C1861 C 0.75516 0.40367 0.62932 0.0
C1862 C 0.74228 0.43224 0.639 0.0
C1863 C 0.74728 0.42214 0.65118 0.0
C1864 C 0.73457 0.44886 0.66027 0.0
C1865 C 0.71702 0.48592 0.65729 0.0
C1866 C 0.71223 0.49639 0.64523 0.0
C1867 C 0.72485 0.46975 0.63611 0.0
H1868 H 0.70718 0.50655 0.66434 0.0
H1869 H 0.81933 0.24513 0.57534 0.0
H1870 H 0.88164 0.6025 0.82616 0.0
H1871 H 0.89844 0.54536 0.83913 0.0
H1872 H 0.85067 0.61048 0.86981 0.0
H1873 H 0.83416 0.66801 0.85688 0.0
H1874 H 0.92464 0.57665 0.8745 0.0
H1875 H 0.79763 0.53304 0.85719 0.0
H1876 H 0.74981 0.5175 0.84062 0.0
H1877 H 0.83045 0.42638 0.82688 0.0
H1878 H 0.87916 0.4419 0.84322 0.0
H1879 H 0.94546 0.41867 0.91521 0.0
H1880 H 0.91148 0.46909 0.90282 0.0
H1881 H 0.94191 0.40002 0.87088 0.0
H1882 H 0.9735 0.34809 0.88344 0.0
H1883 H 0.87339 0.436 0.86699 0.0
H1884 H 0.00279 0.48298 0.88215 0.0
H1885 H 0.05406 0.49929 0.89768 0.0
H1886 H 0.9729 0.58416 0.91434 0.0
H1887 H 0.92086 0.56821 0.89893 0.0
C1888 C 0.87506 0.60484 0.83569 0.0
C1889 C 0.85682 0.63998 0.8405 0.0
C1890 C 0.88425 0.57193 0.84308 0.0
C1891 C 0.87545 0.57337 0.85544 0.0
C1892 C 0.85759 0.60856 0.86029 0.0
C1893 C 0.84807 0.64137 0.85289 0.0
C1894 C 0.88601 0.53871 0.86337 0.0
C1895 C 0.91286 0.54604 0.87297 0.0
C1896 C 0.87165 0.49846 0.86118 0.0
C1897 C 0.84223 0.48889 0.85138 0.0
C1898 C 0.80535 0.50992 0.85058 0.0
C1899 C 0.77805 0.50108 0.84123 0.0
C1900 C 0.78711 0.47099 0.8327 0.0
C1901 C 0.82348 0.44969 0.83349 0.0
C1902 C 0.85095 0.45848 0.8428 0.0
C1903 C 0.94334 0.4135 0.90558 0.0
C1904 C 0.96137 0.37923 0.90028 0.0
C1905 C 0.92455 0.44267 0.89847 0.0
C1906 C 0.92514 0.43923 0.88583 0.0
C1907 C 0.94111 0.40366 0.88057 0.0
C1908 C 0.95898 0.37383 0.88775 0.0
C1909 C 0.91209 0.47393 0.87816 0.0
C1910 C 0.88493 0.46665 0.86858 0.0
C1911 C 0.92657 0.51429 0.88024 0.0
C1912 C 0.95782 0.5241 0.88947 0.0
C1913 C 0.99579 0.50495 0.88917 0.0
C1914 C 0.025 0.51414 0.89794 0.0
C1915 C 0.01675 0.54258 0.90703 0.0
C1916 C 0.97925 0.56207 0.90732 0.0
C1917 C 0.94989 0.55303 0.89856 0.0
H1918 H 0.03946 0.54958 0.91382 0.0
H1919 H 0.76591 0.46411 0.82549 0.0
H1920 H 0.42873 0.61056 0.10234 0.0
H1921 H 0.37624 0.63555 0.11613 0.0
H1922 H 0.28317 0.58817 0.09217 0.0
H1923 H 0.33572 0.56554 0.07811 0.0
H1924 H 0.25986 0.6561 0.09977 0.0
H1925 H 0.31413 0.54025 0.11965 0.0
H1926 H 0.3673 0.49733 0.12839 0.0
H1927 H 0.39809 0.59247 0.15371 0.0
H1928 H 0.34545 0.63619 0.145 0.0
H1929 H 0.09538 0.65693 0.13994 0.0
H1930 H 0.15206 0.62965 0.12843 0.0
H1931 H 0.23563 0.70673 0.14837 0.0
H1932 H 0.17909 0.73447 0.16001 0.0
H1933 H 0.26433 0.62566 0.14339 0.0
H1934 H 0.20386 0.73972 0.12243 0.0
H1935 H 0.14562 0.77567 0.11365 0.0
H1936 H 0.12103 0.67377 0.09018 0.0
H1937 H 0.17884 0.63701 0.09886 0.0
C1938 C 0.39699 0.60578 0.10006 0.0
C1939 C 0.38599 0.58628 0.08923 0.0
C1940 C 0.36702 0.6197 0.10796 0.0
C1941 C 0.32561 0.61309 0.10534 0.0
C1942 C 0.31481 0.59372 0.09443 0.0
C1943 C 0.34474 0.58074 0.08641 0.0
C1944 C 0.29339 0.62662 0.11383 0.0
C1945 C 0.26077 0.64894 0.10927 0.0
C1946 C 0.29457 0.6179 0.1263 0.0
C1947 C 0.32614 0.59164 0.13159 0.0
C1948 C 0.33244 0.55212 0.12702 0.0
C1949 C 0.36245 0.52764 0.13198 0.0
C1950 C 0.38613 0.5422 0.14158 0.0
C1951 C 0.37977 0.58125 0.14626 0.0
C1952 C 0.34983 0.60589 0.14133 0.0
C1953 C 0.1258 0.66776 0.14206 0.0
C1954 C 0.13248 0.69843 0.15081 0.0
C1955 C 0.15816 0.65211 0.13544 0.0
C1956 C 0.19782 0.66676 0.13742 0.0
C1957 C 0.20512 0.69525 0.14668 0.0
C1958 C 0.1727 0.71106 0.15331 0.0
C1959 C 0.23106 0.65448 0.12924 0.0
C1960 C 0.26378 0.63269 0.13388 0.0
C1961 C 0.22952 0.66277 0.11679 0.0
C1962 C 0.19549 0.68548 0.11136 0.0
C1963 C 0.18594 0.72491 0.11543 0.0
C1964 C 0.15302 0.74544 0.11047 0.0
C1965 C 0.12956 0.72694 0.10142 0.0
C1966 C 0.13918 0.68802 0.09722 0.0
C1967 C 0.17206 0.66736 0.10213 0.0
H1968 H 0.10392 0.74273 0.09766 0.0
H1969 H 0.40935 0.5232 0.1454 0.0
H1970 H 0.26092 0.58646 0.82926 0.0
H1971 H 0.24882 0.5232 0.84025 0.0
H1972 H 0.13754 0.57198 0.85462 0.0
H1973 H 0.14951 0.63536 0.84365 0.0
H1974 H 0.18636 0.5348 0.87188 0.0
H1975 H 0.13135 0.50733 0.83232 0.0
H1976 H 0.13445 0.50286 0.81018 0.0
H1977 H 0.22958 0.41496 0.81245 0.0
H1978 H 0.22746 0.41938 0.83463 0.0
H1979 H 0.06764 0.34206 0.87885 0.0
H1980 H 0.0987 0.38799 0.86429 0.0
H1981 H 0.20739 0.39553 0.88598 0.0
H1982 H 0.17573 0.35085 0.90084 0.0
H1983 H 0.16514 0.40295 0.85038 0.0
H1984 H 0.23129 0.49788 0.88954 0.0
H1985 H 0.22613 0.50288 0.91166 0.0
H1986 H 0.10326 0.45753 0.91008 0.0
H1987 H 0.10729 0.45343 0.88792 0.0
C1988 C 0.23411 0.5838 0.83487 0.0
C1989 C 0.20618 0.61578 0.83567 0.0
C1990 C 0.22712 0.54761 0.84106 0.0
C1991 C 0.19222 0.54295 0.84817 0.0
C1992 C 0.16465 0.57508 0.84915 0.0
C1993 C 0.17139 0.61111 0.84287 0.0
C1994 C 0.18424 0.50454 0.85461 0.0
C1995 C 0.182 0.50592 0.86719 0.0
C1996 C 0.17852 0.46698 0.84845 0.0
C1997 C 0.17956 0.46403 0.83513 0.0
C1998 C 0.15317 0.48731 0.8281 0.0
C1999 C 0.1547 0.48474 0.81554 0.0
C2000 C 0.18228 0.45874 0.80991 0.0
C2001 C 0.20829 0.43515 0.81683 0.0
C2002 C 0.20692 0.43765 0.82939 0.0
C2003 C 0.09879 0.35211 0.88026 0.0
C2004 C 0.11908 0.34357 0.89105 0.0
C2005 C 0.11653 0.37841 0.87193 0.0
C2006 C 0.15487 0.39605 0.87424 0.0
C2007 C 0.17741 0.38288 0.88417 0.0
C2008 C 0.15937 0.3573 0.89263 0.0
C2009 C 0.1674 0.43315 0.86767 0.0
C2010 C 0.17029 0.43167 0.85508 0.0
C2011 C 0.17339 0.47085 0.87381 0.0
C2012 C 0.16979 0.47491 0.88709 0.0
C2013 C 0.20306 0.48931 0.89391 0.0
C2014 C 0.20032 0.49203 0.90645 0.0
C2015 C 0.16441 0.48047 0.91227 0.0
C2016 C 0.13105 0.4665 0.90555 0.0
C2017 C 0.13351 0.46409 0.893 0.0
H2018 H 0.16242 0.48238 0.92198 0.0
H2019 H 0.18343 0.4568 0.80019 0.0
H2020 H 0.16811 0.44794 0.60959 0.0
H2021 H 0.2232 0.43837 0.6242 0.0
H2022 H 0.30124 0.51764 0.60359 0.0
H2023 H 0.24594 0.52813 0.58913 0.0
H2024 H 0.32914 0.43139 0.60989 0.0
H2025 H 0.27661 0.55682 0.62676 0.0
H2026 H 0.22209 0.60018 0.63479 0.0
H2027 H 0.19869 0.51404 0.66281 0.0
H2028 H 0.25265 0.46981 0.65483 0.0
H2029 H 0.49339 0.40306 0.64602 0.0
H2030 H 0.44533 0.44784 0.63608 0.0
H2031 H 0.35103 0.40911 0.66054 0.0
H2032 H 0.39941 0.3659 0.67083 0.0
H2033 H 0.33303 0.48193 0.65216 0.0
H2034 H 0.37111 0.3533 0.63556 0.0
H2035 H 0.41895 0.30127 0.62838 0.0
H2036 H 0.46037 0.38139 0.60055 0.0
H2037 H 0.41327 0.43431 0.60774 0.0
C2038 C 0.19697 0.46349 0.60826 0.0
C2039 C 0.20299 0.48871 0.59828 0.0
C2040 C 0.22819 0.45823 0.61661 0.0
C2041 C 0.266 0.47759 0.61497 0.0
C2042 C 0.27208 0.50278 0.60502 0.0
C2043 C 0.24061 0.50872 0.5968 0.0
C2044 C 0.30005 0.46908 0.62319 0.0
C2045 C 0.33058 0.44319 0.61904 0.0
C2046 C 0.30066 0.48311 0.63527 0.0
C2047 C 0.26843 0.50982 0.64012 0.0
C2048 C 0.25958 0.54692 0.63456 0.0
C2049 C 0.22883 0.57171 0.63912 0.0
C2050 C 0.20687 0.55983 0.64928 0.0
C2051 C 0.2157 0.52319 0.65493 0.0
C2052 C 0.24639 0.49827 0.6504 0.0
C2053 C 0.46295 0.40576 0.64965 0.0
C2054 C 0.44989 0.38067 0.65907 0.0
C2055 C 0.43543 0.43112 0.64392 0.0
C2056 C 0.39424 0.43056 0.64728 0.0
C2057 C 0.38254 0.40973 0.65771 0.0
C2058 C 0.41033 0.38509 0.66363 0.0
C2059 C 0.36268 0.4447 0.6388 0.0
C2060 C 0.33224 0.47099 0.64291 0.0
C2061 C 0.36118 0.42986 0.62676 0.0
C2062 C 0.38904 0.39792 0.62227 0.0
C2063 C 0.39059 0.35991 0.62795 0.0
C2064 C 0.41757 0.33026 0.62388 0.0
C2065 C 0.44274 0.33803 0.61403 0.0
C2066 C 0.4409 0.37546 0.6082 0.0
C2067 C 0.4141 0.40531 0.61227 0.0
H2068 H 0.46361 0.31503 0.61089 0.0
H2069 H 0.18308 0.57906 0.6528 0.0
H2070 H 0.30127 0.3777 0.36598 0.0
H2071 H 0.31744 0.43934 0.37775 0.0
H2072 H 0.389 0.48544 0.34829 0.0
H2073 H 0.37218 0.42488 0.33637 0.0
H2074 H 0.4287 0.49173 0.3704 0.0
H2075 H 0.29783 0.52277 0.35338 0.0
H2076 H 0.22496 0.51018 0.34936 0.0
H2077 H 0.20006 0.51354 0.38728 0.0
H2078 H 0.27288 0.52549 0.39154 0.0
H2079 H 0.46492 0.69316 0.38747 0.0
H2080 H 0.43037 0.63963 0.37564 0.0
H2081 H 0.37352 0.59448 0.40788 0.0
H2082 H 0.40919 0.6473 0.41978 0.0
H2083 H 0.32375 0.58737 0.3852 0.0
H2084 H 0.45114 0.55501 0.40273 0.0
H2085 H 0.52333 0.56562 0.40783 0.0
H2086 H 0.55498 0.55816 0.3704 0.0
H2087 H 0.48259 0.54979 0.365 0.0
C2088 C 0.32031 0.401 0.36198 0.0
C2089 C 0.33576 0.39589 0.35024 0.0
C2090 C 0.32953 0.43623 0.36873 0.0
C2091 C 0.35436 0.46706 0.36389 0.0
C2092 C 0.37002 0.46195 0.35224 0.0
C2093 C 0.36064 0.42699 0.34547 0.0
C2094 C 0.3647 0.5045 0.37097 0.0
C2095 C 0.40577 0.51289 0.37348 0.0
C2096 C 0.33468 0.53145 0.37535 0.0
C2097 C 0.29087 0.52461 0.37279 0.0
C2098 C 0.27686 0.52048 0.36087 0.0
C2099 C 0.23558 0.51351 0.35854 0.0
C2100 C 0.20794 0.51095 0.36806 0.0
C2101 C 0.22152 0.51547 0.37992 0.0
C2102 C 0.26279 0.52236 0.38229 0.0
C2103 C 0.44341 0.67311 0.39192 0.0
C2104 C 0.43898 0.67474 0.40447 0.0
C2105 C 0.42399 0.64231 0.38518 0.0
C2106 C 0.39958 0.61294 0.3909 0.0
C2107 C 0.39197 0.61699 0.40329 0.0
C2108 C 0.41212 0.64729 0.41006 0.0
C2109 C 0.38776 0.57487 0.38437 0.0
C2110 C 0.3466 0.56626 0.38204 0.0
C2111 C 0.41763 0.54727 0.38029 0.0
C2112 C 0.46125 0.55269 0.38344 0.0
C2113 C 0.47333 0.55657 0.39555 0.0
C2114 C 0.51431 0.56217 0.3985 0.0
C2115 C 0.54365 0.56298 0.38944 0.0
C2116 C 0.53214 0.55803 0.3774 0.0
C2117 C 0.49109 0.55308 0.37438 0.0
H2118 H 0.57527 0.5673 0.3918 0.0
H2119 H 0.17599 0.50557 0.36624 0.0
H2120 H 0.31033 0.41901 0.04247 0.0
H2121 H 0.24894 0.39599 0.03226 0.0
H2122 H 0.25076 0.50394 0.01055 0.0
H2123 H 0.30935 0.52978 0.02172 0.0
H2124 H 0.17607 0.47778 0.01199 0.0
H2125 H 0.30408 0.41509 0.00148 0.0
H2126 H 0.36745 0.38202 0.00766 0.0
H2127 H 0.29845 0.28322 0.02277 0.0
H2128 H 0.23458 0.31592 0.01668 0.0
H2129 H 0.13198 0.40692 0.95315 0.0
H2130 H 0.16639 0.43053 0.97143 0.0
H2131 H 0.12011 0.32626 0.99052 0.0
H2132 H 0.08483 0.30246 0.97221 0.0
H2133 H 0.20817 0.34475 0.99281 0.0
H2134 H 0.07782 0.40841 0.99722 0.0
H2135 H 0.01995 0.44815 0.98982 0.0
H2136 H 0.09914 0.55098 0.98412 0.0
H2137 H 0.15758 0.5117 0.9913 0.0
C2138 C 0.29694 0.43896 0.03593 0.0
C2139 C 0.31613 0.4758 0.03267 0.0
C2140 C 0.26189 0.42534 0.02995 0.0
C2141 C 0.24633 0.44727 0.02024 0.0
C2142 C 0.26266 0.48596 0.01783 0.0
C2143 C 0.29683 0.50034 0.0241 0.0
C2144 C 0.21769 0.42767 0.01151 0.0
C2145 C 0.18297 0.44864 0.00784 0.0
C2146 C 0.22657 0.38958 0.00605 0.0
C2147 C 0.26471 0.36794 0.00868 0.0
C2148 C 0.30252 0.3861 0.00601 0.0
C2149 C 0.3385 0.36748 0.00952 0.0
C2150 C 0.33704 0.33051 0.0156 0.0
C2151 C 0.29954 0.31188 0.01807 0.0
C2152 C 0.26344 0.33031 0.01453 0.0
C2153 C 0.12917 0.38883 0.9612 0.0
C2154 C 0.10572 0.35275 0.96123 0.0
C2155 C 0.14863 0.40255 0.97166 0.0
C2156 C 0.14538 0.38032 0.98231 0.0
C2157 C 0.12267 0.34391 0.98237 0.0
C2158 C 0.10257 0.33043 0.97193 0.0
C2159 C 0.16684 0.39503 0.99325 0.0
C2160 C 0.20052 0.37327 0.99722 0.0
C2161 C 0.15752 0.4329 0.99871 0.0
C2162 C 0.12215 0.457 0.99474 0.0
C2163 C 0.08293 0.43944 0.99434 0.0
C2164 C 0.05002 0.46188 0.99019 0.0
C2165 C 0.05592 0.50201 0.98648 0.0
C2166 C 0.09464 0.51988 0.98699 0.0
C2167 C 0.12765 0.49756 0.99112 0.0
H2168 H 0.03052 0.51928 0.98319 0.0
H2169 H 0.36495 0.31625 0.01838 0.0
H2170 H 0.28938 0.53577 0.78304 0.0
H2171 H 0.31181 0.48172 0.76931 0.0
H2172 H 0.27715 0.55404 0.73889 0.0
H2173 H 0.25427 0.60789 0.75257 0.0
H2174 H 0.25802 0.47601 0.73461 0.0
H2175 H 0.37605 0.54941 0.74768 0.0
H2176 H 0.42361 0.58106 0.76227 0.0
H2177 H 0.44616 0.4642 0.77768 0.0
H2178 H 0.39824 0.43191 0.76329 0.0
H2179 H 0.3853 0.36101 0.6931 0.0
H2180 H 0.34844 0.41281 0.70476 0.0
H2181 H 0.37697 0.35003 0.73755 0.0
H2182 H 0.41442 0.29929 0.72601 0.0
H2183 H 0.3991 0.42714 0.73932 0.0
H2184 H 0.27795 0.35473 0.72551 0.0
H2185 H 0.23202 0.32591 0.70998 0.0
H2186 H 0.21822 0.44439 0.69468 0.0
H2187 H 0.26444 0.47383 0.71004 0.0
C2188 C 0.28631 0.54001 0.77343 0.0
C2189 C 0.26997 0.57609 0.76891 0.0
C2190 C 0.29919 0.50914 0.76558 0.0
C2191 C 0.29669 0.51394 0.75303 0.0
C2192 C 0.2793 0.54946 0.74851 0.0
C2193 C 0.26612 0.58021 0.75636 0.0
C2194 C 0.31377 0.48268 0.74467 0.0
C2195 C 0.289 0.46558 0.73557 0.0
C2196 C 0.35422 0.46903 0.74585 0.0
C2197 C 0.38326 0.48829 0.75447 0.0
C2198 C 0.39093 0.53049 0.75423 0.0
C2199 C 0.41798 0.54855 0.76246 0.0
C2200 C 0.43782 0.52467 0.77091 0.0
C2201 C 0.43073 0.48266 0.77113 0.0
C2202 C 0.40365 0.46446 0.76294 0.0
C2203 C 0.38252 0.35769 0.70275 0.0
C2204 C 0.40264 0.32612 0.70865 0.0
C2205 C 0.36161 0.38739 0.70943 0.0
C2206 C 0.36003 0.38551 0.72208 0.0
C2207 C 0.378 0.35245 0.72784 0.0
C2208 C 0.39917 0.32326 0.72122 0.0
C2209 C 0.34295 0.41929 0.72953 0.0
C2210 C 0.36801 0.43732 0.73839 0.0
C2211 C 0.30303 0.43404 0.728 0.0
C2212 C 0.27493 0.4164 0.71885 0.0
C2213 C 0.26532 0.37458 0.71878 0.0
C2214 C 0.2392 0.35814 0.71002 0.0
C2215 C 0.22229 0.38328 0.70133 0.0
C2216 C 0.23136 0.42494 0.70141 0.0
C2217 C 0.25748 0.44152 0.71015 0.0
H2218 H 0.2021 0.3705 0.69455 0.0
H2219 H 0.45876 0.5387 0.77727 0.0
H2220 H 0.12139 0.59097 0.4889 0.0
H2221 H 0.18121 0.60879 0.47669 0.0
H2222 H 0.25432 0.61578 0.50899 0.0
H2223 H 0.19414 0.60147 0.52106 0.0
H2224 H 0.27696 0.6722 0.4968 0.0
H2225 H 0.25535 0.53262 0.48703 0.0
H2226 H 0.21798 0.47109 0.48019 0.0
H2227 H 0.20082 0.52397 0.44542 0.0
H2228 H 0.23762 0.58609 0.4521 0.0
H2229 H 0.45176 0.62128 0.45116 0.0
H2230 H 0.39233 0.59921 0.46282 0.0
H2231 H 0.34802 0.72224 0.4633 0.0
H2232 H 0.40712 0.74456 0.45189 0.0
H2233 H 0.31386 0.59734 0.45948 0.0
H2234 H 0.3013 0.74204 0.49154 0.0
H2235 H 0.3464 0.78975 0.50264 0.0
H2236 H 0.44683 0.70944 0.49742 0.0
H2237 H 0.40206 0.66001 0.48698 0.0
C2238 C 0.1503 0.59669 0.4933 0.0
C2239 C 0.15331 0.59513 0.50589 0.0
C2240 C 0.18459 0.60642 0.48635 0.0
C2241 C 0.22276 0.61319 0.49185 0.0
C2242 C 0.22546 0.61112 0.50445 0.0
C2243 C 0.19108 0.60273 0.51138 0.0
C2244 C 0.2598 0.62346 0.48464 0.0
C2245 C 0.28487 0.65585 0.48861 0.0
C2246 C 0.27116 0.60138 0.47416 0.0
C2247 C 0.24886 0.56418 0.47011 0.0
C2248 C 0.24332 0.53126 0.47795 0.0
C2249 C 0.22229 0.49626 0.4741 0.0
C2250 C 0.20693 0.49367 0.46239 0.0
C2251 C 0.21266 0.52605 0.4545 0.0
C2252 C 0.23363 0.56116 0.45831 0.0
C2253 C 0.4293 0.64359 0.45372 0.0
C2254 C 0.43451 0.68473 0.45062 0.0
C2255 C 0.39525 0.63092 0.46036 0.0
C2256 C 0.36587 0.65914 0.46408 0.0
C2257 C 0.37052 0.69997 0.46072 0.0
C2258 C 0.40441 0.71264 0.45412 0.0
C2259 C 0.33055 0.64633 0.4716 0.0
C2260 C 0.30578 0.61371 0.46764 0.0
C2261 C 0.32063 0.66681 0.48249 0.0
C2262 C 0.34831 0.69751 0.48822 0.0
C2263 C 0.33301 0.73449 0.49273 0.0
C2264 C 0.35849 0.76178 0.49897 0.0
C2265 C 0.3995 0.75284 0.5006 0.0
C2266 C 0.41511 0.71645 0.49607 0.0
C2267 C 0.38963 0.68869 0.49002 0.0
H2268 H 0.41913 0.77399 0.50545 0.0
H2269 H 0.19068 0.46653 0.45942 0.0
H2270 H 0.1408 0.42584 0.26155 0.0
H2271 H 0.12085 0.48026 0.24806 0.0
H2272 H 0.24698 0.51322 0.24291 0.0
H2273 H 0.26707 0.46032 0.25687 0.0
H2274 H 0.20529 0.57826 0.24662 0.0
H2275 H 0.19107 0.46134 0.22158 0.0
H2276 H 0.16765 0.39288 0.21524 0.0
H2277 H 0.04398 0.4332 0.21531 0.0
H2278 H 0.06662 0.50176 0.22182 0.0
H2279 H 0.1137 0.6721 0.18817 0.0
H2280 H 0.14148 0.61358 0.19872 0.0
H2281 H 0.1055 0.66667 0.23272 0.0
H2282 H 0.07887 0.72556 0.22231 0.0
H2283 H 0.10999 0.55726 0.21244 0.0
H2284 H 0.1723 0.64608 0.25429 0.0
H2285 H 0.20088 0.71404 0.25917 0.0
H2286 H 0.23957 0.72781 0.22252 0.0
H2287 H 0.21179 0.65971 0.21746 0.0
C2288 C 0.1643 0.44486 0.25763 0.0
C2289 C 0.20557 0.43871 0.26031 0.0
C2290 C 0.15286 0.47562 0.24979 0.0
C2291 C 0.18245 0.50048 0.24435 0.0
C2292 C 0.22364 0.49429 0.24696 0.0
C2293 C 0.23509 0.46377 0.25487 0.0
C2294 C 0.17041 0.5341 0.23635 0.0
C2295 C 0.18455 0.57357 0.23913 0.0
C2296 C 0.14413 0.52789 0.22638 0.0
C2297 C 0.1305 0.48661 0.2224 0.0
C2298 C 0.15883 0.45553 0.22038 0.0
C2299 C 0.14571 0.4167 0.21672 0.0
C2300 C 0.10434 0.40863 0.21492 0.0
C2301 C 0.07602 0.43944 0.21672 0.0
C2302 C 0.08899 0.4783 0.2204 0.0
C2303 C 0.11185 0.6713 0.1979 0.0
C2304 C 0.09469 0.70369 0.20443 0.0
C2305 C 0.12762 0.63783 0.2039 0.0
C2306 C 0.12624 0.63612 0.21652 0.0
C2307 C 0.10788 0.66783 0.223 0.0
C2308 C 0.09261 0.70146 0.21704 0.0
C2309 C 0.14394 0.6013 0.22297 0.0
C2310 C 0.13091 0.56172 0.2199 0.0
C2311 C 0.17214 0.60718 0.23247 0.0
C2312 C 0.18964 0.6479 0.23548 0.0
C2313 C 0.18711 0.66351 0.24729 0.0
C2314 C 0.20313 0.70208 0.25008 0.0
C2315 C 0.22193 0.72527 0.24115 0.0
C2316 C 0.22489 0.70987 0.22942 0.0
C2317 C 0.20898 0.6713 0.22658 0.0
H2318 H 0.23425 0.75515 0.24333 0.0
H2319 H 0.09424 0.37855 0.21209 0.0
loop_
_geom_bond_atom_site_label_1
_geom_bond_atom_site_label_2
_geom_bond_distance
_geom_bond_site_symmetry_2
_ccdc_geom_bond_type
H0 O26 0.856 . S
H1 O29 0.854 . S
H2 C37 0.930 . S
H3 C38 0.930 . S
H4 C40 0.930 1_565 S
H5 C41 0.930 1_565 S
H6 C43 0.940 . S
H7 C44 0.930 . S
H8 C46 0.930 . S
H9 C47 0.929 . S
H10 C49 0.930 . S
H11 C50 0.931 . S
H12 C52 0.930 . S
H13 C53 0.929 1_565 S
H14 C55 0.931 . S
H15 C56 0.930 . S
H16 C58 0.930 . S
H17 C59 0.932 . S
H18 C61 0.930 1_545 S
H19 C62 0.929 . S
H20 C64 0.931 . S
H21 C65 0.930 . S
H22 C67 0.929 . S
H23 C68 0.931 1_545 S
H24 C70 0.930 . S
H25 C71 0.929 . S
O26 H0 0.856 . S
O26 C72 1.300 . S
O27 C72 1.209 . S
O28 C73 1.199 . S
O29 H1 0.854 . S
O29 C73 1.297 . S
C30 C31 1.404 1_455 S
C30 C35 1.397 . S
C30 C36 1.492 . S
C31 C30 1.404 1_655 S
C31 C32 1.396 . S
C31 C42 1.492 1_655 S
C32 C31 1.396 . S
C32 C33 1.397 . S
C32 C48 1.509 . S
C33 C32 1.397 . S
C33 C34 1.412 1_545 S
C33 C54 1.484 1_545 S
C34 C33 1.412 1_565 S
C34 C35 1.388 1_665 S
C34 C60 1.490 . S
C35 C30 1.397 . S
C35 C34 1.388 1_445 S
C35 C66 1.519 1_545 S
C36 C30 1.492 . S
C36 C37 1.363 . S
C36 C41 1.390 . S
C37 H2 0.930 . S
C37 C36 1.363 . S
C37 C38 1.372 . S
C38 H3 0.930 . S
C38 C37 1.372 . S
C38 C39 1.383 . S
C39 C38 1.383 . S
C39 C40 1.395 . S
C40 H4 0.930 1_545 S
C40 C39 1.395 . S
C40 C41 1.362 . S
C41 H5 0.930 1_545 S
C41 C36 1.390 . S
C41 C40 1.362 . S
C42 C31 1.492 1_455 S
C42 C43 1.373 1_455 S
C42 C47 1.397 . S
C43 H6 0.940 . S
C43 C42 1.373 1_655 S
C43 C44 1.371 1_655 S
C44 H7 0.930 . S
C44 C43 1.371 1_455 S
C44 C45 1.376 . S
C45 C44 1.376 . S
C45 C46 1.378 . S
C45 C72 1.486 . S
C46 H8 0.930 . S
C46 C45 1.378 . S
C46 C47 1.376 . S
C47 H9 0.929 . S
C47 C42 1.397 . S
C47 C46 1.376 . S
C48 C32 1.509 . S
C48 C49 1.391 . S
C48 C53 1.386 . S
C49 H10 0.930 . S
C49 C48 1.391 . S
C49 C50 1.375 . S
C50 H11 0.931 . S
C50 C49 1.375 . S
C50 C51 1.375 . S
C51 C50 1.375 . S
C51 C52 1.361 . S
C52 H12 0.930 . S
C52 C51 1.361 . S
C52 C53 1.399 . S
C53 H13 0.929 1_545 S
C53 C48 1.386 . S
C53 C52 1.399 . S
C54 C33 1.484 1_565 S
C54 C55 1.391 1_565 S
C54 C59 1.364 . S
C55 H14 0.931 . S
C55 C54 1.391 1_545 S
C55 C56 1.372 . S
C56 H15 0.930 . S
C56 C55 1.372 . S
C56 C57 1.397 1_545 S
C57 C56 1.397 1_565 S
C57 C58 1.390 . S
C57 C73 1.476 . S
C58 H16 0.930 . S
C58 C57 1.390 . S
C58 C59 1.366 . S
C59 H17 0.932 . S
C59 C54 1.364 . S
C59 C58 1.366 . S
C60 C34 1.490 . S
C60 C61 1.380 . S
C60 C65 1.386 . S
C61 H18 0.930 1_565 S
C61 C60 1.380 . S
C61 C62 1.381 . S
C62 H19 0.929 . S
C62 C61 1.381 . S
C62 C63 1.371 . S
C63 C62 1.371 . S
C63 C64 1.380 . S
C64 H20 0.931 . S
C64 C63 1.380 . S
C64 C65 1.387 . S
C65 H21 0.930 . S
C65 C60 1.386 . S
C65 C64 1.387 . S
C66 C35 1.519 1_565 S
C66 C67 1.377 1_565 S
C66 C71 1.361 . S
C67 H22 0.929 . S
C67 C66 1.377 1_545 S
C67 C68 1.386 1_545 S
C68 H23 0.931 1_565 S
C68 C67 1.386 1_565 S
C68 C69 1.363 . S
C69 C68 1.363 . S
C69 C70 1.385 . S
C70 H24 0.930 . S
C70 C69 1.385 . S
C70 C71 1.396 . S
C71 H25 0.929 . S
C71 C66 1.361 . S
C71 C70 1.396 . S
C72 O26 1.300 . S
C72 O27 1.209 . S
C72 C45 1.486 . S
C73 O28 1.199 . S
C73 O29 1.297 . S
C73 C57 1.476 . S
H74 O100 0.856 . S
H75 O103 0.854 . S
H76 C111 0.930 . S
H77 C112 0.930 . S
H78 C114 0.930 . S
H79 C115 0.930 . S
H80 C117 0.931 . S
H81 C118 0.930 . S
H82 C120 0.930 . S
H83 C121 0.929 . S
H84 C123 0.930 . S
H85 C124 0.931 . S
H86 C126 0.930 . S
H87 C127 0.929 . S
H88 C129 0.931 . S
H89 C130 0.930 . S
H90 C132 0.930 . S
H91 C133 0.932 . S
H92 C135 0.930 . S
H93 C136 0.929 . S
H94 C138 0.931 . S
H95 C139 0.930 . S
H96 C141 0.929 . S
H97 C142 0.931 . S
H98 C144 0.930 . S
H99 C145 0.929 . S
O100 H74 0.856 . S
O100 C146 1.300 . S
O101 C146 1.209 . S
O102 C147 1.199 . S
O103 H75 0.854 . S
O103 C147 1.297 . S
C104 C105 1.404 . S
C104 C109 1.397 . S
C104 C110 1.492 . S
C105 C104 1.404 . S
C105 C106 1.396 . S
C105 C116 1.492 . S
C106 C105 1.396 . S
C106 C107 1.397 . S
C106 C122 1.509 . S
C107 C106 1.397 . S
C107 C108 1.412 . S
C107 C128 1.485 . S
C108 C107 1.412 . S
C108 C109 1.388 . S
C108 C134 1.490 . S
C109 C104 1.397 . S
C109 C108 1.388 . S
C109 C140 1.519 . S
C110 C104 1.492 . S
C110 C111 1.363 . S
C110 C115 1.390 . S
C111 H76 0.930 . S
C111 C110 1.363 . S
C111 C112 1.372 . S
C112 H77 0.930 . S
C112 C111 1.372 . S
C112 C113 1.383 . S
C113 C112 1.383 . S
C113 C114 1.395 . S
C114 H78 0.930 . S
C114 C113 1.395 . S
C114 C115 1.362 . S
C115 H79 0.930 . S
C115 C110 1.390 . S
C115 C114 1.362 . S
C116 C105 1.492 . S
C116 C117 1.377 . S
C116 C121 1.397 . S
C117 H80 0.931 . S
C117 C116 1.377 . S
C117 C118 1.376 . S
C118 H81 0.930 . S
C118 C117 1.376 . S
C118 C119 1.376 . S
C119 C118 1.376 . S
C119 C120 1.378 . S
C119 C146 1.486 . S
C120 H82 0.930 . S
C120 C119 1.378 . S
C120 C121 1.376 . S
C121 H83 0.929 . S
C121 C116 1.397 . S
C121 C120 1.376 . S
C122 C106 1.509 . S
C122 C123 1.391 . S
C122 C127 1.386 . S
C123 H84 0.930 . S
C123 C122 1.391 . S
C123 C124 1.375 . S
C124 H85 0.931 . S
C124 C123 1.375 . S
C124 C125 1.375 . S
C125 C124 1.375 . S
C125 C126 1.361 . S
C126 H86 0.930 . S
C126 C125 1.361 . S
C126 C127 1.399 . S
C127 H87 0.929 . S
C127 C122 1.386 . S
C127 C126 1.399 . S
C128 C107 1.485 . S
C128 C129 1.394 . S
C128 C133 1.360 . S
C129 H88 0.931 . S
C129 C128 1.394 . S
C129 C130 1.372 . S
C130 H89 0.930 . S
C130 C129 1.372 . S
C130 C131 1.397 . S
C131 C130 1.397 . S
C131 C132 1.390 . S
C131 C147 1.476 1_565 S
C132 H90 0.930 . S
C132 C131 1.390 . S
C132 C133 1.366 . S
C133 H91 0.932 . S
C133 C128 1.360 . S
C133 C132 1.366 . S
C134 C108 1.490 . S
C134 C135 1.380 . S
C134 C139 1.386 . S
C135 H92 0.930 . S
C135 C134 1.380 . S
C135 C136 1.381 . S
C136 H93 0.929 . S
C136 C135 1.381 . S
C136 C137 1.371 . S
C137 C136 1.371 . S
C137 C138 1.380 . S
C138 H94 0.931 . S
C138 C137 1.380 . S
C138 C139 1.387 . S
C139 H95 0.930 . S
C139 C134 1.386 . S
C139 C138 1.387 . S
C140 C109 1.519 . S
C140 C141 1.377 . S
C140 C145 1.361 . S
C141 H96 0.929 . S
C141 C140 1.377 . S
C141 C142 1.386 . S
C142 H97 0.931 . S
C142 C141 1.386 . S
C142 C143 1.363 . S
C143 C142 1.363 . S
C143 C144 1.385 . S
C144 H98 0.930 . S
C144 C143 1.385 . S
C144 C145 1.396 . S
C145 H99 0.929 . S
C145 C140 1.361 . S
C145 C144 1.396 . S
C146 O100 1.300 . S
C146 O101 1.209 . S
C146 C119 1.486 . S
C147 O102 1.199 . S
C147 O103 1.297 . S
C147 C131 1.476 1_545 S
H148 O174 0.856 . S
H149 O177 0.854 . S
H150 C185 0.930 . S
H151 C186 0.930 . S
H152 C188 0.930 . S
H153 C189 0.930 . S
H154 C191 0.931 . S
H155 C192 0.930 . S
H156 C194 0.930 1_545 S
H157 C195 0.929 . S
H158 C197 0.930 . S
H159 C198 0.931 . S
H160 C200 0.930 . S
H161 C201 0.929 . S
H162 C203 0.931 . S
H163 C204 0.930 . S
H164 C206 0.930 . S
H165 C207 0.932 . S
H166 C209 0.930 . S
H167 C210 0.929 . S
H168 C212 0.931 . S
H169 C213 0.930 . S
H170 C215 0.929 . S
H171 C216 0.931 . S
H172 C218 0.930 . S
H173 C219 0.929 . S
O174 H148 0.856 . S
O174 C220 1.300 . S
O175 C220 1.209 . S
O176 C221 1.199 . S
O177 H149 0.854 . S
O177 C221 1.297 . S
C178 C179 1.404 . S
C178 C183 1.397 . S
C178 C184 1.492 . S
C179 C178 1.404 . S
C179 C180 1.396 . S
C179 C190 1.492 1_545 S
C180 C179 1.396 . S
C180 C181 1.397 . S
C180 C196 1.512 . S
C181 C180 1.397 . S
C181 C182 1.412 . S
C181 C202 1.485 . S
C182 C181 1.412 . S
C182 C183 1.388 . S
C182 C208 1.490 . S
C183 C178 1.397 . S
C183 C182 1.388 . S
C183 C214 1.519 . S
C184 C178 1.492 . S
C184 C185 1.363 1_545 S
C184 C189 1.390 . S
C185 H150 0.930 . S
C185 C184 1.363 1_565 S
C185 C186 1.372 . S
C186 H151 0.930 . S
C186 C185 1.372 . S
C186 C187 1.383 . S
C187 C186 1.383 . S
C187 C188 1.395 1_565 S
C188 H152 0.930 . S
C188 C187 1.395 1_545 S
C188 C189 1.362 . S
C189 H153 0.930 . S
C189 C184 1.390 . S
C189 C188 1.362 . S
C190 C179 1.492 1_565 S
C190 C191 1.377 . S
C190 C195 1.397 1_565 S
C191 H154 0.931 . S
C191 C190 1.377 . S
C191 C192 1.376 . S
C192 H155 0.930 . S
C192 C191 1.376 . S
C192 C193 1.376 . S
C193 C192 1.376 . S
C193 C194 1.378 . S
C193 C220 1.486 . S
C194 H156 0.930 1_565 S
C194 C193 1.378 . S
C194 C195 1.376 1_565 S
C195 H157 0.929 . S
C195 C190 1.397 1_545 S
C195 C194 1.376 1_545 S
C196 C180 1.512 . S
C196 C197 1.382 1_545 S
C196 C201 1.392 . S
C197 H158 0.930 . S
C197 C196 1.382 1_565 S
C197 C198 1.375 . S
C198 H159 0.931 . S
C198 C197 1.375 . S
C198 C199 1.375 . S
C199 C198 1.375 . S
C199 C200 1.361 1_565 S
C200 H160 0.930 . S
C200 C199 1.361 1_545 S
C200 C201 1.399 . S
C201 H161 0.929 . S
C201 C196 1.392 . S
C201 C200 1.399 . S
C202 C181 1.485 . S
C202 C203 1.394 . S
C202 C207 1.360 . S
C203 H162 0.931 . S
C203 C202 1.394 . S
C203 C204 1.372 . S
C204 H163 0.930 . S
C204 C203 1.372 . S
C204 C205 1.397 . S
C205 C204 1.397 . S
C205 C206 1.390 . S
C205 C221 1.476 . S
C206 H164 0.930 . S
C206 C205 1.390 . S
C206 C207 1.366 . S
C207 H165 0.932 . S
C207 C202 1.360 . S
C207 C206 1.366 . S
C208 C182 1.490 . S
C208 C209 1.380 . S
C208 C213 1.386 . S
C209 H166 0.930 . S
C209 C208 1.380 . S
C209 C210 1.381 . S
C210 H167 0.929 . S
C210 C209 1.381 . S
C210 C211 1.371 . S
C211 C210 1.371 . S
C211 C212 1.380 . S
C212 H168 0.931 . S
C212 C211 1.380 . S
C212 C213 1.387 . S
C213 H169 0.930 . S
C213 C208 1.386 . S
C213 C212 1.387 . S
C214 C183 1.519 . S
C214 C215 1.377 . S
C214 C219 1.361 . S
C215 H170 0.929 . S
C215 C214 1.377 . S
C215 C216 1.386 . S
C216 H171 0.931 . S
C216 C215 1.386 . S
C216 C217 1.363 . S
C217 C216 1.363 . S
C217 C218 1.385 . S
C218 H172 0.930 . S
C218 C217 1.385 . S
C218 C219 1.396 . S
C219 H173 0.929 . S
C219 C214 1.361 . S
C219 C218 1.396 . S
C220 O174 1.300 . S
C220 O175 1.209 . S
C220 C193 1.486 . S
C221 O176 1.199 . S
C221 O177 1.297 . S
C221 C205 1.476 . S
H222 O248 0.856 . S
H223 O251 0.854 . S
H224 C259 0.930 . S
H225 C260 0.930 . S
H226 C262 0.930 . S
H227 C263 0.930 . S
H228 C265 0.931 . S
H229 C266 0.930 . S
H230 C268 0.930 . S
H231 C269 0.929 . S
H232 C271 0.930 . S
H233 C272 0.931 . S
H234 C274 0.930 . S
H235 C275 0.929 . S
H236 C277 0.931 . S
H237 C278 0.930 . S
H238 C280 0.930 . S
H239 C281 0.932 . S
H240 C283 0.930 . S
H241 C284 0.929 . S
H242 C286 0.931 . S
H243 C287 0.930 . S
H244 C289 0.929 . S
H245 C290 0.931 . S
H246 C292 0.930 . S
H247 C293 0.929 . S
O248 H222 0.856 . S
O248 C294 1.300 . S
O249 C294 1.209 . S
O250 C295 1.199 . S
O251 H223 0.854 . S
O251 C295 1.297 . S
C252 C253 1.404 . S
C252 C257 1.397 . S
C252 C258 1.492 . S
C253 C252 1.404 . S
C253 C254 1.396 . S
C253 C264 1.492 . S
C254 C253 1.396 . S
C254 C255 1.397 . S
C254 C270 1.509 . S
C255 C254 1.397 . S
C255 C256 1.412 . S
C255 C276 1.485 . S
C256 C255 1.412 . S
C256 C257 1.388 . S
C256 C282 1.490 . S
C257 C252 1.397 . S
C257 C256 1.388 . S
C257 C288 1.519 . S
C258 C252 1.492 . S
C258 C259 1.363 . S
C258 C263 1.390 . S
C259 H224 0.930 . S
C259 C258 1.363 . S
C259 C260 1.372 . S
C260 H225 0.930 . S
C260 C259 1.372 . S
C260 C261 1.383 . S
C261 C260 1.383 . S
C261 C262 1.395 . S
C262 H226 0.930 . S
C262 C261 1.395 . S
C262 C263 1.362 . S
C263 H227 0.930 . S
C263 C258 1.390 . S
C263 C262 1.362 . S
C264 C253 1.492 . S
C264 C265 1.377 . S
C264 C269 1.397 . S
C265 H228 0.931 . S
C265 C264 1.377 . S
C265 C266 1.376 . S
C266 H229 0.930 . S
C266 C265 1.376 . S
C266 C267 1.376 . S
C267 C266 1.376 . S
C267 C268 1.378 . S
C267 C294 1.486 . S
C268 H230 0.930 . S
C268 C267 1.378 . S
C268 C269 1.376 . S
C269 H231 0.929 . S
C269 C264 1.397 . S
C269 C268 1.376 . S
C270 C254 1.509 . S
C270 C271 1.391 . S
C270 C275 1.386 . S
C271 H232 0.930 . S
C271 C270 1.391 . S
C271 C272 1.375 . S
C272 H233 0.931 . S
C272 C271 1.375 . S
C272 C273 1.375 . S
C273 C272 1.375 . S
C273 C274 1.361 . S
C274 H234 0.930 . S
C274 C273 1.361 . S
C274 C275 1.399 . S
C275 H235 0.929 . S
C275 C270 1.386 . S
C275 C274 1.399 . S
C276 C255 1.485 . S
C276 C277 1.394 . S
C276 C281 1.360 . S
C277 H236 0.931 . S
C277 C276 1.394 . S
C277 C278 1.372 . S
C278 H237 0.930 . S
C278 C277 1.372 . S
C278 C279 1.397 . S
C279 C278 1.397 . S
C279 C280 1.390 . S
C279 C295 1.476 . S
C280 H238 0.930 . S
C280 C279 1.390 . S
C280 C281 1.366 . S
C281 H239 0.932 . S
C281 C276 1.360 . S
C281 C280 1.366 . S
C282 C256 1.490 . S
C282 C283 1.380 . S
C282 C287 1.386 . S
C283 H240 0.930 . S
C283 C282 1.380 . S
C283 C284 1.381 . S
C284 H241 0.929 . S
C284 C283 1.381 . S
C284 C285 1.371 . S
C285 C284 1.371 . S
C285 C286 1.380 . S
C286 H242 0.931 . S
C286 C285 1.380 . S
C286 C287 1.387 . S
C287 H243 0.930 . S
C287 C282 1.386 . S
C287 C286 1.387 . S
C288 C257 1.519 . S
C288 C289 1.377 . S
C288 C293 1.361 . S
C289 H244 0.929 . S
C289 C288 1.377 . S
C289 C290 1.386 . S
C290 H245 0.931 . S
C290 C289 1.386 . S
C290 C291 1.363 . S
C291 C290 1.363 . S
C291 C292 1.385 . S
C292 H246 0.930 . S
C292 C291 1.385 . S
C292 C293 1.396 . S
C293 H247 0.929 . S
C293 C288 1.361 . S
C293 C292 1.396 . S
C294 O248 1.300 . S
C294 O249 1.209 . S
C294 C267 1.486 . S
C295 O250 1.199 . S
C295 O251 1.297 . S
C295 C279 1.476 . S
H296 O322 0.856 . S
H297 O325 0.854 . S
H298 C333 0.930 . S
H299 C334 0.930 . S
H300 C336 0.930 . S
H301 C337 0.930 . S
H302 C339 0.931 . S
H303 C340 0.930 . S
H304 C342 0.930 . S
H305 C343 0.929 . S
H306 C345 0.930 . S
H307 C346 0.931 . S
H308 C348 0.930 . S
H309 C349 0.929 . S
H310 C351 0.931 . S
H311 C352 0.930 . S
H312 C354 0.930 . S
H313 C355 0.932 . S
H314 C357 0.930 . S
H315 C358 0.929 . S
H316 C360 0.931 . S
H317 C361 0.930 . S
H318 C363 0.929 . S
H319 C364 0.931 . S
H320 C366 0.930 . S
H321 C367 0.929 . S
O322 H296 0.856 . S
O322 C368 1.300 . S
O323 C368 1.209 . S
O324 C369 1.199 . S
O325 H297 0.854 . S
O325 C369 1.297 . S
C326 C327 1.404 . S
C326 C331 1.397 . S
C326 C332 1.492 . S
C327 C326 1.404 . S
C327 C328 1.396 . S
C327 C338 1.492 . S
C328 C327 1.396 . S
C328 C329 1.397 . S
C328 C344 1.509 . S
C329 C328 1.397 . S
C329 C330 1.412 . S
C329 C350 1.485 . S
C330 C329 1.412 . S
C330 C331 1.388 . S
C330 C356 1.490 . S
C331 C326 1.397 . S
C331 C330 1.388 . S
C331 C362 1.519 . S
C332 C326 1.492 . S
C332 C333 1.363 . S
C332 C337 1.390 . S
C333 H298 0.930 . S
C333 C332 1.363 . S
C333 C334 1.372 . S
C334 H299 0.930 . S
C334 C333 1.372 . S
C334 C335 1.383 . S
C335 C334 1.383 . S
C335 C336 1.395 . S
C336 H300 0.930 . S
C336 C335 1.395 . S
C336 C337 1.362 . S
C337 H301 0.930 . S
C337 C332 1.390 . S
C337 C336 1.362 . S
C338 C327 1.492 . S
C338 C339 1.377 . S
C338 C343 1.397 . S
C339 H302 0.931 . S
C339 C338 1.377 . S
C339 C340 1.376 . S
C340 H303 0.930 . S
C340 C339 1.376 . S
C340 C341 1.376 . S
C341 C340 1.376 . S
C341 C342 1.378 . S
C341 C368 1.486 . S
C342 H304 0.930 . S
C342 C341 1.378 . S
C342 C343 1.376 . S
C343 H305 0.929 . S
C343 C338 1.397 . S
C343 C342 1.376 . S
C344 C328 1.509 . S
C344 C345 1.391 . S
C344 C349 1.386 . S
C345 H306 0.930 . S
C345 C344 1.391 . S
C345 C346 1.375 . S
C346 H307 0.931 . S
C346 C345 1.375 . S
C346 C347 1.375 . S
C347 C346 1.375 . S
C347 C348 1.361 . S
C348 H308 0.930 . S
C348 C347 1.361 . S
C348 C349 1.399 . S
C349 H309 0.929 . S
C349 C344 1.386 . S
C349 C348 1.399 . S
C350 C329 1.485 . S
C350 C351 1.394 . S
C350 C355 1.360 . S
C351 H310 0.931 . S
C351 C350 1.394 . S
C351 C352 1.372 . S
C352 H311 0.930 . S
C352 C351 1.372 . S
C352 C353 1.397 . S
C353 C352 1.397 . S
C353 C354 1.390 . S
C353 C369 1.476 . S
C354 H312 0.930 . S
C354 C353 1.390 . S
C354 C355 1.366 . S
C355 H313 0.932 . S
C355 C350 1.360 . S
C355 C354 1.366 . S
C356 C330 1.490 . S
C356 C357 1.380 . S
C356 C361 1.386 . S
C357 H314 0.930 . S
C357 C356 1.380 . S
C357 C358 1.381 . S
C358 H315 0.929 . S
C358 C357 1.381 . S
C358 C359 1.371 . S
C359 C358 1.371 . S
C359 C360 1.380 . S
C360 H316 0.931 . S
C360 C359 1.380 . S
C360 C361 1.387 . S
C361 H317 0.930 . S
C361 C356 1.386 . S
C361 C360 1.387 . S
C362 C331 1.519 . S
C362 C363 1.377 . S
C362 C367 1.361 . S
C363 H318 0.929 . S
C363 C362 1.377 . S
C363 C364 1.386 . S
C364 H319 0.931 . S
C364 C363 1.386 . S
C364 C365 1.363 . S
C365 C364 1.363 . S
C365 C366 1.385 . S
C366 H320 0.930 . S
C366 C365 1.385 . S
C366 C367 1.396 . S
C367 H321 0.929 . S
C367 C362 1.361 . S
C367 C366 1.396 . S
C368 O322 1.300 . S
C368 O323 1.209 . S
C368 C341 1.486 . S
C369 O324 1.199 . S
C369 O325 1.297 . S
C369 C353 1.476 . S
H370 O396 0.856 . S
H371 O399 0.854 . S
H372 C407 0.930 . S
H373 C408 0.930 . S
H374 C410 0.930 . S
H375 C411 0.930 . S
H376 C413 0.931 . S
H377 C414 0.930 . S
H378 C416 0.930 . S
H379 C417 0.929 . S
H380 C419 0.930 . S
H381 C420 0.931 . S
H382 C422 0.930 . S
H383 C423 0.929 . S
H384 C425 0.931 . S
H385 C426 0.930 . S
H386 C428 0.930 . S
H387 C429 0.932 . S
H388 C431 0.930 . S
H389 C432 0.929 . S
H390 C434 0.931 . S
H391 C435 0.930 . S
H392 C437 0.929 . S
H393 C438 0.931 . S
H394 C440 0.930 . S
H395 C441 0.929 . S
O396 H370 0.856 . S
O396 C442 1.300 . S
O397 C442 1.209 . S
O398 C443 1.199 . S
O399 H371 0.854 . S
O399 C443 1.297 . S
C400 C401 1.404 . S
C400 C405 1.397 . S
C400 C406 1.492 . S
C401 C400 1.404 . S
C401 C402 1.396 . S
C401 C412 1.492 . S
C402 C401 1.396 . S
C402 C403 1.397 . S
C402 C418 1.509 . S
C403 C402 1.397 . S
C403 C404 1.412 . S
C403 C424 1.485 . S
C404 C403 1.412 . S
C404 C405 1.388 . S
C404 C430 1.490 . S
C405 C400 1.397 . S
C405 C404 1.388 . S
C405 C436 1.519 . S
C406 C400 1.492 . S
C406 C407 1.363 . S
C406 C411 1.390 . S
C407 H372 0.930 . S
C407 C406 1.363 . S
C407 C408 1.372 . S
C408 H373 0.930 . S
C408 C407 1.372 . S
C408 C409 1.383 . S
C409 C408 1.383 . S
C409 C410 1.395 . S
C410 H374 0.930 . S
C410 C409 1.395 . S
C410 C411 1.362 . S
C411 H375 0.930 . S
C411 C406 1.390 . S
C411 C410 1.362 . S
C412 C401 1.492 . S
C412 C413 1.377 . S
C412 C417 1.397 . S
C413 H376 0.931 . S
C413 C412 1.377 . S
C413 C414 1.376 . S
C414 H377 0.930 . S
C414 C413 1.376 . S
C414 C415 1.376 . S
C415 C414 1.376 . S
C415 C416 1.378 . S
C415 C442 1.486 . S
C416 H378 0.930 . S
C416 C415 1.378 . S
C416 C417 1.376 . S
C417 H379 0.929 . S
C417 C412 1.397 . S
C417 C416 1.376 . S
C418 C402 1.509 . S
C418 C419 1.391 . S
C418 C423 1.386 . S
C419 H380 0.930 . S
C419 C418 1.391 . S
C419 C420 1.375 . S
C420 H381 0.931 . S
C420 C419 1.375 . S
C420 C421 1.375 . S
C421 C420 1.375 . S
C421 C422 1.361 . S
C422 H382 0.930 . S
C422 C421 1.361 . S
C422 C423 1.399 . S
C423 H383 0.929 . S
C423 C418 1.386 . S
C423 C422 1.399 . S
C424 C403 1.485 . S
C424 C425 1.394 . S
C424 C429 1.360 . S
C425 H384 0.931 . S
C425 C424 1.394 . S
C425 C426 1.372 . S
C426 H385 0.930 . S
C426 C425 1.372 . S
C426 C427 1.397 . S
C427 C426 1.397 . S
C427 C428 1.390 . S
C427 C443 1.476 . S
C428 H386 0.930 . S
C428 C427 1.390 . S
C428 C429 1.366 . S
C429 H387 0.932 . S
C429 C424 1.360 . S
C429 C428 1.366 . S
C430 C404 1.490 . S
C430 C431 1.380 . S
C430 C435 1.386 . S
C431 H388 0.930 . S
C431 C430 1.380 . S
C431 C432 1.381 . S
C432 H389 0.929 . S
C432 C431 1.381 . S
C432 C433 1.371 . S
C433 C432 1.371 . S
C433 C434 1.380 . S
C434 H390 0.931 . S
C434 C433 1.380 . S
C434 C435 1.387 . S
C435 H391 0.930 . S
C435 C430 1.386 . S
C435 C434 1.387 . S
C436 C405 1.519 . S
C436 C437 1.377 . S
C436 C441 1.361 . S
C437 H392 0.929 . S
C437 C436 1.377 . S
C437 C438 1.386 . S
C438 H393 0.931 . S
C438 C437 1.386 . S
C438 C439 1.363 . S
C439 C438 1.363 . S
C439 C440 1.385 . S
C440 H394 0.930 . S
C440 C439 1.385 . S
C440 C441 1.396 . S
C441 H395 0.929 . S
C441 C436 1.361 . S
C441 C440 1.396 . S
C442 O396 1.300 . S
C442 O397 1.209 . S
C442 C415 1.486 . S
C443 O398 1.199 . S
C443 O399 1.297 . S
C443 C427 1.476 . S
H444 O470 0.856 . S
H445 O473 0.854 . S
H446 C481 0.930 . S
H447 C482 0.930 . S
H448 C484 0.930 . S
H449 C485 0.930 . S
H450 C487 0.931 . S
H451 C488 0.938 . S
H452 C490 0.930 . S
H453 C491 0.929 . S
H454 C493 0.930 . S
H455 C494 0.931 . S
H456 C496 0.930 . S
H457 C497 0.929 . S
H458 C499 0.931 . S
H459 C500 0.930 . S
H460 C502 0.930 . S
H461 C503 0.932 . S
H462 C505 0.930 . S
H463 C506 0.929 . S
H464 C508 0.931 . S
H465 C509 0.930 . S
H466 C511 0.929 . S
H467 C512 0.931 . S
H468 C514 0.930 . S
H469 C515 0.929 . S
O470 H444 0.856 . S
O470 C516 1.300 . S
O471 C516 1.209 . S
O472 C517 1.199 . S
O473 H445 0.854 . S
O473 C517 1.297 . S
C474 C475 1.404 . S
C474 C479 1.397 . S
C474 C480 1.492 . S
C475 C474 1.404 . S
C475 C476 1.396 . S
C475 C486 1.492 . S
C476 C475 1.396 . S
C476 C477 1.397 . S
C476 C492 1.509 . S
C477 C476 1.397 . S
C477 C478 1.412 . S
C477 C498 1.485 . S
C478 C477 1.412 . S
C478 C479 1.388 . S
C478 C504 1.490 . S
C479 C474 1.397 . S
C479 C478 1.388 . S
C479 C510 1.519 . S
C480 C474 1.492 . S
C480 C481 1.363 . S
C480 C485 1.390 . S
C481 H446 0.930 . S
C481 C480 1.363 . S
C481 C482 1.372 . S
C482 H447 0.930 . S
C482 C481 1.372 . S
C482 C483 1.383 . S
C483 C482 1.383 . S
C483 C484 1.395 . S
C484 H448 0.930 . S
C484 C483 1.395 . S
C484 C485 1.362 . S
C485 H449 0.930 . S
C485 C480 1.390 . S
C485 C484 1.362 . S
C486 C475 1.492 . S
C486 C487 1.377 . S
C486 C491 1.397 . S
C487 H450 0.931 . S
C487 C486 1.377 . S
C487 C488 1.369 1_554 S
C488 H451 0.938 . S
C488 C487 1.369 1_556 S
C488 C489 1.375 1_556 S
C489 C488 1.375 1_554 S
C489 C490 1.378 . S
C489 C516 1.486 1_554 S
C490 H452 0.930 . S
C490 C489 1.378 . S
C490 C491 1.376 . S
C491 H453 0.929 . S
C491 C486 1.397 . S
C491 C490 1.376 . S
C492 C476 1.509 . S
C492 C493 1.391 . S
C492 C497 1.386 . S
C493 H454 0.930 . S
C493 C492 1.391 . S
C493 C494 1.375 . S
C494 H455 0.931 . S
C494 C493 1.375 . S
C494 C495 1.375 . S
C495 C494 1.375 . S
C495 C496 1.361 . S
C496 H456 0.930 . S
C496 C495 1.361 . S
C496 C497 1.399 . S
C497 H457 0.929 . S
C497 C492 1.386 . S
C497 C496 1.399 . S
C498 C477 1.485 . S
C498 C499 1.394 . S
C498 C503 1.360 . S
C499 H458 0.931 . S
C499 C498 1.394 . S
C499 C500 1.372 . S
C500 H459 0.930 . S
C500 C499 1.372 . S
C500 C501 1.397 . S
C501 C500 1.397 . S
C501 C502 1.390 . S
C501 C517 1.476 . S
C502 H460 0.930 . S
C502 C501 1.390 . S
C502 C503 1.366 . S
C503 H461 0.932 . S
C503 C498 1.360 . S
C503 C502 1.366 . S
C504 C478 1.490 . S
C504 C505 1.380 . S
C504 C509 1.386 . S
C505 H462 0.930 . S
C505 C504 1.380 . S
C505 C506 1.381 . S
C506 H463 0.929 . S
C506 C505 1.381 . S
C506 C507 1.371 . S
C507 C506 1.371 . S
C507 C508 1.380 . S
C508 H464 0.931 . S
C508 C507 1.380 . S
C508 C509 1.387 . S
C509 H465 0.930 . S
C509 C504 1.386 . S
C509 C508 1.387 . S
C510 C479 1.519 . S
C510 C511 1.377 . S
C510 C515 1.361 . S
C511 H466 0.929 . S
C511 C510 1.377 . S
C511 C512 1.386 . S
C512 H467 0.931 . S
C512 C511 1.386 . S
C512 C513 1.363 . S
C513 C512 1.363 . S
C513 C514 1.385 . S
C514 H468 0.930 . S
C514 C513 1.385 . S
C514 C515 1.396 . S
C515 H469 0.929 . S
C515 C510 1.361 . S
C515 C514 1.396 . S
C516 O470 1.300 . S
C516 O471 1.209 . S
C516 C489 1.486 1_556 S
C517 O472 1.199 . S
C517 O473 1.297 . S
C517 C501 1.476 . S
H518 O544 0.856 1_655 S
H519 O547 0.854 . S
H520 C555 0.930 . S
H521 C556 0.930 . S
H522 C558 0.930 . S
H523 C559 0.930 . S
H524 C561 0.931 . S
H525 C562 0.930 . S
H526 C564 0.930 . S
H527 C565 0.929 1_655 S
H528 C567 0.930 . S
H529 C568 0.931 . S
H530 C570 0.930 . S
H531 C571 0.929 . S
H532 C573 0.931 . S
H533 C574 0.930 . S
H534 C576 0.930 . S
H535 C577 0.932 . S
H536 C579 0.930 . S
H537 C580 0.929 . S
H538 C582 0.931 . S
H539 C583 0.930 . S
H540 C585 0.929 . S
H541 C586 0.931 . S
H542 C588 0.930 . S
H543 C589 0.929 1_455 S
O544 H518 0.856 1_455 S
O544 C590 1.300 1_455 S
O545 C590 1.209 . S
O546 C591 1.199 . S
O547 H519 0.854 . S
O547 C591 1.297 . S
C548 C549 1.404 . S
C548 C553 1.397 . S
C548 C554 1.492 1_455 S
C549 C548 1.404 . S
C549 C550 1.396 . S
C549 C560 1.492 . S
C550 C549 1.396 . S
C550 C551 1.397 . S
C550 C566 1.509 . S
C551 C550 1.397 . S
C551 C552 1.412 . S
C551 C572 1.485 . S
C552 C551 1.412 . S
C552 C553 1.388 . S
C552 C578 1.490 . S
C553 C548 1.397 . S
C553 C552 1.388 . S
C553 C584 1.519 1_455 S
C554 C548 1.492 1_655 S
C554 C555 1.363 . S
C554 C559 1.390 . S
C555 H520 0.930 . S
C555 C554 1.363 . S
C555 C556 1.372 . S
C556 H521 0.930 . S
C556 C555 1.372 . S
C556 C557 1.383 . S
C557 C556 1.383 . S
C557 C558 1.395 . S
C558 H522 0.930 . S
C558 C557 1.395 . S
C558 C559 1.362 . S
C559 H523 0.930 . S
C559 C554 1.390 . S
C559 C558 1.362 . S
C560 C549 1.492 . S
C560 C561 1.377 . S
C560 C565 1.397 . S
C561 H524 0.931 . S
C561 C560 1.377 . S
C561 C562 1.376 . S
C562 H525 0.930 . S
C562 C561 1.376 . S
C562 C563 1.376 . S
C563 C562 1.376 . S
C563 C564 1.378 1_455 S
C563 C590 1.486 1_455 S
C564 H526 0.930 . S
C564 C563 1.378 1_655 S
C564 C565 1.376 1_655 S
C565 H527 0.929 1_455 S
C565 C560 1.397 . S
C565 C564 1.376 1_455 S
C566 C550 1.509 . S
C566 C567 1.391 . S
C566 C571 1.386 . S
C567 H528 0.930 . S
C567 C566 1.391 . S
C567 C568 1.375 . S
C568 H529 0.931 . S
C568 C567 1.375 . S
C568 C569 1.375 . S
C569 C568 1.375 . S
C569 C570 1.361 . S
C570 H530 0.930 . S
C570 C569 1.361 . S
C570 C571 1.399 . S
C571 H531 0.929 . S
C571 C566 1.386 . S
C571 C570 1.399 . S
C572 C551 1.485 . S
C572 C573 1.394 . S
C572 C577 1.360 . S
C573 H532 0.931 . S
C573 C572 1.394 . S
C573 C574 1.372 . S
C574 H533 0.930 . S
C574 C573 1.372 . S
C574 C575 1.397 . S
C575 C574 1.397 . S
C575 C576 1.390 . S
C575 C591 1.476 . S
C576 H534 0.930 . S
C576 C575 1.390 . S
C576 C577 1.366 . S
C577 H535 0.932 . S
C577 C572 1.360 . S
C577 C576 1.366 . S
C578 C552 1.490 . S
C578 C579 1.380 . S
C578 C583 1.386 . S
C579 H536 0.930 . S
C579 C578 1.380 . S
C579 C580 1.381 . S
C580 H537 0.929 . S
C580 C579 1.381 . S
C580 C581 1.371 . S
C581 C580 1.371 . S
C581 C582 1.380 . S
C582 H538 0.931 . S
C582 C581 1.380 . S
C582 C583 1.387 . S
C583 H539 0.930 . S
C583 C578 1.386 . S
C583 C582 1.387 . S
C584 C553 1.519 1_655 S
C584 C585 1.377 . S
C584 C589 1.361 . S
C585 H540 0.929 . S
C585 C584 1.377 . S
C585 C586 1.386 . S
C586 H541 0.931 . S
C586 C585 1.386 . S
C586 C587 1.363 . S
C587 C586 1.363 . S
C587 C588 1.385 . S
C588 H542 0.930 . S
C588 C587 1.385 . S
C588 C589 1.396 . S
C589 H543 0.929 1_655 S
C589 C584 1.361 . S
C589 C588 1.396 . S
C590 O544 1.300 1_655 S
C590 O545 1.209 . S
C590 C563 1.486 1_655 S
C591 O546 1.199 . S
C591 O547 1.297 . S
C591 C575 1.476 . S
Fe592 O593 1.886 . S
Fe592 O596 1.715 1_455 S
Fe592 O601 2.077 . S
Fe592 O606 1.935 1_455 S
Fe592 O612 2.077 . S
Fe592 O621 1.935 1_455 S
O593 Fe592 1.886 . S
O593 Fe595 1.715 . S
Fe594 O596 1.886 . S
Fe594 O597 1.715 . S
Fe594 O604 1.935 . S
Fe594 O605 2.077 . S
Fe594 O611 1.935 . S
Fe594 O620 2.077 . S
Fe595 O593 1.715 . S
Fe595 O598 1.886 . S
Fe595 O602 1.935 . S
Fe595 O607 2.077 . S
Fe595 O613 1.935 . S
Fe595 O617 2.077 . S
O596 Fe592 1.715 1_655 S
O596 Fe594 1.886 . S
O597 Fe594 1.715 . S
O597 Fe599 1.886 1_655 S
O598 Fe595 1.886 . S
O598 Fe599 1.715 . S
Fe599 O597 1.886 1_455 S
Fe599 O598 1.715 . S
Fe599 O603 2.077 1_455 S
Fe599 O608 1.935 . S
Fe599 O610 2.077 1_455 S
Fe599 O618 1.935 . S
C600 O612 1.381 . S
C600 O613 1.421 . S
O601 Fe592 2.077 . S
O601 C614 1.381 . S
O602 Fe595 1.935 . S
O602 C614 1.421 . S
O603 Fe599 2.077 1_655 S
O603 C619 1.381 . S
O604 Fe594 1.935 . S
O604 C619 1.421 . S
O605 Fe594 2.077 . S
O605 C609 1.381 . S
O606 Fe592 1.935 1_655 S
O606 C609 1.421 . S
O607 Fe595 2.077 . S
O607 C615 1.381 . S
O608 Fe599 1.935 . S
O608 C615 1.421 . S
C609 O605 1.381 . S
C609 O606 1.421 . S
O610 Fe599 2.077 1_655 S
O610 C622 1.381 . S
O611 Fe594 1.935 . S
O611 C622 1.421 . S
O612 Fe592 2.077 . S
O612 C600 1.381 . S
O613 Fe595 1.935 . S
O613 C600 1.421 . S
C614 O601 1.381 . S
C614 O602 1.421 . S
C615 O607 1.381 . S
C615 O608 1.421 . S
C616 O617 1.381 . S
C616 O618 1.421 . S
O617 Fe595 2.077 . S
O617 C616 1.381 . S
O618 Fe599 1.935 . S
O618 C616 1.421 . S
C619 O603 1.381 . S
C619 O604 1.421 . S
O620 Fe594 2.077 . S
O620 C623 1.381 . S
O621 Fe592 1.935 1_655 S
O621 C623 1.421 . S
C622 O610 1.381 . S
C622 O611 1.421 . S
C623 O620 1.381 . S
C623 O621 1.421 . S
Fe624 O625 1.886 . S
Fe624 O628 1.715 . S
Fe624 O633 2.077 . S
Fe624 O638 1.935 . S
Fe624 O644 2.077 . S
Fe624 O653 1.935 . S
O625 Fe624 1.886 . S
O625 Fe627 1.715 . S
Fe626 O628 1.886 . S
Fe626 O629 1.715 . S
Fe626 O636 1.935 . S
Fe626 O637 2.077 . S
Fe626 O643 1.935 . S
Fe626 O652 2.077 . S
Fe627 O625 1.715 . S
Fe627 O630 1.886 . S
Fe627 O634 1.935 . S
Fe627 O639 2.077 . S
Fe627 O645 1.935 . S
Fe627 O649 2.077 . S
O628 Fe624 1.715 . S
O628 Fe626 1.886 . S
O629 Fe626 1.715 . S
O629 Fe631 1.886 . S
O630 Fe627 1.886 . S
O630 Fe631 1.715 . S
Fe631 O629 1.886 . S
Fe631 O630 1.715 . S
Fe631 O635 2.077 . S
Fe631 O640 1.935 . S
Fe631 O642 2.077 . S
Fe631 O650 1.935 . S
C632 O644 1.381 . S
C632 O645 1.421 . S
O633 Fe624 2.077 . S
O633 C646 1.381 . S
O634 Fe627 1.935 . S
O634 C646 1.421 . S
O635 Fe631 2.077 . S
O635 C651 1.381 . S
O636 Fe626 1.935 . S
O636 C651 1.421 . S
O637 Fe626 2.077 . S
O637 C641 1.381 . S
O638 Fe624 1.935 . S
O638 C641 1.421 . S
O639 Fe627 2.077 . S
O639 C647 1.381 . S
O640 Fe631 1.935 . S
O640 C647 1.421 . S
C641 O637 1.381 . S
C641 O638 1.421 . S
O642 Fe631 2.077 . S
O642 C654 1.381 . S
O643 Fe626 1.935 . S
O643 C654 1.421 . S
O644 Fe624 2.077 . S
O644 C632 1.381 . S
O645 Fe627 1.935 . S
O645 C632 1.421 . S
C646 O633 1.381 . S
C646 O634 1.421 . S
C647 O639 1.381 . S
C647 O640 1.421 . S
C648 O649 1.381 . S
C648 O650 1.421 . S
O649 Fe627 2.077 . S
O649 C648 1.381 . S
O650 Fe631 1.935 . S
O650 C648 1.421 . S
C651 O635 1.381 . S
C651 O636 1.421 . S
O652 Fe626 2.077 . S
O652 C655 1.381 . S
O653 Fe624 1.935 . S
O653 C655 1.421 . S
C654 O642 1.381 . S
C654 O643 1.421 . S
C655 O652 1.381 . S
C655 O653 1.421 . S
Fe656 O657 1.886 . S
Fe656 O660 1.715 . S
Fe656 O665 2.077 . S
Fe656 O670 1.935 . S
Fe656 O676 2.077 . S
Fe656 O685 1.935 . S
O657 Fe656 1.886 . S
O657 Fe659 1.715 . S
Fe658 O660 1.886 . S
Fe658 O661 1.715 . S
Fe658 O668 1.935 . S
Fe658 O669 2.077 . S
Fe658 O675 1.935 . S
Fe658 O684 2.077 . S
Fe659 O657 1.715 . S
Fe659 O662 1.886 . S
Fe659 O666 1.935 . S
Fe659 O671 2.077 . S
Fe659 O677 1.935 . S
Fe659 O681 2.077 . S
O660 Fe656 1.715 . S
O660 Fe658 1.886 . S
O661 Fe658 1.715 . S
O661 Fe663 1.886 . S
O662 Fe659 1.886 . S
O662 Fe663 1.715 . S
Fe663 O661 1.886 . S
Fe663 O662 1.715 . S
Fe663 O667 2.077 . S
Fe663 O672 1.935 . S
Fe663 O674 2.077 . S
Fe663 O682 1.935 . S
C664 O676 1.381 . S
C664 O677 1.421 . S
O665 Fe656 2.077 . S
O665 C678 1.381 . S
O666 Fe659 1.935 . S
O666 C678 1.421 . S
O667 Fe663 2.077 . S
O667 C683 1.381 . S
O668 Fe658 1.935 . S
O668 C683 1.421 . S
O669 Fe658 2.077 . S
O669 C673 1.381 . S
O670 Fe656 1.935 . S
O670 C673 1.421 . S
O671 Fe659 2.077 . S
O671 C679 1.381 . S
O672 Fe663 1.935 . S
O672 C679 1.421 . S
C673 O669 1.381 . S
C673 O670 1.421 . S
O674 Fe663 2.077 . S
O674 C686 1.381 . S
O675 Fe658 1.935 . S
O675 C686 1.421 . S
O676 Fe656 2.077 . S
O676 C664 1.381 . S
O677 Fe659 1.935 . S
O677 C664 1.421 . S
C678 O665 1.381 . S
C678 O666 1.421 . S
C679 O671 1.381 . S
C679 O672 1.421 . S
C680 O681 1.381 . S
C680 O682 1.421 . S
O681 Fe659 2.077 . S
O681 C680 1.381 . S
O682 Fe663 1.935 . S
O682 C680 1.421 . S
C683 O667 1.381 . S
C683 O668 1.421 . S
O684 Fe658 2.077 . S
O684 C687 1.381 . S
O685 Fe656 1.935 . S
O685 C687 1.421 . S
C686 O674 1.381 . S
C686 O675 1.421 . S
C687 O684 1.381 . S
C687 O685 1.421 . S
Fe688 O689 1.886 . S
Fe688 O692 1.715 . S
Fe688 O697 2.077 1_455 S
Fe688 O702 1.935 1_455 S
Fe688 O708 2.077 . S
Fe688 O717 1.935 . S
O689 Fe688 1.886 . S
O689 Fe691 1.715 . S
Fe690 O692 1.886 . S
Fe690 O693 1.715 . S
Fe690 O700 1.935 1_455 S
Fe690 O701 2.077 1_455 S
Fe690 O707 1.935 . S
Fe690 O716 2.077 . S
Fe691 O689 1.715 . S
Fe691 O694 1.886 . S
Fe691 O698 1.935 1_455 S
Fe691 O703 2.077 1_455 S
Fe691 O709 1.935 . S
Fe691 O713 2.077 . S
O692 Fe688 1.715 . S
O692 Fe690 1.886 . S
O693 Fe690 1.715 . S
O693 Fe695 1.886 . S
O694 Fe691 1.886 . S
O694 Fe695 1.715 . S
Fe695 O693 1.886 . S
Fe695 O694 1.715 . S
Fe695 O699 2.077 1_455 S
Fe695 O704 1.935 1_455 S
Fe695 O706 2.077 . S
Fe695 O714 1.935 . S
C696 O708 1.381 . S
C696 O709 1.421 . S
O697 Fe688 2.077 1_655 S
O697 C710 1.381 . S
O698 Fe691 1.935 1_655 S
O698 C710 1.421 . S
O699 Fe695 2.077 1_655 S
O699 C715 1.381 . S
O700 Fe690 1.935 1_655 S
O700 C715 1.421 . S
O701 Fe690 2.077 1_655 S
O701 C705 1.381 . S
O702 Fe688 1.935 1_655 S
O702 C705 1.421 . S
O703 Fe691 2.077 1_655 S
O703 C711 1.381 . S
O704 Fe695 1.935 1_655 S
O704 C711 1.421 . S
C705 O701 1.381 . S
C705 O702 1.421 . S
O706 Fe695 2.077 . S
O706 C718 1.381 . S
O707 Fe690 1.935 . S
O707 C718 1.421 . S
O708 Fe688 2.077 . S
O708 C696 1.381 . S
O709 Fe691 1.935 . S
O709 C696 1.421 . S
C710 O697 1.381 . S
C710 O698 1.421 . S
C711 O703 1.381 . S
C711 O704 1.421 . S
C712 O713 1.381 . S
C712 O714 1.421 . S
O713 Fe691 2.077 . S
O713 C712 1.381 . S
O714 Fe695 1.935 . S
O714 C712 1.421 . S
C715 O699 1.381 . S
C715 O700 1.421 . S
O716 Fe690 2.077 . S
O716 C719 1.381 . S
O717 Fe688 1.935 . S
O717 C719 1.421 . S
C718 O706 1.381 . S
C718 O707 1.421 . S
C719 O716 1.381 . S
C719 O717 1.421 . S
H720 C738 0.951 . S
H721 C740 0.951 . S
H722 C742 0.950 . S
H723 C743 0.950 . S
H724 C745 0.950 . S
H725 C748 0.950 . S
H726 C749 0.950 . S
H727 C751 0.950 . S
H728 C752 0.950 . S
H729 C753 0.951 . S
H730 C755 0.951 . S
H731 C757 0.950 . S
H732 C758 0.950 . S
H733 C760 0.950 . S
H734 C763 0.950 . S
H735 C764 0.950 . S
H736 C766 0.950 . S
H737 C767 0.950 . S
C738 H720 0.951 . S
C738 C739 1.366 . S
C738 C740 1.388 . S
C739 C738 1.366 . S
C739 C743 1.385 . S
C740 H721 0.951 . S
C740 C738 1.388 . S
C740 C741 1.366 . S
C741 C740 1.366 . S
C741 C742 1.414 . S
C741 C744 1.499 . S
C742 H722 0.950 . S
C742 C741 1.414 . S
C742 C743 1.374 . S
C743 H723 0.950 . S
C743 C739 1.385 . S
C743 C742 1.374 . S
C744 C741 1.499 . S
C744 C745 1.373 . S
C744 C746 1.389 . S
C745 H724 0.950 . S
C745 C744 1.373 . S
C745 C761 1.377 . S
C746 C744 1.389 . S
C746 C747 1.524 . S
C746 C760 1.377 . S
C747 C746 1.524 . S
C747 C748 1.397 . S
C747 C752 1.363 . S
C748 H725 0.950 . S
C748 C747 1.397 . S
C748 C749 1.334 . S
C749 H726 0.950 . S
C749 C748 1.334 . S
C749 C750 1.287 . S
C750 C749 1.287 . S
C750 C751 1.524 . S
C750 H769 0.913 . S
C751 H727 0.950 . S
C751 C750 1.524 . S
C751 C752 1.415 . S
C752 H728 0.950 . S
C752 C747 1.363 . S
C752 C751 1.415 . S
C753 H729 0.951 . S
C753 C754 1.366 . S
C753 C755 1.388 . S
C754 C753 1.366 . S
C754 C758 1.385 . S
C755 H730 0.951 . S
C755 C753 1.388 . S
C755 C756 1.366 . S
C756 C755 1.366 . S
C756 C757 1.414 . S
C756 C759 1.499 . S
C757 H731 0.950 . S
C757 C756 1.414 . S
C757 C758 1.374 . S
C758 H732 0.950 . S
C758 C754 1.385 . S
C758 C757 1.374 . S
C759 C756 1.499 . S
C759 C760 1.373 . S
C759 C761 1.389 . S
C760 H733 0.950 . S
C760 C746 1.377 . S
C760 C759 1.373 . S
C761 C745 1.377 . S
C761 C759 1.389 . S
C761 C762 1.524 . S
C762 C761 1.524 . S
C762 C763 1.397 . S
C762 C767 1.363 . S
C763 H734 0.950 . S
C763 C762 1.397 . S
C763 C764 1.334 . S
C764 H735 0.950 . S
C764 C763 1.334 . S
C764 C765 1.287 . S
C765 C764 1.287 . S
C765 C766 1.524 . S
C765 H768 0.999 . S
C766 H736 0.950 . S
C766 C765 1.524 . S
C766 C767 1.415 . S
C767 H737 0.950 . S
C767 C762 1.363 . S
C767 C766 1.415 . S
H768 C765 0.999 . S
H769 C750 0.913 . S
H770 C788 0.951 . S
H771 C790 0.951 . S
H772 C792 0.950 1_545 S
H773 C793 0.950 . S
H774 C795 0.950 . S
H775 C798 0.950 . S
H776 C799 0.950 . S
H777 C801 0.950 . S
H778 C802 0.950 . S
H779 C803 0.951 . S
H780 C805 0.951 . S
H781 C807 0.950 . S
H782 C808 0.950 . S
H783 C810 0.950 . S
H784 C813 0.950 . S
H785 C814 0.950 . S
H786 C816 0.950 . S
H787 C817 0.950 . S
C788 H770 0.951 . S
C788 C789 1.366 . S
C788 C790 1.388 . S
C789 C788 1.366 . S
C789 C793 1.385 . S
C790 H771 0.951 . S
C790 C788 1.388 . S
C790 C791 1.366 . S
C791 C790 1.366 . S
C791 C792 1.414 . S
C791 C794 1.499 1_565 S
C792 H772 0.950 1_565 S
C792 C791 1.414 . S
C792 C793 1.374 . S
C793 H773 0.950 . S
C793 C789 1.385 . S
C793 C792 1.374 . S
C794 C791 1.499 1_545 S
C794 C795 1.373 . S
C794 C796 1.389 . S
C795 H774 0.950 . S
C795 C794 1.373 . S
C795 C811 1.377 . S
C796 C794 1.389 . S
C796 C797 1.524 1_545 S
C796 C810 1.377 . S
C797 C796 1.524 1_565 S
C797 C798 1.397 . S
C797 C802 1.363 . S
C798 H775 0.950 . S
C798 C797 1.397 . S
C798 C799 1.334 . S
C799 H776 0.950 . S
C799 C798 1.334 . S
C799 C800 1.287 . S
C800 C799 1.287 . S
C800 C801 1.524 . S
C800 H819 0.913 . S
C801 H777 0.950 . S
C801 C800 1.524 . S
C801 C802 1.415 . S
C802 H778 0.950 . S
C802 C797 1.363 . S
C802 C801 1.415 . S
C803 H779 0.951 . S
C803 C804 1.366 . S
C803 C805 1.388 . S
C804 C803 1.366 . S
C804 C808 1.385 . S
C805 H780 0.951 . S
C805 C803 1.388 . S
C805 C806 1.366 . S
C806 C805 1.366 . S
C806 C807 1.414 . S
C806 C809 1.499 . S
C807 H781 0.950 . S
C807 C806 1.414 . S
C807 C808 1.374 . S
C808 H782 0.950 . S
C808 C804 1.385 . S
C808 C807 1.374 . S
C809 C806 1.499 . S
C809 C810 1.373 . S
C809 C811 1.389 . S
C810 H783 0.950 . S
C810 C796 1.377 . S
C810 C809 1.373 . S
C811 C795 1.377 . S
C811 C809 1.389 . S
C811 C812 1.524 . S
C812 C811 1.524 . S
C812 C813 1.397 . S
C812 C817 1.363 . S
C813 H784 0.950 . S
C813 C812 1.397 . S
C813 C814 1.334 . S
C814 H785 0.950 . S
C814 C813 1.334 . S
C814 C815 1.287 . S
C815 C814 1.287 . S
C815 C816 1.524 . S
C815 H818 0.999 . S
C816 H786 0.950 . S
C816 C815 1.524 . S
C816 C817 1.415 . S
C817 H787 0.950 . S
C817 C812 1.363 . S
C817 C816 1.415 . S
H818 C815 0.999 . S
H819 C800 0.913 . S
H820 C838 0.951 . S
H821 C840 0.896 1_556 S
H822 C842 0.950 . S
H823 C843 0.950 . S
H824 C845 0.950 1_554 S
H825 C848 0.953 . S
H826 C849 0.950 . S
H827 C851 0.950 . S
H828 C852 0.950 . S
H829 C853 0.951 . S
H830 C855 0.951 . S
H831 C857 0.950 . S
H832 C858 0.950 . S
H833 C860 0.950 . S
H834 C863 0.950 . S
H835 C864 0.950 . S
H836 C866 0.950 1_554 S
H837 C867 0.950 1_554 S
C838 H820 0.951 . S
C838 C839 1.366 . S
C838 C840 1.423 . S
C839 C838 1.366 . S
C839 C843 1.385 . S
C840 H821 0.896 1_554 S
C840 C838 1.423 . S
C840 C841 1.386 . S
C841 C840 1.386 . S
C841 C842 1.414 . S
C841 C844 1.499 1_554 S
C842 H822 0.950 . S
C842 C841 1.414 . S
C842 C843 1.374 . S
C843 H823 0.950 . S
C843 C839 1.385 . S
C843 C842 1.374 . S
C844 C841 1.499 1_556 S
C844 C845 1.373 . S
C844 C846 1.389 . S
C845 H824 0.950 1_556 S
C845 C844 1.373 . S
C845 C861 1.377 . S
C846 C844 1.389 . S
C846 C847 1.524 . S
C846 C860 1.377 . S
C847 C846 1.524 . S
C847 C848 1.393 1_556 S
C847 C852 1.363 . S
C848 H825 0.953 . S
C848 C847 1.393 1_554 S
C848 C849 1.334 . S
C849 H826 0.950 . S
C849 C848 1.334 . S
C849 C850 1.287 1_554 S
C850 C849 1.287 1_556 S
C850 C851 1.524 . S
C850 H869 0.913 . S
C851 H827 0.950 . S
C851 C850 1.524 . S
C851 C852 1.415 . S
C852 H828 0.950 . S
C852 C847 1.363 . S
C852 C851 1.415 . S
C853 H829 0.951 . S
C853 C854 1.366 . S
C853 C855 1.388 . S
C854 C853 1.366 . S
C854 C858 1.385 . S
C855 H830 0.951 . S
C855 C853 1.388 . S
C855 C856 1.366 . S
C856 C855 1.366 . S
C856 C857 1.414 . S
C856 C859 1.499 . S
C857 H831 0.950 . S
C857 C856 1.414 . S
C857 C858 1.374 . S
C858 H832 0.950 . S
C858 C854 1.385 . S
C858 C857 1.374 . S
C859 C856 1.499 . S
C859 C860 1.373 . S
C859 C861 1.389 . S
C860 H833 0.950 . S
C860 C846 1.377 . S
C860 C859 1.373 . S
C861 C845 1.377 . S
C861 C859 1.389 . S
C861 C862 1.524 . S
C862 C861 1.524 . S
C862 C863 1.397 . S
C862 C867 1.363 . S
C863 H834 0.950 . S
C863 C862 1.397 . S
C863 C864 1.334 . S
C864 H835 0.950 . S
C864 C863 1.334 . S
C864 C865 1.287 . S
C865 C864 1.287 . S
C865 C866 1.524 . S
C865 H868 0.999 . S
C866 H836 0.950 1_556 S
C866 C865 1.524 . S
C866 C867 1.415 . S
C867 H837 0.950 1_556 S
C867 C862 1.363 . S
C867 C866 1.415 . S
H868 C865 0.999 . S
H869 C850 0.913 . S
H870 C888 0.951 . S
H871 C890 0.951 1_565 S
H872 C892 0.950 . S
H873 C893 0.950 . S
H874 C895 0.950 . S
H875 C898 0.950 . S
H876 C899 0.950 . S
H877 C901 0.950 . S
H878 C902 0.950 . S
H879 C903 0.951 . S
H880 C905 0.951 . S
H881 C907 0.950 . S
H882 C908 0.950 . S
H883 C910 0.950 . S
H884 C913 0.950 . S
H885 C914 0.950 1_655 S
H886 C916 0.950 . S
H887 C917 0.950 . S
C888 H870 0.951 . S
C888 C889 1.366 . S
C888 C890 1.388 . S
C889 C888 1.366 . S
C889 C893 1.385 . S
C890 H871 0.951 1_545 S
C890 C888 1.388 . S
C890 C891 1.366 . S
C891 C890 1.366 . S
C891 C892 1.414 . S
C891 C894 1.499 . S
C892 H872 0.950 . S
C892 C891 1.414 . S
C892 C893 1.374 . S
C893 H873 0.950 . S
C893 C889 1.385 . S
C893 C892 1.374 . S
C894 C891 1.499 . S
C894 C895 1.373 . S
C894 C896 1.389 1_545 S
C895 H874 0.950 . S
C895 C894 1.373 . S
C895 C911 1.377 1_545 S
C896 C894 1.389 1_565 S
C896 C897 1.524 . S
C896 C910 1.377 . S
C897 C896 1.524 . S
C897 C898 1.397 1_565 S
C897 C902 1.363 . S
C898 H875 0.950 . S
C898 C897 1.397 1_545 S
C898 C899 1.334 . S
C899 H876 0.950 . S
C899 C898 1.334 . S
C899 C900 1.287 1_545 S
C900 C899 1.287 1_565 S
C900 C901 1.524 . S
C900 H919 0.913 . S
C901 H877 0.950 . S
C901 C900 1.524 . S
C901 C902 1.415 . S
C902 H878 0.950 . S
C902 C897 1.363 . S
C902 C901 1.415 . S
C903 H879 0.951 . S
C903 C904 1.366 . S
C903 C905 1.388 . S
C904 C903 1.366 . S
C904 C908 1.385 . S
C905 H880 0.951 . S
C905 C903 1.388 . S
C905 C906 1.366 . S
C906 C905 1.366 . S
C906 C907 1.414 . S
C906 C909 1.499 . S
C907 H881 0.950 . S
C907 C906 1.414 . S
C907 C908 1.374 . S
C908 H882 0.950 . S
C908 C904 1.385 . S
C908 C907 1.374 . S
C909 C906 1.499 . S
C909 C910 1.373 . S
C909 C911 1.389 . S
C910 H883 0.950 . S
C910 C896 1.377 . S
C910 C909 1.373 . S
C911 C895 1.377 1_565 S
C911 C909 1.389 . S
C911 C912 1.524 . S
C912 C911 1.524 . S
C912 C913 1.397 . S
C912 C917 1.363 1_565 S
C913 H884 0.950 . S
C913 C912 1.397 . S
C913 C914 1.334 . S
C914 H885 0.950 1_455 S
C914 C913 1.334 . S
C914 C915 1.287 1_455 S
C915 C914 1.287 1_655 S
C915 C916 1.524 1_665 S
C915 H918 0.999 . S
C916 H886 0.950 . S
C916 C915 1.524 1_445 S
C916 C917 1.415 . S
C917 H887 0.950 . S
C917 C912 1.363 1_545 S
C917 C916 1.415 . S
H918 C915 0.999 . S
H919 C900 0.913 . S
H920 C938 0.951 . S
H921 C940 0.951 . S
H922 C942 0.950 . S
H923 C943 0.950 . S
H924 C945 0.950 . S
H925 C948 0.950 . S
H926 C949 0.950 . S
H927 C951 0.950 . S
H928 C952 0.950 . S
H929 C953 0.951 . S
H930 C955 0.951 . S
H931 C957 0.950 . S
H932 C958 0.950 . S
H933 C960 0.950 . S
H934 C963 0.950 . S
H935 C964 0.950 . S
H936 C966 0.950 . S
H937 C967 0.950 . S
C938 H920 0.951 . S
C938 C939 1.366 . S
C938 C940 1.388 . S
C939 C938 1.366 . S
C939 C943 1.385 . S
C940 H921 0.951 . S
C940 C938 1.388 . S
C940 C941 1.366 . S
C941 C940 1.366 . S
C941 C942 1.414 . S
C941 C944 1.499 . S
C942 H922 0.950 . S
C942 C941 1.414 . S
C942 C943 1.374 . S
C943 H923 0.950 . S
C943 C939 1.385 . S
C943 C942 1.374 . S
C944 C941 1.499 . S
C944 C945 1.373 . S
C944 C946 1.389 . S
C945 H924 0.950 . S
C945 C944 1.373 . S
C945 C961 1.377 . S
C946 C944 1.389 . S
C946 C947 1.524 . S
C946 C960 1.377 . S
C947 C946 1.524 . S
C947 C948 1.397 . S
C947 C952 1.363 . S
C948 H925 0.950 . S
C948 C947 1.397 . S
C948 C949 1.334 . S
C949 H926 0.950 . S
C949 C948 1.334 . S
C949 C950 1.287 . S
C950 C949 1.287 . S
C950 C951 1.524 . S
C950 H969 0.913 . S
C951 H927 0.950 . S
C951 C950 1.524 . S
C951 C952 1.415 . S
C952 H928 0.950 . S
C952 C947 1.363 . S
C952 C951 1.415 . S
C953 H929 0.951 . S
C953 C954 1.366 . S
C953 C955 1.388 . S
C954 C953 1.366 . S
C954 C958 1.385 . S
C955 H930 0.951 . S
C955 C953 1.388 . S
C955 C956 1.366 . S
C956 C955 1.366 . S
C956 C957 1.414 . S
C956 C959 1.499 . S
C957 H931 0.950 . S
C957 C956 1.414 . S
C957 C958 1.374 . S
C958 H932 0.950 . S
C958 C954 1.385 . S
C958 C957 1.374 . S
C959 C956 1.499 . S
C959 C960 1.373 . S
C959 C961 1.389 . S
C960 H933 0.950 . S
C960 C946 1.377 . S
C960 C959 1.373 . S
C961 C945 1.377 . S
C961 C959 1.389 . S
C961 C962 1.524 . S
C962 C961 1.524 . S
C962 C963 1.397 . S
C962 C967 1.363 . S
C963 H934 0.950 . S
C963 C962 1.397 . S
C963 C964 1.334 . S
C964 H935 0.950 . S
C964 C963 1.334 . S
C964 C965 1.287 . S
C965 C964 1.287 . S
C965 C966 1.524 . S
C965 H968 0.999 1_545 S
C966 H936 0.950 . S
C966 C965 1.524 . S
C966 C967 1.415 . S
C967 H937 0.950 . S
C967 C962 1.363 . S
C967 C966 1.415 . S
H968 C965 0.999 1_565 S
H969 C950 0.913 . S
H970 C988 0.951 . S
H971 C990 0.951 . S
H972 C992 0.950 . S
H973 C993 0.950 . S
H974 C995 0.950 . S
H975 C998 0.950 . S
H976 C999 0.950 . S
H977 C1001 0.950 . S
H978 C1002 0.950 . S
H979 C1003 0.951 . S
H980 C1005 0.951 . S
H981 C1007 0.950 . S
H982 C1008 0.950 . S
H983 C1010 0.950 . S
H984 C1013 0.950 . S
H985 C1014 0.950 . S
H986 C1016 0.950 . S
H987 C1017 0.950 . S
C988 H970 0.951 . S
C988 C989 1.366 . S
C988 C990 1.388 . S
C989 C988 1.366 . S
C989 C993 1.385 . S
C990 H971 0.951 . S
C990 C988 1.388 . S
C990 C991 1.366 . S
C991 C990 1.366 . S
C991 C992 1.414 . S
C991 C994 1.499 . S
C992 H972 0.950 . S
C992 C991 1.414 . S
C992 C993 1.374 . S
C993 H973 0.950 . S
C993 C989 1.385 . S
C993 C992 1.374 . S
C994 C991 1.499 . S
C994 C995 1.373 . S
C994 C996 1.389 1_565 S
C995 H974 0.950 . S
C995 C994 1.373 . S
C995 C1011 1.377 1_565 S
C996 C994 1.389 1_545 S
C996 C997 1.524 . S
C996 C1010 1.377 . S
C997 C996 1.524 . S
C997 C998 1.397 . S
C997 C1002 1.363 . S
C998 H975 0.950 . S
C998 C997 1.397 . S
C998 C999 1.334 . S
C999 H976 0.950 . S
C999 C998 1.334 . S
C999 C1000 1.287 . S
C1000 C999 1.287 . S
C1000 C1001 1.524 . S
C1000 H1019 0.913 . S
C1001 H977 0.950 . S
C1001 C1000 1.524 . S
C1001 C1002 1.415 . S
C1002 H978 0.950 . S
C1002 C997 1.363 . S
C1002 C1001 1.415 . S
C1003 H979 0.951 . S
C1003 C1004 1.366 . S
C1003 C1005 1.388 . S
C1004 C1003 1.366 . S
C1004 C1008 1.385 . S
C1005 H980 0.951 . S
C1005 C1003 1.388 . S
C1005 C1006 1.366 . S
C1006 C1005 1.366 . S
C1006 C1007 1.414 . S
C1006 C1009 1.499 . S
C1007 H981 0.950 . S
C1007 C1006 1.414 . S
C1007 C1008 1.374 . S
C1008 H982 0.950 . S
C1008 C1004 1.385 . S
C1008 C1007 1.374 . S
C1009 C1006 1.499 . S
C1009 C1010 1.373 . S
C1009 C1011 1.389 . S
C1010 H983 0.950 . S
C1010 C996 1.377 . S
C1010 C1009 1.373 . S
C1011 C995 1.377 1_545 S
C1011 C1009 1.389 . S
C1011 C1012 1.524 . S
C1012 C1011 1.524 . S
C1012 C1013 1.397 . S
C1012 C1017 1.363 . S
C1013 H984 0.950 . S
C1013 C1012 1.397 . S
C1013 C1014 1.334 . S
C1014 H985 0.950 . S
C1014 C1013 1.334 . S
C1014 C1015 1.287 . S
C1015 C1014 1.287 . S
C1015 C1016 1.524 . S
C1015 H1018 0.999 . S
C1016 H986 0.950 . S
C1016 C1015 1.524 . S
C1016 C1017 1.415 . S
C1017 H987 0.950 . S
C1017 C1012 1.363 . S
C1017 C1016 1.415 . S
H1018 C1015 0.999 . S
H1019 C1000 0.913 . S
H1020 C1038 0.951 1_545 S
H1021 C1040 0.951 1_545 S
H1022 C1042 0.950 . S
H1023 C1043 0.950 . S
H1024 C1045 0.950 . S
H1025 C1048 0.950 . S
H1026 C1049 0.950 . S
H1027 C1051 0.950 . S
H1028 C1052 0.950 . S
H1029 C1053 0.951 . S
H1030 C1055 0.951 . S
H1031 C1057 0.950 . S
H1032 C1058 0.950 . S
H1033 C1060 0.950 . S
H1034 C1063 0.950 . S
H1035 C1064 0.950 . S
H1036 C1066 0.950 . S
H1037 C1067 0.950 . S
C1038 H1020 0.951 1_565 S
C1038 C1039 1.366 . S
C1038 C1040 1.388 . S
C1039 C1038 1.366 . S
C1039 C1043 1.385 . S
C1040 H1021 0.951 1_565 S
C1040 C1038 1.388 . S
C1040 C1041 1.366 . S
C1041 C1040 1.366 . S
C1041 C1042 1.414 . S
C1041 C1044 1.499 . S
C1042 H1022 0.950 . S
C1042 C1041 1.414 . S
C1042 C1043 1.374 . S
C1043 H1023 0.950 . S
C1043 C1039 1.385 . S
C1043 C1042 1.374 . S
C1044 C1041 1.499 . S
C1044 C1045 1.373 . S
C1044 C1046 1.389 . S
C1045 H1024 0.950 . S
C1045 C1044 1.373 . S
C1045 C1061 1.377 . S
C1046 C1044 1.389 . S
C1046 C1047 1.524 . S
C1046 C1060 1.377 . S
C1047 C1046 1.524 . S
C1047 C1048 1.397 . S
C1047 C1052 1.363 1_565 S
C1048 H1025 0.950 . S
C1048 C1047 1.397 . S
C1048 C1049 1.334 1_565 S
C1049 H1026 0.950 . S
C1049 C1048 1.334 1_545 S
C1049 C1050 1.287 . S
C1050 C1049 1.287 . S
C1050 C1051 1.524 . S
C1050 H1069 0.913 . S
C1051 H1027 0.950 . S
C1051 C1050 1.524 . S
C1051 C1052 1.415 . S
C1052 H1028 0.950 . S
C1052 C1047 1.363 1_545 S
C1052 C1051 1.415 . S
C1053 H1029 0.951 . S
C1053 C1054 1.366 . S
C1053 C1055 1.388 . S
C1054 C1053 1.366 . S
C1054 C1058 1.385 . S
C1055 H1030 0.951 . S
C1055 C1053 1.388 . S
C1055 C1056 1.366 . S
C1056 C1055 1.366 . S
C1056 C1057 1.414 . S
C1056 C1059 1.499 . S
C1057 H1031 0.950 . S
C1057 C1056 1.414 . S
C1057 C1058 1.374 . S
C1058 H1032 0.950 . S
C1058 C1054 1.385 . S
C1058 C1057 1.374 . S
C1059 C1056 1.499 . S
C1059 C1060 1.373 . S
C1059 C1061 1.389 . S
C1060 H1033 0.950 . S
C1060 C1046 1.377 . S
C1060 C1059 1.373 . S
C1061 C1045 1.377 . S
C1061 C1059 1.389 . S
C1061 C1062 1.524 . S
C1062 C1061 1.524 . S
C1062 C1063 1.397 . S
C1062 C1067 1.363 . S
C1063 H1034 0.950 . S
C1063 C1062 1.397 . S
C1063 C1064 1.334 . S
C1064 H1035 0.950 . S
C1064 C1063 1.334 . S
C1064 C1065 1.287 . S
C1065 C1064 1.287 . S
C1065 C1066 1.524 . S
C1065 H1068 0.999 . S
C1066 H1036 0.950 . S
C1066 C1065 1.524 . S
C1066 C1067 1.415 . S
C1067 H1037 0.950 . S
C1067 C1062 1.363 . S
C1067 C1066 1.415 . S
H1068 C1065 0.999 . S
H1069 C1050 0.913 . S
H1070 C1088 0.951 . S
H1071 C1090 0.951 . S
H1072 C1092 0.950 . S
H1073 C1093 0.950 . S
H1074 C1095 0.954 . S
H1075 C1098 0.950 . S
H1076 C1099 0.950 . S
H1077 C1101 0.950 . S
H1078 C1102 0.950 . S
H1079 C1103 0.951 . S
H1080 C1105 0.951 . S
H1081 C1107 0.950 . S
H1082 C1108 0.950 . S
H1083 C1110 0.950 . S
H1084 C1113 0.950 . S
H1085 C1114 0.950 . S
H1086 C1116 0.950 . S
H1087 C1117 0.950 . S
C1088 H1070 0.951 . S
C1088 C1089 1.366 . S
C1088 C1090 1.388 . S
C1089 C1088 1.366 . S
C1089 C1093 1.385 . S
C1090 H1071 0.951 . S
C1090 C1088 1.388 . S
C1090 C1091 1.366 . S
C1091 C1090 1.366 . S
C1091 C1092 1.414 . S
C1091 C1094 1.499 . S
C1092 H1072 0.950 . S
C1092 C1091 1.414 . S
C1092 C1093 1.374 . S
C1093 H1073 0.950 . S
C1093 C1089 1.385 . S
C1093 C1092 1.374 . S
C1094 C1091 1.499 . S
C1094 C1095 1.381 . S
C1094 C1096 1.389 . S
C1095 H1074 0.954 . S
C1095 C1094 1.381 . S
C1095 C1111 1.366 1_545 S
C1096 C1094 1.389 . S
C1096 C1097 1.524 . S
C1096 C1110 1.377 1_545 S
C1097 C1096 1.524 . S
C1097 C1098 1.397 . S
C1097 C1102 1.363 . S
C1098 H1075 0.950 . S
C1098 C1097 1.397 . S
C1098 C1099 1.334 . S
C1099 H1076 0.950 . S
C1099 C1098 1.334 . S
C1099 C1100 1.287 . S
C1100 C1099 1.287 . S
C1100 C1101 1.524 . S
C1100 H1119 0.913 . S
C1101 H1077 0.950 . S
C1101 C1100 1.524 . S
C1101 C1102 1.415 . S
C1102 H1078 0.950 . S
C1102 C1097 1.363 . S
C1102 C1101 1.415 . S
C1103 H1079 0.951 . S
C1103 C1104 1.366 . S
C1103 C1105 1.388 . S
C1104 C1103 1.366 . S
C1104 C1108 1.385 . S
C1105 H1080 0.951 . S
C1105 C1103 1.388 . S
C1105 C1106 1.366 . S
C1106 C1105 1.366 . S
C1106 C1107 1.414 . S
C1106 C1109 1.499 . S
C1107 H1081 0.950 . S
C1107 C1106 1.414 . S
C1107 C1108 1.374 . S
C1108 H1082 0.950 . S
C1108 C1104 1.385 . S
C1108 C1107 1.374 . S
C1109 C1106 1.499 . S
C1109 C1110 1.373 . S
C1109 C1111 1.389 . S
C1110 H1083 0.950 . S
C1110 C1096 1.377 1_565 S
C1110 C1109 1.373 . S
C1111 C1095 1.366 1_565 S
C1111 C1109 1.389 . S
C1111 C1112 1.524 . S
C1112 C1111 1.524 . S
C1112 C1113 1.397 . S
C1112 C1117 1.363 . S
C1113 H1084 0.950 . S
C1113 C1112 1.397 . S
C1113 C1114 1.334 . S
C1114 H1085 0.950 . S
C1114 C1113 1.334 . S
C1114 C1115 1.287 . S
C1115 C1114 1.287 . S
C1115 C1116 1.524 . S
C1115 H1118 0.999 . S
C1116 H1086 0.950 . S
C1116 C1115 1.524 . S
C1116 C1117 1.415 . S
C1117 H1087 0.950 . S
C1117 C1112 1.363 . S
C1117 C1116 1.415 . S
H1118 C1115 0.999 . S
H1119 C1100 0.913 . S
H1120 C1138 0.951 . S
H1121 C1140 0.951 . S
H1122 C1142 0.950 . S
H1123 C1143 0.950 . S
H1124 C1145 0.950 . S
H1125 C1148 0.950 . S
H1126 C1149 0.950 . S
H1127 C1151 0.950 . S
H1128 C1152 0.950 . S
H1129 C1153 0.951 . S
H1130 C1155 0.951 . S
H1131 C1157 0.950 . S
H1132 C1158 0.950 . S
H1133 C1160 0.950 . S
H1134 C1163 0.950 . S
H1135 C1164 0.950 . S
H1136 C1166 0.950 . S
H1137 C1167 0.950 . S
C1138 H1120 0.951 . S
C1138 C1139 1.366 . S
C1138 C1140 1.388 . S
C1139 C1138 1.366 . S
C1139 C1143 1.385 . S
C1140 H1121 0.951 . S
C1140 C1138 1.388 . S
C1140 C1141 1.366 . S
C1141 C1140 1.366 . S
C1141 C1142 1.414 . S
C1141 C1144 1.499 . S
C1142 H1122 0.950 . S
C1142 C1141 1.414 . S
C1142 C1143 1.374 . S
C1143 H1123 0.950 . S
C1143 C1139 1.385 . S
C1143 C1142 1.374 . S
C1144 C1141 1.499 . S
C1144 C1145 1.373 . S
C1144 C1146 1.389 . S
C1145 H1124 0.950 . S
C1145 C1144 1.373 . S
C1145 C1161 1.377 . S
C1146 C1144 1.389 . S
C1146 C1147 1.524 . S
C1146 C1160 1.377 . S
C1147 C1146 1.524 . S
C1147 C1148 1.397 . S
C1147 C1152 1.363 . S
C1148 H1125 0.950 . S
C1148 C1147 1.397 . S
C1148 C1149 1.334 . S
C1149 H1126 0.950 . S
C1149 C1148 1.334 . S
C1149 C1150 1.287 . S
C1150 C1149 1.287 . S
C1150 C1151 1.524 . S
C1150 H1169 0.913 . S
C1151 H1127 0.950 . S
C1151 C1150 1.524 . S
C1151 C1152 1.415 . S
C1152 H1128 0.950 . S
C1152 C1147 1.363 . S
C1152 C1151 1.415 . S
C1153 H1129 0.951 . S
C1153 C1154 1.366 . S
C1153 C1155 1.388 . S
C1154 C1153 1.366 . S
C1154 C1158 1.385 . S
C1155 H1130 0.951 . S
C1155 C1153 1.388 . S
C1155 C1156 1.366 . S
C1156 C1155 1.366 . S
C1156 C1157 1.414 . S
C1156 C1159 1.499 . S
C1157 H1131 0.950 . S
C1157 C1156 1.414 . S
C1157 C1158 1.374 . S
C1158 H1132 0.950 . S
C1158 C1154 1.385 . S
C1158 C1157 1.374 . S
C1159 C1156 1.499 . S
C1159 C1160 1.373 . S
C1159 C1161 1.389 . S
C1160 H1133 0.950 . S
C1160 C1146 1.377 . S
C1160 C1159 1.373 . S
C1161 C1145 1.377 . S
C1161 C1159 1.389 . S
C1161 C1162 1.524 . S
C1162 C1161 1.524 . S
C1162 C1163 1.397 . S
C1162 C1167 1.363 . S
C1163 H1134 0.950 . S
C1163 C1162 1.397 . S
C1163 C1164 1.334 . S
C1164 H1135 0.950 . S
C1164 C1163 1.334 . S
C1164 C1165 1.287 . S
C1165 C1164 1.287 . S
C1165 C1166 1.524 . S
C1165 H1168 0.999 . S
C1166 H1136 0.950 . S
C1166 C1165 1.524 . S
C1166 C1167 1.415 . S
C1167 H1137 0.950 . S
C1167 C1162 1.363 . S
C1167 C1166 1.415 . S
H1168 C1165 0.999 . S
H1169 C1150 0.913 . S
H1170 C1188 0.951 . S
H1171 C1190 0.951 . S
H1172 C1192 0.950 . S
H1173 C1193 0.950 . S
H1174 C1195 0.950 . S
H1175 C1198 0.950 . S
H1176 C1199 0.950 . S
H1177 C1201 0.950 . S
H1178 C1202 0.950 . S
H1179 C1203 0.951 . S
H1180 C1205 0.951 . S
H1181 C1207 0.950 . S
H1182 C1208 0.950 . S
H1183 C1210 0.950 . S
H1184 C1213 0.950 . S
H1185 C1214 0.950 . S
H1186 C1216 0.950 1_545 S
H1187 C1217 0.950 1_545 S
C1188 H1170 0.951 . S
C1188 C1189 1.366 . S
C1188 C1190 1.388 . S
C1189 C1188 1.366 . S
C1189 C1193 1.385 . S
C1190 H1171 0.951 . S
C1190 C1188 1.388 . S
C1190 C1191 1.366 . S
C1191 C1190 1.366 . S
C1191 C1192 1.414 . S
C1191 C1194 1.499 . S
C1192 H1172 0.950 . S
C1192 C1191 1.414 . S
C1192 C1193 1.374 . S
C1193 H1173 0.950 . S
C1193 C1189 1.385 . S
C1193 C1192 1.374 . S
C1194 C1191 1.499 . S
C1194 C1195 1.373 . S
C1194 C1196 1.389 . S
C1195 H1174 0.950 . S
C1195 C1194 1.373 . S
C1195 C1211 1.377 1_545 S
C1196 C1194 1.389 . S
C1196 C1197 1.524 . S
C1196 C1210 1.377 1_545 S
C1197 C1196 1.524 . S
C1197 C1198 1.397 . S
C1197 C1202 1.363 1_545 S
C1198 H1175 0.950 . S
C1198 C1197 1.397 . S
C1198 C1199 1.334 . S
C1199 H1176 0.950 . S
C1199 C1198 1.334 . S
C1199 C1200 1.287 . S
C1200 C1199 1.287 . S
C1200 C1201 1.524 1_545 S
C1200 H1219 0.913 . S
C1201 H1177 0.950 . S
C1201 C1200 1.524 1_565 S
C1201 C1202 1.415 . S
C1202 H1178 0.950 . S
C1202 C1197 1.363 1_565 S
C1202 C1201 1.415 . S
C1203 H1179 0.951 . S
C1203 C1204 1.366 . S
C1203 C1205 1.388 . S
C1204 C1203 1.366 . S
C1204 C1208 1.385 . S
C1205 H1180 0.951 . S
C1205 C1203 1.388 . S
C1205 C1206 1.366 . S
C1206 C1205 1.366 . S
C1206 C1207 1.414 . S
C1206 C1209 1.499 . S
C1207 H1181 0.950 . S
C1207 C1206 1.414 . S
C1207 C1208 1.374 . S
C1208 H1182 0.950 . S
C1208 C1204 1.385 . S
C1208 C1207 1.374 . S
C1209 C1206 1.499 . S
C1209 C1210 1.373 . S
C1209 C1211 1.389 . S
C1210 H1183 0.950 . S
C1210 C1196 1.377 1_565 S
C1210 C1209 1.373 . S
C1211 C1195 1.377 1_565 S
C1211 C1209 1.389 . S
C1211 C1212 1.524 . S
C1212 C1211 1.524 . S
C1212 C1213 1.397 . S
C1212 C1217 1.363 . S
C1213 H1184 0.950 . S
C1213 C1212 1.397 . S
C1213 C1214 1.334 . S
C1214 H1185 0.950 . S
C1214 C1213 1.334 . S
C1214 C1215 1.287 . S
C1215 C1214 1.287 . S
C1215 C1216 1.524 . S
C1215 H1218 0.999 . S
C1216 H1186 0.950 1_565 S
C1216 C1215 1.524 . S
C1216 C1217 1.415 . S
C1217 H1187 0.950 1_565 S
C1217 C1212 1.363 . S
C1217 C1216 1.415 . S
H1218 C1215 0.999 . S
H1219 C1200 0.913 . S
H1220 C1238 0.951 . S
H1221 C1240 0.951 . S
H1222 C1242 0.950 . S
H1223 C1243 0.950 1_545 S
H1224 C1245 0.950 . S
H1225 C1248 0.950 1_545 S
H1226 C1249 0.950 . S
H1227 C1251 0.950 . S
H1228 C1252 0.950 . S
H1229 C1253 0.951 . S
H1230 C1255 0.951 . S
H1231 C1257 0.950 . S
H1232 C1258 0.950 . S
H1233 C1260 0.950 . S
H1234 C1263 0.950 . S
H1235 C1264 0.950 . S
H1236 C1266 0.950 . S
H1237 C1267 0.950 . S
C1238 H1220 0.951 . S
C1238 C1239 1.366 . S
C1238 C1240 1.388 . S
C1239 C1238 1.366 . S
C1239 C1243 1.385 . S
C1240 H1221 0.951 . S
C1240 C1238 1.388 . S
C1240 C1241 1.366 . S
C1241 C1240 1.366 . S
C1241 C1242 1.414 . S
C1241 C1244 1.499 . S
C1242 H1222 0.950 . S
C1242 C1241 1.414 . S
C1242 C1243 1.374 . S
C1243 H1223 0.950 1_565 S
C1243 C1239 1.385 . S
C1243 C1242 1.374 . S
C1244 C1241 1.499 . S
C1244 C1245 1.373 . S
C1244 C1246 1.389 . S
C1245 H1224 0.950 . S
C1245 C1244 1.373 . S
C1245 C1261 1.377 . S
C1246 C1244 1.389 . S
C1246 C1247 1.524 . S
C1246 C1260 1.377 . S
C1247 C1246 1.524 . S
C1247 C1248 1.397 . S
C1247 C1252 1.363 . S
C1248 H1225 0.950 1_565 S
C1248 C1247 1.397 . S
C1248 C1249 1.334 1_565 S
C1249 H1226 0.950 . S
C1249 C1248 1.334 1_545 S
C1249 C1250 1.287 1_545 S
C1250 C1249 1.287 1_565 S
C1250 C1251 1.524 . S
C1250 H1269 0.913 1_565 S
C1251 H1227 0.950 . S
C1251 C1250 1.524 . S
C1251 C1252 1.415 . S
C1252 H1228 0.950 . S
C1252 C1247 1.363 . S
C1252 C1251 1.415 . S
C1253 H1229 0.951 . S
C1253 C1254 1.366 . S
C1253 C1255 1.388 . S
C1254 C1253 1.366 . S
C1254 C1258 1.385 . S
C1255 H1230 0.951 . S
C1255 C1253 1.388 . S
C1255 C1256 1.366 . S
C1256 C1255 1.366 . S
C1256 C1257 1.414 . S
C1256 C1259 1.499 . S
C1257 H1231 0.950 . S
C1257 C1256 1.414 . S
C1257 C1258 1.374 . S
C1258 H1232 0.950 . S
C1258 C1254 1.385 . S
C1258 C1257 1.374 . S
C1259 C1256 1.499 . S
C1259 C1260 1.373 . S
C1259 C1261 1.389 . S
C1260 H1233 0.950 . S
C1260 C1246 1.377 . S
C1260 C1259 1.373 . S
C1261 C1245 1.377 . S
C1261 C1259 1.389 . S
C1261 C1262 1.524 . S
C1262 C1261 1.524 . S
C1262 C1263 1.397 . S
C1262 C1267 1.363 . S
C1263 H1234 0.950 . S
C1263 C1262 1.397 . S
C1263 C1264 1.334 . S
C1264 H1235 0.950 . S
C1264 C1263 1.334 . S
C1264 C1265 1.287 . S
C1265 C1264 1.287 . S
C1265 C1266 1.524 . S
C1265 H1268 0.999 . S
C1266 H1236 0.950 . S
C1266 C1265 1.524 . S
C1266 C1267 1.415 . S
C1267 H1237 0.950 . S
C1267 C1262 1.363 . S
C1267 C1266 1.415 . S
H1268 C1265 0.999 . S
H1269 C1250 0.913 1_545 S
H1270 C1288 0.951 . S
H1271 C1290 0.951 . S
H1272 C1292 0.950 . S
H1273 C1293 0.950 . S
H1274 C1295 0.950 1_565 S
H1275 C1298 0.950 . S
H1276 C1299 0.950 . S
H1277 C1301 0.950 . S
H1278 C1302 0.950 . S
H1279 C1303 0.951 . S
H1280 C1305 0.951 . S
H1281 C1307 0.950 . S
H1282 C1308 0.950 . S
H1283 C1310 0.950 . S
H1284 C1313 0.950 . S
H1285 C1314 0.950 . S
H1286 C1316 0.950 . S
H1287 C1317 0.950 . S
C1288 H1270 0.951 . S
C1288 C1289 1.366 . S
C1288 C1290 1.388 . S
C1289 C1288 1.366 . S
C1289 C1293 1.385 . S
C1290 H1271 0.951 . S
C1290 C1288 1.388 . S
C1290 C1291 1.366 . S
C1291 C1290 1.366 . S
C1291 C1292 1.414 . S
C1291 C1294 1.499 1_565 S
C1292 H1272 0.950 . S
C1292 C1291 1.414 . S
C1292 C1293 1.374 . S
C1293 H1273 0.950 . S
C1293 C1289 1.385 . S
C1293 C1292 1.374 . S
C1294 C1291 1.499 1_545 S
C1294 C1295 1.373 . S
C1294 C1296 1.389 . S
C1295 H1274 0.950 1_545 S
C1295 C1294 1.373 . S
C1295 C1311 1.377 . S
C1296 C1294 1.389 . S
C1296 C1297 1.524 . S
C1296 C1310 1.377 . S
C1297 C1296 1.524 . S
C1297 C1298 1.397 1_545 S
C1297 C1302 1.363 . S
C1298 H1275 0.950 . S
C1298 C1297 1.397 1_565 S
C1298 C1299 1.334 . S
C1299 H1276 0.950 . S
C1299 C1298 1.334 . S
C1299 C1300 1.292 . S
C1300 C1299 1.292 . S
C1300 C1301 1.529 1_565 S
C1300 H1319 0.903 1_655 S
C1301 H1277 0.950 . S
C1301 C1300 1.529 1_545 S
C1301 C1302 1.415 . S
C1302 H1278 0.950 . S
C1302 C1297 1.363 . S
C1302 C1301 1.415 . S
C1303 H1279 0.951 . S
C1303 C1304 1.366 . S
C1303 C1305 1.388 . S
C1304 C1303 1.366 . S
C1304 C1308 1.385 . S
C1305 H1280 0.951 . S
C1305 C1303 1.388 . S
C1305 C1306 1.366 . S
C1306 C1305 1.366 . S
C1306 C1307 1.414 . S
C1306 C1309 1.499 . S
C1307 H1281 0.950 . S
C1307 C1306 1.414 . S
C1307 C1308 1.374 . S
C1308 H1282 0.950 . S
C1308 C1304 1.385 . S
C1308 C1307 1.374 . S
C1309 C1306 1.499 . S
C1309 C1310 1.373 . S
C1309 C1311 1.389 . S
C1310 H1283 0.950 . S
C1310 C1296 1.377 . S
C1310 C1309 1.373 . S
C1311 C1295 1.377 . S
C1311 C1309 1.389 . S
C1311 C1312 1.524 . S
C1312 C1311 1.524 . S
C1312 C1313 1.397 . S
C1312 C1317 1.363 . S
C1313 H1284 0.950 . S
C1313 C1312 1.397 . S
C1313 C1314 1.334 . S
C1314 H1285 0.950 . S
C1314 C1313 1.334 . S
C1314 C1315 1.287 . S
C1315 C1314 1.287 . S
C1315 C1316 1.524 . S
C1315 H1318 0.999 . S
C1316 H1286 0.950 . S
C1316 C1315 1.524 . S
C1316 C1317 1.415 . S
C1317 H1287 0.950 . S
C1317 C1312 1.363 . S
C1317 C1316 1.415 . S
H1318 C1315 0.999 . S
H1319 C1300 0.903 1_455 S
H1320 C1338 0.951 . S
H1321 C1340 0.951 . S
H1322 C1342 0.950 . S
H1323 C1343 0.950 . S
H1324 C1345 0.950 . S
H1325 C1348 0.950 . S
H1326 C1349 0.950 . S
H1327 C1351 0.950 . S
H1328 C1352 0.950 . S
H1329 C1353 0.951 . S
H1330 C1355 0.951 . S
H1331 C1357 0.950 . S
H1332 C1358 0.950 . S
H1333 C1360 0.950 . S
H1334 C1363 0.950 . S
H1335 C1364 0.950 . S
H1336 C1366 0.950 . S
H1337 C1367 0.950 . S
C1338 H1320 0.951 . S
C1338 C1339 1.366 . S
C1338 C1340 1.388 . S
C1339 C1338 1.366 . S
C1339 C1343 1.385 . S
C1340 H1321 0.951 . S
C1340 C1338 1.388 . S
C1340 C1341 1.366 . S
C1341 C1340 1.366 . S
C1341 C1342 1.414 . S
C1341 C1344 1.499 . S
C1342 H1322 0.950 . S
C1342 C1341 1.414 . S
C1342 C1343 1.374 . S
C1343 H1323 0.950 . S
C1343 C1339 1.385 . S
C1343 C1342 1.374 . S
C1344 C1341 1.499 . S
C1344 C1345 1.373 . S
C1344 C1346 1.389 . S
C1345 H1324 0.950 . S
C1345 C1344 1.373 . S
C1345 C1361 1.377 . S
C1346 C1344 1.389 . S
C1346 C1347 1.524 . S
C1346 C1360 1.377 . S
C1347 C1346 1.524 . S
C1347 C1348 1.397 . S
C1347 C1352 1.363 . S
C1348 H1325 0.950 . S
C1348 C1347 1.397 . S
C1348 C1349 1.334 1_565 S
C1349 H1326 0.950 . S
C1349 C1348 1.334 1_545 S
C1349 C1350 1.287 . S
C1350 C1349 1.287 . S
C1350 C1351 1.524 . S
C1350 H1369 0.913 . S
C1351 H1327 0.950 . S
C1351 C1350 1.524 . S
C1351 C1352 1.415 1_545 S
C1352 H1328 0.950 . S
C1352 C1347 1.363 . S
C1352 C1351 1.415 1_565 S
C1353 H1329 0.951 . S
C1353 C1354 1.366 . S
C1353 C1355 1.388 . S
C1354 C1353 1.366 . S
C1354 C1358 1.385 . S
C1355 H1330 0.951 . S
C1355 C1353 1.388 . S
C1355 C1356 1.366 . S
C1356 C1355 1.366 . S
C1356 C1357 1.414 . S
C1356 C1359 1.499 . S
C1357 H1331 0.950 . S
C1357 C1356 1.414 . S
C1357 C1358 1.374 . S
C1358 H1332 0.950 . S
C1358 C1354 1.385 . S
C1358 C1357 1.374 . S
C1359 C1356 1.499 . S
C1359 C1360 1.373 . S
C1359 C1361 1.389 . S
C1360 H1333 0.950 . S
C1360 C1346 1.377 . S
C1360 C1359 1.373 . S
C1361 C1345 1.377 . S
C1361 C1359 1.389 . S
C1361 C1362 1.524 . S
C1362 C1361 1.524 . S
C1362 C1363 1.397 . S
C1362 C1367 1.363 . S
C1363 H1334 0.950 . S
C1363 C1362 1.397 . S
C1363 C1364 1.334 . S
C1364 H1335 0.950 . S
C1364 C1363 1.334 . S
C1364 C1365 1.287 . S
C1365 C1364 1.287 . S
C1365 C1366 1.524 . S
C1365 H1368 0.999 . S
C1366 H1336 0.950 . S
C1366 C1365 1.524 . S
C1366 C1367 1.415 . S
C1367 H1337 0.950 . S
C1367 C1362 1.363 . S
C1367 C1366 1.415 . S
H1368 C1365 0.999 . S
H1369 C1350 0.913 . S
H1370 C1388 0.951 . S
H1371 C1390 0.951 . S
H1372 C1392 0.950 . S
H1373 C1393 0.950 . S
H1374 C1395 0.950 . S
H1375 C1398 0.950 . S
H1376 C1399 0.950 . S
H1377 C1401 0.950 . S
H1378 C1402 0.950 1_565 S
H1379 C1403 0.951 . S
H1380 C1405 0.951 . S
H1381 C1407 0.950 . S
H1382 C1408 0.950 . S
H1383 C1410 0.950 . S
H1384 C1413 0.950 . S
H1385 C1414 0.950 . S
H1386 C1416 0.950 . S
H1387 C1417 0.950 . S
C1388 H1370 0.951 . S
C1388 C1389 1.366 . S
C1388 C1390 1.388 . S
C1389 C1388 1.366 . S
C1389 C1393 1.385 . S
C1390 H1371 0.951 . S
C1390 C1388 1.388 . S
C1390 C1391 1.366 . S
C1391 C1390 1.366 . S
C1391 C1392 1.414 . S
C1391 C1394 1.499 . S
C1392 H1372 0.950 . S
C1392 C1391 1.414 . S
C1392 C1393 1.374 . S
C1393 H1373 0.950 . S
C1393 C1389 1.385 . S
C1393 C1392 1.374 . S
C1394 C1391 1.499 . S
C1394 C1395 1.373 1_545 S
C1394 C1396 1.389 . S
C1395 H1374 0.950 . S
C1395 C1394 1.373 1_565 S
C1395 C1411 1.377 . S
C1396 C1394 1.389 . S
C1396 C1397 1.524 . S
C1396 C1410 1.377 1_545 S
C1397 C1396 1.524 . S
C1397 C1398 1.397 . S
C1397 C1402 1.363 . S
C1398 H1375 0.950 . S
C1398 C1397 1.397 . S
C1398 C1399 1.334 . S
C1399 H1376 0.950 . S
C1399 C1398 1.334 . S
C1399 C1400 1.287 . S
C1400 C1399 1.287 . S
C1400 C1401 1.524 . S
C1400 H1419 0.913 . S
C1401 H1377 0.950 . S
C1401 C1400 1.524 . S
C1401 C1402 1.415 . S
C1402 H1378 0.950 1_545 S
C1402 C1397 1.363 . S
C1402 C1401 1.415 . S
C1403 H1379 0.951 . S
C1403 C1404 1.366 . S
C1403 C1405 1.388 . S
C1404 C1403 1.366 . S
C1404 C1408 1.385 . S
C1405 H1380 0.951 . S
C1405 C1403 1.388 . S
C1405 C1406 1.366 . S
C1406 C1405 1.366 . S
C1406 C1407 1.414 . S
C1406 C1409 1.499 . S
C1407 H1381 0.950 . S
C1407 C1406 1.414 . S
C1407 C1408 1.374 . S
C1408 H1382 0.950 . S
C1408 C1404 1.385 . S
C1408 C1407 1.374 . S
C1409 C1406 1.499 . S
C1409 C1410 1.373 . S
C1409 C1411 1.389 . S
C1410 H1383 0.950 . S
C1410 C1396 1.377 1_565 S
C1410 C1409 1.373 . S
C1411 C1395 1.377 . S
C1411 C1409 1.389 . S
C1411 C1412 1.524 . S
C1412 C1411 1.524 . S
C1412 C1413 1.397 . S
C1412 C1417 1.363 . S
C1413 H1384 0.950 . S
C1413 C1412 1.397 . S
C1413 C1414 1.334 . S
C1414 H1385 0.950 . S
C1414 C1413 1.334 . S
C1414 C1415 1.287 . S
C1415 C1414 1.287 . S
C1415 C1416 1.524 . S
C1415 H1418 0.999 . S
C1416 H1386 0.950 . S
C1416 C1415 1.524 . S
C1416 C1417 1.415 . S
C1417 H1387 0.950 . S
C1417 C1412 1.363 . S
C1417 C1416 1.415 . S
H1418 C1415 0.999 . S
H1419 C1400 0.913 . S
H1420 C1438 0.951 . S
H1421 C1440 0.951 . S
H1422 C1442 0.950 . S
H1423 C1443 0.950 . S
H1424 C1445 0.950 . S
H1425 C1448 0.950 1_556 S
H1426 C1449 0.950 . S
H1427 C1451 0.950 . S
H1428 C1452 0.950 . S
H1429 C1453 0.951 . S
H1430 C1455 0.951 . S
H1431 C1457 0.950 . S
H1432 C1458 0.950 . S
H1433 C1460 0.950 . S
H1434 C1463 0.950 . S
H1435 C1464 0.950 . S
H1436 C1466 0.950 . S
H1437 C1467 0.950 . S
C1438 H1420 0.951 . S
C1438 C1439 1.366 . S
C1438 C1440 1.388 . S
C1439 C1438 1.366 . S
C1439 C1443 1.385 1_554 S
C1440 H1421 0.951 . S
C1440 C1438 1.388 . S
C1440 C1441 1.366 1_554 S
C1441 C1440 1.366 1_556 S
C1441 C1442 1.414 . S
C1441 C1444 1.499 . S
C1442 H1422 0.950 . S
C1442 C1441 1.414 . S
C1442 C1443 1.374 . S
C1443 H1423 0.950 . S
C1443 C1439 1.385 1_556 S
C1443 C1442 1.374 . S
C1444 C1441 1.499 . S
C1444 C1445 1.373 . S
C1444 C1446 1.389 . S
C1445 H1424 0.950 . S
C1445 C1444 1.373 . S
C1445 C1461 1.377 . S
C1446 C1444 1.389 . S
C1446 C1447 1.524 1_556 S
C1446 C1460 1.377 . S
C1447 C1446 1.524 1_554 S
C1447 C1448 1.397 . S
C1447 C1452 1.363 . S
C1448 H1425 0.950 1_554 S
C1448 C1447 1.397 . S
C1448 C1449 1.334 . S
C1449 H1426 0.950 . S
C1449 C1448 1.334 . S
C1449 C1450 1.287 . S
C1450 C1449 1.287 . S
C1450 C1451 1.524 . S
C1450 H1469 0.913 . S
C1451 H1427 0.950 . S
C1451 C1450 1.524 . S
C1451 C1452 1.415 . S
C1452 H1428 0.950 . S
C1452 C1447 1.363 . S
C1452 C1451 1.415 . S
C1453 H1429 0.951 . S
C1453 C1454 1.366 . S
C1453 C1455 1.388 . S
C1454 C1453 1.366 . S
C1454 C1458 1.385 . S
C1455 H1430 0.951 . S
C1455 C1453 1.388 . S
C1455 C1456 1.366 . S
C1456 C1455 1.366 . S
C1456 C1457 1.414 . S
C1456 C1459 1.499 . S
C1457 H1431 0.950 . S
C1457 C1456 1.414 . S
C1457 C1458 1.374 . S
C1458 H1432 0.950 . S
C1458 C1454 1.385 . S
C1458 C1457 1.374 . S
C1459 C1456 1.499 . S
C1459 C1460 1.373 . S
C1459 C1461 1.389 . S
C1460 H1433 0.950 . S
C1460 C1446 1.377 . S
C1460 C1459 1.373 . S
C1461 C1445 1.377 . S
C1461 C1459 1.389 . S
C1461 C1462 1.524 . S
C1462 C1461 1.524 . S
C1462 C1463 1.397 . S
C1462 C1467 1.363 . S
C1463 H1434 0.950 . S
C1463 C1462 1.397 . S
C1463 C1464 1.334 . S
C1464 H1435 0.950 . S
C1464 C1463 1.334 . S
C1464 C1465 1.287 . S
C1465 C1464 1.287 . S
C1465 C1466 1.524 . S
C1465 H1468 0.999 . S
C1466 H1436 0.950 . S
C1466 C1465 1.524 . S
C1466 C1467 1.415 . S
C1467 H1437 0.950 . S
C1467 C1462 1.363 . S
C1467 C1466 1.415 . S
H1468 C1465 0.999 . S
H1469 C1450 0.913 . S
H1470 C1488 0.951 . S
H1471 C1490 0.951 . S
H1472 C1492 0.950 . S
H1473 C1493 0.950 . S
H1474 C1495 0.950 . S
H1475 C1498 0.950 1_545 S
H1476 C1499 0.950 . S
H1477 C1501 0.950 . S
H1478 C1502 0.950 . S
H1479 C1503 0.951 . S
H1480 C1505 0.951 . S
H1481 C1507 0.950 . S
H1482 C1508 0.950 . S
H1483 C1510 0.950 . S
H1484 C1513 0.950 . S
H1485 C1514 0.950 . S
H1486 C1516 0.950 . S
H1487 C1517 0.950 . S
C1488 H1470 0.951 . S
C1488 C1489 1.366 . S
C1488 C1490 1.388 . S
C1489 C1488 1.366 . S
C1489 C1493 1.385 . S
C1490 H1471 0.951 . S
C1490 C1488 1.388 . S
C1490 C1491 1.377 . S
C1491 C1490 1.377 . S
C1491 C1492 1.410 1_565 S
C1491 C1494 1.491 1_565 S
C1492 H1472 0.950 . S
C1492 C1491 1.410 1_545 S
C1492 C1493 1.374 1_545 S
C1493 H1473 0.950 . S
C1493 C1489 1.385 . S
C1493 C1492 1.374 1_565 S
C1494 C1491 1.491 1_545 S
C1494 C1495 1.373 . S
C1494 C1496 1.389 . S
C1495 H1474 0.950 . S
C1495 C1494 1.373 . S
C1495 C1511 1.377 . S
C1496 C1494 1.389 . S
C1496 C1497 1.524 1_545 S
C1496 C1510 1.377 . S
C1497 C1496 1.524 1_565 S
C1497 C1498 1.397 . S
C1497 C1502 1.363 . S
C1498 H1475 0.950 1_565 S
C1498 C1497 1.397 . S
C1498 C1499 1.334 . S
C1499 H1476 0.950 . S
C1499 C1498 1.334 . S
C1499 C1500 1.287 . S
C1500 C1499 1.287 . S
C1500 C1501 1.524 . S
C1500 H1519 0.913 . S
C1501 H1477 0.950 . S
C1501 C1500 1.524 . S
C1501 C1502 1.415 . S
C1502 H1478 0.950 . S
C1502 C1497 1.363 . S
C1502 C1501 1.415 . S
C1503 H1479 0.951 . S
C1503 C1504 1.366 . S
C1503 C1505 1.388 . S
C1504 C1503 1.366 . S
C1504 C1508 1.385 . S
C1505 H1480 0.951 . S
C1505 C1503 1.388 . S
C1505 C1506 1.366 . S
C1506 C1505 1.366 . S
C1506 C1507 1.414 . S
C1506 C1509 1.499 . S
C1507 H1481 0.950 . S
C1507 C1506 1.414 . S
C1507 C1508 1.374 . S
C1508 H1482 0.950 . S
C1508 C1504 1.385 . S
C1508 C1507 1.374 . S
C1509 C1506 1.499 . S
C1509 C1510 1.373 . S
C1509 C1511 1.389 . S
C1510 H1483 0.950 . S
C1510 C1496 1.377 . S
C1510 C1509 1.373 . S
C1511 C1495 1.377 . S
C1511 C1509 1.389 . S
C1511 C1512 1.524 . S
C1512 C1511 1.524 . S
C1512 C1513 1.397 . S
C1512 C1517 1.363 . S
C1513 H1484 0.950 . S
C1513 C1512 1.397 . S
C1513 C1514 1.334 . S
C1514 H1485 0.950 . S
C1514 C1513 1.334 . S
C1514 C1515 1.287 . S
C1515 C1514 1.287 . S
C1515 C1516 1.524 . S
C1515 H1518 0.999 . S
C1516 H1486 0.950 . S
C1516 C1515 1.524 . S
C1516 C1517 1.415 . S
C1517 H1487 0.950 . S
C1517 C1512 1.363 . S
C1517 C1516 1.415 . S
H1518 C1515 0.999 . S
H1519 C1500 0.913 . S
H1520 C1538 0.951 . S
H1521 C1540 0.951 . S
H1522 C1542 0.950 . S
H1523 C1543 0.950 . S
H1524 C1545 0.950 . S
H1525 C1548 0.950 . S
H1526 C1549 0.950 . S
H1527 C1551 0.950 . S
H1528 C1552 0.950 . S
H1529 C1553 0.951 . S
H1530 C1555 0.951 . S
H1531 C1557 0.950 . S
H1532 C1558 0.950 . S
H1533 C1560 0.950 . S
H1534 C1563 0.950 . S
H1535 C1564 0.950 . S
H1536 C1566 0.950 1_554 S
H1537 C1567 0.950 1_554 S
C1538 H1520 0.951 . S
C1538 C1539 1.366 1_556 S
C1538 C1540 1.388 . S
C1539 C1538 1.366 1_554 S
C1539 C1543 1.385 . S
C1540 H1521 0.951 . S
C1540 C1538 1.388 . S
C1540 C1541 1.366 . S
C1541 C1540 1.366 . S
C1541 C1542 1.414 1_556 S
C1541 C1544 1.499 . S
C1542 H1522 0.950 . S
C1542 C1541 1.414 1_554 S
C1542 C1543 1.374 . S
C1543 H1523 0.950 . S
C1543 C1539 1.385 . S
C1543 C1542 1.374 . S
C1544 C1541 1.499 . S
C1544 C1545 1.373 . S
C1544 C1546 1.389 . S
C1545 H1524 0.950 . S
C1545 C1544 1.373 . S
C1545 C1561 1.377 . S
C1546 C1544 1.389 . S
C1546 C1547 1.524 . S
C1546 C1560 1.377 . S
C1547 C1546 1.524 . S
C1547 C1548 1.397 . S
C1547 C1552 1.363 . S
C1548 H1525 0.950 . S
C1548 C1547 1.397 . S
C1548 C1549 1.334 . S
C1549 H1526 0.950 . S
C1549 C1548 1.334 . S
C1549 C1550 1.287 . S
C1550 C1549 1.287 . S
C1550 C1551 1.524 . S
C1550 H1569 0.913 . S
C1551 H1527 0.950 . S
C1551 C1550 1.524 . S
C1551 C1552 1.415 . S
C1552 H1528 0.950 . S
C1552 C1547 1.363 . S
C1552 C1551 1.415 . S
C1553 H1529 0.951 . S
C1553 C1554 1.366 . S
C1553 C1555 1.388 . S
C1554 C1553 1.366 . S
C1554 C1558 1.385 . S
C1555 H1530 0.951 . S
C1555 C1553 1.388 . S
C1555 C1556 1.366 . S
C1556 C1555 1.366 . S
C1556 C1557 1.414 . S
C1556 C1559 1.499 . S
C1557 H1531 0.950 . S
C1557 C1556 1.414 . S
C1557 C1558 1.374 . S
C1558 H1532 0.950 . S
C1558 C1554 1.385 . S
C1558 C1557 1.374 . S
C1559 C1556 1.499 . S
C1559 C1560 1.373 . S
C1559 C1561 1.389 . S
C1560 H1533 0.950 . S
C1560 C1546 1.377 . S
C1560 C1559 1.373 . S
C1561 C1545 1.377 . S
C1561 C1559 1.389 . S
C1561 C1562 1.524 . S
C1562 C1561 1.524 . S
C1562 C1563 1.397 . S
C1562 C1567 1.363 . S
C1563 H1534 0.950 . S
C1563 C1562 1.397 . S
C1563 C1564 1.334 . S
C1564 H1535 0.950 . S
C1564 C1563 1.334 . S
C1564 C1565 1.287 . S
C1565 C1564 1.287 . S
C1565 C1566 1.524 . S
C1565 H1568 0.999 . S
C1566 H1536 0.950 1_556 S
C1566 C1565 1.524 . S
C1566 C1567 1.415 . S
C1567 H1537 0.950 1_556 S
C1567 C1562 1.363 . S
C1567 C1566 1.415 . S
H1568 C1565 0.999 . S
H1569 C1550 0.913 . S
H1570 C1588 0.951 . S
H1571 C1590 0.951 . S
H1572 C1592 0.950 . S
H1573 C1593 0.950 . S
H1574 C1595 0.950 . S
H1575 C1598 0.950 . S
H1576 C1599 0.950 . S
H1577 C1601 0.950 . S
H1578 C1602 0.950 . S
H1579 C1603 0.951 . S
H1580 C1605 0.951 . S
H1581 C1607 0.950 . S
H1582 C1608 0.950 . S
H1583 C1610 0.950 . S
H1584 C1613 0.950 . S
H1585 C1614 0.950 . S
H1586 C1616 0.950 . S
H1587 C1617 0.950 . S
C1588 H1570 0.951 . S
C1588 C1589 1.366 . S
C1588 C1590 1.388 . S
C1589 C1588 1.366 . S
C1589 C1593 1.385 . S
C1590 H1571 0.951 . S
C1590 C1588 1.388 . S
C1590 C1591 1.366 . S
C1591 C1590 1.366 . S
C1591 C1592 1.414 . S
C1591 C1594 1.499 . S
C1592 H1572 0.950 . S
C1592 C1591 1.414 . S
C1592 C1593 1.374 . S
C1593 H1573 0.950 . S
C1593 C1589 1.385 . S
C1593 C1592 1.374 . S
C1594 C1591 1.499 . S
C1594 C1595 1.373 . S
C1594 C1596 1.389 . S
C1595 H1574 0.950 . S
C1595 C1594 1.373 . S
C1595 C1611 1.377 . S
C1596 C1594 1.389 . S
C1596 C1597 1.524 . S
C1596 C1610 1.377 . S
C1597 C1596 1.524 . S
C1597 C1598 1.397 . S
C1597 C1602 1.363 . S
C1598 H1575 0.950 . S
C1598 C1597 1.397 . S
C1598 C1599 1.334 . S
C1599 H1576 0.950 . S
C1599 C1598 1.334 . S
C1599 C1600 1.287 1_655 S
C1600 C1599 1.287 1_455 S
C1600 C1601 1.524 . S
C1600 H1619 0.913 . S
C1601 H1577 0.950 . S
C1601 C1600 1.524 . S
C1601 C1602 1.415 1_455 S
C1602 H1578 0.950 . S
C1602 C1597 1.363 . S
C1602 C1601 1.415 1_655 S
C1603 H1579 0.951 . S
C1603 C1604 1.366 . S
C1603 C1605 1.388 . S
C1604 C1603 1.366 . S
C1604 C1608 1.385 . S
C1605 H1580 0.951 . S
C1605 C1603 1.388 . S
C1605 C1606 1.366 . S
C1606 C1605 1.366 . S
C1606 C1607 1.414 . S
C1606 C1609 1.499 . S
C1607 H1581 0.950 . S
C1607 C1606 1.414 . S
C1607 C1608 1.374 . S
C1608 H1582 0.950 . S
C1608 C1604 1.385 . S
C1608 C1607 1.374 . S
C1609 C1606 1.499 . S
C1609 C1610 1.373 . S
C1609 C1611 1.389 . S
C1610 H1583 0.950 . S
C1610 C1596 1.377 . S
C1610 C1609 1.373 . S
C1611 C1595 1.377 . S
C1611 C1609 1.389 . S
C1611 C1612 1.524 . S
C1612 C1611 1.524 . S
C1612 C1613 1.397 . S
C1612 C1617 1.363 . S
C1613 H1584 0.950 . S
C1613 C1612 1.397 . S
C1613 C1614 1.334 . S
C1614 H1585 0.950 . S
C1614 C1613 1.334 . S
C1614 C1615 1.287 . S
C1615 C1614 1.287 . S
C1615 C1616 1.524 . S
C1615 H1618 0.999 . S
C1616 H1586 0.950 . S
C1616 C1615 1.524 . S
C1616 C1617 1.415 . S
C1617 H1587 0.950 . S
C1617 C1612 1.363 . S
C1617 C1616 1.415 . S
H1618 C1615 0.999 . S
H1619 C1600 0.913 . S
H1620 C1638 0.951 . S
H1621 C1640 0.951 . S
H1622 C1642 0.950 . S
H1623 C1643 0.950 . S
H1624 C1645 0.950 . S
H1625 C1648 0.950 . S
H1626 C1649 0.950 . S
H1627 C1651 0.950 . S
H1628 C1652 0.950 . S
H1629 C1653 0.951 . S
H1630 C1655 0.951 . S
H1631 C1657 0.950 . S
H1632 C1658 0.950 . S
H1633 C1660 0.950 . S
H1634 C1663 0.950 . S
H1635 C1664 0.950 . S
H1636 C1666 0.950 . S
H1637 C1667 0.950 . S
C1638 H1620 0.951 . S
C1638 C1639 1.366 . S
C1638 C1640 1.388 . S
C1639 C1638 1.366 . S
C1639 C1643 1.385 . S
C1640 H1621 0.951 . S
C1640 C1638 1.388 . S
C1640 C1641 1.366 . S
C1641 C1640 1.366 . S
C1641 C1642 1.414 . S
C1641 C1644 1.499 . S
C1642 H1622 0.950 . S
C1642 C1641 1.414 . S
C1642 C1643 1.374 . S
C1643 H1623 0.950 . S
C1643 C1639 1.385 . S
C1643 C1642 1.374 . S
C1644 C1641 1.499 . S
C1644 C1645 1.373 . S
C1644 C1646 1.389 . S
C1645 H1624 0.950 . S
C1645 C1644 1.373 . S
C1645 C1661 1.377 . S
C1646 C1644 1.389 . S
C1646 C1647 1.524 . S
C1646 C1660 1.377 . S
C1647 C1646 1.524 . S
C1647 C1648 1.397 . S
C1647 C1652 1.363 . S
C1648 H1625 0.950 . S
C1648 C1647 1.397 . S
C1648 C1649 1.334 . S
C1649 H1626 0.950 . S
C1649 C1648 1.334 . S
C1649 C1650 1.287 . S
C1650 C1649 1.287 . S
C1650 C1651 1.524 . S
C1650 H1669 0.913 . S
C1651 H1627 0.950 . S
C1651 C1650 1.524 . S
C1651 C1652 1.415 . S
C1652 H1628 0.950 . S
C1652 C1647 1.363 . S
C1652 C1651 1.415 . S
C1653 H1629 0.951 . S
C1653 C1654 1.366 . S
C1653 C1655 1.388 . S
C1654 C1653 1.366 . S
C1654 C1658 1.385 . S
C1655 H1630 0.951 . S
C1655 C1653 1.388 . S
C1655 C1656 1.366 . S
C1656 C1655 1.366 . S
C1656 C1657 1.414 . S
C1656 C1659 1.499 . S
C1657 H1631 0.950 . S
C1657 C1656 1.414 . S
C1657 C1658 1.374 . S
C1658 H1632 0.950 . S
C1658 C1654 1.385 . S
C1658 C1657 1.374 . S
C1659 C1656 1.499 . S
C1659 C1660 1.373 . S
C1659 C1661 1.389 . S
C1660 H1633 0.950 . S
C1660 C1646 1.377 . S
C1660 C1659 1.373 . S
C1661 C1645 1.377 . S
C1661 C1659 1.389 . S
C1661 C1662 1.524 . S
C1662 C1661 1.524 . S
C1662 C1663 1.397 . S
C1662 C1667 1.363 . S
C1663 H1634 0.950 . S
C1663 C1662 1.397 . S
C1663 C1664 1.334 . S
C1664 H1635 0.950 . S
C1664 C1663 1.334 . S
C1664 C1665 1.287 . S
C1665 C1664 1.287 . S
C1665 C1666 1.524 . S
C1665 H1668 0.999 . S
C1666 H1636 0.950 . S
C1666 C1665 1.524 . S
C1666 C1667 1.415 . S
C1667 H1637 0.950 . S
C1667 C1662 1.363 . S
C1667 C1666 1.415 . S
H1668 C1665 0.999 . S
H1669 C1650 0.913 . S
H1670 C1688 0.951 . S
H1671 C1690 0.951 . S
H1672 C1692 0.950 . S
H1673 C1693 0.950 . S
H1674 C1695 0.950 . S
H1675 C1698 0.950 . S
H1676 C1699 0.950 . S
H1677 C1701 0.950 . S
H1678 C1702 0.950 . S
H1679 C1703 0.951 . S
H1680 C1705 0.951 . S
H1681 C1707 0.950 . S
H1682 C1708 0.950 . S
H1683 C1710 0.950 . S
H1684 C1713 0.950 . S
H1685 C1714 0.950 . S
H1686 C1716 0.950 . S
H1687 C1717 0.950 . S
C1688 H1670 0.951 . S
C1688 C1689 1.366 . S
C1688 C1690 1.388 . S
C1689 C1688 1.366 . S
C1689 C1693 1.385 . S
C1690 H1671 0.951 . S
C1690 C1688 1.388 . S
C1690 C1691 1.366 . S
C1691 C1690 1.366 . S
C1691 C1692 1.414 . S
C1691 C1694 1.499 . S
C1692 H1672 0.950 . S
C1692 C1691 1.414 . S
C1692 C1693 1.374 . S
C1693 H1673 0.950 . S
C1693 C1689 1.385 . S
C1693 C1692 1.374 . S
C1694 C1691 1.499 . S
C1694 C1695 1.373 . S
C1694 C1696 1.389 . S
C1695 H1674 0.950 . S
C1695 C1694 1.373 . S
C1695 C1711 1.377 . S
C1696 C1694 1.389 . S
C1696 C1697 1.524 . S
C1696 C1710 1.377 . S
C1697 C1696 1.524 . S
C1697 C1698 1.397 . S
C1697 C1702 1.363 . S
C1698 H1675 0.950 . S
C1698 C1697 1.397 . S
C1698 C1699 1.334 . S
C1699 H1676 0.950 . S
C1699 C1698 1.334 . S
C1699 C1700 1.287 . S
C1700 C1699 1.287 . S
C1700 C1701 1.524 . S
C1700 H1719 0.913 . S
C1701 H1677 0.950 . S
C1701 C1700 1.524 . S
C1701 C1702 1.415 . S
C1702 H1678 0.950 . S
C1702 C1697 1.363 . S
C1702 C1701 1.415 . S
C1703 H1679 0.951 . S
C1703 C1704 1.366 . S
C1703 C1705 1.388 . S
C1704 C1703 1.366 . S
C1704 C1708 1.385 . S
C1705 H1680 0.951 . S
C1705 C1703 1.388 . S
C1705 C1706 1.366 . S
C1706 C1705 1.366 . S
C1706 C1707 1.414 . S
C1706 C1709 1.499 . S
C1707 H1681 0.950 . S
C1707 C1706 1.414 . S
C1707 C1708 1.374 . S
C1708 H1682 0.950 . S
C1708 C1704 1.385 . S
C1708 C1707 1.374 . S
C1709 C1706 1.499 . S
C1709 C1710 1.373 . S
C1709 C1711 1.389 . S
C1710 H1683 0.950 . S
C1710 C1696 1.377 . S
C1710 C1709 1.373 . S
C1711 C1695 1.377 . S
C1711 C1709 1.389 . S
C1711 C1712 1.524 . S
C1712 C1711 1.524 . S
C1712 C1713 1.397 . S
C1712 C1717 1.363 . S
C1713 H1684 0.950 . S
C1713 C1712 1.397 . S
C1713 C1714 1.334 . S
C1714 H1685 0.950 . S
C1714 C1713 1.334 . S
C1714 C1715 1.287 . S
C1715 C1714 1.287 . S
C1715 C1716 1.524 . S
C1715 H1718 0.999 . S
C1716 H1686 0.950 . S
C1716 C1715 1.524 . S
C1716 C1717 1.415 . S
C1717 H1687 0.950 . S
C1717 C1712 1.363 . S
C1717 C1716 1.415 . S
H1718 C1715 0.999 . S
H1719 C1700 0.913 . S
H1720 C1738 0.951 . S
H1721 C1740 0.951 . S
H1722 C1742 0.950 . S
H1723 C1743 0.950 . S
H1724 C1745 0.950 . S
H1725 C1748 0.950 . S
H1726 C1749 0.950 . S
H1727 C1751 0.950 . S
H1728 C1752 0.950 . S
H1729 C1753 0.951 . S
H1730 C1755 0.951 . S
H1731 C1757 0.950 . S
H1732 C1758 0.950 . S
H1733 C1760 0.950 . S
H1734 C1763 0.950 . S
H1735 C1764 0.950 . S
H1736 C1766 0.950 . S
H1737 C1767 0.950 . S
C1738 H1720 0.951 . S
C1738 C1739 1.366 . S
C1738 C1740 1.388 . S
C1739 C1738 1.366 . S
C1739 C1743 1.385 . S
C1740 H1721 0.951 . S
C1740 C1738 1.388 . S
C1740 C1741 1.366 . S
C1741 C1740 1.366 . S
C1741 C1742 1.414 . S
C1741 C1744 1.499 . S
C1742 H1722 0.950 . S
C1742 C1741 1.414 . S
C1742 C1743 1.374 . S
C1743 H1723 0.950 . S
C1743 C1739 1.385 . S
C1743 C1742 1.374 . S
C1744 C1741 1.499 . S
C1744 C1745 1.373 . S
C1744 C1746 1.389 . S
C1745 H1724 0.950 . S
C1745 C1744 1.373 . S
C1745 C1761 1.377 . S
C1746 C1744 1.389 . S
C1746 C1747 1.524 . S
C1746 C1760 1.377 . S
C1747 C1746 1.524 . S
C1747 C1748 1.397 . S
C1747 C1752 1.363 . S
C1748 H1725 0.950 . S
C1748 C1747 1.397 . S
C1748 C1749 1.334 . S
C1749 H1726 0.950 . S
C1749 C1748 1.334 . S
C1749 C1750 1.287 . S
C1750 C1749 1.287 . S
C1750 C1751 1.524 . S
C1750 H1769 0.913 . S
C1751 H1727 0.950 . S
C1751 C1750 1.524 . S
C1751 C1752 1.415 . S
C1752 H1728 0.950 . S
C1752 C1747 1.363 . S
C1752 C1751 1.415 . S
C1753 H1729 0.951 . S
C1753 C1754 1.366 . S
C1753 C1755 1.388 . S
C1754 C1753 1.366 . S
C1754 C1758 1.385 . S
C1755 H1730 0.951 . S
C1755 C1753 1.388 . S
C1755 C1756 1.366 . S
C1756 C1755 1.366 . S
C1756 C1757 1.414 . S
C1756 C1759 1.499 . S
C1757 H1731 0.950 . S
C1757 C1756 1.414 . S
C1757 C1758 1.374 . S
C1758 H1732 0.950 . S
C1758 C1754 1.385 . S
C1758 C1757 1.374 . S
C1759 C1756 1.499 . S
C1759 C1760 1.373 . S
C1759 C1761 1.389 . S
C1760 H1733 0.950 . S
C1760 C1746 1.377 . S
C1760 C1759 1.373 . S
C1761 C1745 1.377 . S
C1761 C1759 1.389 . S
C1761 C1762 1.524 . S
C1762 C1761 1.524 . S
C1762 C1763 1.397 . S
C1762 C1767 1.363 . S
C1763 H1734 0.950 . S
C1763 C1762 1.397 . S
C1763 C1764 1.334 . S
C1764 H1735 0.950 . S
C1764 C1763 1.334 . S
C1764 C1765 1.287 . S
C1765 C1764 1.287 . S
C1765 C1766 1.524 . S
C1765 H1768 0.999 . S
C1766 H1736 0.950 . S
C1766 C1765 1.524 . S
C1766 C1767 1.415 . S
C1767 H1737 0.950 . S
C1767 C1762 1.363 . S
C1767 C1766 1.415 . S
H1768 C1765 0.999 . S
H1769 C1750 0.913 . S
H1770 C1788 0.951 . S
H1771 C1790 0.951 . S
H1772 C1792 0.950 . S
H1773 C1793 0.950 . S
H1774 C1795 0.950 . S
H1775 C1798 0.950 . S
H1776 C1799 0.950 . S
H1777 C1801 0.950 . S
H1778 C1802 0.950 . S
H1779 C1803 0.951 . S
H1780 C1805 0.951 . S
H1781 C1807 0.950 . S
H1782 C1808 0.950 . S
H1783 C1810 0.950 . S
H1784 C1813 0.950 . S
H1785 C1814 0.950 . S
H1786 C1816 0.950 . S
H1787 C1817 0.950 . S
C1788 H1770 0.951 . S
C1788 C1789 1.366 . S
C1788 C1790 1.388 . S
C1789 C1788 1.366 . S
C1789 C1793 1.385 . S
C1790 H1771 0.951 . S
C1790 C1788 1.388 . S
C1790 C1791 1.366 . S
C1791 C1790 1.366 . S
C1791 C1792 1.414 . S
C1791 C1794 1.499 . S
C1792 H1772 0.950 . S
C1792 C1791 1.414 . S
C1792 C1793 1.374 . S
C1793 H1773 0.950 . S
C1793 C1789 1.385 . S
C1793 C1792 1.374 . S
C1794 C1791 1.499 . S
C1794 C1795 1.373 . S
C1794 C1796 1.389 . S
C1795 H1774 0.950 . S
C1795 C1794 1.373 . S
C1795 C1811 1.377 . S
C1796 C1794 1.389 . S
C1796 C1797 1.524 . S
C1796 C1810 1.377 . S
C1797 C1796 1.524 . S
C1797 C1798 1.397 . S
C1797 C1802 1.363 . S
C1798 H1775 0.950 . S
C1798 C1797 1.397 . S
C1798 C1799 1.334 . S
C1799 H1776 0.950 . S
C1799 C1798 1.334 . S
C1799 C1800 1.287 . S
C1800 C1799 1.287 . S
C1800 C1801 1.524 . S
C1800 H1819 0.913 . S
C1801 H1777 0.950 . S
C1801 C1800 1.524 . S
C1801 C1802 1.415 . S
C1802 H1778 0.950 . S
C1802 C1797 1.363 . S
C1802 C1801 1.415 . S
C1803 H1779 0.951 . S
C1803 C1804 1.366 . S
C1803 C1805 1.388 . S
C1804 C1803 1.366 . S
C1804 C1808 1.385 . S
C1805 H1780 0.951 . S
C1805 C1803 1.388 . S
C1805 C1806 1.366 . S
C1806 C1805 1.366 . S
C1806 C1807 1.414 . S
C1806 C1809 1.499 . S
C1807 H1781 0.950 . S
C1807 C1806 1.414 . S
C1807 C1808 1.374 . S
C1808 H1782 0.950 . S
C1808 C1804 1.385 . S
C1808 C1807 1.374 . S
C1809 C1806 1.499 . S
C1809 C1810 1.373 . S
C1809 C1811 1.389 . S
C1810 H1783 0.950 . S
C1810 C1796 1.377 . S
C1810 C1809 1.373 . S
C1811 C1795 1.377 . S
C1811 C1809 1.389 . S
C1811 C1812 1.524 . S
C1812 C1811 1.524 . S
C1812 C1813 1.397 . S
C1812 C1817 1.363 . S
C1813 H1784 0.950 . S
C1813 C1812 1.397 . S
C1813 C1814 1.334 . S
C1814 H1785 0.950 . S
C1814 C1813 1.334 . S
C1814 C1815 1.287 . S
C1815 C1814 1.287 . S
C1815 C1816 1.524 . S
C1815 H1818 0.999 . S
C1816 H1786 0.950 . S
C1816 C1815 1.524 . S
C1816 C1817 1.415 . S
C1817 H1787 0.950 . S
C1817 C1812 1.363 . S
C1817 C1816 1.415 . S
H1818 C1815 0.999 . S
H1819 C1800 0.913 . S
H1820 C1838 0.951 . S
H1821 C1840 0.951 . S
H1822 C1842 0.950 . S
H1823 C1843 0.950 . S
H1824 C1845 0.950 . S
H1825 C1848 0.950 . S
H1826 C1849 0.950 . S
H1827 C1851 0.950 . S
H1828 C1852 0.950 . S
H1829 C1853 0.951 . S
H1830 C1855 0.951 . S
H1831 C1857 0.950 . S
H1832 C1858 0.950 . S
H1833 C1860 0.950 . S
H1834 C1863 0.950 . S
H1835 C1864 0.950 . S
H1836 C1866 0.950 . S
H1837 C1867 0.950 . S
C1838 H1820 0.951 . S
C1838 C1839 1.366 . S
C1838 C1840 1.388 . S
C1839 C1838 1.366 . S
C1839 C1843 1.385 . S
C1840 H1821 0.951 . S
C1840 C1838 1.388 . S
C1840 C1841 1.366 . S
C1841 C1840 1.366 . S
C1841 C1842 1.414 . S
C1841 C1844 1.499 . S
C1842 H1822 0.950 . S
C1842 C1841 1.414 . S
C1842 C1843 1.374 . S
C1843 H1823 0.950 . S
C1843 C1839 1.385 . S
C1843 C1842 1.374 . S
C1844 C1841 1.499 . S
C1844 C1845 1.373 . S
C1844 C1846 1.389 . S
C1845 H1824 0.950 . S
C1845 C1844 1.373 . S
C1845 C1861 1.377 . S
C1846 C1844 1.389 . S
C1846 C1847 1.524 . S
C1846 C1860 1.377 . S
C1847 C1846 1.524 . S
C1847 C1848 1.397 . S
C1847 C1852 1.363 . S
C1848 H1825 0.950 . S
C1848 C1847 1.397 . S
C1848 C1849 1.334 . S
C1849 H1826 0.950 . S
C1849 C1848 1.334 . S
C1849 C1850 1.287 . S
C1850 C1849 1.287 . S
C1850 C1851 1.524 . S
C1850 H1869 0.913 . S
C1851 H1827 0.950 . S
C1851 C1850 1.524 . S
C1851 C1852 1.415 . S
C1852 H1828 0.950 . S
C1852 C1847 1.363 . S
C1852 C1851 1.415 . S
C1853 H1829 0.951 . S
C1853 C1854 1.366 . S
C1853 C1855 1.388 . S
C1854 C1853 1.366 . S
C1854 C1858 1.385 . S
C1855 H1830 0.951 . S
C1855 C1853 1.388 . S
C1855 C1856 1.366 . S
C1856 C1855 1.366 . S
C1856 C1857 1.414 . S
C1856 C1859 1.499 . S
C1857 H1831 0.950 . S
C1857 C1856 1.414 . S
C1857 C1858 1.374 . S
C1858 H1832 0.950 . S
C1858 C1854 1.385 . S
C1858 C1857 1.374 . S
C1859 C1856 1.499 . S
C1859 C1860 1.373 . S
C1859 C1861 1.389 . S
C1860 H1833 0.950 . S
C1860 C1846 1.377 . S
C1860 C1859 1.373 . S
C1861 C1845 1.377 . S
C1861 C1859 1.389 . S
C1861 C1862 1.524 . S
C1862 C1861 1.524 . S
C1862 C1863 1.397 . S
C1862 C1867 1.363 . S
C1863 H1834 0.950 . S
C1863 C1862 1.397 . S
C1863 C1864 1.334 . S
C1864 H1835 0.950 . S
C1864 C1863 1.334 . S
C1864 C1865 1.287 . S
C1865 C1864 1.287 . S
C1865 C1866 1.524 . S
C1865 H1868 0.999 . S
C1866 H1836 0.950 . S
C1866 C1865 1.524 . S
C1866 C1867 1.415 . S
C1867 H1837 0.950 . S
C1867 C1862 1.363 . S
C1867 C1866 1.415 . S
H1868 C1865 0.999 . S
H1869 C1850 0.913 . S
H1870 C1888 0.951 . S
H1871 C1890 0.951 . S
H1872 C1892 0.950 . S
H1873 C1893 0.950 . S
H1874 C1895 0.950 . S
H1875 C1898 0.950 . S
H1876 C1899 0.950 . S
H1877 C1901 0.950 . S
H1878 C1902 0.950 . S
H1879 C1903 0.951 . S
H1880 C1905 0.951 . S
H1881 C1907 0.950 . S
H1882 C1908 0.950 . S
H1883 C1910 0.950 . S
H1884 C1913 0.950 1_655 S
H1885 C1914 0.950 . S
H1886 C1916 0.950 . S
H1887 C1917 0.950 . S
C1888 H1870 0.951 . S
C1888 C1889 1.366 . S
C1888 C1890 1.388 . S
C1889 C1888 1.366 . S
C1889 C1893 1.385 . S
C1890 H1871 0.951 . S
C1890 C1888 1.388 . S
C1890 C1891 1.366 . S
C1891 C1890 1.366 . S
C1891 C1892 1.414 . S
C1891 C1894 1.499 . S
C1892 H1872 0.950 . S
C1892 C1891 1.414 . S
C1892 C1893 1.374 . S
C1893 H1873 0.950 . S
C1893 C1889 1.385 . S
C1893 C1892 1.374 . S
C1894 C1891 1.499 . S
C1894 C1895 1.373 . S
C1894 C1896 1.389 . S
C1895 H1874 0.950 . S
C1895 C1894 1.373 . S
C1895 C1911 1.377 . S
C1896 C1894 1.389 . S
C1896 C1897 1.524 . S
C1896 C1910 1.377 . S
C1897 C1896 1.524 . S
C1897 C1898 1.397 . S
C1897 C1902 1.363 . S
C1898 H1875 0.950 . S
C1898 C1897 1.397 . S
C1898 C1899 1.334 . S
C1899 H1876 0.950 . S
C1899 C1898 1.334 . S
C1899 C1900 1.287 . S
C1900 C1899 1.287 . S
C1900 C1901 1.524 . S
C1900 H1919 0.913 . S
C1901 H1877 0.950 . S
C1901 C1900 1.524 . S
C1901 C1902 1.415 . S
C1902 H1878 0.950 . S
C1902 C1897 1.363 . S
C1902 C1901 1.415 . S
C1903 H1879 0.951 . S
C1903 C1904 1.366 . S
C1903 C1905 1.388 . S
C1904 C1903 1.366 . S
C1904 C1908 1.385 . S
C1905 H1880 0.951 . S
C1905 C1903 1.388 . S
C1905 C1906 1.366 . S
C1906 C1905 1.366 . S
C1906 C1907 1.414 . S
C1906 C1909 1.499 . S
C1907 H1881 0.950 . S
C1907 C1906 1.414 . S
C1907 C1908 1.374 . S
C1908 H1882 0.950 . S
C1908 C1904 1.385 . S
C1908 C1907 1.374 . S
C1909 C1906 1.499 . S
C1909 C1910 1.373 . S
C1909 C1911 1.389 . S
C1910 H1883 0.950 . S
C1910 C1896 1.377 . S
C1910 C1909 1.373 . S
C1911 C1895 1.377 . S
C1911 C1909 1.389 . S
C1911 C1912 1.524 . S
C1912 C1911 1.524 . S
C1912 C1913 1.397 1_655 S
C1912 C1917 1.363 . S
C1913 H1884 0.950 1_455 S
C1913 C1912 1.397 1_455 S
C1913 C1914 1.334 . S
C1914 H1885 0.950 . S
C1914 C1913 1.334 . S
C1914 C1915 1.287 . S
C1915 C1914 1.287 . S
C1915 C1916 1.524 . S
C1915 H1918 0.999 . S
C1916 H1886 0.950 . S
C1916 C1915 1.524 . S
C1916 C1917 1.415 1_455 S
C1917 H1887 0.950 . S
C1917 C1912 1.363 . S
C1917 C1916 1.415 1_655 S
H1918 C1915 0.999 . S
H1919 C1900 0.913 . S
H1920 C1938 0.951 . S
H1921 C1940 0.951 . S
H1922 C1942 0.950 . S
H1923 C1943 0.950 . S
H1924 C1945 0.950 . S
H1925 C1948 0.950 . S
H1926 C1949 0.950 . S
H1927 C1951 0.950 . S
H1928 C1952 0.950 . S
H1929 C1953 0.951 . S
H1930 C1955 0.951 . S
H1931 C1957 0.950 . S
H1932 C1958 0.950 . S
H1933 C1960 0.950 . S
H1934 C1963 0.950 . S
H1935 C1964 0.950 . S
H1936 C1966 0.950 . S
H1937 C1967 0.950 . S
C1938 H1920 0.951 . S
C1938 C1939 1.366 . S
C1938 C1940 1.388 . S
C1939 C1938 1.366 . S
C1939 C1943 1.385 . S
C1940 H1921 0.951 . S
C1940 C1938 1.388 . S
C1940 C1941 1.366 . S
C1941 C1940 1.366 . S
C1941 C1942 1.414 . S
C1941 C1944 1.499 . S
C1942 H1922 0.950 . S
C1942 C1941 1.414 . S
C1942 C1943 1.374 . S
C1943 H1923 0.950 . S
C1943 C1939 1.385 . S
C1943 C1942 1.374 . S
C1944 C1941 1.499 . S
C1944 C1945 1.373 . S
C1944 C1946 1.389 . S
C1945 H1924 0.950 . S
C1945 C1944 1.373 . S
C1945 C1961 1.377 . S
C1946 C1944 1.389 . S
C1946 C1947 1.524 . S
C1946 C1960 1.377 . S
C1947 C1946 1.524 . S
C1947 C1948 1.397 . S
C1947 C1952 1.363 . S
C1948 H1925 0.950 . S
C1948 C1947 1.397 . S
C1948 C1949 1.334 . S
C1949 H1926 0.950 . S
C1949 C1948 1.334 . S
C1949 C1950 1.287 . S
C1950 C1949 1.287 . S
C1950 C1951 1.524 . S
C1950 H1969 0.913 . S
C1951 H1927 0.950 . S
C1951 C1950 1.524 . S
C1951 C1952 1.415 . S
C1952 H1928 0.950 . S
C1952 C1947 1.363 . S
C1952 C1951 1.415 . S
C1953 H1929 0.951 . S
C1953 C1954 1.366 . S
C1953 C1955 1.388 . S
C1954 C1953 1.366 . S
C1954 C1958 1.385 . S
C1955 H1930 0.951 . S
C1955 C1953 1.388 . S
C1955 C1956 1.366 . S
C1956 C1955 1.366 . S
C1956 C1957 1.414 . S
C1956 C1959 1.499 . S
C1957 H1931 0.950 . S
C1957 C1956 1.414 . S
C1957 C1958 1.374 . S
C1958 H1932 0.950 . S
C1958 C1954 1.385 . S
C1958 C1957 1.374 . S
C1959 C1956 1.499 . S
C1959 C1960 1.373 . S
C1959 C1961 1.389 . S
C1960 H1933 0.950 . S
C1960 C1946 1.377 . S
C1960 C1959 1.373 . S
C1961 C1945 1.377 . S
C1961 C1959 1.389 . S
C1961 C1962 1.524 . S
C1962 C1961 1.524 . S
C1962 C1963 1.397 . S
C1962 C1967 1.363 . S
C1963 H1934 0.950 . S
C1963 C1962 1.397 . S
C1963 C1964 1.334 . S
C1964 H1935 0.950 . S
C1964 C1963 1.334 . S
C1964 C1965 1.287 . S
C1965 C1964 1.287 . S
C1965 C1966 1.524 . S
C1965 H1968 0.999 . S
C1966 H1936 0.950 . S
C1966 C1965 1.524 . S
C1966 C1967 1.415 . S
C1967 H1937 0.950 . S
C1967 C1962 1.363 . S
C1967 C1966 1.415 . S
H1968 C1965 0.999 . S
H1969 C1950 0.913 . S
H1970 C1988 0.951 . S
H1971 C1990 0.951 . S
H1972 C1992 0.950 . S
H1973 C1993 0.950 . S
H1974 C1995 0.950 . S
H1975 C1998 0.950 . S
H1976 C1999 0.950 . S
H1977 C2001 0.950 . S
H1978 C2002 0.950 . S
H1979 C2003 0.951 . S
H1980 C2005 0.951 . S
H1981 C2007 0.950 . S
H1982 C2008 0.950 . S
H1983 C2010 0.950 . S
H1984 C2013 0.950 . S
H1985 C2014 0.950 . S
H1986 C2016 0.950 1_655 S
H1987 C2017 0.950 . S
C1988 H1970 0.951 . S
C1988 C1989 1.366 . S
C1988 C1990 1.388 . S
C1989 C1988 1.366 . S
C1989 C1993 1.385 . S
C1990 H1971 0.951 . S
C1990 C1988 1.388 . S
C1990 C1991 1.366 . S
C1991 C1990 1.366 . S
C1991 C1992 1.414 . S
C1991 C1994 1.499 . S
C1992 H1972 0.950 . S
C1992 C1991 1.414 . S
C1992 C1993 1.374 . S
C1993 H1973 0.950 . S
C1993 C1989 1.385 . S
C1993 C1992 1.374 . S
C1994 C1991 1.499 . S
C1994 C1995 1.373 . S
C1994 C1996 1.389 . S
C1995 H1974 0.950 . S
C1995 C1994 1.373 . S
C1995 C2011 1.377 . S
C1996 C1994 1.389 . S
C1996 C1997 1.524 . S
C1996 C2010 1.377 . S
C1997 C1996 1.524 . S
C1997 C1998 1.397 . S
C1997 C2002 1.363 . S
C1998 H1975 0.950 . S
C1998 C1997 1.397 . S
C1998 C1999 1.334 . S
C1999 H1976 0.950 . S
C1999 C1998 1.334 . S
C1999 C2000 1.287 . S
C2000 C1999 1.287 . S
C2000 C2001 1.524 . S
C2000 H2019 0.913 . S
C2001 H1977 0.950 . S
C2001 C2000 1.524 . S
C2001 C2002 1.415 . S
C2002 H1978 0.950 . S
C2002 C1997 1.363 . S
C2002 C2001 1.415 . S
C2003 H1979 0.951 . S
C2003 C2004 1.366 . S
C2003 C2005 1.388 . S
C2004 C2003 1.366 . S
C2004 C2008 1.385 . S
C2005 H1980 0.951 . S
C2005 C2003 1.388 . S
C2005 C2006 1.366 . S
C2006 C2005 1.366 . S
C2006 C2007 1.414 . S
C2006 C2009 1.499 . S
C2007 H1981 0.950 . S
C2007 C2006 1.414 . S
C2007 C2008 1.374 . S
C2008 H1982 0.950 . S
C2008 C2004 1.385 . S
C2008 C2007 1.374 . S
C2009 C2006 1.499 . S
C2009 C2010 1.373 . S
C2009 C2011 1.389 . S
C2010 H1983 0.950 . S
C2010 C1996 1.377 . S
C2010 C2009 1.373 . S
C2011 C1995 1.377 . S
C2011 C2009 1.389 . S
C2011 C2012 1.524 . S
C2012 C2011 1.524 . S
C2012 C2013 1.397 . S
C2012 C2017 1.363 . S
C2013 H1984 0.950 . S
C2013 C2012 1.397 . S
C2013 C2014 1.334 . S
C2014 H1985 0.950 . S
C2014 C2013 1.334 . S
C2014 C2015 1.287 . S
C2015 C2014 1.287 . S
C2015 C2016 1.524 . S
C2015 H2018 0.999 . S
C2016 H1986 0.950 1_455 S
C2016 C2015 1.524 . S
C2016 C2017 1.415 . S
C2017 H1987 0.950 . S
C2017 C2012 1.363 . S
C2017 C2016 1.415 . S
H2018 C2015 0.999 . S
H2019 C2000 0.913 . S
H2020 C2038 0.951 . S
H2021 C2040 0.951 . S
H2022 C2042 0.950 . S
H2023 C2043 0.950 . S
H2024 C2045 0.950 . S
H2025 C2048 0.950 . S
H2026 C2049 0.950 . S
H2027 C2051 0.950 . S
H2028 C2052 0.950 . S
H2029 C2053 0.951 . S
H2030 C2055 0.951 . S
H2031 C2057 0.950 . S
H2032 C2058 0.950 . S
H2033 C2060 0.950 . S
H2034 C2063 0.950 . S
H2035 C2064 0.950 . S
H2036 C2066 0.950 . S
H2037 C2067 0.950 . S
C2038 H2020 0.951 . S
C2038 C2039 1.366 . S
C2038 C2040 1.388 . S
C2039 C2038 1.366 . S
C2039 C2043 1.385 . S
C2040 H2021 0.951 . S
C2040 C2038 1.388 . S
C2040 C2041 1.366 . S
C2041 C2040 1.366 . S
C2041 C2042 1.414 . S
C2041 C2044 1.499 . S
C2042 H2022 0.950 . S
C2042 C2041 1.414 . S
C2042 C2043 1.374 . S
C2043 H2023 0.950 . S
C2043 C2039 1.385 . S
C2043 C2042 1.374 . S
C2044 C2041 1.499 . S
C2044 C2045 1.373 . S
C2044 C2046 1.389 . S
C2045 H2024 0.950 . S
C2045 C2044 1.373 . S
C2045 C2061 1.377 . S
C2046 C2044 1.389 . S
C2046 C2047 1.524 . S
C2046 C2060 1.377 . S
C2047 C2046 1.524 . S
C2047 C2048 1.397 . S
C2047 C2052 1.363 . S
C2048 H2025 0.950 . S
C2048 C2047 1.397 . S
C2048 C2049 1.334 . S
C2049 H2026 0.950 . S
C2049 C2048 1.334 . S
C2049 C2050 1.287 . S
C2050 C2049 1.287 . S
C2050 C2051 1.524 . S
C2050 H2069 0.913 . S
C2051 H2027 0.950 . S
C2051 C2050 1.524 . S
C2051 C2052 1.415 . S
C2052 H2028 0.950 . S
C2052 C2047 1.363 . S
C2052 C2051 1.415 . S
C2053 H2029 0.951 . S
C2053 C2054 1.366 . S
C2053 C2055 1.388 . S
C2054 C2053 1.366 . S
C2054 C2058 1.385 . S
C2055 H2030 0.951 . S
C2055 C2053 1.388 . S
C2055 C2056 1.366 . S
C2056 C2055 1.366 . S
C2056 C2057 1.414 . S
C2056 C2059 1.499 . S
C2057 H2031 0.950 . S
C2057 C2056 1.414 . S
C2057 C2058 1.374 . S
C2058 H2032 0.950 . S
C2058 C2054 1.385 . S
C2058 C2057 1.374 . S
C2059 C2056 1.499 . S
C2059 C2060 1.373 . S
C2059 C2061 1.389 . S
C2060 H2033 0.950 . S
C2060 C2046 1.377 . S
C2060 C2059 1.373 . S
C2061 C2045 1.377 . S
C2061 C2059 1.389 . S
C2061 C2062 1.524 . S
C2062 C2061 1.524 . S
C2062 C2063 1.397 . S
C2062 C2067 1.363 . S
C2063 H2034 0.950 . S
C2063 C2062 1.397 . S
C2063 C2064 1.334 . S
C2064 H2035 0.950 . S
C2064 C2063 1.334 . S
C2064 C2065 1.287 . S
C2065 C2064 1.287 . S
C2065 C2066 1.524 . S
C2065 H2068 0.999 . S
C2066 H2036 0.950 . S
C2066 C2065 1.524 . S
C2066 C2067 1.415 . S
C2067 H2037 0.950 . S
C2067 C2062 1.363 . S
C2067 C2066 1.415 . S
H2068 C2065 0.999 . S
H2069 C2050 0.913 . S
H2070 C2088 0.951 . S
H2071 C2090 0.951 . S
H2072 C2092 0.950 . S
H2073 C2093 0.950 . S
H2074 C2095 0.950 . S
H2075 C2098 0.950 . S
H2076 C2099 0.950 . S
H2077 C2101 0.950 . S
H2078 C2102 0.950 . S
H2079 C2103 0.951 . S
H2080 C2105 0.951 . S
H2081 C2107 0.950 . S
H2082 C2108 0.950 . S
H2083 C2110 0.950 . S
H2084 C2113 0.950 . S
H2085 C2114 0.950 . S
H2086 C2116 0.950 . S
H2087 C2117 0.950 . S
C2088 H2070 0.951 . S
C2088 C2089 1.366 . S
C2088 C2090 1.388 . S
C2089 C2088 1.366 . S
C2089 C2093 1.385 . S
C2090 H2071 0.951 . S
C2090 C2088 1.388 . S
C2090 C2091 1.366 . S
C2091 C2090 1.366 . S
C2091 C2092 1.414 . S
C2091 C2094 1.499 . S
C2092 H2072 0.950 . S
C2092 C2091 1.414 . S
C2092 C2093 1.374 . S
C2093 H2073 0.950 . S
C2093 C2089 1.385 . S
C2093 C2092 1.374 . S
C2094 C2091 1.499 . S
C2094 C2095 1.373 . S
C2094 C2096 1.389 . S
C2095 H2074 0.950 . S
C2095 C2094 1.373 . S
C2095 C2111 1.377 . S
C2096 C2094 1.389 . S
C2096 C2097 1.524 . S
C2096 C2110 1.377 . S
C2097 C2096 1.524 . S
C2097 C2098 1.397 . S
C2097 C2102 1.363 . S
C2098 H2075 0.950 . S
C2098 C2097 1.397 . S
C2098 C2099 1.334 . S
C2099 H2076 0.950 . S
C2099 C2098 1.334 . S
C2099 C2100 1.287 . S
C2100 C2099 1.287 . S
C2100 C2101 1.524 . S
C2100 H2119 0.913 . S
C2101 H2077 0.950 . S
C2101 C2100 1.524 . S
C2101 C2102 1.415 . S
C2102 H2078 0.950 . S
C2102 C2097 1.363 . S
C2102 C2101 1.415 . S
C2103 H2079 0.951 . S
C2103 C2104 1.366 . S
C2103 C2105 1.388 . S
C2104 C2103 1.366 . S
C2104 C2108 1.385 . S
C2105 H2080 0.951 . S
C2105 C2103 1.388 . S
C2105 C2106 1.366 . S
C2106 C2105 1.366 . S
C2106 C2107 1.414 . S
C2106 C2109 1.499 . S
C2107 H2081 0.950 . S
C2107 C2106 1.414 . S
C2107 C2108 1.374 . S
C2108 H2082 0.950 . S
C2108 C2104 1.385 . S
C2108 C2107 1.374 . S
C2109 C2106 1.499 . S
C2109 C2110 1.373 . S
C2109 C2111 1.389 . S
C2110 H2083 0.950 . S
C2110 C2096 1.377 . S
C2110 C2109 1.373 . S
C2111 C2095 1.377 . S
C2111 C2109 1.389 . S
C2111 C2112 1.524 . S
C2112 C2111 1.524 . S
C2112 C2113 1.397 . S
C2112 C2117 1.363 . S
C2113 H2084 0.950 . S
C2113 C2112 1.397 . S
C2113 C2114 1.334 . S
C2114 H2085 0.950 . S
C2114 C2113 1.334 . S
C2114 C2115 1.287 . S
C2115 C2114 1.287 . S
C2115 C2116 1.524 . S
C2115 H2118 0.999 . S
C2116 H2086 0.950 . S
C2116 C2115 1.524 . S
C2116 C2117 1.415 . S
C2117 H2087 0.950 . S
C2117 C2112 1.363 . S
C2117 C2116 1.415 . S
H2118 C2115 0.999 . S
H2119 C2100 0.913 . S
H2120 C2138 0.951 . S
H2121 C2140 0.951 . S
H2122 C2142 0.950 1_556 S
H2123 C2143 0.950 . S
H2124 C2145 0.950 . S
H2125 C2148 0.950 . S
H2126 C2149 0.950 . S
H2127 C2151 0.950 . S
H2128 C2152 0.938 1_554 S
H2129 C2153 0.951 . S
H2130 C2155 0.951 . S
H2131 C2157 0.950 . S
H2132 C2158 0.950 . S
H2133 C2160 0.950 . S
H2134 C2163 0.950 . S
H2135 C2164 0.950 . S
H2136 C2166 0.950 . S
H2137 C2167 0.950 . S
C2138 H2120 0.951 . S
C2138 C2139 1.366 . S
C2138 C2140 1.388 . S
C2139 C2138 1.366 . S
C2139 C2143 1.385 . S
C2140 H2121 0.951 . S
C2140 C2138 1.388 . S
C2140 C2141 1.366 . S
C2141 C2140 1.366 . S
C2141 C2142 1.414 . S
C2141 C2144 1.499 1_554 S
C2142 H2122 0.950 1_554 S
C2142 C2141 1.414 . S
C2142 C2143 1.374 . S
C2143 H2123 0.950 . S
C2143 C2139 1.385 . S
C2143 C2142 1.374 . S
C2144 C2141 1.499 1_556 S
C2144 C2145 1.373 . S
C2144 C2146 1.389 . S
C2145 H2124 0.950 . S
C2145 C2144 1.373 . S
C2145 C2161 1.377 . S
C2146 C2144 1.389 . S
C2146 C2147 1.524 . S
C2146 C2160 1.377 . S
C2147 C2146 1.524 . S
C2147 C2148 1.397 . S
C2147 C2152 1.376 . S
C2148 H2125 0.950 . S
C2148 C2147 1.397 . S
C2148 C2149 1.334 . S
C2149 H2126 0.950 . S
C2149 C2148 1.334 . S
C2149 C2150 1.287 . S
C2150 C2149 1.287 . S
C2150 C2151 1.524 1_556 S
C2150 H2169 0.913 1_556 S
C2151 H2127 0.950 . S
C2151 C2150 1.524 1_554 S
C2151 C2152 1.408 1_554 S
C2152 H2128 0.938 1_556 S
C2152 C2147 1.376 . S
C2152 C2151 1.408 1_556 S
C2153 H2129 0.951 . S
C2153 C2154 1.366 . S
C2153 C2155 1.388 . S
C2154 C2153 1.366 . S
C2154 C2158 1.385 . S
C2155 H2130 0.951 . S
C2155 C2153 1.388 . S
C2155 C2156 1.366 . S
C2156 C2155 1.366 . S
C2156 C2157 1.414 . S
C2156 C2159 1.499 . S
C2157 H2131 0.950 . S
C2157 C2156 1.414 . S
C2157 C2158 1.374 . S
C2158 H2132 0.950 . S
C2158 C2154 1.385 . S
C2158 C2157 1.374 . S
C2159 C2156 1.499 . S
C2159 C2160 1.373 . S
C2159 C2161 1.389 . S
C2160 H2133 0.950 . S
C2160 C2146 1.377 . S
C2160 C2159 1.373 . S
C2161 C2145 1.377 . S
C2161 C2159 1.389 . S
C2161 C2162 1.524 . S
C2162 C2161 1.524 . S
C2162 C2163 1.397 . S
C2162 C2167 1.363 . S
C2163 H2134 0.950 . S
C2163 C2162 1.397 . S
C2163 C2164 1.334 . S
C2164 H2135 0.950 . S
C2164 C2163 1.334 . S
C2164 C2165 1.287 . S
C2165 C2164 1.287 . S
C2165 C2166 1.524 . S
C2165 H2168 0.999 . S
C2166 H2136 0.950 . S
C2166 C2165 1.524 . S
C2166 C2167 1.415 . S
C2167 H2137 0.950 . S
C2167 C2162 1.363 . S
C2167 C2166 1.415 . S
H2168 C2165 0.999 . S
H2169 C2150 0.913 1_554 S
H2170 C2188 0.951 . S
H2171 C2190 0.951 . S
H2172 C2192 0.950 . S
H2173 C2193 0.950 . S
H2174 C2195 0.950 . S
H2175 C2198 0.950 . S
H2176 C2199 0.950 . S
H2177 C2201 0.950 . S
H2178 C2202 0.950 . S
H2179 C2203 0.951 . S
H2180 C2205 0.951 . S
H2181 C2207 0.950 . S
H2182 C2208 0.950 . S
H2183 C2210 0.950 . S
H2184 C2213 0.950 . S
H2185 C2214 0.950 . S
H2186 C2216 0.950 . S
H2187 C2217 0.950 . S
C2188 H2170 0.951 . S
C2188 C2189 1.366 . S
C2188 C2190 1.388 . S
C2189 C2188 1.366 . S
C2189 C2193 1.385 . S
C2190 H2171 0.951 . S
C2190 C2188 1.388 . S
C2190 C2191 1.366 . S
C2191 C2190 1.366 . S
C2191 C2192 1.414 . S
C2191 C2194 1.499 . S
C2192 H2172 0.950 . S
C2192 C2191 1.414 . S
C2192 C2193 1.374 . S
C2193 H2173 0.950 . S
C2193 C2189 1.385 . S
C2193 C2192 1.374 . S
C2194 C2191 1.499 . S
C2194 C2195 1.373 . S
C2194 C2196 1.389 . S
C2195 H2174 0.950 . S
C2195 C2194 1.373 . S
C2195 C2211 1.377 . S
C2196 C2194 1.389 . S
C2196 C2197 1.524 . S
C2196 C2210 1.377 . S
C2197 C2196 1.524 . S
C2197 C2198 1.397 . S
C2197 C2202 1.363 . S
C2198 H2175 0.950 . S
C2198 C2197 1.397 . S
C2198 C2199 1.334 . S
C2199 H2176 0.950 . S
C2199 C2198 1.334 . S
C2199 C2200 1.287 . S
C2200 C2199 1.287 . S
C2200 C2201 1.524 . S
C2200 H2219 0.913 . S
C2201 H2177 0.950 . S
C2201 C2200 1.524 . S
C2201 C2202 1.415 . S
C2202 H2178 0.950 . S
C2202 C2197 1.363 . S
C2202 C2201 1.415 . S
C2203 H2179 0.951 . S
C2203 C2204 1.366 . S
C2203 C2205 1.388 . S
C2204 C2203 1.366 . S
C2204 C2208 1.385 . S
C2205 H2180 0.951 . S
C2205 C2203 1.388 . S
C2205 C2206 1.366 . S
C2206 C2205 1.366 . S
C2206 C2207 1.414 . S
C2206 C2209 1.499 . S
C2207 H2181 0.950 . S
C2207 C2206 1.414 . S
C2207 C2208 1.374 . S
C2208 H2182 0.950 . S
C2208 C2204 1.385 . S
C2208 C2207 1.374 . S
C2209 C2206 1.499 . S
C2209 C2210 1.373 . S
C2209 C2211 1.389 . S
C2210 H2183 0.950 . S
C2210 C2196 1.377 . S
C2210 C2209 1.373 . S
C2211 C2195 1.377 . S
C2211 C2209 1.389 . S
C2211 C2212 1.524 . S
C2212 C2211 1.524 . S
C2212 C2213 1.397 . S
C2212 C2217 1.363 . S
C2213 H2184 0.950 . S
C2213 C2212 1.397 . S
C2213 C2214 1.334 . S
C2214 H2185 0.950 . S
C2214 C2213 1.334 . S
C2214 C2215 1.287 . S
C2215 C2214 1.287 . S
C2215 C2216 1.524 . S
C2215 H2218 0.999 . S
C2216 H2186 0.950 . S
C2216 C2215 1.524 . S
C2216 C2217 1.415 . S
C2217 H2187 0.950 . S
C2217 C2212 1.363 . S
C2217 C2216 1.415 . S
H2218 C2215 0.999 . S
H2219 C2200 0.913 . S
H2220 C2238 0.951 . S
H2221 C2240 0.951 . S
H2222 C2242 0.950 . S
H2223 C2243 0.950 . S
H2224 C2245 0.950 . S
H2225 C2248 0.950 . S
H2226 C2249 0.950 . S
H2227 C2251 0.950 . S
H2228 C2252 0.950 . S
H2229 C2253 0.951 . S
H2230 C2255 0.951 . S
H2231 C2257 0.950 . S
H2232 C2258 0.950 . S
H2233 C2260 0.950 . S
H2234 C2263 0.950 . S
H2235 C2264 0.950 . S
H2236 C2266 0.950 . S
H2237 C2267 0.950 . S
C2238 H2220 0.951 . S
C2238 C2239 1.366 . S
C2238 C2240 1.388 . S
C2239 C2238 1.366 . S
C2239 C2243 1.385 . S
C2240 H2221 0.951 . S
C2240 C2238 1.388 . S
C2240 C2241 1.366 . S
C2241 C2240 1.366 . S
C2241 C2242 1.414 . S
C2241 C2244 1.499 . S
C2242 H2222 0.950 . S
C2242 C2241 1.414 . S
C2242 C2243 1.374 . S
C2243 H2223 0.950 . S
C2243 C2239 1.385 . S
C2243 C2242 1.374 . S
C2244 C2241 1.499 . S
C2244 C2245 1.373 . S
C2244 C2246 1.389 . S
C2245 H2224 0.950 . S
C2245 C2244 1.373 . S
C2245 C2261 1.377 . S
C2246 C2244 1.389 . S
C2246 C2247 1.524 . S
C2246 C2260 1.377 . S
C2247 C2246 1.524 . S
C2247 C2248 1.397 . S
C2247 C2252 1.363 . S
C2248 H2225 0.950 . S
C2248 C2247 1.397 . S
C2248 C2249 1.334 . S
C2249 H2226 0.950 . S
C2249 C2248 1.334 . S
C2249 C2250 1.287 . S
C2250 C2249 1.287 . S
C2250 C2251 1.524 . S
C2250 H2269 0.913 . S
C2251 H2227 0.950 . S
C2251 C2250 1.524 . S
C2251 C2252 1.415 . S
C2252 H2228 0.950 . S
C2252 C2247 1.363 . S
C2252 C2251 1.415 . S
C2253 H2229 0.951 . S
C2253 C2254 1.366 . S
C2253 C2255 1.388 . S
C2254 C2253 1.366 . S
C2254 C2258 1.385 . S
C2255 H2230 0.951 . S
C2255 C2253 1.388 . S
C2255 C2256 1.366 . S
C2256 C2255 1.366 . S
C2256 C2257 1.414 . S
C2256 C2259 1.499 . S
C2257 H2231 0.950 . S
C2257 C2256 1.414 . S
C2257 C2258 1.374 . S
C2258 H2232 0.950 . S
C2258 C2254 1.385 . S
C2258 C2257 1.374 . S
C2259 C2256 1.499 . S
C2259 C2260 1.373 . S
C2259 C2261 1.389 . S
C2260 H2233 0.950 . S
C2260 C2246 1.377 . S
C2260 C2259 1.373 . S
C2261 C2245 1.377 . S
C2261 C2259 1.389 . S
C2261 C2262 1.524 . S
C2262 C2261 1.524 . S
C2262 C2263 1.397 . S
C2262 C2267 1.363 . S
C2263 H2234 0.950 . S
C2263 C2262 1.397 . S
C2263 C2264 1.334 . S
C2264 H2235 0.950 . S
C2264 C2263 1.334 . S
C2264 C2265 1.287 . S
C2265 C2264 1.287 . S
C2265 C2266 1.524 . S
C2265 H2268 0.999 . S
C2266 H2236 0.950 . S
C2266 C2265 1.524 . S
C2266 C2267 1.415 . S
C2267 H2237 0.950 . S
C2267 C2262 1.363 . S
C2267 C2266 1.415 . S
H2268 C2265 0.999 . S
H2269 C2250 0.913 . S
H2270 C2288 0.951 . S
H2271 C2290 0.951 . S
H2272 C2292 0.950 . S
H2273 C2293 0.950 . S
H2274 C2295 0.950 . S
H2275 C2298 0.950 . S
H2276 C2299 0.950 . S
H2277 C2301 0.950 . S
H2278 C2302 0.950 . S
H2279 C2303 0.951 . S
H2280 C2305 0.951 . S
H2281 C2307 0.950 . S
H2282 C2308 0.950 . S
H2283 C2310 0.950 . S
H2284 C2313 0.950 . S
H2285 C2314 0.950 . S
H2286 C2316 0.950 . S
H2287 C2317 0.950 . S
C2288 H2270 0.951 . S
C2288 C2289 1.366 . S
C2288 C2290 1.388 . S
C2289 C2288 1.366 . S
C2289 C2293 1.385 . S
C2290 H2271 0.951 . S
C2290 C2288 1.388 . S
C2290 C2291 1.366 . S
C2291 C2290 1.366 . S
C2291 C2292 1.414 . S
C2291 C2294 1.499 . S
C2292 H2272 0.950 . S
C2292 C2291 1.414 . S
C2292 C2293 1.374 . S
C2293 H2273 0.950 . S
C2293 C2289 1.385 . S
C2293 C2292 1.374 . S
C2294 C2291 1.499 . S
C2294 C2295 1.373 . S
C2294 C2296 1.389 . S
C2295 H2274 0.950 . S
C2295 C2294 1.373 . S
C2295 C2311 1.377 . S
C2296 C2294 1.389 . S
C2296 C2297 1.524 . S
C2296 C2310 1.377 . S
C2297 C2296 1.524 . S
C2297 C2298 1.397 . S
C2297 C2302 1.363 . S
C2298 H2275 0.950 . S
C2298 C2297 1.397 . S
C2298 C2299 1.334 . S
C2299 H2276 0.950 . S
C2299 C2298 1.334 . S
C2299 C2300 1.287 . S
C2300 C2299 1.287 . S
C2300 C2301 1.524 . S
C2300 H2319 0.913 . S
C2301 H2277 0.950 . S
C2301 C2300 1.524 . S
C2301 C2302 1.415 . S
C2302 H2278 0.950 . S
C2302 C2297 1.363 . S
C2302 C2301 1.415 . S
C2303 H2279 0.951 . S
C2303 C2304 1.366 . S
C2303 C2305 1.388 . S
C2304 C2303 1.366 . S
C2304 C2308 1.385 . S
C2305 H2280 0.951 . S
C2305 C2303 1.388 . S
C2305 C2306 1.366 . S
C2306 C2305 1.366 . S
C2306 C2307 1.414 . S
C2306 C2309 1.499 . S
C2307 H2281 0.950 . S
C2307 C2306 1.414 . S
C2307 C2308 1.374 . S
C2308 H2282 0.950 . S
C2308 C2304 1.385 . S
C2308 C2307 1.374 . S
C2309 C2306 1.499 . S
C2309 C2310 1.373 . S
C2309 C2311 1.389 . S
C2310 H2283 0.950 . S
C2310 C2296 1.377 . S
C2310 C2309 1.373 . S
C2311 C2295 1.377 . S
C2311 C2309 1.389 . S
C2311 C2312 1.524 . S
C2312 C2311 1.524 . S
C2312 C2313 1.397 . S
C2312 C2317 1.363 . S
C2313 H2284 0.950 . S
C2313 C2312 1.397 . S
C2313 C2314 1.334 . S
C2314 H2285 0.950 . S
C2314 C2313 1.334 . S
C2314 C2315 1.287 . S
C2315 C2314 1.287 . S
C2315 C2316 1.524 . S
C2315 H2318 0.999 . S
C2316 H2286 0.950 . S
C2316 C2315 1.524 . S
C2316 C2317 1.415 . S
C2317 H2287 0.950 . S
C2317 C2312 1.363 . S
C2317 C2316 1.415 . S
H2318 C2315 0.999 . S
H2319 C2300 0.913 . S
C754 C641 1.964 . S
C739 C69 1.993 . S
C789 C125 0.565 . S
C804 C673 0.581 . S
C839 C217 1.976 . S
C854 C696 1.973 . S
C904 C600 1.476 . S
C889 C261 1.430 . S
C954 C683 1.568 . S
C939 C39 1.620 . S
C1004 C712 1.632 . S
C989 C137 1.705 . S
C1054 C616 1.607 . S
C1039 C187 1.662 . S
C1104 C651 1.962 . S
C1089 C291 2.148 . S
C1139 C51 0.547 . S
C1154 C679 0.613 . S
C1189 C365 2.067 . S
C1204 C654 1.887 . S
C1239 C199 0.604 . S
C1254 C622 0.657 . S
C1304 C711 1.668 . S
C1289 C439 1.828 . S
C1354 C655 1.674 . S
C1339 C63 1.592 . S
C1389 C335 1.435 . S
C1404 C623 1.465 . S
C1439 C211 1.573 . S
C1454 C710 1.668 . S
C1504 C678 1.774 . S
C1489 C409 1.724 . S
C1539 C495 0.567 . S
C1554 C705 0.582 . S
C1589 C347 0.747 . S
C1604 C609 0.747 . S
C1639 C587 1.928 . S
C1654 C632 1.923 . S
C1689 C421 0.568 . S
C1704 C664 0.571 . S
C1754 C619 1.532 . S
C1739 C507 1.618 . S
C1789 C359 1.417 . S
C1804 C648 1.358 . S
C1839 C557 1.653 . S
C1854 C680 1.596 . S
C1904 C715 1.532 . S
C1889 C433 1.623 . S
C1939 C513 1.924 . S
C1954 C615 1.780 . S
C1989 C143 1.854 . S
C2004 C718 1.691 . S
C2039 C569 0.572 . S
C2054 C686 0.639 . S
C2104 C647 1.279 . S
C2089 C285 1.331 . S
C2154 C719 1.578 . S
C2139 C483 1.549 . S
C2204 C687 1.759 . S
C2189 C113 1.725 . S
C2254 C646 1.634 . S
C2239 C581 1.537 . S
C2304 C614 0.880 . S
C2289 C273 0.882 . S
