# Generated by pormake.
# Topology zzz, (3,6)-cn, num edge types: 1
# Building blocks:
#     Node 0, Type 0, BuildingBlock: BELTOD_clean_linker_0, # of connection points: 3
#     Node 1, Type 0, BuildingBlock: BELTOD_clean_linker_0, # of connection points: 3
#     Node 2, Type 0, BuildingBlock: BELTOD_clean_linker_0, # of connection points: 3
#     Node 3, Type 0, BuildingBlock: BELTOD_clean_linker_0, # of connection points: 3
#     Node 4, Type 0, BuildingBlock: BELTOD_clean_linker_0, # of connection points: 3
#     Node 5, Type 0, BuildingBlock: BELTOD_clean_linker_0, # of connection points: 3
#     Node 6, Type 0, BuildingBlock: BELTOD_clean_linker_0, # of connection points: 3
#     Node 7, Type 0, BuildingBlock: BELTOD_clean_linker_0, # of connection points: 3
#     Node 8, Type 1, BuildingBlock: NUHQIS_clean_sbu_0, # of connection points: 6
#     Node 9, Type 1, BuildingBlock: NUHQIS_clean_sbu_0, # of connection points: 6
#     Node 10, Type 1, BuildingBlock: NUHQIS_clean_sbu_0, # of connection points: 6
#     Node 11, Type 1, BuildingBlock: NUHQIS_clean_sbu_0, # of connection points: 6
#     Edge 12, Type (0, 1), BuildingBlock: XIVTED_clean_linker_0, # of connection points: 2
#     Edge 13, Type (0, 1), BuildingBlock: XIVTED_clean_linker_0, # of connection points: 2
#     Edge 14, Type (0, 1), BuildingBlock: XIVTED_clean_linker_0, # of connection points: 2
#     Edge 15, Type (0, 1), BuildingBlock: XIVTED_clean_linker_0, # of connection points: 2
#     Edge 16, Type (0, 1), BuildingBlock: XIVTED_clean_linker_0, # of connection points: 2
#     Edge 17, Type (0, 1), BuildingBlock: XIVTED_clean_linker_0, # of connection points: 2
#     Edge 18, Type (0, 1), BuildingBlock: XIVTED_clean_linker_0, # of connection points: 2
#     Edge 19, Type (0, 1), BuildingBlock: XIVTED_clean_linker_0, # of connection points: 2
#     Edge 20, Type (0, 1), BuildingBlock: XIVTED_clean_linker_0, # of connection points: 2
#     Edge 21, Type (0, 1), BuildingBlock: XIVTED_clean_linker_0, # of connection points: 2
#     Edge 22, Type (0, 1), BuildingBlock: XIVTED_clean_linker_0, # of connection points: 2
#     Edge 23, Type (0, 1), BuildingBlock: XIVTED_clean_linker_0, # of connection points: 2
#     Edge 24, Type (0, 1), BuildingBlock: XIVTED_clean_linker_0, # of connection points: 2
#     Edge 25, Type (0, 1), BuildingBlock: XIVTED_clean_linker_0, # of connection points: 2
#     Edge 26, Type (0, 1), BuildingBlock: XIVTED_clean_linker_0, # of connection points: 2
#     Edge 27, Type (0, 1), BuildingBlock: XIVTED_clean_linker_0, # of connection points: 2
#     Edge 28, Type (0, 1), BuildingBlock: XIVTED_clean_linker_0, # of connection points: 2
#     Edge 29, Type (0, 1), BuildingBlock: XIVTED_clean_linker_0, # of connection points: 2
#     Edge 30, Type (0, 1), BuildingBlock: XIVTED_clean_linker_0, # of connection points: 2
#     Edge 31, Type (0, 1), BuildingBlock: XIVTED_clean_linker_0, # of connection points: 2
#     Edge 32, Type (0, 1), BuildingBlock: XIVTED_clean_linker_0, # of connection points: 2
#     Edge 33, Type (0, 1), BuildingBlock: XIVTED_clean_linker_0, # of connection points: 2
#     Edge 34, Type (0, 1), BuildingBlock: XIVTED_clean_linker_0, # of connection points: 2
#     Edge 35, Type (0, 1), BuildingBlock: XIVTED_clean_linker_0, # of connection points: 2
# Relax obj value: 0.408
# Max RMSD: 0.241
# Mean RMSD: 0.223
data_MOF--net-zzz--node1-NUHQIS_clean_sbu_0--node2-BELTOD_clean_linker_0--edge1-XIVTED_clean_linker_0
_symmetry_space_group_name_H-M    P1
_symmetry_Int_Tables_number       1
_symmetry_cell_setting            triclinic
loop_
_symmetry_equiv_pos_as_xyz
'x, y, z'
_cell_length_a     55.89774
_cell_length_b     55.896183
_cell_length_c     17.802944
_cell_angle_alpha  89.527082
_cell_angle_beta   89.922121
_cell_angle_gamma 90.015091
loop_
_atom_site_label
_atom_site_type_symbol
_atom_site_fract_x
_atom_site_fract_y
_atom_site_fract_z
_atom_type_partial_charge
P0 P 0.72663 0.48279 0.36914 0.0
H1 H 0.73804 0.49581 0.52437 0.0
H2 H 0.77561 0.50838 0.58125 0.0
H3 H 0.80546 0.52082 0.36044 0.0
H4 H 0.76765 0.50859 0.30399 0.0
H5 H 0.67473 0.47828 0.36566 0.0
H6 H 0.64472 0.49139 0.27604 0.0
H7 H 0.69823 0.53295 0.15773 0.0
H8 H 0.72851 0.51924 0.24788 0.0
H9 H 0.76869 0.45358 0.39616 0.0
H10 H 0.71855 0.46453 0.21501 0.0
O11 O 0.7133 0.46742 0.43823 0.0
H12 H 0.79529 0.43243 0.31193 0.0
H13 H 0.74463 0.44237 0.13081 0.0
C14 C 0.74993 0.50116 0.40973 0.0
C15 C 0.75232 0.50206 0.48807 0.0
C16 C 0.77402 0.50897 0.52064 0.0
C17 C 0.79385 0.51507 0.47552 0.0
C18 C 0.79064 0.5163 0.39712 0.0
C19 C 0.76887 0.50945 0.3646 0.0
C20 C 0.7039 0.49804 0.31448 0.0
C21 C 0.67999 0.49078 0.32189 0.0
C22 C 0.66271 0.49833 0.27021 0.0
C23 C 0.66894 0.51323 0.20916 0.0
C24 C 0.69279 0.52128 0.20352 0.0
C25 C 0.71011 0.51374 0.25569 0.0
C26 C 0.74213 0.46152 0.31127 0.0
C27 C 0.76311 0.45089 0.33859 0.0
C28 C 0.77825 0.43852 0.29024 0.0
C29 C 0.77242 0.43611 0.21379 0.0
C30 C 0.75005 0.44455 0.18872 0.0
C31 C 0.73506 0.45724 0.23705 0.0
P32 P 0.03632 0.71985 0.39238 0.0
H33 H 0.03121 0.73699 0.54578 0.0
H34 H 0.01685 0.77484 0.59294 0.0
H35 H 0.98427 0.79008 0.37762 0.0
H36 H 1.00002 0.75245 0.32958 0.0
H37 H 0.05914 0.67803 0.33399 0.0
H38 H 0.04811 0.64913 0.23839 0.0
H39 H 0.97765 0.68033 0.22429 0.0
H40 H 0.98892 0.70969 0.32082 0.0
H41 H 0.07689 0.75078 0.42599 0.0
H42 H 0.03593 0.73066 0.23131 0.0
O43 O 0.05307 0.70737 0.45962 0.0
H44 H 0.09716 0.7818 0.35161 0.0
H45 H 0.05573 0.76149 0.15745 0.0
C46 C 0.01648 0.74155 0.43422 0.0
C47 C 0.02021 0.74797 0.50929 0.0
C48 C 0.01194 0.76988 0.53639 0.0
C49 C 0.99963 0.78598 0.48904 0.0
C50 C 0.99414 0.77853 0.41551 0.0
C51 C 1.00267 0.75664 0.38825 0.0
C52 C 0.02484 0.69593 0.33506 0.0
C53 C 0.04109 0.67837 0.31191 0.0
C54 C 0.03484 0.66195 0.25684 0.0
C55 C 0.0121 0.6626 0.22366 0.0
C56 C 0.99528 0.67941 0.24935 0.0
C57 C 1.0017 0.69617 0.30439 0.0
C58 C 0.0553 0.73807 0.33386 0.0
C59 C 0.07283 0.75251 0.36673 0.0
C60 C 0.08422 0.77035 0.32437 0.0
C61 C 0.07809 0.77409 0.24858 0.0
C62 C 0.06127 0.7588 0.21518 0.0
C63 C 0.04986 0.74109 0.25757 0.0
P64 P 0.79359 0.03118 0.38893 0.0
H65 H 0.77562 0.02802 0.54297 0.0
H66 H 0.73723 0.01568 0.59218 0.0
H67 H 0.72071 0.98226 0.38002 0.0
H68 H 0.7583 0.99693 0.3292 0.0
H69 H 0.84471 0.04066 0.37994 0.0
H70 H 0.87553 0.02798 0.29284 0.0
H71 H 0.82642 0.97699 0.19674 0.0
H72 H 0.79539 0.99023 0.28344 0.0
H73 H 0.75048 0.05949 0.4064 0.0
H74 H 0.80184 0.04608 0.23044 0.0
O75 O 0.80576 0.04844 0.45472 0.0
H76 H 0.72422 0.07893 0.31642 0.0
H77 H 0.77609 0.06654 0.14039 0.0
C78 C 0.77036 0.01308 0.43247 0.0
C79 C 0.76412 0.0174 0.5075 0.0
C80 C 0.74186 0.01022 0.53587 0.0
C81 C 0.72524 0.99813 0.49024 0.0
C82 C 0.73249 0.99207 0.41684 0.0
C83 C 0.75455 0.99982 0.38799 0.0
C84 C 0.81764 0.01623 0.33949 0.0
C85 C 0.84067 0.02622 0.34184 0.0
C86 C 0.85841 0.01892 0.29157 0.0
C87 C 0.85354 1.00152 0.23701 0.0
C88 C 0.83077 0.99068 0.23717 0.0
C89 C 0.81299 0.99803 0.28769 0.0
C90 C 0.77773 0.05056 0.32488 0.0
C91 C 0.75637 0.0612 0.34862 0.0
C92 C 0.74143 0.07261 0.29696 0.0
C93 C 0.7478 0.07399 0.22054 0.0
C94 C 0.77032 0.06522 0.19836 0.0
C95 C 0.78513 0.05353 0.25008 0.0
P96 P 0.47655 0.80067 0.41709 0.0
H97 H 0.48161 0.78201 0.57011 0.0
H98 H 0.49506 0.74321 0.61441 0.0
H99 H 0.52796 0.73026 0.39863 0.0
H100 H 0.51321 0.76881 0.3535 0.0
H101 H 0.45586 0.84698 0.38624 0.0
H102 H 0.4649 0.87812 0.29439 0.0
H103 H 0.53031 0.84172 0.23563 0.0
H104 H 0.52128 0.81045 0.32954 0.0
H105 H 0.4401 0.76445 0.44331 0.0
H106 H 0.47692 0.79547 0.25276 0.0
O107 O 0.45819 0.81075 0.48377 0.0
H108 H 0.42805 0.73051 0.36606 0.0
H109 H 0.46489 0.76183 0.17612 0.0
C110 C 0.49655 0.77871 0.45847 0.0
C111 C 0.49253 0.77133 0.53299 0.0
C112 C 0.50024 0.74884 0.55841 0.0
C113 C 0.51229 0.73309 0.50993 0.0
C114 C 0.51824 0.7415 0.43732 0.0
C115 C 0.51033 0.76397 0.4118 0.0
C116 C 0.48793 0.82636 0.36554 0.0
C117 C 0.47257 0.84596 0.35558 0.0
C118 C 0.47762 0.8637 0.30225 0.0
C119 C 0.49812 0.86222 0.25679 0.0
C120 C 0.51439 0.84339 0.26995 0.0
C121 C 0.50926 0.8255 0.32375 0.0
C122 C 0.45939 0.78255 0.35403 0.0
C123 C 0.44458 0.7646 0.38409 0.0
C124 C 0.43774 0.74518 0.34003 0.0
C125 C 0.44586 0.74351 0.26563 0.0
C126 C 0.45861 0.76269 0.23364 0.0
C127 C 0.46539 0.78204 0.27758 0.0
P128 P 0.2906 0.45421 0.03392 0.0
H129 H 0.27519 0.45526 0.87661 0.0
H130 H 0.23845 0.47076 0.82173 0.0
H131 H 0.22591 0.51244 0.0211 0.0
H132 H 0.2626 0.49654 0.0762 0.0
H133 H 0.33276 0.42959 0.08699 0.0
H134 H 0.36515 0.44054 0.17077 0.0
H135 H 0.33834 0.513 0.17763 0.0
H136 H 0.30555 0.50166 0.09345 0.0
H137 H 0.24992 0.42231 0.01981 0.0
H138 H 0.28344 0.46341 0.19463 0.0
O139 O 0.29888 0.43171 0.97856 0.0
H140 H 0.21277 0.42137 0.09201 0.0
H141 H 0.24659 0.46293 0.26582 0.0
C142 C 0.27197 0.47476 0.98066 0.0
C143 C 0.26522 0.46859 0.90736 0.0
C144 C 0.24395 0.4774 0.87599 0.0
C145 C 0.22883 0.49249 0.91751 0.0
C146 C 0.23684 0.50048 0.98799 0.0
C147 C 0.2582 0.49177 0.01906 0.0
C148 C 0.31691 0.46487 0.0826 0.0
C149 C 0.33415 0.44803 0.10475 0.0
C150 C 0.35275 0.45434 0.15298 0.0
C151 C 0.35453 0.47771 0.18115 0.0
C152 C 0.33747 0.49479 0.15757 0.0
C153 C 0.31881 0.48841 0.10874 0.0
C154 C 0.26946 0.44298 0.10155 0.0
C155 C 0.2497 0.43005 0.07538 0.0
C156 C 0.22836 0.42982 0.11624 0.0
C157 C 0.22657 0.44255 0.18376 0.0
C158 C 0.24732 0.45286 0.21416 0.0
C159 C 0.26858 0.45314 0.17319 0.0
P160 P 0.03582 0.25705 0.17883 0.0
H161 H 0.07186 0.22378 0.12273 0.0
H162 H 0.06967 0.19492 0.02232 0.0
H163 H 0.00775 0.23138 0.93212 0.0
H164 H 0.00986 0.26023 0.03498 0.0
H165 H 0.07608 0.28568 0.23073 0.0
H166 H 0.07752 0.3257 0.2837 0.0
H167 H 0.00553 0.33885 0.20567 0.0
H168 H 1.00451 0.29882 0.15073 0.0
H169 H 0.00473 0.21678 0.14019 0.0
H170 H 1.00306 0.27615 0.29372 0.0
O171 O 0.05466 0.2439 0.23899 0.0
H172 H 0.9671 0.20255 0.18948 0.0
H173 H 0.96476 0.26195 0.3432 0.0
C174 C 0.04085 0.2441 0.08719 0.0
C175 C 0.05832 0.22624 0.07998 0.0
C176 C 0.05701 0.20957 0.02202 0.0
C177 C 0.03817 0.21036 0.96966 0.0
C178 C 0.02218 0.22986 0.97237 0.0
C179 C 0.02362 0.24669 0.03041 0.0
C180 C 0.03995 0.28899 0.1885 0.0
C181 C 0.06085 0.29739 0.22278 0.0
C182 C 0.06155 0.32026 0.25393 0.0
C183 C 0.04133 0.33523 0.25141 0.0
C184 C 0.02138 0.32777 0.20929 0.0
C185 C 0.02078 0.30485 0.17759 0.0
C186 C 0.00634 0.24832 0.21026 0.0
C187 C 0.99585 0.22744 0.18225 0.0
C188 C 0.9741 0.21926 0.21063 0.0
C189 C 0.96254 0.23141 0.26917 0.0
C190 C 0.97305 0.25235 0.29742 0.0
C191 C 0.99489 0.26059 0.26867 0.0
P192 P 0.24102 0.04636 0.14701 0.0
H193 H 0.25988 0.08033 0.03613 0.0
H194 H 0.29192 0.07628 0.94403 0.0
H195 H 0.28947 0.99949 0.97135 0.0
H196 H 0.25702 1.0036 0.06166 0.0
H197 H 0.20751 0.07828 0.22062 0.0
H198 H 0.16655 0.07298 0.26136 0.0
H199 H 0.16165 0.00821 0.13173 0.0
H200 H 0.20308 0.01407 0.0887 0.0
H201 H 0.27583 0.04804 0.26959 0.0
H202 H 0.23043 0.99498 0.16743 0.0
O203 O 0.25016 0.07286 0.17896 0.0
H204 H 0.29361 0.01707 0.34897 0.0
H205 H 0.2486 0.96395 0.24573 0.0
C206 C 0.25635 0.04235 0.05799 0.0
C207 C 0.26563 0.06254 0.02068 0.0
C208 C 0.28423 0.06021 0.96845 0.0
C209 C 0.29391 0.0376 0.95201 0.0
C210 C 0.28268 0.01722 0.98297 0.0
C211 C 0.26403 0.01959 0.03524 0.0
C212 C 0.20865 0.04645 0.15193 0.0
C213 C 0.19753 0.06337 0.19823 0.0
C214 C 0.1739 0.06031 0.22184 0.0
C215 C 0.16082 0.03999 0.20076 0.0
C216 C 0.17136 0.02389 0.14988 0.0
C217 C 0.19503 0.02725 0.12507 0.0
C218 C 0.2517 0.02396 0.21234 0.0
C219 C 0.26931 0.02988 0.265 0.0
C220 C 0.2794 0.01217 0.31072 0.0
C221 C 0.27236 0.98817 0.30354 0.0
C222 C 0.25426 0.98235 0.2524 0.0
C223 C 0.24385 1.00015 0.20769 0.0
P224 P 0.45857 0.23054 0.0501 0.0
H225 H 0.46008 0.24477 0.89061 0.0
H226 H 0.47382 0.28202 0.83183 0.0
H227 H 0.5102 0.30085 0.03654 0.0
H228 H 0.49702 0.26332 0.09448 0.0
H229 H 0.43978 0.18263 0.07443 0.0
H230 H 0.45292 0.14932 0.15304 0.0
H231 H 0.51902 0.18642 0.19833 0.0
H232 H 0.50586 0.21977 0.11768 0.0
H233 H 0.42724 0.27197 0.05093 0.0
H234 H 0.46746 0.23112 0.21396 0.0
O235 O 0.43526 0.22284 0.997 0.0
H236 H 0.42821 0.30649 0.13368 0.0
H237 H 0.46982 0.26549 0.29391 0.0
C238 C 0.47742 0.2511 0.99725 0.0
C239 C 0.47193 0.25631 0.9219 0.0
C240 C 0.47966 0.27777 0.88837 0.0
C241 C 0.4927 0.29459 0.93005 0.0
C242 C 0.49992 0.28838 0.00329 0.0
C243 C 0.49264 0.26671 0.03614 0.0
C244 C 0.47192 0.20366 0.08916 0.0
C245 C 0.45749 0.18332 0.09882 0.0
C246 C 0.46501 0.16423 0.14422 0.0
C247 C 0.48696 0.16524 0.18242 0.0
C248 C 0.50194 0.18517 0.17002 0.0
C249 C 0.49456 0.20413 0.12322 0.0
C250 C 0.44787 0.24914 0.125 0.0
C251 C 0.43538 0.27005 0.10584 0.0
C252 C 0.43633 0.28994 0.15273 0.0
C253 C 0.45001 0.28917 0.21902 0.0
C254 C 0.45931 0.26701 0.24308 0.0
C255 C 0.45813 0.24713 0.19655 0.0
Tb256 Tb 0.02294 0.99703 0.74232 0.0
Eu257 Eu 0.97662 0.01225 0.64103 0.0
C258 C 0.02907 0.01344 0.57317 0.0
C259 C 0.00741 0.05087 0.73173 0.0
C260 C 0.06529 0.96356 0.86512 0.0
C261 C 0.09034 0.945 0.96033 0.0
C262 C 0.08371 0.96513 0.91816 0.0
C263 C 0.05345 0.94173 0.85479 0.0
C264 C 0.06016 0.92158 0.89645 0.0
C265 C 0.07871 0.92298 0.94951 0.0
C266 C 0.05885 0.98462 0.81992 0.0
O267 O 0.99311 1.00096 0.82095 0.0
O268 O 0.96283 0.99161 0.7409 0.0
O269 O 0.98668 0.97476 0.60729 0.0
O270 O 0.00502 0.96327 0.71704 0.0
C271 C 0.97088 0.99438 0.8093 0.0
O272 O 0.93872 0.02103 0.63809 0.0
O273 O 0.95874 0.01979 0.53424 0.0
O274 O 0.00894 0.02548 0.57659 0.0
O275 O 0.03472 0.99776 0.62551 0.0
O276 O 0.02547 0.03582 0.72964 0.0
O277 O 0.98571 0.04408 0.71311 0.0
C278 C 0.99502 0.95797 0.65231 0.0
O279 O 0.05678 0.98101 0.74816 0.0
O280 O 0.04137 0.99762 0.8454 0.0
C281 C 0.92873 0.04899 0.54542 0.0
C282 C 0.91057 0.09425 0.50514 0.0
C283 C 0.89971 0.07329 0.4781 0.0
C284 C 0.90873 0.05078 0.49833 0.0
C285 C 0.93933 0.06978 0.57349 0.0
C286 C 0.93034 0.09217 0.55363 0.0
C287 C 0.93857 0.0256 0.56625 0.0
H288 H 0.10474 0.94656 1.00064 0.0
H289 H 0.09302 0.98189 0.92669 0.0
H290 H 0.03907 0.94024 0.81433 0.0
H291 H 0.05058 0.90498 0.88788 0.0
H292 H 0.88448 0.07431 0.44068 0.0
H293 H 0.90028 0.03482 0.47661 0.0
H294 H 0.95481 0.06868 0.60992 0.0
H295 H 0.93955 0.10789 0.57401 0.0
Tb296 Tb 0.51518 0.02898 0.75682 0.0
Eu297 Eu 0.49821 0.98588 0.64372 0.0
C298 C 0.50419 0.03945 0.58712 0.0
C299 C 0.45984 0.01657 0.73934 0.0
C300 C 0.55259 0.06779 0.87444 0.0
C301 C 0.57981 0.0962 0.93105 0.0
C302 C 0.55726 0.0907 0.90206 0.0
C303 C 0.57061 0.05037 0.87603 0.0
C304 C 0.59311 0.05581 0.90503 0.0
C305 C 0.59803 0.07883 0.93251 0.0
C306 C 0.5295 0.06251 0.83966 0.0
O307 O 0.52358 0.99535 0.81494 0.0
O308 O 0.49352 0.97344 0.76328 0.0
O309 O 0.53842 0.98277 0.64653 0.0
O310 O 0.54826 0.01886 0.70059 0.0
C311 C 0.50896 0.97694 0.81742 0.0
O312 O 0.49471 0.94762 0.62162 0.0
O313 O 0.48262 0.97357 0.53908 0.0
O314 O 0.50908 0.01715 0.57101 0.0
O315 O 0.49979 0.04577 0.65669 0.0
O316 O 0.47731 0.02438 0.78222 0.0
O317 O 0.46396 1.00461 0.67726 0.0
C318 C 0.55419 0.99909 0.6656 0.0
O319 O 0.52951 0.06348 0.76659 0.0
O320 O 0.51839 0.04354 0.86479 0.0
C321 C 0.45948 0.93922 0.55472 0.0
C322 C 0.41244 0.92371 0.52647 0.0
C323 C 0.43192 0.9138 0.48698 0.0
C324 C 0.45527 0.92172 0.50053 0.0
C325 C 0.44052 0.94747 0.59891 0.0
C326 C 0.41723 0.93993 0.58473 0.0
C327 C 0.48278 0.9511 0.55954 0.0
H328 H 0.5831 0.11414 0.95117 0.0
H329 H 0.54355 0.1044 0.90034 0.0
H330 H 0.56731 0.03261 0.85439 0.0
H331 H 0.60656 0.04187 0.9066 0.0
H332 H 0.42905 0.90085 0.443 0.0
H333 H 0.46981 0.91502 0.46634 0.0
H334 H 0.44355 0.96091 0.64132 0.0
H335 H 0.40292 0.94831 0.61597 0.0
Tb336 Tb 0.49064 0.51802 0.75131 0.0
Eu337 Eu 0.5329 0.50378 0.63255 0.0
C338 C 0.47815 0.50144 0.58693 0.0
C339 C 0.50647 0.46415 0.73594 0.0
C340 C 0.45589 0.54926 0.89672 0.0
C341 C 0.43292 0.57023 0.99122 0.0
C342 C 0.43541 0.55109 0.94173 0.0
C343 C 0.474 0.56646 0.90208 0.0
C344 C 0.47151 0.58559 0.95109 0.0
C345 C 0.45091 0.58777 0.99607 0.0
C346 C 0.45805 0.52999 0.84211 0.0
O347 O 0.52331 0.51554 0.81859 0.0
O348 O 0.55214 0.52134 0.72822 0.0
O349 O 0.52264 0.54205 0.6072 0.0
O350 O 0.50807 0.55197 0.72316 0.0
C351 C 0.54556 0.52024 0.799 0.0
O352 O 0.56783 0.48846 0.60618 0.0
O353 O 0.54578 0.50288 0.51682 0.0
O354 O 0.49846 0.4898 0.58449 0.0
O355 O 0.4739 0.51687 0.64051 0.0
O356 O 0.4885 0.47908 0.74436 0.0
O357 O 0.52668 0.47099 0.70483 0.0
C358 C 0.51611 0.55821 0.65631 0.0
O359 O 0.45902 0.53699 0.77226 0.0
O360 O 0.47422 0.51389 0.85692 0.0
C361 C 0.56286 0.46542 0.49681 0.0
C362 C 0.54578 0.42402 0.42524 0.0
C363 C 0.55431 0.4436 0.38258 0.0
C364 C 0.56264 0.46421 0.41819 0.0
C365 C 0.55667 0.44501 0.53907 0.0
C366 C 0.54812 0.42461 0.50381 0.0
C367 C 0.56361 0.48882 0.53402 0.0
H368 H 0.41696 0.57131 0.02559 0.0
H369 H 0.42129 0.53787 0.93805 0.0
H370 H 0.48989 0.56531 0.86735 0.0
H371 H 0.48549 0.59899 0.95223 0.0
H372 H 0.55335 0.44353 0.32185 0.0
H373 H 0.56724 0.47978 0.38448 0.0
H374 H 0.55653 0.44541 0.59984 0.0
H375 H 0.54159 0.41011 0.53894 0.0
Tb376 Tb 1.00452 0.49152 0.75748 0.0
Eu377 Eu 0.01838 0.5314 0.63007 0.0
C378 C 0.02011 0.47578 0.59677 0.0
C379 C 0.05822 0.50729 0.73613 0.0
C380 C 0.96845 0.45249 0.88109 0.0
C381 C 0.94297 0.42301 0.942 0.0
C382 C 0.96548 0.43008 0.91559 0.0
C383 C 0.94876 0.46781 0.87306 0.0
C384 C 0.92631 0.46081 0.89958 0.0
C385 C 0.9231 0.43828 0.93407 0.0
C386 C 0.99166 0.45919 0.84901 0.0
O387 O 0.99332 0.52544 0.8072 0.0
O388 O 0.01708 0.55123 0.73905 0.0
O389 O 0.97868 0.5353 0.64674 0.0
O390 O 0.97218 0.49721 0.69058 0.0
C391 C 1.00383 0.54639 0.79822 0.0
O392 O 0.04164 0.55993 0.58834 0.0
O393 O 0.01194 0.54802 0.52059 0.0
O394 O 0.01272 0.49647 0.57101 0.0
O395 O 0.02384 0.47266 0.66898 0.0
O396 O 0.04121 0.50162 0.78418 0.0
O397 O 0.0531 0.51412 0.66712 0.0
C398 C 0.96422 0.5173 0.66072 0.0
O399 O 0.99341 0.45618 0.77686 0.0
O400 O 1.00027 0.47982 0.86926 0.0
C401 C 0.04936 0.55344 0.46038 0.0
C402 C 0.08595 0.53206 0.37552 0.0
C403 C 0.09095 0.55182 0.4212 0.0
C404 C 0.07277 0.56252 0.46298 0.0
C405 C 0.04399 0.5352 0.40896 0.0
C406 C 0.06214 0.52464 0.36683 0.0
C407 C 0.03237 0.55933 0.52113 0.0
H408 H 0.94107 0.40547 0.9676 0.0
H409 H 0.98049 0.41794 0.92122 0.0
H410 H 0.95074 0.48511 0.84586 0.0
H411 H 0.91153 0.47321 0.89377 0.0
H412 H 0.10914 0.55816 0.42773 0.0
H413 H 0.07737 0.57664 0.5017 0.0
H414 H 0.02613 0.52779 0.40521 0.0
H415 H 0.05778 0.50945 0.33202 0.0
H416 H 0.14584 0.99697 0.25857 0.0
H417 H 0.03076 0.05037 0.46924 0.0
H418 H 0.12358 0.07052 0.23413 0.0
H419 H 0.06554 0.98409 0.53017 0.0
H420 H 0.06019 0.0559 0.36771 0.0
H421 H 0.11149 0.9896 0.3406 0.0
C422 C 0.13345 0.01147 0.26903 0.0
C423 C 0.13775 0.03445 0.23955 0.0
C424 C 0.06124 0.0401 0.40317 0.0
C425 C 0.09848 0.02621 0.33501 0.0
C426 C 0.04443 0.03691 0.46101 0.0
C427 C 0.04576 0.01683 0.50882 0.0
C428 C 0.0793 0.02293 0.39245 0.0
C429 C 0.0639 0.99998 0.49538 0.0
C430 C 0.11396 0.00731 0.31668 0.0
C431 C 0.12116 0.05259 0.25631 0.0
N432 N 0.07988 1.00342 0.43871 0.0
N433 N 0.10237 0.04814 0.30324 0.0
H434 H 0.50397 0.17152 0.32529 0.0
H435 H 0.50293 0.03208 0.43478 0.0
H436 H 0.48294 0.11636 0.17084 0.0
H437 H 0.50302 0.0884 0.59914 0.0
H438 H 0.50089 0.06237 0.33481 0.0
H439 H 0.50958 0.14092 0.42307 0.0
C440 C 0.5009 0.15293 0.31156 0.0
C441 C 0.49297 0.14652 0.23964 0.0
C442 C 0.50137 0.06809 0.39276 0.0
C443 C 0.49914 0.11137 0.35172 0.0
C444 C 0.50258 0.0508 0.44996 0.0
C445 C 0.50304 0.05765 0.52572 0.0
C446 C 0.50093 0.09249 0.41113 0.0
C447 C 0.50254 0.08224 0.54168 0.0
C448 C 0.50388 0.1355 0.36765 0.0
C449 C 0.48891 0.12214 0.22558 0.0
N450 N 0.50158 0.09873 0.48499 0.0
N451 N 0.49204 0.10549 0.28098 0.0
H452 H 0.3507 0.50595 0.30684 0.0
H453 H 0.48176 0.47356 0.46087 0.0
H454 H 0.40138 0.46249 0.186 0.0
H455 H 0.43348 0.52162 0.57398 0.0
H456 H 0.45237 0.46907 0.36039 0.0
H457 H 0.38081 0.51238 0.40425 0.0
C458 C 0.36822 0.49799 0.30013 0.0
C459 C 0.37336 0.48354 0.23788 0.0
C460 C 0.44819 0.48061 0.40715 0.0
C461 C 0.40791 0.4905 0.3505 0.0
C462 C 0.46497 0.48313 0.46483 0.0
C463 C 0.46015 0.49798 0.52634 0.0
C464 C 0.4263 0.49296 0.41074 0.0
C465 C 0.43804 0.50997 0.52787 0.0
C466 C 0.38538 0.50152 0.35626 0.0
C467 C 0.39637 0.47343 0.23335 0.0
N468 N 0.42198 0.50718 0.47112 0.0
N469 N 0.41268 0.47701 0.28885 0.0
H470 H 0.05784 0.34036 0.39498 0.0
H471 H 0.01245 0.47528 0.44436 0.0
H472 H 0.02155 0.37957 0.21913 0.0
H473 H 0.03776 0.43085 0.6271 0.0
H474 H 0.01874 0.44198 0.35816 0.0
H475 H 0.05405 0.37487 0.47669 0.0
C476 C 0.04937 0.35636 0.37296 0.0
C477 C 0.04017 0.35701 0.29949 0.0
C478 C 0.02293 0.43953 0.41709 0.0
C479 C 0.03534 0.39674 0.39417 0.0
C480 C 0.01937 0.45856 0.46648 0.0
C481 C 0.02447 0.45589 0.54345 0.0
C482 C 0.03181 0.41764 0.44453 0.0
C483 C 0.03348 0.43377 0.56846 0.0
C484 C 0.04699 0.37603 0.42015 0.0
C485 C 0.02882 0.37815 0.27531 0.0
N486 N 0.03685 0.41556 0.51924 0.0
N487 N 0.02675 0.39716 0.32244 0.0
H488 H 0.90273 0.99861 0.24842 0.0
H489 H 0.92297 0.9839 0.80513 0.0
H490 H 0.84541 0.99303 0.0872 0.0
H491 H 0.98016 0.99895 0.96045 0.0
H492 H 0.89488 0.98258 0.91011 0.0
H493 H 0.93168 0.99437 0.14619 0.0
C494 C 0.89617 0.9964 0.1917 0.0
C495 C 0.87146 0.99633 0.17678 0.0
C496 C 0.91359 0.98605 0.92139 0.0
C497 C 0.90469 0.99126 0.05915 0.0
C498 C 0.92971 0.98675 0.86135 0.0
C499 C 0.95404 0.99168 0.87366 0.0
C500 C 0.92174 0.99025 0.99472 0.0
C501 C 0.96159 0.99519 0.94806 0.0
C502 C 0.91276 0.9939 0.13332 0.0
C503 C 0.86418 0.99294 0.10202 0.0
N504 N 0.94551 0.99451 0.00563 0.0
N505 N 0.88067 0.99068 0.04621 0.0
H506 H 0.46426 0.87466 0.15419 0.0
H507 H 0.54166 0.97315 0.93374 0.0
H508 H 0.53816 0.88761 0.20995 0.0
H509 H 0.47633 0.94206 0.85 0.0
H510 H 0.54035 0.94489 0.04064 0.0
H511 H 0.46783 0.90236 0.04854 0.0
C512 C 0.48126 0.88348 0.14443 0.0
C513 C 0.50088 0.87894 0.19155 0.0
C514 C 0.5264 0.94428 0.99856 0.0
C515 C 0.50517 0.91084 0.06947 0.0
C516 C 0.52708 0.96044 0.93769 0.0
C517 C 0.50907 0.96006 0.88259 0.0
C518 C 0.5074 0.92787 0.00483 0.0
C519 C 0.49066 0.94311 0.89069 0.0
C520 C 0.48334 0.89921 0.08363 0.0
C521 C 0.52259 0.89058 0.17502 0.0
N522 N 0.49026 0.92789 0.95055 0.0
N523 N 0.52413 0.90615 0.11562 0.0
H524 H 0.62082 0.52279 0.22519 0.0
H525 H 0.59429 0.52463 0.78241 0.0
H526 H 0.6757 0.51578 0.05598 0.0
H527 H 0.53908 0.52179 0.95204 0.0
H528 H 0.62446 0.52609 0.8816 0.0
H529 H 0.59096 0.52707 0.12587 0.0
C530 C 0.62666 0.52223 0.16722 0.0
C531 C 0.65092 0.5187 0.14932 0.0
C532 C 0.60574 0.52528 0.89713 0.0
C533 C 0.61663 0.5238 0.03476 0.0
C534 C 0.58845 0.5245 0.84043 0.0
C535 C 0.56401 0.52294 0.85863 0.0
C536 C 0.59865 0.52458 0.97288 0.0
C537 C 0.55766 0.52284 0.93507 0.0
C538 C 0.60956 0.52475 0.11043 0.0
C539 C 0.65733 0.51866 0.07287 0.0
N540 N 0.57483 0.52356 0.9892 0.0
N541 N 0.64031 0.521 0.0186 0.0
H542 H 0.9756 0.62995 0.20374 0.0
H543 H 0.0247 0.59055 0.80001 0.0
H544 H 0.03786 0.65984 0.09508 0.0
H545 H 0.97813 0.54487 0.93139 0.0
H546 H 0.0239 0.61986 0.89996 0.0
H547 H 0.97081 0.60226 0.09732 0.0
C548 C 0.98805 0.63084 0.15713 0.0
C549 C 0.00723 0.64705 0.15818 0.0
C550 C 0.01375 0.60348 0.90702 0.0
C551 C 1.00185 0.61579 0.0369 0.0
C552 C 0.01413 0.58668 0.84967 0.0
C553 C 1.00161 0.565 0.8572 0.0
C554 C 1.00069 0.59883 0.97291 0.0
C555 C 0.98817 0.56125 0.92317 0.0
C556 C 0.98541 0.615 0.09682 0.0
C557 C 0.02295 0.64746 0.09672 0.0
N558 N 0.98812 0.57796 0.97868 0.0
N559 N 0.01991 0.63213 0.03881 0.0
H560 H 0.92449 0.20819 0.20479 0.0
H561 H 0.90692 0.13612 0.58397 0.0
H562 H 0.95341 0.22806 0.42013 0.0
H563 H 0.89837 0.10724 0.36152 0.0
H564 H 0.90742 0.17643 0.52971 0.0
H565 H 0.89876 0.17889 0.26793 0.0
C566 C 0.92498 0.20685 0.2655 0.0
C567 C 0.94176 0.21996 0.30699 0.0
C568 C 0.90476 0.16128 0.49309 0.0
C569 C 0.91234 0.18667 0.37927 0.0
C570 C 0.90458 0.13828 0.5239 0.0
C571 C 0.90349 0.11825 0.47688 0.0
C572 C 0.90388 0.16422 0.4148 0.0
C573 C 0.89963 0.12211 0.39985 0.0
C574 C 0.91024 0.19018 0.30144 0.0
C575 C 0.94105 0.2181 0.38563 0.0
N576 N 0.90054 0.14465 0.37096 0.0
N577 N 0.92702 0.2013 0.41912 0.0
H578 H 0.29287 0.94863 0.24277 0.0
H579 H 0.3705 0.92307 0.60928 0.0
H580 H 0.28325 0.98513 0.45313 0.0
H581 H 0.39676 0.91765 0.38152 0.0
H582 H 0.33043 0.93077 0.55972 0.0
H583 H 0.32247 0.92244 0.30277 0.0
C584 C 0.29646 0.95062 0.30218 0.0
C585 C 0.28593 0.96922 0.34303 0.0
C586 C 0.34495 0.92724 0.52101 0.0
C587 C 0.31959 0.93945 0.41152 0.0
C588 C 0.36787 0.92299 0.54904 0.0
C589 C 0.38739 0.9206 0.49964 0.0
C590 C 0.34145 0.9286 0.44317 0.0
C591 C 0.38253 0.91961 0.42223 0.0
C592 C 0.31338 0.93576 0.33617 0.0
C593 C 0.2913 0.97119 0.41963 0.0
N594 N 0.36012 0.92403 0.39639 0.0
N595 N 0.30801 0.95665 0.45133 0.0
H596 H 0.45957 0.29778 0.36854 0.0
H597 H 0.51504 0.42712 0.30522 0.0
H598 H 0.46137 0.33159 0.14926 0.0
H599 H 0.54391 0.37634 0.46564 0.0
H600 H 0.48881 0.39585 0.2574 0.0
H601 H 0.48278 0.33121 0.41812 0.0
C602 C 0.46448 0.31231 0.33098 0.0
C603 C 0.45869 0.31158 0.25425 0.0
C604 C 0.50097 0.39165 0.30297 0.0
C605 C 0.4849 0.34993 0.31107 0.0
C606 C 0.51623 0.40937 0.32975 0.0
C607 C 0.53185 0.40446 0.38976 0.0
C608 C 0.50098 0.36901 0.33729 0.0
C609 C 0.53193 0.38118 0.42033 0.0
C610 C 0.47776 0.33132 0.35937 0.0
C611 C 0.4651 0.33132 0.20888 0.0
N612 N 0.51657 0.36438 0.3942 0.0
N613 N 0.47798 0.34962 0.23791 0.0
H614 H 0.21282 0.4457 0.3317 0.0
H615 H 0.09021 0.51309 0.2343 0.0
H616 H 0.18662 0.45576 0.10554 0.0
H617 H 0.12585 0.51678 0.44876 0.0
H618 H 0.12208 0.48669 0.18902 0.0
H619 H 0.17691 0.46548 0.37917 0.0
C620 C 0.19934 0.45168 0.29215 0.0
C621 C 0.20285 0.44922 0.21455 0.0
C622 C 0.1229 0.49333 0.24594 0.0
C623 C 0.16188 0.472 0.26831 0.0
C624 C 0.10479 0.5084 0.27163 0.0
C625 C 0.10563 0.51738 0.34491 0.0
C626 C 0.14176 0.487 0.29428 0.0
C627 C 0.12481 0.51068 0.39128 0.0
C628 C 0.17891 0.46304 0.31921 0.0
C629 C 0.18462 0.45704 0.16586 0.0
N630 N 0.1421 0.49588 0.36521 0.0
N631 N 0.16505 0.46832 0.19351 0.0
H632 H 0.09208 0.77731 0.10095 0.0
H633 H 0.0876 0.92014 0.1006 0.0
H634 H 0.08301 0.81977 0.30042 0.0
H635 H 0.08499 0.87716 0.90053 0.0
H636 H 0.09458 0.88387 0.17524 0.0
H637 H 0.09831 0.81403 0.02799 0.0
C638 C 0.09174 0.79434 0.12958 0.0
C639 C 0.08667 0.79548 0.20671 0.0
C640 C 0.09273 0.88241 0.11491 0.0
C641 C 0.09373 0.83753 0.12362 0.0
C642 C 0.08885 0.90311 0.07227 0.0
C643 C 0.08538 0.90159 0.99442 0.0
C644 C 0.09319 0.86007 0.07937 0.0
C645 C 0.08707 0.87906 0.96064 0.0
C646 C 0.09531 0.81528 0.08794 0.0
C647 C 0.08692 0.81799 0.24117 0.0
N648 N 0.09066 0.85916 0.00338 0.0
N649 N 0.09004 0.83815 0.19919 0.0
H650 H 0.74035 0.05541 0.08051 0.0
H651 H 0.60875 0.1054 0.0571 0.0
H652 H 0.71354 0.10936 0.23128 0.0
H653 H 0.6419 0.06485 0.87975 0.0
H654 H 0.64793 0.11044 0.11533 0.0
H655 H 0.70621 0.06229 0.99908 0.0
C656 C 0.72764 0.06915 0.09581 0.0
C657 C 0.72974 0.08154 0.16383 0.0
C658 C 0.64668 0.10072 0.06312 0.0
C659 C 0.68996 0.08891 0.07142 0.0
C660 C 0.6243 0.09789 0.02969 0.0
C661 C 0.62195 0.08432 0.96407 0.0
C662 C 0.66681 0.08973 0.03109 0.0
C663 C 0.64275 0.07488 0.93144 0.0
C664 C 0.70795 0.07292 0.04935 0.0
C665 C 0.71236 0.09888 0.18058 0.0
N666 N 0.66424 0.0775 0.96579 0.0
N667 N 0.69298 0.10174 0.13541 0.0
H668 H 0.48329 0.72024 0.20435 0.0
H669 H 0.41034 0.61426 0.02314 0.0
H670 H 0.40726 0.71384 0.24131 0.0
H671 H 0.48513 0.60927 0.08179 0.0
H672 H 0.40768 0.65159 0.09407 0.0
H673 H 0.48341 0.68105 0.1458 0.0
C674 C 0.46653 0.71064 0.19914 0.0
C675 C 0.44516 0.72034 0.22656 0.0
C676 C 0.42456 0.64212 0.09183 0.0
C677 C 0.44522 0.6753 0.16065 0.0
C678 C 0.4261 0.62078 0.05176 0.0
C679 C 0.44811 0.60879 0.04555 0.0
C680 C 0.44523 0.65157 0.12493 0.0
C681 C 0.46797 0.61821 0.08328 0.0
C682 C 0.46666 0.68817 0.1666 0.0
C683 C 0.42405 0.70693 0.22026 0.0
N684 N 0.46611 0.63916 0.12055 0.0
N685 N 0.42454 0.68505 0.18721 0.0
H686 H 0.80721 0.40147 0.23238 0.0
H687 H 0.87919 0.44624 0.86996 0.0
H688 H 0.78054 0.45314 0.07121 0.0
H689 H 0.91249 0.41405 0.0648 0.0
H690 H 0.84002 0.43908 0.92676 0.0
H691 H 0.84272 0.39609 0.15389 0.0
C692 C 0.80858 0.41142 0.1801 0.0
C693 C 0.79099 0.42819 0.15944 0.0
C694 C 0.85591 0.43333 0.95659 0.0
C695 C 0.83141 0.42181 0.06909 0.0
C696 C 0.87828 0.43756 0.9245 0.0
C697 C 0.89922 0.43121 0.96337 0.0
C698 C 0.85441 0.42261 0.02798 0.0
C699 C 0.89688 0.4193 0.03279 0.0
C700 C 0.82883 0.40826 0.1353 0.0
C701 C 0.79347 0.43999 0.08982 0.0
N702 N 0.87487 0.41564 0.0633 0.0
N703 N 0.81345 0.4368 0.04773 0.0
H704 H 0.07118 0.18214 0.89612 0.0
H705 H 0.97422 0.08629 0.75699 0.0
H706 H 0.99512 0.19022 0.92965 0.0
H707 H 0.05021 0.07274 0.76353 0.0
H708 H 0.98152 0.12665 0.80428 0.0
H709 H 0.06371 0.14453 0.831 0.0
C710 C 0.05289 0.17616 0.88941 0.0
C711 C 0.0338 0.18945 0.91931 0.0
C712 C 0.9966 0.11487 0.79505 0.0
C713 C 0.0251 0.14622 0.84403 0.0
C714 C 0.99246 0.09179 0.76793 0.0
C715 C 0.01161 0.07591 0.75665 0.0
C716 C 0.02009 0.12231 0.81068 0.0
C717 C 0.03485 0.08421 0.77172 0.0
C718 C 0.04864 0.15465 0.85205 0.0
C719 C 0.01045 0.18086 0.90719 0.0
N720 N 0.03841 0.10674 0.79803 0.0
N721 N 0.0068 0.15977 0.8711 0.0
H722 H 0.30788 1.00401 0.84686 0.0
H723 H 0.44427 0.04752 0.84697 0.0
H724 H 0.33348 0.06608 0.96484 0.0
H725 H 0.41803 0.9956 0.68898 0.0
H726 H 0.40359 0.05346 0.89211 0.0
H727 H 0.34767 0.99955 0.78962 0.0
C728 C 0.32176 0.01679 0.86039 0.0
C729 C 0.31715 0.03554 0.91066 0.0
C730 C 0.40663 0.04082 0.84731 0.0
C731 C 0.36282 0.0304 0.84573 0.0
C732 C 0.42996 0.03736 0.8215 0.0
C733 C 0.43474 0.02096 0.76406 0.0
C734 C 0.38771 0.02763 0.81633 0.0
C735 C 0.41526 0.00845 0.73328 0.0
C736 C 0.34445 0.01427 0.82748 0.0
C737 C 0.3359 0.05159 0.92562 0.0
N738 N 0.39265 0.0119 0.76016 0.0
N739 N 0.35781 0.04854 0.89388 0.0
H740 H 0.51013 0.30893 0.79193 0.0
H741 H 0.47604 0.44645 0.84384 0.0
H742 H 0.48277 0.3367 1.00028 0.0
H743 H 0.53134 0.42441 0.69011 0.0
H744 H 0.47337 0.4052 0.89112 0.0
H745 H 0.51361 0.35015 0.7433 0.0
C746 C 0.50497 0.3237 0.82748 0.0
C747 C 0.49636 0.31938 0.9005 0.0
C748 C 0.48607 0.40942 0.84697 0.0
C749 C 0.49977 0.36645 0.84473 0.0
C750 C 0.48751 0.43293 0.8196 0.0
C751 C 0.50399 0.43898 0.76294 0.0
C752 C 0.50086 0.39162 0.81651 0.0
C753 C 0.51849 0.42065 0.73407 0.0
C754 C 0.50698 0.34718 0.79979 0.0
C755 C 0.48983 0.33921 0.94408 0.0
N756 N 0.51649 0.3978 0.76076 0.0
N757 N 0.49145 0.3618 0.91536 0.0
H758 H 0.18764 0.49316 1.00147 0.0
H759 H 0.09918 0.51439 0.65209 0.0
H760 H 0.2127 0.50237 0.77365 0.0
H761 H 0.07551 0.49752 0.87727 0.0
H762 H 0.14075 0.51249 0.69558 0.0
H763 H 0.1466 0.49783 0.95749 0.0
C764 C 0.1846 0.49656 0.94227 0.0
C765 C 0.20385 0.49748 0.89138 0.0
C766 C 0.12645 0.5092 0.73542 0.0
C767 C 0.15645 0.50238 0.84007 0.0
C768 C 0.10266 0.51028 0.71062 0.0
C769 C 0.08368 0.50603 0.76092 0.0
C770 C 0.13138 0.50398 0.81125 0.0
C771 C 0.08943 0.50083 0.83618 0.0
C772 C 0.16104 0.49898 0.91702 0.0
C773 C 0.19851 0.50135 0.81499 0.0
N774 N 0.11266 0.49999 0.85889 0.0
N775 N 0.17538 0.50363 0.79173 0.0
H776 H 0.98875 0.8025 0.63146 0.0
H777 H 0.98514 0.94071 0.51223 0.0
H778 H 1.00036 0.82744 0.40391 0.0
H779 H 1.00113 0.91721 0.7382 0.0
H780 H 0.98368 0.89894 0.47288 0.0
H781 H 0.98632 0.84411 0.67225 0.0
C782 C 0.99071 0.81659 0.58983 0.0
C783 C 0.99496 0.81115 0.51386 0.0
C784 C 0.98743 0.90293 0.53111 0.0
C785 C 0.99169 0.85902 0.56059 0.0
C786 C 0.9882 0.92679 0.55379 0.0
C787 C 0.99333 0.93256 0.62873 0.0
C788 C 0.9915 0.88456 0.58381 0.0
C789 C 0.99722 0.91365 0.67981 0.0
C790 C 0.98925 0.84038 0.61335 0.0
C791 C 0.99672 0.83044 0.46276 0.0
N792 N 0.99616 0.89051 0.65648 0.0
N793 N 0.99512 0.85341 0.48705 0.0
H794 H 0.68366 0.99605 0.40577 0.0
H795 H 0.594 0.01518 0.73886 0.0
H796 H 0.70822 0.99126 0.63575 0.0
H797 H 0.5723 0.97583 0.54299 0.0
H798 H 0.63585 0.01168 0.69841 0.0
H799 H 0.64261 0.99291 0.45056 0.0
C800 C 0.68071 0.99394 0.46551 0.0
C801 C 0.69996 0.99402 0.51665 0.0
C802 C 0.62192 1.00364 0.66473 0.0
C803 C 0.65236 0.99148 0.56826 0.0
C804 C 0.59806 0.00571 0.68753 0.0
C805 C 0.57964 0.99574 0.64426 0.0
C806 C 0.62739 0.99214 0.59702 0.0
C807 C 0.58595 0.98364 0.57827 0.0
C808 C 0.65707 0.99236 0.49095 0.0
C809 C 0.6943 0.99194 0.59369 0.0
N810 N 0.60925 0.98249 0.55603 0.0
N811 N 0.67109 0.99113 0.61707 0.0
H812 H 0.5224 0.71415 0.65091 0.0
H813 H 0.52369 0.57773 0.5165 0.0
H814 H 0.51081 0.6929 0.42103 0.0
H815 H 0.51186 0.59772 0.74723 0.0
H816 H 0.52494 0.62007 0.48134 0.0
H817 H 0.52438 0.6719 0.68745 0.0
C818 C 0.52033 0.70074 0.60788 0.0
C819 C 0.51631 0.70743 0.53249 0.0
C820 C 0.52213 0.61521 0.5397 0.0
C821 C 0.519 0.65875 0.57438 0.0
C822 C 0.52148 0.59099 0.55998 0.0
C823 C 0.51761 0.58403 0.63506 0.0
C824 C 0.51916 0.63279 0.59486 0.0
C825 C 0.5148 0.60217 0.68865 0.0
C826 C 0.52154 0.67656 0.62897 0.0
C827 C 0.51433 0.68894 0.47955 0.0
N828 N 0.51568 0.62567 0.66757 0.0
N829 N 0.51566 0.66558 0.50149 0.0
H830 H 0.81368 0.48825 0.58898 0.0
H831 H 0.9423 0.55182 0.57365 0.0
H832 H 0.83001 0.5469 0.43827 0.0
H833 H 0.92757 0.48659 0.69666 0.0
H834 H 0.90048 0.55289 0.5326 0.0
H835 H 0.85425 0.49026 0.63844 0.0
C836 C 0.82565 0.50184 0.56694 0.0
C837 C 0.81821 0.51752 0.50939 0.0
C838 C 0.90639 0.5384 0.56876 0.0
C839 C 0.86522 0.5196 0.56535 0.0
C840 C 0.93028 0.5378 0.59248 0.0
C841 C 0.9386 0.51901 0.6385 0.0
C842 C 0.89057 0.52018 0.59158 0.0
C843 C 0.9221 0.50135 0.66085 0.0
C844 C 0.84897 0.50281 0.59484 0.0
C845 C 0.83491 0.53432 0.48216 0.0
N846 N 0.89898 0.50237 0.63719 0.0
N847 N 0.85759 0.53491 0.5103 0.0
loop_
_geom_bond_atom_site_label_1
_geom_bond_atom_site_label_2
_geom_bond_distance
_geom_bond_site_symmetry_2
_ccdc_geom_bond_type
P0 O11 1.490 . S
P0 C14 1.812 . S
P0 C20 1.803 . S
P0 C26 1.819 . S
H1 C15 0.941 . S
H2 C16 0.939 . S
H3 C18 0.940 . S
H4 C19 0.940 . S
H5 C21 0.939 . S
H6 C22 0.942 . S
H7 C24 0.940 . S
H8 C25 0.939 . S
H9 C27 0.941 . S
H10 C31 0.939 . S
O11 P0 1.490 . S
H12 C28 0.939 . S
H13 C30 0.940 . S
C14 P0 1.812 . S
C14 C15 1.389 . S
C14 C19 1.391 . S
C15 H1 0.941 . S
C15 C14 1.389 . S
C15 C16 1.397 . S
C16 H2 0.939 . S
C16 C15 1.397 . S
C16 C17 1.378 . S
C17 C16 1.378 . S
C17 C18 1.378 . S
C18 H3 0.940 . S
C18 C17 1.378 . S
C18 C19 1.396 . S
C19 H4 0.940 . S
C19 C14 1.391 . S
C19 C18 1.396 . S
C20 P0 1.803 . S
C20 C21 1.378 . S
C20 C25 1.400 . S
C21 H5 0.939 . S
C21 C20 1.378 . S
C21 C22 1.361 . S
C22 H6 0.942 . S
C22 C21 1.361 . S
C22 C23 1.369 . S
C23 C22 1.369 . S
C23 C24 1.404 . S
C24 H7 0.940 . S
C24 C23 1.404 . S
C24 C25 1.389 . S
C25 H8 0.939 . S
C25 C20 1.400 . S
C25 C24 1.389 . S
C26 P0 1.819 . S
C26 C27 1.391 . S
C26 C31 1.391 . S
C27 H9 0.941 . S
C27 C26 1.391 . S
C27 C28 1.396 . S
C28 H12 0.939 . S
C28 C27 1.396 . S
C28 C29 1.397 . S
C29 C28 1.397 . S
C29 C30 1.385 . S
C30 H13 0.940 . S
C30 C29 1.385 . S
C30 C31 1.388 . S
C31 H10 0.939 . S
C31 C26 1.391 . S
C31 C30 1.388 . S
P32 O43 1.490 . S
P32 C46 1.812 . S
P32 C52 1.803 . S
P32 C58 1.819 . S
H33 C47 0.941 . S
H34 C48 0.939 . S
H35 C50 0.940 . S
H36 C51 0.950 . S
H37 C53 0.939 . S
H38 C54 0.942 . S
H39 C56 0.940 . S
H40 C57 0.959 . S
H41 C59 0.941 . S
H42 C63 0.929 1_655 S
O43 P32 1.490 . S
H44 C60 0.939 . S
H45 C62 0.940 . S
C46 P32 1.812 . S
C46 C47 1.389 . S
C46 C51 1.375 1_455 S
C47 H33 0.941 . S
C47 C46 1.389 . S
C47 C48 1.397 . S
C48 H34 0.939 . S
C48 C47 1.397 . S
C48 C49 1.378 . S
C49 C48 1.378 . S
C49 C50 1.378 1_455 S
C50 H35 0.940 . S
C50 C49 1.378 1_655 S
C50 C51 1.403 . S
C51 H36 0.950 . S
C51 C46 1.375 1_655 S
C51 C50 1.403 . S
C52 P32 1.803 . S
C52 C53 1.378 . S
C52 C57 1.368 1_455 S
C53 H37 0.939 . S
C53 C52 1.378 . S
C53 C54 1.361 . S
C54 H38 0.942 . S
C54 C53 1.361 . S
C54 C55 1.369 . S
C55 C54 1.369 . S
C55 C56 1.404 1_455 S
C56 H39 0.940 . S
C56 C55 1.404 1_655 S
C56 C57 1.402 . S
C57 H40 0.959 . S
C57 C52 1.368 1_655 S
C57 C56 1.402 . S
C58 P32 1.819 . S
C58 C59 1.391 . S
C58 C63 1.391 . S
C59 H41 0.941 . S
C59 C58 1.391 . S
C59 C60 1.396 . S
C60 H44 0.939 . S
C60 C59 1.396 . S
C60 C61 1.397 . S
C61 C60 1.397 . S
C61 C62 1.385 1_455 S
C62 H45 0.940 . S
C62 C61 1.385 1_655 S
C62 C63 1.388 1_655 S
C63 H42 0.929 1_455 S
C63 C58 1.391 . S
C63 C62 1.388 1_455 S
P64 O75 1.490 . S
P64 C78 1.812 . S
P64 C84 1.803 . S
P64 C90 1.819 . S
H65 C79 0.941 . S
H66 C80 0.939 . S
H67 C82 0.940 . S
H68 C83 0.950 . S
H69 C85 0.939 . S
H70 C86 0.942 . S
H71 C88 0.940 . S
H72 C89 0.959 . S
H73 C91 0.941 . S
H74 C95 0.929 1_565 S
O75 P64 1.490 . S
H76 C92 0.939 . S
H77 C94 0.940 . S
C78 P64 1.812 . S
C78 C79 1.389 . S
C78 C83 1.375 1_545 S
C79 H65 0.941 . S
C79 C78 1.389 . S
C79 C80 1.397 . S
C80 H66 0.939 . S
C80 C79 1.397 . S
C80 C81 1.378 . S
C81 C80 1.378 . S
C81 C82 1.378 1_545 S
C82 H67 0.940 . S
C82 C81 1.378 1_565 S
C82 C83 1.403 . S
C83 H68 0.950 . S
C83 C78 1.375 1_565 S
C83 C82 1.403 . S
C84 P64 1.803 . S
C84 C85 1.378 . S
C84 C89 1.368 1_545 S
C85 H69 0.939 . S
C85 C84 1.378 . S
C85 C86 1.361 . S
C86 H70 0.942 . S
C86 C85 1.361 . S
C86 C87 1.369 . S
C87 C86 1.369 . S
C87 C88 1.404 1_545 S
C88 H71 0.940 . S
C88 C87 1.404 1_565 S
C88 C89 1.402 . S
C89 H72 0.959 . S
C89 C84 1.368 1_565 S
C89 C88 1.402 . S
C90 P64 1.819 . S
C90 C91 1.391 . S
C90 C95 1.391 . S
C91 H73 0.941 . S
C91 C90 1.391 . S
C91 C92 1.396 . S
C92 H76 0.939 . S
C92 C91 1.396 . S
C92 C93 1.397 . S
C93 C92 1.397 . S
C93 C94 1.385 1_545 S
C94 H77 0.940 . S
C94 C93 1.385 1_565 S
C94 C95 1.388 1_565 S
C95 H74 0.929 1_545 S
C95 C90 1.391 . S
C95 C94 1.388 1_545 S
P96 O107 1.490 . S
P96 C110 1.812 . S
P96 C116 1.803 . S
P96 C122 1.819 . S
H97 C111 0.941 . S
H98 C112 0.939 . S
H99 C114 0.940 . S
H100 C115 0.940 . S
H101 C117 0.939 . S
H102 C118 0.942 . S
H103 C120 0.940 . S
H104 C121 0.939 . S
H105 C123 0.941 . S
H106 C127 0.939 . S
O107 P96 1.490 . S
H108 C124 0.939 . S
H109 C126 0.940 . S
C110 P96 1.812 . S
C110 C111 1.389 . S
C110 C115 1.391 . S
C111 H97 0.941 . S
C111 C110 1.389 . S
C111 C112 1.397 . S
C112 H98 0.939 . S
C112 C111 1.397 . S
C112 C113 1.378 . S
C113 C112 1.378 . S
C113 C114 1.378 . S
C114 H99 0.940 . S
C114 C113 1.378 . S
C114 C115 1.396 . S
C115 H100 0.940 . S
C115 C110 1.391 . S
C115 C114 1.396 . S
C116 P96 1.803 . S
C116 C117 1.378 . S
C116 C121 1.400 . S
C117 H101 0.939 . S
C117 C116 1.378 . S
C117 C118 1.361 . S
C118 H102 0.942 . S
C118 C117 1.361 . S
C118 C119 1.369 . S
C119 C118 1.369 . S
C119 C120 1.404 . S
C120 H103 0.940 . S
C120 C119 1.404 . S
C120 C121 1.389 . S
C121 H104 0.939 . S
C121 C116 1.400 . S
C121 C120 1.389 . S
C122 P96 1.819 . S
C122 C123 1.391 . S
C122 C127 1.391 . S
C123 H105 0.941 . S
C123 C122 1.391 . S
C123 C124 1.396 . S
C124 H108 0.939 . S
C124 C123 1.396 . S
C124 C125 1.397 . S
C125 C124 1.397 . S
C125 C126 1.385 . S
C126 H109 0.940 . S
C126 C125 1.385 . S
C126 C127 1.388 . S
C127 H106 0.939 . S
C127 C122 1.391 . S
C127 C126 1.388 . S
P128 O139 1.490 . S
P128 C142 1.812 1_554 S
P128 C148 1.803 . S
P128 C154 1.819 . S
H129 C143 0.941 . S
H130 C144 0.939 . S
H131 C146 0.940 . S
H132 C147 0.940 1_554 S
H133 C149 0.939 . S
H134 C150 0.942 . S
H135 C152 0.940 . S
H136 C153 0.939 . S
H137 C155 0.941 . S
H138 C159 0.939 . S
O139 P128 1.490 . S
H140 C156 0.939 . S
H141 C158 0.940 . S
C142 P128 1.812 1_556 S
C142 C143 1.389 . S
C142 C147 1.391 . S
C143 H129 0.941 . S
C143 C142 1.389 . S
C143 C144 1.397 . S
C144 H130 0.939 . S
C144 C143 1.397 . S
C144 C145 1.378 . S
C145 C144 1.378 . S
C145 C146 1.378 . S
C146 H131 0.940 . S
C146 C145 1.378 . S
C146 C147 1.396 . S
C147 H132 0.940 1_556 S
C147 C142 1.391 . S
C147 C146 1.396 . S
C148 P128 1.803 . S
C148 C149 1.378 . S
C148 C153 1.400 . S
C149 H133 0.939 . S
C149 C148 1.378 . S
C149 C150 1.361 . S
C150 H134 0.942 . S
C150 C149 1.361 . S
C150 C151 1.369 . S
C151 C150 1.369 . S
C151 C152 1.404 . S
C152 H135 0.940 . S
C152 C151 1.404 . S
C152 C153 1.389 . S
C153 H136 0.939 . S
C153 C148 1.400 . S
C153 C152 1.389 . S
C154 P128 1.819 . S
C154 C155 1.391 . S
C154 C159 1.391 . S
C155 H137 0.941 . S
C155 C154 1.391 . S
C155 C156 1.396 . S
C156 H140 0.939 . S
C156 C155 1.396 . S
C156 C157 1.397 . S
C157 C156 1.397 . S
C157 C158 1.385 . S
C158 H141 0.940 . S
C158 C157 1.385 . S
C158 C159 1.388 . S
C159 H138 0.939 . S
C159 C154 1.391 . S
C159 C158 1.388 . S
P160 O171 1.490 . S
P160 C174 1.812 1_554 S
P160 C180 1.803 . S
P160 C186 1.819 . S
H161 C175 0.941 . S
H162 C176 0.939 . S
H163 C178 0.940 . S
H164 C179 0.944 1_554 S
H165 C181 0.939 . S
H166 C182 0.942 . S
H167 C184 0.940 . S
H168 C185 0.953 . S
H169 C187 0.941 . S
H170 C191 0.933 1_655 S
O171 P160 1.490 . S
H172 C188 0.939 . S
H173 C190 0.940 . S
C174 P160 1.812 1_556 S
C174 C175 1.389 . S
C174 C179 1.385 1_455 S
C175 H161 0.941 . S
C175 C174 1.389 . S
C175 C176 1.397 . S
C176 H162 0.939 . S
C176 C175 1.397 . S
C176 C177 1.378 . S
C177 C176 1.378 . S
C177 C178 1.378 1_455 S
C178 H163 0.940 . S
C178 C177 1.378 1_655 S
C178 C179 1.399 . S
C179 H164 0.944 1_556 S
C179 C174 1.385 1_655 S
C179 C178 1.399 . S
C180 P160 1.803 . S
C180 C181 1.378 . S
C180 C185 1.379 1_455 S
C181 H165 0.939 . S
C181 C180 1.378 . S
C181 C182 1.361 . S
C182 H166 0.942 . S
C182 C181 1.361 . S
C182 C183 1.369 . S
C183 C182 1.369 . S
C183 C184 1.404 1_455 S
C184 H167 0.940 . S
C184 C183 1.404 1_655 S
C184 C185 1.398 . S
C185 H168 0.953 . S
C185 C180 1.379 1_655 S
C185 C184 1.398 . S
C186 P160 1.819 . S
C186 C187 1.391 . S
C186 C191 1.391 . S
C187 H169 0.941 . S
C187 C186 1.391 . S
C187 C188 1.396 . S
C188 H172 0.939 . S
C188 C187 1.396 . S
C188 C189 1.397 . S
C189 C188 1.397 . S
C189 C190 1.385 1_455 S
C190 H173 0.940 . S
C190 C189 1.385 1_655 S
C190 C191 1.388 1_655 S
C191 H170 0.933 1_455 S
C191 C186 1.391 . S
C191 C190 1.388 1_455 S
P192 O203 1.490 . S
P192 C206 1.812 1_554 S
P192 C212 1.803 . S
P192 C218 1.819 . S
H193 C207 0.941 . S
H194 C208 0.939 . S
H195 C210 0.940 . S
H196 C211 0.944 1_554 S
H197 C213 0.939 . S
H198 C214 0.942 . S
H199 C216 0.940 . S
H200 C217 0.953 . S
H201 C219 0.941 . S
H202 C223 0.933 1_565 S
O203 P192 1.490 . S
H204 C220 0.939 . S
H205 C222 0.940 . S
C206 P192 1.812 1_556 S
C206 C207 1.389 . S
C206 C211 1.385 1_545 S
C207 H193 0.941 . S
C207 C206 1.389 . S
C207 C208 1.397 . S
C208 H194 0.939 . S
C208 C207 1.397 . S
C208 C209 1.378 . S
C209 C208 1.378 . S
C209 C210 1.378 1_545 S
C210 H195 0.940 . S
C210 C209 1.378 1_565 S
C210 C211 1.399 . S
C211 H196 0.944 1_556 S
C211 C206 1.385 1_565 S
C211 C210 1.399 . S
C212 P192 1.803 . S
C212 C213 1.378 . S
C212 C217 1.379 1_545 S
C213 H197 0.939 . S
C213 C212 1.378 . S
C213 C214 1.361 . S
C214 H198 0.942 . S
C214 C213 1.361 . S
C214 C215 1.369 . S
C215 C214 1.369 . S
C215 C216 1.404 1_545 S
C216 H199 0.940 . S
C216 C215 1.404 1_565 S
C216 C217 1.398 . S
C217 H200 0.953 . S
C217 C212 1.379 1_565 S
C217 C216 1.398 . S
C218 P192 1.819 . S
C218 C219 1.391 . S
C218 C223 1.391 . S
C219 H201 0.941 . S
C219 C218 1.391 . S
C219 C220 1.396 . S
C220 H204 0.939 . S
C220 C219 1.396 . S
C220 C221 1.397 . S
C221 C220 1.397 . S
C221 C222 1.385 1_545 S
C222 H205 0.940 . S
C222 C221 1.385 1_565 S
C222 C223 1.388 1_565 S
C223 H202 0.933 1_545 S
C223 C218 1.391 . S
C223 C222 1.388 1_545 S
P224 O235 1.490 . S
P224 C238 1.812 1_554 S
P224 C244 1.803 . S
P224 C250 1.819 . S
H225 C239 0.941 . S
H226 C240 0.939 . S
H227 C242 0.940 . S
H228 C243 0.940 1_554 S
H229 C245 0.939 . S
H230 C246 0.942 . S
H231 C248 0.940 . S
H232 C249 0.939 . S
H233 C251 0.941 . S
H234 C255 0.939 . S
O235 P224 1.490 . S
H236 C252 0.939 . S
H237 C254 0.940 . S
C238 P224 1.812 1_556 S
C238 C239 1.389 . S
C238 C243 1.391 . S
C239 H225 0.941 . S
C239 C238 1.389 . S
C239 C240 1.397 . S
C240 H226 0.939 . S
C240 C239 1.397 . S
C240 C241 1.378 . S
C241 C240 1.378 . S
C241 C242 1.378 . S
C242 H227 0.940 . S
C242 C241 1.378 . S
C242 C243 1.396 . S
C243 H228 0.940 1_556 S
C243 C238 1.391 . S
C243 C242 1.396 . S
C244 P224 1.803 . S
C244 C245 1.378 . S
C244 C249 1.400 . S
C245 H229 0.939 . S
C245 C244 1.378 . S
C245 C246 1.361 . S
C246 H230 0.942 . S
C246 C245 1.361 . S
C246 C247 1.369 . S
C247 C246 1.369 . S
C247 C248 1.404 . S
C248 H231 0.940 . S
C248 C247 1.404 . S
C248 C249 1.389 . S
C249 H232 0.939 . S
C249 C244 1.400 . S
C249 C248 1.389 . S
C250 P224 1.819 . S
C250 C251 1.391 . S
C250 C255 1.391 . S
C251 H233 0.941 . S
C251 C250 1.391 . S
C251 C252 1.396 . S
C252 H236 0.939 . S
C252 C251 1.396 . S
C252 C253 1.397 . S
C253 C252 1.397 . S
C253 C254 1.385 . S
C254 H237 0.940 . S
C254 C253 1.385 . S
C254 C255 1.388 . S
C255 H234 0.939 . S
C255 C250 1.391 . S
C255 C254 1.388 . S
Tb256 C266 2.825 . S
Tb256 O267 2.347 1_455 S
Tb256 O270 2.366 . S
Tb256 O275 2.418 . S
Tb256 O276 2.384 1_565 S
Tb256 O279 2.479 . S
Tb256 O280 2.471 . S
Eu257 O268 2.418 . S
Eu257 O269 2.384 1_545 S
Eu257 O272 2.479 . S
Eu257 O273 2.471 . S
Eu257 O274 2.347 1_655 S
Eu257 O277 2.366 . S
Eu257 C287 2.825 . S
C258 O274 1.259 1_565 S
C258 O275 1.265 . S
C259 O276 1.255 . S
C259 O277 1.265 1_455 S
C260 C262 1.380 . S
C260 C263 1.374 . S
C260 C266 1.507 . S
C261 C262 1.384 . S
C261 C265 1.387 . S
C261 H288 0.930 . S
C262 C260 1.380 . S
C262 C261 1.384 . S
C262 H289 0.931 . S
C263 C260 1.374 . S
C263 C264 1.390 . S
C263 H290 0.930 1_455 S
C264 C263 1.390 . S
C264 C265 1.391 . S
C264 H291 0.930 1_455 S
C265 C261 1.387 . S
C265 C264 1.391 . S
C266 Tb256 2.825 . S
C266 C260 1.507 . S
C266 O279 1.238 . S
C266 O280 1.247 . S
O267 Tb256 2.347 1_655 S
O267 C271 1.259 1_565 S
O268 Eu257 2.418 . S
O268 C271 1.265 . S
O269 Eu257 2.384 1_565 S
O269 C278 1.255 . S
O270 Tb256 2.366 . S
O270 C278 1.265 1_455 S
C271 O267 1.259 1_545 S
C271 O268 1.265 . S
O272 Eu257 2.479 . S
O272 C287 1.238 . S
O273 Eu257 2.471 . S
O273 C287 1.247 . S
O274 Eu257 2.347 1_455 S
O274 C258 1.259 1_545 S
O275 Tb256 2.418 . S
O275 C258 1.265 . S
O276 Tb256 2.384 1_545 S
O276 C259 1.255 . S
O277 Eu257 2.366 . S
O277 C259 1.265 1_655 S
C278 O269 1.255 . S
C278 O270 1.265 1_655 S
O279 Tb256 2.479 . S
O279 C266 1.238 . S
O280 Tb256 2.471 . S
O280 C266 1.247 . S
C281 C284 1.380 . S
C281 C285 1.374 . S
C281 C287 1.507 . S
C282 C283 1.387 . S
C282 C286 1.391 . S
C283 C282 1.387 . S
C283 C284 1.384 . S
C283 H292 0.930 . S
C284 C281 1.380 . S
C284 C283 1.384 . S
C284 H293 0.931 . S
C285 C281 1.374 . S
C285 C286 1.390 . S
C285 H294 0.930 1_655 S
C286 C282 1.391 . S
C286 C285 1.390 . S
C286 H295 0.930 1_655 S
C287 Eu257 2.825 . S
C287 O272 1.238 . S
C287 O273 1.247 . S
C287 C281 1.507 . S
H288 C261 0.930 . S
H289 C262 0.931 . S
H290 C263 0.930 1_655 S
H291 C264 0.930 1_655 S
H292 C283 0.930 . S
H293 C284 0.931 . S
H294 C285 0.930 1_455 S
H295 C286 0.930 1_455 S
Tb296 C306 2.825 . S
Tb296 O307 2.347 1_545 S
Tb296 O310 2.366 . S
Tb296 O315 2.418 . S
Tb296 O316 2.384 . S
Tb296 O319 2.479 . S
Tb296 O320 2.471 . S
Eu297 O308 2.418 . S
Eu297 O309 2.384 . S
Eu297 O312 2.479 . S
Eu297 O313 2.471 . S
Eu297 O314 2.347 1_565 S
Eu297 O317 2.366 . S
Eu297 C327 2.825 . S
C298 O314 1.259 . S
C298 O315 1.265 . S
C299 O316 1.255 . S
C299 O317 1.265 1_545 S
C300 C302 1.380 . S
C300 C303 1.374 . S
C300 C306 1.507 . S
C301 C302 1.384 . S
C301 C305 1.387 . S
C301 H328 0.930 . S
C302 C300 1.380 . S
C302 C301 1.384 . S
C302 H329 0.931 . S
C303 C300 1.374 . S
C303 C304 1.390 . S
C303 H330 0.930 1_545 S
C304 C303 1.390 . S
C304 C305 1.391 . S
C304 H331 0.930 1_545 S
C305 C301 1.387 . S
C305 C304 1.391 . S
C306 Tb296 2.825 . S
C306 C300 1.507 . S
C306 O319 1.238 . S
C306 O320 1.247 . S
O307 Tb296 2.347 1_565 S
O307 C311 1.259 . S
O308 Eu297 2.418 . S
O308 C311 1.265 . S
O309 Eu297 2.384 . S
O309 C318 1.255 . S
O310 Tb296 2.366 . S
O310 C318 1.265 1_545 S
C311 O307 1.259 . S
C311 O308 1.265 . S
O312 Eu297 2.479 . S
O312 C327 1.238 . S
O313 Eu297 2.471 . S
O313 C327 1.247 . S
O314 Eu297 2.347 1_545 S
O314 C298 1.259 . S
O315 Tb296 2.418 . S
O315 C298 1.265 . S
O316 Tb296 2.384 . S
O316 C299 1.255 . S
O317 Eu297 2.366 . S
O317 C299 1.265 1_565 S
C318 O309 1.255 . S
C318 O310 1.265 1_565 S
O319 Tb296 2.479 . S
O319 C306 1.238 . S
O320 Tb296 2.471 . S
O320 C306 1.247 . S
C321 C324 1.380 . S
C321 C325 1.374 . S
C321 C327 1.507 . S
C322 C323 1.387 . S
C322 C326 1.391 . S
C323 C322 1.387 . S
C323 C324 1.384 . S
C323 H332 0.930 . S
C324 C321 1.380 . S
C324 C323 1.384 . S
C324 H333 0.931 . S
C325 C321 1.374 . S
C325 C326 1.390 . S
C325 H334 0.930 1_565 S
C326 C322 1.391 . S
C326 C325 1.390 . S
C326 H335 0.930 1_565 S
C327 Eu297 2.825 . S
C327 O312 1.238 . S
C327 O313 1.247 . S
C327 C321 1.507 . S
H328 C301 0.930 . S
H329 C302 0.931 . S
H330 C303 0.930 1_565 S
H331 C304 0.930 1_565 S
H332 C323 0.930 . S
H333 C324 0.931 . S
H334 C325 0.930 1_545 S
H335 C326 0.930 1_545 S
Tb336 C346 2.825 . S
Tb336 O347 2.347 . S
Tb336 O350 2.366 . S
Tb336 O355 2.418 . S
Tb336 O356 2.384 . S
Tb336 O359 2.479 . S
Tb336 O360 2.471 . S
Eu337 O348 2.418 . S
Eu337 O349 2.384 . S
Eu337 O352 2.479 . S
Eu337 O353 2.471 . S
Eu337 O354 2.347 . S
Eu337 O357 2.366 . S
Eu337 C367 2.825 . S
C338 O354 1.259 . S
C338 O355 1.265 . S
C339 O356 1.255 . S
C339 O357 1.265 . S
C340 C342 1.380 . S
C340 C343 1.374 . S
C340 C346 1.507 . S
C341 C342 1.384 . S
C341 C345 1.387 . S
C341 H368 0.930 . S
C342 C340 1.380 . S
C342 C341 1.384 . S
C342 H369 0.931 . S
C343 C340 1.374 . S
C343 C344 1.390 . S
C343 H370 0.930 . S
C344 C343 1.390 . S
C344 C345 1.391 . S
C344 H371 0.930 . S
C345 C341 1.387 . S
C345 C344 1.391 . S
C346 Tb336 2.825 . S
C346 C340 1.507 . S
C346 O359 1.238 . S
C346 O360 1.247 . S
O347 Tb336 2.347 . S
O347 C351 1.259 . S
O348 Eu337 2.418 . S
O348 C351 1.265 . S
O349 Eu337 2.384 . S
O349 C358 1.255 . S
O350 Tb336 2.366 . S
O350 C358 1.265 . S
C351 O347 1.259 . S
C351 O348 1.265 . S
O352 Eu337 2.479 . S
O352 C367 1.238 . S
O353 Eu337 2.471 . S
O353 C367 1.247 . S
O354 Eu337 2.347 . S
O354 C338 1.259 . S
O355 Tb336 2.418 . S
O355 C338 1.265 . S
O356 Tb336 2.384 . S
O356 C339 1.255 . S
O357 Eu337 2.366 . S
O357 C339 1.265 . S
C358 O349 1.255 . S
C358 O350 1.265 . S
O359 Tb336 2.479 . S
O359 C346 1.238 . S
O360 Tb336 2.471 . S
O360 C346 1.247 . S
C361 C364 1.380 . S
C361 C365 1.374 . S
C361 C367 1.507 . S
C362 C363 1.387 . S
C362 C366 1.391 . S
C363 C362 1.387 . S
C363 C364 1.384 . S
C363 H372 0.930 . S
C364 C361 1.380 . S
C364 C363 1.384 . S
C364 H373 0.931 . S
C365 C361 1.374 . S
C365 C366 1.390 . S
C365 H374 0.930 . S
C366 C362 1.391 . S
C366 C365 1.390 . S
C366 H375 0.930 . S
C367 Eu337 2.825 . S
C367 O352 1.238 . S
C367 O353 1.247 . S
C367 C361 1.507 . S
H368 C341 0.930 . S
H369 C342 0.931 . S
H370 C343 0.930 . S
H371 C344 0.930 . S
H372 C363 0.930 . S
H373 C364 0.931 . S
H374 C365 0.930 . S
H375 C366 0.930 . S
Tb376 C386 2.825 . S
Tb376 O387 2.347 . S
Tb376 O390 2.366 . S
Tb376 O395 2.418 . S
Tb376 O396 2.384 1_655 S
Tb376 O399 2.479 . S
Tb376 O400 2.471 . S
Eu377 O388 2.418 . S
Eu377 O389 2.384 1_455 S
Eu377 O392 2.479 . S
Eu377 O393 2.471 . S
Eu377 O394 2.347 . S
Eu377 O397 2.366 . S
Eu377 C407 2.825 . S
C378 O394 1.259 1_655 S
C378 O395 1.265 . S
C379 O396 1.255 . S
C379 O397 1.265 . S
C380 C382 1.380 . S
C380 C383 1.374 . S
C380 C386 1.507 . S
C381 C382 1.384 . S
C381 C385 1.387 . S
C381 H408 0.930 . S
C382 C380 1.380 . S
C382 C381 1.384 . S
C382 H409 0.931 . S
C383 C380 1.374 . S
C383 C384 1.390 . S
C383 H410 0.930 . S
C384 C383 1.390 . S
C384 C385 1.391 . S
C384 H411 0.930 . S
C385 C381 1.387 . S
C385 C384 1.391 . S
C386 Tb376 2.825 . S
C386 C380 1.507 . S
C386 O399 1.238 . S
C386 O400 1.247 . S
O387 Tb376 2.347 . S
O387 C391 1.259 1_655 S
O388 Eu377 2.418 . S
O388 C391 1.265 . S
O389 Eu377 2.384 1_655 S
O389 C398 1.255 . S
O390 Tb376 2.366 . S
O390 C398 1.265 . S
C391 O387 1.259 1_455 S
C391 O388 1.265 . S
O392 Eu377 2.479 . S
O392 C407 1.238 . S
O393 Eu377 2.471 . S
O393 C407 1.247 . S
O394 Eu377 2.347 . S
O394 C378 1.259 1_455 S
O395 Tb376 2.418 . S
O395 C378 1.265 . S
O396 Tb376 2.384 1_455 S
O396 C379 1.255 . S
O397 Eu377 2.366 . S
O397 C379 1.265 . S
C398 O389 1.255 . S
C398 O390 1.265 . S
O399 Tb376 2.479 . S
O399 C386 1.238 . S
O400 Tb376 2.471 . S
O400 C386 1.247 . S
C401 C404 1.380 . S
C401 C405 1.374 . S
C401 C407 1.507 . S
C402 C403 1.387 . S
C402 C406 1.391 . S
C403 C402 1.387 . S
C403 C404 1.384 . S
C403 H412 0.930 . S
C404 C401 1.380 . S
C404 C403 1.384 . S
C404 H413 0.931 . S
C405 C401 1.374 . S
C405 C406 1.390 . S
C405 H414 0.930 . S
C406 C402 1.391 . S
C406 C405 1.390 . S
C406 H415 0.930 . S
C407 Eu377 2.825 . S
C407 O392 1.238 . S
C407 O393 1.247 . S
C407 C401 1.507 . S
H408 C381 0.930 . S
H409 C382 0.931 . S
H410 C383 0.930 . S
H411 C384 0.930 . S
H412 C403 0.930 . S
H413 C404 0.931 . S
H414 C405 0.930 . S
H415 C406 0.930 . S
H416 C422 0.930 . S
H417 C426 0.930 . S
H418 C431 0.929 . S
H419 C429 0.929 . S
H420 C424 0.929 . S
H421 C430 0.929 . S
C422 H416 0.930 . S
C422 C423 1.378 . S
C422 C430 1.378 . S
C423 C422 1.378 . S
C423 C431 1.421 1_565 S
C424 H420 0.929 . S
C424 C426 1.378 . S
C424 C428 1.350 . S
C425 C428 1.461 1_565 S
C425 C430 1.367 . S
C425 N433 1.410 1_565 S
C426 H417 0.930 . S
C426 C424 1.378 . S
C426 C427 1.408 . S
C427 C426 1.408 . S
C427 C429 1.391 1_545 S
C428 C424 1.350 . S
C428 C425 1.461 1_545 S
C428 N432 1.427 1_545 S
C429 H419 0.929 . S
C429 C427 1.391 1_565 S
C429 N432 1.384 . S
C430 H421 0.929 . S
C430 C422 1.378 . S
C430 C425 1.367 . S
C431 H418 0.929 . S
C431 C423 1.421 1_545 S
C431 N433 1.384 . S
N432 C428 1.427 1_565 S
N432 C429 1.384 . S
N433 C425 1.410 1_545 S
N433 C431 1.384 . S
H434 C440 0.930 . S
H435 C444 0.930 . S
H436 C449 0.929 . S
H437 C447 0.929 . S
H438 C442 0.929 . S
H439 C448 0.929 . S
C440 H434 0.930 . S
C440 C441 1.367 . S
C440 C448 1.378 . S
C441 C440 1.367 . S
C441 C449 1.433 . S
C442 H438 0.929 . S
C442 C444 1.378 . S
C442 C446 1.350 . S
C443 C446 1.463 . S
C443 C448 1.350 . S
C443 N451 1.427 . S
C444 H435 0.930 . S
C444 C442 1.378 . S
C444 C445 1.367 . S
C445 C444 1.367 . S
C445 C447 1.433 . S
C446 C442 1.350 . S
C446 C443 1.463 . S
C446 N450 1.427 . S
C447 H437 0.929 . S
C447 C445 1.433 . S
C447 N450 1.384 . S
C448 H439 0.929 . S
C448 C440 1.378 . S
C448 C443 1.350 . S
C449 H436 0.929 . S
C449 C441 1.433 . S
C449 N451 1.384 . S
N450 C446 1.427 . S
N450 C447 1.384 . S
N451 C443 1.427 . S
N451 C449 1.384 . S
H452 C458 0.930 . S
H453 C462 0.930 . S
H454 C467 0.929 . S
H455 C465 0.929 . S
H456 C460 0.929 . S
H457 C466 0.929 . S
C458 H452 0.930 . S
C458 C459 1.367 . S
C458 C466 1.378 . S
C459 C458 1.367 . S
C459 C467 1.433 . S
C460 H456 0.929 . S
C460 C462 1.378 . S
C460 C464 1.350 . S
C461 C464 1.463 . S
C461 C466 1.350 . S
C461 N469 1.427 . S
C462 H453 0.930 . S
C462 C460 1.378 . S
C462 C463 1.367 . S
C463 C462 1.367 . S
C463 C465 1.433 . S
C464 C460 1.350 . S
C464 C461 1.463 . S
C464 N468 1.427 . S
C465 H455 0.929 . S
C465 C463 1.433 . S
C465 N468 1.384 . S
C466 H457 0.929 . S
C466 C458 1.378 . S
C466 C461 1.350 . S
C467 H454 0.929 . S
C467 C459 1.433 . S
C467 N469 1.384 . S
N468 C464 1.427 . S
N468 C465 1.384 . S
N469 C461 1.427 . S
N469 C467 1.384 . S
H470 C476 0.930 . S
H471 C480 0.930 . S
H472 C485 0.929 . S
H473 C483 0.929 . S
H474 C478 0.929 . S
H475 C484 0.929 . S
C476 H470 0.930 . S
C476 C477 1.389 . S
C476 C484 1.378 . S
C477 C476 1.389 . S
C477 C485 1.411 1_455 S
C478 H474 0.929 . S
C478 C480 1.378 . S
C478 C482 1.347 1_655 S
C479 C482 1.463 . S
C479 C484 1.350 . S
C479 N487 1.427 1_455 S
C480 H471 0.930 . S
C480 C478 1.378 . S
C480 C481 1.343 1_655 S
C481 C480 1.343 1_455 S
C481 C483 1.457 . S
C482 C478 1.347 1_455 S
C482 C479 1.463 . S
C482 N486 1.431 . S
C483 H473 0.929 . S
C483 C481 1.457 . S
C483 N486 1.384 . S
C484 H475 0.929 . S
C484 C476 1.378 . S
C484 C479 1.350 . S
C485 H472 0.929 . S
C485 C477 1.411 1_655 S
C485 N487 1.384 . S
N486 C482 1.431 . S
N486 C483 1.384 . S
N487 C479 1.427 1_655 S
N487 C485 1.384 . S
H488 C494 0.930 . S
H489 C498 0.930 . S
H490 C503 0.929 . S
H491 C501 0.929 . S
H492 C496 0.929 . S
H493 C502 0.929 . S
C494 H488 0.930 . S
C494 C495 1.384 . S
C494 C502 1.378 . S
C495 C494 1.384 . S
C495 C503 1.416 1_545 S
C496 H492 0.929 . S
C496 C498 1.378 . S
C496 C500 1.381 1_556 S
C497 C500 1.460 1_545 S
C497 C502 1.372 . S
C497 N505 1.406 1_545 S
C498 H489 0.930 . S
C498 C496 1.378 . S
C498 C499 1.393 . S
C499 C498 1.393 . S
C499 C501 1.407 1_565 S
C500 C496 1.381 1_554 S
C500 C497 1.460 1_565 S
C500 N504 1.399 1_565 S
C501 H491 0.929 . S
C501 C499 1.407 1_545 S
C501 N504 1.375 1_556 S
C502 H493 0.929 . S
C502 C494 1.378 . S
C502 C497 1.372 . S
C503 H490 0.929 . S
C503 C495 1.416 1_565 S
C503 N505 1.384 . S
N504 C500 1.399 1_545 S
N504 C501 1.375 1_554 S
N505 C497 1.406 1_565 S
N505 C503 1.384 . S
H506 C512 0.930 . S
H507 C516 0.930 . S
H508 C521 0.929 . S
H509 C519 0.929 . S
H510 C514 0.929 . S
H511 C520 0.929 . S
C512 H506 0.930 . S
C512 C513 1.367 . S
C512 C520 1.378 . S
C513 C512 1.367 . S
C513 C521 1.433 . S
C514 H510 0.929 . S
C514 C516 1.378 1_554 S
C514 C518 1.350 . S
C515 C518 1.463 . S
C515 C520 1.350 . S
C515 N523 1.427 . S
C516 H507 0.930 . S
C516 C514 1.378 1_556 S
C516 C517 1.367 . S
C517 C516 1.367 . S
C517 C519 1.433 . S
C518 C514 1.350 . S
C518 C515 1.463 . S
C518 N522 1.427 1_554 S
C519 H509 0.929 . S
C519 C517 1.433 . S
C519 N522 1.384 . S
C520 H511 0.929 . S
C520 C512 1.378 . S
C520 C515 1.350 . S
C521 H508 0.929 . S
C521 C513 1.433 . S
C521 N523 1.384 . S
N522 C518 1.427 1_556 S
N522 C519 1.384 . S
N523 C515 1.427 . S
N523 C521 1.384 . S
H524 C530 0.930 . S
H525 C534 0.930 . S
H526 C539 0.929 . S
H527 C537 0.929 . S
H528 C532 0.929 . S
H529 C538 0.929 . S
C530 H524 0.930 . S
C530 C531 1.367 . S
C530 C538 1.378 . S
C531 C530 1.367 . S
C531 C539 1.433 . S
C532 H528 0.929 . S
C532 C534 1.378 . S
C532 C536 1.350 1_556 S
C533 C536 1.463 . S
C533 C538 1.350 . S
C533 N541 1.427 . S
C534 H525 0.930 . S
C534 C532 1.378 . S
C534 C535 1.367 . S
C535 C534 1.367 . S
C535 C537 1.433 . S
C536 C532 1.350 1_554 S
C536 C533 1.463 . S
C536 N540 1.427 . S
C537 H527 0.929 . S
C537 C535 1.433 . S
C537 N540 1.384 1_556 S
C538 H529 0.929 . S
C538 C530 1.378 . S
C538 C533 1.350 . S
C539 H526 0.929 . S
C539 C531 1.433 . S
C539 N541 1.384 . S
N540 C536 1.427 . S
N540 C537 1.384 1_554 S
N541 C533 1.427 . S
N541 C539 1.384 . S
H542 C548 0.930 . S
H543 C552 0.930 . S
H544 C557 0.929 . S
H545 C555 0.929 . S
H546 C550 0.929 . S
H547 C556 0.929 . S
C548 H542 0.930 . S
C548 C549 1.376 . S
C548 C556 1.378 . S
C549 C548 1.376 . S
C549 C557 1.424 1_655 S
C550 H546 0.929 . S
C550 C552 1.378 . S
C550 C554 1.343 1_456 S
C551 C554 1.462 . S
C551 C556 1.369 . S
C551 N559 1.409 1_655 S
C552 H543 0.930 . S
C552 C550 1.378 . S
C552 C553 1.350 1_455 S
C553 C552 1.350 1_655 S
C553 C555 1.451 . S
C554 C550 1.343 1_654 S
C554 C551 1.462 . S
C554 N558 1.435 . S
C555 H545 0.929 . S
C555 C553 1.451 . S
C555 N558 1.384 1_556 S
C556 H547 0.929 . S
C556 C548 1.378 . S
C556 C551 1.369 . S
C557 H544 0.929 . S
C557 C549 1.424 1_455 S
C557 N559 1.384 . S
N558 C554 1.435 . S
N558 C555 1.384 1_554 S
N559 C551 1.409 1_455 S
N559 C557 1.384 . S
H560 C566 0.930 . S
H561 C570 0.930 . S
H562 C575 0.929 . S
H563 C573 0.929 . S
H564 C568 0.929 . S
H565 C574 0.929 . S
C566 H560 0.930 . S
C566 C567 1.367 1_655 S
C566 C574 1.378 . S
C567 C566 1.367 1_455 S
C567 C575 1.433 . S
C568 H564 0.929 . S
C568 C570 1.378 . S
C568 C572 1.350 . S
C569 C572 1.463 . S
C569 C574 1.350 . S
C569 N577 1.427 1_655 S
C570 H561 0.930 . S
C570 C568 1.378 . S
C570 C571 1.367 . S
C571 C570 1.367 . S
C571 C573 1.433 . S
C572 C568 1.350 . S
C572 C569 1.463 . S
C572 N576 1.427 . S
C573 H563 0.929 . S
C573 C571 1.433 . S
C573 N576 1.384 . S
C574 H565 0.929 . S
C574 C566 1.378 . S
C574 C569 1.350 . S
C575 H562 0.929 . S
C575 C567 1.433 . S
C575 N577 1.384 . S
N576 C572 1.427 . S
N576 C573 1.384 . S
N577 C569 1.427 1_455 S
N577 C575 1.384 . S
H578 C584 0.930 . S
H579 C588 0.930 . S
H580 C593 0.929 . S
H581 C591 0.929 . S
H582 C586 0.929 1_545 S
H583 C592 0.929 . S
C584 H578 0.930 . S
C584 C585 1.367 1_565 S
C584 C592 1.378 . S
C585 C584 1.367 1_545 S
C585 C593 1.433 . S
C586 H582 0.929 1_565 S
C586 C588 1.378 . S
C586 C590 1.350 . S
C587 C590 1.463 . S
C587 C592 1.350 . S
C587 N595 1.427 1_565 S
C588 H579 0.930 . S
C588 C586 1.378 . S
C588 C589 1.367 . S
C589 C588 1.367 . S
C589 C591 1.433 . S
C590 C586 1.350 . S
C590 C587 1.463 . S
C590 N594 1.427 . S
C591 H581 0.929 . S
C591 C589 1.433 . S
C591 N594 1.384 . S
C592 H583 0.929 . S
C592 C584 1.378 . S
C592 C587 1.350 . S
C593 H580 0.929 . S
C593 C585 1.433 . S
C593 N595 1.384 . S
N594 C590 1.427 . S
N594 C591 1.384 . S
N595 C587 1.427 1_545 S
N595 C593 1.384 . S
H596 C602 0.930 . S
H597 C606 0.930 . S
H598 C611 0.929 . S
H599 C609 0.929 . S
H600 C604 0.929 . S
H601 C610 0.929 . S
C602 H596 0.930 . S
C602 C603 1.367 . S
C602 C610 1.378 . S
C603 C602 1.367 . S
C603 C611 1.433 . S
C604 H600 0.929 . S
C604 C606 1.378 . S
C604 C608 1.350 . S
C605 C608 1.463 . S
C605 C610 1.350 . S
C605 N613 1.427 . S
C606 H597 0.930 . S
C606 C604 1.378 . S
C606 C607 1.367 . S
C607 C606 1.367 . S
C607 C609 1.433 . S
C608 C604 1.350 . S
C608 C605 1.463 . S
C608 N612 1.427 . S
C609 H599 0.929 . S
C609 C607 1.433 . S
C609 N612 1.384 . S
C610 H601 0.929 . S
C610 C602 1.378 . S
C610 C605 1.350 . S
C611 H598 0.929 . S
C611 C603 1.433 . S
C611 N613 1.384 . S
N612 C608 1.427 . S
N612 C609 1.384 . S
N613 C605 1.427 . S
N613 C611 1.384 . S
H614 C620 0.930 . S
H615 C624 0.930 . S
H616 C629 0.929 . S
H617 C627 0.929 . S
H618 C622 0.929 . S
H619 C628 0.929 . S
C620 H614 0.930 . S
C620 C621 1.367 . S
C620 C628 1.378 . S
C621 C620 1.367 . S
C621 C629 1.433 . S
C622 H618 0.929 . S
C622 C624 1.378 . S
C622 C626 1.350 . S
C623 C626 1.463 . S
C623 C628 1.350 . S
C623 N631 1.427 . S
C624 H615 0.930 . S
C624 C622 1.378 . S
C624 C625 1.367 . S
C625 C624 1.367 . S
C625 C627 1.433 . S
C626 C622 1.350 . S
C626 C623 1.463 . S
C626 N630 1.427 . S
C627 H617 0.929 . S
C627 C625 1.433 . S
C627 N630 1.384 . S
C628 H619 0.929 . S
C628 C620 1.378 . S
C628 C623 1.350 . S
C629 H616 0.929 . S
C629 C621 1.433 . S
C629 N631 1.384 . S
N630 C626 1.427 . S
N630 C627 1.384 . S
N631 C623 1.427 . S
N631 C629 1.384 . S
H632 C638 0.930 . S
H633 C642 0.930 . S
H634 C647 0.929 . S
H635 C645 0.929 . S
H636 C640 0.929 . S
H637 C646 0.929 . S
C638 H632 0.930 . S
C638 C639 1.367 . S
C638 C646 1.378 . S
C639 C638 1.367 . S
C639 C647 1.433 1_655 S
C640 H636 0.929 . S
C640 C642 1.378 . S
C640 C644 1.350 . S
C641 C644 1.463 . S
C641 C646 1.350 1_455 S
C641 N649 1.427 . S
C642 H633 0.930 . S
C642 C640 1.378 . S
C642 C643 1.367 1_554 S
C643 C642 1.367 1_556 S
C643 C645 1.433 . S
C644 C640 1.350 . S
C644 C641 1.463 . S
C644 N648 1.427 1_554 S
C645 H635 0.929 . S
C645 C643 1.433 . S
C645 N648 1.384 . S
C646 H637 0.929 . S
C646 C638 1.378 . S
C646 C641 1.350 1_655 S
C647 H634 0.929 . S
C647 C639 1.433 1_455 S
C647 N649 1.384 . S
N648 C644 1.427 1_556 S
N648 C645 1.384 . S
N649 C641 1.427 . S
N649 C647 1.384 . S
H650 C656 0.930 . S
H651 C660 0.930 . S
H652 C665 0.929 . S
H653 C663 0.929 1_565 S
H654 C658 0.929 . S
H655 C664 0.929 . S
C656 H650 0.930 . S
C656 C657 1.367 . S
C656 C664 1.378 . S
C657 C656 1.367 . S
C657 C665 1.433 1_565 S
C658 H654 0.929 . S
C658 C660 1.378 . S
C658 C662 1.350 . S
C659 C662 1.463 . S
C659 C664 1.350 1_545 S
C659 N667 1.427 . S
C660 H651 0.930 . S
C660 C658 1.378 . S
C660 C661 1.367 1_554 S
C661 C660 1.367 1_556 S
C661 C663 1.433 . S
C662 C658 1.350 . S
C662 C659 1.463 . S
C662 N666 1.427 . S
C663 H653 0.929 1_545 S
C663 C661 1.433 . S
C663 N666 1.384 1_556 S
C664 H655 0.929 . S
C664 C656 1.378 . S
C664 C659 1.350 1_565 S
C665 H652 0.929 . S
C665 C657 1.433 1_545 S
C665 N667 1.384 . S
N666 C662 1.427 . S
N666 C663 1.384 1_554 S
N667 C659 1.427 . S
N667 C665 1.384 . S
H668 C674 0.930 . S
H669 C678 0.930 1_556 S
H670 C683 0.929 . S
H671 C681 0.929 1_556 S
H672 C676 0.929 . S
H673 C682 0.929 . S
C674 H668 0.930 . S
C674 C675 1.367 . S
C674 C682 1.378 . S
C675 C674 1.367 . S
C675 C683 1.433 . S
C676 H672 0.929 . S
C676 C678 1.378 . S
C676 C680 1.350 . S
C677 C680 1.463 . S
C677 C682 1.350 . S
C677 N685 1.427 . S
C678 H669 0.930 1_554 S
C678 C676 1.378 . S
C678 C679 1.367 1_554 S
C679 C678 1.367 1_556 S
C679 C681 1.433 1_556 S
C680 C676 1.350 . S
C680 C677 1.463 . S
C680 N684 1.427 . S
C681 H671 0.929 1_554 S
C681 C679 1.433 1_554 S
C681 N684 1.384 . S
C682 H673 0.929 . S
C682 C674 1.378 . S
C682 C677 1.350 . S
C683 H670 0.929 . S
C683 C675 1.433 . S
C683 N685 1.384 . S
N684 C680 1.427 . S
N684 C681 1.384 . S
N685 C677 1.427 . S
N685 C683 1.384 . S
H686 C692 0.930 . S
H687 C696 0.930 . S
H688 C701 0.929 . S
H689 C699 0.929 . S
H690 C694 0.929 . S
H691 C700 0.929 . S
C692 H686 0.930 . S
C692 C693 1.367 . S
C692 C700 1.378 . S
C693 C692 1.367 . S
C693 C701 1.433 . S
C694 H690 0.929 . S
C694 C696 1.378 1_554 S
C694 C698 1.350 . S
C695 C698 1.463 . S
C695 C700 1.350 . S
C695 N703 1.427 . S
C696 H687 0.930 . S
C696 C694 1.378 1_556 S
C696 C697 1.367 . S
C697 C696 1.367 . S
C697 C699 1.433 1_556 S
C698 C694 1.350 . S
C698 C695 1.463 . S
C698 N702 1.427 . S
C699 H689 0.929 . S
C699 C697 1.433 1_554 S
C699 N702 1.384 . S
C700 H691 0.929 . S
C700 C692 1.378 . S
C700 C695 1.350 . S
C701 H688 0.929 . S
C701 C693 1.433 . S
C701 N703 1.384 . S
N702 C698 1.427 . S
N702 C699 1.384 . S
N703 C695 1.427 . S
N703 C701 1.384 . S
H704 C710 0.930 . S
H705 C714 0.930 . S
H706 C719 0.929 . S
H707 C717 0.929 . S
H708 C712 0.929 . S
H709 C718 0.929 . S
C710 H704 0.930 . S
C710 C711 1.367 . S
C710 C718 1.378 . S
C711 C710 1.367 . S
C711 C719 1.433 1_455 S
C712 H708 0.929 . S
C712 C714 1.378 . S
C712 C716 1.350 1_655 S
C713 C716 1.463 . S
C713 C718 1.350 . S
C713 N721 1.427 1_455 S
C714 H705 0.930 . S
C714 C712 1.378 . S
C714 C715 1.367 1_655 S
C715 C714 1.367 1_455 S
C715 C717 1.433 . S
C716 C712 1.350 1_455 S
C716 C713 1.463 . S
C716 N720 1.427 . S
C717 H707 0.929 . S
C717 C715 1.433 . S
C717 N720 1.384 . S
C718 H709 0.929 . S
C718 C710 1.378 . S
C718 C713 1.350 . S
C719 H706 0.929 . S
C719 C711 1.433 1_655 S
C719 N721 1.384 . S
N720 C716 1.427 . S
N720 C717 1.384 . S
N721 C713 1.427 1_655 S
N721 C719 1.384 . S
H722 C728 0.930 . S
H723 C732 0.930 . S
H724 C737 0.929 . S
H725 C735 0.929 . S
H726 C730 0.929 . S
H727 C736 0.929 . S
C728 H722 0.930 . S
C728 C729 1.367 1_565 S
C728 C736 1.378 . S
C729 C728 1.367 1_545 S
C729 C737 1.433 . S
C730 H726 0.929 . S
C730 C732 1.378 . S
C730 C734 1.350 . S
C731 C734 1.463 . S
C731 C736 1.350 1_545 S
C731 N739 1.427 . S
C732 H723 0.930 . S
C732 C730 1.378 . S
C732 C733 1.367 . S
C733 C732 1.367 . S
C733 C735 1.433 1_545 S
C734 C730 1.350 . S
C734 C731 1.463 . S
C734 N738 1.427 1_545 S
C735 H725 0.929 . S
C735 C733 1.433 1_565 S
C735 N738 1.384 . S
C736 H727 0.929 . S
C736 C728 1.378 . S
C736 C731 1.350 1_565 S
C737 H724 0.929 . S
C737 C729 1.433 . S
C737 N739 1.384 . S
N738 C734 1.427 1_565 S
N738 C735 1.384 . S
N739 C731 1.427 . S
N739 C737 1.384 . S
H740 C746 0.930 . S
H741 C750 0.930 . S
H742 C755 0.929 . S
H743 C753 0.929 . S
H744 C748 0.929 . S
H745 C754 0.929 . S
C746 H740 0.930 . S
C746 C747 1.367 . S
C746 C754 1.378 . S
C747 C746 1.367 . S
C747 C755 1.433 . S
C748 H744 0.929 . S
C748 C750 1.378 . S
C748 C752 1.350 . S
C749 C752 1.463 . S
C749 C754 1.350 . S
C749 N757 1.427 . S
C750 H741 0.930 . S
C750 C748 1.378 . S
C750 C751 1.367 . S
C751 C750 1.367 . S
C751 C753 1.433 . S
C752 C748 1.350 . S
C752 C749 1.463 . S
C752 N756 1.427 . S
C753 H743 0.929 . S
C753 C751 1.433 . S
C753 N756 1.384 . S
C754 H745 0.929 . S
C754 C746 1.378 . S
C754 C749 1.350 . S
C755 H742 0.929 . S
C755 C747 1.433 . S
C755 N757 1.384 . S
N756 C752 1.427 . S
N756 C753 1.384 . S
N757 C749 1.427 . S
N757 C755 1.384 . S
H758 C764 0.930 . S
H759 C768 0.930 . S
H760 C773 0.929 . S
H761 C771 0.929 . S
H762 C766 0.929 . S
H763 C772 0.929 . S
C764 H758 0.930 . S
C764 C765 1.367 . S
C764 C772 1.378 . S
C765 C764 1.367 . S
C765 C773 1.433 . S
C766 H762 0.929 . S
C766 C768 1.378 . S
C766 C770 1.350 . S
C767 C770 1.463 . S
C767 C772 1.350 . S
C767 N775 1.427 . S
C768 H759 0.930 . S
C768 C766 1.378 . S
C768 C769 1.367 . S
C769 C768 1.367 . S
C769 C771 1.433 . S
C770 C766 1.350 . S
C770 C767 1.463 . S
C770 N774 1.427 . S
C771 H761 0.929 . S
C771 C769 1.433 . S
C771 N774 1.384 . S
C772 H763 0.929 . S
C772 C764 1.378 . S
C772 C767 1.350 . S
C773 H760 0.929 . S
C773 C765 1.433 . S
C773 N775 1.384 . S
N774 C770 1.427 . S
N774 C771 1.384 . S
N775 C767 1.427 . S
N775 C773 1.384 . S
H776 C782 0.930 . S
H777 C786 0.930 . S
H778 C791 0.929 . S
H779 C789 0.929 . S
H780 C784 0.929 . S
H781 C790 0.929 . S
C782 H776 0.930 . S
C782 C783 1.367 1_455 S
C782 C790 1.378 . S
C783 C782 1.367 1_655 S
C783 C791 1.433 . S
C784 H780 0.929 . S
C784 C786 1.378 . S
C784 C788 1.350 . S
C785 C788 1.463 . S
C785 C790 1.350 1_655 S
C785 N793 1.427 . S
C786 H777 0.930 . S
C786 C784 1.378 . S
C786 C787 1.367 . S
C787 C786 1.367 . S
C787 C789 1.433 1_655 S
C788 C784 1.350 . S
C788 C785 1.463 . S
C788 N792 1.427 1_655 S
C789 H779 0.929 . S
C789 C787 1.433 1_455 S
C789 N792 1.384 . S
C790 H781 0.929 . S
C790 C782 1.378 . S
C790 C785 1.350 1_455 S
C791 H778 0.929 . S
C791 C783 1.433 . S
C791 N793 1.384 . S
N792 C788 1.427 1_455 S
N792 C789 1.384 . S
N793 C785 1.427 . S
N793 C791 1.384 . S
H794 C800 0.930 . S
H795 C804 0.935 . S
H796 C809 0.929 . S
H797 C807 0.929 . S
H798 C802 0.929 1_545 S
H799 C808 0.929 . S
C800 H794 0.930 . S
C800 C801 1.367 . S
C800 C808 1.378 . S
C801 C800 1.367 . S
C801 C809 1.433 1_565 S
C802 H798 0.929 1_565 S
C802 C804 1.378 . S
C802 C806 1.350 . S
C803 C806 1.463 . S
C803 C808 1.350 . S
C803 N811 1.418 1_565 S
C804 H795 0.935 . S
C804 C802 1.378 . S
C804 C805 1.367 . S
C805 C804 1.367 . S
C805 C807 1.433 . S
C806 C802 1.350 . S
C806 C803 1.463 . S
C806 N810 1.427 . S
C807 H797 0.929 . S
C807 C805 1.433 . S
C807 N810 1.384 . S
C808 H799 0.929 . S
C808 C800 1.378 . S
C808 C803 1.350 . S
C809 H796 0.929 . S
C809 C801 1.433 1_545 S
C809 N811 1.387 . S
N810 C806 1.427 . S
N810 C807 1.384 . S
N811 C803 1.418 1_545 S
N811 C809 1.387 . S
H812 C818 0.930 . S
H813 C822 0.930 . S
H814 C827 0.929 . S
H815 C825 0.929 . S
H816 C820 0.929 . S
H817 C826 0.929 . S
C818 H812 0.930 . S
C818 C819 1.367 . S
C818 C826 1.378 . S
C819 C818 1.367 . S
C819 C827 1.433 . S
C820 H816 0.929 . S
C820 C822 1.378 . S
C820 C824 1.350 . S
C821 C824 1.463 . S
C821 C826 1.350 . S
C821 N829 1.427 . S
C822 H813 0.930 . S
C822 C820 1.378 . S
C822 C823 1.367 . S
C823 C822 1.367 . S
C823 C825 1.433 . S
C824 C820 1.350 . S
C824 C821 1.463 . S
C824 N828 1.427 . S
C825 H815 0.929 . S
C825 C823 1.433 . S
C825 N828 1.384 . S
C826 H817 0.929 . S
C826 C818 1.378 . S
C826 C821 1.350 . S
C827 H814 0.929 . S
C827 C819 1.433 . S
C827 N829 1.384 . S
N828 C824 1.427 . S
N828 C825 1.384 . S
N829 C821 1.427 . S
N829 C827 1.384 . S
H830 C836 0.930 . S
H831 C840 0.930 . S
H832 C845 0.929 . S
H833 C843 0.929 . S
H834 C838 0.929 . S
H835 C844 0.929 . S
C836 H830 0.930 . S
C836 C837 1.367 . S
C836 C844 1.378 . S
C837 C836 1.367 . S
C837 C845 1.433 . S
C838 H834 0.929 . S
C838 C840 1.378 . S
C838 C842 1.350 . S
C839 C842 1.463 . S
C839 C844 1.350 . S
C839 N847 1.427 . S
C840 H831 0.930 . S
C840 C838 1.378 . S
C840 C841 1.367 . S
C841 C840 1.367 . S
C841 C843 1.433 . S
C842 C838 1.350 . S
C842 C839 1.463 . S
C842 N846 1.427 . S
C843 H833 0.929 . S
C843 C841 1.433 . S
C843 N846 1.384 . S
C844 H835 0.929 . S
C844 C836 1.378 . S
C844 C839 1.350 . S
C845 H832 0.929 . S
C845 C837 1.433 . S
C845 N847 1.384 . S
N846 C842 1.427 . S
N846 C843 1.384 . S
N847 C839 1.427 . S
N847 C845 1.384 . S
C423 C215 2.030 1_565 S
C427 C258 2.193 1_545 S
C445 C298 2.209 . S
C441 C247 2.024 . S
C463 C338 2.215 . S
C459 C151 2.039 . S
C481 C378 2.198 1_455 S
C477 C183 2.030 . S
C499 C271 2.197 1_565 S
C495 C87 2.033 . S
C513 C119 2.043 . S
C517 C311 2.213 . S
C531 C23 2.064 . S
C535 C351 2.216 . S
C549 C55 2.040 1_655 S
C553 C391 2.201 1_655 S
C571 C282 0.407 . S
C567 C189 0.364 . S
C589 C322 0.405 . S
C585 C221 0.387 . S
C607 C362 0.411 . S
C603 C253 0.399 . S
C621 C157 0.388 . S
C625 C402 0.389 . S
C639 C61 0.543 1_655 S
C643 C265 0.415 . S
C661 C305 0.434 . S
C657 C93 0.543 1_565 S
C679 C345 0.430 . S
C675 C125 0.536 . S
C693 C29 0.485 . S
C697 C385 0.394 . S
C711 C177 2.512 . S
C715 C259 2.825 . S
C729 C209 2.486 . S
C733 C299 2.803 . S
C751 C339 2.788 . S
C747 C241 2.462 . S
C769 C379 2.816 . S
C765 C145 2.477 . S
C783 C49 2.537 1_655 S
C787 C278 2.839 . S
C805 C318 2.799 . S
C801 C81 2.495 1_565 S
C823 C358 2.790 . S
C819 C113 2.502 . S
C837 C17 2.523 . S
C841 C398 2.825 . S
