# Generated by pormake.
# Topology apo, (3,6)-cn, num edge types: 1
# Building blocks:
#     Node 0, Type 0, BuildingBlock: KAKCAD_clean_linker_0, # of connection points: 3
#     Node 1, Type 0, BuildingBlock: KAKCAD_clean_linker_0, # of connection points: 3
#     Node 2, Type 0, BuildingBlock: KAKCAD_clean_linker_0, # of connection points: 3
#     Node 3, Type 0, BuildingBlock: KAKCAD_clean_linker_0, # of connection points: 3
#     Node 4, Type 0, BuildingBlock: KAKCAD_clean_linker_0, # of connection points: 3
#     Node 5, Type 0, BuildingBlock: KAKCAD_clean_linker_0, # of connection points: 3
#     Node 6, Type 0, BuildingBlock: KAKCAD_clean_linker_0, # of connection points: 3
#     Node 7, Type 0, BuildingBlock: KAKCAD_clean_linker_0, # of connection points: 3
#     Node 8, Type 1, BuildingBlock: MIDCAF_clean_sbu_0, # of connection points: 6
#     Node 9, Type 1, BuildingBlock: MIDCAF_clean_sbu_0, # of connection points: 6
#     Node 10, Type 1, BuildingBlock: MIDCAF_clean_sbu_0, # of connection points: 6
#     Node 11, Type 1, BuildingBlock: MIDCAF_clean_sbu_0, # of connection points: 6
#     Edge 12, Type (0, 1), BuildingBlock: OJICUG_clean_linker_0, # of connection points: 2
#     Edge 13, Type (0, 1), BuildingBlock: OJICUG_clean_linker_0, # of connection points: 2
#     Edge 14, Type (0, 1), BuildingBlock: OJICUG_clean_linker_0, # of connection points: 2
#     Edge 15, Type (0, 1), BuildingBlock: OJICUG_clean_linker_0, # of connection points: 2
#     Edge 16, Type (0, 1), BuildingBlock: OJICUG_clean_linker_0, # of connection points: 2
#     Edge 17, Type (0, 1), BuildingBlock: OJICUG_clean_linker_0, # of connection points: 2
#     Edge 18, Type (0, 1), BuildingBlock: OJICUG_clean_linker_0, # of connection points: 2
#     Edge 19, Type (0, 1), BuildingBlock: OJICUG_clean_linker_0, # of connection points: 2
#     Edge 20, Type (0, 1), BuildingBlock: OJICUG_clean_linker_0, # of connection points: 2
#     Edge 21, Type (0, 1), BuildingBlock: OJICUG_clean_linker_0, # of connection points: 2
#     Edge 22, Type (0, 1), BuildingBlock: OJICUG_clean_linker_0, # of connection points: 2
#     Edge 23, Type (0, 1), BuildingBlock: OJICUG_clean_linker_0, # of connection points: 2
#     Edge 24, Type (0, 1), BuildingBlock: OJICUG_clean_linker_0, # of connection points: 2
#     Edge 25, Type (0, 1), BuildingBlock: OJICUG_clean_linker_0, # of connection points: 2
#     Edge 26, Type (0, 1), BuildingBlock: OJICUG_clean_linker_0, # of connection points: 2
#     Edge 27, Type (0, 1), BuildingBlock: OJICUG_clean_linker_0, # of connection points: 2
#     Edge 28, Type (0, 1), BuildingBlock: OJICUG_clean_linker_0, # of connection points: 2
#     Edge 29, Type (0, 1), BuildingBlock: OJICUG_clean_linker_0, # of connection points: 2
#     Edge 30, Type (0, 1), BuildingBlock: OJICUG_clean_linker_0, # of connection points: 2
#     Edge 31, Type (0, 1), BuildingBlock: OJICUG_clean_linker_0, # of connection points: 2
#     Edge 32, Type (0, 1), BuildingBlock: OJICUG_clean_linker_0, # of connection points: 2
#     Edge 33, Type (0, 1), BuildingBlock: OJICUG_clean_linker_0, # of connection points: 2
#     Edge 34, Type (0, 1), BuildingBlock: OJICUG_clean_linker_0, # of connection points: 2
#     Edge 35, Type (0, 1), BuildingBlock: OJICUG_clean_linker_0, # of connection points: 2
# Relax obj value: 0.085
# Max RMSD: 0.099
# Mean RMSD: 0.090
data_MOF--net-apo--node1-MIDCAF_clean_sbu_0--node2-KAKCAD_clean_linker_0--edge1-OJICUG_clean_linker_0
_symmetry_space_group_name_H-M    P1
_symmetry_Int_Tables_number       1
_symmetry_cell_setting            triclinic
loop_
_symmetry_equiv_pos_as_xyz
'x, y, z'
_cell_length_a     33.176916
_cell_length_b     39.710454
_cell_length_c     34.624398
_cell_angle_alpha  90.211522
_cell_angle_beta   90.470603
_cell_angle_gamma 90.023874
loop_
_atom_site_label
_atom_site_type_symbol
_atom_site_fract_x
_atom_site_fract_y
_atom_site_fract_z
_atom_type_partial_charge
C0 C 0.38558 0.42678 0.3254 0.0
C1 C 0.42676 0.43289 0.33255 0.0
C2 C 0.3673 0.39735 0.33872 0.0
C3 C 0.38974 0.37346 0.3596 0.0
C4 C 0.43131 0.37869 0.36494 0.0
C5 C 0.44964 0.40802 0.35147 0.0
C6 C 0.36945 0.34422 0.37771 0.0
C7 C 0.34036 0.3255 0.35722 0.0
C8 C 0.32104 0.29814 0.37465 0.0
C9 C 0.33003 0.2899 0.41323 0.0
C10 C 0.35869 0.30864 0.43426 0.0
C11 C 0.37845 0.33555 0.41616 0.0
C12 C 0.36846 0.30052 0.47512 0.0
C13 C 0.33811 0.29835 0.50315 0.0
C14 C 0.40885 0.29712 0.48672 0.0
C15 C 0.41889 0.29261 0.52556 0.0
C16 C 0.38883 0.29166 0.55399 0.0
C17 C 0.29193 0.27773 0.35223 0.0
C18 C 0.25448 0.29116 0.3413 0.0
C19 C 0.30133 0.24447 0.34222 0.0
C20 C 0.27306 0.22441 0.3228 0.0
C21 C 0.23435 0.23695 0.31391 0.0
C22 C 0.22579 0.27089 0.32258 0.0
C23 C 0.34823 0.2943 0.54234 0.0
H24 H 0.36691 0.44556 0.31141 0.0
H25 H 0.33516 0.39412 0.33434 0.0
H26 H 0.44954 0.36038 0.38026 0.0
H27 H 0.48155 0.41169 0.35686 0.0
H28 H 0.33338 0.33166 0.32743 0.0
H29 H 0.4001 0.35042 0.4325 0.0
H30 H 0.31497 0.2688 0.42671 0.0
H31 H 0.30671 0.3011 0.49494 0.0
H32 H 0.43282 0.2986 0.46572 0.0
H33 H 0.45051 0.29129 0.53348 0.0
H34 H 0.24685 0.31691 0.34865 0.0
H35 H 0.33041 0.2339 0.34986 0.0
H36 H 0.32442 0.29374 0.56354 0.0
H37 H 0.19628 0.28141 0.31674 0.0
H38 H 0.2812 0.19872 0.3158 0.0
C39 C 0.1134 0.06872 0.82831 0.0
C40 C 0.07287 0.06415 0.83868 0.0
C41 C 0.13538 0.09626 0.84243 0.0
C42 C 0.1173 0.11985 0.86721 0.0
C43 C 0.07616 0.11626 0.87581 0.0
C44 C 0.05422 0.08871 0.86175 0.0
C45 C 0.14186 0.14674 0.88607 0.0
C46 C 0.17118 0.1645 0.86532 0.0
C47 C 0.19529 0.18919 0.8835 0.0
C48 C 0.18994 0.19568 0.92326 0.0
C49 C 0.16022 0.17858 0.94415 0.0
C50 C 0.13652 0.15416 0.92538 0.0
C51 C 0.15237 0.18664 0.9853 0.0
C52 C 0.18279 0.18406 1.01366 0.0
C53 C 0.11309 0.19477 0.99666 0.0
C54 C 0.10394 0.19917 0.03558 0.0
C55 C 0.13377 0.19525 0.06435 0.0
C56 C 0.22493 0.20894 0.86064 0.0
C57 C 0.24787 0.19363 0.83137 0.0
C58 C 0.23005 0.24356 0.86758 0.0
C59 C 0.25773 0.26226 0.84636 0.0
C60 C 0.2809 0.24701 0.81722 0.0
C61 C 0.27548 0.21243 0.8099 0.0
C62 C 0.17348 0.18799 0.05295 0.0
H63 H 0.12882 0.05004 0.811 0.0
H64 H 0.16706 0.09813 0.83547 0.0
H65 H 0.06109 0.1344 0.89413 0.0
H66 H 0.02288 0.08616 0.86977 0.0
H67 H 0.17438 0.15972 0.83467 0.0
H68 H 0.11432 0.14037 0.94184 0.0
H69 H 0.20837 0.21438 0.93791 0.0
H70 H 0.21331 0.17765 1.00556 0.0
H71 H 0.08912 0.19698 0.97536 0.0
H72 H 0.07288 0.20407 0.0432 0.0
H73 H 0.24498 0.16695 0.8254 0.0
H74 H 0.21252 0.25639 0.8894 0.0
H75 H 0.19708 0.18474 0.0744 0.0
H76 H 0.29265 0.19982 0.78767 0.0
H77 H 0.26158 0.28861 0.8536 0.0
C78 C 0.89081 0.07794 0.70683 0.0
C79 C 0.93091 0.07169 0.69618 0.0
C80 C 0.87088 0.10683 0.69401 0.0
C81 C 0.89063 0.13021 0.67034 0.0
C82 C 0.93149 0.12495 0.66163 0.0
C83 C 0.95139 0.09596 0.67434 0.0
C84 C 0.86768 0.15831 0.65231 0.0
C85 C 0.83827 0.17588 0.6732 0.0
C86 C 0.81382 0.2001 0.65512 0.0
C87 C 0.81909 0.20702 0.6156 0.0
C88 C 0.84951 0.1906 0.5947 0.0
C89 C 0.87339 0.16622 0.61323 0.0
C90 C 0.85747 0.1986 0.55362 0.0
C91 C 0.82742 0.19503 0.52503 0.0
C92 C 0.89681 0.20669 0.54243 0.0
C93 C 0.9065 0.20966 0.50348 0.0
C94 C 0.87714 0.20438 0.4745 0.0
C95 C 0.78266 0.21778 0.6779 0.0
C96 C 0.74223 0.21745 0.66572 0.0
C97 C 0.79305 0.23427 0.71259 0.0
C98 C 0.76362 0.25079 0.73431 0.0
C99 C 0.72314 0.2504 0.72217 0.0
C100 C 0.71269 0.23335 0.68784 0.0
C101 C 0.83724 0.19763 0.48574 0.0
H102 H 0.87398 0.05952 0.72313 0.0
H103 H 0.8393 0.10985 0.70092 0.0
H104 H 0.9478 0.14282 0.64409 0.0
H105 H 0.98246 0.09203 0.66609 0.0
H106 H 0.83386 0.17034 0.70351 0.0
H107 H 0.89565 0.15257 0.59661 0.0
H108 H 0.80049 0.22583 0.60151 0.0
H109 H 0.79686 0.18861 0.53298 0.0
H110 H 0.92052 0.2096 0.56391 0.0
H111 H 0.93769 0.21425 0.49614 0.0
H112 H 0.73347 0.20467 0.63926 0.0
H113 H 0.82409 0.23483 0.72254 0.0
H114 H 0.81392 0.19346 0.46418 0.0
H115 H 0.68178 0.23319 0.67749 0.0
H116 H 0.77245 0.26401 0.76046 0.0
C117 C 0.60474 0.41934 0.22248 0.0
C118 C 0.56311 0.42243 0.21507 0.0
C119 C 0.62629 0.39164 0.20848 0.0
C120 C 0.60673 0.36657 0.18658 0.0
C121 C 0.56471 0.3684 0.18156 0.0
C122 C 0.54312 0.39593 0.1958 0.0
C123 C 0.63049 0.34048 0.16598 0.0
C124 C 0.66168 0.32292 0.18476 0.0
C125 C 0.68528 0.29931 0.16459 0.0
C126 C 0.67766 0.29395 0.12486 0.0
C127 C 0.64622 0.311 0.10584 0.0
C128 C 0.62285 0.33414 0.12667 0.0
C129 C 0.63699 0.30468 0.06433 0.0
C130 C 0.66723 0.30592 0.03612 0.0
C131 C 0.59697 0.29907 0.05255 0.0
C132 C 0.5871 0.29581 1.01348 0.0
C133 C 0.61695 0.29819 0.98495 0.0
C134 C 0.7172 0.2797 0.18514 0.0
C135 C 0.74165 0.29474 0.21383 0.0
C136 C 0.72335 0.24556 0.1762 0.0
C137 C 0.75364 0.22715 0.19469 0.0
C138 C 0.77849 0.24218 0.22308 0.0
C139 C 0.77187 0.2762 0.23261 0.0
C140 C 0.65726 0.30299 0.99673 0.0
H141 H 0.62127 0.43938 0.2368 0.0
H142 H 0.65867 0.39096 0.21269 0.0
H143 H 0.54873 0.34908 0.16542 0.0
H144 H 0.51098 0.39717 0.19023 0.0
H145 H 0.66685 0.32715 0.21533 0.0
H146 H 0.59929 0.34806 0.11185 0.0
H147 H 0.69586 0.27626 0.10871 0.0
H148 H 0.69834 0.31037 0.04441 0.0
H149 H 0.57307 0.29777 0.07363 0.0
H150 H 0.55565 0.29278 1.0056 0.0
H151 H 0.73801 0.32106 0.2213 0.0
H152 H 0.70472 0.23291 0.1548 0.0
H153 H 0.68093 0.30495 0.97551 0.0
H154 H 0.79019 0.28861 0.25442 0.0
H155 H 0.7582 0.20127 0.18582 0.0
C156 C 0.57748 0.58816 0.70434 0.0
C157 C 0.57695 0.55803 0.68286 0.0
C158 C 0.59839 0.6164 0.69057 0.0
C159 C 0.61917 0.61469 0.65533 0.0
C160 C 0.61999 0.58399 0.63508 0.0
C161 C 0.59908 0.55615 0.64856 0.0
C162 C 0.63903 0.6446 0.63822 0.0
C163 C 0.66415 0.66586 0.66021 0.0
C164 C 0.68633 0.69154 0.6422 0.0
C165 C 0.68256 0.69638 0.60197 0.0
C166 C 0.6569 0.67561 0.57992 0.0
C167 C 0.63497 0.6503 0.59843 0.0
C168 C 0.65285 0.67873 0.53734 0.0
C169 C 0.6393 0.70877 0.52024 0.0
C170 C 0.6563 0.64968 0.51431 0.0
C171 C 0.6429 0.64971 0.47604 0.0
C172 C 0.62607 0.67887 0.45985 0.0
C173 C 0.71569 0.71156 0.66508 0.0
C174 C 0.70317 0.73104 0.69674 0.0
C175 C 0.75672 0.7107 0.65564 0.0
C176 C 0.78478 0.72923 0.67727 0.0
C177 C 0.77224 0.74949 0.70828 0.0
C178 C 0.73117 0.75029 0.71785 0.0
C179 C 0.62594 0.70882 0.48162 0.0
H180 H 0.56093 0.59009 0.73109 0.0
H181 H 0.59739 0.63973 0.70684 0.0
H182 H 0.63672 0.58149 0.60848 0.0
H183 H 0.6003 0.53295 0.63202 0.0
H184 H 0.66815 0.66134 0.69086 0.0
H185 H 0.61473 0.63456 0.58148 0.0
H186 H 0.70006 0.71576 0.58786 0.0
H187 H 0.63618 0.73143 0.53746 0.0
H188 H 0.66697 0.62627 0.52671 0.0
H189 H 0.64331 0.62634 0.45979 0.0
H190 H 0.67164 0.73194 0.70457 0.0
H191 H 0.76707 0.6956 0.63156 0.0
H192 H 0.61273 0.73152 0.46975 0.0
H193 H 0.72078 0.76596 0.74142 0.0
H194 H 0.81617 0.72862 0.66891 0.0
C195 C 0.83059 0.80431 0.97938 0.0
C196 C 0.87011 0.79769 0.96704 0.0
C197 C 0.82246 0.80876 0.01879 0.0
C198 C 0.85385 0.80733 0.04628 0.0
C199 C 0.893 0.79987 0.03399 0.0
C200 C 0.90101 0.79502 0.99494 0.0
C201 C 0.84673 0.81492 0.08761 0.0
C202 C 0.81619 0.79849 0.10798 0.0
C203 C 0.81144 0.80436 0.14768 0.0
C204 C 0.83662 0.82743 0.16689 0.0
C205 C 0.86638 0.84507 0.14659 0.0
C206 C 0.87147 0.83831 0.10702 0.0
C207 C 0.8906 0.87192 0.16583 0.0
C208 C 0.87208 0.89498 0.19097 0.0
C209 C 0.93154 0.87638 0.1569 0.0
C210 C 0.95273 0.90438 0.17086 0.0
C211 C 0.93349 0.92844 0.19417 0.0
C212 C 0.78037 0.78592 0.16915 0.0
C213 C 0.73949 0.79081 0.16033 0.0
C214 C 0.79155 0.76214 0.19714 0.0
C215 C 0.7622 0.7423 0.21479 0.0
C216 C 0.72131 0.74664 0.20532 0.0
C217 C 0.71012 0.77155 0.1786 0.0
C218 C 0.8933 0.9229 0.20502 0.0
H219 H 0.80622 0.80663 0.95856 0.0
H220 H 0.79198 0.81454 0.02762 0.0
H221 H 0.91767 0.79837 0.05462 0.0
H222 H 0.93194 0.79064 0.98649 0.0
H223 H 0.79701 0.7803 0.09329 0.0
H224 H 0.89397 0.852 0.09085 0.0
H225 H 0.83268 0.83184 0.19755 0.0
H226 H 0.8405 0.89252 0.19812 0.0
H227 H 0.94693 0.85869 0.13826 0.0
H228 H 0.98383 0.90776 0.16243 0.0
H229 H 0.73041 0.80908 0.13879 0.0
H230 H 0.82304 0.75803 0.20416 0.0
H231 H 0.87743 0.94119 0.22249 0.0
H232 H 0.67879 0.77493 0.17043 0.0
H233 H 0.77143 0.72303 0.23508 0.0
C234 C 0.0935 0.90471 0.32317 0.0
C235 C 0.08891 0.9337 0.34618 0.0
C236 C 0.11636 0.87734 0.33678 0.0
C237 C 0.13505 0.87879 0.3734 0.0
C238 C 0.13207 0.90858 0.39518 0.0
C239 C 0.10923 0.93555 0.38184 0.0
C240 C 0.15564 0.84912 0.39062 0.0
C241 C 0.18359 0.82976 0.36975 0.0
C242 C 0.20484 0.80342 0.38799 0.0
C243 C 0.19682 0.79592 0.42694 0.0
C244 C 0.16918 0.81508 0.44794 0.0
C245 C 0.1485 0.84128 0.4295 0.0
C246 C 0.16205 0.80864 0.48945 0.0
C247 C 0.15117 0.77646 0.50243 0.0
C248 C 0.16283 0.83556 0.51582 0.0
C249 C 0.15019 0.83101 0.55376 0.0
C250 C 0.13616 0.79945 0.5661 0.0
C251 C 0.23727 0.78484 0.36768 0.0
C252 C 0.23186 0.77246 0.32986 0.0
C253 C 0.27386 0.77851 0.387 0.0
C254 C 0.30358 0.75895 0.36979 0.0
C255 C 0.29761 0.7452 0.33275 0.0
C256 C 0.26187 0.75278 0.31248 0.0
C257 C 0.13809 0.77193 0.54043 0.0
H258 H 0.07843 0.90282 0.29538 0.0
H259 H 0.11824 0.8547 0.31934 0.0
H260 H 0.14701 0.9109 0.42301 0.0
H261 H 0.10729 0.95797 0.39967 0.0
H262 H 0.19018 0.83621 0.34008 0.0
H263 H 0.1265 0.85566 0.44565 0.0
H264 H 0.2128 0.77563 0.44126 0.0
H265 H 0.15047 0.75528 0.48263 0.0
H266 H 0.17162 0.86054 0.5066 0.0
H267 H 0.14867 0.85285 0.57253 0.0
H268 H 0.20398 0.77703 0.31427 0.0
H269 H 0.27944 0.78848 0.41571 0.0
H270 H 0.12762 0.7473 0.54918 0.0
H271 H 0.25655 0.74254 0.28386 0.0
H272 H 0.33125 0.7543 0.38573 0.0
C273 C 0.33481 0.69252 0.02781 0.0
C274 C 0.37493 0.69878 0.03938 0.0
C275 C 0.32451 0.6904 0.98846 0.0
C276 C 0.35428 0.69405 0.96012 0.0
C277 C 0.39379 0.70196 0.97166 0.0
C278 C 0.40398 0.70438 1.01071 0.0
C279 C 0.34573 0.68623 0.91893 0.0
C280 C 0.31381 0.70155 0.89878 0.0
C281 C 0.30729 0.69438 0.85936 0.0
C282 C 0.33219 0.67102 0.8405 0.0
C283 C 0.36334 0.6546 0.86071 0.0
C284 C 0.37008 0.66273 0.89974 0.0
C285 C 0.38704 0.62711 0.84246 0.0
C286 C 0.36759 0.60228 0.82004 0.0
C287 C 0.42836 0.6234 0.85082 0.0
C288 C 0.44896 0.59431 0.83964 0.0
C289 C 0.42874 0.56842 0.81964 0.0
C290 C 0.2744 0.71129 0.83782 0.0
C291 C 0.23459 0.70935 0.85097 0.0
C292 C 0.28274 0.72999 0.80444 0.0
C293 C 0.25196 0.74764 0.78545 0.0
C294 C 0.21221 0.74612 0.79898 0.0
C295 C 0.2037 0.72635 0.8315 0.0
C296 C 0.38826 0.57326 0.80869 0.0
H297 H 0.3117 0.68822 0.04914 0.0
H298 H 0.29382 0.68417 0.98025 0.0
H299 H 0.41726 0.70504 0.95037 0.0
H300 H 0.43529 0.70868 0.01833 0.0
H301 H 0.29482 0.71969 0.91341 0.0
H302 H 0.39347 0.64976 0.91589 0.0
H303 H 0.32682 0.66525 0.81027 0.0
H304 H 0.33573 0.60419 0.81336 0.0
H305 H 0.44443 0.64241 0.86735 0.0
H306 H 0.48031 0.59148 0.84798 0.0
H307 H 0.22747 0.69493 0.87653 0.0
H308 H 0.3133 0.73184 0.79385 0.0
H309 H 0.37173 0.55361 0.79362 0.0
H310 H 0.17341 0.72522 0.84287 0.0
H311 H 0.25926 0.76296 0.76064 0.0
Zn312 Zn 0.03147 0.12774 0.33779 0.0
Zn313 Zn 0.97373 0.1315 0.20113 0.0
Zn314 Zn 0.00505 0.13182 0.26956 0.0
C315 C 0.04513 0.1678 0.19567 0.0
C316 C 0.98396 0.06503 0.21783 0.0
O317 O 0.9626 0.159 0.30952 0.0
O318 O 0.99612 0.15931 0.36494 0.0
C319 C 0.09307 0.15649 0.29476 0.0
O320 O 0.04885 0.15785 0.23093 0.0
O321 O 0.01345 0.16132 0.17667 0.0
O322 O 0.97581 0.08291 0.18878 0.0
O323 O 0.99427 0.07907 0.25009 0.0
O324 O 0.08653 0.14315 0.32711 0.0
O325 O 0.06518 0.15669 0.26863 0.0
O326 O 0.01394 0.07785 0.28627 0.0
O327 O 0.02565 0.07945 0.3491 0.0
C328 C 0.02091 0.06258 0.31849 0.0
O329 O 0.94675 0.15976 0.27194 0.0
O330 O 0.92075 0.15086 0.21369 0.0
C331 C 0.96577 0.168 0.34528 0.0
C332 C 0.91779 0.16314 0.24717 0.0
Zn333 Zn 0.53662 0.36058 0.7047 0.0
Zn334 Zn 0.46521 0.36549 0.83317 0.0
Zn335 Zn 0.50126 0.35963 0.76798 0.0
C336 C 0.47742 0.43007 0.81274 0.0
C337 C 0.41251 0.33077 0.78455 0.0
O338 O 0.56019 0.33322 0.77583 0.0
O339 O 0.59092 0.34741 0.72191 0.0
C340 C 0.52134 0.42602 0.71594 0.0
O341 O 0.48978 0.4136 0.78288 0.0
O342 O 0.467 0.4145 0.8427 0.0
O343 O 0.41319 0.34596 0.8166 0.0
O344 O 0.44335 0.33168 0.76218 0.0
O345 O 0.53029 0.40751 0.68766 0.0
O346 O 0.51139 0.41258 0.74837 0.0
O347 O 0.46233 0.33163 0.72553 0.0
O348 O 0.50468 0.32616 0.67707 0.0
C349 C 0.47089 0.31987 0.69181 0.0
O350 O 0.54075 0.33485 0.81209 0.0
O351 O 0.50171 0.33647 0.86354 0.0
C352 C 0.59179 0.3332 0.75438 0.0
C353 C 0.53412 0.32753 0.84773 0.0
Zn354 Zn 0.02502 0.8634 0.82727 0.0
Zn355 Zn 0.95846 0.86793 0.69339 0.0
Zn356 Zn 0.99136 0.86354 0.76062 0.0
C357 C 0.9745 0.93297 0.71297 0.0
C358 C 0.90123 0.8378 0.73909 0.0
O359 O 0.04926 0.83528 0.7563 0.0
O360 O 0.07838 0.84592 0.81272 0.0
C361 C 0.01463 0.92979 0.81283 0.0
O362 O 0.98373 0.91742 0.74448 0.0
O363 O 0.96529 0.91647 0.68299 0.0
O364 O 0.90387 0.85236 0.70691 0.0
O365 O 0.93146 0.83789 0.76277 0.0
O366 O 0.02227 0.91148 0.84164 0.0
O367 O 0.00387 0.91622 0.78042 0.0
O368 O 0.94923 0.83737 0.79997 0.0
O369 O 0.98747 0.8318 0.85214 0.0
C370 C 0.95482 0.82604 0.8344 0.0
O371 O 0.03112 0.83671 0.71956 0.0
O372 O 0.99397 0.83565 0.66632 0.0
C373 C 0.07968 0.83283 0.77954 0.0
C374 C 0.02568 0.8273 0.68424 0.0
Zn375 Zn 0.5298 0.62129 0.18582 0.0
Zn376 Zn 0.45567 0.63582 0.36259 0.0
Zn377 Zn 0.50075 0.63422 0.2512 0.0
C378 C 0.53088 0.66195 0.32051 0.0
C379 C 0.47119 0.5716 0.31775 0.0
O380 O 0.45813 0.65769 0.2089 0.0
O381 O 0.49056 0.64752 0.15451 0.0
C382 C 0.58917 0.65754 0.22479 0.0
O383 O 0.5452 0.66215 0.28655 0.0
O384 O 0.49486 0.65196 0.32275 0.0
O385 O 0.46041 0.58631 0.34909 0.0
O386 O 0.48371 0.58745 0.28706 0.0
O387 O 0.58456 0.6406 0.19414 0.0
O388 O 0.56067 0.65895 0.24979 0.0
O389 O 0.50433 0.57921 0.24878 0.0
O390 O 0.52347 0.57181 0.18842 0.0
C391 C 0.5135 0.55961 0.22057 0.0
O392 O 0.44496 0.66355 0.24638 0.0
O393 O 0.45262 0.6504 0.30599 0.0
C394 C 0.46105 0.66038 0.17197 0.0
C395 C 0.43109 0.66473 0.28055 0.0
C396 C 0.06855 0.97824 0.29824 0.0
C397 C 0.06323 0.96244 0.33411 0.0
H398 H 0.05849 0.02295 0.26475 0.0
C399 C 0.03705 0.97708 0.36106 0.0
H400 H 0.08851 0.96742 0.27694 0.0
C401 C 0.02008 0.00859 0.3542 0.0
C402 C 0.0286 0.02601 0.32006 0.0
H403 H 0.03175 0.96508 0.38862 0.0
H404 H 0.00239 0.02031 0.37672 0.0
C405 C 0.0513 0.00993 0.29125 0.0
C406 C 0.44252 0.51606 0.78071 0.0
C407 C 0.44777 0.53485 0.81489 0.0
H408 H 0.44827 0.46785 0.75313 0.0
C409 C 0.4673 0.51978 0.8466 0.0
H410 H 0.42769 0.52708 0.7558 0.0
C411 C 0.47899 0.48607 0.84504 0.0
C412 C 0.47196 0.46686 0.81158 0.0
H413 H 0.47132 0.53341 0.87351 0.0
H414 H 0.49211 0.47461 0.87056 0.0
C415 C 0.45461 0.48232 0.77905 0.0
C416 C 0.55957 0.51437 0.73247 0.0
C417 C 0.55411 0.52796 0.69537 0.0
H418 H 0.55296 0.47072 0.76837 0.0
C419 C 0.53115 0.50995 0.66798 0.0
H420 H 0.57716 0.52777 0.75408 0.0
C421 C 0.51759 0.47756 0.67602 0.0
C422 C 0.52621 0.46269 0.71179 0.0
H423 H 0.52586 0.52013 0.63939 0.0
H424 H 0.50233 0.46339 0.65344 0.0
C425 C 0.54572 0.48181 0.74063 0.0
C426 C 0.97287 0.97881 0.1736 0.0
C427 C 0.95322 0.96115 0.20309 0.0
H428 H 0.99826 0.02563 0.15543 0.0
C429 C 0.94852 0.97678 0.23931 0.0
H430 H 0.97655 0.96769 0.14524 0.0
C431 C 0.96102 0.01009 0.2451 0.0
C432 C 0.97832 0.02829 0.21476 0.0
H433 H 0.9337 0.9637 0.26264 0.0
H434 H 0.95487 0.0222 0.2725 0.0
C435 C 0.98508 0.01208 0.17932 0.0
C436 C 0.94312 0.02147 0.73887 0.0
C437 C 0.94918 0.03818 0.70362 0.0
H438 H 0.94673 0.97475 0.76958 0.0
C439 C 0.96857 0.02097 0.67349 0.0
H440 H 0.92852 0.03418 0.76268 0.0
C441 C 0.97909 0.98715 0.67754 0.0
C442 C 0.97088 0.96994 0.7119 0.0
H443 H 0.97328 0.03294 0.64584 0.0
H444 H 0.99205 0.97402 0.65312 0.0
C445 C 0.95389 0.9876 0.74297 0.0
C446 C 0.51712 0.46846 0.19292 0.0
C447 C 0.54233 0.45514 0.22192 0.0
H448 H 0.48771 0.51216 0.17033 0.0
C449 C 0.55169 0.47536 0.25431 0.0
H450 H 0.50957 0.45392 0.16735 0.0
C451 C 0.53902 0.50901 0.25589 0.0
C452 C 0.51679 0.52286 0.22516 0.0
H453 H 0.57061 0.46572 0.27738 0.0
H454 H 0.54909 0.52479 0.27967 0.0
C455 C 0.50468 0.50196 0.19447 0.0
C456 C 0.4333 0.4849 0.29141 0.0
C457 C 0.44432 0.4666 0.32462 0.0
H458 H 0.43359 0.5329 0.26298 0.0
C459 C 0.46878 0.48229 0.35275 0.0
H460 H 0.41483 0.47342 0.26903 0.0
C461 C 0.47969 0.51602 0.34905 0.0
C462 C 0.46678 0.53474 0.31701 0.0
H463 H 0.4774 0.46921 0.37893 0.0
H464 H 0.49673 0.52796 0.37217 0.0
C465 C 0.44434 0.51877 0.2877 0.0
C466 C 0.05633 0.01645 0.79294 0.0
C467 C 0.05177 0.03209 0.82918 0.0
H468 H 0.04758 0.97159 0.75913 0.0
C469 C 0.03024 0.01516 0.85804 0.0
H470 H 0.07249 0.02897 0.77005 0.0
C471 C 0.0159 0.98256 0.85171 0.0
C472 C 0.02232 0.96628 0.81626 0.0
H473 H 0.02657 0.02627 0.88641 0.0
H474 H 0.00127 0.96949 0.87517 0.0
C475 C 0.04169 0.9838 0.78653 0.0
C476 C 0.13315 0.1688 0.13031 0.0
C477 C 0.1216 0.19533 0.10571 0.0
H478 H 0.11805 0.13985 0.18046 0.0
C479 C 0.09222 0.21819 0.11857 0.0
H480 H 0.15568 0.15074 0.12131 0.0
C481 C 0.07069 0.21182 0.15225 0.0
C482 C 0.0786 0.18282 0.17405 0.0
H483 H 0.08327 0.23931 0.10073 0.0
H484 H 0.04504 0.22761 0.159 0.0
C485 C 0.1118 0.16266 0.16441 0.0
C486 C 0.38514 0.31458 0.62184 0.0
C487 C 0.40096 0.291 0.59552 0.0
H488 H 0.39478 0.34161 0.67502 0.0
C489 C 0.43348 0.27078 0.60743 0.0
H490 H 0.36006 0.33052 0.61356 0.0
C491 C 0.45326 0.2772 0.64242 0.0
C492 C 0.44065 0.30368 0.66642 0.0
H493 H 0.44579 0.25188 0.58821 0.0
H494 H 0.48084 0.26365 0.6489 0.0
C495 C 0.40483 0.3208 0.65721 0.0
C496 C 0.57319 0.27763 0.93034 0.0
C497 C 0.60465 0.29862 0.94342 0.0
H498 H 0.52635 0.27013 0.88829 0.0
C499 C 0.61925 0.32363 0.91838 0.0
H500 H 0.56185 0.25763 0.94847 0.0
C501 C 0.59944 0.33015 0.88321 0.0
C502 C 0.56475 0.31188 0.87285 0.0
H503 H 0.64342 0.34025 0.92752 0.0
H504 H 0.60848 0.35181 0.86641 0.0
C505 C 0.5532 0.28442 0.8956 0.0
C506 C 0.92072 0.22327 0.41969 0.0
C507 C 0.89003 0.20207 0.43336 0.0
H508 H 0.96883 0.22916 0.3794 0.0
C509 C 0.87752 0.17481 0.41 0.0
H510 H 0.93046 0.24492 0.43645 0.0
C511 C 0.89891 0.16641 0.37652 0.0
C512 C 0.93311 0.18502 0.36617 0.0
H513 H 0.85404 0.15793 0.41959 0.0
H514 H 0.89166 0.14316 0.36152 0.0
C515 C 0.94234 0.2146 0.38666 0.0
C516 C 0.91062 0.77486 0.91226 0.0
C517 C 0.8809 0.79724 0.92545 0.0
H518 H 0.95746 0.76634 0.87126 0.0
C519 C 0.868 0.82335 0.90088 0.0
H520 H 0.92052 0.75404 0.93012 0.0
C521 C 0.88858 0.82982 0.86649 0.0
C522 C 0.92235 0.81042 0.85667 0.0
H523 H 0.84512 0.84099 0.91016 0.0
H524 H 0.88134 0.85239 0.85038 0.0
C525 C 0.93145 0.7816 0.87832 0.0
C526 C 0.56878 0.65439 0.4231 0.0
C527 C 0.6023 0.67588 0.42363 0.0
H528 H 0.52045 0.63316 0.39033 0.0
C529 C 0.61253 0.69334 0.38985 0.0
H530 H 0.56033 0.64067 0.4488 0.0
C531 C 0.5897 0.68875 0.3558 0.0
C532 C 0.55586 0.66736 0.35559 0.0
H533 H 0.6384 0.70999 0.38967 0.0
H534 H 0.59818 0.7021 0.32988 0.0
C535 C 0.54574 0.65033 0.38963 0.0
C536 C 0.37516 0.66786 0.10263 0.0
C537 C 0.38822 0.69537 0.08042 0.0
H538 H 0.38807 0.63554 0.15077 0.0
C539 C 0.41939 0.71586 0.0952 0.0
H540 H 0.35144 0.65141 0.09208 0.0
C541 C 0.44043 0.70655 0.12861 0.0
C542 C 0.43008 0.67706 0.14833 0.0
H543 H 0.42967 0.73761 0.07925 0.0
H544 H 0.46695 0.72077 0.13712 0.0
C545 C 0.39602 0.65877 0.13637 0.0
C546 C 0.07452 0.78261 0.60185 0.0
C547 C 0.11304 0.79731 0.60259 0.0
H548 H 0.01646 0.7804 0.62805 0.0
C549 C 0.12526 0.81546 0.6357 0.0
H550 H 0.06403 0.76861 0.57681 0.0
C551 C 0.09785 0.82205 0.66535 0.0
C552 C 0.05784 0.81084 0.66197 0.0
H553 H 0.15496 0.82675 0.63726 0.0
H554 H 0.10681 0.8387 0.68873 0.0
C555 C 0.04713 0.78948 0.63116 0.0
C556 C 0.19968 0.18108 0.31617 0.0
C557 C 0.20162 0.21371 0.30071 0.0
H558 H 0.16411 0.13713 0.32516 0.0
C559 C 0.16974 0.22472 0.27664 0.0
H560 H 0.22314 0.1716 0.33512 0.0
C561 C 0.13526 0.20467 0.27113 0.0
C562 C 0.13224 0.17345 0.28976 0.0
H563 H 0.17056 0.24945 0.26361 0.0
H564 H 0.10994 0.21466 0.25488 0.0
C565 C 0.16555 0.16124 0.31066 0.0
C566 C 0.30647 0.30141 0.78956 0.0
C567 C 0.31248 0.26693 0.79698 0.0
H568 H 0.33431 0.34909 0.77875 0.0
C569 C 0.35069 0.25294 0.78955 0.0
H570 H 0.27722 0.31289 0.7937 0.0
C571 C 0.38309 0.27367 0.77939 0.0
C572 C 0.37783 0.30864 0.77699 0.0
H573 H 0.35658 0.22655 0.79491 0.0
H574 H 0.41301 0.26284 0.77775 0.0
C575 C 0.33896 0.32211 0.7802 0.0
C576 C 0.65462 0.25621 0.7516 0.0
C577 C 0.69227 0.27038 0.74275 0.0
H578 H 0.59265 0.26579 0.76499 0.0
C579 C 0.69812 0.30509 0.74821 0.0
H580 H 0.64951 0.22945 0.74783 0.0
C581 C 0.66561 0.3258 0.75768 0.0
C582 C 0.62704 0.31201 0.76269 0.0
H583 H 0.7268 0.31664 0.74146 0.0
H584 H 0.66975 0.35287 0.75741 0.0
C585 C 0.62229 0.27691 0.76199 0.0
C586 C 0.80957 0.18786 0.24585 0.0
C587 C 0.81284 0.22285 0.24013 0.0
H588 H 0.84109 0.14119 0.25328 0.0
C589 C 0.85064 0.23828 0.24629 0.0
H590 H 0.78084 0.17519 0.24256 0.0
C591 C 0.88491 0.21874 0.25395 0.0
C592 C 0.88196 0.18355 0.25524 0.0
H593 H 0.85451 0.26507 0.24202 0.0
H594 H 0.91417 0.23085 0.25501 0.0
C595 C 0.8439 0.16837 0.25275 0.0
C596 C 0.83869 0.75976 0.7415 0.0
C597 C 0.8017 0.77222 0.72749 0.0
H598 H 0.89948 0.77162 0.75846 0.0
C599 C 0.79559 0.80716 0.72623 0.0
H600 H 0.84401 0.73287 0.7428 0.0
C601 C 0.82737 0.82919 0.7346 0.0
C602 C 0.86543 0.81665 0.74527 0.0
H603 H 0.76745 0.81739 0.71536 0.0
H604 H 0.82315 0.85589 0.72968 0.0
C605 C 0.87023 0.78189 0.75085 0.0
C606 C 0.6948 0.68833 0.2098 0.0
C607 C 0.69071 0.72259 0.21898 0.0
H608 H 0.66522 0.64059 0.20456 0.0
C609 C 0.65493 0.73402 0.23602 0.0
H610 H 0.72202 0.67903 0.19636 0.0
C611 C 0.62275 0.71183 0.24159 0.0
C612 C 0.62568 0.67825 0.22912 0.0
H613 H 0.65123 0.7604 0.24325 0.0
H614 H 0.5946 0.72155 0.2527 0.0
C615 C 0.66236 0.66641 0.21441 0.0
C616 C 0.34522 0.69717 0.34057 0.0
C617 C 0.32837 0.72205 0.31669 0.0
H618 H 0.39018 0.65937 0.34759 0.0
C619 C 0.34283 0.72557 0.27883 0.0
H620 H 0.33406 0.69328 0.36954 0.0
C621 C 0.37526 0.70586 0.26605 0.0
C622 C 0.39353 0.68242 0.291 0.0
H623 H 0.33028 0.74451 0.25978 0.0
H624 H 0.38705 0.70994 0.23735 0.0
C625 C 0.37738 0.67766 0.32792 0.0
C626 C 0.14224 0.75508 0.77292 0.0
C627 C 0.18042 0.76813 0.78261 0.0
H628 H 0.07981 0.7662 0.76218 0.0
C629 C 0.18624 0.80314 0.78254 0.0
H630 H 0.13712 0.72813 0.77276 0.0
C631 C 0.15351 0.82475 0.77712 0.0
C632 C 0.11472 0.81168 0.77068 0.0
H633 H 0.21531 0.81381 0.79017 0.0
H634 H 0.15791 0.8516 0.78096 0.0
C635 C 0.10962 0.77679 0.7665 0.0
loop_
_geom_bond_atom_site_label_1
_geom_bond_atom_site_label_2
_geom_bond_distance
_geom_bond_site_symmetry_2
_ccdc_geom_bond_type
C0 C1 1.386 . S
C0 C2 1.397 . S
C0 H24 0.931 . S
C1 C0 1.386 . S
C1 C5 1.397 . S
C2 C0 1.397 . S
C2 C3 1.384 . S
C2 H25 0.930 . S
C3 C2 1.384 . S
C3 C4 1.377 . S
C3 C6 1.481 . S
C4 C3 1.377 . S
C4 C5 1.389 . S
C4 H26 0.929 . S
C5 C1 1.397 . S
C5 C4 1.389 . S
C5 H27 0.931 . S
C6 C3 1.481 . S
C6 C7 1.387 . S
C6 C11 1.390 . S
C7 C6 1.387 . S
C7 C8 1.401 . S
C7 H28 0.930 . S
C8 C7 1.401 . S
C8 C9 1.376 . S
C8 C17 1.511 . S
C9 C8 1.376 . S
C9 C10 1.392 . S
C9 H30 0.931 . S
C10 C9 1.392 . S
C10 C11 1.361 . S
C10 C12 1.500 . S
C11 C6 1.390 . S
C11 C10 1.361 . S
C11 H29 0.931 . S
C12 C10 1.500 . S
C12 C13 1.371 . S
C12 C14 1.365 . S
C13 C12 1.371 . S
C13 C23 1.386 . S
C13 H31 0.931 . S
C14 C12 1.365 . S
C14 C15 1.409 . S
C14 H32 0.929 . S
C15 C14 1.409 . S
C15 C16 1.380 . S
C15 H33 0.930 . S
C16 C15 1.380 . S
C16 C23 1.357 . S
C17 C8 1.511 . S
C17 C18 1.341 . S
C17 C19 1.371 . S
C18 C17 1.341 . S
C18 C22 1.394 . S
C18 H34 0.930 . S
C19 C17 1.371 . S
C19 C20 1.392 . S
C19 H35 0.931 . S
C20 C19 1.392 . S
C20 C21 1.331 . S
C20 H38 0.932 . S
C21 C20 1.331 . S
C21 C22 1.336 . S
C22 C18 1.394 . S
C22 C21 1.336 . S
C22 H37 0.929 . S
C23 C13 1.386 . S
C23 C16 1.357 . S
C23 H36 0.928 . S
H24 C0 0.931 . S
H25 C2 0.930 . S
H26 C4 0.929 . S
H27 C5 0.931 . S
H28 C7 0.930 . S
H29 C11 0.931 . S
H30 C9 0.931 . S
H31 C13 0.931 . S
H32 C14 0.929 . S
H33 C15 0.930 . S
H34 C18 0.930 . S
H35 C19 0.931 . S
H36 C23 0.928 . S
H37 C22 0.929 . S
H38 C20 0.932 . S
C39 C40 1.386 . S
C39 C41 1.397 . S
C39 H63 0.931 . S
C40 C39 1.386 . S
C40 C44 1.397 . S
C41 C39 1.397 . S
C41 C42 1.384 . S
C41 H64 0.930 . S
C42 C41 1.384 . S
C42 C43 1.377 . S
C42 C45 1.481 . S
C43 C42 1.377 . S
C43 C44 1.389 . S
C43 H65 0.929 . S
C44 C40 1.397 . S
C44 C43 1.389 . S
C44 H66 0.931 . S
C45 C42 1.481 . S
C45 C46 1.387 . S
C45 C50 1.390 . S
C46 C45 1.387 . S
C46 C47 1.401 . S
C46 H67 0.930 . S
C47 C46 1.401 . S
C47 C48 1.376 . S
C47 C56 1.511 . S
C48 C47 1.376 . S
C48 C49 1.392 . S
C48 H69 0.931 . S
C49 C48 1.392 . S
C49 C50 1.361 . S
C49 C51 1.500 . S
C50 C45 1.390 . S
C50 C49 1.361 . S
C50 H68 0.931 . S
C51 C49 1.500 . S
C51 C52 1.371 . S
C51 C53 1.365 . S
C52 C51 1.371 . S
C52 C62 1.386 1_556 S
C52 H70 0.931 . S
C53 C51 1.365 . S
C53 C54 1.409 1_556 S
C53 H71 0.929 . S
C54 C53 1.409 1_554 S
C54 C55 1.380 . S
C54 H72 0.930 . S
C55 C54 1.380 . S
C55 C62 1.357 . S
C56 C47 1.511 . S
C56 C57 1.341 . S
C56 C58 1.371 . S
C57 C56 1.341 . S
C57 C61 1.394 . S
C57 H73 0.930 . S
C58 C56 1.371 . S
C58 C59 1.392 . S
C58 H74 0.931 . S
C59 C58 1.392 . S
C59 C60 1.331 . S
C59 H77 0.932 . S
C60 C59 1.331 . S
C60 C61 1.336 . S
C61 C57 1.394 . S
C61 C60 1.336 . S
C61 H76 0.929 . S
C62 C52 1.386 1_554 S
C62 C55 1.357 . S
C62 H75 0.928 . S
H63 C39 0.931 . S
H64 C41 0.930 . S
H65 C43 0.929 . S
H66 C44 0.931 . S
H67 C46 0.930 . S
H68 C50 0.931 . S
H69 C48 0.931 . S
H70 C52 0.931 . S
H71 C53 0.929 . S
H72 C54 0.930 . S
H73 C57 0.930 . S
H74 C58 0.931 . S
H75 C62 0.928 . S
H76 C61 0.929 . S
H77 C59 0.932 . S
C78 C79 1.386 . S
C78 C80 1.397 . S
C78 H102 0.931 . S
C79 C78 1.386 . S
C79 C83 1.397 . S
C80 C78 1.397 . S
C80 C81 1.384 . S
C80 H103 0.930 . S
C81 C80 1.384 . S
C81 C82 1.377 . S
C81 C84 1.481 . S
C82 C81 1.377 . S
C82 C83 1.389 . S
C82 H104 0.929 . S
C83 C79 1.397 . S
C83 C82 1.389 . S
C83 H105 0.931 . S
C84 C81 1.481 . S
C84 C85 1.387 . S
C84 C89 1.390 . S
C85 C84 1.387 . S
C85 C86 1.401 . S
C85 H106 0.930 . S
C86 C85 1.401 . S
C86 C87 1.376 . S
C86 C95 1.511 . S
C87 C86 1.376 . S
C87 C88 1.392 . S
C87 H108 0.931 . S
C88 C87 1.392 . S
C88 C89 1.361 . S
C88 C90 1.500 . S
C89 C84 1.390 . S
C89 C88 1.361 . S
C89 H107 0.931 . S
C90 C88 1.500 . S
C90 C91 1.371 . S
C90 C92 1.365 . S
C91 C90 1.371 . S
C91 C101 1.386 . S
C91 H109 0.931 . S
C92 C90 1.365 . S
C92 C93 1.409 . S
C92 H110 0.929 . S
C93 C92 1.409 . S
C93 C94 1.380 . S
C93 H111 0.930 . S
C94 C93 1.380 . S
C94 C101 1.357 . S
C95 C86 1.511 . S
C95 C96 1.341 . S
C95 C97 1.371 . S
C96 C95 1.341 . S
C96 C100 1.394 . S
C96 H112 0.930 . S
C97 C95 1.371 . S
C97 C98 1.392 . S
C97 H113 0.931 . S
C98 C97 1.392 . S
C98 C99 1.331 . S
C98 H116 0.932 . S
C99 C98 1.331 . S
C99 C100 1.336 . S
C100 C96 1.394 . S
C100 C99 1.336 . S
C100 H115 0.929 . S
C101 C91 1.386 . S
C101 C94 1.357 . S
C101 H114 0.928 . S
H102 C78 0.931 . S
H103 C80 0.930 . S
H104 C82 0.929 . S
H105 C83 0.931 . S
H106 C85 0.930 . S
H107 C89 0.931 . S
H108 C87 0.931 . S
H109 C91 0.931 . S
H110 C92 0.929 . S
H111 C93 0.930 . S
H112 C96 0.930 . S
H113 C97 0.931 . S
H114 C101 0.928 . S
H115 C100 0.929 . S
H116 C98 0.932 . S
C117 C118 1.386 . S
C117 C119 1.397 . S
C117 H141 0.931 . S
C118 C117 1.386 . S
C118 C122 1.397 . S
C119 C117 1.397 . S
C119 C120 1.384 . S
C119 H142 0.930 . S
C120 C119 1.384 . S
C120 C121 1.377 . S
C120 C123 1.481 . S
C121 C120 1.377 . S
C121 C122 1.389 . S
C121 H143 0.929 . S
C122 C118 1.397 . S
C122 C121 1.389 . S
C122 H144 0.931 . S
C123 C120 1.481 . S
C123 C124 1.387 . S
C123 C128 1.390 . S
C124 C123 1.387 . S
C124 C125 1.401 . S
C124 H145 0.930 . S
C125 C124 1.401 . S
C125 C126 1.376 . S
C125 C134 1.511 . S
C126 C125 1.376 . S
C126 C127 1.392 . S
C126 H147 0.931 . S
C127 C126 1.392 . S
C127 C128 1.361 . S
C127 C129 1.500 . S
C128 C123 1.390 . S
C128 C127 1.361 . S
C128 H146 0.931 . S
C129 C127 1.500 . S
C129 C130 1.371 . S
C129 C131 1.365 . S
C130 C129 1.371 . S
C130 C140 1.386 1_554 S
C130 H148 0.931 . S
C131 C129 1.365 . S
C131 C132 1.409 1_554 S
C131 H149 0.929 . S
C132 C131 1.409 1_556 S
C132 C133 1.380 . S
C132 H150 0.930 . S
C133 C132 1.380 . S
C133 C140 1.357 . S
C134 C125 1.511 . S
C134 C135 1.341 . S
C134 C136 1.371 . S
C135 C134 1.341 . S
C135 C139 1.394 . S
C135 H151 0.930 . S
C136 C134 1.371 . S
C136 C137 1.392 . S
C136 H152 0.931 . S
C137 C136 1.392 . S
C137 C138 1.331 . S
C137 H155 0.932 . S
C138 C137 1.331 . S
C138 C139 1.336 . S
C139 C135 1.394 . S
C139 C138 1.336 . S
C139 H154 0.929 . S
C140 C130 1.386 1_556 S
C140 C133 1.357 . S
C140 H153 0.928 . S
H141 C117 0.931 . S
H142 C119 0.930 . S
H143 C121 0.929 . S
H144 C122 0.931 . S
H145 C124 0.930 . S
H146 C128 0.931 . S
H147 C126 0.931 . S
H148 C130 0.931 . S
H149 C131 0.929 . S
H150 C132 0.930 . S
H151 C135 0.930 . S
H152 C136 0.931 . S
H153 C140 0.928 . S
H154 C139 0.929 . S
H155 C137 0.932 . S
C156 C157 1.386 . S
C156 C158 1.397 . S
C156 H180 0.931 . S
C157 C156 1.386 . S
C157 C161 1.397 . S
C158 C156 1.397 . S
C158 C159 1.384 . S
C158 H181 0.930 . S
C159 C158 1.384 . S
C159 C160 1.377 . S
C159 C162 1.481 . S
C160 C159 1.377 . S
C160 C161 1.389 . S
C160 H182 0.929 . S
C161 C157 1.397 . S
C161 C160 1.389 . S
C161 H183 0.931 . S
C162 C159 1.481 . S
C162 C163 1.387 . S
C162 C167 1.390 . S
C163 C162 1.387 . S
C163 C164 1.401 . S
C163 H184 0.930 . S
C164 C163 1.401 . S
C164 C165 1.376 . S
C164 C173 1.511 . S
C165 C164 1.376 . S
C165 C166 1.392 . S
C165 H186 0.931 . S
C166 C165 1.392 . S
C166 C167 1.361 . S
C166 C168 1.500 . S
C167 C162 1.390 . S
C167 C166 1.361 . S
C167 H185 0.931 . S
C168 C166 1.500 . S
C168 C169 1.371 . S
C168 C170 1.365 . S
C169 C168 1.371 . S
C169 C179 1.386 . S
C169 H187 0.931 . S
C170 C168 1.365 . S
C170 C171 1.409 . S
C170 H188 0.929 . S
C171 C170 1.409 . S
C171 C172 1.380 . S
C171 H189 0.930 . S
C172 C171 1.380 . S
C172 C179 1.357 . S
C173 C164 1.511 . S
C173 C174 1.341 . S
C173 C175 1.371 . S
C174 C173 1.341 . S
C174 C178 1.394 . S
C174 H190 0.930 . S
C175 C173 1.371 . S
C175 C176 1.392 . S
C175 H191 0.931 . S
C176 C175 1.392 . S
C176 C177 1.331 . S
C176 H194 0.932 . S
C177 C176 1.331 . S
C177 C178 1.336 . S
C178 C174 1.394 . S
C178 C177 1.336 . S
C178 H193 0.929 . S
C179 C169 1.386 . S
C179 C172 1.357 . S
C179 H192 0.928 . S
H180 C156 0.931 . S
H181 C158 0.930 . S
H182 C160 0.929 . S
H183 C161 0.931 . S
H184 C163 0.930 . S
H185 C167 0.931 . S
H186 C165 0.931 . S
H187 C169 0.931 . S
H188 C170 0.929 . S
H189 C171 0.930 . S
H190 C174 0.930 . S
H191 C175 0.931 . S
H192 C179 0.928 . S
H193 C178 0.929 . S
H194 C176 0.932 . S
C195 C196 1.386 . S
C195 C197 1.397 1_556 S
C195 H219 0.931 . S
C196 C195 1.386 . S
C196 C200 1.397 . S
C197 C195 1.397 1_554 S
C197 C198 1.384 . S
C197 H220 0.930 . S
C198 C197 1.384 . S
C198 C199 1.377 . S
C198 C201 1.481 . S
C199 C198 1.377 . S
C199 C200 1.389 1_554 S
C199 H221 0.929 . S
C200 C196 1.397 . S
C200 C199 1.389 1_556 S
C200 H222 0.931 . S
C201 C198 1.481 . S
C201 C202 1.387 . S
C201 C206 1.390 . S
C202 C201 1.387 . S
C202 C203 1.401 . S
C202 H223 0.930 . S
C203 C202 1.401 . S
C203 C204 1.376 . S
C203 C212 1.511 . S
C204 C203 1.376 . S
C204 C205 1.392 . S
C204 H225 0.931 . S
C205 C204 1.392 . S
C205 C206 1.361 . S
C205 C207 1.500 . S
C206 C201 1.390 . S
C206 C205 1.361 . S
C206 H224 0.931 . S
C207 C205 1.500 . S
C207 C208 1.371 . S
C207 C209 1.365 . S
C208 C207 1.371 . S
C208 C218 1.386 . S
C208 H226 0.931 . S
C209 C207 1.365 . S
C209 C210 1.409 . S
C209 H227 0.929 . S
C210 C209 1.409 . S
C210 C211 1.380 . S
C210 H228 0.930 . S
C211 C210 1.380 . S
C211 C218 1.357 . S
C212 C203 1.511 . S
C212 C213 1.341 . S
C212 C214 1.371 . S
C213 C212 1.341 . S
C213 C217 1.394 . S
C213 H229 0.930 . S
C214 C212 1.371 . S
C214 C215 1.392 . S
C214 H230 0.931 . S
C215 C214 1.392 . S
C215 C216 1.331 . S
C215 H233 0.932 . S
C216 C215 1.331 . S
C216 C217 1.336 . S
C217 C213 1.394 . S
C217 C216 1.336 . S
C217 H232 0.929 . S
C218 C208 1.386 . S
C218 C211 1.357 . S
C218 H231 0.928 . S
H219 C195 0.931 . S
H220 C197 0.930 . S
H221 C199 0.929 . S
H222 C200 0.931 . S
H223 C202 0.930 . S
H224 C206 0.931 . S
H225 C204 0.931 . S
H226 C208 0.931 . S
H227 C209 0.929 . S
H228 C210 0.930 . S
H229 C213 0.930 . S
H230 C214 0.931 . S
H231 C218 0.928 . S
H232 C217 0.929 . S
H233 C215 0.932 . S
C234 C235 1.386 . S
C234 C236 1.397 . S
C234 H258 0.931 . S
C235 C234 1.386 . S
C235 C239 1.397 . S
C236 C234 1.397 . S
C236 C237 1.384 . S
C236 H259 0.930 . S
C237 C236 1.384 . S
C237 C238 1.377 . S
C237 C240 1.481 . S
C238 C237 1.377 . S
C238 C239 1.389 . S
C238 H260 0.929 . S
C239 C235 1.397 . S
C239 C238 1.389 . S
C239 H261 0.931 . S
C240 C237 1.481 . S
C240 C241 1.387 . S
C240 C245 1.390 . S
C241 C240 1.387 . S
C241 C242 1.401 . S
C241 H262 0.930 . S
C242 C241 1.401 . S
C242 C243 1.376 . S
C242 C251 1.511 . S
C243 C242 1.376 . S
C243 C244 1.392 . S
C243 H264 0.931 . S
C244 C243 1.392 . S
C244 C245 1.361 . S
C244 C246 1.500 . S
C245 C240 1.390 . S
C245 C244 1.361 . S
C245 H263 0.931 . S
C246 C244 1.500 . S
C246 C247 1.371 . S
C246 C248 1.365 . S
C247 C246 1.371 . S
C247 C257 1.386 . S
C247 H265 0.931 . S
C248 C246 1.365 . S
C248 C249 1.409 . S
C248 H266 0.929 . S
C249 C248 1.409 . S
C249 C250 1.380 . S
C249 H267 0.930 . S
C250 C249 1.380 . S
C250 C257 1.357 . S
C251 C242 1.511 . S
C251 C252 1.341 . S
C251 C253 1.371 . S
C252 C251 1.341 . S
C252 C256 1.394 . S
C252 H268 0.930 . S
C253 C251 1.371 . S
C253 C254 1.392 . S
C253 H269 0.931 . S
C254 C253 1.392 . S
C254 C255 1.331 . S
C254 H272 0.932 . S
C255 C254 1.331 . S
C255 C256 1.336 . S
C256 C252 1.394 . S
C256 C255 1.336 . S
C256 H271 0.929 . S
C257 C247 1.386 . S
C257 C250 1.357 . S
C257 H270 0.928 . S
H258 C234 0.931 . S
H259 C236 0.930 . S
H260 C238 0.929 . S
H261 C239 0.931 . S
H262 C241 0.930 . S
H263 C245 0.931 . S
H264 C243 0.931 . S
H265 C247 0.931 . S
H266 C248 0.929 . S
H267 C249 0.930 . S
H268 C252 0.930 . S
H269 C253 0.931 . S
H270 C257 0.928 . S
H271 C256 0.929 . S
H272 C254 0.932 . S
C273 C274 1.386 . S
C273 C275 1.397 1_554 S
C273 H297 0.931 . S
C274 C273 1.386 . S
C274 C278 1.397 . S
C275 C273 1.397 1_556 S
C275 C276 1.384 . S
C275 H298 0.930 . S
C276 C275 1.384 . S
C276 C277 1.377 . S
C276 C279 1.481 . S
C277 C276 1.377 . S
C277 C278 1.389 1_556 S
C277 H299 0.929 . S
C278 C274 1.397 . S
C278 C277 1.389 1_554 S
C278 H300 0.931 . S
C279 C276 1.481 . S
C279 C280 1.387 . S
C279 C284 1.390 . S
C280 C279 1.387 . S
C280 C281 1.401 . S
C280 H301 0.930 . S
C281 C280 1.401 . S
C281 C282 1.376 . S
C281 C290 1.511 . S
C282 C281 1.376 . S
C282 C283 1.392 . S
C282 H303 0.931 . S
C283 C282 1.392 . S
C283 C284 1.361 . S
C283 C285 1.500 . S
C284 C279 1.390 . S
C284 C283 1.361 . S
C284 H302 0.931 . S
C285 C283 1.500 . S
C285 C286 1.371 . S
C285 C287 1.365 . S
C286 C285 1.371 . S
C286 C296 1.386 . S
C286 H304 0.931 . S
C287 C285 1.365 . S
C287 C288 1.409 . S
C287 H305 0.929 . S
C288 C287 1.409 . S
C288 C289 1.380 . S
C288 H306 0.930 . S
C289 C288 1.380 . S
C289 C296 1.357 . S
C290 C281 1.511 . S
C290 C291 1.341 . S
C290 C292 1.371 . S
C291 C290 1.341 . S
C291 C295 1.394 . S
C291 H307 0.930 . S
C292 C290 1.371 . S
C292 C293 1.392 . S
C292 H308 0.931 . S
C293 C292 1.392 . S
C293 C294 1.331 . S
C293 H311 0.932 . S
C294 C293 1.331 . S
C294 C295 1.336 . S
C295 C291 1.394 . S
C295 C294 1.336 . S
C295 H310 0.929 . S
C296 C286 1.386 . S
C296 C289 1.357 . S
C296 H309 0.928 . S
H297 C273 0.931 . S
H298 C275 0.930 . S
H299 C277 0.929 . S
H300 C278 0.931 . S
H301 C280 0.930 . S
H302 C284 0.931 . S
H303 C282 0.931 . S
H304 C286 0.931 . S
H305 C287 0.929 . S
H306 C288 0.930 . S
H307 C291 0.930 . S
H308 C292 0.931 . S
H309 C296 0.928 . S
H310 C295 0.929 . S
H311 C293 0.932 . S
Zn312 O318 1.920 1_455 S
Zn312 O324 1.898 . S
Zn312 O327 1.905 . S
Zn313 O321 1.905 1_655 S
Zn313 O322 1.898 . S
Zn313 O330 1.920 . S
Zn314 O317 2.080 1_455 S
Zn314 O320 2.114 . S
Zn314 O323 2.120 1_455 S
Zn314 O325 2.120 . S
Zn314 O326 2.114 . S
Zn314 O329 2.080 1_455 S
C315 O320 1.166 . S
C315 O321 1.182 . S
C316 O322 1.167 . S
C316 O323 1.299 . S
O317 Zn314 2.080 1_655 S
O317 C331 1.305 . S
O318 Zn312 1.920 1_655 S
O318 C331 1.234 . S
C319 O324 1.167 . S
C319 O325 1.299 . S
O320 Zn314 2.114 . S
O320 C315 1.166 . S
O321 Zn313 1.905 1_455 S
O321 C315 1.182 . S
O322 Zn313 1.898 . S
O322 C316 1.167 . S
O323 Zn314 2.120 1_655 S
O323 C316 1.299 . S
O324 Zn312 1.898 . S
O324 C319 1.167 . S
O325 Zn314 2.120 . S
O325 C319 1.299 . S
O326 Zn314 2.114 . S
O326 C328 1.166 . S
O327 Zn312 1.905 . S
O327 C328 1.182 . S
C328 O326 1.166 . S
C328 O327 1.182 . S
O329 Zn314 2.080 1_655 S
O329 C332 1.305 . S
O330 Zn313 1.920 . S
O330 C332 1.234 . S
C331 O317 1.305 . S
C331 O318 1.234 . S
C332 O329 1.305 . S
C332 O330 1.234 . S
Zn333 O339 1.920 . S
Zn333 O345 1.898 . S
Zn333 O348 1.905 . S
Zn334 O342 1.905 . S
Zn334 O343 1.898 . S
Zn334 O351 1.920 . S
Zn335 O338 2.080 . S
Zn335 O341 2.114 . S
Zn335 O344 2.120 . S
Zn335 O346 2.120 . S
Zn335 O347 2.114 . S
Zn335 O350 2.080 . S
C336 O341 1.166 . S
C336 O342 1.182 . S
C337 O343 1.167 . S
C337 O344 1.299 . S
O338 Zn335 2.080 . S
O338 C352 1.305 . S
O339 Zn333 1.920 . S
O339 C352 1.234 . S
C340 O345 1.167 . S
C340 O346 1.299 . S
O341 Zn335 2.114 . S
O341 C336 1.166 . S
O342 Zn334 1.905 . S
O342 C336 1.182 . S
O343 Zn334 1.898 . S
O343 C337 1.167 . S
O344 Zn335 2.120 . S
O344 C337 1.299 . S
O345 Zn333 1.898 . S
O345 C340 1.167 . S
O346 Zn335 2.120 . S
O346 C340 1.299 . S
O347 Zn335 2.114 . S
O347 C349 1.166 . S
O348 Zn333 1.905 . S
O348 C349 1.182 . S
C349 O347 1.166 . S
C349 O348 1.182 . S
O350 Zn335 2.080 . S
O350 C353 1.305 . S
O351 Zn334 1.920 . S
O351 C353 1.234 . S
C352 O338 1.305 . S
C352 O339 1.234 . S
C353 O350 1.305 . S
C353 O351 1.234 . S
Zn354 O360 1.920 . S
Zn354 O366 1.898 . S
Zn354 O369 1.905 1_455 S
Zn355 O363 1.905 . S
Zn355 O364 1.898 . S
Zn355 O372 1.920 1_655 S
Zn356 O359 2.092 . S
Zn356 O362 2.101 1_455 S
Zn356 O365 2.108 1_455 S
Zn356 O367 2.133 . S
Zn356 O368 2.104 1_455 S
Zn356 O371 2.090 . S
C357 O362 1.166 . S
C357 O363 1.182 . S
C358 O364 1.167 . S
C358 O365 1.299 . S
O359 Zn356 2.092 . S
O359 C373 1.305 . S
O360 Zn354 1.920 . S
O360 C373 1.234 . S
C361 O366 1.167 . S
C361 O367 1.299 . S
O362 Zn356 2.101 1_655 S
O362 C357 1.166 . S
O363 Zn355 1.905 . S
O363 C357 1.182 . S
O364 Zn355 1.898 . S
O364 C358 1.167 . S
O365 Zn356 2.108 1_655 S
O365 C358 1.299 . S
O366 Zn354 1.898 . S
O366 C361 1.167 . S
O367 Zn356 2.133 . S
O367 C361 1.299 . S
O368 Zn356 2.104 1_655 S
O368 C370 1.166 . S
O369 Zn354 1.905 1_655 S
O369 C370 1.182 . S
C370 O368 1.166 . S
C370 O369 1.182 . S
O371 Zn356 2.090 . S
O371 C374 1.305 . S
O372 Zn355 1.920 1_455 S
O372 C374 1.234 . S
C373 O359 1.305 . S
C373 O360 1.234 . S
C374 O371 1.305 . S
C374 O372 1.234 . S
Zn375 O381 1.920 . S
Zn375 O387 1.898 . S
Zn375 O390 1.905 . S
Zn376 O384 1.905 . S
Zn376 O385 1.898 . S
Zn376 O393 1.920 . S
Zn377 O380 2.080 . S
Zn377 O383 2.114 . S
Zn377 O386 2.120 . S
Zn377 O388 2.120 . S
Zn377 O389 2.114 . S
Zn377 O392 2.080 . S
C378 O383 1.166 . S
C378 O384 1.182 . S
C379 O385 1.167 . S
C379 O386 1.299 . S
O380 Zn377 2.080 . S
O380 C394 1.305 . S
O381 Zn375 1.920 . S
O381 C394 1.234 . S
C382 O387 1.167 . S
C382 O388 1.299 . S
O383 Zn377 2.114 . S
O383 C378 1.166 . S
O384 Zn376 1.905 . S
O384 C378 1.182 . S
O385 Zn376 1.898 . S
O385 C379 1.167 . S
O386 Zn377 2.120 . S
O386 C379 1.299 . S
O387 Zn375 1.898 . S
O387 C382 1.167 . S
O388 Zn377 2.120 . S
O388 C382 1.299 . S
O389 Zn377 2.114 . S
O389 C391 1.166 . S
O390 Zn375 1.905 . S
O390 C391 1.182 . S
C391 O389 1.166 . S
C391 O390 1.182 . S
O392 Zn377 2.080 . S
O392 C395 1.305 . S
O393 Zn376 1.920 . S
O393 C395 1.234 . S
C394 O380 1.305 . S
C394 O381 1.234 . S
C395 O392 1.305 . S
C395 O393 1.234 . S
C396 C397 1.387 1_545 S
C396 H400 0.950 . S
C396 C405 1.390 . S
C397 C396 1.387 1_565 S
C397 C399 1.387 . S
H398 C405 0.950 . S
C399 C397 1.387 . S
C399 C401 1.390 1_565 S
C399 H403 0.950 . S
H400 C396 0.950 . S
C401 C399 1.390 1_545 S
C401 C402 1.387 . S
C401 H404 0.950 . S
C402 C401 1.387 . S
C402 C405 1.387 . S
H403 C399 0.950 . S
H404 C401 0.950 . S
C405 C396 1.390 . S
C405 H398 0.950 . S
C405 C402 1.387 . S
C406 C407 1.387 . S
C406 H410 0.950 . S
C406 C415 1.390 . S
C407 C406 1.387 . S
C407 C409 1.387 . S
H408 C415 0.950 . S
C409 C407 1.387 . S
C409 C411 1.390 . S
C409 H413 0.950 . S
H410 C406 0.950 . S
C411 C409 1.390 . S
C411 C412 1.387 . S
C411 H414 0.950 . S
C412 C411 1.387 . S
C412 C415 1.387 . S
H413 C409 0.950 . S
H414 C411 0.950 . S
C415 C406 1.390 . S
C415 H408 0.950 . S
C415 C412 1.387 . S
C416 C417 1.387 . S
C416 H420 0.950 . S
C416 C425 1.390 . S
C417 C416 1.387 . S
C417 C419 1.387 . S
H418 C425 0.950 . S
C419 C417 1.387 . S
C419 C421 1.390 . S
C419 H423 0.950 . S
H420 C416 0.950 . S
C421 C419 1.390 . S
C421 C422 1.387 . S
C421 H424 0.950 . S
C422 C421 1.387 . S
C422 C425 1.387 . S
H423 C419 0.950 . S
H424 C421 0.950 . S
C425 C416 1.390 . S
C425 H418 0.950 . S
C425 C422 1.387 . S
C426 C427 1.387 1_545 S
C426 H430 0.950 1_545 S
C426 C435 1.390 . S
C427 C426 1.387 1_565 S
C427 C429 1.387 1_565 S
H428 C435 0.950 . S
C429 C427 1.387 1_545 S
C429 C431 1.390 . S
C429 H433 0.950 1_545 S
H430 C426 0.950 1_565 S
C431 C429 1.390 . S
C431 C432 1.387 . S
C431 H434 0.950 . S
C432 C431 1.387 . S
C432 C435 1.387 . S
H433 C429 0.950 1_565 S
H434 C431 0.950 . S
C435 C426 1.390 . S
C435 H428 0.950 . S
C435 C432 1.387 . S
C436 C437 1.387 1_565 S
C436 H440 0.950 1_565 S
C436 C445 1.390 . S
C437 C436 1.387 1_545 S
C437 C439 1.387 1_545 S
H438 C445 0.950 . S
C439 C437 1.387 1_565 S
C439 C441 1.390 . S
C439 H443 0.950 1_565 S
H440 C436 0.950 1_545 S
C441 C439 1.390 . S
C441 C442 1.387 . S
C441 H444 0.950 . S
C442 C441 1.387 . S
C442 C445 1.387 . S
H443 C439 0.950 1_545 S
H444 C441 0.950 . S
C445 C436 1.390 . S
C445 H438 0.950 . S
C445 C442 1.387 . S
C446 C447 1.387 . S
C446 H450 0.950 . S
C446 C455 1.390 . S
C447 C446 1.387 . S
C447 C449 1.387 . S
H448 C455 0.950 . S
C449 C447 1.387 . S
C449 C451 1.390 . S
C449 H453 0.950 . S
H450 C446 0.950 . S
C451 C449 1.390 . S
C451 C452 1.387 . S
C451 H454 0.950 . S
C452 C451 1.387 . S
C452 C455 1.387 . S
H453 C449 0.950 . S
H454 C451 0.950 . S
C455 C446 1.390 . S
C455 H448 0.950 . S
C455 C452 1.387 . S
C456 C457 1.387 . S
C456 H460 0.950 . S
C456 C465 1.390 . S
C457 C456 1.387 . S
C457 C459 1.387 . S
H458 C465 0.950 . S
C459 C457 1.387 . S
C459 C461 1.390 . S
C459 H463 0.950 . S
H460 C456 0.950 . S
C461 C459 1.390 . S
C461 C462 1.387 . S
C461 H464 0.950 . S
C462 C461 1.387 . S
C462 C465 1.387 . S
H463 C459 0.950 . S
H464 C461 0.950 . S
C465 C456 1.390 . S
C465 H458 0.950 . S
C465 C462 1.387 . S
C466 C467 1.387 1_565 S
C466 H470 0.950 1_565 S
C466 C475 1.390 . S
C467 C466 1.387 1_545 S
C467 C469 1.387 1_545 S
H468 C475 0.950 . S
C469 C467 1.387 1_565 S
C469 C471 1.390 . S
C469 H473 0.950 1_565 S
H470 C466 0.950 1_545 S
C471 C469 1.390 . S
C471 C472 1.387 . S
C471 H474 0.950 . S
C472 C471 1.387 . S
C472 C475 1.387 . S
H473 C469 0.950 1_545 S
H474 C471 0.950 . S
C475 C466 1.390 . S
C475 H468 0.950 . S
C475 C472 1.387 . S
C476 C477 1.387 . S
C476 H480 0.950 . S
C476 C485 1.390 . S
C477 C476 1.387 . S
C477 C479 1.387 . S
H478 C485 0.950 . S
C479 C477 1.387 . S
C479 C481 1.390 . S
C479 H483 0.950 . S
H480 C476 0.950 . S
C481 C479 1.390 . S
C481 C482 1.387 . S
C481 H484 0.950 . S
C482 C481 1.387 . S
C482 C485 1.387 . S
H483 C479 0.950 . S
H484 C481 0.950 . S
C485 C476 1.390 . S
C485 H478 0.950 . S
C485 C482 1.387 . S
C486 C487 1.387 . S
C486 H490 0.950 . S
C486 C495 1.390 . S
C487 C486 1.387 . S
C487 C489 1.387 . S
H488 C495 0.950 . S
C489 C487 1.387 . S
C489 C491 1.390 . S
C489 H493 0.950 . S
H490 C486 0.950 . S
C491 C489 1.390 . S
C491 C492 1.387 . S
C491 H494 0.950 . S
C492 C491 1.387 . S
C492 C495 1.387 . S
H493 C489 0.950 . S
H494 C491 0.950 . S
C495 C486 1.390 . S
C495 H488 0.950 . S
C495 C492 1.387 . S
C496 C497 1.387 . S
C496 H500 0.950 . S
C496 C505 1.390 . S
C497 C496 1.387 . S
C497 C499 1.387 . S
H498 C505 0.950 . S
C499 C497 1.387 . S
C499 C501 1.390 . S
C499 H503 0.950 . S
H500 C496 0.950 . S
C501 C499 1.390 . S
C501 C502 1.387 . S
C501 H504 0.950 . S
C502 C501 1.387 . S
C502 C505 1.387 . S
H503 C499 0.950 . S
H504 C501 0.950 . S
C505 C496 1.390 . S
C505 H498 0.950 . S
C505 C502 1.387 . S
C506 C507 1.387 . S
C506 H510 0.950 . S
C506 C515 1.390 . S
C507 C506 1.387 . S
C507 C509 1.387 . S
H508 C515 0.950 . S
C509 C507 1.387 . S
C509 C511 1.390 . S
C509 H513 0.950 . S
H510 C506 0.950 . S
C511 C509 1.390 . S
C511 C512 1.387 . S
C511 H514 0.950 . S
C512 C511 1.387 . S
C512 C515 1.387 . S
H513 C509 0.950 . S
H514 C511 0.950 . S
C515 C506 1.390 . S
C515 H508 0.950 . S
C515 C512 1.387 . S
C516 C517 1.387 . S
C516 H520 0.950 . S
C516 C525 1.390 . S
C517 C516 1.387 . S
C517 C519 1.387 . S
H518 C525 0.950 . S
C519 C517 1.387 . S
C519 C521 1.390 . S
C519 H523 0.950 . S
H520 C516 0.950 . S
C521 C519 1.390 . S
C521 C522 1.387 . S
C521 H524 0.950 . S
C522 C521 1.387 . S
C522 C525 1.387 . S
H523 C519 0.950 . S
H524 C521 0.950 . S
C525 C516 1.390 . S
C525 H518 0.950 . S
C525 C522 1.387 . S
C526 C527 1.387 . S
C526 H530 0.950 . S
C526 C535 1.390 . S
C527 C526 1.387 . S
C527 C529 1.387 . S
H528 C535 0.950 . S
C529 C527 1.387 . S
C529 C531 1.390 . S
C529 H533 0.950 . S
H530 C526 0.950 . S
C531 C529 1.390 . S
C531 C532 1.387 . S
C531 H534 0.950 . S
C532 C531 1.387 . S
C532 C535 1.387 . S
H533 C529 0.950 . S
H534 C531 0.950 . S
C535 C526 1.390 . S
C535 H528 0.950 . S
C535 C532 1.387 . S
C536 C537 1.387 . S
C536 H540 0.950 . S
C536 C545 1.390 . S
C537 C536 1.387 . S
C537 C539 1.387 . S
H538 C545 0.950 . S
C539 C537 1.387 . S
C539 C541 1.390 . S
C539 H543 0.950 . S
H540 C536 0.950 . S
C541 C539 1.390 . S
C541 C542 1.387 . S
C541 H544 0.950 . S
C542 C541 1.387 . S
C542 C545 1.387 . S
H543 C539 0.950 . S
H544 C541 0.950 . S
C545 C536 1.390 . S
C545 H538 0.950 . S
C545 C542 1.387 . S
C546 C547 1.387 . S
C546 H550 0.950 . S
C546 C555 1.390 . S
C547 C546 1.387 . S
C547 C549 1.387 . S
H548 C555 0.950 . S
C549 C547 1.387 . S
C549 C551 1.390 . S
C549 H553 0.950 . S
H550 C546 0.950 . S
C551 C549 1.390 . S
C551 C552 1.387 . S
C551 H554 0.950 . S
C552 C551 1.387 . S
C552 C555 1.387 . S
H553 C549 0.950 . S
H554 C551 0.950 . S
C555 C546 1.390 . S
C555 H548 0.950 . S
C555 C552 1.387 . S
C556 C557 1.387 . S
C556 H560 0.950 . S
C556 C565 1.390 . S
C557 C556 1.387 . S
C557 C559 1.387 . S
H558 C565 0.950 . S
C559 C557 1.387 . S
C559 C561 1.390 . S
C559 H563 0.950 . S
H560 C556 0.950 . S
C561 C559 1.390 . S
C561 C562 1.387 . S
C561 H564 0.950 . S
C562 C561 1.387 . S
C562 C565 1.387 . S
H563 C559 0.950 . S
H564 C561 0.950 . S
C565 C556 1.390 . S
C565 H558 0.950 . S
C565 C562 1.387 . S
C566 C567 1.387 . S
C566 H570 0.950 . S
C566 C575 1.390 . S
C567 C566 1.387 . S
C567 C569 1.387 . S
H568 C575 0.950 . S
C569 C567 1.387 . S
C569 C571 1.390 . S
C569 H573 0.950 . S
H570 C566 0.950 . S
C571 C569 1.390 . S
C571 C572 1.387 . S
C571 H574 0.950 . S
C572 C571 1.387 . S
C572 C575 1.387 . S
H573 C569 0.950 . S
H574 C571 0.950 . S
C575 C566 1.390 . S
C575 H568 0.950 . S
C575 C572 1.387 . S
C576 C577 1.387 . S
C576 H580 0.950 . S
C576 C585 1.390 . S
C577 C576 1.387 . S
C577 C579 1.387 . S
H578 C585 0.950 . S
C579 C577 1.387 . S
C579 C581 1.390 . S
C579 H583 0.950 . S
H580 C576 0.950 . S
C581 C579 1.390 . S
C581 C582 1.387 . S
C581 H584 0.950 . S
C582 C581 1.387 . S
C582 C585 1.387 . S
H583 C579 0.950 . S
H584 C581 0.950 . S
C585 C576 1.390 . S
C585 H578 0.950 . S
C585 C582 1.387 . S
C586 C587 1.387 . S
C586 H590 0.950 . S
C586 C595 1.390 . S
C587 C586 1.387 . S
C587 C589 1.387 . S
H588 C595 0.950 . S
C589 C587 1.387 . S
C589 C591 1.390 . S
C589 H593 0.950 . S
H590 C586 0.950 . S
C591 C589 1.390 . S
C591 C592 1.387 . S
C591 H594 0.950 . S
C592 C591 1.387 . S
C592 C595 1.387 . S
H593 C589 0.950 . S
H594 C591 0.950 . S
C595 C586 1.390 . S
C595 H588 0.950 . S
C595 C592 1.387 . S
C596 C597 1.387 . S
C596 H600 0.950 . S
C596 C605 1.390 . S
C597 C596 1.387 . S
C597 C599 1.387 . S
H598 C605 0.950 . S
C599 C597 1.387 . S
C599 C601 1.390 . S
C599 H603 0.950 . S
H600 C596 0.950 . S
C601 C599 1.390 . S
C601 C602 1.387 . S
C601 H604 0.950 . S
C602 C601 1.387 . S
C602 C605 1.387 . S
H603 C599 0.950 . S
H604 C601 0.950 . S
C605 C596 1.390 . S
C605 H598 0.950 . S
C605 C602 1.387 . S
C606 C607 1.387 . S
C606 H610 0.950 . S
C606 C615 1.390 . S
C607 C606 1.387 . S
C607 C609 1.387 . S
H608 C615 0.950 . S
C609 C607 1.387 . S
C609 C611 1.390 . S
C609 H613 0.950 . S
H610 C606 0.950 . S
C611 C609 1.390 . S
C611 C612 1.387 . S
C611 H614 0.950 . S
C612 C611 1.387 . S
C612 C615 1.387 . S
H613 C609 0.950 . S
H614 C611 0.950 . S
C615 C606 1.390 . S
C615 H608 0.950 . S
C615 C612 1.387 . S
C616 C617 1.387 . S
C616 H620 0.950 . S
C616 C625 1.390 . S
C617 C616 1.387 . S
C617 C619 1.387 . S
H618 C625 0.950 . S
C619 C617 1.387 . S
C619 C621 1.390 . S
C619 H623 0.950 . S
H620 C616 0.950 . S
C621 C619 1.390 . S
C621 C622 1.387 . S
C621 H624 0.950 . S
C622 C621 1.387 . S
C622 C625 1.387 . S
H623 C619 0.950 . S
H624 C621 0.950 . S
C625 C616 1.390 . S
C625 H618 0.950 . S
C625 C622 1.387 . S
C626 C627 1.387 . S
C626 H630 0.950 . S
C626 C635 1.390 . S
C627 C626 1.387 . S
C627 C629 1.387 . S
H628 C635 0.950 . S
C629 C627 1.387 . S
C629 C631 1.390 . S
C629 H633 0.950 . S
H630 C626 0.950 . S
C631 C629 1.390 . S
C631 C632 1.387 . S
C631 H634 0.950 . S
C632 C631 1.387 . S
C632 C635 1.387 . S
H633 C629 0.950 . S
H634 C631 0.950 . S
C635 C626 1.390 . S
C635 H628 0.950 . S
C635 C632 1.387 . S
C397 C235 1.495 . S
C402 C328 1.496 . S
C412 C336 1.488 . S
C407 C289 1.485 . S
C422 C340 1.479 . S
C417 C157 1.486 . S
C427 C211 1.475 . S
C432 C316 1.467 . S
C442 C357 1.492 . S
C437 C79 1.491 . S
C452 C391 1.497 . S
C447 C118 1.494 . S
C457 C1 1.480 . S
C462 C379 1.475 . S
C467 C40 1.483 . S
C472 C361 1.477 . S
C482 C315 1.342 . S
C477 C55 1.478 . S
C492 C349 1.344 . S
C487 C16 1.481 . S
C502 C353 1.337 . S
C497 C133 1.481 . S
C512 C331 1.339 . S
C507 C94 1.483 . S
C522 C370 1.350 . S
C517 C196 1.485 . S
C527 C172 1.483 . S
C532 C378 1.343 . S
C542 C394 1.344 . S
C537 C274 1.487 . S
C547 C250 1.483 . S
C552 C374 1.345 . S
C562 C319 1.311 . S
C557 C21 1.509 . S
C572 C337 1.310 . S
C567 C60 1.512 . S
C577 C99 1.496 . S
C582 C352 1.309 . S
C592 C332 1.310 . S
C587 C138 1.499 . S
C602 C358 1.312 . S
C597 C177 1.519 . S
C607 C216 1.510 . S
C612 C382 1.314 . S
C617 C255 1.505 . S
C622 C395 1.314 . S
C627 C294 1.498 . S
C632 C373 1.308 . S
