# Generated by pormake.
# Topology anh, (6,3)-cn, num edge types: 1
# Building blocks:
#     Node 0, Type 0, BuildingBlock: NUHQIS_clean_sbu_0, # of connection points: 6
#     Node 1, Type 0, BuildingBlock: NUHQIS_clean_sbu_0, # of connection points: 6
#     Node 2, Type 0, BuildingBlock: NUHQIS_clean_sbu_0, # of connection points: 6
#     Node 3, Type 1, BuildingBlock: MIDCAF_clean_linker_0, # of connection points: 3
#     Node 4, Type 1, BuildingBlock: MIDCAF_clean_linker_0, # of connection points: 3
#     Node 5, Type 1, BuildingBlock: MIDCAF_clean_linker_0, # of connection points: 3
#     Node 6, Type 1, BuildingBlock: MIDCAF_clean_linker_0, # of connection points: 3
#     Node 7, Type 1, BuildingBlock: MIDCAF_clean_linker_0, # of connection points: 3
#     Node 8, Type 1, BuildingBlock: MIDCAF_clean_linker_0, # of connection points: 3
#     Edge 9, Type (0, 1), BuildingBlock: XIVTED_clean_linker_0, # of connection points: 2
#     Edge 10, Type (0, 1), BuildingBlock: XIVTED_clean_linker_0, # of connection points: 2
#     Edge 11, Type (0, 1), BuildingBlock: XIVTED_clean_linker_0, # of connection points: 2
#     Edge 12, Type (0, 1), BuildingBlock: XIVTED_clean_linker_0, # of connection points: 2
#     Edge 13, Type (0, 1), BuildingBlock: XIVTED_clean_linker_0, # of connection points: 2
#     Edge 14, Type (0, 1), BuildingBlock: XIVTED_clean_linker_0, # of connection points: 2
#     Edge 15, Type (0, 1), BuildingBlock: XIVTED_clean_linker_0, # of connection points: 2
#     Edge 16, Type (0, 1), BuildingBlock: XIVTED_clean_linker_0, # of connection points: 2
#     Edge 17, Type (0, 1), BuildingBlock: XIVTED_clean_linker_0, # of connection points: 2
#     Edge 18, Type (0, 1), BuildingBlock: XIVTED_clean_linker_0, # of connection points: 2
#     Edge 19, Type (0, 1), BuildingBlock: XIVTED_clean_linker_0, # of connection points: 2
#     Edge 20, Type (0, 1), BuildingBlock: XIVTED_clean_linker_0, # of connection points: 2
#     Edge 21, Type (0, 1), BuildingBlock: XIVTED_clean_linker_0, # of connection points: 2
#     Edge 22, Type (0, 1), BuildingBlock: XIVTED_clean_linker_0, # of connection points: 2
#     Edge 23, Type (0, 1), BuildingBlock: XIVTED_clean_linker_0, # of connection points: 2
#     Edge 24, Type (0, 1), BuildingBlock: XIVTED_clean_linker_0, # of connection points: 2
#     Edge 25, Type (0, 1), BuildingBlock: XIVTED_clean_linker_0, # of connection points: 2
#     Edge 26, Type (0, 1), BuildingBlock: XIVTED_clean_linker_0, # of connection points: 2
# Relax obj value: 0.239
# Max RMSD: 0.189
# Mean RMSD: 0.155
data_MOF--net-anh--node1-NUHQIS_clean_sbu_0--node2-MIDCAF_clean_linker_0--edge1-XIVTED_clean_linker_0
_symmetry_space_group_name_H-M    P1
_symmetry_Int_Tables_number       1
_symmetry_cell_setting            triclinic
loop_
_symmetry_equiv_pos_as_xyz
'x, y, z'
_cell_length_a     36.230052
_cell_length_b     36.14873
_cell_length_c     68.594825
_cell_angle_alpha  91.513777
_cell_angle_beta   91.487945
_cell_angle_gamma 120.23705
loop_
_atom_site_label
_atom_site_type_symbol
_atom_site_fract_x
_atom_site_fract_y
_atom_site_fract_z
_atom_type_partial_charge
Tb0 Tb 0.14976 0.57979 0.14025 0.0
Eu1 Eu 0.09784 0.63103 0.13926 0.0
C2 C 0.12823 0.60924 0.17868 0.0
C3 C 1.04785 0.52737 0.14191 0.0
C4 C 0.23323 0.55389 0.15097 0.0
C5 C 0.30083 0.60841 0.16634 0.0
C6 C 0.25985 0.59581 0.15877 0.0
C7 C 0.24687 0.52403 0.1518 0.0
C8 C 0.28766 0.53645 0.15953 0.0
C9 C 0.31542 0.57904 0.16644 0.0
C10 C 0.19157 0.54153 0.14173 0.0
O11 O 0.12192 0.57146 0.11065 0.0
O12 O 0.12443 0.63555 0.10958 0.0
O13 O 0.16665 0.68429 0.14522 0.0
O14 O 0.20129 0.64699 0.13847 0.0
C15 C 0.12381 0.60278 0.10061 0.0
O16 O 1.05038 0.64342 0.1255 0.0
O17 O 1.0816 0.67558 0.15326 0.0
O18 O 1.09523 0.60669 0.1692 0.0
O19 O 0.15926 0.60958 0.16922 0.0
O20 O 1.08464 0.53052 0.14706 0.0
O21 O 1.04652 0.56047 0.13517 0.0
C22 C 0.20211 0.6833 0.14272 0.0
O23 O 0.16204 0.53551 0.15377 0.0
O24 O 0.19231 0.56442 0.12719 0.0
C25 C 1.00674 0.64292 0.14997 0.0
C26 C 0.92277 0.58344 0.15949 0.0
C27 C 0.93037 0.61464 0.14583 0.0
C28 C 0.97219 0.64406 0.141 0.0
C29 C 0.99916 0.61423 0.16487 0.0
C30 C 0.95754 0.58468 0.16955 0.0
C31 C 1.04869 0.66373 0.14118 0.0
H32 H 0.32153 0.64134 0.1716 0.0
H33 H 0.24934 0.61903 0.15852 0.0
H34 H 0.22647 0.49148 0.14596 0.0
H35 H 0.29828 0.51329 0.1591 0.0
H36 H 0.90399 0.61402 0.13772 0.0
H37 H 0.97732 0.66546 0.12929 0.0
H38 H 1.0252 0.61236 0.17191 0.0
H39 H 0.95248 0.56106 0.18016 0.0
Tb40 Tb 0.67346 0.12309 0.4793 0.0
Eu41 Eu 0.57043 0.07448 0.47522 0.0
C42 C 0.6197 0.09387 0.5158 0.0
C43 C 0.62273 1.02186 0.47818 0.0
C44 C 0.77629 0.21835 0.48506 0.0
C45 C 0.80663 0.28598 0.50393 0.0
C46 C 0.79375 0.24247 0.50269 0.0
C47 C 0.7742 0.23911 0.4684 0.0
C48 C 0.78752 0.28265 0.46957 0.0
C49 C 0.80276 0.30636 0.48747 0.0
C50 C 0.75261 0.17117 0.48527 0.0
O51 O 0.66129 0.12754 0.44822 0.0
O52 O 0.58918 0.07924 0.44412 0.0
O53 O 0.58964 0.14315 0.46944 0.0
O54 O 0.65585 0.17265 0.48486 0.0
C55 C 0.62649 0.10463 0.43695 0.0
O56 O 0.50893 1.02404 0.46269 0.0
O57 O 0.51081 1.06414 0.48709 0.0
O58 O 0.59154 0.09933 0.50611 0.0
O59 O 0.64958 0.09153 0.50655 0.0
O60 O 0.65815 1.05663 0.47358 0.0
O61 O 0.58807 1.02354 0.48204 0.0
C62 C 0.62405 0.17662 0.47748 0.0
O63 O 0.72584 0.15613 0.49919 0.0
O64 O 0.73544 0.14997 0.46869 0.0
C65 C 0.46391 0.99021 0.48796 0.0
C66 C 0.42305 0.9096 0.50445 0.0
C67 C 0.3999 0.92202 0.4921 0.0
C68 C 0.42033 0.96204 0.48378 0.0
C69 C 0.48637 0.97907 0.50132 0.0
C70 C 0.46615 0.93894 0.50942 0.0
C71 C 0.48773 1.02853 0.47673 0.0
H72 H 0.81818 0.3032 0.51795 0.0
H73 H 0.79516 0.22708 0.51581 0.0
H74 H 0.76061 0.22147 0.45459 0.0
H75 H 0.78539 0.29758 0.45644 0.0
H76 H 0.36674 0.89971 0.48781 0.0
H77 H 0.40271 0.97008 0.4734 0.0
H78 H 0.52013 1.0006 0.50473 0.0
H79 H 0.48463 0.93015 0.51889 0.0
Tb80 Tb 0.65096 0.64546 0.81216 0.0
Eu81 Eu 0.60149 0.54267 0.80442 0.0
C82 C 0.62775 0.58393 0.84646 0.0
C83 C 0.70611 0.59839 0.80942 0.0
C84 C 0.66032 0.74359 0.83041 0.0
C85 C 0.59807 0.7317 0.84791 0.0
C86 C 0.62718 0.719 0.84285 0.0
C87 C 0.66617 0.7829 0.82453 0.0
C88 C 0.63705 0.79573 0.82965 0.0
C89 C 0.6015 0.76911 0.84056 0.0
C90 C 0.6821 0.72393 0.82051 0.0
O91 O 0.6585 0.63455 0.78125 0.0
O92 O 0.59636 0.57069 0.77646 0.0
O93 O 0.54971 0.55662 0.81366 0.0
O94 O 0.58351 0.62807 0.80755 0.0
C95 C 0.62811 0.60494 0.76945 0.0
O96 O 0.5889 0.48597 0.7869 0.0
O97 O 0.55456 0.4791 0.81329 0.0
O98 O 0.63086 0.55705 0.83456 0.0
O99 O 0.62425 0.61554 0.83956 0.0
O100 O 0.70395 0.63238 0.8152 0.0
O101 O 0.67183 0.56292 0.80257 0.0
C102 C 0.54865 0.59219 0.81156 0.0
O103 O 0.6901 0.69892 0.83094 0.0
O104 O 0.66502 0.70623 0.80336 0.0
C105 C 0.57933 0.43069 0.80732 0.0
C106 C 0.61521 0.38226 0.82079 0.0
C107 C 0.61118 0.38688 0.8007 0.0
C108 C 0.59322 0.41067 0.79403 0.0
C109 C 0.58261 0.42542 0.82746 0.0
C110 C 0.60016 0.40114 0.83412 0.0
C111 C 0.56539 0.45999 0.80012 0.0
H112 H 0.57118 0.71075 0.85642 0.0
H113 H 0.62177 0.68832 0.84746 0.0
H114 H 0.69119 0.802 0.81475 0.0
H115 H 0.64027 0.82453 0.82359 0.0
H116 H 0.62157 0.37169 0.79009 0.0
H117 H 0.591 0.41415 0.77847 0.0
H118 H 0.5724 0.44064 0.83812 0.0
H119 H 0.60265 0.39773 0.84966 0.0
C120 C 0.51359 0.95716 0.18603 0.0
C121 C 0.48762 0.95895 0.17091 0.0
C122 C 0.50161 0.99915 0.16265 0.0
C123 C 0.53982 1.03631 0.16964 0.0
H124 H 0.67401 0.17424 0.15988 0.0
H125 H 0.73701 0.23743 0.14746 0.0
H126 H 0.80618 0.25467 0.20225 0.0
H127 H 0.74475 0.19282 0.21439 0.0
H128 H 0.6904 0.17142 0.2527 0.0
H129 H 0.68979 0.17224 0.28824 0.0
H130 H 0.57823 1.04532 0.28512 0.0
H131 H 0.57814 1.04488 0.24969 0.0
H132 H 0.56903 0.99124 0.20531 0.0
H133 H 0.50411 0.92733 0.19302 0.0
H134 H 0.48279 1.00199 0.1509 0.0
H135 H 0.54883 0.06678 0.16341 0.0
N136 N 0.63266 0.1074 0.18638 0.0
N137 N 0.66544 0.1406 0.21701 0.0
N138 N 0.60199 0.07456 0.2156 0.0
C139 C 0.66573 0.14107 0.19715 0.0
C140 C 0.63383 0.10786 0.22638 0.0
C141 C 0.60065 0.07368 0.19574 0.0
C142 C 0.70375 0.17793 0.18822 0.0
C143 C 0.70281 0.19137 0.16917 0.0
C144 C 0.73893 0.2279 0.16211 0.0
C145 C 0.77722 0.25146 0.17376 0.0
C146 C 0.77791 0.23745 0.19262 0.0
C147 C 0.74211 0.20173 0.19968 0.0
C148 C 0.6342 0.10816 0.24817 0.0
C149 C 0.6657 0.14363 0.25956 0.0
C150 C 0.66552 0.14401 0.28002 0.0
C151 C 0.63387 0.10892 0.2897 0.0
C152 C 0.60268 0.0733 0.27828 0.0
C153 C 0.60279 0.07295 0.25786 0.0
C154 C 0.56463 1.0344 0.18531 0.0
C155 C 0.55105 0.9941 0.19316 0.0
C156 C 0.66238 0.48603 0.52245 0.0
C157 C 0.63899 0.46302 0.50529 0.0
C158 C 0.6162 0.47927 0.49498 0.0
C159 C 0.61641 0.51679 0.50183 0.0
H160 H 0.65942 0.67815 0.49465 0.0
H161 H 0.65681 0.74067 0.48275 0.0
H162 H 0.58067 0.73496 0.53117 0.0
H163 H 0.58295 0.67339 0.5427 0.0
H164 H 0.63644 0.66997 0.58427 0.0
H165 H 0.63707 0.67122 0.61989 0.0
H166 H 0.6338 0.55016 0.61905 0.0
H167 H 0.6329 0.54861 0.58353 0.0
H168 H 0.67996 0.53851 0.5429 0.0
H169 H 0.6799 0.47481 0.5311 0.0
H170 H 0.59798 0.46289 0.48162 0.0
H171 H 0.59769 0.52757 0.49382 0.0
N172 N 0.63016 0.60455 0.51905 0.0
N173 N 0.62833 0.63692 0.54909 0.0
N174 N 0.63651 0.5769 0.54894 0.0
C175 C 0.62683 0.63612 0.52921 0.0
C176 C 0.63319 0.6077 0.55909 0.0
C177 C 0.63503 0.57457 0.52907 0.0
C178 C 0.6213 0.67027 0.51966 0.0
C179 C 0.64145 0.6898 0.50249 0.0
C180 C 0.64036 0.72609 0.49581 0.0
C181 C 0.61849 0.74342 0.50592 0.0
C182 C 0.59739 0.72277 0.5227 0.0
C183 C 0.5989 0.68722 0.52942 0.0
C184 C 0.63445 0.60909 0.58088 0.0
C185 C 0.6359 0.64359 0.59164 0.0
C186 C 0.63654 0.64448 0.61212 0.0
C187 C 0.63536 0.61075 0.62238 0.0
C188 C 0.6342 0.57644 0.61164 0.0
C189 C 0.63391 0.57569 0.59121 0.0
C190 C 0.63889 0.53874 0.51937 0.0
C191 C 0.66221 0.52284 0.52934 0.0
C192 C 1.01195 0.62911 0.85384 0.0
C193 C 0.98821 0.60529 0.83689 0.0
C194 C 1.00334 0.58134 0.82665 0.0
C195 C 1.04048 0.58086 0.83341 0.0
H196 H 0.20378 0.62682 0.82697 0.0
H197 H 0.26721 0.62566 0.81543 0.0
H198 H 0.26133 0.54892 0.86368 0.0
H199 H 0.19893 0.54969 0.87482 0.0
H200 H 0.19688 0.6177 0.91662 0.0
H201 H 0.19684 0.61877 0.95232 0.0
H202 H 1.06117 0.57177 0.94967 0.0
H203 H 1.06118 0.57152 0.914 0.0
H204 H 1.06459 0.6463 0.87405 0.0
H205 H 1.00157 0.64748 0.86243 0.0
H206 H 0.98635 0.56273 0.81347 0.0
H207 H 1.05036 0.56119 0.82552 0.0
N208 N 0.12929 0.59582 0.85077 0.0
N209 N 0.15974 0.59204 0.88098 0.0
N210 N 0.09865 0.59824 0.88039 0.0
C211 C 0.16047 0.5923 0.86114 0.0
C212 C 0.12912 0.59488 0.89071 0.0
C213 C 0.09807 0.59888 0.86057 0.0
C214 C 0.19573 0.58825 0.85186 0.0
C215 C 0.21565 0.60909 0.83486 0.0
C216 C 0.25244 0.60881 0.82838 0.0
C217 C 0.26993 0.5871 0.83853 0.0
C218 C 0.24905 0.56551 0.85517 0.0
C219 C 0.21299 0.56618 0.86168 0.0
C220 C 0.12905 0.59461 0.91241 0.0
C221 C 0.167 0.60751 0.92362 0.0
C222 C 0.16706 0.60833 0.94407 0.0
C223 C 0.129 0.59533 0.95378 0.0
C224 C 1.09093 0.58173 0.94259 0.0
C225 C 1.09103 0.58182 0.92216 0.0
C226 C 1.06313 0.6038 0.85075 0.0
C227 C 1.04837 0.62826 0.86061 0.0
C228 C 0.2515 0.64814 0.44269 0.0
C229 C 0.24078 0.63511 0.46193 0.0
C230 C 0.19795 0.60548 0.4655 0.0
C231 C 0.16602 0.59393 0.45091 0.0
H232 H 1.07348 0.64548 0.44771 0.0
H233 H 1.01002 0.62627 0.46604 0.0
H234 H 0.93137 0.53732 0.41872 0.0
H235 H 0.99449 0.55875 0.40012 0.0
H236 H 1.0519 0.58388 0.35895 0.0
H237 H 1.05776 0.5849 0.32381 0.0
H238 H 0.19227 0.62698 0.33114 0.0
H239 H 0.18617 0.6248 0.36648 0.0
H240 H 0.22843 0.64915 0.41374 0.0
H241 H 0.28404 0.67109 0.4393 0.0
H242 H 0.18869 0.59382 0.47998 0.0
H243 H 0.13294 0.57366 0.4545 0.0
N244 N 0.10799 0.60696 0.42621 0.0
N245 N 1.08015 0.60391 0.39466 0.0
N246 N 0.14637 0.60729 0.39916 0.0
C247 C 1.07691 0.60552 0.41426 0.0
C248 C 0.11499 0.60514 0.38698 0.0
C249 C 0.14255 0.60748 0.4188 0.0
C250 C 1.03874 0.60255 0.42281 0.0
C251 C 1.04234 0.62291 0.44104 0.0
C252 C 1.00598 0.61183 0.45153 0.0
C253 C 0.9656 0.57903 0.44425 0.0
C254 C 0.96174 0.56266 0.42494 0.0
C255 C 0.99806 0.5746 0.41425 0.0
C256 C 0.11864 0.60455 0.36556 0.0
C257 C 1.08278 0.59335 0.35313 0.0
C258 C 1.08618 0.59414 0.33294 0.0
C259 C 0.1256 0.60652 0.32465 0.0
C260 C 0.16136 0.61698 0.33705 0.0
C261 C 0.15789 0.61589 0.35731 0.0
C262 C 0.17645 0.61091 0.43235 0.0
C263 C 0.21956 0.63588 0.42798 0.0
C264 C 0.63677 0.15037 0.77466 0.0
C265 C 0.63067 0.14229 0.79463 0.0
C266 C 0.60496 0.09985 0.8001 0.0
C267 C 0.58345 0.06672 0.78592 0.0
H268 H 0.44503 0.95836 0.76982 0.0
H269 H 0.41541 0.899 0.79168 0.0
H270 H 0.46332 0.83361 0.75586 0.0
H271 H 0.49141 0.89231 0.73375 0.0
H272 H 0.52051 0.95441 0.6879 0.0
H273 H 0.53635 0.96753 0.65343 0.0
H274 H 0.60799 0.10379 0.66714 0.0
H275 H 0.59248 0.09104 0.70138 0.0
H276 H 0.61953 0.12488 0.74524 0.0
H277 H 0.6558 0.18274 0.76986 0.0
H278 H 0.60007 0.09248 0.81535 0.0
H279 H 0.56276 1.03459 0.79066 0.0
N280 N 0.52797 1.0035 0.75652 0.0
N281 N 0.51296 0.97642 0.72402 0.0
N282 N 0.5694 1.04644 0.73186 0.0
C283 C 0.50369 0.97131 0.74319 0.0
C284 C 0.54552 1.01445 0.71825 0.0
C285 C 0.56108 1.04095 0.75105 0.0
C286 C 0.47126 0.93008 0.75045 0.0
C287 C 0.44709 0.93015 0.76611 0.0
C288 C 0.43032 0.89626 0.77866 0.0
C289 C 0.43844 0.8624 0.77594 0.0
C290 C 0.45664 0.85929 0.7585 0.0
C291 C 0.47288 0.893 0.74576 0.0
C292 C 0.55513 1.02164 0.69739 0.0
C293 C 0.53964 0.98713 0.68355 0.0
C294 C 0.54894 0.99459 0.66387 0.0
C295 C 0.57329 1.03667 0.65768 0.0
C296 C 0.58885 0.07106 0.67151 0.0
C297 C 0.58008 1.06365 0.69114 0.0
C298 C 0.58743 0.07528 0.76595 0.0
C299 C 0.6155 0.1172 0.76048 0.0
C300 C 0.66256 0.40251 0.08845 0.0
C301 C 0.64811 0.38874 0.10722 0.0
C302 C 0.60645 0.37866 0.11154 0.0
C303 C 0.58333 0.39005 0.09895 0.0
H304 H 0.58937 0.50191 0.11971 0.0
H305 H 0.57423 0.54187 0.14408 0.0
H306 H 0.52498 0.58777 0.09848 0.0
H307 H 0.54134 0.54875 0.07399 0.0
H308 H 0.55846 0.53005 0.0294 0.0
H309 H 0.56577 0.54809 -0.00472 0.0
H310 H 0.62697 0.47332 -0.01443 0.0
H311 H 0.61852 0.45419 0.01954 0.0
H312 H 0.65349 0.42907 0.06247 0.0
H313 H 0.69439 0.41037 0.08454 0.0
H314 H 0.59396 0.36692 0.12566 0.0
H315 H 0.55366 0.38699 0.10371 0.0
N316 N 0.57885 0.46307 0.08646 0.0
N317 N 0.57468 0.50298 0.06113 0.0
N318 N 0.59122 0.44889 0.05452 0.0
C319 C 0.57253 0.49482 0.08039 0.0
C320 C 0.58383 0.48003 0.04808 0.0
C321 C 0.58783 0.43976 0.07371 0.0
C322 C 0.56575 0.52148 0.09492 0.0
C323 C 0.5756 0.52076 0.11484 0.0
C324 C 0.56708 0.54382 0.12883 0.0
C325 C 0.54816 0.56779 0.12327 0.0
C326 C 0.54017 0.57013 0.10327 0.0
C327 C 0.54906 0.54735 0.08923 0.0
C328 C 0.58781 0.49053 0.02723 0.0
C329 C 0.57345 0.51736 0.02 0.0
C330 C 0.57788 0.52799 0.00043 0.0
C331 C 0.597 0.51223 -0.01235 0.0
C332 C 0.61144 0.48547 -0.00508 0.0
C333 C 0.60674 0.47459 0.01445 0.0
C334 C 0.60125 0.41081 0.08175 0.0
C335 C 0.63911 0.41338 0.07573 0.0
H336 H 0.34939 0.54023 0.18843 0.0
H337 H 0.54851 0.64415 0.12377 0.0
H338 H 0.38507 0.6505 0.15399 0.0
H339 H 0.50902 0.53103 0.15671 0.0
H340 H 0.50421 0.66213 0.14361 0.0
H341 H 0.42189 0.55245 0.18654 0.0
C342 C 0.37287 0.56769 0.18091 0.0
C343 C 0.36098 0.59358 0.17083 0.0
C344 C 0.50612 0.63396 0.14683 0.0
C345 C 0.44347 0.60725 0.16823 0.0
C346 C 0.53122 0.62357 0.13542 0.0
C347 C 0.5314 0.58532 0.13816 0.0
C348 C 0.48063 0.60555 0.16085 0.0
C349 C 0.50953 0.56058 0.15388 0.0
C350 C 0.41425 0.5747 0.17983 0.0
C351 C 0.39276 0.62935 0.16172 0.0
N352 N 0.48425 0.5706 0.16432 0.0
N353 N 0.43231 0.63446 0.16017 0.0
H354 H 0.86996 0.37192 0.50896 0.0
H355 H 0.87775 0.53726 0.4372 0.0
H356 H 0.76484 0.34619 0.46895 0.0
H357 H 0.97389 0.56386 0.48262 0.0
H358 H 0.82644 0.47584 0.45489 0.0
H359 H 0.89797 0.44818 0.50619 0.0
C360 C 0.85222 0.3822 0.49987 0.0
C361 C 0.8158 0.35246 0.48861 0.0
C362 C 0.85846 0.49596 0.46126 0.0
C363 C 0.84859 0.44019 0.48489 0.0
C364 C 0.88786 0.53104 0.45112 0.0
C365 C 0.9309 0.55467 0.45786 0.0
C366 C 0.87244 0.48451 0.47814 0.0
C367 C 0.9415 0.54624 0.47644 0.0
C368 C 0.86835 0.42596 0.49824 0.0
C369 C 0.79417 0.36799 0.4772 0.0
N370 N 0.91284 0.51114 0.48563 0.0
N371 N 0.81148 0.4108 0.47523 0.0
H372 H 0.51759 0.70985 0.83312 0.0
H373 H 0.46607 0.89394 0.81332 0.0
H374 H 0.60147 0.8442 0.84802 0.0
H375 H 0.41645 0.7774 0.77736 0.0
H376 H 0.49246 0.86383 0.83743 0.0
H377 H 0.46036 0.72438 0.8244 0.0
C378 C 0.52353 0.74218 0.83517 0.0
C379 C 0.56458 0.77606 0.84084 0.0
C380 C 0.47456 0.84433 0.82456 0.0
C381 C 0.4994 0.79275 0.831 0.0
C382 C 0.45899 0.86126 0.81079 0.0
C383 C 0.43981 0.83852 0.79297 0.0
C384 C 0.47096 0.80446 0.82052 0.0
C385 C 0.43203 0.79646 0.79064 0.0
C386 C 0.49092 0.7504 0.83013 0.0
C387 C 0.57054 0.81734 0.8433 0.0
N388 N 0.44853 0.78108 0.80408 0.0
N389 N 0.53845 0.82467 0.83807 0.0
H390 H 0.90026 0.49957 0.1565 0.0
H391 H 0.65471 0.42687 0.14295 0.0
H392 H 0.84713 0.58179 0.16451 0.0
H393 H 0.71575 0.37367 0.10799 0.0
H394 H 0.71946 0.46503 0.1637 0.0
H395 H 0.82778 0.43788 0.15113 0.0
C396 C 0.87323 0.50436 0.1577 0.0
C397 C 0.87949 0.54576 0.16065 0.0
C398 C 0.71814 0.44388 0.15186 0.0
C399 C 0.79705 0.4757 0.1548 0.0
C400 C 0.68097 0.42157 0.14007 0.0
C401 C 0.68004 0.39767 0.12334 0.0
C402 C 0.75454 0.4422 0.14698 0.0
C403 C 0.71546 0.39256 0.12043 0.0
C404 C 0.83206 0.46926 0.1546 0.0
C405 C 0.84356 0.55043 0.16201 0.0
N406 N 0.75176 0.41549 0.13189 0.0
N407 N 0.80377 0.51579 0.15889 0.0
H408 H 0.45741 0.85803 0.50044 0.0
H409 H 0.22461 0.66041 0.49713 0.0
H410 H 0.34479 0.85799 0.51937 0.0
H411 H 0.32815 0.66731 0.46451 0.0
H412 H 0.27607 0.72042 0.51803 0.0
H413 H 0.41815 0.77971 0.49997 0.0
C414 C 0.42485 0.84156 0.50517 0.0
C415 C 0.40384 0.86429 0.50951 0.0
C416 C 0.28768 0.70806 0.50665 0.0
C417 C 0.35887 0.77503 0.50879 0.0
C418 C 0.25824 0.67331 0.49472 0.0
C419 C 0.27186 0.65967 0.47844 0.0
C420 C 0.33088 0.72973 0.5021 0.0
C421 C 0.31605 0.67795 0.47635 0.0
C422 C 0.40245 0.79688 0.50482 0.0
C423 C 0.36172 0.84147 0.5155 0.0
N424 N 0.344 0.71295 0.48767 0.0
N425 N 0.34033 0.79799 0.51461 0.0
H426 H 0.58212 0.31868 0.84686 0.0
H427 H 0.70659 0.21935 0.7969 0.0
H428 H 0.68844 0.38522 0.80977 0.0
H429 H 0.58709 0.14852 0.82532 0.0
H430 H 0.71777 0.28515 0.81341 0.0
H431 H 0.60164 0.26359 0.85089 0.0
C432 C 0.61033 0.32232 0.84004 0.0
C433 C 0.63292 0.3556 0.82744 0.0
C434 C 0.68971 0.25498 0.81646 0.0
C435 C 0.65498 0.29269 0.83171 0.0
C436 C 0.68325 0.21744 0.80699 0.0
C437 C 0.64505 0.17864 0.80911 0.0
C438 C 0.65752 0.2536 0.82793 0.0
C439 C 0.61668 0.17776 0.82291 0.0
C440 C 0.62142 0.29084 0.84229 0.0
C441 C 0.6694 0.35913 0.81909 0.0
N442 N 0.62293 0.2149 0.8314 0.0
N443 N 0.67878 0.3275 0.82102 0.0
H444 H 0.68813 1.00408 0.47303 0.0
H445 H 0.5524 0.76078 0.50701 0.0
H446 H 0.55661 0.94393 0.48905 0.0
H447 H 0.68339 0.81774 0.49056 0.0
H448 H 0.55345 0.82697 0.49954 0.0
H449 H 0.68705 0.93655 0.47835 0.0
C450 C 0.65892 0.97676 0.47756 0.0
C451 C 0.6224 0.98024 0.48053 0.0
C452 C 0.58202 0.82513 0.49748 0.0
C453 C 0.62104 0.90209 0.48678 0.0
C454 C 0.58155 0.78714 0.50185 0.0
C455 C 0.61801 0.78316 0.49965 0.0
C456 C 0.61928 0.86024 0.49081 0.0
C457 C 0.65434 0.81872 0.49244 0.0
C458 C 0.65837 0.93806 0.48063 0.0
C459 C 0.58565 0.94329 0.48649 0.0
N460 N 0.65411 0.85558 0.48843 0.0
N461 N 0.586 0.90619 0.48943 0.0
H462 H 0.72356 0.53302 0.80205 0.0
H463 H 0.97166 0.67211 0.83876 0.0
H464 H 0.78545 0.66567 0.82223 0.0
H465 H 0.91112 0.53833 0.82066 0.0
H466 H 0.90456 0.67046 0.83136 0.0
H467 H 0.79165 0.53457 0.80729 0.0
C468 C 0.75139 0.56263 0.80746 0.0
C469 C 0.74822 0.59932 0.81163 0.0
C470 C 0.90579 0.6414 0.82894 0.0
C471 C 0.82712 0.6012 0.81779 0.0
C472 C 0.94433 0.64222 0.83326 0.0
C473 C 0.94763 0.60517 0.83059 0.0
C474 C 0.86945 0.60324 0.82179 0.0
C475 C 0.91072 0.56786 0.82292 0.0
C476 C 0.79043 0.56341 0.8105 0.0
C477 C 0.78584 0.63651 0.81874 0.0
N478 N 0.8734 0.56781 0.81893 0.0
N479 N 0.82332 0.63641 0.82158 0.0
H480 H 0.28332 0.69408 0.14357 0.0
H481 H 0.40906 0.95128 0.16135 0.0
H482 H 0.21898 0.76678 0.1481 0.0
H483 H 0.46954 0.87508 0.16618 0.0
H484 H 0.34037 0.88543 0.15357 0.0
H485 H 0.35205 0.76059 0.14913 0.0
C486 C 0.28345 0.72395 0.14562 0.0
C487 C 0.24473 0.7243 0.14534 0.0
C488 C 0.3687 0.88311 0.15627 0.0
C489 C 0.32438 0.80154 0.15174 0.0
C490 C 0.40818 0.92089 0.16057 0.0
C491 C 0.44566 0.91923 0.16456 0.0
C492 C 0.36626 0.84294 0.1557 0.0
C493 C 0.44178 0.87837 0.16352 0.0
C494 C 0.32295 0.76211 0.14886 0.0
C495 C 0.24764 0.7645 0.14819 0.0
N496 N 0.40315 0.84222 0.15922 0.0
N497 N 0.28649 0.80121 0.15122 0.0
H498 H 0.56119 0.19698 0.46907 0.0
H499 H 0.70425 0.44428 0.50747 0.0
H500 H 0.69209 0.25477 0.491 0.0
H501 H 0.57161 0.38706 0.48842 0.0
H502 H 0.70094 0.37627 0.49979 0.0
H503 H 0.56502 0.26638 0.47427 0.0
C504 C 0.59085 0.22417 0.47488 0.0
C505 C 0.62628 0.21943 0.47964 0.0
C506 C 0.67249 0.37844 0.49723 0.0
C507 C 0.63086 0.29981 0.48569 0.0
C508 C 0.67426 0.4175 0.50171 0.0
C509 C 0.63802 0.42198 0.49886 0.0
C510 C 0.63413 0.34277 0.48977 0.0
C511 C 0.60055 0.38575 0.49084 0.0
C512 C 0.59296 0.26395 0.47789 0.0
C513 C 0.66373 0.25632 0.48716 0.0
N514 N 0.59954 0.34791 0.48672 0.0
N515 N 0.66494 0.29454 0.48995 0.0
H516 H 0.53018 0.65695 0.80542 0.0
H517 H 0.28758 0.52116 0.83963 0.0
H518 H 0.47163 0.52677 0.82361 0.0
H519 H 0.34439 0.65257 0.82338 0.0
H520 H 0.35383 0.52249 0.83242 0.0
H521 H 0.46228 0.65533 0.81007 0.0
C522 C 0.50323 0.628 0.81041 0.0
C523 C 0.50716 0.59189 0.81407 0.0
C524 C 0.35197 0.55111 0.83036 0.0
C525 C 0.42892 0.59033 0.81992 0.0
C526 C 0.31393 0.55048 0.83458 0.0
C527 C 0.30985 0.58696 0.83237 0.0
C528 C 0.38705 0.58851 0.82378 0.0
C529 C 0.34543 0.62349 0.82527 0.0
C530 C 0.46438 0.62722 0.81315 0.0
C531 C 0.47062 0.55546 0.82053 0.0
N532 N 0.38234 0.62339 0.82137 0.0
N533 N 0.4335 0.55574 0.8233 0.0
H534 H 0.96388 0.50497 0.13213 0.0
H535 H 0.86154 0.27363 0.17938 0.0
H536 H 1.03758 0.45422 0.15841 0.0
H537 H 0.78387 0.31887 0.15222 0.0
H538 H 0.92566 0.33897 0.17072 0.0
H539 H 0.89801 0.43726 0.13796 0.0
C540 C 0.96642 0.47973 0.13908 0.0
C541 C 1.00688 0.4858 0.14472 0.0
C542 C 0.89471 0.33478 0.16655 0.0
C543 C 0.93084 0.40792 0.15183 0.0
C544 C 0.85779 0.29728 0.17159 0.0
C545 C 0.81668 0.29035 0.16675 0.0
C546 C 0.89129 0.36647 0.15655 0.0
C547 C 0.81458 0.32234 0.15624 0.0
C548 C 0.92861 0.44101 0.14247 0.0
C549 C 1.00753 0.45152 0.15372 0.0
N550 N 0.85115 0.35893 0.15165 0.0
N551 N 0.97043 0.41454 0.15703 0.0
H552 H 1.09677 0.53184 0.076 0.0
H553 H 0.18164 0.66184 0.97942 0.0
H554 H 0.15225 0.66907 0.07586 0.0
H555 H 1.07652 0.53153 0.97752 0.0
H556 H 0.18049 0.66359 0.01521 0.0
H557 H 0.09796 0.52954 0.04021 0.0
C558 C 0.10931 0.56149 0.06846 0.0
C559 C 0.12431 0.60071 0.07896 0.0
C560 C 0.1577 0.63463 0.00695 0.0
C561 C 0.12632 0.59831 0.03807 0.0
C562 C 0.15849 0.63353 -0.01344 0.0
C563 C 0.12908 0.5965 0.9755 0.0
C564 C 0.12787 0.59815 0.0164 0.0
C565 C 0.09955 0.56081 -0.0145 0.0
C566 C 0.1098 0.56011 0.04805 0.0
C567 C 0.1401 0.6381 0.06838 0.0
N568 N 0.09989 0.56238 0.00538 0.0
N569 N 0.14101 0.63603 0.04856 0.0
H570 H 0.69806 0.14724 0.41514 0.0
H571 H 0.56383 0.07674 0.31252 0.0
H572 H 0.56057 0.06823 0.40921 0.0
H573 H 0.70177 0.14264 0.31695 0.0
H574 H 0.56261 0.07659 0.34803 0.0
H575 H 0.70061 0.14952 0.37946 0.0
C576 C 0.6684 0.13047 0.4064 0.0
C577 C 0.62904 0.10743 0.41532 0.0
C578 C 0.5932 0.09109 0.34127 0.0
C579 C 0.63178 0.10999 0.37437 0.0
C580 C 0.59394 0.09096 0.32091 0.0
C581 C 0.63297 0.10948 0.31154 0.0
C582 C 0.63177 0.11 0.35258 0.0
C583 C 0.67088 0.12832 0.32341 0.0
C584 C 0.66991 0.13173 0.386 0.0
C585 C 0.59172 0.08632 0.40312 0.0
N586 N 0.66932 0.12804 0.34325 0.0
N587 N 0.59405 0.08815 0.38337 0.0
H588 H 0.6856 0.67226 0.74799 0.0
H589 H 0.58628 0.54346 0.64517 0.0
H590 H 0.57491 0.54516 0.74146 0.0
H591 H 0.68191 0.67785 0.64933 0.0
H592 H 0.58507 0.54325 0.68071 0.0
H593 H 0.6878 0.675 0.71222 0.0
C594 C 0.66175 0.64501 0.7391 0.0
C595 C 0.63003 0.60844 0.74785 0.0
C596 C 0.60634 0.57288 0.6739 0.0
C597 C 0.63255 0.61125 0.70691 0.0
C598 C 0.60725 0.57294 0.65356 0.0
C599 C 0.63436 0.61069 0.64416 0.0
C600 C 0.63293 0.61079 0.68514 0.0
C601 C 0.66026 0.64807 0.65591 0.0
C602 C 0.66301 0.64661 0.71867 0.0
C603 C 0.59997 0.57411 0.7355 0.0
N604 N 0.65906 0.64715 0.67576 0.0
N605 N 0.6021 0.57633 0.71579 0.0
H606 H 0.5751 0.11558 0.54028 0.0
H607 H 0.60211 0.99887 0.63177 0.0
H608 H 0.65453 1.05807 0.5394 0.0
H609 H 0.56333 0.0936 0.63621 0.0
H610 H 0.61596 1.01423 0.59719 0.0
H611 H 0.56511 0.10225 0.57493 0.0
C612 C 0.59058 0.10026 0.54741 0.0
C613 C 0.61571 0.08792 0.53698 0.0
C614 C 0.60459 1.03172 0.60579 0.0
C615 C 0.60404 0.07219 0.57662 0.0
C616 C 0.59642 1.02277 0.62543 0.0
C617 C 0.58163 1.04507 0.63679 0.0
C618 C 0.59721 1.06265 0.59749 0.0
C619 C 0.57508 0.07598 0.62798 0.0
C620 C 0.58494 0.09276 0.5672 0.0
C621 C 0.63509 0.06828 0.54697 0.0
N622 N 0.58267 0.08368 0.60882 0.0
N623 N 0.62857 1.06067 0.56625 0.0
H624 H 0.62467 0.63364 0.8768 0.0
H625 H 0.58674 0.46033 0.9557 0.0
H626 H 0.62339 0.51531 0.86408 0.0
H627 H 0.61725 0.58924 0.97196 0.0
H628 H 0.59528 0.47901 0.92164 0.0
H629 H 0.61736 0.61714 0.91148 0.0
C630 C 0.62296 0.60433 0.88128 0.0
C631 C 0.62464 0.57583 0.86752 0.0
C632 C 0.60022 0.50329 0.93265 0.0
C633 C 0.61599 0.55671 0.90697 0.0
C634 C 0.59556 0.49269 0.95215 0.0
C635 C 0.60155 0.5233 0.9668 0.0
C636 C 0.61067 0.54477 0.92763 0.0
C637 C 0.61188 0.56444 0.96117 0.0
C638 C 0.61883 0.59496 0.90104 0.0
C639 C 0.62229 0.53831 0.87413 0.0
N640 N 0.61611 0.57399 0.94202 0.0
N641 N 0.61793 0.52981 0.89333 0.0
H642 H 1.07639 0.62193 0.20264 0.0
H643 H 0.17171 0.58341 0.30107 0.0
H644 H 0.18341 0.60051 0.20374 0.0
H645 H 1.08795 0.63603 0.29924 0.0
H646 H 0.17493 0.58632 0.26549 0.0
H647 H 1.07787 0.6232 0.23814 0.0
C648 C 0.10027 0.61752 0.21035 0.0
C649 C 0.12979 0.61104 0.20021 0.0
C650 C 0.15598 0.59733 0.27293 0.0
C651 C 0.13159 0.61235 0.24095 0.0
C652 C 0.15426 0.59585 0.29323 0.0
C653 C 0.12921 0.60914 0.30317 0.0
C654 C 0.13232 0.61199 0.26252 0.0
C655 C 0.1069 0.62453 0.29221 0.0
C656 C 0.10118 0.61839 0.23065 0.0
C657 C 0.16011 0.60568 0.211 0.0
N658 N 0.10882 0.62532 0.2725 0.0
N659 N 0.16009 0.60622 0.23083 0.0
loop_
_geom_bond_atom_site_label_1
_geom_bond_atom_site_label_2
_geom_bond_distance
_geom_bond_site_symmetry_2
_ccdc_geom_bond_type
Tb0 C10 2.825 . S
Tb0 O11 2.347 . S
Tb0 O14 2.366 . S
Tb0 O19 2.418 . S
Tb0 O20 2.384 1_455 S
Tb0 O23 2.479 . S
Tb0 O24 2.471 . S
Eu1 O12 2.418 . S
Eu1 O13 2.384 1_655 S
Eu1 O16 2.479 . S
Eu1 O17 2.471 . S
Eu1 O18 2.347 1_655 S
Eu1 O21 2.366 . S
Eu1 C31 2.825 . S
C2 O18 1.259 . S
C2 O19 1.265 . S
C3 O20 1.255 . S
C3 O21 1.265 . S
C4 C6 1.380 . S
C4 C7 1.374 . S
C4 C10 1.507 . S
C5 C6 1.384 . S
C5 C9 1.387 . S
C5 H32 0.930 . S
C6 C4 1.380 . S
C6 C5 1.384 . S
C6 H33 0.931 . S
C7 C4 1.374 . S
C7 C8 1.390 . S
C7 H34 0.930 . S
C8 C7 1.390 . S
C8 C9 1.391 . S
C8 H35 0.930 . S
C9 C5 1.387 . S
C9 C8 1.391 . S
C10 Tb0 2.825 . S
C10 C4 1.507 . S
C10 O23 1.238 . S
C10 O24 1.247 . S
O11 Tb0 2.347 . S
O11 C15 1.259 . S
O12 Eu1 2.418 . S
O12 C15 1.264 1_655 S
O13 Eu1 2.384 1_455 S
O13 C22 1.255 . S
O14 Tb0 2.366 . S
O14 C22 1.265 . S
C15 O11 1.259 . S
C15 O12 1.264 1_455 S
O16 Eu1 2.479 . S
O16 C31 1.238 . S
O17 Eu1 2.471 . S
O17 C31 1.247 . S
O18 Eu1 2.347 1_455 S
O18 C2 1.259 . S
O19 Tb0 2.418 . S
O19 C2 1.265 . S
O20 Tb0 2.384 1_655 S
O20 C3 1.255 . S
O21 Eu1 2.366 . S
O21 C3 1.265 . S
C22 O13 1.255 . S
C22 O14 1.265 . S
O23 Tb0 2.479 . S
O23 C10 1.238 . S
O24 Tb0 2.471 . S
O24 C10 1.247 . S
C25 C28 1.380 . S
C25 C29 1.374 . S
C25 C31 1.507 . S
C26 C27 1.387 . S
C26 C30 1.391 . S
C27 C26 1.387 . S
C27 C28 1.384 . S
C27 H36 0.930 . S
C28 C25 1.380 . S
C28 C27 1.384 . S
C28 H37 0.931 . S
C29 C25 1.374 . S
C29 C30 1.390 . S
C29 H38 0.930 . S
C30 C26 1.391 . S
C30 C29 1.390 . S
C30 H39 0.930 . S
C31 Eu1 2.825 . S
C31 O16 1.238 . S
C31 O17 1.247 . S
C31 C25 1.507 . S
H32 C5 0.930 . S
H33 C6 0.931 . S
H34 C7 0.930 . S
H35 C8 0.930 . S
H36 C27 0.930 . S
H37 C28 0.931 . S
H38 C29 0.930 . S
H39 C30 0.930 . S
Tb40 C50 2.825 . S
Tb40 O51 2.347 . S
Tb40 O54 2.366 . S
Tb40 O59 2.418 . S
Tb40 O60 2.384 1_545 S
Tb40 O63 2.479 . S
Tb40 O64 2.471 . S
Eu41 O52 2.418 . S
Eu41 O53 2.384 . S
Eu41 O56 2.479 1_545 S
Eu41 O57 2.471 1_545 S
Eu41 O58 2.347 . S
Eu41 O61 2.366 1_545 S
Eu41 C71 2.825 1_545 S
C42 O58 1.259 . S
C42 O59 1.265 . S
C43 O60 1.255 . S
C43 O61 1.265 . S
C44 C46 1.380 . S
C44 C47 1.374 . S
C44 C50 1.507 . S
C45 C46 1.384 . S
C45 C49 1.387 . S
C45 H72 0.930 . S
C46 C44 1.380 . S
C46 C45 1.384 . S
C46 H73 0.931 . S
C47 C44 1.374 . S
C47 C48 1.390 . S
C47 H74 0.930 . S
C48 C47 1.390 . S
C48 C49 1.391 . S
C48 H75 0.930 . S
C49 C45 1.387 . S
C49 C48 1.391 . S
C50 Tb40 2.825 . S
C50 C44 1.507 . S
C50 O63 1.238 . S
C50 O64 1.247 . S
O51 Tb40 2.347 . S
O51 C55 1.259 . S
O52 Eu41 2.418 . S
O52 C55 1.265 . S
O53 Eu41 2.384 . S
O53 C62 1.255 . S
O54 Tb40 2.366 . S
O54 C62 1.265 . S
C55 O51 1.259 . S
C55 O52 1.265 . S
O56 Eu41 2.479 1_565 S
O56 C71 1.238 . S
O57 Eu41 2.471 1_565 S
O57 C71 1.247 . S
O58 Eu41 2.347 . S
O58 C42 1.259 . S
O59 Tb40 2.418 . S
O59 C42 1.265 . S
O60 Tb40 2.384 1_565 S
O60 C43 1.255 . S
O61 Eu41 2.366 1_565 S
O61 C43 1.265 . S
C62 O53 1.255 . S
C62 O54 1.265 . S
O63 Tb40 2.479 . S
O63 C50 1.238 . S
O64 Tb40 2.471 . S
O64 C50 1.247 . S
C65 C68 1.380 . S
C65 C69 1.374 . S
C65 C71 1.507 . S
C66 C67 1.387 . S
C66 C70 1.391 . S
C67 C66 1.387 . S
C67 C68 1.384 . S
C67 H76 0.930 . S
C68 C65 1.380 . S
C68 C67 1.384 . S
C68 H77 0.931 . S
C69 C65 1.374 . S
C69 C70 1.390 . S
C69 H78 0.930 . S
C70 C66 1.391 . S
C70 C69 1.390 . S
C70 H79 0.930 . S
C71 Eu41 2.825 1_565 S
C71 O56 1.238 . S
C71 O57 1.247 . S
C71 C65 1.507 . S
H72 C45 0.930 . S
H73 C46 0.931 . S
H74 C47 0.930 . S
H75 C48 0.930 . S
H76 C67 0.930 . S
H77 C68 0.931 . S
H78 C69 0.930 . S
H79 C70 0.930 . S
Tb80 C90 2.825 . S
Tb80 O91 2.347 . S
Tb80 O94 2.366 . S
Tb80 O99 2.418 . S
Tb80 O100 2.384 . S
Tb80 O103 2.479 . S
Tb80 O104 2.471 . S
Eu81 O92 2.418 . S
Eu81 O93 2.384 . S
Eu81 O96 2.479 . S
Eu81 O97 2.471 . S
Eu81 O98 2.347 . S
Eu81 O101 2.366 . S
Eu81 C111 2.825 . S
C82 O98 1.259 . S
C82 O99 1.265 . S
C83 O100 1.255 . S
C83 O101 1.265 . S
C84 C86 1.380 . S
C84 C87 1.374 . S
C84 C90 1.507 . S
C85 C86 1.384 . S
C85 C89 1.387 . S
C85 H112 0.930 . S
C86 C84 1.380 . S
C86 C85 1.384 . S
C86 H113 0.931 . S
C87 C84 1.374 . S
C87 C88 1.390 . S
C87 H114 0.930 . S
C88 C87 1.390 . S
C88 C89 1.391 . S
C88 H115 0.930 . S
C89 C85 1.387 . S
C89 C88 1.391 . S
C90 Tb80 2.825 . S
C90 C84 1.507 . S
C90 O103 1.238 . S
C90 O104 1.247 . S
O91 Tb80 2.347 . S
O91 C95 1.259 . S
O92 Eu81 2.418 . S
O92 C95 1.265 . S
O93 Eu81 2.384 . S
O93 C102 1.255 . S
O94 Tb80 2.366 . S
O94 C102 1.265 . S
C95 O91 1.259 . S
C95 O92 1.265 . S
O96 Eu81 2.479 . S
O96 C111 1.238 . S
O97 Eu81 2.471 . S
O97 C111 1.247 . S
O98 Eu81 2.347 . S
O98 C82 1.259 . S
O99 Tb80 2.418 . S
O99 C82 1.265 . S
O100 Tb80 2.384 . S
O100 C83 1.255 . S
O101 Eu81 2.366 . S
O101 C83 1.265 . S
C102 O93 1.255 . S
C102 O94 1.265 . S
O103 Tb80 2.479 . S
O103 C90 1.238 . S
O104 Tb80 2.471 . S
O104 C90 1.247 . S
C105 C108 1.380 . S
C105 C109 1.374 . S
C105 C111 1.507 . S
C106 C107 1.387 . S
C106 C110 1.391 . S
C107 C106 1.387 . S
C107 C108 1.384 . S
C107 H116 0.930 . S
C108 C105 1.380 . S
C108 C107 1.384 . S
C108 H117 0.931 . S
C109 C105 1.374 . S
C109 C110 1.390 . S
C109 H118 0.930 . S
C110 C106 1.391 . S
C110 C109 1.390 . S
C110 H119 0.930 . S
C111 Eu81 2.825 . S
C111 O96 1.238 . S
C111 O97 1.247 . S
C111 C105 1.507 . S
H112 C85 0.930 . S
H113 C86 0.931 . S
H114 C87 0.930 . S
H115 C88 0.930 . S
H116 C107 0.930 . S
H117 C108 0.931 . S
H118 C109 0.930 . S
H119 C110 0.930 . S
C120 C121 1.384 . S
C120 H133 0.947 . S
C120 C155 1.382 . S
C121 C120 1.384 . S
C121 C122 1.378 . S
C122 C121 1.378 . S
C122 C123 1.378 . S
C122 H134 0.952 . S
C123 C122 1.378 . S
C123 H135 0.950 . S
C123 C154 1.383 . S
H124 C143 0.947 . S
H125 C144 0.946 . S
H126 C146 0.953 . S
H127 C147 0.945 . S
H128 C149 0.952 . S
H129 C150 0.949 . S
H130 C152 0.950 . S
H131 C153 0.948 . S
H132 C155 0.951 . S
H133 C120 0.947 . S
H134 C122 0.952 . S
H135 C123 0.950 . S
N136 C139 1.382 . S
N136 C141 1.363 1_545 S
N137 C139 1.371 . S
N137 C140 1.372 . S
N138 C140 1.361 1_565 S
N138 C141 1.377 . S
C139 N136 1.382 . S
C139 N137 1.371 . S
C139 C142 1.480 . S
C140 N137 1.372 . S
C140 N138 1.361 1_545 S
C140 C148 1.457 . S
C141 N136 1.363 1_565 S
C141 N138 1.377 . S
C141 C154 1.479 . S
C142 C139 1.480 . S
C142 C143 1.383 . S
C142 C147 1.385 . S
C143 H124 0.947 . S
C143 C142 1.383 . S
C143 C144 1.388 . S
C144 H125 0.946 . S
C144 C143 1.388 . S
C144 C145 1.384 . S
C145 C144 1.384 . S
C145 C146 1.377 . S
C146 H126 0.953 . S
C146 C145 1.377 . S
C146 C147 1.369 . S
C147 H127 0.945 . S
C147 C142 1.385 . S
C147 C146 1.369 . S
C148 C140 1.457 . S
C148 C149 1.372 . S
C148 C153 1.364 1_545 S
C149 H128 0.952 . S
C149 C148 1.372 . S
C149 C150 1.389 . S
C150 H129 0.949 . S
C150 C149 1.389 . S
C150 C151 1.387 . S
C151 C150 1.387 . S
C151 C152 1.372 1_545 S
C152 H130 0.950 . S
C152 C151 1.372 1_565 S
C152 C153 1.379 . S
C153 H131 0.948 . S
C153 C148 1.364 1_565 S
C153 C152 1.379 . S
C154 C123 1.383 . S
C154 C141 1.479 . S
C154 C155 1.398 . S
C155 C120 1.382 . S
C155 H132 0.951 . S
C155 C154 1.398 . S
C156 C157 1.384 . S
C156 H169 0.947 . S
C156 C191 1.382 . S
C157 C156 1.384 . S
C157 C158 1.378 . S
C158 C157 1.378 . S
C158 C159 1.378 . S
C158 H170 0.952 . S
C159 C158 1.378 . S
C159 H171 0.950 . S
C159 C190 1.383 . S
H160 C179 0.947 . S
H161 C180 0.946 . S
H162 C182 0.953 . S
H163 C183 0.945 . S
H164 C185 0.952 . S
H165 C186 0.949 . S
H166 C188 0.950 . S
H167 C189 0.948 . S
H168 C191 0.951 . S
H169 C156 0.947 . S
H170 C158 0.952 . S
H171 C159 0.950 . S
N172 C175 1.382 . S
N172 C177 1.363 . S
N173 C175 1.371 . S
N173 C176 1.372 . S
N174 C176 1.361 . S
N174 C177 1.377 . S
C175 N172 1.382 . S
C175 N173 1.371 . S
C175 C178 1.480 . S
C176 N173 1.372 . S
C176 N174 1.361 . S
C176 C184 1.457 . S
C177 N172 1.363 . S
C177 N174 1.377 . S
C177 C190 1.479 . S
C178 C175 1.480 . S
C178 C179 1.383 . S
C178 C183 1.385 . S
C179 H160 0.947 . S
C179 C178 1.383 . S
C179 C180 1.388 . S
C180 H161 0.946 . S
C180 C179 1.388 . S
C180 C181 1.384 . S
C181 C180 1.384 . S
C181 C182 1.377 . S
C182 H162 0.953 . S
C182 C181 1.377 . S
C182 C183 1.369 . S
C183 H163 0.945 . S
C183 C178 1.385 . S
C183 C182 1.369 . S
C184 C176 1.457 . S
C184 C185 1.372 . S
C184 C189 1.364 . S
C185 H164 0.952 . S
C185 C184 1.372 . S
C185 C186 1.389 . S
C186 H165 0.949 . S
C186 C185 1.389 . S
C186 C187 1.387 . S
C187 C186 1.387 . S
C187 C188 1.372 . S
C188 H166 0.950 . S
C188 C187 1.372 . S
C188 C189 1.379 . S
C189 H167 0.948 . S
C189 C184 1.364 . S
C189 C188 1.379 . S
C190 C159 1.383 . S
C190 C177 1.479 . S
C190 C191 1.398 . S
C191 C156 1.382 . S
C191 H168 0.951 . S
C191 C190 1.398 . S
C192 C193 1.384 . S
C192 H205 0.947 . S
C192 C227 1.382 . S
C193 C192 1.384 . S
C193 C194 1.378 . S
C194 C193 1.378 . S
C194 C195 1.378 . S
C194 H206 0.952 . S
C195 C194 1.378 . S
C195 H207 0.950 . S
C195 C226 1.383 . S
H196 C215 0.947 . S
H197 C216 0.946 . S
H198 C218 0.953 . S
H199 C219 0.945 . S
H200 C221 0.952 . S
H201 C222 0.949 . S
H202 C224 0.950 . S
H203 C225 0.948 . S
H204 C227 0.951 . S
H205 C192 0.947 . S
H206 C194 0.952 . S
H207 C195 0.950 . S
N208 C211 1.382 . S
N208 C213 1.363 1_455 S
N209 C211 1.371 . S
N209 C212 1.372 . S
N210 C212 1.361 1_655 S
N210 C213 1.377 . S
C211 N208 1.382 . S
C211 N209 1.371 . S
C211 C214 1.480 . S
C212 N209 1.372 . S
C212 N210 1.361 1_455 S
C212 C220 1.457 . S
C213 N208 1.363 1_655 S
C213 N210 1.377 . S
C213 C226 1.479 . S
C214 C211 1.480 . S
C214 C215 1.383 . S
C214 C219 1.385 . S
C215 H196 0.947 . S
C215 C214 1.383 . S
C215 C216 1.388 . S
C216 H197 0.946 . S
C216 C215 1.388 . S
C216 C217 1.384 . S
C217 C216 1.384 . S
C217 C218 1.377 . S
C218 H198 0.953 . S
C218 C217 1.377 . S
C218 C219 1.369 . S
C219 H199 0.945 . S
C219 C214 1.385 . S
C219 C218 1.369 . S
C220 C212 1.457 . S
C220 C221 1.372 . S
C220 C225 1.364 1_455 S
C221 H200 0.952 . S
C221 C220 1.372 . S
C221 C222 1.389 . S
C222 H201 0.949 . S
C222 C221 1.389 . S
C222 C223 1.387 . S
C223 C222 1.387 . S
C223 C224 1.372 1_455 S
C224 H202 0.950 . S
C224 C223 1.372 1_655 S
C224 C225 1.379 . S
C225 H203 0.948 . S
C225 C220 1.364 1_655 S
C225 C224 1.379 . S
C226 C195 1.383 . S
C226 C213 1.479 . S
C226 C227 1.398 . S
C227 C192 1.382 . S
C227 H204 0.951 . S
C227 C226 1.398 . S
C228 C229 1.384 . S
C228 H241 0.947 . S
C228 C263 1.382 . S
C229 C228 1.384 . S
C229 C230 1.378 . S
C230 C229 1.378 . S
C230 C231 1.378 . S
C230 H242 0.952 . S
C231 C230 1.378 . S
C231 H243 0.950 . S
C231 C262 1.383 . S
H232 C251 0.947 . S
H233 C252 0.946 . S
H234 C254 0.953 . S
H235 C255 0.945 . S
H236 C257 0.952 . S
H237 C258 0.949 . S
H238 C260 0.950 . S
H239 C261 0.948 . S
H240 C263 0.951 . S
H241 C228 0.947 . S
H242 C230 0.952 . S
H243 C231 0.950 . S
N244 C247 1.382 1_455 S
N244 C249 1.363 . S
N245 C247 1.371 . S
N245 C248 1.372 1_655 S
N246 C248 1.361 . S
N246 C249 1.377 . S
C247 N244 1.382 1_655 S
C247 N245 1.371 . S
C247 C250 1.480 . S
C248 N245 1.372 1_455 S
C248 N246 1.361 . S
C248 C256 1.457 . S
C249 N244 1.363 . S
C249 N246 1.377 . S
C249 C262 1.479 . S
C250 C247 1.480 . S
C250 C251 1.383 . S
C250 C255 1.385 . S
C251 H232 0.947 . S
C251 C250 1.383 . S
C251 C252 1.388 . S
C252 H233 0.946 . S
C252 C251 1.388 . S
C252 C253 1.384 . S
C253 C252 1.384 . S
C253 C254 1.377 . S
C254 H234 0.953 . S
C254 C253 1.377 . S
C254 C255 1.369 . S
C255 H235 0.945 . S
C255 C250 1.385 . S
C255 C254 1.369 . S
C256 C248 1.457 . S
C256 C257 1.372 1_455 S
C256 C261 1.364 . S
C257 H236 0.952 . S
C257 C256 1.372 1_655 S
C257 C258 1.389 . S
C258 H237 0.949 . S
C258 C257 1.389 . S
C258 C259 1.387 1_655 S
C259 C258 1.387 1_455 S
C259 C260 1.372 . S
C260 H238 0.950 . S
C260 C259 1.372 . S
C260 C261 1.379 . S
C261 H239 0.948 . S
C261 C256 1.364 . S
C261 C260 1.379 . S
C262 C231 1.383 . S
C262 C249 1.479 . S
C262 C263 1.398 . S
C263 C228 1.382 . S
C263 H240 0.951 . S
C263 C262 1.398 . S
C264 C265 1.384 . S
C264 H277 0.947 . S
C264 C299 1.382 . S
C265 C264 1.384 . S
C265 C266 1.378 . S
C266 C265 1.378 . S
C266 C267 1.378 . S
C266 H278 0.952 . S
C267 C266 1.378 . S
C267 H279 0.950 . S
C267 C298 1.383 . S
H268 C287 0.947 . S
H269 C288 0.946 . S
H270 C290 0.953 . S
H271 C291 0.945 . S
H272 C293 0.952 . S
H273 C294 0.949 . S
H274 C296 0.950 . S
H275 C297 0.948 . S
H276 C299 0.951 . S
H277 C264 0.947 . S
H278 C266 0.952 . S
H279 C267 0.950 . S
N280 C283 1.382 1_545 S
N280 C285 1.363 . S
N281 C283 1.371 . S
N281 C284 1.372 1_565 S
N282 C284 1.361 . S
N282 C285 1.377 . S
C283 N280 1.382 1_565 S
C283 N281 1.371 . S
C283 C286 1.480 . S
C284 N281 1.372 1_545 S
C284 N282 1.361 . S
C284 C292 1.457 . S
C285 N280 1.363 . S
C285 N282 1.377 . S
C285 C298 1.479 . S
C286 C283 1.480 . S
C286 C287 1.383 . S
C286 C291 1.385 . S
C287 H268 0.947 . S
C287 C286 1.383 . S
C287 C288 1.388 . S
C288 H269 0.946 . S
C288 C287 1.388 . S
C288 C289 1.384 . S
C289 C288 1.384 . S
C289 C290 1.377 . S
C290 H270 0.953 . S
C290 C289 1.377 . S
C290 C291 1.369 . S
C291 H271 0.945 . S
C291 C286 1.385 . S
C291 C290 1.369 . S
C292 C284 1.457 . S
C292 C293 1.372 1_545 S
C292 C297 1.364 . S
C293 H272 0.952 . S
C293 C292 1.372 1_565 S
C293 C294 1.389 . S
C294 H273 0.949 . S
C294 C293 1.389 . S
C294 C295 1.387 1_565 S
C295 C294 1.387 1_545 S
C295 C296 1.372 . S
C296 H274 0.950 . S
C296 C295 1.372 . S
C296 C297 1.379 . S
C297 H275 0.948 . S
C297 C292 1.364 . S
C297 C296 1.379 . S
C298 C267 1.383 . S
C298 C285 1.479 . S
C298 C299 1.398 . S
C299 C264 1.382 . S
C299 H276 0.951 . S
C299 C298 1.398 . S
C300 C301 1.384 . S
C300 H313 0.947 . S
C300 C335 1.382 . S
C301 C300 1.384 . S
C301 C302 1.378 . S
C302 C301 1.378 . S
C302 C303 1.378 . S
C302 H314 0.952 . S
C303 C302 1.378 . S
C303 H315 0.950 . S
C303 C334 1.383 . S
H304 C323 0.947 . S
H305 C324 0.946 . S
H306 C326 0.953 . S
H307 C327 0.945 . S
H308 C329 0.952 . S
H309 C330 0.949 . S
H310 C332 0.950 . S
H311 C333 0.948 . S
H312 C335 0.951 . S
H313 C300 0.947 . S
H314 C302 0.952 . S
H315 C303 0.950 . S
N316 C319 1.382 . S
N316 C321 1.363 . S
N317 C319 1.371 . S
N317 C320 1.372 . S
N318 C320 1.361 . S
N318 C321 1.377 . S
C319 N316 1.382 . S
C319 N317 1.371 . S
C319 C322 1.480 . S
C320 N317 1.372 . S
C320 N318 1.361 . S
C320 C328 1.457 . S
C321 N316 1.363 . S
C321 N318 1.377 . S
C321 C334 1.479 . S
C322 C319 1.480 . S
C322 C323 1.383 . S
C322 C327 1.385 . S
C323 H304 0.947 . S
C323 C322 1.383 . S
C323 C324 1.388 . S
C324 H305 0.946 . S
C324 C323 1.388 . S
C324 C325 1.384 . S
C325 C324 1.384 . S
C325 C326 1.377 . S
C326 H306 0.953 . S
C326 C325 1.377 . S
C326 C327 1.369 . S
C327 H307 0.945 . S
C327 C322 1.385 . S
C327 C326 1.369 . S
C328 C320 1.457 . S
C328 C329 1.372 . S
C328 C333 1.364 . S
C329 H308 0.952 . S
C329 C328 1.372 . S
C329 C330 1.389 . S
C330 H309 0.949 . S
C330 C329 1.389 . S
C330 C331 1.387 . S
C331 C330 1.387 . S
C331 C332 1.372 . S
C332 H310 0.950 . S
C332 C331 1.372 . S
C332 C333 1.379 . S
C333 H311 0.948 . S
C333 C328 1.364 . S
C333 C332 1.379 . S
C334 C303 1.383 . S
C334 C321 1.479 . S
C334 C335 1.398 . S
C335 C300 1.382 . S
C335 H312 0.951 . S
C335 C334 1.398 . S
H336 C342 0.930 . S
H337 C346 0.930 . S
H338 C351 0.929 . S
H339 C349 0.929 . S
H340 C344 0.929 . S
H341 C350 0.929 . S
C342 H336 0.930 . S
C342 C343 1.367 . S
C342 C350 1.378 . S
C343 C342 1.367 . S
C343 C351 1.433 . S
C344 H340 0.929 . S
C344 C346 1.378 . S
C344 C348 1.350 . S
C345 C348 1.463 . S
C345 C350 1.350 . S
C345 N353 1.427 . S
C346 H337 0.930 . S
C346 C344 1.378 . S
C346 C347 1.367 . S
C347 C346 1.367 . S
C347 C349 1.433 . S
C348 C344 1.350 . S
C348 C345 1.463 . S
C348 N352 1.427 . S
C349 H339 0.929 . S
C349 C347 1.433 . S
C349 N352 1.384 . S
C350 H341 0.929 . S
C350 C342 1.378 . S
C350 C345 1.350 . S
C351 H338 0.929 . S
C351 C343 1.433 . S
C351 N353 1.384 . S
N352 C348 1.427 . S
N352 C349 1.384 . S
N353 C345 1.427 . S
N353 C351 1.384 . S
H354 C360 0.930 . S
H355 C364 0.930 . S
H356 C369 0.929 . S
H357 C367 0.929 . S
H358 C362 0.929 . S
H359 C368 0.929 . S
C360 H354 0.930 . S
C360 C361 1.367 . S
C360 C368 1.378 . S
C361 C360 1.367 . S
C361 C369 1.433 . S
C362 H358 0.929 . S
C362 C364 1.378 . S
C362 C366 1.350 . S
C363 C366 1.463 . S
C363 C368 1.350 . S
C363 N371 1.427 . S
C364 H355 0.930 . S
C364 C362 1.378 . S
C364 C365 1.367 . S
C365 C364 1.367 . S
C365 C367 1.433 . S
C366 C362 1.350 . S
C366 C363 1.463 . S
C366 N370 1.427 . S
C367 H357 0.929 . S
C367 C365 1.433 . S
C367 N370 1.384 . S
C368 H359 0.929 . S
C368 C360 1.378 . S
C368 C363 1.350 . S
C369 H356 0.929 . S
C369 C361 1.433 . S
C369 N371 1.384 . S
N370 C366 1.427 . S
N370 C367 1.384 . S
N371 C363 1.427 . S
N371 C369 1.384 . S
H372 C378 0.930 . S
H373 C382 0.930 . S
H374 C387 0.929 . S
H375 C385 0.929 . S
H376 C380 0.929 . S
H377 C386 0.929 . S
C378 H372 0.930 . S
C378 C379 1.367 . S
C378 C386 1.378 . S
C379 C378 1.367 . S
C379 C387 1.433 . S
C380 H376 0.929 . S
C380 C382 1.378 . S
C380 C384 1.350 . S
C381 C384 1.463 . S
C381 C386 1.350 . S
C381 N389 1.427 . S
C382 H373 0.930 . S
C382 C380 1.378 . S
C382 C383 1.367 . S
C383 C382 1.367 . S
C383 C385 1.433 . S
C384 C380 1.350 . S
C384 C381 1.463 . S
C384 N388 1.427 . S
C385 H375 0.929 . S
C385 C383 1.433 . S
C385 N388 1.384 . S
C386 H377 0.929 . S
C386 C378 1.378 . S
C386 C381 1.350 . S
C387 H374 0.929 . S
C387 C379 1.433 . S
C387 N389 1.384 . S
N388 C384 1.427 . S
N388 C385 1.384 . S
N389 C381 1.427 . S
N389 C387 1.384 . S
H390 C396 0.930 . S
H391 C400 0.930 . S
H392 C405 0.929 . S
H393 C403 0.929 . S
H394 C398 0.929 . S
H395 C404 0.929 . S
C396 H390 0.930 . S
C396 C397 1.367 . S
C396 C404 1.378 . S
C397 C396 1.367 . S
C397 C405 1.433 . S
C398 H394 0.929 . S
C398 C400 1.378 . S
C398 C402 1.350 . S
C399 C402 1.463 . S
C399 C404 1.350 . S
C399 N407 1.427 . S
C400 H391 0.930 . S
C400 C398 1.378 . S
C400 C401 1.367 . S
C401 C400 1.367 . S
C401 C403 1.433 . S
C402 C398 1.350 . S
C402 C399 1.463 . S
C402 N406 1.427 . S
C403 H393 0.929 . S
C403 C401 1.433 . S
C403 N406 1.384 . S
C404 H395 0.929 . S
C404 C396 1.378 . S
C404 C399 1.350 . S
C405 H392 0.929 . S
C405 C397 1.433 . S
C405 N407 1.384 . S
N406 C402 1.427 . S
N406 C403 1.384 . S
N407 C399 1.427 . S
N407 C405 1.384 . S
H408 C414 0.930 . S
H409 C418 0.930 . S
H410 C423 0.929 . S
H411 C421 0.929 . S
H412 C416 0.929 . S
H413 C422 0.929 . S
C414 H408 0.930 . S
C414 C415 1.367 . S
C414 C422 1.378 . S
C415 C414 1.367 . S
C415 C423 1.433 . S
C416 H412 0.929 . S
C416 C418 1.378 . S
C416 C420 1.350 . S
C417 C420 1.463 . S
C417 C422 1.350 . S
C417 N425 1.427 . S
C418 H409 0.930 . S
C418 C416 1.378 . S
C418 C419 1.367 . S
C419 C418 1.367 . S
C419 C421 1.433 . S
C420 C416 1.350 . S
C420 C417 1.463 . S
C420 N424 1.427 . S
C421 H411 0.929 . S
C421 C419 1.433 . S
C421 N424 1.384 . S
C422 H413 0.929 . S
C422 C414 1.378 . S
C422 C417 1.350 . S
C423 H410 0.929 . S
C423 C415 1.433 . S
C423 N425 1.384 . S
N424 C420 1.427 . S
N424 C421 1.384 . S
N425 C417 1.427 . S
N425 C423 1.384 . S
H426 C432 0.930 . S
H427 C436 0.930 . S
H428 C441 0.929 . S
H429 C439 0.929 . S
H430 C434 0.929 . S
H431 C440 0.929 . S
C432 H426 0.930 . S
C432 C433 1.367 . S
C432 C440 1.378 . S
C433 C432 1.367 . S
C433 C441 1.433 . S
C434 H430 0.929 . S
C434 C436 1.378 . S
C434 C438 1.350 . S
C435 C438 1.463 . S
C435 C440 1.350 . S
C435 N443 1.427 . S
C436 H427 0.930 . S
C436 C434 1.378 . S
C436 C437 1.367 . S
C437 C436 1.367 . S
C437 C439 1.433 . S
C438 C434 1.350 . S
C438 C435 1.463 . S
C438 N442 1.427 . S
C439 H429 0.929 . S
C439 C437 1.433 . S
C439 N442 1.384 . S
C440 H431 0.929 . S
C440 C432 1.378 . S
C440 C435 1.350 . S
C441 H428 0.929 . S
C441 C433 1.433 . S
C441 N443 1.384 . S
N442 C438 1.427 . S
N442 C439 1.384 . S
N443 C435 1.427 . S
N443 C441 1.384 . S
H444 C450 0.930 . S
H445 C454 0.930 . S
H446 C459 0.929 . S
H447 C457 0.929 . S
H448 C452 0.929 . S
H449 C458 0.929 . S
C450 H444 0.930 . S
C450 C451 1.367 . S
C450 C458 1.378 . S
C451 C450 1.367 . S
C451 C459 1.433 . S
C452 H448 0.929 . S
C452 C454 1.378 . S
C452 C456 1.350 . S
C453 C456 1.463 . S
C453 C458 1.350 . S
C453 N461 1.427 . S
C454 H445 0.930 . S
C454 C452 1.378 . S
C454 C455 1.367 . S
C455 C454 1.367 . S
C455 C457 1.433 . S
C456 C452 1.350 . S
C456 C453 1.463 . S
C456 N460 1.427 . S
C457 H447 0.929 . S
C457 C455 1.433 . S
C457 N460 1.384 . S
C458 H449 0.929 . S
C458 C450 1.378 . S
C458 C453 1.350 . S
C459 H446 0.929 . S
C459 C451 1.433 . S
C459 N461 1.384 . S
N460 C456 1.427 . S
N460 C457 1.384 . S
N461 C453 1.427 . S
N461 C459 1.384 . S
H462 C468 0.930 . S
H463 C472 0.930 . S
H464 C477 0.929 . S
H465 C475 0.929 . S
H466 C470 0.929 . S
H467 C476 0.929 . S
C468 H462 0.930 . S
C468 C469 1.367 . S
C468 C476 1.378 . S
C469 C468 1.367 . S
C469 C477 1.433 . S
C470 H466 0.929 . S
C470 C472 1.378 . S
C470 C474 1.350 . S
C471 C474 1.463 . S
C471 C476 1.350 . S
C471 N479 1.427 . S
C472 H463 0.930 . S
C472 C470 1.378 . S
C472 C473 1.367 . S
C473 C472 1.367 . S
C473 C475 1.433 . S
C474 C470 1.350 . S
C474 C471 1.463 . S
C474 N478 1.427 . S
C475 H465 0.929 . S
C475 C473 1.433 . S
C475 N478 1.384 . S
C476 H467 0.929 . S
C476 C468 1.378 . S
C476 C471 1.350 . S
C477 H464 0.929 . S
C477 C469 1.433 . S
C477 N479 1.384 . S
N478 C474 1.427 . S
N478 C475 1.384 . S
N479 C471 1.427 . S
N479 C477 1.384 . S
H480 C486 0.930 . S
H481 C490 0.930 . S
H482 C495 0.929 . S
H483 C493 0.929 . S
H484 C488 0.929 . S
H485 C494 0.929 . S
C486 H480 0.930 . S
C486 C487 1.367 . S
C486 C494 1.378 . S
C487 C486 1.367 . S
C487 C495 1.433 . S
C488 H484 0.929 . S
C488 C490 1.378 . S
C488 C492 1.350 . S
C489 C492 1.463 . S
C489 C494 1.350 . S
C489 N497 1.427 . S
C490 H481 0.930 . S
C490 C488 1.378 . S
C490 C491 1.367 . S
C491 C490 1.367 . S
C491 C493 1.433 . S
C492 C488 1.350 . S
C492 C489 1.463 . S
C492 N496 1.427 . S
C493 H483 0.929 . S
C493 C491 1.433 . S
C493 N496 1.384 . S
C494 H485 0.929 . S
C494 C486 1.378 . S
C494 C489 1.350 . S
C495 H482 0.929 . S
C495 C487 1.433 . S
C495 N497 1.384 . S
N496 C492 1.427 . S
N496 C493 1.384 . S
N497 C489 1.427 . S
N497 C495 1.384 . S
H498 C504 0.930 . S
H499 C508 0.930 . S
H500 C513 0.929 . S
H501 C511 0.929 . S
H502 C506 0.929 . S
H503 C512 0.929 . S
C504 H498 0.930 . S
C504 C505 1.367 . S
C504 C512 1.378 . S
C505 C504 1.367 . S
C505 C513 1.433 . S
C506 H502 0.929 . S
C506 C508 1.378 . S
C506 C510 1.350 . S
C507 C510 1.463 . S
C507 C512 1.350 . S
C507 N515 1.427 . S
C508 H499 0.930 . S
C508 C506 1.378 . S
C508 C509 1.367 . S
C509 C508 1.367 . S
C509 C511 1.433 . S
C510 C506 1.350 . S
C510 C507 1.463 . S
C510 N514 1.427 . S
C511 H501 0.929 . S
C511 C509 1.433 . S
C511 N514 1.384 . S
C512 H503 0.929 . S
C512 C504 1.378 . S
C512 C507 1.350 . S
C513 H500 0.929 . S
C513 C505 1.433 . S
C513 N515 1.384 . S
N514 C510 1.427 . S
N514 C511 1.384 . S
N515 C507 1.427 . S
N515 C513 1.384 . S
H516 C522 0.930 . S
H517 C526 0.930 . S
H518 C531 0.929 . S
H519 C529 0.929 . S
H520 C524 0.929 . S
H521 C530 0.929 . S
C522 H516 0.930 . S
C522 C523 1.367 . S
C522 C530 1.378 . S
C523 C522 1.367 . S
C523 C531 1.433 . S
C524 H520 0.929 . S
C524 C526 1.378 . S
C524 C528 1.350 . S
C525 C528 1.463 . S
C525 C530 1.350 . S
C525 N533 1.427 . S
C526 H517 0.930 . S
C526 C524 1.378 . S
C526 C527 1.367 . S
C527 C526 1.367 . S
C527 C529 1.433 . S
C528 C524 1.350 . S
C528 C525 1.463 . S
C528 N532 1.427 . S
C529 H519 0.929 . S
C529 C527 1.433 . S
C529 N532 1.384 . S
C530 H521 0.929 . S
C530 C522 1.378 . S
C530 C525 1.350 . S
C531 H518 0.929 . S
C531 C523 1.433 . S
C531 N533 1.384 . S
N532 C528 1.427 . S
N532 C529 1.384 . S
N533 C525 1.427 . S
N533 C531 1.384 . S
H534 C540 0.930 . S
H535 C544 0.930 . S
H536 C549 0.929 . S
H537 C547 0.929 . S
H538 C542 0.929 . S
H539 C548 0.929 . S
C540 H534 0.930 . S
C540 C541 1.367 . S
C540 C548 1.378 . S
C541 C540 1.367 . S
C541 C549 1.433 . S
C542 H538 0.929 . S
C542 C544 1.378 . S
C542 C546 1.350 . S
C543 C546 1.463 . S
C543 C548 1.350 . S
C543 N551 1.427 . S
C544 H535 0.930 . S
C544 C542 1.378 . S
C544 C545 1.367 . S
C545 C544 1.367 . S
C545 C547 1.433 . S
C546 C542 1.350 . S
C546 C543 1.463 . S
C546 N550 1.427 . S
C547 H537 0.929 . S
C547 C545 1.433 . S
C547 N550 1.384 . S
C548 H539 0.929 . S
C548 C540 1.378 . S
C548 C543 1.350 . S
C549 H536 0.929 . S
C549 C541 1.433 . S
C549 N551 1.384 . S
N550 C546 1.427 . S
N550 C547 1.384 . S
N551 C543 1.427 . S
N551 C549 1.384 . S
H552 C558 0.930 . S
H553 C562 0.930 . S
H554 C567 0.929 . S
H555 C565 0.929 . S
H556 C560 0.929 . S
H557 C566 0.929 . S
C558 H552 0.930 . S
C558 C559 1.367 1_655 S
C558 C566 1.378 . S
C559 C558 1.367 1_455 S
C559 C567 1.433 . S
C560 H556 0.929 . S
C560 C562 1.378 . S
C560 C564 1.350 . S
C561 C564 1.463 . S
C561 C566 1.350 1_455 S
C561 N569 1.427 . S
C562 H553 0.930 . S
C562 C560 1.378 . S
C562 C563 1.367 . S
C563 C562 1.367 . S
C563 C565 1.433 1_455 S
C564 C560 1.350 . S
C564 C561 1.463 . S
C564 N568 1.427 1_455 S
C565 H555 0.929 . S
C565 C563 1.433 1_655 S
C565 N568 1.384 . S
C566 H557 0.929 . S
C566 C558 1.378 . S
C566 C561 1.350 1_655 S
C567 H554 0.929 . S
C567 C559 1.433 . S
C567 N569 1.384 . S
N568 C564 1.427 1_655 S
N568 C565 1.384 . S
N569 C561 1.427 . S
N569 C567 1.384 . S
H570 C576 0.930 . S
H571 C580 0.930 1_565 S
H572 C585 0.929 . S
H573 C583 0.929 . S
H574 C578 0.929 . S
H575 C584 0.929 . S
C576 H570 0.930 . S
C576 C577 1.367 . S
C576 C584 1.378 . S
C577 C576 1.367 . S
C577 C585 1.433 . S
C578 H574 0.929 . S
C578 C580 1.378 . S
C578 C582 1.350 . S
C579 C582 1.463 . S
C579 C584 1.350 . S
C579 N587 1.427 . S
C580 H571 0.930 1_545 S
C580 C578 1.378 . S
C580 C581 1.367 . S
C581 C580 1.367 . S
C581 C583 1.433 . S
C582 C578 1.350 . S
C582 C579 1.463 . S
C582 N586 1.427 . S
C583 H573 0.929 . S
C583 C581 1.433 . S
C583 N586 1.384 . S
C584 H575 0.929 . S
C584 C576 1.378 . S
C584 C579 1.350 . S
C585 H572 0.929 . S
C585 C577 1.433 . S
C585 N587 1.384 . S
N586 C582 1.427 . S
N586 C583 1.384 . S
N587 C579 1.427 . S
N587 C585 1.384 . S
H588 C594 0.930 . S
H589 C598 0.930 . S
H590 C603 0.929 . S
H591 C601 0.929 . S
H592 C596 0.929 . S
H593 C602 0.929 . S
C594 H588 0.930 . S
C594 C595 1.367 . S
C594 C602 1.378 . S
C595 C594 1.367 . S
C595 C603 1.433 . S
C596 H592 0.929 . S
C596 C598 1.378 . S
C596 C600 1.350 . S
C597 C600 1.463 . S
C597 C602 1.350 . S
C597 N605 1.427 . S
C598 H589 0.930 . S
C598 C596 1.378 . S
C598 C599 1.367 . S
C599 C598 1.367 . S
C599 C601 1.433 . S
C600 C596 1.350 . S
C600 C597 1.463 . S
C600 N604 1.427 . S
C601 H591 0.929 . S
C601 C599 1.433 . S
C601 N604 1.384 . S
C602 H593 0.929 . S
C602 C594 1.378 . S
C602 C597 1.350 . S
C603 H590 0.929 . S
C603 C595 1.433 . S
C603 N605 1.384 . S
N604 C600 1.427 . S
N604 C601 1.384 . S
N605 C597 1.427 . S
N605 C603 1.384 . S
H606 C612 0.930 . S
H607 C616 0.930 . S
H608 C621 0.929 . S
H609 C619 0.929 . S
H610 C614 0.929 1_565 S
H611 C620 0.929 . S
C612 H606 0.930 . S
C612 C613 1.367 . S
C612 C620 1.378 . S
C613 C612 1.367 . S
C613 C621 1.433 . S
C614 H610 0.929 1_545 S
C614 C616 1.378 1_545 S
C614 C618 1.350 . S
C615 C618 1.463 . S
C615 C620 1.350 . S
C615 N623 1.427 . S
C616 H607 0.930 . S
C616 C614 1.378 1_565 S
C616 C617 1.367 1_565 S
C617 C616 1.367 1_545 S
C617 C619 1.433 . S
C618 C614 1.350 . S
C618 C615 1.463 . S
C618 N622 1.427 . S
C619 H609 0.929 . S
C619 C617 1.433 . S
C619 N622 1.384 . S
C620 H611 0.929 . S
C620 C612 1.378 . S
C620 C615 1.350 . S
C621 H608 0.929 . S
C621 C613 1.433 . S
C621 N623 1.384 . S
N622 C618 1.427 . S
N622 C619 1.384 . S
N623 C615 1.427 . S
N623 C621 1.384 . S
H624 C630 0.930 . S
H625 C634 0.930 . S
H626 C639 0.929 . S
H627 C637 0.929 . S
H628 C632 0.929 . S
H629 C638 0.929 . S
C630 H624 0.930 . S
C630 C631 1.367 . S
C630 C638 1.378 . S
C631 C630 1.367 . S
C631 C639 1.433 . S
C632 H628 0.929 . S
C632 C634 1.378 . S
C632 C636 1.350 . S
C633 C636 1.463 . S
C633 C638 1.350 . S
C633 N641 1.427 . S
C634 H625 0.930 . S
C634 C632 1.378 . S
C634 C635 1.367 . S
C635 C634 1.367 . S
C635 C637 1.433 . S
C636 C632 1.350 . S
C636 C633 1.463 . S
C636 N640 1.427 . S
C637 H627 0.929 . S
C637 C635 1.433 . S
C637 N640 1.384 . S
C638 H629 0.929 . S
C638 C630 1.378 . S
C638 C633 1.350 . S
C639 H626 0.929 . S
C639 C631 1.433 . S
C639 N641 1.384 . S
N640 C636 1.427 . S
N640 C637 1.384 . S
N641 C633 1.427 . S
N641 C639 1.384 . S
H642 C648 0.930 . S
H643 C652 0.930 . S
H644 C657 0.929 . S
H645 C655 0.929 . S
H646 C650 0.929 . S
H647 C656 0.929 . S
C648 H642 0.930 . S
C648 C649 1.367 1_655 S
C648 C656 1.378 . S
C649 C648 1.367 1_455 S
C649 C657 1.433 . S
C650 H646 0.929 . S
C650 C652 1.378 . S
C650 C654 1.350 . S
C651 C654 1.463 . S
C651 C656 1.350 1_455 S
C651 N659 1.427 . S
C652 H643 0.930 . S
C652 C650 1.378 . S
C652 C653 1.367 . S
C653 C652 1.367 . S
C653 C655 1.433 1_455 S
C654 C650 1.350 . S
C654 C651 1.463 . S
C654 N658 1.427 1_455 S
C655 H645 0.929 . S
C655 C653 1.433 1_655 S
C655 N658 1.384 . S
C656 H647 0.929 . S
C656 C648 1.378 . S
C656 C651 1.350 1_655 S
C657 H644 0.929 . S
C657 C649 1.433 . S
C657 N659 1.384 . S
N658 C654 1.427 1_655 S
N658 C655 1.384 . S
N659 C651 1.427 . S
N659 C657 1.384 . S
C343 C9 0.502 . S
C347 C325 0.449 . S
C361 C49 0.322 . S
C365 C253 0.334 . S
C379 C89 0.304 . S
C383 C289 0.367 . S
C397 C26 0.441 . S
C401 C301 0.317 . S
C419 C229 0.439 . S
C415 C66 0.491 . S
C437 C265 0.460 . S
C433 C106 0.542 . S
C451 C43 2.959 . S
C455 C181 2.884 . S
C469 C83 3.098 . S
C473 C193 3.046 . S
C487 C22 3.158 . S
C491 C121 3.106 . S
C509 C157 3.098 . S
C505 C62 3.153 . S
C527 C217 2.928 . S
C523 C102 3.010 . S
C541 C3 2.955 . S
C545 C145 2.881 . S
C563 C223 1.788 1_554 S
C559 C15 1.731 . S
C577 C55 1.751 . S
C581 C151 1.786 . S
C595 C95 1.746 . S
C599 C187 1.783 . S
C617 C295 1.069 . S
C613 C42 1.073 . S
C635 C331 1.084 1_556 S
C631 C82 1.069 . S
C649 C2 1.069 . S
C653 C259 1.061 . S
