# Generated by pormake.
# Topology pto, (3,4)-cn, num edge types: 1
# Building blocks:
#     Node 0, Type 0, BuildingBlock: BETDAH_clean_linker_0, # of connection points: 3
#     Node 1, Type 0, BuildingBlock: BETDAH_clean_linker_0, # of connection points: 3
#     Node 2, Type 0, BuildingBlock: BETDAH_clean_linker_0, # of connection points: 3
#     Node 3, Type 0, BuildingBlock: BETDAH_clean_linker_0, # of connection points: 3
#     Node 4, Type 0, BuildingBlock: BETDAH_clean_linker_0, # of connection points: 3
#     Node 5, Type 0, BuildingBlock: BETDAH_clean_linker_0, # of connection points: 3
#     Node 6, Type 0, BuildingBlock: BETDAH_clean_linker_0, # of connection points: 3
#     Node 7, Type 0, BuildingBlock: BETDAH_clean_linker_0, # of connection points: 3
#     Node 8, Type 1, BuildingBlock: NAWXER_clean_sbu_0, # of connection points: 4
#     Node 9, Type 1, BuildingBlock: NAWXER_clean_sbu_0, # of connection points: 4
#     Node 10, Type 1, BuildingBlock: NAWXER_clean_sbu_0, # of connection points: 4
#     Node 11, Type 1, BuildingBlock: NAWXER_clean_sbu_0, # of connection points: 4
#     Node 12, Type 1, BuildingBlock: NAWXER_clean_sbu_0, # of connection points: 4
#     Node 13, Type 1, BuildingBlock: NAWXER_clean_sbu_0, # of connection points: 4
#     Edge 14, Type (0, 1), BuildingBlock: TEMPAE_clean_linker_10, # of connection points: 2
#     Edge 15, Type (0, 1), BuildingBlock: TEMPAE_clean_linker_10, # of connection points: 2
#     Edge 16, Type (0, 1), BuildingBlock: TEMPAE_clean_linker_10, # of connection points: 2
#     Edge 17, Type (0, 1), BuildingBlock: TEMPAE_clean_linker_10, # of connection points: 2
#     Edge 18, Type (0, 1), BuildingBlock: TEMPAE_clean_linker_10, # of connection points: 2
#     Edge 19, Type (0, 1), BuildingBlock: TEMPAE_clean_linker_10, # of connection points: 2
#     Edge 20, Type (0, 1), BuildingBlock: TEMPAE_clean_linker_10, # of connection points: 2
#     Edge 21, Type (0, 1), BuildingBlock: TEMPAE_clean_linker_10, # of connection points: 2
#     Edge 22, Type (0, 1), BuildingBlock: TEMPAE_clean_linker_10, # of connection points: 2
#     Edge 23, Type (0, 1), BuildingBlock: TEMPAE_clean_linker_10, # of connection points: 2
#     Edge 24, Type (0, 1), BuildingBlock: TEMPAE_clean_linker_10, # of connection points: 2
#     Edge 25, Type (0, 1), BuildingBlock: TEMPAE_clean_linker_10, # of connection points: 2
#     Edge 26, Type (0, 1), BuildingBlock: TEMPAE_clean_linker_10, # of connection points: 2
#     Edge 27, Type (0, 1), BuildingBlock: TEMPAE_clean_linker_10, # of connection points: 2
#     Edge 28, Type (0, 1), BuildingBlock: TEMPAE_clean_linker_10, # of connection points: 2
#     Edge 29, Type (0, 1), BuildingBlock: TEMPAE_clean_linker_10, # of connection points: 2
#     Edge 30, Type (0, 1), BuildingBlock: TEMPAE_clean_linker_10, # of connection points: 2
#     Edge 31, Type (0, 1), BuildingBlock: TEMPAE_clean_linker_10, # of connection points: 2
#     Edge 32, Type (0, 1), BuildingBlock: TEMPAE_clean_linker_10, # of connection points: 2
#     Edge 33, Type (0, 1), BuildingBlock: TEMPAE_clean_linker_10, # of connection points: 2
#     Edge 34, Type (0, 1), BuildingBlock: TEMPAE_clean_linker_10, # of connection points: 2
#     Edge 35, Type (0, 1), BuildingBlock: TEMPAE_clean_linker_10, # of connection points: 2
#     Edge 36, Type (0, 1), BuildingBlock: TEMPAE_clean_linker_10, # of connection points: 2
#     Edge 37, Type (0, 1), BuildingBlock: TEMPAE_clean_linker_10, # of connection points: 2
# Relax obj value: 0.010
# Max RMSD: 0.137
# Mean RMSD: 0.057
data_MOF--net-pto--node1-NAWXER_clean_sbu_0--node2-BETDAH_clean_linker_0--edge1-TEMPAE_clean_linker_10
_symmetry_space_group_name_H-M    P1
_symmetry_Int_Tables_number       1
_symmetry_cell_setting            triclinic
loop_
_symmetry_equiv_pos_as_xyz
'x, y, z'
_cell_length_a     43.337856
_cell_length_b     39.713126
_cell_length_c     38.469734
_cell_angle_alpha  109.278
_cell_angle_beta   95.55909
_cell_angle_gamma 99.335247
loop_
_atom_site_label
_atom_site_type_symbol
_atom_site_fract_x
_atom_site_fract_y
_atom_site_fract_z
_atom_type_partial_charge
H0 H 0.30938 0.19478 0.41761 0.0
H1 H 0.25495 0.24814 0.35957 0.0
H2 H 0.21119 0.1926 0.42595 0.0
C3 C 0.28755 0.20258 0.41024 0.0
C4 C 0.26057 0.19139 0.4243 0.0
C5 C 0.28601 0.22237 0.3858 0.0
C6 C 0.25739 0.23344 0.37855 0.0
C7 C 0.23074 0.2233 0.39374 0.0
C8 C 0.23219 0.20138 0.41542 0.0
N9 N 0.20137 0.23224 0.38511 0.0
C10 C 0.19787 0.26761 0.39022 0.0
H11 H 0.29987 0.69786 0.89086 0.0
H12 H 0.34639 0.72246 0.80554 0.0
H13 H 0.24718 0.72126 0.804 0.0
C14 C 0.29926 0.70491 0.86592 0.0
C15 C 0.27014 0.70779 0.84878 0.0
C16 C 0.32717 0.71014 0.85085 0.0
C17 C 0.32562 0.71967 0.81874 0.0
C18 C 0.2973 0.72522 0.80282 0.0
C19 C 0.26947 0.71935 0.81787 0.0
N20 N 0.29689 0.73248 0.76914 0.0
C21 C 0.28333 0.75944 0.76205 0.0
H22 H 0.852 0.73643 0.4423 0.0
H23 H 0.7712 0.71525 0.3573 0.0
H24 H 0.83773 0.64439 0.3405 0.0
C25 C 0.83784 0.7199 0.41542 0.0
C26 C 0.848 0.68941 0.39286 0.0
C27 C 0.81019 0.72979 0.40273 0.0
C28 C 0.79273 0.70833 0.36715 0.0
C29 C 0.80264 0.67735 0.3448 0.0
C30 C 0.83013 0.66821 0.35788 0.0
N31 N 0.78551 0.6543 0.30926 0.0
C32 C 0.76249 0.66355 0.28847 0.0
H33 H 0.80907 0.29498 0.90839 0.0
H34 H 0.73812 0.25196 0.96246 0.0
H35 H 0.8108 0.34601 0.02604 0.0
C36 C 0.79838 0.29664 0.9331 0.0
C37 C 0.81268 0.324 0.96718 0.0
C38 C 0.7717 0.27017 0.93108 0.0
C39 C 0.75866 0.27216 0.96369 0.0
C40 C 0.77271 0.29977 0.99796 0.0
C41 C 0.79989 0.32505 0.99951 0.0
N42 N 0.76092 0.30256 0.03174 0.0
C43 C 0.73096 0.28572 0.0344 0.0
H44 H 0.8087 0.70022 0.89231 0.0
H45 H 0.84888 0.70281 0.79523 0.0
H46 H 0.78226 0.76994 0.83376 0.0
C47 C 0.81089 0.71115 0.87011 0.0
C48 C 0.79261 0.73653 0.86633 0.0
C49 C 0.83181 0.69946 0.84507 0.0
C50 C 0.83367 0.71249 0.81554 0.0
C51 C 0.81637 0.73805 0.81165 0.0
C52 C 0.79597 0.75041 0.83717 0.0
N53 N 0.8189 0.74882 0.78026 0.0
C54 C 0.81718 0.78309 0.77935 0.0
H55 H 0.78421 0.32322 0.37709 0.0
H56 H 0.83717 0.30155 0.46497 0.0
H57 H 0.73675 0.29288 0.45894 0.0
C58 C 0.78473 0.31567 0.40172 0.0
C59 C 0.75644 0.30788 0.41524 0.0
C60 C 0.81404 0.31446 0.41993 0.0
C61 C 0.81474 0.30231 0.45043 0.0
C62 C 0.78658 0.29404 0.46401 0.0
C63 C 0.75791 0.29775 0.44697 0.0
N64 N 0.78643 0.28491 0.49665 0.0
C65 C 0.80579 0.26394 0.50687 0.0
H66 H 0.35431 0.28785 0.92891 0.0
H67 H 0.33491 0.39525 0.97066 0.0
H68 H 0.30135 0.32831 0.85597 0.0
C69 C 0.34408 0.3093 0.9239 0.0
C70 C 0.3283 0.30382 0.88809 0.0
C71 C 0.3469 0.34217 0.95369 0.0
C72 C 0.33255 0.36949 0.94804 0.0
C73 C 0.31528 0.36402 0.91324 0.0
C74 C 0.31326 0.33133 0.88322 0.0
N75 N 0.30249 0.39318 0.90858 0.0
C76 C 0.27233 0.38913 0.88974 0.0
H77 H 0.27622 0.7288 0.35588 0.0
H78 H 0.34131 0.77678 0.29907 0.0
H79 H 0.26909 0.68167 0.23693 0.0
C80 C 0.28536 0.72841 0.33052 0.0
C81 C 0.27021 0.70158 0.29651 0.0
C82 C 0.31072 0.75604 0.33175 0.0
C83 C 0.32176 0.75564 0.2984 0.0
C84 C 0.30689 0.72855 0.26415 0.0
C85 C 0.28081 0.70217 0.26339 0.0
N86 N 0.31677 0.72756 0.22976 0.0
C87 C 0.34639 0.7445 0.22619 0.0
C88 C 0.00882 0.45053 0.36612 0.0
C89 C 0.08666 0.53731 0.33699 0.0
O90 O 0.02598 0.47555 0.39499 0.0
Zn91 Zn 0.06404 0.52202 0.4085 0.0
O92 O 0.01326 0.45007 0.33374 0.0
Zn93 Zn 0.04725 0.49307 0.35001 0.0
O94 O 0.08442 0.4744 0.37361 0.0
O95 O 0.09798 0.5071 0.43356 0.0
O96 O 0.067 0.50991 0.3138 0.0
O97 O 0.08741 0.54425 0.37209 0.0
O98 O 0.04458 0.56166 0.43584 0.0
O99 O 0.02269 0.53477 0.37659 0.0
C100 C 0.10173 0.48139 0.40506 0.0
C101 C 0.02356 0.55865 0.40887 0.0
C102 C 1.00267 0.48926 0.94107 0.0
C103 C 0.07684 0.57875 0.91069 0.0
O104 O 0.0205 0.51829 0.96421 0.0
Zn105 Zn 0.0403 0.53489 0.9278 0.0
O106 O 1.00312 0.48121 0.90603 0.0
Zn107 Zn 0.02585 0.50349 0.86931 0.0
O108 O 0.04883 0.46632 0.84476 0.0
O109 O 0.06755 0.49492 0.90465 0.0
O110 O 0.06103 0.55213 0.88219 0.0
O111 O 0.07229 0.57994 0.94325 0.0
O112 O 1.00144 0.54869 0.90119 0.0
O113 O 0.9903 0.51358 0.84182 0.0
C114 C 0.06893 0.47094 0.87321 0.0
C115 C 0.9844 0.53903 0.86905 0.0
C116 C 0.27788 0.95935 0.66002 0.0
C117 C 0.27251 0.0344 0.58197 0.0
O118 O 0.25324 0.96597 0.64496 0.0
Zn119 Zn 0.27435 0.99812 0.62221 0.0
O120 O 0.30531 0.97447 0.6564 0.0
Zn121 Zn 0.32473 0.01075 0.62927 0.0
O122 O 0.34782 0.05453 0.66917 0.0
O123 O 0.29615 0.04604 0.66883 0.0
O124 O 0.30088 0.0332 0.5936 0.0
O125 O 0.24932 0.01829 0.59236 0.0
O126 O 0.29576 0.96206 0.58076 0.0
O127 O 0.34772 0.98096 0.5949 0.0
C128 C 0.32413 0.06489 0.68321 0.0
C129 C 0.32358 0.95848 0.57337 0.0
C130 C 0.60738 0.69772 0.09755 0.0
C131 C 0.52752 0.70279 0.00168 0.0
O132 O 0.58956 0.67088 0.07141 0.0
Zn133 Zn 0.5688 0.69883 0.04724 0.0
O134 O 0.6063 0.73031 0.09925 0.0
Zn135 Zn 0.58119 0.75727 0.06947 0.0
O136 O 0.55931 0.78485 0.10792 0.0
O137 O 0.54224 0.7252 0.0887 0.0
O138 O 0.54259 0.73429 0.02388 0.0
O139 O 0.53573 0.67421 0.00409 0.0
O140 O 0.60582 0.72182 0.02433 0.0
O141 O 0.61444 0.78163 0.04956 0.0
C142 C 0.54044 0.75736 0.10942 0.0
C143 C 0.62119 0.75322 0.02707 0.0
C144 C 0.81886 0.9905 0.68708 0.0
C145 C 0.8214 0.07294 0.61585 0.0
O146 O 0.79163 0.99121 0.67141 0.0
Zn147 Zn 0.77098 0.0168 0.63699 0.0
O148 O 0.84357 0.01024 0.68313 0.0
Zn149 Zn 0.82187 0.03174 0.65158 0.0
O150 O 0.79635 0.06419 0.68967 0.0
O151 O 0.74498 0.04441 0.66973 0.0
O152 O 0.84519 0.0669 0.63322 0.0
O153 O 0.7935 0.05591 0.6155 0.0
O154 O 0.75203 0.97456 0.59231 0.0
O155 O 0.80426 0.98525 0.60215 0.0
C156 C 0.76775 0.06665 0.69405 0.0
C157 C 0.77774 0.96588 0.58259 0.0
C158 C 0.55385 0.31319 0.26587 0.0
C159 C 0.47235 0.32752 0.17811 0.0
O160 O 0.53888 0.28272 0.24139 0.0
Zn161 Zn 0.49984 0.26357 0.19583 0.0
O162 O 0.54537 0.34265 0.2669 0.0
Zn163 Zn 0.51202 0.3211 0.22413 0.0
O164 O 0.47638 0.29326 0.24561 0.0
O165 O 0.46709 0.23477 0.21126 0.0
O166 O 0.49047 0.35256 0.2056 0.0
O167 O 0.47384 0.29417 0.17217 0.0
O168 O 0.52077 0.23976 0.15487 0.0
O169 O 0.53846 0.2993 0.18007 0.0
C170 C 0.46125 0.26053 0.2381 0.0
C171 C 0.53973 0.26834 0.15609 0.0
C172 C 0.15671 0.30348 0.39609 0.0
C173 C 0.18874 0.3022 0.39649 0.0
C174 C 0.14652 0.33629 0.40137 0.0
C175 C 0.16904 0.36858 0.40722 0.0
C176 C 0.20168 0.3675 0.40862 0.0
C177 C 0.2112 0.33409 0.40313 0.0
C178 C 0.11151 0.3361 0.3995 0.0
C179 C 0.22635 0.40135 0.41497 0.0
C180 C 0.13219 0.43497 0.37442 0.0
C181 C 0.12416 0.45745 0.40745 0.0
C182 C 0.14879 0.40753 0.37444 0.0
C183 C 0.15767 0.40232 0.40836 0.0
C184 C 0.15172 0.42661 0.44224 0.0
C185 C 0.13499 0.454 0.44141 0.0
C186 C 0.15473 0.38243 0.33767 0.0
C187 C 0.16114 0.42217 0.47901 0.0
H188 H 0.13951 0.27861 0.39117 0.0
H189 H 0.23604 0.33284 0.40364 0.0
H190 H 0.10714 0.35694 0.42494 0.0
H191 H 0.1029 0.34322 0.37523 0.0
H192 H 0.09733 0.30914 0.39674 0.0
H193 H 0.25085 0.39668 0.41879 0.0
H194 H 0.2232 0.41042 0.39074 0.0
H195 H 0.22343 0.42388 0.43991 0.0
H196 H 0.12435 0.43782 0.3481 0.0
H197 H 0.12897 0.47136 0.46704 0.0
H198 H 0.13947 0.35502 0.33055 0.0
H199 H 0.1797 0.37917 0.3397 0.0
H200 H 0.14954 0.39257 0.3145 0.0
H201 H 0.14524 0.39794 0.48045 0.0
H202 H 0.15952 0.44636 0.50312 0.0
H203 H 0.18569 0.41751 0.48155 0.0
C204 C 0.21616 0.71419 0.86635 0.0
C205 C 0.24043 0.69445 0.86088 0.0
C206 C 0.18808 0.70079 0.87746 0.0
C207 C 0.18412 0.66666 0.88256 0.0
C208 C 0.20867 0.64682 0.87717 0.0
C209 C 0.23642 0.66095 0.86649 0.0
C210 C 0.16253 0.72284 0.88327 0.0
C211 C 0.20533 0.61005 0.88165 0.0
C212 C 0.12392 0.63132 0.93456 0.0
C213 C 0.1016 0.60599 0.90478 0.0
C214 C 0.14991 0.65341 0.92798 0.0
C215 C 0.15366 0.64991 0.89082 0.0
C216 C 0.13009 0.62612 0.86093 0.0
C217 C 0.10438 0.6046 0.86828 0.0
C218 C 0.17434 0.67883 0.96063 0.0
C219 C 0.13312 0.62137 0.82087 0.0
H220 H 0.21923 0.74015 0.86218 0.0
H221 H 0.25485 0.64524 0.86164 0.0
H222 H 0.14104 0.70784 0.86231 0.0
H223 H 0.15574 0.72684 0.91122 0.0
H224 H 0.17014 0.74995 0.88084 0.0
H225 H 0.22708 0.59872 0.87766 0.0
H226 H 0.19997 0.61223 0.90983 0.0
H227 H 0.18526 0.59043 0.86102 0.0
H228 H 0.12187 0.6328 0.96286 0.0
H229 H 0.08706 0.58551 0.84504 0.0
H230 H 0.18111 0.70582 0.95773 0.0
H231 H 0.19606 0.66744 0.96125 0.0
H232 H 0.16568 0.68271 0.98766 0.0
H233 H 0.13881 0.64823 0.81748 0.0
H234 H 0.11114 0.60503 0.80127 0.0
H235 H 0.15288 0.60731 0.8129 0.0
C236 C 0.87901 0.66424 0.43302 0.0
C237 C 0.87751 0.67929 0.40489 0.0
C238 C 0.90459 0.64824 0.43971 0.0
C239 C 0.92925 0.64779 0.41798 0.0
C240 C 0.92879 0.66541 0.39141 0.0
C241 C 0.90272 0.68058 0.3849 0.0
C242 C 0.90395 0.62943 0.46797 0.0
C243 C 0.95475 0.66607 0.368 0.0
C244 C 0.00517 0.61659 0.4405 0.0
C245 C 0.99914 0.5812 0.41401 0.0
C246 C 0.98241 0.63859 0.44287 0.0
C247 C 0.95284 0.62445 0.41873 0.0
C248 C 0.94627 0.58814 0.39315 0.0
C249 C 0.96957 0.56718 0.39086 0.0
C250 C 0.99042 0.6773 0.47014 0.0
C251 C 0.91488 0.57163 0.36737 0.0
H252 H 0.8593 0.66307 0.44822 0.0
H253 H 0.90142 0.69229 0.36314 0.0
H254 H 0.89831 0.59946 0.45318 0.0
H255 H 0.92749 0.63644 0.48569 0.0
H256 H 0.88591 0.63675 0.48623 0.0
H257 H 0.9532 0.68511 0.35257 0.0
H258 H 0.97838 0.67418 0.38575 0.0
H259 H 0.95299 0.63833 0.34743 0.0
H260 H 0.02803 0.62752 0.45839 0.0
H261 H 0.96461 0.53963 0.3707 0.0
H262 H 0.97138 0.68275 0.48726 0.0
H263 H 0.99207 0.69642 0.45457 0.0
H264 H 0.01324 0.68323 0.48902 0.0
H265 H 0.89505 0.57473 0.3836 0.0
H266 H 0.91267 0.54221 0.35114 0.0
H267 H 0.91218 0.58618 0.34746 0.0
C268 C 0.84178 0.37032 0.9446 0.0
C269 C 0.84151 0.3508 0.96898 0.0
C270 C 0.86926 0.39458 0.9447 0.0
C271 C 0.89736 0.39882 0.96926 0.0
C272 C 0.89705 0.37958 0.9944 0.0
C273 C 0.869 0.35602 0.99419 0.0
C274 C 0.86839 0.41504 0.9179 0.0
C275 C 0.92663 0.3828 0.02047 0.0
C276 C 0.97149 0.42811 0.93293 0.0
C277 C 0.97949 0.46565 0.95323 0.0
C278 C 0.94597 0.4057 0.93957 0.0
C279 C 0.92743 0.42138 0.96649 0.0
C280 C 0.93624 0.45906 0.98824 0.0
C281 C 0.96248 0.48074 0.98162 0.0
C282 C 0.93794 0.36553 0.9164 0.0
C283 C 0.9168 0.47692 0.01678 0.0
H284 H 0.82043 0.36652 0.92535 0.0
H285 H 0.86884 0.34071 0.01289 0.0
H286 H 0.87752 0.44465 0.93309 0.0
H287 H 0.88399 0.4057 0.89699 0.0
H288 H 0.8441 0.41099 0.90287 0.0
H289 H 0.92196 0.36792 0.03994 0.0
H290 H 0.94463 0.3716 0.00397 0.0
H291 H 0.93703 0.41185 0.03702 0.0
H292 H 0.98474 0.4164 0.91106 0.0
H293 H 0.96843 0.50984 0.99704 0.0
H294 H 0.91542 0.35923 0.89694 0.0
H295 H 0.93439 0.34905 0.93457 0.0
H296 H 0.95671 0.35695 0.89978 0.0
H297 H 0.89342 0.47708 0.00231 0.0
H298 H 0.92855 0.50546 0.03398 0.0
H299 H 0.9123 0.46125 0.03554 0.0
C300 C 0.28099 0.18032 0.48167 0.0
C301 C 0.26139 0.16782 0.44697 0.0
C302 C 0.28109 0.15844 0.50384 0.0
C303 C 0.26171 0.12294 0.49042 0.0
C304 C 0.24209 0.11015 0.45513 0.0
C305 C 0.24189 0.13297 0.43401 0.0
C306 C 0.30189 0.17328 0.54161 0.0
C307 C 0.22178 0.07217 0.43939 0.0
C308 C 0.2887 0.0559 0.53146 0.0
C309 C 0.26767 0.05477 0.55672 0.0
C310 C 0.28639 0.07714 0.50897 0.0
C311 C 0.26302 0.09863 0.5126 0.0
C312 C 0.24146 0.09732 0.53782 0.0
C313 C 0.24376 0.07492 0.55927 0.0
C314 C 0.30925 0.07694 0.48167 0.0
C315 C 0.21667 0.12045 0.54301 0.0
H316 H 0.29584 0.20745 0.49166 0.0
H317 H 0.22683 0.12341 0.40702 0.0
H318 H 0.28748 0.17146 0.5635 0.0
H319 H 0.32006 0.15665 0.54208 0.0
H320 H 0.31412 0.20212 0.54883 0.0
H321 H 0.20779 0.06648 0.41157 0.0
H322 H 0.23698 0.05177 0.43672 0.0
H323 H 0.20522 0.06832 0.45865 0.0
H324 H 0.30708 0.04009 0.5293 0.0
H325 H 0.2277 0.0743 0.57909 0.0
H326 H 0.32456 0.10442 0.48965 0.0
H327 H 0.29603 0.07029 0.45326 0.0
H328 H 0.32466 0.05695 0.48059 0.0
H329 H 0.22839 0.14971 0.55305 0.0
H330 H 0.20142 0.1159 0.56331 0.0
H331 H 0.20141 0.11447 0.51595 0.0
C332 C 0.38665 0.72671 0.86869 0.0
C333 C 0.35754 0.70488 0.86824 0.0
C334 C 0.41514 0.72325 0.88663 0.0
C335 C 0.41451 0.69817 0.90564 0.0
C336 C 0.38545 0.67537 0.90452 0.0
C337 C 0.35747 0.67855 0.88531 0.0
C338 C 0.44578 0.74747 0.88645 0.0
C339 C 0.38363 0.64882 0.9251 0.0
C340 C 0.49104 0.67502 0.94015 0.0
C341 C 0.49872 0.70051 0.97655 0.0
C342 C 0.46389 0.67419 0.91633 0.0
C343 C 0.44358 0.69851 0.92989 0.0
C344 C 0.45095 0.72357 0.96702 0.0
C345 C 0.47868 0.72465 0.98964 0.0
C346 C 0.45726 0.64787 0.87657 0.0
C347 C 0.42946 0.74916 0.98303 0.0
H348 H 0.38719 0.74736 0.85597 0.0
H349 H 0.33542 0.66063 0.88421 0.0
H350 H 0.45436 0.76826 0.91469 0.0
H351 H 0.46433 0.73124 0.87932 0.0
H352 H 0.44292 0.76177 0.86629 0.0
H353 H 0.35951 0.63166 0.91979 0.0
H354 H 0.40066 0.63071 0.91686 0.0
H355 H 0.39032 0.66407 0.95555 0.0
H356 H 0.50667 0.65649 0.93007 0.0
H357 H 0.48444 0.74404 0.01801 0.0
H358 H 0.45641 0.66316 0.85712 0.0
H359 H 0.43377 0.62947 0.87102 0.0
H360 H 0.47551 0.63102 0.87026 0.0
H361 H 0.42801 0.768 0.96741 0.0
H362 H 0.43785 0.76565 0.01302 0.0
H363 H 0.40512 0.73342 0.98002 0.0
C364 C 0.80189 0.77087 0.46501 0.0
C365 C 0.80004 0.76286 0.42641 0.0
C366 C 0.79462 0.80322 0.48814 0.0
C367 C 0.7852 0.82827 0.47236 0.0
C368 C 0.78204 0.81969 0.43324 0.0
C369 C 0.78953 0.78713 0.41075 0.0
C370 C 0.79821 0.81122 0.52969 0.0
C371 C 0.77207 0.84562 0.41531 0.0
C372 C 0.75085 0.90432 0.53558 0.0
C373 C 0.77796 0.93225 0.55082 0.0
C374 C 0.75246 0.87061 0.50894 0.0
C375 C 0.78182 0.86484 0.49728 0.0
C376 C 0.80885 0.89356 0.51131 0.0
C377 C 0.80658 0.92679 0.53782 0.0
C378 C 0.7231 0.84069 0.49446 0.0
C379 C 0.84058 0.88875 0.4995 0.0
H380 H 0.80938 0.75196 0.47725 0.0
H381 H 0.78824 0.78133 0.38101 0.0
H382 H 0.81781 0.83513 0.54426 0.0
H383 H 0.77629 0.81827 0.54021 0.0
H384 H 0.80341 0.78779 0.53724 0.0
H385 H 0.76732 0.83323 0.38437 0.0
H386 H 0.75046 0.85439 0.42521 0.0
H387 H 0.79107 0.87045 0.4235 0.0
H388 H 0.72866 0.90826 0.5455 0.0
H389 H 0.82763 0.94829 0.54914 0.0
H390 H 0.72609 0.81831 0.5049 0.0
H391 H 0.71943 0.829 0.46353 0.0
H392 H 0.70155 0.85052 0.50338 0.0
H393 H 0.84908 0.86781 0.50893 0.0
H394 H 0.8588 0.91445 0.51125 0.0
H395 H 0.83829 0.87895 0.46864 0.0
C396 C 0.70056 0.26418 0.07609 0.0
C397 C 0.70092 0.2733 0.04401 0.0
C398 C 0.67227 0.25846 0.0902 0.0
C399 C 0.64375 0.26205 0.07165 0.0
C400 C 0.64382 0.2691 0.03784 0.0
C401 C 0.67259 0.2749 0.02449 0.0
C402 C 0.67335 0.25118 0.12637 0.0
C403 C 0.61395 0.27282 0.01707 0.0
C404 C 0.56778 0.23305 0.10615 0.0
C405 C 0.56453 0.26639 0.1318 0.0
C406 C 0.59283 0.23122 0.08527 0.0
C407 C 0.61521 0.26341 0.09041 0.0
C408 C 0.61148 0.29721 0.11549 0.0
C409 C 0.58622 0.29828 0.1357 0.0
C410 C 0.59585 0.19477 0.05849 0.0
C411 C 0.63483 0.33222 0.12198 0.0
H412 H 0.7227 0.26326 0.0912 0.0
H413 H 0.67312 0.28222 0.99974 0.0
H414 H 0.66934 0.27536 0.14877 0.0
H415 H 0.65426 0.2278 0.12376 0.0
H416 H 0.69648 0.2453 0.13509 0.0
H417 H 0.61694 0.27283 0.98871 0.0
H418 H 0.59399 0.25032 0.01452 0.0
H419 H 0.60733 0.29879 0.0329 0.0
H420 H 0.55111 0.20829 0.10284 0.0
H421 H 0.58396 0.32423 0.15532 0.0
H422 H 0.61747 0.187 0.06873 0.0
H423 H 0.5985 0.19651 0.0307 0.0
H424 H 0.57507 0.17289 0.0552 0.0
H425 H 0.65864 0.33046 0.13387 0.0
H426 H 0.62787 0.35641 0.14136 0.0
H427 H 0.63692 0.33645 0.09515 0.0
C428 C 0.27458 0.82214 0.77542 0.0
C429 C 0.27464 0.78773 0.7497 0.0
C430 C 0.27149 0.85142 0.76333 0.0
C431 C 0.26888 0.846 0.72473 0.0
C432 C 0.26752 0.81068 0.69868 0.0
C433 C 0.27042 0.78195 0.71155 0.0
C434 C 0.27271 0.8885 0.79194 0.0
C435 C 0.26496 0.80367 0.65735 0.0
C436 C 0.24564 0.9152 0.68356 0.0
C437 C 0.2753 0.93273 0.67972 0.0
C438 C 0.24315 0.88786 0.69953 0.0
C439 C 0.27092 0.87763 0.71167 0.0
C440 C 0.30092 0.89606 0.70893 0.0
C441 C 0.30274 0.92338 0.69315 0.0
C442 C 0.21077 0.86915 0.70234 0.0
C443 C 0.33116 0.88597 0.72139 0.0
H444 H 0.27817 0.82649 0.805 0.0
H445 H 0.27081 0.75527 0.69181 0.0
H446 H 0.29551 0.90688 0.79384 0.0
H447 H 0.25343 0.90086 0.78346 0.0
H448 H 0.27063 0.88722 0.82005 0.0
H449 H 0.26158 0.7742 0.64062 0.0
H450 H 0.24486 0.81424 0.64774 0.0
H451 H 0.28686 0.81834 0.65171 0.0
H452 H 0.2243 0.92231 0.67343 0.0
H453 H 0.32578 0.93676 0.69046 0.0
H454 H 0.21011 0.869 0.73105 0.0
H455 H 0.20559 0.84031 0.68324 0.0
H456 H 0.19178 0.8825 0.69498 0.0
H457 H 0.33244 0.88734 0.75078 0.0
H458 H 0.35264 0.9041 0.71909 0.0
H459 H 0.3314 0.85748 0.70408 0.0
C460 C 0.70898 0.67172 0.26973 0.0
C461 C 0.73977 0.66979 0.26259 0.0
C462 C 0.68633 0.6757 0.24341 0.0
C463 C 0.6949 0.67766 0.20937 0.0
C464 C 0.72619 0.67582 0.20235 0.0
C465 C 0.74828 0.67187 0.22915 0.0
C466 C 0.65325 0.67769 0.25192 0.0
C467 C 0.7363 0.6779 0.16651 0.0
C468 C 0.63135 0.65693 0.12536 0.0
C469 C 0.62922 0.69209 0.12633 0.0
C470 C 0.65228 0.65177 0.15257 0.0
C471 C 0.67149 0.68249 0.18136 0.0
C472 C 0.66918 0.71799 0.1827 0.0
C473 C 0.64813 0.72235 0.15522 0.0
C474 C 0.65411 0.61347 0.15026 0.0
C475 C 0.68926 0.75144 0.21292 0.0
H476 H 0.70258 0.66982 0.29568 0.0
H477 H 0.77219 0.67007 0.2238 0.0
H478 H 0.64751 0.70378 0.25147 0.0
H479 H 0.63578 0.65535 0.23014 0.0
H480 H 0.65037 0.67561 0.27957 0.0
H481 H 0.76145 0.67579 0.16528 0.0
H482 H 0.72116 0.65563 0.14227 0.0
H483 H 0.73313 0.70405 0.16358 0.0
H484 H 0.61679 0.63341 0.10324 0.0
H485 H 0.64664 0.74967 0.15636 0.0
H486 H 0.64949 0.60966 0.17672 0.0
H487 H 0.67833 0.60887 0.14643 0.0
H488 H 0.63688 0.59251 0.12686 0.0
H489 H 0.68542 0.75079 0.24081 0.0
H490 H 0.68391 0.77714 0.21068 0.0
H491 H 0.71472 0.75174 0.21132 0.0
C492 C 0.7547 0.2031 0.89515 0.0
C493 C 0.7597 0.23899 0.89545 0.0
C494 C 0.74984 0.17335 0.86145 0.0
C495 C 0.74999 0.17969 0.82732 0.0
C496 C 0.75226 0.21566 0.8273 0.0
C497 C 0.75711 0.24487 0.86137 0.0
C498 C 0.7474 0.13545 0.86277 0.0
C499 C 0.75229 0.22369 0.79159 0.0
C500 C 0.78837 0.11823 0.75408 0.0
C501 C 0.76223 0.09523 0.72782 0.0
C502 C 0.7845 0.14546 0.78644 0.0
C503 C 0.75364 0.15012 0.79301 0.0
C504 C 0.72701 0.12706 0.76679 0.0
C505 C 0.73161 0.0998 0.73443 0.0
C506 C 0.81362 0.16936 0.81361 0.0
C507 C 0.69378 0.13129 0.77289 0.0
H508 H 0.75677 0.19832 0.92136 0.0
H509 H 0.76041 0.27254 0.86142 0.0
H510 H 0.72871 0.11563 0.84033 0.0
H511 H 0.7702 0.12675 0.85816 0.0
H512 H 0.74215 0.13429 0.8901 0.0
H513 H 0.74909 0.25184 0.79553 0.0
H514 H 0.77522 0.2206 0.78163 0.0
H515 H 0.73326 0.20411 0.76942 0.0
H516 H 0.81217 0.11502 0.74945 0.0
H517 H 0.71128 0.08216 0.71435 0.0
H518 H 0.81256 0.16721 0.84152 0.0
H519 H 0.81451 0.19832 0.81677 0.0
H520 H 0.83593 0.16191 0.80454 0.0
H521 H 0.68948 0.12843 0.79984 0.0
H522 H 0.67557 0.11086 0.75021 0.0
H523 H 0.69082 0.15898 0.77458 0.0
C524 C 0.33342 0.20404 0.35684 0.0
C525 C 0.31331 0.22909 0.36603 0.0
C526 C 0.35847 0.20915 0.33732 0.0
C527 C 0.36291 0.23919 0.32503 0.0
C528 C 0.34272 0.26446 0.33378 0.0
C529 C 0.31866 0.25955 0.35476 0.0
C530 C 0.38006 0.18215 0.32959 0.0
C531 C 0.34617 0.2964 0.3204 0.0
C532 C 0.44202 0.2715 0.29906 0.0
C533 C 0.4367 0.25348 0.26031 0.0
C534 C 0.41851 0.26638 0.32058 0.0
C535 C 0.38849 0.24392 0.30269 0.0
C536 C 0.38294 0.22592 0.26342 0.0
C537 C 0.40737 0.23036 0.24277 0.0
C538 C 0.42585 0.28487 0.36246 0.0
C539 C 0.35098 0.20271 0.24313 0.0
H540 H 0.32936 0.1798 0.36419 0.0
H541 H 0.30398 0.27964 0.36213 0.0
H542 H 0.3772 0.16713 0.29915 0.0
H543 H 0.40519 0.1967 0.33906 0.0
H544 H 0.37511 0.16203 0.34372 0.0
H545 H 0.32777 0.31276 0.32822 0.0
H546 H 0.36982 0.3145 0.33234 0.0
H547 H 0.34452 0.28652 0.28958 0.0
H548 H 0.46481 0.28929 0.31259 0.0
H549 H 0.40316 0.21683 0.21272 0.0
H550 H 0.42114 0.26435 0.37613 0.0
H551 H 0.41018 0.30445 0.37187 0.0
H552 H 0.45087 0.29981 0.37219 0.0
H553 H 0.34491 0.17966 0.25313 0.0
H554 H 0.35023 0.19152 0.21243 0.0
H555 H 0.33242 0.21913 0.24915 0.0
C556 C 0.88428 0.68127 0.8458 0.0
C557 C 0.85219 0.67391 0.84928 0.0
C558 C 0.90388 0.65696 0.84777 0.0
C559 C 0.89116 0.62438 0.85342 0.0
C560 C 0.85879 0.61679 0.85715 0.0
C561 C 0.83967 0.64176 0.85518 0.0
C562 C 0.93835 0.66638 0.84418 0.0
C563 C 0.84443 0.58232 0.86321 0.0
C564 C 0.94101 0.55168 0.82956 0.0
C565 C 0.95857 0.5584 0.86461 0.0
C566 C 0.91794 0.57194 0.8256 0.0
C567 C 0.91242 0.5995 0.85741 0.0
C568 C 0.9293 0.60547 0.89296 0.0
C569 C 0.95207 0.58488 0.89612 0.0
C570 C 0.90025 0.56472 0.78725 0.0
C571 C 0.92424 0.63463 0.92759 0.0
H572 H 0.89414 0.70632 0.84172 0.0
H573 H 0.81481 0.63583 0.85751 0.0
H574 H 0.95362 0.66886 0.87015 0.0
H575 H 0.94424 0.64425 0.82102 0.0
H576 H 0.94431 0.69234 0.83887 0.0
H577 H 0.81871 0.57998 0.86456 0.0
H578 H 0.84778 0.55817 0.84028 0.0
H579 H 0.85666 0.58162 0.88958 0.0
H580 H 0.94575 0.53118 0.80513 0.0
H581 H 0.96525 0.59014 0.92344 0.0
H582 H 0.90717 0.58867 0.77879 0.0
H583 H 0.87436 0.56078 0.78759 0.0
H584 H 0.90518 0.54032 0.76592 0.0
H585 H 0.93193 0.66189 0.92561 0.0
H586 H 0.93765 0.63409 0.95346 0.0
H587 H 0.89871 0.63127 0.93 0.0
C588 C 0.84667 0.36322 0.40381 0.0
C589 C 0.84374 0.32963 0.40915 0.0
C590 C 0.87446 0.37904 0.39452 0.0
C591 C 0.90011 0.36084 0.39029 0.0
C592 C 0.89724 0.32665 0.39511 0.0
C593 C 0.86911 0.31152 0.40479 0.0
C594 C 0.87664 0.41581 0.39025 0.0
C595 C 0.92401 0.30634 0.39053 0.0
C596 C 0.96147 0.39844 0.34096 0.0
C597 C 0.98307 0.42392 0.37137 0.0
C598 C 0.93523 0.37594 0.34653 0.0
C599 C 0.93045 0.37922 0.38335 0.0
C600 C 0.95306 0.40357 0.41399 0.0
C601 C 0.97906 0.42549 0.40763 0.0
C602 C 0.91179 0.35001 0.31314 0.0
C603 C 0.94884 0.4081 0.4537 0.0
H604 H 0.82736 0.37766 0.40779 0.0
H605 H 0.86686 0.28549 0.40874 0.0
H606 H 0.89577 0.43618 0.41169 0.0
H607 H 0.88278 0.41436 0.36254 0.0
H608 H 0.85414 0.42573 0.39318 0.0
H609 H 0.91731 0.27902 0.39278 0.0
H610 H 0.93152 0.30296 0.36301 0.0
H611 H 0.94481 0.32232 0.41221 0.0
H612 H 0.96447 0.39684 0.31285 0.0
H613 H 0.99574 0.4448 0.43137 0.0
H614 H 0.88945 0.36015 0.31207 0.0
H615 H 0.90592 0.32269 0.31552 0.0
H616 H 0.92091 0.34715 0.28652 0.0
H617 H 0.9281 0.42073 0.46042 0.0
H618 H 0.96998 0.42557 0.47418 0.0
H619 H 0.94404 0.38119 0.45715 0.0
C620 C 0.21422 0.36797 0.87705 0.0
C621 C 0.24109 0.39221 0.87604 0.0
C622 C 0.18378 0.37506 0.87083 0.0
C623 C 0.18048 0.40741 0.86406 0.0
C624 C 0.20764 0.43074 0.86083 0.0
C625 C 0.23767 0.4228 0.86689 0.0
C626 C 0.15546 0.34931 0.8741 0.0
C627 C 0.20532 0.46559 0.8539 0.0
C628 C 0.10076 0.42818 0.836 0.0
C629 C 0.09534 0.45101 0.87047 0.0
C630 C 0.12774 0.41242 0.83347 0.0
C631 C 0.14982 0.4199 0.8661 0.0
C632 C 0.14377 0.44178 0.90106 0.0
C633 C 0.11666 0.45689 0.9028 0.0
C634 C 0.13318 0.38885 0.79578 0.0
C635 C 0.16664 0.45057 0.93662 0.0
H636 H 0.21709 0.34442 0.88444 0.0
H637 H 0.25866 0.44163 0.86647 0.0
H638 H 0.14724 0.36177 0.90097 0.0
H639 H 0.13554 0.34428 0.85139 0.0
H640 H 0.16117 0.32277 0.87315 0.0
H641 H 0.22794 0.47846 0.8479 0.0
H642 H 0.18631 0.46034 0.83015 0.0
H643 H 0.19908 0.48527 0.87891 0.0
H644 H 0.0844 0.42338 0.81088 0.0
H645 H 0.11268 0.47425 0.92965 0.0
H646 H 0.13896 0.36303 0.79706 0.0
H647 H 0.15374 0.4032 0.78748 0.0
H648 H 0.11222 0.38228 0.77385 0.0
H649 H 0.17111 0.42509 0.94017 0.0
H650 H 0.15774 0.46665 0.96173 0.0
H651 H 0.1897 0.46642 0.93504 0.0
C652 C 0.2131 0.67057 0.27517 0.0
C653 C 0.24257 0.67387 0.29589 0.0
C654 C 0.18602 0.64706 0.2775 0.0
C655 C 0.18873 0.6259 0.30053 0.0
C656 C 0.21881 0.62798 0.32012 0.0
C657 C 0.24529 0.65228 0.31792 0.0
C658 C 0.15432 0.64622 0.25682 0.0
C659 C 0.22288 0.60539 0.3444 0.0
C660 C 0.12062 0.59748 0.34657 0.0
C661 C 0.10981 0.56063 0.32445 0.0
C662 C 0.14518 0.61943 0.33787 0.0
C663 C 0.15993 0.60392 0.30682 0.0
C664 C 0.14847 0.56695 0.28367 0.0
C665 C 0.12321 0.5458 0.29252 0.0
C666 C 0.15609 0.65894 0.36278 0.0
C667 C 0.16394 0.54924 0.25074 0.0
H668 H 0.21101 0.68754 0.25837 0.0
H669 H 0.26817 0.65475 0.33377 0.0
H670 H 0.14216 0.61773 0.24022 0.0
H671 H 0.13895 0.65782 0.27718 0.0
H672 H 0.15657 0.66204 0.23784 0.0
H673 H 0.2482 0.6075 0.35477 0.0
H674 H 0.21061 0.61463 0.36881 0.0
H675 H 0.21192 0.5763 0.32865 0.0
H676 H 0.11011 0.60907 0.37113 0.0
H677 H 0.11506 0.51721 0.27557 0.0
H678 H 0.15729 0.67677 0.34579 0.0
H679 H 0.18029 0.66323 0.37807 0.0
H680 H 0.14016 0.66767 0.38351 0.0
H681 H 0.16587 0.56584 0.23255 0.0
H682 H 0.15066 0.52124 0.23379 0.0
H683 H 0.18837 0.54774 0.26085 0.0
C684 C 0.82267 0.81415 0.73461 0.0
C685 C 0.81888 0.81591 0.77076 0.0
C686 C 0.82502 0.84532 0.7248 0.0
C687 C 0.82356 0.87905 0.75196 0.0
C688 C 0.82031 0.88101 0.78888 0.0
C689 C 0.81798 0.84919 0.79791 0.0
C690 C 0.82827 0.84192 0.68509 0.0
C691 C 0.81873 0.91648 0.81854 0.0
C692 C 0.84976 0.96112 0.72364 0.0
C693 C 0.82066 0.96509 0.70778 0.0
C694 C 0.85108 0.93447 0.74015 0.0
C695 C 0.82267 0.91118 0.74042 0.0
C696 C 0.79323 0.91617 0.72588 0.0
C697 C 0.79258 0.94309 0.70995 0.0
C698 C 0.8829 0.93018 0.75581 0.0
C699 C 0.76239 0.89178 0.7253 0.0
H700 H 0.82365 0.78821 0.71387 0.0
H701 H 0.81535 0.8503 0.82599 0.0
H702 H 0.80722 0.84844 0.67188 0.0
H703 H 0.84935 0.86173 0.68471 0.0
H704 H 0.83058 0.8141 0.66789 0.0
H705 H 0.81858 0.91401 0.84646 0.0
H706 H 0.8392 0.93806 0.82024 0.0
H707 H 0.79693 0.92554 0.81105 0.0
H708 H 0.87153 0.97814 0.72233 0.0
H709 H 0.76989 0.94601 0.69806 0.0
H710 H 0.88836 0.90441 0.73763 0.0
H711 H 0.88245 0.92842 0.78395 0.0
H712 H 0.90226 0.95312 0.75776 0.0
H713 H 0.76161 0.86359 0.70629 0.0
H714 H 0.7414 0.90108 0.7157 0.0
H715 H 0.76062 0.89069 0.75348 0.0
C716 C 0.69731 0.28716 0.39486 0.0
C717 C 0.72565 0.31104 0.39665 0.0
C718 C 0.66841 0.28922 0.37654 0.0
C719 C 0.66788 0.31496 0.35847 0.0
C720 C 0.6962 0.33942 0.36048 0.0
C721 C 0.72456 0.3376 0.38007 0.0
C722 C 0.63855 0.26319 0.37573 0.0
C723 C 0.69679 0.36675 0.34088 0.0
C724 C 0.6027 0.2903 0.27571 0.0
C725 C 0.58252 0.3138 0.29024 0.0
C726 C 0.63072 0.29083 0.29751 0.0
C727 C 0.63821 0.31456 0.33521 0.0
C728 C 0.61758 0.33792 0.35028 0.0
C729 C 0.5902 0.33776 0.32732 0.0
C730 C 0.65256 0.26637 0.27997 0.0
C731 C 0.62429 0.36274 0.39066 0.0
H732 H 0.69769 0.26621 0.40705 0.0
H733 H 0.74597 0.35697 0.3821 0.0
H734 H 0.61945 0.27828 0.38399 0.0
H735 H 0.63015 0.24342 0.34695 0.0
H736 H 0.64229 0.24772 0.3946 0.0
H737 H 0.72067 0.38428 0.34569 0.0
H738 H 0.68933 0.3522 0.3104 0.0
H739 H 0.67973 0.38448 0.35053 0.0
H740 H 0.59694 0.2721 0.24683 0.0
H741 H 0.57446 0.3558 0.33853 0.0
H742 H 0.65512 0.24695 0.29466 0.0
H743 H 0.67651 0.28295 0.28281 0.0
H744 H 0.64381 0.25054 0.24991 0.0
H745 H 0.62668 0.34647 0.40897 0.0
H746 H 0.60531 0.37823 0.3984 0.0
H747 H 0.64708 0.38241 0.3963 0.0
C748 C 0.30305 0.25369 0.82684 0.0
C749 C 0.32875 0.26989 0.8562 0.0
C750 C 0.30323 0.22116 0.79757 0.0
C751 C 0.32921 0.20371 0.79826 0.0
C752 C 0.35528 0.21999 0.8275 0.0
C753 C 0.35507 0.25319 0.85546 0.0
C754 C 0.27543 0.20524 0.76615 0.0
C755 C 0.38315 0.20192 0.8298 0.0
C756 C 0.31321 0.10156 0.74516 0.0
C757 C 0.32795 0.09989 0.71402 0.0
C758 C 0.31409 0.13515 0.77322 0.0
C759 C 0.32883 0.16787 0.76908 0.0
C760 C 0.34353 0.16622 0.73738 0.0
C761 C 0.34342 0.13212 0.71052 0.0
C762 C 0.29923 0.13562 0.80725 0.0
C763 C 0.35845 0.20047 0.73125 0.0
H764 H 0.28249 0.26597 0.82694 0.0
H765 H 0.37569 0.26589 0.87698 0.0
H766 H 0.28386 0.19931 0.73883 0.0
H767 H 0.26248 0.17906 0.76688 0.0
H768 H 0.25857 0.22382 0.76783 0.0
H769 H 0.40119 0.21769 0.85496 0.0
H770 H 0.37483 0.17422 0.83045 0.0
H771 H 0.39468 0.19867 0.80473 0.0
H772 H 0.30108 0.0765 0.74758 0.0
H773 H 0.3542 0.13069 0.68591 0.0
H774 H 0.27917 0.1499 0.80865 0.0
H775 H 0.3168 0.15087 0.83293 0.0
H776 H 0.29032 0.10772 0.80715 0.0
H777 H 0.34053 0.21739 0.73062 0.0
H778 H 0.36832 0.19449 0.70478 0.0
H779 H 0.37776 0.21703 0.75468 0.0
C780 C 0.37679 0.76325 0.18283 0.0
C781 C 0.37636 0.75726 0.2166 0.0
C782 C 0.40538 0.7693 0.16939 0.0
C783 C 0.43414 0.76926 0.19034 0.0
C784 C 0.43389 0.76558 0.22576 0.0
C785 C 0.40484 0.75936 0.23841 0.0
C786 C 0.40446 0.77289 0.13145 0.0
C787 C 0.46397 0.76564 0.24909 0.0
C788 C 0.49398 0.73004 0.13179 0.0
C789 C 0.51503 0.76141 0.13293 0.0
C790 C 0.46816 0.73242 0.15107 0.0
C791 C 0.46317 0.76706 0.1725 0.0
C792 C 0.48484 0.79891 0.17492 0.0
C793 C 0.5105 0.79573 0.15494 0.0
C794 C 0.44561 0.69769 0.14746 0.0
C795 C 0.48047 0.83628 0.19785 0.0
H796 H 0.35456 0.76139 0.166 0.0
H797 H 0.40428 0.75454 0.26452 0.0
H798 H 0.42303 0.7961 0.13241 0.0
H799 H 0.40937 0.7478 0.11123 0.0
H800 H 0.38106 0.77693 0.12091 0.0
H801 H 0.46061 0.76848 0.27811 0.0
H802 H 0.4718 0.73967 0.23635 0.0
H803 H 0.48325 0.78814 0.24994 0.0
H804 H 0.49718 0.70332 0.11502 0.0
H805 H 0.52664 0.8201 0.15608 0.0
H806 H 0.42168 0.69744 0.13406 0.0
H807 H 0.44343 0.69628 0.17546 0.0
H808 H 0.4534 0.67287 0.13059 0.0
H809 H 0.45857 0.84184 0.18535 0.0
H810 H 0.50078 0.85809 0.19951 0.0
H811 H 0.47754 0.8375 0.22655 0.0
C812 C 0.82289 0.20577 0.49745 0.0
C813 C 0.81975 0.23975 0.52145 0.0
C814 C 0.8293 0.17876 0.51163 0.0
C815 C 0.83204 0.18599 0.55058 0.0
C816 C 0.83114 0.22135 0.57496 0.0
C817 C 0.82496 0.24785 0.56001 0.0
C818 C 0.83051 0.14163 0.48472 0.0
C819 C 0.83376 0.23027 0.61658 0.0
C820 C 0.79777 0.10923 0.5825 0.0
C821 C 0.82498 0.10049 0.59735 0.0
C822 C 0.79994 0.13645 0.56667 0.0
C823 C 0.83012 0.1554 0.56518 0.0
C824 C 0.85777 0.14613 0.57912 0.0
C825 C 0.85489 0.11888 0.59528 0.0
C826 C 0.76977 0.14553 0.55239 0.0
C827 C 0.89032 0.16541 0.57755 0.0
H828 H 0.81857 0.19959 0.46753 0.0
H829 H 0.8222 0.27417 0.57842 0.0
H830 H 0.85004 0.13088 0.49534 0.0
H831 H 0.808 0.12232 0.48179 0.0
H832 H 0.83377 0.1423 0.45664 0.0
H833 H 0.83704 0.26003 0.63196 0.0
H834 H 0.81182 0.21627 0.62282 0.0
H835 H 0.85386 0.22034 0.62721 0.0
H836 H 0.77452 0.09527 0.58388 0.0
H837 H 0.87604 0.11222 0.60653 0.0
H838 H 0.76901 0.14261 0.52262 0.0
H839 H 0.76914 0.17431 0.56821 0.0
H840 H 0.74819 0.12776 0.555 0.0
H841 H 0.89204 0.16455 0.54869 0.0
H842 H 0.90935 0.15315 0.58687 0.0
H843 H 0.89447 0.19453 0.59561 0.0
C844 C 0.39551 0.33874 0.99175 0.0
C845 C 0.3656 0.34782 0.99031 0.0
C846 C 0.41248 0.34058 0.02546 0.0
C847 C 0.39914 0.35159 0.05857 0.0
C848 C 0.36959 0.36243 0.05763 0.0
C849 C 0.35317 0.36052 0.02344 0.0
C850 C 0.44405 0.3291 0.02525 0.0
C851 C 0.35459 0.37425 0.09232 0.0
C852 C 0.42632 0.30829 0.12691 0.0
C853 C 0.45082 0.33602 0.15133 0.0
C854 C 0.40814 0.31381 0.09791 0.0
C855 C 0.41472 0.34785 0.09294 0.0
C856 C 0.43828 0.37665 0.11868 0.0
C857 C 0.45603 0.37043 0.14775 0.0
C858 C 0.38301 0.28247 0.07136 0.0
C859 C 0.44595 0.41332 0.11428 0.0
H860 H 0.40542 0.32954 0.96625 0.0
H861 H 0.33002 0.36752 0.02236 0.0
H862 H 0.46228 0.3502 0.04726 0.0
H863 H 0.44204 0.30354 0.03148 0.0
H864 H 0.45235 0.32435 0.99792 0.0
H865 H 0.33361 0.38602 0.08793 0.0
H866 H 0.34697 0.35041 0.10072 0.0
H867 H 0.372 0.39472 0.11582 0.0
H868 H 0.42188 0.28175 0.1298 0.0
H869 H 0.47493 0.39197 0.16654 0.0
H870 H 0.39039 0.27308 0.0435 0.0
H871 H 0.36032 0.2914 0.06784 0.0
H872 H 0.37881 0.25896 0.08111 0.0
H873 H 0.45783 0.4107 0.08951 0.0
H874 H 0.46182 0.43411 0.1391 0.0
H875 H 0.42394 0.42316 0.10948 0.0
C876 C 0.32573 0.82292 0.36865 0.0
C877 C 0.3231 0.78688 0.36747 0.0
C878 C 0.33101 0.85203 0.40286 0.0
C879 C 0.33379 0.84489 0.43664 0.0
C880 C 0.33371 0.8089 0.43559 0.0
C881 C 0.32831 0.78032 0.401 0.0
C882 C 0.331 0.89 0.40272 0.0
C883 C 0.33692 0.80014 0.47092 0.0
C884 C 0.35674 0.92471 0.52918 0.0
C885 C 0.3269 0.92891 0.53915 0.0
C886 C 0.35955 0.89733 0.496 0.0
C887 C 0.33187 0.87377 0.4723 0.0
C888 C 0.30177 0.87774 0.48244 0.0
C889 C 0.29967 0.90514 0.51565 0.0
C890 C 0.39202 0.89378 0.48613 0.0
C891 C 0.27162 0.8532 0.458 0.0
H892 H 0.32153 0.82817 0.34285 0.0
H893 H 0.32676 0.75254 0.4002 0.0
H894 H 0.30848 0.89779 0.41052 0.0
H895 H 0.35064 0.91008 0.4236 0.0
H896 H 0.33326 0.89189 0.37487 0.0
H897 H 0.34114 0.77215 0.46569 0.0
H898 H 0.35664 0.81992 0.49193 0.0
H899 H 0.31484 0.80229 0.48314 0.0
H900 H 0.37791 0.94295 0.54714 0.0
H901 H 0.27649 0.90808 0.52302 0.0
H902 H 0.39399 0.89808 0.4593 0.0
H903 H 0.39567 0.86584 0.48223 0.0
H904 H 0.41124 0.91368 0.50791 0.0
H905 H 0.26975 0.85566 0.43 0.0
H906 H 0.25009 0.85983 0.46996 0.0
H907 H 0.27205 0.82433 0.45406 0.0
C908 C 0.77621 0.75249 0.92986 0.0
C909 C 0.76902 0.74684 0.89171 0.0
C910 C 0.75307 0.75799 0.9532 0.0
C911 C 0.72192 0.75802 0.93817 0.0
C912 C 0.71494 0.75429 0.90017 0.0
C913 C 0.73852 0.74867 0.87741 0.0
C914 C 0.76157 0.76191 0.99354 0.0
C915 C 0.68209 0.75421 0.883 0.0
C916 C 0.65481 0.72307 0.98204 0.0
C917 C 0.64683 0.75536 0.00431 0.0
C918 C 0.67906 0.72374 0.96051 0.0
C919 C 0.6959 0.75755 0.96092 0.0
C920 C 0.68796 0.79034 0.98311 0.0
C921 C 0.66355 0.78888 0.00464 0.0
C922 C 0.68675 0.68809 0.93742 0.0
C923 C 0.70528 0.8269 0.98412 0.0
H924 H 0.79985 0.75185 0.94136 0.0
H925 H 0.73257 0.74405 0.84796 0.0
H926 H 0.75375 0.78583 0.0121 0.0
H927 H 0.74907 0.73742 0.99813 0.0
H928 H 0.78744 0.76503 0.00187 0.0
H929 H 0.68144 0.75547 0.85452 0.0
H930 H 0.66563 0.72896 0.88119 0.0
H931 H 0.67314 0.77764 0.90073 0.0
H932 H 0.64218 0.69697 0.98152 0.0
H933 H 0.65757 0.81396 0.02169 0.0
H934 H 0.71182 0.6877 0.94615 0.0
H935 H 0.68391 0.68525 0.90755 0.0
H936 H 0.67138 0.66411 0.94011 0.0
H937 H 0.7309 0.83079 0.99434 0.0
H938 H 0.69606 0.84985 0.00239 0.0
H939 H 0.7031 0.82793 0.95553 0.0
loop_
_geom_bond_atom_site_label_1
_geom_bond_atom_site_label_2
_geom_bond_distance
_geom_bond_site_symmetry_2
_ccdc_geom_bond_type
H0 C3 0.929 . S
H1 C6 0.929 . S
H2 C8 0.930 . S
C3 H0 0.929 . S
C3 C4 1.398 . S
C3 C5 1.396 . S
C4 C3 1.398 . S
C4 C8 1.407 . S
C5 C3 1.396 . S
C5 C6 1.394 . S
C6 H1 0.929 . S
C6 C5 1.394 . S
C6 C7 1.382 . S
C7 C6 1.382 . S
C7 C8 1.392 . S
C7 N9 1.420 . S
C8 H2 0.930 . S
C8 C4 1.407 . S
C8 C7 1.392 . S
N9 C7 1.420 . S
N9 C10 1.244 . S
C10 N9 1.244 . S
H11 C14 0.929 . S
H12 C17 0.929 . S
H13 C19 0.930 . S
C14 H11 0.929 . S
C14 C15 1.398 . S
C14 C16 1.396 . S
C15 C14 1.398 . S
C15 C19 1.407 . S
C16 C14 1.396 . S
C16 C17 1.394 . S
C17 H12 0.929 . S
C17 C16 1.394 . S
C17 C18 1.382 . S
C18 C17 1.382 . S
C18 C19 1.392 . S
C18 N20 1.420 . S
C19 H13 0.930 . S
C19 C15 1.407 . S
C19 C18 1.392 . S
N20 C18 1.420 . S
N20 C21 1.244 . S
C21 N20 1.244 . S
H22 C25 0.929 . S
H23 C28 0.929 . S
H24 C30 0.930 . S
C25 H22 0.929 . S
C25 C26 1.398 . S
C25 C27 1.396 . S
C26 C25 1.398 . S
C26 C30 1.407 . S
C27 C25 1.396 . S
C27 C28 1.394 . S
C28 H23 0.929 . S
C28 C27 1.394 . S
C28 C29 1.382 . S
C29 C28 1.382 . S
C29 C30 1.392 . S
C29 N31 1.420 . S
C30 H24 0.930 . S
C30 C26 1.407 . S
C30 C29 1.392 . S
N31 C29 1.420 . S
N31 C32 1.244 . S
C32 N31 1.244 . S
H33 C36 0.929 . S
H34 C39 0.929 . S
H35 C41 0.930 1_554 S
C36 H33 0.929 . S
C36 C37 1.398 . S
C36 C38 1.396 . S
C37 C36 1.398 . S
C37 C41 1.407 . S
C38 C36 1.396 . S
C38 C39 1.394 . S
C39 H34 0.929 . S
C39 C38 1.394 . S
C39 C40 1.382 . S
C40 C39 1.382 . S
C40 C41 1.392 . S
C40 N42 1.420 1_556 S
C41 H35 0.930 1_556 S
C41 C37 1.407 . S
C41 C40 1.392 . S
N42 C40 1.420 1_554 S
N42 C43 1.244 . S
C43 N42 1.244 . S
H44 C47 0.929 . S
H45 C50 0.929 . S
H46 C52 0.930 . S
C47 H44 0.929 . S
C47 C48 1.398 . S
C47 C49 1.396 . S
C48 C47 1.398 . S
C48 C52 1.407 . S
C49 C47 1.396 . S
C49 C50 1.394 . S
C50 H45 0.929 . S
C50 C49 1.394 . S
C50 C51 1.382 . S
C51 C50 1.382 . S
C51 C52 1.392 . S
C51 N53 1.420 . S
C52 H46 0.930 . S
C52 C48 1.407 . S
C52 C51 1.392 . S
N53 C51 1.420 . S
N53 C54 1.244 . S
C54 N53 1.244 . S
H55 C58 0.929 . S
H56 C61 0.929 . S
H57 C63 0.930 . S
C58 H55 0.929 . S
C58 C59 1.398 . S
C58 C60 1.396 . S
C59 C58 1.398 . S
C59 C63 1.407 . S
C60 C58 1.396 . S
C60 C61 1.394 . S
C61 H56 0.929 . S
C61 C60 1.394 . S
C61 C62 1.382 . S
C62 C61 1.382 . S
C62 C63 1.392 . S
C62 N64 1.420 . S
C63 H57 0.930 . S
C63 C59 1.407 . S
C63 C62 1.392 . S
N64 C62 1.420 . S
N64 C65 1.244 . S
C65 N64 1.244 . S
H66 C69 0.929 . S
H67 C72 0.929 . S
H68 C74 0.930 . S
C69 H66 0.929 . S
C69 C70 1.398 . S
C69 C71 1.396 . S
C70 C69 1.398 . S
C70 C74 1.407 . S
C71 C69 1.396 . S
C71 C72 1.394 . S
C72 H67 0.929 . S
C72 C71 1.394 . S
C72 C73 1.382 . S
C73 C72 1.382 . S
C73 C74 1.392 . S
C73 N75 1.420 . S
C74 H68 0.930 . S
C74 C70 1.407 . S
C74 C73 1.392 . S
N75 C73 1.420 . S
N75 C76 1.244 . S
C76 N75 1.244 . S
H77 C80 0.929 . S
H78 C83 0.929 . S
H79 C85 0.930 . S
C80 H77 0.929 . S
C80 C81 1.398 . S
C80 C82 1.396 . S
C81 C80 1.398 . S
C81 C85 1.407 . S
C82 C80 1.396 . S
C82 C83 1.394 . S
C83 H78 0.929 . S
C83 C82 1.394 . S
C83 C84 1.382 . S
C84 C83 1.382 . S
C84 C85 1.392 . S
C84 N86 1.420 . S
C85 H79 0.930 . S
C85 C81 1.407 . S
C85 C84 1.392 . S
N86 C84 1.420 . S
N86 C87 1.244 . S
C87 N86 1.244 . S
C88 O90 1.247 1_655 S
C88 O92 1.258 . S
C89 O96 1.247 . S
C89 O97 1.258 . S
O90 C88 1.247 1_455 S
O90 Zn91 2.028 . S
Zn91 O90 2.028 . S
Zn91 O95 2.035 . S
Zn91 O97 2.035 . S
Zn91 O98 2.028 . S
O92 C88 1.258 . S
O92 Zn93 2.035 1_655 S
Zn93 O92 2.035 1_455 S
Zn93 O94 2.028 . S
Zn93 O96 2.028 . S
Zn93 O99 2.035 1_455 S
O94 Zn93 2.028 . S
O94 C100 1.247 . S
O95 Zn91 2.035 . S
O95 C100 1.258 . S
O96 C89 1.247 . S
O96 Zn93 2.028 . S
O97 C89 1.258 . S
O97 Zn91 2.035 . S
O98 Zn91 2.028 . S
O98 C101 1.247 1_455 S
O99 Zn93 2.035 1_655 S
O99 C101 1.258 . S
C100 O94 1.247 . S
C100 O95 1.258 . S
C101 O98 1.247 1_655 S
C101 O99 1.258 . S
C102 O104 1.247 1_655 S
C102 O106 1.261 . S
C103 O110 1.247 . S
C103 O111 1.258 . S
O104 C102 1.247 1_455 S
O104 Zn105 2.028 . S
Zn105 O104 2.028 . S
Zn105 O109 2.035 . S
Zn105 O111 2.035 . S
Zn105 O112 2.028 . S
O106 C102 1.261 . S
O106 Zn107 2.030 1_655 S
Zn107 O106 2.030 1_455 S
Zn107 O108 2.028 . S
Zn107 O110 2.028 . S
Zn107 O113 2.035 . S
O108 Zn107 2.028 . S
O108 C114 1.247 . S
O109 Zn105 2.035 . S
O109 C114 1.258 . S
O110 C103 1.247 . S
O110 Zn107 2.028 . S
O111 C103 1.258 . S
O111 Zn105 2.035 . S
O112 Zn105 2.028 . S
O112 C115 1.247 1_455 S
O113 Zn107 2.035 . S
O113 C115 1.258 1_455 S
C114 O108 1.247 . S
C114 O109 1.258 . S
C115 O112 1.247 1_655 S
C115 O113 1.258 1_655 S
C116 O118 1.247 . S
C116 O120 1.247 1_565 S
C117 O124 1.247 . S
C117 O125 1.258 . S
O118 C116 1.247 . S
O118 Zn119 2.028 1_565 S
Zn119 O118 2.028 1_545 S
Zn119 O123 2.035 . S
Zn119 O125 2.035 . S
Zn119 O126 2.028 1_545 S
O120 C116 1.247 1_545 S
O120 Zn121 2.058 . S
Zn121 O120 2.058 . S
Zn121 O122 2.028 . S
Zn121 O124 2.028 . S
Zn121 O127 2.035 1_545 S
O122 Zn121 2.028 . S
O122 C128 1.247 . S
O123 Zn119 2.035 . S
O123 C128 1.258 . S
O124 C117 1.247 . S
O124 Zn121 2.028 . S
O125 C117 1.258 . S
O125 Zn119 2.035 . S
O126 Zn119 2.028 1_565 S
O126 C129 1.247 . S
O127 Zn121 2.035 1_565 S
O127 C129 1.258 . S
C128 O122 1.247 . S
C128 O123 1.258 . S
C129 O126 1.247 . S
C129 O127 1.258 . S
C130 O132 1.247 . S
C130 O134 1.258 . S
C131 O138 1.247 . S
C131 O139 1.258 . S
O132 C130 1.247 . S
O132 Zn133 2.028 1_554 S
Zn133 O132 2.028 1_556 S
Zn133 O137 2.035 1_556 S
Zn133 O139 2.035 . S
Zn133 O140 2.028 . S
O134 C130 1.258 . S
O134 Zn135 2.035 . S
Zn135 O134 2.035 . S
Zn135 O136 2.028 . S
Zn135 O138 2.028 1_554 S
Zn135 O141 2.035 1_554 S
O136 Zn135 2.028 . S
O136 C142 1.247 . S
O137 Zn133 2.035 1_554 S
O137 C142 1.258 . S
O138 C131 1.247 . S
O138 Zn135 2.028 1_556 S
O139 C131 1.258 . S
O139 Zn133 2.035 . S
O140 Zn133 2.028 . S
O140 C143 1.247 . S
O141 Zn135 2.035 1_556 S
O141 C143 1.258 . S
C142 O136 1.247 . S
C142 O137 1.258 . S
C143 O140 1.247 . S
C143 O141 1.258 . S
C144 O146 1.247 . S
C144 O148 1.258 . S
C145 O152 1.247 . S
C145 O153 1.258 . S
O146 C144 1.247 . S
O146 Zn147 2.028 1_565 S
Zn147 O146 2.028 1_545 S
Zn147 O151 2.035 . S
Zn147 O153 2.035 . S
Zn147 O154 2.028 1_545 S
O148 C144 1.258 . S
O148 Zn149 2.035 1_565 S
Zn149 O148 2.035 1_545 S
Zn149 O150 2.028 . S
Zn149 O152 2.028 . S
Zn149 O155 2.035 1_545 S
O150 Zn149 2.028 . S
O150 C156 1.247 . S
O151 Zn147 2.035 . S
O151 C156 1.258 . S
O152 C145 1.247 . S
O152 Zn149 2.028 . S
O153 C145 1.258 . S
O153 Zn147 2.035 . S
O154 Zn147 2.028 1_565 S
O154 C157 1.247 . S
O155 Zn149 2.035 1_565 S
O155 C157 1.258 . S
C156 O150 1.247 . S
C156 O151 1.258 . S
C157 O154 1.247 . S
C157 O155 1.258 . S
C158 O160 1.247 . S
C158 O162 1.258 . S
C159 O166 1.247 . S
C159 O167 1.258 . S
O160 C158 1.247 . S
O160 Zn161 2.028 . S
Zn161 O160 2.028 . S
Zn161 O165 2.035 . S
Zn161 O167 2.035 . S
Zn161 O168 2.028 . S
O162 C158 1.258 . S
O162 Zn163 2.035 . S
Zn163 O162 2.035 . S
Zn163 O164 2.028 . S
Zn163 O166 2.028 . S
Zn163 O169 2.035 . S
O164 Zn163 2.028 . S
O164 C170 1.247 . S
O165 Zn161 2.035 . S
O165 C170 1.258 . S
O166 C159 1.247 . S
O166 Zn163 2.028 . S
O167 C159 1.258 . S
O167 Zn161 2.035 . S
O168 Zn161 2.028 . S
O168 C171 1.247 . S
O169 Zn163 2.035 . S
O169 C171 1.258 . S
C170 O164 1.247 . S
C170 O165 1.258 . S
C171 O168 1.247 . S
C171 O169 1.258 . S
C172 C173 1.391 . S
C172 C174 1.394 . S
C172 H188 0.931 . S
C173 C172 1.391 . S
C173 C177 1.376 . S
C174 C172 1.394 . S
C174 C175 1.369 . S
C174 C178 1.531 . S
C175 C174 1.369 . S
C175 C176 1.410 . S
C175 C183 1.503 . S
C176 C175 1.410 . S
C176 C177 1.392 . S
C176 C179 1.511 . S
C177 C173 1.376 . S
C177 C176 1.392 . S
C177 H189 0.929 . S
C178 C174 1.531 . S
C178 H190 0.960 . S
C178 H191 0.962 . S
C178 H192 0.960 . S
C179 C176 1.511 . S
C179 H193 0.961 . S
C179 H194 0.961 . S
C179 H195 0.961 . S
C180 C181 1.370 . S
C180 C182 1.363 . S
C180 H196 0.931 . S
C181 C180 1.370 . S
C181 C185 1.408 . S
C182 C180 1.363 . S
C182 C183 1.370 . S
C182 C186 1.524 . S
C183 C175 1.503 . S
C183 C182 1.370 . S
C183 C184 1.403 . S
C184 C183 1.403 . S
C184 C185 1.404 . S
C184 C187 1.539 . S
C185 C181 1.408 . S
C185 C184 1.404 . S
C185 H197 0.930 . S
C186 C182 1.524 . S
C186 H198 0.956 . S
C186 H199 0.961 . S
C186 H200 0.961 . S
C187 C184 1.539 . S
C187 H201 0.958 . S
C187 H202 0.961 . S
C187 H203 0.960 . S
H188 C172 0.931 . S
H189 C177 0.929 . S
H190 C178 0.960 . S
H191 C178 0.962 . S
H192 C178 0.960 . S
H193 C179 0.961 . S
H194 C179 0.961 . S
H195 C179 0.961 . S
H196 C180 0.931 . S
H197 C185 0.930 . S
H198 C186 0.956 . S
H199 C186 0.961 . S
H200 C186 0.961 . S
H201 C187 0.958 . S
H202 C187 0.961 . S
H203 C187 0.960 . S
C204 C205 1.391 . S
C204 C206 1.394 . S
C204 H220 0.931 . S
C205 C204 1.391 . S
C205 C209 1.376 . S
C206 C204 1.394 . S
C206 C207 1.369 . S
C206 C210 1.531 . S
C207 C206 1.369 . S
C207 C208 1.410 . S
C207 C215 1.503 . S
C208 C207 1.410 . S
C208 C209 1.392 . S
C208 C211 1.511 . S
C209 C205 1.376 . S
C209 C208 1.392 . S
C209 H221 0.929 . S
C210 C206 1.531 . S
C210 H222 0.960 . S
C210 H223 0.962 . S
C210 H224 0.960 . S
C211 C208 1.511 . S
C211 H225 0.961 . S
C211 H226 0.961 . S
C211 H227 0.961 . S
C212 C213 1.370 . S
C212 C214 1.363 . S
C212 H228 0.931 . S
C213 C212 1.370 . S
C213 C217 1.408 . S
C214 C212 1.363 . S
C214 C215 1.370 . S
C214 C218 1.524 . S
C215 C207 1.503 . S
C215 C214 1.370 . S
C215 C216 1.403 . S
C216 C215 1.403 . S
C216 C217 1.404 . S
C216 C219 1.539 . S
C217 C213 1.408 . S
C217 C216 1.404 . S
C217 H229 0.930 . S
C218 C214 1.524 . S
C218 H230 0.956 . S
C218 H231 0.961 . S
C218 H232 0.961 . S
C219 C216 1.539 . S
C219 H233 0.958 . S
C219 H234 0.961 . S
C219 H235 0.960 . S
H220 C204 0.931 . S
H221 C209 0.929 . S
H222 C210 0.960 . S
H223 C210 0.962 . S
H224 C210 0.960 . S
H225 C211 0.961 . S
H226 C211 0.961 . S
H227 C211 0.961 . S
H228 C212 0.931 . S
H229 C217 0.930 . S
H230 C218 0.956 . S
H231 C218 0.961 . S
H232 C218 0.961 . S
H233 C219 0.958 . S
H234 C219 0.961 . S
H235 C219 0.960 . S
C236 C237 1.391 . S
C236 C238 1.394 . S
C236 H252 0.931 . S
C237 C236 1.391 . S
C237 C241 1.376 . S
C238 C236 1.394 . S
C238 C239 1.369 . S
C238 C242 1.531 . S
C239 C238 1.369 . S
C239 C240 1.410 . S
C239 C247 1.503 . S
C240 C239 1.410 . S
C240 C241 1.392 . S
C240 C243 1.511 . S
C241 C237 1.376 . S
C241 C240 1.392 . S
C241 H253 0.929 . S
C242 C238 1.531 . S
C242 H254 0.960 . S
C242 H255 0.962 . S
C242 H256 0.960 . S
C243 C240 1.511 . S
C243 H257 0.961 . S
C243 H258 0.961 . S
C243 H259 0.961 . S
C244 C245 1.370 . S
C244 C246 1.363 . S
C244 H260 0.931 . S
C245 C244 1.370 . S
C245 C249 1.408 . S
C246 C244 1.363 . S
C246 C247 1.370 . S
C246 C250 1.524 . S
C247 C239 1.503 . S
C247 C246 1.370 . S
C247 C248 1.403 . S
C248 C247 1.403 . S
C248 C249 1.404 . S
C248 C251 1.539 . S
C249 C245 1.408 . S
C249 C248 1.404 . S
C249 H261 0.930 . S
C250 C246 1.524 . S
C250 H262 0.956 . S
C250 H263 0.961 . S
C250 H264 0.961 . S
C251 C248 1.539 . S
C251 H265 0.958 . S
C251 H266 0.961 . S
C251 H267 0.960 . S
H252 C236 0.931 . S
H253 C241 0.929 . S
H254 C242 0.960 . S
H255 C242 0.962 . S
H256 C242 0.960 . S
H257 C243 0.961 . S
H258 C243 0.961 . S
H259 C243 0.961 . S
H260 C244 0.931 . S
H261 C249 0.930 . S
H262 C250 0.956 . S
H263 C250 0.961 . S
H264 C250 0.961 . S
H265 C251 0.958 . S
H266 C251 0.961 . S
H267 C251 0.960 . S
C268 C269 1.391 . S
C268 C270 1.394 . S
C268 H284 0.931 . S
C269 C268 1.391 . S
C269 C273 1.376 . S
C270 C268 1.394 . S
C270 C271 1.369 . S
C270 C274 1.531 . S
C271 C270 1.369 . S
C271 C272 1.410 . S
C271 C279 1.503 . S
C272 C271 1.410 . S
C272 C273 1.392 . S
C272 C275 1.511 1_556 S
C273 C269 1.376 . S
C273 C272 1.392 . S
C273 H285 0.929 1_556 S
C274 C270 1.531 . S
C274 H286 0.960 . S
C274 H287 0.962 . S
C274 H288 0.960 . S
C275 C272 1.511 1_554 S
C275 H289 0.961 . S
C275 H290 0.961 . S
C275 H291 0.961 . S
C276 C277 1.370 . S
C276 C278 1.363 . S
C276 H292 0.931 . S
C277 C276 1.370 . S
C277 C281 1.408 . S
C278 C276 1.363 . S
C278 C279 1.370 . S
C278 C282 1.524 . S
C279 C271 1.503 . S
C279 C278 1.370 . S
C279 C280 1.403 . S
C280 C279 1.403 . S
C280 C281 1.404 . S
C280 C283 1.539 . S
C281 C277 1.408 . S
C281 C280 1.404 . S
C281 H293 0.930 . S
C282 C278 1.524 . S
C282 H294 0.956 . S
C282 H295 0.961 1_556 S
C282 H296 0.961 1_556 S
C283 C280 1.539 . S
C283 H297 0.958 . S
C283 H298 0.961 . S
C283 H299 0.960 . S
H284 C268 0.931 . S
H285 C273 0.929 1_554 S
H286 C274 0.960 . S
H287 C274 0.962 . S
H288 C274 0.960 . S
H289 C275 0.961 . S
H290 C275 0.961 . S
H291 C275 0.961 . S
H292 C276 0.931 . S
H293 C281 0.930 . S
H294 C282 0.956 . S
H295 C282 0.961 1_554 S
H296 C282 0.961 1_554 S
H297 C283 0.958 . S
H298 C283 0.961 . S
H299 C283 0.960 . S
C300 C301 1.391 . S
C300 C302 1.394 . S
C300 H316 0.931 . S
C301 C300 1.391 . S
C301 C305 1.376 . S
C302 C300 1.394 . S
C302 C303 1.369 . S
C302 C306 1.531 . S
C303 C302 1.369 . S
C303 C304 1.410 . S
C303 C311 1.503 . S
C304 C303 1.410 . S
C304 C305 1.392 . S
C304 C307 1.511 . S
C305 C301 1.376 . S
C305 C304 1.392 . S
C305 H317 0.929 . S
C306 C302 1.531 . S
C306 H318 0.960 . S
C306 H319 0.962 . S
C306 H320 0.960 . S
C307 C304 1.511 . S
C307 H321 0.961 . S
C307 H322 0.961 . S
C307 H323 0.961 . S
C308 C309 1.370 . S
C308 C310 1.363 . S
C308 H324 0.931 . S
C309 C308 1.370 . S
C309 C313 1.408 . S
C310 C308 1.363 . S
C310 C311 1.370 . S
C310 C314 1.524 . S
C311 C303 1.503 . S
C311 C310 1.370 . S
C311 C312 1.403 . S
C312 C311 1.403 . S
C312 C313 1.404 . S
C312 C315 1.539 . S
C313 C309 1.408 . S
C313 C312 1.404 . S
C313 H325 0.930 . S
C314 C310 1.524 . S
C314 H326 0.956 . S
C314 H327 0.961 . S
C314 H328 0.961 . S
C315 C312 1.539 . S
C315 H329 0.958 . S
C315 H330 0.961 . S
C315 H331 0.960 . S
H316 C300 0.931 . S
H317 C305 0.929 . S
H318 C306 0.960 . S
H319 C306 0.962 . S
H320 C306 0.960 . S
H321 C307 0.961 . S
H322 C307 0.961 . S
H323 C307 0.961 . S
H324 C308 0.931 . S
H325 C313 0.930 . S
H326 C314 0.956 . S
H327 C314 0.961 . S
H328 C314 0.961 . S
H329 C315 0.958 . S
H330 C315 0.961 . S
H331 C315 0.960 . S
C332 C333 1.391 . S
C332 C334 1.394 . S
C332 H348 0.931 . S
C333 C332 1.391 . S
C333 C337 1.376 . S
C334 C332 1.394 . S
C334 C335 1.369 . S
C334 C338 1.531 . S
C335 C334 1.369 . S
C335 C336 1.410 . S
C335 C343 1.503 . S
C336 C335 1.410 . S
C336 C337 1.392 . S
C336 C339 1.511 . S
C337 C333 1.376 . S
C337 C336 1.392 . S
C337 H349 0.929 . S
C338 C334 1.531 . S
C338 H350 0.960 . S
C338 H351 0.962 . S
C338 H352 0.960 . S
C339 C336 1.511 . S
C339 H353 0.961 . S
C339 H354 0.961 . S
C339 H355 0.961 . S
C340 C341 1.370 . S
C340 C342 1.363 . S
C340 H356 0.931 . S
C341 C340 1.370 . S
C341 C345 1.408 . S
C342 C340 1.363 . S
C342 C343 1.370 . S
C342 C346 1.524 . S
C343 C335 1.503 . S
C343 C342 1.370 . S
C343 C344 1.403 . S
C344 C343 1.403 . S
C344 C345 1.404 . S
C344 C347 1.539 . S
C345 C341 1.408 . S
C345 C344 1.404 . S
C345 H357 0.930 . S
C346 C342 1.524 . S
C346 H358 0.956 . S
C346 H359 0.961 . S
C346 H360 0.961 . S
C347 C344 1.539 . S
C347 H361 0.958 . S
C347 H362 0.961 . S
C347 H363 0.960 . S
H348 C332 0.931 . S
H349 C337 0.929 . S
H350 C338 0.960 . S
H351 C338 0.962 . S
H352 C338 0.960 . S
H353 C339 0.961 . S
H354 C339 0.961 . S
H355 C339 0.961 . S
H356 C340 0.931 . S
H357 C345 0.930 . S
H358 C346 0.956 . S
H359 C346 0.961 . S
H360 C346 0.961 . S
H361 C347 0.958 . S
H362 C347 0.961 . S
H363 C347 0.960 . S
C364 C365 1.391 . S
C364 C366 1.394 . S
C364 H380 0.931 . S
C365 C364 1.391 . S
C365 C369 1.376 . S
C366 C364 1.394 . S
C366 C367 1.369 . S
C366 C370 1.531 . S
C367 C366 1.369 . S
C367 C368 1.410 . S
C367 C375 1.503 . S
C368 C367 1.410 . S
C368 C369 1.392 . S
C368 C371 1.511 . S
C369 C365 1.376 . S
C369 C368 1.392 . S
C369 H381 0.929 . S
C370 C366 1.531 . S
C370 H382 0.960 . S
C370 H383 0.962 . S
C370 H384 0.960 . S
C371 C368 1.511 . S
C371 H385 0.961 . S
C371 H386 0.961 . S
C371 H387 0.961 . S
C372 C373 1.370 . S
C372 C374 1.363 . S
C372 H388 0.931 . S
C373 C372 1.370 . S
C373 C377 1.408 . S
C374 C372 1.363 . S
C374 C375 1.370 . S
C374 C378 1.524 . S
C375 C367 1.503 . S
C375 C374 1.370 . S
C375 C376 1.403 . S
C376 C375 1.403 . S
C376 C377 1.404 . S
C376 C379 1.539 . S
C377 C373 1.408 . S
C377 C376 1.404 . S
C377 H389 0.930 . S
C378 C374 1.524 . S
C378 H390 0.956 . S
C378 H391 0.961 . S
C378 H392 0.961 . S
C379 C376 1.539 . S
C379 H393 0.958 . S
C379 H394 0.961 . S
C379 H395 0.960 . S
H380 C364 0.931 . S
H381 C369 0.929 . S
H382 C370 0.960 . S
H383 C370 0.962 . S
H384 C370 0.960 . S
H385 C371 0.961 . S
H386 C371 0.961 . S
H387 C371 0.961 . S
H388 C372 0.931 . S
H389 C377 0.930 . S
H390 C378 0.956 . S
H391 C378 0.961 . S
H392 C378 0.961 . S
H393 C379 0.958 . S
H394 C379 0.961 . S
H395 C379 0.960 . S
C396 C397 1.391 . S
C396 C398 1.394 . S
C396 H412 0.931 . S
C397 C396 1.391 . S
C397 C401 1.376 . S
C398 C396 1.394 . S
C398 C399 1.369 . S
C398 C402 1.531 . S
C399 C398 1.369 . S
C399 C400 1.410 . S
C399 C407 1.503 . S
C400 C399 1.410 . S
C400 C401 1.392 . S
C400 C403 1.511 . S
C401 C397 1.376 . S
C401 C400 1.392 . S
C401 H413 0.929 . S
C402 C398 1.531 . S
C402 H414 0.960 . S
C402 H415 0.962 . S
C402 H416 0.960 . S
C403 C400 1.511 . S
C403 H417 0.961 . S
C403 H418 0.961 . S
C403 H419 0.961 . S
C404 C405 1.370 . S
C404 C406 1.363 . S
C404 H420 0.931 . S
C405 C404 1.370 . S
C405 C409 1.408 . S
C406 C404 1.363 . S
C406 C407 1.370 . S
C406 C410 1.524 . S
C407 C399 1.503 . S
C407 C406 1.370 . S
C407 C408 1.403 . S
C408 C407 1.403 . S
C408 C409 1.404 . S
C408 C411 1.539 . S
C409 C405 1.408 . S
C409 C408 1.404 . S
C409 H421 0.930 . S
C410 C406 1.524 . S
C410 H422 0.956 . S
C410 H423 0.961 . S
C410 H424 0.961 . S
C411 C408 1.539 . S
C411 H425 0.958 . S
C411 H426 0.961 . S
C411 H427 0.960 . S
H412 C396 0.931 . S
H413 C401 0.929 . S
H414 C402 0.960 . S
H415 C402 0.962 . S
H416 C402 0.960 . S
H417 C403 0.961 . S
H418 C403 0.961 . S
H419 C403 0.961 . S
H420 C404 0.931 . S
H421 C409 0.930 . S
H422 C410 0.956 . S
H423 C410 0.961 . S
H424 C410 0.961 . S
H425 C411 0.958 . S
H426 C411 0.961 . S
H427 C411 0.960 . S
C428 C429 1.391 . S
C428 C430 1.394 . S
C428 H444 0.931 . S
C429 C428 1.391 . S
C429 C433 1.376 . S
C430 C428 1.394 . S
C430 C431 1.369 . S
C430 C434 1.531 . S
C431 C430 1.369 . S
C431 C432 1.410 . S
C431 C439 1.503 . S
C432 C431 1.410 . S
C432 C433 1.392 . S
C432 C435 1.511 . S
C433 C429 1.376 . S
C433 C432 1.392 . S
C433 H445 0.929 . S
C434 C430 1.531 . S
C434 H446 0.960 . S
C434 H447 0.962 . S
C434 H448 0.960 . S
C435 C432 1.511 . S
C435 H449 0.961 . S
C435 H450 0.961 . S
C435 H451 0.961 . S
C436 C437 1.370 . S
C436 C438 1.363 . S
C436 H452 0.931 . S
C437 C436 1.370 . S
C437 C441 1.408 . S
C438 C436 1.363 . S
C438 C439 1.370 . S
C438 C442 1.524 . S
C439 C431 1.503 . S
C439 C438 1.370 . S
C439 C440 1.403 . S
C440 C439 1.403 . S
C440 C441 1.404 . S
C440 C443 1.539 . S
C441 C437 1.408 . S
C441 C440 1.404 . S
C441 H453 0.930 . S
C442 C438 1.524 . S
C442 H454 0.956 . S
C442 H455 0.961 . S
C442 H456 0.961 . S
C443 C440 1.539 . S
C443 H457 0.958 . S
C443 H458 0.961 . S
C443 H459 0.960 . S
H444 C428 0.931 . S
H445 C433 0.929 . S
H446 C434 0.960 . S
H447 C434 0.962 . S
H448 C434 0.960 . S
H449 C435 0.961 . S
H450 C435 0.961 . S
H451 C435 0.961 . S
H452 C436 0.931 . S
H453 C441 0.930 . S
H454 C442 0.956 . S
H455 C442 0.961 . S
H456 C442 0.961 . S
H457 C443 0.958 . S
H458 C443 0.961 . S
H459 C443 0.960 . S
C460 C461 1.391 . S
C460 C462 1.394 . S
C460 H476 0.931 . S
C461 C460 1.391 . S
C461 C465 1.376 . S
C462 C460 1.394 . S
C462 C463 1.369 . S
C462 C466 1.531 . S
C463 C462 1.369 . S
C463 C464 1.410 . S
C463 C471 1.503 . S
C464 C463 1.410 . S
C464 C465 1.392 . S
C464 C467 1.511 . S
C465 C461 1.376 . S
C465 C464 1.392 . S
C465 H477 0.929 . S
C466 C462 1.531 . S
C466 H478 0.960 . S
C466 H479 0.962 . S
C466 H480 0.960 . S
C467 C464 1.511 . S
C467 H481 0.961 . S
C467 H482 0.961 . S
C467 H483 0.961 . S
C468 C469 1.370 . S
C468 C470 1.363 . S
C468 H484 0.931 . S
C469 C468 1.370 . S
C469 C473 1.408 . S
C470 C468 1.363 . S
C470 C471 1.370 . S
C470 C474 1.524 . S
C471 C463 1.503 . S
C471 C470 1.370 . S
C471 C472 1.403 . S
C472 C471 1.403 . S
C472 C473 1.404 . S
C472 C475 1.539 . S
C473 C469 1.408 . S
C473 C472 1.404 . S
C473 H485 0.930 . S
C474 C470 1.524 . S
C474 H486 0.956 . S
C474 H487 0.961 . S
C474 H488 0.961 . S
C475 C472 1.539 . S
C475 H489 0.958 . S
C475 H490 0.961 . S
C475 H491 0.960 . S
H476 C460 0.931 . S
H477 C465 0.929 . S
H478 C466 0.960 . S
H479 C466 0.962 . S
H480 C466 0.960 . S
H481 C467 0.961 . S
H482 C467 0.961 . S
H483 C467 0.961 . S
H484 C468 0.931 . S
H485 C473 0.930 . S
H486 C474 0.956 . S
H487 C474 0.961 . S
H488 C474 0.961 . S
H489 C475 0.958 . S
H490 C475 0.961 . S
H491 C475 0.960 . S
C492 C493 1.391 . S
C492 C494 1.394 . S
C492 H508 0.931 . S
C493 C492 1.391 . S
C493 C497 1.376 . S
C494 C492 1.394 . S
C494 C495 1.369 . S
C494 C498 1.531 . S
C495 C494 1.369 . S
C495 C496 1.410 . S
C495 C503 1.503 . S
C496 C495 1.410 . S
C496 C497 1.392 . S
C496 C499 1.511 . S
C497 C493 1.376 . S
C497 C496 1.392 . S
C497 H509 0.929 . S
C498 C494 1.531 . S
C498 H510 0.960 . S
C498 H511 0.962 . S
C498 H512 0.960 . S
C499 C496 1.511 . S
C499 H513 0.961 . S
C499 H514 0.961 . S
C499 H515 0.961 . S
C500 C501 1.370 . S
C500 C502 1.363 . S
C500 H516 0.931 . S
C501 C500 1.370 . S
C501 C505 1.408 . S
C502 C500 1.363 . S
C502 C503 1.370 . S
C502 C506 1.524 . S
C503 C495 1.503 . S
C503 C502 1.370 . S
C503 C504 1.403 . S
C504 C503 1.403 . S
C504 C505 1.404 . S
C504 C507 1.539 . S
C505 C501 1.408 . S
C505 C504 1.404 . S
C505 H517 0.930 . S
C506 C502 1.524 . S
C506 H518 0.956 . S
C506 H519 0.961 . S
C506 H520 0.961 . S
C507 C504 1.539 . S
C507 H521 0.958 . S
C507 H522 0.961 . S
C507 H523 0.960 . S
H508 C492 0.931 . S
H509 C497 0.929 . S
H510 C498 0.960 . S
H511 C498 0.962 . S
H512 C498 0.960 . S
H513 C499 0.961 . S
H514 C499 0.961 . S
H515 C499 0.961 . S
H516 C500 0.931 . S
H517 C505 0.930 . S
H518 C506 0.956 . S
H519 C506 0.961 . S
H520 C506 0.961 . S
H521 C507 0.958 . S
H522 C507 0.961 . S
H523 C507 0.960 . S
C524 C525 1.391 . S
C524 C526 1.394 . S
C524 H540 0.931 . S
C525 C524 1.391 . S
C525 C529 1.376 . S
C526 C524 1.394 . S
C526 C527 1.369 . S
C526 C530 1.531 . S
C527 C526 1.369 . S
C527 C528 1.410 . S
C527 C535 1.503 . S
C528 C527 1.410 . S
C528 C529 1.392 . S
C528 C531 1.511 . S
C529 C525 1.376 . S
C529 C528 1.392 . S
C529 H541 0.929 . S
C530 C526 1.531 . S
C530 H542 0.960 . S
C530 H543 0.962 . S
C530 H544 0.960 . S
C531 C528 1.511 . S
C531 H545 0.961 . S
C531 H546 0.961 . S
C531 H547 0.961 . S
C532 C533 1.370 . S
C532 C534 1.363 . S
C532 H548 0.931 . S
C533 C532 1.370 . S
C533 C537 1.408 . S
C534 C532 1.363 . S
C534 C535 1.370 . S
C534 C538 1.524 . S
C535 C527 1.503 . S
C535 C534 1.370 . S
C535 C536 1.403 . S
C536 C535 1.403 . S
C536 C537 1.404 . S
C536 C539 1.539 . S
C537 C533 1.408 . S
C537 C536 1.404 . S
C537 H549 0.930 . S
C538 C534 1.524 . S
C538 H550 0.956 . S
C538 H551 0.961 . S
C538 H552 0.961 . S
C539 C536 1.539 . S
C539 H553 0.958 . S
C539 H554 0.961 . S
C539 H555 0.960 . S
H540 C524 0.931 . S
H541 C529 0.929 . S
H542 C530 0.960 . S
H543 C530 0.962 . S
H544 C530 0.960 . S
H545 C531 0.961 . S
H546 C531 0.961 . S
H547 C531 0.961 . S
H548 C532 0.931 . S
H549 C537 0.930 . S
H550 C538 0.956 . S
H551 C538 0.961 . S
H552 C538 0.961 . S
H553 C539 0.958 . S
H554 C539 0.961 . S
H555 C539 0.960 . S
C556 C557 1.391 . S
C556 C558 1.394 . S
C556 H572 0.931 . S
C557 C556 1.391 . S
C557 C561 1.376 . S
C558 C556 1.394 . S
C558 C559 1.369 . S
C558 C562 1.531 . S
C559 C558 1.369 . S
C559 C560 1.410 . S
C559 C567 1.503 . S
C560 C559 1.410 . S
C560 C561 1.392 . S
C560 C563 1.511 . S
C561 C557 1.376 . S
C561 C560 1.392 . S
C561 H573 0.929 . S
C562 C558 1.531 . S
C562 H574 0.960 . S
C562 H575 0.962 . S
C562 H576 0.960 . S
C563 C560 1.511 . S
C563 H577 0.961 . S
C563 H578 0.961 . S
C563 H579 0.961 . S
C564 C565 1.370 . S
C564 C566 1.363 . S
C564 H580 0.931 . S
C565 C564 1.370 . S
C565 C569 1.408 . S
C566 C564 1.363 . S
C566 C567 1.370 . S
C566 C570 1.524 . S
C567 C559 1.503 . S
C567 C566 1.370 . S
C567 C568 1.403 . S
C568 C567 1.403 . S
C568 C569 1.404 . S
C568 C571 1.539 . S
C569 C565 1.408 . S
C569 C568 1.404 . S
C569 H581 0.930 . S
C570 C566 1.524 . S
C570 H582 0.956 . S
C570 H583 0.961 . S
C570 H584 0.961 . S
C571 C568 1.539 . S
C571 H585 0.958 . S
C571 H586 0.961 . S
C571 H587 0.960 . S
H572 C556 0.931 . S
H573 C561 0.929 . S
H574 C562 0.960 . S
H575 C562 0.962 . S
H576 C562 0.960 . S
H577 C563 0.961 . S
H578 C563 0.961 . S
H579 C563 0.961 . S
H580 C564 0.931 . S
H581 C569 0.930 . S
H582 C570 0.956 . S
H583 C570 0.961 . S
H584 C570 0.961 . S
H585 C571 0.958 . S
H586 C571 0.961 . S
H587 C571 0.960 . S
C588 C589 1.391 . S
C588 C590 1.394 . S
C588 H604 0.931 . S
C589 C588 1.391 . S
C589 C593 1.376 . S
C590 C588 1.394 . S
C590 C591 1.369 . S
C590 C594 1.531 . S
C591 C590 1.369 . S
C591 C592 1.410 . S
C591 C599 1.503 . S
C592 C591 1.410 . S
C592 C593 1.392 . S
C592 C595 1.511 . S
C593 C589 1.376 . S
C593 C592 1.392 . S
C593 H605 0.929 . S
C594 C590 1.531 . S
C594 H606 0.960 . S
C594 H607 0.962 . S
C594 H608 0.960 . S
C595 C592 1.511 . S
C595 H609 0.961 . S
C595 H610 0.961 . S
C595 H611 0.961 . S
C596 C597 1.370 . S
C596 C598 1.363 . S
C596 H612 0.931 . S
C597 C596 1.370 . S
C597 C601 1.408 . S
C598 C596 1.363 . S
C598 C599 1.370 . S
C598 C602 1.524 . S
C599 C591 1.503 . S
C599 C598 1.370 . S
C599 C600 1.403 . S
C600 C599 1.403 . S
C600 C601 1.404 . S
C600 C603 1.539 . S
C601 C597 1.408 . S
C601 C600 1.404 . S
C601 H613 0.930 . S
C602 C598 1.524 . S
C602 H614 0.956 . S
C602 H615 0.961 . S
C602 H616 0.961 . S
C603 C600 1.539 . S
C603 H617 0.958 . S
C603 H618 0.961 . S
C603 H619 0.960 . S
H604 C588 0.931 . S
H605 C593 0.929 . S
H606 C594 0.960 . S
H607 C594 0.962 . S
H608 C594 0.960 . S
H609 C595 0.961 . S
H610 C595 0.961 . S
H611 C595 0.961 . S
H612 C596 0.931 . S
H613 C601 0.930 . S
H614 C602 0.956 . S
H615 C602 0.961 . S
H616 C602 0.961 . S
H617 C603 0.958 . S
H618 C603 0.961 . S
H619 C603 0.960 . S
C620 C621 1.391 . S
C620 C622 1.394 . S
C620 H636 0.931 . S
C621 C620 1.391 . S
C621 C625 1.376 . S
C622 C620 1.394 . S
C622 C623 1.369 . S
C622 C626 1.531 . S
C623 C622 1.369 . S
C623 C624 1.410 . S
C623 C631 1.503 . S
C624 C623 1.410 . S
C624 C625 1.392 . S
C624 C627 1.511 1_556 S
C625 C621 1.376 . S
C625 C624 1.392 . S
C625 H637 0.929 . S
C626 C622 1.531 . S
C626 H638 0.960 . S
C626 H639 0.962 . S
C626 H640 0.960 . S
C627 C624 1.511 1_554 S
C627 H641 0.961 . S
C627 H642 0.961 1_554 S
C627 H643 0.961 . S
C628 C629 1.370 . S
C628 C630 1.363 . S
C628 H644 0.931 . S
C629 C628 1.370 . S
C629 C633 1.408 . S
C630 C628 1.363 . S
C630 C631 1.370 . S
C630 C634 1.524 . S
C631 C623 1.503 . S
C631 C630 1.370 . S
C631 C632 1.403 . S
C632 C631 1.403 . S
C632 C633 1.404 . S
C632 C635 1.539 1_556 S
C633 C629 1.408 . S
C633 C632 1.404 . S
C633 H645 0.930 1_556 S
C634 C630 1.524 . S
C634 H646 0.956 . S
C634 H647 0.961 . S
C634 H648 0.961 . S
C635 C632 1.539 1_554 S
C635 H649 0.958 . S
C635 H650 0.961 . S
C635 H651 0.960 . S
H636 C620 0.931 . S
H637 C625 0.929 . S
H638 C626 0.960 . S
H639 C626 0.962 . S
H640 C626 0.960 . S
H641 C627 0.961 . S
H642 C627 0.961 1_556 S
H643 C627 0.961 . S
H644 C628 0.931 . S
H645 C633 0.930 1_554 S
H646 C634 0.956 . S
H647 C634 0.961 . S
H648 C634 0.961 . S
H649 C635 0.958 . S
H650 C635 0.961 . S
H651 C635 0.960 . S
C652 C653 1.391 . S
C652 C654 1.394 . S
C652 H668 0.931 . S
C653 C652 1.391 . S
C653 C657 1.376 . S
C654 C652 1.394 . S
C654 C655 1.369 . S
C654 C658 1.531 . S
C655 C654 1.369 . S
C655 C656 1.410 . S
C655 C663 1.503 . S
C656 C655 1.410 . S
C656 C657 1.392 . S
C656 C659 1.511 . S
C657 C653 1.376 . S
C657 C656 1.392 . S
C657 H669 0.929 . S
C658 C654 1.531 . S
C658 H670 0.960 . S
C658 H671 0.962 . S
C658 H672 0.960 . S
C659 C656 1.511 . S
C659 H673 0.961 . S
C659 H674 0.961 . S
C659 H675 0.961 . S
C660 C661 1.370 . S
C660 C662 1.363 . S
C660 H676 0.931 . S
C661 C660 1.370 . S
C661 C665 1.408 . S
C662 C660 1.363 . S
C662 C663 1.370 . S
C662 C666 1.524 . S
C663 C655 1.503 . S
C663 C662 1.370 . S
C663 C664 1.403 . S
C664 C663 1.403 . S
C664 C665 1.404 . S
C664 C667 1.539 . S
C665 C661 1.408 . S
C665 C664 1.404 . S
C665 H677 0.930 . S
C666 C662 1.524 . S
C666 H678 0.956 . S
C666 H679 0.961 . S
C666 H680 0.961 . S
C667 C664 1.539 . S
C667 H681 0.958 . S
C667 H682 0.961 . S
C667 H683 0.960 . S
H668 C652 0.931 . S
H669 C657 0.929 . S
H670 C658 0.960 . S
H671 C658 0.962 . S
H672 C658 0.960 . S
H673 C659 0.961 . S
H674 C659 0.961 . S
H675 C659 0.961 . S
H676 C660 0.931 . S
H677 C665 0.930 . S
H678 C666 0.956 . S
H679 C666 0.961 . S
H680 C666 0.961 . S
H681 C667 0.958 . S
H682 C667 0.961 . S
H683 C667 0.960 . S
C684 C685 1.391 . S
C684 C686 1.394 . S
C684 H700 0.931 . S
C685 C684 1.391 . S
C685 C689 1.376 . S
C686 C684 1.394 . S
C686 C687 1.369 . S
C686 C690 1.531 . S
C687 C686 1.369 . S
C687 C688 1.410 . S
C687 C695 1.503 . S
C688 C687 1.410 . S
C688 C689 1.392 . S
C688 C691 1.511 . S
C689 C685 1.376 . S
C689 C688 1.392 . S
C689 H701 0.929 . S
C690 C686 1.531 . S
C690 H702 0.960 . S
C690 H703 0.962 . S
C690 H704 0.960 . S
C691 C688 1.511 . S
C691 H705 0.961 . S
C691 H706 0.961 . S
C691 H707 0.961 . S
C692 C693 1.370 . S
C692 C694 1.363 . S
C692 H708 0.931 . S
C693 C692 1.370 . S
C693 C697 1.408 . S
C694 C692 1.363 . S
C694 C695 1.370 . S
C694 C698 1.524 . S
C695 C687 1.503 . S
C695 C694 1.370 . S
C695 C696 1.403 . S
C696 C695 1.403 . S
C696 C697 1.404 . S
C696 C699 1.539 . S
C697 C693 1.408 . S
C697 C696 1.404 . S
C697 H709 0.930 . S
C698 C694 1.524 . S
C698 H710 0.956 . S
C698 H711 0.961 . S
C698 H712 0.961 . S
C699 C696 1.539 . S
C699 H713 0.958 . S
C699 H714 0.961 . S
C699 H715 0.960 . S
H700 C684 0.931 . S
H701 C689 0.929 . S
H702 C690 0.960 . S
H703 C690 0.962 . S
H704 C690 0.960 . S
H705 C691 0.961 . S
H706 C691 0.961 . S
H707 C691 0.961 . S
H708 C692 0.931 . S
H709 C697 0.930 . S
H710 C698 0.956 . S
H711 C698 0.961 . S
H712 C698 0.961 . S
H713 C699 0.958 . S
H714 C699 0.961 . S
H715 C699 0.960 . S
C716 C717 1.391 . S
C716 C718 1.394 . S
C716 H732 0.931 . S
C717 C716 1.391 . S
C717 C721 1.376 . S
C718 C716 1.394 . S
C718 C719 1.369 . S
C718 C722 1.531 . S
C719 C718 1.369 . S
C719 C720 1.410 . S
C719 C727 1.503 . S
C720 C719 1.410 . S
C720 C721 1.392 . S
C720 C723 1.511 . S
C721 C717 1.376 . S
C721 C720 1.392 . S
C721 H733 0.929 . S
C722 C718 1.531 . S
C722 H734 0.960 . S
C722 H735 0.962 . S
C722 H736 0.960 . S
C723 C720 1.511 . S
C723 H737 0.961 . S
C723 H738 0.961 . S
C723 H739 0.961 . S
C724 C725 1.370 . S
C724 C726 1.363 . S
C724 H740 0.931 . S
C725 C724 1.370 . S
C725 C729 1.408 . S
C726 C724 1.363 . S
C726 C727 1.370 . S
C726 C730 1.524 . S
C727 C719 1.503 . S
C727 C726 1.370 . S
C727 C728 1.403 . S
C728 C727 1.403 . S
C728 C729 1.404 . S
C728 C731 1.539 . S
C729 C725 1.408 . S
C729 C728 1.404 . S
C729 H741 0.930 . S
C730 C726 1.524 . S
C730 H742 0.956 . S
C730 H743 0.961 . S
C730 H744 0.961 . S
C731 C728 1.539 . S
C731 H745 0.958 . S
C731 H746 0.961 . S
C731 H747 0.960 . S
H732 C716 0.931 . S
H733 C721 0.929 . S
H734 C722 0.960 . S
H735 C722 0.962 . S
H736 C722 0.960 . S
H737 C723 0.961 . S
H738 C723 0.961 . S
H739 C723 0.961 . S
H740 C724 0.931 . S
H741 C729 0.930 . S
H742 C730 0.956 . S
H743 C730 0.961 . S
H744 C730 0.961 . S
H745 C731 0.958 . S
H746 C731 0.961 . S
H747 C731 0.960 . S
C748 C749 1.391 . S
C748 C750 1.394 . S
C748 H764 0.931 . S
C749 C748 1.391 . S
C749 C753 1.376 . S
C750 C748 1.394 . S
C750 C751 1.369 . S
C750 C754 1.531 . S
C751 C750 1.369 . S
C751 C752 1.410 . S
C751 C759 1.503 . S
C752 C751 1.410 . S
C752 C753 1.392 . S
C752 C755 1.511 . S
C753 C749 1.376 . S
C753 C752 1.392 . S
C753 H765 0.929 . S
C754 C750 1.531 . S
C754 H766 0.960 . S
C754 H767 0.962 . S
C754 H768 0.960 . S
C755 C752 1.511 . S
C755 H769 0.961 . S
C755 H770 0.961 . S
C755 H771 0.961 . S
C756 C757 1.370 . S
C756 C758 1.363 . S
C756 H772 0.931 . S
C757 C756 1.370 . S
C757 C761 1.408 . S
C758 C756 1.363 . S
C758 C759 1.370 . S
C758 C762 1.524 . S
C759 C751 1.503 . S
C759 C758 1.370 . S
C759 C760 1.403 . S
C760 C759 1.403 . S
C760 C761 1.404 . S
C760 C763 1.539 . S
C761 C757 1.408 . S
C761 C760 1.404 . S
C761 H773 0.930 . S
C762 C758 1.524 . S
C762 H774 0.956 . S
C762 H775 0.961 . S
C762 H776 0.961 . S
C763 C760 1.539 . S
C763 H777 0.958 . S
C763 H778 0.961 . S
C763 H779 0.960 . S
H764 C748 0.931 . S
H765 C753 0.929 . S
H766 C754 0.960 . S
H767 C754 0.962 . S
H768 C754 0.960 . S
H769 C755 0.961 . S
H770 C755 0.961 . S
H771 C755 0.961 . S
H772 C756 0.931 . S
H773 C761 0.930 . S
H774 C762 0.956 . S
H775 C762 0.961 . S
H776 C762 0.961 . S
H777 C763 0.958 . S
H778 C763 0.961 . S
H779 C763 0.960 . S
C780 C781 1.391 . S
C780 C782 1.394 . S
C780 H796 0.931 . S
C781 C780 1.391 . S
C781 C785 1.376 . S
C782 C780 1.394 . S
C782 C783 1.369 . S
C782 C786 1.531 . S
C783 C782 1.369 . S
C783 C784 1.410 . S
C783 C791 1.503 . S
C784 C783 1.410 . S
C784 C785 1.392 . S
C784 C787 1.511 . S
C785 C781 1.376 . S
C785 C784 1.392 . S
C785 H797 0.929 . S
C786 C782 1.531 . S
C786 H798 0.960 . S
C786 H799 0.962 . S
C786 H800 0.960 . S
C787 C784 1.511 . S
C787 H801 0.961 . S
C787 H802 0.961 . S
C787 H803 0.961 . S
C788 C789 1.370 . S
C788 C790 1.363 . S
C788 H804 0.931 . S
C789 C788 1.370 . S
C789 C793 1.408 . S
C790 C788 1.363 . S
C790 C791 1.370 . S
C790 C794 1.524 . S
C791 C783 1.503 . S
C791 C790 1.370 . S
C791 C792 1.403 . S
C792 C791 1.403 . S
C792 C793 1.404 . S
C792 C795 1.539 . S
C793 C789 1.408 . S
C793 C792 1.404 . S
C793 H805 0.930 . S
C794 C790 1.524 . S
C794 H806 0.956 . S
C794 H807 0.961 . S
C794 H808 0.961 . S
C795 C792 1.539 . S
C795 H809 0.958 . S
C795 H810 0.961 . S
C795 H811 0.960 . S
H796 C780 0.931 . S
H797 C785 0.929 . S
H798 C786 0.960 . S
H799 C786 0.962 . S
H800 C786 0.960 . S
H801 C787 0.961 . S
H802 C787 0.961 . S
H803 C787 0.961 . S
H804 C788 0.931 . S
H805 C793 0.930 . S
H806 C794 0.956 . S
H807 C794 0.961 . S
H808 C794 0.961 . S
H809 C795 0.958 . S
H810 C795 0.961 . S
H811 C795 0.960 . S
C812 C813 1.391 . S
C812 C814 1.394 . S
C812 H828 0.931 . S
C813 C812 1.391 . S
C813 C817 1.376 . S
C814 C812 1.394 . S
C814 C815 1.369 . S
C814 C818 1.531 . S
C815 C814 1.369 . S
C815 C816 1.410 . S
C815 C823 1.503 . S
C816 C815 1.410 . S
C816 C817 1.392 . S
C816 C819 1.511 . S
C817 C813 1.376 . S
C817 C816 1.392 . S
C817 H829 0.929 . S
C818 C814 1.531 . S
C818 H830 0.960 . S
C818 H831 0.962 . S
C818 H832 0.960 . S
C819 C816 1.511 . S
C819 H833 0.961 . S
C819 H834 0.961 . S
C819 H835 0.961 . S
C820 C821 1.370 . S
C820 C822 1.363 . S
C820 H836 0.931 . S
C821 C820 1.370 . S
C821 C825 1.408 . S
C822 C820 1.363 . S
C822 C823 1.370 . S
C822 C826 1.524 . S
C823 C815 1.503 . S
C823 C822 1.370 . S
C823 C824 1.403 . S
C824 C823 1.403 . S
C824 C825 1.404 . S
C824 C827 1.539 . S
C825 C821 1.408 . S
C825 C824 1.404 . S
C825 H837 0.930 . S
C826 C822 1.524 . S
C826 H838 0.956 . S
C826 H839 0.961 . S
C826 H840 0.961 . S
C827 C824 1.539 . S
C827 H841 0.958 . S
C827 H842 0.961 . S
C827 H843 0.960 . S
H828 C812 0.931 . S
H829 C817 0.929 . S
H830 C818 0.960 . S
H831 C818 0.962 . S
H832 C818 0.960 . S
H833 C819 0.961 . S
H834 C819 0.961 . S
H835 C819 0.961 . S
H836 C820 0.931 . S
H837 C825 0.930 . S
H838 C826 0.956 . S
H839 C826 0.961 . S
H840 C826 0.961 . S
H841 C827 0.958 . S
H842 C827 0.961 . S
H843 C827 0.960 . S
C844 C845 1.391 . S
C844 C846 1.394 1_556 S
C844 H860 0.931 . S
C845 C844 1.391 . S
C845 C849 1.376 1_556 S
C846 C844 1.394 1_554 S
C846 C847 1.369 . S
C846 C850 1.531 . S
C847 C846 1.369 . S
C847 C848 1.410 . S
C847 C855 1.503 . S
C848 C847 1.410 . S
C848 C849 1.392 . S
C848 C851 1.511 . S
C849 C845 1.376 1_554 S
C849 C848 1.392 . S
C849 H861 0.929 . S
C850 C846 1.531 . S
C850 H862 0.960 . S
C850 H863 0.962 . S
C850 H864 0.960 . S
C851 C848 1.511 . S
C851 H865 0.961 . S
C851 H866 0.961 . S
C851 H867 0.961 . S
C852 C853 1.370 . S
C852 C854 1.363 . S
C852 H868 0.931 . S
C853 C852 1.370 . S
C853 C857 1.408 . S
C854 C852 1.363 . S
C854 C855 1.370 . S
C854 C858 1.524 . S
C855 C847 1.503 . S
C855 C854 1.370 . S
C855 C856 1.403 . S
C856 C855 1.403 . S
C856 C857 1.404 . S
C856 C859 1.539 . S
C857 C853 1.408 . S
C857 C856 1.404 . S
C857 H869 0.930 . S
C858 C854 1.524 . S
C858 H870 0.956 . S
C858 H871 0.961 . S
C858 H872 0.961 . S
C859 C856 1.539 . S
C859 H873 0.958 . S
C859 H874 0.961 . S
C859 H875 0.960 . S
H860 C844 0.931 . S
H861 C849 0.929 . S
H862 C850 0.960 . S
H863 C850 0.962 . S
H864 C850 0.960 . S
H865 C851 0.961 . S
H866 C851 0.961 . S
H867 C851 0.961 . S
H868 C852 0.931 . S
H869 C857 0.930 . S
H870 C858 0.956 . S
H871 C858 0.961 . S
H872 C858 0.961 . S
H873 C859 0.958 . S
H874 C859 0.961 . S
H875 C859 0.960 . S
C876 C877 1.391 . S
C876 C878 1.394 . S
C876 H892 0.931 . S
C877 C876 1.391 . S
C877 C881 1.376 . S
C878 C876 1.394 . S
C878 C879 1.369 . S
C878 C882 1.531 . S
C879 C878 1.369 . S
C879 C880 1.410 . S
C879 C887 1.503 . S
C880 C879 1.410 . S
C880 C881 1.392 . S
C880 C883 1.511 . S
C881 C877 1.376 . S
C881 C880 1.392 . S
C881 H893 0.929 . S
C882 C878 1.531 . S
C882 H894 0.960 . S
C882 H895 0.962 . S
C882 H896 0.960 . S
C883 C880 1.511 . S
C883 H897 0.961 . S
C883 H898 0.961 . S
C883 H899 0.961 . S
C884 C885 1.370 . S
C884 C886 1.363 . S
C884 H900 0.931 . S
C885 C884 1.370 . S
C885 C889 1.408 . S
C886 C884 1.363 . S
C886 C887 1.370 . S
C886 C890 1.524 . S
C887 C879 1.503 . S
C887 C886 1.370 . S
C887 C888 1.403 . S
C888 C887 1.403 . S
C888 C889 1.404 . S
C888 C891 1.539 . S
C889 C885 1.408 . S
C889 C888 1.404 . S
C889 H901 0.930 . S
C890 C886 1.524 . S
C890 H902 0.956 . S
C890 H903 0.961 . S
C890 H904 0.961 . S
C891 C888 1.539 . S
C891 H905 0.958 . S
C891 H906 0.961 . S
C891 H907 0.960 . S
H892 C876 0.931 . S
H893 C881 0.929 . S
H894 C882 0.960 . S
H895 C882 0.962 . S
H896 C882 0.960 . S
H897 C883 0.961 . S
H898 C883 0.961 . S
H899 C883 0.961 . S
H900 C884 0.931 . S
H901 C889 0.930 . S
H902 C890 0.956 . S
H903 C890 0.961 . S
H904 C890 0.961 . S
H905 C891 0.958 . S
H906 C891 0.961 . S
H907 C891 0.960 . S
C908 C909 1.391 . S
C908 C910 1.394 . S
C908 H924 0.931 . S
C909 C908 1.391 . S
C909 C913 1.376 . S
C910 C908 1.394 . S
C910 C911 1.369 . S
C910 C914 1.531 . S
C911 C910 1.369 . S
C911 C912 1.410 . S
C911 C919 1.503 . S
C912 C911 1.410 . S
C912 C913 1.392 . S
C912 C915 1.511 . S
C913 C909 1.376 . S
C913 C912 1.392 . S
C913 H925 0.929 . S
C914 C910 1.531 . S
C914 H926 0.960 . S
C914 H927 0.962 . S
C914 H928 0.960 . S
C915 C912 1.511 . S
C915 H929 0.961 . S
C915 H930 0.961 . S
C915 H931 0.961 . S
C916 C917 1.370 . S
C916 C918 1.363 . S
C916 H932 0.931 . S
C917 C916 1.370 . S
C917 C921 1.408 . S
C918 C916 1.363 . S
C918 C919 1.370 . S
C918 C922 1.524 . S
C919 C911 1.503 . S
C919 C918 1.370 . S
C919 C920 1.403 . S
C920 C919 1.403 . S
C920 C921 1.404 . S
C920 C923 1.539 . S
C921 C917 1.408 . S
C921 C920 1.404 . S
C921 H933 0.930 . S
C922 C918 1.524 . S
C922 H934 0.956 . S
C922 H935 0.961 . S
C922 H936 0.961 . S
C923 C920 1.539 . S
C923 H937 0.958 . S
C923 H938 0.961 . S
C923 H939 0.960 . S
H924 C908 0.931 . S
H925 C913 0.929 . S
H926 C914 0.960 . S
H927 C914 0.962 . S
H928 C914 0.960 . S
H929 C915 0.961 . S
H930 C915 0.961 . S
H931 C915 0.961 . S
H932 C916 0.931 . S
H933 C921 0.930 . S
H934 C922 0.956 . S
H935 C922 0.961 . S
H936 C922 0.961 . S
H937 C923 0.958 . S
H938 C923 0.961 . S
H939 C923 0.960 . S
C181 C100 1.519 . S
C173 C10 1.519 . S
C213 C103 1.678 . S
C205 C15 1.694 . S
C245 C101 1.419 . S
C237 C26 1.423 . S
C277 C102 1.496 . S
C269 C37 1.510 . S
C309 C117 1.753 . S
C301 C4 1.760 . S
C341 C131 1.666 . S
C333 C16 1.654 . S
C365 C27 1.581 . S
C373 C157 1.607 . S
C405 C171 1.407 . S
C397 C43 1.406 . S
C437 C116 1.678 . S
C429 C21 1.652 . S
C461 C32 1.444 . S
C469 C130 1.426 . S
C501 C156 1.589 . S
C493 C38 1.587 . S
C533 C170 1.579 . S
C525 C5 1.566 . S
C557 C49 1.718 . S
C565 C115 1.739 . S
C597 C88 1.584 . S
C589 C60 1.585 . S
C621 C76 1.565 . S
C629 C114 1.567 . S
C653 C81 1.528 . S
C661 C89 1.543 . S
C693 C144 1.478 . S
C685 C54 1.488 . S
C725 C158 1.594 . S
C717 C59 1.602 . S
C757 C128 1.600 . S
C749 C70 1.593 . S
C781 C87 1.612 . S
C789 C142 1.613 . S
C821 C145 1.545 . S
C813 C65 1.506 . S
C853 C159 1.621 . S
C845 C71 1.614 . S
C885 C129 1.596 . S
C877 C82 1.567 . S
C909 C48 1.711 . S
C917 C143 1.697 . S
