# Generated by pormake.
# Topology pto, (3,4)-cn, num edge types: 1
# Building blocks:
#     Node 0, Type 0, BuildingBlock: WUSLED_clean_sbu_0, # of connection points: 3
#     Node 1, Type 0, BuildingBlock: WUSLED_clean_sbu_0, # of connection points: 3
#     Node 2, Type 0, BuildingBlock: WUSLED_clean_sbu_0, # of connection points: 3
#     Node 3, Type 0, BuildingBlock: WUSLED_clean_sbu_0, # of connection points: 3
#     Node 4, Type 0, BuildingBlock: WUSLED_clean_sbu_0, # of connection points: 3
#     Node 5, Type 0, BuildingBlock: WUSLED_clean_sbu_0, # of connection points: 3
#     Node 6, Type 0, BuildingBlock: WUSLED_clean_sbu_0, # of connection points: 3
#     Node 7, Type 0, BuildingBlock: WUSLED_clean_sbu_0, # of connection points: 3
#     Node 8, Type 1, BuildingBlock: NAHDIM_clean_linker_0, # of connection points: 4
#     Node 9, Type 1, BuildingBlock: NAHDIM_clean_linker_0, # of connection points: 4
#     Node 10, Type 1, BuildingBlock: NAHDIM_clean_linker_0, # of connection points: 4
#     Node 11, Type 1, BuildingBlock: NAHDIM_clean_linker_0, # of connection points: 4
#     Node 12, Type 1, BuildingBlock: NAHDIM_clean_linker_0, # of connection points: 4
#     Node 13, Type 1, BuildingBlock: NAHDIM_clean_linker_0, # of connection points: 4
#     Edge 14, Type (0, 1), BuildingBlock: XUDNAN_clean_linker_2, # of connection points: 2
#     Edge 15, Type (0, 1), BuildingBlock: XUDNAN_clean_linker_2, # of connection points: 2
#     Edge 16, Type (0, 1), BuildingBlock: XUDNAN_clean_linker_2, # of connection points: 2
#     Edge 17, Type (0, 1), BuildingBlock: XUDNAN_clean_linker_2, # of connection points: 2
#     Edge 18, Type (0, 1), BuildingBlock: XUDNAN_clean_linker_2, # of connection points: 2
#     Edge 19, Type (0, 1), BuildingBlock: XUDNAN_clean_linker_2, # of connection points: 2
#     Edge 20, Type (0, 1), BuildingBlock: XUDNAN_clean_linker_2, # of connection points: 2
#     Edge 21, Type (0, 1), BuildingBlock: XUDNAN_clean_linker_2, # of connection points: 2
#     Edge 22, Type (0, 1), BuildingBlock: XUDNAN_clean_linker_2, # of connection points: 2
#     Edge 23, Type (0, 1), BuildingBlock: XUDNAN_clean_linker_2, # of connection points: 2
#     Edge 24, Type (0, 1), BuildingBlock: XUDNAN_clean_linker_2, # of connection points: 2
#     Edge 25, Type (0, 1), BuildingBlock: XUDNAN_clean_linker_2, # of connection points: 2
#     Edge 26, Type (0, 1), BuildingBlock: XUDNAN_clean_linker_2, # of connection points: 2
#     Edge 27, Type (0, 1), BuildingBlock: XUDNAN_clean_linker_2, # of connection points: 2
#     Edge 28, Type (0, 1), BuildingBlock: XUDNAN_clean_linker_2, # of connection points: 2
#     Edge 29, Type (0, 1), BuildingBlock: XUDNAN_clean_linker_2, # of connection points: 2
#     Edge 30, Type (0, 1), BuildingBlock: XUDNAN_clean_linker_2, # of connection points: 2
#     Edge 31, Type (0, 1), BuildingBlock: XUDNAN_clean_linker_2, # of connection points: 2
#     Edge 32, Type (0, 1), BuildingBlock: XUDNAN_clean_linker_2, # of connection points: 2
#     Edge 33, Type (0, 1), BuildingBlock: XUDNAN_clean_linker_2, # of connection points: 2
#     Edge 34, Type (0, 1), BuildingBlock: XUDNAN_clean_linker_2, # of connection points: 2
#     Edge 35, Type (0, 1), BuildingBlock: XUDNAN_clean_linker_2, # of connection points: 2
#     Edge 36, Type (0, 1), BuildingBlock: XUDNAN_clean_linker_2, # of connection points: 2
#     Edge 37, Type (0, 1), BuildingBlock: XUDNAN_clean_linker_2, # of connection points: 2
# Relax obj value: 0.001
# Max RMSD: 0.071
# Mean RMSD: 0.020
data_MOF--net-pto--node1-WUSLED_clean_sbu_0--node2-NAHDIM_clean_linker_0--edge1-XUDNAN_clean_linker_2
_symmetry_space_group_name_H-M    P1
_symmetry_Int_Tables_number       1
_symmetry_cell_setting            triclinic
loop_
_symmetry_equiv_pos_as_xyz
'x, y, z'
_cell_length_a     74.777948
_cell_length_b     71.192781
_cell_length_c     67.320794
_cell_angle_alpha  89.056817
_cell_angle_beta   90.858641
_cell_angle_gamma 90.497688
loop_
_atom_site_label
_atom_site_type_symbol
_atom_site_fract_x
_atom_site_fract_y
_atom_site_fract_z
_atom_type_partial_charge
C0 C 0.25388 0.24946 0.29973 0.0
C1 C 0.26671 0.2368 0.29319 0.0
C2 C 0.26388 0.21834 0.32381 0.0
C3 C 0.27161 0.22136 0.30507 0.0
C4 C 0.25076 0.23091 0.33012 0.0
C5 C 0.24583 0.24635 0.31817 0.0
U6 U 0.26545 0.28311 0.25781 0.0
O7 O 0.24877 0.29769 0.23532 0.0
O8 O 0.26543 0.31402 0.2561 0.0
C9 C 0.25341 0.31444 0.24167 0.0
C10 C 0.24959 0.26638 0.28784 0.0
C11 C 0.23916 0.32848 0.24332 0.0
C12 C 0.20794 0.33739 0.24625 0.0
C13 C 0.2212 0.32354 0.24672 0.0
C14 C 0.23055 0.36115 0.23963 0.0
C15 C 0.21247 0.35629 0.24225 0.0
C16 C 0.24371 0.3474 0.24013 0.0
C17 C 0.30724 0.27497 0.22797 0.0
C18 C 0.31342 0.29309 0.19792 0.0
C19 C 0.33734 0.27627 0.21487 0.0
C20 C 0.32525 0.26972 0.22912 0.0
C21 C 0.33161 0.28819 0.19918 0.0
C22 C 0.30138 0.28664 0.21224 0.0
C23 C 0.29492 0.26902 0.24377 0.0
O24 O 0.261 0.28038 0.28996 0.0
O25 O 0.24504 0.26344 0.26919 0.0
O26 O 0.27884 0.26372 0.23784 0.0
O27 O 0.29471 0.28008 0.25919 0.0
H28 H 0.27312 0.23903 0.27901 0.0
H29 H 0.28155 0.21183 0.29961 0.0
H30 H 0.2447 0.22916 0.34455 0.0
H31 H 0.23599 0.25607 0.3235 0.0
H32 H 0.19412 0.33324 0.24835 0.0
H33 H 0.21739 0.30899 0.24928 0.0
H34 H 0.23454 0.37562 0.23695 0.0
H35 H 0.25749 0.35152 0.23755 0.0
H36 H 0.30845 0.302 0.1859 0.0
H37 H 0.35127 0.27243 0.21651 0.0
H38 H 0.33004 0.26085 0.24127 0.0
H39 H 0.28754 0.29095 0.21115 0.0
C40 C 0.25449 0.77408 0.70161 0.0
C41 C 0.26414 0.78957 0.70893 0.0
C42 C 0.26288 0.80475 0.67626 0.0
C43 C 0.2682 0.80483 0.69639 0.0
C44 C 0.25337 0.78913 0.66897 0.0
C45 C 0.24917 0.77396 0.68156 0.0
U46 U 0.26532 0.7421 0.74593 0.0
O47 O 0.24778 0.72976 0.76873 0.0
O48 O 0.26306 0.71142 0.74948 0.0
C49 C 0.25064 0.71249 0.76302 0.0
C50 C 0.25012 0.75789 0.71458 0.0
C51 C 0.23452 0.7011 0.75922 0.0
C52 C 0.20821 0.69384 0.73909 0.0
C53 C 0.22315 0.70522 0.743 0.0
C54 C 0.21572 0.67429 0.76777 0.0
C55 C 0.20439 0.67814 0.75134 0.0
C56 C 0.23065 0.68568 0.77165 0.0
C57 C 0.30812 0.75152 0.77607 0.0
C58 C 0.31758 0.73175 0.80398 0.0
C59 C 0.33551 0.75879 0.79421 0.0
C60 C 0.32326 0.7629 0.77893 0.0
C61 C 0.33282 0.74318 0.80696 0.0
C62 C 0.30531 0.7359 0.78865 0.0
C63 C 0.29554 0.75604 0.75977 0.0
O64 O 0.26101 0.74356 0.7135 0.0
O65 O 0.24583 0.76187 0.73291 0.0
O66 O 0.27978 0.76202 0.76512 0.0
O67 O 0.29467 0.74373 0.74545 0.0
H68 H 0.26857 0.78986 0.72432 0.0
H69 H 0.27574 0.81656 0.70236 0.0
H70 H 0.24897 0.78874 0.65357 0.0
H71 H 0.24177 0.7621 0.67564 0.0
H72 H 0.19966 0.69733 0.72646 0.0
H73 H 0.22594 0.71714 0.73328 0.0
H74 H 0.21332 0.66218 0.77734 0.0
H75 H 0.23933 0.68229 0.78421 0.0
H76 H 0.31501 0.71975 0.81365 0.0
H77 H 0.34722 0.76771 0.79588 0.0
H78 H 0.32565 0.77496 0.76926 0.0
H79 H 0.29365 0.72696 0.78661 0.0
C80 C 0.72814 0.76155 0.2299 0.0
C81 C 0.72877 0.74757 0.21547 0.0
C82 C 0.70106 0.75925 0.20041 0.0
C83 C 0.71528 0.7464 0.20084 0.0
C84 C 0.70039 0.77295 0.21519 0.0
C85 C 0.71381 0.77407 0.22977 0.0
U86 U 0.77139 0.7464 0.25749 0.0
O87 O 0.79387 0.76388 0.26784 0.0
O88 O 0.77758 0.74834 0.28954 0.0
C89 C 0.79009 0.76114 0.28668 0.0
C90 C 0.74235 0.76371 0.245 0.0
C91 C 0.78882 0.77818 0.29877 0.0
C92 C 0.78482 0.8119 0.30159 0.0
C93 C 0.7851 0.7958 0.28999 0.0
C94 C 0.79123 0.79296 0.33102 0.0
C95 C 0.78802 0.81067 0.32219 0.0
C96 C 0.79171 0.77688 0.31938 0.0
C97 C 0.79742 0.70284 0.24518 0.0
C98 C 0.82428 0.69496 0.26417 0.0
C99 C 0.81411 0.67481 0.23755 0.0
C100 C 0.79968 0.6868 0.23374 0.0
C101 C 0.82652 0.67868 0.25292 0.0
C102 C 0.80987 0.70693 0.26033 0.0
C103 C 0.78204 0.71518 0.24139 0.0
O104 O 0.74244 0.75118 0.25955 0.0
O105 O 0.75838 0.76763 0.23825 0.0
O106 O 0.78602 0.73195 0.2342 0.0
O107 O 0.77032 0.71558 0.25574 0.0
H108 H 0.73977 0.73777 0.21539 0.0
H109 H 0.71623 0.73577 0.18958 0.0
H110 H 0.68948 0.78283 0.2155 0.0
H111 H 0.71307 0.78487 0.24089 0.0
H112 H 0.78209 0.82534 0.29444 0.0
H113 H 0.7826 0.79719 0.27415 0.0
H114 H 0.79385 0.79162 0.34685 0.0
H115 H 0.79457 0.76343 0.32645 0.0
H116 H 0.83371 0.69849 0.27592 0.0
H117 H 0.81531 0.66228 0.22877 0.0
H118 H 0.79018 0.68344 0.22199 0.0
H119 H 0.80836 0.71934 0.26924 0.0
C120 C 0.73526 0.2343 0.72018 0.0
C121 C 0.73206 0.23834 0.69991 0.0
C122 C 0.73967 0.2063 0.69135 0.0
C123 C 0.73423 0.22449 0.68567 0.0
C124 C 0.74307 0.20233 0.71157 0.0
C125 C 0.74079 0.21614 0.72582 0.0
U126 U 0.74813 0.27873 0.74902 0.0
O127 O 0.73121 0.30156 0.75954 0.0
O128 O 0.74649 0.28432 0.78098 0.0
C129 C 0.73419 0.29723 0.77836 0.0
C130 C 0.73204 0.24846 0.73562 0.0
C131 C 0.71816 0.29457 0.79049 0.0
C132 C 0.69052 0.27781 0.79775 0.0
C133 C 0.70524 0.28096 0.78553 0.0
C134 C 0.70134 0.30202 0.81989 0.0
C135 C 0.68849 0.28815 0.81522 0.0
C136 C 0.71605 0.30517 0.80763 0.0
C137 C 0.79174 0.30487 0.73593 0.0
C138 C 0.79982 0.33715 0.74354 0.0
C139 C 0.82272 0.31521 0.73428 0.0
C140 C 0.80975 0.3011 0.73235 0.0
C141 C 0.8179 0.33343 0.73977 0.0
C142 C 0.78684 0.32295 0.74173 0.0
C143 C 0.7784 0.28976 0.7332 0.0
O144 O 0.74311 0.24825 0.75098 0.0
O145 O 0.72808 0.26555 0.72938 0.0
O146 O 0.76263 0.29482 0.72614 0.0
O147 O 0.77749 0.27725 0.74772 0.0
H148 H 0.72769 0.25214 0.695 0.0
H149 H 0.73166 0.22802 0.67018 0.0
H150 H 0.74703 0.18838 0.71645 0.0
H151 H 0.74312 0.21251 0.74133 0.0
H152 H 0.68077 0.26721 0.79355 0.0
H153 H 0.70668 0.27262 0.77233 0.0
H154 H 0.70035 0.31005 0.83335 0.0
H155 H 0.72596 0.31567 0.81173 0.0
H156 H 0.79574 0.35101 0.74798 0.0
H157 H 0.83648 0.31195 0.73102 0.0
H158 H 0.81378 0.28723 0.72784 0.0
H159 H 0.77301 0.32613 0.74473 0.0
C160 C 0.79485 0.70728 0.77674 0.0
C161 C 0.80559 0.70737 0.75979 0.0
C162 C 0.82633 0.68569 0.77628 0.0
C163 C 0.82118 0.69657 0.75953 0.0
C164 C 0.81546 0.6857 0.79315 0.0
C165 C 0.79989 0.69638 0.79336 0.0
U166 U 0.7651 0.74887 0.76074 0.0
O167 O 0.73589 0.74999 0.75667 0.0
O168 O 0.74904 0.76701 0.77957 0.0
C169 C 0.7338 0.76092 0.772 0.0
C170 C 0.77844 0.71847 0.77766 0.0
C171 C 0.72064 0.75427 0.78658 0.0
C172 C 0.71016 0.73054 0.81008 0.0
C173 C 0.72291 0.73698 0.79654 0.0
C174 C 0.69289 0.75878 0.80416 0.0
C175 C 0.69493 0.7413 0.81395 0.0
C176 C 0.70564 0.76518 0.79055 0.0
C177 C 0.77996 0.78453 0.72137 0.0
C178 C 0.76074 0.81006 0.71019 0.0
C179 C 0.79158 0.80921 0.69971 0.0
C180 C 0.79405 0.79248 0.71055 0.0
C181 C 0.77493 0.81829 0.69949 0.0
C182 C 0.76326 0.79335 0.72107 0.0
C183 C 0.783 0.76737 0.73334 0.0
O184 O 0.78044 0.73532 0.78509 0.0
O185 O 0.7678 0.71812 0.76193 0.0
O186 O 0.77226 0.75315 0.72941 0.0
O187 O 0.78541 0.77001 0.75247 0.0
H188 H 0.80195 0.7158 0.74684 0.0
H189 H 0.82932 0.69694 0.74636 0.0
H190 H 0.81886 0.67724 0.80617 0.0
H191 H 0.79175 0.69611 0.80654 0.0
H192 H 0.71228 0.71716 0.8176 0.0
H193 H 0.7345 0.72843 0.79375 0.0
H194 H 0.68126 0.76733 0.80668 0.0
H195 H 0.70371 0.77859 0.783 0.0
H196 H 0.74769 0.81653 0.71017 0.0
H197 H 0.80287 0.81527 0.69193 0.0
H198 H 0.80706 0.78589 0.71071 0.0
H199 H 0.75222 0.78739 0.72938 0.0
C200 C 0.72902 0.25566 0.22008 0.0
C201 C 0.73281 0.26807 0.20424 0.0
C202 C 0.70156 0.26711 0.19343 0.0
C203 C 0.7192 0.27372 0.19101 0.0
C204 C 0.69787 0.25479 0.20946 0.0
C205 C 0.71149 0.24912 0.22263 0.0
U206 U 0.77544 0.26212 0.24266 0.0
O207 O 0.78511 0.25975 0.27356 0.0
O208 O 0.79602 0.24131 0.25094 0.0
C209 C 0.7954 0.24536 0.26989 0.0
C210 C 0.74318 0.24963 0.23411 0.0
C211 C 0.79432 0.22924 0.28388 0.0
C212 C 0.77845 0.21036 0.30853 0.0
C213 C 0.77851 0.22467 0.29397 0.0
C214 C 0.80973 0.20453 0.30241 0.0
C215 C 0.79418 0.20038 0.31321 0.0
C216 C 0.8098 0.21883 0.28796 0.0
C217 C 0.8043 0.30317 0.22408 0.0
C218 C 0.83246 0.31213 0.2399 0.0
C219 C 0.82305 0.32733 0.20905 0.0
C220 C 0.80749 0.31631 0.20882 0.0
C221 C 0.83571 0.3254 0.2246 0.0
C222 C 0.8169 0.30107 0.23961 0.0
C223 C 0.78774 0.29192 0.22366 0.0
O224 O 0.75769 0.24308 0.226 0.0
O225 O 0.74659 0.26123 0.2487 0.0
O226 O 0.7779 0.29281 0.23962 0.0
O227 O 0.78928 0.27476 0.21701 0.0
H228 H 0.74629 0.27334 0.20209 0.0
H229 H 0.72256 0.28306 0.17873 0.0
H230 H 0.6844 0.24969 0.212 0.0
H231 H 0.70831 0.23965 0.23487 0.0
H232 H 0.76627 0.20762 0.31662 0.0
H233 H 0.76636 0.23246 0.29099 0.0
H234 H 0.82198 0.19689 0.30534 0.0
H235 H 0.82209 0.22206 0.28025 0.0
H236 H 0.84204 0.31016 0.25196 0.0
H237 H 0.82504 0.33756 0.19718 0.0
H238 H 0.79787 0.31813 0.19675 0.0
H239 H 0.81467 0.2909 0.25149 0.0
C240 C 0.24107 0.24036 0.71761 0.0
C241 C 0.25737 0.23083 0.71651 0.0
C242 C 0.24497 0.21089 0.69048 0.0
C243 C 0.25931 0.2162 0.70304 0.0
C244 C 0.2286 0.22036 0.69196 0.0
C245 C 0.22671 0.23496 0.70535 0.0
U246 U 0.25651 0.27104 0.76105 0.0
O247 O 0.25529 0.30171 0.76399 0.0
O248 O 0.24048 0.28343 0.78459 0.0
C249 C 0.24322 0.30068 0.77798 0.0
C250 C 0.23879 0.2561 0.73117 0.0
C251 C 0.22696 0.31164 0.77385 0.0
C252 C 0.20044 0.31755 0.75352 0.0
C253 C 0.21553 0.30676 0.75802 0.0
C254 C 0.20781 0.33806 0.78087 0.0
C255 C 0.19648 0.33344 0.76476 0.0
C256 C 0.22297 0.32725 0.78534 0.0
C257 C 0.30122 0.25932 0.78776 0.0
C258 C 0.31338 0.27486 0.81697 0.0
C259 C 0.33062 0.25109 0.80067 0.0
C260 C 0.31684 0.24874 0.78671 0.0
C261 C 0.32904 0.26407 0.81608 0.0
C262 C 0.29953 0.27248 0.80291 0.0
C263 C 0.28699 0.25622 0.77284 0.0
O264 O 0.2359 0.25147 0.74983 0.0
O265 O 0.2502 0.27012 0.72909 0.0
O266 O 0.28573 0.26898 0.75858 0.0
O267 O 0.2714 0.2507 0.77969 0.0
H268 H 0.26861 0.23481 0.72592 0.0
H269 H 0.27213 0.20932 0.70221 0.0
H270 H 0.21717 0.21642 0.68283 0.0
H271 H 0.214 0.2421 0.70609 0.0
H272 H 0.19184 0.31339 0.74124 0.0
H273 H 0.21838 0.29469 0.74904 0.0
H274 H 0.20521 0.35028 0.78973 0.0
H275 H 0.23168 0.33121 0.79761 0.0
H276 H 0.31171 0.28491 0.82869 0.0
H277 H 0.34262 0.24284 0.79926 0.0
H278 H 0.31841 0.23861 0.77503 0.0
H279 H 0.28753 0.28081 0.80389 0.0
C280 C 0.21797 0.73424 0.26373 0.0
C281 C 0.21305 0.7293 0.24427 0.0
C282 C 0.18992 0.70818 0.25691 0.0
C283 C 0.19911 0.71649 0.24091 0.0
C284 C 0.19524 0.71267 0.2764 0.0
C285 C 0.20909 0.72567 0.27976 0.0
U286 U 0.26309 0.75644 0.25146 0.0
O287 O 0.27119 0.78609 0.24833 0.0
O288 O 0.2843 0.76804 0.27081 0.0
C289 C 0.28251 0.78515 0.26341 0.0
C290 C 0.2321 0.74844 0.26745 0.0
C291 C 0.28108 0.80025 0.27791 0.0
C292 C 0.26565 0.81554 0.30467 0.0
C293 C 0.26697 0.80067 0.2914 0.0
C294 C 0.29253 0.82961 0.29108 0.0
C295 C 0.27836 0.83025 0.30457 0.0
C296 C 0.29385 0.81475 0.2779 0.0
C297 C 0.29022 0.73473 0.20971 0.0
C298 C 0.31395 0.74994 0.19087 0.0
C299 C 0.31047 0.71609 0.19038 0.0
C300 C 0.29592 0.71727 0.20306 0.0
C301 C 0.31959 0.73242 0.18394 0.0
C302 C 0.29943 0.75108 0.20369 0.0
C303 C 0.27453 0.73546 0.22265 0.0
O304 O 0.24732 0.74197 0.27467 0.0
O305 O 0.23421 0.76126 0.25338 0.0
O306 O 0.26376 0.74977 0.21972 0.0
O307 O 0.27755 0.73153 0.24153 0.0
H308 H 0.21984 0.73548 0.23162 0.0
H309 H 0.19551 0.71307 0.22573 0.0
H310 H 0.18838 0.70651 0.28901 0.0
H311 H 0.21274 0.7292 0.29489 0.0
H312 H 0.25448 0.8157 0.31473 0.0
H313 H 0.25692 0.78961 0.29153 0.0
H314 H 0.30268 0.84054 0.29079 0.0
H315 H 0.30484 0.81463 0.26758 0.0
H316 H 0.32055 0.76281 0.18612 0.0
H317 H 0.31463 0.70234 0.18573 0.0
H318 H 0.28906 0.70448 0.20766 0.0
H319 H 0.29529 0.76473 0.20873 0.0
C320 C 0.95675 0.38959 0.25919 0.0
C321 C 0.94209 0.40378 0.2536 0.0
C322 C 0.96113 0.43053 0.24311 0.0
C323 C 0.9672 0.43564 0.26217 0.0
C324 C 0.98111 0.44885 0.26454 0.0
C325 C 0.98904 0.45718 0.24757 0.0
C326 C 0.98253 0.45257 0.22841 0.0
C327 C 0.96857 0.43939 0.22646 0.0
C328 C 0.9876 0.45365 0.28519 0.0
C329 C 0.99063 0.46122 0.20998 0.0
C330 C 0.13311 0.43003 0.23785 0.0
C331 C 0.11962 0.44408 0.24343 0.0
C332 C 0.08843 0.44453 0.25273 0.0
C333 C 0.08082 0.45125 0.23483 0.0
C334 C 0.06409 0.46006 0.23452 0.0
C335 C 0.05477 0.46212 0.25249 0.0
C336 C 0.06209 0.45466 0.27043 0.0
C337 C 0.0788 0.44579 0.27027 0.0
C338 C 0.05642 0.46728 0.21501 0.0
C339 C 0.05237 0.45636 0.28978 0.0
C340 C 0.07963 0.58731 0.25201 0.0
C341 C 0.07377 0.57782 0.23487 0.0
C342 C 0.05835 0.56642 0.23509 0.0
C343 C 0.04885 0.56387 0.25297 0.0
C344 C 0.05475 0.57322 0.27029 0.0
C345 C 0.06998 0.58493 0.26952 0.0
C346 C 0.05225 0.5571 0.21614 0.0
C347 C 0.04502 0.57079 0.28965 0.0
C348 C 0.90788 0.56412 0.24648 0.0
C349 C 0.91779 0.57951 0.25799 0.0
C350 C 0.94921 0.57692 0.24912 0.0
C351 C 0.95886 0.57439 0.23176 0.0
C352 C 0.97551 0.56539 0.23228 0.0
C353 C 0.9828 0.55909 0.25071 0.0
C354 C 0.97343 0.56229 0.26842 0.0
C355 C 0.95677 0.57122 0.26746 0.0
C356 C 0.98523 0.56239 0.21313 0.0
C357 C 0.98106 0.55622 0.28838 0.0
C358 C 0.00492 0.46971 0.24979 0.0
C359 C 0.02173 0.46128 0.25074 0.0
C360 C 0.03737 0.47205 0.25243 0.0
C361 C 0.0363 0.49186 0.25329 0.0
C362 C 0.05175 0.50313 0.25515 0.0
C363 C 0.0506 0.52263 0.25545 0.0
C364 C 0.03396 0.53163 0.25384 0.0
C365 C 0.03272 0.55147 0.25342 0.0
C366 C 0.01589 0.55992 0.25239 0.0
C367 C 1.00019 0.54912 0.2515 0.0
C368 C 1.00121 0.52927 0.25134 0.0
C369 C 0.98573 0.51796 0.24993 0.0
C370 C 0.98688 0.49845 0.24953 0.0
C371 C 0.00356 0.4895 0.25053 0.0
C372 C 0.01934 0.50061 0.25219 0.0
C373 C 0.01816 0.52052 0.25252 0.0
C374 C 0.11969 0.58629 0.23574 0.0
C375 C 0.10617 0.60231 0.23703 0.0
O376 O 0.94844 0.41703 0.24001 0.0
O377 O 0.9329 0.58518 0.24769 0.0
O378 O 0.09437 0.59878 0.25239 0.0
O379 O 0.10498 0.4368 0.25348 0.0
H380 H 0.93762 0.41099 0.26717 0.0
H381 H 0.96825 0.39664 0.26662 0.0
H382 H 0.96167 0.38259 0.2457 0.0
H383 H 0.95147 0.37872 0.26964 0.0
H384 H 0.96135 0.42925 0.27525 0.0
H385 H 0.9637 0.43552 0.21183 0.0
H386 H 1.00161 0.44889 0.28729 0.0
H387 H 0.97926 0.44698 0.29691 0.0
H388 H 0.98753 0.46912 0.28708 0.0
H389 H 0.98383 0.45643 0.19616 0.0
H390 H 0.005 0.45752 0.20934 0.0
H391 H 0.98983 0.47677 0.21056 0.0
H392 H 0.11632 0.45495 0.23186 0.0
H393 H 0.13307 0.43039 0.22111 0.0
H394 H 0.12632 0.41584 0.23899 0.0
H395 H 0.15613 0.43742 0.25525 0.0
H396 H 0.08787 0.44952 0.22106 0.0
H397 H 0.08466 0.44026 0.28396 0.0
H398 H 0.05516 0.48279 0.21548 0.0
H399 H 0.0428 0.46133 0.21258 0.0
H400 H 0.06486 0.46367 0.20221 0.0
H401 H 0.0601 0.45035 0.30255 0.0
H402 H 0.03927 0.44896 0.28873 0.0
H403 H 0.04966 0.47137 0.29267 0.0
H404 H 0.09879 0.60306 0.2226 0.0
H405 H 0.081 0.57914 0.22115 0.0
H406 H 0.07452 0.59222 0.2827 0.0
H407 H 0.05478 0.54178 0.21733 0.0
H408 H 0.05938 0.56274 0.20294 0.0
H409 H 0.03765 0.55902 0.21371 0.0
H410 H 0.05227 0.57754 0.30221 0.0
H411 H 0.04316 0.55562 0.29321 0.0
H412 H 0.03154 0.57712 0.28818 0.0
H413 H 0.92149 0.57326 0.27269 0.0
H414 H 0.89536 0.56 0.25417 0.0
H415 H 0.91647 0.55151 0.24561 0.0
H416 H 0.90454 0.56892 0.2311 0.0
H417 H 0.95308 0.57913 0.21771 0.0
H418 H 0.94988 0.57399 0.28111 0.0
H419 H 0.98778 0.54718 0.21128 0.0
H420 H 0.99841 0.56968 0.21369 0.0
H421 H 0.97757 0.56771 0.19996 0.0
H422 H 0.97249 0.56042 0.30087 0.0
H423 H 0.99459 0.56246 0.29053 0.0
H424 H 0.9825 0.54071 0.28886 0.0
H425 H 0.02268 0.44611 0.24994 0.0
H426 H 0.06493 0.497 0.25631 0.0
H427 H 0.06296 0.53057 0.25687 0.0
H428 H 0.01501 0.57512 0.25209 0.0
H429 H 0.97253 0.52408 0.249 0.0
H430 H 0.97453 0.49047 0.24836 0.0
H431 H 0.12622 0.58342 0.25038 0.0
H432 H 0.13009 0.58983 0.22463 0.0
H433 H 0.1128 0.57319 0.23101 0.0
C434 C 0.07 0.38665 0.7641 0.0
C435 C 0.08211 0.40095 0.75344 0.0
C436 C 0.06973 0.43112 0.76218 0.0
C437 C 0.0632 0.43758 0.74366 0.0
C438 C 0.04914 0.45051 0.74239 0.0
C439 C 0.04152 0.45718 0.76002 0.0
C440 C 0.04864 0.45136 0.77871 0.0
C441 C 0.06283 0.43853 0.77953 0.0
C442 C 0.04219 0.45678 0.72222 0.0
C443 C 0.0409 0.45827 0.79779 0.0
C444 C 0.93951 0.39861 0.72945 0.0
C445 C 0.92879 0.40859 0.74535 0.0
C446 C 0.94456 0.43846 0.7459 0.0
C447 C 0.9525 0.43889 0.76486 0.0
C448 C 0.96802 0.44967 0.7684 0.0
C449 C 0.97587 0.45993 0.75251 0.0
C450 C 0.96777 0.45951 0.73335 0.0
C451 C 0.95195 0.4491 0.73043 0.0
C452 C 0.97606 0.45 0.78908 0.0
C453 C 0.97595 0.46973 0.71583 0.0
C454 C 0.94777 0.5825 0.75415 0.0
C455 C 0.95459 0.57628 0.77265 0.0
C456 C 0.9705 0.56596 0.77396 0.0
C457 C 0.9798 0.56184 0.75643 0.0
C458 C 0.97333 0.56873 0.73786 0.0
C459 C 0.95746 0.57915 0.737 0.0
C460 C 0.97731 0.55931 0.79406 0.0
C461 C 0.98303 0.56481 0.7189 0.0
C462 C 0.1203 0.56474 0.75953 0.0
C463 C 0.11056 0.58037 0.74793 0.0
C464 C 0.07945 0.57774 0.75812 0.0
C465 C 0.0704 0.5752 0.77598 0.0
C466 C 0.05375 0.56592 0.77654 0.0
C467 C 0.04589 0.55935 0.75869 0.0
C468 C 0.05461 0.56264 0.74043 0.0
C469 C 0.07128 0.57185 0.74033 0.0
C470 C 0.0447 0.56284 0.79621 0.0
C471 C 0.04635 0.55633 0.72104 0.0
C472 C 0.02537 0.46923 0.75889 0.0
C473 C 0.00874 0.46027 0.75697 0.0
C474 C 0.99289 0.47051 0.75572 0.0
C475 C 0.99354 0.49035 0.75673 0.0
C476 C 0.97785 0.50109 0.75619 0.0
C477 C 0.97864 0.52062 0.7565 0.0
C478 C 0.99516 0.53018 0.7575 0.0
C479 C 0.99612 0.55005 0.75749 0.0
C480 C 0.01279 0.55909 0.7582 0.0
C481 C 0.02865 0.54882 0.75903 0.0
C482 C 0.02796 0.52894 0.75939 0.0
C483 C 0.04364 0.51816 0.76053 0.0
C484 C 0.04284 0.49861 0.7605 0.0
C485 C 0.02633 0.48908 0.75927 0.0
C486 C 0.01034 0.49966 0.75822 0.0
C487 C 0.01115 0.51961 0.75845 0.0
C488 C 0.90588 0.57271 0.74967 0.0
C489 C 0.91641 0.58711 0.76201 0.0
O490 O 0.08252 0.41768 0.76374 0.0
O491 O 0.09586 0.58612 0.75852 0.0
O492 O 0.93209 0.59196 0.75238 0.0
O493 O 0.92977 0.42786 0.74216 0.0
H494 H 0.07624 0.40314 0.73832 0.0
H495 H 0.056 0.39175 0.76385 0.0
H496 H 0.07428 0.38459 0.77985 0.0
H497 H 0.07025 0.37292 0.75648 0.0
H498 H 0.06907 0.43257 0.73015 0.0
H499 H 0.06815 0.43369 0.79375 0.0
H500 H 0.02829 0.45149 0.72005 0.0
H501 H 0.05051 0.45158 0.70997 0.0
H502 H 0.04179 0.47236 0.72131 0.0
H503 H 0.04799 0.45249 0.81113 0.0
H504 H 0.02655 0.45421 0.79855 0.0
H505 H 0.04167 0.47384 0.79809 0.0
H506 H 0.93456 0.40489 0.76023 0.0
H507 H 0.93893 0.38313 0.73179 0.0
H508 H 0.95377 0.40306 0.73027 0.0
H509 H 0.93413 0.40213 0.71438 0.0
H510 H 0.94647 0.43096 0.77692 0.0
H511 H 0.9456 0.44868 0.71586 0.0
H512 H 0.97913 0.46468 0.79342 0.0
H513 H 0.98883 0.44216 0.78933 0.0
H514 H 0.96705 0.4435 0.80027 0.0
H515 H 0.96963 0.46557 0.70151 0.0
H516 H 0.99052 0.46693 0.71523 0.0
H517 H 0.97425 0.48509 0.71748 0.0
H518 H 0.91927 0.57999 0.77652 0.0
H519 H 0.94766 0.57964 0.78612 0.0
H520 H 0.95227 0.58431 0.72284 0.0
H521 H 0.97707 0.54372 0.79476 0.0
H522 H 0.96918 0.56467 0.80639 0.0
H523 H 0.99141 0.56393 0.79629 0.0
H524 H 0.97596 0.57066 0.70558 0.0
H525 H 0.98447 0.54942 0.71716 0.0
H526 H 0.99669 0.57102 0.71966 0.0
H527 H 0.10635 0.57442 0.73343 0.0
H528 H 0.13241 0.5604 0.75148 0.0
H529 H 0.11134 0.5523 0.76115 0.0
H530 H 0.12431 0.56946 0.77462 0.0
H531 H 0.07665 0.5801 0.78959 0.0
H532 H 0.07772 0.57463 0.72629 0.0
H533 H 0.04235 0.54758 0.79883 0.0
H534 H 0.03144 0.56976 0.79585 0.0
H535 H 0.05272 0.56848 0.80883 0.0
H536 H 0.05431 0.56091 0.70801 0.0
H537 H 0.03261 0.562 0.71935 0.0
H538 H 0.04524 0.54077 0.7211 0.0
H539 H 0.00815 0.44506 0.7562 0.0
H540 H 0.96475 0.49451 0.75542 0.0
H541 H 0.96612 0.52814 0.75584 0.0
H542 H 0.01343 0.57432 0.75791 0.0
H543 H 0.05674 0.52473 0.76143 0.0
H544 H 0.05534 0.49105 0.76132 0.0
H545 H 0.89247 0.57008 0.75611 0.0
H546 H 0.91321 0.5592 0.74972 0.0
H547 H 0.90435 0.57755 0.73398 0.0
C548 C 0.25396 0.0798 0.62907 0.0
C549 C 0.26359 0.09443 0.61596 0.0
C550 C 0.26168 0.07769 0.58451 0.0
C551 C 0.27886 0.07003 0.58351 0.0
C552 C 0.28224 0.05487 0.57101 0.0
C553 C 0.26803 0.04696 0.55966 0.0
C554 C 0.25067 0.05468 0.56077 0.0
C555 C 0.24787 0.07026 0.5728 0.0
C556 C 0.30099 0.04733 0.56996 0.0
C557 C 0.23496 0.04635 0.54952 0.0
C558 C 0.3025 0.93479 0.62125 0.0
C559 C 0.28595 0.92713 0.61029 0.0
C560 C 0.28484 0.94526 0.57955 0.0
C561 C 0.26758 0.95274 0.57854 0.0
C562 C 0.2641 0.96922 0.56743 0.0
C563 C 0.27828 0.97852 0.55746 0.0
C564 C 0.29575 0.97096 0.55861 0.0
C565 C 0.29869 0.95416 0.5693 0.0
C566 C 0.24527 0.97664 0.5663 0.0
C567 C 0.31137 0.98069 0.54875 0.0
C568 C 0.27332 0.94937 0.42731 0.0
C569 C 0.2572 0.95617 0.43487 0.0
C570 C 0.2569 0.97278 0.44583 0.0
C571 C 0.27305 0.98272 0.44956 0.0
C572 C 0.28924 0.97606 0.4418 0.0
C573 C 0.28913 0.95953 0.4307 0.0
C574 C 0.23934 0.97963 0.45364 0.0
C575 C 0.3067 0.9863 0.44548 0.0
C576 C 0.27818 0.12968 0.44481 0.0
C577 C 0.28421 0.11964 0.42613 0.0
C578 C 0.2733 0.08737 0.43175 0.0
C579 C 0.25721 0.07739 0.43358 0.0
C580 C 0.25651 0.05997 0.44368 0.0
C581 C 0.27241 0.05217 0.45177 0.0
C582 C 0.28886 0.06183 0.44931 0.0
C583 C 0.28914 0.07933 0.43941 0.0
C584 C 0.23875 0.05 0.44596 0.0
C585 C 0.30618 0.05364 0.45719 0.0
C586 C 0.27112 0.03024 0.5472 0.0
C587 C 0.27312 0.01281 0.55684 0.0
C588 C 0.275 0.9963 0.54612 0.0
C589 C 0.27428 0.99703 0.52511 0.0
C590 C 0.27502 0.9806 0.51384 0.0
C591 C 0.27458 0.98147 0.49317 0.0
C592 C 0.2734 0.99882 0.48294 0.0
C593 C 0.27299 0.99985 0.46192 0.0
C594 C 0.27238 0.01738 0.45225 0.0
C595 C 0.27193 0.03401 0.46299 0.0
C596 C 0.27174 0.03322 0.48402 0.0
C597 C 0.2708 0.04964 0.4953 0.0
C598 C 0.27069 0.04872 0.51597 0.0
C599 C 0.27151 0.03135 0.52619 0.0
C600 C 0.27279 0.01465 0.51512 0.0
C601 C 0.27262 0.01556 0.49401 0.0
C602 C 0.2577 0.90812 0.43211 0.0
C603 C 0.26077 0.92015 0.41326 0.0
O604 O 0.25798 0.09238 0.59635 0.0
O605 O 0.27296 0.10446 0.42232 0.0
O606 O 0.27436 0.93311 0.41696 0.0
O607 O 0.28832 0.92925 0.58999 0.0
H608 H 0.27826 0.09229 0.61732 0.0
H609 H 0.25701 0.0654 0.62409 0.0
H610 H 0.23925 0.08185 0.62816 0.0
H611 H 0.25844 0.08085 0.64482 0.0
H612 H 0.28974 0.07608 0.59212 0.0
H613 H 0.23468 0.07637 0.57362 0.0
H614 H 0.30159 0.03344 0.57766 0.0
H615 H 0.31097 0.05682 0.57709 0.0
H616 H 0.30477 0.0453 0.55425 0.0
H617 H 0.222 0.05177 0.55475 0.0
H618 H 0.23484 0.03079 0.5511 0.0
H619 H 0.23611 0.04993 0.53349 0.0
H620 H 0.27408 0.93519 0.61498 0.0
H621 H 0.30083 0.93355 0.63759 0.0
H622 H 0.30449 0.94988 0.61738 0.0
H623 H 0.31463 0.92697 0.61701 0.0
H624 H 0.25683 0.9455 0.58619 0.0
H625 H 0.31195 0.94813 0.57014 0.0
H626 H 0.24459 0.98993 0.57464 0.0
H627 H 0.23541 0.96653 0.57266 0.0
H628 H 0.24141 0.97984 0.55061 0.0
H629 H 0.32439 0.97463 0.55364 0.0
H630 H 0.31145 0.99592 0.55207 0.0
H631 H 0.31011 0.97926 0.5324 0.0
H632 H 0.24814 0.92752 0.4093 0.0
H633 H 0.24478 0.94862 0.43247 0.0
H634 H 0.30149 0.95427 0.4248 0.0
H635 H 0.23957 0.97873 0.47011 0.0
H636 H 0.22776 0.97129 0.44802 0.0
H637 H 0.23738 0.99461 0.44932 0.0
H638 H 0.31826 0.97888 0.43916 0.0
H639 H 0.30902 0.98789 0.4617 0.0
H640 H 0.30602 1.00062 0.43874 0.0
H641 H 0.29812 0.11491 0.42889 0.0
H642 H 0.28675 0.14223 0.44756 0.0
H643 H 0.27937 0.12006 0.45791 0.0
H644 H 0.26402 0.13414 0.44328 0.0
H645 H 0.24508 0.08352 0.42742 0.0
H646 H 0.30187 0.08634 0.43749 0.0
H647 H 0.2362 0.04716 0.46195 0.0
H648 H 0.23914 0.03624 0.43846 0.0
H649 H 0.22748 0.05829 0.43956 0.0
H650 H 0.31802 0.0621 0.45263 0.0
H651 H 0.30772 0.03908 0.45183 0.0
H652 H 0.30591 0.05294 0.47366 0.0
H653 H 0.27322 0.01208 0.57296 0.0
H654 H 0.2759 0.96685 0.52089 0.0
H655 H 0.27526 0.96836 0.48531 0.0
H656 H 0.27238 0.01809 0.43614 0.0
H657 H 0.27007 0.0634 0.48826 0.0
H658 H 0.27 0.06181 0.52386 0.0
H659 H 0.26965 0.89948 0.43569 0.0
H660 H 0.24576 0.89891 0.43017 0.0
H661 H 0.25516 0.9172 0.44499 0.0
C662 C 0.44707 0.72839 0.12838 0.0
C663 C 0.43406 0.73655 0.11272 0.0
C664 C 0.45129 0.72997 0.08302 0.0
C665 C 0.45994 0.74736 0.08015 0.0
C666 C 0.4752 0.7489 0.06828 0.0
C667 C 0.48215 0.73265 0.05942 0.0
C668 C 0.47336 0.71512 0.06222 0.0
C669 C 0.4578 0.71412 0.07363 0.0
C670 C 0.48395 0.7679 0.06536 0.0
C671 C 0.48054 0.69737 0.05347 0.0
C672 C 0.61948 0.72813 0.07867 0.0
C673 C 0.60919 0.73229 0.09762 0.0
C674 C 0.5801 0.74218 0.08318 0.0
C675 C 0.57402 0.72429 0.07743 0.0
C676 C 0.55808 0.72221 0.06633 0.0
C677 C 0.54807 0.7383 0.06082 0.0
C678 C 0.55402 0.75626 0.06685 0.0
C679 C 0.56991 0.75793 0.07804 0.0
C680 C 0.55198 0.70283 0.06031 0.0
C681 C 0.54366 0.77373 0.0613 0.0
C682 C 0.581 0.72937 0.93136 0.0
C683 C 0.57431 0.71397 0.94244 0.0
C684 C 0.55835 0.71529 0.95302 0.0
C685 C 0.54912 0.73256 0.95317 0.0
C686 C 0.55587 0.74816 0.94224 0.0
C687 C 0.57163 0.74628 0.93133 0.0
C688 C 0.55134 0.69812 0.96397 0.0
C689 C 0.54648 0.76683 0.94213 0.0
C690 C 0.41097 0.74356 0.93626 0.0
C691 C 0.4215 0.74346 0.9169 0.0
C692 C 0.45073 0.73176 0.92889 0.0
C693 C 0.46083 0.7155 0.9318 0.0
C694 C 0.47677 0.71571 0.9431 0.0
C695 C 0.48297 0.73278 0.95131 0.0
C696 C 0.47313 0.74945 0.94791 0.0
C697 C 0.457 0.74873 0.93699 0.0
C698 C 0.48686 0.69764 0.94644 0.0
C699 C 0.47959 0.76804 0.95591 0.0
C700 C 0.49893 0.73391 0.04783 0.0
C701 C 0.51514 0.73513 0.0584 0.0
C702 C 0.53146 0.73643 0.04859 0.0
C703 C 0.53176 0.73622 0.02759 0.0
C704 C 0.54794 0.73738 0.01723 0.0
C705 C 0.54813 0.73685 0.99658 0.0
C706 C 0.53215 0.7352 0.98546 0.0
C707 C 0.53224 0.73408 0.96447 0.0
C708 C 0.51603 0.73332 0.95386 0.0
C709 C 0.49965 0.73321 0.96361 0.0
C710 C 0.49932 0.73353 0.98462 0.0
C711 C 0.48312 0.73276 0.99497 0.0
C712 C 0.48293 0.73309 0.01563 0.0
C713 C 0.49895 0.73395 0.0268 0.0
C714 C 0.51545 0.73492 0.01666 0.0
C715 C 0.51564 0.73459 0.99556 0.0
C716 C 0.62057 0.71419 0.93853 0.0
C717 C 0.60832 0.71388 0.92007 0.0
O718 O 0.43666 0.72794 0.09464 0.0
O719 O 0.43511 0.73035 0.91829 0.0
O720 O 0.59628 0.7286 0.92055 0.0
O721 O 0.59564 0.74504 0.09352 0.0
H722 H 0.43647 0.75193 0.11124 0.0
H723 H 0.4611 0.73096 0.12381 0.0
H724 H 0.44489 0.71299 0.13016 0.0
H725 H 0.44524 0.73515 0.14296 0.0
H726 H 0.45472 0.75983 0.08685 0.0
H727 H 0.45095 0.70079 0.07583 0.0
H728 H 0.4967 0.76833 0.07402 0.0
H729 H 0.47536 0.7795 0.0704 0.0
H730 H 0.48716 0.77036 0.04947 0.0
H731 H 0.47356 0.6846 0.05921 0.0
H732 H 0.49507 0.69608 0.05683 0.0
H733 H 0.47882 0.69793 0.03707 0.0
H734 H 0.60336 0.71905 0.1038 0.0
H735 H 0.63051 0.71815 0.08202 0.0
H736 H 0.62521 0.74129 0.07222 0.0
H737 H 0.61053 0.72165 0.06737 0.0
H738 H 0.58161 0.71191 0.08147 0.0
H739 H 0.57463 0.77165 0.08263 0.0
H740 H 0.5381 0.7002 0.06539 0.0
H741 H 0.56077 0.69163 0.06654 0.0
H742 H 0.55183 0.70192 0.04386 0.0
H743 H 0.55043 0.78673 0.06652 0.0
H744 H 0.53016 0.77287 0.06789 0.0
H745 H 0.54186 0.77471 0.04492 0.0
H746 H 0.60094 0.70028 0.91979 0.0
H747 H 0.5813 0.70075 0.94294 0.0
H748 H 0.57681 0.75813 0.92282 0.0
H749 H 0.55318 0.70001 0.9802 0.0
H750 H 0.55839 0.68513 0.95977 0.0
H751 H 0.53681 0.69618 0.96092 0.0
H752 H 0.55451 0.77813 0.93485 0.0
H753 H 0.5436 0.77102 0.95757 0.0
H754 H 0.5335 0.76554 0.93404 0.0
H755 H 0.42726 0.75767 0.91401 0.0
H756 H 0.39999 0.75396 0.93517 0.0
H757 H 0.41985 0.74749 0.9489 0.0
H758 H 0.40516 0.72942 0.93942 0.0
H759 H 0.45597 0.70249 0.92546 0.0
H760 H 0.44951 0.76154 0.93487 0.0
H761 H 0.48956 0.69533 0.96256 0.0
H762 H 0.49996 0.69864 0.93895 0.0
H763 H 0.47943 0.68528 0.9406 0.0
H764 H 0.47183 0.78005 0.94967 0.0
H765 H 0.49395 0.77028 0.9525 0.0
H766 H 0.4783 0.76795 0.97231 0.0
H767 H 0.51505 0.73518 0.07452 0.0
H768 H 0.56068 0.7386 0.02499 0.0
H769 H 0.56099 0.73774 0.98943 0.0
H770 H 0.51617 0.73261 0.93777 0.0
H771 H 0.47036 0.73185 0.98721 0.0
H772 H 0.47005 0.73257 0.02276 0.0
H773 H 0.63035 0.70255 0.93807 0.0
H774 H 0.61258 0.71235 0.9522 0.0
H775 H 0.62796 0.72777 0.9394 0.0
C776 C 0.76301 0.07852 0.62862 0.0
C777 C 0.76606 0.09426 0.61314 0.0
C778 C 0.76108 0.0754 0.58328 0.0
C779 C 0.7784 0.06813 0.5816 0.0
C780 C 0.78164 0.05279 0.56934 0.0
C781 C 0.76722 0.04428 0.55887 0.0
C782 C 0.7498 0.05169 0.56041 0.0
C783 C 0.74706 0.06743 0.57227 0.0
C784 C 0.80046 0.04552 0.56782 0.0
C785 C 0.73397 0.04276 0.54995 0.0
C786 C 0.80793 0.93871 0.62569 0.0
C787 C 0.78817 0.93496 0.62063 0.0
C788 C 0.78344 0.94539 0.58688 0.0
C789 C 0.76611 0.9511 0.58184 0.0
C790 C 0.76324 0.96631 0.56865 0.0
C791 C 0.77811 0.97605 0.56054 0.0
C792 C 0.79567 0.96998 0.56534 0.0
C793 C 0.7981 0.9545 0.57826 0.0
C794 C 0.74435 0.97221 0.56368 0.0
C795 C 0.81185 0.98015 0.55725 0.0
C796 C 0.78567 0.94295 0.43065 0.0
C797 C 0.76893 0.94658 0.43892 0.0
C798 C 0.76609 0.96311 0.44952 0.0
C799 C 0.78042 0.97596 0.45242 0.0
C800 C 0.79727 0.97233 0.44403 0.0
C801 C 0.79954 0.95602 0.43296 0.0
C802 C 0.74771 0.96687 0.45747 0.0
C803 C 0.81291 0.98562 0.44681 0.0
C804 C 0.75616 0.12193 0.43412 0.0
C805 C 0.77212 0.11221 0.42484 0.0
C806 C 0.76881 0.07837 0.42834 0.0
C807 C 0.75412 0.06628 0.43034 0.0
C808 C 0.7554 0.0496 0.44169 0.0
C809 C 0.77194 0.04474 0.45082 0.0
C810 C 0.78707 0.05653 0.44806 0.0
C811 C 0.78533 0.07328 0.43691 0.0
C812 C 0.73903 0.03729 0.44414 0.0
C813 C 0.80508 0.05145 0.45693 0.0
C814 C 0.77025 0.02703 0.54724 0.0
C815 C 0.77234 0.01009 0.55779 0.0
C816 C 0.77535 0.99325 0.54805 0.0
C817 C 0.77603 0.99314 0.52707 0.0
C818 C 0.77881 0.97644 0.51675 0.0
C819 C 0.77958 0.9765 0.4961 0.0
C820 C 0.77732 0.99321 0.48494 0.0
C821 C 0.77777 0.99335 0.46392 0.0
C822 C 0.77583 0.0103 0.45334 0.0
C823 C 0.77345 0.02725 0.46312 0.0
C824 C 0.7727 0.02735 0.48412 0.0
C825 C 0.77014 0.04409 0.49447 0.0
C826 C 0.76952 0.04406 0.51513 0.0
C827 C 0.77117 0.02726 0.52625 0.0
C828 C 0.77391 0.01021 0.51614 0.0
C829 C 0.77462 0.01025 0.49505 0.0
C830 C 0.79035 0.9005 0.4415 0.0
C831 C 0.78169 0.90951 0.4229 0.0
O832 O 0.7573 0.08986 0.59546 0.0
O833 O 0.76677 0.09475 0.41796 0.0
O834 O 0.7889 0.92735 0.41994 0.0
O835 O 0.78602 0.93145 0.60053 0.0
H836 H 0.78063 0.09599 0.61056 0.0
H837 H 0.76843 0.06506 0.62333 0.0
H838 H 0.74848 0.07662 0.63137 0.0
H839 H 0.76994 0.08183 0.64287 0.0
H840 H 0.78947 0.07438 0.5897 0.0
H841 H 0.73377 0.07319 0.57359 0.0
H842 H 0.80149 0.03184 0.57589 0.0
H843 H 0.81051 0.05534 0.57428 0.0
H844 H 0.8038 0.04312 0.55204 0.0
H845 H 0.72106 0.04874 0.55468 0.0
H846 H 0.73372 0.02736 0.5529 0.0
H847 H 0.73514 0.045 0.53367 0.0
H848 H 0.78053 0.94776 0.62444 0.0
H849 H 0.80986 0.94014 0.642 0.0
H850 H 0.81243 0.95204 0.61851 0.0
H851 H 0.81641 0.9271 0.62047 0.0
H852 H 0.75487 0.94382 0.58855 0.0
H853 H 0.81146 0.94975 0.58207 0.0
H854 H 0.74179 0.9861 0.57029 0.0
H855 H 0.73429 0.96198 0.5694 0.0
H856 H 0.74254 0.97376 0.54733 0.0
H857 H 0.82458 0.97434 0.56335 0.0
H858 H 0.81124 0.9953 0.56084 0.0
H859 H 0.81194 0.97908 0.54082 0.0
H860 H 0.76701 0.91026 0.42496 0.0
H861 H 0.75789 0.93689 0.43676 0.0
H862 H 0.81234 0.95318 0.42635 0.0
H863 H 0.74798 0.96522 0.47389 0.0
H864 H 0.73744 0.95709 0.45138 0.0
H865 H 0.74365 0.98152 0.45385 0.0
H866 H 0.82562 0.9796 0.44157 0.0
H867 H 0.81454 0.98923 0.46273 0.0
H868 H 0.81033 0.99886 0.43835 0.0
H869 H 0.78244 0.1107 0.43684 0.0
H870 H 0.76013 0.13612 0.43934 0.0
H871 H 0.75143 0.11353 0.44709 0.0
H872 H 0.7449 0.12331 0.42325 0.0
H873 H 0.7415 0.07023 0.4234 0.0
H874 H 0.79689 0.0823 0.4347 0.0
H875 H 0.73653 0.03466 0.46018 0.0
H876 H 0.74134 0.02348 0.43724 0.0
H877 H 0.7269 0.04365 0.43719 0.0
H878 H 0.81584 0.06122 0.45196 0.0
H879 H 0.80865 0.03693 0.4528 0.0
H880 H 0.80445 0.05181 0.47338 0.0
H881 H 0.77175 0.01004 0.5739 0.0
H882 H 0.78047 0.96313 0.52454 0.0
H883 H 0.78191 0.96323 0.489 0.0
H884 H 0.77628 0.01032 0.43723 0.0
H885 H 0.7686 0.05743 0.48671 0.0
H886 H 0.76765 0.0574 0.52229 0.0
H887 H 0.80501 0.89915 0.43955 0.0
H888 H 0.7845 0.88638 0.44459 0.0
H889 H 0.78798 0.90932 0.45464 0.0
C890 C 0.44889 0.32482 0.13208 0.0
C891 C 0.43444 0.32296 0.11579 0.0
C892 C 0.45132 0.30733 0.08973 0.0
C893 C 0.46103 0.32332 0.08338 0.0
C894 C 0.47487 0.32186 0.06965 0.0
C895 C 0.4793 0.30406 0.06222 0.0
C896 C 0.4694 0.28798 0.06828 0.0
C897 C 0.45541 0.28989 0.08179 0.0
C898 C 0.48504 0.33934 0.0634 0.0
C899 C 0.47392 0.26873 0.06088 0.0
C900 C 0.57766 0.28505 0.12844 0.0
C901 C 0.59163 0.28159 0.11247 0.0
C902 C 0.57524 0.29491 0.08378 0.0
C903 C 0.56478 0.27897 0.07931 0.0
C904 C 0.54965 0.28037 0.06682 0.0
C905 C 0.54471 0.29809 0.05878 0.0
C906 C 0.55548 0.31407 0.06274 0.0
C907 C 0.57079 0.31219 0.07497 0.0
C908 C 0.53868 0.26295 0.06258 0.0
C909 C 0.55051 0.33321 0.05455 0.0
C910 C 0.56995 0.29408 0.92823 0.0
C911 C 0.56219 0.27757 0.93612 0.0
C912 C 0.54657 0.27827 0.94741 0.0
C913 C 0.53851 0.2958 0.95083 0.0
C914 C 0.54591 0.31236 0.94229 0.0
C915 C 0.56147 0.31124 0.93092 0.0
C916 C 0.53872 0.26027 0.95579 0.0
C917 C 0.53752 0.33125 0.94542 0.0
C918 C 0.40166 0.28613 0.89907 0.0
C919 C 0.41523 0.2963 0.91128 0.0
C920 C 0.43963 0.28836 0.93469 0.0
C921 C 0.44768 0.27366 0.94537 0.0
C922 C 0.46412 0.27619 0.95532 0.0
C923 C 0.47254 0.29408 0.95493 0.0
C924 C 0.46439 0.30912 0.94428 0.0
C925 C 0.44804 0.3061 0.93417 0.0
C926 C 0.47254 0.25967 0.96612 0.0
C927 C 0.47295 0.32838 0.94363 0.0
C928 C 0.4951 0.3022 0.04927 0.0
C929 C 0.51193 0.30141 0.05854 0.0
C930 C 0.52754 0.29999 0.04754 0.0
C931 C 0.52645 0.29953 0.02656 0.0
C932 C 0.54187 0.29838 0.01498 0.0
C933 C 0.54064 0.29784 0.99434 0.0
C934 C 0.5239 0.29796 0.9845 0.0
C935 C 0.52248 0.29683 0.96356 0.0
C936 C 0.5056 0.29611 0.95437 0.0
C937 C 0.48996 0.29685 0.96548 0.0
C938 C 0.49114 0.29888 0.98634 0.0
C939 C 0.47573 0.30057 0.99789 0.0
C940 C 0.47699 0.30195 0.01848 0.0
C941 C 0.49369 0.30142 0.02832 0.0
C942 C 0.50944 0.30008 0.01694 0.0
C943 C 0.50816 0.29907 0.9959 0.0
C944 C 0.61142 0.29275 0.93879 0.0
C945 C 0.60031 0.2832 0.92246 0.0
O946 O 0.43822 0.30801 0.10359 0.0
O947 O 0.42388 0.28474 0.92509 0.0
O948 O 0.58539 0.29394 0.91777 0.0
O949 O 0.58941 0.29428 0.09675 0.0
H950 H 0.43399 0.33618 0.10681 0.0
H951 H 0.46211 0.32791 0.12544 0.0
H952 H 0.44995 0.31159 0.141 0.0
H953 H 0.44565 0.33652 0.14211 0.0
H954 H 0.45811 0.33701 0.08914 0.0
H955 H 0.44786 0.27763 0.08665 0.0
H956 H 0.49887 0.33872 0.06959 0.0
H957 H 0.47868 0.35236 0.06864 0.0
H958 H 0.48599 0.34012 0.04696 0.0
H959 H 0.46538 0.25753 0.06758 0.0
H960 H 0.48815 0.26556 0.06435 0.0
H961 H 0.47218 0.26843 0.04448 0.0
H962 H 0.59009 0.26701 0.10704 0.0
H963 H 0.57954 0.27511 0.14119 0.0
H964 H 0.56395 0.28285 0.12229 0.0
H965 H 0.57879 0.29967 0.13388 0.0
H966 H 0.56821 0.26538 0.08555 0.0
H967 H 0.57898 0.3244 0.07834 0.0
H968 H 0.52557 0.26394 0.06999 0.0
H969 H 0.5454 0.24994 0.06798 0.0
H970 H 0.53604 0.26182 0.04637 0.0
H971 H 0.56015 0.3443 0.05924 0.0
H972 H 0.53697 0.33698 0.05965 0.0
H973 H 0.55 0.33291 0.03808 0.0
H974 H 0.5963 0.26919 0.92843 0.0
H975 H 0.56805 0.26407 0.93329 0.0
H976 H 0.56735 0.32386 0.9245 0.0
H977 H 0.53915 0.26063 0.97227 0.0
H978 H 0.54603 0.24766 0.95094 0.0
H979 H 0.52448 0.25892 0.95111 0.0
H980 H 0.54503 0.34286 0.938 0.0
H981 H 0.53694 0.33408 0.96157 0.0
H982 H 0.52357 0.33113 0.93954 0.0
H983 H 0.41087 0.30993 0.91742 0.0
H984 H 0.38853 0.2928 0.90281 0.0
H985 H 0.39858 0.27254 0.90721 0.0
H986 H 0.41233 0.28701 0.86981 0.0
H987 H 0.4411 0.26003 0.94566 0.0
H988 H 0.44188 0.31763 0.926 0.0
H989 H 0.47247 0.26209 0.98237 0.0
H990 H 0.48669 0.25818 0.96167 0.0
H991 H 0.46531 0.24628 0.96314 0.0
H992 H 0.46423 0.33898 0.93616 0.0
H993 H 0.48574 0.32775 0.93551 0.0
H994 H 0.47612 0.33307 0.95895 0.0
H995 H 0.51288 0.30178 0.07464 0.0
H996 H 0.55509 0.29797 0.02176 0.0
H997 H 0.55298 0.29707 0.98621 0.0
H998 H 0.50461 0.2946 0.93838 0.0
H999 H 0.4625 0.30084 0.99112 0.0
H1000 H 0.46469 0.3032 0.02661 0.0
H1001 H 0.62381 0.28468 0.94205 0.0
H1002 H 0.60356 0.2933 0.95264 0.0
H1003 H 0.61511 0.30735 0.93434 0.0
H1004 H 0.18363 0.36261 0.26611 0.0
H1005 H 0.21022 0.38319 0.21323 0.0
H1006 H 0.18948 0.40975 0.2108 0.0
H1007 H 0.13752 0.37605 0.25156 0.0
H1008 H 0.13213 0.38107 0.27693 0.0
H1009 H 0.14832 0.36328 0.27165 0.0
H1010 H 0.17142 0.38016 0.29405 0.0
H1011 H 0.15562 0.3983 0.29915 0.0
H1012 H 0.17708 0.4044 0.28891 0.0
H1013 H 0.1717 0.44233 0.21498 0.0
H1014 H 0.14819 0.47109 0.22951 0.0
H1015 H 0.12946 0.42404 0.28491 0.0
C1016 C 0.18469 0.37259 0.25386 0.0
C1017 C 0.19858 0.37102 0.23998 0.0
C1018 C 0.19985 0.3843 0.2242 0.0
C1019 C 0.18806 0.39936 0.22261 0.0
C1020 C 0.17483 0.40097 0.23672 0.0
C1021 C 0.17278 0.38777 0.25236 0.0
C1022 C 0.15811 0.39212 0.26755 0.0
C1023 C 0.14313 0.37725 0.26688 0.0
C1024 C 0.16604 0.39384 0.28865 0.0
C1025 C 0.15123 0.41076 0.26025 0.0
C1026 C 0.16284 0.41645 0.23867 0.0
C1027 C 0.16298 0.43932 0.22732 0.0
C1028 C 0.14947 0.45764 0.23709 0.0
C1029 C 0.13339 0.44935 0.25643 0.0
C1030 C 0.13713 0.42749 0.27184 0.0
H1031 H 0.18082 0.66119 0.77725 0.0
H1032 H 0.19368 0.66582 0.71467 0.0
H1033 H 0.1695 0.64325 0.70678 0.0
H1034 H 0.17263 0.61236 0.77807 0.0
H1035 H 0.15441 0.61318 0.79525 0.0
H1036 H 0.17164 0.63098 0.79584 0.0
H1037 H 0.14767 0.65684 0.7913 0.0
H1038 H 0.13034 0.63909 0.79071 0.0
H1039 H 0.13225 0.65587 0.7705 0.0
H1040 H 0.14573 0.61831 0.70593 0.0
H1041 H 0.12364 0.59298 0.71214 0.0
H1042 H 0.12593 0.60458 0.77519 0.0
C1043 C 0.17849 0.65754 0.76187 0.0
C1044 C 0.18912 0.66538 0.74657 0.0
C1045 C 0.18555 0.66028 0.72662 0.0
C1046 C 0.17189 0.6474 0.722 0.0
C1047 C 0.16183 0.63979 0.73745 0.0
C1048 C 0.16488 0.64473 0.75698 0.0
C1049 C 0.15264 0.63389 0.77087 0.0
C1050 C 0.16348 0.62189 0.78589 0.0
C1051 C 0.13997 0.64722 0.78147 0.0
C1052 C 0.14254 0.62175 0.75615 0.0
C1053 C 0.14797 0.62547 0.73694 0.0
C1054 C 0.1412 0.61543 0.72087 0.0
C1055 C 0.12868 0.60107 0.72455 0.0
C1056 C 0.12301 0.59689 0.74413 0.0
C1057 C 0.12991 0.60758 0.76006 0.0
H1058 H 0.84784 0.65994 0.22682 0.0
H1059 H 0.83857 0.66722 0.28973 0.0
H1060 H 0.86235 0.64443 0.29779 0.0
H1061 H 0.85476 0.61081 0.22934 0.0
H1062 H 0.87203 0.61078 0.21095 0.0
H1063 H 0.85519 0.6287 0.21008 0.0
H1064 H 0.87989 0.65445 0.21098 0.0
H1065 H 0.89682 0.63658 0.21186 0.0
H1066 H 0.89636 0.65415 0.23081 0.0
H1067 H 0.88556 0.6193 0.29908 0.0
H1068 H 0.9068 0.59364 0.29348 0.0
H1069 H 0.90153 0.60287 0.2298 0.0
C1070 C 0.85085 0.65679 0.2423 0.0
C1071 C 0.84136 0.66547 0.25765 0.0
C1072 C 0.84581 0.66101 0.27771 0.0
C1073 C 0.85926 0.64801 0.28245 0.0
C1074 C 0.86824 0.63964 0.26697 0.0
C1075 C 0.86429 0.64388 0.2473 0.0
C1076 C 0.87554 0.6324 0.23351 0.0
C1077 C 0.86367 0.61993 0.22019 0.0
C1078 C 0.88789 0.64516 0.22106 0.0
C1079 C 0.88615 0.62074 0.24851 0.0
C1080 C 0.88178 0.62521 0.26772 0.0
C1081 C 0.88921 0.61578 0.28411 0.0
C1082 C 0.90125 0.60123 0.28078 0.0
C1083 C 0.90577 0.5962 0.26122 0.0
C1084 C 0.89832 0.60638 0.24492 0.0
H1085 H 0.85152 0.33124 0.75649 0.0
H1086 H 0.8156 0.3696 0.7254 0.0
H1087 H 0.83937 0.39397 0.72519 0.0
H1088 H 0.87426 0.36628 0.78713 0.0
H1089 H 0.89569 0.35509 0.78529 0.0
H1090 H 0.87545 0.34121 0.78413 0.0
H1091 H 0.88508 0.32792 0.75034 0.0
H1092 H 0.9053 0.34177 0.75138 0.0
H1093 H 0.89037 0.34393 0.73021 0.0
H1094 H 0.86809 0.41294 0.72543 0.0
H1095 H 0.89882 0.42572 0.72795 0.0
H1096 H 0.91557 0.37539 0.76008 0.0
C1097 C 0.84861 0.34481 0.74975 0.0
C1098 C 0.8317 0.34853 0.74096 0.0
C1099 C 0.82839 0.36652 0.73242 0.0
C1100 C 0.84183 0.38041 0.73215 0.0
C1101 C 0.85845 0.37615 0.74066 0.0
C1102 C 0.86181 0.35884 0.74947 0.0
C1103 C 0.88094 0.35759 0.75705 0.0
C1104 C 0.88161 0.35489 0.77975 0.0
C1105 C 0.89101 0.34187 0.74662 0.0
C1106 C 0.8879 0.37681 0.75088 0.0
C1107 C 0.87476 0.3873 0.74139 0.0
C1108 C 0.87839 0.40501 0.73321 0.0
C1109 C 0.8959 0.41218 0.73477 0.0
C1110 C 0.90952 0.40176 0.74473 0.0
C1111 C 0.90533 0.38386 0.75286 0.0
H1112 H 0.24369 0.19513 0.34814 0.0
H1113 H 0.29824 0.20636 0.32982 0.0
H1114 H 0.30894 0.18108 0.3523 0.0
H1115 H 0.25409 0.18679 0.3993 0.0
H1116 H 0.23769 0.16832 0.40253 0.0
H1117 H 0.23408 0.18649 0.38402 0.0
H1118 H 0.23036 0.16126 0.35693 0.0
H1119 H 0.23399 0.143 0.37537 0.0
H1120 H 0.24781 0.14432 0.35367 0.0
H1121 H 0.31405 0.15602 0.37797 0.0
H1122 H 0.31325 0.1326 0.40535 0.0
H1123 H 0.25548 0.13727 0.40729 0.0
C1124 C 0.25788 0.19227 0.34883 0.0
C1125 C 0.2701 0.20268 0.33704 0.0
C1126 C 0.28856 0.19837 0.33836 0.0
C1127 C 0.29479 0.1841 0.35118 0.0
C1128 C 0.28242 0.17418 0.3626 0.0
C1129 C 0.26435 0.17802 0.36156 0.0
C1130 C 0.25399 0.16563 0.37597 0.0
C1131 C 0.2444 0.17752 0.39136 0.0
C1132 C 0.24076 0.15279 0.36481 0.0
C1133 C 0.26911 0.15444 0.38547 0.0
C1134 C 0.28538 0.15957 0.37745 0.0
C1135 C 0.30138 0.15176 0.38425 0.0
C1136 C 0.30079 0.13846 0.3998 0.0
C1137 C 0.28431 0.13305 0.4084 0.0
C1138 C 0.26825 0.14105 0.40092 0.0
H1139 H 0.34974 0.76821 0.8316 0.0
H1140 H 0.3455 0.70867 0.81925 0.0
H1141 H 0.36767 0.70196 0.84601 0.0
H1142 H 0.39694 0.76923 0.8409 0.0
H1143 H 0.39565 0.78611 0.86049 0.0
H1144 H 0.37907 0.78607 0.84082 0.0
H1145 H 0.35392 0.78264 0.86676 0.0
H1146 H 0.37042 0.78274 0.88652 0.0
H1147 H 0.35467 0.76352 0.88464 0.0
H1148 H 0.39044 0.70191 0.87439 0.0
H1149 H 0.41199 0.70861 0.9017 0.0
H1150 H 0.40188 0.76822 0.89425 0.0
C1151 C 0.35354 0.75375 0.83439 0.0
C1152 C 0.34588 0.73897 0.82329 0.0
C1153 C 0.35102 0.72022 0.82771 0.0
C1154 C 0.36368 0.71628 0.8428 0.0
C1155 C 0.37106 0.73123 0.85334 0.0
C1156 C 0.36614 0.74958 0.84932 0.0
C1157 C 0.37605 0.76315 0.86269 0.0
C1158 C 0.38762 0.77695 0.85049 0.0
C1159 C 0.36299 0.77362 0.87594 0.0
C1160 C 0.38747 0.7496 0.87475 0.0
C1161 C 0.38436 0.73124 0.86925 0.0
C1162 C 0.39311 0.71626 0.87868 0.0
C1163 C 0.40538 0.7202 0.89409 0.0
C1164 C 0.40898 0.739 0.89969 0.0
C1165 C 0.39972 0.75378 0.88994 0.0
H1166 H 0.77191 0.81649 0.35795 0.0
H1167 H 0.80554 0.84361 0.31384 0.0
H1168 H 0.80741 0.87203 0.3344 0.0
H1169 H 0.74708 0.85797 0.37051 0.0
H1170 H 0.7459 0.85175 0.39652 0.0
H1171 H 0.74715 0.83361 0.37827 0.0
H1172 H 0.77513 0.82002 0.39636 0.0
H1173 H 0.774 0.83816 0.41463 0.0
H1174 H 0.79423 0.83507 0.40087 0.0
H1175 H 0.807 0.89673 0.36063 0.0
H1176 H 0.80266 0.91692 0.38945 0.0
H1177 H 0.76776 0.87449 0.41568 0.0
C1178 C 0.77967 0.82842 0.35265 0.0
C1179 C 0.7886 0.82788 0.33432 0.0
C1180 C 0.79848 0.84382 0.32776 0.0
C1181 C 0.79969 0.85996 0.33938 0.0
C1182 C 0.79081 0.86001 0.35742 0.0
C1183 C 0.78085 0.84473 0.36395 0.0
C1184 C 0.77246 0.84849 0.38382 0.0
C1185 C 0.75193 0.84793 0.38217 0.0
C1186 C 0.77937 0.83461 0.39986 0.0
C1187 C 0.77934 0.86822 0.38748 0.0
C1188 C 0.79003 0.87454 0.37218 0.0
C1189 C 0.79848 0.89204 0.37262 0.0
C1190 C 0.7959 0.90343 0.38911 0.0
C1191 C 0.7847 0.89739 0.40488 0.0
C1192 C 0.77632 0.87954 0.40386 0.0
H1193 H 0.66826 0.31302 0.83626 0.0
H1194 H 0.67517 0.25351 0.8258 0.0
H1195 H 0.6516 0.24606 0.84994 0.0
H1196 H 0.6627 0.30885 0.88807 0.0
H1197 H 0.64612 0.327 0.88949 0.0
H1198 H 0.66235 0.32783 0.87001 0.0
H1199 H 0.63682 0.32922 0.84359 0.0
H1200 H 0.62049 0.3284 0.86302 0.0
H1201 H 0.61968 0.31125 0.84362 0.0
H1202 H 0.62921 0.24481 0.87708 0.0
H1203 H 0.6093 0.24989 0.90536 0.0
H1204 H 0.61648 0.31016 0.89826 0.0
C1205 C 0.66476 0.29842 0.83896 0.0
C1206 C 0.67354 0.28386 0.82899 0.0
C1207 C 0.66845 0.26495 0.83292 0.0
C1208 C 0.65512 0.26055 0.8467 0.0
C1209 C 0.64689 0.27522 0.85639 0.0
C1210 C 0.65144 0.29378 0.85266 0.0
C1211 C 0.64109 0.30681 0.86579 0.0
C1212 C 0.65383 0.31829 0.87913 0.0
C1213 C 0.62879 0.31968 0.85325 0.0
C1214 C 0.63036 0.29263 0.87782 0.0
C1215 C 0.63384 0.2745 0.87205 0.0
C1216 C 0.62623 0.25894 0.8816 0.0
C1217 C 0.61495 0.26197 0.89766 0.0
C1218 C 0.61136 0.2804 0.90406 0.0
C1219 C 0.61895 0.29592 0.8937 0.0
H1220 H 0.25938 0.84227 0.6838 0.0
H1221 H 0.27619 0.8037 0.63862 0.0
H1222 H 0.28353 0.83062 0.61642 0.0
H1223 H 0.23889 0.87598 0.65057 0.0
H1224 H 0.24615 0.89601 0.6647 0.0
H1225 H 0.24239 0.87373 0.67706 0.0
H1226 H 0.27469 0.8746 0.69156 0.0
H1227 H 0.27853 0.89692 0.67931 0.0
H1228 H 0.29326 0.87755 0.67499 0.0
H1229 H 0.2902 0.86187 0.59975 0.0
H1230 H 0.29432 0.89496 0.58921 0.0
H1231 H 0.27182 0.91305 0.64472 0.0
C1232 C 0.26471 0.8395 0.66928 0.0
C1233 C 0.26725 0.82091 0.66292 0.0
C1234 C 0.27401 0.81784 0.64371 0.0
C1235 C 0.27828 0.83303 0.63104 0.0
C1236 C 0.2756 0.85118 0.63777 0.0
C1237 C 0.26889 0.85447 0.6564 0.0
C1238 C 0.26709 0.87531 0.65999 0.0
C1239 C 0.24746 0.88056 0.66327 0.0
C1240 C 0.27911 0.88145 0.6775 0.0
C1241 C 0.27383 0.88323 0.64046 0.0
C1242 C 0.27881 0.86911 0.6279 0.0
C1243 C 0.2861 0.87305 0.60934 0.0
C1244 C 0.28833 0.89192 0.60346 0.0
C1245 C 0.28296 0.90664 0.61596 0.0
C1246 C 0.27568 0.9021 0.6347 0.0
H1247 H 0.68372 0.72843 0.18464 0.0
H1248 H 0.68711 0.78924 0.17982 0.0
H1249 H 0.66369 0.78904 0.15365 0.0
H1250 H 0.67696 0.72019 0.13215 0.0
H1251 H 0.66152 0.70094 0.136 0.0
H1252 H 0.6786 0.70582 0.1544 0.0
H1253 H 0.65431 0.70837 0.18125 0.0
H1254 H 0.63715 0.70359 0.16292 0.0
H1255 H 0.63615 0.72459 0.17745 0.0
H1256 H 0.64056 0.78233 0.12748 0.0
H1257 H 0.61864 0.76953 0.10341 0.0
H1258 H 0.62959 0.71312 0.12548 0.0
C1259 C 0.67962 0.74168 0.17797 0.0
C1260 C 0.6872 0.75886 0.18436 0.0
C1261 C 0.68133 0.77592 0.17538 0.0
C1262 C 0.66809 0.77595 0.16043 0.0
C1263 C 0.66082 0.75881 0.15459 0.0
C1264 C 0.66634 0.74198 0.16305 0.0
C1265 C 0.65625 0.72555 0.15405 0.0
C1266 C 0.6691 0.71235 0.14352 0.0
C1267 C 0.64532 0.7149 0.16986 0.0
C1268 C 0.6442 0.7358 0.13926 0.0
C1269 C 0.64712 0.75497 0.13977 0.0
C1270 C 0.63798 0.76736 0.1271 0.0
C1271 C 0.62548 0.75996 0.11355 0.0
C1272 C 0.622 0.74036 0.11299 0.0
C1273 C 0.63165 0.72818 0.12594 0.0
H1274 H 0.76637 0.18029 0.68813 0.0
H1275 H 0.7163 0.19831 0.66088 0.0
H1276 H 0.71803 0.17251 0.6369 0.0
H1277 H 0.78783 0.16651 0.64259 0.0
H1278 H 0.79869 0.14653 0.6541 0.0
H1279 H 0.79382 0.16684 0.66862 0.0
H1280 H 0.77627 0.14581 0.69349 0.0
H1281 H 0.78106 0.12545 0.67904 0.0
H1282 H 0.75823 0.13115 0.68446 0.0
H1283 H 0.72405 0.14322 0.61763 0.0
H1284 H 0.73483 0.11389 0.60315 0.0
H1285 H 0.78173 0.11584 0.64189 0.0
C1286 C 0.75579 0.17883 0.67709 0.0
C1287 C 0.7412 0.19132 0.67636 0.0
C1288 C 0.7277 0.18904 0.66157 0.0
C1289 C 0.72852 0.17437 0.64795 0.0
C1290 C 0.743 0.1622 0.64921 0.0
C1291 C 0.75648 0.16437 0.66328 0.0
C1292 C 0.77046 0.14924 0.66162 0.0
C1293 C 0.78878 0.1578 0.65642 0.0
C1294 C 0.77156 0.1372 0.68079 0.0
C1295 C 0.76268 0.13813 0.64452 0.0
C1296 C 0.74679 0.14575 0.63763 0.0
C1297 C 0.73665 0.1373 0.62266 0.0
C1298 C 0.74293 0.12063 0.61448 0.0
C1299 C 0.75938 0.11274 0.62108 0.0
C1300 C 0.7693 0.12173 0.63629 0.0
H1301 H 0.36063 0.27075 0.1827 0.0
H1302 H 0.33245 0.32384 0.18319 0.0
H1303 H 0.35431 0.33748 0.15997 0.0
H1304 H 0.4044 0.29072 0.18307 0.0
H1305 H 0.41372 0.27344 0.16701 0.0
H1306 H 0.39505 0.2673 0.18248 0.0
H1307 H 0.37698 0.25675 0.15141 0.0
H1308 H 0.39559 0.26293 0.13584 0.0
H1309 H 0.37391 0.27296 0.13081 0.0
H1310 H 0.38 0.34607 0.13841 0.0
H1311 H 0.40827 0.34918 0.12016 0.0
H1312 H 0.42038 0.29087 0.13388 0.0
C1313 C 0.35902 0.28524 0.17792 0.0
C1314 C 0.34464 0.29613 0.18468 0.0
C1315 C 0.34305 0.31503 0.17793 0.0
C1316 C 0.35548 0.32297 0.1648 0.0
C1317 C 0.36948 0.31187 0.15852 0.0
C1318 C 0.37136 0.29343 0.16484 0.0
C1319 C 0.3881 0.28486 0.15648 0.0
C1320 C 0.40109 0.27873 0.17326 0.0
C1321 C 0.38336 0.2684 0.14282 0.0
C1322 C 0.39547 0.30148 0.14474 0.0
C1323 C 0.38441 0.31686 0.14601 0.0
C1324 C 0.38866 0.33407 0.13708 0.0
C1325 C 0.40471 0.33568 0.12671 0.0
C1326 C 0.41633 0.32017 0.12524 0.0
C1327 C 0.41156 0.30283 0.13437 0.0
H1328 H 0.83858 0.66316 0.74662 0.0
H1329 H 0.85125 0.68199 0.80621 0.0
H1330 H 0.87713 0.66074 0.80778 0.0
H1331 H 0.8482 0.61589 0.75491 0.0
H1332 H 0.85801 0.61199 0.73106 0.0
H1333 H 0.8416 0.63008 0.73366 0.0
H1334 H 0.86381 0.6548 0.71945 0.0
H1335 H 0.88028 0.63673 0.71668 0.0
H1336 H 0.88566 0.65737 0.73081 0.0
H1337 H 0.8999 0.63557 0.80414 0.0
H1338 H 0.91802 0.60813 0.79546 0.0
H1339 H 0.89135 0.60638 0.73776 0.0
C1340 C 0.84706 0.66314 0.7598 0.0
C1341 C 0.84285 0.67421 0.77632 0.0
C1342 C 0.85408 0.67349 0.79346 0.0
C1343 C 0.86889 0.66156 0.79444 0.0
C1344 C 0.87243 0.65053 0.77809 0.0
C1345 C 0.86194 0.65131 0.76102 0.0
C1346 C 0.86807 0.63715 0.74602 0.0
C1347 C 0.85307 0.62294 0.74114 0.0
C1348 C 0.87486 0.64712 0.72712 0.0
C1349 C 0.88326 0.62793 0.75759 0.0
C1350 C 0.88565 0.63598 0.77597 0.0
C1351 C 0.89823 0.62923 0.78972 0.0
C1352 C 0.9084 0.6136 0.7847 0.0
C1353 C 0.90583 0.6047 0.7662 0.0
C1354 C 0.89348 0.61247 0.75222 0.0
H1355 H 0.85141 0.34314 0.25646 0.0
H1356 H 0.85733 0.33434 0.19325 0.0
H1357 H 0.88451 0.35428 0.19344 0.0
H1358 H 0.86605 0.3914 0.25653 0.0
H1359 H 0.87779 0.38931 0.28003 0.0
H1360 H 0.85869 0.37447 0.27494 0.0
H1361 H 0.8778 0.34489 0.28233 0.0
H1362 H 0.89692 0.35965 0.28757 0.0
H1363 H 0.89831 0.3417 0.26909 0.0
H1364 H 0.9116 0.37434 0.20072 0.0
H1365 H 0.93648 0.39337 0.21456 0.0
H1366 H 0.91272 0.38944 0.27288 0.0
C1367 C 0.85849 0.3453 0.24268 0.0
C1368 C 0.85221 0.3372 0.22482 0.0
C1369 C 0.86175 0.34058 0.20706 0.0
C1370 C 0.87725 0.35182 0.20703 0.0
C1371 C 0.88302 0.35964 0.22487 0.0
C1372 C 0.87395 0.35653 0.24237 0.0
C1373 C 0.88302 0.3665 0.25953 0.0
C1374 C 0.87065 0.3813 0.26826 0.0
C1375 C 0.88939 0.35234 0.27557 0.0
C1376 C 0.89867 0.37564 0.24897 0.0
C1377 C 0.89843 0.3715 0.22898 0.0
C1378 C 0.91181 0.37789 0.2163 0.0
C1379 C 0.92582 0.38876 0.22426 0.0
C1380 C 0.92624 0.39335 0.24468 0.0
C1381 C 0.91249 0.38656 0.25713 0.0
H1382 H 0.1721 0.34931 0.78974 0.0
H1383 H 0.18528 0.34431 0.72747 0.0
H1384 H 0.1586 0.36271 0.71808 0.0
H1385 H 0.12528 0.34445 0.7837 0.0
H1386 H 0.11975 0.36134 0.80224 0.0
H1387 H 0.14045 0.3487 0.80424 0.0
H1388 H 0.15805 0.38018 0.80557 0.0
H1389 H 0.13736 0.39293 0.80357 0.0
H1390 H 0.15489 0.39746 0.78599 0.0
H1391 H 0.12975 0.37998 0.71522 0.0
H1392 H 0.10033 0.39479 0.71909 0.0
H1393 H 0.10615 0.38983 0.78319 0.0
C1394 C 0.16954 0.35236 0.77415 0.0
C1395 C 0.18078 0.34528 0.75934 0.0
C1396 C 0.17675 0.34933 0.73908 0.0
C1397 C 0.1617 0.35991 0.73359 0.0
C1398 C 0.15082 0.36648 0.74853 0.0
C1399 C 0.15455 0.36294 0.76839 0.0
C1400 C 0.14023 0.37103 0.78142 0.0
C1401 C 0.13088 0.35545 0.79361 0.0
C1402 C 0.14811 0.38631 0.79493 0.0
C1403 C 0.12774 0.37938 0.76573 0.0
C1404 C 0.13418 0.37667 0.74687 0.0
C1405 C 0.12464 0.38233 0.72991 0.0
C1406 C 0.10794 0.39073 0.73227 0.0
C1407 C 0.10089 0.39339 0.75142 0.0
C1408 C 0.11117 0.38797 0.76836 0.0
H1409 H 0.18283 0.67377 0.27461 0.0
H1410 H 0.16238 0.71349 0.23047 0.0
H1411 H 0.13743 0.69178 0.22277 0.0
H1412 H 0.17362 0.63295 0.24707 0.0
H1413 H 0.16726 0.61855 0.26811 0.0
H1414 H 0.1827 0.63781 0.27143 0.0
H1415 H 0.16217 0.65172 0.29803 0.0
H1416 H 0.14664 0.63248 0.29478 0.0
H1417 H 0.13906 0.65635 0.2919 0.0
H1418 H 0.11585 0.66532 0.21836 0.0
H1419 H 0.09954 0.63515 0.21659 0.0
H1420 H 0.13333 0.61246 0.26404 0.0
C1421 C 0.17291 0.678 0.26358 0.0
C1422 C 0.17454 0.69532 0.25312 0.0
C1423 C 0.16149 0.70022 0.23852 0.0
C1424 C 0.14719 0.68805 0.23415 0.0
C1425 C 0.14609 0.67101 0.24453 0.0
C1426 C 0.15856 0.66594 0.25895 0.0
C1427 C 0.15479 0.6463 0.26703 0.0
C1428 C 0.17053 0.63313 0.26317 0.0
C1429 C 0.1504 0.64675 0.28926 0.0
C1430 C 0.13845 0.64103 0.25463 0.0
C1431 C 0.1336 0.65558 0.24188 0.0
C1432 C 0.11947 0.65384 0.22832 0.0
C1433 C 0.11031 0.63663 0.2274 0.0
C1434 C 0.11536 0.62124 0.23983 0.0
C1435 C 0.12928 0.62377 0.25408 0.0
H1436 H 0.78858 0.82937 0.66326 0.0
H1437 H 0.75643 0.84899 0.71182 0.0
H1438 H 0.75394 0.87999 0.69521 0.0
H1439 H 0.81386 0.87092 0.65717 0.0
H1440 H 0.81488 0.86977 0.63049 0.0
H1441 H 0.81258 0.84852 0.6451 0.0
H1442 H 0.78398 0.8397 0.62501 0.0
H1443 H 0.78619 0.86097 0.61033 0.0
H1444 H 0.76573 0.85605 0.62332 0.0
H1445 H 0.75709 0.90959 0.67498 0.0
H1446 H 0.76574 0.93576 0.65249 0.0
H1447 H 0.79602 0.89724 0.61712 0.0
C1448 C 0.78093 0.84014 0.67037 0.0
C1449 C 0.77261 0.83664 0.68883 0.0
C1450 C 0.76264 0.85114 0.69753 0.0
C1451 C 0.76122 0.86886 0.68825 0.0
C1452 C 0.76976 0.87187 0.67021 0.0
C1453 C 0.77938 0.85792 0.66132 0.0
C1454 C 0.78808 0.86513 0.64244 0.0
C1455 C 0.80856 0.86349 0.6439 0.0
C1456 C 0.78054 0.85485 0.6242 0.0
C1457 C 0.78224 0.88546 0.64241 0.0
C1458 C 0.77153 0.88899 0.65846 0.0
C1459 C 0.76524 0.90694 0.66219 0.0
C1460 C 0.77019 0.9217 0.64933 0.0
C1461 C 0.7813 0.91847 0.63289 0.0
C1462 C 0.78723 0.90003 0.62934 0.0
H1463 H 0.6742 0.24538 0.17842 0.0
H1464 H 0.6959 0.30212 0.17666 0.0
H1465 H 0.6712 0.31189 0.15407 0.0
H1466 H 0.65846 0.2439 0.12748 0.0
H1467 H 0.63852 0.23075 0.13356 0.0
H1468 H 0.65844 0.22811 0.1487 0.0
H1469 H 0.64066 0.23687 0.17996 0.0
H1470 H 0.62069 0.23947 0.16493 0.0
H1471 H 0.6285 0.25862 0.18005 0.0
H1472 H 0.64272 0.31582 0.13334 0.0
H1473 H 0.61348 0.3133 0.11576 0.0
H1474 H 0.6109 0.25398 0.13122 0.0
C1475 C 0.67378 0.25989 0.17336 0.0
C1476 C 0.68703 0.27297 0.17936 0.0
C1477 C 0.68605 0.29176 0.1721 0.0
C1478 C 0.67201 0.29747 0.15933 0.0
C1479 C 0.65909 0.28421 0.1539 0.0
C1480 C 0.6599 0.2658 0.16066 0.0
C1481 C 0.64411 0.25439 0.15317 0.0
C1482 C 0.65026 0.23834 0.13994 0.0
C1483 C 0.63282 0.2469 0.17056 0.0
C1484 C 0.63421 0.26925 0.14119 0.0
C1485 C 0.64301 0.28639 0.14176 0.0
C1486 C 0.63588 0.3024 0.13252 0.0
C1487 C 0.61931 0.30082 0.12251 0.0
C1488 C 0.6102 0.2833 0.1216 0.0
C1489 C 0.61782 0.26741 0.13117 0.0
H1490 H 0.26288 0.17732 0.69514 0.0
H1491 H 0.23163 0.21003 0.65234 0.0
H1492 H 0.23347 0.18432 0.6284 0.0
H1493 H 0.29282 0.15693 0.65919 0.0
H1494 H 0.29373 0.13454 0.67205 0.0
H1495 H 0.29022 0.15568 0.68576 0.0
H1496 H 0.26122 0.14124 0.70036 0.0
H1497 H 0.26459 0.12011 0.68662 0.0
H1498 H 0.24393 0.13279 0.68376 0.0
H1499 H 0.23708 0.15437 0.60988 0.0
H1500 H 0.24359 0.12296 0.59729 0.0
H1501 H 0.27442 0.11042 0.65102 0.0
C1502 C 0.25665 0.17922 0.68064 0.0
C1503 C 0.24697 0.19569 0.67574 0.0
C1504 C 0.23882 0.19743 0.65664 0.0
C1505 C 0.23989 0.18295 0.64286 0.0
C1506 C 0.24931 0.16684 0.64828 0.0
C1507 C 0.25769 0.16494 0.66663 0.0
C1508 C 0.26677 0.14604 0.66879 0.0
C1509 C 0.28709 0.14845 0.67161 0.0
C1510 C 0.25864 0.13436 0.68589 0.0
C1511 C 0.26213 0.13763 0.6488 0.0
C1512 C 0.25194 0.1498 0.63727 0.0
C1513 C 0.24526 0.1448 0.61865 0.0
C1514 C 0.24907 0.12685 0.61162 0.0
C1515 C 0.25971 0.11414 0.62308 0.0
C1516 C 0.26638 0.11981 0.64186 0.0
H1517 H 0.35104 0.75301 0.18385 0.0
H1518 H 0.3227 0.70878 0.15236 0.0
H1519 H 0.34841 0.70539 0.13027 0.0
H1520 H 0.37163 0.77432 0.1401 0.0
H1521 H 0.39221 0.77983 0.15312 0.0
H1522 H 0.37145 0.77895 0.16635 0.0
H1523 H 0.38498 0.75457 0.19119 0.0
H1524 H 0.40575 0.75532 0.178 0.0
H1525 H 0.3943 0.73321 0.18192 0.0
H1526 H 0.37796 0.70543 0.11288 0.0
H1527 H 0.4085 0.71018 0.10029 0.0
H1528 H 0.41679 0.75588 0.14142 0.0
C1529 C 0.35008 0.7428 0.17213 0.0
C1530 C 0.33483 0.73106 0.17002 0.0
C1531 C 0.33433 0.71769 0.15461 0.0
C1532 C 0.34883 0.71574 0.14186 0.0
C1533 C 0.36371 0.72738 0.14452 0.0
C1534 C 0.36438 0.74076 0.15915 0.0
C1535 C 0.38203 0.75137 0.15897 0.0
C1536 C 0.37915 0.77236 0.15435 0.0
C1537 C 0.39237 0.74843 0.17869 0.0
C1538 C 0.3912 0.74178 0.14202 0.0
C1539 C 0.38045 0.72791 0.13396 0.0
C1540 C 0.3864 0.71648 0.11884 0.0
C1541 C 0.40378 0.71933 0.11175 0.0
C1542 C 0.41494 0.73373 0.11955 0.0
C1543 C 0.40844 0.74503 0.1349 0.0
H1544 H 0.76862 0.17393 0.324 0.0
H1545 H 0.82089 0.19595 0.34101 0.0
H1546 H 0.82183 0.17408 0.36969 0.0
H1547 H 0.75187 0.16929 0.37285 0.0
H1548 H 0.73969 0.14778 0.36838 0.0
H1549 H 0.74361 0.16415 0.34822 0.0
H1550 H 0.75852 0.13786 0.32827 0.0
H1551 H 0.75468 0.1214 0.34842 0.0
H1552 H 0.77698 0.12505 0.33923 0.0
H1553 H 0.81645 0.15157 0.39772 0.0
H1554 H 0.80488 0.12981 0.42349 0.0
H1555 H 0.75621 0.1219 0.38864 0.0
C1556 C 0.7803 0.17409 0.33371 0.0
C1557 C 0.79477 0.18657 0.33007 0.0
C1558 C 0.8098 0.18628 0.34317 0.0
C1559 C 0.81044 0.17396 0.35959 0.0
C1560 C 0.79597 0.16191 0.36276 0.0
C1561 C 0.78118 0.16181 0.3502 0.0
C1562 C 0.76716 0.1479 0.35749 0.0
C1563 C 0.74955 0.15788 0.36201 0.0
C1564 C 0.76416 0.13212 0.34246 0.0
C1565 C 0.77622 0.14057 0.37635 0.0
C1566 C 0.79288 0.14876 0.379 0.0
C1567 C 0.8035 0.1449 0.39572 0.0
C1568 C 0.79683 0.13252 0.41027 0.0
C1569 C 0.7797 0.12411 0.40804 0.0
C1570 C 0.7694 0.12802 0.39066 0.0
H1571 H 0.34271 0.29667 0.83177 0.0
H1572 H 0.34879 0.23619 0.83383 0.0
H1573 H 0.37509 0.23948 0.85593 0.0
H1574 H 0.3869 0.3098 0.82915 0.0
H1575 H 0.38482 0.33033 0.84426 0.0
H1576 H 0.3658 0.32176 0.83033 0.0
H1577 H 0.34723 0.3191 0.86224 0.0
H1578 H 0.36598 0.32806 0.87644 0.0
H1579 H 0.35579 0.30589 0.88332 0.0
H1580 H 0.4075 0.24553 0.87464 0.0
H1581 H 0.43773 0.26369 0.89427 0.0
H1582 H 0.40636 0.32716 0.88033 0.0
C1583 C 0.34945 0.28419 0.83727 0.0
C1584 C 0.34383 0.26621 0.83095 0.0
C1585 C 0.35303 0.25014 0.83817 0.0
C1586 C 0.36792 0.25185 0.85084 0.0
C1587 C 0.37347 0.26968 0.85647 0.0
C1588 C 0.3644 0.286 0.85003 0.0
C1589 C 0.37252 0.3049 0.85692 0.0
C1590 C 0.37782 0.31742 0.83911 0.0
C1591 C 0.35961 0.31509 0.87053 0.0
C1592 C 0.38882 0.2988 0.86838 0.0
C1593 C 0.3891 0.27434 0.86812 0.0
C1594 C 0.40767 0.26057 0.87659 0.0
C1595 C 0.42693 0.27177 0.88764 0.0
C1596 C 0.42366 0.29728 0.89288 0.0
C1597 C 0.40697 0.31207 0.87891 0.0
H1598 H 0.26938 0.82935 0.34409 0.0
H1599 H 0.2838 0.86762 0.29597 0.0
H1600 H 0.28174 0.89438 0.31867 0.0
H1601 H 0.23713 0.85947 0.36636 0.0
H1602 H 0.24306 0.85245 0.39143 0.0
H1603 H 0.24593 0.83635 0.3714 0.0
H1604 H 0.27937 0.83273 0.38132 0.0
H1605 H 0.27662 0.84892 0.40131 0.0
H1606 H 0.29345 0.85335 0.38288 0.0
H1607 H 0.27751 0.91708 0.34652 0.0
H1608 H 0.27138 0.93399 0.37741 0.0
H1609 H 0.2598 0.88062 0.40707 0.0
C1610 C 0.27198 0.84337 0.33828 0.0
C1611 C 0.27682 0.84636 0.31825 0.0
C1612 C 0.28032 0.86493 0.31132 0.0
C1613 C 0.27911 0.88024 0.32408 0.0
C1614 C 0.2744 0.87678 0.34375 0.0
C1615 C 0.27087 0.85881 0.35082 0.0
C1616 C 0.26601 0.85893 0.37258 0.0
C1617 C 0.2469 0.85136 0.37561 0.0
C1618 C 0.27968 0.84783 0.38527 0.0
C1619 C 0.26725 0.87978 0.3766 0.0
C1620 C 0.27213 0.88983 0.35981 0.0
C1621 C 0.27382 0.90933 0.35982 0.0
C1622 C 0.27038 0.9188 0.37746 0.0
C1623 C 0.26544 0.90885 0.39499 0.0
C1624 C 0.2638 0.88898 0.39434 0.0
H1625 H 0.67691 0.76069 0.84252 0.0
H1626 H 0.68154 0.7055 0.81668 0.0
H1627 H 0.65899 0.69306 0.83991 0.0
H1628 H 0.67216 0.74494 0.89267 0.0
H1629 H 0.65612 0.76256 0.89896 0.0
H1630 H 0.67217 0.76737 0.87983 0.0
H1631 H 0.64641 0.77529 0.855 0.0
H1632 H 0.63027 0.77045 0.87407 0.0
H1633 H 0.62881 0.75828 0.85082 0.0
H1634 H 0.63687 0.68626 0.86644 0.0
H1635 H 0.61674 0.68537 0.89513 0.0
H1636 H 0.62582 0.74497 0.90376 0.0
C1637 C 0.67302 0.74604 0.84159 0.0
C1638 C 0.68105 0.73405 0.82779 0.0
C1639 C 0.67577 0.7149 0.82728 0.0
C1640 C 0.66287 0.70773 0.84031 0.0
C1641 C 0.6553 0.71988 0.85377 0.0
C1642 C 0.66015 0.73862 0.85454 0.0
C1643 C 0.65029 0.74849 0.87087 0.0
C1644 C 0.66348 0.75629 0.8865 0.0
C1645 C 0.63823 0.76405 0.86217 0.0
C1646 C 0.6393 0.7323 0.87927 0.0
C1647 C 0.64234 0.71597 0.86908 0.0
C1648 C 0.63422 0.69899 0.8744 0.0
C1649 C 0.62277 0.69864 0.89069 0.0
C1650 C 0.61944 0.71516 0.90144 0.0
C1651 C 0.62784 0.73222 0.89557 0.0
loop_
_geom_bond_atom_site_label_1
_geom_bond_atom_site_label_2
_geom_bond_distance
_geom_bond_site_symmetry_2
_ccdc_geom_bond_type
C0 C1 1.264 . S
C0 C5 1.479 . S
C0 C10 1.465 . S
C1 C0 1.264 . S
C1 C3 1.339 . S
C1 H28 0.931 . S
C2 C3 1.395 . S
C2 C4 1.320 . S
C3 C1 1.339 . S
C3 C2 1.395 . S
C3 H29 0.929 . S
C4 C2 1.320 . S
C4 C5 1.405 . S
C4 H30 0.930 . S
C5 C0 1.479 . S
C5 C4 1.405 . S
C5 H31 0.931 . S
U6 O7 2.454 . S
U6 O8 2.458 . S
U6 C9 2.984 . S
U6 C10 2.847 . S
U6 C23 2.882 . S
U6 O24 2.441 . S
U6 O25 2.420 . S
U6 O26 2.455 . S
U6 O27 2.449 . S
O7 U6 2.454 . S
O7 C9 1.353 . S
O8 U6 2.458 . S
O8 C9 1.286 . S
C9 U6 2.984 . S
C9 O7 1.353 . S
C9 O8 1.286 . S
C9 C11 1.363 . S
C10 C0 1.465 . S
C10 U6 2.847 . S
C10 O24 1.249 . S
C10 O25 1.202 . S
C11 C9 1.363 . S
C11 C13 1.408 . S
C11 C16 1.342 . S
C12 C13 1.310 . S
C12 C15 1.461 . S
C12 H32 0.932 . S
C13 C11 1.408 . S
C13 C12 1.310 . S
C13 H33 0.930 . S
C14 C15 1.474 . S
C14 C16 1.285 . S
C14 H34 0.929 . S
C15 C12 1.461 . S
C15 C14 1.474 . S
C16 C11 1.342 . S
C16 C14 1.285 . S
C16 H35 0.930 . S
C17 C20 1.424 . S
C17 C22 1.245 . S
C17 C23 1.428 . S
C18 C21 1.260 . S
C18 C22 1.477 . S
C18 H36 0.932 . S
C19 C20 1.384 . S
C19 C21 1.479 . S
C19 H37 0.929 . S
C20 C17 1.424 . S
C20 C19 1.384 . S
C20 H38 0.928 . S
C21 C18 1.260 . S
C21 C19 1.479 . S
C22 C17 1.245 . S
C22 C18 1.477 . S
C22 H39 0.932 . S
C23 U6 2.882 . S
C23 C17 1.428 . S
C23 O26 1.301 . S
C23 O27 1.282 . S
O24 U6 2.441 . S
O24 C10 1.249 . S
O25 U6 2.420 . S
O25 C10 1.202 . S
O26 U6 2.455 . S
O26 C23 1.301 . S
O27 U6 2.449 . S
O27 C23 1.282 . S
H28 C1 0.931 . S
H29 C3 0.929 . S
H30 C4 0.930 . S
H31 C5 0.931 . S
H32 C12 0.932 . S
H33 C13 0.930 . S
H34 C14 0.929 . S
H35 C16 0.930 . S
H36 C18 0.932 . S
H37 C19 0.929 . S
H38 C20 0.928 . S
H39 C22 0.932 . S
C40 C41 1.264 . S
C40 C45 1.479 . S
C40 C50 1.465 . S
C41 C40 1.264 . S
C41 C43 1.339 . S
C41 H68 0.931 . S
C42 C43 1.395 . S
C42 C44 1.320 . S
C43 C41 1.339 . S
C43 C42 1.395 . S
C43 H69 0.929 . S
C44 C42 1.320 . S
C44 C45 1.405 . S
C44 H70 0.930 . S
C45 C40 1.479 . S
C45 C44 1.405 . S
C45 H71 0.931 . S
U46 O47 2.454 . S
U46 O48 2.458 . S
U46 C49 2.984 . S
U46 C50 2.847 . S
U46 C63 2.882 . S
U46 O64 2.441 . S
U46 O65 2.420 . S
U46 O66 2.455 . S
U46 O67 2.449 . S
O47 U46 2.454 . S
O47 C49 1.353 . S
O48 U46 2.458 . S
O48 C49 1.286 . S
C49 U46 2.984 . S
C49 O47 1.353 . S
C49 O48 1.286 . S
C49 C51 1.363 . S
C50 C40 1.465 . S
C50 U46 2.847 . S
C50 O64 1.249 . S
C50 O65 1.202 . S
C51 C49 1.363 . S
C51 C53 1.408 . S
C51 C56 1.342 . S
C52 C53 1.310 . S
C52 C55 1.461 . S
C52 H72 0.932 . S
C53 C51 1.408 . S
C53 C52 1.310 . S
C53 H73 0.930 . S
C54 C55 1.474 . S
C54 C56 1.285 . S
C54 H74 0.929 . S
C55 C52 1.461 . S
C55 C54 1.474 . S
C56 C51 1.342 . S
C56 C54 1.285 . S
C56 H75 0.930 . S
C57 C60 1.424 . S
C57 C62 1.245 . S
C57 C63 1.428 . S
C58 C61 1.260 . S
C58 C62 1.477 . S
C58 H76 0.932 . S
C59 C60 1.384 . S
C59 C61 1.479 . S
C59 H77 0.929 . S
C60 C57 1.424 . S
C60 C59 1.384 . S
C60 H78 0.928 . S
C61 C58 1.260 . S
C61 C59 1.479 . S
C62 C57 1.245 . S
C62 C58 1.477 . S
C62 H79 0.932 . S
C63 U46 2.882 . S
C63 C57 1.428 . S
C63 O66 1.301 . S
C63 O67 1.282 . S
O64 U46 2.441 . S
O64 C50 1.249 . S
O65 U46 2.420 . S
O65 C50 1.202 . S
O66 U46 2.455 . S
O66 C63 1.301 . S
O67 U46 2.449 . S
O67 C63 1.282 . S
H68 C41 0.931 . S
H69 C43 0.929 . S
H70 C44 0.930 . S
H71 C45 0.931 . S
H72 C52 0.932 . S
H73 C53 0.930 . S
H74 C54 0.929 . S
H75 C56 0.930 . S
H76 C58 0.932 . S
H77 C59 0.929 . S
H78 C60 0.928 . S
H79 C62 0.932 . S
C80 C81 1.264 . S
C80 C85 1.479 . S
C80 C90 1.465 . S
C81 C80 1.264 . S
C81 C83 1.339 . S
C81 H108 0.931 . S
C82 C83 1.395 . S
C82 C84 1.320 . S
C83 C81 1.339 . S
C83 C82 1.395 . S
C83 H109 0.929 . S
C84 C82 1.320 . S
C84 C85 1.405 . S
C84 H110 0.930 . S
C85 C80 1.479 . S
C85 C84 1.405 . S
C85 H111 0.931 . S
U86 O87 2.454 . S
U86 O88 2.458 . S
U86 C89 2.984 . S
U86 C90 2.847 . S
U86 C103 2.882 . S
U86 O104 2.441 . S
U86 O105 2.420 . S
U86 O106 2.455 . S
U86 O107 2.449 . S
O87 U86 2.454 . S
O87 C89 1.353 . S
O88 U86 2.458 . S
O88 C89 1.286 . S
C89 U86 2.984 . S
C89 O87 1.353 . S
C89 O88 1.286 . S
C89 C91 1.363 . S
C90 C80 1.465 . S
C90 U86 2.847 . S
C90 O104 1.249 . S
C90 O105 1.202 . S
C91 C89 1.363 . S
C91 C93 1.408 . S
C91 C96 1.342 . S
C92 C93 1.310 . S
C92 C95 1.461 . S
C92 H112 0.932 . S
C93 C91 1.408 . S
C93 C92 1.310 . S
C93 H113 0.930 . S
C94 C95 1.474 . S
C94 C96 1.285 . S
C94 H114 0.929 . S
C95 C92 1.461 . S
C95 C94 1.474 . S
C96 C91 1.342 . S
C96 C94 1.285 . S
C96 H115 0.930 . S
C97 C100 1.424 . S
C97 C102 1.245 . S
C97 C103 1.428 . S
C98 C101 1.260 . S
C98 C102 1.477 . S
C98 H116 0.932 . S
C99 C100 1.384 . S
C99 C101 1.479 . S
C99 H117 0.929 . S
C100 C97 1.424 . S
C100 C99 1.384 . S
C100 H118 0.928 . S
C101 C98 1.260 . S
C101 C99 1.479 . S
C102 C97 1.245 . S
C102 C98 1.477 . S
C102 H119 0.932 . S
C103 U86 2.882 . S
C103 C97 1.428 . S
C103 O106 1.301 . S
C103 O107 1.282 . S
O104 U86 2.441 . S
O104 C90 1.249 . S
O105 U86 2.420 . S
O105 C90 1.202 . S
O106 U86 2.455 . S
O106 C103 1.301 . S
O107 U86 2.449 . S
O107 C103 1.282 . S
H108 C81 0.931 . S
H109 C83 0.929 . S
H110 C84 0.930 . S
H111 C85 0.931 . S
H112 C92 0.932 . S
H113 C93 0.930 . S
H114 C94 0.929 . S
H115 C96 0.930 . S
H116 C98 0.932 . S
H117 C99 0.929 . S
H118 C100 0.928 . S
H119 C102 0.932 . S
C120 C121 1.264 . S
C120 C125 1.479 . S
C120 C130 1.465 . S
C121 C120 1.264 . S
C121 C123 1.339 . S
C121 H148 0.931 . S
C122 C123 1.395 . S
C122 C124 1.320 . S
C123 C121 1.339 . S
C123 C122 1.395 . S
C123 H149 0.929 . S
C124 C122 1.320 . S
C124 C125 1.405 . S
C124 H150 0.930 . S
C125 C120 1.479 . S
C125 C124 1.405 . S
C125 H151 0.931 . S
U126 O127 2.454 . S
U126 O128 2.458 . S
U126 C129 2.984 . S
U126 C130 2.847 . S
U126 C143 2.882 . S
U126 O144 2.441 . S
U126 O145 2.420 . S
U126 O146 2.455 . S
U126 O147 2.449 . S
O127 U126 2.454 . S
O127 C129 1.353 . S
O128 U126 2.458 . S
O128 C129 1.286 . S
C129 U126 2.984 . S
C129 O127 1.353 . S
C129 O128 1.286 . S
C129 C131 1.363 . S
C130 C120 1.465 . S
C130 U126 2.847 . S
C130 O144 1.249 . S
C130 O145 1.202 . S
C131 C129 1.363 . S
C131 C133 1.408 . S
C131 C136 1.342 . S
C132 C133 1.310 . S
C132 C135 1.461 . S
C132 H152 0.932 . S
C133 C131 1.408 . S
C133 C132 1.310 . S
C133 H153 0.930 . S
C134 C135 1.474 . S
C134 C136 1.285 . S
C134 H154 0.929 . S
C135 C132 1.461 . S
C135 C134 1.474 . S
C136 C131 1.342 . S
C136 C134 1.285 . S
C136 H155 0.930 . S
C137 C140 1.424 . S
C137 C142 1.245 . S
C137 C143 1.428 . S
C138 C141 1.260 . S
C138 C142 1.477 . S
C138 H156 0.932 . S
C139 C140 1.384 . S
C139 C141 1.479 . S
C139 H157 0.929 . S
C140 C137 1.424 . S
C140 C139 1.384 . S
C140 H158 0.928 . S
C141 C138 1.260 . S
C141 C139 1.479 . S
C142 C137 1.245 . S
C142 C138 1.477 . S
C142 H159 0.932 . S
C143 U126 2.882 . S
C143 C137 1.428 . S
C143 O146 1.301 . S
C143 O147 1.282 . S
O144 U126 2.441 . S
O144 C130 1.249 . S
O145 U126 2.420 . S
O145 C130 1.202 . S
O146 U126 2.455 . S
O146 C143 1.301 . S
O147 U126 2.449 . S
O147 C143 1.282 . S
H148 C121 0.931 . S
H149 C123 0.929 . S
H150 C124 0.930 . S
H151 C125 0.931 . S
H152 C132 0.932 . S
H153 C133 0.930 . S
H154 C134 0.929 . S
H155 C136 0.930 . S
H156 C138 0.932 . S
H157 C139 0.929 . S
H158 C140 0.928 . S
H159 C142 0.932 . S
C160 C161 1.264 . S
C160 C165 1.479 . S
C160 C170 1.465 . S
C161 C160 1.264 . S
C161 C163 1.339 . S
C161 H188 0.931 . S
C162 C163 1.395 . S
C162 C164 1.320 . S
C163 C161 1.339 . S
C163 C162 1.395 . S
C163 H189 0.929 . S
C164 C162 1.320 . S
C164 C165 1.405 . S
C164 H190 0.930 . S
C165 C160 1.479 . S
C165 C164 1.405 . S
C165 H191 0.931 . S
U166 O167 2.454 . S
U166 O168 2.458 . S
U166 C169 2.984 . S
U166 C170 2.847 . S
U166 C183 2.882 . S
U166 O184 2.441 . S
U166 O185 2.420 . S
U166 O186 2.455 . S
U166 O187 2.449 . S
O167 U166 2.454 . S
O167 C169 1.353 . S
O168 U166 2.458 . S
O168 C169 1.286 . S
C169 U166 2.984 . S
C169 O167 1.353 . S
C169 O168 1.286 . S
C169 C171 1.363 . S
C170 C160 1.465 . S
C170 U166 2.847 . S
C170 O184 1.249 . S
C170 O185 1.202 . S
C171 C169 1.363 . S
C171 C173 1.408 . S
C171 C176 1.342 . S
C172 C173 1.310 . S
C172 C175 1.461 . S
C172 H192 0.932 . S
C173 C171 1.408 . S
C173 C172 1.310 . S
C173 H193 0.930 . S
C174 C175 1.474 . S
C174 C176 1.285 . S
C174 H194 0.929 . S
C175 C172 1.461 . S
C175 C174 1.474 . S
C176 C171 1.342 . S
C176 C174 1.285 . S
C176 H195 0.930 . S
C177 C180 1.424 . S
C177 C182 1.245 . S
C177 C183 1.428 . S
C178 C181 1.260 . S
C178 C182 1.477 . S
C178 H196 0.932 . S
C179 C180 1.384 . S
C179 C181 1.479 . S
C179 H197 0.929 . S
C180 C177 1.424 . S
C180 C179 1.384 . S
C180 H198 0.928 . S
C181 C178 1.260 . S
C181 C179 1.479 . S
C182 C177 1.245 . S
C182 C178 1.477 . S
C182 H199 0.932 . S
C183 U166 2.882 . S
C183 C177 1.428 . S
C183 O186 1.301 . S
C183 O187 1.282 . S
O184 U166 2.441 . S
O184 C170 1.249 . S
O185 U166 2.420 . S
O185 C170 1.202 . S
O186 U166 2.455 . S
O186 C183 1.301 . S
O187 U166 2.449 . S
O187 C183 1.282 . S
H188 C161 0.931 . S
H189 C163 0.929 . S
H190 C164 0.930 . S
H191 C165 0.931 . S
H192 C172 0.932 . S
H193 C173 0.930 . S
H194 C174 0.929 . S
H195 C176 0.930 . S
H196 C178 0.932 . S
H197 C179 0.929 . S
H198 C180 0.928 . S
H199 C182 0.932 . S
C200 C201 1.264 . S
C200 C205 1.479 . S
C200 C210 1.465 . S
C201 C200 1.264 . S
C201 C203 1.339 . S
C201 H228 0.931 . S
C202 C203 1.395 . S
C202 C204 1.320 . S
C203 C201 1.339 . S
C203 C202 1.395 . S
C203 H229 0.929 . S
C204 C202 1.320 . S
C204 C205 1.405 . S
C204 H230 0.930 . S
C205 C200 1.479 . S
C205 C204 1.405 . S
C205 H231 0.931 . S
U206 O207 2.454 . S
U206 O208 2.458 . S
U206 C209 2.984 . S
U206 C210 2.847 . S
U206 C223 2.882 . S
U206 O224 2.441 . S
U206 O225 2.420 . S
U206 O226 2.455 . S
U206 O227 2.449 . S
O207 U206 2.454 . S
O207 C209 1.353 . S
O208 U206 2.458 . S
O208 C209 1.286 . S
C209 U206 2.984 . S
C209 O207 1.353 . S
C209 O208 1.286 . S
C209 C211 1.363 . S
C210 C200 1.465 . S
C210 U206 2.847 . S
C210 O224 1.249 . S
C210 O225 1.202 . S
C211 C209 1.363 . S
C211 C213 1.408 . S
C211 C216 1.342 . S
C212 C213 1.310 . S
C212 C215 1.461 . S
C212 H232 0.932 . S
C213 C211 1.408 . S
C213 C212 1.310 . S
C213 H233 0.930 . S
C214 C215 1.474 . S
C214 C216 1.285 . S
C214 H234 0.929 . S
C215 C212 1.461 . S
C215 C214 1.474 . S
C216 C211 1.342 . S
C216 C214 1.285 . S
C216 H235 0.930 . S
C217 C220 1.424 . S
C217 C222 1.245 . S
C217 C223 1.428 . S
C218 C221 1.260 . S
C218 C222 1.477 . S
C218 H236 0.932 . S
C219 C220 1.384 . S
C219 C221 1.479 . S
C219 H237 0.929 . S
C220 C217 1.424 . S
C220 C219 1.384 . S
C220 H238 0.928 . S
C221 C218 1.260 . S
C221 C219 1.479 . S
C222 C217 1.245 . S
C222 C218 1.477 . S
C222 H239 0.932 . S
C223 U206 2.882 . S
C223 C217 1.428 . S
C223 O226 1.301 . S
C223 O227 1.282 . S
O224 U206 2.441 . S
O224 C210 1.249 . S
O225 U206 2.420 . S
O225 C210 1.202 . S
O226 U206 2.455 . S
O226 C223 1.301 . S
O227 U206 2.449 . S
O227 C223 1.282 . S
H228 C201 0.931 . S
H229 C203 0.929 . S
H230 C204 0.930 . S
H231 C205 0.931 . S
H232 C212 0.932 . S
H233 C213 0.930 . S
H234 C214 0.929 . S
H235 C216 0.930 . S
H236 C218 0.932 . S
H237 C219 0.929 . S
H238 C220 0.928 . S
H239 C222 0.932 . S
C240 C241 1.264 . S
C240 C245 1.479 . S
C240 C250 1.465 . S
C241 C240 1.264 . S
C241 C243 1.339 . S
C241 H268 0.931 . S
C242 C243 1.395 . S
C242 C244 1.320 . S
C243 C241 1.339 . S
C243 C242 1.395 . S
C243 H269 0.929 . S
C244 C242 1.320 . S
C244 C245 1.405 . S
C244 H270 0.930 . S
C245 C240 1.479 . S
C245 C244 1.405 . S
C245 H271 0.931 . S
U246 O247 2.454 . S
U246 O248 2.458 . S
U246 C249 2.984 . S
U246 C250 2.847 . S
U246 C263 2.882 . S
U246 O264 2.441 . S
U246 O265 2.420 . S
U246 O266 2.455 . S
U246 O267 2.449 . S
O247 U246 2.454 . S
O247 C249 1.353 . S
O248 U246 2.458 . S
O248 C249 1.286 . S
C249 U246 2.984 . S
C249 O247 1.353 . S
C249 O248 1.286 . S
C249 C251 1.363 . S
C250 C240 1.465 . S
C250 U246 2.847 . S
C250 O264 1.249 . S
C250 O265 1.202 . S
C251 C249 1.363 . S
C251 C253 1.408 . S
C251 C256 1.342 . S
C252 C253 1.310 . S
C252 C255 1.461 . S
C252 H272 0.932 . S
C253 C251 1.408 . S
C253 C252 1.310 . S
C253 H273 0.930 . S
C254 C255 1.474 . S
C254 C256 1.285 . S
C254 H274 0.929 . S
C255 C252 1.461 . S
C255 C254 1.474 . S
C256 C251 1.342 . S
C256 C254 1.285 . S
C256 H275 0.930 . S
C257 C260 1.424 . S
C257 C262 1.245 . S
C257 C263 1.428 . S
C258 C261 1.260 . S
C258 C262 1.477 . S
C258 H276 0.932 . S
C259 C260 1.384 . S
C259 C261 1.479 . S
C259 H277 0.929 . S
C260 C257 1.424 . S
C260 C259 1.384 . S
C260 H278 0.928 . S
C261 C258 1.260 . S
C261 C259 1.479 . S
C262 C257 1.245 . S
C262 C258 1.477 . S
C262 H279 0.932 . S
C263 U246 2.882 . S
C263 C257 1.428 . S
C263 O266 1.301 . S
C263 O267 1.282 . S
O264 U246 2.441 . S
O264 C250 1.249 . S
O265 U246 2.420 . S
O265 C250 1.202 . S
O266 U246 2.455 . S
O266 C263 1.301 . S
O267 U246 2.449 . S
O267 C263 1.282 . S
H268 C241 0.931 . S
H269 C243 0.929 . S
H270 C244 0.930 . S
H271 C245 0.931 . S
H272 C252 0.932 . S
H273 C253 0.930 . S
H274 C254 0.929 . S
H275 C256 0.930 . S
H276 C258 0.932 . S
H277 C259 0.929 . S
H278 C260 0.928 . S
H279 C262 0.932 . S
C280 C281 1.264 . S
C280 C285 1.479 . S
C280 C290 1.465 . S
C281 C280 1.264 . S
C281 C283 1.339 . S
C281 H308 0.931 . S
C282 C283 1.395 . S
C282 C284 1.320 . S
C283 C281 1.339 . S
C283 C282 1.395 . S
C283 H309 0.929 . S
C284 C282 1.320 . S
C284 C285 1.405 . S
C284 H310 0.930 . S
C285 C280 1.479 . S
C285 C284 1.405 . S
C285 H311 0.931 . S
U286 O287 2.454 . S
U286 O288 2.458 . S
U286 C289 2.984 . S
U286 C290 2.847 . S
U286 C303 2.882 . S
U286 O304 2.441 . S
U286 O305 2.420 . S
U286 O306 2.455 . S
U286 O307 2.449 . S
O287 U286 2.454 . S
O287 C289 1.353 . S
O288 U286 2.458 . S
O288 C289 1.286 . S
C289 U286 2.984 . S
C289 O287 1.353 . S
C289 O288 1.286 . S
C289 C291 1.363 . S
C290 C280 1.465 . S
C290 U286 2.847 . S
C290 O304 1.249 . S
C290 O305 1.202 . S
C291 C289 1.363 . S
C291 C293 1.408 . S
C291 C296 1.342 . S
C292 C293 1.310 . S
C292 C295 1.461 . S
C292 H312 0.932 . S
C293 C291 1.408 . S
C293 C292 1.310 . S
C293 H313 0.930 . S
C294 C295 1.474 . S
C294 C296 1.285 . S
C294 H314 0.929 . S
C295 C292 1.461 . S
C295 C294 1.474 . S
C296 C291 1.342 . S
C296 C294 1.285 . S
C296 H315 0.930 . S
C297 C300 1.424 . S
C297 C302 1.245 . S
C297 C303 1.428 . S
C298 C301 1.260 . S
C298 C302 1.477 . S
C298 H316 0.932 . S
C299 C300 1.384 . S
C299 C301 1.479 . S
C299 H317 0.929 . S
C300 C297 1.424 . S
C300 C299 1.384 . S
C300 H318 0.928 . S
C301 C298 1.260 . S
C301 C299 1.479 . S
C302 C297 1.245 . S
C302 C298 1.477 . S
C302 H319 0.932 . S
C303 U286 2.882 . S
C303 C297 1.428 . S
C303 O306 1.301 . S
C303 O307 1.282 . S
O304 U286 2.441 . S
O304 C290 1.249 . S
O305 U286 2.420 . S
O305 C290 1.202 . S
O306 U286 2.455 . S
O306 C303 1.301 . S
O307 U286 2.449 . S
O307 C303 1.282 . S
H308 C281 0.931 . S
H309 C283 0.929 . S
H310 C284 0.930 . S
H311 C285 0.931 . S
H312 C292 0.932 . S
H313 C293 0.930 . S
H314 C294 0.929 . S
H315 C296 0.930 . S
H316 C298 0.932 . S
H317 C299 0.929 . S
H318 C300 0.928 . S
H319 C302 0.932 . S
C320 C321 1.560 . S
C320 H381 0.959 . S
C320 H382 0.959 . S
C320 H383 0.960 . S
C321 C320 1.560 . S
C321 O376 1.426 . S
C321 H380 0.980 . S
C322 C323 1.407 . S
C322 C327 1.418 . S
C322 O376 1.334 . S
C323 C322 1.407 . S
C323 C324 1.360 . S
C323 H384 0.929 . S
C324 C323 1.360 . S
C324 C325 1.401 . S
C324 C328 1.527 . S
C325 C324 1.401 . S
C325 C326 1.405 . S
C325 C358 1.587 . S
C326 C325 1.405 . S
C326 C327 1.332 . S
C326 C329 1.496 . S
C327 C322 1.418 . S
C327 C326 1.332 . S
C327 H385 0.929 . S
C328 C324 1.527 . S
C328 H386 0.959 . S
C328 H387 0.961 . S
C328 H388 0.961 . S
C329 C326 1.496 . S
C329 H389 0.960 . S
C329 H390 0.960 1_655 S
C329 H391 0.961 . S
C330 C331 1.517 . S
C330 H393 0.961 . S
C330 H394 0.960 . S
C330 H395 0.959 . S
C331 C330 1.517 . S
C331 O379 1.468 . S
C331 H392 0.980 . S
C332 C333 1.349 . S
C332 C337 1.367 . S
C332 O379 1.408 . S
C333 C332 1.349 . S
C333 C334 1.407 . S
C333 H396 0.930 . S
C334 C333 1.407 . S
C334 C335 1.449 . S
C334 C338 1.535 . S
C335 C334 1.449 . S
C335 C336 1.384 . S
C335 C360 1.553 . S
C336 C335 1.384 . S
C336 C337 1.364 . S
C336 C339 1.450 . S
C337 C332 1.367 . S
C337 C336 1.364 . S
C337 H397 0.931 . S
C338 C334 1.535 . S
C338 H398 0.959 . S
C338 H399 0.961 . S
C338 H400 0.959 . S
C339 C336 1.450 . S
C339 H401 0.960 . S
C339 H402 0.960 . S
C339 H403 0.960 . S
C340 C341 1.309 . S
C340 C345 1.304 . S
C340 O378 1.435 . S
C341 C340 1.309 . S
C341 C342 1.476 . S
C341 H405 0.930 . S
C342 C341 1.476 . S
C342 C343 1.400 . S
C342 C346 1.567 . S
C343 C342 1.400 . S
C343 C344 1.373 . S
C343 C365 1.432 . S
C344 C343 1.373 . S
C344 C345 1.339 . S
C344 C347 1.530 . S
C345 C340 1.304 . S
C345 C344 1.339 . S
C345 H406 0.930 . S
C346 C342 1.567 . S
C346 H407 0.961 . S
C346 H408 0.960 . S
C346 H409 0.958 . S
C347 C344 1.530 . S
C347 H410 0.961 . S
C347 H411 0.960 . S
C347 H412 0.960 . S
C348 C349 1.530 . S
C348 H414 0.961 . S
C348 H415 0.961 . S
C348 H416 0.959 . S
C349 C348 1.530 . S
C349 O377 1.412 . S
C349 H413 0.980 . S
C350 C351 1.288 . S
C350 C355 1.377 . S
C350 O377 1.393 . S
C351 C350 1.288 . S
C351 C352 1.369 . S
C351 H417 0.932 . S
C352 C351 1.369 . S
C352 C353 1.398 . S
C352 C356 1.527 . S
C353 C352 1.398 . S
C353 C354 1.380 . S
C353 C367 1.497 . S
C354 C353 1.380 . S
C354 C355 1.383 . S
C354 C357 1.603 . S
C355 C350 1.377 . S
C355 C354 1.383 . S
C355 H418 0.929 . S
C356 C352 1.527 . S
C356 H419 0.961 . S
C356 H420 0.997 . S
C356 H421 0.959 . S
C357 C354 1.603 . S
C357 H422 0.960 . S
C357 H423 0.962 . S
C357 H424 0.961 . S
C358 C325 1.587 . S
C358 C359 1.360 1_655 S
C358 C371 1.412 . S
C359 C358 1.360 1_455 S
C359 C360 1.365 . S
C359 H425 0.929 . S
C360 C335 1.553 . S
C360 C359 1.365 . S
C360 C361 1.404 . S
C361 C360 1.404 . S
C361 C362 1.395 . S
C361 C372 1.451 . S
C362 C361 1.395 . S
C362 C363 1.322 . S
C362 H426 0.930 . S
C363 C362 1.322 . S
C363 C364 1.459 . S
C363 H427 0.929 . S
C364 C363 1.459 . S
C364 C365 1.445 . S
C364 C373 1.395 . S
C365 C343 1.432 . S
C365 C364 1.445 . S
C365 C366 1.370 . S
C366 C365 1.370 . S
C366 C367 1.438 1_455 S
C366 H428 0.930 . S
C367 C353 1.497 . S
C367 C366 1.438 1_655 S
C367 C368 1.360 . S
C368 C367 1.360 . S
C368 C369 1.401 . S
C368 C373 1.446 1_655 S
C369 C368 1.401 . S
C369 C370 1.347 . S
C369 H429 0.929 . S
C370 C369 1.347 . S
C370 C371 1.455 . S
C370 H430 0.930 . S
C371 C358 1.412 . S
C371 C370 1.455 . S
C371 C372 1.331 1_655 S
C372 C361 1.451 . S
C372 C371 1.331 1_455 S
C372 C373 1.497 . S
C373 C364 1.395 . S
C373 C368 1.446 1_455 S
C373 C372 1.497 . S
C374 C375 1.582 . S
C374 H431 0.962 . S
C374 H432 0.959 . S
C374 H433 0.958 . S
C375 C374 1.582 . S
C375 O378 1.458 . S
C375 H404 0.980 . S
O376 C321 1.426 . S
O376 C322 1.334 . S
O377 C349 1.412 . S
O377 C350 1.393 . S
O378 C340 1.435 . S
O378 C375 1.458 . S
O379 C331 1.468 . S
O379 C332 1.408 . S
H380 C321 0.980 . S
H381 C320 0.959 . S
H382 C320 0.959 . S
H383 C320 0.960 . S
H384 C323 0.929 . S
H385 C327 0.929 . S
H386 C328 0.959 . S
H387 C328 0.961 . S
H388 C328 0.961 . S
H389 C329 0.960 . S
H390 C329 0.960 1_455 S
H391 C329 0.961 . S
H392 C331 0.980 . S
H393 C330 0.961 . S
H394 C330 0.960 . S
H395 C330 0.959 . S
H396 C333 0.930 . S
H397 C337 0.931 . S
H398 C338 0.959 . S
H399 C338 0.961 . S
H400 C338 0.959 . S
H401 C339 0.960 . S
H402 C339 0.960 . S
H403 C339 0.960 . S
H404 C375 0.980 . S
H405 C341 0.930 . S
H406 C345 0.930 . S
H407 C346 0.961 . S
H408 C346 0.960 . S
H409 C346 0.958 . S
H410 C347 0.961 . S
H411 C347 0.960 . S
H412 C347 0.960 . S
H413 C349 0.980 . S
H414 C348 0.961 . S
H415 C348 0.961 . S
H416 C348 0.959 . S
H417 C351 0.932 . S
H418 C355 0.929 . S
H419 C356 0.961 . S
H420 C356 0.997 . S
H421 C356 0.959 . S
H422 C357 0.960 . S
H423 C357 0.962 . S
H424 C357 0.961 . S
H425 C359 0.929 . S
H426 C362 0.930 . S
H427 C363 0.929 . S
H428 C366 0.930 . S
H429 C369 0.929 . S
H430 C370 0.930 . S
H431 C374 0.962 . S
H432 C374 0.959 . S
H433 C374 0.958 . S
C434 C435 1.560 . S
C434 H495 0.959 . S
C434 H496 0.959 . S
C434 H497 0.960 . S
C435 C434 1.560 . S
C435 O490 1.426 . S
C435 H494 0.980 . S
C436 C437 1.407 . S
C436 C441 1.418 . S
C436 O490 1.334 . S
C437 C436 1.407 . S
C437 C438 1.360 . S
C437 H498 0.929 . S
C438 C437 1.360 . S
C438 C439 1.401 . S
C438 C442 1.527 . S
C439 C438 1.401 . S
C439 C440 1.405 . S
C439 C472 1.587 . S
C440 C439 1.405 . S
C440 C441 1.332 . S
C440 C443 1.496 . S
C441 C436 1.418 . S
C441 C440 1.332 . S
C441 H499 0.929 . S
C442 C438 1.527 . S
C442 H500 0.959 . S
C442 H501 0.961 . S
C442 H502 0.961 . S
C443 C440 1.496 . S
C443 H503 0.960 . S
C443 H504 0.960 . S
C443 H505 0.961 . S
C444 C445 1.517 . S
C444 H507 0.961 . S
C444 H508 0.960 . S
C444 H509 0.959 . S
C445 C444 1.517 . S
C445 O493 1.468 . S
C445 H506 0.980 . S
C446 C447 1.349 . S
C446 C451 1.367 . S
C446 O493 1.408 . S
C447 C446 1.349 . S
C447 C448 1.407 . S
C447 H510 0.930 . S
C448 C447 1.407 . S
C448 C449 1.449 . S
C448 C452 1.535 . S
C449 C448 1.449 . S
C449 C450 1.384 . S
C449 C474 1.553 . S
C450 C449 1.384 . S
C450 C451 1.364 . S
C450 C453 1.450 . S
C451 C446 1.367 . S
C451 C450 1.364 . S
C451 H511 0.931 . S
C452 C448 1.535 . S
C452 H512 0.959 . S
C452 H513 0.961 . S
C452 H514 0.959 . S
C453 C450 1.450 . S
C453 H515 0.960 . S
C453 H516 0.960 . S
C453 H517 0.960 . S
C454 C455 1.309 . S
C454 C459 1.304 . S
C454 O492 1.435 . S
C455 C454 1.309 . S
C455 C456 1.476 . S
C455 H519 0.930 . S
C456 C455 1.476 . S
C456 C457 1.400 . S
C456 C460 1.567 . S
C457 C456 1.400 . S
C457 C458 1.373 . S
C457 C479 1.432 . S
C458 C457 1.373 . S
C458 C459 1.339 . S
C458 C461 1.530 . S
C459 C454 1.304 . S
C459 C458 1.339 . S
C459 H520 0.930 . S
C460 C456 1.567 . S
C460 H521 0.961 . S
C460 H522 0.960 . S
C460 H523 0.958 . S
C461 C458 1.530 . S
C461 H524 0.961 . S
C461 H525 0.960 . S
C461 H526 0.960 . S
C462 C463 1.530 . S
C462 H528 0.961 . S
C462 H529 0.961 . S
C462 H530 0.959 . S
C463 C462 1.530 . S
C463 O491 1.412 . S
C463 H527 0.980 . S
C464 C465 1.288 . S
C464 C469 1.377 . S
C464 O491 1.393 . S
C465 C464 1.288 . S
C465 C466 1.369 . S
C465 H531 0.932 . S
C466 C465 1.369 . S
C466 C467 1.398 . S
C466 C470 1.527 . S
C467 C466 1.398 . S
C467 C468 1.380 . S
C467 C481 1.497 . S
C468 C467 1.380 . S
C468 C469 1.383 . S
C468 C471 1.603 . S
C469 C464 1.377 . S
C469 C468 1.383 . S
C469 H532 0.929 . S
C470 C466 1.527 . S
C470 H533 0.961 . S
C470 H534 0.959 . S
C470 H535 0.959 . S
C471 C468 1.603 . S
C471 H536 0.960 . S
C471 H537 0.962 . S
C471 H538 0.961 . S
C472 C439 1.587 . S
C472 C473 1.360 . S
C472 C485 1.412 . S
C473 C472 1.360 . S
C473 C474 1.365 1_455 S
C473 H539 0.929 . S
C474 C449 1.553 . S
C474 C473 1.365 1_655 S
C474 C475 1.404 . S
C475 C474 1.404 . S
C475 C476 1.395 . S
C475 C486 1.451 1_655 S
C476 C475 1.395 . S
C476 C477 1.322 . S
C476 H540 0.930 . S
C477 C476 1.322 . S
C477 C478 1.459 . S
C477 H541 0.929 . S
C478 C477 1.459 . S
C478 C479 1.445 . S
C478 C487 1.395 1_655 S
C479 C457 1.432 . S
C479 C478 1.445 . S
C479 C480 1.370 1_655 S
C480 C479 1.370 1_455 S
C480 C481 1.438 . S
C480 H542 0.930 . S
C481 C467 1.497 . S
C481 C480 1.438 . S
C481 C482 1.360 . S
C482 C481 1.360 . S
C482 C483 1.401 . S
C482 C487 1.446 . S
C483 C482 1.401 . S
C483 C484 1.347 . S
C483 H543 0.929 . S
C484 C483 1.347 . S
C484 C485 1.455 . S
C484 H544 0.930 . S
C485 C472 1.412 . S
C485 C484 1.455 . S
C485 C486 1.331 . S
C486 C475 1.451 1_455 S
C486 C485 1.331 . S
C486 C487 1.497 . S
C487 C478 1.395 1_455 S
C487 C482 1.446 . S
C487 C486 1.497 . S
C488 C489 1.582 . S
C488 H545 0.962 . S
C488 H546 0.959 . S
C488 H547 0.958 . S
C489 C488 1.582 . S
C489 O492 1.458 . S
C489 H518 0.980 . S
O490 C435 1.426 . S
O490 C436 1.334 . S
O491 C463 1.412 . S
O491 C464 1.393 . S
O492 C454 1.435 . S
O492 C489 1.458 . S
O493 C445 1.468 . S
O493 C446 1.408 . S
H494 C435 0.980 . S
H495 C434 0.959 . S
H496 C434 0.959 . S
H497 C434 0.960 . S
H498 C437 0.929 . S
H499 C441 0.929 . S
H500 C442 0.959 . S
H501 C442 0.961 . S
H502 C442 0.961 . S
H503 C443 0.960 . S
H504 C443 0.960 . S
H505 C443 0.961 . S
H506 C445 0.980 . S
H507 C444 0.961 . S
H508 C444 0.960 . S
H509 C444 0.959 . S
H510 C447 0.930 . S
H511 C451 0.931 . S
H512 C452 0.959 . S
H513 C452 0.961 . S
H514 C452 0.959 . S
H515 C453 0.960 . S
H516 C453 0.960 . S
H517 C453 0.960 . S
H518 C489 0.980 . S
H519 C455 0.930 . S
H520 C459 0.930 . S
H521 C460 0.961 . S
H522 C460 0.960 . S
H523 C460 0.958 . S
H524 C461 0.961 . S
H525 C461 0.960 . S
H526 C461 0.960 . S
H527 C463 0.980 . S
H528 C462 0.961 . S
H529 C462 0.961 . S
H530 C462 0.959 . S
H531 C465 0.932 . S
H532 C469 0.929 . S
H533 C470 0.961 . S
H534 C470 0.959 . S
H535 C470 0.959 . S
H536 C471 0.960 . S
H537 C471 0.962 . S
H538 C471 0.961 . S
H539 C473 0.929 . S
H540 C476 0.930 . S
H541 C477 0.929 . S
H542 C480 0.930 . S
H543 C483 0.929 . S
H544 C484 0.930 . S
H545 C488 0.962 . S
H546 C488 0.959 . S
H547 C488 0.958 . S
C548 C549 1.560 . S
C548 H609 0.959 . S
C548 H610 0.959 . S
C548 H611 0.960 . S
C549 C548 1.560 . S
C549 O604 1.426 . S
C549 H608 0.980 . S
C550 C551 1.407 . S
C550 C555 1.418 . S
C550 O604 1.334 . S
C551 C550 1.407 . S
C551 C552 1.360 . S
C551 H612 0.929 . S
C552 C551 1.360 . S
C552 C553 1.401 . S
C552 C556 1.527 . S
C553 C552 1.401 . S
C553 C554 1.405 . S
C553 C586 1.587 . S
C554 C553 1.405 . S
C554 C555 1.332 . S
C554 C557 1.496 . S
C555 C550 1.418 . S
C555 C554 1.332 . S
C555 H613 0.929 . S
C556 C552 1.527 . S
C556 H614 0.959 . S
C556 H615 0.961 . S
C556 H616 0.961 . S
C557 C554 1.496 . S
C557 H617 0.960 . S
C557 H618 0.960 . S
C557 H619 0.961 . S
C558 C559 1.517 . S
C558 H621 0.961 . S
C558 H622 0.960 . S
C558 H623 0.959 . S
C559 C558 1.517 . S
C559 O607 1.468 . S
C559 H620 0.980 . S
C560 C561 1.349 . S
C560 C565 1.367 . S
C560 O607 1.408 . S
C561 C560 1.349 . S
C561 C562 1.407 . S
C561 H624 0.930 . S
C562 C561 1.407 . S
C562 C563 1.449 . S
C562 C566 1.535 . S
C563 C562 1.449 . S
C563 C564 1.384 . S
C563 C588 1.553 . S
C564 C563 1.384 . S
C564 C565 1.364 . S
C564 C567 1.450 . S
C565 C560 1.367 . S
C565 C564 1.364 . S
C565 H625 0.931 . S
C566 C562 1.535 . S
C566 H626 0.959 . S
C566 H627 0.961 . S
C566 H628 0.959 . S
C567 C564 1.450 . S
C567 H629 0.960 . S
C567 H630 0.960 . S
C567 H631 0.960 . S
C568 C569 1.309 . S
C568 C573 1.304 . S
C568 O606 1.435 . S
C569 C568 1.309 . S
C569 C570 1.476 . S
C569 H633 0.930 . S
C570 C569 1.476 . S
C570 C571 1.400 . S
C570 C574 1.567 . S
C571 C570 1.400 . S
C571 C572 1.373 . S
C571 C593 1.432 . S
C572 C571 1.373 . S
C572 C573 1.339 . S
C572 C575 1.530 . S
C573 C568 1.304 . S
C573 C572 1.339 . S
C573 H634 0.930 . S
C574 C570 1.567 . S
C574 H635 0.961 . S
C574 H636 0.960 . S
C574 H637 0.958 . S
C575 C572 1.530 . S
C575 H638 0.961 . S
C575 H639 0.960 . S
C575 H640 0.960 . S
C576 C577 1.530 . S
C576 H642 0.961 . S
C576 H643 0.961 . S
C576 H644 0.959 . S
C577 C576 1.530 . S
C577 O605 1.412 . S
C577 H641 0.980 . S
C578 C579 1.288 . S
C578 C583 1.377 . S
C578 O605 1.393 . S
C579 C578 1.288 . S
C579 C580 1.369 . S
C579 H645 0.932 . S
C580 C579 1.369 . S
C580 C581 1.398 . S
C580 C584 1.527 . S
C581 C580 1.398 . S
C581 C582 1.380 . S
C581 C595 1.497 . S
C582 C581 1.380 . S
C582 C583 1.383 . S
C582 C585 1.603 . S
C583 C578 1.377 . S
C583 C582 1.383 . S
C583 H646 0.929 . S
C584 C580 1.527 . S
C584 H647 0.961 . S
C584 H648 0.959 . S
C584 H649 0.959 . S
C585 C582 1.603 . S
C585 H650 0.960 . S
C585 H651 0.962 . S
C585 H652 0.961 . S
C586 C553 1.587 . S
C586 C587 1.360 . S
C586 C599 1.412 . S
C587 C586 1.360 . S
C587 C588 1.365 1_545 S
C587 H653 0.929 . S
C588 C563 1.553 . S
C588 C587 1.365 1_565 S
C588 C589 1.404 . S
C589 C588 1.404 . S
C589 C590 1.395 . S
C589 C600 1.451 1_565 S
C590 C589 1.395 . S
C590 C591 1.322 . S
C590 H654 0.930 . S
C591 C590 1.322 . S
C591 C592 1.459 . S
C591 H655 0.929 . S
C592 C591 1.459 . S
C592 C593 1.445 . S
C592 C601 1.395 1_565 S
C593 C571 1.432 . S
C593 C592 1.445 . S
C593 C594 1.370 1_565 S
C594 C593 1.370 1_545 S
C594 C595 1.438 . S
C594 H656 0.930 . S
C595 C581 1.497 . S
C595 C594 1.438 . S
C595 C596 1.360 . S
C596 C595 1.360 . S
C596 C597 1.401 . S
C596 C601 1.446 . S
C597 C596 1.401 . S
C597 C598 1.347 . S
C597 H657 0.929 . S
C598 C597 1.347 . S
C598 C599 1.455 . S
C598 H658 0.930 . S
C599 C586 1.412 . S
C599 C598 1.455 . S
C599 C600 1.331 . S
C600 C589 1.451 1_545 S
C600 C599 1.331 . S
C600 C601 1.497 . S
C601 C592 1.395 1_545 S
C601 C596 1.446 . S
C601 C600 1.497 . S
C602 C603 1.582 . S
C602 H659 0.962 . S
C602 H660 0.959 . S
C602 H661 0.958 . S
C603 C602 1.582 . S
C603 O606 1.458 . S
C603 H632 0.980 . S
O604 C549 1.426 . S
O604 C550 1.334 . S
O605 C577 1.412 . S
O605 C578 1.393 . S
O606 C568 1.435 . S
O606 C603 1.458 . S
O607 C559 1.468 . S
O607 C560 1.408 . S
H608 C549 0.980 . S
H609 C548 0.959 . S
H610 C548 0.959 . S
H611 C548 0.960 . S
H612 C551 0.929 . S
H613 C555 0.929 . S
H614 C556 0.959 . S
H615 C556 0.961 . S
H616 C556 0.961 . S
H617 C557 0.960 . S
H618 C557 0.960 . S
H619 C557 0.961 . S
H620 C559 0.980 . S
H621 C558 0.961 . S
H622 C558 0.960 . S
H623 C558 0.959 . S
H624 C561 0.930 . S
H625 C565 0.931 . S
H626 C566 0.959 . S
H627 C566 0.961 . S
H628 C566 0.959 . S
H629 C567 0.960 . S
H630 C567 0.960 . S
H631 C567 0.960 . S
H632 C603 0.980 . S
H633 C569 0.930 . S
H634 C573 0.930 . S
H635 C574 0.961 . S
H636 C574 0.960 . S
H637 C574 0.958 . S
H638 C575 0.961 . S
H639 C575 0.960 . S
H640 C575 0.960 . S
H641 C577 0.980 . S
H642 C576 0.961 . S
H643 C576 0.961 . S
H644 C576 0.959 . S
H645 C579 0.932 . S
H646 C583 0.929 . S
H647 C584 0.961 . S
H648 C584 0.959 . S
H649 C584 0.959 . S
H650 C585 0.960 . S
H651 C585 0.962 . S
H652 C585 0.961 . S
H653 C587 0.929 . S
H654 C590 0.930 . S
H655 C591 0.929 . S
H656 C594 0.930 . S
H657 C597 0.929 . S
H658 C598 0.930 . S
H659 C602 0.962 . S
H660 C602 0.959 . S
H661 C602 0.958 . S
C662 C663 1.560 . S
C662 H723 0.959 . S
C662 H724 0.959 . S
C662 H725 0.960 . S
C663 C662 1.560 . S
C663 O718 1.426 . S
C663 H722 0.980 . S
C664 C665 1.407 . S
C664 C669 1.418 . S
C664 O718 1.334 . S
C665 C664 1.407 . S
C665 C666 1.360 . S
C665 H726 0.929 . S
C666 C665 1.360 . S
C666 C667 1.401 . S
C666 C670 1.527 . S
C667 C666 1.401 . S
C667 C668 1.405 . S
C667 C700 1.587 . S
C668 C667 1.405 . S
C668 C669 1.332 . S
C668 C671 1.496 . S
C669 C664 1.418 . S
C669 C668 1.332 . S
C669 H727 0.929 . S
C670 C666 1.527 . S
C670 H728 0.959 . S
C670 H729 0.961 . S
C670 H730 0.961 . S
C671 C668 1.496 . S
C671 H731 0.960 . S
C671 H732 0.960 . S
C671 H733 0.961 . S
C672 C673 1.517 . S
C672 H735 0.961 . S
C672 H736 0.960 . S
C672 H737 0.959 . S
C673 C672 1.517 . S
C673 O721 1.468 . S
C673 H734 0.980 . S
C674 C675 1.349 . S
C674 C679 1.367 . S
C674 O721 1.408 . S
C675 C674 1.349 . S
C675 C676 1.407 . S
C675 H738 0.930 . S
C676 C675 1.407 . S
C676 C677 1.449 . S
C676 C680 1.535 . S
C677 C676 1.449 . S
C677 C678 1.384 . S
C677 C702 1.553 . S
C678 C677 1.384 . S
C678 C679 1.364 . S
C678 C681 1.450 . S
C679 C674 1.367 . S
C679 C678 1.364 . S
C679 H739 0.931 . S
C680 C676 1.535 . S
C680 H740 0.959 . S
C680 H741 0.961 . S
C680 H742 0.959 . S
C681 C678 1.450 . S
C681 H743 0.960 . S
C681 H744 0.960 . S
C681 H745 0.960 . S
C682 C683 1.309 . S
C682 C687 1.304 . S
C682 O720 1.435 . S
C683 C682 1.309 . S
C683 C684 1.476 . S
C683 H747 0.930 . S
C684 C683 1.476 . S
C684 C685 1.400 . S
C684 C688 1.567 . S
C685 C684 1.400 . S
C685 C686 1.373 . S
C685 C707 1.432 . S
C686 C685 1.373 . S
C686 C687 1.339 . S
C686 C689 1.530 . S
C687 C682 1.304 . S
C687 C686 1.339 . S
C687 H748 0.930 . S
C688 C684 1.567 . S
C688 H749 0.961 . S
C688 H750 0.960 . S
C688 H751 0.958 . S
C689 C686 1.530 . S
C689 H752 0.961 . S
C689 H753 0.960 . S
C689 H754 0.960 . S
C690 C691 1.530 . S
C690 H756 0.961 . S
C690 H757 0.961 . S
C690 H758 0.959 . S
C691 C690 1.530 . S
C691 O719 1.412 . S
C691 H755 0.980 . S
C692 C693 1.288 . S
C692 C697 1.377 . S
C692 O719 1.393 . S
C693 C692 1.288 . S
C693 C694 1.369 . S
C693 H759 0.932 . S
C694 C693 1.369 . S
C694 C695 1.398 . S
C694 C698 1.527 . S
C695 C694 1.398 . S
C695 C696 1.380 . S
C695 C709 1.497 . S
C696 C695 1.380 . S
C696 C697 1.383 . S
C696 C699 1.603 . S
C697 C692 1.377 . S
C697 C696 1.383 . S
C697 H760 0.929 . S
C698 C694 1.527 . S
C698 H761 0.961 . S
C698 H762 0.959 . S
C698 H763 0.959 . S
C699 C696 1.603 . S
C699 H764 0.960 . S
C699 H765 0.962 . S
C699 H766 0.961 . S
C700 C667 1.587 . S
C700 C701 1.360 . S
C700 C713 1.412 . S
C701 C700 1.360 . S
C701 C702 1.365 . S
C701 H767 0.929 . S
C702 C677 1.553 . S
C702 C701 1.365 . S
C702 C703 1.404 . S
C703 C702 1.404 . S
C703 C704 1.395 . S
C703 C714 1.451 . S
C704 C703 1.395 . S
C704 C705 1.321 . S
C704 H768 0.930 . S
C705 C704 1.321 . S
C705 C706 1.459 1_554 S
C705 H769 0.930 1_554 S
C706 C705 1.459 1_556 S
C706 C707 1.445 . S
C706 C715 1.395 . S
C707 C685 1.432 . S
C707 C706 1.445 . S
C707 C708 1.370 . S
C708 C707 1.370 . S
C708 C709 1.438 . S
C708 H770 0.930 . S
C709 C695 1.497 . S
C709 C708 1.438 . S
C709 C710 1.360 . S
C710 C709 1.360 . S
C710 C711 1.401 . S
C710 C715 1.446 . S
C711 C710 1.401 . S
C711 C712 1.347 1_556 S
C711 H771 0.929 . S
C712 C711 1.347 1_554 S
C712 C713 1.455 . S
C712 H772 0.930 . S
C713 C700 1.412 . S
C713 C712 1.455 . S
C713 C714 1.331 . S
C714 C703 1.451 . S
C714 C713 1.331 . S
C714 C715 1.497 1_554 S
C715 C706 1.395 . S
C715 C710 1.446 . S
C715 C714 1.497 1_556 S
C716 C717 1.582 . S
C716 H773 0.962 . S
C716 H774 0.959 . S
C716 H775 0.958 . S
C717 C716 1.582 . S
C717 O720 1.458 . S
C717 H746 0.980 . S
O718 C663 1.426 . S
O718 C664 1.334 . S
O719 C691 1.412 . S
O719 C692 1.393 . S
O720 C682 1.435 . S
O720 C717 1.458 . S
O721 C673 1.468 . S
O721 C674 1.408 . S
H722 C663 0.980 . S
H723 C662 0.959 . S
H724 C662 0.959 . S
H725 C662 0.960 . S
H726 C665 0.929 . S
H727 C669 0.929 . S
H728 C670 0.959 . S
H729 C670 0.961 . S
H730 C670 0.961 . S
H731 C671 0.960 . S
H732 C671 0.960 . S
H733 C671 0.961 . S
H734 C673 0.980 . S
H735 C672 0.961 . S
H736 C672 0.960 . S
H737 C672 0.959 . S
H738 C675 0.930 . S
H739 C679 0.931 . S
H740 C680 0.959 . S
H741 C680 0.961 . S
H742 C680 0.959 . S
H743 C681 0.960 . S
H744 C681 0.960 . S
H745 C681 0.960 . S
H746 C717 0.980 . S
H747 C683 0.930 . S
H748 C687 0.930 . S
H749 C688 0.961 . S
H750 C688 0.960 . S
H751 C688 0.958 . S
H752 C689 0.961 . S
H753 C689 0.960 . S
H754 C689 0.960 . S
H755 C691 0.980 . S
H756 C690 0.961 . S
H757 C690 0.961 . S
H758 C690 0.959 . S
H759 C693 0.932 . S
H760 C697 0.929 . S
H761 C698 0.961 . S
H762 C698 0.959 . S
H763 C698 0.959 . S
H764 C699 0.960 . S
H765 C699 0.962 . S
H766 C699 0.961 . S
H767 C701 0.929 . S
H768 C704 0.930 . S
H769 C705 0.930 1_556 S
H770 C708 0.930 . S
H771 C711 0.929 . S
H772 C712 0.930 . S
H773 C716 0.962 . S
H774 C716 0.959 . S
H775 C716 0.958 . S
C776 C777 1.560 . S
C776 H837 0.959 . S
C776 H838 0.959 . S
C776 H839 0.960 . S
C777 C776 1.560 . S
C777 O832 1.426 . S
C777 H836 0.980 . S
C778 C779 1.407 . S
C778 C783 1.418 . S
C778 O832 1.334 . S
C779 C778 1.407 . S
C779 C780 1.360 . S
C779 H840 0.929 . S
C780 C779 1.360 . S
C780 C781 1.401 . S
C780 C784 1.527 . S
C781 C780 1.401 . S
C781 C782 1.405 . S
C781 C814 1.587 . S
C782 C781 1.405 . S
C782 C783 1.332 . S
C782 C785 1.496 . S
C783 C778 1.418 . S
C783 C782 1.332 . S
C783 H841 0.929 . S
C784 C780 1.527 . S
C784 H842 0.959 . S
C784 H843 0.961 . S
C784 H844 0.961 . S
C785 C782 1.496 . S
C785 H845 0.960 . S
C785 H846 0.960 . S
C785 H847 0.961 . S
C786 C787 1.517 . S
C786 H849 0.961 . S
C786 H850 0.960 . S
C786 H851 0.959 . S
C787 C786 1.517 . S
C787 O835 1.468 . S
C787 H848 0.980 . S
C788 C789 1.349 . S
C788 C793 1.367 . S
C788 O835 1.408 . S
C789 C788 1.349 . S
C789 C790 1.407 . S
C789 H852 0.930 . S
C790 C789 1.407 . S
C790 C791 1.449 . S
C790 C794 1.535 . S
C791 C790 1.449 . S
C791 C792 1.384 . S
C791 C816 1.553 . S
C792 C791 1.384 . S
C792 C793 1.364 . S
C792 C795 1.450 . S
C793 C788 1.367 . S
C793 C792 1.364 . S
C793 H853 0.931 . S
C794 C790 1.535 . S
C794 H854 0.959 . S
C794 H855 0.961 . S
C794 H856 0.959 . S
C795 C792 1.450 . S
C795 H857 0.960 . S
C795 H858 0.960 . S
C795 H859 0.960 . S
C796 C797 1.309 . S
C796 C801 1.304 . S
C796 O834 1.435 . S
C797 C796 1.309 . S
C797 C798 1.476 . S
C797 H861 0.930 . S
C798 C797 1.476 . S
C798 C799 1.400 . S
C798 C802 1.567 . S
C799 C798 1.400 . S
C799 C800 1.373 . S
C799 C821 1.432 . S
C800 C799 1.373 . S
C800 C801 1.339 . S
C800 C803 1.530 . S
C801 C796 1.304 . S
C801 C800 1.339 . S
C801 H862 0.930 . S
C802 C798 1.567 . S
C802 H863 0.961 . S
C802 H864 0.960 . S
C802 H865 0.958 . S
C803 C800 1.530 . S
C803 H866 0.961 . S
C803 H867 0.960 . S
C803 H868 0.960 . S
C804 C805 1.530 . S
C804 H870 0.961 . S
C804 H871 0.961 . S
C804 H872 0.959 . S
C805 C804 1.530 . S
C805 O833 1.412 . S
C805 H869 0.980 . S
C806 C807 1.288 . S
C806 C811 1.377 . S
C806 O833 1.393 . S
C807 C806 1.288 . S
C807 C808 1.369 . S
C807 H873 0.932 . S
C808 C807 1.369 . S
C808 C809 1.398 . S
C808 C812 1.527 . S
C809 C808 1.398 . S
C809 C810 1.380 . S
C809 C823 1.497 . S
C810 C809 1.380 . S
C810 C811 1.383 . S
C810 C813 1.603 . S
C811 C806 1.377 . S
C811 C810 1.383 . S
C811 H874 0.929 . S
C812 C808 1.527 . S
C812 H875 0.961 . S
C812 H876 0.959 . S
C812 H877 0.959 . S
C813 C810 1.603 . S
C813 H878 0.960 . S
C813 H879 0.962 . S
C813 H880 0.961 . S
C814 C781 1.587 . S
C814 C815 1.360 . S
C814 C827 1.412 . S
C815 C814 1.360 . S
C815 C816 1.365 1_545 S
C815 H881 0.929 . S
C816 C791 1.553 . S
C816 C815 1.365 1_565 S
C816 C817 1.404 . S
C817 C816 1.404 . S
C817 C818 1.395 . S
C817 C828 1.451 1_565 S
C818 C817 1.395 . S
C818 C819 1.322 . S
C818 H882 0.930 . S
C819 C818 1.322 . S
C819 C820 1.459 . S
C819 H883 0.929 . S
C820 C819 1.459 . S
C820 C821 1.445 . S
C820 C829 1.395 1_565 S
C821 C799 1.432 . S
C821 C820 1.445 . S
C821 C822 1.370 1_565 S
C822 C821 1.370 1_545 S
C822 C823 1.438 . S
C822 H884 0.930 . S
C823 C809 1.497 . S
C823 C822 1.438 . S
C823 C824 1.360 . S
C824 C823 1.360 . S
C824 C825 1.401 . S
C824 C829 1.446 . S
C825 C824 1.401 . S
C825 C826 1.347 . S
C825 H885 0.929 . S
C826 C825 1.347 . S
C826 C827 1.455 . S
C826 H886 0.930 . S
C827 C814 1.412 . S
C827 C826 1.455 . S
C827 C828 1.331 . S
C828 C817 1.451 1_545 S
C828 C827 1.331 . S
C828 C829 1.497 . S
C829 C820 1.395 1_545 S
C829 C824 1.446 . S
C829 C828 1.497 . S
C830 C831 1.582 . S
C830 H887 0.962 . S
C830 H888 0.959 . S
C830 H889 0.958 . S
C831 C830 1.582 . S
C831 O834 1.458 . S
C831 H860 0.980 . S
O832 C777 1.426 . S
O832 C778 1.334 . S
O833 C805 1.412 . S
O833 C806 1.393 . S
O834 C796 1.435 . S
O834 C831 1.458 . S
O835 C787 1.468 . S
O835 C788 1.408 . S
H836 C777 0.980 . S
H837 C776 0.959 . S
H838 C776 0.959 . S
H839 C776 0.960 . S
H840 C779 0.929 . S
H841 C783 0.929 . S
H842 C784 0.959 . S
H843 C784 0.961 . S
H844 C784 0.961 . S
H845 C785 0.960 . S
H846 C785 0.960 . S
H847 C785 0.961 . S
H848 C787 0.980 . S
H849 C786 0.961 . S
H850 C786 0.960 . S
H851 C786 0.959 . S
H852 C789 0.930 . S
H853 C793 0.931 . S
H854 C794 0.959 . S
H855 C794 0.961 . S
H856 C794 0.959 . S
H857 C795 0.960 . S
H858 C795 0.960 . S
H859 C795 0.960 . S
H860 C831 0.980 . S
H861 C797 0.930 . S
H862 C801 0.930 . S
H863 C802 0.961 . S
H864 C802 0.960 . S
H865 C802 0.958 . S
H866 C803 0.961 . S
H867 C803 0.960 . S
H868 C803 0.960 . S
H869 C805 0.980 . S
H870 C804 0.961 . S
H871 C804 0.961 . S
H872 C804 0.959 . S
H873 C807 0.932 . S
H874 C811 0.929 . S
H875 C812 0.961 . S
H876 C812 0.959 . S
H877 C812 0.959 . S
H878 C813 0.960 . S
H879 C813 0.962 . S
H880 C813 0.961 . S
H881 C815 0.929 . S
H882 C818 0.930 . S
H883 C819 0.929 . S
H884 C822 0.930 . S
H885 C825 0.929 . S
H886 C826 0.930 . S
H887 C830 0.962 . S
H888 C830 0.959 . S
H889 C830 0.958 . S
C890 C891 1.560 . S
C890 H951 0.959 . S
C890 H952 0.959 . S
C890 H953 0.960 . S
C891 C890 1.560 . S
C891 O946 1.426 . S
C891 H950 0.980 . S
C892 C893 1.407 . S
C892 C897 1.418 . S
C892 O946 1.334 . S
C893 C892 1.407 . S
C893 C894 1.360 . S
C893 H954 0.929 . S
C894 C893 1.360 . S
C894 C895 1.401 . S
C894 C898 1.527 . S
C895 C894 1.401 . S
C895 C896 1.405 . S
C895 C928 1.587 . S
C896 C895 1.405 . S
C896 C897 1.332 . S
C896 C899 1.496 . S
C897 C892 1.418 . S
C897 C896 1.332 . S
C897 H955 0.929 . S
C898 C894 1.527 . S
C898 H956 0.959 . S
C898 H957 0.961 . S
C898 H958 0.961 . S
C899 C896 1.496 . S
C899 H959 0.960 . S
C899 H960 0.960 . S
C899 H961 0.961 . S
C900 C901 1.517 . S
C900 H963 0.961 . S
C900 H964 0.960 . S
C900 H965 0.959 . S
C901 C900 1.517 . S
C901 O949 1.468 . S
C901 H962 0.980 . S
C902 C903 1.349 . S
C902 C907 1.367 . S
C902 O949 1.408 . S
C903 C902 1.349 . S
C903 C904 1.407 . S
C903 H966 0.930 . S
C904 C903 1.407 . S
C904 C905 1.449 . S
C904 C908 1.535 . S
C905 C904 1.449 . S
C905 C906 1.384 . S
C905 C930 1.553 . S
C906 C905 1.384 . S
C906 C907 1.364 . S
C906 C909 1.450 . S
C907 C902 1.367 . S
C907 C906 1.364 . S
C907 H967 0.931 . S
C908 C904 1.535 . S
C908 H968 0.959 . S
C908 H969 0.961 . S
C908 H970 0.959 . S
C909 C906 1.450 . S
C909 H971 0.960 . S
C909 H972 0.960 . S
C909 H973 0.960 . S
C910 C911 1.309 . S
C910 C915 1.304 . S
C910 O948 1.435 . S
C911 C910 1.309 . S
C911 C912 1.476 . S
C911 H975 0.930 . S
C912 C911 1.476 . S
C912 C913 1.400 . S
C912 C916 1.567 . S
C913 C912 1.400 . S
C913 C914 1.373 . S
C913 C935 1.432 . S
C914 C913 1.373 . S
C914 C915 1.339 . S
C914 C917 1.530 . S
C915 C910 1.304 . S
C915 C914 1.339 . S
C915 H976 0.930 . S
C916 C912 1.567 . S
C916 H977 0.961 . S
C916 H978 0.960 . S
C916 H979 0.958 . S
C917 C914 1.530 . S
C917 H980 0.961 . S
C917 H981 0.960 . S
C917 H982 0.960 . S
C918 C919 1.530 . S
C918 H984 0.961 . S
C918 H985 0.961 . S
C918 H986 0.959 . S
C919 C918 1.530 . S
C919 O947 1.412 . S
C919 H983 0.980 . S
C920 C921 1.288 . S
C920 C925 1.377 . S
C920 O947 1.393 . S
C921 C920 1.288 . S
C921 C922 1.369 . S
C921 H987 0.932 . S
C922 C921 1.369 . S
C922 C923 1.398 . S
C922 C926 1.527 . S
C923 C922 1.398 . S
C923 C924 1.380 . S
C923 C937 1.497 . S
C924 C923 1.380 . S
C924 C925 1.383 . S
C924 C927 1.603 . S
C925 C920 1.377 . S
C925 C924 1.383 . S
C925 H988 0.929 . S
C926 C922 1.527 . S
C926 H989 0.961 . S
C926 H990 0.959 . S
C926 H991 0.959 . S
C927 C924 1.603 . S
C927 H992 0.960 . S
C927 H993 0.962 . S
C927 H994 0.961 . S
C928 C895 1.587 . S
C928 C929 1.360 . S
C928 C941 1.412 . S
C929 C928 1.360 . S
C929 C930 1.365 . S
C929 H995 0.929 . S
C930 C905 1.553 . S
C930 C929 1.365 . S
C930 C931 1.404 . S
C931 C930 1.404 . S
C931 C932 1.395 . S
C931 C942 1.451 . S
C932 C931 1.395 . S
C932 C933 1.322 1_554 S
C932 H996 0.930 . S
C933 C932 1.322 1_556 S
C933 C934 1.459 . S
C933 H997 0.929 . S
C934 C933 1.459 . S
C934 C935 1.445 . S
C934 C943 1.395 . S
C935 C913 1.432 . S
C935 C934 1.445 . S
C935 C936 1.370 . S
C936 C935 1.370 . S
C936 C937 1.438 . S
C936 H998 0.930 . S
C937 C923 1.497 . S
C937 C936 1.438 . S
C937 C938 1.360 . S
C938 C937 1.360 . S
C938 C939 1.401 1_556 S
C938 C943 1.446 . S
C939 C938 1.401 1_554 S
C939 C940 1.347 . S
C939 H999 0.929 1_554 S
C940 C939 1.347 . S
C940 C941 1.455 . S
C940 H1000 0.930 . S
C941 C928 1.412 . S
C941 C940 1.455 . S
C941 C942 1.331 . S
C942 C931 1.451 . S
C942 C941 1.331 . S
C942 C943 1.497 1_554 S
C943 C934 1.395 . S
C943 C938 1.446 . S
C943 C942 1.497 1_556 S
C944 C945 1.582 . S
C944 H1001 0.962 . S
C944 H1002 0.959 . S
C944 H1003 0.958 . S
C945 C944 1.582 . S
C945 O948 1.458 . S
C945 H974 0.980 . S
O946 C891 1.426 . S
O946 C892 1.334 . S
O947 C919 1.412 . S
O947 C920 1.393 . S
O948 C910 1.435 . S
O948 C945 1.458 . S
O949 C901 1.468 . S
O949 C902 1.408 . S
H950 C891 0.980 . S
H951 C890 0.959 . S
H952 C890 0.959 . S
H953 C890 0.960 . S
H954 C893 0.929 . S
H955 C897 0.929 . S
H956 C898 0.959 . S
H957 C898 0.961 . S
H958 C898 0.961 . S
H959 C899 0.960 . S
H960 C899 0.960 . S
H961 C899 0.961 . S
H962 C901 0.980 . S
H963 C900 0.961 . S
H964 C900 0.960 . S
H965 C900 0.959 . S
H966 C903 0.930 . S
H967 C907 0.931 . S
H968 C908 0.959 . S
H969 C908 0.961 . S
H970 C908 0.959 . S
H971 C909 0.960 . S
H972 C909 0.960 . S
H973 C909 0.960 . S
H974 C945 0.980 . S
H975 C911 0.930 . S
H976 C915 0.930 . S
H977 C916 0.961 . S
H978 C916 0.960 . S
H979 C916 0.958 . S
H980 C917 0.961 . S
H981 C917 0.960 . S
H982 C917 0.960 . S
H983 C919 0.980 . S
H984 C918 0.961 . S
H985 C918 0.961 . S
H986 C918 0.959 . S
H987 C921 0.932 . S
H988 C925 0.929 . S
H989 C926 0.961 . S
H990 C926 0.959 . S
H991 C926 0.959 . S
H992 C927 0.960 . S
H993 C927 0.962 . S
H994 C927 0.961 . S
H995 C929 0.929 . S
H996 C932 0.930 . S
H997 C933 0.929 . S
H998 C936 0.930 . S
H999 C939 0.929 1_556 S
H1000 C940 0.930 . S
H1001 C944 0.962 . S
H1002 C944 0.959 . S
H1003 C944 0.958 . S
H1004 C1016 0.930 . S
H1005 C1018 0.930 . S
H1006 C1019 0.930 . S
H1007 C1023 0.959 . S
H1008 C1023 0.959 . S
H1009 C1023 0.961 . S
H1010 C1024 0.960 . S
H1011 C1024 0.961 . S
H1012 C1024 0.959 . S
H1013 C1027 0.929 . S
H1014 C1028 0.931 . S
H1015 C1030 0.930 . S
C1016 H1004 0.930 . S
C1016 C1017 1.399 . S
C1016 C1021 1.399 . S
C1017 C1016 1.399 . S
C1017 C1018 1.376 . S
C1018 H1005 0.930 . S
C1018 C1017 1.376 . S
C1018 C1019 1.388 . S
C1019 H1006 0.930 . S
C1019 C1018 1.388 . S
C1019 C1020 1.390 . S
C1020 C1019 1.390 . S
C1020 C1021 1.394 . S
C1020 C1026 1.465 . S
C1021 C1016 1.399 . S
C1021 C1020 1.394 . S
C1021 C1022 1.516 . S
C1022 C1021 1.516 . S
C1022 C1023 1.502 . S
C1022 C1024 1.561 . S
C1022 C1025 1.526 . S
C1023 H1007 0.959 . S
C1023 H1008 0.959 . S
C1023 H1009 0.961 . S
C1023 C1022 1.502 . S
C1024 H1010 0.960 . S
C1024 H1011 0.961 . S
C1024 H1012 0.959 . S
C1024 C1022 1.561 . S
C1025 C1022 1.526 . S
C1025 C1026 1.396 . S
C1025 C1030 1.390 . S
C1026 C1020 1.465 . S
C1026 C1025 1.396 . S
C1026 C1027 1.399 . S
C1027 H1013 0.929 . S
C1027 C1026 1.399 . S
C1027 C1028 1.385 . S
C1028 H1014 0.931 . S
C1028 C1027 1.385 . S
C1028 C1029 1.389 . S
C1029 C1028 1.389 . S
C1029 C1030 1.387 . S
C1030 H1015 0.930 . S
C1030 C1025 1.390 . S
C1030 C1029 1.387 . S
H1031 C1043 0.930 . S
H1032 C1045 0.930 . S
H1033 C1046 0.930 . S
H1034 C1050 0.959 . S
H1035 C1050 0.959 . S
H1036 C1050 0.961 . S
H1037 C1051 0.960 . S
H1038 C1051 0.961 . S
H1039 C1051 0.959 . S
H1040 C1054 0.929 . S
H1041 C1055 0.931 . S
H1042 C1057 0.930 . S
C1043 H1031 0.930 . S
C1043 C1044 1.399 . S
C1043 C1048 1.399 . S
C1044 C1043 1.399 . S
C1044 C1045 1.376 . S
C1045 H1032 0.930 . S
C1045 C1044 1.376 . S
C1045 C1046 1.388 . S
C1046 H1033 0.930 . S
C1046 C1045 1.388 . S
C1046 C1047 1.390 . S
C1047 C1046 1.390 . S
C1047 C1048 1.394 . S
C1047 C1053 1.465 . S
C1048 C1043 1.399 . S
C1048 C1047 1.394 . S
C1048 C1049 1.516 . S
C1049 C1048 1.516 . S
C1049 C1050 1.502 . S
C1049 C1051 1.561 . S
C1049 C1052 1.526 . S
C1050 H1034 0.959 . S
C1050 H1035 0.959 . S
C1050 H1036 0.961 . S
C1050 C1049 1.502 . S
C1051 H1037 0.960 . S
C1051 H1038 0.961 . S
C1051 H1039 0.959 . S
C1051 C1049 1.561 . S
C1052 C1049 1.526 . S
C1052 C1053 1.396 . S
C1052 C1057 1.390 . S
C1053 C1047 1.465 . S
C1053 C1052 1.396 . S
C1053 C1054 1.399 . S
C1054 H1040 0.929 . S
C1054 C1053 1.399 . S
C1054 C1055 1.385 . S
C1055 H1041 0.931 . S
C1055 C1054 1.385 . S
C1055 C1056 1.389 . S
C1056 C1055 1.389 . S
C1056 C1057 1.387 . S
C1057 H1042 0.930 . S
C1057 C1052 1.390 . S
C1057 C1056 1.387 . S
H1058 C1070 0.930 . S
H1059 C1072 0.930 . S
H1060 C1073 0.930 . S
H1061 C1077 0.959 . S
H1062 C1077 0.959 . S
H1063 C1077 0.961 . S
H1064 C1078 0.960 . S
H1065 C1078 0.961 . S
H1066 C1078 0.959 . S
H1067 C1081 0.929 . S
H1068 C1082 0.931 . S
H1069 C1084 0.930 . S
C1070 H1058 0.930 . S
C1070 C1071 1.399 . S
C1070 C1075 1.399 . S
C1071 C1070 1.399 . S
C1071 C1072 1.376 . S
C1072 H1059 0.930 . S
C1072 C1071 1.376 . S
C1072 C1073 1.388 . S
C1073 H1060 0.930 . S
C1073 C1072 1.388 . S
C1073 C1074 1.390 . S
C1074 C1073 1.390 . S
C1074 C1075 1.394 . S
C1074 C1080 1.465 . S
C1075 C1070 1.399 . S
C1075 C1074 1.394 . S
C1075 C1076 1.516 . S
C1076 C1075 1.516 . S
C1076 C1077 1.502 . S
C1076 C1078 1.561 . S
C1076 C1079 1.526 . S
C1077 H1061 0.959 . S
C1077 H1062 0.959 . S
C1077 H1063 0.961 . S
C1077 C1076 1.502 . S
C1078 H1064 0.960 . S
C1078 H1065 0.961 . S
C1078 H1066 0.959 . S
C1078 C1076 1.561 . S
C1079 C1076 1.526 . S
C1079 C1080 1.396 . S
C1079 C1084 1.390 . S
C1080 C1074 1.465 . S
C1080 C1079 1.396 . S
C1080 C1081 1.399 . S
C1081 H1067 0.929 . S
C1081 C1080 1.399 . S
C1081 C1082 1.385 . S
C1082 H1068 0.931 . S
C1082 C1081 1.385 . S
C1082 C1083 1.389 . S
C1083 C1082 1.389 . S
C1083 C1084 1.387 . S
C1084 H1069 0.930 . S
C1084 C1079 1.390 . S
C1084 C1083 1.387 . S
H1085 C1097 0.930 . S
H1086 C1099 0.930 . S
H1087 C1100 0.930 . S
H1088 C1104 0.959 . S
H1089 C1104 0.959 . S
H1090 C1104 0.961 . S
H1091 C1105 0.960 . S
H1092 C1105 0.961 . S
H1093 C1105 0.959 . S
H1094 C1108 0.929 . S
H1095 C1109 0.931 . S
H1096 C1111 0.930 . S
C1097 H1085 0.930 . S
C1097 C1098 1.399 . S
C1097 C1102 1.399 . S
C1098 C1097 1.399 . S
C1098 C1099 1.376 . S
C1099 H1086 0.930 . S
C1099 C1098 1.376 . S
C1099 C1100 1.388 . S
C1100 H1087 0.930 . S
C1100 C1099 1.388 . S
C1100 C1101 1.390 . S
C1101 C1100 1.390 . S
C1101 C1102 1.394 . S
C1101 C1107 1.465 . S
C1102 C1097 1.399 . S
C1102 C1101 1.394 . S
C1102 C1103 1.516 . S
C1103 C1102 1.516 . S
C1103 C1104 1.502 . S
C1103 C1105 1.561 . S
C1103 C1106 1.526 . S
C1104 H1088 0.959 . S
C1104 H1089 0.959 . S
C1104 H1090 0.961 . S
C1104 C1103 1.502 . S
C1105 H1091 0.960 . S
C1105 H1092 0.961 . S
C1105 H1093 0.959 . S
C1105 C1103 1.561 . S
C1106 C1103 1.526 . S
C1106 C1107 1.396 . S
C1106 C1111 1.390 . S
C1107 C1101 1.465 . S
C1107 C1106 1.396 . S
C1107 C1108 1.399 . S
C1108 H1094 0.929 . S
C1108 C1107 1.399 . S
C1108 C1109 1.385 . S
C1109 H1095 0.931 . S
C1109 C1108 1.385 . S
C1109 C1110 1.389 . S
C1110 C1109 1.389 . S
C1110 C1111 1.387 . S
C1111 H1096 0.930 . S
C1111 C1106 1.390 . S
C1111 C1110 1.387 . S
H1112 C1124 0.930 . S
H1113 C1126 0.930 . S
H1114 C1127 0.930 . S
H1115 C1131 0.959 . S
H1116 C1131 0.959 . S
H1117 C1131 0.961 . S
H1118 C1132 0.960 . S
H1119 C1132 0.961 . S
H1120 C1132 0.959 . S
H1121 C1135 0.929 . S
H1122 C1136 0.931 . S
H1123 C1138 0.930 . S
C1124 H1112 0.930 . S
C1124 C1125 1.399 . S
C1124 C1129 1.399 . S
C1125 C1124 1.399 . S
C1125 C1126 1.376 . S
C1126 H1113 0.930 . S
C1126 C1125 1.376 . S
C1126 C1127 1.388 . S
C1127 H1114 0.930 . S
C1127 C1126 1.388 . S
C1127 C1128 1.390 . S
C1128 C1127 1.390 . S
C1128 C1129 1.394 . S
C1128 C1134 1.465 . S
C1129 C1124 1.399 . S
C1129 C1128 1.394 . S
C1129 C1130 1.516 . S
C1130 C1129 1.516 . S
C1130 C1131 1.502 . S
C1130 C1132 1.561 . S
C1130 C1133 1.526 . S
C1131 H1115 0.959 . S
C1131 H1116 0.959 . S
C1131 H1117 0.961 . S
C1131 C1130 1.502 . S
C1132 H1118 0.960 . S
C1132 H1119 0.961 . S
C1132 H1120 0.959 . S
C1132 C1130 1.561 . S
C1133 C1130 1.526 . S
C1133 C1134 1.396 . S
C1133 C1138 1.390 . S
C1134 C1128 1.465 . S
C1134 C1133 1.396 . S
C1134 C1135 1.399 . S
C1135 H1121 0.929 . S
C1135 C1134 1.399 . S
C1135 C1136 1.385 . S
C1136 H1122 0.931 . S
C1136 C1135 1.385 . S
C1136 C1137 1.389 . S
C1137 C1136 1.389 . S
C1137 C1138 1.387 . S
C1138 H1123 0.930 . S
C1138 C1133 1.390 . S
C1138 C1137 1.387 . S
H1139 C1151 0.930 . S
H1140 C1153 0.930 . S
H1141 C1154 0.930 . S
H1142 C1158 0.959 . S
H1143 C1158 0.959 . S
H1144 C1158 0.961 . S
H1145 C1159 0.960 . S
H1146 C1159 0.961 . S
H1147 C1159 0.959 . S
H1148 C1162 0.929 . S
H1149 C1163 0.931 . S
H1150 C1165 0.930 . S
C1151 H1139 0.930 . S
C1151 C1152 1.399 . S
C1151 C1156 1.399 . S
C1152 C1151 1.399 . S
C1152 C1153 1.376 . S
C1153 H1140 0.930 . S
C1153 C1152 1.376 . S
C1153 C1154 1.388 . S
C1154 H1141 0.930 . S
C1154 C1153 1.388 . S
C1154 C1155 1.390 . S
C1155 C1154 1.390 . S
C1155 C1156 1.394 . S
C1155 C1161 1.465 . S
C1156 C1151 1.399 . S
C1156 C1155 1.394 . S
C1156 C1157 1.516 . S
C1157 C1156 1.516 . S
C1157 C1158 1.502 . S
C1157 C1159 1.561 . S
C1157 C1160 1.526 . S
C1158 H1142 0.959 . S
C1158 H1143 0.959 . S
C1158 H1144 0.961 . S
C1158 C1157 1.502 . S
C1159 H1145 0.960 . S
C1159 H1146 0.961 . S
C1159 H1147 0.959 . S
C1159 C1157 1.561 . S
C1160 C1157 1.526 . S
C1160 C1161 1.396 . S
C1160 C1165 1.390 . S
C1161 C1155 1.465 . S
C1161 C1160 1.396 . S
C1161 C1162 1.399 . S
C1162 H1148 0.929 . S
C1162 C1161 1.399 . S
C1162 C1163 1.385 . S
C1163 H1149 0.931 . S
C1163 C1162 1.385 . S
C1163 C1164 1.389 . S
C1164 C1163 1.389 . S
C1164 C1165 1.387 . S
C1165 H1150 0.930 . S
C1165 C1160 1.390 . S
C1165 C1164 1.387 . S
H1166 C1178 0.930 . S
H1167 C1180 0.930 . S
H1168 C1181 0.930 . S
H1169 C1185 0.959 . S
H1170 C1185 0.959 . S
H1171 C1185 0.961 . S
H1172 C1186 0.960 . S
H1173 C1186 0.961 . S
H1174 C1186 0.959 . S
H1175 C1189 0.929 . S
H1176 C1190 0.931 . S
H1177 C1192 0.930 . S
C1178 H1166 0.930 . S
C1178 C1179 1.399 . S
C1178 C1183 1.399 . S
C1179 C1178 1.399 . S
C1179 C1180 1.376 . S
C1180 H1167 0.930 . S
C1180 C1179 1.376 . S
C1180 C1181 1.388 . S
C1181 H1168 0.930 . S
C1181 C1180 1.388 . S
C1181 C1182 1.390 . S
C1182 C1181 1.390 . S
C1182 C1183 1.394 . S
C1182 C1188 1.465 . S
C1183 C1178 1.399 . S
C1183 C1182 1.394 . S
C1183 C1184 1.516 . S
C1184 C1183 1.516 . S
C1184 C1185 1.502 . S
C1184 C1186 1.561 . S
C1184 C1187 1.526 . S
C1185 H1169 0.959 . S
C1185 H1170 0.959 . S
C1185 H1171 0.961 . S
C1185 C1184 1.502 . S
C1186 H1172 0.960 . S
C1186 H1173 0.961 . S
C1186 H1174 0.959 . S
C1186 C1184 1.561 . S
C1187 C1184 1.526 . S
C1187 C1188 1.396 . S
C1187 C1192 1.390 . S
C1188 C1182 1.465 . S
C1188 C1187 1.396 . S
C1188 C1189 1.399 . S
C1189 H1175 0.929 . S
C1189 C1188 1.399 . S
C1189 C1190 1.385 . S
C1190 H1176 0.931 . S
C1190 C1189 1.385 . S
C1190 C1191 1.389 . S
C1191 C1190 1.389 . S
C1191 C1192 1.387 . S
C1192 H1177 0.930 . S
C1192 C1187 1.390 . S
C1192 C1191 1.387 . S
H1193 C1205 0.930 . S
H1194 C1207 0.930 . S
H1195 C1208 0.930 . S
H1196 C1212 0.959 . S
H1197 C1212 0.959 . S
H1198 C1212 0.961 . S
H1199 C1213 0.960 . S
H1200 C1213 0.961 . S
H1201 C1213 0.959 . S
H1202 C1216 0.929 . S
H1203 C1217 0.931 . S
H1204 C1219 0.930 . S
C1205 H1193 0.930 . S
C1205 C1206 1.399 . S
C1205 C1210 1.399 . S
C1206 C1205 1.399 . S
C1206 C1207 1.376 . S
C1207 H1194 0.930 . S
C1207 C1206 1.376 . S
C1207 C1208 1.388 . S
C1208 H1195 0.930 . S
C1208 C1207 1.388 . S
C1208 C1209 1.390 . S
C1209 C1208 1.390 . S
C1209 C1210 1.394 . S
C1209 C1215 1.465 . S
C1210 C1205 1.399 . S
C1210 C1209 1.394 . S
C1210 C1211 1.516 . S
C1211 C1210 1.516 . S
C1211 C1212 1.502 . S
C1211 C1213 1.561 . S
C1211 C1214 1.526 . S
C1212 H1196 0.959 . S
C1212 H1197 0.959 . S
C1212 H1198 0.961 . S
C1212 C1211 1.502 . S
C1213 H1199 0.960 . S
C1213 H1200 0.961 . S
C1213 H1201 0.959 . S
C1213 C1211 1.561 . S
C1214 C1211 1.526 . S
C1214 C1215 1.396 . S
C1214 C1219 1.390 . S
C1215 C1209 1.465 . S
C1215 C1214 1.396 . S
C1215 C1216 1.399 . S
C1216 H1202 0.929 . S
C1216 C1215 1.399 . S
C1216 C1217 1.385 . S
C1217 H1203 0.931 . S
C1217 C1216 1.385 . S
C1217 C1218 1.389 . S
C1218 C1217 1.389 . S
C1218 C1219 1.387 . S
C1219 H1204 0.930 . S
C1219 C1214 1.390 . S
C1219 C1218 1.387 . S
H1220 C1232 0.930 . S
H1221 C1234 0.930 . S
H1222 C1235 0.930 . S
H1223 C1239 0.959 . S
H1224 C1239 0.959 . S
H1225 C1239 0.961 . S
H1226 C1240 0.960 . S
H1227 C1240 0.961 . S
H1228 C1240 0.959 . S
H1229 C1243 0.929 . S
H1230 C1244 0.931 . S
H1231 C1246 0.930 . S
C1232 H1220 0.930 . S
C1232 C1233 1.399 . S
C1232 C1237 1.399 . S
C1233 C1232 1.399 . S
C1233 C1234 1.376 . S
C1234 H1221 0.930 . S
C1234 C1233 1.376 . S
C1234 C1235 1.388 . S
C1235 H1222 0.930 . S
C1235 C1234 1.388 . S
C1235 C1236 1.390 . S
C1236 C1235 1.390 . S
C1236 C1237 1.394 . S
C1236 C1242 1.465 . S
C1237 C1232 1.399 . S
C1237 C1236 1.394 . S
C1237 C1238 1.516 . S
C1238 C1237 1.516 . S
C1238 C1239 1.502 . S
C1238 C1240 1.561 . S
C1238 C1241 1.526 . S
C1239 H1223 0.959 . S
C1239 H1224 0.959 . S
C1239 H1225 0.961 . S
C1239 C1238 1.502 . S
C1240 H1226 0.960 . S
C1240 H1227 0.961 . S
C1240 H1228 0.959 . S
C1240 C1238 1.561 . S
C1241 C1238 1.526 . S
C1241 C1242 1.396 . S
C1241 C1246 1.390 . S
C1242 C1236 1.465 . S
C1242 C1241 1.396 . S
C1242 C1243 1.399 . S
C1243 H1229 0.929 . S
C1243 C1242 1.399 . S
C1243 C1244 1.385 . S
C1244 H1230 0.931 . S
C1244 C1243 1.385 . S
C1244 C1245 1.389 . S
C1245 C1244 1.389 . S
C1245 C1246 1.387 . S
C1246 H1231 0.930 . S
C1246 C1241 1.390 . S
C1246 C1245 1.387 . S
H1247 C1259 0.930 . S
H1248 C1261 0.930 . S
H1249 C1262 0.930 . S
H1250 C1266 0.959 . S
H1251 C1266 0.959 . S
H1252 C1266 0.961 . S
H1253 C1267 0.960 . S
H1254 C1267 0.961 . S
H1255 C1267 0.959 . S
H1256 C1270 0.929 . S
H1257 C1271 0.931 . S
H1258 C1273 0.930 . S
C1259 H1247 0.930 . S
C1259 C1260 1.399 . S
C1259 C1264 1.399 . S
C1260 C1259 1.399 . S
C1260 C1261 1.376 . S
C1261 H1248 0.930 . S
C1261 C1260 1.376 . S
C1261 C1262 1.388 . S
C1262 H1249 0.930 . S
C1262 C1261 1.388 . S
C1262 C1263 1.390 . S
C1263 C1262 1.390 . S
C1263 C1264 1.394 . S
C1263 C1269 1.465 . S
C1264 C1259 1.399 . S
C1264 C1263 1.394 . S
C1264 C1265 1.516 . S
C1265 C1264 1.516 . S
C1265 C1266 1.502 . S
C1265 C1267 1.561 . S
C1265 C1268 1.526 . S
C1266 H1250 0.959 . S
C1266 H1251 0.959 . S
C1266 H1252 0.961 . S
C1266 C1265 1.502 . S
C1267 H1253 0.960 . S
C1267 H1254 0.961 . S
C1267 H1255 0.959 . S
C1267 C1265 1.561 . S
C1268 C1265 1.526 . S
C1268 C1269 1.396 . S
C1268 C1273 1.390 . S
C1269 C1263 1.465 . S
C1269 C1268 1.396 . S
C1269 C1270 1.399 . S
C1270 H1256 0.929 . S
C1270 C1269 1.399 . S
C1270 C1271 1.385 . S
C1271 H1257 0.931 . S
C1271 C1270 1.385 . S
C1271 C1272 1.389 . S
C1272 C1271 1.389 . S
C1272 C1273 1.387 . S
C1273 H1258 0.930 . S
C1273 C1268 1.390 . S
C1273 C1272 1.387 . S
H1274 C1286 0.930 . S
H1275 C1288 0.930 . S
H1276 C1289 0.930 . S
H1277 C1293 0.959 . S
H1278 C1293 0.959 . S
H1279 C1293 0.961 . S
H1280 C1294 0.960 . S
H1281 C1294 0.961 . S
H1282 C1294 0.959 . S
H1283 C1297 0.929 . S
H1284 C1298 0.931 . S
H1285 C1300 0.930 . S
C1286 H1274 0.930 . S
C1286 C1287 1.399 . S
C1286 C1291 1.399 . S
C1287 C1286 1.399 . S
C1287 C1288 1.376 . S
C1288 H1275 0.930 . S
C1288 C1287 1.376 . S
C1288 C1289 1.388 . S
C1289 H1276 0.930 . S
C1289 C1288 1.388 . S
C1289 C1290 1.390 . S
C1290 C1289 1.390 . S
C1290 C1291 1.394 . S
C1290 C1296 1.465 . S
C1291 C1286 1.399 . S
C1291 C1290 1.394 . S
C1291 C1292 1.516 . S
C1292 C1291 1.516 . S
C1292 C1293 1.502 . S
C1292 C1294 1.561 . S
C1292 C1295 1.526 . S
C1293 H1277 0.959 . S
C1293 H1278 0.959 . S
C1293 H1279 0.961 . S
C1293 C1292 1.502 . S
C1294 H1280 0.960 . S
C1294 H1281 0.961 . S
C1294 H1282 0.959 . S
C1294 C1292 1.561 . S
C1295 C1292 1.526 . S
C1295 C1296 1.396 . S
C1295 C1300 1.390 . S
C1296 C1290 1.465 . S
C1296 C1295 1.396 . S
C1296 C1297 1.399 . S
C1297 H1283 0.929 . S
C1297 C1296 1.399 . S
C1297 C1298 1.385 . S
C1298 H1284 0.931 . S
C1298 C1297 1.385 . S
C1298 C1299 1.389 . S
C1299 C1298 1.389 . S
C1299 C1300 1.387 . S
C1300 H1285 0.930 . S
C1300 C1295 1.390 . S
C1300 C1299 1.387 . S
H1301 C1313 0.930 . S
H1302 C1315 0.930 . S
H1303 C1316 0.930 . S
H1304 C1320 0.959 . S
H1305 C1320 0.959 . S
H1306 C1320 0.961 . S
H1307 C1321 0.960 . S
H1308 C1321 0.961 . S
H1309 C1321 0.959 . S
H1310 C1324 0.929 . S
H1311 C1325 0.931 . S
H1312 C1327 0.930 . S
C1313 H1301 0.930 . S
C1313 C1314 1.399 . S
C1313 C1318 1.399 . S
C1314 C1313 1.399 . S
C1314 C1315 1.376 . S
C1315 H1302 0.930 . S
C1315 C1314 1.376 . S
C1315 C1316 1.388 . S
C1316 H1303 0.930 . S
C1316 C1315 1.388 . S
C1316 C1317 1.390 . S
C1317 C1316 1.390 . S
C1317 C1318 1.394 . S
C1317 C1323 1.465 . S
C1318 C1313 1.399 . S
C1318 C1317 1.394 . S
C1318 C1319 1.516 . S
C1319 C1318 1.516 . S
C1319 C1320 1.502 . S
C1319 C1321 1.561 . S
C1319 C1322 1.526 . S
C1320 H1304 0.959 . S
C1320 H1305 0.959 . S
C1320 H1306 0.961 . S
C1320 C1319 1.502 . S
C1321 H1307 0.960 . S
C1321 H1308 0.961 . S
C1321 H1309 0.959 . S
C1321 C1319 1.561 . S
C1322 C1319 1.526 . S
C1322 C1323 1.396 . S
C1322 C1327 1.390 . S
C1323 C1317 1.465 . S
C1323 C1322 1.396 . S
C1323 C1324 1.399 . S
C1324 H1310 0.929 . S
C1324 C1323 1.399 . S
C1324 C1325 1.385 . S
C1325 H1311 0.931 . S
C1325 C1324 1.385 . S
C1325 C1326 1.389 . S
C1326 C1325 1.389 . S
C1326 C1327 1.387 . S
C1327 H1312 0.930 . S
C1327 C1322 1.390 . S
C1327 C1326 1.387 . S
H1328 C1340 0.930 . S
H1329 C1342 0.930 . S
H1330 C1343 0.930 . S
H1331 C1347 0.959 . S
H1332 C1347 0.959 . S
H1333 C1347 0.961 . S
H1334 C1348 0.960 . S
H1335 C1348 0.961 . S
H1336 C1348 0.959 . S
H1337 C1351 0.929 . S
H1338 C1352 0.931 . S
H1339 C1354 0.930 . S
C1340 H1328 0.930 . S
C1340 C1341 1.399 . S
C1340 C1345 1.399 . S
C1341 C1340 1.399 . S
C1341 C1342 1.376 . S
C1342 H1329 0.930 . S
C1342 C1341 1.376 . S
C1342 C1343 1.388 . S
C1343 H1330 0.930 . S
C1343 C1342 1.388 . S
C1343 C1344 1.390 . S
C1344 C1343 1.390 . S
C1344 C1345 1.394 . S
C1344 C1350 1.465 . S
C1345 C1340 1.399 . S
C1345 C1344 1.394 . S
C1345 C1346 1.516 . S
C1346 C1345 1.516 . S
C1346 C1347 1.502 . S
C1346 C1348 1.561 . S
C1346 C1349 1.526 . S
C1347 H1331 0.959 . S
C1347 H1332 0.959 . S
C1347 H1333 0.961 . S
C1347 C1346 1.502 . S
C1348 H1334 0.960 . S
C1348 H1335 0.961 . S
C1348 H1336 0.959 . S
C1348 C1346 1.561 . S
C1349 C1346 1.526 . S
C1349 C1350 1.396 . S
C1349 C1354 1.390 . S
C1350 C1344 1.465 . S
C1350 C1349 1.396 . S
C1350 C1351 1.399 . S
C1351 H1337 0.929 . S
C1351 C1350 1.399 . S
C1351 C1352 1.385 . S
C1352 H1338 0.931 . S
C1352 C1351 1.385 . S
C1352 C1353 1.389 . S
C1353 C1352 1.389 . S
C1353 C1354 1.387 . S
C1354 H1339 0.930 . S
C1354 C1349 1.390 . S
C1354 C1353 1.387 . S
H1355 C1367 0.930 . S
H1356 C1369 0.930 . S
H1357 C1370 0.930 . S
H1358 C1374 0.959 . S
H1359 C1374 0.959 . S
H1360 C1374 0.961 . S
H1361 C1375 0.960 . S
H1362 C1375 0.961 . S
H1363 C1375 0.959 . S
H1364 C1378 0.929 . S
H1365 C1379 0.931 . S
H1366 C1381 0.930 . S
C1367 H1355 0.930 . S
C1367 C1368 1.399 . S
C1367 C1372 1.399 . S
C1368 C1367 1.399 . S
C1368 C1369 1.376 . S
C1369 H1356 0.930 . S
C1369 C1368 1.376 . S
C1369 C1370 1.388 . S
C1370 H1357 0.930 . S
C1370 C1369 1.388 . S
C1370 C1371 1.390 . S
C1371 C1370 1.390 . S
C1371 C1372 1.394 . S
C1371 C1377 1.465 . S
C1372 C1367 1.399 . S
C1372 C1371 1.394 . S
C1372 C1373 1.516 . S
C1373 C1372 1.516 . S
C1373 C1374 1.502 . S
C1373 C1375 1.561 . S
C1373 C1376 1.526 . S
C1374 H1358 0.959 . S
C1374 H1359 0.959 . S
C1374 H1360 0.961 . S
C1374 C1373 1.502 . S
C1375 H1361 0.960 . S
C1375 H1362 0.961 . S
C1375 H1363 0.959 . S
C1375 C1373 1.561 . S
C1376 C1373 1.526 . S
C1376 C1377 1.396 . S
C1376 C1381 1.390 . S
C1377 C1371 1.465 . S
C1377 C1376 1.396 . S
C1377 C1378 1.399 . S
C1378 H1364 0.929 . S
C1378 C1377 1.399 . S
C1378 C1379 1.385 . S
C1379 H1365 0.931 . S
C1379 C1378 1.385 . S
C1379 C1380 1.389 . S
C1380 C1379 1.389 . S
C1380 C1381 1.387 . S
C1381 H1366 0.930 . S
C1381 C1376 1.390 . S
C1381 C1380 1.387 . S
H1382 C1394 0.930 . S
H1383 C1396 0.930 . S
H1384 C1397 0.930 . S
H1385 C1401 0.959 . S
H1386 C1401 0.959 . S
H1387 C1401 0.961 . S
H1388 C1402 0.960 . S
H1389 C1402 0.961 . S
H1390 C1402 0.959 . S
H1391 C1405 0.929 . S
H1392 C1406 0.931 . S
H1393 C1408 0.930 . S
C1394 H1382 0.930 . S
C1394 C1395 1.399 . S
C1394 C1399 1.399 . S
C1395 C1394 1.399 . S
C1395 C1396 1.376 . S
C1396 H1383 0.930 . S
C1396 C1395 1.376 . S
C1396 C1397 1.388 . S
C1397 H1384 0.930 . S
C1397 C1396 1.388 . S
C1397 C1398 1.390 . S
C1398 C1397 1.390 . S
C1398 C1399 1.394 . S
C1398 C1404 1.465 . S
C1399 C1394 1.399 . S
C1399 C1398 1.394 . S
C1399 C1400 1.516 . S
C1400 C1399 1.516 . S
C1400 C1401 1.502 . S
C1400 C1402 1.561 . S
C1400 C1403 1.526 . S
C1401 H1385 0.959 . S
C1401 H1386 0.959 . S
C1401 H1387 0.961 . S
C1401 C1400 1.502 . S
C1402 H1388 0.960 . S
C1402 H1389 0.961 . S
C1402 H1390 0.959 . S
C1402 C1400 1.561 . S
C1403 C1400 1.526 . S
C1403 C1404 1.396 . S
C1403 C1408 1.390 . S
C1404 C1398 1.465 . S
C1404 C1403 1.396 . S
C1404 C1405 1.399 . S
C1405 H1391 0.929 . S
C1405 C1404 1.399 . S
C1405 C1406 1.385 . S
C1406 H1392 0.931 . S
C1406 C1405 1.385 . S
C1406 C1407 1.389 . S
C1407 C1406 1.389 . S
C1407 C1408 1.387 . S
C1408 H1393 0.930 . S
C1408 C1403 1.390 . S
C1408 C1407 1.387 . S
H1409 C1421 0.930 . S
H1410 C1423 0.930 . S
H1411 C1424 0.930 . S
H1412 C1428 0.959 . S
H1413 C1428 0.959 . S
H1414 C1428 0.961 . S
H1415 C1429 0.960 . S
H1416 C1429 0.961 . S
H1417 C1429 0.959 . S
H1418 C1432 0.929 . S
H1419 C1433 0.931 . S
H1420 C1435 0.930 . S
C1421 H1409 0.930 . S
C1421 C1422 1.399 . S
C1421 C1426 1.399 . S
C1422 C1421 1.399 . S
C1422 C1423 1.376 . S
C1423 H1410 0.930 . S
C1423 C1422 1.376 . S
C1423 C1424 1.388 . S
C1424 H1411 0.930 . S
C1424 C1423 1.388 . S
C1424 C1425 1.390 . S
C1425 C1424 1.390 . S
C1425 C1426 1.394 . S
C1425 C1431 1.465 . S
C1426 C1421 1.399 . S
C1426 C1425 1.394 . S
C1426 C1427 1.516 . S
C1427 C1426 1.516 . S
C1427 C1428 1.502 . S
C1427 C1429 1.561 . S
C1427 C1430 1.526 . S
C1428 H1412 0.959 . S
C1428 H1413 0.959 . S
C1428 H1414 0.961 . S
C1428 C1427 1.502 . S
C1429 H1415 0.960 . S
C1429 H1416 0.961 . S
C1429 H1417 0.959 . S
C1429 C1427 1.561 . S
C1430 C1427 1.526 . S
C1430 C1431 1.396 . S
C1430 C1435 1.390 . S
C1431 C1425 1.465 . S
C1431 C1430 1.396 . S
C1431 C1432 1.399 . S
C1432 H1418 0.929 . S
C1432 C1431 1.399 . S
C1432 C1433 1.385 . S
C1433 H1419 0.931 . S
C1433 C1432 1.385 . S
C1433 C1434 1.389 . S
C1434 C1433 1.389 . S
C1434 C1435 1.387 . S
C1435 H1420 0.930 . S
C1435 C1430 1.390 . S
C1435 C1434 1.387 . S
H1436 C1448 0.930 . S
H1437 C1450 0.930 . S
H1438 C1451 0.930 . S
H1439 C1455 0.959 . S
H1440 C1455 0.959 . S
H1441 C1455 0.961 . S
H1442 C1456 0.960 . S
H1443 C1456 0.961 . S
H1444 C1456 0.959 . S
H1445 C1459 0.929 . S
H1446 C1460 0.931 . S
H1447 C1462 0.930 . S
C1448 H1436 0.930 . S
C1448 C1449 1.399 . S
C1448 C1453 1.399 . S
C1449 C1448 1.399 . S
C1449 C1450 1.376 . S
C1450 H1437 0.930 . S
C1450 C1449 1.376 . S
C1450 C1451 1.388 . S
C1451 H1438 0.930 . S
C1451 C1450 1.388 . S
C1451 C1452 1.390 . S
C1452 C1451 1.390 . S
C1452 C1453 1.394 . S
C1452 C1458 1.465 . S
C1453 C1448 1.399 . S
C1453 C1452 1.394 . S
C1453 C1454 1.516 . S
C1454 C1453 1.516 . S
C1454 C1455 1.502 . S
C1454 C1456 1.561 . S
C1454 C1457 1.526 . S
C1455 H1439 0.959 . S
C1455 H1440 0.959 . S
C1455 H1441 0.961 . S
C1455 C1454 1.502 . S
C1456 H1442 0.960 . S
C1456 H1443 0.961 . S
C1456 H1444 0.959 . S
C1456 C1454 1.561 . S
C1457 C1454 1.526 . S
C1457 C1458 1.396 . S
C1457 C1462 1.390 . S
C1458 C1452 1.465 . S
C1458 C1457 1.396 . S
C1458 C1459 1.399 . S
C1459 H1445 0.929 . S
C1459 C1458 1.399 . S
C1459 C1460 1.385 . S
C1460 H1446 0.931 . S
C1460 C1459 1.385 . S
C1460 C1461 1.389 . S
C1461 C1460 1.389 . S
C1461 C1462 1.387 . S
C1462 H1447 0.930 . S
C1462 C1457 1.390 . S
C1462 C1461 1.387 . S
H1463 C1475 0.930 . S
H1464 C1477 0.930 . S
H1465 C1478 0.930 . S
H1466 C1482 0.959 . S
H1467 C1482 0.959 . S
H1468 C1482 0.961 . S
H1469 C1483 0.960 . S
H1470 C1483 0.961 . S
H1471 C1483 0.959 . S
H1472 C1486 0.929 . S
H1473 C1487 0.931 . S
H1474 C1489 0.930 . S
C1475 H1463 0.930 . S
C1475 C1476 1.399 . S
C1475 C1480 1.399 . S
C1476 C1475 1.399 . S
C1476 C1477 1.376 . S
C1477 H1464 0.930 . S
C1477 C1476 1.376 . S
C1477 C1478 1.388 . S
C1478 H1465 0.930 . S
C1478 C1477 1.388 . S
C1478 C1479 1.390 . S
C1479 C1478 1.390 . S
C1479 C1480 1.394 . S
C1479 C1485 1.465 . S
C1480 C1475 1.399 . S
C1480 C1479 1.394 . S
C1480 C1481 1.516 . S
C1481 C1480 1.516 . S
C1481 C1482 1.502 . S
C1481 C1483 1.561 . S
C1481 C1484 1.526 . S
C1482 H1466 0.959 . S
C1482 H1467 0.959 . S
C1482 H1468 0.961 . S
C1482 C1481 1.502 . S
C1483 H1469 0.960 . S
C1483 H1470 0.961 . S
C1483 H1471 0.959 . S
C1483 C1481 1.561 . S
C1484 C1481 1.526 . S
C1484 C1485 1.396 . S
C1484 C1489 1.390 . S
C1485 C1479 1.465 . S
C1485 C1484 1.396 . S
C1485 C1486 1.399 . S
C1486 H1472 0.929 . S
C1486 C1485 1.399 . S
C1486 C1487 1.385 . S
C1487 H1473 0.931 . S
C1487 C1486 1.385 . S
C1487 C1488 1.389 . S
C1488 C1487 1.389 . S
C1488 C1489 1.387 . S
C1489 H1474 0.930 . S
C1489 C1484 1.390 . S
C1489 C1488 1.387 . S
H1490 C1502 0.930 . S
H1491 C1504 0.930 . S
H1492 C1505 0.930 . S
H1493 C1509 0.959 . S
H1494 C1509 0.959 . S
H1495 C1509 0.961 . S
H1496 C1510 0.960 . S
H1497 C1510 0.961 . S
H1498 C1510 0.959 . S
H1499 C1513 0.929 . S
H1500 C1514 0.931 . S
H1501 C1516 0.930 . S
C1502 H1490 0.930 . S
C1502 C1503 1.399 . S
C1502 C1507 1.399 . S
C1503 C1502 1.399 . S
C1503 C1504 1.376 . S
C1504 H1491 0.930 . S
C1504 C1503 1.376 . S
C1504 C1505 1.388 . S
C1505 H1492 0.930 . S
C1505 C1504 1.388 . S
C1505 C1506 1.390 . S
C1506 C1505 1.390 . S
C1506 C1507 1.394 . S
C1506 C1512 1.465 . S
C1507 C1502 1.399 . S
C1507 C1506 1.394 . S
C1507 C1508 1.516 . S
C1508 C1507 1.516 . S
C1508 C1509 1.502 . S
C1508 C1510 1.561 . S
C1508 C1511 1.526 . S
C1509 H1493 0.959 . S
C1509 H1494 0.959 . S
C1509 H1495 0.961 . S
C1509 C1508 1.502 . S
C1510 H1496 0.960 . S
C1510 H1497 0.961 . S
C1510 H1498 0.959 . S
C1510 C1508 1.561 . S
C1511 C1508 1.526 . S
C1511 C1512 1.396 . S
C1511 C1516 1.390 . S
C1512 C1506 1.465 . S
C1512 C1511 1.396 . S
C1512 C1513 1.399 . S
C1513 H1499 0.929 . S
C1513 C1512 1.399 . S
C1513 C1514 1.385 . S
C1514 H1500 0.931 . S
C1514 C1513 1.385 . S
C1514 C1515 1.389 . S
C1515 C1514 1.389 . S
C1515 C1516 1.387 . S
C1516 H1501 0.930 . S
C1516 C1511 1.390 . S
C1516 C1515 1.387 . S
H1517 C1529 0.930 . S
H1518 C1531 0.930 . S
H1519 C1532 0.930 . S
H1520 C1536 0.959 . S
H1521 C1536 0.959 . S
H1522 C1536 0.961 . S
H1523 C1537 0.960 . S
H1524 C1537 0.961 . S
H1525 C1537 0.959 . S
H1526 C1540 0.929 . S
H1527 C1541 0.931 . S
H1528 C1543 0.930 . S
C1529 H1517 0.930 . S
C1529 C1530 1.399 . S
C1529 C1534 1.399 . S
C1530 C1529 1.399 . S
C1530 C1531 1.376 . S
C1531 H1518 0.930 . S
C1531 C1530 1.376 . S
C1531 C1532 1.388 . S
C1532 H1519 0.930 . S
C1532 C1531 1.388 . S
C1532 C1533 1.390 . S
C1533 C1532 1.390 . S
C1533 C1534 1.394 . S
C1533 C1539 1.465 . S
C1534 C1529 1.399 . S
C1534 C1533 1.394 . S
C1534 C1535 1.516 . S
C1535 C1534 1.516 . S
C1535 C1536 1.502 . S
C1535 C1537 1.561 . S
C1535 C1538 1.526 . S
C1536 H1520 0.959 . S
C1536 H1521 0.959 . S
C1536 H1522 0.961 . S
C1536 C1535 1.502 . S
C1537 H1523 0.960 . S
C1537 H1524 0.961 . S
C1537 H1525 0.959 . S
C1537 C1535 1.561 . S
C1538 C1535 1.526 . S
C1538 C1539 1.396 . S
C1538 C1543 1.390 . S
C1539 C1533 1.465 . S
C1539 C1538 1.396 . S
C1539 C1540 1.399 . S
C1540 H1526 0.929 . S
C1540 C1539 1.399 . S
C1540 C1541 1.385 . S
C1541 H1527 0.931 . S
C1541 C1540 1.385 . S
C1541 C1542 1.389 . S
C1542 C1541 1.389 . S
C1542 C1543 1.387 . S
C1543 H1528 0.930 . S
C1543 C1538 1.390 . S
C1543 C1542 1.387 . S
H1544 C1556 0.930 . S
H1545 C1558 0.930 . S
H1546 C1559 0.930 . S
H1547 C1563 0.959 . S
H1548 C1563 0.959 . S
H1549 C1563 0.961 . S
H1550 C1564 0.960 . S
H1551 C1564 0.961 . S
H1552 C1564 0.959 . S
H1553 C1567 0.929 . S
H1554 C1568 0.931 . S
H1555 C1570 0.930 . S
C1556 H1544 0.930 . S
C1556 C1557 1.399 . S
C1556 C1561 1.399 . S
C1557 C1556 1.399 . S
C1557 C1558 1.376 . S
C1558 H1545 0.930 . S
C1558 C1557 1.376 . S
C1558 C1559 1.388 . S
C1559 H1546 0.930 . S
C1559 C1558 1.388 . S
C1559 C1560 1.390 . S
C1560 C1559 1.390 . S
C1560 C1561 1.394 . S
C1560 C1566 1.465 . S
C1561 C1556 1.399 . S
C1561 C1560 1.394 . S
C1561 C1562 1.516 . S
C1562 C1561 1.516 . S
C1562 C1563 1.502 . S
C1562 C1564 1.561 . S
C1562 C1565 1.526 . S
C1563 H1547 0.959 . S
C1563 H1548 0.959 . S
C1563 H1549 0.961 . S
C1563 C1562 1.502 . S
C1564 H1550 0.960 . S
C1564 H1551 0.961 . S
C1564 H1552 0.959 . S
C1564 C1562 1.561 . S
C1565 C1562 1.526 . S
C1565 C1566 1.396 . S
C1565 C1570 1.390 . S
C1566 C1560 1.465 . S
C1566 C1565 1.396 . S
C1566 C1567 1.399 . S
C1567 H1553 0.929 . S
C1567 C1566 1.399 . S
C1567 C1568 1.385 . S
C1568 H1554 0.931 . S
C1568 C1567 1.385 . S
C1568 C1569 1.389 . S
C1569 C1568 1.389 . S
C1569 C1570 1.387 . S
C1570 H1555 0.930 . S
C1570 C1565 1.390 . S
C1570 C1569 1.387 . S
H1571 C1583 0.930 . S
H1572 C1585 0.930 . S
H1573 C1586 0.930 . S
H1574 C1590 0.959 . S
H1575 C1590 0.959 . S
H1576 C1590 0.961 . S
H1577 C1591 0.960 . S
H1578 C1591 0.961 . S
H1579 C1591 0.959 . S
H1580 C1594 0.929 . S
H1581 C1595 0.931 . S
H1582 C1597 0.930 . S
C1583 H1571 0.930 . S
C1583 C1584 1.399 . S
C1583 C1588 1.399 . S
C1584 C1583 1.399 . S
C1584 C1585 1.376 . S
C1585 H1572 0.930 . S
C1585 C1584 1.376 . S
C1585 C1586 1.388 . S
C1586 H1573 0.930 . S
C1586 C1585 1.388 . S
C1586 C1587 1.390 . S
C1587 C1586 1.390 . S
C1587 C1588 1.394 . S
C1587 C1593 1.465 . S
C1588 C1583 1.399 . S
C1588 C1587 1.394 . S
C1588 C1589 1.516 . S
C1589 C1588 1.516 . S
C1589 C1590 1.502 . S
C1589 C1591 1.561 . S
C1589 C1592 1.526 . S
C1590 H1574 0.959 . S
C1590 H1575 0.959 . S
C1590 H1576 0.961 . S
C1590 C1589 1.502 . S
C1591 H1577 0.960 . S
C1591 H1578 0.961 . S
C1591 H1579 0.959 . S
C1591 C1589 1.561 . S
C1592 C1589 1.526 . S
C1592 C1593 1.396 . S
C1592 C1597 1.390 . S
C1593 C1587 1.465 . S
C1593 C1592 1.396 . S
C1593 C1594 1.399 . S
C1594 H1580 0.929 . S
C1594 C1593 1.399 . S
C1594 C1595 1.385 . S
C1595 H1581 0.931 . S
C1595 C1594 1.385 . S
C1595 C1596 1.389 . S
C1596 C1595 1.389 . S
C1596 C1597 1.387 . S
C1597 H1582 0.930 . S
C1597 C1592 1.390 . S
C1597 C1596 1.387 . S
H1598 C1610 0.930 . S
H1599 C1612 0.930 . S
H1600 C1613 0.930 . S
H1601 C1617 0.959 . S
H1602 C1617 0.959 . S
H1603 C1617 0.961 . S
H1604 C1618 0.960 . S
H1605 C1618 0.961 . S
H1606 C1618 0.959 . S
H1607 C1621 0.929 . S
H1608 C1622 0.931 . S
H1609 C1624 0.930 . S
C1610 H1598 0.930 . S
C1610 C1611 1.399 . S
C1610 C1615 1.399 . S
C1611 C1610 1.399 . S
C1611 C1612 1.376 . S
C1612 H1599 0.930 . S
C1612 C1611 1.376 . S
C1612 C1613 1.388 . S
C1613 H1600 0.930 . S
C1613 C1612 1.388 . S
C1613 C1614 1.390 . S
C1614 C1613 1.390 . S
C1614 C1615 1.394 . S
C1614 C1620 1.465 . S
C1615 C1610 1.399 . S
C1615 C1614 1.394 . S
C1615 C1616 1.516 . S
C1616 C1615 1.516 . S
C1616 C1617 1.502 . S
C1616 C1618 1.561 . S
C1616 C1619 1.526 . S
C1617 H1601 0.959 . S
C1617 H1602 0.959 . S
C1617 H1603 0.961 . S
C1617 C1616 1.502 . S
C1618 H1604 0.960 . S
C1618 H1605 0.961 . S
C1618 H1606 0.959 . S
C1618 C1616 1.561 . S
C1619 C1616 1.526 . S
C1619 C1620 1.396 . S
C1619 C1624 1.390 . S
C1620 C1614 1.465 . S
C1620 C1619 1.396 . S
C1620 C1621 1.399 . S
C1621 H1607 0.929 . S
C1621 C1620 1.399 . S
C1621 C1622 1.385 . S
C1622 H1608 0.931 . S
C1622 C1621 1.385 . S
C1622 C1623 1.389 . S
C1623 C1622 1.389 . S
C1623 C1624 1.387 . S
C1624 H1609 0.930 . S
C1624 C1619 1.390 . S
C1624 C1623 1.387 . S
H1625 C1637 0.930 . S
H1626 C1639 0.930 . S
H1627 C1640 0.930 . S
H1628 C1644 0.959 . S
H1629 C1644 0.959 . S
H1630 C1644 0.961 . S
H1631 C1645 0.960 . S
H1632 C1645 0.961 . S
H1633 C1645 0.959 . S
H1634 C1648 0.929 . S
H1635 C1649 0.931 . S
H1636 C1651 0.930 . S
C1637 H1625 0.930 . S
C1637 C1638 1.399 . S
C1637 C1642 1.399 . S
C1638 C1637 1.399 . S
C1638 C1639 1.376 . S
C1639 H1626 0.930 . S
C1639 C1638 1.376 . S
C1639 C1640 1.388 . S
C1640 H1627 0.930 . S
C1640 C1639 1.388 . S
C1640 C1641 1.390 . S
C1641 C1640 1.390 . S
C1641 C1642 1.394 . S
C1641 C1647 1.465 . S
C1642 C1637 1.399 . S
C1642 C1641 1.394 . S
C1642 C1643 1.516 . S
C1643 C1642 1.516 . S
C1643 C1644 1.502 . S
C1643 C1645 1.561 . S
C1643 C1646 1.526 . S
C1644 H1628 0.959 . S
C1644 H1629 0.959 . S
C1644 H1630 0.961 . S
C1644 C1643 1.502 . S
C1645 H1631 0.960 . S
C1645 H1632 0.961 . S
C1645 H1633 0.959 . S
C1645 C1643 1.561 . S
C1646 C1643 1.526 . S
C1646 C1647 1.396 . S
C1646 C1651 1.390 . S
C1647 C1641 1.465 . S
C1647 C1646 1.396 . S
C1647 C1648 1.399 . S
C1648 H1634 0.929 . S
C1648 C1647 1.399 . S
C1648 C1649 1.385 . S
C1649 H1635 0.931 . S
C1649 C1648 1.385 . S
C1649 C1650 1.389 . S
C1650 C1649 1.389 . S
C1650 C1651 1.387 . S
C1651 H1636 0.930 . S
C1651 C1646 1.390 . S
C1651 C1650 1.387 . S
C1029 C331 1.032 . S
C1017 C15 1.587 . S
C1056 C463 1.292 . S
C1044 C55 1.512 . S
C1083 C349 1.362 . S
C1071 C101 1.529 . S
C1110 C445 1.005 . S
C1098 C141 1.548 . S
C1137 C577 1.304 . S
C1125 C2 1.496 . S
C1164 C691 1.263 . S
C1152 C61 1.550 . S
C1179 C95 1.599 . S
C1191 C831 1.267 . S
C1218 C945 1.237 . S
C1206 C135 1.531 . S
C1245 C559 0.976 . S
C1233 C42 1.465 . S
C1260 C82 1.604 . S
C1272 C673 0.867 . S
C1299 C777 1.235 . S
C1287 C122 1.551 . S
C1326 C891 1.174 . S
C1314 C21 1.390 . S
C1341 C162 1.519 . S
C1353 C489 1.213 . S
C1380 C321 1.002 . S
C1368 C221 1.443 . S
C1395 C255 1.365 . S
C1407 C435 1.134 . S
C1422 C282 1.512 . S
C1434 C375 1.222 . S
C1461 C787 0.963 . S
C1449 C181 1.589 . S
C1488 C901 1.073 . S
C1476 C202 1.549 . S
C1515 C549 1.087 . S
C1503 C242 1.279 . S
C1530 C301 1.520 . S
C1542 C663 1.275 . S
C1569 C805 1.205 . S
C1557 C215 1.460 . S
C1596 C919 1.046 . S
C1584 C261 1.534 . S
C1623 C603 1.209 . S
C1611 C295 1.547 . S
C1638 C175 1.631 . S
C1650 C717 1.237 . S
