# Generated by pormake.
# Topology pyr, (3,6)-cn, num edge types: 1
# Building blocks:
#     Node 0, Type 0, BuildingBlock: PAMTOO_clean_linker_0, # of connection points: 3
#     Node 1, Type 0, BuildingBlock: PAMTOO_clean_linker_0, # of connection points: 3
#     Node 2, Type 0, BuildingBlock: PAMTOO_clean_linker_0, # of connection points: 3
#     Node 3, Type 0, BuildingBlock: PAMTOO_clean_linker_0, # of connection points: 3
#     Node 4, Type 0, BuildingBlock: PAMTOO_clean_linker_0, # of connection points: 3
#     Node 5, Type 0, BuildingBlock: PAMTOO_clean_linker_0, # of connection points: 3
#     Node 6, Type 0, BuildingBlock: PAMTOO_clean_linker_0, # of connection points: 3
#     Node 7, Type 0, BuildingBlock: PAMTOO_clean_linker_0, # of connection points: 3
#     Node 8, Type 1, BuildingBlock: FUNLAD_clean_sbu_0, # of connection points: 6
#     Node 9, Type 1, BuildingBlock: FUNLAD_clean_sbu_0, # of connection points: 6
#     Node 10, Type 1, BuildingBlock: FUNLAD_clean_sbu_0, # of connection points: 6
#     Node 11, Type 1, BuildingBlock: FUNLAD_clean_sbu_0, # of connection points: 6
#     Edge 12, Type (0, 1), BuildingBlock: AJUNOK_clean_linker_0, # of connection points: 2
#     Edge 13, Type (0, 1), BuildingBlock: AJUNOK_clean_linker_0, # of connection points: 2
#     Edge 14, Type (0, 1), BuildingBlock: AJUNOK_clean_linker_0, # of connection points: 2
#     Edge 15, Type (0, 1), BuildingBlock: AJUNOK_clean_linker_0, # of connection points: 2
#     Edge 16, Type (0, 1), BuildingBlock: AJUNOK_clean_linker_0, # of connection points: 2
#     Edge 17, Type (0, 1), BuildingBlock: AJUNOK_clean_linker_0, # of connection points: 2
#     Edge 18, Type (0, 1), BuildingBlock: AJUNOK_clean_linker_0, # of connection points: 2
#     Edge 19, Type (0, 1), BuildingBlock: AJUNOK_clean_linker_0, # of connection points: 2
#     Edge 20, Type (0, 1), BuildingBlock: AJUNOK_clean_linker_0, # of connection points: 2
#     Edge 21, Type (0, 1), BuildingBlock: AJUNOK_clean_linker_0, # of connection points: 2
#     Edge 22, Type (0, 1), BuildingBlock: AJUNOK_clean_linker_0, # of connection points: 2
#     Edge 23, Type (0, 1), BuildingBlock: AJUNOK_clean_linker_0, # of connection points: 2
#     Edge 24, Type (0, 1), BuildingBlock: AJUNOK_clean_linker_0, # of connection points: 2
#     Edge 25, Type (0, 1), BuildingBlock: AJUNOK_clean_linker_0, # of connection points: 2
#     Edge 26, Type (0, 1), BuildingBlock: AJUNOK_clean_linker_0, # of connection points: 2
#     Edge 27, Type (0, 1), BuildingBlock: AJUNOK_clean_linker_0, # of connection points: 2
#     Edge 28, Type (0, 1), BuildingBlock: AJUNOK_clean_linker_0, # of connection points: 2
#     Edge 29, Type (0, 1), BuildingBlock: AJUNOK_clean_linker_0, # of connection points: 2
#     Edge 30, Type (0, 1), BuildingBlock: AJUNOK_clean_linker_0, # of connection points: 2
#     Edge 31, Type (0, 1), BuildingBlock: AJUNOK_clean_linker_0, # of connection points: 2
#     Edge 32, Type (0, 1), BuildingBlock: AJUNOK_clean_linker_0, # of connection points: 2
#     Edge 33, Type (0, 1), BuildingBlock: AJUNOK_clean_linker_0, # of connection points: 2
#     Edge 34, Type (0, 1), BuildingBlock: AJUNOK_clean_linker_0, # of connection points: 2
#     Edge 35, Type (0, 1), BuildingBlock: AJUNOK_clean_linker_0, # of connection points: 2
# Relax obj value: 0.260
# Max RMSD: 0.226
# Mean RMSD: 0.141
data_MOF--net-pry--node1-FUNLAD_clean_sbu_0--node2-PAMTOO_clean_linker_0--edge1-AJUNOK_clean_linker_0
_symmetry_space_group_name_H-M    P1
_symmetry_Int_Tables_number       1
_symmetry_cell_setting            triclinic
loop_
_symmetry_equiv_pos_as_xyz
'x, y, z'
_cell_length_a     24.665474
_cell_length_b     27.950677
_cell_length_c     27.297351
_cell_angle_alpha  88.743821
_cell_angle_beta   91.693486
_cell_angle_gamma 85.944699
loop_
_atom_site_label
_atom_site_type_symbol
_atom_site_fract_x
_atom_site_fract_y
_atom_site_fract_z
_atom_type_partial_charge
H0 H 0.11976 0.25155 0.31591 0.0
H1 H 0.24411 0.13528 0.30568 0.0
H2 H 0.24143 0.25491 0.20546 0.0
H3 H 0.26431 0.16926 0.15939 0.0
C4 C 0.28756 0.14708 0.18834 0.0
O5 O 0.29117 0.17298 0.23077 0.0
H6 H 0.26465 0.11485 0.19532 0.0
C7 C 0.15545 0.23549 0.29883 0.0
C8 C 0.17685 0.25924 0.2576 0.0
C9 C 0.17935 0.1902 0.317 0.0
C10 C 0.22457 0.16933 0.29269 0.0
C11 C 0.24645 0.1927 0.25266 0.0
C12 C 0.22306 0.2373 0.23592 0.0
H13 H 0.37006 0.99481 0.79133 0.0
H14 H 0.38266 0.88261 0.68504 0.0
H15 H 0.50187 0.88414 0.80169 0.0
H16 H 0.54642 0.84026 0.70606 0.0
C17 C 0.50602 0.83361 0.68949 0.0
O18 O 0.46768 0.83656 0.72565 0.0
H19 H 0.49616 0.86221 0.661 0.0
C20 C 0.3914 0.96316 0.77707 0.0
C21 C 0.43969 0.94318 0.80176 0.0
C22 C 0.36923 0.94102 0.73529 0.0
C23 C 0.39737 0.89953 0.71769 0.0
C24 C 0.44451 0.87888 0.7416 0.0
C25 C 0.4654 0.90061 0.78345 0.0
H26 H 0.76756 0.41691 0.05617 0.0
H27 H 0.61934 0.4722 0.98444 0.0
H28 H 0.72703 0.56948 1.0475 0.0
H29 H 0.56631 0.60516 1.00658 0.0
C30 C 0.57991 0.56844 0.99518 0.0
O31 O 0.63625 0.56351 0.99718 0.0
H32 H 0.56219 0.5429 1.02101 0.0
C33 C 0.73949 0.44719 1.04541 0.0
C34 C 0.75359 0.49405 0.05451 0.0
C35 C 0.69026 0.4393 1.02117 0.0
C36 C 0.65533 0.47854 1.00573 0.0
C37 C 0.66707 0.52545 1.01701 0.0
C38 C 0.71609 0.53307 1.04203 0.0
H39 H 0.87806 0.67787 0.55543 0.0
H40 H 0.92992 0.52869 0.58138 0.0
H41 H 0.04797 0.63063 0.55414 0.0
H42 H 1.01397 0.48235 0.52987 0.0
C43 C 0.04341 0.51063 0.53 0.0
O44 O 0.03322 0.54043 0.56897 0.0
H45 H 0.08437 0.49205 0.53603 0.0
C46 C 0.91013 0.64932 0.55929 0.0
C47 C 0.96462 0.66006 0.55485 0.0
C48 C 0.89694 0.60197 0.5689 0.0
C49 C 0.93911 0.56559 0.57486 0.0
C50 C 0.99319 0.57598 0.56814 0.0
C51 C 1.00585 0.62302 0.55837 0.0
H52 H 0.87953 0.98323 0.86483 0.0
H53 H 0.90172 0.87198 0.97703 0.0
H54 H 1.01197 0.87384 0.85871 0.0
H55 H 1.0119 0.85143 1.00421 0.0
C56 C 1.02281 0.82337 0.97715 0.0
O57 O 0.98432 0.82602 0.93868 0.0
H58 H 0.06293 0.83114 0.96259 0.0
C59 C 0.90257 0.95188 0.88054 0.0
C60 C 0.94896 0.93239 0.85631 0.0
C61 C 0.88432 0.93015 0.92385 0.0
C62 C 0.91388 0.8887 0.94331 0.0
C63 C 0.9595 0.86816 0.92016 0.0
C64 C 0.97683 0.88998 0.87662 0.0
H65 H 0.77969 0.10262 0.36607 0.0
H66 H 0.65041 0.21394 0.34234 0.0
H67 H 0.75933 0.21967 0.46631 0.0
H68 H 0.64599 0.23552 0.4869 0.0
C69 C 0.6343 0.26256 0.4572 0.0
O70 O 0.67427 0.26147 0.42228 0.0
H71 H 0.59558 0.25247 0.43977 0.0
C72 C 0.75783 0.13524 0.37752 0.0
C73 C 0.77429 0.15708 0.42164 0.0
C74 C 0.71394 0.15589 0.34742 0.0
C75 C 0.68492 0.1979 0.36378 0.0
C76 C 0.70069 0.21997 0.40741 0.0
C77 C 0.74601 0.20029 0.43477 0.0
H78 H 0.41002 0.67421 0.14546 0.0
H79 H 0.45108 0.52472 0.12004 0.0
H80 H 0.57729 0.62204 0.13208 0.0
H81 H 0.62017 0.49369 0.15772 0.0
C82 C 0.57574 0.50146 0.16174 0.0
O83 O 0.55641 0.53206 0.12336 0.0
H84 H 0.55703 0.46666 0.15803 0.0
C85 C 0.44021 0.64464 0.1409 0.0
C86 C 0.49533 0.65369 0.13837 0.0
C87 C 0.4238 0.59795 0.13559 0.0
C88 C 0.46306 0.56076 0.12586 0.0
C89 C 0.51842 0.56906 0.12714 0.0
C90 C 0.53453 0.61555 0.13312 0.0
H91 H 0.15876 0.42405 0.72388 0.0
H92 H 0.1624 0.57379 0.68737 0.0
H93 H 0.17772 0.46913 0.57408 0.0
H94 H 0.21433 0.61554 0.6246 0.0
C95 C 0.21702 0.59241 0.59202 0.0
O96 O 0.17622 0.56091 0.59272 0.0
H97 H 0.20887 0.61731 0.55994 0.0
C98 C 0.16328 0.45234 0.6967 0.0
C99 C 0.16755 0.44107 0.64742 0.0
C100 C 0.16203 0.49977 0.71128 0.0
C101 C 0.16467 0.53676 0.67622 0.0
C102 C 0.17289 0.52556 0.62687 0.0
C103 C 0.17399 0.4776 0.61242 0.0
C104 C 0.11347 0.08439 0.49472 0.0
N105 N 0.08764 0.15094 0.62562 0.0
C106 C 0.13912 0.16231 0.61598 0.0
C107 C 0.1538 0.20898 0.61991 0.0
C108 C 0.1153 0.24466 0.63396 0.0
C109 C 0.06319 0.23188 0.64652 0.0
C110 C 0.04994 0.18432 0.64169 0.0
Zn111 Zn 0.07045 0.08547 0.60164 0.0
C112 C 0.96858 0.08725 0.54027 0.0
N113 N 0.05104 0.95059 0.5385 0.0
C114 C 0.09076 0.91572 0.5297 0.0
C115 C 0.99799 0.94025 0.54042 0.0
C116 C 0.98342 0.89348 0.53591 0.0
C117 C 1.02385 0.85631 0.53142 0.0
C118 C 0.07793 0.86781 0.52608 0.0
Zn119 Zn 0.06718 1.01676 0.56398 0.0
O120 O 0.10367 0.10751 0.53333 0.0
C121 C 0.16961 1.01449 0.62517 0.0
O122 O 0.10525 0.03968 0.49543 0.0
H123 H 0.96687 0.96747 0.54926 0.0
H124 H 0.16822 0.13591 0.60173 0.0
H125 H 0.13276 0.9244 0.52885 0.0
O126 O 0.14946 0.05686 0.63196 0.0
O127 O 0.14398 0.9881 0.59646 0.0
H128 H 1.00912 0.17459 0.64852 0.0
O129 O 0.02872 0.99564 0.63349 0.0
O130 O 0.03578 0.06416 0.66948 0.0
O131 O 0.99163 0.0466 0.53092 0.0
O132 O 0.99091 0.11299 0.57198 0.0
C133 C 1.0221 1.02104 0.67157 0.0
H134 H 0.19414 0.21746 0.6095 0.0
H135 H 0.03275 0.2585 0.65859 0.0
H136 H 0.94114 0.88606 0.53923 0.0
H137 H 0.11021 0.83989 0.52243 0.0
C138 C 0.69319 1.00937 1.02817 0.0
N139 N 0.61399 0.14814 1.02319 0.0
C140 C 0.66506 0.1619 1.03221 0.0
C141 C 0.67732 0.20888 1.02262 0.0
C142 C 0.63679 0.24223 1.00322 0.0
C143 C 0.58485 0.22679 0.99238 0.0
C144 C 0.57423 0.17914 1.0027 0.0
Zn145 Zn 0.59923 0.08204 1.05009 0.0
C146 C 0.54106 1.02123 0.98038 0.0
N147 N 0.57729 0.94516 0.11359 0.0
C148 C 0.61804 0.91187 0.12778 0.0
C149 C 0.52464 0.9336 0.11059 0.0
C150 C 0.51147 0.88687 0.11998 0.0
C151 C 0.55294 0.85106 0.13089 0.0
C152 C 0.60666 0.86411 0.13661 0.0
Zn153 Zn 0.59217 1.0115 0.08649 0.0
O154 O 0.67572 0.05299 1.02092 0.0
C155 C 0.64706 0.07363 0.1575 0.0
O156 O 0.66658 0.98305 0.05591 0.0
H157 H 0.49277 0.95998 0.09829 0.0
H158 H 0.69581 0.13701 1.04933 0.0
H159 H 0.65964 0.92173 0.12981 0.0
O160 O 0.63861 0.10057 0.11935 0.0
O161 O 0.63396 0.03033 0.15493 0.0
H162 H 0.53379 0.16747 0.99628 0.0
O163 O 0.51843 0.0407 0.11623 0.0
O164 O 0.52279 0.11001 0.07856 0.0
O165 O 0.54944 0.99374 1.01821 0.0
O166 O 0.558 0.06327 0.98212 0.0
C167 C 0.49809 0.08308 0.1073 0.0
H168 H 0.71737 0.21955 1.03296 0.0
H169 H 0.55246 0.25165 0.97763 0.0
H170 H 0.46937 0.87838 0.11639 0.0
H171 H 0.6397 0.83735 0.14518 0.0
C172 C 0.58102 0.45153 0.54541 0.0
N173 N 0.57146 0.51642 0.68705 0.0
C174 C 0.53052 0.49688 0.7114 0.0
C175 C 0.52596 0.50234 0.76202 0.0
C176 C 0.56526 0.52627 0.78838 0.0
C177 C 0.60993 0.5415 0.76299 0.0
C178 C 0.61163 0.53724 0.71231 0.0
Zn179 Zn 0.56336 0.53154 0.61225 0.0
C180 C 0.66838 0.5602 0.57005 0.0
N181 N 0.54223 0.57606 0.46216 0.0
C182 C 0.51292 0.54272 0.44009 0.0
C183 C 0.56851 0.60817 0.43505 0.0
C184 C 0.56743 0.60581 0.38361 0.0
C185 C 0.54026 0.56933 0.36034 0.0
C186 C 0.51266 0.5379 0.38976 0.0
Zn187 Zn 0.55301 0.56224 0.53613 0.0
O188 O 0.57887 0.45675 0.59171 0.0
C189 C 0.44715 0.53672 0.57841 0.0
O190 O 0.57177 0.48853 0.51782 0.0
H191 H 0.5924 0.63393 0.45322 0.0
H192 H 0.49895 0.47997 0.69143 0.0
H193 H 0.4932 0.51665 0.46174 0.0
O194 O 0.47815 0.524 0.61496 0.0
O195 O 0.46818 0.55243 0.53996 0.0
H196 H 0.64332 0.55384 0.69327 0.0
O197 O 0.53582 0.63555 0.55619 0.0
O198 O 0.54865 0.60612 0.6311 0.0
O199 O 0.63727 0.57353 0.53352 0.0
O200 O 0.64807 0.54071 0.60712 0.0
C201 C 0.53754 0.64223 0.6023 0.0
H202 H 0.49025 0.49047 0.77938 0.0
H203 H 0.64212 0.55901 0.7817 0.0
H204 H 0.58949 0.63089 0.36257 0.0
H205 H 0.49393 0.5073 0.37491 0.0
C206 C 0.06343 0.63568 0.08303 0.0
N207 N 0.05838 0.577 0.22893 0.0
C208 C 0.08277 0.61055 0.25563 0.0
C209 C 0.07517 0.61294 0.30631 0.0
C210 C 0.04212 0.58059 0.32913 0.0
C211 C 1.01626 0.54774 0.30009 0.0
C212 C 1.0248 0.54665 0.2502 0.0
Zn213 Zn 0.07819 0.5589 0.15921 0.0
C214 C 0.97929 0.52466 0.10441 0.0
N215 N 0.11581 0.50857 1.01849 0.0
C216 C 0.15139 0.53763 0.99779 0.0
C217 C 0.08998 0.47626 0.99136 0.0
C218 C 0.0986 0.47346 0.94101 0.0
C219 C 0.1346 0.5037 0.91929 0.0
C220 C 0.16182 0.53538 0.94826 0.0
Zn221 Zn 0.09527 0.5256 0.08808 0.0
O222 O 0.05988 0.63177 0.12952 0.0
C223 C 0.19466 0.55993 0.14024 0.0
O224 O 0.07755 0.59812 0.0598 0.0
H225 H 0.06109 0.45419 1.00823 0.0
H226 H 0.11023 0.63368 0.23823 0.0
H227 H 0.16976 0.56473 1.01893 0.0
O228 O 0.16184 0.57397 0.17293 0.0
O229 O 0.17632 0.53876 0.10344 0.0
H230 H 1.00738 0.51893 0.22919 0.0
O231 O 0.11208 0.45294 0.11685 0.0
O232 O 0.09694 0.48515 0.18785 0.0
O233 O 1.01438 0.51195 0.07333 0.0
O234 O 0.99474 0.54459 0.14332 0.0
C235 C 0.10947 0.4479 0.1633 0.0
H236 H 0.09642 0.63838 0.32765 0.0
H237 H 0.99243 0.52069 0.31616 0.0
H238 H 0.0769 0.44868 0.91918 0.0
H239 H 0.18913 0.55969 0.93228 0.0
C240 C 0.1544 0.1141 0.36221 0.0
C241 C 0.15935 0.16433 0.3618 0.0
C242 C 0.14007 0.08842 0.40476 0.0
C243 C 0.13047 0.11148 0.44946 0.0
H244 H 0.16166 0.09425 0.32913 0.0
H245 H 0.13658 0.05013 0.40251 0.0
S246 S 0.13934 0.2425 0.46894 0.0
N247 N 0.15414 0.23571 0.41082 0.0
N248 N 0.12749 0.18856 0.48999 0.0
C249 C 0.13529 0.16184 0.44944 0.0
C250 C 0.14948 0.18786 0.40605 0.0
C251 C 0.47909 0.93565 0.88893 0.0
C252 C 0.46291 0.965 0.84755 0.0
C253 C 0.50321 0.95426 0.93139 0.0
C254 C 0.51322 1.00326 0.9348 0.0
H255 H 0.47297 0.89767 0.88862 0.0
H256 H 0.51479 0.92959 0.96166 0.0
S257 S 0.47882 0.09596 0.83686 0.0
N258 N 0.45868 0.04609 0.81313 0.0
N259 N 0.50405 0.08092 0.89225 0.0
C260 C 0.4969 0.03318 0.89379 0.0
C261 C 0.47177 1.01421 0.85061 0.0
C262 C 0.57671 0.59435 0.90679 0.0
C263 C 0.56165 0.56152 0.94263 0.0
C264 C 0.57479 0.58346 0.85704 0.0
C265 C 0.55904 0.53869 0.84101 0.0
H266 H 0.59303 0.62768 0.91758 0.0
H267 H 0.58774 0.60989 0.8311 0.0
S268 S 0.50654 0.44362 0.92026 0.0
N269 N 0.52112 0.48615 0.95852 0.0
N270 N 0.52223 0.46339 0.86537 0.0
C271 C 0.53979 0.50699 0.87632 0.0
C272 C 0.53999 0.51898 0.92702 0.0
C273 C 0.08886 0.55173 0.46016 0.0
C274 C 0.04103 0.537 0.48083 0.0
C275 C 0.08839 0.57016 0.41189 0.0
C276 C 0.03981 0.5754 0.38325 0.0
H277 H 0.12732 0.54639 0.48043 0.0
H278 H 0.1268 0.57716 0.39592 0.0
S279 S 0.90205 0.5515 0.4243 0.0
N280 N 0.94309 0.53391 0.47109 0.0
N281 N 0.94149 0.57235 0.38217 0.0
C282 C 0.99098 0.56566 0.40557 0.0
C283 C 0.99174 0.54545 0.4539 0.0
C284 C 0.36744 0.15897 0.13359 0.0
C285 C 0.34367 0.13192 0.17032 0.0
C286 C 0.41766 0.14347 0.11392 0.0
C287 C 0.44615 0.10027 0.13022 0.0
H288 H 0.34648 0.19191 0.11923 0.0
H289 H 0.43368 0.16509 0.08506 0.0
S290 S 0.40342 1.01892 0.2294 0.0
N291 N 0.35402 0.06197 0.22474 0.0
N292 N 0.44788 0.03249 0.18817 0.0
C293 C 0.42352 0.07389 0.16834 0.0
C294 C 0.3726 0.08987 0.18837 0.0
C295 C 0.30579 1.00922 0.69833 0.0
C296 C 0.31661 0.9599 0.70962 0.0
C297 C 0.25855 1.0266 0.67098 0.0
C298 C 0.22028 0.99541 0.6531 0.0
H299 H 0.33459 0.03457 0.70983 0.0
H300 H 0.25237 0.0648 0.6632 0.0
S301 S 0.22535 0.86398 0.67761 0.0
N302 N 0.28128 0.88091 0.70478 0.0
N303 N 0.19466 0.91315 0.6522 0.0
C304 C 0.22993 0.94627 0.66514 0.0
C305 C 0.27733 0.9287 0.69363 0.0
C306 C 0.85305 0.48059 1.04308 0.0
C307 C 0.81033 0.50184 0.06992 0.0
C308 C 0.90725 0.48794 0.05496 0.0
C309 C 0.92119 0.51668 0.09445 0.0
H310 H 0.84445 0.45865 1.01192 0.0
H311 H 0.93842 0.47099 1.0327 0.0
S312 S 0.82416 0.57928 0.17733 0.0
N313 N 0.78506 0.55201 0.13822 0.0
N314 N 0.88735 0.5659 0.16115 0.0
C315 C 0.87879 0.53773 0.12214 0.0
C316 C 0.82329 0.53043 0.10963 0.0
C317 C 0.80277 0.60613 0.53147 0.0
C318 C 0.83912 0.59036 0.57012 0.0
C319 C 0.74802 0.59554 0.53141 0.0
C320 C 0.72724 0.56897 0.57017 0.0
H321 H 0.81689 0.62654 0.50076 0.0
H322 H 0.72174 0.60874 0.50084 0.0
S323 S 0.8061 0.51974 0.68045 0.0
N324 N 0.85082 0.54719 0.64826 0.0
N325 N 0.74818 0.52692 0.64838 0.0
C326 C 0.76345 0.55277 0.60901 0.0
C327 C 0.81927 0.56349 0.60889 0.0
C328 C 0.14816 0.31307 0.18396 0.0
C329 C 0.15279 0.30662 0.23552 0.0
C330 C 0.13336 0.35816 0.16129 0.0
C331 C 0.12202 0.39956 0.18882 0.0
H332 H 0.15713 0.2829 0.16056 0.0
H333 H 0.13164 0.36058 0.12162 0.0
S334 S 0.12525 0.40265 0.32521 0.0
N335 N 0.14284 0.34603 0.31344 0.0
N336 N 0.11419 0.43027 0.27136 0.0
C337 C 0.12449 0.39343 0.24054 0.0
C338 C 0.13983 0.34731 0.26366 0.0
C339 C 0.62521 0.37528 1.02727 0.0
C340 C 0.67519 0.3901 1.01138 0.0
C341 C 0.61168 0.32782 1.02198 0.0
C342 C 0.64753 0.29369 1.00026 0.0
H343 H 0.59732 0.4001 1.04567 0.0
H344 H 0.57408 0.31729 1.03714 0.0
S345 S 0.77932 0.31681 0.94543 0.0
N346 N 0.75787 0.36874 0.96831 0.0
N347 N 0.73217 0.27951 0.9576 0.0
C348 C 0.69613 0.30893 0.98151 0.0
C349 C 0.71006 0.35715 0.98728 0.0
C350 C 1.01051 0.72377 0.50915 0.0
C351 C 0.97894 0.71017 0.54856 0.0
C352 C 1.02557 0.77108 0.50377 0.0
C353 C 1.00965 0.80601 0.53779 0.0
H354 H 1.02322 0.69774 0.48218 0.0
H355 H 0.04911 0.78055 0.47257 0.0
S356 S 0.93258 0.7866 0.65051 0.0
N357 N 0.93581 0.73408 0.62383 0.0
N358 N 0.96477 0.82257 0.61447 0.0
C359 C 0.97951 0.79225 0.57812 0.0
C360 C 0.96391 0.74443 0.58329 0.0
C361 C 0.53005 0.74364 0.69468 0.0
C362 C 0.50975 0.78414 0.6666 0.0
C363 C 0.53834 0.69821 0.67365 0.0
C364 C 0.52708 0.69113 0.62336 0.0
H365 H 0.54051 0.74731 0.73317 0.0
H366 H 0.55457 0.66851 0.69709 0.0
S367 S 0.47049 0.78522 0.53412 0.0
N368 N 0.47646 0.81382 0.58609 0.0
N369 N 0.49234 0.72893 0.54657 0.0
C370 C 0.50578 0.73127 0.59504 0.0
C371 C 0.49701 0.77751 0.6166 0.0
C372 C 0.98003 0.92833 0.76791 0.0
C373 C 0.96733 0.9558 0.80942 0.0
C374 C 0.99639 0.94963 0.72363 0.0
C375 C 1.00164 0.99956 0.71853 0.0
H376 H 0.9767 0.8899 0.7694 0.0
H377 H 1.00561 0.92646 0.69324 0.0
S378 S 0.97506 0.08782 0.81657 0.0
N379 N 0.9624 0.03596 0.84235 0.0
N380 N 0.99295 0.07566 0.76012 0.0
C381 C 0.98927 1.0274 0.7599 0.0
C382 C 0.97222 1.00573 0.80482 0.0
C383 C 0.6914 0.08534 0.29389 0.0
C384 C 0.69923 0.13468 0.29842 0.0
C385 C 0.67567 0.06567 0.24853 0.0
C386 C 0.66774 0.09418 0.20508 0.0
H387 H 0.69623 0.0618 0.32601 0.0
H388 H 0.66902 1.02781 0.24774 0.0
S389 S 0.68771 0.22489 0.19592 0.0
N390 N 0.70081 0.2109 0.25433 0.0
N391 N 0.67209 0.17465 0.17004 0.0
C392 C 0.67713 0.14336 0.20901 0.0
C393 C 0.69255 0.16333 0.25517 0.0
C394 C 0.60493 0.5455 0.23747 0.0
C395 C 0.56496 0.52141 0.21218 0.0
C396 C 0.59583 0.56335 0.28445 0.0
C397 C 0.54555 0.55951 0.30701 0.0
H398 H 0.64415 0.54914 0.2215 0.0
H399 H 0.6293 0.5784 0.30385 0.0
S400 S 0.42452 0.50657 0.25181 0.0
N401 N 0.47285 0.49602 0.21215 0.0
N402 N 0.45232 0.53691 0.29599 0.0
C403 C 0.50372 0.53923 0.27982 0.0
C404 C 0.51429 0.51824 0.23368 0.0
C405 C 0.10643 0.52102 0.78293 0.0
C406 C 0.15758 0.50871 0.76375 0.0
C407 C 0.09899 0.51881 0.83362 0.0
C408 C 0.14258 0.50434 0.86617 0.0
H409 H 0.07167 0.53042 0.75854 0.0
H410 H 0.05901 0.52821 0.84745 0.0
S411 S 0.28421 0.46873 0.83367 0.0
N412 N 0.25208 0.48159 0.78055 0.0
N413 N 0.23845 0.47842 0.87599 0.0
C414 C 0.19408 0.49308 0.84738 0.0
C415 C 0.2015 0.49499 0.79599 0.0
C416 C 0.82536 0.99978 0.95683 0.0
C417 C 0.83433 0.95013 0.9491 0.0
C418 C 0.78006 1.01865 0.98252 0.0
C419 C 0.74191 0.98871 1.00208 0.0
H420 H 0.85406 1.02428 0.94363 0.0
H421 H 0.77525 0.05704 0.98751 0.0
S422 S 0.74305 0.85677 0.9876 0.0
N423 N 0.79795 0.87202 0.95969 0.0
N424 N 0.71462 0.90701 1.00893 0.0
C425 C 0.74987 0.93914 0.99382 0.0
C426 C 0.79545 0.92004 0.96717 0.0
C427 C 0.86978 0.11672 0.43156 0.0
C428 C 0.8224 0.13681 0.45317 0.0
C429 C 0.9164 0.10063 0.46009 0.0
C430 C 0.91845 0.10488 0.51147 0.0
H431 H 0.8715 0.11428 0.3921 0.0
H432 H 0.95174 0.08564 0.44158 0.0
S433 S 0.8046 0.14924 0.58754 0.0
N434 N 0.77951 0.15474 0.53076 0.0
N435 N 0.86827 0.1276 0.58321 0.0
C436 C 0.87156 0.12403 0.53382 0.0
C437 C 0.82341 0.13914 0.50505 0.0
C438 C 0.34094 0.56275 0.10163 0.0
C439 C 0.36566 0.58814 0.13888 0.0
C440 C 0.28607 0.5535 0.10317 0.0
C441 C 0.25336 0.56905 0.14217 0.0
H442 H 0.36399 0.5506 0.07051 0.0
H443 H 0.26918 0.53428 0.07295 0.0
S444 S 0.30013 0.63416 0.2508 0.0
N445 N 0.35462 0.62674 0.21727 0.0
N446 N 0.25093 0.6095 0.22017 0.0
C447 C 0.27792 0.59372 0.18029 0.0
C448 C 0.3341 0.60329 0.17859 0.0
C449 C 0.29772 0.5624 0.54334 0.0
C450 C 0.27362 0.56788 0.58909 0.0
C451 C 0.35344 0.54912 0.54007 0.0
C452 C 0.38699 0.54009 0.58245 0.0
H453 H 0.27402 0.57122 0.50991 0.0
H454 H 0.37078 0.54811 0.50407 0.0
S455 S 0.34151 0.54288 0.71094 0.0
N456 N 0.28606 0.55878 0.67747 0.0
N457 N 0.39021 0.53248 0.67155 0.0
C458 C 0.36221 0.54143 0.6283 0.0
C459 C 0.30565 0.55561 0.63157 0.0
C460 C 1.02233 0.76919 0.05416 0.0
C461 C 0.02833 0.77384 1.00297 0.0
C462 C 0.03326 0.72478 0.07966 0.0
C463 C 0.05098 0.68278 0.05529 0.0
H464 H 1.01002 0.80043 0.07499 0.0
H465 H 0.02828 0.72358 0.11894 0.0
S466 S 0.07288 0.67554 0.92106 0.0
N467 N 0.05296 0.73243 0.92898 0.0
N468 N 0.07313 0.6494 0.97589 0.0
C469 C 0.05645 0.68698 1.00385 0.0
C470 C 0.04531 0.73221 0.97807 0.0
C471 C 0.54443 0.72128 0.17326 0.0
C472 C 0.51111 0.70348 0.13624 0.0
C473 C 0.55862 0.76907 0.17126 0.0
C474 C 0.54008 0.8001 0.13203 0.0
H475 H 0.5588 0.69836 0.20416 0.0
H476 H 0.58333 0.78206 0.20091 0.0
S477 S 0.45785 0.76798 1.02304 0.0
N478 N 0.46361 0.71869 0.05778 0.0
N479 N 0.4912 0.8079 0.05312 0.0
C480 C 0.50852 0.78178 0.09395 0.0
C481 C 0.49377 0.73358 0.0963 0.0
C482 C 0.19417 0.35409 0.65508 0.0
C483 C 0.15931 0.39139 0.63416 0.0
C484 C 0.17973 0.30664 0.65458 0.0
C485 C 0.12981 0.29501 0.63333 0.0
H486 H 0.23154 0.36204 0.67412 0.0
H487 H 0.20702 0.2791 0.67242 0.0
S488 S 1.02591 0.37959 0.57136 0.0
N489 N 0.07372 0.41374 0.59078 0.0
N490 N 0.04745 0.32412 0.58771 0.0
C491 C 0.09572 0.33177 0.61047 0.0
C492 C 0.11036 0.3801 0.61127 0.0
C493 C 0.62451 0.31771 0.53059 0.0
C494 C 0.62455 0.31222 0.47924 0.0
C495 C 0.61046 0.36242 0.55178 0.0
C496 C 0.59549 0.40378 0.52262 0.0
H497 H 0.63476 0.28695 0.55475 0.0
H498 H 0.61114 0.36444 0.59136 0.0
S499 S 0.58825 0.40836 0.38592 0.0
N500 N 0.60759 0.35185 0.39994 0.0
N501 N 0.58185 0.43546 0.43877 0.0
C502 C 0.5956 0.39859 0.47106 0.0
C503 C 0.60981 0.35308 0.4497 0.0
loop_
_geom_bond_atom_site_label_1
_geom_bond_atom_site_label_2
_geom_bond_distance
_geom_bond_site_symmetry_2
_ccdc_geom_bond_type
H0 C7 0.929 . S
H1 C10 0.930 . S
H2 C12 0.929 . S
H3 C4 0.969 . S
C4 H3 0.969 . S
C4 O5 1.550 . S
C4 H6 0.973 . S
O5 C4 1.550 . S
O5 C11 1.412 . S
H6 C4 0.973 . S
C7 H0 0.929 . S
C7 C8 1.400 . S
C7 C9 1.364 . S
C8 C7 1.400 . S
C8 C12 1.377 . S
C9 C7 1.364 . S
C9 C10 1.374 . S
C10 H1 0.930 . S
C10 C9 1.374 . S
C10 C11 1.383 . S
C11 O5 1.412 . S
C11 C10 1.383 . S
C11 C12 1.394 . S
C12 H2 0.929 . S
C12 C8 1.377 . S
C12 C11 1.394 . S
H13 C20 0.929 . S
H14 C23 0.930 . S
H15 C25 0.929 . S
H16 C17 0.969 . S
C17 H16 0.969 . S
C17 O18 1.550 . S
C17 H19 0.973 . S
O18 C17 1.550 . S
O18 C24 1.412 . S
H19 C17 0.973 . S
C20 H13 0.929 . S
C20 C21 1.400 . S
C20 C22 1.364 . S
C21 C20 1.400 . S
C21 C25 1.377 . S
C22 C20 1.364 . S
C22 C23 1.374 . S
C23 H14 0.930 . S
C23 C22 1.374 . S
C23 C24 1.383 . S
C24 O18 1.412 . S
C24 C23 1.383 . S
C24 C25 1.394 . S
C25 H15 0.929 . S
C25 C21 1.377 . S
C25 C24 1.394 . S
H26 C33 0.945 . S
H27 C36 0.930 . S
H28 C38 0.929 . S
H29 C30 0.969 . S
C30 H29 0.969 . S
C30 O31 1.550 . S
C30 H32 0.973 . S
O31 C30 1.550 . S
O31 C37 1.412 . S
H32 C30 0.973 . S
C33 H26 0.945 . S
C33 C34 1.394 1_554 S
C33 C35 1.354 1_554 S
C34 C33 1.394 1_556 S
C34 C38 1.377 . S
C35 C33 1.354 1_556 S
C35 C36 1.374 . S
C36 H27 0.930 . S
C36 C35 1.374 . S
C36 C37 1.383 . S
C37 O31 1.412 . S
C37 C36 1.383 . S
C37 C38 1.394 . S
C38 H28 0.929 . S
C38 C34 1.377 . S
C38 C37 1.394 . S
H39 C46 0.929 . S
H40 C49 0.930 . S
H41 C51 0.929 . S
H42 C43 0.969 . S
C43 H42 0.969 . S
C43 O44 1.550 . S
C43 H45 0.973 . S
O44 C43 1.550 . S
O44 C50 1.412 . S
H45 C43 0.973 . S
C46 H39 0.929 . S
C46 C47 1.400 . S
C46 C48 1.364 . S
C47 C46 1.400 . S
C47 C51 1.377 . S
C48 C46 1.364 . S
C48 C49 1.374 . S
C49 H40 0.930 . S
C49 C48 1.374 . S
C49 C50 1.383 . S
C50 O44 1.412 . S
C50 C49 1.383 . S
C50 C51 1.394 . S
C51 H41 0.929 . S
C51 C47 1.377 . S
C51 C50 1.394 . S
H52 C59 0.929 . S
H53 C62 0.930 . S
H54 C64 0.929 . S
H55 C56 0.969 . S
C56 H55 0.969 . S
C56 O57 1.550 . S
C56 H58 0.973 . S
O57 C56 1.550 . S
O57 C63 1.412 . S
H58 C56 0.973 . S
C59 H52 0.929 . S
C59 C60 1.400 . S
C59 C61 1.364 . S
C60 C59 1.400 . S
C60 C64 1.377 . S
C61 C59 1.364 . S
C61 C62 1.374 . S
C62 H53 0.930 . S
C62 C61 1.374 . S
C62 C63 1.383 . S
C63 O57 1.412 . S
C63 C62 1.383 . S
C63 C64 1.394 . S
C64 H54 0.929 . S
C64 C60 1.377 . S
C64 C63 1.394 . S
H65 C72 0.929 . S
H66 C75 0.930 . S
H67 C77 0.929 . S
H68 C69 0.969 . S
C69 H68 0.969 . S
C69 O70 1.550 . S
C69 H71 0.973 . S
O70 C69 1.550 . S
O70 C76 1.412 . S
H71 C69 0.973 . S
C72 H65 0.929 . S
C72 C73 1.400 . S
C72 C74 1.364 . S
C73 C72 1.400 . S
C73 C77 1.377 . S
C74 C72 1.364 . S
C74 C75 1.374 . S
C75 H66 0.930 . S
C75 C74 1.374 . S
C75 C76 1.383 . S
C76 O70 1.412 . S
C76 C75 1.383 . S
C76 C77 1.394 . S
C77 H67 0.929 . S
C77 C73 1.377 . S
C77 C76 1.394 . S
H78 C85 0.929 . S
H79 C88 0.930 . S
H80 C90 0.929 . S
H81 C82 0.969 . S
C82 H81 0.969 . S
C82 O83 1.550 . S
C82 H84 0.973 . S
O83 C82 1.550 . S
O83 C89 1.412 . S
H84 C82 0.973 . S
C85 H78 0.929 . S
C85 C86 1.400 . S
C85 C87 1.364 . S
C86 C85 1.400 . S
C86 C90 1.377 . S
C87 C85 1.364 . S
C87 C88 1.374 . S
C88 H79 0.930 . S
C88 C87 1.374 . S
C88 C89 1.383 . S
C89 O83 1.412 . S
C89 C88 1.383 . S
C89 C90 1.394 . S
C90 H80 0.929 . S
C90 C86 1.377 . S
C90 C89 1.394 . S
H91 C98 0.929 . S
H92 C101 0.930 . S
H93 C103 0.929 . S
H94 C95 0.969 . S
C95 H94 0.969 . S
C95 O96 1.550 . S
C95 H97 0.973 . S
O96 C95 1.550 . S
O96 C102 1.412 . S
H97 C95 0.973 . S
C98 H91 0.929 . S
C98 C99 1.400 . S
C98 C100 1.364 . S
C99 C98 1.400 . S
C99 C103 1.377 . S
C100 C98 1.364 . S
C100 C101 1.374 . S
C101 H92 0.930 . S
C101 C100 1.374 . S
C101 C102 1.383 . S
C102 O96 1.412 . S
C102 C101 1.383 . S
C102 C103 1.394 . S
C103 H93 0.929 . S
C103 C99 1.377 . S
C103 C102 1.394 . S
C104 O120 1.251 . S
C104 O122 1.254 . S
N105 C106 1.333 . S
N105 C110 1.307 . S
N105 Zn111 2.020 . S
C106 N105 1.333 . S
C106 C107 1.379 . S
C106 H124 0.952 . S
C107 C106 1.379 . S
C107 C108 1.390 . S
C107 H134 0.949 . S
C108 C107 1.390 . S
C108 C109 1.357 . S
C109 C108 1.357 . S
C109 C110 1.370 . S
C109 H135 0.950 . S
C110 N105 1.307 . S
C110 C109 1.370 . S
C110 H128 0.948 . S
Zn111 N105 2.020 . S
Zn111 O120 2.039 . S
Zn111 O126 2.034 . S
Zn111 O130 2.025 . S
Zn111 O132 2.024 1_455 S
C112 O131 1.246 . S
C112 O132 1.249 . S
N113 C114 1.307 1_655 S
N113 C115 1.333 . S
N113 Zn119 2.020 1_655 S
C114 N113 1.307 1_455 S
C114 C118 1.370 1_455 S
C114 H125 0.948 . S
C115 N113 1.333 . S
C115 C116 1.379 . S
C115 H123 0.952 . S
C116 C115 1.379 . S
C116 C117 1.390 . S
C116 H136 0.949 . S
C117 C116 1.390 . S
C117 C118 1.357 . S
C118 C114 1.370 1_655 S
C118 C117 1.357 . S
C118 H137 0.950 1_655 S
Zn119 N113 2.020 1_455 S
Zn119 O122 2.025 1_565 S
Zn119 O127 2.024 . S
Zn119 O129 2.039 1_455 S
Zn119 O131 2.034 1_465 S
O120 C104 1.251 . S
O120 Zn111 2.039 . S
C121 O126 1.246 . S
C121 O127 1.249 1_545 S
O122 C104 1.254 . S
O122 Zn119 2.025 1_545 S
H123 C115 0.952 . S
H124 C106 0.952 . S
H125 C114 0.948 . S
O126 Zn111 2.034 . S
O126 C121 1.246 . S
O127 Zn119 2.024 . S
O127 C121 1.249 1_565 S
H128 C110 0.948 . S
O129 Zn119 2.039 1_655 S
O129 C133 1.251 1_565 S
O130 Zn111 2.025 . S
O130 C133 1.254 1_455 S
O131 C112 1.246 . S
O131 Zn119 2.034 1_645 S
O132 Zn111 2.024 1_655 S
O132 C112 1.249 . S
C133 O129 1.251 1_545 S
C133 O130 1.254 1_655 S
H134 C107 0.949 . S
H135 C109 0.950 . S
H136 C116 0.949 . S
H137 C118 0.950 1_455 S
C138 O154 1.249 1_564 S
C138 O156 1.254 . S
N139 C140 1.334 . S
N139 C144 1.314 . S
N139 Zn145 2.015 1_556 S
C140 N139 1.334 . S
C140 C141 1.379 . S
C140 H158 0.952 1_556 S
C141 C140 1.379 . S
C141 C142 1.390 . S
C141 H168 0.949 . S
C142 C141 1.390 . S
C142 C143 1.357 . S
C143 C142 1.357 . S
C143 C144 1.370 . S
C143 H169 0.950 . S
C144 N139 1.314 . S
C144 C143 1.370 . S
C144 H162 0.948 . S
Zn145 N139 2.015 1_554 S
Zn145 O154 2.037 1_554 S
Zn145 O160 2.034 . S
Zn145 O164 2.025 . S
Zn145 O166 2.024 1_554 S
C146 O165 1.246 1_545 S
C146 O166 1.249 . S
N147 C148 1.307 . S
N147 C149 1.333 . S
N147 Zn153 2.020 . S
C148 N147 1.307 . S
C148 C152 1.370 . S
C148 H159 0.948 . S
C149 N147 1.333 . S
C149 C150 1.379 . S
C149 H157 0.952 . S
C150 C149 1.379 . S
C150 C151 1.390 . S
C150 H170 0.949 . S
C151 C150 1.390 . S
C151 C152 1.357 . S
C152 C148 1.370 . S
C152 C151 1.357 . S
C152 H171 0.950 . S
Zn153 N147 2.020 . S
Zn153 O156 2.025 . S
Zn153 O161 2.031 . S
Zn153 O163 2.039 1_565 S
Zn153 O165 2.034 1_554 S
O154 C138 1.249 1_546 S
O154 Zn145 2.037 1_556 S
C155 O160 1.246 . S
C155 O161 1.229 1_545 S
O156 C138 1.254 . S
O156 Zn153 2.025 . S
H157 C149 0.952 . S
H158 C140 0.952 1_554 S
H159 C148 0.948 . S
O160 Zn145 2.034 . S
O160 C155 1.246 . S
O161 Zn153 2.031 . S
O161 C155 1.229 1_565 S
H162 C144 0.948 . S
O163 Zn153 2.039 1_545 S
O163 C167 1.251 . S
O164 Zn145 2.025 . S
O164 C167 1.254 . S
O165 C146 1.246 1_565 S
O165 Zn153 2.034 1_556 S
O166 Zn145 2.024 1_556 S
O166 C146 1.249 . S
C167 O163 1.251 . S
C167 O164 1.254 . S
H168 C141 0.949 . S
H169 C143 0.950 . S
H170 C150 0.949 . S
H171 C152 0.950 . S
C172 O188 1.251 . S
C172 O190 1.254 . S
N173 C174 1.333 . S
N173 C178 1.307 . S
N173 Zn179 2.020 . S
C174 N173 1.333 . S
C174 C175 1.379 . S
C174 H192 0.952 . S
C175 C174 1.379 . S
C175 C176 1.390 . S
C175 H202 0.949 . S
C176 C175 1.390 . S
C176 C177 1.357 . S
C177 C176 1.357 . S
C177 C178 1.370 . S
C177 H203 0.950 . S
C178 N173 1.307 . S
C178 C177 1.370 . S
C178 H196 0.948 . S
Zn179 N173 2.020 . S
Zn179 O188 2.039 . S
Zn179 O194 2.034 . S
Zn179 O198 2.025 . S
Zn179 O200 2.024 . S
C180 O199 1.246 . S
C180 O200 1.249 . S
N181 C182 1.307 . S
N181 C183 1.333 . S
N181 Zn187 2.020 . S
C182 N181 1.307 . S
C182 C186 1.370 . S
C182 H193 0.948 . S
C183 N181 1.333 . S
C183 C184 1.379 . S
C183 H191 0.952 . S
C184 C183 1.379 . S
C184 C185 1.390 . S
C184 H204 0.949 . S
C185 C184 1.390 . S
C185 C186 1.357 . S
C186 C182 1.370 . S
C186 C185 1.357 . S
C186 H205 0.950 . S
Zn187 N181 2.020 . S
Zn187 O190 2.025 . S
Zn187 O195 2.024 . S
Zn187 O197 2.039 . S
Zn187 O199 2.034 . S
O188 C172 1.251 . S
O188 Zn179 2.039 . S
C189 O194 1.246 . S
C189 O195 1.249 . S
O190 C172 1.254 . S
O190 Zn187 2.025 . S
H191 C183 0.952 . S
H192 C174 0.952 . S
H193 C182 0.948 . S
O194 Zn179 2.034 . S
O194 C189 1.246 . S
O195 Zn187 2.024 . S
O195 C189 1.249 . S
H196 C178 0.948 . S
O197 Zn187 2.039 . S
O197 C201 1.251 . S
O198 Zn179 2.025 . S
O198 C201 1.254 . S
O199 C180 1.246 . S
O199 Zn187 2.034 . S
O200 Zn179 2.024 . S
O200 C180 1.249 . S
C201 O197 1.251 . S
C201 O198 1.254 . S
H202 C175 0.949 . S
H203 C177 0.950 . S
H204 C184 0.949 . S
H205 C186 0.950 . S
C206 O222 1.251 . S
C206 O224 1.254 1_554 S
N207 C208 1.333 . S
N207 C212 1.307 1_455 S
N207 Zn213 2.020 . S
C208 N207 1.333 . S
C208 C209 1.379 1_455 S
C208 H226 0.952 . S
C209 C208 1.379 1_655 S
C209 C210 1.390 . S
C209 H236 0.949 . S
C210 C209 1.390 . S
C210 C211 1.357 . S
C211 C210 1.357 . S
C211 C212 1.370 . S
C211 H237 0.950 . S
C212 N207 1.307 1_655 S
C212 C211 1.370 . S
C212 H230 0.948 . S
Zn213 N207 2.020 . S
Zn213 O222 2.039 . S
Zn213 O228 2.034 . S
Zn213 O232 2.025 . S
Zn213 O234 2.024 1_455 S
C214 O233 1.246 1_554 S
C214 O234 1.249 . S
N215 C216 1.307 . S
N215 C217 1.333 . S
N215 Zn221 2.020 . S
C216 N215 1.307 . S
C216 C220 1.370 . S
C216 H227 0.948 . S
C217 N215 1.333 . S
C217 C218 1.379 . S
C217 H225 0.952 . S
C218 C217 1.379 . S
C218 C219 1.390 . S
C218 H238 0.949 . S
C219 C218 1.390 . S
C219 C220 1.357 . S
C220 C216 1.370 . S
C220 C219 1.357 . S
C220 H239 0.950 . S
Zn221 N215 2.020 . S
Zn221 O224 2.025 . S
Zn221 O229 2.024 1_556 S
Zn221 O231 2.039 1_556 S
Zn221 O233 2.034 1_455 S
O222 C206 1.251 . S
O222 Zn213 2.039 . S
C223 O228 1.246 . S
C223 O229 1.249 . S
O224 C206 1.254 1_556 S
O224 Zn221 2.025 . S
H225 C217 0.952 . S
H226 C208 0.952 . S
H227 C216 0.948 . S
O228 Zn213 2.034 . S
O228 C223 1.246 . S
O229 Zn221 2.024 1_554 S
O229 C223 1.249 . S
H230 C212 0.948 . S
O231 Zn221 2.039 1_554 S
O231 C235 1.251 . S
O232 Zn213 2.025 . S
O232 C235 1.254 . S
O233 C214 1.246 1_556 S
O233 Zn221 2.034 1_655 S
O234 Zn213 2.024 1_655 S
O234 C214 1.249 . S
C235 O231 1.251 . S
C235 O232 1.254 . S
H236 C209 0.949 . S
H237 C211 0.950 . S
H238 C218 0.949 . S
H239 C220 0.950 . S
C240 C241 1.369 . S
C240 C242 1.419 . S
C240 H244 0.930 . S
C241 C240 1.369 . S
C241 C250 1.429 . S
C242 C240 1.419 . S
C242 C243 1.363 . S
C242 H245 0.929 . S
C243 C242 1.363 . S
C243 C249 1.428 . S
H244 C240 0.930 . S
H245 C242 0.929 . S
S246 N247 1.613 . S
S246 N248 1.610 . S
N247 S246 1.613 . S
N247 C250 1.350 . S
N248 S246 1.610 . S
N248 C249 1.351 . S
C249 C243 1.428 . S
C249 N248 1.351 . S
C249 C250 1.434 . S
C250 C241 1.429 . S
C250 N247 1.350 . S
C250 C249 1.434 . S
C251 C252 1.369 . S
C251 C253 1.419 . S
C251 H255 0.930 . S
C252 C251 1.369 . S
C252 C261 1.429 . S
C253 C251 1.419 . S
C253 C254 1.363 . S
C253 H256 0.929 1_565 S
C254 C253 1.363 . S
C254 C260 1.428 . S
H255 C251 0.930 . S
H256 C253 0.929 1_545 S
S257 N258 1.613 . S
S257 N259 1.610 . S
N258 S257 1.613 . S
N258 C261 1.350 . S
N259 S257 1.610 . S
N259 C260 1.351 . S
C260 C254 1.428 . S
C260 N259 1.351 . S
C260 C261 1.434 . S
C261 C252 1.429 . S
C261 N258 1.350 . S
C261 C260 1.434 . S
C262 C263 1.369 . S
C262 C264 1.419 . S
C262 H266 0.930 . S
C263 C262 1.369 . S
C263 C272 1.429 . S
C264 C262 1.419 . S
C264 C265 1.363 . S
C264 H267 0.929 . S
C265 C264 1.363 . S
C265 C271 1.428 . S
H266 C262 0.930 . S
H267 C264 0.929 . S
S268 N269 1.613 . S
S268 N270 1.610 . S
N269 S268 1.613 . S
N269 C272 1.350 . S
N270 S268 1.610 . S
N270 C271 1.351 . S
C271 C265 1.428 . S
C271 N270 1.351 . S
C271 C272 1.434 . S
C272 C263 1.429 . S
C272 N269 1.350 . S
C272 C271 1.434 . S
C273 C274 1.369 . S
C273 C275 1.419 1_655 S
C273 H277 0.930 1_655 S
C274 C273 1.369 . S
C274 C283 1.429 . S
C275 C273 1.419 1_455 S
C275 C276 1.363 1_455 S
C275 H278 0.929 . S
C276 C275 1.363 1_655 S
C276 C282 1.428 . S
H277 C273 0.930 1_455 S
H278 C275 0.929 . S
S279 N280 1.613 . S
S279 N281 1.610 . S
N280 S279 1.613 . S
N280 C283 1.350 . S
N281 S279 1.610 . S
N281 C282 1.351 . S
C282 C276 1.428 . S
C282 N281 1.351 . S
C282 C283 1.434 . S
C283 C274 1.429 . S
C283 N280 1.350 . S
C283 C282 1.434 . S
C284 C285 1.369 . S
C284 C286 1.419 . S
C284 H288 0.930 . S
C285 C284 1.369 . S
C285 C294 1.429 . S
C286 C284 1.419 . S
C286 C287 1.363 . S
C286 H289 0.929 . S
C287 C286 1.363 . S
C287 C293 1.428 . S
H288 C284 0.930 . S
H289 C286 0.929 . S
S290 N291 1.621 . S
S290 N292 1.610 . S
N291 S290 1.621 . S
N291 C294 1.341 1_565 S
N292 S290 1.610 . S
N292 C293 1.351 1_565 S
C293 C287 1.428 . S
C293 N292 1.351 1_545 S
C293 C294 1.434 . S
C294 C285 1.429 . S
C294 N291 1.341 1_545 S
C294 C293 1.434 . S
C295 C296 1.369 1_545 S
C295 C297 1.419 . S
C295 H299 0.930 . S
C296 C295 1.369 1_565 S
C296 C305 1.429 . S
C297 C295 1.419 . S
C297 C298 1.363 1_545 S
C297 H300 0.929 . S
C298 C297 1.363 1_565 S
C298 C304 1.428 . S
H299 C295 0.930 . S
H300 C297 0.929 . S
S301 N302 1.613 . S
S301 N303 1.610 . S
N302 S301 1.613 . S
N302 C305 1.350 . S
N303 S301 1.610 . S
N303 C304 1.351 . S
C304 C298 1.428 . S
C304 N303 1.351 . S
C304 C305 1.434 . S
C305 C296 1.429 . S
C305 N302 1.350 . S
C305 C304 1.434 . S
C306 C307 1.369 1_556 S
C306 C308 1.419 . S
C306 H310 0.930 . S
C307 C306 1.369 1_554 S
C307 C316 1.429 . S
C308 C306 1.419 . S
C308 C309 1.363 1_556 S
C308 H311 0.929 . S
C309 C308 1.363 1_554 S
C309 C315 1.428 . S
H310 C306 0.930 . S
H311 C308 0.929 . S
S312 N313 1.613 . S
S312 N314 1.610 . S
N313 S312 1.613 . S
N313 C316 1.350 . S
N314 S312 1.610 . S
N314 C315 1.351 . S
C315 C309 1.428 . S
C315 N314 1.351 . S
C315 C316 1.434 . S
C316 C307 1.429 . S
C316 N313 1.350 . S
C316 C315 1.434 . S
C317 C318 1.369 . S
C317 C319 1.419 . S
C317 H321 0.930 . S
C318 C317 1.369 . S
C318 C327 1.429 . S
C319 C317 1.419 . S
C319 C320 1.363 . S
C319 H322 0.929 . S
C320 C319 1.363 . S
C320 C326 1.428 . S
H321 C317 0.930 . S
H322 C319 0.929 . S
S323 N324 1.613 . S
S323 N325 1.610 . S
N324 S323 1.613 . S
N324 C327 1.350 . S
N325 S323 1.610 . S
N325 C326 1.351 . S
C326 C320 1.428 . S
C326 N325 1.351 . S
C326 C327 1.434 . S
C327 C318 1.429 . S
C327 N324 1.350 . S
C327 C326 1.434 . S
C328 C329 1.369 . S
C328 C330 1.419 . S
C328 H332 0.930 . S
C329 C328 1.369 . S
C329 C338 1.429 . S
C330 C328 1.419 . S
C330 C331 1.363 . S
C330 H333 0.929 . S
C331 C330 1.363 . S
C331 C337 1.428 . S
H332 C328 0.930 . S
H333 C330 0.929 . S
S334 N335 1.613 1_655 S
S334 N336 1.610 1_655 S
N335 S334 1.613 1_455 S
N335 C338 1.350 . S
N336 S334 1.610 1_455 S
N336 C337 1.351 . S
C337 C331 1.428 . S
C337 N336 1.351 . S
C337 C338 1.434 . S
C338 C329 1.429 . S
C338 N335 1.350 . S
C338 C337 1.434 . S
C339 C340 1.369 1_554 S
C339 C341 1.421 . S
C339 H343 0.930 . S
C340 C339 1.369 1_556 S
C340 C349 1.429 . S
C341 C339 1.421 . S
C341 C342 1.350 1_554 S
C341 H344 0.941 . S
C342 C341 1.350 1_556 S
C342 C348 1.428 . S
H343 C339 0.930 . S
H344 C341 0.941 . S
S345 N346 1.613 . S
S345 N347 1.610 . S
N346 S345 1.613 . S
N346 C349 1.350 . S
N347 S345 1.610 . S
N347 C348 1.351 . S
C348 C342 1.428 . S
C348 N347 1.351 . S
C348 C349 1.434 . S
C349 C340 1.429 . S
C349 N346 1.350 . S
C349 C348 1.434 . S
C350 C351 1.369 . S
C350 C352 1.419 . S
C350 H354 0.930 . S
C351 C350 1.369 . S
C351 C360 1.429 . S
C352 C350 1.419 . S
C352 C353 1.363 . S
C352 H355 0.929 . S
C353 C352 1.363 . S
C353 C359 1.428 . S
H354 C350 0.930 . S
H355 C352 0.929 . S
S356 N357 1.613 . S
S356 N358 1.610 . S
N357 S356 1.613 . S
N357 C360 1.350 . S
N358 S356 1.610 . S
N358 C359 1.351 . S
C359 C353 1.428 . S
C359 N358 1.351 . S
C359 C360 1.434 . S
C360 C351 1.429 . S
C360 N357 1.350 . S
C360 C359 1.434 . S
C361 C362 1.369 . S
C361 C363 1.419 . S
C361 H365 0.930 . S
C362 C361 1.369 . S
C362 C371 1.429 . S
C363 C361 1.419 . S
C363 C364 1.363 . S
C363 H366 0.929 . S
C364 C363 1.363 . S
C364 C370 1.428 . S
H365 C361 0.930 . S
H366 C363 0.929 . S
S367 N368 1.613 . S
S367 N369 1.610 . S
N368 S367 1.613 . S
N368 C371 1.350 . S
N369 S367 1.610 . S
N369 C370 1.351 . S
C370 C364 1.428 . S
C370 N369 1.351 . S
C370 C371 1.434 . S
C371 C362 1.429 . S
C371 N368 1.350 . S
C371 C370 1.434 . S
C372 C373 1.369 . S
C372 C374 1.419 . S
C372 H376 0.930 . S
C373 C372 1.369 . S
C373 C382 1.429 1_565 S
C374 C372 1.419 . S
C374 C375 1.363 . S
C374 H377 0.929 . S
C375 C374 1.363 . S
C375 C381 1.428 1_565 S
H376 C372 0.930 . S
H377 C374 0.929 . S
S378 N379 1.613 . S
S378 N380 1.610 . S
N379 S378 1.613 . S
N379 C382 1.350 . S
N380 S378 1.610 . S
N380 C381 1.351 . S
C381 C375 1.428 1_545 S
C381 N380 1.351 . S
C381 C382 1.434 . S
C382 C373 1.429 1_545 S
C382 N379 1.350 . S
C382 C381 1.434 . S
C383 C384 1.369 . S
C383 C385 1.419 . S
C383 H387 0.930 . S
C384 C383 1.369 . S
C384 C393 1.429 . S
C385 C383 1.419 . S
C385 C386 1.363 . S
C385 H388 0.929 . S
C386 C385 1.363 . S
C386 C392 1.428 . S
H387 C383 0.930 . S
H388 C385 0.929 . S
S389 N390 1.613 . S
S389 N391 1.610 . S
N390 S389 1.613 . S
N390 C393 1.350 . S
N391 S389 1.610 . S
N391 C392 1.351 . S
C392 C386 1.428 . S
C392 N391 1.351 . S
C392 C393 1.434 . S
C393 C384 1.429 . S
C393 N390 1.350 . S
C393 C392 1.434 . S
C394 C395 1.369 . S
C394 C396 1.419 . S
C394 H398 0.930 . S
C395 C394 1.369 . S
C395 C404 1.429 . S
C396 C394 1.419 . S
C396 C397 1.363 . S
C396 H399 0.929 . S
C397 C396 1.363 . S
C397 C403 1.428 . S
H398 C394 0.930 . S
H399 C396 0.929 . S
S400 N401 1.613 . S
S400 N402 1.610 . S
N401 S400 1.613 . S
N401 C404 1.350 . S
N402 S400 1.610 . S
N402 C403 1.351 . S
C403 C397 1.428 . S
C403 N402 1.351 . S
C403 C404 1.434 . S
C404 C395 1.429 . S
C404 N401 1.350 . S
C404 C403 1.434 . S
C405 C406 1.369 . S
C405 C407 1.419 . S
C405 H409 0.930 . S
C406 C405 1.369 . S
C406 C415 1.429 . S
C407 C405 1.419 . S
C407 C408 1.363 . S
C407 H410 0.929 . S
C408 C407 1.363 . S
C408 C414 1.428 . S
H409 C405 0.930 . S
H410 C407 0.929 . S
S411 N412 1.613 . S
S411 N413 1.610 . S
N412 S411 1.613 . S
N412 C415 1.350 . S
N413 S411 1.610 . S
N413 C414 1.351 . S
C414 C408 1.428 . S
C414 N413 1.351 . S
C414 C415 1.434 . S
C415 C406 1.429 . S
C415 N412 1.350 . S
C415 C414 1.434 . S
C416 C417 1.369 . S
C416 C418 1.419 1_565 S
C416 H420 0.930 1_565 S
C417 C416 1.369 . S
C417 C426 1.429 . S
C418 C416 1.419 1_545 S
C418 C419 1.363 1_545 S
C418 H421 0.929 . S
C419 C418 1.363 1_565 S
C419 C425 1.428 . S
H420 C416 0.930 1_545 S
H421 C418 0.929 . S
S422 N423 1.613 . S
S422 N424 1.610 . S
N423 S422 1.613 . S
N423 C426 1.350 . S
N424 S422 1.610 . S
N424 C425 1.351 . S
C425 C419 1.428 . S
C425 N424 1.351 . S
C425 C426 1.434 . S
C426 C417 1.429 . S
C426 N423 1.350 . S
C426 C425 1.434 . S
C427 C428 1.369 . S
C427 C429 1.419 . S
C427 H431 0.930 . S
C428 C427 1.369 . S
C428 C437 1.429 . S
C429 C427 1.419 . S
C429 C430 1.363 . S
C429 H432 0.929 . S
C430 C429 1.363 . S
C430 C436 1.428 . S
H431 C427 0.930 . S
H432 C429 0.929 . S
S433 N434 1.613 . S
S433 N435 1.610 . S
N434 S433 1.613 . S
N434 C437 1.350 . S
N435 S433 1.610 . S
N435 C436 1.351 . S
C436 C430 1.428 . S
C436 N435 1.351 . S
C436 C437 1.434 . S
C437 C428 1.429 . S
C437 N434 1.350 . S
C437 C436 1.434 . S
C438 C439 1.369 . S
C438 C440 1.419 . S
C438 H442 0.930 . S
C439 C438 1.369 . S
C439 C448 1.429 . S
C440 C438 1.419 . S
C440 C441 1.363 . S
C440 H443 0.929 . S
C441 C440 1.363 . S
C441 C447 1.428 . S
H442 C438 0.930 . S
H443 C440 0.929 . S
S444 N445 1.613 . S
S444 N446 1.610 . S
N445 S444 1.613 . S
N445 C448 1.350 . S
N446 S444 1.610 . S
N446 C447 1.351 . S
C447 C441 1.428 . S
C447 N446 1.351 . S
C447 C448 1.434 . S
C448 C439 1.429 . S
C448 N445 1.350 . S
C448 C447 1.434 . S
C449 C450 1.369 . S
C449 C451 1.419 . S
C449 H453 0.930 . S
C450 C449 1.369 . S
C450 C459 1.429 . S
C451 C449 1.419 . S
C451 C452 1.363 . S
C451 H454 0.929 . S
C452 C451 1.363 . S
C452 C458 1.428 . S
H453 C449 0.930 . S
H454 C451 0.929 . S
S455 N456 1.613 . S
S455 N457 1.610 . S
N456 S455 1.613 . S
N456 C459 1.350 . S
N457 S455 1.610 . S
N457 C458 1.351 . S
C458 C452 1.428 . S
C458 N457 1.351 . S
C458 C459 1.434 . S
C459 C450 1.429 . S
C459 N456 1.350 . S
C459 C458 1.434 . S
C460 C461 1.369 . S
C460 C462 1.419 1_556 S
C460 H464 0.930 . S
C461 C460 1.369 . S
C461 C470 1.429 1_655 S
C462 C460 1.419 1_554 S
C462 C463 1.363 1_654 S
C462 H465 0.929 . S
C463 C462 1.363 1_456 S
C463 C469 1.428 . S
H464 C460 0.930 . S
H465 C462 0.929 . S
S466 N467 1.613 . S
S466 N468 1.610 . S
N467 S466 1.613 . S
N467 C470 1.350 . S
N468 S466 1.610 . S
N468 C469 1.351 . S
C469 C463 1.428 . S
C469 N468 1.351 . S
C469 C470 1.434 . S
C470 C461 1.429 1_455 S
C470 N467 1.350 . S
C470 C469 1.434 . S
C471 C472 1.369 . S
C471 C473 1.419 . S
C471 H475 0.930 . S
C472 C471 1.369 . S
C472 C481 1.429 . S
C473 C471 1.419 . S
C473 C474 1.363 . S
C473 H476 0.929 . S
C474 C473 1.363 . S
C474 C480 1.428 . S
H475 C471 0.930 . S
H476 C473 0.929 . S
S477 N478 1.613 . S
S477 N479 1.610 1_556 S
N478 S477 1.613 . S
N478 C481 1.350 1_556 S
N479 S477 1.610 1_554 S
N479 C480 1.351 . S
C480 C474 1.428 . S
C480 N479 1.351 . S
C480 C481 1.434 . S
C481 C472 1.429 . S
C481 N478 1.350 1_554 S
C481 C480 1.434 . S
C482 C483 1.369 . S
C482 C484 1.419 . S
C482 H486 0.930 . S
C483 C482 1.369 . S
C483 C492 1.429 . S
C484 C482 1.419 . S
C484 C485 1.363 . S
C484 H487 0.929 . S
C485 C484 1.363 . S
C485 C491 1.428 . S
H486 C482 0.930 . S
H487 C484 0.929 . S
S488 N489 1.613 . S
S488 N490 1.610 . S
N489 S488 1.613 . S
N489 C492 1.350 . S
N490 S488 1.610 . S
N490 C491 1.351 . S
C491 C485 1.428 . S
C491 N490 1.351 . S
C491 C492 1.434 . S
C492 C483 1.429 . S
C492 N489 1.350 . S
C492 C491 1.434 . S
C493 C494 1.369 . S
C493 C495 1.419 . S
C493 H497 0.930 . S
C494 C493 1.369 . S
C494 C503 1.429 . S
C495 C493 1.419 . S
C495 C496 1.363 . S
C495 H498 0.929 . S
C496 C495 1.363 . S
C496 C502 1.428 . S
H497 C493 0.930 . S
H498 C495 0.929 . S
S499 N500 1.613 . S
S499 N501 1.610 . S
N500 S499 1.613 . S
N500 C503 1.350 . S
N501 S499 1.610 . S
N501 C502 1.351 . S
C502 C496 1.428 . S
C502 N501 1.351 . S
C502 C503 1.434 . S
C503 C494 1.429 . S
C503 N500 1.350 . S
C503 C502 1.434 . S
C241 C9 2.693 . S
C243 C104 2.704 . S
C252 C21 2.262 . S
C254 C146 2.275 1_565 S
C265 C176 0.864 . S
C263 C30 0.854 . S
C274 C43 0.859 . S
C276 C210 0.901 . S
C287 C167 1.760 . S
C285 C4 1.763 . S
C298 C121 2.245 1_565 S
C296 C22 2.236 . S
C309 C214 1.038 . S
C307 C34 1.026 1_554 S
C320 C180 1.214 . S
C318 C48 1.186 . S
C329 C8 2.300 . S
C331 C235 2.311 . S
C342 C142 1.249 . S
C340 C35 1.239 . S
C351 C47 1.184 . S
C353 C117 1.219 . S
C362 C17 1.963 . S
C364 C201 1.996 . S
C375 C133 2.336 1_565 S
C373 C60 2.324 . S
C384 C74 2.530 . S
C386 C155 2.546 . S
C395 C82 0.885 . S
C397 C185 0.872 . S
C406 C100 1.260 . S
C408 C219 1.292 . S
C417 C61 2.094 . S
C419 C138 2.111 1_556 S
C430 C112 1.962 . S
C428 C73 1.936 . S
C441 C223 1.449 . S
C439 C87 1.453 . S
C452 C189 0.959 . S
C450 C95 0.889 . S
C461 C56 2.162 . S
C463 C206 2.280 1_556 S
C474 C151 1.306 . S
C472 C86 1.281 . S
C485 C108 1.115 . S
C483 C99 1.091 . S
C494 C69 2.099 . S
C496 C172 2.103 . S
