# Generated by pormake.
# Topology eea, (3,6)-cn, num edge types: 1
# Building blocks:
#     Node 0, Type 0, BuildingBlock: BETDAH_clean_linker_0, # of connection points: 3
#     Node 1, Type 0, BuildingBlock: BETDAH_clean_linker_0, # of connection points: 3
#     Node 2, Type 0, BuildingBlock: BETDAH_clean_linker_0, # of connection points: 3
#     Node 3, Type 0, BuildingBlock: BETDAH_clean_linker_0, # of connection points: 3
#     Node 4, Type 0, BuildingBlock: BETDAH_clean_linker_0, # of connection points: 3
#     Node 5, Type 0, BuildingBlock: BETDAH_clean_linker_0, # of connection points: 3
#     Node 6, Type 0, BuildingBlock: BETDAH_clean_linker_0, # of connection points: 3
#     Node 7, Type 0, BuildingBlock: BETDAH_clean_linker_0, # of connection points: 3
#     Node 8, Type 0, BuildingBlock: BETDAH_clean_linker_0, # of connection points: 3
#     Node 9, Type 0, BuildingBlock: BETDAH_clean_linker_0, # of connection points: 3
#     Node 10, Type 0, BuildingBlock: BETDAH_clean_linker_0, # of connection points: 3
#     Node 11, Type 0, BuildingBlock: BETDAH_clean_linker_0, # of connection points: 3
#     Node 12, Type 0, BuildingBlock: BETDAH_clean_linker_0, # of connection points: 3
#     Node 13, Type 0, BuildingBlock: BETDAH_clean_linker_0, # of connection points: 3
#     Node 14, Type 0, BuildingBlock: BETDAH_clean_linker_0, # of connection points: 3
#     Node 15, Type 0, BuildingBlock: BETDAH_clean_linker_0, # of connection points: 3
#     Node 16, Type 0, BuildingBlock: BETDAH_clean_linker_0, # of connection points: 3
#     Node 17, Type 0, BuildingBlock: BETDAH_clean_linker_0, # of connection points: 3
#     Node 18, Type 1, BuildingBlock: CUKXOW_clean_sbu_0, # of connection points: 6
#     Node 19, Type 1, BuildingBlock: CUKXOW_clean_sbu_0, # of connection points: 6
#     Node 20, Type 1, BuildingBlock: CUKXOW_clean_sbu_0, # of connection points: 6
#     Node 21, Type 1, BuildingBlock: CUKXOW_clean_sbu_0, # of connection points: 6
#     Node 22, Type 1, BuildingBlock: CUKXOW_clean_sbu_0, # of connection points: 6
#     Node 23, Type 1, BuildingBlock: CUKXOW_clean_sbu_0, # of connection points: 6
#     Node 24, Type 1, BuildingBlock: CUKXOW_clean_sbu_0, # of connection points: 6
#     Node 25, Type 1, BuildingBlock: CUKXOW_clean_sbu_0, # of connection points: 6
#     Node 26, Type 1, BuildingBlock: CUKXOW_clean_sbu_0, # of connection points: 6
#     Edge 27, Type (0, 1), BuildingBlock: AJUNOK_clean_linker_0, # of connection points: 2
#     Edge 28, Type (0, 1), BuildingBlock: AJUNOK_clean_linker_0, # of connection points: 2
#     Edge 29, Type (0, 1), BuildingBlock: AJUNOK_clean_linker_0, # of connection points: 2
#     Edge 30, Type (0, 1), BuildingBlock: AJUNOK_clean_linker_0, # of connection points: 2
#     Edge 31, Type (0, 1), BuildingBlock: AJUNOK_clean_linker_0, # of connection points: 2
#     Edge 32, Type (0, 1), BuildingBlock: AJUNOK_clean_linker_0, # of connection points: 2
#     Edge 33, Type (0, 1), BuildingBlock: AJUNOK_clean_linker_0, # of connection points: 2
#     Edge 34, Type (0, 1), BuildingBlock: AJUNOK_clean_linker_0, # of connection points: 2
#     Edge 35, Type (0, 1), BuildingBlock: AJUNOK_clean_linker_0, # of connection points: 2
#     Edge 36, Type (0, 1), BuildingBlock: AJUNOK_clean_linker_0, # of connection points: 2
#     Edge 37, Type (0, 1), BuildingBlock: AJUNOK_clean_linker_0, # of connection points: 2
#     Edge 38, Type (0, 1), BuildingBlock: AJUNOK_clean_linker_0, # of connection points: 2
#     Edge 39, Type (0, 1), BuildingBlock: AJUNOK_clean_linker_0, # of connection points: 2
#     Edge 40, Type (0, 1), BuildingBlock: AJUNOK_clean_linker_0, # of connection points: 2
#     Edge 41, Type (0, 1), BuildingBlock: AJUNOK_clean_linker_0, # of connection points: 2
#     Edge 42, Type (0, 1), BuildingBlock: AJUNOK_clean_linker_0, # of connection points: 2
#     Edge 43, Type (0, 1), BuildingBlock: AJUNOK_clean_linker_0, # of connection points: 2
#     Edge 44, Type (0, 1), BuildingBlock: AJUNOK_clean_linker_0, # of connection points: 2
#     Edge 45, Type (0, 1), BuildingBlock: AJUNOK_clean_linker_0, # of connection points: 2
#     Edge 46, Type (0, 1), BuildingBlock: AJUNOK_clean_linker_0, # of connection points: 2
#     Edge 47, Type (0, 1), BuildingBlock: AJUNOK_clean_linker_0, # of connection points: 2
#     Edge 48, Type (0, 1), BuildingBlock: AJUNOK_clean_linker_0, # of connection points: 2
#     Edge 49, Type (0, 1), BuildingBlock: AJUNOK_clean_linker_0, # of connection points: 2
#     Edge 50, Type (0, 1), BuildingBlock: AJUNOK_clean_linker_0, # of connection points: 2
#     Edge 51, Type (0, 1), BuildingBlock: AJUNOK_clean_linker_0, # of connection points: 2
#     Edge 52, Type (0, 1), BuildingBlock: AJUNOK_clean_linker_0, # of connection points: 2
#     Edge 53, Type (0, 1), BuildingBlock: AJUNOK_clean_linker_0, # of connection points: 2
#     Edge 54, Type (0, 1), BuildingBlock: AJUNOK_clean_linker_0, # of connection points: 2
#     Edge 55, Type (0, 1), BuildingBlock: AJUNOK_clean_linker_0, # of connection points: 2
#     Edge 56, Type (0, 1), BuildingBlock: AJUNOK_clean_linker_0, # of connection points: 2
#     Edge 57, Type (0, 1), BuildingBlock: AJUNOK_clean_linker_0, # of connection points: 2
#     Edge 58, Type (0, 1), BuildingBlock: AJUNOK_clean_linker_0, # of connection points: 2
#     Edge 59, Type (0, 1), BuildingBlock: AJUNOK_clean_linker_0, # of connection points: 2
#     Edge 60, Type (0, 1), BuildingBlock: AJUNOK_clean_linker_0, # of connection points: 2
#     Edge 61, Type (0, 1), BuildingBlock: AJUNOK_clean_linker_0, # of connection points: 2
#     Edge 62, Type (0, 1), BuildingBlock: AJUNOK_clean_linker_0, # of connection points: 2
#     Edge 63, Type (0, 1), BuildingBlock: AJUNOK_clean_linker_0, # of connection points: 2
#     Edge 64, Type (0, 1), BuildingBlock: AJUNOK_clean_linker_0, # of connection points: 2
#     Edge 65, Type (0, 1), BuildingBlock: AJUNOK_clean_linker_0, # of connection points: 2
#     Edge 66, Type (0, 1), BuildingBlock: AJUNOK_clean_linker_0, # of connection points: 2
#     Edge 67, Type (0, 1), BuildingBlock: AJUNOK_clean_linker_0, # of connection points: 2
#     Edge 68, Type (0, 1), BuildingBlock: AJUNOK_clean_linker_0, # of connection points: 2
#     Edge 69, Type (0, 1), BuildingBlock: AJUNOK_clean_linker_0, # of connection points: 2
#     Edge 70, Type (0, 1), BuildingBlock: AJUNOK_clean_linker_0, # of connection points: 2
#     Edge 71, Type (0, 1), BuildingBlock: AJUNOK_clean_linker_0, # of connection points: 2
#     Edge 72, Type (0, 1), BuildingBlock: AJUNOK_clean_linker_0, # of connection points: 2
#     Edge 73, Type (0, 1), BuildingBlock: AJUNOK_clean_linker_0, # of connection points: 2
#     Edge 74, Type (0, 1), BuildingBlock: AJUNOK_clean_linker_0, # of connection points: 2
#     Edge 75, Type (0, 1), BuildingBlock: AJUNOK_clean_linker_0, # of connection points: 2
#     Edge 76, Type (0, 1), BuildingBlock: AJUNOK_clean_linker_0, # of connection points: 2
#     Edge 77, Type (0, 1), BuildingBlock: AJUNOK_clean_linker_0, # of connection points: 2
#     Edge 78, Type (0, 1), BuildingBlock: AJUNOK_clean_linker_0, # of connection points: 2
#     Edge 79, Type (0, 1), BuildingBlock: AJUNOK_clean_linker_0, # of connection points: 2
#     Edge 80, Type (0, 1), BuildingBlock: AJUNOK_clean_linker_0, # of connection points: 2
# Relax obj value: 0.033
# Max RMSD: 0.161
# Mean RMSD: 0.086
data_MOF--net-eea--node1-CUKXOW_clean_sbu_0--node2-BETDAH_clean_linker_0--edge1-AJUNOK_clean_linker_0
_symmetry_space_group_name_H-M    P1
_symmetry_Int_Tables_number       1
_symmetry_cell_setting            triclinic
loop_
_symmetry_equiv_pos_as_xyz
'x, y, z'
_cell_length_a     44.832453
_cell_length_b     41.532562
_cell_length_c     35.265453
_cell_angle_alpha  93.558356
_cell_angle_beta   93.626551
_cell_angle_gamma 119.89865
loop_
_atom_site_label
_atom_site_type_symbol
_atom_site_fract_x
_atom_site_fract_y
_atom_site_fract_z
_atom_type_partial_charge
H0 H 0.28048 0.07603 0.4688 0.0
H1 H 0.28235 0.17976 0.45773 0.0
H2 H 0.2324 0.08995 0.36665 0.0
C3 C 0.27386 0.09314 0.45217 0.0
C4 C 0.25474 0.07835 0.41614 0.0
C5 C 0.28401 0.12969 0.46722 0.0
C6 C 0.27466 0.15161 0.44612 0.0
C7 C 0.25583 0.13698 0.40969 0.0
C8 C 0.24652 0.10079 0.3949 0.0
N9 N 0.24638 0.1577 0.38626 0.0
C10 C 0.2429 0.18792 0.39871 0.0
H11 H 0.94822 0.21115 0.48361 0.0
H12 H 0.84396 0.12486 0.44205 0.0
H13 H 0.92504 0.15575 0.36933 0.0
C14 C 0.92987 0.19024 0.46121 0.0
C15 C 0.94105 0.18571 0.42594 0.0
C16 C 0.89466 0.16891 0.46695 0.0
C17 C 0.87101 0.14178 0.43774 0.0
C18 C 0.8822 0.13707 0.40262 0.0
C19 C 0.91683 0.15944 0.39675 0.0
N20 N 0.85898 0.11121 0.372 0.0
C21 C 0.83459 0.07462 0.37644 0.0
H22 H 0.83181 0.74882 0.49451 0.0
H23 H 0.89408 0.69852 0.47471 0.0
H24 H 0.87723 0.75804 0.38884 0.0
C25 C 0.84784 0.7433 0.47652 0.0
C26 C 0.85252 0.75609 0.44017 0.0
C27 C 0.86187 0.72164 0.489 0.0
C28 C 0.8836 0.71581 0.46607 0.0
C29 C 0.89021 0.73026 0.43071 0.0
C30 C 0.87424 0.74979 0.41754 0.0
N31 N 0.90829 0.71987 0.40593 0.0
C32 C 0.94317 0.74311 0.40239 0.0
H33 H 0.09105 0.29532 0.56243 0.0
H34 H 0.1615 0.25459 0.54289 0.0
H35 H 0.08078 0.19942 0.61329 0.0
C36 C 0.1 0.27593 0.56665 0.0
C37 C 0.08162 0.24641 0.58903 0.0
C38 C 0.12912 0.27962 0.54922 0.0
C39 C 0.1404 0.25404 0.55671 0.0
C40 C 0.12317 0.22576 0.58022 0.0
C41 C 0.09395 0.22194 0.59572 0.0
N42 N 0.13239 0.19818 0.58556 0.0
C43 C 0.16568 0.20611 0.59761 0.0
H44 H 0.76015 0.79898 0.56203 0.0
H45 H 0.7575 0.89961 0.59274 0.0
H46 H 0.7999 0.85712 0.67513 0.0
C47 C 0.76582 0.82217 0.58283 0.0
C48 C 0.78117 0.82486 0.6198 0.0
C49 C 0.75675 0.84881 0.57316 0.0
C50 C 0.76436 0.87903 0.6002 0.0
C51 C 0.78016 0.88205 0.63703 0.0
C52 C 0.78795 0.85473 0.64658 0.0
N53 N 0.78764 0.91127 0.66584 0.0
C54 C 0.79253 0.94616 0.6594 0.0
H55 H 0.22543 0.93697 0.57362 0.0
H56 H 0.12748 0.83903 0.58446 0.0
H57 H 0.17777 0.92652 0.67769 0.0
C58 C 0.20446 0.92122 0.59059 0.0
C59 C 0.2049 0.93629 0.62748 0.0
C60 C 0.17677 0.88618 0.57495 0.0
C61 C 0.14872 0.86622 0.59621 0.0
C62 C 0.14929 0.88094 0.63353 0.0
C63 C 0.17745 0.91556 0.64885 0.0
N64 N 0.12361 0.8609 0.65789 0.0
C65 C 0.08835 0.83776 0.6469 0.0
H66 H 0.94199 0.40009 0.80881 0.0
H67 H 0.92846 0.49599 0.8094 0.0
H68 H 0.87733 0.40648 0.71819 0.0
C69 C 0.93144 0.41551 0.7952 0.0
C70 C 0.90952 0.39956 0.76098 0.0
C71 C 0.93881 0.45046 0.81283 0.0
C72 C 0.92334 0.46932 0.79591 0.0
C73 C 0.90113 0.45322 0.76151 0.0
C74 C 0.89447 0.41861 0.74459 0.0
N75 N 0.884 0.46978 0.74286 0.0
C76 C 0.88963 0.50569 0.75074 0.0
H77 H 0.60999 0.53233 0.82652 0.0
H78 H 0.50665 0.44808 0.7792 0.0
H79 H 0.58947 0.48704 0.70858 0.0
C80 C 0.59204 0.51348 0.80272 0.0
C81 C 0.60418 0.51209 0.76718 0.0
C82 C 0.55688 0.49022 0.80777 0.0
C83 C 0.53399 0.46536 0.77652 0.0
C84 C 0.54602 0.46417 0.74096 0.0
C85 C 0.58072 0.48782 0.73641 0.0
N86 N 0.52355 0.44055 0.7087 0.0
C87 C 0.49922 0.40326 0.71016 0.0
H88 H 0.50055 0.08051 0.82479 0.0
H89 H 0.55917 0.02521 0.81037 0.0
H90 H 0.5468 0.08395 0.72066 0.0
C91 C 0.51601 0.07321 0.80778 0.0
C92 C 0.52122 0.08441 0.77074 0.0
C93 C 0.52862 0.05094 0.82219 0.0
C94 C 0.54975 0.04302 0.80037 0.0
C95 C 0.55778 0.05657 0.76477 0.0
C96 C 0.54309 0.07675 0.74966 0.0
N97 N 0.57614 0.04446 0.74225 0.0
C98 C 0.6069 0.06854 0.72793 0.0
H99 H 0.7615 0.62994 0.88846 0.0
H100 H 0.8573 0.6355 0.92836 0.0
H101 H 0.77481 0.59877 0.99957 0.0
C102 C 0.7773 0.62593 0.91007 0.0
C103 C 0.76376 0.61241 0.94429 0.0
C104 C 0.81152 0.63542 0.90429 0.0
C105 C 0.83139 0.62954 0.93265 0.0
C106 C 0.81806 0.61666 0.96706 0.0
C107 C 0.78476 0.60886 0.97288 0.0
N108 N 0.83798 0.61269 0.99713 0.0
C109 C 0.85708 0.59518 0.99172 0.0
H110 H 0.4198 0.13057 0.89411 0.0
H111 H 0.44927 0.24698 0.91008 0.0
H112 H 0.48902 0.20142 0.99184 0.0
C113 C 0.43343 0.15758 0.91103 0.0
C114 C 0.45417 0.16247 0.94484 0.0
C115 C 0.43124 0.18796 0.89848 0.0
C116 C 0.45033 0.22335 0.91998 0.0
C117 C 0.47103 0.22799 0.95394 0.0
C118 C 0.47251 0.19749 0.96605 0.0
N119 N 0.49192 0.26282 0.97637 0.0
C120 C 0.49198 0.2957 0.97147 0.0
H121 H 0.87947 0.27802 0.89566 0.0
H122 H 0.79549 0.16749 0.90749 0.0
H123 H 0.83235 0.25466 1.00027 0.0
C124 C 0.85985 0.25857 0.91209 0.0
C125 C 0.85834 0.27074 0.9495 0.0
C126 C 0.83747 0.22135 0.8963 0.0
C127 C 0.81195 0.19669 0.91814 0.0
C128 C 0.80965 0.20904 0.95536 0.0
C129 C 0.833 0.24589 0.97087 0.0
N130 N 0.78848 0.18328 0.97995 0.0
C131 C 0.75259 0.16592 0.97621 0.0
H132 H 0.6073 0.73957 0.13948 0.0
H133 H 0.58406 0.82873 0.14487 0.0
H134 H 0.52784 0.734 0.0601 0.0
C135 C 0.59309 0.75229 0.12807 0.0
C136 C 0.56708 0.73292 0.0976 0.0
C137 C 0.59942 0.78689 0.14541 0.0
C138 C 0.5798 0.80244 0.13129 0.0
C139 C 0.55407 0.78319 0.10018 0.0
C140 C 0.54792 0.7487 0.08381 0.0
N141 N 0.53225 0.79607 0.08553 0.0
C142 C 0.53967 0.83281 0.0887 0.0
H143 H 0.27411 0.87292 0.15949 0.0
H144 H 0.17687 0.77334 0.12014 0.0
H145 H 0.25954 0.81494 0.04845 0.0
C146 C 0.25799 0.84986 0.13775 0.0
C147 C 0.27095 0.84692 0.10336 0.0
C148 C 0.22385 0.82378 0.14364 0.0
C149 C 0.20307 0.79374 0.11546 0.0
C150 C 0.21624 0.79052 0.08115 0.0
C151 C 0.2497 0.81751 0.0751 0.0
N152 N 0.19659 0.7611 0.05161 0.0
C153 C 0.17021 0.7258 0.05721 0.0
H154 H 0.15763 0.39261 0.15468 0.0
H155 H 0.23554 0.36466 0.13271 0.0
H156 H 0.20642 0.41875 0.05052 0.0
C157 C 0.17688 0.39388 0.13677 0.0
C158 C 0.18046 0.40953 0.10191 0.0
C159 C 0.19721 0.37857 0.14841 0.0
C160 C 0.2207 0.37772 0.12456 0.0
C161 C 0.22338 0.39169 0.08898 0.0
C162 C 0.20365 0.40779 0.07797 0.0
N163 N 0.24278 0.38591 0.06218 0.0
C164 C 0.27863 0.40604 0.0659 0.0
H165 H 0.41812 0.94657 0.2226 0.0
H166 H 0.52378 0.98076 0.26264 0.0
H167 H 0.44582 0.93685 0.33874 0.0
C168 C 0.43745 0.95061 0.24519 0.0
C169 C 0.42726 0.93961 0.28154 0.0
C170 C 0.47244 0.96627 0.23783 0.0
C171 C 0.49672 0.96857 0.267 0.0
C172 C 0.48674 0.95719 0.30289 0.0
C173 C 0.45257 0.94394 0.31025 0.0
N174 N 0.51123 0.96145 0.33307 0.0
C175 C 0.53167 0.94511 0.33048 0.0
H176 H 0.09242 0.47166 0.22942 0.0
H177 H 0.09034 0.5715 0.26635 0.0
H178 H 0.13386 0.526 0.34361 0.0
C179 C 0.09863 0.49438 0.25113 0.0
C180 C 0.11446 0.49578 0.28741 0.0
C181 C 0.08927 0.52132 0.24357 0.0
C182 C 0.09738 0.55067 0.27205 0.0
C183 C 0.11385 0.55246 0.30808 0.0
C184 C 0.12165 0.52472 0.31557 0.0
N185 N 0.12195 0.5808 0.33814 0.0
C186 C 0.12734 0.61616 0.33331 0.0
H187 H 0.55801 0.61827 0.23018 0.0
H188 H 0.46918 0.51079 0.24054 0.0
H189 H 0.50674 0.59938 0.33221 0.0
C190 C 0.53733 0.60001 0.24627 0.0
C191 C 0.53496 0.61346 0.28277 0.0
C192 C 0.514 0.56295 0.23076 0.0
C193 C 0.48667 0.53974 0.2515 0.0
C194 C 0.48383 0.55313 0.28802 0.0
C195 C 0.50808 0.5898 0.3034 0.0
N196 N 0.46141 0.5284 0.31262 0.0
C197 C 0.4255 0.51115 0.30767 0.0
Tb198 Tb 0.54746 0.03677 0.02847 0.0
C199 C 0.52321 0.95568 0.05037 0.0
Tb200 Tb 0.46996 0.98464 0.0364 0.0
O201 O 0.55902 0.03877 0.09029 0.0
O202 O 0.51196 0.0317 0.0683 0.0
O203 O 0.54796 0.98554 0.03682 0.0
C204 C 0.40862 0.9445 0.06259 0.0
O205 O 0.49174 0.95043 0.05366 0.0
C206 C 0.48552 0.98624 0.96557 0.0
C207 C 0.49301 0.0622 1.00936 0.0
O208 O 0.43836 0.95499 0.08144 0.0
O209 O 0.41356 0.95631 0.02916 0.0
O210 O 0.45457 0.9745 0.97504 0.0
O211 O 0.50473 0.99039 0.99553 0.0
O212 O 0.47236 0.03778 0.03169 0.0
O213 O 0.52234 0.0642 1.00112 0.0
C214 C 0.61018 0.08058 1.00613 0.0
O215 O 0.59548 0.09111 0.03074 0.0
O216 O 0.58964 0.04549 0.99458 0.0
C217 C 0.52868 0.03185 0.0984 0.0
Tb218 Tb 0.98719 0.50723 0.02836 0.0
C219 C 0.06588 0.56965 0.04078 0.0
Tb220 Tb 0.04246 0.48316 0.03032 0.0
O221 O 0.99928 0.52693 0.08971 0.0
O222 O 1.00855 0.48554 0.06763 0.0
O223 O 0.03371 0.56134 0.03014 0.0
C224 C 0.08963 0.46511 0.05325 0.0
O225 O 0.07472 0.54377 0.04489 0.0
C226 C 0.0162 0.4829 0.96166 0.0
C227 C 0.96392 0.42145 1.01215 0.0
O228 O 0.08676 0.47603 0.0202 0.0
O229 O 0.06604 0.46433 0.07322 0.0
O230 O 0.03041 0.46308 0.96948 0.0
O231 O 0.02124 0.50497 0.99084 0.0
O232 O 0.9952 0.42891 0.02621 0.0
O233 O 0.95598 0.4479 1.00744 0.0
C234 C 0.94024 0.52649 1.00847 0.0
O235 O 0.93679 0.50291 0.03282 0.0
O236 O 0.96995 0.53887 0.99528 0.0
C237 C 0.01409 0.50763 0.09687 0.0
Tb238 Tb 0.48501 0.49825 0.02016 0.0
C239 C 0.51313 0.44373 1.00225 0.0
Tb240 Tb 0.56291 0.53232 1.01232 0.0
O241 O 0.47246 0.47857 0.95918 0.0
O242 O 0.51925 0.52632 0.97911 0.0
O243 O 0.48765 0.44745 0.01497 0.0
C244 C 0.62475 0.55821 0.98592 0.0
O245 O 0.54407 0.47272 0.99831 0.0
C246 C 0.54731 0.52674 0.08329 0.0
C247 C 0.53514 0.58537 0.03426 0.0
O248 O 0.5951 0.5356 0.96633 0.0
O249 O 0.61942 0.56558 0.02022 0.0
O250 O 0.57789 0.54901 0.07373 0.0
O251 O 0.52881 0.50519 0.05396 0.0
O252 O 0.55764 0.58175 0.01429 0.0
O253 O 0.5072 0.55608 0.04406 0.0
C254 C 0.42208 0.47521 0.04173 0.0
O255 O 0.43718 0.50045 0.01868 0.0
O256 O 0.44241 0.46287 0.05251 0.0
C257 C 0.50233 0.50348 0.95009 0.0
Tb258 Tb 0.22042 0.37898 0.35982 0.0
C259 C 0.20406 0.29943 0.38256 0.0
Tb260 Tb 0.14363 0.31715 0.36323 0.0
O261 O 0.22963 0.38388 0.42268 0.0
O262 O 0.18093 0.36706 0.39615 0.0
O263 O 0.22681 0.33161 0.37068 0.0
C264 C 0.08102 0.27143 0.38427 0.0
O265 O 0.17083 0.28897 0.38375 0.0
C266 C 0.16398 0.32195 0.29457 0.0
C267 C 0.16 0.39503 0.33859 0.0
O268 O 0.11024 0.2798 0.4032 0.0
O269 O 0.08731 0.28831 0.35361 0.0
O270 O 0.1318 0.30464 0.30106 0.0
O271 O 0.1823 0.32984 0.32608 0.0
O272 O 0.14027 0.3674 0.35865 0.0
O273 O 0.19129 0.40193 0.33129 0.0
C274 C 0.28317 0.4248 0.33839 0.0
O275 O 0.26623 0.43502 0.36009 0.0
O276 O 0.26471 0.38902 0.32904 0.0
C277 C 0.19734 0.37106 0.42796 0.0
Tb278 Tb 0.65871 0.85002 0.36138 0.0
C279 C 0.73764 0.91607 0.36431 0.0
Tb280 Tb 0.71878 0.83087 0.35447 0.0
O281 O 0.65434 0.83329 0.41998 0.0
O282 O 0.70057 0.85334 0.39635 0.0
O283 O 0.70418 0.90569 0.36212 0.0
C284 C 0.76288 0.80935 0.37925 0.0
O285 O 0.7491 0.89194 0.36421 0.0
C286 C 0.6891 0.82982 0.2869 0.0
C287 C 0.63876 0.76625 0.34294 0.0
O288 O 0.76904 0.83366 0.35482 0.0
O289 O 0.73202 0.79735 0.38944 0.0
O290 O 0.71487 0.82362 0.29125 0.0
O291 O 0.68301 0.83638 0.31985 0.0
O292 O 0.67156 0.77589 0.3533 0.0
O293 O 0.62837 0.79105 0.34054 0.0
C294 C 0.61597 0.87679 0.34863 0.0
O295 O 0.61935 0.86268 0.37938 0.0
O296 O 0.63663 0.87571 0.32512 0.0
C297 C 0.68577 0.8392 0.42494 0.0
Tb298 Tb 0.15036 0.83776 0.35415 0.0
C299 C 0.16868 0.77263 0.35019 0.0
Tb300 Tb 0.22698 0.85802 0.35637 0.0
O301 O 0.14906 0.84723 0.29314 0.0
O302 O 0.18252 0.8317 0.31697 0.0
O303 O 0.14594 0.78308 0.35822 0.0
C304 C 0.28924 0.88337 0.33094 0.0
O305 O 0.20079 0.79715 0.34338 0.0
C306 C 0.2028 0.85128 0.42338 0.0
C307 C 0.20807 0.92313 0.36419 0.0
O308 O 0.27812 0.86251 0.35873 0.0
O309 O 0.26542 0.89014 0.31795 0.0
O310 O 0.22955 0.8481 0.41667 0.0
O311 O 0.19474 0.86296 0.39465 0.0
O312 O 0.23152 0.91344 0.35684 0.0
O313 O 0.17557 0.89802 0.36861 0.0
C314 C 0.08583 0.81334 0.37184 0.0
O315 O 0.09871 0.83077 0.34241 0.0
O316 O 0.10935 0.80967 0.39124 0.0
C317 C 0.17509 0.84257 0.28748 0.0
Tb318 Tb 0.88229 0.70172 0.69159 0.0
C319 C 0.86298 0.62318 0.71763 0.0
Tb320 Tb 0.80461 0.64419 0.6997 0.0
O321 O 0.89639 0.70875 0.75405 0.0
O322 O 0.84636 0.69129 0.73191 0.0
O323 O 0.88518 0.65172 0.70014 0.0
C324 C 0.74325 0.60289 0.72561 0.0
O325 O 0.8317 0.61717 0.72351 0.0
C326 C 0.82037 0.65022 0.62889 0.0
C327 C 0.82401 0.72253 0.67309 0.0
O328 O 0.75947 0.58984 0.70637 0.0
O329 O 0.76156 0.63906 0.73007 0.0
O330 O 0.78908 0.63603 0.63835 0.0
O331 O 0.84002 0.65473 0.65851 0.0
O332 O 0.80235 0.69433 0.69124 0.0
O333 O 0.85505 0.72823 0.66614 0.0
C334 C 0.94447 0.74586 0.66806 0.0
O335 O 0.92772 0.75715 0.68872 0.0
O336 O 0.92611 0.70981 0.66079 0.0
C337 C 0.86479 0.69534 0.76221 0.0
Tb338 Tb 0.32691 0.17459 0.68537 0.0
C339 C 0.40401 0.24408 0.6904 0.0
Tb340 Tb 0.38852 0.16053 0.68305 0.0
O341 O 0.3225 0.16297 0.74562 0.0
O342 O 0.36948 0.18363 0.72293 0.0
O343 O 0.37025 0.23124 0.68326 0.0
C344 C 0.43306 0.1392 0.70785 0.0
O345 O 0.41674 0.22151 0.69563 0.0
C346 C 0.36114 0.16435 0.61651 0.0
C347 C 0.31007 0.09096 0.67686 0.0
O348 O 0.43629 0.15815 0.6788 0.0
O349 O 0.40492 0.13241 0.72249 0.0
O350 O 0.39277 0.17088 0.62245 0.0
O351 O 0.34632 0.15182 0.64562 0.0
O352 O 0.34396 0.1031 0.6823 0.0
O353 O 0.29782 0.11409 0.6739 0.0
C354 C 0.28081 0.1935 0.65999 0.0
O355 O 0.28273 0.18265 0.69346 0.0
O356 O 0.30501 0.19399 0.64136 0.0
C357 C 0.35445 0.17058 0.75177 0.0
Tb358 Tb 0.81268 0.16582 0.67495 0.0
C359 C 0.83268 0.10244 0.67302 0.0
Tb360 Tb 0.89179 0.18742 0.67985 0.0
O361 O 0.81658 0.18479 0.61702 0.0
O362 O 0.8486 0.16675 0.63871 0.0
O363 O 0.81031 0.11284 0.68305 0.0
C364 C 0.95321 0.20987 0.65409 0.0
O365 O 0.86477 0.12679 0.66599 0.0
C366 C 0.87036 0.18373 0.74854 0.0
C367 C 0.87099 0.24971 0.69573 0.0
O368 O 0.93655 0.18056 0.67217 0.0
O369 O 0.93528 0.22645 0.65052 0.0
O370 O 0.9019 0.19263 0.74261 0.0
O371 O 0.85366 0.17676 0.71615 0.0
O372 O 0.89414 0.24161 0.68319 0.0
O373 O 0.83841 0.22389 0.69843 0.0
C374 C 0.74567 0.1388 0.68418 0.0
O375 O 0.77131 0.16999 0.70103 0.0
O376 O 0.75787 0.12312 0.66193 0.0
C377 C 0.84336 0.1815 0.61127 0.0
C378 C 0.31153 0.89232 0.06252 0.0
C379 C 0.30648 0.87452 0.09606 0.0
C380 C 0.3448 0.91562 0.05261 0.0
C381 C 0.37427 0.92191 0.07581 0.0
H382 H 0.2895 0.88767 0.04345 0.0
H383 H 0.34736 0.92827 0.02615 0.0
S384 S 0.37491 0.88176 0.16667 0.0
N385 N 0.33346 0.86477 0.15269 0.0
N386 N 0.39637 0.90894 0.13416 0.0
C387 C 0.36969 0.90505 0.10997 0.0
C388 C 0.33566 0.88127 0.12009 0.0
C389 C 0.14454 0.41947 0.05126 0.0
C390 C 0.15883 0.42589 0.08968 0.0
C391 C 0.12307 0.43337 0.03936 0.0
C392 C 0.11434 0.45328 0.06561 0.0
H393 H 0.14923 0.40281 0.03027 0.0
H394 H 0.11226 0.42733 1.0097 0.0
S395 S 0.1471 0.48109 0.16826 0.0
N396 N 0.16517 0.45719 0.15295 0.0
N397 N 0.12276 0.48067 0.13089 0.0
C398 C 0.12867 0.46044 0.10379 0.0
C399 C 0.15139 0.44738 0.11576 0.0
C400 C 0.58422 0.68941 0.067 0.0
C401 C 0.55853 0.6953 0.08116 0.0
C402 C 0.57624 0.65397 0.0507 0.0
C403 C 0.54237 0.62315 0.04846 0.0
H404 H 0.61059 0.7124 0.06833 0.0
H405 H 0.59694 0.65062 0.04057 0.0
S406 S 0.46598 0.62428 0.08221 0.0
N407 N 0.49815 0.6677 0.09243 0.0
N408 N 0.48292 0.60124 0.06172 0.0
C409 C 0.51646 0.62888 0.06252 0.0
C410 C 0.52461 0.66491 0.07891 0.0
C411 C 0.87627 0.33448 0.9812 0.0
C412 C 0.88532 0.30844 0.9672 0.0
C413 C 0.90183 0.37085 0.99628 0.0
C414 C 0.93728 0.38216 0.99863 0.0
H415 H 0.84931 0.32694 0.97963 0.0
H416 H 0.89374 0.39028 1.00599 0.0
S417 S 0.97406 0.32349 0.96705 0.0
N418 N 0.9318 0.29582 0.95746 0.0
N419 N 0.97981 0.36377 0.9861 0.0
C420 C 0.94648 0.3559 0.98555 0.0
C421 C 0.92051 0.31916 0.96973 0.0
C422 C 0.72184 0.61565 0.98538 0.0
C423 C 0.72778 0.60161 0.95115 0.0
C424 C 0.68832 0.60191 0.99573 0.0
C425 C 0.65934 0.57359 0.97225 0.0
H426 H 0.74344 0.63681 1.00486 0.0
H427 H 0.6852 0.61314 0.02278 0.0
S428 S 0.66082 0.52786 0.8792 0.0
N429 N 0.70194 0.55831 0.89335 0.0
N430 N 0.63861 0.53264 0.91258 0.0
C431 C 0.6647 0.56014 0.93725 0.0
C432 C 0.69901 0.57416 0.92672 0.0
C433 C 0.44685 0.11638 0.99062 0.0
C434 C 0.45989 0.13257 0.95725 0.0
C435 C 0.45733 0.09321 1.00706 0.0
C436 C 0.4819 0.08629 0.99119 0.0
H437 H 0.42918 0.12254 1.00465 0.0
H438 H 0.44684 0.08157 0.03298 0.0
S439 S 0.52326 0.12213 0.9033 0.0
N440 N 0.49773 0.13978 0.90833 0.0
N441 N 0.518 0.09674 0.93919 0.0
C442 C 0.49461 0.10193 0.9573 0.0
C443 C 0.48346 0.12496 0.94034 0.0
C444 C 0.70281 0.16007 1.00755 0.0
C445 C 0.7158 0.14651 0.97942 0.0
C446 C 0.66816 0.13915 0.01513 0.0
C447 C 0.64554 0.10382 0.99504 0.0
H448 H 0.7198 0.18649 0.02466 0.0
H449 H 0.65941 0.15018 0.03774 0.0
S450 S 0.66685 0.05742 0.91657 0.0
N451 N 0.70343 0.09695 0.93002 0.0
N452 N 0.63832 0.05741 0.94403 0.0
C453 C 0.65808 0.09068 0.96581 0.0
C454 C 0.69329 0.1121 0.95808 0.0
C455 C 0.90713 0.58937 0.97614 0.0
C456 C 0.87563 0.57517 0.99192 0.0
C457 C 0.92726 0.57234 0.98026 0.0
C458 C 0.91655 0.54088 1.0006 0.0
H459 H 0.91672 0.61433 0.96153 0.0
H460 H 0.95193 0.58472 0.9686 0.0
S461 S 0.83447 0.49189 0.0447 0.0
N462 N 0.83341 0.52705 0.02646 0.0
N463 N 0.87125 0.49504 0.03453 0.0
C464 C 0.88436 0.52572 0.01519 0.0
C465 C 0.86387 0.54296 1.01079 0.0
C466 C 0.52961 0.36375 0.97918 0.0
C467 C 0.49616 0.33245 0.97417 0.0
C468 C 0.53484 0.39973 0.98767 0.0
C469 C 0.50674 0.40548 0.99188 0.0
H470 H 0.55195 0.36033 0.97764 0.0
H471 H 0.56117 0.42303 0.99194 0.0
S472 S 0.41368 0.3318 0.97834 0.0
N473 N 0.43452 0.30881 0.97177 0.0
N474 N 0.44384 0.3763 0.98753 0.0
C475 C 0.47297 0.37411 0.98559 0.0
C476 C 0.4678 0.33756 0.97678 0.0
C477 C 0.11063 0.67483 0.03886 0.0
C478 C 0.14373 0.68729 0.05716 0.0
C479 C 0.08558 0.63677 0.03421 0.0
C480 C 0.0929 0.6098 0.04744 0.0
H481 H 0.10429 0.6945 0.02723 0.0
H482 H 0.06053 0.62849 0.01932 0.0
S483 S 0.17596 0.62947 0.09933 0.0
N484 N 0.18271 0.67092 0.0899 0.0
N485 N 0.13572 0.59916 0.08149 0.0
C486 C 0.12595 0.62235 0.06669 0.0
C487 C 0.15137 0.66121 0.07147 0.0
C488 C 0.3356 0.41094 0.07642 0.0
C489 C 0.31546 0.42629 0.06424 0.0
C490 C 0.37062 0.42786 0.0703 0.0
C491 C 0.38633 0.46037 0.05147 0.0
H492 H 0.32398 0.38514 0.08968 0.0
H493 H 0.38513 0.41464 0.0792 0.0
S494 S 0.34461 0.51249 0.0167 0.0
N495 N 0.31354 0.47648 0.03466 0.0
N496 N 0.37937 0.50841 0.02291 0.0
C497 C 0.36657 0.47663 0.04049 0.0
C498 C 0.33102 0.45948 0.04691 0.0
C499 C 0.51313 0.87145 0.09697 0.0
C500 C 0.54018 0.86729 0.08453 0.0
C501 C 0.50845 0.9007 0.08644 0.0
C502 C 0.53061 0.9267 0.06289 0.0
H503 H 0.4946 0.85108 0.11365 0.0
H504 H 0.48682 0.90239 0.09628 0.0
S505 S 0.60674 0.92843 0.02483 0.0
N506 N 0.59031 0.89169 0.04917 0.0
N507 N 0.58196 0.94714 0.02931 0.0
C508 C 0.55877 0.92358 0.05168 0.0
C509 C 0.56339 0.89364 0.06245 0.0
C510 C 0.9843 0.22754 0.38478 0.0
C511 C 0.9775 0.20916 0.41804 0.0
C512 C 0.01787 0.24732 0.37431 0.0
C513 C 0.04608 0.24951 0.39657 0.0
H514 H 0.96338 0.22642 0.3665 0.0
H515 H 0.02165 0.26099 0.3484 0.0
S516 S 0.04227 0.20639 0.48651 0.0
N517 N 1.00172 0.19456 0.47353 0.0
N518 N 0.06515 0.23172 0.4536 0.0
C519 C 0.03984 0.2316 0.43017 0.0
C520 C 1.00548 0.21155 0.44103 0.0
C521 C 0.79544 0.75309 0.42941 0.0
C522 C 0.83092 0.77127 0.42443 0.0
C523 C 0.77393 0.76582 0.41473 0.0
C524 C 0.78678 0.79702 0.394 0.0
H525 H 0.78394 0.72836 0.44439 0.0
H526 H 0.74684 0.75074 0.41939 0.0
S527 S 0.87781 0.85565 0.37397 0.0
N528 N 0.87816 0.82307 0.39829 0.0
N529 N 0.83735 0.84654 0.36987 0.0
C530 C 0.82212 0.81562 0.3887 0.0
C531 C 0.84424 0.80281 0.40401 0.0
C532 C 0.26618 0.02626 0.39901 0.0
C533 C 0.24263 0.03917 0.40095 0.0
C534 C 0.25501 0.98908 0.38549 0.0
C535 C 0.21977 0.96328 0.37391 0.0
H536 H 0.29344 0.04504 0.40813 0.0
H537 H 0.27406 0.98031 0.38525 0.0
S538 S 0.14789 0.98362 0.37295 0.0
N539 N 0.18269 0.02365 0.38975 0.0
N540 N 0.16158 0.9539 0.36431 0.0
C541 C 0.19608 0.97614 0.37515 0.0
C542 C 0.20753 0.01402 0.38866 0.0
C543 C 0.55211 0.67718 0.31389 0.0
C544 C 0.56175 0.65157 0.30011 0.0
C545 C 0.57716 0.71388 0.32852 0.0
C546 C 0.61285 0.72626 0.33055 0.0
H547 H 0.52502 0.66906 0.31242 0.0
H548 H 0.56841 0.7328 0.33795 0.0
S549 S 0.65129 0.66883 0.30029 0.0
N550 N 0.60914 0.64029 0.29097 0.0
N551 N 0.65624 0.70899 0.31854 0.0
C552 C 0.62271 0.70039 0.31793 0.0
C553 C 0.59718 0.66318 0.30265 0.0
C554 C 0.37649 0.89423 0.31383 0.0
C555 C 0.39061 0.92383 0.29064 0.0
C556 C 0.34376 0.88131 0.32654 0.0
C557 C 0.32334 0.89689 0.31609 0.0
H558 H 0.39106 0.88109 0.3227 0.0
H559 H 0.33444 0.85894 0.34479 0.0
S560 S 0.34695 0.97377 0.2547 0.0
N561 N 0.38084 0.96795 0.25744 0.0
N562 N 0.31875 0.94249 0.27995 0.0
C563 C 0.33635 0.92549 0.2918 0.0
C564 C 0.37002 0.93915 0.27933 0.0
C565 C 0.14959 0.46432 0.28094 0.0
C566 C 0.123 0.4669 0.29734 0.0
C567 C 0.16139 0.44096 0.29437 0.0
C568 C 0.14681 0.41918 0.32449 0.0
H569 H 0.16216 0.48143 0.25855 0.0
H570 H 0.18221 0.44017 0.28115 0.0
S571 S 0.07528 0.4152 0.37572 0.0
N572 N 0.08171 0.44521 0.34421 0.0
N573 N 0.10336 0.40119 0.36934 0.0
C574 C 0.11946 0.42088 0.34029 0.0
C575 C 0.10772 0.4448 0.32677 0.0
C576 C 0.368 0.45392 0.29651 0.0
C577 C 0.38862 0.49169 0.31081 0.0
C578 C 0.33352 0.4329 0.30464 0.0
C579 C 0.31858 0.44888 0.32758 0.0
H580 H 0.3789 0.44018 0.28004 0.0
H581 H 0.3188 0.4036 0.29373 0.0
S582 S 0.36186 0.5475 0.37042 0.0
N583 N 0.39179 0.54477 0.34771 0.0
N584 N 0.32702 0.50544 0.36302 0.0
C585 C 0.33877 0.48705 0.34097 0.0
C586 C 0.37385 0.50841 0.33261 0.0
C587 C 0.55582 0.914 0.36811 0.0
C588 C 0.55221 0.92725 0.33348 0.0
C589 C 0.57611 0.8972 0.37252 0.0
C590 C 0.59359 0.89323 0.34243 0.0
H591 H 0.54304 0.91685 0.39211 0.0
H592 H 0.57844 0.88767 0.39987 0.0
S593 S 0.59108 0.92236 0.24536 0.0
N594 N 0.5666 0.9346 0.26825 0.0
N595 N 0.60499 0.90315 0.27627 0.0
C596 C 0.58973 0.90602 0.30738 0.0
C597 C 0.56894 0.92304 0.30295 0.0
C598 C 0.16974 0.68218 0.32908 0.0
C599 C 0.13606 0.65467 0.3344 0.0
C600 C 0.18 0.7202 0.33418 0.0
C601 C 0.15692 0.73203 0.34499 0.0
H602 H 0.18851 0.67432 0.32162 0.0
H603 H 0.20636 0.7404 0.32992 0.0
S604 S 0.06523 0.66956 0.36191 0.0
N605 N 0.07945 0.64079 0.35052 0.0
N606 N 0.09819 0.71206 0.36021 0.0
C607 C 0.12283 0.70428 0.34993 0.0
C608 C 0.11253 0.66562 0.34462 0.0
C609 C 0.77535 0.0209 0.36486 0.0
C610 C 0.81052 0.03529 0.37645 0.0
C611 C 0.75201 0.98232 0.36129 0.0
C612 C 0.76315 0.95679 0.36891 0.0
H613 H 0.76588 0.0395 0.35788 0.0
H614 H 0.72512 0.97251 0.35184 0.0
S615 S 0.85328 0.98171 0.40162 0.0
N616 N 0.85577 0.02222 0.39649 0.0
N617 N 0.8122 0.94959 0.38994 0.0
C618 C 0.7985 0.97127 0.3811 0.0
C619 C 0.82213 0.01061 0.38485 0.0
C620 C 1.00368 0.75978 0.41945 0.0
C621 C 0.97932 0.76383 0.39645 0.0
C622 C 0.03836 0.77671 0.41179 0.0
C623 C 0.04967 0.79804 0.38075 0.0
H624 H 0.99575 0.74277 0.44299 0.0
H625 H 0.05623 0.77236 0.42984 0.0
S626 S 0.99558 0.81797 0.31305 0.0
N627 N 0.96852 0.79133 0.34239 0.0
N628 N 0.03364 0.82324 0.32776 0.0
C629 C 0.02551 0.80293 0.35813 0.0
C630 C 0.99026 0.78574 0.36604 0.0
C631 C 0.20103 0.20929 0.40453 0.0
C632 C 0.23529 0.21782 0.4024 0.0
C633 C 0.19145 0.23635 0.39982 0.0
C634 C 0.2158 0.27281 0.3924 0.0
H635 H 0.18116 0.18106 0.40809 0.0
H636 H 0.16444 0.22803 0.40044 0.0
S637 S 0.3099 0.30934 0.388 0.0
N638 N 0.29412 0.26511 0.39528 0.0
N639 N 0.27673 0.31639 0.38667 0.0
C640 C 0.25069 0.28199 0.39237 0.0
C641 C 0.26028 0.25433 0.39724 0.0
C642 C 0.6579 0.51936 0.74216 0.0
C643 C 0.64117 0.53566 0.76119 0.0
C644 C 0.69129 0.54127 0.73164 0.0
C645 C 0.70923 0.5803 0.73975 0.0
H646 H 0.64472 0.48941 0.73459 0.0
H647 H 0.70277 0.52753 0.71628 0.0
S648 S 0.678 0.63658 0.79127 0.0
N649 N 0.64572 0.59309 0.78923 0.0
N650 N 0.70876 0.63434 0.76995 0.0
C651 C 0.69347 0.5969 0.76018 0.0
C652 C 0.65939 0.57455 0.77088 0.0
C653 C 0.46481 0.08313 0.7598 0.0
C654 C 0.4999 0.09937 0.75321 0.0
C655 C 0.44377 0.09636 0.74495 0.0
C656 C 0.45647 0.12593 0.72203 0.0
H657 H 0.45323 0.05965 0.77652 0.0
H658 H 0.4171 0.08296 0.75127 0.0
S659 S 0.54609 0.17858 0.69572 0.0
N660 N 0.54643 0.14738 0.72235 0.0
N661 N 0.50621 0.17126 0.6931 0.0
C662 C 0.49118 0.14215 0.71439 0.0
C663 C 0.51299 0.12905 0.73018 0.0
C664 C 0.86602 0.33454 0.7329 0.0
C665 C 0.90085 0.36215 0.74304 0.0
C666 C 0.85683 0.29873 0.71674 0.0
C667 C 0.8821 0.289 0.70977 0.0
H668 H 0.84557 0.34042 0.73821 0.0
H669 H 0.82955 0.27843 0.71008 0.0
S670 S 0.9773 0.3521 0.72954 0.0
N671 N 0.96091 0.3781 0.74372 0.0
N672 N 0.94383 0.31072 0.71347 0.0
C673 C 0.91718 0.31671 0.71904 0.0
C674 C 0.9265 0.35321 0.73575 0.0
C675 C 0.22394 1.00041 0.65807 0.0
C676 C 0.23283 0.97455 0.64302 0.0
C677 C 0.2493 0.03746 0.6704 0.0
C678 C 0.28473 0.05031 0.66847 0.0
H679 H 0.19701 0.99227 0.65916 0.0
H680 H 0.24086 0.0564 0.68075 0.0
S681 S 0.32181 0.99269 0.63439 0.0
N682 N 0.27958 0.96349 0.62918 0.0
N683 N 0.32744 0.0333 0.65223 0.0
C684 C 0.29412 0.02431 0.65494 0.0
C685 C 0.26814 0.98648 0.64212 0.0
C686 C 0.02113 0.20152 0.60304 0.0
C687 C 0.0484 0.23885 0.60404 0.0
C688 C 0.99075 0.19252 0.61972 0.0
C689 C 0.98566 0.22047 0.63692 0.0
H690 H 0.02329 0.17878 0.5894 0.0
H691 H 0.97084 0.1634 0.61863 0.0
S692 S 0.04748 0.32242 0.64661 0.0
N693 N 0.06773 0.30403 0.62437 0.0
N694 N 1.00936 0.28696 0.65326 0.0
C695 C 1.01176 0.25793 0.63698 0.0
C696 C 0.04335 0.26718 0.62103 0.0
C697 C 0.81414 0.79082 0.61335 0.0
C698 C 0.78984 0.79651 0.63151 0.0
C699 C 0.82538 0.76712 0.62713 0.0
C700 C 0.81235 0.74796 0.65923 0.0
H701 H 0.8252 0.80555 0.58901 0.0
H702 H 0.84424 0.76364 0.61239 0.0
S703 S 0.74691 0.75228 0.71558 0.0
N704 N 0.75227 0.78031 0.68221 0.0
N705 N 0.77298 0.73576 0.708 0.0
C706 C 0.78736 0.75283 0.67694 0.0
C707 C 0.77624 0.77711 0.66312 0.0
C708 C 0.03336 0.8306 0.66447 0.0
C709 C 0.0511 0.81542 0.64593 0.0
C710 C 0.99841 0.80815 0.6702 0.0
C711 C 0.98007 0.76968 0.65772 0.0
H712 H 0.04695 0.85976 0.67599 0.0
H713 H 0.98605 0.8208 0.68568 0.0
S714 S 0.01465 0.71725 0.60527 0.0
N715 N 0.0478 0.76041 0.61345 0.0
N716 N 0.98202 0.71798 0.62378 0.0
C717 C 0.99729 0.75458 0.63764 0.0
C718 C 0.03291 0.77752 0.6319 0.0
C719 C 0.20146 0.20426 0.65225 0.0
C720 C 0.19711 0.20794 0.6133 0.0
C721 C 0.22925 0.20068 0.66745 0.0
C722 C 0.25356 0.20069 0.64411 0.0
H723 H 0.18266 0.20295 0.67089 0.0
H724 H 0.23122 0.19701 0.69747 0.0
S725 S 0.25364 0.21047 0.54007 0.0
N726 N 0.21926 0.21212 0.55174 0.0
N727 N 0.27176 0.20576 0.58001 0.0
C728 C 0.2499 0.20546 0.60518 0.0
C729 C 0.22152 0.20895 0.58979 0.0
C730 C 0.83523 0.01234 0.65648 0.0
C731 C 0.801 0.98457 0.65929 0.0
C732 C 0.84512 0.05029 0.66074 0.0
C733 C 0.82114 0.06184 0.66826 0.0
H734 H 0.85469 1.00475 0.65173 0.0
H735 H 0.87196 0.07066 0.65865 0.0
S736 S 0.7276 0.99866 0.67692 0.0
N737 N 0.74282 0.97018 0.66907 0.0
N738 N 0.76087 0.04132 0.67701 0.0
C739 C 0.78648 0.03385 0.67046 0.0
C740 C 0.77655 0.99523 0.666 0.0
C741 C 0.48716 0.33848 0.70344 0.0
C742 C 0.47512 0.36371 0.70751 0.0
C743 C 0.46398 0.29983 0.69803 0.0
C744 C 0.42794 0.28517 0.69623 0.0
H745 H 0.51466 0.34869 0.70395 0.0
H746 H 0.47445 0.28139 0.69477 0.0
S747 S 0.38411 0.34082 0.70681 0.0
N748 N 0.42574 0.37236 0.71043 0.0
N749 N 0.38175 0.29986 0.70031 0.0
C750 C 0.41581 0.31057 0.70079 0.0
C751 C 0.43954 0.34986 0.70644 0.0
C752 C 0.66553 0.12394 0.72954 0.0
C753 C 0.64032 0.08782 0.71356 0.0
C754 C 0.69938 0.14086 0.71889 0.0
C755 C 0.70907 0.12201 0.69218 0.0
H756 H 0.65933 0.13878 0.75109 0.0
H757 H 0.71831 0.16845 0.73245 0.0
S758 S 0.65171 0.02704 0.64168 0.0
N759 N 0.62663 0.03405 0.66933 0.0
N760 N 0.69003 0.0655 0.64931 0.0
C761 C 0.68363 0.08618 0.67539 0.0
C762 C 0.64927 0.06913 0.68616 0.0
C763 C 0.90531 0.56348 0.72142 0.0
C764 C 0.88823 0.53957 0.74894 0.0
C765 C 0.89811 0.5916 0.71259 0.0
C766 C 0.87312 0.59626 0.73055 0.0
H767 H 0.92311 0.55929 0.70529 0.0
H768 H 0.91101 0.60855 0.69021 0.0
S769 S 0.82416 0.54289 0.80783 0.0
N770 N 0.84752 0.52385 0.79626 0.0
N771 N 0.83385 0.57659 0.78002 0.0
C772 C 0.85725 0.57358 0.75964 0.0
C773 C 0.86482 0.54519 0.76872 0.0
C774 C 0.51078 0.97722 0.18488 0.0
C775 C 0.48439 0.98119 0.20049 0.0
C776 C 0.52502 0.99391 0.15215 0.0
C777 C 0.51301 0.01458 0.13292 0.0
H778 H 0.52078 0.9612 0.19814 0.0
H779 H 0.54542 0.99021 0.14162 0.0
S780 S 0.44391 0.03283 0.16015 0.0
N781 N 0.44696 0.0079 0.19328 0.0
N782 N 0.47259 0.03729 0.13063 0.0
C783 C 0.48599 0.01787 0.14711 0.0
C784 C 0.47189 1.00158 0.18102 0.0
C785 C 0.08561 0.52263 0.17249 0.0
C786 C 0.06982 0.518 0.20644 0.0
C787 C 0.06739 0.51891 0.13701 0.0
C788 C 0.03267 0.5102 0.13424 0.0
H789 H 0.11248 0.53001 0.17357 0.0
H790 H 0.081 0.52407 0.11188 0.0
S791 S 0.98013 0.49725 0.21504 0.0
N792 N 0.01791 0.50563 0.23536 0.0
N793 N 0.98374 0.49881 0.16875 0.0
C794 C 0.01691 0.5065 0.16813 0.0
C795 C 0.03543 0.51025 0.20421 0.0
C796 C 0.49536 0.53244 0.16259 0.0
C797 C 0.52065 0.54844 0.19444 0.0
C798 C 0.50334 0.52341 0.12683 0.0
C799 C 0.53677 0.53002 0.1218 0.0
H800 H 0.46981 0.52853 0.16487 0.0
H801 H 0.48383 0.51329 0.10269 0.0
S802 S 0.61069 0.56668 0.19745 0.0
N803 N 0.57931 0.56675 0.21946 0.0
N804 N 0.59428 0.55041 0.15258 0.0
C805 C 0.56159 0.54416 0.15394 0.0
C806 C 0.55352 0.55314 0.19015 0.0
C807 C 0.95018 0.4749 0.88259 0.0
C808 C 0.96172 0.46565 0.84963 0.0
C809 C 0.96882 0.48247 0.91887 0.0
C810 C 0.99953 0.48105 0.92331 0.0
H811 H 0.92564 0.47417 0.88064 0.0
H812 H 0.95793 0.48707 0.94368 0.0
S813 S 0.04302 0.46311 0.84553 0.0
N814 N 1.00771 0.45949 0.82347 0.0
N815 N 0.04216 0.47298 0.89139 0.0
C816 C 1.01219 0.47381 0.89036 0.0
C817 C 0.99349 0.46642 0.8536 0.0
C818 C 0.55481 0.52814 0.86512 0.0
C819 C 0.54391 0.49289 0.84516 0.0
C820 C 0.54169 0.53143 0.89941 0.0
C821 C 0.51682 0.49966 0.91468 0.0
H822 H 0.57309 0.55348 0.85379 0.0
H823 H 0.55053 0.55904 0.91362 0.0
S824 S 0.48292 0.40094 0.87669 0.0
N825 N 0.50944 0.4255 0.84588 0.0
N826 N 0.4837 0.43184 0.90912 0.0
C827 C 0.50632 0.4643 0.89568 0.0
C828 C 0.52012 0.46088 0.86124 0.0
C829 C 0.54081 0.03126 0.88515 0.0
C830 C 0.51732 0.03343 0.85833 0.0
C831 C 0.53031 0.0149 0.91925 0.0
C832 C 0.49622 1.00085 0.92828 0.0
H833 H 0.56759 0.04252 0.87993 0.0
H834 H 0.5489 0.01299 0.93843 0.0
S835 S 0.42357 0.99556 0.86584 0.0
N836 N 0.45729 0.01602 0.84152 0.0
N837 N 0.43829 0.98766 0.90615 0.0
C838 C 0.47226 1.00178 0.90117 0.0
C839 C 0.48266 0.01762 0.86623 0.0
C840 C 0.1826 0.32207 0.51813 0.0
C841 C 0.14706 0.3082 0.52165 0.0
C842 C 0.19911 0.34371 0.48883 0.0
C843 C 0.18115 0.35338 0.46214 0.0
H844 H 0.19793 0.31548 0.53764 0.0
H845 H 0.22584 0.35178 0.48633 0.0
S846 S 0.09076 0.33302 0.46292 0.0
N847 N 0.09602 0.31087 0.49767 0.0
N848 N 0.12814 0.35376 0.44484 0.0
C849 C 0.14689 0.34328 0.46733 0.0
C850 C 0.12961 0.32031 0.49654 0.0
C851 C 0.70284 0.8295 0.52971 0.0
C852 C 0.73894 0.84495 0.53489 0.0
C853 C 0.6857 0.82692 0.49383 0.0
C854 C 0.70413 0.84 0.462 0.0
H855 H 0.68782 0.81959 0.55364 0.0
H856 H 0.65789 0.81507 0.49117 0.0
S857 S 0.79943 0.88359 0.46154 0.0
N858 N 0.79259 0.87331 0.50581 0.0
N859 N 0.76096 0.86972 0.4388 0.0
C860 C 0.74037 0.85549 0.46709 0.0
C861 C 0.75763 0.85766 0.50345 0.0
C862 C 0.16198 0.87499 0.50391 0.0
C863 C 0.17863 0.87078 0.53672 0.0
C864 C 0.16881 0.86705 0.46718 0.0
C865 C 0.19257 0.85468 0.46205 0.0
H866 H 0.14481 0.88611 0.50673 0.0
H867 H 0.1564 0.87207 0.44275 0.0
S868 S 0.24086 0.8367 0.53924 0.0
N869 N 0.21835 0.85179 0.56203 0.0
N870 N 0.23091 0.83632 0.49324 0.0
C871 C 0.20808 0.84874 0.49475 0.0
C872 C 0.20123 0.857 0.53203 0.0
C873 C 0.6136 0.81028 0.21507 0.0
C874 C 0.62463 0.80452 0.18012 0.0
C875 C 0.63515 0.82008 0.24955 0.0
C876 C 0.66851 0.82479 0.25018 0.0
H877 H 0.58747 0.80508 0.21603 0.0
H878 H 0.62484 0.822 0.27592 0.0
S879 S 0.71085 0.81716 0.16573 0.0
N880 N 0.67191 0.80721 0.1478 0.0
N881 N 0.7125 0.82597 0.21237 0.0
C882 C 0.68044 0.82111 0.21515 0.0
C883 C 0.65849 0.81095 0.18017 0.0
C884 C 0.22533 0.82526 0.21439 0.0
C885 C 0.21035 0.82812 0.17957 0.0
C886 C 0.21364 0.83008 0.24898 0.0
C887 C 0.18717 0.83893 0.25019 0.0
H888 H 0.24601 0.81886 0.21481 0.0
H889 H 0.22539 0.82655 0.27496 0.0
S890 S 0.14018 0.85034 0.16651 0.0
N891 N 0.16788 0.84032 0.1479 0.0
N892 N 0.14647 0.85055 0.21323 0.0
C893 C 0.1722 0.84224 0.21548 0.0
C894 C 0.18368 0.83656 0.18009 0.0
C895 C 0.21407 0.38079 0.21786 0.0
C896 C 0.19164 0.36124 0.1845 0.0
C897 C 0.20598 0.36711 0.25349 0.0
C898 C 0.1754 0.33346 0.25678 0.0
H899 H 0.23707 0.40764 0.21663 0.0
H900 H 0.22262 0.38419 0.27865 0.0
S901 S 0.10943 0.27094 0.1771 0.0
N902 N 0.1386 0.3061 0.15636 0.0
N903 N 0.12355 0.28008 0.22308 0.0
C904 C 0.15353 0.3131 0.22323 0.0
C905 C 0.16165 0.32706 0.18713 0.0
C906 C 0.80626 0.6351 0.8331 0.0
C907 C 0.82621 0.65127 0.8686 0.0
C908 C 0.81903 0.64968 0.79915 0.0
C909 C 0.85209 0.68096 0.79891 0.0
H910 H 0.78071 0.61056 0.83139 0.0
H911 H 0.80325 0.63542 0.77281 0.0
S912 S 0.91483 0.73428 0.88405 0.0
N913 N 0.88093 0.70108 0.90157 0.0
N914 N 0.90488 0.72772 0.83723 0.0
C915 C 0.8726 0.69724 0.83405 0.0
C916 C 0.85963 0.68262 0.86894 0.0
C917 C 0.42758 0.20312 0.83149 0.0
C918 C 0.41079 0.18318 0.86164 0.0
C919 C 0.40913 0.19833 0.79596 0.0
C920 C 0.37304 0.17399 0.78946 0.0
H921 H 0.4553 0.22222 0.83526 0.0
H922 H 0.42328 0.21423 0.77357 0.0
S923 S 0.317 0.11536 0.85931 0.0
N924 N 0.35622 0.13784 0.88276 0.0
N925 N 0.32129 0.12963 0.81623 0.0
C926 C 0.35591 0.15404 0.81947 0.0
C927 C 0.37485 0.1584 0.85548 0.0
C928 C 0.87825 0.22001 0.8518 0.0
C929 C 0.84391 0.20828 0.85888 0.0
C930 C 0.88605 0.21092 0.81636 0.0
C931 C 0.85994 0.18954 0.78629 0.0
H932 H 0.89952 0.23675 0.87381 0.0
H933 H 0.91302 0.22157 0.81234 0.0
S934 S 0.76557 0.14737 0.79117 0.0
N935 N 0.78322 0.17148 0.83347 0.0
N936 N 0.79808 0.15331 0.76706 0.0
C937 C 0.82537 0.17588 0.79334 0.0
C938 C 0.81731 0.18537 0.8296 0.0
C939 C 0.28705 0.13216 0.53815 0.0
C940 C 0.30405 0.144 0.50536 0.0
C941 C 0.30582 0.14014 0.57417 0.0
C942 C 0.34231 0.15997 0.57866 0.0
H943 H 0.25905 0.11554 0.53571 0.0
H944 H 0.29152 0.12943 0.59841 0.0
S945 S 0.39879 0.19839 0.50147 0.0
N946 N 0.35907 0.17753 0.4794 0.0
N947 N 0.39457 0.19262 0.54716 0.0
C948 C 0.35954 0.17296 0.54613 0.0
C949 C 0.34035 0.16494 0.50945 0.0
C950 C 0.89663 0.17004 0.53795 0.0
C951 C 0.88258 0.17483 0.50353 0.0
C952 C 0.88413 0.17312 0.57261 0.0
C953 C 0.85772 0.18204 0.57441 0.0
H954 H 0.91664 0.16264 0.53792 0.0
H955 H 0.89468 0.16741 0.59805 0.0
S956 S 0.81393 0.19968 0.49234 0.0
N957 N 0.84173 0.19016 0.47319 0.0
N958 N 0.81888 0.197 0.53866 0.0
C959 C 0.84422 0.1881 0.5403 0.0
C960 C 0.85652 0.18424 0.5048 0.0
C961 C 0.87545 0.70193 0.55101 0.0
C962 C 0.85106 0.70228 0.52408 0.0
C963 C 0.86535 0.6841 0.58438 0.0
C964 C 0.83068 0.6664 0.59228 0.0
H965 H 0.90258 0.71588 0.54651 0.0
H966 H 0.88476 0.68414 0.60401 0.0
S967 S 0.75612 0.65533 0.52866 0.0
N968 N 0.79009 0.67975 0.50572 0.0
N969 N 0.77149 0.64783 0.5688 0.0
C970 C 0.80591 0.66543 0.5649 0.0
C971 C 0.81603 0.68308 0.53082 0.0
loop_
_geom_bond_atom_site_label_1
_geom_bond_atom_site_label_2
_geom_bond_distance
_geom_bond_site_symmetry_2
_ccdc_geom_bond_type
H0 C3 0.929 . S
H1 C6 0.929 . S
H2 C8 0.930 . S
C3 H0 0.929 . S
C3 C4 1.398 . S
C3 C5 1.396 . S
C4 C3 1.398 . S
C4 C8 1.407 . S
C5 C3 1.396 . S
C5 C6 1.394 . S
C6 H1 0.929 . S
C6 C5 1.394 . S
C6 C7 1.382 . S
C7 C6 1.382 . S
C7 C8 1.392 . S
C7 N9 1.420 . S
C8 H2 0.930 . S
C8 C4 1.407 . S
C8 C7 1.392 . S
N9 C7 1.420 . S
N9 C10 1.244 . S
C10 N9 1.244 . S
H11 C14 0.929 . S
H12 C17 0.929 . S
H13 C19 0.930 . S
C14 H11 0.929 . S
C14 C15 1.398 . S
C14 C16 1.396 . S
C15 C14 1.398 . S
C15 C19 1.407 . S
C16 C14 1.396 . S
C16 C17 1.394 . S
C17 H12 0.929 . S
C17 C16 1.394 . S
C17 C18 1.382 . S
C18 C17 1.382 . S
C18 C19 1.392 . S
C18 N20 1.420 . S
C19 H13 0.930 . S
C19 C15 1.407 . S
C19 C18 1.392 . S
N20 C18 1.420 . S
N20 C21 1.244 . S
C21 N20 1.244 . S
H22 C25 0.929 . S
H23 C28 0.929 . S
H24 C30 0.930 . S
C25 H22 0.929 . S
C25 C26 1.398 . S
C25 C27 1.396 . S
C26 C25 1.398 . S
C26 C30 1.407 . S
C27 C25 1.396 . S
C27 C28 1.394 . S
C28 H23 0.929 . S
C28 C27 1.394 . S
C28 C29 1.382 . S
C29 C28 1.382 . S
C29 C30 1.392 . S
C29 N31 1.420 . S
C30 H24 0.930 . S
C30 C26 1.407 . S
C30 C29 1.392 . S
N31 C29 1.420 . S
N31 C32 1.244 . S
C32 N31 1.244 . S
H33 C36 0.929 . S
H34 C39 0.929 . S
H35 C41 0.930 . S
C36 H33 0.929 . S
C36 C37 1.398 . S
C36 C38 1.396 . S
C37 C36 1.398 . S
C37 C41 1.407 . S
C38 C36 1.396 . S
C38 C39 1.394 . S
C39 H34 0.929 . S
C39 C38 1.394 . S
C39 C40 1.382 . S
C40 C39 1.382 . S
C40 C41 1.392 . S
C40 N42 1.420 . S
C41 H35 0.930 . S
C41 C37 1.407 . S
C41 C40 1.392 . S
N42 C40 1.420 . S
N42 C43 1.244 . S
C43 N42 1.244 . S
H44 C47 0.929 . S
H45 C50 0.929 . S
H46 C52 0.930 . S
C47 H44 0.929 . S
C47 C48 1.398 . S
C47 C49 1.396 . S
C48 C47 1.398 . S
C48 C52 1.407 . S
C49 C47 1.396 . S
C49 C50 1.394 . S
C50 H45 0.929 . S
C50 C49 1.394 . S
C50 C51 1.382 . S
C51 C50 1.382 . S
C51 C52 1.392 . S
C51 N53 1.420 . S
C52 H46 0.930 . S
C52 C48 1.407 . S
C52 C51 1.392 . S
N53 C51 1.420 . S
N53 C54 1.244 . S
C54 N53 1.244 . S
H55 C58 0.929 . S
H56 C61 0.929 . S
H57 C63 0.930 . S
C58 H55 0.929 . S
C58 C59 1.398 . S
C58 C60 1.396 . S
C59 C58 1.398 . S
C59 C63 1.407 . S
C60 C58 1.396 . S
C60 C61 1.394 . S
C61 H56 0.929 . S
C61 C60 1.394 . S
C61 C62 1.382 . S
C62 C61 1.382 . S
C62 C63 1.392 . S
C62 N64 1.420 . S
C63 H57 0.930 . S
C63 C59 1.407 . S
C63 C62 1.392 . S
N64 C62 1.420 . S
N64 C65 1.244 . S
C65 N64 1.244 . S
H66 C69 0.929 . S
H67 C72 0.929 . S
H68 C74 0.930 . S
C69 H66 0.929 . S
C69 C70 1.398 . S
C69 C71 1.396 . S
C70 C69 1.398 . S
C70 C74 1.407 . S
C71 C69 1.396 . S
C71 C72 1.394 . S
C72 H67 0.929 . S
C72 C71 1.394 . S
C72 C73 1.382 . S
C73 C72 1.382 . S
C73 C74 1.392 . S
C73 N75 1.420 . S
C74 H68 0.930 . S
C74 C70 1.407 . S
C74 C73 1.392 . S
N75 C73 1.420 . S
N75 C76 1.244 . S
C76 N75 1.244 . S
H77 C80 0.929 . S
H78 C83 0.929 . S
H79 C85 0.930 . S
C80 H77 0.929 . S
C80 C81 1.398 . S
C80 C82 1.396 . S
C81 C80 1.398 . S
C81 C85 1.407 . S
C82 C80 1.396 . S
C82 C83 1.394 . S
C83 H78 0.929 . S
C83 C82 1.394 . S
C83 C84 1.382 . S
C84 C83 1.382 . S
C84 C85 1.392 . S
C84 N86 1.420 . S
C85 H79 0.930 . S
C85 C81 1.407 . S
C85 C84 1.392 . S
N86 C84 1.420 . S
N86 C87 1.244 . S
C87 N86 1.244 . S
H88 C91 0.929 . S
H89 C94 0.929 . S
H90 C96 0.930 . S
C91 H88 0.929 . S
C91 C92 1.398 . S
C91 C93 1.396 . S
C92 C91 1.398 . S
C92 C96 1.407 . S
C93 C91 1.396 . S
C93 C94 1.394 . S
C94 H89 0.929 . S
C94 C93 1.394 . S
C94 C95 1.382 . S
C95 C94 1.382 . S
C95 C96 1.392 . S
C95 N97 1.420 . S
C96 H90 0.930 . S
C96 C92 1.407 . S
C96 C95 1.392 . S
N97 C95 1.420 . S
N97 C98 1.244 . S
C98 N97 1.244 . S
H99 C102 0.929 . S
H100 C105 0.929 . S
H101 C107 0.930 . S
C102 H99 0.929 . S
C102 C103 1.398 . S
C102 C104 1.396 . S
C103 C102 1.398 . S
C103 C107 1.407 . S
C104 C102 1.396 . S
C104 C105 1.394 . S
C105 H100 0.929 . S
C105 C104 1.394 . S
C105 C106 1.382 . S
C106 C105 1.382 . S
C106 C107 1.392 . S
C106 N108 1.420 . S
C107 H101 0.930 . S
C107 C103 1.407 . S
C107 C106 1.392 . S
N108 C106 1.420 . S
N108 C109 1.244 . S
C109 N108 1.244 . S
H110 C113 0.929 . S
H111 C116 0.929 . S
H112 C118 0.930 1_554 S
C113 H110 0.929 . S
C113 C114 1.398 . S
C113 C115 1.396 . S
C114 C113 1.398 . S
C114 C118 1.407 . S
C115 C113 1.396 . S
C115 C116 1.394 . S
C116 H111 0.929 . S
C116 C115 1.394 . S
C116 C117 1.382 . S
C117 C116 1.382 . S
C117 C118 1.392 . S
C117 N119 1.420 . S
C118 H112 0.930 1_556 S
C118 C114 1.407 . S
C118 C117 1.392 . S
N119 C117 1.420 . S
N119 C120 1.244 . S
C120 N119 1.244 . S
H121 C124 0.929 . S
H122 C127 0.929 . S
H123 C129 0.930 . S
C124 H121 0.929 . S
C124 C125 1.398 . S
C124 C126 1.396 . S
C125 C124 1.398 . S
C125 C129 1.407 . S
C126 C124 1.396 . S
C126 C127 1.394 . S
C127 H122 0.929 . S
C127 C126 1.394 . S
C127 C128 1.382 . S
C128 C127 1.382 . S
C128 C129 1.392 . S
C128 N130 1.420 . S
C129 H123 0.930 . S
C129 C125 1.407 . S
C129 C128 1.392 . S
N130 C128 1.420 . S
N130 C131 1.244 . S
C131 N130 1.244 . S
H132 C135 0.929 . S
H133 C138 0.929 . S
H134 C140 0.930 . S
C135 H132 0.929 . S
C135 C136 1.398 . S
C135 C137 1.396 . S
C136 C135 1.398 . S
C136 C140 1.407 . S
C137 C135 1.396 . S
C137 C138 1.394 . S
C138 H133 0.929 . S
C138 C137 1.394 . S
C138 C139 1.382 . S
C139 C138 1.382 . S
C139 C140 1.392 . S
C139 N141 1.420 . S
C140 H134 0.930 . S
C140 C136 1.407 . S
C140 C139 1.392 . S
N141 C139 1.420 . S
N141 C142 1.244 . S
C142 N141 1.244 . S
H143 C146 0.929 . S
H144 C149 0.929 . S
H145 C151 0.930 . S
C146 H143 0.929 . S
C146 C147 1.398 . S
C146 C148 1.396 . S
C147 C146 1.398 . S
C147 C151 1.407 . S
C148 C146 1.396 . S
C148 C149 1.394 . S
C149 H144 0.929 . S
C149 C148 1.394 . S
C149 C150 1.382 . S
C150 C149 1.382 . S
C150 C151 1.392 . S
C150 N152 1.420 . S
C151 H145 0.930 . S
C151 C147 1.407 . S
C151 C150 1.392 . S
N152 C150 1.420 . S
N152 C153 1.244 . S
C153 N152 1.244 . S
H154 C157 0.929 . S
H155 C160 0.929 . S
H156 C162 0.930 . S
C157 H154 0.929 . S
C157 C158 1.398 . S
C157 C159 1.396 . S
C158 C157 1.398 . S
C158 C162 1.407 . S
C159 C157 1.396 . S
C159 C160 1.394 . S
C160 H155 0.929 . S
C160 C159 1.394 . S
C160 C161 1.382 . S
C161 C160 1.382 . S
C161 C162 1.392 . S
C161 N163 1.420 . S
C162 H156 0.930 . S
C162 C158 1.407 . S
C162 C161 1.392 . S
N163 C161 1.420 . S
N163 C164 1.244 . S
C164 N163 1.244 . S
H165 C168 0.929 . S
H166 C171 0.929 . S
H167 C173 0.930 . S
C168 H165 0.929 . S
C168 C169 1.398 . S
C168 C170 1.396 . S
C169 C168 1.398 . S
C169 C173 1.407 . S
C170 C168 1.396 . S
C170 C171 1.394 . S
C171 H166 0.929 . S
C171 C170 1.394 . S
C171 C172 1.382 . S
C172 C171 1.382 . S
C172 C173 1.392 . S
C172 N174 1.420 . S
C173 H167 0.930 . S
C173 C169 1.407 . S
C173 C172 1.392 . S
N174 C172 1.420 . S
N174 C175 1.244 . S
C175 N174 1.244 . S
H176 C179 0.929 . S
H177 C182 0.929 . S
H178 C184 0.930 . S
C179 H176 0.929 . S
C179 C180 1.398 . S
C179 C181 1.396 . S
C180 C179 1.398 . S
C180 C184 1.407 . S
C181 C179 1.396 . S
C181 C182 1.394 . S
C182 H177 0.929 . S
C182 C181 1.394 . S
C182 C183 1.382 . S
C183 C182 1.382 . S
C183 C184 1.392 . S
C183 N185 1.420 . S
C184 H178 0.930 . S
C184 C180 1.407 . S
C184 C183 1.392 . S
N185 C183 1.420 . S
N185 C186 1.244 . S
C186 N185 1.244 . S
H187 C190 0.929 . S
H188 C193 0.929 . S
H189 C195 0.930 . S
C190 H187 0.929 . S
C190 C191 1.398 . S
C190 C192 1.396 . S
C191 C190 1.398 . S
C191 C195 1.407 . S
C192 C190 1.396 . S
C192 C193 1.394 . S
C193 H188 0.929 . S
C193 C192 1.394 . S
C193 C194 1.382 . S
C194 C193 1.382 . S
C194 C195 1.392 . S
C194 N196 1.420 . S
C195 H189 0.930 . S
C195 C191 1.407 . S
C195 C194 1.392 . S
N196 C194 1.420 . S
N196 C197 1.244 . S
C197 N196 1.244 . S
Tb198 O201 2.453 . S
Tb198 O202 2.596 1_545 S
Tb198 O203 2.374 1_545 S
Tb198 O211 2.343 1_554 S
Tb198 O213 2.353 . S
Tb198 O215 2.427 . S
Tb198 O216 2.513 1_554 S
C199 O203 1.251 . S
C199 O205 1.263 1_554 S
Tb200 O202 2.343 1_556 S
Tb200 O205 2.353 . S
Tb200 O208 2.427 1_556 S
Tb200 O209 2.513 1_556 S
Tb200 O210 2.453 . S
Tb200 O211 2.596 1_565 S
Tb200 O212 2.374 1_565 S
O201 Tb198 2.453 . S
O201 C217 1.245 1_545 S
O202 Tb198 2.596 1_565 S
O202 Tb200 2.343 1_554 S
O202 C217 1.259 . S
O203 Tb198 2.374 1_565 S
O203 C199 1.251 . S
C204 O208 1.275 . S
C204 O209 1.246 . S
O205 C199 1.263 1_556 S
O205 Tb200 2.353 . S
C206 O210 1.245 1_545 S
C206 O211 1.259 . S
C207 O212 1.250 1_554 S
C207 O213 1.263 . S
O208 Tb200 2.427 1_554 S
O208 C204 1.275 . S
O209 Tb200 2.513 1_554 S
O209 C204 1.246 . S
O210 Tb200 2.453 . S
O210 C206 1.245 1_565 S
O211 Tb198 2.343 1_556 S
O211 Tb200 2.596 1_545 S
O211 C206 1.259 . S
O212 Tb200 2.374 1_545 S
O212 C207 1.250 1_556 S
O213 Tb198 2.353 . S
O213 C207 1.263 . S
C214 O215 1.275 1_556 S
C214 O216 1.246 . S
O215 Tb198 2.427 . S
O215 C214 1.275 1_554 S
O216 Tb198 2.513 1_556 S
O216 C214 1.246 . S
C217 O201 1.245 1_565 S
C217 O202 1.259 . S
Tb218 O221 2.453 . S
Tb218 O222 2.596 1_655 S
Tb218 O223 2.374 1_655 S
Tb218 O231 2.343 1_554 S
Tb218 O233 2.353 . S
Tb218 O235 2.427 1_554 S
Tb218 O236 2.513 1_554 S
C219 O223 1.251 . S
C219 O225 1.263 1_554 S
Tb220 O222 2.343 1_556 S
Tb220 O225 2.353 . S
Tb220 O228 2.427 1_556 S
Tb220 O229 2.513 1_556 S
Tb220 O230 2.453 . S
Tb220 O231 2.596 1_455 S
Tb220 O232 2.374 1_455 S
O221 Tb218 2.453 . S
O221 C237 1.245 1_655 S
O222 Tb218 2.596 1_455 S
O222 Tb220 2.343 1_554 S
O222 C237 1.259 . S
O223 Tb218 2.374 1_455 S
O223 C219 1.251 . S
C224 O228 1.275 . S
C224 O229 1.246 . S
O225 C219 1.263 1_556 S
O225 Tb220 2.353 . S
C226 O230 1.245 1_655 S
C226 O231 1.259 . S
C227 O232 1.250 . S
C227 O233 1.263 1_556 S
O228 Tb220 2.427 1_554 S
O228 C224 1.275 . S
O229 Tb220 2.513 1_554 S
O229 C224 1.246 . S
O230 Tb220 2.453 . S
O230 C226 1.245 1_455 S
O231 Tb218 2.343 1_556 S
O231 Tb220 2.596 1_655 S
O231 C226 1.259 . S
O232 Tb220 2.374 1_655 S
O232 C227 1.250 . S
O233 Tb218 2.353 . S
O233 C227 1.263 1_554 S
C234 O235 1.275 . S
C234 O236 1.246 . S
O235 Tb218 2.427 1_556 S
O235 C234 1.275 . S
O236 Tb218 2.513 1_556 S
O236 C234 1.246 . S
C237 O221 1.245 1_455 S
C237 O222 1.259 . S
Tb238 O241 2.453 . S
Tb238 O242 2.596 . S
Tb238 O243 2.374 . S
Tb238 O251 2.343 1_556 S
Tb238 O253 2.353 . S
Tb238 O255 2.427 1_556 S
Tb238 O256 2.513 1_556 S
C239 O243 1.251 1_554 S
C239 O245 1.263 . S
Tb240 O242 2.343 1_554 S
Tb240 O245 2.353 . S
Tb240 O248 2.427 1_554 S
Tb240 O249 2.513 1_554 S
Tb240 O250 2.453 . S
Tb240 O251 2.596 . S
Tb240 O252 2.374 . S
O241 Tb238 2.453 . S
O241 C257 1.245 . S
O242 Tb238 2.596 . S
O242 Tb240 2.343 1_556 S
O242 C257 1.259 . S
O243 Tb238 2.374 . S
O243 C239 1.251 1_556 S
C244 O248 1.275 . S
C244 O249 1.246 . S
O245 C239 1.263 . S
O245 Tb240 2.353 . S
C246 O250 1.245 . S
C246 O251 1.259 . S
C247 O252 1.250 . S
C247 O253 1.263 1_554 S
O248 Tb240 2.427 1_556 S
O248 C244 1.275 . S
O249 Tb240 2.513 1_556 S
O249 C244 1.246 . S
O250 Tb240 2.453 . S
O250 C246 1.245 . S
O251 Tb238 2.343 1_554 S
O251 Tb240 2.596 . S
O251 C246 1.259 . S
O252 Tb240 2.374 . S
O252 C247 1.250 . S
O253 Tb238 2.353 . S
O253 C247 1.263 1_556 S
C254 O255 1.275 . S
C254 O256 1.246 . S
O255 Tb238 2.427 1_554 S
O255 C254 1.275 . S
O256 Tb238 2.513 1_554 S
O256 C254 1.246 . S
C257 O241 1.245 . S
C257 O242 1.259 . S
Tb258 O261 2.453 . S
Tb258 O262 2.596 . S
Tb258 O263 2.374 . S
Tb258 O271 2.343 . S
Tb258 O273 2.353 . S
Tb258 O275 2.427 . S
Tb258 O276 2.513 . S
C259 O263 1.251 . S
C259 O265 1.263 . S
Tb260 O262 2.343 . S
Tb260 O265 2.353 . S
Tb260 O268 2.427 . S
Tb260 O269 2.513 . S
Tb260 O270 2.453 . S
Tb260 O271 2.596 . S
Tb260 O272 2.374 . S
O261 Tb258 2.453 . S
O261 C277 1.245 . S
O262 Tb258 2.596 . S
O262 Tb260 2.343 . S
O262 C277 1.259 . S
O263 Tb258 2.374 . S
O263 C259 1.251 . S
C264 O268 1.275 . S
C264 O269 1.246 . S
O265 C259 1.263 . S
O265 Tb260 2.353 . S
C266 O270 1.245 . S
C266 O271 1.259 . S
C267 O272 1.250 . S
C267 O273 1.263 . S
O268 Tb260 2.427 . S
O268 C264 1.275 . S
O269 Tb260 2.513 . S
O269 C264 1.246 . S
O270 Tb260 2.453 . S
O270 C266 1.245 . S
O271 Tb258 2.343 . S
O271 Tb260 2.596 . S
O271 C266 1.259 . S
O272 Tb260 2.374 . S
O272 C267 1.250 . S
O273 Tb258 2.353 . S
O273 C267 1.263 . S
C274 O275 1.275 . S
C274 O276 1.246 . S
O275 Tb258 2.427 . S
O275 C274 1.275 . S
O276 Tb258 2.513 . S
O276 C274 1.246 . S
C277 O261 1.245 . S
C277 O262 1.259 . S
Tb278 O281 2.453 . S
Tb278 O282 2.596 . S
Tb278 O283 2.374 . S
Tb278 O291 2.343 . S
Tb278 O293 2.353 . S
Tb278 O295 2.427 . S
Tb278 O296 2.513 . S
C279 O283 1.251 . S
C279 O285 1.263 . S
Tb280 O282 2.343 . S
Tb280 O285 2.353 . S
Tb280 O288 2.427 . S
Tb280 O289 2.513 . S
Tb280 O290 2.453 . S
Tb280 O291 2.596 . S
Tb280 O292 2.374 . S
O281 Tb278 2.453 . S
O281 C297 1.245 . S
O282 Tb278 2.596 . S
O282 Tb280 2.343 . S
O282 C297 1.259 . S
O283 Tb278 2.374 . S
O283 C279 1.251 . S
C284 O288 1.275 . S
C284 O289 1.246 . S
O285 C279 1.263 . S
O285 Tb280 2.353 . S
C286 O290 1.245 . S
C286 O291 1.259 . S
C287 O292 1.250 . S
C287 O293 1.263 . S
O288 Tb280 2.427 . S
O288 C284 1.275 . S
O289 Tb280 2.513 . S
O289 C284 1.246 . S
O290 Tb280 2.453 . S
O290 C286 1.245 . S
O291 Tb278 2.343 . S
O291 Tb280 2.596 . S
O291 C286 1.259 . S
O292 Tb280 2.374 . S
O292 C287 1.250 . S
O293 Tb278 2.353 . S
O293 C287 1.263 . S
C294 O295 1.275 . S
C294 O296 1.246 . S
O295 Tb278 2.427 . S
O295 C294 1.275 . S
O296 Tb278 2.513 . S
O296 C294 1.246 . S
C297 O281 1.245 . S
C297 O282 1.259 . S
Tb298 O301 2.453 . S
Tb298 O302 2.596 . S
Tb298 O303 2.374 . S
Tb298 O311 2.343 . S
Tb298 O313 2.353 . S
Tb298 O315 2.427 . S
Tb298 O316 2.513 . S
C299 O303 1.251 . S
C299 O305 1.263 . S
Tb300 O302 2.343 . S
Tb300 O305 2.353 . S
Tb300 O308 2.427 . S
Tb300 O309 2.513 . S
Tb300 O310 2.453 . S
Tb300 O311 2.596 . S
Tb300 O312 2.374 . S
O301 Tb298 2.453 . S
O301 C317 1.245 . S
O302 Tb298 2.596 . S
O302 Tb300 2.343 . S
O302 C317 1.259 . S
O303 Tb298 2.374 . S
O303 C299 1.251 . S
C304 O308 1.275 . S
C304 O309 1.246 . S
O305 C299 1.263 . S
O305 Tb300 2.353 . S
C306 O310 1.245 . S
C306 O311 1.259 . S
C307 O312 1.250 . S
C307 O313 1.263 . S
O308 Tb300 2.427 . S
O308 C304 1.275 . S
O309 Tb300 2.513 . S
O309 C304 1.246 . S
O310 Tb300 2.453 . S
O310 C306 1.245 . S
O311 Tb298 2.343 . S
O311 Tb300 2.596 . S
O311 C306 1.259 . S
O312 Tb300 2.374 . S
O312 C307 1.250 . S
O313 Tb298 2.353 . S
O313 C307 1.263 . S
C314 O315 1.275 . S
C314 O316 1.246 . S
O315 Tb298 2.427 . S
O315 C314 1.275 . S
O316 Tb298 2.513 . S
O316 C314 1.246 . S
C317 O301 1.245 . S
C317 O302 1.259 . S
Tb318 O321 2.453 . S
Tb318 O322 2.596 . S
Tb318 O323 2.374 . S
Tb318 O331 2.343 . S
Tb318 O333 2.353 . S
Tb318 O335 2.427 . S
Tb318 O336 2.513 . S
C319 O323 1.251 . S
C319 O325 1.263 . S
Tb320 O322 2.343 . S
Tb320 O325 2.353 . S
Tb320 O328 2.427 . S
Tb320 O329 2.513 . S
Tb320 O330 2.453 . S
Tb320 O331 2.596 . S
Tb320 O332 2.374 . S
O321 Tb318 2.453 . S
O321 C337 1.245 . S
O322 Tb318 2.596 . S
O322 Tb320 2.343 . S
O322 C337 1.259 . S
O323 Tb318 2.374 . S
O323 C319 1.251 . S
C324 O328 1.275 . S
C324 O329 1.246 . S
O325 C319 1.263 . S
O325 Tb320 2.353 . S
C326 O330 1.245 . S
C326 O331 1.259 . S
C327 O332 1.250 . S
C327 O333 1.263 . S
O328 Tb320 2.427 . S
O328 C324 1.275 . S
O329 Tb320 2.513 . S
O329 C324 1.246 . S
O330 Tb320 2.453 . S
O330 C326 1.245 . S
O331 Tb318 2.343 . S
O331 Tb320 2.596 . S
O331 C326 1.259 . S
O332 Tb320 2.374 . S
O332 C327 1.250 . S
O333 Tb318 2.353 . S
O333 C327 1.263 . S
C334 O335 1.275 . S
C334 O336 1.246 . S
O335 Tb318 2.427 . S
O335 C334 1.275 . S
O336 Tb318 2.513 . S
O336 C334 1.246 . S
C337 O321 1.245 . S
C337 O322 1.259 . S
Tb338 O341 2.453 . S
Tb338 O342 2.596 . S
Tb338 O343 2.374 . S
Tb338 O351 2.343 . S
Tb338 O353 2.353 . S
Tb338 O355 2.427 . S
Tb338 O356 2.513 . S
C339 O343 1.251 . S
C339 O345 1.263 . S
Tb340 O342 2.343 . S
Tb340 O345 2.353 . S
Tb340 O348 2.427 . S
Tb340 O349 2.513 . S
Tb340 O350 2.453 . S
Tb340 O351 2.596 . S
Tb340 O352 2.374 . S
O341 Tb338 2.453 . S
O341 C357 1.245 . S
O342 Tb338 2.596 . S
O342 Tb340 2.343 . S
O342 C357 1.259 . S
O343 Tb338 2.374 . S
O343 C339 1.251 . S
C344 O348 1.275 . S
C344 O349 1.246 . S
O345 C339 1.263 . S
O345 Tb340 2.353 . S
C346 O350 1.245 . S
C346 O351 1.259 . S
C347 O352 1.250 . S
C347 O353 1.263 . S
O348 Tb340 2.427 . S
O348 C344 1.275 . S
O349 Tb340 2.513 . S
O349 C344 1.246 . S
O350 Tb340 2.453 . S
O350 C346 1.245 . S
O351 Tb338 2.343 . S
O351 Tb340 2.596 . S
O351 C346 1.259 . S
O352 Tb340 2.374 . S
O352 C347 1.250 . S
O353 Tb338 2.353 . S
O353 C347 1.263 . S
C354 O355 1.275 . S
C354 O356 1.246 . S
O355 Tb338 2.427 . S
O355 C354 1.275 . S
O356 Tb338 2.513 . S
O356 C354 1.246 . S
C357 O341 1.245 . S
C357 O342 1.259 . S
Tb358 O361 2.453 . S
Tb358 O362 2.596 . S
Tb358 O363 2.374 . S
Tb358 O371 2.343 . S
Tb358 O373 2.353 . S
Tb358 O375 2.427 . S
Tb358 O376 2.513 . S
C359 O363 1.251 . S
C359 O365 1.263 . S
Tb360 O362 2.343 . S
Tb360 O365 2.353 . S
Tb360 O368 2.427 . S
Tb360 O369 2.513 . S
Tb360 O370 2.453 . S
Tb360 O371 2.596 . S
Tb360 O372 2.374 . S
O361 Tb358 2.453 . S
O361 C377 1.245 . S
O362 Tb358 2.596 . S
O362 Tb360 2.343 . S
O362 C377 1.259 . S
O363 Tb358 2.374 . S
O363 C359 1.251 . S
C364 O368 1.275 . S
C364 O369 1.246 . S
O365 C359 1.263 . S
O365 Tb360 2.353 . S
C366 O370 1.245 . S
C366 O371 1.259 . S
C367 O372 1.250 . S
C367 O373 1.263 . S
O368 Tb360 2.427 . S
O368 C364 1.275 . S
O369 Tb360 2.513 . S
O369 C364 1.246 . S
O370 Tb360 2.453 . S
O370 C366 1.245 . S
O371 Tb358 2.343 . S
O371 Tb360 2.596 . S
O371 C366 1.259 . S
O372 Tb360 2.374 . S
O372 C367 1.250 . S
O373 Tb358 2.353 . S
O373 C367 1.263 . S
C374 O375 1.275 . S
C374 O376 1.246 . S
O375 Tb358 2.427 . S
O375 C374 1.275 . S
O376 Tb358 2.513 . S
O376 C374 1.246 . S
C377 O361 1.245 . S
C377 O362 1.259 . S
C378 C379 1.369 . S
C378 C380 1.419 . S
C378 H382 0.930 . S
C379 C378 1.369 . S
C379 C388 1.429 . S
C380 C378 1.419 . S
C380 C381 1.363 . S
C380 H383 0.929 . S
C381 C380 1.363 . S
C381 C387 1.428 . S
H382 C378 0.930 . S
H383 C380 0.929 . S
S384 N385 1.613 . S
S384 N386 1.610 . S
N385 S384 1.613 . S
N385 C388 1.350 . S
N386 S384 1.610 . S
N386 C387 1.351 . S
C387 C381 1.428 . S
C387 N386 1.351 . S
C387 C388 1.434 . S
C388 C379 1.429 . S
C388 N385 1.350 . S
C388 C387 1.434 . S
C389 C390 1.369 . S
C389 C391 1.419 . S
C389 H393 0.930 . S
C390 C389 1.369 . S
C390 C399 1.429 . S
C391 C389 1.419 . S
C391 C392 1.363 . S
C391 H394 0.929 . S
C392 C391 1.363 . S
C392 C398 1.428 . S
H393 C389 0.930 . S
H394 C391 0.929 . S
S395 N396 1.613 . S
S395 N397 1.610 . S
N396 S395 1.613 . S
N396 C399 1.350 . S
N397 S395 1.610 . S
N397 C398 1.351 . S
C398 C392 1.428 . S
C398 N397 1.351 . S
C398 C399 1.434 . S
C399 C390 1.429 . S
C399 N396 1.350 . S
C399 C398 1.434 . S
C400 C401 1.369 . S
C400 C402 1.419 . S
C400 H404 0.930 . S
C401 C400 1.369 . S
C401 C410 1.429 . S
C402 C400 1.419 . S
C402 C403 1.363 . S
C402 H405 0.929 . S
C403 C402 1.363 . S
C403 C409 1.428 . S
H404 C400 0.930 . S
H405 C402 0.929 . S
S406 N407 1.613 . S
S406 N408 1.610 . S
N407 S406 1.613 . S
N407 C410 1.350 . S
N408 S406 1.610 . S
N408 C409 1.351 . S
C409 C403 1.428 . S
C409 N408 1.351 . S
C409 C410 1.434 . S
C410 C401 1.429 . S
C410 N407 1.350 . S
C410 C409 1.434 . S
C411 C412 1.369 . S
C411 C413 1.423 . S
C411 H415 0.923 1_556 S
C412 C411 1.369 . S
C412 C421 1.429 . S
C413 C411 1.423 . S
C413 C414 1.379 . S
C413 H416 0.909 1_556 S
C414 C413 1.379 . S
C414 C420 1.428 . S
H415 C411 0.923 1_554 S
H416 C413 0.909 1_554 S
S417 N418 1.613 . S
S417 N419 1.610 . S
N418 S417 1.613 . S
N418 C421 1.350 . S
N419 S417 1.610 . S
N419 C420 1.351 . S
C420 C414 1.428 . S
C420 N419 1.351 . S
C420 C421 1.434 . S
C421 C412 1.429 . S
C421 N418 1.350 . S
C421 C420 1.434 . S
C422 C423 1.369 . S
C422 C424 1.419 . S
C422 H426 0.930 . S
C423 C422 1.369 . S
C423 C432 1.429 . S
C424 C422 1.419 . S
C424 C425 1.363 . S
C424 H427 0.929 . S
C425 C424 1.363 . S
C425 C431 1.428 . S
H426 C422 0.930 . S
H427 C424 0.929 . S
S428 N429 1.613 . S
S428 N430 1.610 . S
N429 S428 1.613 . S
N429 C432 1.350 . S
N430 S428 1.610 . S
N430 C431 1.351 . S
C431 C425 1.428 . S
C431 N430 1.351 . S
C431 C432 1.434 . S
C432 C423 1.429 . S
C432 N429 1.350 . S
C432 C431 1.434 . S
C433 C434 1.369 . S
C433 C435 1.419 1_556 S
C433 H437 0.930 1_556 S
C434 C433 1.369 . S
C434 C443 1.429 . S
C435 C433 1.419 1_554 S
C435 C436 1.363 1_554 S
C435 H438 0.929 . S
C436 C435 1.363 1_556 S
C436 C442 1.428 . S
H437 C433 0.930 1_554 S
H438 C435 0.929 . S
S439 N440 1.613 . S
S439 N441 1.610 . S
N440 S439 1.613 . S
N440 C443 1.350 . S
N441 S439 1.610 . S
N441 C442 1.351 . S
C442 C436 1.428 . S
C442 N441 1.351 . S
C442 C443 1.434 . S
C443 C434 1.429 . S
C443 N440 1.350 . S
C443 C442 1.434 . S
C444 C445 1.369 . S
C444 C446 1.419 1_556 S
C444 H448 0.930 1_556 S
C445 C444 1.369 . S
C445 C454 1.429 . S
C446 C444 1.419 1_554 S
C446 C447 1.363 1_554 S
C446 H449 0.929 . S
C447 C446 1.363 1_556 S
C447 C453 1.428 . S
H448 C444 0.930 1_554 S
H449 C446 0.929 . S
S450 N451 1.613 . S
S450 N452 1.610 . S
N451 S450 1.613 . S
N451 C454 1.350 . S
N452 S450 1.610 . S
N452 C453 1.351 . S
C453 C447 1.428 . S
C453 N452 1.351 . S
C453 C454 1.434 . S
C454 C445 1.429 . S
C454 N451 1.350 . S
C454 C453 1.434 . S
C455 C456 1.369 . S
C455 C457 1.419 . S
C455 H459 0.930 . S
C456 C455 1.369 . S
C456 C465 1.429 . S
C457 C455 1.419 . S
C457 C458 1.363 . S
C457 H460 0.929 1_556 S
C458 C457 1.363 . S
C458 C464 1.428 . S
H459 C455 0.930 . S
H460 C457 0.929 1_554 S
S461 N462 1.613 . S
S461 N463 1.610 . S
N462 S461 1.613 . S
N462 C465 1.350 . S
N463 S461 1.610 . S
N463 C464 1.351 . S
C464 C458 1.428 . S
C464 N463 1.351 . S
C464 C465 1.434 . S
C465 C456 1.429 . S
C465 N462 1.350 . S
C465 C464 1.434 . S
C466 C467 1.369 1_554 S
C466 C468 1.419 . S
C466 H470 0.930 . S
C467 C466 1.369 1_556 S
C467 C476 1.429 . S
C468 C466 1.419 . S
C468 C469 1.363 1_554 S
C468 H471 0.929 . S
C469 C468 1.363 1_556 S
C469 C475 1.428 . S
H470 C466 0.930 . S
H471 C468 0.929 . S
S472 N473 1.613 . S
S472 N474 1.610 . S
N473 S472 1.613 . S
N473 C476 1.350 . S
N474 S472 1.610 . S
N474 C475 1.351 . S
C475 C469 1.428 . S
C475 N474 1.351 . S
C475 C476 1.434 . S
C476 C467 1.429 . S
C476 N473 1.350 . S
C476 C475 1.434 . S
C477 C478 1.369 . S
C477 C479 1.419 . S
C477 H481 0.930 1_554 S
C478 C477 1.369 . S
C478 C487 1.429 . S
C479 C477 1.419 . S
C479 C480 1.377 . S
C479 H482 0.915 1_554 S
C480 C479 1.377 . S
C480 C486 1.428 . S
H481 C477 0.930 1_556 S
H482 C479 0.915 1_556 S
S483 N484 1.613 . S
S483 N485 1.610 . S
N484 S483 1.613 . S
N484 C487 1.350 . S
N485 S483 1.610 . S
N485 C486 1.351 . S
C486 C480 1.428 . S
C486 N485 1.351 . S
C486 C487 1.434 . S
C487 C478 1.429 . S
C487 N484 1.350 . S
C487 C486 1.434 . S
C488 C489 1.369 . S
C488 C490 1.419 . S
C488 H492 0.930 . S
C489 C488 1.369 . S
C489 C498 1.429 . S
C490 C488 1.419 . S
C490 C491 1.363 . S
C490 H493 0.929 . S
C491 C490 1.363 . S
C491 C497 1.428 . S
H492 C488 0.930 . S
H493 C490 0.929 . S
S494 N495 1.613 . S
S494 N496 1.610 . S
N495 S494 1.613 . S
N495 C498 1.350 . S
N496 S494 1.610 . S
N496 C497 1.351 . S
C497 C491 1.428 . S
C497 N496 1.351 . S
C497 C498 1.434 . S
C498 C489 1.429 . S
C498 N495 1.350 . S
C498 C497 1.434 . S
C499 C500 1.369 . S
C499 C501 1.419 . S
C499 H503 0.930 . S
C500 C499 1.369 . S
C500 C509 1.429 . S
C501 C499 1.419 . S
C501 C502 1.363 . S
C501 H504 0.928 . S
C502 C501 1.363 . S
C502 C508 1.428 . S
H503 C499 0.930 . S
H504 C501 0.928 . S
S505 N506 1.613 . S
S505 N507 1.610 . S
N506 S505 1.613 . S
N506 C509 1.350 . S
N507 S505 1.610 . S
N507 C508 1.351 . S
C508 C502 1.428 . S
C508 N507 1.351 . S
C508 C509 1.434 . S
C509 C500 1.429 . S
C509 N506 1.350 . S
C509 C508 1.434 . S
C510 C511 1.369 . S
C510 C512 1.419 . S
C510 H514 0.930 . S
C511 C510 1.369 . S
C511 C520 1.429 . S
C512 C510 1.419 . S
C512 C513 1.363 1_655 S
C512 H515 0.929 . S
C513 C512 1.363 1_455 S
C513 C519 1.428 . S
H514 C510 0.930 . S
H515 C512 0.929 . S
S516 N517 1.613 1_455 S
S516 N518 1.610 . S
N517 S516 1.613 1_655 S
N517 C520 1.350 . S
N518 S516 1.610 . S
N518 C519 1.351 . S
C519 C513 1.428 . S
C519 N518 1.351 . S
C519 C520 1.434 1_455 S
C520 C511 1.429 . S
C520 N517 1.350 . S
C520 C519 1.434 1_655 S
C521 C522 1.369 . S
C521 C523 1.419 . S
C521 H525 0.930 . S
C522 C521 1.369 . S
C522 C531 1.429 . S
C523 C521 1.419 . S
C523 C524 1.363 . S
C523 H526 0.929 . S
C524 C523 1.363 . S
C524 C530 1.428 . S
H525 C521 0.930 . S
H526 C523 0.929 . S
S527 N528 1.613 . S
S527 N529 1.610 . S
N528 S527 1.613 . S
N528 C531 1.350 . S
N529 S527 1.610 . S
N529 C530 1.351 . S
C530 C524 1.428 . S
C530 N529 1.351 . S
C530 C531 1.434 . S
C531 C522 1.429 . S
C531 N528 1.350 . S
C531 C530 1.434 . S
C532 C533 1.369 . S
C532 C534 1.419 1_545 S
C532 H536 0.930 . S
C533 C532 1.369 . S
C533 C542 1.429 . S
C534 C532 1.419 1_565 S
C534 C535 1.363 . S
C534 H537 0.929 . S
C535 C534 1.363 . S
C535 C541 1.428 . S
H536 C532 0.930 . S
H537 C534 0.929 . S
S538 N539 1.613 1_565 S
S538 N540 1.610 . S
N539 S538 1.613 1_545 S
N539 C542 1.350 . S
N540 S538 1.610 . S
N540 C541 1.351 . S
C541 C535 1.428 . S
C541 N540 1.351 . S
C541 C542 1.434 1_565 S
C542 C533 1.429 . S
C542 N539 1.350 . S
C542 C541 1.434 1_545 S
C543 C544 1.369 . S
C543 C545 1.419 . S
C543 H547 0.930 . S
C544 C543 1.369 . S
C544 C553 1.429 . S
C545 C543 1.419 . S
C545 C546 1.363 . S
C545 H548 0.929 . S
C546 C545 1.363 . S
C546 C552 1.428 . S
H547 C543 0.930 . S
H548 C545 0.929 . S
S549 N550 1.613 . S
S549 N551 1.610 . S
N550 S549 1.613 . S
N550 C553 1.350 . S
N551 S549 1.610 . S
N551 C552 1.351 . S
C552 C546 1.428 . S
C552 N551 1.351 . S
C552 C553 1.434 . S
C553 C544 1.429 . S
C553 N550 1.350 . S
C553 C552 1.434 . S
C554 C555 1.369 . S
C554 C556 1.419 . S
C554 H558 0.930 . S
C555 C554 1.369 . S
C555 C564 1.429 . S
C556 C554 1.419 . S
C556 C557 1.363 . S
C556 H559 0.929 . S
C557 C556 1.363 . S
C557 C563 1.428 . S
H558 C554 0.930 . S
H559 C556 0.929 . S
S560 N561 1.613 . S
S560 N562 1.610 . S
N561 S560 1.613 . S
N561 C564 1.350 . S
N562 S560 1.610 . S
N562 C563 1.351 . S
C563 C557 1.428 . S
C563 N562 1.351 . S
C563 C564 1.434 . S
C564 C555 1.429 . S
C564 N561 1.350 . S
C564 C563 1.434 . S
C565 C566 1.369 . S
C565 C567 1.419 . S
C565 H569 0.930 . S
C566 C565 1.369 . S
C566 C575 1.429 . S
C567 C565 1.419 . S
C567 C568 1.363 . S
C567 H570 0.929 . S
C568 C567 1.363 . S
C568 C574 1.428 . S
H569 C565 0.930 . S
H570 C567 0.929 . S
S571 N572 1.613 . S
S571 N573 1.610 . S
N572 S571 1.613 . S
N572 C575 1.350 . S
N573 S571 1.610 . S
N573 C574 1.351 . S
C574 C568 1.428 . S
C574 N573 1.351 . S
C574 C575 1.434 . S
C575 C566 1.429 . S
C575 N572 1.350 . S
C575 C574 1.434 . S
C576 C577 1.369 . S
C576 C578 1.419 . S
C576 H580 0.930 . S
C577 C576 1.369 . S
C577 C586 1.429 . S
C578 C576 1.419 . S
C578 C579 1.363 . S
C578 H581 0.929 . S
C579 C578 1.363 . S
C579 C585 1.428 . S
H580 C576 0.930 . S
H581 C578 0.929 . S
S582 N583 1.613 . S
S582 N584 1.610 . S
N583 S582 1.613 . S
N583 C586 1.350 . S
N584 S582 1.610 . S
N584 C585 1.351 . S
C585 C579 1.428 . S
C585 N584 1.351 . S
C585 C586 1.434 . S
C586 C577 1.429 . S
C586 N583 1.350 . S
C586 C585 1.434 . S
C587 C588 1.369 . S
C587 C589 1.419 . S
C587 H591 0.930 . S
C588 C587 1.369 . S
C588 C597 1.429 . S
C589 C587 1.419 . S
C589 C590 1.363 . S
C589 H592 0.929 . S
C590 C589 1.363 . S
C590 C596 1.428 . S
H591 C587 0.930 . S
H592 C589 0.929 . S
S593 N594 1.613 . S
S593 N595 1.610 . S
N594 S593 1.613 . S
N594 C597 1.350 . S
N595 S593 1.610 . S
N595 C596 1.351 . S
C596 C590 1.428 . S
C596 N595 1.351 . S
C596 C597 1.434 . S
C597 C588 1.429 . S
C597 N594 1.350 . S
C597 C596 1.434 . S
C598 C599 1.369 . S
C598 C600 1.419 . S
C598 H602 0.930 . S
C599 C598 1.369 . S
C599 C608 1.429 . S
C600 C598 1.419 . S
C600 C601 1.363 . S
C600 H603 0.929 . S
C601 C600 1.363 . S
C601 C607 1.428 . S
H602 C598 0.930 . S
H603 C600 0.929 . S
S604 N605 1.613 . S
S604 N606 1.610 . S
N605 S604 1.613 . S
N605 C608 1.350 . S
N606 S604 1.610 . S
N606 C607 1.351 . S
C607 C601 1.428 . S
C607 N606 1.351 . S
C607 C608 1.434 . S
C608 C599 1.429 . S
C608 N605 1.350 . S
C608 C607 1.434 . S
C609 C610 1.370 . S
C609 C611 1.419 . S
C609 H613 0.930 . S
C610 C609 1.370 . S
C610 C619 1.430 . S
C611 C609 1.419 . S
C611 C612 1.363 . S
C611 H614 0.929 . S
C612 C611 1.363 . S
C612 C618 1.428 . S
H613 C609 0.930 . S
H614 C611 0.929 . S
S615 N616 1.613 . S
S615 N617 1.610 . S
N616 S615 1.613 . S
N616 C619 1.350 . S
N617 S615 1.610 . S
N617 C618 1.351 . S
C618 C612 1.428 . S
C618 N617 1.351 . S
C618 C619 1.434 . S
C619 C610 1.430 . S
C619 N616 1.350 . S
C619 C618 1.434 . S
C620 C621 1.369 1_455 S
C620 C622 1.419 . S
C620 H624 0.930 . S
C621 C620 1.369 1_655 S
C621 C630 1.429 1_655 S
C622 C620 1.419 . S
C622 C623 1.363 . S
C622 H625 0.929 . S
C623 C622 1.363 . S
C623 C629 1.428 . S
H624 C620 0.930 . S
H625 C622 0.929 . S
S626 N627 1.613 1_455 S
S626 N628 1.610 . S
N627 S626 1.613 1_655 S
N627 C630 1.350 1_655 S
N628 S626 1.610 . S
N628 C629 1.351 . S
C629 C623 1.428 . S
C629 N628 1.351 . S
C629 C630 1.434 . S
C630 C621 1.429 1_455 S
C630 N627 1.350 1_455 S
C630 C629 1.434 . S
C631 C632 1.369 . S
C631 C633 1.419 . S
C631 H635 0.930 . S
C632 C631 1.369 . S
C632 C641 1.429 . S
C633 C631 1.419 . S
C633 C634 1.363 . S
C633 H636 0.929 . S
C634 C633 1.363 . S
C634 C640 1.428 . S
H635 C631 0.930 . S
H636 C633 0.929 . S
S637 N638 1.613 . S
S637 N639 1.610 . S
N638 S637 1.613 . S
N638 C641 1.350 . S
N639 S637 1.610 . S
N639 C640 1.351 . S
C640 C634 1.428 . S
C640 N639 1.351 . S
C640 C641 1.434 . S
C641 C632 1.429 . S
C641 N638 1.350 . S
C641 C640 1.434 . S
C642 C643 1.369 . S
C642 C644 1.419 . S
C642 H646 0.930 . S
C643 C642 1.369 . S
C643 C652 1.429 . S
C644 C642 1.419 . S
C644 C645 1.363 . S
C644 H647 0.929 . S
C645 C644 1.363 . S
C645 C651 1.428 . S
H646 C642 0.930 . S
H647 C644 0.929 . S
S648 N649 1.613 . S
S648 N650 1.610 . S
N649 S648 1.613 . S
N649 C652 1.350 . S
N650 S648 1.610 . S
N650 C651 1.351 . S
C651 C645 1.428 . S
C651 N650 1.351 . S
C651 C652 1.434 . S
C652 C643 1.429 . S
C652 N649 1.350 . S
C652 C651 1.434 . S
C653 C654 1.369 . S
C653 C655 1.419 . S
C653 H657 0.930 . S
C654 C653 1.369 . S
C654 C663 1.429 . S
C655 C653 1.419 . S
C655 C656 1.363 . S
C655 H658 0.929 . S
C656 C655 1.363 . S
C656 C662 1.428 . S
H657 C653 0.930 . S
H658 C655 0.929 . S
S659 N660 1.613 . S
S659 N661 1.610 . S
N660 S659 1.613 . S
N660 C663 1.350 . S
N661 S659 1.610 . S
N661 C662 1.351 . S
C662 C656 1.428 . S
C662 N661 1.351 . S
C662 C663 1.434 . S
C663 C654 1.429 . S
C663 N660 1.350 . S
C663 C662 1.434 . S
C664 C665 1.369 . S
C664 C666 1.419 . S
C664 H668 0.930 . S
C665 C664 1.369 . S
C665 C674 1.429 . S
C666 C664 1.419 . S
C666 C667 1.363 . S
C666 H669 0.929 . S
C667 C666 1.363 . S
C667 C673 1.428 . S
H668 C664 0.930 . S
H669 C666 0.929 . S
S670 N671 1.613 . S
S670 N672 1.610 . S
N671 S670 1.613 . S
N671 C674 1.350 . S
N672 S670 1.610 . S
N672 C673 1.351 . S
C673 C667 1.428 . S
C673 N672 1.351 . S
C673 C674 1.434 . S
C674 C665 1.429 . S
C674 N671 1.350 . S
C674 C673 1.434 . S
C675 C676 1.369 . S
C675 C677 1.419 1_565 S
C675 H679 0.930 . S
C676 C675 1.369 . S
C676 C685 1.429 . S
C677 C675 1.419 1_545 S
C677 C678 1.363 . S
C677 H680 0.929 . S
C678 C677 1.363 . S
C678 C684 1.428 . S
H679 C675 0.930 . S
H680 C677 0.929 . S
S681 N682 1.613 . S
S681 N683 1.610 1_565 S
N682 S681 1.613 . S
N682 C685 1.350 . S
N683 S681 1.610 1_545 S
N683 C684 1.351 . S
C684 C678 1.428 . S
C684 N683 1.351 . S
C684 C685 1.434 1_545 S
C685 C676 1.429 . S
C685 N682 1.350 . S
C685 C684 1.434 1_565 S
C686 C687 1.369 . S
C686 C688 1.419 1_455 S
C686 H690 0.930 . S
C687 C686 1.369 . S
C687 C696 1.429 . S
C688 C686 1.419 1_655 S
C688 C689 1.363 . S
C688 H691 0.929 . S
C689 C688 1.363 . S
C689 C695 1.428 1_655 S
H690 C686 0.930 . S
H691 C688 0.929 . S
S692 N693 1.613 . S
S692 N694 1.612 1_455 S
N693 S692 1.613 . S
N693 C696 1.350 . S
N694 S692 1.612 1_655 S
N694 C695 1.353 1_655 S
C695 C689 1.428 1_455 S
C695 N694 1.353 1_455 S
C695 C696 1.434 . S
C696 C687 1.429 . S
C696 N693 1.350 . S
C696 C695 1.434 . S
C697 C698 1.369 . S
C697 C699 1.419 . S
C697 H701 0.930 . S
C698 C697 1.369 . S
C698 C707 1.429 . S
C699 C697 1.419 . S
C699 C700 1.363 . S
C699 H702 0.929 . S
C700 C699 1.363 . S
C700 C706 1.428 . S
H701 C697 0.930 . S
H702 C699 0.929 . S
S703 N704 1.613 . S
S703 N705 1.610 . S
N704 S703 1.613 . S
N704 C707 1.350 . S
N705 S703 1.610 . S
N705 C706 1.351 . S
C706 C700 1.428 . S
C706 N705 1.351 . S
C706 C707 1.434 . S
C707 C698 1.429 . S
C707 N704 1.350 . S
C707 C706 1.434 . S
C708 C709 1.369 . S
C708 C710 1.419 1_455 S
C708 H712 0.930 . S
C709 C708 1.369 . S
C709 C718 1.429 . S
C710 C708 1.419 1_655 S
C710 C711 1.363 . S
C710 H713 0.929 . S
C711 C710 1.363 . S
C711 C717 1.428 . S
H712 C708 0.930 . S
H713 C710 0.929 . S
S714 N715 1.613 1_655 S
S714 N716 1.610 . S
N715 S714 1.613 1_455 S
N715 C718 1.350 . S
N716 S714 1.610 . S
N716 C717 1.351 . S
C717 C711 1.428 . S
C717 N716 1.351 . S
C717 C718 1.434 1_655 S
C718 C709 1.429 . S
C718 N715 1.350 . S
C718 C717 1.434 1_455 S
C719 C720 1.369 . S
C719 C721 1.419 . S
C719 H723 0.930 . S
C720 C719 1.369 . S
C720 C729 1.429 . S
C721 C719 1.419 . S
C721 C722 1.363 . S
C721 H724 0.929 . S
C722 C721 1.363 . S
C722 C728 1.428 . S
H723 C719 0.930 . S
H724 C721 0.929 . S
S725 N726 1.613 . S
S725 N727 1.610 . S
N726 S725 1.613 . S
N726 C729 1.350 . S
N727 S725 1.610 . S
N727 C728 1.351 . S
C728 C722 1.428 . S
C728 N727 1.351 . S
C728 C729 1.434 . S
C729 C720 1.429 . S
C729 N726 1.350 . S
C729 C728 1.434 . S
C730 C731 1.369 1_545 S
C730 C732 1.419 . S
C730 H734 0.930 . S
C731 C730 1.369 1_565 S
C731 C740 1.429 1_565 S
C732 C730 1.419 . S
C732 C733 1.363 . S
C732 H735 0.929 . S
C733 C732 1.363 . S
C733 C739 1.428 . S
H734 C730 0.930 . S
H735 C732 0.929 . S
S736 N737 1.613 . S
S736 N738 1.610 . S
N737 S736 1.613 . S
N737 C740 1.350 . S
N738 S736 1.610 . S
N738 C739 1.351 . S
C739 C733 1.428 . S
C739 N738 1.351 . S
C739 C740 1.434 . S
C740 C731 1.429 1_545 S
C740 N737 1.350 . S
C740 C739 1.434 . S
C741 C742 1.369 . S
C741 C743 1.419 . S
C741 H745 0.930 . S
C742 C741 1.369 . S
C742 C751 1.429 . S
C743 C741 1.419 . S
C743 C744 1.363 . S
C743 H746 0.929 . S
C744 C743 1.363 . S
C744 C750 1.428 . S
H745 C741 0.930 . S
H746 C743 0.929 . S
S747 N748 1.613 . S
S747 N749 1.610 . S
N748 S747 1.613 . S
N748 C751 1.350 . S
N749 S747 1.610 . S
N749 C750 1.351 . S
C750 C744 1.428 . S
C750 N749 1.351 . S
C750 C751 1.434 . S
C751 C742 1.429 . S
C751 N748 1.350 . S
C751 C750 1.434 . S
C752 C753 1.369 . S
C752 C754 1.419 . S
C752 H756 0.930 . S
C753 C752 1.369 . S
C753 C762 1.429 . S
C754 C752 1.419 . S
C754 C755 1.363 . S
C754 H757 0.929 . S
C755 C754 1.363 . S
C755 C761 1.428 . S
H756 C752 0.930 . S
H757 C754 0.929 . S
S758 N759 1.613 . S
S758 N760 1.610 . S
N759 S758 1.613 . S
N759 C762 1.350 . S
N760 S758 1.610 . S
N760 C761 1.351 . S
C761 C755 1.428 . S
C761 N760 1.351 . S
C761 C762 1.434 . S
C762 C753 1.429 . S
C762 N759 1.350 . S
C762 C761 1.434 . S
C763 C764 1.369 . S
C763 C765 1.419 . S
C763 H767 0.930 . S
C764 C763 1.369 . S
C764 C773 1.429 . S
C765 C763 1.419 . S
C765 C766 1.363 . S
C765 H768 0.929 . S
C766 C765 1.363 . S
C766 C772 1.428 . S
H767 C763 0.930 . S
H768 C765 0.929 . S
S769 N770 1.613 . S
S769 N771 1.610 . S
N770 S769 1.613 . S
N770 C773 1.350 . S
N771 S769 1.610 . S
N771 C772 1.351 . S
C772 C766 1.428 . S
C772 N771 1.351 . S
C772 C773 1.434 . S
C773 C764 1.429 . S
C773 N770 1.350 . S
C773 C772 1.434 . S
C774 C775 1.369 . S
C774 C776 1.419 . S
C774 H778 0.930 . S
C775 C774 1.369 . S
C775 C784 1.429 . S
C776 C774 1.419 . S
C776 C777 1.363 . S
C776 H779 0.929 . S
C777 C776 1.363 . S
C777 C783 1.428 . S
H778 C774 0.930 . S
H779 C776 0.929 . S
S780 N781 1.613 . S
S780 N782 1.610 . S
N781 S780 1.613 . S
N781 C784 1.350 . S
N782 S780 1.610 . S
N782 C783 1.351 . S
C783 C777 1.428 . S
C783 N782 1.351 . S
C783 C784 1.434 . S
C784 C775 1.429 . S
C784 N781 1.350 . S
C784 C783 1.434 . S
C785 C786 1.369 . S
C785 C787 1.419 . S
C785 H789 0.930 . S
C786 C785 1.369 . S
C786 C795 1.429 . S
C787 C785 1.419 . S
C787 C788 1.363 . S
C787 H790 0.929 . S
C788 C787 1.363 . S
C788 C794 1.428 . S
H789 C785 0.930 . S
H790 C787 0.929 . S
S791 N792 1.613 1_655 S
S791 N793 1.610 . S
N792 S791 1.613 1_455 S
N792 C795 1.350 . S
N793 S791 1.610 . S
N793 C794 1.351 1_655 S
C794 C788 1.428 . S
C794 N793 1.351 1_455 S
C794 C795 1.434 . S
C795 C786 1.429 . S
C795 N792 1.350 . S
C795 C794 1.434 . S
C796 C797 1.369 . S
C796 C798 1.419 . S
C796 H800 0.930 . S
C797 C796 1.369 . S
C797 C806 1.429 . S
C798 C796 1.419 . S
C798 C799 1.363 . S
C798 H801 0.929 . S
C799 C798 1.363 . S
C799 C805 1.428 . S
H800 C796 0.930 . S
H801 C798 0.929 . S
S802 N803 1.613 . S
S802 N804 1.610 . S
N803 S802 1.613 . S
N803 C806 1.350 . S
N804 S802 1.610 . S
N804 C805 1.351 . S
C805 C799 1.428 . S
C805 N804 1.351 . S
C805 C806 1.434 . S
C806 C797 1.429 . S
C806 N803 1.350 . S
C806 C805 1.434 . S
C807 C808 1.369 . S
C807 C809 1.419 . S
C807 H811 0.930 . S
C808 C807 1.369 . S
C808 C817 1.429 . S
C809 C807 1.419 . S
C809 C810 1.363 . S
C809 H812 0.929 . S
C810 C809 1.363 . S
C810 C816 1.428 . S
H811 C807 0.930 . S
H812 C809 0.929 . S
S813 N814 1.613 1_455 S
S813 N815 1.610 . S
N814 S813 1.613 1_655 S
N814 C817 1.350 . S
N815 S813 1.610 . S
N815 C816 1.351 1_455 S
C816 C810 1.428 . S
C816 N815 1.351 1_655 S
C816 C817 1.434 . S
C817 C808 1.429 . S
C817 N814 1.350 . S
C817 C816 1.434 . S
C818 C819 1.369 . S
C818 C820 1.419 . S
C818 H822 0.930 . S
C819 C818 1.369 . S
C819 C828 1.429 . S
C820 C818 1.419 . S
C820 C821 1.363 . S
C820 H823 0.929 . S
C821 C820 1.363 . S
C821 C827 1.428 . S
H822 C818 0.930 . S
H823 C820 0.929 . S
S824 N825 1.613 . S
S824 N826 1.610 . S
N825 S824 1.613 . S
N825 C828 1.350 . S
N826 S824 1.610 . S
N826 C827 1.351 . S
C827 C821 1.428 . S
C827 N826 1.351 . S
C827 C828 1.434 . S
C828 C819 1.429 . S
C828 N825 1.350 . S
C828 C827 1.434 . S
C829 C830 1.369 . S
C829 C831 1.419 . S
C829 H833 0.930 . S
C830 C829 1.369 . S
C830 C839 1.429 . S
C831 C829 1.419 . S
C831 C832 1.363 . S
C831 H834 0.929 . S
C832 C831 1.363 . S
C832 C838 1.428 . S
H833 C829 0.930 . S
H834 C831 0.929 . S
S835 N836 1.613 . S
S835 N837 1.610 . S
N836 S835 1.613 . S
N836 C839 1.350 . S
N837 S835 1.610 . S
N837 C838 1.351 . S
C838 C832 1.428 . S
C838 N837 1.351 . S
C838 C839 1.434 . S
C839 C830 1.429 . S
C839 N836 1.350 . S
C839 C838 1.434 . S
C840 C841 1.369 . S
C840 C842 1.419 . S
C840 H844 0.930 . S
C841 C840 1.369 . S
C841 C850 1.429 . S
C842 C840 1.419 . S
C842 C843 1.363 . S
C842 H845 0.929 . S
C843 C842 1.363 . S
C843 C849 1.428 . S
H844 C840 0.930 . S
H845 C842 0.929 . S
S846 N847 1.613 . S
S846 N848 1.610 . S
N847 S846 1.613 . S
N847 C850 1.350 . S
N848 S846 1.610 . S
N848 C849 1.351 . S
C849 C843 1.428 . S
C849 N848 1.351 . S
C849 C850 1.434 . S
C850 C841 1.429 . S
C850 N847 1.350 . S
C850 C849 1.434 . S
C851 C852 1.369 . S
C851 C853 1.419 . S
C851 H855 0.930 . S
C852 C851 1.369 . S
C852 C861 1.429 . S
C853 C851 1.419 . S
C853 C854 1.363 . S
C853 H856 0.929 . S
C854 C853 1.363 . S
C854 C860 1.428 . S
H855 C851 0.930 . S
H856 C853 0.929 . S
S857 N858 1.613 . S
S857 N859 1.610 . S
N858 S857 1.613 . S
N858 C861 1.350 . S
N859 S857 1.610 . S
N859 C860 1.351 . S
C860 C854 1.428 . S
C860 N859 1.351 . S
C860 C861 1.434 . S
C861 C852 1.429 . S
C861 N858 1.350 . S
C861 C860 1.434 . S
C862 C863 1.369 . S
C862 C864 1.419 . S
C862 H866 0.930 . S
C863 C862 1.369 . S
C863 C872 1.429 . S
C864 C862 1.419 . S
C864 C865 1.363 . S
C864 H867 0.929 . S
C865 C864 1.363 . S
C865 C871 1.428 . S
H866 C862 0.930 . S
H867 C864 0.929 . S
S868 N869 1.613 . S
S868 N870 1.610 . S
N869 S868 1.613 . S
N869 C872 1.350 . S
N870 S868 1.610 . S
N870 C871 1.351 . S
C871 C865 1.428 . S
C871 N870 1.351 . S
C871 C872 1.434 . S
C872 C863 1.429 . S
C872 N869 1.350 . S
C872 C871 1.434 . S
C873 C874 1.369 . S
C873 C875 1.419 . S
C873 H877 0.930 . S
C874 C873 1.369 . S
C874 C883 1.429 . S
C875 C873 1.419 . S
C875 C876 1.363 . S
C875 H878 0.929 . S
C876 C875 1.363 . S
C876 C882 1.428 . S
H877 C873 0.930 . S
H878 C875 0.929 . S
S879 N880 1.613 . S
S879 N881 1.610 . S
N880 S879 1.613 . S
N880 C883 1.350 . S
N881 S879 1.610 . S
N881 C882 1.351 . S
C882 C876 1.428 . S
C882 N881 1.351 . S
C882 C883 1.434 . S
C883 C874 1.429 . S
C883 N880 1.350 . S
C883 C882 1.434 . S
C884 C885 1.369 . S
C884 C886 1.419 . S
C884 H888 0.930 . S
C885 C884 1.369 . S
C885 C894 1.429 . S
C886 C884 1.419 . S
C886 C887 1.363 . S
C886 H889 0.929 . S
C887 C886 1.363 . S
C887 C893 1.428 . S
H888 C884 0.930 . S
H889 C886 0.929 . S
S890 N891 1.613 . S
S890 N892 1.610 . S
N891 S890 1.613 . S
N891 C894 1.350 . S
N892 S890 1.610 . S
N892 C893 1.351 . S
C893 C887 1.428 . S
C893 N892 1.351 . S
C893 C894 1.434 . S
C894 C885 1.429 . S
C894 N891 1.350 . S
C894 C893 1.434 . S
C895 C896 1.369 . S
C895 C897 1.419 . S
C895 H899 0.930 . S
C896 C895 1.369 . S
C896 C905 1.429 . S
C897 C895 1.419 . S
C897 C898 1.363 . S
C897 H900 0.929 . S
C898 C897 1.363 . S
C898 C904 1.428 . S
H899 C895 0.930 . S
H900 C897 0.929 . S
S901 N902 1.613 . S
S901 N903 1.610 . S
N902 S901 1.613 . S
N902 C905 1.350 . S
N903 S901 1.610 . S
N903 C904 1.351 . S
C904 C898 1.428 . S
C904 N903 1.351 . S
C904 C905 1.434 . S
C905 C896 1.429 . S
C905 N902 1.350 . S
C905 C904 1.434 . S
C906 C907 1.369 . S
C906 C908 1.419 . S
C906 H910 0.930 . S
C907 C906 1.369 . S
C907 C916 1.429 . S
C908 C906 1.419 . S
C908 C909 1.363 . S
C908 H911 0.929 . S
C909 C908 1.363 . S
C909 C915 1.428 . S
H910 C906 0.930 . S
H911 C908 0.929 . S
S912 N913 1.613 . S
S912 N914 1.610 . S
N913 S912 1.613 . S
N913 C916 1.350 . S
N914 S912 1.610 . S
N914 C915 1.351 . S
C915 C909 1.428 . S
C915 N914 1.351 . S
C915 C916 1.434 . S
C916 C907 1.429 . S
C916 N913 1.350 . S
C916 C915 1.434 . S
C917 C918 1.369 . S
C917 C919 1.419 . S
C917 H921 0.930 . S
C918 C917 1.369 . S
C918 C927 1.429 . S
C919 C917 1.419 . S
C919 C920 1.363 . S
C919 H922 0.929 . S
C920 C919 1.363 . S
C920 C926 1.428 . S
H921 C917 0.930 . S
H922 C919 0.929 . S
S923 N924 1.613 . S
S923 N925 1.610 . S
N924 S923 1.613 . S
N924 C927 1.350 . S
N925 S923 1.610 . S
N925 C926 1.351 . S
C926 C920 1.428 . S
C926 N925 1.351 . S
C926 C927 1.434 . S
C927 C918 1.429 . S
C927 N924 1.350 . S
C927 C926 1.434 . S
C928 C929 1.369 . S
C928 C930 1.419 . S
C928 H932 0.930 . S
C929 C928 1.369 . S
C929 C938 1.429 . S
C930 C928 1.419 . S
C930 C931 1.363 . S
C930 H933 0.929 . S
C931 C930 1.363 . S
C931 C937 1.428 . S
H932 C928 0.930 . S
H933 C930 0.929 . S
S934 N935 1.613 . S
S934 N936 1.610 . S
N935 S934 1.613 . S
N935 C938 1.350 . S
N936 S934 1.610 . S
N936 C937 1.351 . S
C937 C931 1.428 . S
C937 N936 1.351 . S
C937 C938 1.434 . S
C938 C929 1.429 . S
C938 N935 1.350 . S
C938 C937 1.434 . S
C939 C940 1.369 . S
C939 C941 1.419 . S
C939 H943 0.930 . S
C940 C939 1.369 . S
C940 C949 1.429 . S
C941 C939 1.419 . S
C941 C942 1.363 . S
C941 H944 0.929 . S
C942 C941 1.363 . S
C942 C948 1.428 . S
H943 C939 0.930 . S
H944 C941 0.929 . S
S945 N946 1.613 . S
S945 N947 1.610 . S
N946 S945 1.613 . S
N946 C949 1.350 . S
N947 S945 1.610 . S
N947 C948 1.351 . S
C948 C942 1.428 . S
C948 N947 1.351 . S
C948 C949 1.434 . S
C949 C940 1.429 . S
C949 N946 1.350 . S
C949 C948 1.434 . S
C950 C951 1.369 . S
C950 C952 1.419 . S
C950 H954 0.930 . S
C951 C950 1.369 . S
C951 C960 1.429 . S
C952 C950 1.419 . S
C952 C953 1.363 . S
C952 H955 0.929 . S
C953 C952 1.363 . S
C953 C959 1.428 . S
H954 C950 0.930 . S
H955 C952 0.929 . S
S956 N957 1.613 . S
S956 N958 1.610 . S
N957 S956 1.613 . S
N957 C960 1.350 . S
N958 S956 1.610 . S
N958 C959 1.351 . S
C959 C953 1.428 . S
C959 N958 1.351 . S
C959 C960 1.434 . S
C960 C951 1.429 . S
C960 N957 1.350 . S
C960 C959 1.434 . S
C961 C962 1.369 . S
C961 C963 1.419 . S
C961 H965 0.930 . S
C962 C961 1.369 . S
C962 C971 1.429 . S
C963 C961 1.419 . S
C963 C964 1.363 . S
C963 H966 0.929 . S
C964 C963 1.363 . S
C964 C970 1.428 . S
H965 C961 0.930 . S
H966 C963 0.929 . S
S967 N968 1.613 . S
S967 N969 1.610 . S
N968 S967 1.613 . S
N968 C971 1.350 . S
N969 S967 1.610 . S
N969 C970 1.351 . S
C970 C964 1.428 . S
C970 N969 1.351 . S
C970 C971 1.434 . S
C971 C962 1.429 . S
C971 N968 1.350 . S
C971 C970 1.434 . S
C379 C147 1.550 . S
C381 C204 1.532 . S
C390 C158 1.489 . S
C392 C224 1.471 . S
C401 C136 1.504 . S
C403 C247 1.514 . S
C412 C125 1.442 . S
C414 C227 1.447 . S
C425 C244 1.453 . S
C423 C103 1.467 . S
C434 C114 1.503 . S
C436 C207 1.504 1_556 S
C447 C214 1.543 . S
C445 C131 1.566 . S
C458 C234 1.427 . S
C456 C109 1.450 . S
C467 C120 1.527 . S
C469 C239 1.549 1_556 S
C478 C153 1.458 . S
C480 C219 1.477 . S
C489 C164 1.475 . S
C491 C254 1.449 . S
C502 C199 1.555 . S
C500 C142 1.554 . S
C513 C264 1.532 . S
C511 C15 1.550 . S
C522 C26 1.491 . S
C524 C284 1.469 . S
C533 C4 1.504 . S
C535 C307 1.514 . S
C544 C191 1.445 . S
C546 C287 1.446 . S
C555 C169 1.467 . S
C557 C304 1.452 . S
C566 C180 1.505 . S
C568 C267 1.503 . S
C577 C197 1.572 . S
C579 C274 1.537 . S
C588 C175 1.448 . S
C590 C294 1.427 . S
C601 C299 1.545 . S
C599 C186 1.529 . S
C610 C21 1.457 1_565 S
C612 C279 1.477 . S
C623 C314 1.444 . S
C621 C32 1.479 . S
C632 C10 1.559 . S
C634 C259 1.554 . S
C645 C324 1.529 . S
C643 C81 1.551 . S
C654 C92 1.492 . S
C656 C344 1.468 . S
C667 C367 1.512 . S
C665 C70 1.505 . S
C678 C347 1.446 . S
C676 C59 1.444 . S
C689 C364 1.450 . S
C687 C37 1.467 . S
C698 C48 1.505 . S
C700 C327 1.503 . S
C709 C65 1.569 . S
C711 C334 1.539 . S
C720 C43 1.448 . S
C722 C354 1.427 . S
C733 C359 1.544 . S
C731 C54 1.533 . S
C742 C87 1.458 . S
C744 C339 1.477 . S
C753 C98 1.479 . S
C755 C374 1.443 . S
C764 C76 1.553 . S
C766 C319 1.558 . S
C775 C170 1.404 . S
C777 C217 1.355 . S
C788 C237 1.585 . S
C786 C181 1.669 . S
C797 C192 1.509 . S
C799 C246 1.477 . S
C808 C71 1.629 . S
C810 C226 1.581 . S
C819 C82 1.572 . S
C821 C257 1.506 . S
C832 C206 1.353 . S
C830 C93 1.373 . S
C841 C38 1.404 . S
C843 C277 1.357 . S
C852 C49 1.667 . S
C854 C297 1.591 . S
C863 C60 1.514 . S
C865 C306 1.479 . S
C874 C137 1.629 . S
C876 C286 1.581 . S
C887 C317 1.500 . S
C885 C148 1.574 . S
C896 C159 1.377 . S
C898 C266 1.352 . S
C907 C104 1.405 . S
C909 C337 1.349 . S
C918 C115 1.668 . S
C920 C357 1.587 . S
C931 C366 1.480 . S
C929 C126 1.514 . S
C940 C5 1.631 . S
C942 C346 1.580 . S
C951 C16 1.574 . S
C953 C377 1.500 . S
C962 C27 1.372 . S
C964 C326 1.354 . S
