# Generated by pormake.
# Topology pyr, (3,6)-cn, num edge types: 1
# Building blocks:
#     Node 0, Type 0, BuildingBlock: VETTIZ_charged_linker_0, # of connection points: 3
#     Node 1, Type 0, BuildingBlock: VETTIZ_charged_linker_0, # of connection points: 3
#     Node 2, Type 0, BuildingBlock: VETTIZ_charged_linker_0, # of connection points: 3
#     Node 3, Type 0, BuildingBlock: VETTIZ_charged_linker_0, # of connection points: 3
#     Node 4, Type 0, BuildingBlock: VETTIZ_charged_linker_0, # of connection points: 3
#     Node 5, Type 0, BuildingBlock: VETTIZ_charged_linker_0, # of connection points: 3
#     Node 6, Type 0, BuildingBlock: VETTIZ_charged_linker_0, # of connection points: 3
#     Node 7, Type 0, BuildingBlock: VETTIZ_charged_linker_0, # of connection points: 3
#     Node 8, Type 1, BuildingBlock: MIDCAF_clean_sbu_0, # of connection points: 6
#     Node 9, Type 1, BuildingBlock: MIDCAF_clean_sbu_0, # of connection points: 6
#     Node 10, Type 1, BuildingBlock: MIDCAF_clean_sbu_0, # of connection points: 6
#     Node 11, Type 1, BuildingBlock: MIDCAF_clean_sbu_0, # of connection points: 6
#     Edge 12, Type (0, 1), BuildingBlock: TEMPAE_clean_linker_10, # of connection points: 2
#     Edge 13, Type (0, 1), BuildingBlock: TEMPAE_clean_linker_10, # of connection points: 2
#     Edge 14, Type (0, 1), BuildingBlock: TEMPAE_clean_linker_10, # of connection points: 2
#     Edge 15, Type (0, 1), BuildingBlock: TEMPAE_clean_linker_10, # of connection points: 2
#     Edge 16, Type (0, 1), BuildingBlock: TEMPAE_clean_linker_10, # of connection points: 2
#     Edge 17, Type (0, 1), BuildingBlock: TEMPAE_clean_linker_10, # of connection points: 2
#     Edge 18, Type (0, 1), BuildingBlock: TEMPAE_clean_linker_10, # of connection points: 2
#     Edge 19, Type (0, 1), BuildingBlock: TEMPAE_clean_linker_10, # of connection points: 2
#     Edge 20, Type (0, 1), BuildingBlock: TEMPAE_clean_linker_10, # of connection points: 2
#     Edge 21, Type (0, 1), BuildingBlock: TEMPAE_clean_linker_10, # of connection points: 2
#     Edge 22, Type (0, 1), BuildingBlock: TEMPAE_clean_linker_10, # of connection points: 2
#     Edge 23, Type (0, 1), BuildingBlock: TEMPAE_clean_linker_10, # of connection points: 2
#     Edge 24, Type (0, 1), BuildingBlock: TEMPAE_clean_linker_10, # of connection points: 2
#     Edge 25, Type (0, 1), BuildingBlock: TEMPAE_clean_linker_10, # of connection points: 2
#     Edge 26, Type (0, 1), BuildingBlock: TEMPAE_clean_linker_10, # of connection points: 2
#     Edge 27, Type (0, 1), BuildingBlock: TEMPAE_clean_linker_10, # of connection points: 2
#     Edge 28, Type (0, 1), BuildingBlock: TEMPAE_clean_linker_10, # of connection points: 2
#     Edge 29, Type (0, 1), BuildingBlock: TEMPAE_clean_linker_10, # of connection points: 2
#     Edge 30, Type (0, 1), BuildingBlock: TEMPAE_clean_linker_10, # of connection points: 2
#     Edge 31, Type (0, 1), BuildingBlock: TEMPAE_clean_linker_10, # of connection points: 2
#     Edge 32, Type (0, 1), BuildingBlock: TEMPAE_clean_linker_10, # of connection points: 2
#     Edge 33, Type (0, 1), BuildingBlock: TEMPAE_clean_linker_10, # of connection points: 2
#     Edge 34, Type (0, 1), BuildingBlock: TEMPAE_clean_linker_10, # of connection points: 2
#     Edge 35, Type (0, 1), BuildingBlock: TEMPAE_clean_linker_10, # of connection points: 2
# Relax obj value: 0.019
# Max RMSD: 0.063
# Mean RMSD: 0.021
data_MOF--net-pry--node1-MIDCAF_clean_sbu_0--node2-VETTIZ_charged_linker_0--edge1-TEMPAE_clean_linker_10
_symmetry_space_group_name_H-M    P1
_symmetry_Int_Tables_number       1
_symmetry_cell_setting            triclinic
loop_
_symmetry_equiv_pos_as_xyz
'x, y, z'
_cell_length_a     43.972537
_cell_length_b     44.012039
_cell_length_c     44.02357
_cell_angle_alpha  89.936121
_cell_angle_beta   90.035268
_cell_angle_gamma 90.18448
loop_
_atom_site_label
_atom_site_type_symbol
_atom_site_fract_x
_atom_site_fract_y
_atom_site_fract_z
_atom_type_partial_charge
C0 C 0.19666 0.18199 0.32803 0.0
C1 C 0.16935 0.19306 0.34032 0.0
C2 C 0.15618 0.21932 0.32756 0.0
C3 C 0.19625 0.22175 0.28976 0.0
C4 C 0.20962 0.19658 0.30289 0.0
C5 C 0.23801 0.18701 0.28654 0.0
H6 H 0.32932 0.19892 0.16375 0.0
C7 C 0.21464 0.23048 0.26298 0.0
C8 C 0.23926 0.21031 0.26113 0.0
H9 H 0.33753 0.13685 0.23922 0.0
H10 H 0.29527 0.1613 0.26456 0.0
H11 H 0.31982 0.25795 0.20483 0.0
H12 H 0.25584 0.19924 0.15955 0.0
H13 H 0.24568 0.23724 0.15222 0.0
H14 H 0.28213 0.2236 0.13989 0.0
H15 H 0.31225 0.26141 0.16495 0.0
H16 H 0.28967 0.28113 0.19293 0.0
C17 C 0.26529 0.19025 0.30865 0.0
C18 C 0.23287 0.15438 0.27433 0.0
C19 C 0.17906 0.31594 0.19387 0.0
C20 C 0.19067 0.32842 0.1668 0.0
C21 C 0.2182 0.3171 0.15504 0.0
C22 C 0.23355 0.29329 0.16961 0.0
C23 C 0.2213 0.28061 0.19628 0.0
C24 C 0.19472 0.29225 0.2082 0.0
C25 C 0.18531 0.2763 0.23697 0.0
C26 C 0.21061 0.25314 0.24033 0.0
C27 C 0.23143 0.25555 0.21626 0.0
C28 C 0.18552 0.29978 0.26317 0.0
C29 C 0.15404 0.261 0.23126 0.0
C30 C 0.32196 0.19086 0.18583 0.0
C31 C 0.3363 0.16598 0.19962 0.0
C32 C 0.3266 0.15605 0.22839 0.0
C33 C 0.30204 0.17017 0.24289 0.0
C34 C 0.2871 0.19443 0.22839 0.0
C35 C 0.29764 0.20491 0.2007 0.0
C36 C 0.27976 0.23168 0.18927 0.0
C37 C 0.25617 0.23497 0.21422 0.0
C38 C 0.26033 0.21282 0.23681 0.0
C39 C 0.30134 0.25956 0.18763 0.0
C40 C 0.26512 0.22277 0.15852 0.0
H41 H 0.15812 0.25333 0.29346 0.0
H42 H 0.20761 0.16216 0.33761 0.0
H43 H 0.20951 0.15191 0.26488 0.0
H44 H 0.24822 0.14832 0.25553 0.0
H45 H 0.2355 0.13731 0.29275 0.0
H46 H 0.26133 0.20865 0.3255 0.0
H47 H 0.26917 0.16888 0.32151 0.0
H48 H 0.28654 0.19691 0.29695 0.0
H49 H 0.15819 0.32444 0.20372 0.0
H50 H 0.2275 0.32619 0.13413 0.0
H51 H 0.25416 0.2854 0.15931 0.0
H52 H 0.20394 0.31688 0.25991 0.0
H53 H 0.16362 0.31223 0.26434 0.0
H54 H 0.19032 0.2894 0.28552 0.0
H55 H 0.15285 0.25145 0.20789 0.0
H56 H 0.14959 0.24152 0.24641 0.0
H57 H 0.13524 0.27763 0.23365 0.0
H58 H 0.13506 0.22821 0.33649 0.0
C59 C 0.16949 0.23373 0.30241 0.0
C60 C 0.20909 0.8395 0.68675 0.0
C61 C 0.1948 0.86515 0.69908 0.0
C62 C 0.20399 0.87611 0.72763 0.0
C63 C 0.24331 0.83763 0.72999 0.0
C64 C 0.23306 0.82592 0.70269 0.0
C65 C 0.25096 0.79853 0.69286 0.0
H66 H 0.37799 0.71438 0.70737 0.0
C67 C 0.27021 0.8199 0.73944 0.0
C68 C 0.27458 0.79669 0.718 0.0
H69 H 0.30339 0.70046 0.64443 0.0
H70 H 0.2759 0.74137 0.66792 0.0
H71 H 0.37691 0.78751 0.71031 0.0
H72 H 0.33531 0.71726 0.76416 0.0
H73 H 0.34252 0.74738 0.78926 0.0
H74 H 0.37392 0.7289 0.7704 0.0
H75 H 0.39772 0.76163 0.73401 0.0
H76 H 0.38239 0.79633 0.74896 0.0
C77 C 0.26554 0.80559 0.66163 0.0
C78 C 0.22946 0.77052 0.69279 0.0
C79 C 0.33426 0.85614 0.82861 0.0
C80 C 0.36173 0.84583 0.84129 0.0
C81 C 0.37539 0.81949 0.82938 0.0
C82 C 0.36234 0.80413 0.80472 0.0
C83 C 0.33532 0.81516 0.79177 0.0
C84 C 0.32147 0.84046 0.80403 0.0
C85 C 0.29269 0.84872 0.78751 0.0
C86 C 0.29159 0.8242 0.76327 0.0
C87 C 0.31682 0.80489 0.76568 0.0
C88 C 0.29714 0.88082 0.77369 0.0
C89 C 0.26571 0.84607 0.81002 0.0
C90 C 0.35556 0.71953 0.69871 0.0
C91 C 0.34341 0.70413 0.67336 0.0
C92 C 0.31404 0.71232 0.66316 0.0
C93 C 0.29786 0.73598 0.67703 0.0
C94 C 0.31083 0.75154 0.70168 0.0
C95 C 0.33877 0.74255 0.71271 0.0
C96 C 0.34801 0.75998 0.7406 0.0
C97 C 0.3213 0.78146 0.74402 0.0
C98 C 0.29993 0.77692 0.72074 0.0
C99 C 0.37792 0.77723 0.73339 0.0
C100 C 0.35032 0.73738 0.76758 0.0
H101 H 0.23466 0.87218 0.76458 0.0
H102 H 0.20205 0.83059 0.66491 0.0
H103 H 0.20981 0.77374 0.70836 0.0
H104 H 0.24084 0.74975 0.70121 0.0
H105 H 0.22015 0.76615 0.66973 0.0
H106 H 0.27672 0.8283 0.66198 0.0
H107 H 0.24805 0.80577 0.64341 0.0
H108 H 0.28332 0.78926 0.65515 0.0
H109 H 0.32303 0.87609 0.83754 0.0
H110 H 0.39666 0.81126 0.83862 0.0
H111 H 0.37412 0.78455 0.79637 0.0
H112 H 0.32029 0.88319 0.76376 0.0
H113 H 0.29457 0.89866 0.79133 0.0
H114 H 0.28138 0.88581 0.75489 0.0
H115 H 0.2701 0.8284 0.82758 0.0
H116 H 0.24441 0.83869 0.79883 0.0
H117 H 0.26172 0.86789 0.822 0.0
H118 H 0.19311 0.89589 0.73735 0.0
C119 C 0.2282 0.86245 0.74319 0.0
C120 C 0.6982 0.21187 0.857 0.0
C121 C 0.66999 0.19875 0.84915 0.0
C122 C 0.65348 0.21148 0.82473 0.0
C123 C 0.69267 0.24956 0.81699 0.0
C124 C 0.70887 0.23726 0.8409 0.0
C125 C 0.73732 0.25508 0.84773 0.0
H126 H 0.83015 0.37384 0.81604 0.0
C127 C 0.70986 0.27607 0.80532 0.0
C128 C 0.73607 0.27939 0.82321 0.0
H129 H 0.83366 0.31157 0.89232 0.0
H130 H 0.79143 0.28385 0.87211 0.0
H131 H 0.7566 0.38209 0.81974 0.0
H132 H 0.81342 0.32492 0.76426 0.0
H133 H 0.78291 0.33711 0.74156 0.0
H134 H 0.80933 0.36477 0.75666 0.0
H135 H 0.78242 0.39676 0.79167 0.0
H136 H 0.74465 0.38479 0.78164 0.0
C137 C 0.73434 0.26868 0.88014 0.0
C138 C 0.76494 0.2338 0.84347 0.0
C139 C 0.66735 0.33814 0.71764 0.0
C140 C 0.67896 0.36265 0.7008 0.0
C141 C 0.70845 0.37351 0.70702 0.0
C142 C 0.72584 0.36078 0.73053 0.0
C143 C 0.71362 0.33683 0.74789 0.0
C144 C 0.6852 0.32533 0.74071 0.0
C145 C 0.67675 0.29852 0.7602 0.0
C146 C 0.70429 0.29649 0.78094 0.0
C147 C 0.7256 0.31934 0.77401 0.0
C148 C 0.64749 0.30658 0.778 0.0
C149 C 0.67372 0.27029 0.73936 0.0
C150 C 0.82182 0.35436 0.82859 0.0
C151 C 0.83589 0.34504 0.85589 0.0
C152 C 0.82419 0.31913 0.87092 0.0
C153 C 0.79914 0.30318 0.8594 0.0
C154 C 0.78488 0.31338 0.83279 0.0
C155 C 0.79622 0.33854 0.81778 0.0
C156 C 0.77698 0.34695 0.79069 0.0
C157 C 0.75201 0.32298 0.79237 0.0
C158 C 0.75702 0.30323 0.81694 0.0
C159 C 0.76452 0.3794 0.79589 0.0
C160 C 0.79655 0.34354 0.76167 0.0
H161 H 0.65086 0.24524 0.79049 0.0
H162 H 0.71168 0.20284 0.87547 0.0
H163 H 0.7623 0.22002 0.82246 0.0
H164 H 0.78661 0.24623 0.84077 0.0
H165 H 0.76711 0.21786 0.86293 0.0
H166 H 0.71015 0.2706 0.88728 0.0
H167 H 0.7461 0.25436 0.89726 0.0
H168 H 0.74324 0.29219 0.88157 0.0
H169 H 0.64485 0.32919 0.71294 0.0
H170 H 0.71771 0.39239 0.69416 0.0
H171 H 0.74797 0.37029 0.73453 0.0
H172 H 0.64811 0.33067 0.78561 0.0
H173 H 0.62694 0.30354 0.76362 0.0
H174 H 0.64471 0.29315 0.79901 0.0
H175 H 0.68963 0.27175 0.71976 0.0
H176 H 0.67988 0.2489 0.75096 0.0
H177 H 0.65032 0.2682 0.73006 0.0
H178 H 0.63135 0.20261 0.8185 0.0
C179 C 0.66471 0.23658 0.80858 0.0
C180 C 0.86639 0.81737 0.35039 0.0
C181 C 0.85227 0.83277 0.37448 0.0
C182 C 0.82268 0.82424 0.38328 0.0
C183 C 0.82235 0.78429 0.34525 0.0
C184 C 0.85091 0.79358 0.33588 0.0
C185 C 0.8622 0.77551 0.30919 0.0
H186 H 0.83992 0.66253 0.2069 0.0
C187 C 0.81298 0.75832 0.32599 0.0
C188 C 0.836 0.75345 0.30445 0.0
H189 H 0.91771 0.72195 0.21555 0.0
H190 H 0.89389 0.7477 0.2578 0.0
H191 H 0.83534 0.64949 0.27638 0.0
H192 H 0.78592 0.71345 0.22129 0.0
H193 H 0.75999 0.69424 0.24514 0.0
H194 H 0.78179 0.67298 0.21787 0.0
H195 H 0.80425 0.63781 0.25268 0.0
H196 H 0.79834 0.65094 0.29106 0.0
C197 C 0.89173 0.75898 0.31888 0.0
C198 C 0.86608 0.79749 0.28193 0.0
C199 C 0.71773 0.69823 0.35264 0.0
C200 C 0.70446 0.67166 0.34066 0.0
C201 C 0.71687 0.65906 0.31396 0.0
C202 C 0.7426 0.67203 0.30012 0.0
C203 C 0.75629 0.69785 0.31313 0.0
C204 C 0.74355 0.71076 0.33871 0.0
C205 C 0.76117 0.73805 0.34955 0.0
C206 C 0.78722 0.73874 0.32692 0.0
C207 C 0.78424 0.71519 0.30557 0.0
C208 C 0.77237 0.73154 0.38228 0.0
C209 C 0.74056 0.76643 0.34665 0.0
C210 C 0.85143 0.68147 0.21765 0.0
C211 C 0.88041 0.6907 0.20775 0.0
C212 C 0.89525 0.71476 0.22276 0.0
C213 C 0.88138 0.72959 0.24727 0.0
C214 C 0.85251 0.71995 0.25723 0.0
C215 C 0.83809 0.69615 0.24257 0.0
C216 C 0.80851 0.68763 0.25765 0.0
C217 C 0.80705 0.71092 0.28307 0.0
C218 C 0.83285 0.72984 0.28264 0.0
C219 C 0.81143 0.65473 0.26998 0.0
C220 C 0.78253 0.69205 0.23436 0.0
H221 H 0.78537 0.79422 0.37688 0.0
H222 H 0.88897 0.82386 0.3429 0.0
H223 H 0.84817 0.8153 0.2821 0.0
H224 H 0.8635 0.78613 0.25973 0.0
H225 H 0.8885 0.80918 0.28273 0.0
H226 H 0.89032 0.75142 0.34297 0.0
H227 H 0.91183 0.77419 0.31677 0.0
H228 H 0.8959 0.738 0.30583 0.0
H229 H 0.70847 0.70889 0.37276 0.0
H230 H 0.7073 0.63853 0.30429 0.0
H231 H 0.75119 0.6611 0.28013 0.0
H232 H 0.78147 0.70804 0.38402 0.0
H233 H 0.75346 0.73367 0.39886 0.0
H234 H 0.79109 0.74657 0.38954 0.0
H235 H 0.7235 0.7636 0.32818 0.0
H236 H 0.75347 0.78709 0.3403 0.0
H237 H 0.72792 0.77073 0.36805 0.0
H238 H 0.81145 0.83592 0.40177 0.0
C239 C 0.80769 0.8 0.36887 0.0
C240 C 0.90821 0.8127 0.96917 0.0
C241 C 0.9288 0.79105 0.95803 0.0
C242 C 0.94831 0.79909 0.93387 0.0
C243 C 0.92535 0.84884 0.93096 0.0
C244 C 0.90683 0.84136 0.95523 0.0
C245 C 0.88533 0.86668 0.96312 0.0
H246 H 0.82357 0.00261 0.92722 0.0
C247 C 0.91733 0.87972 0.92066 0.0
C248 C 0.89401 0.89044 0.93953 0.0
H249 H 0.79792 0.94047 0.99917 0.0
H250 H 0.84018 0.90845 0.98711 0.0
H251 H 0.83517 0.95163 0.87823 0.0
H252 H 0.89698 0.99817 0.93825 0.0
H253 H 0.91599 0.99345 0.9035 0.0
H254 H 0.88174 0.01598 0.90488 0.0
H255 H 0.84518 0.99094 0.87362 0.0
H256 H 0.86775 0.96116 0.8572 0.0
C257 C 0.85241 0.85475 0.95856 0.0
C258 C 0.89262 0.87747 0.99582 0.0
C259 C 0.96627 0.92292 0.82523 0.0
C260 C 0.96157 0.94992 0.80884 0.0
C261 C 0.94193 0.97214 0.82089 0.0
C262 C 0.92623 0.96707 0.84808 0.0
C263 C 0.92996 0.93936 0.86343 0.0
C264 C 0.9502 0.91811 0.85234 0.0
C265 C 0.95117 0.88999 0.87173 0.0
C266 C 0.92787 0.89771 0.89599 0.0
C267 C 0.91535 0.92657 0.89086 0.0
C268 C 0.94091 0.86271 0.85188 0.0
C269 C 0.98363 0.88707 0.88515 0.0
C270 C 0.82713 0.98218 0.94047 0.0
C271 C 0.80717 0.97425 0.96421 0.0
C272 C 0.81304 0.94759 0.98109 0.0
C273 C 0.83745 0.92866 0.97378 0.0
C274 C 0.85614 0.93605 0.94903 0.0
C275 C 0.85129 0.96275 0.93323 0.0
C276 C 0.87326 0.96655 0.90728 0.0
C277 C 0.89164 0.93745 0.90984 0.0
C278 C 0.88132 0.91961 0.93423 0.0
C279 C 0.85461 0.96786 0.87741 0.0
C280 C 0.89299 0.9951 0.91347 0.0
H281 H 0.96205 0.83233 0.90195 0.0
H282 H 0.89298 0.80718 0.98772 0.0
H283 H 0.91744 0.87601 0.00054 0.0
H284 H 0.88686 0.90158 0.99962 0.0
H285 H 0.8807 0.86323 0.01295 0.0
H286 H 0.85114 0.83896 0.93887 0.0
H287 H 0.84435 0.84218 0.97893 0.0
H288 H 0.83599 0.87287 0.95314 0.0
H289 H 0.98115 0.9054 0.81654 0.0
H290 H 0.9384 0.9934 0.80898 0.0
H291 H 0.9113 0.98469 0.85576 0.0
H292 H 0.92247 0.86955 0.83598 0.0
H293 H 0.96008 0.85394 0.83804 0.0
H294 H 0.93112 0.84382 0.86518 0.0
H295 H 0.9939 0.90983 0.88932 0.0
H296 H 0.98389 0.87576 0.90757 0.0
H297 H 0.99891 0.87466 0.8694 0.0
H298 H 0.96486 0.78303 0.92535 0.0
C299 C 0.94676 0.8278 0.92038 0.0
C300 C 0.72812 0.09515 0.44898 0.0
C301 C 0.73985 0.0695 0.43408 0.0
C302 C 0.72351 0.05692 0.40957 0.0
C303 C 0.68594 0.09705 0.41357 0.0
C304 C 0.70141 0.10855 0.43835 0.0
C305 C 0.68723 0.13706 0.45054 0.0
H306 H 0.58322 0.24849 0.43545 0.0
C307 C 0.66012 0.11756 0.40722 0.0
C308 C 0.66068 0.14091 0.42893 0.0
H309 H 0.65527 0.24164 0.502 0.0
H310 H 0.669 0.19237 0.48228 0.0
H311 H 0.56078 0.17878 0.43945 0.0
H312 H 0.62297 0.22522 0.37962 0.0
H313 H 0.59971 0.20156 0.35736 0.0
H314 H 0.58267 0.23164 0.37904 0.0
H315 H 0.54777 0.20352 0.40977 0.0
H316 H 0.55521 0.16377 0.4029 0.0
C317 C 0.67644 0.13075 0.48345 0.0
C318 C 0.7108 0.1632 0.44754 0.0
C319 C 0.59547 0.10097 0.3132 0.0
C320 C 0.57101 0.11699 0.30039 0.0
C321 C 0.55855 0.1417 0.31635 0.0
C322 C 0.57122 0.15114 0.34407 0.0
C323 C 0.5966 0.13571 0.35589 0.0
C324 C 0.6078 0.1106 0.34084 0.0
C325 C 0.63445 0.09656 0.35694 0.0
C326 C 0.63789 0.11779 0.38383 0.0
C327 C 0.6159 0.14086 0.38294 0.0
C328 C 0.62536 0.06402 0.36696 0.0
C329 C 0.66227 0.09806 0.33537 0.0
C330 C 0.6021 0.23648 0.44568 0.0
C331 C 0.61847 0.24921 0.47006 0.0
C332 C 0.64229 0.23237 0.48324 0.0
C333 C 0.65035 0.20385 0.47159 0.0
C334 C 0.63456 0.19209 0.44636 0.0
C335 C 0.61059 0.20818 0.43415 0.0
C336 C 0.59667 0.19252 0.40713 0.0
C337 C 0.61651 0.16449 0.40487 0.0
C338 C 0.63869 0.16441 0.42784 0.0
C339 C 0.56328 0.18431 0.41491 0.0
C340 C 0.60039 0.21371 0.37922 0.0
H341 H 0.68546 0.06031 0.38012 0.0
H342 H 0.73983 0.10503 0.46826 0.0
H343 H 0.72522 0.16016 0.427 0.0
H344 H 0.70025 0.18571 0.44446 0.0
H345 H 0.72617 0.16399 0.46756 0.0
H346 H 0.66745 0.10719 0.48566 0.0
H347 H 0.69547 0.1333 0.49987 0.0
H348 H 0.65747 0.14554 0.49049 0.0
H349 H 0.60508 0.08146 0.30173 0.0
H350 H 0.53961 0.15427 0.30693 0.0
H351 H 0.56115 0.17047 0.35491 0.0
H352 H 0.60077 0.06276 0.37279 0.0
H353 H 0.62964 0.04731 0.34857 0.0
H354 H 0.63725 0.05662 0.3878 0.0
H355 H 0.66259 0.11988 0.32258 0.0
H356 H 0.68424 0.09737 0.34742 0.0
H357 H 0.6616 0.0793 0.31852 0.0
H358 H 0.73209 0.03717 0.39773 0.0
C359 C 0.69657 0.07054 0.39927 0.0
C360 C 0.47999 0.59437 0.20302 0.0
C361 C 0.47095 0.56985 0.22153 0.0
C362 C 0.44694 0.55094 0.21153 0.0
C363 C 0.44016 0.58211 0.16669 0.0
C364 C 0.46427 0.6001 0.1759 0.0
C365 C 0.46961 0.62638 0.15466 0.0
H366 H 0.42347 0.7102 0.03434 0.0
C367 C 0.42724 0.59548 0.13872 0.0
C368 C 0.44449 0.62137 0.13147 0.0
H369 H 0.49891 0.72694 0.0954 0.0
H370 H 0.48909 0.67984 0.12096 0.0
H371 H 0.37814 0.68998 0.08512 0.0
H372 H 0.4352 0.63661 0.02653 0.0
H373 H 0.39965 0.61833 0.02868 0.0
H374 H 0.40206 0.6562 0.01309 0.0
H375 H 0.36934 0.68415 0.04575 0.0
H376 H 0.35698 0.65782 0.07467 0.0
C377 C 0.46514 0.6562 0.17286 0.0
C378 C 0.50159 0.62271 0.1404 0.0
C379 C 0.33061 0.55093 0.0931 0.0
C380 C 0.3116 0.56026 0.06911 0.0
C381 C 0.32074 0.58531 0.05116 0.0
C382 C 0.34772 0.60111 0.05735 0.0
C383 C 0.36579 0.59221 0.08206 0.0
C384 C 0.35736 0.56726 0.09923 0.0
C385 C 0.37892 0.56171 0.12519 0.0
C386 C 0.40153 0.58753 0.12082 0.0
C387 C 0.39367 0.60536 0.09555 0.0
C388 C 0.36081 0.56483 0.15526 0.0
C389 C 0.39392 0.53029 0.12045 0.0
C390 C 0.43792 0.70372 0.05317 0.0
C391 C 0.46214 0.72251 0.06259 0.0
C392 C 0.48048 0.71284 0.0871 0.0
C393 C 0.47452 0.68553 0.10227 0.0
C394 C 0.44966 0.66761 0.09329 0.0
C395 C 0.43208 0.67654 0.06885 0.0
C396 C 0.40621 0.65482 0.06303 0.0
C397 C 0.41114 0.63156 0.08811 0.0
C398 C 0.43655 0.63931 0.10583 0.0
C399 C 0.37598 0.67241 0.06708 0.0
C400 C 0.41067 0.64077 0.03111 0.0
H401 H 0.41334 0.54186 0.17826 0.0
H402 H 0.49849 0.6092 0.20974 0.0
H403 H 0.50695 0.59831 0.13659 0.0
H404 H 0.50347 0.63332 0.11772 0.0
H405 H 0.5195 0.63222 0.15548 0.0
H406 H 0.44695 0.65348 0.19023 0.0
H407 H 0.48633 0.66285 0.1849 0.0
H408 H 0.45749 0.67539 0.15865 0.0
H409 H 0.32458 0.53169 0.10724 0.0
H410 H 0.30646 0.59355 0.03289 0.0
H411 H 0.35303 0.62018 0.0431 0.0
H412 H 0.34272 0.58233 0.15313 0.0
H413 H 0.34961 0.54305 0.16151 0.0
H414 H 0.37492 0.57263 0.17448 0.0
H415 H 0.39831 0.52607 0.09593 0.0
H416 H 0.41641 0.52846 0.13146 0.0
H417 H 0.37899 0.5117 0.12887 0.0
H418 H 0.43904 0.53218 0.2254 0.0
C419 C 0.4317 0.55681 0.18422 0.0
C420 C 0.07415 0.32876 0.57666 0.0
C421 C 0.08946 0.31488 0.5523 0.0
C422 C 0.11497 0.32977 0.53967 0.0
C423 C 0.11026 0.37059 0.57646 0.0
C424 C 0.08479 0.35642 0.58823 0.0
C425 C 0.07158 0.37334 0.61473 0.0
H426 H 0.08712 0.48228 0.72106 0.0
C427 C 0.11611 0.39824 0.59475 0.0
C428 C 0.0933 0.4001 0.617 0.0
H429 H 0.01565 0.41495 0.71289 0.0
H430 H 0.03645 0.39839 0.66513 0.0
H431 H 0.08321 0.504 0.65208 0.0
H432 H 0.1428 0.44112 0.69729 0.0
H433 H 0.16457 0.46659 0.67511 0.0
H434 H 0.14136 0.48115 0.70516 0.0
H435 H 0.11638 0.51684 0.67205 0.0
H436 H 0.11799 0.50576 0.63255 0.0
C437 C 0.03894 0.38352 0.60622 0.0
C438 C 0.07339 0.35233 0.64297 0.0
C439 C 0.21211 0.46056 0.57698 0.0
C440 C 0.22399 0.48707 0.5906 0.0
C441 C 0.20635 0.50188 0.61291 0.0
C442 C 0.17837 0.48983 0.62242 0.0
C443 C 0.16759 0.46271 0.60946 0.0
C444 C 0.1839 0.44909 0.58645 0.0
C445 C 0.16807 0.42131 0.57416 0.0
C446 C 0.13991 0.42016 0.59411 0.0
C447 C 0.14009 0.44415 0.61515 0.0
C448 C 0.15999 0.42719 0.5404 0.0
C449 C 0.18901 0.39358 0.57947 0.0
C450 C 0.07559 0.46431 0.70881 0.0
C451 C 0.04999 0.44953 0.72128 0.0
C452 C 0.03585 0.42622 0.70436 0.0
C453 C 0.04792 0.41666 0.67652 0.0
C454 C 0.07451 0.43047 0.66531 0.0
C455 C 0.08732 0.45454 0.68088 0.0
C456 C 0.11493 0.46712 0.66495 0.0
C457 C 0.11727 0.44575 0.63794 0.0
C458 C 0.09375 0.42411 0.63853 0.0
C459 C 0.10805 0.5002 0.65499 0.0
C460 C 0.14249 0.46406 0.68665 0.0
H461 H 0.14511 0.36752 0.54119 0.0
H462 H 0.0548 0.31785 0.58735 0.0
H463 H 0.09523 0.33961 0.64323 0.0
H464 H 0.07296 0.36474 0.66469 0.0
H465 H 0.0546 0.3354 0.64294 0.0
H466 H 0.03686 0.38778 0.58139 0.0
H467 H 0.0219 0.36588 0.61238 0.0
H468 H 0.03256 0.40531 0.61693 0.0
H469 H 0.22481 0.44832 0.55989 0.0
H470 H 0.21424 0.52278 0.62325 0.0
H471 H 0.16637 0.50189 0.63981 0.0
H472 H 0.15531 0.45168 0.53627 0.0
H473 H 0.17895 0.42045 0.52519 0.0
H474 H 0.13897 0.41536 0.53325 0.0
H475 H 0.19971 0.39474 0.60235 0.0
H476 H 0.17675 0.3717 0.57899 0.0
H477 H 0.20755 0.39289 0.56235 0.0
H478 H 0.12701 0.31986 0.52068 0.0
C479 C 0.12539 0.35753 0.55156 0.0
Zn480 Zn 0.97665 0.0596 0.57017 0.0
Zn481 Zn 0.04877 0.99587 0.49461 0.0
Zn482 Zn 0.0117 0.0283 0.53241 0.0
C483 C 0.06244 0.058 0.48759 0.0
C484 C 0.98798 0.98339 0.47848 0.0
O485 O 0.01965 0.01228 0.5799 0.0
O486 O 0.98942 0.04052 0.6084 0.0
C487 C 0.01461 0.10154 0.54182 0.0
O488 O 0.04057 0.06068 0.50686 0.0
O489 O 0.07132 0.03212 0.47905 0.0
O490 O 0.01492 0.97833 0.46992 0.0
O491 O 0.98279 0.00116 0.50117 0.0
O492 O 0.99408 0.10009 0.56177 0.0
O493 O 0.0235 0.07737 0.52793 0.0
O494 O 0.96411 0.02074 0.51837 0.0
O495 O 0.9374 0.04737 0.55152 0.0
C496 C 0.93837 0.03022 0.52856 0.0
O497 O 0.03961 0.99731 0.56022 0.0
O498 O 0.0669 0.97049 0.52756 0.0
C499 C 0.00906 0.01984 0.60613 0.0
C500 C 0.05934 0.97645 0.55459 0.0
Zn501 Zn 0.4832 0.0434 0.99671 0.0
Zn502 Zn 0.55752 0.979 0.06338 0.0
Zn503 Zn 0.52341 0.01143 0.02859 0.0
C504 C 0.59498 0.00451 0.01856 0.0
C505 C 0.51644 0.93853 0.04059 0.0
O506 O 0.49714 0.04205 0.05933 0.0
O507 O 0.465 0.06715 0.02987 0.0
C508 C 0.54213 0.05772 0.97501 0.0
O509 O 0.57043 0.01889 0.01167 0.0
O510 O 0.59484 0.98459 0.0392 0.0
O511 O 0.5364 0.93993 0.06108 0.0
O512 O 0.50975 0.96236 0.02486 0.0
O513 O 0.51433 0.06405 0.97163 0.0
O514 O 0.5504 0.03779 0.99486 0.0
O515 O 0.49282 0.97955 0.00416 0.0
O516 O 0.45999 0.0087 0.97949 0.0
C517 C 0.46977 0.98265 0.9863 0.0
O518 O 0.51993 0.02812 0.07642 0.0
O519 O 0.55346 0.00075 0.10193 0.0
C520 C 0.47565 0.0617 0.0559 0.0
C521 C 0.53391 0.02161 0.10138 0.0
Zn522 Zn 0.54879 0.55756 0.53785 0.0
Zn523 Zn 0.47574 0.48224 0.48429 0.0
Zn524 Zn 0.51086 0.51938 0.51122 0.0
C525 C 0.52191 0.44697 0.50643 0.0
C526 C 0.49451 0.52194 0.43983 0.0
O527 O 0.48311 0.5477 0.54232 0.0
O528 O 0.51683 0.58166 0.55817 0.0
C529 C 0.56441 0.49943 0.55835 0.0
O530 O 0.5288 0.47277 0.51855 0.0
O531 O 0.49958 0.4449 0.48857 0.0
O532 O 0.47409 0.50224 0.44425 0.0
O533 O 0.51222 0.53003 0.46176 0.0
O534 O 0.57124 0.52703 0.5624 0.0
O535 O 0.54338 0.49221 0.53914 0.0
O536 O 0.53486 0.54724 0.47581 0.0
O537 O 0.56829 0.57507 0.50132 0.0
C538 C 0.55678 0.56683 0.4764 0.0
O539 O 0.46318 0.52555 0.52945 0.0
O540 O 0.43981 0.48549 0.50991 0.0
C541 C 0.48985 0.57174 0.55773 0.0
C542 C 0.43938 0.50839 0.52701 0.0
Zn543 Zn 0.05397 0.55429 0.97696 0.0
Zn544 Zn 0.99261 0.48525 0.04881 0.0
Zn545 Zn 0.02315 0.51915 0.00992 0.0
C546 C 0.05362 0.47342 0.05944 0.0
C547 C 0.9754 0.46747 0.9896 0.0
O548 O 0.00497 0.56623 0.0149 0.0
O549 O 0.02961 0.59127 0.97894 0.0
C550 C 0.09525 0.53396 0.0176 0.0
O551 O 0.05624 0.49385 0.03856 0.0
O552 O 0.02773 0.46478 0.06832 0.0
O553 O 0.96884 0.46356 0.01726 0.0
O554 O 0.9964 0.48656 0.98194 0.0
O555 O 0.09246 0.55565 0.99914 0.0
O556 O 0.07251 0.51612 0.02291 0.0
O557 O 0.01586 0.50338 0.96212 0.0
O558 O 0.05225 0.52988 0.93958 0.0
C559 C 0.03175 0.50982 0.93831 0.0
O560 O 0.99351 0.54904 0.03895 0.0
O561 O 0.97205 0.51759 0.07183 0.0
C562 C 0.00971 0.59077 0.99952 0.0
C563 C 0.9762 0.54431 0.06224 0.0
C564 C 0.15144 0.14468 0.36426 0.0
C565 C 0.15394 0.17642 0.36536 0.0
C566 C 0.13612 0.12852 0.38708 0.0
C567 C 0.12299 0.14442 0.41175 0.0
C568 C 0.12591 0.17646 0.41326 0.0
C569 C 0.14116 0.19208 0.38993 0.0
C570 C 0.13362 0.09437 0.38452 0.0
C571 C 0.11247 0.19482 0.43878 0.0
C572 C 0.0599 0.09947 0.4497 0.0
C573 C 0.07586 0.08485 0.47295 0.0
C574 C 0.0745 0.12058 0.43069 0.0
C575 C 0.10574 0.1271 0.43521 0.0
C576 C 0.12124 0.11405 0.4602 0.0
C577 C 0.10621 0.09264 0.47856 0.0
C578 C 0.05704 0.13442 0.40464 0.0
C579 C 0.15414 0.12153 0.46652 0.0
H580 H 0.16089 0.13247 0.34511 0.0
H581 H 0.14318 0.21661 0.39104 0.0
H582 H 0.14344 0.08346 0.40503 0.0
H583 H 0.10933 0.08756 0.38325 0.0
H584 H 0.14552 0.08541 0.36417 0.0
H585 H 0.12851 0.21302 0.44591 0.0
H586 H 0.09155 0.20611 0.43039 0.0
H587 H 0.1066 0.18086 0.45889 0.0
H588 H 0.03645 0.09311 0.44531 0.0
H589 H 0.11846 0.08112 0.49656 0.0
H590 H 0.06488 0.12428 0.38296 0.0
H591 H 0.06136 0.15925 0.40338 0.0
H592 H 0.03216 0.1305 0.40678 0.0
H593 H 0.16857 0.1126 0.4479 0.0
H594 H 0.1621 0.11168 0.48835 0.0
H595 H 0.15736 0.14656 0.46721 0.0
C596 C 0.37987 0.89484 0.8635 0.0
C597 C 0.37684 0.86323 0.8659 0.0
C598 C 0.39535 0.91159 0.88576 0.0
C599 C 0.40789 0.89641 0.91124 0.0
C600 C 0.40431 0.86453 0.9141 0.0
C601 C 0.38906 0.8483 0.89124 0.0
C602 C 0.39872 0.94553 0.88173 0.0
C603 C 0.41712 0.84697 0.94058 0.0
C604 C 0.47162 0.94045 0.94923 0.0
C605 C 0.45565 0.95622 0.97165 0.0
C606 C 0.45667 0.91947 0.93037 0.0
C607 C 0.42512 0.91425 0.93425 0.0
C608 C 0.40946 0.92861 0.95836 0.0
C609 C 0.42485 0.94988 0.97651 0.0
C610 C 0.4742 0.90436 0.90514 0.0
C611 C 0.37616 0.92252 0.96402 0.0
H612 H 0.37079 0.90641 0.84374 0.0
H613 H 0.38664 0.82386 0.89329 0.0
H614 H 0.38872 0.95753 0.90147 0.0
H615 H 0.42319 0.95171 0.88077 0.0
H616 H 0.38749 0.95386 0.86071 0.0
H617 H 0.4007 0.82931 0.94819 0.0
H618 H 0.43796 0.83504 0.93298 0.0
H619 H 0.42296 0.86159 0.96023 0.0
H620 H 0.4954 0.94577 0.94535 0.0
H621 H 0.4126 0.9623 0.99386 0.0
H622 H 0.46707 0.91409 0.88299 0.0
H623 H 0.46916 0.87965 0.90453 0.0
H624 H 0.49914 0.9076 0.90767 0.0
H625 H 0.36253 0.93135 0.94473 0.0
H626 H 0.36802 0.93334 0.98528 0.0
H627 H 0.372 0.89766 0.96545 0.0
C628 C 0.63426 0.3944 0.68717 0.0
C629 C 0.65985 0.37804 0.67788 0.0
C630 C 0.61744 0.41167 0.66628 0.0
C631 C 0.62604 0.41192 0.63526 0.0
C632 C 0.65089 0.39396 0.62556 0.0
C633 C 0.66789 0.37763 0.64712 0.0
C634 C 0.59133 0.43071 0.67763 0.0
C635 C 0.65995 0.39261 0.59255 0.0
C636 C 0.56845 0.44689 0.58081 0.0
C637 C 0.58072 0.476 0.57636 0.0
C638 C 0.5837 0.42512 0.59855 0.0
C639 C 0.61096 0.43328 0.61372 0.0
C640 C 0.62327 0.46275 0.60957 0.0
C641 C 0.60825 0.48353 0.59068 0.0
C642 C 0.57 0.39378 0.6016 0.0
C643 C 0.65189 0.47271 0.62581 0.0
H644 H 0.62818 0.39465 0.71104 0.0
H645 H 0.68757 0.36469 0.64 0.0
H646 H 0.59623 0.45511 0.67344 0.0
H647 H 0.57025 0.42493 0.66503 0.0
H648 H 0.5871 0.42743 0.7023 0.0
H649 H 0.67625 0.37392 0.58799 0.0
H650 H 0.63956 0.38937 0.57807 0.0
H651 H 0.67072 0.41441 0.58578 0.0
H652 H 0.54664 0.44121 0.57091 0.0
H653 H 0.61789 0.50602 0.58759 0.0
H654 H 0.55575 0.39289 0.62236 0.0
H655 H 0.58782 0.37612 0.60367 0.0
H656 H 0.55528 0.38819 0.58184 0.0
H657 H 0.64863 0.47081 0.65074 0.0
H658 H 0.65837 0.49651 0.62031 0.0
H659 H 0.67106 0.45764 0.61959 0.0
C660 C 0.88378 0.67292 0.15384 0.0
C661 C 0.89601 0.67391 0.18321 0.0
C662 C 0.89768 0.65557 0.13094 0.0
C663 C 0.92369 0.63797 0.13799 0.0
C664 C 0.93651 0.63964 0.16748 0.0
C665 C 0.9227 0.65789 0.18964 0.0
C666 C 0.88416 0.65544 0.09943 0.0
C667 C 0.96399 0.62103 0.17607 0.0
C668 C 0.93564 0.56341 0.09671 0.0
C669 C 0.96136 0.56958 0.07885 0.0
C670 C 0.92283 0.5857 0.11541 0.0
C671 C 0.93551 0.6153 0.11581 0.0
C672 C 0.96062 0.62215 0.09676 0.0
C673 C 0.97376 0.59896 0.07916 0.0
C674 C 0.89646 0.57714 0.13572 0.0
C675 C 0.97448 0.65353 0.09573 0.0
H676 H 0.86329 0.68563 0.14886 0.0
H677 H 0.93207 0.65872 0.21241 0.0
H678 H 0.90231 0.65829 0.08217 0.0
H679 H 0.87294 0.63325 0.09509 0.0
H680 H 0.86707 0.67373 0.09636 0.0
H681 H 0.97171 0.62558 0.19967 0.0
H682 H 0.95854 0.59648 0.17399 0.0
H683 H 0.98305 0.62597 0.16032 0.0
H684 H 0.92592 0.54074 0.09672 0.0
H685 H 0.99427 0.60367 0.06641 0.0
H686 H 0.87683 0.59228 0.13132 0.0
H687 H 0.90307 0.58016 0.15988 0.0
H688 H 0.889 0.55324 0.13238 0.0
H689 H 0.95701 0.6714 0.09875 0.0
H690 H 0.98652 0.65758 0.0739 0.0
H691 H 0.9913 0.65582 0.11438 0.0
C692 C 0.39063 0.15248 0.19045 0.0
C693 C 0.35986 0.14915 0.18299 0.0
C694 C 0.41316 0.13783 0.17327 0.0
C695 C 0.4045 0.11932 0.14839 0.0
C696 C 0.37326 0.11512 0.14163 0.0
C697 C 0.35132 0.13033 0.15889 0.0
C698 C 0.44615 0.14314 0.181 0.0
C699 C 0.36302 0.09526 0.11558 0.0
C700 C 0.45318 0.10795 0.0787 0.0
C701 C 0.46229 0.07768 0.08208 0.0
C702 C 0.43616 0.1225 0.10124 0.0
C703 C 0.42774 0.10621 0.12768 0.0
C704 C 0.43861 0.07624 0.13212 0.0
C705 C 0.4556 0.0622 0.10907 0.0
C706 C 0.4256 0.15467 0.09586 0.0
C707 C 0.43064 0.05815 0.16013 0.0
H708 H 0.39704 0.16717 0.20916 0.0
H709 H 0.32739 0.12779 0.1534 0.0
H710 H 0.4593 0.12185 0.17879 0.0
H711 H 0.45596 0.15984 0.16482 0.0
H712 H 0.44903 0.15217 0.20439 0.0
H713 H 0.33788 0.09292 0.11453 0.0
H714 H 0.37109 0.10507 0.09378 0.0
H715 H 0.37312 0.07229 0.11776 0.0
H716 H 0.45855 0.11999 0.05786 0.0
H717 H 0.46238 0.03866 0.11157 0.0
H718 H 0.43031 0.16894 0.11609 0.0
H719 H 0.40064 0.15478 0.09209 0.0
H720 H 0.43678 0.1652 0.0758 0.0
H721 H 0.42901 0.07286 0.1805 0.0
H722 H 0.44771 0.0401 0.16453 0.0
H723 H 0.40819 0.04708 0.15671 0.0
C724 C 0.18217 0.89863 0.65568 0.0
C725 C 0.17232 0.88204 0.68093 0.0
C726 C 0.16146 0.91478 0.63771 0.0
C727 C 0.13007 0.91372 0.64486 0.0
C728 C 0.12004 0.89714 0.6706 0.0
C729 C 0.14143 0.88166 0.6886 0.0
C730 C 0.17317 0.93263 0.6108 0.0
C731 C 0.08673 0.89511 0.67857 0.0
C732 C 0.08306 0.97469 0.60611 0.0
C733 C 0.07401 0.95965 0.57958 0.0
C734 C 0.09979 0.95951 0.62864 0.0
C735 C 0.1079 0.9287 0.62421 0.0
C736 C 0.09753 0.91309 0.59806 0.0
C737 C 0.08091 0.92884 0.57593 0.0
C738 C 0.11022 0.97696 0.65625 0.0
C739 C 0.10515 0.88008 0.59276 0.0
H740 H 0.20618 0.89899 0.65007 0.0
H741 H 0.13401 0.86875 0.70825 0.0
H742 H 0.16397 0.92284 0.58946 0.0
H743 H 0.16526 0.95652 0.61213 0.0
H744 H 0.1984 0.9326 0.60946 0.0
H745 H 0.08287 0.88341 0.70061 0.0
H746 H 0.07666 0.91814 0.67964 0.0
H747 H 0.07442 0.88247 0.66054 0.0
H748 H 0.07819 0.99868 0.60867 0.0
H749 H 0.07376 0.91718 0.55544 0.0
H750 H 0.13496 0.98168 0.65433 0.0
H751 H 0.10668 0.96344 0.67723 0.0
H752 H 0.09808 0.99893 0.65864 0.0
H753 H 0.12987 0.87782 0.58827 0.0
H754 H 0.09249 0.8704 0.57317 0.0
H755 H 0.0999 0.86641 0.6133 0.0
C756 C 0.86217 0.3949 0.86717 0.0
C757 C 0.8612 0.36308 0.86993 0.0
C758 C 0.88366 0.41232 0.88323 0.0
C759 C 0.90406 0.39777 0.9034 0.0
C760 C 0.90419 0.36568 0.90529 0.0
C761 C 0.88324 0.34876 0.88811 0.0
C762 C 0.88344 0.44645 0.87982 0.0
C763 C 0.92509 0.34921 0.92696 0.0
C764 C 0.97028 0.44116 0.93917 0.0
C765 C 0.9575 0.45049 0.9667 0.0
C766 C 0.95311 0.42427 0.91807 0.0
C767 C 0.92268 0.41616 0.92497 0.0
C768 C 0.90987 0.42521 0.95299 0.0
C769 C 0.92736 0.44234 0.97339 0.0
C770 C 0.96752 0.41499 0.88852 0.0
C771 C 0.87776 0.41649 0.96167 0.0
H772 H 0.84533 0.40653 0.85353 0.0
H773 H 0.88361 0.32421 0.88974 0.0
H774 H 0.87367 0.45687 0.90055 0.0
H775 H 0.90696 0.45527 0.87727 0.0
H776 H 0.86977 0.45387 0.85994 0.0
H777 H 0.92451 0.3242 0.92362 0.0
H778 H 0.94886 0.35723 0.92429 0.0
H779 H 0.91816 0.35419 0.95068 0.0
H780 H 0.99389 0.4463 0.93454 0.0
H781 H 0.91737 0.44935 0.99476 0.0
H782 H 0.95398 0.42405 0.8693 0.0
H783 H 0.96754 0.3899 0.88635 0.0
H784 H 0.9913 0.42329 0.8866 0.0
H785 H 0.86144 0.42615 0.94508 0.0
H786 H 0.87152 0.4246 0.98472 0.0
H787 H 0.87512 0.39141 0.96104 0.0
C788 C 0.67951 0.65383 0.38869 0.0
C789 C 0.67893 0.65627 0.35692 0.0
C790 C 0.65637 0.63858 0.40454 0.0
C791 C 0.6319 0.62525 0.38832 0.0
C792 C 0.63086 0.62799 0.35626 0.0
C793 C 0.65447 0.6433 0.34094 0.0
C794 C 0.65841 0.63635 0.43873 0.0
C795 C 0.60543 0.61408 0.33789 0.0
C796 C 0.59395 0.56292 0.43437 0.0
C797 C 0.57037 0.57892 0.44836 0.0
C798 C 0.61277 0.57706 0.41275 0.0
C799 C 0.60806 0.60803 0.40536 0.0
C800 C 0.58282 0.62355 0.41789 0.0
C801 C 0.5644 0.60884 0.4395 0.0
C802 C 0.63888 0.55946 0.39933 0.0
C803 C 0.57661 0.65634 0.41012 0.0
H804 H 0.69853 0.66327 0.40123 0.0
H805 H 0.6537 0.6452 0.3164 0.0
H806 H 0.63758 0.64586 0.44923 0.0
H807 H 0.65991 0.61215 0.44566 0.0
H808 H 0.67847 0.64864 0.44799 0.0
H809 H 0.60299 0.62539 0.31545 0.0
H810 H 0.61069 0.5898 0.3338 0.0
H811 H 0.58336 0.61529 0.35002 0.0
H812 H 0.59871 0.53985 0.4416 0.0
H813 H 0.54636 0.62127 0.45072 0.0
H814 H 0.66067 0.56829 0.40855 0.0
H815 H 0.63947 0.56246 0.37431 0.0
H816 H 0.6373 0.5348 0.40454 0.0
H817 H 0.59467 0.67093 0.42008 0.0
H818 H 0.55424 0.66403 0.4189 0.0
H819 H 0.57713 0.6597 0.38514 0.0
C820 C 0.14217 0.34959 0.14616 0.0
C821 C 0.17363 0.35249 0.15042 0.0
C822 C 0.12565 0.37176 0.13036 0.0
C823 C 0.14087 0.39769 0.1187 0.0
C824 C 0.17263 0.40092 0.12319 0.0
C825 C 0.18867 0.37811 0.13873 0.0
C826 C 0.09184 0.36733 0.12602 0.0
C827 C 0.19011 0.42789 0.11114 0.0
C828 C 0.09668 0.43729 0.05614 0.0
C829 C 0.08048 0.45887 0.07283 0.0
C830 C 0.11803 0.41837 0.07044 0.0
C831 C 0.12308 0.4212 0.1021 0.0
C832 C 0.10825 0.4445 0.11851 0.0
C833 C 0.08675 0.46282 0.10372 0.0
C834 C 0.13381 0.39419 0.05207 0.0
C835 C 0.11391 0.44899 0.15201 0.0
H836 H 0.1305 0.32962 0.15477 0.0
H837 H 0.21299 0.38053 0.14203 0.0
H838 H 0.07931 0.38648 0.13651 0.0
H839 H 0.08626 0.36725 0.10143 0.0
H840 H 0.08351 0.34575 0.13622 0.0
H841 H 0.20983 0.43334 0.12598 0.0
H842 H 0.19915 0.42209 0.08837 0.0
H843 H 0.17575 0.44844 0.10897 0.0
H844 H 0.09147 0.43413 0.03227 0.0
H845 H 0.07399 0.47949 0.11654 0.0
H846 H 0.12501 0.37149 0.05878 0.0
H847 H 0.15861 0.39446 0.05677 0.0
H848 H 0.13019 0.39723 0.02728 0.0
H849 H 0.10493 0.42918 0.16483 0.0
H850 H 0.1029 0.46989 0.16078 0.0
H851 H 0.13872 0.45039 0.15651 0.0
C852 C 0.63865 0.1509 0.85318 0.0
C853 C 0.6569 0.17308 0.86721 0.0
C854 C 0.62293 0.12902 0.87038 0.0
C855 C 0.62608 0.12878 0.90237 0.0
C856 C 0.64622 0.14956 0.91649 0.0
C857 C 0.66107 0.17168 0.89884 0.0
C858 C 0.6014 0.10752 0.85442 0.0
C859 C 0.65069 0.14967 0.95049 0.0
C860 C 0.55732 0.10518 0.94856 0.0
C861 C 0.56449 0.07531 0.95701 0.0
C862 C 0.57716 0.12261 0.93079 0.0
C863 C 0.60513 0.11 0.92128 0.0
C864 C 0.61259 0.07983 0.92971 0.0
C865 C 0.59201 0.06271 0.94733 0.0
C866 C 0.56802 0.15452 0.92202 0.0
C867 C 0.64217 0.06568 0.91999 0.0
H868 H 0.6359 0.1511 0.82873 0.0
H869 H 0.67482 0.1887 0.91015 0.0
H870 H 0.60483 0.08389 0.86242 0.0
H871 H 0.57762 0.11386 0.85988 0.0
H872 H 0.60424 0.10812 0.82935 0.0
H873 H 0.6707 0.16353 0.95736 0.0
H874 H 0.63018 0.15918 0.96159 0.0
H875 H 0.6537 0.12618 0.95909 0.0
H876 H 0.53602 0.11506 0.95595 0.0
H877 H 0.59705 0.0393 0.95284 0.0
H878 H 0.56795 0.15691 0.89693 0.0
H879 H 0.58476 0.17109 0.93111 0.0
H880 H 0.54512 0.16063 0.9307 0.0
H881 H 0.64349 0.06482 0.89486 0.0
H882 H 0.64488 0.04228 0.92902 0.0
H883 H 0.66145 0.07991 0.92794 0.0
C884 C 0.89677 0.85074 0.40463 0.0
C885 C 0.86879 0.8571 0.3909 0.0
C886 C 0.91317 0.87346 0.41991 0.0
C887 C 0.90166 0.90349 0.42082 0.0
C888 C 0.87321 0.90997 0.40715 0.0
C889 C 0.85694 0.88657 0.39259 0.0
C890 C 0.94305 0.86538 0.43473 0.0
C891 C 0.86051 0.94176 0.40681 0.0
C892 C 0.93899 0.95438 0.47993 0.0
C893 C 0.96293 0.96703 0.46311 0.0
C894 C 0.91765 0.93494 0.46611 0.0
C895 C 0.92042 0.92809 0.43477 0.0
C896 C 0.94342 0.94246 0.41738 0.0
C897 C 0.96461 0.96146 0.43184 0.0
C898 C 0.89325 0.9204 0.48537 0.0
C899 C 0.94656 0.93662 0.38375 0.0
H900 H 0.90574 0.82784 0.40353 0.0
H901 H 0.83535 0.89147 0.38177 0.0
H902 H 0.9619 0.87767 0.42329 0.0
H903 H 0.94298 0.87256 0.45889 0.0
H904 H 0.94781 0.84062 0.43372 0.0
H905 H 0.83595 0.94201 0.40092 0.0
H906 H 0.86371 0.95294 0.42912 0.0
H907 H 0.87297 0.95551 0.38969 0.0
H908 H 0.93777 0.95855 0.50416 0.0
H909 H 0.983 0.97144 0.41877 0.0
H910 H 0.89778 0.89569 0.48747 0.0
H911 H 0.87066 0.92297 0.47446 0.0
H912 H 0.89227 0.93038 0.50852 0.0
H913 H 0.95407 0.91287 0.37999 0.0
H914 H 0.9633 0.95215 0.37291 0.0
H915 H 0.92427 0.93937 0.37225 0.0
C916 C 0.38342 0.66309 0.67285 0.0
C917 C 0.36174 0.68054 0.65716 0.0
C918 C 0.40329 0.64358 0.65738 0.0
C919 C 0.40059 0.64026 0.62554 0.0
C920 C 0.37749 0.6561 0.60979 0.0
C921 C 0.35882 0.67648 0.62561 0.0
C922 C 0.42817 0.62777 0.67495 0.0
C923 C 0.37327 0.65256 0.57594 0.0
C924 C 0.47031 0.62017 0.57917 0.0
C925 C 0.46652 0.58882 0.57475 0.0
C926 C 0.44925 0.63702 0.59599 0.0
C927 C 0.42344 0.62226 0.60836 0.0
C928 C 0.4196 0.59058 0.60417 0.0
C929 C 0.44146 0.57415 0.58777 0.0
C930 C 0.45475 0.67059 0.60068 0.0
C931 C 0.39228 0.57416 0.61677 0.0
H932 H 0.38542 0.66502 0.69728 0.0
H933 H 0.34265 0.68993 0.61287 0.0
H934 H 0.42776 0.603 0.67046 0.0
H935 H 0.45064 0.63644 0.66735 0.0
H936 H 0.42621 0.63145 0.69983 0.0
H937 H 0.3509 0.66134 0.56822 0.0
H938 H 0.39141 0.66531 0.56385 0.0
H939 H 0.37515 0.62836 0.56925 0.0
H940 H 0.48988 0.63163 0.56942 0.0
H941 H 0.43933 0.54976 0.58572 0.0
H942 H 0.45447 0.676 0.62529 0.0
H943 H 0.43628 0.68384 0.58983 0.0
H944 H 0.47682 0.67823 0.59101 0.0
H945 H 0.39148 0.57646 0.64182 0.0
H946 H 0.39237 0.54962 0.61098 0.0
H947 H 0.37132 0.5847 0.60764 0.0
C948 C 0.00637 0.94837 0.77322 0.0
C949 C 0.9755 0.95447 0.77847 0.0
C950 C 0.01973 0.95451 0.74481 0.0
C951 C 0.00156 0.96644 0.72104 0.0
C952 C 0.97009 0.97128 0.72598 0.0
C953 C 0.95754 0.96529 0.75456 0.0
C954 C 0.05316 0.94812 0.74066 0.0
C955 C 0.94971 0.98386 0.70135 0.0
C956 C 0.02394 0.02131 0.66013 0.0
C957 C 0.018 0.00399 0.63415 0.0
C958 C 0.02291 0.00812 0.68905 0.0
C959 C 0.01507 0.97706 0.6919 0.0
C960 C 0.01332 0.95867 0.66556 0.0
C961 C 0.01461 0.97246 0.63675 0.0
C962 C 0.02667 0.02819 0.71657 0.0
C963 C 0.00674 0.92512 0.66772 0.0
H964 H 0.02029 0.93965 0.79158 0.0
H965 H 0.93351 0.96928 0.7583 0.0
H966 H 0.05592 0.92383 0.73462 0.0
H967 H 0.06364 0.96207 0.72243 0.0
H968 H 0.06584 0.95209 0.76213 0.0
H969 H 0.92551 0.98498 0.7085 0.0
H970 H 0.9573 0.00711 0.69509 0.0
H971 H 0.95118 0.96955 0.68067 0.0
H972 H 0.02711 0.04567 0.65797 0.0
H973 H 0.01032 0.95901 0.61656 0.0
H974 H 0.04086 0.01673 0.73398 0.0
H975 H 0.00404 0.0326 0.72678 0.0
H976 H 0.03732 0.05036 0.71072 0.0
H977 H 0.01772 0.91504 0.68806 0.0
H978 H 0.01475 0.91295 0.64714 0.0
H979 H 0.98183 0.9216 0.66976 0.0
C980 C 0.58027 0.10311 0.24642 0.0
C981 C 0.55954 0.10837 0.26994 0.0
C982 C 0.57052 0.09225 0.21817 0.0
C983 C 0.53919 0.08647 0.21324 0.0
C984 C 0.51793 0.09304 0.23653 0.0
C985 C 0.52839 0.1041 0.26461 0.0
C986 C 0.59406 0.0854 0.19415 0.0
C987 C 0.48431 0.08714 0.23295 0.0
C988 C 0.5253 0.07001 0.12993 0.0
C989 C 0.52818 0.03834 0.12976 0.0
C990 C 0.52574 0.08618 0.15744 0.0
C991 C 0.52994 0.07021 0.18511 0.0
C992 C 0.53024 0.03807 0.18506 0.0
C993 C 0.5294 0.02255 0.15736 0.0
C994 C 0.52398 0.12036 0.1564 0.0
C995 C 0.53379 0.02012 0.21409 0.0
H996 H 0.60432 0.10696 0.25035 0.0
H997 H 0.51228 0.10816 0.28278 0.0
H998 H 0.59382 0.06074 0.18889 0.0
H999 H 0.58859 0.09777 0.17289 0.0
H1000 H 0.61741 0.09187 0.20138 0.0
H1001 H 0.47736 0.06871 0.24876 0.0
H1002 H 0.47137 0.10774 0.23951 0.0
H1003 H 0.47774 0.0805 0.2096 0.0
H1004 H 0.52441 0.08228 0.10858 0.0
H1005 H 0.53118 0.99798 0.15721 0.0
H1006 H 0.54695 0.12975 0.15167 0.0
H1007 H 0.5158 0.13005 0.17815 0.0
H1008 H 0.50864 0.12787 0.13779 0.0
H1009 H 0.55638 0.02497 0.22431 0.0
H1010 H 0.53182 0.99524 0.21029 0.0
H1011 H 0.51622 0.02705 0.23075 0.0
C1012 C 0.49086 0.59017 0.27109 0.0
C1013 C 0.4845 0.56522 0.25221 0.0
C1014 C 0.49869 0.58599 0.30175 0.0
C1015 C 0.49956 0.55625 0.31391 0.0
C1016 C 0.49565 0.53097 0.29443 0.0
C1017 C 0.4884 0.53576 0.26378 0.0
C1018 C 0.50392 0.61344 0.32161 0.0
C1019 C 0.49688 0.49885 0.30642 0.0
C1020 C 0.52514 0.53787 0.39456 0.0
C1021 C 0.49704 0.53531 0.40926 0.0
C1022 C 0.52668 0.54606 0.36368 0.0
C1023 C 0.49943 0.55158 0.34739 0.0
C1024 C 0.47114 0.55033 0.3627 0.0
C1025 C 0.47033 0.54211 0.39339 0.0
C1026 C 0.55726 0.5468 0.34824 0.0
C1027 C 0.44151 0.55612 0.34631 0.0
H1028 H 0.488 0.61306 0.2625 0.0
H1029 H 0.48453 0.51634 0.24914 0.0
H1030 H 0.48388 0.61685 0.33651 0.0
H1031 H 0.52398 0.60995 0.33651 0.0
H1032 H 0.50747 0.63442 0.30799 0.0
H1033 H 0.49651 0.48174 0.28789 0.0
H1034 H 0.51771 0.49546 0.32021 0.0
H1035 H 0.47704 0.49467 0.32146 0.0
H1036 H 0.54567 0.5317 0.40661 0.0
H1037 H 0.44858 0.54008 0.40484 0.0
H1038 H 0.55804 0.56415 0.32997 0.0
H1039 H 0.56169 0.52433 0.33779 0.0
H1040 H 0.57577 0.55144 0.36475 0.0
H1041 H 0.44222 0.57853 0.33477 0.0
H1042 H 0.42165 0.55568 0.36189 0.0
H1043 H 0.438 0.53857 0.32855 0.0
C1044 C 0.03072 0.43331 0.77246 0.0
C1045 C 0.03962 0.45676 0.75269 0.0
C1046 C 0.02451 0.43903 0.80319 0.0
C1047 C 0.02716 0.46901 0.81458 0.0
C1048 C 0.03472 0.49302 0.79442 0.0
C1049 C 0.0407 0.48663 0.76375 0.0
C1050 C 0.01579 0.41274 0.82342 0.0
C1051 C 0.03831 0.52525 0.80562 0.0
C1052 C 0.00061 0.49454 0.89303 0.0
C1053 C 0.02805 0.49374 0.90919 0.0
C1054 C 0.99939 0.48499 0.86248 0.0
C1055 C 0.02631 0.47487 0.84795 0.0
C1056 C 0.05362 0.47268 0.86484 0.0
C1057 C 0.05412 0.48218 0.89517 0.0
C1058 C 0.96972 0.48704 0.84545 0.0
C1059 C 0.0828 0.46183 0.85043 0.0
H1060 H 0.02993 0.41011 0.76429 0.0
H1061 H 0.04696 0.505 0.74856 0.0
H1062 H 0.02795 0.41374 0.84547 0.0
H1063 H 0.99104 0.41392 0.82797 0.0
H1064 H 0.02059 0.39045 0.81266 0.0
H1065 H 0.04208 0.54161 0.78675 0.0
H1066 H 0.01785 0.53231 0.81848 0.0
H1067 H 0.05799 0.5266 0.82136 0.0
H1068 H 0.98055 0.50389 0.9038 0.0
H1069 H 0.07538 0.48182 0.90768 0.0
H1070 H 0.96595 0.46634 0.83157 0.0
H1071 H 0.97049 0.50671 0.82969 0.0
H1072 H 0.95013 0.49006 0.86105 0.0
H1073 H 0.07936 0.43907 0.84015 0.0
H1074 H 0.10179 0.46041 0.86702 0.0
H1075 H 0.08956 0.4776 0.83192 0.0
C1076 C 0.76688 0.99428 0.99913 0.0
C1077 C 0.7786 0.99152 0.96963 0.0
C1078 C 0.7369 0.00382 0.00404 0.0
C1079 C 0.71832 0.01146 0.97887 0.0
C1080 C 0.73112 0.01204 0.94938 0.0
C1081 C 0.76107 0.0019 0.94507 0.0
C1082 C 0.72426 0.0026 0.03592 0.0
C1083 C 0.7126 0.02151 0.92213 0.0
C1084 C 0.63813 0.9832 0.99043 0.0
C1085 C 0.62362 0.00896 0.00191 0.0
C1086 C 0.66842 0.98437 0.9809 0.0
C1087 C 0.68471 0.01211 0.98294 0.0
C1088 C 0.66948 0.03882 0.99244 0.0
C1089 C 0.63896 0.03689 0.00207 0.0
C1090 C 0.68357 0.95531 0.97078 0.0
C1091 C 0.68582 0.06894 0.99397 0.0
H1092 H 0.7806 0.98726 0.01834 0.0
H1093 H 0.76991 1.00016 0.92217 0.0
H1094 H 0.71114 0.02342 0.04109 0.0
H1095 H 0.70846 0.98297 0.03791 0.0
H1096 H 0.74244 1.0 0.05326 0.0
H1097 H 0.7254 0.01913 0.90052 0.0
H1098 H 0.69146 0.00778 0.92056 0.0
H1099 H 0.70591 0.04562 0.92472 0.0
H1100 H 0.62614 0.96161 0.99044 0.0
H1101 H 0.62767 0.05676 0.01117 0.0
H1102 H 0.70173 0.94907 0.98715 0.0
H1103 H 0.69442 0.95854 0.94827 0.0
H1104 H 0.66728 0.93603 0.96916 0.0
H1105 H 0.70253 0.06863 0.01284 0.0
H1106 H 0.66986 0.08806 0.99779 0.0
H1107 H 0.69866 0.0731 0.97269 0.0
C1108 C 0.79368 0.07722 0.44993 0.0
C1109 C 0.76978 0.05713 0.44342 0.0
C1110 C 0.82143 0.06668 0.46123 0.0
C1111 C 0.82568 0.03511 0.46577 0.0
C1112 C 0.80218 0.01447 0.45781 0.0
C1113 C 0.77442 0.02578 0.44674 0.0
C1114 C 0.84573 0.08959 0.46955 0.0
C1115 C 0.80532 0.9806 0.462 0.0
C1116 C 0.909 0.02166 0.48067 0.0
C1117 C 0.9097 0.0236 0.51242 0.0
C1118 C 0.88122 0.02159 0.46494 0.0
C1119 C 0.85377 0.02481 0.4814 0.0
C1120 C 0.8543 0.02401 0.51352 0.0
C1121 C 0.88231 0.02337 0.52865 0.0
C1122 C 0.88164 0.02071 0.43071 0.0
C1123 C 0.82545 0.0265 0.5319 0.0
H1124 H 0.79048 0.10141 0.44663 0.0
H1125 H 0.75604 0.01009 0.4417 0.0
H1126 H 0.85105 0.08785 0.49414 0.0
H1127 H 0.86694 0.08475 0.45685 0.0
H1128 H 0.83875 0.11331 0.46454 0.0
H1129 H 0.79721 0.96861 0.44132 0.0
H1130 H 0.82895 0.97338 0.46689 0.0
H1131 H 0.79055 0.9732 0.48108 0.0
H1132 H 0.93007 0.02221 0.46795 0.0
H1133 H 0.88281 0.02444 0.55326 0.0
H1134 H 0.88393 0.0442 0.42181 0.0
H1135 H 0.8604 0.01071 0.42141 0.0
H1136 H 0.90134 0.00736 0.42233 0.0
H1137 H 0.8154 0.04938 0.52862 0.0
H1138 H 0.82952 0.02297 0.55656 0.0
H1139 H 0.80854 0.00951 0.52399 0.0
C1140 C 0.26946 0.54321 0.03451 0.0
C1141 C 0.28131 0.54576 0.06401 0.0
C1142 C 0.23897 0.53515 0.02961 0.0
C1143 C 0.21997 0.52879 0.0548 0.0
C1144 C 0.23257 0.52815 0.08436 0.0
C1145 C 0.26298 0.53703 0.0887 0.0
C1146 C 0.22654 0.53576 0.99764 0.0
C1147 C 0.21338 0.52023 0.11166 0.0
C1148 C 0.13975 0.55674 0.043 0.0
C1149 C 0.1248 0.5305 0.03294 0.0
C1150 C 0.17029 0.55599 0.05181 0.0
C1151 C 0.18638 0.52821 0.05053 0.0
C1152 C 0.17083 0.50117 0.04223 0.0
C1153 C 0.1401 0.50267 0.03334 0.0
C1154 C 0.18585 0.58543 0.06041 0.0
C1155 C 0.18697 0.47107 0.04052 0.0
H1156 H 0.28368 0.5488 0.01519 0.0
H1157 H 0.27174 0.53878 0.11164 0.0
H1158 H 0.21388 0.5145 0.99274 0.0
H1159 H 0.21033 0.55491 0.99527 0.0
H1160 H 0.24476 0.53856 0.98038 0.0
H1161 H 0.22761 0.5138 0.13149 0.0
H1162 H 0.19944 0.54018 0.11809 0.0
H1163 H 0.19759 0.50124 0.10639 0.0
H1164 H 0.12783 0.57828 0.04263 0.0
H1165 H 0.12877 0.48255 0.02477 0.0
H1166 H 0.20359 0.59102 0.04335 0.0
H1167 H 0.19731 0.58308 0.08273 0.0
H1168 H 0.1697 0.60475 0.06169 0.0
H1169 H 0.19668 0.46823 0.01745 0.0
H1170 H 0.17091 0.45198 0.0445 0.0
H1171 H 0.20583 0.46964 0.05719 0.0
C1172 C 0.27414 0.51072 0.60523 0.0
C1173 C 0.25519 0.49817 0.58276 0.0
C1174 C 0.3046 0.51822 0.59907 0.0
C1175 C 0.31668 0.51279 0.56978 0.0
C1176 C 0.29738 0.50129 0.54666 0.0
C1177 C 0.26686 0.49454 0.55331 0.0
C1178 C 0.32381 0.5314 0.62424 0.0
C1179 C 0.30939 0.49429 0.51529 0.0
C1180 C 0.39361 0.53972 0.53985 0.0
C1181 C 0.4111 0.51352 0.5442 0.0
C1182 C 0.36316 0.54076 0.54988 0.0
C1183 C 0.3501 0.5149 0.56413 0.0
C1184 C 0.36845 0.48921 0.57013 0.0
C1185 C 0.39866 0.4889 0.56012 0.0
C1186 C 0.34456 0.56889 0.54402 0.0
C1187 C 0.3556 0.46111 0.5852 0.0
H1188 H 0.26563 0.51358 0.62812 0.0
H1189 H 0.25235 0.48568 0.53549 0.0
H1190 H 0.34652 0.52057 0.62513 0.0
H1191 H 0.32708 0.55599 0.61986 0.0
H1192 H 0.31286 0.52884 0.64684 0.0
H1193 H 0.29111 0.48704 0.49943 0.0
H1194 H 0.321 0.51447 0.50557 0.0
H1195 H 0.32646 0.47583 0.5168 0.0
H1196 H 0.40317 0.55863 0.52723 0.0
H1197 H 0.41219 0.46856 0.56323 0.0
H1198 H 0.33373 0.57659 0.56542 0.0
H1199 H 0.326 0.56368 0.52776 0.0
H1200 H 0.35852 0.5877 0.53455 0.0
H1201 H 0.34508 0.46709 0.60729 0.0
H1202 H 0.37322 0.44353 0.58927 0.0
H1203 H 0.33752 0.45114 0.57067 0.0
C1204 C 0.9321 0.73503 0.95124 0.0
C1205 C 0.93026 0.75994 0.97091 0.0
C1206 C 0.93897 0.70601 0.96221 0.0
C1207 C 0.94405 0.70177 0.99369 0.0
C1208 C 0.93904 0.72615 0.01403 0.0
C1209 C 0.93229 0.75514 0.00236 0.0
C1210 C 0.94349 0.68053 0.93971 0.0
C1211 C 0.94287 0.72202 0.04782 0.0
C1212 C 0.96132 0.61903 0.00994 0.0
C1213 C 0.99284 0.61903 0.00534 0.0
C1214 C 0.94496 0.64646 0.00954 0.0
C1215 C 0.96057 0.6741 0.00373 0.0
C1216 C 0.99272 0.67422 0.00182 0.0
C1217 C 0.00838 0.64668 0.00266 0.0
C1218 C 0.91087 0.64532 0.01293 0.0
C1219 C 0.01049 0.7031 0.99596 0.0
H1220 H 0.92956 0.73854 0.92699 0.0
H1221 H 0.93042 0.77429 0.01769 0.0
H1222 H 0.96799 0.67463 0.93857 0.0
H1223 H 0.93094 0.65993 0.94711 0.0
H1224 H 0.93572 0.68678 0.91651 0.0
H1225 H 0.93394 0.7417 0.06079 0.0
H1226 H 0.93097 0.7011 0.05545 0.0
H1227 H 0.96733 0.71928 0.05335 0.0
H1228 H 0.9493 0.5976 0.01222 0.0
H1229 H 0.03286 0.64665 0.99962 0.0
H1230 H 0.90042 0.64108 0.99038 0.0
H1231 H 0.90167 0.66696 0.02192 0.0
H1232 H 0.90397 0.62646 0.02827 0.0
H1233 H 0.00558 0.71141 0.97266 0.0
H1234 H 0.03542 0.69964 0.99806 0.0
H1235 H 0.0036 0.72113 0.01209 0.0
C1236 C 0.44255 0.77181 0.04123 0.0
C1237 C 0.46724 0.75306 0.04879 0.0
C1238 C 0.44705 0.80241 0.03322 0.0
C1239 C 0.47682 0.81473 0.03355 0.0
C1240 C 0.50193 0.79536 0.03878 0.0
C1241 C 0.49685 0.76471 0.04593 0.0
C1242 C 0.41962 0.82187 0.02674 0.0
C1243 C 0.5341 0.80748 0.03917 0.0
C1244 C 0.4996 0.89455 0.00862 0.0
C1245 C 0.50036 0.90943 0.03668 0.0
C1246 C 0.49011 0.86402 0.00669 0.0
C1247 C 0.4816 0.84824 0.03351 0.0
C1248 C 0.48072 0.86395 0.06153 0.0
C1249 C 0.49011 0.89431 0.06272 0.0
C1250 C 0.49142 0.84833 0.97632 0.0
C1251 C 0.47198 0.84812 0.09075 0.0
H1252 H 0.41953 0.76319 0.04325 0.0
H1253 H 0.51613 0.75017 0.05064 0.0
H1254 H 0.41086 0.83125 0.0484 0.0
H1255 H 0.42525 0.84115 0.0115 0.0
H1256 H 0.4011 0.80822 0.01622 0.0
H1257 H 0.5512 0.78914 0.04184 0.0
H1258 H 0.53899 0.82 0.01786 0.0
H1259 H 0.53681 0.82372 0.05826 0.0
H1260 H 0.50834 0.90599 0.98865 0.0
H1261 H 0.49085 0.90593 0.08443 0.0
H1262 H 0.47529 0.82895 0.97497 0.0
H1263 H 0.51474 0.83956 0.97258 0.0
H1264 H 0.4864 0.86453 0.95768 0.0
H1265 H 0.44916 0.83756 0.08847 0.0
H1266 H 0.47159 0.86388 0.11044 0.0
H1267 H 0.48841 0.82966 0.09566 0.0
C1268 C 0.10144 0.26179 0.53507 0.0
C1269 C 0.07977 0.28419 0.54168 0.0
C1270 C 0.09267 0.23156 0.52961 0.0
C1271 C 0.06152 0.22343 0.5313 0.0
C1272 C 0.03944 0.2463 0.5359 0.0
C1273 C 0.04881 0.2764 0.54076 0.0
C1274 C 0.11722 0.20826 0.52431 0.0
C1275 C 0.00599 0.23867 0.53766 0.0
C1276 C 0.03083 0.14529 0.50911 0.0
C1277 C 0.03006 0.1309 0.53743 0.0
C1278 C 0.04176 0.17527 0.50636 0.0
C1279 C 0.05226 0.19087 0.53258 0.0
C1280 C 0.05235 0.17581 0.56101 0.0
C1281 C 0.04112 0.1461 0.56307 0.0
C1282 C 0.04015 0.19047 0.47571 0.0
C1283 C 0.06303 0.19155 0.5896 0.0
H1284 H 0.12545 0.2674 0.53576 0.0
H1285 H 0.03185 0.29371 0.54497 0.0
H1286 H 0.12718 0.20161 0.54649 0.0
H1287 H 0.10851 0.18749 0.51299 0.0
H1288 H 0.13583 0.21806 0.51029 0.0
H1289 H 0.99162 0.25922 0.54021 0.0
H1290 H 0.99877 0.22636 0.5169 0.0
H1291 H 0.00176 0.22342 0.55733 0.0
H1292 H 0.02145 0.13377 0.48947 0.0
H1293 H 0.0403 0.13487 0.585 0.0
H1294 H 0.05577 0.2102 0.47381 0.0
H1295 H 0.01659 0.19853 0.47179 0.0
H1296 H 0.04545 0.17401 0.45744 0.0
H1297 H 0.08702 0.19894 0.58696 0.0
H1298 H 0.06141 0.17666 0.60994 0.0
H1299 H 0.04919 0.21219 0.59365 0.0
C1300 C 0.60978 0.28712 0.51196 0.0
C1301 C 0.61104 0.28027 0.48084 0.0
C1302 C 0.59988 0.31576 0.52198 0.0
C1303 C 0.59082 0.33777 0.50036 0.0
C1304 C 0.5939 0.33157 0.46897 0.0
C1305 C 0.60414 0.30301 0.45964 0.0
C1306 C 0.59801 0.32214 0.55559 0.0
C1307 C 0.58473 0.3545 0.44511 0.0
C1308 C 0.5254 0.39122 0.51227 0.0
C1309 C 0.54011 0.41946 0.5119 0.0
C1310 C 0.54196 0.36419 0.51125 0.0
C1311 C 0.5741 0.36546 0.50983 0.0
C1312 C 0.58918 0.39387 0.51223 0.0
C1313 C 0.57193 0.4207 0.5129 0.0
C1314 C 0.52488 0.33444 0.50889 0.0
C1315 C 0.62338 0.39634 0.51154 0.0
H1316 H 0.61536 0.26974 0.52849 0.0
H1317 H 0.60605 0.29822 0.43557 0.0
H1318 H 0.61022 0.34356 0.56089 0.0
H1319 H 0.57393 0.3253 0.56237 0.0
H1320 H 0.60789 0.3035 0.56944 0.0
H1321 H 0.59023 0.34679 0.42173 0.0
H1322 H 0.55988 0.35863 0.44647 0.0
H1323 H 0.5964 0.37649 0.44922 0.0
H1324 H 0.50075 0.39031 0.51182 0.0
H1325 H 0.58334 0.44257 0.51254 0.0
H1326 H 0.53432 0.31751 0.52498 0.0
H1327 H 0.52749 0.32512 0.48562 0.0
H1328 H 0.50022 0.33711 0.51363 0.0
H1329 H 0.63439 0.37591 0.52132 0.0
H1330 H 0.63127 0.41674 0.52418 0.0
H1331 H 0.631 0.39872 0.48763 0.0
loop_
_geom_bond_atom_site_label_1
_geom_bond_atom_site_label_2
_geom_bond_distance
_geom_bond_site_symmetry_2
_ccdc_geom_bond_type
C0 C1 1.391 . S
C0 C4 1.391 . S
C0 H42 0.948 . S
C1 C0 1.391 . S
C1 C2 1.391 . S
C2 C1 1.391 . S
C2 H58 0.947 . S
C2 C59 1.392 . S
C3 C4 1.391 . S
C3 C7 1.397 . S
C3 C59 1.419 . S
C4 C0 1.391 . S
C4 C3 1.391 . S
C4 C5 1.399 . S
C5 C4 1.399 . S
C5 C8 1.396 . S
C5 C17 1.453 . S
C5 C18 1.684 . S
H6 C30 0.948 . S
C7 C3 1.397 . S
C7 C8 1.394 . S
C7 C26 1.723 . S
C8 C5 1.396 . S
C8 C7 1.394 . S
C8 C38 1.723 . S
H9 C32 0.947 . S
H10 C33 0.948 . S
H11 C39 0.982 . S
H12 C40 0.979 . S
H13 C40 0.980 . S
H14 C40 0.983 . S
H15 C39 0.979 . S
H16 C39 0.977 . S
C17 C5 1.453 . S
C17 H46 0.982 . S
C17 H47 0.979 . S
C17 H48 0.977 . S
C18 C5 1.684 . S
C18 H43 0.979 . S
C18 H44 0.980 . S
C18 H45 0.983 . S
C19 C20 1.391 . S
C19 C24 1.391 . S
C19 H49 0.948 . S
C20 C19 1.391 . S
C20 C21 1.391 . S
C21 C20 1.391 . S
C21 C22 1.392 . S
C21 H50 0.947 . S
C22 C21 1.392 . S
C22 C23 1.419 . S
C22 H51 0.948 . S
C23 C22 1.419 . S
C23 C24 1.391 . S
C23 C27 1.397 . S
C24 C19 1.391 . S
C24 C23 1.391 . S
C24 C25 1.399 . S
C25 C24 1.399 . S
C25 C26 1.396 . S
C25 C28 1.453 . S
C25 C29 1.684 . S
C26 C7 1.723 . S
C26 C25 1.396 . S
C26 C27 1.394 . S
C27 C23 1.397 . S
C27 C26 1.394 . S
C27 C37 1.723 . S
C28 C25 1.453 . S
C28 H52 0.982 . S
C28 H53 0.979 . S
C28 H54 0.977 . S
C29 C25 1.684 . S
C29 H55 0.979 . S
C29 H56 0.980 . S
C29 H57 0.983 . S
C30 H6 0.948 . S
C30 C31 1.391 . S
C30 C35 1.391 . S
C31 C30 1.391 . S
C31 C32 1.391 . S
C32 H9 0.947 . S
C32 C31 1.391 . S
C32 C33 1.392 . S
C33 H10 0.948 . S
C33 C32 1.392 . S
C33 C34 1.419 . S
C34 C33 1.419 . S
C34 C35 1.391 . S
C34 C38 1.397 . S
C35 C30 1.391 . S
C35 C34 1.391 . S
C35 C36 1.399 . S
C36 C35 1.399 . S
C36 C37 1.396 . S
C36 C39 1.453 . S
C36 C40 1.684 . S
C37 C27 1.723 . S
C37 C36 1.396 . S
C37 C38 1.394 . S
C38 C8 1.723 . S
C38 C34 1.397 . S
C38 C37 1.394 . S
C39 H11 0.982 . S
C39 H15 0.979 . S
C39 H16 0.977 . S
C39 C36 1.453 . S
C40 H12 0.979 . S
C40 H13 0.980 . S
C40 H14 0.983 . S
C40 C36 1.684 . S
H41 C59 0.948 . S
H42 C0 0.948 . S
H43 C18 0.979 . S
H44 C18 0.980 . S
H45 C18 0.983 . S
H46 C17 0.982 . S
H47 C17 0.979 . S
H48 C17 0.977 . S
H49 C19 0.948 . S
H50 C21 0.947 . S
H51 C22 0.948 . S
H52 C28 0.982 . S
H53 C28 0.979 . S
H54 C28 0.977 . S
H55 C29 0.979 . S
H56 C29 0.980 . S
H57 C29 0.983 . S
H58 C2 0.947 . S
C59 C2 1.392 . S
C59 C3 1.419 . S
C59 H41 0.948 . S
C60 C61 1.391 . S
C60 C64 1.391 . S
C60 H102 0.948 . S
C61 C60 1.391 . S
C61 C62 1.391 . S
C62 C61 1.391 . S
C62 H118 0.947 . S
C62 C119 1.392 . S
C63 C64 1.391 . S
C63 C67 1.397 . S
C63 C119 1.419 . S
C64 C60 1.391 . S
C64 C63 1.391 . S
C64 C65 1.399 . S
C65 C64 1.399 . S
C65 C68 1.396 . S
C65 C77 1.453 . S
C65 C78 1.684 . S
H66 C90 0.948 . S
C67 C63 1.397 . S
C67 C68 1.394 . S
C67 C86 1.723 . S
C68 C65 1.396 . S
C68 C67 1.394 . S
C68 C98 1.723 . S
H69 C92 0.947 . S
H70 C93 0.948 . S
H71 C99 0.982 . S
H72 C100 0.979 . S
H73 C100 0.980 . S
H74 C100 0.983 . S
H75 C99 0.979 . S
H76 C99 0.977 . S
C77 C65 1.453 . S
C77 H106 0.982 . S
C77 H107 0.979 . S
C77 H108 0.977 . S
C78 C65 1.684 . S
C78 H103 0.979 . S
C78 H104 0.980 . S
C78 H105 0.983 . S
C79 C80 1.391 . S
C79 C84 1.391 . S
C79 H109 0.948 . S
C80 C79 1.391 . S
C80 C81 1.391 . S
C81 C80 1.391 . S
C81 C82 1.392 . S
C81 H110 0.947 . S
C82 C81 1.392 . S
C82 C83 1.419 . S
C82 H111 0.948 . S
C83 C82 1.419 . S
C83 C84 1.391 . S
C83 C87 1.397 . S
C84 C79 1.391 . S
C84 C83 1.391 . S
C84 C85 1.399 . S
C85 C84 1.399 . S
C85 C86 1.396 . S
C85 C88 1.453 . S
C85 C89 1.684 . S
C86 C67 1.723 . S
C86 C85 1.396 . S
C86 C87 1.394 . S
C87 C83 1.397 . S
C87 C86 1.394 . S
C87 C97 1.723 . S
C88 C85 1.453 . S
C88 H112 0.982 . S
C88 H113 0.979 . S
C88 H114 0.977 . S
C89 C85 1.684 . S
C89 H115 0.979 . S
C89 H116 0.980 . S
C89 H117 0.983 . S
C90 H66 0.948 . S
C90 C91 1.391 . S
C90 C95 1.391 . S
C91 C90 1.391 . S
C91 C92 1.391 . S
C92 H69 0.947 . S
C92 C91 1.391 . S
C92 C93 1.392 . S
C93 H70 0.948 . S
C93 C92 1.392 . S
C93 C94 1.419 . S
C94 C93 1.419 . S
C94 C95 1.391 . S
C94 C98 1.397 . S
C95 C90 1.391 . S
C95 C94 1.391 . S
C95 C96 1.399 . S
C96 C95 1.399 . S
C96 C97 1.396 . S
C96 C99 1.453 . S
C96 C100 1.684 . S
C97 C87 1.723 . S
C97 C96 1.396 . S
C97 C98 1.394 . S
C98 C68 1.723 . S
C98 C94 1.397 . S
C98 C97 1.394 . S
C99 H71 0.982 . S
C99 H75 0.979 . S
C99 H76 0.977 . S
C99 C96 1.453 . S
C100 H72 0.979 . S
C100 H73 0.980 . S
C100 H74 0.983 . S
C100 C96 1.684 . S
H101 C119 0.948 . S
H102 C60 0.948 . S
H103 C78 0.979 . S
H104 C78 0.980 . S
H105 C78 0.983 . S
H106 C77 0.982 . S
H107 C77 0.979 . S
H108 C77 0.977 . S
H109 C79 0.948 . S
H110 C81 0.947 . S
H111 C82 0.948 . S
H112 C88 0.982 . S
H113 C88 0.979 . S
H114 C88 0.977 . S
H115 C89 0.979 . S
H116 C89 0.980 . S
H117 C89 0.983 . S
H118 C62 0.947 . S
C119 C62 1.392 . S
C119 C63 1.419 . S
C119 H101 0.948 . S
C120 C121 1.391 . S
C120 C124 1.391 . S
C120 H162 0.948 . S
C121 C120 1.391 . S
C121 C122 1.391 . S
C122 C121 1.391 . S
C122 H178 0.947 . S
C122 C179 1.392 . S
C123 C124 1.391 . S
C123 C127 1.397 . S
C123 C179 1.419 . S
C124 C120 1.391 . S
C124 C123 1.391 . S
C124 C125 1.399 . S
C125 C124 1.399 . S
C125 C128 1.396 . S
C125 C137 1.453 . S
C125 C138 1.684 . S
H126 C150 0.948 . S
C127 C123 1.397 . S
C127 C128 1.394 . S
C127 C146 1.723 . S
C128 C125 1.396 . S
C128 C127 1.394 . S
C128 C158 1.723 . S
H129 C152 0.947 . S
H130 C153 0.948 . S
H131 C159 0.982 . S
H132 C160 0.979 . S
H133 C160 0.980 . S
H134 C160 0.983 . S
H135 C159 0.979 . S
H136 C159 0.977 . S
C137 C125 1.453 . S
C137 H166 0.982 . S
C137 H167 0.979 . S
C137 H168 0.977 . S
C138 C125 1.684 . S
C138 H163 0.979 . S
C138 H164 0.980 . S
C138 H165 0.983 . S
C139 C140 1.391 . S
C139 C144 1.391 . S
C139 H169 0.948 . S
C140 C139 1.391 . S
C140 C141 1.391 . S
C141 C140 1.391 . S
C141 C142 1.392 . S
C141 H170 0.947 . S
C142 C141 1.392 . S
C142 C143 1.419 . S
C142 H171 0.948 . S
C143 C142 1.419 . S
C143 C144 1.391 . S
C143 C147 1.397 . S
C144 C139 1.391 . S
C144 C143 1.391 . S
C144 C145 1.399 . S
C145 C144 1.399 . S
C145 C146 1.396 . S
C145 C148 1.453 . S
C145 C149 1.684 . S
C146 C127 1.723 . S
C146 C145 1.396 . S
C146 C147 1.394 . S
C147 C143 1.397 . S
C147 C146 1.394 . S
C147 C157 1.723 . S
C148 C145 1.453 . S
C148 H172 0.982 . S
C148 H173 0.979 . S
C148 H174 0.977 . S
C149 C145 1.684 . S
C149 H175 0.979 . S
C149 H176 0.980 . S
C149 H177 0.983 . S
C150 H126 0.948 . S
C150 C151 1.391 . S
C150 C155 1.391 . S
C151 C150 1.391 . S
C151 C152 1.391 . S
C152 H129 0.947 . S
C152 C151 1.391 . S
C152 C153 1.392 . S
C153 H130 0.948 . S
C153 C152 1.392 . S
C153 C154 1.419 . S
C154 C153 1.419 . S
C154 C155 1.391 . S
C154 C158 1.397 . S
C155 C150 1.391 . S
C155 C154 1.391 . S
C155 C156 1.399 . S
C156 C155 1.399 . S
C156 C157 1.396 . S
C156 C159 1.453 . S
C156 C160 1.684 . S
C157 C147 1.723 . S
C157 C156 1.396 . S
C157 C158 1.394 . S
C158 C128 1.723 . S
C158 C154 1.397 . S
C158 C157 1.394 . S
C159 H131 0.982 . S
C159 H135 0.979 . S
C159 H136 0.977 . S
C159 C156 1.453 . S
C160 H132 0.979 . S
C160 H133 0.980 . S
C160 H134 0.983 . S
C160 C156 1.684 . S
H161 C179 0.948 . S
H162 C120 0.948 . S
H163 C138 0.979 . S
H164 C138 0.980 . S
H165 C138 0.983 . S
H166 C137 0.982 . S
H167 C137 0.979 . S
H168 C137 0.977 . S
H169 C139 0.948 . S
H170 C141 0.947 . S
H171 C142 0.948 . S
H172 C148 0.982 . S
H173 C148 0.979 . S
H174 C148 0.977 . S
H175 C149 0.979 . S
H176 C149 0.980 . S
H177 C149 0.983 . S
H178 C122 0.947 . S
C179 C122 1.392 . S
C179 C123 1.419 . S
C179 H161 0.948 . S
C180 C181 1.391 . S
C180 C184 1.391 . S
C180 H222 0.948 . S
C181 C180 1.391 . S
C181 C182 1.391 . S
C182 C181 1.391 . S
C182 H238 0.947 . S
C182 C239 1.392 . S
C183 C184 1.391 . S
C183 C187 1.397 . S
C183 C239 1.419 . S
C184 C180 1.391 . S
C184 C183 1.391 . S
C184 C185 1.399 . S
C185 C184 1.399 . S
C185 C188 1.396 . S
C185 C197 1.453 . S
C185 C198 1.684 . S
H186 C210 0.948 . S
C187 C183 1.397 . S
C187 C188 1.394 . S
C187 C206 1.723 . S
C188 C185 1.396 . S
C188 C187 1.394 . S
C188 C218 1.723 . S
H189 C212 0.947 . S
H190 C213 0.948 . S
H191 C219 0.982 . S
H192 C220 0.979 . S
H193 C220 0.980 . S
H194 C220 0.983 . S
H195 C219 0.979 . S
H196 C219 0.977 . S
C197 C185 1.453 . S
C197 H226 0.982 . S
C197 H227 0.979 . S
C197 H228 0.977 . S
C198 C185 1.684 . S
C198 H223 0.979 . S
C198 H224 0.980 . S
C198 H225 0.983 . S
C199 C200 1.391 . S
C199 C204 1.391 . S
C199 H229 0.948 . S
C200 C199 1.391 . S
C200 C201 1.391 . S
C201 C200 1.391 . S
C201 C202 1.392 . S
C201 H230 0.947 . S
C202 C201 1.392 . S
C202 C203 1.419 . S
C202 H231 0.948 . S
C203 C202 1.419 . S
C203 C204 1.391 . S
C203 C207 1.397 . S
C204 C199 1.391 . S
C204 C203 1.391 . S
C204 C205 1.399 . S
C205 C204 1.399 . S
C205 C206 1.396 . S
C205 C208 1.453 . S
C205 C209 1.684 . S
C206 C187 1.723 . S
C206 C205 1.396 . S
C206 C207 1.394 . S
C207 C203 1.397 . S
C207 C206 1.394 . S
C207 C217 1.723 . S
C208 C205 1.453 . S
C208 H232 0.982 . S
C208 H233 0.979 . S
C208 H234 0.977 . S
C209 C205 1.684 . S
C209 H235 0.979 . S
C209 H236 0.980 . S
C209 H237 0.983 . S
C210 H186 0.948 . S
C210 C211 1.391 . S
C210 C215 1.391 . S
C211 C210 1.391 . S
C211 C212 1.391 . S
C212 H189 0.947 . S
C212 C211 1.391 . S
C212 C213 1.392 . S
C213 H190 0.948 . S
C213 C212 1.392 . S
C213 C214 1.419 . S
C214 C213 1.419 . S
C214 C215 1.391 . S
C214 C218 1.397 . S
C215 C210 1.391 . S
C215 C214 1.391 . S
C215 C216 1.399 . S
C216 C215 1.399 . S
C216 C217 1.396 . S
C216 C219 1.453 . S
C216 C220 1.684 . S
C217 C207 1.723 . S
C217 C216 1.396 . S
C217 C218 1.394 . S
C218 C188 1.723 . S
C218 C214 1.397 . S
C218 C217 1.394 . S
C219 H191 0.982 . S
C219 H195 0.979 . S
C219 H196 0.977 . S
C219 C216 1.453 . S
C220 H192 0.979 . S
C220 H193 0.980 . S
C220 H194 0.983 . S
C220 C216 1.684 . S
H221 C239 0.948 . S
H222 C180 0.948 . S
H223 C198 0.979 . S
H224 C198 0.980 . S
H225 C198 0.983 . S
H226 C197 0.982 . S
H227 C197 0.979 . S
H228 C197 0.977 . S
H229 C199 0.948 . S
H230 C201 0.947 . S
H231 C202 0.948 . S
H232 C208 0.982 . S
H233 C208 0.979 . S
H234 C208 0.977 . S
H235 C209 0.979 . S
H236 C209 0.980 . S
H237 C209 0.983 . S
H238 C182 0.947 . S
C239 C182 1.392 . S
C239 C183 1.419 . S
C239 H221 0.948 . S
C240 C241 1.391 . S
C240 C244 1.391 . S
C240 H282 0.948 1_556 S
C241 C240 1.391 . S
C241 C242 1.391 1_655 S
C242 C241 1.391 1_455 S
C242 H298 0.947 . S
C242 C299 1.392 1_455 S
C243 C244 1.391 . S
C243 C247 1.397 . S
C243 C299 1.419 . S
C244 C240 1.391 . S
C244 C243 1.391 . S
C244 C245 1.399 . S
C245 C244 1.399 . S
C245 C248 1.396 . S
C245 C257 1.453 . S
C245 C258 1.684 1_556 S
H246 C270 0.948 1_545 S
C247 C243 1.397 . S
C247 C248 1.394 . S
C247 C266 1.723 . S
C248 C245 1.396 . S
C248 C247 1.394 . S
C248 C278 1.723 . S
H249 C272 0.947 . S
H250 C273 0.948 1_554 S
H251 C279 0.982 . S
H252 C280 0.979 . S
H253 C280 0.980 . S
H254 C280 0.983 . S
H255 C279 0.979 1_545 S
H256 C279 0.977 . S
C257 C245 1.453 . S
C257 H286 0.982 . S
C257 H287 0.979 1_556 S
C257 H288 0.977 . S
C258 C245 1.684 1_554 S
C258 H283 0.979 . S
C258 H284 0.980 . S
C258 H285 0.983 . S
C259 C260 1.391 . S
C259 C264 1.391 . S
C259 H289 0.948 1_655 S
C260 C259 1.391 . S
C260 C261 1.391 1_565 S
C261 C260 1.391 1_545 S
C261 C262 1.392 1_545 S
C261 H290 0.947 . S
C262 C261 1.392 1_565 S
C262 C263 1.419 . S
C262 H291 0.948 1_565 S
C263 C262 1.419 . S
C263 C264 1.391 . S
C263 C267 1.397 . S
C264 C259 1.391 . S
C264 C263 1.391 . S
C264 C265 1.399 . S
C265 C264 1.399 . S
C265 C266 1.396 . S
C265 C268 1.453 . S
C265 C269 1.684 1_655 S
C266 C247 1.723 . S
C266 C265 1.396 . S
C266 C267 1.394 . S
C267 C263 1.397 . S
C267 C266 1.394 . S
C267 C277 1.723 . S
C268 C265 1.453 . S
C268 H292 0.982 . S
C268 H293 1.004 . S
C268 H294 0.977 . S
C269 C265 1.684 1_455 S
C269 H295 0.979 . S
C269 H296 0.980 . S
C269 H297 0.983 . S
C270 H246 0.948 1_565 S
C270 C271 1.391 . S
C270 C275 1.391 . S
C271 C270 1.391 . S
C271 C272 1.391 1_556 S
C272 H249 0.947 . S
C272 C271 1.391 1_554 S
C272 C273 1.392 1_554 S
C273 H250 0.948 1_556 S
C273 C272 1.392 1_556 S
C273 C274 1.419 . S
C274 C273 1.419 . S
C274 C275 1.391 . S
C274 C278 1.397 . S
C275 C270 1.391 . S
C275 C274 1.391 . S
C275 C276 1.399 . S
C276 C275 1.399 . S
C276 C277 1.396 . S
C276 C279 1.453 . S
C276 C280 1.684 1_565 S
C277 C267 1.723 . S
C277 C276 1.396 . S
C277 C278 1.394 . S
C278 C248 1.723 . S
C278 C274 1.397 . S
C278 C277 1.394 . S
C279 H251 0.982 . S
C279 H255 0.979 1_565 S
C279 H256 0.977 . S
C279 C276 1.453 . S
C280 H252 0.979 . S
C280 H253 0.980 . S
C280 H254 0.983 . S
C280 C276 1.684 1_545 S
H281 C299 0.948 1_455 S
H282 C240 0.948 1_554 S
H283 C258 0.979 . S
H284 C258 0.980 . S
H285 C258 0.983 . S
H286 C257 0.982 . S
H287 C257 0.979 1_554 S
H288 C257 0.977 . S
H289 C259 0.948 1_455 S
H290 C261 0.947 . S
H291 C262 0.948 1_545 S
H292 C268 0.982 . S
H293 C268 1.004 . S
H294 C268 0.977 . S
H295 C269 0.979 . S
H296 C269 0.980 . S
H297 C269 0.983 . S
H298 C242 0.947 . S
C299 C242 1.392 1_655 S
C299 C243 1.419 . S
C299 H281 0.948 1_655 S
C300 C301 1.391 . S
C300 C304 1.391 . S
C300 H342 0.948 . S
C301 C300 1.391 . S
C301 C302 1.391 . S
C302 C301 1.391 . S
C302 H358 0.947 . S
C302 C359 1.392 . S
C303 C304 1.391 . S
C303 C307 1.397 . S
C303 C359 1.419 . S
C304 C300 1.391 . S
C304 C303 1.391 . S
C304 C305 1.399 . S
C305 C304 1.399 . S
C305 C308 1.396 . S
C305 C317 1.453 . S
C305 C318 1.684 . S
H306 C330 0.948 . S
C307 C303 1.397 . S
C307 C308 1.394 . S
C307 C326 1.723 . S
C308 C305 1.396 . S
C308 C307 1.394 . S
C308 C338 1.723 . S
H309 C332 0.947 . S
H310 C333 0.948 . S
H311 C339 0.982 . S
H312 C340 0.979 . S
H313 C340 0.980 . S
H314 C340 0.983 . S
H315 C339 0.979 . S
H316 C339 0.977 . S
C317 C305 1.453 . S
C317 H346 0.982 . S
C317 H347 0.979 . S
C317 H348 0.977 . S
C318 C305 1.684 . S
C318 H343 0.979 . S
C318 H344 0.980 . S
C318 H345 0.983 . S
C319 C320 1.391 . S
C319 C324 1.391 . S
C319 H349 0.948 . S
C320 C319 1.391 . S
C320 C321 1.391 . S
C321 C320 1.391 . S
C321 C322 1.392 . S
C321 H350 0.947 . S
C322 C321 1.392 . S
C322 C323 1.419 . S
C322 H351 0.948 . S
C323 C322 1.419 . S
C323 C324 1.391 . S
C323 C327 1.397 . S
C324 C319 1.391 . S
C324 C323 1.391 . S
C324 C325 1.399 . S
C325 C324 1.399 . S
C325 C326 1.396 . S
C325 C328 1.453 . S
C325 C329 1.684 . S
C326 C307 1.723 . S
C326 C325 1.396 . S
C326 C327 1.394 . S
C327 C323 1.397 . S
C327 C326 1.394 . S
C327 C337 1.723 . S
C328 C325 1.453 . S
C328 H352 0.982 . S
C328 H353 0.979 . S
C328 H354 0.977 . S
C329 C325 1.684 . S
C329 H355 0.979 . S
C329 H356 0.980 . S
C329 H357 0.983 . S
C330 H306 0.948 . S
C330 C331 1.391 . S
C330 C335 1.391 . S
C331 C330 1.391 . S
C331 C332 1.391 . S
C332 H309 0.947 . S
C332 C331 1.391 . S
C332 C333 1.392 . S
C333 H310 0.948 . S
C333 C332 1.392 . S
C333 C334 1.419 . S
C334 C333 1.419 . S
C334 C335 1.391 . S
C334 C338 1.397 . S
C335 C330 1.391 . S
C335 C334 1.391 . S
C335 C336 1.399 . S
C336 C335 1.399 . S
C336 C337 1.396 . S
C336 C339 1.453 . S
C336 C340 1.684 . S
C337 C327 1.723 . S
C337 C336 1.396 . S
C337 C338 1.394 . S
C338 C308 1.723 . S
C338 C334 1.397 . S
C338 C337 1.394 . S
C339 H311 0.982 . S
C339 H315 0.979 . S
C339 H316 0.977 . S
C339 C336 1.453 . S
C340 H312 0.979 . S
C340 H313 0.980 . S
C340 H314 0.983 . S
C340 C336 1.684 . S
H341 C359 0.948 . S
H342 C300 0.948 . S
H343 C318 0.979 . S
H344 C318 0.980 . S
H345 C318 0.983 . S
H346 C317 0.982 . S
H347 C317 0.979 . S
H348 C317 0.977 . S
H349 C319 0.948 . S
H350 C321 0.947 . S
H351 C322 0.948 . S
H352 C328 0.982 . S
H353 C328 0.979 . S
H354 C328 0.977 . S
H355 C329 0.979 . S
H356 C329 0.980 . S
H357 C329 0.983 . S
H358 C302 0.947 . S
C359 C302 1.392 . S
C359 C303 1.419 . S
C359 H341 0.948 . S
C360 C361 1.391 . S
C360 C364 1.391 . S
C360 H402 0.948 . S
C361 C360 1.391 . S
C361 C362 1.391 . S
C362 C361 1.391 . S
C362 H418 0.947 . S
C362 C419 1.392 . S
C363 C364 1.391 . S
C363 C367 1.397 . S
C363 C419 1.419 . S
C364 C360 1.391 . S
C364 C363 1.391 . S
C364 C365 1.399 . S
C365 C364 1.399 . S
C365 C368 1.396 . S
C365 C377 1.453 . S
C365 C378 1.684 . S
H366 C390 0.948 . S
C367 C363 1.397 . S
C367 C368 1.394 . S
C367 C386 1.723 . S
C368 C365 1.396 . S
C368 C367 1.394 . S
C368 C398 1.723 . S
H369 C392 0.947 . S
H370 C393 0.948 . S
H371 C399 0.982 . S
H372 C400 0.979 . S
H373 C400 0.980 . S
H374 C400 0.983 . S
H375 C399 0.979 . S
H376 C399 0.977 . S
C377 C365 1.453 . S
C377 H406 0.982 . S
C377 H407 0.979 . S
C377 H408 0.977 . S
C378 C365 1.684 . S
C378 H403 0.979 . S
C378 H404 0.980 . S
C378 H405 0.983 . S
C379 C380 1.391 . S
C379 C384 1.391 . S
C379 H409 0.948 . S
C380 C379 1.391 . S
C380 C381 1.391 . S
C381 C380 1.391 . S
C381 C382 1.392 . S
C381 H410 0.947 . S
C382 C381 1.392 . S
C382 C383 1.419 . S
C382 H411 0.948 . S
C383 C382 1.419 . S
C383 C384 1.391 . S
C383 C387 1.397 . S
C384 C379 1.391 . S
C384 C383 1.391 . S
C384 C385 1.399 . S
C385 C384 1.399 . S
C385 C386 1.396 . S
C385 C388 1.453 . S
C385 C389 1.684 . S
C386 C367 1.723 . S
C386 C385 1.396 . S
C386 C387 1.394 . S
C387 C383 1.397 . S
C387 C386 1.394 . S
C387 C397 1.723 . S
C388 C385 1.453 . S
C388 H412 0.982 . S
C388 H413 0.979 . S
C388 H414 0.977 . S
C389 C385 1.684 . S
C389 H415 0.979 . S
C389 H416 0.980 . S
C389 H417 0.983 . S
C390 H366 0.948 . S
C390 C391 1.391 . S
C390 C395 1.391 . S
C391 C390 1.391 . S
C391 C392 1.391 . S
C392 H369 0.947 . S
C392 C391 1.391 . S
C392 C393 1.392 . S
C393 H370 0.948 . S
C393 C392 1.392 . S
C393 C394 1.419 . S
C394 C393 1.419 . S
C394 C395 1.391 . S
C394 C398 1.397 . S
C395 C390 1.391 . S
C395 C394 1.391 . S
C395 C396 1.399 . S
C396 C395 1.399 . S
C396 C397 1.396 . S
C396 C399 1.453 . S
C396 C400 1.684 . S
C397 C387 1.723 . S
C397 C396 1.396 . S
C397 C398 1.394 . S
C398 C368 1.723 . S
C398 C394 1.397 . S
C398 C397 1.394 . S
C399 H371 0.982 . S
C399 H375 0.979 . S
C399 H376 0.977 . S
C399 C396 1.453 . S
C400 H372 0.979 . S
C400 H373 0.980 . S
C400 H374 0.983 . S
C400 C396 1.684 . S
H401 C419 0.948 . S
H402 C360 0.948 . S
H403 C378 0.979 . S
H404 C378 0.980 . S
H405 C378 0.983 . S
H406 C377 0.982 . S
H407 C377 0.979 . S
H408 C377 0.977 . S
H409 C379 0.948 . S
H410 C381 0.947 . S
H411 C382 0.948 . S
H412 C388 0.982 . S
H413 C388 0.979 . S
H414 C388 0.977 . S
H415 C389 0.979 . S
H416 C389 0.980 . S
H417 C389 0.983 . S
H418 C362 0.947 . S
C419 C362 1.392 . S
C419 C363 1.419 . S
C419 H401 0.948 . S
C420 C421 1.391 . S
C420 C424 1.391 . S
C420 H462 0.948 . S
C421 C420 1.391 . S
C421 C422 1.391 . S
C422 C421 1.391 . S
C422 H478 0.947 . S
C422 C479 1.392 . S
C423 C424 1.391 . S
C423 C427 1.397 . S
C423 C479 1.419 . S
C424 C420 1.391 . S
C424 C423 1.391 . S
C424 C425 1.399 . S
C425 C424 1.399 . S
C425 C428 1.396 . S
C425 C437 1.453 . S
C425 C438 1.684 . S
H426 C450 0.948 . S
C427 C423 1.397 . S
C427 C428 1.394 . S
C427 C446 1.723 . S
C428 C425 1.396 . S
C428 C427 1.394 . S
C428 C458 1.723 . S
H429 C452 0.947 . S
H430 C453 0.948 . S
H431 C459 0.982 . S
H432 C460 0.979 . S
H433 C460 0.980 . S
H434 C460 0.983 . S
H435 C459 0.979 . S
H436 C459 0.977 . S
C437 C425 1.453 . S
C437 H466 0.982 . S
C437 H467 0.979 . S
C437 H468 0.977 . S
C438 C425 1.684 . S
C438 H463 0.979 . S
C438 H464 0.980 . S
C438 H465 0.983 . S
C439 C440 1.391 . S
C439 C444 1.391 . S
C439 H469 0.948 . S
C440 C439 1.391 . S
C440 C441 1.391 . S
C441 C440 1.391 . S
C441 C442 1.392 . S
C441 H470 0.947 . S
C442 C441 1.392 . S
C442 C443 1.419 . S
C442 H471 0.948 . S
C443 C442 1.419 . S
C443 C444 1.391 . S
C443 C447 1.397 . S
C444 C439 1.391 . S
C444 C443 1.391 . S
C444 C445 1.399 . S
C445 C444 1.399 . S
C445 C446 1.396 . S
C445 C448 1.453 . S
C445 C449 1.684 . S
C446 C427 1.723 . S
C446 C445 1.396 . S
C446 C447 1.394 . S
C447 C443 1.397 . S
C447 C446 1.394 . S
C447 C457 1.723 . S
C448 C445 1.453 . S
C448 H472 0.982 . S
C448 H473 0.979 . S
C448 H474 0.977 . S
C449 C445 1.684 . S
C449 H475 0.979 . S
C449 H476 0.980 . S
C449 H477 0.983 . S
C450 H426 0.948 . S
C450 C451 1.391 . S
C450 C455 1.391 . S
C451 C450 1.391 . S
C451 C452 1.391 . S
C452 H429 0.947 . S
C452 C451 1.391 . S
C452 C453 1.392 . S
C453 H430 0.948 . S
C453 C452 1.392 . S
C453 C454 1.419 . S
C454 C453 1.419 . S
C454 C455 1.391 . S
C454 C458 1.397 . S
C455 C450 1.391 . S
C455 C454 1.391 . S
C455 C456 1.399 . S
C456 C455 1.399 . S
C456 C457 1.396 . S
C456 C459 1.453 . S
C456 C460 1.684 . S
C457 C447 1.723 . S
C457 C456 1.396 . S
C457 C458 1.394 . S
C458 C428 1.723 . S
C458 C454 1.397 . S
C458 C457 1.394 . S
C459 H431 0.982 . S
C459 H435 0.979 . S
C459 H436 0.977 . S
C459 C456 1.453 . S
C460 H432 0.979 . S
C460 H433 0.980 . S
C460 H434 0.983 . S
C460 C456 1.684 . S
H461 C479 0.948 . S
H462 C420 0.948 . S
H463 C438 0.979 . S
H464 C438 0.980 . S
H465 C438 0.983 . S
H466 C437 0.982 . S
H467 C437 0.979 . S
H468 C437 0.977 . S
H469 C439 0.948 . S
H470 C441 0.947 . S
H471 C442 0.948 . S
H472 C448 0.982 . S
H473 C448 0.979 . S
H474 C448 0.977 . S
H475 C449 0.979 . S
H476 C449 0.980 . S
H477 C449 0.983 . S
H478 C422 0.947 . S
C479 C422 1.392 . S
C479 C423 1.419 . S
C479 H461 0.948 . S
Zn480 O486 1.920 . S
Zn480 O492 1.898 . S
Zn480 O495 1.905 . S
Zn481 O489 1.905 1_565 S
Zn481 O490 1.898 . S
Zn481 O498 1.920 . S
Zn482 O485 2.080 1_455 S
Zn482 O488 2.114 . S
Zn482 O491 2.120 1_445 S
Zn482 O493 2.120 . S
Zn482 O494 2.114 1_455 S
Zn482 O497 2.080 . S
C483 O488 1.166 . S
C483 O489 1.182 . S
C484 O490 1.167 1_655 S
C484 O491 1.299 . S
O485 Zn482 2.080 1_655 S
O485 C499 1.305 . S
O486 Zn480 1.920 . S
O486 C499 1.234 . S
C487 O492 1.167 1_455 S
C487 O493 1.299 . S
O488 Zn482 2.114 . S
O488 C483 1.166 . S
O489 Zn481 1.905 1_545 S
O489 C483 1.182 . S
O490 Zn481 1.898 . S
O490 C484 1.167 1_455 S
O491 Zn482 2.120 1_665 S
O491 C484 1.299 . S
O492 Zn480 1.898 . S
O492 C487 1.167 1_655 S
O493 Zn482 2.120 . S
O493 C487 1.299 . S
O494 Zn482 2.114 1_655 S
O494 C496 1.166 . S
O495 Zn480 1.905 . S
O495 C496 1.182 . S
C496 O494 1.166 . S
C496 O495 1.182 . S
O497 Zn482 2.080 . S
O497 C500 1.305 1_545 S
O498 Zn481 1.920 . S
O498 C500 1.234 . S
C499 O485 1.305 . S
C499 O486 1.234 . S
C500 O497 1.305 1_565 S
C500 O498 1.234 . S
Zn501 O507 1.920 1_556 S
Zn501 O513 1.898 . S
Zn501 O516 1.905 . S
Zn502 O510 1.905 . S
Zn502 O511 1.898 . S
Zn502 O519 1.920 . S
Zn503 O506 2.080 . S
Zn503 O509 2.114 1_545 S
Zn503 O512 2.120 1_545 S
Zn503 O514 2.120 . S
Zn503 O515 2.114 1_544 S
Zn503 O518 2.080 . S
C504 O509 1.166 . S
C504 O510 1.182 . S
C505 O511 1.167 . S
C505 O512 1.299 . S
O506 Zn503 2.080 . S
O506 C520 1.305 . S
O507 Zn501 1.920 1_554 S
O507 C520 1.234 . S
C508 O513 1.167 . S
C508 O514 1.299 1_556 S
O509 Zn503 2.114 1_565 S
O509 C504 1.166 . S
O510 Zn502 1.905 . S
O510 C504 1.182 . S
O511 Zn502 1.898 . S
O511 C505 1.167 . S
O512 Zn503 2.120 1_565 S
O512 C505 1.299 . S
O513 Zn501 1.898 . S
O513 C508 1.167 . S
O514 Zn503 2.120 . S
O514 C508 1.299 1_554 S
O515 Zn503 2.114 1_566 S
O515 C517 1.166 . S
O516 Zn501 1.905 . S
O516 C517 1.182 1_545 S
C517 O515 1.166 . S
C517 O516 1.182 1_565 S
O518 Zn503 2.080 . S
O518 C521 1.305 . S
O519 Zn502 1.920 . S
O519 C521 1.234 1_565 S
C520 O506 1.305 . S
C520 O507 1.234 . S
C521 O518 1.305 . S
C521 O519 1.234 1_545 S
Zn522 O528 1.920 . S
Zn522 O534 1.898 . S
Zn522 O537 1.905 . S
Zn523 O531 1.905 . S
Zn523 O532 1.898 . S
Zn523 O540 1.920 . S
Zn524 O527 2.080 . S
Zn524 O530 2.114 . S
Zn524 O533 2.120 . S
Zn524 O535 2.120 . S
Zn524 O536 2.114 . S
Zn524 O539 2.080 . S
C525 O530 1.166 . S
C525 O531 1.182 . S
C526 O532 1.167 . S
C526 O533 1.299 . S
O527 Zn524 2.080 . S
O527 C541 1.305 . S
O528 Zn522 1.920 . S
O528 C541 1.234 . S
C529 O534 1.167 . S
C529 O535 1.299 . S
O530 Zn524 2.114 . S
O530 C525 1.166 . S
O531 Zn523 1.905 . S
O531 C525 1.182 . S
O532 Zn523 1.898 . S
O532 C526 1.167 . S
O533 Zn524 2.120 . S
O533 C526 1.299 . S
O534 Zn522 1.898 . S
O534 C529 1.167 . S
O535 Zn524 2.120 . S
O535 C529 1.299 . S
O536 Zn524 2.114 . S
O536 C538 1.166 . S
O537 Zn522 1.905 . S
O537 C538 1.182 . S
C538 O536 1.166 . S
C538 O537 1.182 . S
O539 Zn524 2.080 . S
O539 C542 1.305 . S
O540 Zn523 1.920 . S
O540 C542 1.234 . S
C541 O527 1.305 . S
C541 O528 1.234 . S
C542 O539 1.305 . S
C542 O540 1.234 . S
Zn543 O549 1.920 . S
Zn543 O555 1.898 . S
Zn543 O558 1.905 . S
Zn544 O552 1.905 1_655 S
Zn544 O553 1.898 . S
Zn544 O561 1.920 . S
Zn545 O548 2.080 1_554 S
Zn545 O551 2.114 . S
Zn545 O554 2.120 1_454 S
Zn545 O556 2.120 . S
Zn545 O557 2.114 1_554 S
Zn545 O560 2.080 . S
C546 O551 1.166 . S
C546 O552 1.182 . S
C547 O553 1.167 1_556 S
C547 O554 1.299 . S
O548 Zn545 2.080 1_556 S
O548 C562 1.305 . S
O549 Zn543 1.920 . S
O549 C562 1.234 . S
C550 O555 1.167 1_554 S
C550 O556 1.299 . S
O551 Zn545 2.114 . S
O551 C546 1.166 . S
O552 Zn544 1.905 1_455 S
O552 C546 1.182 . S
O553 Zn544 1.898 . S
O553 C547 1.167 1_554 S
O554 Zn545 2.120 1_656 S
O554 C547 1.299 . S
O555 Zn543 1.898 . S
O555 C550 1.167 1_556 S
O556 Zn545 2.120 . S
O556 C550 1.299 . S
O557 Zn545 2.114 1_556 S
O557 C559 1.166 . S
O558 Zn543 1.905 . S
O558 C559 1.182 . S
C559 O557 1.166 . S
C559 O558 1.182 . S
O560 Zn545 2.080 . S
O560 C563 1.305 1_455 S
O561 Zn544 1.920 . S
O561 C563 1.234 . S
C562 O548 1.305 . S
C562 O549 1.234 . S
C563 O560 1.305 1_655 S
C563 O561 1.234 . S
C564 C565 1.391 . S
C564 C566 1.394 . S
C564 H580 0.931 . S
C565 C564 1.391 . S
C565 C569 1.376 . S
C566 C564 1.394 . S
C566 C567 1.369 . S
C566 C570 1.531 . S
C567 C566 1.369 . S
C567 C568 1.410 . S
C567 C575 1.503 . S
C568 C567 1.410 . S
C568 C569 1.392 . S
C568 C571 1.511 . S
C569 C565 1.376 . S
C569 C568 1.392 . S
C569 H581 0.929 . S
C570 C566 1.531 . S
C570 H582 0.960 . S
C570 H583 0.962 . S
C570 H584 0.960 . S
C571 C568 1.511 . S
C571 H585 0.961 . S
C571 H586 0.961 . S
C571 H587 0.961 . S
C572 C573 1.370 . S
C572 C574 1.363 . S
C572 H588 0.931 . S
C573 C572 1.370 . S
C573 C577 1.408 . S
C574 C572 1.363 . S
C574 C575 1.370 . S
C574 C578 1.524 . S
C575 C567 1.503 . S
C575 C574 1.370 . S
C575 C576 1.403 . S
C576 C575 1.403 . S
C576 C577 1.404 . S
C576 C579 1.539 . S
C577 C573 1.408 . S
C577 C576 1.404 . S
C577 H589 0.930 . S
C578 C574 1.524 . S
C578 H590 0.956 . S
C578 H591 0.961 . S
C578 H592 0.961 . S
C579 C576 1.539 . S
C579 H593 0.958 . S
C579 H594 0.961 . S
C579 H595 0.960 . S
H580 C564 0.931 . S
H581 C569 0.929 . S
H582 C570 0.960 . S
H583 C570 0.962 . S
H584 C570 0.960 . S
H585 C571 0.961 . S
H586 C571 0.961 . S
H587 C571 0.961 . S
H588 C572 0.931 . S
H589 C577 0.930 . S
H590 C578 0.956 . S
H591 C578 0.961 . S
H592 C578 0.961 . S
H593 C579 0.958 . S
H594 C579 0.961 . S
H595 C579 0.960 . S
C596 C597 1.391 . S
C596 C598 1.394 . S
C596 H612 0.931 . S
C597 C596 1.391 . S
C597 C601 1.376 . S
C598 C596 1.394 . S
C598 C599 1.369 . S
C598 C602 1.531 . S
C599 C598 1.369 . S
C599 C600 1.410 . S
C599 C607 1.503 . S
C600 C599 1.410 . S
C600 C601 1.392 . S
C600 C603 1.511 . S
C601 C597 1.376 . S
C601 C600 1.392 . S
C601 H613 0.929 . S
C602 C598 1.531 . S
C602 H614 0.960 . S
C602 H615 0.962 . S
C602 H616 0.960 . S
C603 C600 1.511 . S
C603 H617 0.961 . S
C603 H618 0.961 . S
C603 H619 0.961 . S
C604 C605 1.370 . S
C604 C606 1.363 . S
C604 H620 0.931 . S
C605 C604 1.370 . S
C605 C609 1.408 . S
C606 C604 1.363 . S
C606 C607 1.370 . S
C606 C610 1.524 . S
C607 C599 1.503 . S
C607 C606 1.370 . S
C607 C608 1.403 . S
C608 C607 1.403 . S
C608 C609 1.404 . S
C608 C611 1.539 1_565 S
C609 C605 1.408 . S
C609 C608 1.404 . S
C609 H621 0.930 1_565 S
C610 C606 1.524 . S
C610 H622 0.956 . S
C610 H623 0.961 . S
C610 H624 0.961 . S
C611 C608 1.539 1_545 S
C611 H625 0.958 . S
C611 H626 0.961 . S
C611 H627 0.960 1_545 S
H612 C596 0.931 . S
H613 C601 0.929 . S
H614 C602 0.960 . S
H615 C602 0.962 . S
H616 C602 0.960 . S
H617 C603 0.961 . S
H618 C603 0.961 . S
H619 C603 0.961 . S
H620 C604 0.931 . S
H621 C609 0.930 1_545 S
H622 C610 0.956 . S
H623 C610 0.961 . S
H624 C610 0.961 . S
H625 C611 0.958 . S
H626 C611 0.961 . S
H627 C611 0.960 1_565 S
C628 C629 1.391 . S
C628 C630 1.394 . S
C628 H644 0.931 . S
C629 C628 1.391 . S
C629 C633 1.376 . S
C630 C628 1.394 . S
C630 C631 1.369 . S
C630 C634 1.531 . S
C631 C630 1.369 . S
C631 C632 1.410 . S
C631 C639 1.503 . S
C632 C631 1.410 . S
C632 C633 1.392 . S
C632 C635 1.511 . S
C633 C629 1.376 . S
C633 C632 1.392 . S
C633 H645 0.929 . S
C634 C630 1.531 . S
C634 H646 0.960 . S
C634 H647 0.962 . S
C634 H648 0.960 . S
C635 C632 1.511 . S
C635 H649 0.961 . S
C635 H650 0.961 . S
C635 H651 0.961 . S
C636 C637 1.370 . S
C636 C638 1.363 . S
C636 H652 0.931 . S
C637 C636 1.370 . S
C637 C641 1.408 . S
C638 C636 1.363 . S
C638 C639 1.370 . S
C638 C642 1.524 . S
C639 C631 1.503 . S
C639 C638 1.370 . S
C639 C640 1.403 . S
C640 C639 1.403 . S
C640 C641 1.404 . S
C640 C643 1.539 . S
C641 C637 1.408 . S
C641 C640 1.404 . S
C641 H653 0.930 . S
C642 C638 1.524 . S
C642 H654 0.956 . S
C642 H655 0.961 . S
C642 H656 0.961 . S
C643 C640 1.539 . S
C643 H657 0.958 . S
C643 H658 0.961 . S
C643 H659 0.960 . S
H644 C628 0.931 . S
H645 C633 0.929 . S
H646 C634 0.960 . S
H647 C634 0.962 . S
H648 C634 0.960 . S
H649 C635 0.961 . S
H650 C635 0.961 . S
H651 C635 0.961 . S
H652 C636 0.931 . S
H653 C641 0.930 . S
H654 C642 0.956 . S
H655 C642 0.961 . S
H656 C642 0.961 . S
H657 C643 0.958 . S
H658 C643 0.961 . S
H659 C643 0.960 . S
C660 C661 1.391 . S
C660 C662 1.394 . S
C660 H676 0.931 . S
C661 C660 1.391 . S
C661 C665 1.376 . S
C662 C660 1.394 . S
C662 C663 1.369 . S
C662 C666 1.531 . S
C663 C662 1.369 . S
C663 C664 1.410 . S
C663 C671 1.503 . S
C664 C663 1.410 . S
C664 C665 1.392 . S
C664 C667 1.511 . S
C665 C661 1.376 . S
C665 C664 1.392 . S
C665 H677 0.929 . S
C666 C662 1.531 . S
C666 H678 0.960 . S
C666 H679 0.962 . S
C666 H680 0.960 . S
C667 C664 1.511 . S
C667 H681 0.961 1_655 S
C667 H682 0.962 1_655 S
C667 H683 0.961 1_655 S
C668 C669 1.370 . S
C668 C670 1.363 . S
C668 H684 0.931 . S
C669 C668 1.370 . S
C669 C673 1.408 . S
C670 C668 1.363 . S
C670 C671 1.370 . S
C670 C674 1.524 . S
C671 C663 1.503 . S
C671 C670 1.370 . S
C671 C672 1.403 . S
C672 C671 1.403 . S
C672 C673 1.404 . S
C672 C675 1.539 . S
C673 C669 1.408 . S
C673 C672 1.404 . S
C673 H685 0.930 . S
C674 C670 1.524 . S
C674 H686 0.956 . S
C674 H687 0.961 . S
C674 H688 0.961 . S
C675 C672 1.539 . S
C675 H689 0.958 . S
C675 H690 0.961 . S
C675 H691 0.960 . S
H676 C660 0.931 . S
H677 C665 0.929 . S
H678 C666 0.960 . S
H679 C666 0.962 . S
H680 C666 0.960 . S
H681 C667 0.961 1_455 S
H682 C667 0.962 1_455 S
H683 C667 0.961 1_455 S
H684 C668 0.931 . S
H685 C673 0.930 . S
H686 C674 0.956 . S
H687 C674 0.961 . S
H688 C674 0.961 . S
H689 C675 0.958 . S
H690 C675 0.961 . S
H691 C675 0.960 . S
C692 C693 1.391 . S
C692 C694 1.394 . S
C692 H708 0.931 . S
C693 C692 1.391 . S
C693 C697 1.376 . S
C694 C692 1.394 . S
C694 C695 1.369 . S
C694 C698 1.531 . S
C695 C694 1.369 . S
C695 C696 1.410 . S
C695 C703 1.503 . S
C696 C695 1.410 . S
C696 C697 1.392 . S
C696 C699 1.511 . S
C697 C693 1.376 . S
C697 C696 1.392 . S
C697 H709 0.929 . S
C698 C694 1.531 . S
C698 H710 0.960 . S
C698 H711 0.962 . S
C698 H712 0.960 . S
C699 C696 1.511 . S
C699 H713 0.961 . S
C699 H714 0.961 . S
C699 H715 0.961 . S
C700 C701 1.370 . S
C700 C702 1.363 . S
C700 H716 0.931 . S
C701 C700 1.370 . S
C701 C705 1.408 . S
C702 C700 1.363 . S
C702 C703 1.370 . S
C702 C706 1.524 . S
C703 C695 1.503 . S
C703 C702 1.370 . S
C703 C704 1.403 . S
C704 C703 1.403 . S
C704 C705 1.404 . S
C704 C707 1.539 . S
C705 C701 1.408 . S
C705 C704 1.404 . S
C705 H717 0.930 . S
C706 C702 1.524 . S
C706 H718 0.956 . S
C706 H719 0.961 . S
C706 H720 0.961 . S
C707 C704 1.539 . S
C707 H721 0.958 . S
C707 H722 0.961 . S
C707 H723 0.960 . S
H708 C692 0.931 . S
H709 C697 0.929 . S
H710 C698 0.960 . S
H711 C698 0.962 . S
H712 C698 0.960 . S
H713 C699 0.961 . S
H714 C699 0.961 . S
H715 C699 0.961 . S
H716 C700 0.931 . S
H717 C705 0.930 . S
H718 C706 0.956 . S
H719 C706 0.961 . S
H720 C706 0.961 . S
H721 C707 0.958 . S
H722 C707 0.961 . S
H723 C707 0.960 . S
C724 C725 1.391 . S
C724 C726 1.394 . S
C724 H740 0.931 . S
C725 C724 1.391 . S
C725 C729 1.376 . S
C726 C724 1.394 . S
C726 C727 1.369 . S
C726 C730 1.531 . S
C727 C726 1.369 . S
C727 C728 1.410 . S
C727 C735 1.503 . S
C728 C727 1.410 . S
C728 C729 1.392 . S
C728 C731 1.511 . S
C729 C725 1.376 . S
C729 C728 1.392 . S
C729 H741 0.929 . S
C730 C726 1.531 . S
C730 H742 0.960 . S
C730 H743 0.962 . S
C730 H744 0.960 . S
C731 C728 1.511 . S
C731 H745 0.961 . S
C731 H746 0.961 . S
C731 H747 0.961 . S
C732 C733 1.370 . S
C732 C734 1.363 . S
C732 H748 0.931 1_565 S
C733 C732 1.370 . S
C733 C737 1.408 . S
C734 C732 1.363 . S
C734 C735 1.370 . S
C734 C738 1.529 . S
C735 C727 1.503 . S
C735 C734 1.370 . S
C735 C736 1.403 . S
C736 C735 1.403 . S
C736 C737 1.404 . S
C736 C739 1.539 . S
C737 C733 1.408 . S
C737 C736 1.404 . S
C737 H749 0.930 . S
C738 C734 1.529 . S
C738 H750 0.955 1_565 S
C738 H751 0.966 . S
C738 H752 0.953 1_565 S
C739 C736 1.539 . S
C739 H753 0.958 . S
C739 H754 0.961 . S
C739 H755 0.960 . S
H740 C724 0.931 . S
H741 C729 0.929 . S
H742 C730 0.960 . S
H743 C730 0.962 . S
H744 C730 0.960 . S
H745 C731 0.961 . S
H746 C731 0.961 . S
H747 C731 0.961 . S
H748 C732 0.931 1_545 S
H749 C737 0.930 . S
H750 C738 0.955 1_545 S
H751 C738 0.966 . S
H752 C738 0.953 1_545 S
H753 C739 0.958 . S
H754 C739 0.961 . S
H755 C739 0.960 . S
C756 C757 1.391 . S
C756 C758 1.394 . S
C756 H772 0.931 . S
C757 C756 1.391 . S
C757 C761 1.376 . S
C758 C756 1.394 . S
C758 C759 1.369 . S
C758 C762 1.531 . S
C759 C758 1.369 . S
C759 C760 1.410 . S
C759 C767 1.503 . S
C760 C759 1.410 . S
C760 C761 1.392 . S
C760 C763 1.511 . S
C761 C757 1.376 . S
C761 C760 1.392 . S
C761 H773 0.929 . S
C762 C758 1.531 . S
C762 H774 0.960 . S
C762 H775 0.962 . S
C762 H776 0.960 . S
C763 C760 1.511 . S
C763 H777 0.961 . S
C763 H778 0.961 . S
C763 H779 0.961 . S
C764 C765 1.370 . S
C764 C766 1.363 . S
C764 H780 0.931 . S
C765 C764 1.370 . S
C765 C769 1.408 . S
C766 C764 1.363 . S
C766 C767 1.370 . S
C766 C770 1.524 . S
C767 C759 1.503 . S
C767 C766 1.370 . S
C767 C768 1.403 . S
C768 C767 1.403 . S
C768 C769 1.404 . S
C768 C771 1.539 . S
C769 C765 1.408 . S
C769 C768 1.404 . S
C769 H781 0.930 1_556 S
C770 C766 1.524 . S
C770 H782 0.956 . S
C770 H783 0.961 . S
C770 H784 0.961 . S
C771 C768 1.539 . S
C771 H785 0.958 . S
C771 H786 0.961 1_556 S
C771 H787 0.960 . S
H772 C756 0.931 . S
H773 C761 0.929 . S
H774 C762 0.960 . S
H775 C762 0.962 . S
H776 C762 0.960 . S
H777 C763 0.961 . S
H778 C763 0.961 . S
H779 C763 0.961 . S
H780 C764 0.931 . S
H781 C769 0.930 1_554 S
H782 C770 0.956 . S
H783 C770 0.961 . S
H784 C770 0.961 . S
H785 C771 0.958 . S
H786 C771 0.961 1_554 S
H787 C771 0.960 . S
C788 C789 1.391 . S
C788 C790 1.394 . S
C788 H804 0.931 . S
C789 C788 1.391 . S
C789 C793 1.376 . S
C790 C788 1.394 . S
C790 C791 1.369 . S
C790 C794 1.531 . S
C791 C790 1.369 . S
C791 C792 1.410 . S
C791 C799 1.503 . S
C792 C791 1.410 . S
C792 C793 1.392 . S
C792 C795 1.511 . S
C793 C789 1.376 . S
C793 C792 1.392 . S
C793 H805 0.929 . S
C794 C790 1.531 . S
C794 H806 0.960 . S
C794 H807 0.962 . S
C794 H808 0.960 . S
C795 C792 1.511 . S
C795 H809 0.961 . S
C795 H810 0.961 . S
C795 H811 0.961 . S
C796 C797 1.370 . S
C796 C798 1.363 . S
C796 H812 0.931 . S
C797 C796 1.370 . S
C797 C801 1.408 . S
C798 C796 1.363 . S
C798 C799 1.370 . S
C798 C802 1.524 . S
C799 C791 1.503 . S
C799 C798 1.370 . S
C799 C800 1.403 . S
C800 C799 1.403 . S
C800 C801 1.404 . S
C800 C803 1.539 . S
C801 C797 1.408 . S
C801 C800 1.404 . S
C801 H813 0.930 . S
C802 C798 1.524 . S
C802 H814 0.956 . S
C802 H815 0.961 . S
C802 H816 0.961 . S
C803 C800 1.539 . S
C803 H817 0.958 . S
C803 H818 0.961 . S
C803 H819 0.960 . S
H804 C788 0.931 . S
H805 C793 0.929 . S
H806 C794 0.960 . S
H807 C794 0.962 . S
H808 C794 0.960 . S
H809 C795 0.961 . S
H810 C795 0.961 . S
H811 C795 0.961 . S
H812 C796 0.931 . S
H813 C801 0.930 . S
H814 C802 0.956 . S
H815 C802 0.961 . S
H816 C802 0.961 . S
H817 C803 0.958 . S
H818 C803 0.961 . S
H819 C803 0.960 . S
C820 C821 1.391 . S
C820 C822 1.394 . S
C820 H836 0.931 . S
C821 C820 1.391 . S
C821 C825 1.376 . S
C822 C820 1.394 . S
C822 C823 1.369 . S
C822 C826 1.531 . S
C823 C822 1.369 . S
C823 C824 1.410 . S
C823 C831 1.503 . S
C824 C823 1.410 . S
C824 C825 1.392 . S
C824 C827 1.511 . S
C825 C821 1.376 . S
C825 C824 1.392 . S
C825 H837 0.929 . S
C826 C822 1.531 . S
C826 H838 0.960 . S
C826 H839 0.962 . S
C826 H840 0.960 . S
C827 C824 1.511 . S
C827 H841 0.961 . S
C827 H842 0.961 . S
C827 H843 0.961 . S
C828 C829 1.370 . S
C828 C830 1.363 . S
C828 H844 0.931 . S
C829 C828 1.370 . S
C829 C833 1.408 . S
C830 C828 1.363 . S
C830 C831 1.370 . S
C830 C834 1.524 . S
C831 C823 1.503 . S
C831 C830 1.370 . S
C831 C832 1.403 . S
C832 C831 1.403 . S
C832 C833 1.404 . S
C832 C835 1.539 . S
C833 C829 1.408 . S
C833 C832 1.404 . S
C833 H845 0.930 . S
C834 C830 1.524 . S
C834 H846 0.956 . S
C834 H847 0.961 . S
C834 H848 0.961 . S
C835 C832 1.539 . S
C835 H849 0.958 . S
C835 H850 0.961 . S
C835 H851 0.960 . S
H836 C820 0.931 . S
H837 C825 0.929 . S
H838 C826 0.960 . S
H839 C826 0.962 . S
H840 C826 0.960 . S
H841 C827 0.961 . S
H842 C827 0.961 . S
H843 C827 0.961 . S
H844 C828 0.931 . S
H845 C833 0.930 . S
H846 C834 0.956 . S
H847 C834 0.961 . S
H848 C834 0.961 . S
H849 C835 0.958 . S
H850 C835 0.961 . S
H851 C835 0.960 . S
C852 C853 1.391 . S
C852 C854 1.394 . S
C852 H868 0.931 . S
C853 C852 1.391 . S
C853 C857 1.376 . S
C854 C852 1.394 . S
C854 C855 1.369 . S
C854 C858 1.531 . S
C855 C854 1.369 . S
C855 C856 1.410 . S
C855 C863 1.503 . S
C856 C855 1.410 . S
C856 C857 1.392 . S
C856 C859 1.511 . S
C857 C853 1.376 . S
C857 C856 1.392 . S
C857 H869 0.929 . S
C858 C854 1.531 . S
C858 H870 0.960 . S
C858 H871 0.962 . S
C858 H872 0.960 . S
C859 C856 1.511 . S
C859 H873 0.961 . S
C859 H874 0.961 . S
C859 H875 0.961 . S
C860 C861 1.370 . S
C860 C862 1.363 . S
C860 H876 0.931 . S
C861 C860 1.370 . S
C861 C865 1.408 . S
C862 C860 1.363 . S
C862 C863 1.370 . S
C862 C866 1.524 . S
C863 C855 1.503 . S
C863 C862 1.370 . S
C863 C864 1.403 . S
C864 C863 1.403 . S
C864 C865 1.404 . S
C864 C867 1.539 . S
C865 C861 1.408 . S
C865 C864 1.404 . S
C865 H877 0.930 . S
C866 C862 1.524 . S
C866 H878 0.956 . S
C866 H879 0.961 . S
C866 H880 0.961 . S
C867 C864 1.539 . S
C867 H881 0.958 . S
C867 H882 0.961 . S
C867 H883 0.960 . S
H868 C852 0.931 . S
H869 C857 0.929 . S
H870 C858 0.960 . S
H871 C858 0.962 . S
H872 C858 0.960 . S
H873 C859 0.961 . S
H874 C859 0.961 . S
H875 C859 0.961 . S
H876 C860 0.931 . S
H877 C865 0.930 . S
H878 C866 0.956 . S
H879 C866 0.961 . S
H880 C866 0.961 . S
H881 C867 0.958 . S
H882 C867 0.961 . S
H883 C867 0.960 . S
C884 C885 1.391 . S
C884 C886 1.394 . S
C884 H900 0.931 . S
C885 C884 1.391 . S
C885 C889 1.376 . S
C886 C884 1.394 . S
C886 C887 1.369 . S
C886 C890 1.531 . S
C887 C886 1.369 . S
C887 C888 1.410 . S
C887 C895 1.503 . S
C888 C887 1.410 . S
C888 C889 1.392 . S
C888 C891 1.511 . S
C889 C885 1.376 . S
C889 C888 1.392 . S
C889 H901 0.929 . S
C890 C886 1.531 . S
C890 H902 0.960 . S
C890 H903 0.962 . S
C890 H904 0.960 . S
C891 C888 1.511 . S
C891 H905 0.961 . S
C891 H906 0.961 . S
C891 H907 0.961 . S
C892 C893 1.370 . S
C892 C894 1.363 . S
C892 H908 0.931 . S
C893 C892 1.370 . S
C893 C897 1.408 . S
C894 C892 1.363 . S
C894 C895 1.370 . S
C894 C898 1.524 . S
C895 C887 1.503 . S
C895 C894 1.370 . S
C895 C896 1.403 . S
C896 C895 1.403 . S
C896 C897 1.404 . S
C896 C899 1.539 . S
C897 C893 1.408 . S
C897 C896 1.404 . S
C897 H909 0.930 . S
C898 C894 1.524 . S
C898 H910 0.956 . S
C898 H911 0.961 . S
C898 H912 0.961 . S
C899 C896 1.539 . S
C899 H913 0.958 . S
C899 H914 0.961 . S
C899 H915 0.960 . S
H900 C884 0.931 . S
H901 C889 0.929 . S
H902 C890 0.960 . S
H903 C890 0.962 . S
H904 C890 0.960 . S
H905 C891 0.961 . S
H906 C891 0.961 . S
H907 C891 0.961 . S
H908 C892 0.931 . S
H909 C897 0.930 . S
H910 C898 0.956 . S
H911 C898 0.961 . S
H912 C898 0.961 . S
H913 C899 0.958 . S
H914 C899 0.961 . S
H915 C899 0.960 . S
C916 C917 1.391 . S
C916 C918 1.394 . S
C916 H932 0.931 . S
C917 C916 1.391 . S
C917 C921 1.376 . S
C918 C916 1.394 . S
C918 C919 1.369 . S
C918 C922 1.531 . S
C919 C918 1.369 . S
C919 C920 1.410 . S
C919 C927 1.503 . S
C920 C919 1.410 . S
C920 C921 1.392 . S
C920 C923 1.511 . S
C921 C917 1.376 . S
C921 C920 1.392 . S
C921 H933 0.929 . S
C922 C918 1.531 . S
C922 H934 0.960 . S
C922 H935 0.962 . S
C922 H936 0.960 . S
C923 C920 1.511 . S
C923 H937 0.961 . S
C923 H938 0.961 . S
C923 H939 0.961 . S
C924 C925 1.370 . S
C924 C926 1.363 . S
C924 H940 0.931 . S
C925 C924 1.370 . S
C925 C929 1.408 . S
C926 C924 1.363 . S
C926 C927 1.370 . S
C926 C930 1.524 . S
C927 C919 1.503 . S
C927 C926 1.370 . S
C927 C928 1.403 . S
C928 C927 1.403 . S
C928 C929 1.404 . S
C928 C931 1.539 . S
C929 C925 1.408 . S
C929 C928 1.404 . S
C929 H941 0.930 . S
C930 C926 1.524 . S
C930 H942 0.956 . S
C930 H943 0.961 . S
C930 H944 0.961 . S
C931 C928 1.539 . S
C931 H945 0.958 . S
C931 H946 0.961 . S
C931 H947 0.960 . S
H932 C916 0.931 . S
H933 C921 0.929 . S
H934 C922 0.960 . S
H935 C922 0.962 . S
H936 C922 0.960 . S
H937 C923 0.961 . S
H938 C923 0.961 . S
H939 C923 0.961 . S
H940 C924 0.931 . S
H941 C929 0.930 . S
H942 C930 0.956 . S
H943 C930 0.961 . S
H944 C930 0.961 . S
H945 C931 0.958 . S
H946 C931 0.961 . S
H947 C931 0.960 . S
C948 C949 1.391 1_455 S
C948 C950 1.394 . S
C948 H964 0.931 . S
C949 C948 1.391 1_655 S
C949 C953 1.376 1_565 S
C950 C948 1.394 . S
C950 C951 1.369 1_455 S
C950 C954 1.531 . S
C951 C950 1.369 1_655 S
C951 C952 1.410 1_565 S
C951 C959 1.503 1_565 S
C952 C951 1.410 1_545 S
C952 C953 1.392 . S
C952 C955 1.511 . S
C953 C949 1.376 1_545 S
C953 C952 1.392 . S
C953 H965 0.929 . S
C954 C950 1.531 . S
C954 H966 0.960 . S
C954 H967 0.962 . S
C954 H968 0.960 . S
C955 C952 1.511 . S
C955 H969 0.961 . S
C955 H970 0.961 . S
C955 H971 0.961 . S
C956 C957 1.372 . S
C956 C958 1.364 . S
C956 H972 0.928 1_655 S
C957 C956 1.372 . S
C957 C961 1.408 1_545 S
C958 C956 1.364 . S
C958 C959 1.370 . S
C958 C962 1.524 1_655 S
C959 C951 1.503 1_545 S
C959 C958 1.370 . S
C959 C960 1.403 1_545 S
C960 C959 1.403 1_565 S
C960 C961 1.404 . S
C960 C963 1.539 . S
C961 C957 1.408 1_565 S
C961 C960 1.404 . S
C961 H973 0.930 . S
C962 C958 1.524 1_455 S
C962 H974 0.956 . S
C962 H975 0.961 1_455 S
C962 H976 0.961 . S
C963 C960 1.539 . S
C963 H977 0.958 . S
C963 H978 0.961 . S
C963 H979 0.960 . S
H964 C948 0.931 . S
H965 C953 0.929 . S
H966 C954 0.960 . S
H967 C954 0.962 . S
H968 C954 0.960 . S
H969 C955 0.961 . S
H970 C955 0.961 . S
H971 C955 0.961 . S
H972 C956 0.928 1_455 S
H973 C961 0.930 . S
H974 C962 0.956 . S
H975 C962 0.961 1_655 S
H976 C962 0.961 . S
H977 C963 0.958 . S
H978 C963 0.961 . S
H979 C963 0.960 . S
C980 C981 1.391 . S
C980 C982 1.394 . S
C980 H996 0.931 . S
C981 C980 1.391 . S
C981 C985 1.376 . S
C982 C980 1.394 . S
C982 C983 1.369 . S
C982 C986 1.531 1_545 S
C983 C982 1.369 . S
C983 C984 1.410 . S
C983 C991 1.503 . S
C984 C983 1.410 . S
C984 C985 1.392 . S
C984 C987 1.511 . S
C985 C981 1.376 . S
C985 C984 1.392 . S
C985 H997 0.929 . S
C986 C982 1.531 1_565 S
C986 H998 0.960 . S
C986 H999 0.962 1_565 S
C986 H1000 0.960 . S
C987 C984 1.511 . S
C987 H1001 0.961 . S
C987 H1002 0.961 . S
C987 H1003 0.961 . S
C988 C989 1.370 . S
C988 C990 1.363 . S
C988 H1004 0.931 . S
C989 C988 1.370 . S
C989 C993 1.408 . S
C990 C988 1.363 . S
C990 C991 1.370 . S
C990 C994 1.524 . S
C991 C983 1.503 . S
C991 C990 1.370 . S
C991 C992 1.403 . S
C992 C991 1.403 . S
C992 C993 1.404 . S
C992 C995 1.539 1_545 S
C993 C989 1.408 . S
C993 C992 1.404 . S
C993 H1005 0.930 1_545 S
C994 C990 1.524 . S
C994 H1006 0.956 . S
C994 H1007 0.961 . S
C994 H1008 0.961 . S
C995 C992 1.539 1_565 S
C995 H1009 0.958 . S
C995 H1010 0.961 . S
C995 H1011 0.960 . S
H996 C980 0.931 . S
H997 C985 0.929 . S
H998 C986 0.960 . S
H999 C986 0.962 1_545 S
H1000 C986 0.960 . S
H1001 C987 0.961 . S
H1002 C987 0.961 . S
H1003 C987 0.961 . S
H1004 C988 0.931 . S
H1005 C993 0.930 1_565 S
H1006 C994 0.956 . S
H1007 C994 0.961 . S
H1008 C994 0.961 . S
H1009 C995 0.958 . S
H1010 C995 0.961 . S
H1011 C995 0.960 . S
C1012 C1013 1.391 . S
C1012 C1014 1.394 . S
C1012 H1028 0.931 . S
C1013 C1012 1.391 . S
C1013 C1017 1.376 . S
C1014 C1012 1.394 . S
C1014 C1015 1.369 . S
C1014 C1018 1.531 . S
C1015 C1014 1.369 . S
C1015 C1016 1.410 . S
C1015 C1023 1.503 . S
C1016 C1015 1.410 . S
C1016 C1017 1.392 . S
C1016 C1019 1.511 . S
C1017 C1013 1.376 . S
C1017 C1016 1.392 . S
C1017 H1029 0.929 . S
C1018 C1014 1.531 . S
C1018 H1030 0.960 . S
C1018 H1031 0.962 . S
C1018 H1032 0.960 . S
C1019 C1016 1.511 . S
C1019 H1033 0.961 . S
C1019 H1034 0.961 . S
C1019 H1035 0.961 . S
C1020 C1021 1.370 . S
C1020 C1022 1.363 . S
C1020 H1036 0.931 . S
C1021 C1020 1.370 . S
C1021 C1025 1.408 . S
C1022 C1020 1.363 . S
C1022 C1023 1.370 . S
C1022 C1026 1.524 . S
C1023 C1015 1.503 . S
C1023 C1022 1.370 . S
C1023 C1024 1.403 . S
C1024 C1023 1.403 . S
C1024 C1025 1.404 . S
C1024 C1027 1.539 . S
C1025 C1021 1.408 . S
C1025 C1024 1.404 . S
C1025 H1037 0.930 . S
C1026 C1022 1.524 . S
C1026 H1038 0.956 . S
C1026 H1039 0.961 . S
C1026 H1040 0.961 . S
C1027 C1024 1.539 . S
C1027 H1041 0.958 . S
C1027 H1042 0.961 . S
C1027 H1043 0.960 . S
H1028 C1012 0.931 . S
H1029 C1017 0.929 . S
H1030 C1018 0.960 . S
H1031 C1018 0.962 . S
H1032 C1018 0.960 . S
H1033 C1019 0.961 . S
H1034 C1019 0.961 . S
H1035 C1019 0.961 . S
H1036 C1020 0.931 . S
H1037 C1025 0.930 . S
H1038 C1026 0.956 . S
H1039 C1026 0.961 . S
H1040 C1026 0.961 . S
H1041 C1027 0.958 . S
H1042 C1027 0.961 . S
H1043 C1027 0.960 . S
C1044 C1045 1.391 . S
C1044 C1046 1.394 . S
C1044 H1060 0.931 . S
C1045 C1044 1.391 . S
C1045 C1049 1.376 . S
C1046 C1044 1.394 . S
C1046 C1047 1.369 . S
C1046 C1050 1.531 . S
C1047 C1046 1.369 . S
C1047 C1048 1.410 . S
C1047 C1055 1.503 . S
C1048 C1047 1.410 . S
C1048 C1049 1.392 . S
C1048 C1051 1.511 . S
C1049 C1045 1.376 . S
C1049 C1048 1.392 . S
C1049 H1061 0.929 . S
C1050 C1046 1.531 . S
C1050 H1062 0.960 . S
C1050 H1063 0.962 . S
C1050 H1064 0.960 . S
C1051 C1048 1.511 . S
C1051 H1065 0.961 . S
C1051 H1066 0.961 . S
C1051 H1067 0.961 . S
C1052 C1053 1.370 . S
C1052 C1054 1.363 . S
C1052 H1068 0.931 . S
C1053 C1052 1.370 . S
C1053 C1057 1.408 . S
C1054 C1052 1.363 . S
C1054 C1055 1.370 . S
C1054 C1058 1.524 . S
C1055 C1047 1.503 . S
C1055 C1054 1.370 . S
C1055 C1056 1.403 . S
C1056 C1055 1.403 . S
C1056 C1057 1.404 . S
C1056 C1059 1.539 . S
C1057 C1053 1.408 . S
C1057 C1056 1.404 . S
C1057 H1069 0.930 . S
C1058 C1054 1.524 . S
C1058 H1070 0.956 1_455 S
C1058 H1071 0.961 . S
C1058 H1072 0.961 1_455 S
C1059 C1056 1.539 . S
C1059 H1073 0.958 . S
C1059 H1074 0.961 . S
C1059 H1075 0.960 . S
H1060 C1044 0.931 . S
H1061 C1049 0.929 . S
H1062 C1050 0.960 . S
H1063 C1050 0.962 . S
H1064 C1050 0.960 . S
H1065 C1051 0.961 . S
H1066 C1051 0.961 . S
H1067 C1051 0.961 . S
H1068 C1052 0.931 . S
H1069 C1057 0.930 . S
H1070 C1058 0.956 1_655 S
H1071 C1058 0.961 . S
H1072 C1058 0.961 1_655 S
H1073 C1059 0.958 . S
H1074 C1059 0.961 . S
H1075 C1059 0.960 . S
C1076 C1077 1.391 1_554 S
C1076 C1078 1.394 . S
C1076 H1092 0.931 . S
C1077 C1076 1.391 1_556 S
C1077 C1081 1.376 . S
C1078 C1076 1.394 . S
C1078 C1079 1.369 . S
C1078 C1082 1.531 . S
C1079 C1078 1.369 . S
C1079 C1080 1.412 1_554 S
C1079 C1087 1.503 . S
C1080 C1079 1.412 1_556 S
C1080 C1081 1.394 . S
C1080 C1083 1.507 1_565 S
C1081 C1077 1.376 . S
C1081 C1080 1.394 . S
C1081 H1093 0.929 . S
C1082 C1078 1.531 . S
C1082 H1094 0.960 . S
C1082 H1095 0.962 . S
C1082 H1096 0.960 . S
C1083 C1080 1.507 1_545 S
C1083 H1097 0.970 . S
C1083 H1098 0.961 1_545 S
C1083 H1099 0.961 . S
C1084 C1085 1.370 . S
C1084 C1086 1.363 . S
C1084 H1100 0.931 . S
C1085 C1084 1.370 . S
C1085 C1089 1.408 1_565 S
C1086 C1084 1.363 . S
C1086 C1087 1.370 . S
C1086 C1090 1.524 1_554 S
C1087 C1079 1.503 . S
C1087 C1086 1.370 . S
C1087 C1088 1.403 1_565 S
C1088 C1087 1.403 1_545 S
C1088 C1089 1.404 . S
C1088 C1091 1.539 . S
C1089 C1085 1.408 1_545 S
C1089 C1088 1.404 . S
C1089 H1101 0.930 . S
C1090 C1086 1.524 1_556 S
C1090 H1102 0.956 1_556 S
C1090 H1103 0.961 . S
C1090 H1104 0.961 . S
C1091 C1088 1.539 . S
C1091 H1105 0.958 . S
C1091 H1106 0.961 . S
C1091 H1107 0.960 . S
H1092 C1076 0.931 . S
H1093 C1081 0.929 . S
H1094 C1082 0.960 . S
H1095 C1082 0.962 . S
H1096 C1082 0.960 . S
H1097 C1083 0.970 . S
H1098 C1083 0.961 1_565 S
H1099 C1083 0.961 . S
H1100 C1084 0.931 . S
H1101 C1089 0.930 . S
H1102 C1090 0.956 1_554 S
H1103 C1090 0.961 . S
H1104 C1090 0.961 . S
H1105 C1091 0.958 . S
H1106 C1091 0.961 . S
H1107 C1091 0.960 . S
C1108 C1109 1.391 . S
C1108 C1110 1.394 . S
C1108 H1124 0.931 . S
C1109 C1108 1.391 . S
C1109 C1113 1.376 . S
C1110 C1108 1.394 . S
C1110 C1111 1.369 . S
C1110 C1114 1.531 . S
C1111 C1110 1.369 . S
C1111 C1112 1.410 . S
C1111 C1119 1.503 . S
C1112 C1111 1.410 . S
C1112 C1113 1.392 . S
C1112 C1115 1.511 . S
C1113 C1109 1.376 . S
C1113 C1112 1.392 . S
C1113 H1125 0.929 . S
C1114 C1110 1.531 . S
C1114 H1126 0.960 . S
C1114 H1127 0.962 . S
C1114 H1128 0.960 . S
C1115 C1112 1.511 . S
C1115 H1129 0.961 1_545 S
C1115 H1130 0.961 . S
C1115 H1131 0.961 . S
C1116 C1117 1.370 . S
C1116 C1118 1.363 . S
C1116 H1132 0.931 . S
C1117 C1116 1.370 . S
C1117 C1121 1.408 . S
C1118 C1116 1.363 . S
C1118 C1119 1.370 . S
C1118 C1122 1.524 . S
C1119 C1111 1.503 . S
C1119 C1118 1.370 . S
C1119 C1120 1.403 . S
C1120 C1119 1.403 . S
C1120 C1121 1.404 . S
C1120 C1123 1.539 . S
C1121 C1117 1.408 . S
C1121 C1120 1.404 . S
C1121 H1133 0.930 . S
C1122 C1118 1.524 . S
C1122 H1134 0.956 . S
C1122 H1135 0.961 . S
C1122 H1136 0.939 1_545 S
C1123 C1120 1.539 . S
C1123 H1137 0.958 . S
C1123 H1138 0.961 . S
C1123 H1139 0.960 . S
H1124 C1108 0.931 . S
H1125 C1113 0.929 . S
H1126 C1114 0.960 . S
H1127 C1114 0.962 . S
H1128 C1114 0.960 . S
H1129 C1115 0.961 1_565 S
H1130 C1115 0.961 . S
H1131 C1115 0.961 . S
H1132 C1116 0.931 . S
H1133 C1121 0.930 . S
H1134 C1122 0.956 . S
H1135 C1122 0.961 . S
H1136 C1122 0.939 1_565 S
H1137 C1123 0.958 . S
H1138 C1123 0.961 . S
H1139 C1123 0.960 . S
C1140 C1141 1.391 . S
C1140 C1142 1.394 . S
C1140 H1156 0.931 1_554 S
C1141 C1140 1.391 . S
C1141 C1145 1.376 . S
C1142 C1140 1.394 . S
C1142 C1143 1.369 . S
C1142 C1146 1.531 1_554 S
C1143 C1142 1.369 . S
C1143 C1144 1.410 . S
C1143 C1151 1.503 . S
C1144 C1143 1.410 . S
C1144 C1145 1.392 . S
C1144 C1147 1.511 . S
C1145 C1141 1.376 . S
C1145 C1144 1.392 . S
C1145 H1157 0.929 . S
C1146 C1142 1.531 1_556 S
C1146 H1158 0.960 . S
C1146 H1159 0.962 . S
C1146 H1160 0.960 . S
C1147 C1144 1.511 . S
C1147 H1161 0.961 . S
C1147 H1162 0.961 . S
C1147 H1163 0.961 . S
C1148 C1149 1.370 . S
C1148 C1150 1.363 . S
C1148 H1164 0.931 . S
C1149 C1148 1.370 . S
C1149 C1153 1.408 . S
C1150 C1148 1.363 . S
C1150 C1151 1.370 . S
C1150 C1154 1.524 . S
C1151 C1143 1.503 . S
C1151 C1150 1.370 . S
C1151 C1152 1.403 . S
C1152 C1151 1.403 . S
C1152 C1153 1.404 . S
C1152 C1155 1.539 . S
C1153 C1149 1.408 . S
C1153 C1152 1.404 . S
C1153 H1165 0.930 . S
C1154 C1150 1.524 . S
C1154 H1166 0.956 . S
C1154 H1167 0.961 . S
C1154 H1168 0.961 . S
C1155 C1152 1.539 . S
C1155 H1169 0.958 1_554 S
C1155 H1170 0.961 . S
C1155 H1171 0.960 . S
H1156 C1140 0.931 1_556 S
H1157 C1145 0.929 . S
H1158 C1146 0.960 . S
H1159 C1146 0.962 . S
H1160 C1146 0.960 . S
H1161 C1147 0.961 . S
H1162 C1147 0.961 . S
H1163 C1147 0.961 . S
H1164 C1148 0.931 . S
H1165 C1153 0.930 . S
H1166 C1154 0.956 . S
H1167 C1154 0.961 . S
H1168 C1154 0.961 . S
H1169 C1155 0.958 1_556 S
H1170 C1155 0.961 . S
H1171 C1155 0.960 . S
C1172 C1173 1.391 . S
C1172 C1174 1.394 . S
C1172 H1188 0.931 . S
C1173 C1172 1.391 . S
C1173 C1177 1.376 . S
C1174 C1172 1.394 . S
C1174 C1175 1.369 . S
C1174 C1178 1.531 . S
C1175 C1174 1.369 . S
C1175 C1176 1.410 . S
C1175 C1183 1.503 . S
C1176 C1175 1.410 . S
C1176 C1177 1.392 . S
C1176 C1179 1.511 . S
C1177 C1173 1.376 . S
C1177 C1176 1.392 . S
C1177 H1189 0.929 . S
C1178 C1174 1.531 . S
C1178 H1190 0.960 . S
C1178 H1191 0.962 . S
C1178 H1192 0.960 . S
C1179 C1176 1.511 . S
C1179 H1193 0.961 . S
C1179 H1194 0.961 . S
C1179 H1195 0.961 . S
C1180 C1181 1.370 . S
C1180 C1182 1.363 . S
C1180 H1196 0.931 . S
C1181 C1180 1.370 . S
C1181 C1185 1.408 . S
C1182 C1180 1.363 . S
C1182 C1183 1.370 . S
C1182 C1186 1.524 . S
C1183 C1175 1.503 . S
C1183 C1182 1.370 . S
C1183 C1184 1.403 . S
C1184 C1183 1.403 . S
C1184 C1185 1.404 . S
C1184 C1187 1.539 . S
C1185 C1181 1.408 . S
C1185 C1184 1.404 . S
C1185 H1197 0.930 . S
C1186 C1182 1.524 . S
C1186 H1198 0.956 . S
C1186 H1199 0.961 . S
C1186 H1200 0.961 . S
C1187 C1184 1.539 . S
C1187 H1201 0.958 . S
C1187 H1202 0.961 . S
C1187 H1203 0.960 . S
H1188 C1172 0.931 . S
H1189 C1177 0.929 . S
H1190 C1178 0.960 . S
H1191 C1178 0.962 . S
H1192 C1178 0.960 . S
H1193 C1179 0.961 . S
H1194 C1179 0.961 . S
H1195 C1179 0.961 . S
H1196 C1180 0.931 . S
H1197 C1185 0.930 . S
H1198 C1186 0.956 . S
H1199 C1186 0.961 . S
H1200 C1186 0.961 . S
H1201 C1187 0.958 . S
H1202 C1187 0.961 . S
H1203 C1187 0.960 . S
C1204 C1205 1.391 1_455 S
C1204 C1206 1.394 . S
C1204 H1220 0.931 . S
C1205 C1204 1.391 1_655 S
C1205 C1209 1.376 1_556 S
C1206 C1204 1.394 . S
C1206 C1207 1.369 . S
C1206 C1210 1.531 . S
C1207 C1206 1.369 . S
C1207 C1208 1.410 1_456 S
C1207 C1215 1.503 . S
C1208 C1207 1.410 1_654 S
C1208 C1209 1.392 . S
C1208 C1211 1.511 . S
C1209 C1205 1.376 1_554 S
C1209 C1208 1.392 . S
C1209 H1221 0.929 . S
C1210 C1206 1.531 . S
C1210 H1222 0.960 . S
C1210 H1223 0.962 . S
C1210 H1224 0.960 . S
C1211 C1208 1.511 . S
C1211 H1225 0.961 . S
C1211 H1226 0.961 . S
C1211 H1227 0.961 . S
C1212 C1213 1.370 1_655 S
C1212 C1214 1.363 . S
C1212 H1228 0.931 . S
C1213 C1212 1.370 1_455 S
C1213 C1217 1.408 1_556 S
C1214 C1212 1.363 . S
C1214 C1215 1.370 1_655 S
C1214 C1218 1.524 . S
C1215 C1207 1.503 . S
C1215 C1214 1.370 1_455 S
C1215 C1216 1.403 1_556 S
C1216 C1215 1.403 1_554 S
C1216 C1217 1.404 . S
C1216 C1219 1.539 . S
C1217 C1213 1.408 1_554 S
C1217 C1216 1.404 . S
C1217 H1229 0.930 . S
C1218 C1214 1.524 . S
C1218 H1230 0.956 . S
C1218 H1231 0.961 . S
C1218 H1232 0.961 . S
C1219 C1216 1.539 . S
C1219 H1233 0.958 . S
C1219 H1234 0.961 . S
C1219 H1235 0.960 . S
H1220 C1204 0.931 . S
H1221 C1209 0.929 . S
H1222 C1210 0.960 . S
H1223 C1210 0.962 . S
H1224 C1210 0.960 . S
H1225 C1211 0.961 . S
H1226 C1211 0.961 . S
H1227 C1211 0.961 . S
H1228 C1212 0.931 . S
H1229 C1217 0.930 . S
H1230 C1218 0.956 . S
H1231 C1218 0.961 . S
H1232 C1218 0.961 . S
H1233 C1219 0.958 . S
H1234 C1219 0.961 . S
H1235 C1219 0.960 . S
C1236 C1237 1.391 . S
C1236 C1238 1.394 . S
C1236 H1252 0.931 . S
C1237 C1236 1.391 . S
C1237 C1241 1.376 . S
C1238 C1236 1.394 . S
C1238 C1239 1.369 . S
C1238 C1242 1.531 . S
C1239 C1238 1.369 . S
C1239 C1240 1.410 . S
C1239 C1247 1.503 . S
C1240 C1239 1.410 . S
C1240 C1241 1.392 . S
C1240 C1243 1.511 . S
C1241 C1237 1.376 . S
C1241 C1240 1.392 . S
C1241 H1253 0.929 . S
C1242 C1238 1.531 . S
C1242 H1254 0.960 . S
C1242 H1255 0.962 . S
C1242 H1256 0.960 . S
C1243 C1240 1.511 . S
C1243 H1257 0.961 . S
C1243 H1258 0.961 . S
C1243 H1259 0.961 . S
C1244 C1245 1.370 . S
C1244 C1246 1.363 . S
C1244 H1260 0.931 . S
C1245 C1244 1.370 . S
C1245 C1249 1.408 . S
C1246 C1244 1.363 . S
C1246 C1247 1.370 . S
C1246 C1250 1.524 1_554 S
C1247 C1239 1.503 . S
C1247 C1246 1.370 . S
C1247 C1248 1.403 . S
C1248 C1247 1.403 . S
C1248 C1249 1.404 . S
C1248 C1251 1.539 . S
C1249 C1245 1.408 . S
C1249 C1248 1.404 . S
C1249 H1261 0.930 . S
C1250 C1246 1.524 1_556 S
C1250 H1262 0.956 1_556 S
C1250 H1263 0.961 . S
C1250 H1264 0.961 . S
C1251 C1248 1.539 . S
C1251 H1265 0.958 . S
C1251 H1266 0.961 . S
C1251 H1267 0.960 . S
H1252 C1236 0.931 . S
H1253 C1241 0.929 . S
H1254 C1242 0.960 . S
H1255 C1242 0.962 . S
H1256 C1242 0.960 . S
H1257 C1243 0.961 . S
H1258 C1243 0.961 . S
H1259 C1243 0.961 . S
H1260 C1244 0.931 . S
H1261 C1249 0.930 . S
H1262 C1250 0.956 1_554 S
H1263 C1250 0.961 . S
H1264 C1250 0.961 . S
H1265 C1251 0.958 . S
H1266 C1251 0.961 . S
H1267 C1251 0.960 . S
C1268 C1269 1.391 . S
C1268 C1270 1.394 . S
C1268 H1284 0.931 . S
C1269 C1268 1.391 . S
C1269 C1273 1.376 . S
C1270 C1268 1.394 . S
C1270 C1271 1.369 . S
C1270 C1274 1.531 . S
C1271 C1270 1.369 . S
C1271 C1272 1.410 . S
C1271 C1279 1.503 . S
C1272 C1271 1.410 . S
C1272 C1273 1.392 . S
C1272 C1275 1.511 1_455 S
C1273 C1269 1.376 . S
C1273 C1272 1.392 . S
C1273 H1285 0.929 1_455 S
C1274 C1270 1.531 . S
C1274 H1286 0.960 . S
C1274 H1287 0.962 . S
C1274 H1288 0.960 . S
C1275 C1272 1.511 1_655 S
C1275 H1289 0.961 . S
C1275 H1290 0.961 . S
C1275 H1291 0.961 . S
C1276 C1277 1.370 . S
C1276 C1278 1.363 . S
C1276 H1292 0.931 . S
C1277 C1276 1.370 . S
C1277 C1281 1.408 . S
C1278 C1276 1.363 . S
C1278 C1279 1.370 . S
C1278 C1282 1.524 . S
C1279 C1271 1.503 . S
C1279 C1278 1.370 . S
C1279 C1280 1.403 . S
C1280 C1279 1.403 . S
C1280 C1281 1.404 . S
C1280 C1283 1.539 1_455 S
C1281 C1277 1.408 . S
C1281 C1280 1.404 . S
C1281 H1293 0.920 1_455 S
C1282 C1278 1.524 . S
C1282 H1294 0.956 . S
C1282 H1295 0.961 . S
C1282 H1296 0.961 . S
C1283 C1280 1.539 1_655 S
C1283 H1297 0.958 1_655 S
C1283 H1298 0.961 . S
C1283 H1299 0.960 . S
H1284 C1268 0.931 . S
H1285 C1273 0.929 1_655 S
H1286 C1274 0.960 . S
H1287 C1274 0.962 . S
H1288 C1274 0.960 . S
H1289 C1275 0.961 . S
H1290 C1275 0.961 . S
H1291 C1275 0.961 . S
H1292 C1276 0.931 . S
H1293 C1281 0.920 1_655 S
H1294 C1282 0.956 . S
H1295 C1282 0.961 . S
H1296 C1282 0.961 . S
H1297 C1283 0.958 1_455 S
H1298 C1283 0.961 . S
H1299 C1283 0.960 . S
C1300 C1301 1.391 . S
C1300 C1302 1.394 . S
C1300 H1316 0.931 . S
C1301 C1300 1.391 . S
C1301 C1305 1.376 . S
C1302 C1300 1.394 . S
C1302 C1303 1.369 . S
C1302 C1306 1.531 . S
C1303 C1302 1.369 . S
C1303 C1304 1.410 . S
C1303 C1311 1.503 . S
C1304 C1303 1.410 . S
C1304 C1305 1.392 . S
C1304 C1307 1.511 . S
C1305 C1301 1.376 . S
C1305 C1304 1.392 . S
C1305 H1317 0.929 . S
C1306 C1302 1.531 . S
C1306 H1318 0.960 . S
C1306 H1319 0.962 . S
C1306 H1320 0.960 . S
C1307 C1304 1.511 . S
C1307 H1321 0.961 . S
C1307 H1322 0.961 . S
C1307 H1323 0.961 . S
C1308 C1309 1.370 . S
C1308 C1310 1.363 . S
C1308 H1324 0.931 . S
C1309 C1308 1.370 . S
C1309 C1313 1.408 . S
C1310 C1308 1.363 . S
C1310 C1311 1.370 . S
C1310 C1314 1.524 . S
C1311 C1303 1.503 . S
C1311 C1310 1.370 . S
C1311 C1312 1.403 . S
C1312 C1311 1.403 . S
C1312 C1313 1.404 . S
C1312 C1315 1.539 . S
C1313 C1309 1.408 . S
C1313 C1312 1.404 . S
C1313 H1325 0.930 . S
C1314 C1310 1.524 . S
C1314 H1326 0.956 . S
C1314 H1327 0.961 . S
C1314 H1328 0.961 . S
C1315 C1312 1.539 . S
C1315 H1329 0.958 . S
C1315 H1330 0.961 . S
C1315 H1331 0.960 . S
H1316 C1300 0.931 . S
H1317 C1305 0.929 . S
H1318 C1306 0.960 . S
H1319 C1306 0.962 . S
H1320 C1306 0.960 . S
H1321 C1307 0.961 . S
H1322 C1307 0.961 . S
H1323 C1307 0.961 . S
H1324 C1308 0.931 . S
H1325 C1313 0.930 . S
H1326 C1314 0.956 . S
H1327 C1314 0.961 . S
H1328 C1314 0.961 . S
H1329 C1315 0.958 . S
H1330 C1315 0.961 . S
H1331 C1315 0.960 . S
C565 C1 1.528 . S
C573 C483 1.421 . S
C597 C80 1.507 . S
C605 C517 1.391 . S
C637 C529 1.380 . S
C629 C140 1.468 . S
C661 C211 1.472 . S
C669 C563 1.427 . S
C701 C520 1.429 . S
C693 C31 1.484 . S
C733 C500 1.394 . S
C725 C61 1.499 . S
C765 C547 1.373 . S
C757 C151 1.467 . S
C797 C538 1.401 . S
C789 C200 1.511 . S
C821 C20 1.517 . S
C829 C546 1.435 . S
C861 C508 1.414 . S
C853 C121 1.475 . S
C885 C181 1.479 . S
C893 C484 1.410 . S
C917 C91 1.472 . S
C925 C541 1.426 . S
C957 C499 1.627 . S
C949 C260 1.708 . S
C981 C320 1.670 . S
C989 C521 1.613 . S
C1013 C361 1.721 . S
C1021 C526 1.637 . S
C1045 C451 1.637 . S
C1053 C559 1.650 . S
C1077 C271 1.751 . S
C1085 C504 1.645 . S
C1117 C496 1.628 . S
C1109 C301 1.677 . S
C1149 C550 1.651 . S
C1141 C380 1.766 . S
C1181 C542 1.622 . S
C1173 C440 1.614 . S
C1205 C241 1.720 . S
C1213 C562 1.608 . S
C1245 C505 1.626 . S
C1237 C391 1.721 . S
C1277 C487 1.599 . S
C1269 C421 1.648 . S
C1301 C331 1.609 . S
C1309 C525 1.640 . S
