# Generated by pormake.
# Topology zzz, (3,6)-cn, num edge types: 1
# Building blocks:
#     Node 0, Type 0, BuildingBlock: PAMTOO_clean_linker_0, # of connection points: 3
#     Node 1, Type 0, BuildingBlock: PAMTOO_clean_linker_0, # of connection points: 3
#     Node 2, Type 0, BuildingBlock: PAMTOO_clean_linker_0, # of connection points: 3
#     Node 3, Type 0, BuildingBlock: PAMTOO_clean_linker_0, # of connection points: 3
#     Node 4, Type 0, BuildingBlock: PAMTOO_clean_linker_0, # of connection points: 3
#     Node 5, Type 0, BuildingBlock: PAMTOO_clean_linker_0, # of connection points: 3
#     Node 6, Type 0, BuildingBlock: PAMTOO_clean_linker_0, # of connection points: 3
#     Node 7, Type 0, BuildingBlock: PAMTOO_clean_linker_0, # of connection points: 3
#     Node 8, Type 1, BuildingBlock: CUKXOW_clean_sbu_0, # of connection points: 6
#     Node 9, Type 1, BuildingBlock: CUKXOW_clean_sbu_0, # of connection points: 6
#     Node 10, Type 1, BuildingBlock: CUKXOW_clean_sbu_0, # of connection points: 6
#     Node 11, Type 1, BuildingBlock: CUKXOW_clean_sbu_0, # of connection points: 6
#     Edge 12, Type (0, 1), BuildingBlock: EZIPEK_clean_linker_0, # of connection points: 2
#     Edge 13, Type (0, 1), BuildingBlock: EZIPEK_clean_linker_0, # of connection points: 2
#     Edge 14, Type (0, 1), BuildingBlock: EZIPEK_clean_linker_0, # of connection points: 2
#     Edge 15, Type (0, 1), BuildingBlock: EZIPEK_clean_linker_0, # of connection points: 2
#     Edge 16, Type (0, 1), BuildingBlock: EZIPEK_clean_linker_0, # of connection points: 2
#     Edge 17, Type (0, 1), BuildingBlock: EZIPEK_clean_linker_0, # of connection points: 2
#     Edge 18, Type (0, 1), BuildingBlock: EZIPEK_clean_linker_0, # of connection points: 2
#     Edge 19, Type (0, 1), BuildingBlock: EZIPEK_clean_linker_0, # of connection points: 2
#     Edge 20, Type (0, 1), BuildingBlock: EZIPEK_clean_linker_0, # of connection points: 2
#     Edge 21, Type (0, 1), BuildingBlock: EZIPEK_clean_linker_0, # of connection points: 2
#     Edge 22, Type (0, 1), BuildingBlock: EZIPEK_clean_linker_0, # of connection points: 2
#     Edge 23, Type (0, 1), BuildingBlock: EZIPEK_clean_linker_0, # of connection points: 2
#     Edge 24, Type (0, 1), BuildingBlock: EZIPEK_clean_linker_0, # of connection points: 2
#     Edge 25, Type (0, 1), BuildingBlock: EZIPEK_clean_linker_0, # of connection points: 2
#     Edge 26, Type (0, 1), BuildingBlock: EZIPEK_clean_linker_0, # of connection points: 2
#     Edge 27, Type (0, 1), BuildingBlock: EZIPEK_clean_linker_0, # of connection points: 2
#     Edge 28, Type (0, 1), BuildingBlock: EZIPEK_clean_linker_0, # of connection points: 2
#     Edge 29, Type (0, 1), BuildingBlock: EZIPEK_clean_linker_0, # of connection points: 2
#     Edge 30, Type (0, 1), BuildingBlock: EZIPEK_clean_linker_0, # of connection points: 2
#     Edge 31, Type (0, 1), BuildingBlock: EZIPEK_clean_linker_0, # of connection points: 2
#     Edge 32, Type (0, 1), BuildingBlock: EZIPEK_clean_linker_0, # of connection points: 2
#     Edge 33, Type (0, 1), BuildingBlock: EZIPEK_clean_linker_0, # of connection points: 2
#     Edge 34, Type (0, 1), BuildingBlock: EZIPEK_clean_linker_0, # of connection points: 2
#     Edge 35, Type (0, 1), BuildingBlock: EZIPEK_clean_linker_0, # of connection points: 2
# Relax obj value: 0.059
# Max RMSD: 0.120
# Mean RMSD: 0.077
data_MOF--net-zzz--node1-CUKXOW_clean_sbu_0--node2-PAMTOO_clean_linker_0--edge1-EZIPEK_clean_linker_0
_symmetry_space_group_name_H-M    P1
_symmetry_Int_Tables_number       1
_symmetry_cell_setting            triclinic
loop_
_symmetry_equiv_pos_as_xyz
'x, y, z'
_cell_length_a     36.550349
_cell_length_b     38.721674
_cell_length_c     11.737034
_cell_angle_alpha  94.14144
_cell_angle_beta   85.88222
_cell_angle_gamma 93.857403
loop_
_atom_site_label
_atom_site_type_symbol
_atom_site_fract_x
_atom_site_fract_y
_atom_site_fract_z
_atom_type_partial_charge
H0 H 0.86984 0.50881 0.24558 0.0
H1 H 0.79555 0.49884 0.97598 0.0
H2 H 0.75362 0.51184 0.32879 0.0
H3 H 0.73193 0.55161 0.07007 0.0
C4 C 0.71485 0.52946 0.10482 0.0
O5 O 0.73562 0.50137 0.11395 0.0
H6 H 0.705 0.5396 0.1919 0.0
C7 C 0.84194 0.50744 0.21849 0.0
C8 C 0.8127 0.51118 0.30052 0.0
C9 C 0.83618 0.50325 0.10211 0.0
C10 C 0.80026 0.50203 0.06631 0.0
C11 C 0.77033 0.50458 0.1482 0.0
C12 C 0.77658 0.50931 0.26573 0.0
H13 H 0.01506 0.87074 0.20195 0.0
H14 H 0.01736 0.80284 0.89598 0.0
H15 H 0.99707 0.76062 0.22657 0.0
H16 H 0.05786 0.7309 0.03378 0.0
C17 C 0.03735 0.72797 0.96756 0.0
O18 O 1.00636 0.74531 0.00394 0.0
H19 H 0.0516 0.74027 0.89244 0.0
C20 C 0.01359 0.84466 0.16095 0.0
C21 C 1.00541 0.81645 0.22782 0.0
C22 C 0.01755 0.84018 0.04198 0.0
C23 C 0.01477 0.80659 0.98851 0.0
C24 C 1.00853 0.77772 0.05535 0.0
C25 C 1.00338 0.78269 0.17533 0.0
H26 H 0.64084 0.01975 0.22564 0.0
H27 H 0.72279 0.01303 0.9452 0.0
H28 H 0.75215 1.00291 0.29071 0.0
H29 H 0.80389 0.05116 0.13532 0.0
C30 C 0.79878 0.03737 0.05103 0.0
O31 O 0.77787 0.00717 0.07413 0.0
H32 H 0.783 0.05397 0.00126 0.0
C33 C 0.66899 0.01576 0.19363 0.0
C34 C 0.6947 0.00962 0.27045 0.0
C35 C 0.67852 0.01689 0.07694 0.0
C36 C 0.71499 0.01186 0.03571 0.0
C37 C 0.742 0.00798 0.11306 0.0
C38 C 0.73168 0.00639 0.23096 0.0
H39 H 0.51683 0.65214 0.28962 0.0
H40 H 0.50126 0.71993 0.02535 0.0
H41 H 0.53445 0.76242 0.35472 0.0
H42 H 0.55938 0.77837 0.03579 0.0
C43 C 0.54462 0.79559 0.10098 0.0
O44 O 0.51465 0.77769 0.1527 0.0
H45 H 0.56535 0.80314 0.16441 0.0
C46 C 0.51604 0.67819 0.26161 0.0
C47 C 0.52667 0.70648 0.33504 0.0
C48 C 0.50769 0.68257 0.14937 0.0
C49 C 0.50746 0.71625 0.11233 0.0
C50 C 0.51613 0.7452 0.18742 0.0
C51 C 0.52631 0.74025 0.29848 0.0
H52 H 0.16718 0.5153 0.23264 0.0
H53 H 0.24032 0.52868 0.50482 0.0
H54 H 0.2836 0.51076 0.15509 0.0
H55 H 0.32744 0.47989 0.32114 0.0
C56 C 0.31879 0.49594 0.39951 0.0
O57 O 0.30071 0.52386 0.37003 0.0
H58 H 0.29986 0.47797 0.44899 0.0
C59 C 0.19496 0.51706 0.26079 0.0
C60 C 0.22448 0.51235 0.18033 0.0
C61 C 0.20027 0.52246 0.37722 0.0
C62 C 0.236 0.52447 0.41443 0.0
C63 C 0.2662 0.52068 0.33418 0.0
C64 C 0.26043 0.51429 0.21677 0.0
H65 H 0.01179 0.14891 0.30692 0.0
H66 H 0.99206 0.22296 0.59186 0.0
H67 H 0.0204 0.25785 0.25401 0.0
H68 H 0.05477 0.29934 0.42995 0.0
C69 C 0.03354 0.29794 0.50251 0.0
O70 O 1.00302 0.27773 0.46953 0.0
H71 H 0.04723 0.2854 0.56878 0.0
C72 C 0.00936 0.17562 0.34036 0.0
C73 C 0.0168 0.20235 0.26703 0.0
C74 C 1.00071 0.18269 0.45698 0.0
C75 C 0.99835 0.21721 0.50114 0.0
C76 C 1.00513 0.24441 0.42755 0.0
C77 C 0.01442 0.23693 0.31028 0.0
H78 H 0.38968 0.98862 0.18334 0.0
H79 H 0.31678 0.98164 0.48585 0.0
H80 H 0.27483 1.00293 0.16518 0.0
H81 H 0.23409 0.03348 0.34165 0.0
C82 C 0.23802 0.01835 0.41641 0.0
O83 O 0.25654 0.98913 0.38019 0.0
H84 H 0.25506 0.03638 0.47194 0.0
C85 C 0.36212 0.98906 0.22469 0.0
C86 C 0.33332 0.99732 0.16225 0.0
C87 C 0.35697 0.98457 0.3414 0.0
C88 C 0.32128 0.98538 0.39522 0.0
C89 C 0.29127 0.99076 0.33074 0.0
C90 C 0.29748 0.99727 0.21402 0.0
H91 H 0.50719 0.38109 0.22178 0.0
H92 H 0.5102 0.31426 0.49776 0.0
H93 H 0.47889 0.27206 0.16609 0.0
H94 H 0.4392 0.24076 0.35149 0.0
C95 C 0.46007 0.2415 0.41625 0.0
O96 O 0.49309 0.25666 0.37333 0.0
H97 H 0.45106 0.25832 0.49226 0.0
C98 C 0.50461 0.35528 0.25321 0.0
C99 C 0.49211 0.32737 0.18133 0.0
C100 C 0.51042 0.35119 0.36781 0.0
C101 C 0.50616 0.31781 0.40891 0.0
C102 C 0.49599 0.289 0.33497 0.0
C103 C 0.48845 0.29392 0.22139 0.0
Tb104 Tb 1.00472 0.98154 0.65473 0.0
C105 C 0.09082 0.00688 0.64365 0.0
Tb106 Tb 0.03387 0.04109 0.8247 0.0
O107 O 0.98105 0.0187 0.55189 0.0
O108 O 0.02566 0.03304 0.64994 0.0
O109 O 0.06506 0.98192 0.61803 0.0
C110 C 0.04154 0.10706 0.90938 0.0
O111 O 0.08368 0.03472 0.71291 0.0
C112 C 0.03556 0.97781 0.88613 0.0
C113 C 0.94701 0.0172 0.83302 0.0
O114 O 0.05876 0.08133 0.94144 0.0
O115 O 0.01918 0.09488 0.83342 0.0
O116 O 0.05713 1.00324 0.92713 0.0
O117 O 0.01228 0.98996 0.82958 0.0
O118 O 0.97447 0.03762 0.87538 0.0
O119 O 0.95249 0.99257 0.74915 0.0
C120 C 0.99452 0.91633 0.56906 0.0
O121 O 0.99204 0.94377 0.51298 0.0
O122 O 1.00193 0.92558 0.67362 0.0
C123 C 1.0021 0.04464 0.59234 0.0
Tb124 Tb 0.50875 0.05229 0.68148 0.0
C125 C 0.57974 0.01128 0.60643 0.0
Tb126 Tb 0.51728 0.97959 0.77043 0.0
O127 O 0.55398 0.07597 0.77571 0.0
O128 O 0.52517 0.03235 0.83274 0.0
O129 O 0.55596 0.03281 0.57439 0.0
C130 C 0.52048 0.92184 0.88193 0.0
O131 O 0.57229 0.9916 0.69413 0.0
C132 C 0.48989 0.98003 0.56733 0.0
C133 C 0.44561 0.02008 0.84777 0.0
O134 O 0.54498 0.9477 0.88171 0.0
O135 O 0.4942 0.92853 0.82004 0.0
O136 O 0.5097 0.95599 0.59644 0.0
O137 O 0.48594 1.00111 0.65251 0.0
O138 O 0.46724 0.99529 0.86962 0.0
O139 O 0.45496 0.04342 0.7715 0.0
C140 C 0.49019 0.10869 0.58544 0.0
O141 O 0.49128 0.10555 0.69462 0.0
O142 O 0.49902 0.07976 0.53033 0.0
C143 C 0.55308 0.05271 0.84966 0.0
Tb144 Tb 0.53237 0.54972 0.69254 0.0
C145 C 0.45275 0.51891 0.64068 0.0
Tb146 Tb 0.50001 0.48404 0.81539 0.0
O147 O 0.53708 0.51835 0.52784 0.0
O148 O 0.53901 0.49608 0.68232 0.0
O149 O 0.4754 0.54721 0.64616 0.0
C150 C 0.47793 0.41855 0.86148 0.0
O151 O 0.45923 0.49006 0.68981 0.0
C152 C 0.49429 0.54476 0.92964 0.0
C153 C 0.58046 0.51341 0.8632 0.0
O154 O 0.50489 0.42795 0.79019 0.0
O155 O 0.46373 0.44656 0.90831 0.0
O156 O 0.49558 0.51593 0.9796 0.0
O157 O 0.49287 0.53761 0.82427 0.0
O158 O 0.55685 0.48575 0.86182 0.0
O159 O 0.57471 0.54223 0.81226 0.0
C160 C 0.55165 0.61599 0.6482 0.0
O161 O 0.56495 0.58852 0.59414 0.0
O162 O 0.52753 0.60561 0.72693 0.0
C163 C 0.53765 0.48923 0.57668 0.0
Tb164 Tb 0.98558 0.51703 0.66876 0.0
C165 C 0.01697 0.44258 0.65947 0.0
Tb166 Tb 0.05138 0.50604 0.81668 0.0
O167 O 0.0234 0.51589 0.51296 0.0
O168 O 0.04179 0.53195 0.67258 0.0
O169 O 0.98791 0.46056 0.64627 0.0
C170 C 0.11921 0.49833 0.87708 0.0
O171 O 0.046 0.45618 0.71389 0.0
C172 C 0.9845 0.49836 0.91441 0.0
C173 C 0.02037 0.58048 0.82567 0.0
O174 O 0.08951 0.49638 0.94482 0.0
O175 O 0.1107 0.50389 0.77494 0.0
O176 O 0.01321 0.50727 0.97218 0.0
O177 O 0.99524 0.49117 0.81252 0.0
O178 O 0.04951 0.56248 0.83755 0.0
O179 O 0.99102 0.56679 0.77278 0.0
C180 C 0.91781 0.52438 0.60709 0.0
O181 O 0.94773 0.52753 0.54084 0.0
O182 O 0.92605 0.51785 0.70861 0.0
C183 C 0.05219 0.52477 0.57031 0.0
C184 C 0.19604 0.00873 0.59784 0.0
C185 C 0.20056 0.00841 0.47638 0.0
C186 C 0.13352 1.00252 0.4645 0.0
C187 C 0.12862 0.00507 0.58619 0.0
N188 N 0.15468 0.00605 0.7697 0.0
N189 N 0.17463 0.99176 0.29604 0.0
C190 C 0.15982 0.00686 0.65323 0.0
C191 C 0.16958 1.00104 0.41043 0.0
N192 N 0.22654 0.0106 0.65964 0.0
N193 N 0.10404 1.00386 0.39979 0.0
H194 H 0.20056 0.9895 0.254 0.0
H195 H 0.15331 0.98252 0.24553 0.0
H196 H 0.07709 0.00536 0.43419 0.0
H197 H 0.10653 0.00665 0.31194 0.0
H198 H 0.22631 0.01514 0.74801 0.0
H199 H 0.25282 0.00694 0.62186 0.0
H200 H 0.17555 0.00476 0.82451 0.0
H201 H 0.12886 0.00535 0.81336 0.0
C202 C 0.48942 0.18278 0.38696 0.0
C203 C 0.464 0.20436 0.44947 0.0
C204 C 0.44821 0.15738 0.5791 0.0
C205 C 0.47976 0.14031 0.53321 0.0
N206 N 0.53297 0.13916 0.39805 0.0
N207 N 0.41379 0.20906 0.59467 0.0
C208 C 0.5009 0.15343 0.43765 0.0
C209 C 0.4417 0.19067 0.54246 0.0
N210 N 0.50126 0.18921 0.27707 0.0
N211 N 0.42323 0.1408 0.65235 0.0
H212 H 0.40368 0.23019 0.55963 0.0
H213 H 0.40074 0.20353 0.67365 0.0
H214 H 0.42599 0.11573 0.67611 0.0
H215 H 0.39789 0.15018 0.6805 0.0
H216 H 0.51753 0.17255 0.22491 0.0
H217 H 0.49069 0.20839 0.23326 0.0
H218 H 0.55102 0.15019 0.33595 0.0
H219 H 0.54346 0.11852 0.43464 0.0
C220 C 0.38537 0.52057 0.40636 0.0
C221 C 0.35214 0.50869 0.46561 0.0
C222 C 0.38364 0.51031 0.644 0.0
C223 C 0.41753 0.51984 0.5834 0.0
N224 N 0.44726 0.54632 0.41645 0.0
N225 N 0.31709 0.50744 0.64752 0.0
C226 C 0.41738 0.52903 0.46784 0.0
C227 C 0.35044 0.50817 0.58668 0.0
N228 N 0.38672 0.52307 0.29046 0.0
N229 N 0.38295 0.50377 0.75707 0.0
H230 H 0.29237 0.5086 0.60929 0.0
H231 H 0.31406 0.51007 0.73655 0.0
H232 H 0.40548 0.50911 0.80656 0.0
H233 H 0.36026 0.49193 0.80097 0.0
H234 H 0.41119 0.52603 0.23985 0.0
H235 H 0.36346 0.5208 0.24339 0.0
H236 H 0.44674 0.55746 0.33846 0.0
H237 H 0.47198 0.5522 0.45408 0.0
C238 C 0.0178 0.3592 0.46349 0.0
C239 C 0.02271 0.33435 0.54367 0.0
C240 C 0.01948 0.37972 0.70044 0.0
C241 C 0.01586 0.40498 0.62028 0.0
N242 N 1.00018 0.41655 0.42994 0.0
N243 N 0.01197 0.31895 0.73919 0.0
C244 C 0.01129 0.39406 0.50327 0.0
C245 C 0.01861 0.34397 0.66255 0.0
N246 N 0.02003 0.34973 0.3488 0.0
N247 N 0.02351 0.38964 0.81325 0.0
H248 H 1.00812 0.29265 0.71408 0.0
H249 H 1.00552 0.32446 0.82621 0.0
H250 H 0.02104 0.41495 0.84805 0.0
H251 H 0.03122 0.37288 0.87157 0.0
H252 H 0.02258 0.36749 0.28575 0.0
H253 H 0.02083 0.32405 0.31583 0.0
H254 H 0.99211 0.40886 0.3482 0.0
H255 H 0.99596 0.4425 0.45253 0.0
C256 C 0.84488 0.99979 0.92614 0.0
C257 C 0.83596 0.03199 0.98387 0.0
C258 C 0.89709 0.05631 0.91513 0.0
C259 C 0.90853 0.02226 0.88327 0.0
N260 N 0.89293 0.96028 0.88411 0.0
N261 N 0.85505 0.09227 0.03001 0.0
C262 C 0.88237 0.99358 0.89613 0.0
C263 C 0.86261 0.06059 0.97774 0.0
N264 N 0.81798 0.97599 0.89163 0.0
N265 N 0.91774 0.0848 0.87941 0.0
H266 H 0.82914 0.09839 0.0655 0.0
H267 H 0.87525 0.11224 0.04263 0.0
H268 H 0.94176 0.08339 0.8266 0.0
H269 H 0.90875 0.10987 0.89012 0.0
H270 H 0.82379 0.95308 0.84341 0.0
H271 H 0.79048 0.98167 0.89352 0.0
H272 H 0.8748 0.9391 0.90204 0.0
H273 H 0.9202 0.95399 0.87028 0.0
C274 C 0.52653 0.82594 0.92908 0.0
C275 C 0.53256 0.82754 0.04772 0.0
C276 C 0.5212 0.88979 0.06077 0.0
C277 C 0.52279 0.88915 0.93952 0.0
N278 N 0.52947 0.85692 0.75627 0.0
N279 N 0.53188 0.86066 0.23046 0.0
C280 C 0.52583 0.85726 0.8731 0.0
C281 C 0.52861 0.8594 0.11493 0.0
N282 N 0.52013 0.79455 0.87057 0.0
N283 N 0.51062 0.91892 0.12399 0.0
H284 H 0.53278 0.83857 0.27569 0.0
H285 H 0.53464 0.88371 0.28143 0.0
H286 H 0.5032 0.94081 0.08646 0.0
H287 H 0.50558 0.92035 0.21256 0.0
H288 H 0.51236 0.79196 0.78655 0.0
H289 H 0.5181 0.77116 0.90993 0.0
H290 H 0.53602 0.83499 0.70401 0.0
H291 H 0.52903 0.8792 0.71163 0.0
C292 C 0.64974 0.50272 0.08785 0.0
C293 C 0.68191 0.51873 0.03417 0.0
C294 C 0.6496 0.52051 0.85772 0.0
C295 C 0.61575 0.51163 0.91949 0.0
N296 N 0.5838 0.49194 0.09404 0.0
N297 N 0.71503 0.53625 0.86044 0.0
C298 C 0.61593 0.50143 0.03397 0.0
C299 C 0.68265 0.52543 0.91642 0.0
N300 N 0.65176 0.48782 0.18928 0.0
N301 N 0.65038 0.52221 0.74148 0.0
H302 H 0.74051 0.53467 0.89368 0.0
H303 H 0.71685 0.54687 0.78115 0.0
H304 H 0.62713 0.5171 0.69501 0.0
H305 H 0.67431 0.52547 0.68885 0.0
H306 H 0.63052 0.47224 0.22648 0.0
H307 H 0.67599 0.48782 0.23098 0.0
H308 H 0.58166 0.48964 0.18213 0.0
H309 H 0.5584 0.48854 0.05901 0.0
C310 C 0.02967 0.6648 0.01702 0.0
C311 C 0.02718 0.68983 0.93616 0.0
C312 C 0.01582 0.64331 0.78661 0.0
C313 C 0.02189 0.61811 0.86497 0.0
N314 N 0.04011 0.60573 0.05208 0.0
N315 N 1.0048 0.70307 0.75731 0.0
C316 C 0.03022 0.62905 0.9795 0.0
C317 C 0.01626 0.67911 0.82485 0.0
N318 N 0.02925 0.67502 0.13109 0.0
N319 N 0.01273 0.63348 0.67314 0.0
H320 H 1.00374 0.72931 0.78356 0.0
H321 H 0.99254 0.69663 0.68064 0.0
H322 H 0.01348 0.60793 0.63921 0.0
H323 H 0.01301 0.65094 0.60966 0.0
H324 H 0.02695 0.65776 0.19564 0.0
H325 H 0.02648 0.70067 0.1624 0.0
H326 H 0.05139 0.61305 0.12984 0.0
H327 H 0.03995 0.57912 0.03244 0.0
C328 C 0.03128 0.13958 0.55428 0.0
C329 C 0.99795 0.15274 0.52941 0.0
C330 C 0.96557 0.09692 0.56919 0.0
C331 C 1.0001 0.08197 0.57138 0.0
N332 N 0.06629 0.08891 0.53719 0.0
N333 N 0.93296 0.1445 0.50964 0.0
C334 C 0.03318 0.10333 0.55809 0.0
C335 C 0.96483 0.13165 0.53721 0.0
N336 N 0.06158 0.16166 0.56841 0.0
N337 N 0.93363 0.07852 0.6 0.0
H338 H 0.93146 0.1704 0.49209 0.0
H339 H 0.90872 0.12923 0.49899 0.0
H340 H 0.93276 0.05351 0.62754 0.0
H341 H 0.90819 0.08936 0.6101 0.0
H342 H 0.08597 0.15377 0.59621 0.0
H343 H 0.06081 0.18843 0.56414 0.0
H344 H 0.09077 0.10335 0.51802 0.0
H345 H 0.06868 0.06235 0.52241 0.0
C346 C 0.41893 0.00851 0.39508 0.0
C347 C 0.3906 0.98164 0.40354 0.0
C348 C 0.43135 0.94773 0.50247 0.0
C349 C 0.46004 0.97423 0.48773 0.0
N350 N 0.48455 0.0218 0.38036 0.0
N351 N 0.37314 0.92203 0.43991 0.0
C352 C 0.45485 1.002 0.42094 0.0
C353 C 0.39773 0.95009 0.44976 0.0
N354 N 0.41136 0.04058 0.36502 0.0
N355 N 0.43528 0.92105 0.56975 0.0
H356 H 0.34823 0.92276 0.40238 0.0
H357 H 0.37881 0.89728 0.46033 0.0
H358 H 0.45973 0.91657 0.60452 0.0
H359 H 0.41343 0.90413 0.59595 0.0
H360 H 0.43065 0.06169 0.3667 0.0
H361 H 0.38487 0.04693 0.35031 0.0
H362 H 0.48264 0.04068 0.3224 0.0
H363 H 0.51135 0.01656 0.39579 0.0
C364 C 0.48902 0.40795 0.44641 0.0
C365 C 0.51611 0.38345 0.44335 0.0
C366 C 0.55685 0.42765 0.53908 0.0
C367 C 0.53197 0.45338 0.52253 0.0
N368 N 0.47876 0.46776 0.42845 0.0
N369 N 0.57779 0.37058 0.47779 0.0
C370 C 0.49927 0.44352 0.46712 0.0
C371 C 0.55054 0.39328 0.48843 0.0
N372 N 0.4535 0.39718 0.42713 0.0
N373 N 0.58685 0.43607 0.60079 0.0
H374 H 0.57395 0.34521 0.44258 0.0
H375 H 0.60477 0.37757 0.49713 0.0
H376 H 0.59423 0.46139 0.63079 0.0
H377 H 0.60333 0.41761 0.62705 0.0
H378 H 0.43206 0.41383 0.43729 0.0
H379 H 0.44507 0.37098 0.41353 0.0
H380 H 0.45624 0.46139 0.3796 0.0
H381 H 0.48709 0.49388 0.43155 0.0
C382 C 0.15231 0.55481 0.49664 0.0
C383 C 0.16684 0.52289 0.45638 0.0
C384 C 0.10635 0.49278 0.48373 0.0
C385 C 0.09144 0.52444 0.52716 0.0
N386 N 0.10163 0.58475 0.59348 0.0
N387 N 0.16103 0.46066 0.44404 0.0
C388 C 0.11499 0.55512 0.54077 0.0
C389 C 0.14485 0.49158 0.46185 0.0
N390 N 0.17358 0.58498 0.48654 0.0
N391 N 0.08383 0.4641 0.45917 0.0
H392 H 0.18939 0.45933 0.4279 0.0
H393 H 0.14708 0.43677 0.45704 0.0
H394 H 0.05548 0.46418 0.47026 0.0
H395 H 0.09296 0.44135 0.41704 0.0
H396 H 0.1634 0.60951 0.50036 0.0
H397 H 0.20134 0.58538 0.45868 0.0
H398 H 0.11833 0.60638 0.61883 0.0
H399 H 0.07389 0.58722 0.61708 0.0
C400 C 0.99132 0.89375 0.98986 0.0
C401 C 0.0212 0.87203 0.97805 0.0
C402 C 0.06027 0.91876 0.89366 0.0
C403 C 0.03194 0.94186 0.92267 0.0
N404 N 0.97305 0.95261 0.02083 0.0
N405 N 0.08534 0.86426 0.92757 0.0
C406 C 0.99801 0.92967 0.97625 0.0
C407 C 0.05603 0.88452 0.93144 0.0
N408 N 0.95657 0.87995 0.01561 0.0
N409 N 0.09064 0.92911 0.82727 0.0
H410 H 0.08294 0.83873 0.95132 0.0
H411 H 0.11229 0.87344 0.90725 0.0
H412 H 0.09446 0.95392 0.79831 0.0
H413 H 0.11032 0.91232 0.79311 0.0
H414 H 0.93325 0.89401 0.01537 0.0
H415 H 0.95089 0.8535 0.02544 0.0
H416 H 0.94944 0.94528 0.07064 0.0
H417 H 0.97778 0.97942 0.0186 0.0
C418 C 0.64943 0.05883 0.9621 0.0
C419 C 0.64911 0.02525 0.00398 0.0
C420 C 0.58282 0.01785 0.98525 0.0
C421 C 0.58427 0.04732 0.92112 0.0
N422 N 0.61716 0.10138 0.87425 0.0
N423 N 0.616 0.97067 0.04051 0.0
C424 C 0.61718 0.0694 0.91614 0.0
C425 C 0.61596 1.00397 0.00925 0.0
N426 N 0.67937 0.08165 0.97486 0.0
N427 N 0.5501 0.00538 0.03421 0.0
H428 H 0.64013 0.95932 0.05597 0.0
H429 H 0.59263 0.95367 0.0411 0.0
H430 H 0.5256 0.01722 0.02788 0.0
H431 H 0.54856 0.98662 0.09401 0.0
H432 H 0.67991 0.10775 0.95886 0.0
H433 H 0.70342 0.07527 0.0085 0.0
H434 H 0.64094 0.11558 0.8466 0.0
H435 H 0.59324 0.11433 0.87093 0.0
C436 C 0.4704 0.6373 0.03156 0.0
C437 C 0.50468 0.65082 0.07038 0.0
C438 C 0.5298 0.59415 0.03136 0.0
C439 C 0.49672 0.58074 0.98411 0.0
N440 N 0.43715 0.59145 0.92176 0.0
N441 N 0.56986 0.64517 0.07034 0.0
C442 C 0.46763 0.60306 0.9775 0.0
C443 C 0.53538 0.63022 0.05671 0.0
N444 N 0.4402 0.65635 0.05135 0.0
N445 N 0.55523 0.57248 0.05807 0.0
H446 H 0.57475 0.67186 0.08748 0.0
H447 H 0.59358 0.63171 0.05231 0.0
H448 H 0.55032 0.54582 0.05111 0.0
H449 H 0.57854 0.58086 0.10101 0.0
H450 H 0.41362 0.64638 0.03698 0.0
H451 H 0.44149 0.6816 0.08888 0.0
H452 H 0.41706 0.60766 0.90327 0.0
H453 H 0.43296 0.56594 0.88818 0.0
C454 C 0.88342 0.47029 0.98204 0.0
C455 C 0.86942 0.50246 0.02214 0.0
C456 C 0.9306 0.53143 -0.00159 0.0
C457 C 0.94507 0.49947 0.95571 0.0
N458 N 0.93382 0.43946 0.88749 0.0
N459 N 0.87652 0.56459 0.03523 0.0
C460 C 0.92091 0.46929 0.94009 0.0
C461 C 0.89208 0.53336 0.01796 0.0
N462 N 0.86142 0.4405 0.99037 0.0
N463 N 0.95349 0.55969 0.02468 0.0
H464 H 0.84816 0.56637 0.04988 0.0
H465 H 0.89102 0.58828 0.02317 0.0
H466 H 0.9818 0.55908 0.01546 0.0
H467 H 0.9446 0.58259 0.06636 0.0
H468 H 0.87106 0.41574 0.97687 0.0
H469 H 0.83352 0.44064 0.01631 0.0
H470 H 0.91678 0.41823 0.86066 0.0
H471 H 0.96154 0.43642 0.86539 0.0
C472 C 1.00368 0.18625 0.06334 0.0
C473 C 0.02969 0.19232 0.14738 0.0
C474 C 0.0717 0.15424 0.03524 0.0
C475 C 0.04257 0.14288 0.96574 0.0
N476 N 0.99133 0.16185 0.87289 0.0
N477 N 0.09118 0.1892 0.20381 0.0
C478 C 0.01182 0.16339 0.96607 0.0
C479 C 0.06511 0.17923 0.12818 0.0
N480 N 0.97034 0.20039 0.08066 0.0
N481 N 0.1055 0.14149 0.00998 0.0
H482 H 0.08689 0.20846 0.2695 0.0
H483 H 0.11668 0.17876 0.20255 0.0
H484 H 0.11106 0.12535 0.93648 0.0
H485 H 0.1286 0.14883 0.0548 0.0
H486 H 0.94837 0.19332 0.03026 0.0
H487 H 0.9643 0.21825 0.14917 0.0
H488 H 0.96978 0.17769 0.86609 0.0
H489 H 0.99925 0.14841 0.79597 0.0
C490 C 0.35292 0.98297 0.96025 0.0
C491 C 0.34405 0.00889 0.04655 0.0
C492 C 0.39581 0.04696 0.97834 0.0
C493 C 0.40777 0.0191 0.90259 0.0
N494 N 0.39167 0.9662 0.79151 0.0
N495 N 0.34681 0.06902 0.10977 0.0
C496 C 0.3841 0.98893 0.88319 0.0
C497 C 0.36171 0.04243 0.04351 0.0
N498 N 0.33318 0.95178 0.95934 0.0
N499 N 0.41811 0.07642 -0.00542 0.0
H500 H 0.32215 0.06519 0.15926 0.0
H501 H 0.35679 0.09481 0.10775 0.0
H502 H 0.44344 0.08045 0.94923 0.0
H503 H 0.41256 0.09608 0.05742 0.0
H504 H 0.3405 0.92994 0.908 0.0
H505 H 0.30964 0.9479 0.01398 0.0
H506 H 0.37421 0.94499 0.76744 0.0
H507 H 0.41415 0.97053 0.73341 0.0
C508 C 0.44603 0.35332 0.07317 0.0
C509 C 0.47907 0.33585 0.07022 0.0
C510 C 0.4984 0.3587 0.88505 0.0
C511 C 0.47133 0.38333 0.90614 0.0
N512 N 0.41022 0.39351 0.98364 0.0
N513 N 0.53446 0.31755 0.96753 0.0
C514 C 0.4419 0.37706 0.98851 0.0
C515 C 0.5041 0.33642 0.97248 0.0
N516 N 0.42022 0.34888 0.16189 0.0
N517 N 0.5177 0.35616 0.78121 0.0
H518 H 0.53832 0.30019 0.029 0.0
H519 H 0.55613 0.32 0.90545 0.0
H520 H 0.51113 0.36994 0.71307 0.0
H521 H 0.5365 0.33742 0.75814 0.0
H522 H 0.39709 0.36319 0.17741 0.0
H523 H 0.42243 0.33055 0.22166 0.0
H524 H 0.38689 0.38969 0.03845 0.0
H525 H 0.40634 0.40891 0.91658 0.0
C526 C 0.20986 0.53172 0.99353 0.0
C527 C 0.21498 0.50376 0.0603 0.0
C528 C 0.16806 0.46786 0.95995 0.0
C529 C 0.15695 0.49822 0.91538 0.0
N530 N 0.1698 0.55803 0.87248 0.0
N531 N 0.2058 0.4434 0.09297 0.0
C532 C 0.17932 0.52967 0.92388 0.0
C533 C 0.19696 0.47083 0.03574 0.0
N534 N 0.23339 0.56055 0.00188 0.0
N535 N 0.15042 0.43658 0.93072 0.0
H536 H 0.22776 0.44545 0.14587 0.0
H537 H 0.19163 0.41918 0.08972 0.0
H538 H 0.12946 0.43416 0.87416 0.0
H539 H 0.15798 0.41293 0.95524 0.0
H540 H 0.23296 0.5816 0.95186 0.0
H541 H 0.25554 0.56188 0.05378 0.0
H542 H 0.18258 0.58271 0.88449 0.0
H543 H 0.14817 0.55715 0.81891 0.0
C544 C 0.02612 0.83239 0.42087 0.0
C545 C 0.99634 0.82486 0.35125 0.0
C546 C 0.96022 0.86689 0.46811 0.0
C547 C 0.99295 0.88037 0.51695 0.0
N548 N 0.05608 0.87373 0.55525 0.0
N549 N 0.9328 0.82861 0.3194 0.0
C550 C 0.02539 0.86178 0.50097 0.0
C551 C 0.96218 0.83937 0.3814 0.0
N552 N 0.05555 0.81227 0.4049 0.0
N553 N 0.92769 0.88091 0.504 0.0
H554 H 0.93399 0.8077 0.25812 0.0
H555 H 0.90789 0.84036 0.32667 0.0
H556 H 0.92598 0.90088 0.56853 0.0
H557 H 0.90227 0.87127 0.47696 0.0
H558 H 0.0778 0.81466 0.45603 0.0
H559 H 0.05587 0.79101 0.34481 0.0
H560 H 0.08167 0.86354 0.53855 0.0
H561 H 0.05636 0.89479 0.61567 0.0
C562 C 0.67149 0.03903 0.45283 0.0
C563 C 0.68014 0.00762 0.39121 0.0
C564 C 0.62716 0.97701 0.48698 0.0
C565 C 0.61635 0.00914 0.54167 0.0
N566 N 0.63404 0.06833 0.60331 0.0
N567 N 0.67492 0.94566 0.37655 0.0
C568 C 0.64051 0.03941 0.53338 0.0
C569 C 0.66109 0.97616 0.41947 0.0
N570 N 0.69152 0.06887 0.4273 0.0
N571 N 0.6039 0.94791 0.49186 0.0
H572 H 0.69956 0.94518 0.3257 0.0
H573 H 0.66423 0.92138 0.3999 0.0
H574 H 0.57852 0.94734 0.53805 0.0
H575 H 0.60846 0.92483 0.4434 0.0
H576 H 0.6841 0.0936 0.45669 0.0
H577 H 0.71529 0.06858 0.37231 0.0
H578 H 0.65231 0.09009 0.60955 0.0
H579 H 0.61167 0.06931 0.66275 0.0
C580 C 0.51814 0.69623 0.54427 0.0
C581 C 0.54182 0.69844 0.44379 0.0
C582 C 0.58304 0.65922 0.51783 0.0
C583 C 0.55531 0.65147 0.60428 0.0
N584 N 0.50901 0.67609 0.73621 0.0
N585 N 0.60083 0.68983 0.34602 0.0
C586 C 0.52685 0.6745 0.62995 0.0
C587 C 0.5762 0.68308 0.43605 0.0
N588 N 0.48627 0.71297 0.55379 0.0
N589 N 0.61562 0.64379 0.5157 0.0
H590 H 0.5964 0.70818 0.28829 0.0
H591 H 0.62541 0.67788 0.32831 0.0
H592 H 0.62147 0.62835 0.58062 0.0
H593 H 0.63762 0.648 0.45613 0.0
H594 H 0.46562 0.70906 0.61828 0.0
H595 H 0.48008 0.72993 0.49373 0.0
H596 H 0.48935 0.69379 0.76226 0.0
H597 H 0.5176 0.66286 0.80289 0.0
C598 C 0.8399 0.5517 0.44875 0.0
C599 C 0.82261 0.51866 0.42064 0.0
C600 C 0.85879 0.49212 0.55429 0.0
C601 C 0.88023 0.524 0.56725 0.0
N602 N 0.88517 0.58593 0.55895 0.0
N603 N 0.80567 0.46084 0.47196 0.0
C604 C 0.86848 0.55455 0.52568 0.0
C605 C 0.82842 0.49011 0.484 0.0
N606 N 0.83067 0.57951 0.39405 0.0
N607 N 0.86907 0.46339 0.60202 0.0
H608 H 0.78363 0.45949 0.41965 0.0
H609 H 0.80657 0.43932 0.51962 0.0
H610 H 0.89059 0.46415 0.65595 0.0
H611 H 0.85709 0.43853 0.58634 0.0
H612 H 0.84447 0.60388 0.39972 0.0
H613 H 0.80887 0.57763 0.3406 0.0
H614 H 0.87696 0.60965 0.53711 0.0
H615 H 0.90591 0.58827 0.61628 0.0
loop_
_geom_bond_atom_site_label_1
_geom_bond_atom_site_label_2
_geom_bond_distance
_geom_bond_site_symmetry_2
_ccdc_geom_bond_type
H0 C7 0.929 . S
H1 C10 0.930 . S
H2 C12 0.929 . S
H3 C4 0.969 . S
C4 H3 0.969 . S
C4 O5 1.550 1_556 S
C4 H6 0.973 . S
O5 C4 1.550 1_554 S
O5 C11 1.412 . S
H6 C4 0.973 . S
C7 H0 0.929 . S
C7 C8 1.400 . S
C7 C9 1.364 . S
C8 C7 1.400 . S
C8 C12 1.377 . S
C9 C7 1.364 . S
C9 C10 1.374 1_554 S
C10 H1 0.930 . S
C10 C9 1.374 1_556 S
C10 C11 1.383 1_556 S
C11 O5 1.412 . S
C11 C10 1.383 1_554 S
C11 C12 1.394 . S
C12 H2 0.929 . S
C12 C8 1.377 . S
C12 C11 1.394 . S
H13 C20 0.929 . S
H14 C23 0.930 . S
H15 C25 0.929 . S
H16 C17 0.969 . S
C17 H16 0.969 . S
C17 O18 1.550 1_556 S
C17 H19 0.973 . S
O18 C17 1.550 1_554 S
O18 C24 1.412 . S
H19 C17 0.973 . S
C20 H13 0.929 . S
C20 C21 1.400 . S
C20 C22 1.364 1_554 S
C21 C20 1.400 . S
C21 C25 1.377 . S
C22 C20 1.364 1_556 S
C22 C23 1.374 . S
C23 H14 0.930 . S
C23 C22 1.374 . S
C23 C24 1.383 1_556 S
C24 O18 1.412 . S
C24 C23 1.383 1_554 S
C24 C25 1.394 . S
C25 H15 0.929 . S
C25 C21 1.377 . S
C25 C24 1.394 . S
H26 C33 0.929 . S
H27 C36 0.930 1_556 S
H28 C38 0.929 . S
H29 C30 0.969 . S
C30 H29 0.969 . S
C30 O31 1.550 1_556 S
C30 H32 0.973 . S
O31 C30 1.550 1_554 S
O31 C37 1.412 . S
H32 C30 0.973 . S
C33 H26 0.929 . S
C33 C34 1.400 . S
C33 C35 1.364 . S
C34 C33 1.400 . S
C34 C38 1.377 . S
C35 C33 1.364 . S
C35 C36 1.374 . S
C36 H27 0.930 1_554 S
C36 C35 1.374 . S
C36 C37 1.383 . S
C37 O31 1.412 . S
C37 C36 1.383 . S
C37 C38 1.394 . S
C38 H28 0.929 . S
C38 C34 1.377 . S
C38 C37 1.394 . S
H39 C46 0.929 . S
H40 C49 0.930 1_556 S
H41 C51 0.929 . S
H42 C43 0.969 . S
C43 H42 0.969 . S
C43 O44 1.550 . S
C43 H45 0.973 1_554 S
O44 C43 1.550 . S
O44 C50 1.412 . S
H45 C43 0.973 1_556 S
C46 H39 0.929 . S
C46 C47 1.400 . S
C46 C48 1.364 . S
C47 C46 1.400 . S
C47 C51 1.377 . S
C48 C46 1.364 . S
C48 C49 1.374 . S
C49 H40 0.930 1_554 S
C49 C48 1.374 . S
C49 C50 1.383 . S
C50 O44 1.412 . S
C50 C49 1.383 . S
C50 C51 1.394 . S
C51 H41 0.929 . S
C51 C47 1.377 . S
C51 C50 1.394 . S
H52 C59 0.929 . S
H53 C62 0.930 . S
H54 C64 0.929 . S
H55 C56 0.969 . S
C56 H55 0.969 . S
C56 O57 1.550 . S
C56 H58 0.973 . S
O57 C56 1.550 . S
O57 C63 1.412 . S
H58 C56 0.973 . S
C59 H52 0.929 . S
C59 C60 1.400 . S
C59 C61 1.364 . S
C60 C59 1.400 . S
C60 C64 1.377 . S
C61 C59 1.364 . S
C61 C62 1.374 . S
C62 H53 0.930 . S
C62 C61 1.374 . S
C62 C63 1.383 . S
C63 O57 1.412 . S
C63 C62 1.383 . S
C63 C64 1.394 . S
C64 H54 0.929 . S
C64 C60 1.377 . S
C64 C63 1.394 . S
H65 C72 0.929 . S
H66 C75 0.930 . S
H67 C77 0.929 . S
H68 C69 0.969 . S
C69 H68 0.969 . S
C69 O70 1.550 . S
C69 H71 0.973 . S
O70 C69 1.550 . S
O70 C76 1.412 . S
H71 C69 0.973 . S
C72 H65 0.929 . S
C72 C73 1.400 . S
C72 C74 1.364 . S
C73 C72 1.400 . S
C73 C77 1.377 . S
C74 C72 1.364 . S
C74 C75 1.374 . S
C75 H66 0.930 . S
C75 C74 1.374 . S
C75 C76 1.383 . S
C76 O70 1.412 . S
C76 C75 1.383 . S
C76 C77 1.394 . S
C77 H67 0.929 . S
C77 C73 1.377 . S
C77 C76 1.394 . S
H78 C85 0.929 . S
H79 C88 0.930 . S
H80 C90 0.929 . S
H81 C82 0.969 . S
C82 H81 0.969 . S
C82 O83 1.550 . S
C82 H84 0.973 . S
O83 C82 1.550 . S
O83 C89 1.412 . S
H84 C82 0.973 . S
C85 H78 0.929 . S
C85 C86 1.400 . S
C85 C87 1.364 . S
C86 C85 1.400 . S
C86 C90 1.377 . S
C87 C85 1.364 . S
C87 C88 1.374 . S
C88 H79 0.930 . S
C88 C87 1.374 . S
C88 C89 1.383 . S
C89 O83 1.412 . S
C89 C88 1.383 . S
C89 C90 1.394 . S
C90 H80 0.929 . S
C90 C86 1.377 . S
C90 C89 1.394 . S
H91 C98 0.929 . S
H92 C101 0.930 . S
H93 C103 0.929 . S
H94 C95 0.969 . S
C95 H94 0.969 . S
C95 O96 1.550 . S
C95 H97 0.973 . S
O96 C95 1.550 . S
O96 C102 1.412 . S
H97 C95 0.973 . S
C98 H91 0.929 . S
C98 C99 1.400 . S
C98 C100 1.364 . S
C99 C98 1.400 . S
C99 C103 1.377 . S
C100 C98 1.364 . S
C100 C101 1.374 . S
C101 H92 0.930 . S
C101 C100 1.374 . S
C101 C102 1.383 . S
C102 O96 1.412 . S
C102 C101 1.383 . S
C102 C103 1.394 . S
C103 H93 0.929 . S
C103 C99 1.377 . S
C103 C102 1.394 . S
Tb104 O107 2.453 1_565 S
Tb104 O108 2.596 1_665 S
Tb104 O109 2.374 1_665 S
Tb104 O117 2.339 1_655 S
Tb104 O119 2.353 1_565 S
Tb104 O121 2.427 . S
Tb104 O122 2.513 1_655 S
C105 O109 1.251 . S
C105 O111 1.263 . S
Tb106 O108 2.343 . S
Tb106 O111 2.353 . S
Tb106 O114 2.427 . S
Tb106 O115 2.513 1_455 S
Tb106 O116 2.453 1_545 S
Tb106 O117 2.600 1_545 S
Tb106 O118 2.374 1_455 S
O107 Tb104 2.453 1_545 S
O107 C123 1.245 1_655 S
O108 Tb104 2.596 1_445 S
O108 Tb106 2.343 . S
O108 C123 1.259 . S
O109 Tb104 2.374 1_445 S
O109 C105 1.251 . S
C110 O114 1.275 . S
C110 O115 1.246 1_455 S
O111 C105 1.263 . S
O111 Tb106 2.353 . S
C112 O116 1.245 . S
C112 O117 1.262 . S
C113 O118 1.250 . S
C113 O119 1.263 . S
O114 Tb106 2.427 . S
O114 C110 1.275 . S
O115 Tb106 2.513 1_655 S
O115 C110 1.246 1_655 S
O116 Tb106 2.453 1_565 S
O116 C112 1.245 . S
O117 Tb104 2.339 1_455 S
O117 Tb106 2.600 1_565 S
O117 C112 1.262 . S
O118 Tb106 2.374 1_655 S
O118 C113 1.250 . S
O119 Tb104 2.353 1_545 S
O119 C113 1.263 . S
C120 O121 1.275 . S
C120 O122 1.246 1_655 S
O121 Tb104 2.427 . S
O121 C120 1.275 . S
O122 Tb104 2.513 1_455 S
O122 C120 1.246 1_455 S
C123 O107 1.245 1_455 S
C123 O108 1.259 . S
Tb124 O127 2.453 . S
Tb124 O128 2.596 1_545 S
Tb124 O129 2.374 . S
Tb124 O137 2.343 . S
Tb124 O139 2.353 . S
Tb124 O141 2.427 . S
Tb124 O142 2.513 . S
C125 O129 1.227 1_565 S
C125 O131 1.281 . S
Tb126 O128 2.343 . S
Tb126 O131 2.353 . S
Tb126 O134 2.427 . S
Tb126 O135 2.513 . S
Tb126 O136 2.453 . S
Tb126 O137 2.596 1_565 S
Tb126 O138 2.374 . S
O127 Tb124 2.453 . S
O127 C143 1.245 . S
O128 Tb124 2.596 1_565 S
O128 Tb126 2.343 . S
O128 C143 1.259 1_565 S
O129 Tb124 2.374 . S
O129 C125 1.227 1_545 S
C130 O134 1.275 . S
C130 O135 1.246 . S
O131 C125 1.281 . S
O131 Tb126 2.353 . S
C132 O136 1.245 1_545 S
C132 O137 1.259 . S
C133 O138 1.250 1_545 S
C133 O139 1.263 . S
O134 Tb126 2.427 . S
O134 C130 1.275 . S
O135 Tb126 2.513 . S
O135 C130 1.246 . S
O136 Tb126 2.453 . S
O136 C132 1.245 1_565 S
O137 Tb124 2.343 . S
O137 Tb126 2.596 1_545 S
O137 C132 1.259 . S
O138 Tb126 2.374 . S
O138 C133 1.250 1_565 S
O139 Tb124 2.353 . S
O139 C133 1.263 . S
C140 O141 1.275 . S
C140 O142 1.246 . S
O141 Tb124 2.427 . S
O141 C140 1.275 . S
O142 Tb124 2.513 . S
O142 C140 1.246 . S
C143 O127 1.245 . S
C143 O128 1.259 1_545 S
Tb144 O147 2.453 . S
Tb144 O148 2.596 . S
Tb144 O149 2.374 . S
Tb144 O157 2.343 . S
Tb144 O159 2.353 . S
Tb144 O161 2.427 . S
Tb144 O162 2.513 . S
C145 O149 1.251 . S
C145 O151 1.263 . S
Tb146 O148 2.343 . S
Tb146 O151 2.353 . S
Tb146 O154 2.427 . S
Tb146 O155 2.513 . S
Tb146 O156 2.453 . S
Tb146 O157 2.596 . S
Tb146 O158 2.374 . S
O147 Tb144 2.453 . S
O147 C163 1.245 . S
O148 Tb144 2.596 . S
O148 Tb146 2.343 . S
O148 C163 1.259 . S
O149 Tb144 2.374 . S
O149 C145 1.251 . S
C150 O154 1.275 . S
C150 O155 1.246 . S
O151 C145 1.263 . S
O151 Tb146 2.353 . S
C152 O156 1.245 . S
C152 O157 1.259 . S
C153 O158 1.250 . S
C153 O159 1.263 . S
O154 Tb146 2.427 . S
O154 C150 1.275 . S
O155 Tb146 2.513 . S
O155 C150 1.246 . S
O156 Tb146 2.453 . S
O156 C152 1.245 . S
O157 Tb144 2.343 . S
O157 Tb146 2.596 . S
O157 C152 1.259 . S
O158 Tb146 2.374 . S
O158 C153 1.250 . S
O159 Tb144 2.353 . S
O159 C153 1.263 . S
C160 O161 1.275 . S
C160 O162 1.246 . S
O161 Tb144 2.427 . S
O161 C160 1.275 . S
O162 Tb144 2.513 . S
O162 C160 1.246 . S
C163 O147 1.245 . S
C163 O148 1.259 . S
Tb164 O167 2.453 1_655 S
Tb164 O168 2.596 1_655 S
Tb164 O169 2.374 1_655 S
Tb164 O177 2.343 . S
Tb164 O179 2.353 1_655 S
Tb164 O181 2.427 . S
Tb164 O182 2.513 . S
C165 O169 1.251 . S
C165 O171 1.263 . S
Tb166 O168 2.343 . S
Tb166 O171 2.353 . S
Tb166 O174 2.427 . S
Tb166 O175 2.513 . S
Tb166 O176 2.453 1_455 S
Tb166 O177 2.596 1_455 S
Tb166 O178 2.374 . S
O167 Tb164 2.453 1_455 S
O167 C183 1.245 . S
O168 Tb164 2.596 1_455 S
O168 Tb166 2.343 . S
O168 C183 1.259 . S
O169 Tb164 2.374 1_455 S
O169 C165 1.251 . S
C170 O174 1.275 . S
C170 O175 1.246 . S
O171 C165 1.263 . S
O171 Tb166 2.353 . S
C172 O176 1.245 . S
C172 O177 1.259 . S
C173 O178 1.259 . S
C173 O179 1.263 . S
O174 Tb166 2.427 . S
O174 C170 1.275 . S
O175 Tb166 2.513 . S
O175 C170 1.246 . S
O176 Tb166 2.453 1_655 S
O176 C172 1.245 . S
O177 Tb164 2.343 . S
O177 Tb166 2.596 1_655 S
O177 C172 1.259 . S
O178 Tb166 2.374 . S
O178 C173 1.259 . S
O179 Tb164 2.353 1_455 S
O179 C173 1.263 . S
C180 O181 1.275 . S
C180 O182 1.246 . S
O181 Tb164 2.427 . S
O181 C180 1.275 . S
O182 Tb164 2.513 . S
O182 C180 1.246 . S
C183 O167 1.245 . S
C183 O168 1.259 . S
C184 C185 1.363 . S
C184 C190 1.379 . S
C184 N192 1.356 . S
C185 C184 1.363 . S
C185 C191 1.363 . S
C186 C187 1.363 . S
C186 C191 1.379 . S
C186 N193 1.356 1_545 S
C187 C186 1.363 . S
C187 C190 1.363 . S
N188 C190 1.356 . S
N188 H200 0.984 . S
N188 H201 0.985 . S
N189 C191 1.356 . S
N189 H194 0.984 . S
N189 H195 0.985 1_545 S
C190 C184 1.379 . S
C190 C187 1.363 . S
C190 N188 1.356 . S
C191 C185 1.363 . S
C191 C186 1.379 . S
C191 N189 1.356 . S
N192 C184 1.356 . S
N192 H198 0.984 . S
N192 H199 0.984 . S
N193 C186 1.356 1_565 S
N193 H196 0.984 . S
N193 H197 0.985 . S
H194 N189 0.984 . S
H195 N189 0.985 1_565 S
H196 N193 0.984 . S
H197 N193 0.985 . S
H198 N192 0.984 . S
H199 N192 0.984 . S
H200 N188 0.984 . S
H201 N188 0.985 . S
C202 C203 1.363 . S
C202 C208 1.379 . S
C202 N210 1.356 . S
C203 C202 1.363 . S
C203 C209 1.363 . S
C204 C205 1.363 . S
C204 C209 1.379 . S
C204 N211 1.356 . S
C205 C204 1.363 . S
C205 C208 1.363 . S
N206 C208 1.356 . S
N206 H218 0.984 . S
N206 H219 0.985 . S
N207 C209 1.356 . S
N207 H212 0.984 . S
N207 H213 0.985 . S
C208 C202 1.379 . S
C208 C205 1.363 . S
C208 N206 1.356 . S
C209 C203 1.363 . S
C209 C204 1.379 . S
C209 N207 1.356 . S
N210 C202 1.356 . S
N210 H216 0.984 . S
N210 H217 0.984 . S
N211 C204 1.356 . S
N211 H214 0.984 . S
N211 H215 0.985 . S
H212 N207 0.984 . S
H213 N207 0.985 . S
H214 N211 0.984 . S
H215 N211 0.985 . S
H216 N210 0.984 . S
H217 N210 0.984 . S
H218 N206 0.984 . S
H219 N206 0.985 . S
C220 C221 1.363 . S
C220 C226 1.379 . S
C220 N228 1.356 . S
C221 C220 1.363 . S
C221 C227 1.363 . S
C222 C223 1.363 . S
C222 C227 1.379 . S
C222 N229 1.356 . S
C223 C222 1.363 . S
C223 C226 1.363 . S
N224 C226 1.356 . S
N224 H236 0.984 . S
N224 H237 0.985 . S
N225 C227 1.356 . S
N225 H230 0.984 . S
N225 H231 0.985 . S
C226 C220 1.379 . S
C226 C223 1.363 . S
C226 N224 1.356 . S
C227 C221 1.363 . S
C227 C222 1.379 . S
C227 N225 1.356 . S
N228 C220 1.356 . S
N228 H234 0.984 . S
N228 H235 0.984 . S
N229 C222 1.356 . S
N229 H232 0.984 . S
N229 H233 0.985 . S
H230 N225 0.984 . S
H231 N225 0.985 . S
H232 N229 0.984 . S
H233 N229 0.985 . S
H234 N228 0.984 . S
H235 N228 0.984 . S
H236 N224 0.984 . S
H237 N224 0.985 . S
C238 C239 1.363 . S
C238 C244 1.379 . S
C238 N246 1.356 . S
C239 C238 1.363 . S
C239 C245 1.363 . S
C240 C241 1.363 . S
C240 C245 1.379 . S
C240 N247 1.356 1_455 S
C241 C240 1.363 . S
C241 C244 1.363 . S
N242 C244 1.356 . S
N242 H254 0.984 . S
N242 H255 0.985 . S
N243 C245 1.356 . S
N243 H248 0.984 . S
N243 H249 0.985 . S
C244 C238 1.379 . S
C244 C241 1.363 . S
C244 N242 1.356 . S
C245 C239 1.363 . S
C245 C240 1.379 . S
C245 N243 1.356 . S
N246 C238 1.356 . S
N246 H252 0.984 . S
N246 H253 0.984 . S
N247 C240 1.356 1_655 S
N247 H250 0.984 . S
N247 H251 0.985 . S
H248 N243 0.984 . S
H249 N243 0.985 . S
H250 N247 0.984 . S
H251 N247 0.985 . S
H252 N246 0.984 . S
H253 N246 0.984 . S
H254 N242 0.984 . S
H255 N242 0.985 . S
C256 C257 1.363 . S
C256 C262 1.379 . S
C256 N264 1.356 1_556 S
C257 C256 1.363 . S
C257 C263 1.363 1_565 S
C258 C259 1.363 1_545 S
C258 C263 1.379 . S
C258 N265 1.356 . S
C259 C258 1.363 1_565 S
C259 C262 1.363 . S
N260 C262 1.356 . S
N260 H272 0.984 . S
N260 H273 0.985 . S
N261 C263 1.356 . S
N261 H266 0.984 . S
N261 H267 0.985 . S
C262 C256 1.379 . S
C262 C259 1.363 . S
C262 N260 1.356 . S
C263 C257 1.363 1_545 S
C263 C258 1.379 . S
C263 N261 1.356 . S
N264 C256 1.356 1_554 S
N264 H270 0.984 . S
N264 H271 0.984 . S
N265 C258 1.356 . S
N265 H268 0.984 . S
N265 H269 0.985 . S
H266 N261 0.984 . S
H267 N261 0.985 . S
H268 N265 0.984 . S
H269 N265 0.985 . S
H270 N264 0.984 . S
H271 N264 0.984 . S
H272 N260 0.984 . S
H273 N260 0.985 . S
C274 C275 1.363 . S
C274 C280 1.379 . S
C274 N282 1.356 . S
C275 C274 1.363 . S
C275 C281 1.363 1_556 S
C276 C277 1.363 . S
C276 C281 1.379 1_556 S
C276 N283 1.356 1_556 S
C277 C276 1.363 . S
C277 C280 1.363 . S
N278 C280 1.356 . S
N278 H290 0.984 . S
N278 H291 0.985 . S
N279 C281 1.356 . S
N279 H284 0.984 . S
N279 H285 0.985 . S
C280 C274 1.379 . S
C280 C277 1.363 . S
C280 N278 1.356 . S
C281 C275 1.363 1_554 S
C281 C276 1.379 1_554 S
C281 N279 1.356 . S
N282 C274 1.356 . S
N282 H288 0.984 . S
N282 H289 0.984 . S
N283 C276 1.356 1_554 S
N283 H286 0.984 1_554 S
N283 H287 0.985 . S
H284 N279 0.984 . S
H285 N279 0.985 . S
H286 N283 0.984 1_556 S
H287 N283 0.985 . S
H288 N282 0.984 . S
H289 N282 0.984 . S
H290 N278 0.984 . S
H291 N278 0.985 . S
C292 C293 1.363 . S
C292 C298 1.379 . S
C292 N300 1.356 1_556 S
C293 C292 1.363 . S
C293 C299 1.363 . S
C294 C295 1.363 . S
C294 C299 1.379 . S
C294 N301 1.356 . S
C295 C294 1.363 . S
C295 C298 1.363 . S
N296 C298 1.356 . S
N296 H308 0.984 . S
N296 H309 0.985 . S
N297 C299 1.356 . S
N297 H302 0.984 . S
N297 H303 0.985 . S
C298 C292 1.379 . S
C298 C295 1.363 . S
C298 N296 1.356 . S
C299 C293 1.363 . S
C299 C294 1.379 . S
C299 N297 1.356 . S
N300 C292 1.356 1_554 S
N300 H306 0.984 . S
N300 H307 0.984 . S
N301 C294 1.356 . S
N301 H304 0.984 . S
N301 H305 0.985 . S
H302 N297 0.984 . S
H303 N297 0.985 . S
H304 N301 0.984 . S
H305 N301 0.985 . S
H306 N300 0.984 . S
H307 N300 0.984 . S
H308 N296 0.984 . S
H309 N296 0.985 . S
C310 C311 1.363 . S
C310 C316 1.367 1_655 S
C310 N318 1.356 1_556 S
C311 C310 1.363 . S
C311 C317 1.363 . S
C312 C313 1.363 . S
C312 C317 1.379 . S
C312 N319 1.356 . S
C313 C312 1.363 . S
C313 C316 1.350 1_655 S
N314 C316 1.380 . S
N314 H326 0.984 1_556 S
N314 H327 0.985 . S
N315 C317 1.356 . S
N315 H320 0.984 . S
N315 H321 0.985 . S
C316 C310 1.367 1_455 S
C316 C313 1.350 1_455 S
C316 N314 1.380 . S
C317 C311 1.363 . S
C317 C312 1.379 . S
C317 N315 1.356 . S
N318 C310 1.356 1_554 S
N318 H324 0.984 1_655 S
N318 H325 0.984 . S
N319 C312 1.356 . S
N319 H322 0.984 . S
N319 H323 0.985 . S
H320 N315 0.984 . S
H321 N315 0.985 . S
H322 N319 0.984 . S
H323 N319 0.985 . S
H324 N318 0.984 1_455 S
H325 N318 0.984 . S
H326 N314 0.984 1_554 S
H327 N314 0.985 . S
C328 C329 1.363 . S
C328 C334 1.379 . S
C328 N336 1.356 . S
C329 C328 1.363 . S
C329 C335 1.363 . S
C330 C331 1.363 . S
C330 C335 1.379 . S
C330 N337 1.356 1_455 S
C331 C330 1.363 . S
C331 C334 1.363 . S
N332 C334 1.356 . S
N332 H344 0.984 . S
N332 H345 0.985 . S
N333 C335 1.356 . S
N333 H338 0.984 . S
N333 H339 0.985 1_455 S
C334 C328 1.379 . S
C334 C331 1.363 . S
C334 N332 1.356 . S
C335 C329 1.363 . S
C335 C330 1.379 . S
C335 N333 1.356 . S
N336 C328 1.356 . S
N336 H342 0.984 . S
N336 H343 0.984 . S
N337 C330 1.356 1_655 S
N337 H340 0.984 . S
N337 H341 0.985 . S
H338 N333 0.984 . S
H339 N333 0.985 1_655 S
H340 N337 0.984 . S
H341 N337 0.985 . S
H342 N336 0.984 . S
H343 N336 0.984 . S
H344 N332 0.984 . S
H345 N332 0.985 . S
C346 C347 1.363 . S
C346 C352 1.379 . S
C346 N354 1.356 . S
C347 C346 1.363 . S
C347 C353 1.363 . S
C348 C349 1.363 . S
C348 C353 1.379 . S
C348 N355 1.356 1_545 S
C349 C348 1.363 . S
C349 C352 1.363 . S
N350 C352 1.356 . S
N350 H362 0.984 . S
N350 H363 0.985 . S
N351 C353 1.356 . S
N351 H356 0.984 . S
N351 H357 0.985 1_545 S
C352 C346 1.379 . S
C352 C349 1.363 . S
C352 N350 1.356 . S
C353 C347 1.363 . S
C353 C348 1.379 . S
C353 N351 1.356 . S
N354 C346 1.356 . S
N354 H360 0.984 . S
N354 H361 0.984 . S
N355 C348 1.356 1_565 S
N355 H358 0.984 . S
N355 H359 0.985 . S
H356 N351 0.984 . S
H357 N351 0.985 1_565 S
H358 N355 0.984 . S
H359 N355 0.985 . S
H360 N354 0.984 . S
H361 N354 0.984 . S
H362 N350 0.984 . S
H363 N350 0.985 . S
C364 C365 1.363 . S
C364 C370 1.379 . S
C364 N372 1.356 . S
C365 C364 1.363 . S
C365 C371 1.363 . S
C366 C367 1.363 . S
C366 C371 1.379 . S
C366 N373 1.356 . S
C367 C366 1.363 . S
C367 C370 1.363 . S
N368 C370 1.356 . S
N368 H380 0.984 . S
N368 H381 0.985 . S
N369 C371 1.356 . S
N369 H374 0.984 . S
N369 H375 0.985 . S
C370 C364 1.379 . S
C370 C367 1.363 . S
C370 N368 1.356 . S
C371 C365 1.363 . S
C371 C366 1.379 . S
C371 N369 1.356 . S
N372 C364 1.356 . S
N372 H378 0.984 . S
N372 H379 0.984 . S
N373 C366 1.356 . S
N373 H376 0.984 . S
N373 H377 0.985 . S
H374 N369 0.984 . S
H375 N369 0.985 . S
H376 N373 0.984 . S
H377 N373 0.985 . S
H378 N372 0.984 . S
H379 N372 0.984 . S
H380 N368 0.984 . S
H381 N368 0.985 . S
C382 C383 1.363 . S
C382 C388 1.379 . S
C382 N390 1.356 . S
C383 C382 1.363 . S
C383 C389 1.363 . S
C384 C385 1.363 . S
C384 C389 1.379 . S
C384 N391 1.356 . S
C385 C384 1.363 . S
C385 C388 1.363 . S
N386 C388 1.356 . S
N386 H398 0.984 . S
N386 H399 0.985 . S
N387 C389 1.356 . S
N387 H392 0.984 . S
N387 H393 0.985 . S
C388 C382 1.379 . S
C388 C385 1.363 . S
C388 N386 1.356 . S
C389 C383 1.363 . S
C389 C384 1.379 . S
C389 N387 1.356 . S
N390 C382 1.356 . S
N390 H396 0.984 . S
N390 H397 0.984 . S
N391 C384 1.356 . S
N391 H394 0.984 . S
N391 H395 0.985 . S
H392 N387 0.984 . S
H393 N387 0.985 . S
H394 N391 0.984 . S
H395 N391 0.985 . S
H396 N390 0.984 . S
H397 N390 0.984 . S
H398 N386 0.984 . S
H399 N386 0.985 . S
C400 C401 1.363 . S
C400 C406 1.379 . S
C400 N408 1.356 1_556 S
C401 C400 1.363 . S
C401 C407 1.363 . S
C402 C403 1.363 . S
C402 C407 1.379 . S
C402 N409 1.356 1_655 S
C403 C402 1.363 . S
C403 C406 1.363 . S
N404 C406 1.356 . S
N404 H416 0.984 1_556 S
N404 H417 0.985 . S
N405 C407 1.356 . S
N405 H410 0.984 . S
N405 H411 0.985 1_655 S
C406 C400 1.379 . S
C406 C403 1.363 . S
C406 N404 1.356 . S
C407 C401 1.363 . S
C407 C402 1.379 . S
C407 N405 1.356 . S
N408 C400 1.356 1_554 S
N408 H414 0.984 . S
N408 H415 0.984 . S
N409 C402 1.356 1_455 S
N409 H412 0.984 . S
N409 H413 0.985 . S
H410 N405 0.984 . S
H411 N405 0.985 1_455 S
H412 N409 0.984 . S
H413 N409 0.985 . S
H414 N408 0.984 . S
H415 N408 0.984 . S
H416 N404 0.984 1_554 S
H417 N404 0.985 . S
C418 C419 1.363 1_545 S
C418 C424 1.379 . S
C418 N426 1.356 1_556 S
C419 C418 1.363 1_565 S
C419 C425 1.363 . S
C420 C421 1.363 . S
C420 C425 1.379 . S
C420 N427 1.356 . S
C421 C420 1.363 . S
C421 C424 1.363 1_565 S
N422 C424 1.356 . S
N422 H434 0.984 . S
N422 H435 0.985 . S
N423 C425 1.356 . S
N423 H428 0.984 . S
N423 H429 0.985 . S
C424 C418 1.379 . S
C424 C421 1.363 1_545 S
C424 N422 1.356 . S
C425 C419 1.363 . S
C425 C420 1.379 . S
C425 N423 1.356 . S
N426 C418 1.356 1_554 S
N426 H432 0.984 . S
N426 H433 0.984 . S
N427 C420 1.356 . S
N427 H430 0.984 . S
N427 H431 0.985 . S
H428 N423 0.984 . S
H429 N423 0.985 . S
H430 N427 0.984 . S
H431 N427 0.985 . S
H432 N426 0.984 . S
H433 N426 0.984 . S
H434 N422 0.984 . S
H435 N422 0.985 . S
C436 C437 1.363 . S
C436 C442 1.379 . S
C436 N444 1.356 1_556 S
C437 C436 1.363 . S
C437 C443 1.363 . S
C438 C439 1.363 . S
C438 C443 1.379 . S
C438 N445 1.356 . S
C439 C438 1.363 . S
C439 C442 1.363 . S
N440 C442 1.356 . S
N440 H452 0.984 . S
N440 H453 0.985 . S
N441 C443 1.356 . S
N441 H446 0.984 . S
N441 H447 0.985 . S
C442 C436 1.379 . S
C442 C439 1.363 . S
C442 N440 1.356 . S
C443 C437 1.363 . S
C443 C438 1.379 . S
C443 N441 1.356 . S
N444 C436 1.356 1_554 S
N444 H450 0.984 . S
N444 H451 0.984 . S
N445 C438 1.356 . S
N445 H448 0.984 . S
N445 H449 0.985 . S
H446 N441 0.984 . S
H447 N441 0.985 . S
H448 N445 0.984 . S
H449 N445 0.985 . S
H450 N444 0.984 . S
H451 N444 0.984 . S
H452 N440 0.984 . S
H453 N440 0.985 . S
C454 C455 1.363 . S
C454 C460 1.379 . S
C454 N462 1.356 1_556 S
C455 C454 1.363 . S
C455 C461 1.363 . S
C456 C457 1.363 . S
C456 C461 1.379 . S
C456 N463 1.356 . S
C457 C456 1.363 . S
C457 C460 1.363 . S
N458 C460 1.356 . S
N458 H470 0.984 1_556 S
N458 H471 0.985 . S
N459 C461 1.356 . S
N459 H464 0.984 . S
N459 H465 0.985 . S
C460 C454 1.379 . S
C460 C457 1.363 . S
C460 N458 1.356 . S
C461 C455 1.363 . S
C461 C456 1.379 . S
C461 N459 1.356 . S
N462 C454 1.356 1_554 S
N462 H468 0.984 . S
N462 H469 0.984 . S
N463 C456 1.356 . S
N463 H466 0.984 . S
N463 H467 0.985 . S
H464 N459 0.984 . S
H465 N459 0.985 . S
H466 N463 0.984 . S
H467 N463 0.985 . S
H468 N462 0.984 . S
H469 N462 0.984 . S
H470 N458 0.984 1_554 S
H471 N458 0.985 . S
C472 C473 1.363 . S
C472 C478 1.379 . S
C472 N480 1.356 . S
C473 C472 1.363 . S
C473 C479 1.363 . S
C474 C475 1.363 . S
C474 C479 1.379 . S
C474 N481 1.356 1_554 S
C475 C474 1.363 . S
C475 C478 1.363 . S
N476 C478 1.356 . S
N476 H488 0.984 1_455 S
N476 H489 0.985 . S
N477 C479 1.356 . S
N477 H482 0.984 . S
N477 H483 0.985 . S
C478 C472 1.379 . S
C478 C475 1.363 . S
C478 N476 1.356 . S
C479 C473 1.363 . S
C479 C474 1.379 . S
C479 N477 1.356 . S
N480 C472 1.356 . S
N480 H486 0.984 . S
N480 H487 0.984 . S
N481 C474 1.356 1_556 S
N481 H484 0.984 . S
N481 H485 0.985 . S
H482 N477 0.984 . S
H483 N477 0.985 . S
H484 N481 0.984 . S
H485 N481 0.985 . S
H486 N480 0.984 . S
H487 N480 0.984 . S
H488 N476 0.984 1_655 S
H489 N476 0.985 . S
C490 C491 1.363 . S
C490 C496 1.379 1_554 S
C490 N498 1.356 . S
C491 C490 1.363 . S
C491 C497 1.363 . S
C492 C493 1.363 . S
C492 C497 1.379 . S
C492 N499 1.356 . S
C493 C492 1.363 . S
C493 C496 1.363 1_554 S
N494 C496 1.356 . S
N494 H506 0.984 1_545 S
N494 H507 0.985 . S
N495 C497 1.356 . S
N495 H500 0.984 . S
N495 H501 0.985 . S
C496 C490 1.379 1_556 S
C496 C493 1.363 1_556 S
C496 N494 1.356 . S
C497 C491 1.363 . S
C497 C492 1.379 . S
C497 N495 1.356 . S
N498 C490 1.356 . S
N498 H504 0.984 1_554 S
N498 H505 0.984 . S
N499 C492 1.356 . S
N499 H502 0.984 . S
N499 H503 0.985 . S
H500 N495 0.984 . S
H501 N495 0.985 . S
H502 N499 0.984 . S
H503 N499 0.985 . S
H504 N498 0.984 1_556 S
H505 N498 0.984 . S
H506 N494 0.984 1_565 S
H507 N494 0.985 . S
C508 C509 1.363 . S
C508 C514 1.379 . S
C508 N516 1.356 . S
C509 C508 1.363 . S
C509 C515 1.363 . S
C510 C511 1.363 . S
C510 C515 1.379 . S
C510 N517 1.356 1_554 S
C511 C510 1.363 . S
C511 C514 1.363 . S
N512 C514 1.356 . S
N512 H524 0.984 . S
N512 H525 0.985 . S
N513 C515 1.356 . S
N513 H518 0.984 . S
N513 H519 0.985 . S
C514 C508 1.379 . S
C514 C511 1.363 . S
C514 N512 1.356 . S
C515 C509 1.363 . S
C515 C510 1.379 . S
C515 N513 1.356 . S
N516 C508 1.356 . S
N516 H522 0.984 . S
N516 H523 0.984 . S
N517 C510 1.356 1_556 S
N517 H520 0.984 . S
N517 H521 0.985 . S
H518 N513 0.984 . S
H519 N513 0.985 . S
H520 N517 0.984 . S
H521 N517 0.985 . S
H522 N516 0.984 . S
H523 N516 0.984 . S
H524 N512 0.984 . S
H525 N512 0.985 . S
C526 C527 1.363 . S
C526 C532 1.379 . S
C526 N534 1.356 . S
C527 C526 1.363 . S
C527 C533 1.363 . S
C528 C529 1.363 . S
C528 C533 1.379 . S
C528 N535 1.356 1_554 S
C529 C528 1.363 . S
C529 C532 1.363 . S
N530 C532 1.356 . S
N530 H542 0.984 . S
N530 H543 0.985 . S
N531 C533 1.356 . S
N531 H536 0.984 . S
N531 H537 0.985 . S
C532 C526 1.379 . S
C532 C529 1.363 . S
C532 N530 1.356 . S
C533 C527 1.363 . S
C533 C528 1.379 . S
C533 N531 1.356 . S
N534 C526 1.356 . S
N534 H540 0.984 . S
N534 H541 0.984 . S
N535 C528 1.356 1_556 S
N535 H538 0.984 . S
N535 H539 0.985 . S
H536 N531 0.984 . S
H537 N531 0.985 . S
H538 N535 0.984 . S
H539 N535 0.985 . S
H540 N534 0.984 . S
H541 N534 0.984 . S
H542 N530 0.984 . S
H543 N530 0.985 . S
C544 C545 1.363 . S
C544 C550 1.379 . S
C544 N552 1.356 . S
C545 C544 1.363 . S
C545 C551 1.363 . S
C546 C547 1.363 . S
C546 C551 1.379 . S
C546 N553 1.356 . S
C547 C546 1.363 . S
C547 C550 1.363 . S
N548 C550 1.356 . S
N548 H560 0.984 . S
N548 H561 0.985 . S
N549 C551 1.356 . S
N549 H554 0.984 . S
N549 H555 0.985 . S
C550 C544 1.379 . S
C550 C547 1.363 . S
C550 N548 1.356 . S
C551 C545 1.363 . S
C551 C546 1.379 . S
C551 N549 1.356 . S
N552 C544 1.356 . S
N552 H558 0.984 . S
N552 H559 0.984 . S
N553 C546 1.356 . S
N553 H556 0.984 . S
N553 H557 0.985 . S
H554 N549 0.984 . S
H555 N549 0.985 . S
H556 N553 0.984 . S
H557 N553 0.985 . S
H558 N552 0.984 . S
H559 N552 0.984 . S
H560 N548 0.984 . S
H561 N548 0.985 . S
C562 C563 1.363 1_545 S
C562 C568 1.379 . S
C562 N570 1.356 . S
C563 C562 1.363 1_565 S
C563 C569 1.363 . S
C564 C565 1.363 . S
C564 C569 1.379 . S
C564 N571 1.356 . S
C565 C564 1.363 . S
C565 C568 1.363 1_565 S
N566 C568 1.356 . S
N566 H578 0.984 . S
N566 H579 0.985 . S
N567 C569 1.356 . S
N567 H572 0.984 . S
N567 H573 0.985 . S
C568 C562 1.379 . S
C568 C565 1.363 1_545 S
C568 N566 1.356 . S
C569 C563 1.363 . S
C569 C564 1.379 . S
C569 N567 1.356 . S
N570 C562 1.356 . S
N570 H576 0.984 . S
N570 H577 0.984 . S
N571 C564 1.356 . S
N571 H574 0.984 . S
N571 H575 0.985 . S
H572 N567 0.984 . S
H573 N567 0.985 . S
H574 N571 0.984 . S
H575 N571 0.985 . S
H576 N570 0.984 . S
H577 N570 0.984 . S
H578 N566 0.984 . S
H579 N566 0.985 . S
C580 C581 1.363 . S
C580 C586 1.379 . S
C580 N588 1.356 . S
C581 C580 1.363 . S
C581 C587 1.363 . S
C582 C583 1.363 . S
C582 C587 1.379 . S
C582 N589 1.356 . S
C583 C582 1.363 . S
C583 C586 1.363 . S
N584 C586 1.356 . S
N584 H596 0.984 . S
N584 H597 0.985 . S
N585 C587 1.356 . S
N585 H590 0.984 . S
N585 H591 0.985 . S
C586 C580 1.379 . S
C586 C583 1.363 . S
C586 N584 1.356 . S
C587 C581 1.363 . S
C587 C582 1.379 . S
C587 N585 1.356 . S
N588 C580 1.356 . S
N588 H594 0.984 . S
N588 H595 0.984 . S
N589 C582 1.356 . S
N589 H592 0.984 . S
N589 H593 0.985 . S
H590 N585 0.984 . S
H591 N585 0.985 . S
H592 N589 0.984 . S
H593 N589 0.985 . S
H594 N588 0.984 . S
H595 N588 0.984 . S
H596 N584 0.984 . S
H597 N584 0.985 . S
C598 C599 1.363 . S
C598 C604 1.379 . S
C598 N606 1.356 . S
C599 C598 1.363 . S
C599 C605 1.363 . S
C600 C601 1.363 . S
C600 C605 1.379 . S
C600 N607 1.356 . S
C601 C600 1.363 . S
C601 C604 1.363 . S
N602 C604 1.356 . S
N602 H614 0.984 . S
N602 H615 0.985 . S
N603 C605 1.356 . S
N603 H608 0.984 . S
N603 H609 0.985 . S
C604 C598 1.379 . S
C604 C601 1.363 . S
C604 N602 1.356 . S
C605 C599 1.363 . S
C605 C600 1.379 . S
C605 N603 1.356 . S
N606 C598 1.356 . S
N606 H612 0.984 . S
N606 H613 0.984 . S
N607 C600 1.356 . S
N607 H610 0.984 . S
N607 H611 0.985 . S
H608 N603 0.984 . S
H609 N603 0.985 . S
H610 N607 0.984 . S
H611 N607 0.985 . S
H612 N606 0.984 . S
H613 N606 0.984 . S
H614 N602 0.984 . S
H615 N602 0.985 . S
C185 C82 1.519 . S
C187 C105 1.598 . S
C205 C140 1.608 . S
C203 C95 1.516 . S
C223 C145 1.379 . S
C221 C56 1.296 . S
C241 C165 1.545 . S
C239 C69 1.503 . S
C259 C113 1.598 1_565 S
C257 C30 1.456 . S
C275 C43 1.410 1_556 S
C277 C130 1.608 . S
C293 C4 1.265 . S
C295 C153 1.379 . S
C311 C17 1.427 . S
C313 C173 1.536 1_655 S
C331 C123 1.431 . S
C329 C74 1.370 . S
C349 C132 1.204 . S
C347 C87 1.172 . S
C367 C163 1.463 . S
C365 C100 1.405 . S
C383 C61 1.116 . S
C385 C183 1.129 . S
C401 C22 1.366 . S
C403 C112 1.430 1_655 S
C421 C143 1.204 1_565 S
C419 C35 1.169 1_556 S
C439 C152 1.464 . S
C437 C48 1.398 1_556 S
C455 C9 1.115 1_556 S
C457 C172 1.129 . S
C473 C73 1.469 . S
C475 C110 1.475 1_554 S
C491 C86 1.504 . S
C493 C133 1.567 1_554 S
C511 C150 1.571 1_554 S
C509 C99 1.526 . S
C529 C170 1.562 1_554 S
C527 C60 1.542 . S
C545 C21 1.465 . S
C547 C120 1.475 . S
C565 C125 1.574 . S
C563 C34 1.499 . S
C583 C160 1.571 . S
C581 C47 1.518 . S
C599 C8 1.540 . S
C601 C180 1.562 . S
