# Generated by pormake.
# Topology anh, (6,3)-cn, num edge types: 1
# Building blocks:
#     Node 0, Type 0, BuildingBlock: PAMTOO_clean_sbu_0, # of connection points: 6
#     Node 1, Type 0, BuildingBlock: PAMTOO_clean_sbu_0, # of connection points: 6
#     Node 2, Type 0, BuildingBlock: PAMTOO_clean_sbu_0, # of connection points: 6
#     Node 3, Type 1, BuildingBlock: PAMTOO_clean_linker_0, # of connection points: 3
#     Node 4, Type 1, BuildingBlock: PAMTOO_clean_linker_0, # of connection points: 3
#     Node 5, Type 1, BuildingBlock: PAMTOO_clean_linker_0, # of connection points: 3
#     Node 6, Type 1, BuildingBlock: PAMTOO_clean_linker_0, # of connection points: 3
#     Node 7, Type 1, BuildingBlock: PAMTOO_clean_linker_0, # of connection points: 3
#     Node 8, Type 1, BuildingBlock: PAMTOO_clean_linker_0, # of connection points: 3
#     Edge 9, Type (0, 1), BuildingBlock: XUDNAN_clean_linker_2, # of connection points: 2
#     Edge 10, Type (0, 1), BuildingBlock: XUDNAN_clean_linker_2, # of connection points: 2
#     Edge 11, Type (0, 1), BuildingBlock: XUDNAN_clean_linker_2, # of connection points: 2
#     Edge 12, Type (0, 1), BuildingBlock: XUDNAN_clean_linker_2, # of connection points: 2
#     Edge 13, Type (0, 1), BuildingBlock: XUDNAN_clean_linker_2, # of connection points: 2
#     Edge 14, Type (0, 1), BuildingBlock: XUDNAN_clean_linker_2, # of connection points: 2
#     Edge 15, Type (0, 1), BuildingBlock: XUDNAN_clean_linker_2, # of connection points: 2
#     Edge 16, Type (0, 1), BuildingBlock: XUDNAN_clean_linker_2, # of connection points: 2
#     Edge 17, Type (0, 1), BuildingBlock: XUDNAN_clean_linker_2, # of connection points: 2
#     Edge 18, Type (0, 1), BuildingBlock: XUDNAN_clean_linker_2, # of connection points: 2
#     Edge 19, Type (0, 1), BuildingBlock: XUDNAN_clean_linker_2, # of connection points: 2
#     Edge 20, Type (0, 1), BuildingBlock: XUDNAN_clean_linker_2, # of connection points: 2
#     Edge 21, Type (0, 1), BuildingBlock: XUDNAN_clean_linker_2, # of connection points: 2
#     Edge 22, Type (0, 1), BuildingBlock: XUDNAN_clean_linker_2, # of connection points: 2
#     Edge 23, Type (0, 1), BuildingBlock: XUDNAN_clean_linker_2, # of connection points: 2
#     Edge 24, Type (0, 1), BuildingBlock: XUDNAN_clean_linker_2, # of connection points: 2
#     Edge 25, Type (0, 1), BuildingBlock: XUDNAN_clean_linker_2, # of connection points: 2
#     Edge 26, Type (0, 1), BuildingBlock: XUDNAN_clean_linker_2, # of connection points: 2
# Relax obj value: 0.163
# Max RMSD: 0.159
# Mean RMSD: 0.118
data_MOF--net-anh--node1-PAMTOO_clean_sbu_0--node2-PAMTOO_clean_linker_0--edge1-XUDNAN_clean_linker_2
_symmetry_space_group_name_H-M    P1
_symmetry_Int_Tables_number       1
_symmetry_cell_setting            triclinic
loop_
_symmetry_equiv_pos_as_xyz
'x, y, z'
_cell_length_a     29.675375
_cell_length_b     29.205356
_cell_length_c     49.167756
_cell_angle_alpha  87.390623
_cell_angle_beta   96.459513
_cell_angle_gamma 99.786405
loop_
_atom_site_label
_atom_site_type_symbol
_atom_site_fract_x
_atom_site_fract_y
_atom_site_fract_z
_atom_type_partial_charge
Dy0 Dy 0.16941 0.57424 0.14991 0.0
Dy1 Dy 0.14848 0.45939 0.15305 0.0
C2 C 0.15704 0.51299 0.0971 0.0
O3 O 1.09645 0.55541 0.15942 0.0
O4 O 1.07993 0.48267 0.1417 0.0
O5 O 0.19439 0.63718 0.12759 0.0
O6 O 0.16505 0.64099 0.16565 0.0
O7 O 0.14262 0.48526 0.194 0.0
O8 O 0.19328 0.55353 0.19278 0.0
O9 O 0.22623 0.47491 0.15951 0.0
O10 O 0.23833 0.55372 0.14878 0.0
O11 O 0.14599 0.39405 0.17592 0.0
O12 O 0.12047 0.39515 0.13292 0.0
C13 C 1.06647 0.51914 0.15094 0.0
O14 O 0.14392 0.54848 0.10763 0.0
O15 O 0.17193 0.4801 0.11264 0.0
C16 C 0.22596 0.70021 0.1556 0.0
C17 C 0.30109 0.76972 0.17195 0.0
C18 C 0.2671 0.77897 0.15107 0.0
C19 C 0.22981 0.7445 0.14301 0.0
C20 C 0.25988 0.69061 0.17633 0.0
C21 C 0.29705 0.72517 0.18453 0.0
C22 C 0.18707 0.66412 0.14648 0.0
C23 C 0.17184 0.51839 0.20645 0.0
C24 C 0.25384 0.51441 0.15484 0.0
C25 C 1.07781 0.34327 0.16164 0.0
C26 C 0.99043 0.29225 0.16915 0.0
C27 C 0.9979 0.34106 0.169 0.0
C28 C 1.04124 0.36629 0.16543 0.0
C29 C 1.07085 0.29459 0.16222 0.0
C30 C 1.02746 0.26918 0.16612 0.0
C31 C 0.12213 0.37047 0.15567 0.0
H32 H 0.26904 0.81306 0.14119 0.0
H33 H 0.20399 0.7524 0.12691 0.0
H34 H 0.25769 0.65638 0.18607 0.0
H35 H 0.32297 0.71685 0.20044 0.0
H36 H 0.97021 0.35976 0.17169 0.0
H37 H 1.04603 0.40387 0.16526 0.0
H38 H 0.09869 0.27631 0.15924 0.0
H39 H 1.02255 0.23158 0.16604 0.0
Dy40 Dy 0.61973 0.07568 0.5102 0.0
Dy41 Dy 0.73321 0.09756 0.51529 0.0
C42 C 0.67822 0.09715 0.56596 0.0
O43 O 0.6353 0.15061 0.49705 0.0
O44 O 0.71224 0.16743 0.51341 0.0
O45 O 0.55969 0.05445 0.53148 0.0
O46 O 0.55216 0.07092 0.48785 0.0
O47 O 0.70818 0.10428 0.47077 0.0
O48 O 0.641 0.05262 0.47181 0.0
O49 O 0.71525 0.02163 0.50842 0.0
O50 O 0.64334 1.00816 0.52335 0.0
O51 O 0.79895 0.09815 0.49999 0.0
O52 O 0.79601 0.12095 0.54091 0.0
C53 C 0.67338 0.18036 0.50312 0.0
O54 O 0.64653 0.1118 0.54883 0.0
O55 O 0.70966 0.07738 0.55666 0.0
C56 C 0.49684 0.01222 0.50534 0.0
C57 C 0.4318 0.92982 0.50226 0.0
C58 C 0.42185 0.96976 0.51367 0.0
C59 C 0.4541 1.01061 0.51516 0.0
C60 C 0.50695 0.97263 0.49371 0.0
C61 C 0.4745 0.93175 0.49202 0.0
C62 C 0.53141 0.05438 0.50916 0.0
C63 C 0.67449 0.07468 0.45853 0.0
C64 C 0.67927 0.99308 0.51577 0.0
C65 C 0.85763 0.15948 0.51721 0.0
C66 C 0.9271 0.23691 0.50977 0.0
C67 C 0.91031 0.20629 0.48829 0.0
C68 C 0.87605 0.16793 0.49199 0.0
C69 C 0.87454 0.19002 0.5387 0.0
C70 C 0.90869 0.22834 0.53499 0.0
C71 C 0.82211 0.11833 0.52159 0.0
H72 H 0.38903 0.96944 0.52142 0.0
H73 H 0.44591 0.04079 0.52435 0.0
H74 H 0.54013 0.97313 0.48637 0.0
H75 H 0.48321 0.90136 0.48334 0.0
H76 H 0.92424 0.21145 0.46874 0.0
H77 H 0.86427 0.14474 0.47513 0.0
H78 H 0.86146 0.1843 0.55849 0.0
H79 H 0.92044 0.25148 0.55187 0.0
Dy80 Dy 0.72845 0.60669 0.84228 0.0
Dy81 Dy 0.61674 0.58308 0.8259 0.0
C82 C 0.68484 0.60444 0.7797 0.0
O83 O 0.69785 0.66486 0.85598 0.0
O84 O 0.64006 0.66012 0.82128 0.0
O85 O 0.79128 0.65529 0.83892 0.0
O86 O 0.79281 0.58969 0.86121 0.0
O87 O 0.62463 0.57745 0.87151 0.0
O88 O 0.70285 0.57956 0.88179 0.0
O89 O 0.63976 0.51491 0.83714 0.0
O90 O 0.71287 0.53556 0.82514 0.0
O91 O 0.55693 0.54639 0.80233 0.0
O92 O 0.54964 0.59945 0.8302 0.0
C93 C 0.66836 0.68465 0.83973 0.0
O94 O 0.71594 0.6259 0.79797 0.0
O95 O 0.6466 0.57961 0.78666 0.0
C96 C 0.85277 0.61617 0.83452 0.0
C97 C 0.92115 0.58533 0.80836 0.0
C98 C 0.87465 0.57408 0.798 0.0
C99 C 0.84069 0.5895 0.81096 0.0
C100 C 0.89916 0.62989 0.84392 0.0
C101 C 0.93319 0.61471 0.83087 0.0
C102 C 0.81691 0.62618 0.85043 0.0
C103 C 0.6608 0.5732 0.88891 0.0
C104 C 0.67795 0.50354 0.83041 0.0
C105 C 0.49219 0.53351 0.82662 0.0
C106 C 0.42242 0.47082 0.84926 0.0
C107 C 0.46899 0.46769 0.85676 0.0
C108 C 0.50358 0.49887 0.84559 0.0
C109 C 0.44599 0.53718 0.81924 0.0
C110 C 0.41131 0.50611 0.83049 0.0
C111 C 0.52851 0.56574 0.81459 0.0
H112 H 0.86445 0.55155 0.78069 0.0
H113 H 0.80486 0.57882 0.80338 0.0
H114 H 0.90894 0.65048 0.86208 0.0
H115 H 0.96866 0.62334 0.8396 0.0
H116 H 0.47874 0.44059 0.87085 0.0
H117 H 0.53923 0.4957 0.85155 0.0
H118 H 0.43674 0.56399 0.80475 0.0
H119 H 0.37583 0.50988 0.82459 0.0
H120 H 0.74104 0.10204 0.26137 0.0
H121 H 0.61336 1.00576 0.25151 0.0
H122 H 0.67031 0.07272 0.18101 0.0
H123 H 0.56031 0.04438 0.17078 0.0
C124 C 0.56142 0.02928 0.19196 0.0
O125 O 0.60266 0.01335 0.19843 0.0
H126 H 0.55795 0.05735 0.20583 0.0
C127 C 0.71231 0.08376 0.24838 0.0
C128 C 0.71 0.09142 0.21982 0.0
C129 C 0.67764 0.05295 0.26023 0.0
C130 C 0.64078 0.02932 0.243 0.0
C131 C 0.63818 0.03669 0.21462 0.0
C132 C 0.67258 0.06769 0.20306 0.0
H133 H 0.67417 0.68325 0.58006 0.0
H134 H 0.67802 0.53772 0.57396 0.0
H135 H 0.65439 0.62078 0.50097 0.0
H136 H 0.61069 0.51763 0.49276 0.0
C137 C 0.62833 0.50523 0.51214 0.0
O138 O 0.66626 0.5379 0.52041 0.0
H139 H 0.6038 0.50028 0.52802 0.0
C140 C 0.67038 0.65284 0.5676 0.0
C141 C 0.66203 0.65727 0.53903 0.0
C142 C 0.67617 0.61005 0.58031 0.0
C143 C 0.67261 0.57078 0.56436 0.0
C144 C 0.66465 0.57469 0.53577 0.0
C145 C 0.65947 0.61787 0.52311 0.0
H146 H 0.13078 0.45007 0.88786 0.0
H147 H 0.14385 0.32241 0.93325 0.0
H148 H 1.09801 0.3195 0.8474 0.0
H149 H 0.13864 0.22715 0.8656 0.0
C150 C 0.1496 0.24359 0.88575 0.0
O151 O 0.11648 0.26901 0.89154 0.0
H152 H 0.15104 0.21494 0.90131 0.0
C153 C 0.13021 0.41285 0.88854 0.0
C154 C 0.11562 0.38794 0.86448 0.0
C155 C 0.13974 0.38992 0.91373 0.0
C156 C 0.13593 0.34119 0.9143 0.0
C157 C 0.12107 0.31601 0.89044 0.0
C158 C 0.1104 0.3393 0.86564 0.0
H159 H 0.13704 0.46217 0.4102 0.0
H160 H 0.2271 0.59427 0.40786 0.0
H161 H 0.16567 0.54772 0.48117 0.0
H162 H 0.16807 0.64746 0.4677 0.0
C163 C 0.19944 0.6541 0.4567 0.0
O164 O 0.21952 0.61473 0.45802 0.0
H165 H 0.18881 0.66342 0.43499 0.0
C166 C 0.15422 0.49374 0.42013 0.0
C167 C 0.14789 0.50042 0.44749 0.0
C168 C 0.18273 0.52724 0.40552 0.0
C169 C 0.20468 0.56808 0.41857 0.0
C170 C 0.19831 0.57527 0.44572 0.0
C171 C 0.1703 0.54149 0.46019 0.0
H172 H 0.67593 1.00233 0.7629 0.0
H173 H 0.68742 0.14846 0.77708 0.0
H174 H 0.68143 0.05165 0.84493 0.0
H175 H 0.64384 0.15232 0.8555 0.0
C176 C 0.65322 0.16177 0.83448 0.0
O177 O 0.68922 0.13948 0.82995 0.0
H178 H 0.6223 0.15045 0.81981 0.0
C179 C 0.67817 0.03042 0.77689 0.0
C180 C 0.67909 0.02076 0.8053 0.0
C181 C 0.68016 0.07627 0.76637 0.0
C182 C 0.68448 0.11274 0.78463 0.0
C183 C 0.68459 0.1037 0.81276 0.0
C184 C 0.68149 0.05792 0.82305 0.0
H185 H 0.74401 0.49788 0.08578 0.0
H186 H 0.60426 0.51042 0.09577 0.0
H187 H 0.70098 0.50081 0.16647 0.0
H188 H 0.58953 0.45882 0.176 0.0
C189 C 0.57994 0.47284 0.15517 0.0
O190 O 0.61466 0.50859 0.14865 0.0
H191 H 0.57612 0.44405 0.14055 0.0
C192 C 0.71733 0.49921 0.09891 0.0
C193 C 0.72853 0.49884 0.1275 0.0
C194 C 0.6727 0.50336 0.08705 0.0
C195 C 0.63849 0.5057 0.1043 0.0
C196 C 0.64814 0.50361 0.13278 0.0
C197 C 0.69327 0.50061 0.14441 0.0
H198 H 0.30398 0.44134 0.15576 0.0
H199 H 0.31988 0.59194 0.1567 0.0
H200 H 0.40341 0.59763 0.15696 0.0
H201 H 0.40919 0.43122 0.20024 0.0
H202 H 0.42264 0.38442 0.18161 0.0
H203 H 0.36362 0.39154 0.18219 0.0
H204 H 0.35295 0.39486 0.12919 0.0
H205 H 0.41197 0.38793 0.12844 0.0
H206 H 0.39104 0.43702 0.11097 0.0
H207 H 0.48585 0.58806 0.15697 0.0
H208 H 0.56116 0.56328 0.15634 0.0
H209 H 0.49408 0.41918 0.15449 0.0
C210 C 0.32505 0.47547 0.15623 0.0
C211 C 0.3048 0.51614 0.15617 0.0
C212 C 0.33398 0.5601 0.15659 0.0
C213 C 0.38177 0.56382 0.15679 0.0
C214 C 0.40053 0.52332 0.15653 0.0
C215 C 0.37322 0.47993 0.15629 0.0
C216 C 0.40254 0.44207 0.15565 0.0
C217 C 0.3993 0.41044 0.18146 0.0
C218 C 0.3888 0.41381 0.1295 0.0
C219 C 0.4503 0.47104 0.15543 0.0
C220 C 0.44828 0.51784 0.15606 0.0
C221 C 0.48783 0.55148 0.15629 0.0
C222 C 0.53059 0.53703 0.15582 0.0
C223 C 0.53369 0.48922 0.15476 0.0
C224 C 0.4928 0.45598 0.15481 0.0
H225 H 0.93679 0.2957 0.46472 0.0
H226 H 1.0013 0.26931 0.54634 0.0
H227 H 1.06274 0.33621 0.54021 0.0
H228 H 1.04093 0.32598 0.43321 0.0
H229 H 1.02034 0.37044 0.41092 0.0
H230 H 0.98034 0.3218 0.42226 0.0
H231 H 0.9341 0.37836 0.44157 0.0
H232 H 0.97404 0.4272 0.43034 0.0
H233 H 0.96304 0.42112 0.46574 0.0
H234 H 0.11855 0.40468 0.52463 0.0
H235 H 0.16533 0.46832 0.50029 0.0
H236 H 1.0643 0.44965 0.42894 0.0
C237 C 0.96392 0.30381 0.48128 0.0
C238 C 0.96404 0.2773 0.50607 0.0
C239 C 0.99999 0.28951 0.52733 0.0
C240 C 1.03519 0.32733 0.524 0.0
C241 C 1.03398 0.35267 0.49932 0.0
C242 C 0.99932 0.34139 0.47831 0.0
C243 C 1.00656 0.37356 0.45359 0.0
C244 C 1.0124 0.34631 0.42852 0.0
C245 C 0.96709 0.40173 0.44746 0.0
C246 C 1.05102 0.40431 0.46385 0.0
C247 C 1.06616 0.39192 0.49032 0.0
C248 C 0.1069 0.41488 0.50395 0.0
C249 C 0.1331 0.45116 0.49002 0.0
C250 C 0.11853 0.464 0.46271 0.0
C251 C 1.07665 0.4404 0.44969 0.0
H252 H 0.62553 0.74232 0.80316 0.0
H253 H 0.71664 0.74257 0.87876 0.0
H254 H 0.72576 0.82791 0.87931 0.0
H255 H 0.68714 0.84214 0.77294 0.0
H256 H 0.63715 0.86433 0.75709 0.0
H257 H 0.63448 0.8028 0.76355 0.0
H258 H 0.56502 0.80119 0.79134 0.0
H259 H 0.56728 0.86272 0.78481 0.0
H260 H 0.56997 0.83978 0.81951 0.0
H261 H 0.72987 0.91315 0.87013 0.0
H262 H 0.72738 0.99289 0.85228 0.0
H263 H 0.63172 0.93839 0.7833 0.0
C264 C 0.64677 0.76027 0.82006 0.0
C265 C 0.67028 0.73561 0.84095 0.0
C266 C 0.69826 0.76055 0.86251 0.0
C267 C 0.70364 0.8091 0.86305 0.0
C268 C 0.68072 0.8324 0.84193 0.0
C269 C 0.65262 0.80891 0.82091 0.0
C270 C 0.6335 0.84265 0.80015 0.0
C271 C 0.64901 0.83767 0.77176 0.0
C272 C 0.58081 0.83619 0.79889 0.0
C273 C 0.65588 0.88867 0.8126 0.0
C274 C 0.68279 0.88188 0.83675 0.0
C275 C 0.70833 0.91896 0.85145 0.0
C276 C 0.70643 0.96425 0.8412 0.0
C277 C 0.67905 0.97233 0.81645 0.0
C278 C 0.65325 0.93371 0.80216 0.0
H279 H 0.99054 0.46256 0.12481 0.0
H280 H 1.02886 0.5766 0.18092 0.0
H281 H 0.94697 0.5785 0.18428 0.0
H282 H 0.89539 0.50662 0.08811 0.0
H283 H 0.85996 0.45045 0.08315 0.0
H284 H 0.92164 0.45555 0.08675 0.0
H285 H 0.91738 0.39534 0.12701 0.0
H286 H 0.85562 0.39016 0.12373 0.0
H287 H 0.88864 0.40517 0.15608 0.0
H288 H 0.86048 0.56979 0.18081 0.0
H289 H 0.77664 0.55598 0.1673 0.0
H290 H 0.79317 0.44926 0.11241 0.0
C291 C 0.98171 0.48769 0.13796 0.0
C292 C 1.0165 0.51939 0.15264 0.0
C293 C 1.00317 0.55201 0.16937 0.0
C294 C 0.95658 0.55321 0.17156 0.0
C295 C 0.92322 0.52174 0.15679 0.0
C296 C 0.93512 0.48983 0.14011 0.0
C297 C 0.89234 0.46185 0.12513 0.0
C298 C 0.89235 0.46907 0.09394 0.0
C299 C 0.88824 0.41006 0.13349 0.0
C300 C 0.85472 0.48354 0.13567 0.0
C301 C 0.87329 0.51748 0.15427 0.0
C302 C 0.84556 0.54309 0.16636 0.0
C303 C 0.7978 0.53474 0.15872 0.0
C304 C 0.77797 0.50143 0.13887 0.0
C305 C 0.80707 0.47499 0.12765 0.0
H306 H 0.40378 0.87173 0.45906 0.0
H307 H 0.38264 0.8901 0.5435 0.0
H308 H 0.32298 0.8198 0.54165 0.0
H309 H 0.28682 0.83558 0.43518 0.0
H310 H 0.2974 0.79357 0.41193 0.0
H311 H 0.34061 0.84345 0.42039 0.0
H312 H 0.39988 0.78949 0.43643 0.0
H313 H 0.35688 0.73938 0.42789 0.0
H314 H 0.38646 0.74446 0.46198 0.0
H315 H 0.26395 0.74921 0.53021 0.0
H316 H 0.20842 0.68377 0.50946 0.0
H317 H 0.26735 0.71173 0.43246 0.0
C318 C 0.38707 0.86049 0.47727 0.0
C319 C 0.39775 0.88629 0.50143 0.0
C320 C 0.37462 0.87101 0.52471 0.0
C321 C 0.34092 0.83102 0.52391 0.0
C322 C 0.33075 0.80672 0.49966 0.0
C323 C 0.35314 0.82079 0.47677 0.0
C324 C 0.33433 0.78958 0.45292 0.0
C325 C 0.31355 0.8172 0.42868 0.0
C326 C 0.37161 0.76422 0.4443 0.0
C327 C 0.29745 0.75618 0.46588 0.0
C328 C 0.2962 0.76645 0.49293 0.0
C329 C 0.26457 0.74084 0.50905 0.0
C330 C 0.23314 0.70395 0.49713 0.0
C331 C 0.23331 0.69354 0.46934 0.0
C332 C 0.26631 0.71954 0.45368 0.0
H333 H 0.61801 0.42627 0.84577 0.0
H334 H 0.74728 0.46826 0.81077 0.0
H335 H 0.75499 0.38601 0.80776 0.0
H336 H 0.65252 0.33082 0.88695 0.0
H337 H 0.59714 0.29412 0.88155 0.0
H338 H 0.60103 0.35638 0.88045 0.0
H339 H 0.55665 0.35266 0.83191 0.0
H340 H 0.55254 0.29036 0.83287 0.0
H341 H 0.5777 0.32444 0.80521 0.0
H342 H 0.74851 0.29927 0.80796 0.0
H343 H 0.72951 0.21409 0.8127 0.0
H344 H 0.60554 0.2276 0.84872 0.0
C345 C 0.64786 0.4182 0.83737 0.0
C346 C 0.68197 0.45387 0.82844 0.0
C347 C 0.72065 0.4417 0.81776 0.0
C348 C 0.72536 0.395 0.81592 0.0
C349 C 0.69123 0.36076 0.82494 0.0
C350 C 0.65329 0.3717 0.83553 0.0
C351 C 0.62196 0.32814 0.84418 0.0
C352 C 0.61795 0.32733 0.87512 0.0
C353 C 0.5744 0.32365 0.82754 0.0
C354 C 0.64828 0.29107 0.83682 0.0
C355 C 0.68802 0.31066 0.82563 0.0
C356 C 0.71767 0.28351 0.81689 0.0
C357 C 0.70656 0.23501 0.81975 0.0
C358 C 0.66634 0.21407 0.83161 0.0
C359 C 0.6368 0.2427 0.83999 0.0
H360 H 0.62714 0.92078 0.54196 0.0
H361 H 0.72905 0.95131 0.48402 0.0
H362 H 0.72787 0.86751 0.47926 0.0
H363 H 0.67441 0.82864 0.57658 0.0
H364 H 0.61986 0.79393 0.58236 0.0
H365 H 0.62507 0.85615 0.579 0.0
H366 H 0.55854 0.84723 0.53962 0.0
H367 H 0.55342 0.78486 0.54275 0.0
H368 H 0.56259 0.814 0.51024 0.0
H369 H 0.71905 0.78086 0.48243 0.0
H370 H 0.70913 0.69803 0.49716 0.0
H371 H 0.61431 0.7232 0.55362 0.0
C372 C 0.64882 0.90975 0.52807 0.0
C373 C 0.6782 0.94258 0.51339 0.0
C374 C 0.70651 0.92682 0.49567 0.0
C375 C 0.70577 0.87924 0.49259 0.0
C376 C 0.67663 0.84774 0.50742 0.0
C377 C 0.64895 0.86227 0.52501 0.0
C378 C 0.62373 0.82129 0.54027 0.0
C379 C 0.63656 0.82525 0.57139 0.0
C380 C 0.57147 0.81658 0.53276 0.0
C381 C 0.64254 0.7817 0.52905 0.0
C382 C 0.67223 0.79761 0.50969 0.0
C383 C 0.6955 0.76785 0.49736 0.0
C384 C 0.68943 0.72081 0.50569 0.0
C385 C 0.66082 0.70422 0.52641 0.0
C386 C 0.63623 0.73495 0.53764 0.0
H387 H 0.91222 0.49287 0.8016 0.0
H388 H 1.00916 0.62092 0.79728 0.0
H389 H 1.07207 0.57593 0.79606 0.0
H390 H 0.96939 0.4432 0.84862 0.0
H391 H 0.9566 0.38407 0.8373 0.0
H392 H 0.91795 0.42347 0.82621 0.0
H393 H 0.92488 0.40783 0.77557 0.0
H394 H 0.96374 0.36773 0.7866 0.0
H395 H 0.98078 0.41542 0.76334 0.0
H396 H 0.12482 0.52156 0.81015 0.0
H397 H 0.16133 0.4648 0.83968 0.0
H398 H 1.0318 0.37039 0.83568 0.0
C399 C 0.94626 0.51126 0.79864 0.0
C400 C 0.95589 0.5602 0.79925 0.0
C401 C 1.00112 0.58337 0.79664 0.0
C402 C 1.03697 0.558 0.79572 0.0
C403 C 1.02697 0.50952 0.79726 0.0
C404 C 0.98238 0.48628 0.79821 0.0
C405 C 0.98156 0.43534 0.80591 0.0
C406 C 0.95489 0.42078 0.831 0.0
C407 C 0.96157 0.40478 0.78139 0.0
C408 C 1.03254 0.43477 0.81242 0.0
C409 C 1.05828 0.47727 0.80595 0.0
C410 C 0.10528 0.48771 0.8144 0.0
C411 C 0.12581 0.45532 0.83122 0.0
C412 C 0.09924 0.41326 0.83962 0.0
C413 C 1.05292 0.40174 0.82873 0.0
H414 H 0.3537 0.83016 0.13912 0.0
H415 H 0.33743 0.79233 0.22426 0.0
H416 H 0.40232 0.85432 0.23868 0.0
H417 H 0.4775 0.85606 0.14715 0.0
H418 H 0.48019 0.90418 0.12276 0.0
H419 H 0.43264 0.85673 0.11924 0.0
H420 H 0.37549 0.91462 0.11948 0.0
H421 H 0.42285 0.96225 0.12303 0.0
H422 H 0.38122 0.95348 0.14758 0.0
H423 H 0.46763 0.92185 0.24376 0.0
H424 H 0.53046 0.9884 0.23902 0.0
H425 H 0.50506 0.98093 0.15066 0.0
C426 C 0.36365 0.83508 0.1608 0.0
C427 C 0.34049 0.80649 0.1806 0.0
C428 C 0.35497 0.81357 0.20876 0.0
C429 C 0.39161 0.84881 0.21714 0.0
C430 C 0.41356 0.87649 0.19709 0.0
C431 C 0.40029 0.86987 0.1695 0.0
C432 C 0.42981 0.90411 0.15208 0.0
C433 C 0.45663 0.87874 0.13427 0.0
C434 C 0.40059 0.93547 0.13451 0.0
C435 C 0.4616 0.93125 0.17417 0.0
C436 C 0.45157 0.91487 0.2 0.0
C437 C 0.47589 0.93485 0.22364 0.0
C438 C 0.51145 0.97251 0.22079 0.0
C439 C 0.52234 0.98965 0.19453 0.0
C440 C 0.49721 0.96855 0.17097 0.0
H441 H 0.60283 0.22736 0.50967 0.0
H442 H 0.74341 0.24699 0.48928 0.0
H443 H 0.74563 0.33199 0.48664 0.0
H444 H 0.56602 0.32487 0.46778 0.0
H445 H 0.53232 0.34006 0.49326 0.0
H446 H 0.53999 0.28058 0.49059 0.0
H447 H 0.57204 0.27903 0.5418 0.0
H448 H 0.56476 0.33852 0.5446 0.0
H449 H 0.62037 0.32197 0.55395 0.0
H450 H 0.73354 0.41468 0.48748 0.0
H451 H 0.70972 0.48985 0.49452 0.0
H452 H 0.57875 0.41733 0.5174 0.0
C453 C 0.63365 0.24959 0.50404 0.0
C454 C 0.67277 0.23072 0.49931 0.0
C455 C 0.71301 0.26084 0.49283 0.0
C456 C 0.71455 0.30911 0.49121 0.0
C457 C 0.67572 0.32676 0.49645 0.0
C458 C 0.63607 0.29801 0.50287 0.0
C459 C 0.6005 0.32614 0.50968 0.0
C460 C 0.55714 0.31739 0.48909 0.0
C461 C 0.58875 0.31579 0.53926 0.0
C462 C 0.62653 0.37509 0.50635 0.0
C463 C 0.6696 0.37462 0.49835 0.0
C464 C 0.70002 0.4155 0.49395 0.0
C465 C 0.68627 0.45804 0.49815 0.0
C466 C 0.64292 0.45937 0.50734 0.0
C467 C 0.61244 0.41727 0.51093 0.0
H468 H 0.34111 0.42928 0.82194 0.0
H469 H 0.42054 0.43488 0.90182 0.0
H470 H 0.36066 0.37555 0.91973 0.0
H471 H 0.22903 0.41579 0.84797 0.0
H472 H 0.20129 0.37788 0.82096 0.0
H473 H 0.25006 0.42147 0.81477 0.0
H474 H 0.29185 0.35751 0.79918 0.0
H475 H 0.24342 0.31372 0.80561 0.0
H476 H 0.29995 0.30873 0.82194 0.0
H477 H 0.29136 0.31609 0.92899 0.0
H478 H 0.21765 0.26122 0.92861 0.0
H479 H 0.18521 0.29416 0.84262 0.0
C480 C 0.34571 0.41858 0.8433 0.0
C481 C 0.38563 0.43667 0.86045 0.0
C482 C 0.39056 0.42105 0.88819 0.0
C483 C 0.35663 0.38758 0.89859 0.0
C484 C 0.31796 0.3702 0.88103 0.0
C485 C 0.31221 0.38538 0.85402 0.0
C486 C 0.26755 0.36119 0.83937 0.0
C487 C 0.23508 0.39617 0.83023 0.0
C488 C 0.27624 0.33365 0.81509 0.0
C489 C 0.24959 0.32923 0.86217 0.0
C490 C 0.27881 0.33526 0.88615 0.0
C491 C 0.26845 0.31071 0.91026 0.0
C492 C 0.22686 0.27948 0.90985 0.0
C493 C 0.19672 0.27282 0.88542 0.0
C494 C 0.20841 0.29787 0.86133 0.0
H495 H 0.96692 0.21634 0.20275 0.0
H496 H 0.90895 0.30876 0.14214 0.0
H497 H 0.83091 0.26649 0.14775 0.0
H498 H 0.88749 0.11125 0.18343 0.0
H499 H 0.88461 0.08974 0.21825 0.0
H500 H 0.93595 0.12646 0.2088 0.0
H501 H 0.93061 0.18349 0.24676 0.0
H502 H 0.8792 0.14702 0.25626 0.0
H503 H 0.87857 0.20744 0.24723 0.0
H504 H 0.75925 0.21455 0.16024 0.0
H505 H 0.69874 0.15807 0.17983 0.0
H506 H 0.80345 0.09973 0.23241 0.0
C507 C 0.9378 0.22729 0.19045 0.0
C508 C 0.94387 0.2658 0.17202 0.0
C509 C 0.90493 0.27962 0.15658 0.0
C510 C 0.86055 0.25568 0.15951 0.0
C511 C 0.85571 0.21804 0.178 0.0
C512 C 0.89323 0.20395 0.19325 0.0
C513 C 0.87847 0.16328 0.21229 0.0
C514 C 0.89777 0.12013 0.20526 0.0
C515 C 0.89255 0.1761 0.24241 0.0
C516 C 0.8268 0.15679 0.2054 0.0
C517 C 0.81438 0.18853 0.18546 0.0
C518 C 0.76855 0.18942 0.17581 0.0
C519 C 0.73446 0.1571 0.18695 0.0
C520 C 0.7464 0.12456 0.20762 0.0
C521 C 0.79325 0.12447 0.21682 0.0
H522 H 0.11971 0.43514 0.07015 0.0
H523 H 0.18701 0.57702 0.05772 0.0
H524 H 0.19118 0.56113 0.00887 0.0
H525 H 0.18211 0.38063 0.02938 0.0
H526 H 0.13409 0.33872 0.01566 0.0
H527 H 0.13393 0.36219 0.04886 0.0
H528 H 1.05633 0.38996 0.03345 0.0
H529 H 1.05565 0.3656 0.00038 0.0
H530 H 1.05096 0.42596 0.00287 0.0
H531 H 0.19515 0.52575 0.96281 0.0
H532 H 0.18814 0.47872 0.92164 0.0
H533 H 0.11212 0.36219 0.96433 0.0
C534 C 0.13457 0.46307 0.05695 0.0
C535 C 0.15308 0.50724 0.06739 0.0
C536 C 0.17228 0.54311 0.0498 0.0
C537 C 0.17507 0.53423 0.0222 0.0
C538 C 0.15767 0.48964 0.0127 0.0
C539 C 0.13675 0.45506 0.02944 0.0
C540 C 0.12039 0.41021 0.01447 0.0
C541 C 0.14406 0.37062 0.0279 0.0
C542 C 1.06771 0.39718 0.01268 0.0
C543 C 0.13635 0.42441 0.98676 0.0
C544 C 0.15808 0.47016 0.98612 0.0
C545 C 0.17731 0.4902 0.96294 0.0
C546 C 0.17302 0.46315 0.93961 0.0
C547 C 0.14908 0.41669 0.93945 0.0
C548 C 0.13109 0.39723 0.96361 0.0
H549 H 0.70632 0.13133 0.41613 0.0
H550 H 0.64499 0.99009 0.43662 0.0
H551 H 0.64458 0.96805 0.38876 0.0
H552 H 0.63908 0.13741 0.3519 0.0
H553 H 0.68434 0.17208 0.33481 0.0
H554 H 0.68405 0.17593 0.37122 0.0
H555 H 0.76628 0.15556 0.37893 0.0
H556 H 0.76674 0.1515 0.3425 0.0
H557 H 0.7775 0.10312 0.36494 0.0
H558 H 0.64901 0.96141 0.33894 0.0
H559 H 0.65271 0.97175 0.28921 0.0
H560 H 0.70572 0.11866 0.29991 0.0
C561 C 0.69342 0.0957 0.41051 0.0
C562 C 0.67584 0.06231 0.42996 0.0
C563 C 0.6584 0.01619 0.42191 0.0
C564 C 0.6583 1.00326 0.39485 0.0
C565 C 0.67534 0.037 0.37603 0.0
C566 C 0.69222 0.08236 0.38336 0.0
C567 C 0.70524 0.11246 0.35859 0.0
C568 C 0.67645 0.15178 0.35386 0.0
C569 C 0.75702 0.13179 0.36142 0.0
C570 C 0.69262 0.07698 0.33625 0.0
C571 C 0.6761 0.03357 0.34687 0.0
C572 C 0.66172 0.99528 0.33032 0.0
C573 C 0.66361 1.00162 0.30204 0.0
C574 C 0.67912 0.04609 0.29048 0.0
C575 C 0.69427 0.08407 0.30801 0.0
H576 H 0.63094 0.56105 0.73607 0.0
H577 H 0.7586 0.65554 0.75744 0.0
H578 H 0.77308 0.66175 0.70892 0.0
H579 H 0.67278 0.50126 0.68263 0.0
H580 H 0.61895 0.49601 0.66108 0.0
H581 H 0.61956 0.49686 0.69776 0.0
H582 H 0.57494 0.56628 0.69276 0.0
H583 H 0.57397 0.56548 0.65613 0.0
H584 H 0.5976 0.61808 0.67408 0.0
H585 H 0.77128 0.66222 0.65817 0.0
H586 H 0.75281 0.6571 0.60797 0.0
H587 H 0.62784 0.56061 0.61935 0.0
C588 C 0.66207 0.58289 0.73061 0.0
C589 C 0.69354 0.60796 0.75059 0.0
C590 C 0.73388 0.6361 0.74253 0.0
C591 C 0.74255 0.63971 0.71503 0.0
C592 C 0.71077 0.61467 0.69588 0.0
C593 C 0.67141 0.58671 0.70327 0.0
C594 C 0.64205 0.56477 0.67849 0.0
C595 C 0.63812 0.51157 0.6801 0.0
C596 C 0.59433 0.57956 0.67518 0.0
C597 C 0.67053 0.58572 0.65592 0.0
C598 C 0.7102 0.61415 0.66648 0.0
C599 C 0.7407 0.63959 0.64966 0.0
C600 C 0.72998 0.63651 0.62128 0.0
C601 C 0.68929 0.6081 0.61009 0.0
C602 C 0.65961 0.58178 0.62758 0.0
H603 H 0.72171 0.05219 0.6094 0.0
H604 H 0.63091 0.15374 0.58948 0.0
H605 H 0.62355 0.16031 0.63838 0.0
H606 H 0.66123 0.99375 0.66307 0.0
H607 H 0.71193 0.98357 0.68473 0.0
H608 H 0.71279 0.98834 0.64813 0.0
H609 H 0.78313 0.05444 0.65385 0.0
H610 H 0.78268 0.04967 0.6905 0.0
H611 H 0.77987 0.10483 0.67295 0.0
H612 H 0.62282 0.15414 0.68856 0.0
H613 H 0.62971 0.13611 0.73809 0.0
H614 H 0.72118 0.03877 0.72674 0.0
C615 C 0.7008 0.07622 0.61541 0.0
C616 C 0.67692 0.10248 0.59561 0.0
C617 C 0.64941 0.13312 0.60424 0.0
C618 C 0.64504 0.13722 0.632 0.0
C619 C 0.66832 0.1104 0.65096 0.0
C620 C 0.69576 0.08056 0.64318 0.0
C621 C 0.7157 0.0547 0.6679 0.0
C622 C 0.69943 1.00196 0.66583 0.0
C623 C 0.76849 0.06664 0.67151 0.0
C624 C 0.69484 0.07453 0.69063 0.0
C625 C 0.6678 0.10671 0.68029 0.0
C626 C 0.64425 0.12934 0.697 0.0
C627 C 0.64858 0.11901 0.72513 0.0
C628 C 0.67629 0.08635 0.73638 0.0
C629 C 0.69959 0.06374 0.71877 0.0
H630 H 0.72281 0.58799 0.9347 0.0
H631 H 0.58214 0.52632 0.90772 0.0
H632 H 0.57024 0.50025 0.95526 0.0
H633 H 0.74655 0.50103 0.98567 0.0
H634 H 0.77957 0.54199 0.00962 0.0
H635 H 0.77736 0.55523 0.97341 0.0
H636 H 0.74813 0.63206 0.98069 0.0
H637 H 0.75056 0.6192 0.01694 0.0
H638 H 0.69761 0.6304 -0.00183 0.0
H639 H 0.5746 0.4786 0.00553 0.0
H640 H 0.59293 0.46798 0.05536 0.0
H641 H 0.72891 0.54889 0.04982 0.0
C642 C 0.68954 0.56894 0.9388 0.0
C643 C 0.65344 0.55906 0.91753 0.0
C644 C 0.61022 0.53449 0.92374 0.0
C645 C 0.60319 0.51934 0.95064 0.0
C646 C 0.63955 0.5295 0.97113 0.0
C647 C 0.68169 0.55419 0.96559 0.0
C648 C 0.71459 0.56183 0.99145 0.0
C649 C 0.75702 0.53863 0.98993 0.0
C650 C 0.72852 0.61397 -0.00285 0.0
C651 C 0.68448 0.53725 0.01236 0.0
C652 C 0.64147 0.51852 0.00021 0.0
C653 C 0.60803 0.49354 0.01533 0.0
C654 C 0.61872 0.48795 0.04368 0.0
C655 C 0.66233 0.5077 0.05674 0.0
C656 C 0.6955 0.53261 0.04064 0.0
H657 H 0.18185 0.58608 0.24488 0.0
H658 H 0.18253 0.43939 0.23505 0.0
H659 H 0.19336 0.42778 0.28519 0.0
H660 H 0.2645 0.60177 0.30768 0.0
H661 H 0.23267 0.63966 0.3227 0.0
H662 H 0.23142 0.63822 0.286 0.0
H663 H 0.14242 0.61931 0.28153 0.0
H664 H 0.14341 0.62063 0.31815 0.0
H665 H 0.11465 0.5697 0.30007 0.0
H666 H 0.19906 0.43038 0.33558 0.0
H667 H 0.19489 0.44607 0.38394 0.0
H668 H 0.18519 0.59006 0.36191 0.0
C669 C 0.1854 0.55187 0.25342 0.0
C670 C 0.1819 0.51365 0.23631 0.0
C671 C 0.18529 0.46904 0.24798 0.0
C672 C 0.19168 0.46216 0.27637 0.0
C673 C 0.19413 0.50021 0.29281 0.0
C674 C 0.19086 0.54417 0.28189 0.0
C675 C 0.18997 0.5779 0.30432 0.0
C676 C 0.23216 0.61668 0.30522 0.0
C677 C 0.14493 0.59805 0.3008 0.0
C678 C 0.19237 0.54575 0.32937 0.0
C679 C 0.19553 0.50132 0.32221 0.0
C680 C 0.19669 0.46506 0.34151 0.0
C681 C 0.19389 0.47423 0.36889 0.0
C682 C 0.18931 0.51918 0.37672 0.0
C683 C 0.18924 0.5555 0.35665 0.0
loop_
_geom_bond_atom_site_label_1
_geom_bond_atom_site_label_2
_geom_bond_distance
_geom_bond_site_symmetry_2
_ccdc_geom_bond_type
Dy0 O3 2.307 1_455 S
Dy0 O5 2.395 . S
Dy0 O6 2.379 . S
Dy0 O8 2.339 . S
Dy0 O10 2.298 . S
Dy0 O14 2.275 . S
Dy0 C22 2.738 . S
Dy1 O4 2.298 . S
Dy1 O7 2.275 1_655 S
Dy1 O9 2.307 1_655 S
Dy1 O11 2.395 . S
Dy1 O12 2.379 . S
Dy1 O15 2.339 . S
Dy1 C31 2.738 . S
C2 O14 1.254 . S
C2 O15 1.257 1_455 S
O3 Dy0 2.307 1_655 S
O3 C13 1.266 . S
O4 Dy1 2.298 . S
O4 C13 1.236 . S
O5 Dy0 2.395 . S
O5 C22 1.255 . S
O6 Dy0 2.379 . S
O6 C22 1.249 . S
O7 Dy1 2.275 1_455 S
O7 C23 1.254 . S
O8 Dy0 2.339 . S
O8 C23 1.257 . S
O9 Dy1 2.307 1_455 S
O9 C24 1.266 . S
O10 Dy0 2.298 . S
O10 C24 1.236 . S
O11 Dy1 2.395 . S
O11 C31 1.255 . S
O12 Dy1 2.379 . S
O12 C31 1.249 . S
C13 O3 1.266 . S
C13 O4 1.236 . S
O14 Dy0 2.275 . S
O14 C2 1.254 . S
O15 Dy1 2.339 . S
O15 C2 1.257 1_655 S
C16 C19 1.344 . S
C16 C20 1.328 . S
C16 C22 1.516 . S
C17 C18 1.304 . S
C17 C21 1.323 . S
C18 C17 1.304 . S
C18 C19 1.371 . S
C18 H32 0.930 . S
C19 C16 1.344 . S
C19 C18 1.371 . S
C19 H33 0.931 . S
C20 C16 1.328 . S
C20 C21 1.433 . S
C20 H34 0.931 . S
C21 C17 1.323 . S
C21 C20 1.433 . S
C21 H35 0.933 . S
C22 Dy0 2.738 . S
C22 O5 1.255 . S
C22 O6 1.249 . S
C22 C16 1.516 . S
C23 O7 1.254 . S
C23 O8 1.257 . S
C24 O9 1.266 . S
C24 O10 1.236 . S
C25 C28 1.344 . S
C25 C29 1.328 . S
C25 C31 1.516 . S
C26 C27 1.304 . S
C26 C30 1.323 . S
C27 C26 1.304 . S
C27 C28 1.371 . S
C27 H36 0.930 . S
C28 C25 1.344 . S
C28 C27 1.371 . S
C28 H37 0.931 . S
C29 C25 1.328 . S
C29 C30 1.433 . S
C29 H38 0.931 . S
C30 C26 1.323 . S
C30 C29 1.433 . S
C30 H39 0.933 . S
C31 Dy1 2.738 . S
C31 O11 1.255 . S
C31 O12 1.249 . S
C31 C25 1.516 . S
H32 C18 0.930 . S
H33 C19 0.931 . S
H34 C20 0.931 . S
H35 C21 0.933 . S
H36 C27 0.930 . S
H37 C28 0.931 . S
H38 C29 0.931 . S
H39 C30 0.933 . S
Dy40 O43 2.307 1_565 S
Dy40 O45 2.395 . S
Dy40 O46 2.379 . S
Dy40 O48 2.339 1_565 S
Dy40 O50 2.298 . S
Dy40 O54 2.275 1_565 S
Dy40 C62 2.738 . S
Dy41 O44 2.298 . S
Dy41 O47 2.275 . S
Dy41 O49 2.307 1_545 S
Dy41 O51 2.395 . S
Dy41 O52 2.379 . S
Dy41 O55 2.339 . S
Dy41 C71 2.738 . S
C42 O54 1.254 . S
C42 O55 1.257 . S
O43 Dy40 2.307 1_545 S
O43 C53 1.266 . S
O44 Dy41 2.298 . S
O44 C53 1.236 . S
O45 Dy40 2.395 . S
O45 C62 1.255 . S
O46 Dy40 2.379 . S
O46 C62 1.249 . S
O47 Dy41 2.275 . S
O47 C63 1.254 . S
O48 Dy40 2.339 1_545 S
O48 C63 1.257 . S
O49 Dy41 2.307 1_565 S
O49 C64 1.266 . S
O50 Dy40 2.298 . S
O50 C64 1.236 . S
O51 Dy41 2.395 . S
O51 C71 1.255 . S
O52 Dy41 2.379 . S
O52 C71 1.249 . S
C53 O43 1.266 . S
C53 O44 1.236 . S
O54 Dy40 2.275 1_545 S
O54 C42 1.254 . S
O55 Dy41 2.339 . S
O55 C42 1.257 . S
C56 C59 1.344 . S
C56 C60 1.328 . S
C56 C62 1.516 . S
C57 C58 1.304 . S
C57 C61 1.323 . S
C58 C57 1.304 . S
C58 C59 1.371 . S
C58 H72 0.930 . S
C59 C56 1.344 . S
C59 C58 1.371 . S
C59 H73 0.931 . S
C60 C56 1.328 . S
C60 C61 1.433 . S
C60 H74 0.931 . S
C61 C57 1.323 . S
C61 C60 1.433 . S
C61 H75 0.933 . S
C62 Dy40 2.738 . S
C62 O45 1.255 . S
C62 O46 1.249 . S
C62 C56 1.516 . S
C63 O47 1.254 . S
C63 O48 1.257 . S
C64 O49 1.266 . S
C64 O50 1.236 . S
C65 C68 1.344 . S
C65 C69 1.328 . S
C65 C71 1.516 . S
C66 C67 1.304 . S
C66 C70 1.323 . S
C67 C66 1.304 . S
C67 C68 1.371 . S
C67 H76 0.930 . S
C68 C65 1.344 . S
C68 C67 1.371 . S
C68 H77 0.931 . S
C69 C65 1.328 . S
C69 C70 1.433 . S
C69 H78 0.931 . S
C70 C66 1.323 . S
C70 C69 1.433 . S
C70 H79 0.933 . S
C71 Dy41 2.738 . S
C71 O51 1.255 . S
C71 O52 1.249 . S
C71 C65 1.516 . S
H72 C58 0.930 . S
H73 C59 0.931 . S
H74 C60 0.931 . S
H75 C61 0.933 . S
H76 C67 0.930 . S
H77 C68 0.931 . S
H78 C69 0.931 . S
H79 C70 0.933 . S
Dy80 O83 2.307 . S
Dy80 O85 2.395 . S
Dy80 O86 2.379 . S
Dy80 O88 2.339 . S
Dy80 O90 2.298 . S
Dy80 O94 2.275 . S
Dy80 C102 2.738 . S
Dy81 O84 2.298 . S
Dy81 O87 2.275 . S
Dy81 O89 2.307 . S
Dy81 O91 2.395 . S
Dy81 O92 2.379 . S
Dy81 O95 2.339 . S
Dy81 C111 2.738 . S
C82 O94 1.254 . S
C82 O95 1.257 . S
O83 Dy80 2.307 . S
O83 C93 1.266 . S
O84 Dy81 2.298 . S
O84 C93 1.236 . S
O85 Dy80 2.395 . S
O85 C102 1.255 . S
O86 Dy80 2.379 . S
O86 C102 1.249 . S
O87 Dy81 2.275 . S
O87 C103 1.254 . S
O88 Dy80 2.339 . S
O88 C103 1.257 . S
O89 Dy81 2.307 . S
O89 C104 1.266 . S
O90 Dy80 2.298 . S
O90 C104 1.236 . S
O91 Dy81 2.395 . S
O91 C111 1.255 . S
O92 Dy81 2.379 . S
O92 C111 1.249 . S
C93 O83 1.266 . S
C93 O84 1.236 . S
O94 Dy80 2.275 . S
O94 C82 1.254 . S
O95 Dy81 2.339 . S
O95 C82 1.257 . S
C96 C99 1.344 . S
C96 C100 1.328 . S
C96 C102 1.516 . S
C97 C98 1.304 . S
C97 C101 1.323 . S
C98 C97 1.304 . S
C98 C99 1.371 . S
C98 H112 0.930 . S
C99 C96 1.344 . S
C99 C98 1.371 . S
C99 H113 0.931 . S
C100 C96 1.328 . S
C100 C101 1.433 . S
C100 H114 0.931 . S
C101 C97 1.323 . S
C101 C100 1.433 . S
C101 H115 0.933 . S
C102 Dy80 2.738 . S
C102 O85 1.255 . S
C102 O86 1.249 . S
C102 C96 1.516 . S
C103 O87 1.254 . S
C103 O88 1.257 . S
C104 O89 1.266 . S
C104 O90 1.236 . S
C105 C108 1.344 . S
C105 C109 1.328 . S
C105 C111 1.516 . S
C106 C107 1.304 . S
C106 C110 1.323 . S
C107 C106 1.304 . S
C107 C108 1.371 . S
C107 H116 0.930 . S
C108 C105 1.344 . S
C108 C107 1.371 . S
C108 H117 0.931 . S
C109 C105 1.328 . S
C109 C110 1.433 . S
C109 H118 0.931 . S
C110 C106 1.323 . S
C110 C109 1.433 . S
C110 H119 0.933 . S
C111 Dy81 2.738 . S
C111 O91 1.255 . S
C111 O92 1.249 . S
C111 C105 1.516 . S
H112 C98 0.930 . S
H113 C99 0.931 . S
H114 C100 0.931 . S
H115 C101 0.933 . S
H116 C107 0.930 . S
H117 C108 0.931 . S
H118 C109 0.931 . S
H119 C110 0.933 . S
H120 C127 0.929 . S
H121 C130 0.928 1_565 S
H122 C132 0.929 . S
H123 C124 0.969 . S
C124 H123 0.969 . S
C124 O125 1.550 . S
C124 H126 0.973 . S
O125 C124 1.550 . S
O125 C131 1.412 1_565 S
H126 C124 0.973 . S
C127 H120 0.929 . S
C127 C128 1.400 . S
C127 C129 1.364 . S
C128 C127 1.400 . S
C128 C132 1.377 . S
C129 C127 1.364 . S
C129 C130 1.374 . S
C130 H121 0.928 1_545 S
C130 C129 1.374 . S
C130 C131 1.383 . S
C131 O125 1.412 1_545 S
C131 C130 1.383 . S
C131 C132 1.394 . S
C132 H122 0.929 . S
C132 C128 1.377 . S
C132 C131 1.394 . S
H133 C140 0.929 . S
H134 C143 0.930 . S
H135 C145 0.929 . S
H136 C137 0.969 . S
C137 H136 0.969 . S
C137 O138 1.550 . S
C137 H139 0.973 . S
O138 C137 1.550 . S
O138 C144 1.412 . S
H139 C137 0.973 . S
C140 H133 0.929 . S
C140 C141 1.400 . S
C140 C142 1.364 . S
C141 C140 1.400 . S
C141 C145 1.377 . S
C142 C140 1.364 . S
C142 C143 1.374 . S
C143 H134 0.930 . S
C143 C142 1.374 . S
C143 C144 1.383 . S
C144 O138 1.412 . S
C144 C143 1.383 . S
C144 C145 1.394 . S
C145 H135 0.929 . S
C145 C141 1.377 . S
C145 C144 1.394 . S
H146 C153 0.929 1_655 S
H147 C156 0.930 . S
H148 C158 0.929 . S
H149 C150 0.969 . S
C150 H149 0.969 . S
C150 O151 1.550 . S
C150 H152 0.973 . S
O151 C150 1.550 . S
O151 C157 1.412 . S
H152 C150 0.973 . S
C153 H146 0.929 1_455 S
C153 C154 1.400 . S
C153 C155 1.364 . S
C154 C153 1.400 . S
C154 C158 1.377 . S
C155 C153 1.364 . S
C155 C156 1.374 . S
C156 H147 0.930 . S
C156 C155 1.374 . S
C156 C157 1.383 . S
C157 O151 1.412 . S
C157 C156 1.383 . S
C157 C158 1.394 . S
C158 H148 0.929 . S
C158 C154 1.377 . S
C158 C157 1.394 . S
H159 C166 0.929 1_655 S
H160 C169 0.930 . S
H161 C171 0.929 . S
H162 C163 0.969 . S
C163 H162 0.969 . S
C163 O164 1.550 . S
C163 H165 0.973 . S
O164 C163 1.550 . S
O164 C170 1.412 . S
H165 C163 0.973 . S
C166 H159 0.929 1_455 S
C166 C167 1.400 . S
C166 C168 1.364 . S
C167 C166 1.400 . S
C167 C171 1.377 . S
C168 C166 1.364 . S
C168 C169 1.374 . S
C169 H160 0.930 . S
C169 C168 1.374 . S
C169 C170 1.383 . S
C170 O164 1.412 . S
C170 C169 1.383 . S
C170 C171 1.394 . S
C171 H161 0.929 . S
C171 C167 1.377 . S
C171 C170 1.394 . S
H172 C179 0.929 . S
H173 C182 0.930 . S
H174 C184 0.929 . S
H175 C176 0.969 . S
C176 H175 0.969 . S
C176 O177 1.550 . S
C176 H178 0.973 . S
O177 C176 1.550 . S
O177 C183 1.412 . S
H178 C176 0.973 . S
C179 H172 0.929 . S
C179 C180 1.400 . S
C179 C181 1.364 1_565 S
C180 C179 1.400 . S
C180 C184 1.377 . S
C181 C179 1.364 1_545 S
C181 C182 1.374 . S
C182 H173 0.930 . S
C182 C181 1.374 . S
C182 C183 1.383 . S
C183 O177 1.412 . S
C183 C182 1.383 . S
C183 C184 1.394 1_545 S
C184 H174 0.929 . S
C184 C180 1.377 . S
C184 C183 1.394 1_565 S
H185 C192 0.929 . S
H186 C195 0.930 . S
H187 C197 0.929 . S
H188 C189 0.969 . S
C189 H188 0.969 . S
C189 O190 1.550 . S
C189 H191 0.973 . S
O190 C189 1.550 . S
O190 C196 1.412 . S
H191 C189 0.973 . S
C192 H185 0.929 . S
C192 C193 1.400 . S
C192 C194 1.364 . S
C193 C192 1.400 . S
C193 C197 1.377 . S
C194 C192 1.364 . S
C194 C195 1.374 . S
C195 H186 0.930 . S
C195 C194 1.374 . S
C195 C196 1.383 . S
C196 O190 1.412 . S
C196 C195 1.383 . S
C196 C197 1.394 . S
C197 H187 0.929 . S
C197 C193 1.377 . S
C197 C196 1.394 . S
H198 C210 0.930 . S
H199 C212 0.930 . S
H200 C213 0.930 . S
H201 C217 0.959 . S
H202 C217 0.959 . S
H203 C217 0.961 . S
H204 C218 0.960 . S
H205 C218 0.961 . S
H206 C218 0.959 . S
H207 C221 0.929 . S
H208 C222 0.931 . S
H209 C224 0.930 . S
C210 H198 0.930 . S
C210 C211 1.399 . S
C210 C215 1.399 . S
C211 C210 1.399 . S
C211 C212 1.376 . S
C212 H199 0.930 . S
C212 C211 1.376 . S
C212 C213 1.388 . S
C213 H200 0.930 . S
C213 C212 1.388 . S
C213 C214 1.390 . S
C214 C213 1.390 . S
C214 C215 1.394 . S
C214 C220 1.465 . S
C215 C210 1.399 . S
C215 C214 1.394 . S
C215 C216 1.516 . S
C216 C215 1.516 . S
C216 C217 1.502 . S
C216 C218 1.561 . S
C216 C219 1.526 . S
C217 H201 0.959 . S
C217 H202 0.959 . S
C217 H203 0.961 . S
C217 C216 1.502 . S
C218 H204 0.960 . S
C218 H205 0.961 . S
C218 H206 0.959 . S
C218 C216 1.561 . S
C219 C216 1.526 . S
C219 C220 1.396 . S
C219 C224 1.390 . S
C220 C214 1.465 . S
C220 C219 1.396 . S
C220 C221 1.399 . S
C221 H207 0.929 . S
C221 C220 1.399 . S
C221 C222 1.385 . S
C222 H208 0.931 . S
C222 C221 1.385 . S
C222 C223 1.389 . S
C223 C222 1.389 . S
C223 C224 1.387 . S
C224 H209 0.930 . S
C224 C219 1.390 . S
C224 C223 1.387 . S
H225 C237 0.930 . S
H226 C239 0.930 . S
H227 C240 0.930 . S
H228 C244 0.959 . S
H229 C244 0.959 . S
H230 C244 0.961 . S
H231 C245 0.960 . S
H232 C245 0.961 . S
H233 C245 0.959 . S
H234 C248 0.929 1_455 S
H235 C249 0.931 . S
H236 C251 0.930 . S
C237 H225 0.930 . S
C237 C238 1.399 . S
C237 C242 1.399 . S
C238 C237 1.399 . S
C238 C239 1.376 . S
C239 H226 0.930 . S
C239 C238 1.376 . S
C239 C240 1.388 . S
C240 H227 0.930 . S
C240 C239 1.388 . S
C240 C241 1.390 . S
C241 C240 1.390 . S
C241 C242 1.394 . S
C241 C247 1.465 . S
C242 C237 1.399 . S
C242 C241 1.394 . S
C242 C243 1.516 . S
C243 C242 1.516 . S
C243 C244 1.502 . S
C243 C245 1.561 . S
C243 C246 1.526 . S
C244 H228 0.959 . S
C244 H229 0.959 . S
C244 H230 0.961 . S
C244 C243 1.502 . S
C245 H231 0.960 . S
C245 H232 0.961 . S
C245 H233 0.959 . S
C245 C243 1.561 . S
C246 C243 1.526 . S
C246 C247 1.396 . S
C246 C251 1.390 . S
C247 C241 1.465 . S
C247 C246 1.396 . S
C247 C248 1.399 . S
C248 H234 0.929 1_655 S
C248 C247 1.399 . S
C248 C249 1.385 1_655 S
C249 H235 0.931 . S
C249 C248 1.385 1_455 S
C249 C250 1.403 . S
C250 C249 1.403 . S
C250 C251 1.367 1_455 S
C251 H236 0.930 . S
C251 C246 1.390 . S
C251 C250 1.367 1_655 S
H252 C264 0.930 . S
H253 C266 0.930 . S
H254 C267 0.930 . S
H255 C271 0.959 . S
H256 C271 0.959 . S
H257 C271 0.961 . S
H258 C272 0.960 . S
H259 C272 0.961 . S
H260 C272 0.959 . S
H261 C275 0.929 . S
H262 C276 0.931 . S
H263 C278 0.930 . S
C264 H252 0.930 . S
C264 C265 1.399 . S
C264 C269 1.399 . S
C265 C264 1.399 . S
C265 C266 1.376 . S
C266 H253 0.930 . S
C266 C265 1.376 . S
C266 C267 1.388 . S
C267 H254 0.930 . S
C267 C266 1.388 . S
C267 C268 1.390 . S
C268 C267 1.390 . S
C268 C269 1.394 . S
C268 C274 1.465 . S
C269 C264 1.399 . S
C269 C268 1.394 . S
C269 C270 1.516 . S
C270 C269 1.516 . S
C270 C271 1.502 . S
C270 C272 1.561 . S
C270 C273 1.526 . S
C271 H255 0.959 . S
C271 H256 0.959 . S
C271 H257 0.961 . S
C271 C270 1.502 . S
C272 H258 0.960 . S
C272 H259 0.961 . S
C272 H260 0.959 . S
C272 C270 1.561 . S
C273 C270 1.526 . S
C273 C274 1.396 . S
C273 C278 1.390 . S
C274 C268 1.465 . S
C274 C273 1.396 . S
C274 C275 1.399 . S
C275 H261 0.929 . S
C275 C274 1.399 . S
C275 C276 1.385 . S
C276 H262 0.931 . S
C276 C275 1.385 . S
C276 C277 1.389 . S
C277 C276 1.389 . S
C277 C278 1.387 . S
C278 H263 0.930 . S
C278 C273 1.390 . S
C278 C277 1.387 . S
H279 C291 0.930 . S
H280 C293 0.930 . S
H281 C294 0.930 . S
H282 C298 0.959 . S
H283 C298 0.959 . S
H284 C298 0.961 . S
H285 C299 0.960 . S
H286 C299 0.961 . S
H287 C299 0.959 . S
H288 C302 0.929 . S
H289 C303 0.931 . S
H290 C305 0.930 . S
C291 H279 0.930 . S
C291 C292 1.399 . S
C291 C296 1.399 . S
C292 C291 1.399 . S
C292 C293 1.376 . S
C293 H280 0.930 . S
C293 C292 1.376 . S
C293 C294 1.388 . S
C294 H281 0.930 . S
C294 C293 1.388 . S
C294 C295 1.390 . S
C295 C294 1.390 . S
C295 C296 1.394 . S
C295 C301 1.465 . S
C296 C291 1.399 . S
C296 C295 1.394 . S
C296 C297 1.516 . S
C297 C296 1.516 . S
C297 C298 1.502 . S
C297 C299 1.561 . S
C297 C300 1.526 . S
C298 H282 0.959 . S
C298 H283 0.959 . S
C298 H284 0.961 . S
C298 C297 1.502 . S
C299 H285 0.960 . S
C299 H286 0.961 . S
C299 H287 0.959 . S
C299 C297 1.561 . S
C300 C297 1.526 . S
C300 C301 1.396 . S
C300 C305 1.390 . S
C301 C295 1.465 . S
C301 C300 1.396 . S
C301 C302 1.399 . S
C302 H288 0.929 . S
C302 C301 1.399 . S
C302 C303 1.385 . S
C303 H289 0.931 . S
C303 C302 1.385 . S
C303 C304 1.389 . S
C304 C303 1.389 . S
C304 C305 1.387 . S
C305 H290 0.930 . S
C305 C300 1.390 . S
C305 C304 1.387 . S
H306 C318 0.930 . S
H307 C320 0.930 . S
H308 C321 0.930 . S
H309 C325 0.959 . S
H310 C325 0.959 . S
H311 C325 0.961 . S
H312 C326 0.960 . S
H313 C326 0.961 . S
H314 C326 0.959 . S
H315 C329 0.929 . S
H316 C330 0.931 . S
H317 C332 0.930 . S
C318 H306 0.930 . S
C318 C319 1.399 . S
C318 C323 1.399 . S
C319 C318 1.399 . S
C319 C320 1.376 . S
C320 H307 0.930 . S
C320 C319 1.376 . S
C320 C321 1.388 . S
C321 H308 0.930 . S
C321 C320 1.388 . S
C321 C322 1.390 . S
C322 C321 1.390 . S
C322 C323 1.394 . S
C322 C328 1.465 . S
C323 C318 1.399 . S
C323 C322 1.394 . S
C323 C324 1.516 . S
C324 C323 1.516 . S
C324 C325 1.502 . S
C324 C326 1.561 . S
C324 C327 1.526 . S
C325 H309 0.959 . S
C325 H310 0.959 . S
C325 H311 0.961 . S
C325 C324 1.502 . S
C326 H312 0.960 . S
C326 H313 0.961 . S
C326 H314 0.959 . S
C326 C324 1.561 . S
C327 C324 1.526 . S
C327 C328 1.396 . S
C327 C332 1.390 . S
C328 C322 1.465 . S
C328 C327 1.396 . S
C328 C329 1.399 . S
C329 H315 0.929 . S
C329 C328 1.399 . S
C329 C330 1.385 . S
C330 H316 0.931 . S
C330 C329 1.385 . S
C330 C331 1.389 . S
C331 C330 1.389 . S
C331 C332 1.387 . S
C332 H317 0.930 . S
C332 C327 1.390 . S
C332 C331 1.387 . S
H333 C345 0.930 . S
H334 C347 0.930 . S
H335 C348 0.930 . S
H336 C352 0.959 . S
H337 C352 0.959 . S
H338 C352 0.961 . S
H339 C353 0.960 . S
H340 C353 0.961 . S
H341 C353 0.959 . S
H342 C356 0.929 . S
H343 C357 0.931 . S
H344 C359 0.930 . S
C345 H333 0.930 . S
C345 C346 1.399 . S
C345 C350 1.399 . S
C346 C345 1.399 . S
C346 C347 1.376 . S
C347 H334 0.930 . S
C347 C346 1.376 . S
C347 C348 1.388 . S
C348 H335 0.930 . S
C348 C347 1.388 . S
C348 C349 1.390 . S
C349 C348 1.390 . S
C349 C350 1.394 . S
C349 C355 1.465 . S
C350 C345 1.399 . S
C350 C349 1.394 . S
C350 C351 1.516 . S
C351 C350 1.516 . S
C351 C352 1.502 . S
C351 C353 1.561 . S
C351 C354 1.526 . S
C352 H336 0.959 . S
C352 H337 0.959 . S
C352 H338 0.961 . S
C352 C351 1.502 . S
C353 H339 0.960 . S
C353 H340 0.961 . S
C353 H341 0.959 . S
C353 C351 1.561 . S
C354 C351 1.526 . S
C354 C355 1.396 . S
C354 C359 1.390 . S
C355 C349 1.465 . S
C355 C354 1.396 . S
C355 C356 1.399 . S
C356 H342 0.929 . S
C356 C355 1.399 . S
C356 C357 1.385 . S
C357 H343 0.931 . S
C357 C356 1.385 . S
C357 C358 1.389 . S
C358 C357 1.389 . S
C358 C359 1.387 . S
C359 H344 0.930 . S
C359 C354 1.390 . S
C359 C358 1.387 . S
H360 C372 0.930 . S
H361 C374 0.930 . S
H362 C375 0.930 . S
H363 C379 0.959 . S
H364 C379 0.959 . S
H365 C379 0.961 . S
H366 C380 0.960 . S
H367 C380 0.961 . S
H368 C380 0.959 . S
H369 C383 0.929 . S
H370 C384 0.931 . S
H371 C386 0.930 . S
C372 H360 0.930 . S
C372 C373 1.399 . S
C372 C377 1.399 . S
C373 C372 1.399 . S
C373 C374 1.376 . S
C374 H361 0.930 . S
C374 C373 1.376 . S
C374 C375 1.388 . S
C375 H362 0.930 . S
C375 C374 1.388 . S
C375 C376 1.390 . S
C376 C375 1.390 . S
C376 C377 1.394 . S
C376 C382 1.465 . S
C377 C372 1.399 . S
C377 C376 1.394 . S
C377 C378 1.516 . S
C378 C377 1.516 . S
C378 C379 1.502 . S
C378 C380 1.561 . S
C378 C381 1.526 . S
C379 H363 0.959 . S
C379 H364 0.959 . S
C379 H365 0.961 . S
C379 C378 1.502 . S
C380 H366 0.960 . S
C380 H367 0.961 . S
C380 H368 0.959 . S
C380 C378 1.561 . S
C381 C378 1.526 . S
C381 C382 1.396 . S
C381 C386 1.390 . S
C382 C376 1.465 . S
C382 C381 1.396 . S
C382 C383 1.399 . S
C383 H369 0.929 . S
C383 C382 1.399 . S
C383 C384 1.385 . S
C384 H370 0.931 . S
C384 C383 1.385 . S
C384 C385 1.389 . S
C385 C384 1.389 . S
C385 C386 1.387 . S
C386 H371 0.930 . S
C386 C381 1.390 . S
C386 C385 1.387 . S
H387 C399 0.930 . S
H388 C401 0.930 . S
H389 C402 0.930 . S
H390 C406 0.959 . S
H391 C406 0.959 . S
H392 C406 0.961 . S
H393 C407 0.960 . S
H394 C407 0.961 . S
H395 C407 0.959 . S
H396 C410 0.929 . S
H397 C411 0.931 1_455 S
H398 C413 0.930 . S
C399 H387 0.930 . S
C399 C400 1.399 . S
C399 C404 1.399 . S
C400 C399 1.399 . S
C400 C401 1.376 . S
C401 H388 0.930 . S
C401 C400 1.376 . S
C401 C402 1.388 . S
C402 H389 0.930 . S
C402 C401 1.388 . S
C402 C403 1.390 . S
C403 C402 1.390 . S
C403 C404 1.394 . S
C403 C409 1.465 . S
C404 C399 1.399 . S
C404 C403 1.394 . S
C404 C405 1.516 . S
C405 C404 1.516 . S
C405 C406 1.502 . S
C405 C407 1.561 . S
C405 C408 1.526 . S
C406 H390 0.959 . S
C406 H391 0.959 . S
C406 H392 0.961 . S
C406 C405 1.502 . S
C407 H393 0.960 . S
C407 H394 0.961 . S
C407 H395 0.959 . S
C407 C405 1.561 . S
C408 C405 1.526 . S
C408 C409 1.396 . S
C408 C413 1.390 . S
C409 C403 1.465 . S
C409 C408 1.396 . S
C409 C410 1.399 . S
C410 H396 0.929 . S
C410 C409 1.399 . S
C410 C411 1.385 . S
C411 H397 0.931 1_655 S
C411 C410 1.385 . S
C411 C412 1.389 1_655 S
C412 C411 1.389 1_455 S
C412 C413 1.387 1_455 S
C413 H398 0.930 . S
C413 C408 1.390 . S
C413 C412 1.387 1_655 S
H414 C426 0.930 . S
H415 C428 0.930 . S
H416 C429 0.930 . S
H417 C433 0.959 . S
H418 C433 0.959 . S
H419 C433 0.961 . S
H420 C434 0.960 . S
H421 C434 0.961 . S
H422 C434 0.959 . S
H423 C437 0.929 . S
H424 C438 0.931 . S
H425 C440 0.930 . S
C426 H414 0.930 . S
C426 C427 1.399 . S
C426 C431 1.399 . S
C427 C426 1.399 . S
C427 C428 1.376 . S
C428 H415 0.930 . S
C428 C427 1.376 . S
C428 C429 1.388 . S
C429 H416 0.930 . S
C429 C428 1.388 . S
C429 C430 1.390 . S
C430 C429 1.390 . S
C430 C431 1.394 . S
C430 C436 1.465 . S
C431 C426 1.399 . S
C431 C430 1.394 . S
C431 C432 1.516 . S
C432 C431 1.516 . S
C432 C433 1.502 . S
C432 C434 1.561 . S
C432 C435 1.526 . S
C433 H417 0.959 . S
C433 H418 0.959 . S
C433 H419 0.961 . S
C433 C432 1.502 . S
C434 H420 0.960 . S
C434 H421 0.961 . S
C434 H422 0.959 . S
C434 C432 1.561 . S
C435 C432 1.526 . S
C435 C436 1.396 . S
C435 C440 1.390 . S
C436 C430 1.465 . S
C436 C435 1.396 . S
C436 C437 1.399 . S
C437 H423 0.929 . S
C437 C436 1.399 . S
C437 C438 1.385 . S
C438 H424 0.931 . S
C438 C437 1.385 . S
C438 C439 1.389 . S
C439 C438 1.389 . S
C439 C440 1.387 . S
C440 H425 0.930 . S
C440 C435 1.390 . S
C440 C439 1.387 . S
H441 C453 0.930 . S
H442 C455 0.930 . S
H443 C456 0.930 . S
H444 C460 0.959 . S
H445 C460 0.959 . S
H446 C460 0.961 . S
H447 C461 0.960 . S
H448 C461 0.961 . S
H449 C461 0.959 . S
H450 C464 0.929 . S
H451 C465 0.931 . S
H452 C467 0.930 . S
C453 H441 0.930 . S
C453 C454 1.399 . S
C453 C458 1.399 . S
C454 C453 1.399 . S
C454 C455 1.376 . S
C455 H442 0.930 . S
C455 C454 1.376 . S
C455 C456 1.388 . S
C456 H443 0.930 . S
C456 C455 1.388 . S
C456 C457 1.390 . S
C457 C456 1.390 . S
C457 C458 1.394 . S
C457 C463 1.465 . S
C458 C453 1.399 . S
C458 C457 1.394 . S
C458 C459 1.516 . S
C459 C458 1.516 . S
C459 C460 1.502 . S
C459 C461 1.561 . S
C459 C462 1.526 . S
C460 H444 0.959 . S
C460 H445 0.959 . S
C460 H446 0.961 . S
C460 C459 1.502 . S
C461 H447 0.960 . S
C461 H448 0.961 . S
C461 H449 0.959 . S
C461 C459 1.561 . S
C462 C459 1.526 . S
C462 C463 1.396 . S
C462 C467 1.390 . S
C463 C457 1.465 . S
C463 C462 1.396 . S
C463 C464 1.399 . S
C464 H450 0.929 . S
C464 C463 1.399 . S
C464 C465 1.385 . S
C465 H451 0.931 . S
C465 C464 1.385 . S
C465 C466 1.389 . S
C466 C465 1.389 . S
C466 C467 1.387 . S
C467 H452 0.930 . S
C467 C462 1.390 . S
C467 C466 1.387 . S
H468 C480 0.930 . S
H469 C482 0.930 . S
H470 C483 0.930 . S
H471 C487 0.959 . S
H472 C487 0.959 . S
H473 C487 0.961 . S
H474 C488 0.960 . S
H475 C488 0.961 . S
H476 C488 0.959 . S
H477 C491 0.929 . S
H478 C492 0.931 . S
H479 C494 0.930 . S
C480 H468 0.930 . S
C480 C481 1.399 . S
C480 C485 1.399 . S
C481 C480 1.399 . S
C481 C482 1.376 . S
C482 H469 0.930 . S
C482 C481 1.376 . S
C482 C483 1.388 . S
C483 H470 0.930 . S
C483 C482 1.388 . S
C483 C484 1.390 . S
C484 C483 1.390 . S
C484 C485 1.394 . S
C484 C490 1.465 . S
C485 C480 1.399 . S
C485 C484 1.394 . S
C485 C486 1.516 . S
C486 C485 1.516 . S
C486 C487 1.502 . S
C486 C488 1.561 . S
C486 C489 1.526 . S
C487 H471 0.959 . S
C487 H472 0.959 . S
C487 H473 0.961 . S
C487 C486 1.502 . S
C488 H474 0.960 . S
C488 H475 0.961 . S
C488 H476 0.959 . S
C488 C486 1.561 . S
C489 C486 1.526 . S
C489 C490 1.396 . S
C489 C494 1.390 . S
C490 C484 1.465 . S
C490 C489 1.396 . S
C490 C491 1.399 . S
C491 H477 0.929 . S
C491 C490 1.399 . S
C491 C492 1.385 . S
C492 H478 0.931 . S
C492 C491 1.385 . S
C492 C493 1.389 . S
C493 C492 1.389 . S
C493 C494 1.387 . S
C494 H479 0.930 . S
C494 C489 1.390 . S
C494 C493 1.387 . S
H495 C507 0.930 . S
H496 C509 0.930 . S
H497 C510 0.930 . S
H498 C514 0.959 . S
H499 C514 0.959 . S
H500 C514 0.961 . S
H501 C515 0.960 . S
H502 C515 0.961 . S
H503 C515 0.959 . S
H504 C518 0.929 . S
H505 C519 0.931 . S
H506 C521 0.930 . S
C507 H495 0.930 . S
C507 C508 1.399 . S
C507 C512 1.399 . S
C508 C507 1.399 . S
C508 C509 1.376 . S
C509 H496 0.930 . S
C509 C508 1.376 . S
C509 C510 1.388 . S
C510 H497 0.930 . S
C510 C509 1.388 . S
C510 C511 1.390 . S
C511 C510 1.390 . S
C511 C512 1.394 . S
C511 C517 1.465 . S
C512 C507 1.399 . S
C512 C511 1.394 . S
C512 C513 1.516 . S
C513 C512 1.516 . S
C513 C514 1.502 . S
C513 C515 1.561 . S
C513 C516 1.526 . S
C514 H498 0.959 . S
C514 H499 0.959 . S
C514 H500 0.961 . S
C514 C513 1.502 . S
C515 H501 0.960 . S
C515 H502 0.961 . S
C515 H503 0.959 . S
C515 C513 1.561 . S
C516 C513 1.526 . S
C516 C517 1.396 . S
C516 C521 1.390 . S
C517 C511 1.465 . S
C517 C516 1.396 . S
C517 C518 1.399 . S
C518 H504 0.929 . S
C518 C517 1.399 . S
C518 C519 1.385 . S
C519 H505 0.931 . S
C519 C518 1.385 . S
C519 C520 1.389 . S
C520 C519 1.389 . S
C520 C521 1.387 . S
C521 H506 0.930 . S
C521 C516 1.390 . S
C521 C520 1.387 . S
H522 C534 0.930 . S
H523 C536 0.930 . S
H524 C537 0.930 . S
H525 C541 0.959 . S
H526 C541 0.959 . S
H527 C541 0.961 . S
H528 C542 0.960 . S
H529 C542 0.961 1_556 S
H530 C542 0.959 . S
H531 C545 0.929 . S
H532 C546 0.931 . S
H533 C548 0.930 . S
C534 H522 0.930 . S
C534 C535 1.399 . S
C534 C539 1.399 . S
C535 C534 1.399 . S
C535 C536 1.376 . S
C536 H523 0.930 . S
C536 C535 1.376 . S
C536 C537 1.388 . S
C537 H524 0.930 . S
C537 C536 1.388 . S
C537 C538 1.390 . S
C538 C537 1.390 . S
C538 C539 1.394 . S
C538 C544 1.465 . S
C539 C534 1.399 . S
C539 C538 1.394 . S
C539 C540 1.516 . S
C540 C539 1.516 . S
C540 C541 1.502 . S
C540 C542 1.561 1_455 S
C540 C543 1.526 1_554 S
C541 H525 0.959 . S
C541 H526 0.959 . S
C541 H527 0.961 . S
C541 C540 1.502 . S
C542 H528 0.960 . S
C542 H529 0.961 1_554 S
C542 H530 0.959 . S
C542 C540 1.561 1_655 S
C543 C540 1.526 1_556 S
C543 C544 1.396 1_556 S
C543 C548 1.390 . S
C544 C538 1.465 . S
C544 C543 1.396 1_554 S
C544 C545 1.399 1_554 S
C545 H531 0.929 . S
C545 C544 1.399 1_556 S
C545 C546 1.385 . S
C546 H532 0.931 . S
C546 C545 1.385 . S
C546 C547 1.389 . S
C547 C546 1.389 . S
C547 C548 1.387 . S
C548 H533 0.930 . S
C548 C543 1.390 . S
C548 C547 1.387 . S
H549 C561 0.930 . S
H550 C563 0.930 . S
H551 C564 0.930 . S
H552 C568 0.959 . S
H553 C568 0.959 . S
H554 C568 0.961 . S
H555 C569 0.960 . S
H556 C569 0.961 . S
H557 C569 0.959 . S
H558 C572 0.929 . S
H559 C573 0.931 . S
H560 C575 0.930 . S
C561 H549 0.930 . S
C561 C562 1.399 . S
C561 C566 1.399 . S
C562 C561 1.399 . S
C562 C563 1.376 1_545 S
C563 H550 0.930 . S
C563 C562 1.376 1_565 S
C563 C564 1.388 . S
C564 H551 0.930 . S
C564 C563 1.388 . S
C564 C565 1.390 1_565 S
C565 C564 1.390 1_545 S
C565 C566 1.394 . S
C565 C571 1.465 . S
C566 C561 1.399 . S
C566 C565 1.394 . S
C566 C567 1.516 . S
C567 C566 1.516 . S
C567 C568 1.502 . S
C567 C569 1.561 . S
C567 C570 1.526 . S
C568 H552 0.959 . S
C568 H553 0.959 . S
C568 H554 0.961 . S
C568 C567 1.502 . S
C569 H555 0.960 . S
C569 H556 0.961 . S
C569 H557 0.959 . S
C569 C567 1.561 . S
C570 C567 1.526 . S
C570 C571 1.396 . S
C570 C575 1.390 . S
C571 C565 1.465 . S
C571 C570 1.396 . S
C571 C572 1.399 1_545 S
C572 H558 0.929 . S
C572 C571 1.399 1_565 S
C572 C573 1.385 . S
C573 H559 0.931 . S
C573 C572 1.385 . S
C573 C574 1.389 1_565 S
C574 C573 1.389 1_545 S
C574 C575 1.387 . S
C575 H560 0.930 . S
C575 C570 1.390 . S
C575 C574 1.387 . S
H576 C588 0.930 . S
H577 C590 0.930 . S
H578 C591 0.930 . S
H579 C595 0.959 . S
H580 C595 0.959 . S
H581 C595 0.961 . S
H582 C596 0.960 . S
H583 C596 0.961 . S
H584 C596 0.959 . S
H585 C599 0.929 . S
H586 C600 0.931 . S
H587 C602 0.930 . S
C588 H576 0.930 . S
C588 C589 1.399 . S
C588 C593 1.399 . S
C589 C588 1.399 . S
C589 C590 1.376 . S
C590 H577 0.930 . S
C590 C589 1.376 . S
C590 C591 1.388 . S
C591 H578 0.930 . S
C591 C590 1.388 . S
C591 C592 1.390 . S
C592 C591 1.390 . S
C592 C593 1.394 . S
C592 C598 1.465 . S
C593 C588 1.399 . S
C593 C592 1.394 . S
C593 C594 1.516 . S
C594 C593 1.516 . S
C594 C595 1.502 . S
C594 C596 1.561 . S
C594 C597 1.526 . S
C595 H579 0.959 . S
C595 H580 0.959 . S
C595 H581 0.961 . S
C595 C594 1.502 . S
C596 H582 0.960 . S
C596 H583 0.961 . S
C596 H584 0.959 . S
C596 C594 1.561 . S
C597 C594 1.526 . S
C597 C598 1.396 . S
C597 C602 1.390 . S
C598 C592 1.465 . S
C598 C597 1.396 . S
C598 C599 1.399 . S
C599 H585 0.929 . S
C599 C598 1.399 . S
C599 C600 1.385 . S
C600 H586 0.931 . S
C600 C599 1.385 . S
C600 C601 1.389 . S
C601 C600 1.389 . S
C601 C602 1.387 . S
C602 H587 0.930 . S
C602 C597 1.390 . S
C602 C601 1.387 . S
H603 C615 0.930 . S
H604 C617 0.930 . S
H605 C618 0.930 . S
H606 C622 0.959 . S
H607 C622 0.959 . S
H608 C622 0.961 . S
H609 C623 0.960 . S
H610 C623 0.961 . S
H611 C623 0.959 . S
H612 C626 0.929 . S
H613 C627 0.931 . S
H614 C629 0.930 . S
C615 H603 0.930 . S
C615 C616 1.400 1_545 S
C615 C620 1.399 . S
C616 C615 1.400 1_565 S
C616 C617 1.376 . S
C617 H604 0.930 . S
C617 C616 1.376 . S
C617 C618 1.388 . S
C618 H605 0.930 . S
C618 C617 1.388 . S
C618 C619 1.390 . S
C619 C618 1.390 . S
C619 C620 1.394 1_565 S
C619 C625 1.465 . S
C620 C615 1.399 . S
C620 C619 1.394 1_545 S
C620 C621 1.516 . S
C621 C620 1.516 . S
C621 C622 1.502 . S
C621 C623 1.561 . S
C621 C624 1.526 . S
C622 H606 0.959 . S
C622 H607 0.959 . S
C622 H608 0.961 . S
C622 C621 1.502 . S
C623 H609 0.960 . S
C623 H610 0.961 . S
C623 H611 0.959 . S
C623 C621 1.561 . S
C624 C621 1.526 . S
C624 C625 1.396 1_545 S
C624 C629 1.390 . S
C625 C619 1.465 . S
C625 C624 1.396 1_565 S
C625 C626 1.399 . S
C626 H612 0.929 . S
C626 C625 1.399 . S
C626 C627 1.385 . S
C627 H613 0.931 . S
C627 C626 1.385 . S
C627 C628 1.389 1_565 S
C628 C627 1.389 1_545 S
C628 C629 1.387 . S
C629 H614 0.930 . S
C629 C624 1.390 . S
C629 C628 1.387 . S
H630 C642 0.930 . S
H631 C644 0.930 . S
H632 C645 0.930 . S
H633 C649 0.964 . S
H634 C649 0.959 1_554 S
H635 C649 0.961 . S
H636 C650 0.960 . S
H637 C650 0.976 . S
H638 C650 0.959 . S
H639 C653 0.929 . S
H640 C654 0.931 . S
H641 C656 0.930 . S
C642 H630 0.930 . S
C642 C643 1.399 . S
C642 C647 1.399 . S
C643 C642 1.399 . S
C643 C644 1.376 . S
C644 H631 0.930 . S
C644 C643 1.376 . S
C644 C645 1.388 . S
C645 H632 0.930 . S
C645 C644 1.388 . S
C645 C646 1.390 . S
C646 C645 1.390 . S
C646 C647 1.394 . S
C646 C652 1.465 . S
C647 C642 1.399 . S
C647 C646 1.394 . S
C647 C648 1.516 . S
C648 C647 1.516 . S
C648 C649 1.502 . S
C648 C650 1.561 . S
C648 C651 1.526 1_556 S
C649 H633 0.964 . S
C649 H634 0.959 1_556 S
C649 H635 0.961 . S
C649 C648 1.502 . S
C650 H636 0.960 . S
C650 H637 0.976 . S
C650 H638 0.959 . S
C650 C648 1.561 . S
C651 C648 1.526 1_554 S
C651 C652 1.396 1_554 S
C651 C656 1.390 . S
C652 C646 1.465 . S
C652 C651 1.396 1_556 S
C652 C653 1.399 1_556 S
C653 H639 0.929 . S
C653 C652 1.399 1_554 S
C653 C654 1.385 . S
C654 H640 0.931 . S
C654 C653 1.385 . S
C654 C655 1.389 . S
C655 C654 1.389 . S
C655 C656 1.387 . S
C656 H641 0.930 . S
C656 C651 1.390 . S
C656 C655 1.387 . S
H657 C669 0.930 . S
H658 C671 0.930 . S
H659 C672 0.930 . S
H660 C676 0.959 . S
H661 C676 0.959 . S
H662 C676 0.961 . S
H663 C677 0.960 . S
H664 C677 0.961 . S
H665 C677 0.959 . S
H666 C680 0.938 . S
H667 C681 0.930 . S
H668 C683 0.930 . S
C669 H657 0.930 . S
C669 C670 1.399 . S
C669 C674 1.399 . S
C670 C669 1.399 . S
C670 C671 1.376 1_455 S
C671 H658 0.930 . S
C671 C670 1.376 1_655 S
C671 C672 1.388 . S
C672 H659 0.930 . S
C672 C671 1.388 . S
C672 C673 1.390 1_655 S
C673 C672 1.390 1_455 S
C673 C674 1.394 . S
C673 C679 1.465 . S
C674 C669 1.399 . S
C674 C673 1.394 . S
C674 C675 1.516 . S
C675 C674 1.516 . S
C675 C676 1.502 . S
C675 C677 1.561 . S
C675 C678 1.526 . S
C676 H660 0.959 . S
C676 H661 0.959 . S
C676 H662 0.961 . S
C676 C675 1.502 . S
C677 H663 0.960 . S
C677 H664 0.961 . S
C677 H665 0.959 . S
C677 C675 1.561 . S
C678 C675 1.526 . S
C678 C679 1.396 . S
C678 C683 1.390 . S
C679 C673 1.465 . S
C679 C678 1.396 . S
C679 C680 1.392 1_455 S
C680 H666 0.938 . S
C680 C679 1.392 1_655 S
C680 C681 1.383 1_655 S
C681 H667 0.930 . S
C681 C680 1.383 1_455 S
C681 C682 1.389 . S
C682 C681 1.389 . S
C682 C683 1.387 . S
C683 H668 0.930 . S
C683 C678 1.390 . S
C683 C682 1.387 . S
C211 C24 3.016 . S
C223 C189 2.838 . S
C238 C66 1.128 . S
C250 C167 1.102 . S
C265 C93 1.701 . S
C277 C180 1.672 . S
C292 C13 2.996 . S
C304 C193 2.949 . S
C331 C163 1.306 . S
C319 C57 1.333 . S
C358 C176 1.870 . S
C346 C104 1.990 . S
C373 C64 1.840 . S
C385 C141 1.832 . S
C400 C97 0.206 . S
C412 C154 0.352 . S
C427 C17 1.318 . S
C439 C124 1.198 . S
C466 C137 1.736 . S
C454 C53 1.849 . S
C493 C150 0.393 . S
C481 C106 0.368 . S
C508 C26 1.067 . S
C520 C128 1.105 . S
C547 C155 1.198 . S
C535 C2 1.218 . S
C562 C63 1.515 . S
C574 C129 1.586 . S
C589 C82 1.407 . S
C601 C142 1.427 . S
C628 C181 1.525 . S
C616 C42 1.532 1_565 S
C655 C194 1.727 . S
C643 C103 1.719 . S
C670 C23 1.548 . S
C682 C168 1.561 . S
