# Generated by pormake.
# Topology hwx, (6,3)-cn, num edge types: 1
# Building blocks:
#     Node 0, Type 0, BuildingBlock: OJICUG_clean_sbu_0, # of connection points: 6
#     Node 1, Type 0, BuildingBlock: OJICUG_clean_sbu_0, # of connection points: 6
#     Node 2, Type 0, BuildingBlock: OJICUG_clean_sbu_0, # of connection points: 6
#     Node 3, Type 0, BuildingBlock: OJICUG_clean_sbu_0, # of connection points: 6
#     Node 4, Type 1, BuildingBlock: CUQRIR_clean_linker_1, # of connection points: 3
#     Node 5, Type 1, BuildingBlock: CUQRIR_clean_linker_1, # of connection points: 3
#     Node 6, Type 1, BuildingBlock: CUQRIR_clean_linker_1, # of connection points: 3
#     Node 7, Type 1, BuildingBlock: CUQRIR_clean_linker_1, # of connection points: 3
#     Node 8, Type 1, BuildingBlock: CUQRIR_clean_linker_1, # of connection points: 3
#     Node 9, Type 1, BuildingBlock: CUQRIR_clean_linker_1, # of connection points: 3
#     Node 10, Type 1, BuildingBlock: CUQRIR_clean_linker_1, # of connection points: 3
#     Node 11, Type 1, BuildingBlock: CUQRIR_clean_linker_1, # of connection points: 3
#     Edge 12, Type (0, 1), BuildingBlock: AJUNOK_clean_linker_0, # of connection points: 2
#     Edge 13, Type (0, 1), BuildingBlock: AJUNOK_clean_linker_0, # of connection points: 2
#     Edge 14, Type (0, 1), BuildingBlock: AJUNOK_clean_linker_0, # of connection points: 2
#     Edge 15, Type (0, 1), BuildingBlock: AJUNOK_clean_linker_0, # of connection points: 2
#     Edge 16, Type (0, 1), BuildingBlock: AJUNOK_clean_linker_0, # of connection points: 2
#     Edge 17, Type (0, 1), BuildingBlock: AJUNOK_clean_linker_0, # of connection points: 2
#     Edge 18, Type (0, 1), BuildingBlock: AJUNOK_clean_linker_0, # of connection points: 2
#     Edge 19, Type (0, 1), BuildingBlock: AJUNOK_clean_linker_0, # of connection points: 2
#     Edge 20, Type (0, 1), BuildingBlock: AJUNOK_clean_linker_0, # of connection points: 2
#     Edge 21, Type (0, 1), BuildingBlock: AJUNOK_clean_linker_0, # of connection points: 2
#     Edge 22, Type (0, 1), BuildingBlock: AJUNOK_clean_linker_0, # of connection points: 2
#     Edge 23, Type (0, 1), BuildingBlock: AJUNOK_clean_linker_0, # of connection points: 2
#     Edge 24, Type (0, 1), BuildingBlock: AJUNOK_clean_linker_0, # of connection points: 2
#     Edge 25, Type (0, 1), BuildingBlock: AJUNOK_clean_linker_0, # of connection points: 2
#     Edge 26, Type (0, 1), BuildingBlock: AJUNOK_clean_linker_0, # of connection points: 2
#     Edge 27, Type (0, 1), BuildingBlock: AJUNOK_clean_linker_0, # of connection points: 2
#     Edge 28, Type (0, 1), BuildingBlock: AJUNOK_clean_linker_0, # of connection points: 2
#     Edge 29, Type (0, 1), BuildingBlock: AJUNOK_clean_linker_0, # of connection points: 2
#     Edge 30, Type (0, 1), BuildingBlock: AJUNOK_clean_linker_0, # of connection points: 2
#     Edge 31, Type (0, 1), BuildingBlock: AJUNOK_clean_linker_0, # of connection points: 2
#     Edge 32, Type (0, 1), BuildingBlock: AJUNOK_clean_linker_0, # of connection points: 2
#     Edge 33, Type (0, 1), BuildingBlock: AJUNOK_clean_linker_0, # of connection points: 2
#     Edge 34, Type (0, 1), BuildingBlock: AJUNOK_clean_linker_0, # of connection points: 2
#     Edge 35, Type (0, 1), BuildingBlock: AJUNOK_clean_linker_0, # of connection points: 2
# Relax obj value: 0.003
# Max RMSD: 0.050
# Mean RMSD: 0.041
data_MOF--net-hwx--node1-OJICUG_clean_sbu_0--node2-CUQRIR_clean_linker_1--edge1-AJUNOK_clean_linker_0
_symmetry_space_group_name_H-M    P1
_symmetry_Int_Tables_number       1
_symmetry_cell_setting            triclinic
loop_
_symmetry_equiv_pos_as_xyz
'x, y, z'
_cell_length_a     35.82693
_cell_length_b     35.86763
_cell_length_c     13.253418
_cell_angle_alpha  90.059936
_cell_angle_beta   90.13061
_cell_angle_gamma 89.968425
loop_
_atom_site_label
_atom_site_type_symbol
_atom_site_fract_x
_atom_site_fract_y
_atom_site_fract_z
_atom_type_partial_charge
Sc0 Sc 0.23334 0.22609 0.13897 0.0
Sc1 Sc 0.17207 0.1667 1.00484 0.0
Sc2 Sc 0.23167 0.22773 0.87306 0.0
O3 O 0.21235 0.20682 1.00566 0.0
C4 C 0.22761 0.30088 0.01091 0.0
C5 C 0.14612 0.21801 0.18837 0.0
C6 C 0.1454 0.21907 0.82256 0.0
C7 C 0.22416 0.13987 0.18832 0.0
C8 C 0.30652 0.22247 1.0026 0.0
C9 C 0.22381 0.14067 0.82224 0.0
O10 O 0.22849 0.2836 0.09451 0.0
O11 O 0.13888 0.19592 0.11557 0.0
O12 O 0.17652 0.2355 0.8121 0.0
O13 O 0.24102 0.17078 0.19911 0.0
O14 O 0.28927 0.2222 0.91871 0.0
O15 O 0.20136 0.13354 0.89411 0.0
O16 O 0.2902 0.22467 0.08735 0.0
O17 O 0.19849 0.13472 0.1233 0.0
O18 O 0.23618 0.17327 0.80488 0.0
O19 O 0.1788 0.23017 0.20645 0.0
O20 O 0.22885 0.28465 0.92568 0.0
O21 O 0.13999 0.19317 0.88633 0.0
Sc22 Sc 0.26885 0.72685 0.36974 0.0
Sc23 Sc 0.32736 0.66533 0.50462 0.0
Sc24 Sc 0.26667 0.72608 0.63465 0.0
O25 O 0.28769 0.706 0.50299 0.0
C26 C 0.27344 0.80026 0.50117 0.0
C27 C 0.35556 0.71512 0.32158 0.0
C28 C 0.35296 0.71865 0.68697 0.0
C29 C 0.27464 0.6403 0.31998 0.0
C30 C 0.19382 0.72311 0.50085 0.0
C31 C 0.27573 0.63931 0.68636 0.0
O32 O 0.27776 0.78361 0.41734 0.0
O33 O 0.36196 0.69323 0.39504 0.0
O34 O 0.32168 0.73513 0.69617 0.0
O35 O 0.25878 0.67184 0.30917 0.0
O36 O 0.20989 0.71854 0.58546 0.0
O37 O 0.29785 0.63208 0.61404 0.0
O38 O 0.21146 0.72858 0.41905 0.0
O39 O 0.30015 0.6343 0.38518 0.0
O40 O 0.2634 0.67188 0.70386 0.0
O41 O 0.32342 0.72833 0.30264 0.0
O42 O 0.26672 0.78325 0.58328 0.0
O43 O 0.35863 0.69228 0.62427 0.0
Sc44 Sc 0.76812 0.7693 0.86704 0.0
Sc45 Sc 0.82922 0.82956 0.99858 0.0
Sc46 Sc 0.76759 0.77141 0.1331 0.0
O47 O 0.7883 0.79012 0.99958 0.0
C48 C 0.6938 0.77548 0.99672 0.0
C49 C 0.77773 0.85591 0.81502 0.0
C50 C 0.77759 0.85768 0.1804 0.0
C51 C 0.85467 0.77633 0.81676 0.0
C52 C 0.77146 0.69646 1.00481 0.0
C53 C 0.85482 0.77875 0.18336 0.0
O54 O 0.71086 0.77455 0.91286 0.0
O55 O 0.80055 0.86261 0.88659 0.0
O56 O 0.76073 0.82688 0.19254 0.0
O57 O 0.82299 0.76101 0.80532 0.0
O58 O 0.77236 0.71378 0.08846 0.0
O59 O 0.86205 0.80064 0.11046 0.0
O60 O 0.76929 0.71265 0.9198 0.0
O61 O 0.86077 0.80176 0.88175 0.0
O62 O 0.82221 0.7664 0.20098 0.0
O63 O 0.7643 0.82366 0.79862 0.0
O64 O 0.7104 0.7743 0.08157 0.0
O65 O 0.80331 0.86253 0.11579 0.0
Sc66 Sc 0.73331 0.27078 0.6399 0.0
Sc67 Sc 0.67143 0.33063 0.51102 0.0
Sc68 Sc 0.73095 0.27077 0.3746 0.0
O69 O 0.71186 0.29079 0.50849 0.0
C70 C 0.80604 0.2755 0.50582 0.0
C71 C 0.72403 0.35749 0.69081 0.0
C72 C 0.72235 0.35684 0.32491 0.0
C73 C 0.64731 0.27766 0.69488 0.0
C74 C 0.72748 0.19705 0.50453 0.0
C75 C 0.64364 0.27997 0.32864 0.0
O76 O 0.7899 0.2787 0.59059 0.0
O77 O 0.70148 0.36451 0.6189 0.0
O78 O 0.73946 0.32597 0.31467 0.0
O79 O 0.6787 0.26133 0.70298 0.0
O80 O 0.72363 0.21388 0.42092 0.0
O81 O 0.63692 0.30128 0.40327 0.0
O82 O 0.73337 0.21379 0.58764 0.0
O83 O 0.64123 0.30378 0.63194 0.0
O84 O 0.67613 0.26798 0.30832 0.0
O85 O 0.73641 0.32498 0.70866 0.0
O86 O 0.78853 0.27036 0.42342 0.0
O87 O 0.69681 0.36203 0.39011 0.0
C88 C 0.23166 0.48309 0.92569 0.0
N89 N 0.23547 0.51916 0.95398 0.0
N90 N 0.22484 0.46129 0.00699 0.0
C91 C 0.23799 0.46875 0.82036 0.0
C92 C 0.22455 0.48556 0.08547 0.0
N93 N 0.23085 0.52074 0.05329 0.0
C94 C 0.21969 0.47493 0.1943 0.0
H95 H 0.23357 0.49102 0.76354 0.0
H96 H 0.21911 0.44516 0.80296 0.0
H97 H 0.26714 0.45854 0.81436 0.0
H98 H 0.2474 0.47448 0.23183 0.0
H99 H 0.20651 0.44708 0.20165 0.0
H100 H 0.20235 0.49611 0.23342 0.0
C101 C 0.01098 0.73124 0.57917 0.0
N102 N 0.9751 0.73627 0.55001 0.0
N103 N 0.03309 0.72544 0.49792 0.0
C104 C 0.02498 0.73404 0.68602 0.0
C105 C 0.00927 0.7271 0.41849 0.0
N106 N 0.97406 0.73381 0.45009 0.0
C107 C 0.02012 0.72192 0.30985 0.0
H108 H 0.00334 0.74454 0.73847 0.0
H109 H 0.04974 0.75261 0.6891 0.0
H110 H 0.03392 0.70601 0.71183 0.0
H111 H 0.04718 0.70707 0.30325 0.0
H112 H 0.02251 0.74956 0.27299 0.0
H113 H 0.9981 0.70604 0.26936 0.0
C114 C 0.76554 0.51361 0.09012 0.0
N115 N 0.76168 0.47777 0.05986 0.0
N116 N 0.77095 0.53619 0.00965 0.0
C117 C 0.76129 0.52716 0.19695 0.0
C118 C 0.7702 0.51274 0.92954 0.0
N119 N 0.76441 0.4773 0.95997 0.0
C120 C 0.77546 0.52416 0.82137 0.0
H121 H 0.74116 0.55068 0.19921 0.0
H122 H 0.78856 0.53778 0.22428 0.0
H123 H 0.75182 0.50479 0.24855 0.0
H124 H 0.79228 0.50288 0.78099 0.0
H125 H 0.78941 0.55169 0.81591 0.0
H126 H 0.74785 0.52572 0.78357 0.0
C127 C 0.98959 0.26446 0.42392 0.0
N128 N 0.02494 0.25763 0.45469 0.0
N129 N 0.96663 0.26886 0.50421 0.0
C130 C 0.97774 0.26786 0.31538 0.0
C131 C 0.98944 0.26427 0.58512 0.0
N132 N 0.02489 0.25792 0.55486 0.0
C133 C 0.97675 0.26236 0.69315 0.0
H134 H 0.95295 0.28622 0.30801 0.0
H135 H 0.97046 0.23981 0.28596 0.0
H136 H 0.00086 0.27912 0.2689 0.0
H137 H 0.99351 0.24169 0.73599 0.0
H138 H 0.9468 0.25483 0.69844 0.0
H139 H 0.98102 0.29001 0.72894 0.0
C140 C 0.73503 0.01343 0.57982 0.0
N141 N 0.74186 0.97822 0.54846 0.0
N142 N 0.73165 0.03675 0.49998 0.0
C143 C 0.73034 0.0248 0.68834 0.0
C144 C 0.73678 0.01435 0.41871 0.0
N145 N 0.74255 0.97874 0.44832 0.0
C146 C 0.74004 0.0276 0.31139 0.0
H147 H 0.7184 0.00156 0.73309 0.0
H148 H 0.71196 0.0496 0.69467 0.0
H149 H 0.75805 0.03187 0.72058 0.0
H150 H 0.76045 0.01038 0.26908 0.0
H151 H 0.74872 0.05725 0.30805 0.0
H152 H 0.71252 0.0247 0.27371 0.0
C153 C 0.49025 0.23219 0.92498 0.0
N154 N 0.5256 0.23796 0.95749 0.0
N155 N 0.46715 0.22615 1.00428 0.0
C156 C 0.47798 0.23501 0.81656 0.0
C157 C 0.48984 0.22905 0.0859 0.0
N158 N 0.52529 0.23631 0.0575 0.0
C159 C 0.47747 0.22469 0.19359 0.0
H160 H 0.49516 0.25549 0.77472 0.0
H161 H 0.44819 0.24318 0.81067 0.0
H162 H 0.48171 0.20745 0.77989 0.0
H163 H 0.45285 0.20601 0.19848 0.0
H164 H 0.46966 0.25239 0.22432 0.0
H165 H 0.50049 0.21334 0.24058 0.0
C166 C 0.26867 0.9839 0.42493 0.0
N167 N 0.26359 0.01952 0.45575 0.0
N168 N 0.27285 0.96093 0.50541 0.0
C169 C 0.26625 0.97127 0.31677 0.0
C170 C 0.26946 0.98392 0.58607 0.0
N171 N 0.26374 0.01947 0.55595 0.0
C172 C 0.27205 0.97174 0.69437 0.0
H173 H 0.24642 0.98882 0.27339 0.0
H174 H 0.25742 0.94171 0.31134 0.0
H175 H 0.29416 0.97417 0.28154 0.0
H176 H 0.28953 0.94633 0.70166 0.0
H177 H 0.24363 0.96535 0.72254 0.0
H178 H 0.28392 0.99434 0.74184 0.0
C179 C 0.5125 0.75465 0.07957 0.0
N180 N 0.47653 0.74976 0.05135 0.0
N181 N 0.53344 0.76545 0.99958 0.0
C182 C 0.52723 0.74802 0.18459 0.0
C183 C 0.5088 0.76653 0.92182 0.0
N184 N 0.47417 0.75738 0.95355 0.0
C185 C 0.51864 0.77541 0.8143 0.0
H186 H 0.5209 0.77276 0.23189 0.0
H187 H 0.5578 0.74321 0.18469 0.0
H188 H 0.51358 0.72365 0.21988 0.0
H189 H 0.52434 0.74899 0.77349 0.0
H190 H 0.54383 0.79333 0.81054 0.0
H191 H 0.49508 0.78959 0.7758 0.0
C192 C 0.08283 0.20702 0.26282 0.0
C193 C 0.11538 0.22897 0.25746 0.0
C194 C 0.05373 0.21621 0.32883 0.0
C195 C 0.05597 0.24772 0.39138 0.0
H196 H 0.07989 0.1823 0.21648 0.0
H197 H 0.02919 0.19861 0.33114 0.0
S198 S 0.13354 0.31553 0.40406 0.0
N199 N 0.14737 0.28439 0.32018 0.0
N200 N 0.09197 0.30164 0.44214 0.0
C201 C 0.08793 0.27003 0.38684 0.0
C202 C 0.11779 0.26067 0.32032 0.0
C203 C 0.28937 0.5787 0.7727 0.0
C204 C 0.26482 0.60875 0.75549 0.0
C205 C 0.28003 0.5499 0.83956 0.0
C206 C 0.24571 0.54996 0.89043 0.0
H207 H 0.31619 0.57763 0.7352 0.0
H208 H 0.29957 0.52727 0.85135 0.0
S209 S 0.17074 0.6204 0.86813 0.0
N210 N 0.20421 0.63602 0.79384 0.0
N211 N 0.18659 0.58109 0.91691 0.0
C212 C 0.22087 0.57943 0.87369 0.0
C213 C 0.23042 0.60902 0.80673 0.0
C214 C 0.88429 0.7332 0.30314 0.0
C215 C 0.88551 0.76775 0.25248 0.0
C216 C 0.91311 0.72226 0.36877 0.0
C217 C 0.94362 0.74577 0.38714 0.0
H218 H 0.86127 0.71418 0.29052 0.0
H219 H 0.91191 0.69507 0.40382 0.0
S220 S 0.95935 0.83966 0.28038 0.0
N221 N 0.91962 0.82582 0.22913 0.0
N222 N 0.97308 0.80522 0.35428 0.0
C223 C 0.94491 0.78049 0.33917 0.0
C224 C 0.91602 0.7915 0.27137 0.0
C225 C 0.71155 0.41899 0.77355 0.0
C226 C 0.73531 0.38814 0.75951 0.0
C227 C 0.72097 0.44766 0.84083 0.0
C228 C 0.75452 0.44663 0.89559 0.0
H229 H 0.68524 0.42079 0.73341 0.0
H230 H 0.70203 0.47095 0.85018 0.0
S231 S 0.82755 0.37401 0.88248 0.0
N232 N 0.79464 0.35921 0.80467 0.0
N233 N 0.8123 0.41394 0.92892 0.0
C234 C 0.77873 0.41651 0.88176 0.0
C235 C 0.76913 0.38704 0.81417 0.0
C236 C 0.61462 0.23533 0.20588 0.0
C237 C 0.61269 0.26912 0.26024 0.0
C238 C 0.58616 0.22481 0.13873 0.0
C239 C 0.55517 0.24792 0.12285 0.0
H240 H 0.63806 0.21661 0.21623 0.0
H241 H 0.58807 0.19827 0.10025 0.0
S242 S 0.53741 0.33988 0.23996 0.0
N243 N 0.57737 0.32609 0.28999 0.0
N244 N 0.52441 0.30625 0.16229 0.0
C245 C 0.55303 0.28184 0.17498 0.0
C246 C 0.58165 0.29246 0.24413 0.0
C247 C 0.21215 0.07801 0.74452 0.0
C248 C 0.23491 0.10989 0.75339 0.0
C249 C 0.22145 0.04889 0.67854 0.0
C250 C 0.2539 0.05044 0.61964 0.0
H251 H 0.1867 0.07564 0.78797 0.0
H252 H 0.2032 0.02491 0.67332 0.0
S253 S 0.32406 0.126 0.61742 0.0
N254 N 0.2921 0.14045 0.69817 0.0
N255 N 0.30958 0.08499 0.57629 0.0
C256 C 0.27706 0.08169 0.62785 0.0
C257 C 0.26758 0.11158 0.69429 0.0
C258 C 0.4145 0.6981 0.23151 0.0
C259 C 0.38648 0.72456 0.25229 0.0
C260 C 0.44336 0.70602 0.16341 0.0
C261 C 0.44559 0.74089 0.1159 0.0
H262 H 0.41379 0.67087 0.26676 0.0
H263 H 0.46424 0.68493 0.14813 0.0
S264 S 0.38023 0.81995 0.14531 0.0
N265 N 0.3629 0.787 0.21851 0.0
N266 N 0.41829 0.80209 0.09445 0.0
C267 C 0.41799 0.76749 0.13578 0.0
C268 C 0.38819 0.75931 0.20328 0.0
C269 C 0.78919 0.91967 0.74478 0.0
C270 C 0.76762 0.88681 0.74533 0.0
C271 C 0.78097 0.94904 0.67892 0.0
C272 C 0.7508 0.94685 0.61156 0.0
H273 H 0.81288 0.92273 0.79502 0.0
H274 H 0.79829 0.97376 0.68049 0.0
S275 S 0.68488 0.86824 0.5829 0.0
N276 N 0.71426 0.85437 0.6715 0.0
N277 N 0.69882 0.91031 0.54944 0.0
C278 C 0.72899 0.91452 0.61059 0.0
C279 C 0.73736 0.88435 0.67716 0.0
C280 C 0.91307 0.79146 0.72186 0.0
C281 C 0.88541 0.76531 0.74824 0.0
C282 C 0.94188 0.78208 0.65501 0.0
C283 C 0.94423 0.74618 0.61349 0.0
H284 H 0.91222 0.81952 0.75208 0.0
H285 H 0.96273 0.80277 0.6362 0.0
S286 S 0.88069 0.66701 0.66113 0.0
N287 N 0.863 0.70162 0.72811 0.0
N288 N 0.91807 0.68409 0.60501 0.0
C289 C 0.91725 0.71974 0.63942 0.0
C290 C 0.88759 0.72928 0.70626 0.0
C291 C 0.76863 0.39187 0.21998 0.0
C292 C 0.73186 0.3878 0.25577 0.0
C293 C 0.7782 0.42119 0.15498 0.0
C294 C 0.75118 0.4467 0.1218 0.0
H295 H 0.79031 0.37276 0.24409 0.0
H296 H 0.80696 0.42437 0.13173 0.0
S297 S 0.65099 0.44753 0.1875 0.0
N298 N 0.66816 0.41155 0.25005 0.0
N299 N 0.68648 0.46596 0.12583 0.0
C300 C 0.71437 0.44266 0.15492 0.0
C301 C 0.70462 0.41334 0.22241 0.0
C302 C 0.09422 0.20182 0.70314 0.0
C303 C 0.11453 0.22961 0.75447 0.0
C304 C 0.06559 0.21129 0.63535 0.0
C305 C 0.05594 0.2487 0.61887 0.0
H306 H 0.1009 0.17265 0.71435 0.0
H307 H 0.05045 0.18938 0.59671 0.0
S308 S 0.09901 0.33157 0.73759 0.0
N309 N 0.12269 0.29598 0.78436 0.0
N310 N 0.0674 0.31342 0.66095 0.0
C311 C 0.07542 0.2766 0.67082 0.0
C312 C 0.1052 0.26713 0.73754 0.0
C313 C 0.22697 0.60717 0.21349 0.0
C314 C 0.26374 0.60949 0.25121 0.0
C315 C 0.21623 0.57818 0.14821 0.0
C316 C 0.24213 0.5513 0.11659 0.0
H317 H 0.2062 0.62747 0.23604 0.0
H318 H 0.18751 0.5765 0.12308 0.0
S319 S 0.34164 0.54518 0.18887 0.0
N320 N 0.32604 0.58223 0.24978 0.0
N321 N 0.30561 0.52856 0.12522 0.0
C322 C 0.27884 0.55344 0.1522 0.0
C323 C 0.28973 0.58238 0.21991 0.0
C324 C 0.4076 0.7019 0.79522 0.0
C325 C 0.38376 0.72948 0.75551 0.0
C326 C 0.4365 0.71122 0.86214 0.0
C327 C 0.44294 0.74839 0.88986 0.0
H328 H 0.40358 0.67286 0.77547 0.0
H329 H 0.45436 0.68938 0.89149 0.0
S330 S 0.39001 0.83114 0.80445 0.0
N331 N 0.36896 0.79566 0.74868 0.0
N332 N 0.42452 0.81301 0.87124 0.0
C333 C 0.41982 0.77626 0.85018 0.0
C334 C 0.38985 0.76681 0.78383 0.0
C335 C 0.79572 0.90421 0.31132 0.0
C336 C 0.76811 0.88874 0.24827 0.0
C337 C 0.78704 0.93305 0.37902 0.0
C338 C 0.75075 0.94764 0.38374 0.0
H339 H 0.82404 0.89361 0.30909 0.0
H340 H 0.80878 0.94449 0.42672 0.0
S341 S 0.66915 0.91797 0.23271 0.0
N342 N 0.70326 0.89029 0.19475 0.0
N343 N 0.68747 0.94554 0.31957 0.0
C344 C 0.72315 0.93278 0.32055 0.0
C345 C 0.73169 0.90295 0.25342 0.0
C346 C 0.59008 0.29357 0.79402 0.0
C347 C 0.61673 0.26683 0.76413 0.0
C348 C 0.56093 0.28423 0.85973 0.0
C349 C 0.55715 0.2478 0.89643 0.0
H350 H 0.5919 0.32201 0.76704 0.0
H351 H 0.5408 0.30535 0.88094 0.0
S352 S 0.61804 0.16723 0.83992 0.0
N353 N 0.63696 0.20217 0.77699 0.0
N354 N 0.58121 0.18475 0.89791 0.0
C355 C 0.58326 0.22083 0.86758 0.0
C356 C 0.61332 0.23032 0.80201 0.0
C357 C 0.27126 0.10287 0.28604 0.0
C358 C 0.23387 0.10894 0.25737 0.0
C359 C 0.28089 0.07362 0.35152 0.0
C360 C 0.25334 0.05047 0.39283 0.0
H361 H 0.29325 0.12034 0.25607 0.0
H362 H 0.30998 0.06887 0.36967 0.0
S363 S 0.15172 0.05536 0.34634 0.0
N364 N 0.16923 0.08942 0.27722 0.0
N365 N 0.18766 0.03541 0.40299 0.0
C366 C 0.21601 0.05653 0.36653 0.0
C367 C 0.20618 0.0856 0.29815 0.0
C368 C 0.19881 0.36132 0.95912 0.0
C369 C 0.22653 0.34188 0.01287 0.0
C370 C 0.19786 0.40045 0.95932 0.0
C371 C 0.22517 0.4212 0.01086 0.0
H372 H 0.17758 0.34617 0.91764 0.0
H373 H 0.17583 0.41465 0.91859 0.0
S374 S 0.30499 0.38342 0.15653 0.0
N375 N 0.28218 0.34609 0.11718 0.0
N376 N 0.28153 0.41963 0.11263 0.0
C377 C 0.25326 0.40205 0.06349 0.0
C378 C 0.25368 0.36234 0.06557 0.0
C379 C 0.13206 0.69694 0.55236 0.0
C380 C 0.15268 0.72348 0.49781 0.0
C381 C 0.09288 0.69726 0.55065 0.0
C382 C 0.07323 0.72452 0.49607 0.0
H383 H 0.1463 0.67559 0.59559 0.0
H384 H 0.0778 0.67611 0.5921 0.0
S385 S 0.11418 0.80239 0.35011 0.0
N386 N 0.15061 0.77866 0.39167 0.0
N387 N 0.07706 0.78025 0.39298 0.0
C388 C 0.09353 0.75168 0.44347 0.0
C389 C 0.13328 0.7509 0.44324 0.0
C390 C 0.79769 0.63557 0.06267 0.0
C391 C 0.77108 0.65549 0.00621 0.0
C392 C 0.79775 0.59643 0.06299 0.0
C393 C 0.77079 0.57626 0.00855 0.0
H394 H 0.81893 0.65031 0.1052 0.0
H395 H 0.8191 0.5818 0.10521 0.0
S396 S 0.69259 0.61553 0.85931 0.0
N397 N 0.71597 0.65237 0.89945 0.0
N398 N 0.71501 0.57891 0.90455 0.0
C399 C 0.74335 0.59593 0.95486 0.0
C400 C 0.74377 0.63558 0.95256 0.0
C401 C 0.86605 0.24809 0.44755 0.0
C402 C 0.84716 0.27548 0.5036 0.0
C403 C 0.90508 0.24608 0.4483 0.0
C404 C 0.92655 0.27194 0.50305 0.0
H405 H 0.85051 0.2274 0.40517 0.0
H406 H 0.91861 0.22381 0.40709 0.0
S407 S 0.89062 0.35095 0.65455 0.0
N408 N 0.8527 0.32978 0.61242 0.0
N409 N 0.92633 0.3271 0.60921 0.0
C410 C 0.90806 0.3001 0.55694 0.0
C411 C 0.86827 0.30162 0.5583 0.0
C412 C 0.75365 0.13641 0.56155 0.0
C413 C 0.72699 0.15602 0.50457 0.0
C414 C 0.75502 0.09744 0.55943 0.0
C415 C 0.72922 0.07677 0.50227 0.0
H416 H 0.77425 0.15133 0.60589 0.0
H417 H 0.77673 0.08331 0.60154 0.0
S418 S 0.65205 0.11474 0.34693 0.0
N419 N 0.67346 0.15202 0.39203 0.0
N420 N 0.67496 0.07844 0.39242 0.0
C421 C 0.70181 0.09596 0.44721 0.0
C422 C 0.70094 0.1357 0.44735 0.0
C423 C 0.36705 0.24881 0.06005 0.0
C424 C 0.34761 0.22236 1.002 0.0
C425 C 0.40609 0.24999 0.0598 0.0
C426 C 0.42702 0.22415 1.00366 0.0
H427 H 0.35193 0.26926 0.10426 0.0
H428 H 0.42008 0.27151 0.10293 0.0
S429 S 0.38939 0.14781 0.84497 0.0
N430 N 0.35192 0.16931 0.88854 0.0
N431 N 0.42562 0.17032 0.89259 0.0
C432 C 0.40794 0.19711 0.94692 0.0
C433 C 0.36812 0.1965 0.94504 0.0
C434 C 0.24743 0.86124 0.55746 0.0
C435 C 0.27459 0.84138 0.50296 0.0
C436 C 0.24703 0.9003 0.55788 0.0
C437 C 0.27425 0.9208 0.5057 0.0
H438 H 0.22578 0.84647 0.59804 0.0
H439 H 0.22501 0.91464 0.59807 0.0
S440 S 0.35327 0.88219 0.35958 0.0
N441 N 0.33024 0.84506 0.39893 0.0
N442 N 0.33029 0.91866 0.40364 0.0
C443 C 0.30209 0.90135 0.45324 0.0
C444 C 0.30208 0.86157 0.45094 0.0
C445 C 0.63375 0.75152 0.92751 0.0
C446 C 0.65264 0.77522 0.99511 0.0
C447 C 0.59475 0.74873 0.92868 0.0
C448 C 0.57331 0.77022 0.99565 0.0
H449 H 0.6493 0.73406 0.87571 0.0
H450 H 0.58128 0.72905 0.87849 0.0
S451 S 0.60895 0.83883 0.18102 0.0
N452 N 0.64694 0.82148 0.12826 0.0
N453 N 0.57336 0.81784 0.12569 0.0
C454 C 0.59172 0.79505 0.06071 0.0
C455 C 0.63148 0.79713 0.06169 0.0
loop_
_geom_bond_atom_site_label_1
_geom_bond_atom_site_label_2
_geom_bond_distance
_geom_bond_site_symmetry_2
_ccdc_geom_bond_type
Sc0 O3 2.026 . S
Sc0 O10 2.105 . S
Sc0 O13 2.105 . S
Sc0 O16 2.105 . S
Sc0 O19 2.105 . S
Sc1 O3 2.025 . S
Sc1 O11 2.104 . S
Sc1 O15 2.105 1_554 S
Sc1 O17 2.104 . S
Sc1 O21 2.105 1_554 S
Sc2 O3 2.025 1_556 S
Sc2 O12 2.105 . S
Sc2 O14 2.105 . S
Sc2 O18 2.105 . S
Sc2 O20 2.105 . S
O3 Sc0 2.026 . S
O3 Sc1 2.025 . S
O3 Sc2 2.025 1_554 S
C4 O10 1.270 . S
C4 O20 1.266 1_554 S
C5 O11 1.268 . S
C5 O19 1.268 . S
C6 O12 1.268 . S
C6 O21 1.268 . S
C7 O13 1.268 . S
C7 O17 1.268 . S
C8 O14 1.266 1_554 S
C8 O16 1.270 . S
C9 O15 1.268 . S
C9 O18 1.268 . S
O10 Sc0 2.105 . S
O10 C4 1.270 . S
O11 Sc1 2.104 . S
O11 C5 1.268 . S
O12 Sc2 2.105 . S
O12 C6 1.268 . S
O13 Sc0 2.105 . S
O13 C7 1.268 . S
O14 Sc2 2.105 . S
O14 C8 1.266 1_556 S
O15 Sc1 2.105 1_556 S
O15 C9 1.268 . S
O16 Sc0 2.105 . S
O16 C8 1.270 . S
O17 Sc1 2.104 . S
O17 C7 1.268 . S
O18 Sc2 2.105 . S
O18 C9 1.268 . S
O19 Sc0 2.105 . S
O19 C5 1.268 . S
O20 Sc2 2.105 . S
O20 C4 1.266 1_556 S
O21 Sc1 2.105 1_556 S
O21 C6 1.268 . S
Sc22 O25 2.025 . S
Sc22 O32 2.105 . S
Sc22 O35 2.105 . S
Sc22 O38 2.105 . S
Sc22 O41 2.105 . S
Sc23 O25 2.025 . S
Sc23 O33 2.105 . S
Sc23 O37 2.105 . S
Sc23 O39 2.105 . S
Sc23 O43 2.105 . S
Sc24 O25 2.025 . S
Sc24 O34 2.105 . S
Sc24 O36 2.105 . S
Sc24 O40 2.105 . S
Sc24 O42 2.105 . S
O25 Sc22 2.025 . S
O25 Sc23 2.025 . S
O25 Sc24 2.025 . S
C26 O32 1.268 . S
C26 O42 1.268 . S
C27 O33 1.268 . S
C27 O41 1.268 . S
C28 O34 1.268 . S
C28 O43 1.268 . S
C29 O35 1.268 . S
C29 O39 1.268 . S
C30 O36 1.268 . S
C30 O38 1.268 . S
C31 O37 1.268 . S
C31 O40 1.268 . S
O32 Sc22 2.105 . S
O32 C26 1.268 . S
O33 Sc23 2.105 . S
O33 C27 1.268 . S
O34 Sc24 2.105 . S
O34 C28 1.268 . S
O35 Sc22 2.105 . S
O35 C29 1.268 . S
O36 Sc24 2.105 . S
O36 C30 1.268 . S
O37 Sc23 2.105 . S
O37 C31 1.268 . S
O38 Sc22 2.105 . S
O38 C30 1.268 . S
O39 Sc23 2.105 . S
O39 C29 1.268 . S
O40 Sc24 2.105 . S
O40 C31 1.268 . S
O41 Sc22 2.105 . S
O41 C27 1.268 . S
O42 Sc24 2.105 . S
O42 C26 1.268 . S
O43 Sc23 2.105 . S
O43 C28 1.268 . S
Sc44 O47 2.021 1_556 S
Sc44 O54 2.105 . S
Sc44 O57 2.105 . S
Sc44 O60 2.105 . S
Sc44 O63 2.105 . S
Sc45 O47 2.025 . S
Sc45 O55 2.101 1_554 S
Sc45 O59 2.109 . S
Sc45 O61 2.101 1_554 S
Sc45 O65 2.109 . S
Sc46 O47 2.030 . S
Sc46 O56 2.105 . S
Sc46 O58 2.105 . S
Sc46 O62 2.105 . S
Sc46 O64 2.105 . S
O47 Sc44 2.021 1_554 S
O47 Sc45 2.025 . S
O47 Sc46 2.030 . S
C48 O54 1.265 1_554 S
C48 O64 1.271 . S
C49 O55 1.268 . S
C49 O63 1.268 . S
C50 O56 1.268 . S
C50 O65 1.268 . S
C51 O57 1.268 . S
C51 O61 1.268 . S
C52 O58 1.271 . S
C52 O60 1.265 1_554 S
C53 O59 1.268 . S
C53 O62 1.268 . S
O54 Sc44 2.105 . S
O54 C48 1.265 1_556 S
O55 Sc45 2.101 1_556 S
O55 C49 1.268 . S
O56 Sc46 2.105 . S
O56 C50 1.268 . S
O57 Sc44 2.105 . S
O57 C51 1.268 . S
O58 Sc46 2.105 . S
O58 C52 1.271 . S
O59 Sc45 2.109 . S
O59 C53 1.268 . S
O60 Sc44 2.105 . S
O60 C52 1.265 1_556 S
O61 Sc45 2.101 1_556 S
O61 C51 1.268 . S
O62 Sc46 2.105 . S
O62 C53 1.268 . S
O63 Sc44 2.105 . S
O63 C49 1.268 . S
O64 Sc46 2.105 . S
O64 C48 1.271 . S
O65 Sc45 2.109 . S
O65 C50 1.268 . S
Sc66 O69 2.025 . S
Sc66 O76 2.105 . S
Sc66 O79 2.105 . S
Sc66 O82 2.105 . S
Sc66 O85 2.105 . S
Sc67 O69 2.025 . S
Sc67 O77 2.105 . S
Sc67 O81 2.105 . S
Sc67 O83 2.105 . S
Sc67 O87 2.105 . S
Sc68 O69 2.025 . S
Sc68 O78 2.105 . S
Sc68 O80 2.105 . S
Sc68 O84 2.105 . S
Sc68 O86 2.105 . S
O69 Sc66 2.025 . S
O69 Sc67 2.025 . S
O69 Sc68 2.025 . S
C70 O76 1.268 . S
C70 O86 1.268 . S
C71 O77 1.268 . S
C71 O85 1.268 . S
C72 O78 1.268 . S
C72 O87 1.268 . S
C73 O79 1.268 . S
C73 O83 1.268 . S
C74 O80 1.268 . S
C74 O82 1.268 . S
C75 O81 1.268 . S
C75 O84 1.268 . S
O76 Sc66 2.105 . S
O76 C70 1.268 . S
O77 Sc67 2.105 . S
O77 C71 1.268 . S
O78 Sc68 2.105 . S
O78 C72 1.268 . S
O79 Sc66 2.105 . S
O79 C73 1.268 . S
O80 Sc68 2.105 . S
O80 C74 1.268 . S
O81 Sc67 2.105 . S
O81 C75 1.268 . S
O82 Sc66 2.105 . S
O82 C74 1.268 . S
O83 Sc67 2.105 . S
O83 C73 1.268 . S
O84 Sc68 2.105 . S
O84 C75 1.268 . S
O85 Sc66 2.105 . S
O85 C71 1.268 . S
O86 Sc68 2.105 . S
O86 C70 1.268 . S
O87 Sc67 2.105 . S
O87 C72 1.268 . S
C88 N89 1.317 . S
C88 N90 1.348 . S
C88 C91 1.485 . S
N89 C88 1.317 . S
N89 N93 1.370 1_556 S
N90 C88 1.348 . S
N90 C92 1.346 1_556 S
C91 C88 1.485 . S
C91 H95 0.960 . S
C91 H96 0.961 . S
C91 H97 0.960 . S
C92 N90 1.346 1_554 S
C92 N93 1.307 . S
C92 C94 1.486 . S
N93 N89 1.370 1_554 S
N93 C92 1.307 . S
C94 C92 1.486 . S
C94 H98 0.960 . S
C94 H99 0.960 . S
C94 H100 0.959 . S
H95 C91 0.960 . S
H96 C91 0.961 . S
H97 C91 0.960 . S
H98 C94 0.960 . S
H99 C94 0.960 . S
H100 C94 0.959 . S
C101 N102 1.317 1_455 S
C101 N103 1.348 . S
C101 C104 1.485 . S
N102 C101 1.317 1_655 S
N102 N106 1.370 . S
N103 C101 1.348 . S
N103 C105 1.346 . S
C104 C101 1.485 . S
C104 H108 0.960 . S
C104 H109 0.961 . S
C104 H110 0.960 1_455 S
C105 N103 1.346 . S
C105 N106 1.307 1_455 S
C105 C107 1.486 . S
N106 N102 1.370 . S
N106 C105 1.307 1_655 S
C107 C105 1.486 . S
C107 H111 0.960 . S
C107 H112 0.960 . S
C107 H113 0.952 1_455 S
H108 C104 0.960 . S
H109 C104 0.961 . S
H110 C104 0.960 1_655 S
H111 C107 0.960 . S
H112 C107 0.960 . S
H113 C107 0.952 1_655 S
C114 N115 1.317 . S
C114 N116 1.348 . S
C114 C117 1.485 . S
N115 C114 1.317 . S
N115 N119 1.370 1_554 S
N116 C114 1.348 . S
N116 C118 1.346 1_554 S
C117 C114 1.485 . S
C117 H121 0.960 . S
C117 H122 0.961 . S
C117 H123 0.960 . S
C118 N116 1.346 1_556 S
C118 N119 1.307 . S
C118 C120 1.486 . S
N119 N115 1.370 1_556 S
N119 C118 1.307 . S
C120 C118 1.486 . S
C120 H124 0.960 . S
C120 H125 0.960 . S
C120 H126 0.959 . S
H121 C117 0.960 . S
H122 C117 0.961 . S
H123 C117 0.960 . S
H124 C120 0.960 . S
H125 C120 0.960 . S
H126 C120 0.959 . S
C127 N128 1.317 1_655 S
C127 N129 1.348 . S
C127 C130 1.485 . S
N128 C127 1.317 1_455 S
N128 N132 1.370 . S
N129 C127 1.348 . S
N129 C131 1.346 . S
C130 C127 1.485 . S
C130 H134 0.960 . S
C130 H135 0.961 . S
C130 H136 0.972 . S
C131 N129 1.346 . S
C131 N132 1.307 1_655 S
C131 C133 1.486 . S
N132 N128 1.370 . S
N132 C131 1.307 1_455 S
C133 C131 1.486 . S
C133 H137 0.960 . S
C133 H138 0.960 . S
C133 H139 0.959 1_655 S
H134 C130 0.960 . S
H135 C130 0.961 . S
H136 C130 0.972 . S
H137 C133 0.960 . S
H138 C133 0.960 . S
H139 C133 0.959 1_455 S
C140 N141 1.317 1_545 S
C140 N142 1.348 . S
C140 C143 1.485 . S
N141 C140 1.317 1_565 S
N141 N145 1.370 . S
N142 C140 1.348 . S
N142 C144 1.346 . S
C143 C140 1.485 . S
C143 H147 0.960 . S
C143 H148 0.961 . S
C143 H149 0.972 . S
C144 N142 1.346 . S
C144 N145 1.307 1_545 S
C144 C146 1.486 . S
N145 N141 1.370 . S
N145 C144 1.307 1_565 S
C146 C144 1.486 . S
C146 H150 0.960 . S
C146 H151 0.960 . S
C146 H152 0.959 1_545 S
H147 C143 0.960 . S
H148 C143 0.961 . S
H149 C143 0.972 . S
H150 C146 0.960 . S
H151 C146 0.960 . S
H152 C146 0.959 1_565 S
C153 N154 1.317 . S
C153 N155 1.348 . S
C153 C156 1.485 . S
N154 C153 1.317 . S
N154 N158 1.370 1_556 S
N155 C153 1.348 . S
N155 C157 1.346 1_556 S
C156 C153 1.485 . S
C156 H160 0.960 . S
C156 H161 0.961 . S
C156 H162 0.960 . S
C157 N155 1.346 1_554 S
C157 N158 1.307 . S
C157 C159 1.486 . S
N158 N154 1.370 1_554 S
N158 C157 1.307 . S
C159 C157 1.486 . S
C159 H163 0.960 . S
C159 H164 0.960 . S
C159 H165 0.959 . S
H160 C156 0.960 . S
H161 C156 0.961 . S
H162 C156 0.960 . S
H163 C159 0.960 . S
H164 C159 0.960 . S
H165 C159 0.959 . S
C166 N167 1.317 1_565 S
C166 N168 1.348 . S
C166 C169 1.485 . S
N167 C166 1.317 1_545 S
N167 N171 1.370 . S
N168 C166 1.348 . S
N168 C170 1.346 . S
C169 C166 1.485 . S
C169 H173 0.960 . S
C169 H174 0.961 . S
C169 H175 0.960 1_565 S
C170 N168 1.346 . S
C170 N171 1.307 1_565 S
C170 C172 1.486 . S
N171 N167 1.370 . S
N171 C170 1.307 1_545 S
C172 C170 1.486 . S
C172 H176 0.960 . S
C172 H177 0.960 . S
C172 H178 0.952 1_565 S
H173 C169 0.960 . S
H174 C169 0.961 . S
H175 C169 0.960 1_545 S
H176 C172 0.960 . S
H177 C172 0.960 . S
H178 C172 0.952 1_545 S
C179 N180 1.317 . S
C179 N181 1.348 . S
C179 C182 1.485 . S
N180 C179 1.317 . S
N180 N184 1.370 1_554 S
N181 C179 1.348 . S
N181 C183 1.346 1_554 S
C182 C179 1.485 . S
C182 H186 0.960 . S
C182 H187 0.961 . S
C182 H188 0.960 . S
C183 N181 1.346 1_556 S
C183 N184 1.307 . S
C183 C185 1.486 . S
N184 N180 1.370 1_556 S
N184 C183 1.307 . S
C185 C183 1.486 . S
C185 H189 0.960 . S
C185 H190 0.960 . S
C185 H191 0.959 . S
H186 C182 0.960 . S
H187 C182 0.961 . S
H188 C182 0.960 . S
H189 C185 0.960 . S
H190 C185 0.960 . S
H191 C185 0.959 . S
C192 C193 1.369 . S
C192 C194 1.419 . S
C192 H196 0.930 . S
C193 C192 1.369 . S
C193 C202 1.429 . S
C194 C192 1.419 . S
C194 C195 1.363 . S
C194 H197 0.929 . S
C195 C194 1.363 . S
C195 C201 1.428 . S
H196 C192 0.930 . S
H197 C194 0.929 . S
S198 N199 1.613 . S
S198 N200 1.610 . S
N199 S198 1.613 . S
N199 C202 1.350 . S
N200 S198 1.610 . S
N200 C201 1.351 . S
C201 C195 1.428 . S
C201 N200 1.351 . S
C201 C202 1.434 . S
C202 C193 1.429 . S
C202 N199 1.350 . S
C202 C201 1.434 . S
C203 C204 1.369 . S
C203 C205 1.419 . S
C203 H207 0.930 . S
C204 C203 1.369 . S
C204 C213 1.429 . S
C205 C203 1.419 . S
C205 C206 1.363 . S
C205 H208 0.929 . S
C206 C205 1.363 . S
C206 C212 1.428 . S
H207 C203 0.930 . S
H208 C205 0.929 . S
S209 N210 1.613 . S
S209 N211 1.610 . S
N210 S209 1.613 . S
N210 C213 1.350 . S
N211 S209 1.610 . S
N211 C212 1.351 . S
C212 C206 1.428 . S
C212 N211 1.351 . S
C212 C213 1.434 . S
C213 C204 1.429 . S
C213 N210 1.350 . S
C213 C212 1.434 . S
C214 C215 1.369 . S
C214 C216 1.419 . S
C214 H218 0.930 . S
C215 C214 1.369 . S
C215 C224 1.429 . S
C216 C214 1.419 . S
C216 C217 1.363 . S
C216 H219 0.929 . S
C217 C216 1.363 . S
C217 C223 1.428 . S
H218 C214 0.930 . S
H219 C216 0.929 . S
S220 N221 1.613 . S
S220 N222 1.610 . S
N221 S220 1.613 . S
N221 C224 1.350 . S
N222 S220 1.610 . S
N222 C223 1.351 . S
C223 C217 1.428 . S
C223 N222 1.351 . S
C223 C224 1.434 . S
C224 C215 1.429 . S
C224 N221 1.350 . S
C224 C223 1.434 . S
C225 C226 1.369 . S
C225 C227 1.419 . S
C225 H229 0.930 . S
C226 C225 1.369 . S
C226 C235 1.429 . S
C227 C225 1.419 . S
C227 C228 1.363 . S
C227 H230 0.929 . S
C228 C227 1.363 . S
C228 C234 1.428 . S
H229 C225 0.930 . S
H230 C227 0.929 . S
S231 N232 1.613 . S
S231 N233 1.610 . S
N232 S231 1.613 . S
N232 C235 1.350 . S
N233 S231 1.610 . S
N233 C234 1.351 . S
C234 C228 1.428 . S
C234 N233 1.351 . S
C234 C235 1.434 . S
C235 C226 1.429 . S
C235 N232 1.350 . S
C235 C234 1.434 . S
C236 C237 1.369 . S
C236 C238 1.419 . S
C236 H240 0.930 . S
C237 C236 1.369 . S
C237 C246 1.429 . S
C238 C236 1.419 . S
C238 C239 1.363 . S
C238 H241 0.929 . S
C239 C238 1.363 . S
C239 C245 1.428 . S
H240 C236 0.930 . S
H241 C238 0.929 . S
S242 N243 1.613 . S
S242 N244 1.610 . S
N243 S242 1.613 . S
N243 C246 1.350 . S
N244 S242 1.610 . S
N244 C245 1.351 . S
C245 C239 1.428 . S
C245 N244 1.351 . S
C245 C246 1.434 . S
C246 C237 1.429 . S
C246 N243 1.350 . S
C246 C245 1.434 . S
C247 C248 1.369 . S
C247 C249 1.419 . S
C247 H251 0.930 . S
C248 C247 1.369 . S
C248 C257 1.429 . S
C249 C247 1.419 . S
C249 C250 1.363 . S
C249 H252 0.929 . S
C250 C249 1.363 . S
C250 C256 1.428 . S
H251 C247 0.930 . S
H252 C249 0.929 . S
S253 N254 1.613 . S
S253 N255 1.610 . S
N254 S253 1.613 . S
N254 C257 1.350 . S
N255 S253 1.610 . S
N255 C256 1.351 . S
C256 C250 1.428 . S
C256 N255 1.351 . S
C256 C257 1.434 . S
C257 C248 1.429 . S
C257 N254 1.350 . S
C257 C256 1.434 . S
C258 C259 1.369 . S
C258 C260 1.419 . S
C258 H262 0.930 . S
C259 C258 1.369 . S
C259 C268 1.429 . S
C260 C258 1.419 . S
C260 C261 1.363 . S
C260 H263 0.929 . S
C261 C260 1.363 . S
C261 C267 1.428 . S
H262 C258 0.930 . S
H263 C260 0.929 . S
S264 N265 1.613 . S
S264 N266 1.610 . S
N265 S264 1.613 . S
N265 C268 1.350 . S
N266 S264 1.610 . S
N266 C267 1.351 . S
C267 C261 1.428 . S
C267 N266 1.351 . S
C267 C268 1.434 . S
C268 C259 1.429 . S
C268 N265 1.350 . S
C268 C267 1.434 . S
C269 C270 1.369 . S
C269 C271 1.419 . S
C269 H273 0.930 . S
C270 C269 1.369 . S
C270 C279 1.429 . S
C271 C269 1.419 . S
C271 C272 1.363 . S
C271 H274 0.929 . S
C272 C271 1.363 . S
C272 C278 1.428 . S
H273 C269 0.930 . S
H274 C271 0.929 . S
S275 N276 1.613 . S
S275 N277 1.610 . S
N276 S275 1.613 . S
N276 C279 1.350 . S
N277 S275 1.610 . S
N277 C278 1.351 . S
C278 C272 1.428 . S
C278 N277 1.351 . S
C278 C279 1.434 . S
C279 C270 1.429 . S
C279 N276 1.350 . S
C279 C278 1.434 . S
C280 C281 1.369 . S
C280 C282 1.419 . S
C280 H284 0.930 . S
C281 C280 1.369 . S
C281 C290 1.429 . S
C282 C280 1.419 . S
C282 C283 1.363 . S
C282 H285 0.929 . S
C283 C282 1.363 . S
C283 C289 1.428 . S
H284 C280 0.930 . S
H285 C282 0.929 . S
S286 N287 1.613 . S
S286 N288 1.610 . S
N287 S286 1.613 . S
N287 C290 1.350 . S
N288 S286 1.610 . S
N288 C289 1.351 . S
C289 C283 1.428 . S
C289 N288 1.351 . S
C289 C290 1.434 . S
C290 C281 1.429 . S
C290 N287 1.350 . S
C290 C289 1.434 . S
C291 C292 1.369 . S
C291 C293 1.419 . S
C291 H295 0.930 . S
C292 C291 1.369 . S
C292 C301 1.429 . S
C293 C291 1.419 . S
C293 C294 1.363 . S
C293 H296 0.929 . S
C294 C293 1.363 . S
C294 C300 1.428 . S
H295 C291 0.930 . S
H296 C293 0.929 . S
S297 N298 1.613 . S
S297 N299 1.610 . S
N298 S297 1.613 . S
N298 C301 1.350 . S
N299 S297 1.610 . S
N299 C300 1.351 . S
C300 C294 1.428 . S
C300 N299 1.351 . S
C300 C301 1.434 . S
C301 C292 1.429 . S
C301 N298 1.350 . S
C301 C300 1.434 . S
C302 C303 1.369 . S
C302 C304 1.419 . S
C302 H306 0.930 . S
C303 C302 1.369 . S
C303 C312 1.429 . S
C304 C302 1.419 . S
C304 C305 1.363 . S
C304 H307 0.929 . S
C305 C304 1.363 . S
C305 C311 1.428 . S
H306 C302 0.930 . S
H307 C304 0.929 . S
S308 N309 1.613 . S
S308 N310 1.610 . S
N309 S308 1.613 . S
N309 C312 1.350 . S
N310 S308 1.610 . S
N310 C311 1.351 . S
C311 C305 1.428 . S
C311 N310 1.351 . S
C311 C312 1.434 . S
C312 C303 1.429 . S
C312 N309 1.350 . S
C312 C311 1.434 . S
C313 C314 1.369 . S
C313 C315 1.419 . S
C313 H317 0.930 . S
C314 C313 1.369 . S
C314 C323 1.429 . S
C315 C313 1.419 . S
C315 C316 1.363 . S
C315 H318 0.929 . S
C316 C315 1.363 . S
C316 C322 1.428 . S
H317 C313 0.930 . S
H318 C315 0.929 . S
S319 N320 1.613 . S
S319 N321 1.610 . S
N320 S319 1.613 . S
N320 C323 1.350 . S
N321 S319 1.610 . S
N321 C322 1.351 . S
C322 C316 1.428 . S
C322 N321 1.351 . S
C322 C323 1.434 . S
C323 C314 1.429 . S
C323 N320 1.350 . S
C323 C322 1.434 . S
C324 C325 1.369 . S
C324 C326 1.419 . S
C324 H328 0.930 . S
C325 C324 1.369 . S
C325 C334 1.429 . S
C326 C324 1.419 . S
C326 C327 1.363 . S
C326 H329 0.929 . S
C327 C326 1.363 . S
C327 C333 1.428 . S
H328 C324 0.930 . S
H329 C326 0.929 . S
S330 N331 1.613 . S
S330 N332 1.610 . S
N331 S330 1.613 . S
N331 C334 1.350 . S
N332 S330 1.610 . S
N332 C333 1.351 . S
C333 C327 1.428 . S
C333 N332 1.351 . S
C333 C334 1.434 . S
C334 C325 1.429 . S
C334 N331 1.350 . S
C334 C333 1.434 . S
C335 C336 1.369 . S
C335 C337 1.419 . S
C335 H339 0.930 . S
C336 C335 1.369 . S
C336 C345 1.429 . S
C337 C335 1.419 . S
C337 C338 1.363 . S
C337 H340 0.929 . S
C338 C337 1.363 . S
C338 C344 1.428 . S
H339 C335 0.930 . S
H340 C337 0.929 . S
S341 N342 1.613 . S
S341 N343 1.610 . S
N342 S341 1.613 . S
N342 C345 1.350 . S
N343 S341 1.610 . S
N343 C344 1.351 . S
C344 C338 1.428 . S
C344 N343 1.351 . S
C344 C345 1.434 . S
C345 C336 1.429 . S
C345 N342 1.350 . S
C345 C344 1.434 . S
C346 C347 1.369 . S
C346 C348 1.419 . S
C346 H350 0.930 . S
C347 C346 1.369 . S
C347 C356 1.429 . S
C348 C346 1.419 . S
C348 C349 1.363 . S
C348 H351 0.929 . S
C349 C348 1.363 . S
C349 C355 1.428 . S
H350 C346 0.930 . S
H351 C348 0.929 . S
S352 N353 1.613 . S
S352 N354 1.610 . S
N353 S352 1.613 . S
N353 C356 1.350 . S
N354 S352 1.610 . S
N354 C355 1.351 . S
C355 C349 1.428 . S
C355 N354 1.351 . S
C355 C356 1.434 . S
C356 C347 1.429 . S
C356 N353 1.350 . S
C356 C355 1.434 . S
C357 C358 1.369 . S
C357 C359 1.419 . S
C357 H361 0.930 . S
C358 C357 1.369 . S
C358 C367 1.429 . S
C359 C357 1.419 . S
C359 C360 1.363 . S
C359 H362 0.929 . S
C360 C359 1.363 . S
C360 C366 1.428 . S
H361 C357 0.930 . S
H362 C359 0.929 . S
S363 N364 1.613 . S
S363 N365 1.610 . S
N364 S363 1.613 . S
N364 C367 1.350 . S
N365 S363 1.610 . S
N365 C366 1.351 . S
C366 C360 1.428 . S
C366 N365 1.351 . S
C366 C367 1.434 . S
C367 C358 1.429 . S
C367 N364 1.350 . S
C367 C366 1.434 . S
C368 C369 1.370 . S
C368 C370 1.419 . S
C368 H372 0.930 . S
C369 C368 1.370 . S
C369 C378 1.428 1_554 S
C370 C368 1.419 . S
C370 C371 1.364 . S
C370 H373 0.929 . S
C371 C370 1.364 . S
C371 C377 1.428 1_554 S
H372 C368 0.930 . S
H373 C370 0.929 . S
S374 N375 1.613 . S
S374 N376 1.610 . S
N375 S374 1.613 . S
N375 C378 1.350 . S
N376 S374 1.610 . S
N376 C377 1.351 . S
C377 C371 1.428 1_556 S
C377 N376 1.351 . S
C377 C378 1.434 . S
C378 C369 1.428 1_556 S
C378 N375 1.350 . S
C378 C377 1.434 . S
C379 C380 1.369 . S
C379 C381 1.419 . S
C379 H383 0.930 . S
C380 C379 1.369 . S
C380 C389 1.429 . S
C381 C379 1.419 . S
C381 C382 1.363 . S
C381 H384 0.929 . S
C382 C381 1.363 . S
C382 C388 1.428 . S
H383 C379 0.930 . S
H384 C381 0.929 . S
S385 N386 1.613 . S
S385 N387 1.610 . S
N386 S385 1.613 . S
N386 C389 1.350 . S
N387 S385 1.610 . S
N387 C388 1.351 . S
C388 C382 1.428 . S
C388 N387 1.351 . S
C388 C389 1.434 . S
C389 C380 1.429 . S
C389 N386 1.350 . S
C389 C388 1.434 . S
C390 C391 1.365 1_554 S
C390 C392 1.419 . S
C390 H394 0.930 . S
C391 C390 1.365 1_556 S
C391 C400 1.432 . S
C392 C390 1.419 . S
C392 C393 1.361 1_554 S
C392 H395 0.929 . S
C393 C392 1.361 1_556 S
C393 C399 1.431 . S
H394 C390 0.930 . S
H395 C392 0.929 . S
S396 N397 1.613 . S
S396 N398 1.610 . S
N397 S396 1.613 . S
N397 C400 1.350 . S
N398 S396 1.610 . S
N398 C399 1.351 . S
C399 C393 1.431 . S
C399 N398 1.351 . S
C399 C400 1.434 . S
C400 C391 1.432 . S
C400 N397 1.350 . S
C400 C399 1.434 . S
C401 C402 1.369 . S
C401 C403 1.419 . S
C401 H405 0.930 . S
C402 C401 1.369 . S
C402 C411 1.429 . S
C403 C401 1.419 . S
C403 C404 1.363 . S
C403 H406 0.929 . S
C404 C403 1.363 . S
C404 C410 1.428 . S
H405 C401 0.930 . S
H406 C403 0.929 . S
S407 N408 1.613 . S
S407 N409 1.610 . S
N408 S407 1.613 . S
N408 C411 1.350 . S
N409 S407 1.610 . S
N409 C410 1.351 . S
C410 C404 1.428 . S
C410 N409 1.351 . S
C410 C411 1.434 . S
C411 C402 1.429 . S
C411 N408 1.350 . S
C411 C410 1.434 . S
C412 C413 1.369 . S
C412 C414 1.419 . S
C412 H416 0.930 . S
C413 C412 1.369 . S
C413 C422 1.429 . S
C414 C412 1.419 . S
C414 C415 1.363 . S
C414 H417 0.929 . S
C415 C414 1.363 . S
C415 C421 1.428 . S
H416 C412 0.930 . S
H417 C414 0.929 . S
S418 N419 1.613 . S
S418 N420 1.610 . S
N419 S418 1.613 . S
N419 C422 1.350 . S
N420 S418 1.610 . S
N420 C421 1.351 . S
C421 C415 1.428 . S
C421 N420 1.351 . S
C421 C422 1.434 . S
C422 C413 1.429 . S
C422 N419 1.350 . S
C422 C421 1.434 . S
C423 C424 1.370 . S
C423 C425 1.419 . S
C423 H427 0.930 . S
C424 C423 1.370 . S
C424 C433 1.428 1_554 S
C425 C423 1.419 . S
C425 C426 1.364 . S
C425 H428 0.929 . S
C426 C425 1.364 . S
C426 C432 1.428 1_554 S
H427 C423 0.930 . S
H428 C425 0.929 . S
S429 N430 1.613 . S
S429 N431 1.610 . S
N430 S429 1.613 . S
N430 C433 1.350 . S
N431 S429 1.610 . S
N431 C432 1.351 . S
C432 C426 1.428 1_556 S
C432 N431 1.351 . S
C432 C433 1.434 . S
C433 C424 1.428 1_556 S
C433 N430 1.350 . S
C433 C432 1.434 . S
C434 C435 1.369 . S
C434 C436 1.419 . S
C434 H438 0.930 . S
C435 C434 1.369 . S
C435 C444 1.429 . S
C436 C434 1.419 . S
C436 C437 1.363 . S
C436 H439 0.929 . S
C437 C436 1.363 . S
C437 C443 1.428 . S
H438 C434 0.930 . S
H439 C436 0.929 . S
S440 N441 1.613 . S
S440 N442 1.610 . S
N441 S440 1.613 . S
N441 C444 1.350 . S
N442 S440 1.610 . S
N442 C443 1.351 . S
C443 C437 1.428 . S
C443 N442 1.351 . S
C443 C444 1.434 . S
C444 C435 1.429 . S
C444 N441 1.350 . S
C444 C443 1.434 . S
C445 C446 1.369 1_556 S
C445 C447 1.419 . S
C445 H449 0.930 . S
C446 C445 1.369 1_554 S
C446 C455 1.429 . S
C447 C445 1.419 . S
C447 C448 1.363 1_556 S
C447 H450 0.929 . S
C448 C447 1.363 1_554 S
C448 C454 1.428 . S
H449 C445 0.930 . S
H450 C447 0.929 . S
S451 N452 1.613 . S
S451 N453 1.610 . S
N452 S451 1.613 . S
N452 C455 1.350 . S
N453 S451 1.610 . S
N453 C454 1.351 . S
C454 C448 1.428 . S
C454 N453 1.351 . S
C454 C455 1.434 . S
C455 C446 1.429 . S
C455 N452 1.350 . S
C455 C454 1.434 . S
C193 C5 1.474 . S
C195 N128 1.485 . S
C204 C31 1.479 . S
C206 N89 1.484 . S
C217 N106 1.491 . S
C215 C53 1.477 . S
C226 C71 1.479 . S
C228 N119 1.491 . S
C239 N158 1.491 . S
C237 C75 1.475 . S
C250 N171 1.493 . S
C248 C9 1.476 . S
C261 N180 1.486 . S
C259 C27 1.478 . S
C272 N141 1.484 . S
C270 C49 1.473 . S
C281 C51 1.478 . S
C283 N102 1.493 . S
C292 C72 1.474 . S
C294 N115 1.494 . S
C303 C6 1.479 . S
C305 N132 1.489 . S
C316 N93 1.490 . S
C314 C29 1.474 . S
C325 C28 1.476 . S
C327 N184 1.491 . S
C338 N145 1.489 . S
C336 C50 1.479 . S
C349 N154 1.493 . S
C347 C73 1.479 . S
C358 C7 1.478 . S
C360 N167 1.493 . S
C371 N90 1.504 1_554 S
C369 C4 1.496 . S
C382 N103 1.511 . S
C380 C30 1.496 . S
C391 C52 1.497 1_556 S
C393 N116 1.511 1_556 S
C402 C70 1.501 . S
C404 N129 1.507 . S
C415 N142 1.507 . S
C413 C74 1.501 . S
C424 C8 1.501 . S
C426 N155 1.512 1_554 S
C435 C26 1.501 . S
C437 N168 1.512 . S
C446 C48 1.500 . S
C448 N181 1.506 . S
