# Generated by pormake.
# Topology anh, (6,3)-cn, num edge types: 1
# Building blocks:
#     Node 0, Type 0, BuildingBlock: BETDAH_clean_sbu_0, # of connection points: 6
#     Node 1, Type 0, BuildingBlock: BETDAH_clean_sbu_0, # of connection points: 6
#     Node 2, Type 0, BuildingBlock: BETDAH_clean_sbu_0, # of connection points: 6
#     Node 3, Type 1, BuildingBlock: BELTOD_clean_linker_0, # of connection points: 3
#     Node 4, Type 1, BuildingBlock: BELTOD_clean_linker_0, # of connection points: 3
#     Node 5, Type 1, BuildingBlock: BELTOD_clean_linker_0, # of connection points: 3
#     Node 6, Type 1, BuildingBlock: BELTOD_clean_linker_0, # of connection points: 3
#     Node 7, Type 1, BuildingBlock: BELTOD_clean_linker_0, # of connection points: 3
#     Node 8, Type 1, BuildingBlock: BELTOD_clean_linker_0, # of connection points: 3
#     Edge 9, Type (0, 1), BuildingBlock: KIFKEQ_clean_linker_1, # of connection points: 2
#     Edge 10, Type (0, 1), BuildingBlock: KIFKEQ_clean_linker_1, # of connection points: 2
#     Edge 11, Type (0, 1), BuildingBlock: KIFKEQ_clean_linker_1, # of connection points: 2
#     Edge 12, Type (0, 1), BuildingBlock: KIFKEQ_clean_linker_1, # of connection points: 2
#     Edge 13, Type (0, 1), BuildingBlock: KIFKEQ_clean_linker_1, # of connection points: 2
#     Edge 14, Type (0, 1), BuildingBlock: KIFKEQ_clean_linker_1, # of connection points: 2
#     Edge 15, Type (0, 1), BuildingBlock: KIFKEQ_clean_linker_1, # of connection points: 2
#     Edge 16, Type (0, 1), BuildingBlock: KIFKEQ_clean_linker_1, # of connection points: 2
#     Edge 17, Type (0, 1), BuildingBlock: KIFKEQ_clean_linker_1, # of connection points: 2
#     Edge 18, Type (0, 1), BuildingBlock: KIFKEQ_clean_linker_1, # of connection points: 2
#     Edge 19, Type (0, 1), BuildingBlock: KIFKEQ_clean_linker_1, # of connection points: 2
#     Edge 20, Type (0, 1), BuildingBlock: KIFKEQ_clean_linker_1, # of connection points: 2
#     Edge 21, Type (0, 1), BuildingBlock: KIFKEQ_clean_linker_1, # of connection points: 2
#     Edge 22, Type (0, 1), BuildingBlock: KIFKEQ_clean_linker_1, # of connection points: 2
#     Edge 23, Type (0, 1), BuildingBlock: KIFKEQ_clean_linker_1, # of connection points: 2
#     Edge 24, Type (0, 1), BuildingBlock: KIFKEQ_clean_linker_1, # of connection points: 2
#     Edge 25, Type (0, 1), BuildingBlock: KIFKEQ_clean_linker_1, # of connection points: 2
#     Edge 26, Type (0, 1), BuildingBlock: KIFKEQ_clean_linker_1, # of connection points: 2
# Relax obj value: 0.177
# Max RMSD: 0.208
# Mean RMSD: 0.149
data_MOF--net-anh--node1-BETDAH_clean_sbu_0--node2-BELTOD_clean_linker_0--edge1-KIFKEQ_clean_linker_1
_symmetry_space_group_name_H-M    P1
_symmetry_Int_Tables_number       1
_symmetry_cell_setting            triclinic
loop_
_symmetry_equiv_pos_as_xyz
'x, y, z'
_cell_length_a     35.638876
_cell_length_b     41.739104
_cell_length_c     61.522566
_cell_angle_alpha  92.652829
_cell_angle_beta   89.246432
_cell_angle_gamma 128.51434
loop_
_atom_site_label
_atom_site_type_symbol
_atom_site_fract_x
_atom_site_fract_y
_atom_site_fract_z
_atom_type_partial_charge
Ho0 Ho 0.12286 0.5398 0.14406 0.0
Ho1 Ho 0.06067 0.56618 0.1634 0.0
C2 C 0.17238 0.63754 0.15486 0.0
C3 C 0.17976 0.53271 0.12226 0.0
C4 C 0.22354 0.53839 0.12803 0.0
C5 C 0.26374 0.56097 0.11479 0.0
C6 C 0.30459 0.56467 0.11948 0.0
C7 C 0.30566 0.5454 0.13739 0.0
C8 C 0.26598 0.5244 0.15116 0.0
C9 C 0.22551 0.52117 0.14662 0.0
C10 C 0.11256 0.53819 0.18751 0.0
C11 C 1.01035 0.47074 0.14971 0.0
C12 C 1.00633 0.56982 0.1893 0.0
C13 C 0.9538 0.54136 0.1889 0.0
C14 C 0.92752 0.53604 0.20748 0.0
C15 C 0.87796 0.50397 0.20765 0.0
C16 C 0.85478 0.47659 0.18941 0.0
C17 C 0.88116 0.48289 0.17072 0.0
C18 C 0.93012 0.51497 0.17046 0.0
C19 C 0.05413 0.55499 0.11888 0.0
O20 O 0.17491 0.60952 0.14547 0.0
O21 O 0.13309 0.62806 0.16431 0.0
O22 O 0.13992 0.50172 0.13069 0.0
O23 O 0.1835 0.56593 0.12277 0.0
O24 O 0.11991 0.51537 0.17649 0.0
O25 O 0.11689 0.56368 0.17535 0.0
O26 O 1.01128 0.4971 0.16306 0.0
O27 O 1.04715 0.48221 0.13724 0.0
O28 O 1.02629 0.59288 0.17245 0.0
O29 O 1.02554 0.5526 0.19427 0.0
O30 O 1.03327 0.5672 0.12978 0.0
O31 O 0.07492 0.54972 0.13261 0.0
H32 H 0.26318 0.57506 0.10057 0.0
H33 H 0.33481 0.58168 0.10874 0.0
H34 H 0.26501 0.50862 0.1649 0.0
H35 H 0.19525 0.50414 0.15734 0.0
H36 H 0.94547 0.5558 0.22196 0.0
H37 H 0.85808 0.49972 0.22217 0.0
H38 H 0.86393 0.46262 0.15633 0.0
H39 H 0.94987 0.51822 0.15606 0.0
Ho40 Ho 0.61633 0.03004 0.47719 0.0
Ho41 Ho 0.55366 0.05317 0.46776 0.0
C42 C 0.50176 0.95884 0.46853 0.0
C43 C 0.65395 0.99845 0.49203 0.0
C44 C 0.63943 0.95755 0.49637 0.0
C45 C 0.60505 0.93277 0.51201 0.0
C46 C 0.59447 0.89546 0.51677 0.0
C47 C 0.6178 0.88206 0.50593 0.0
C48 C 0.6513 0.90645 0.48995 0.0
C49 C 0.66213 0.94384 0.48531 0.0
C50 C 0.61196 0.04222 0.43495 0.0
C51 C 0.67 0.12478 0.4741 0.0
C52 C 0.51698 0.08661 0.45482 0.0
C53 C 0.52378 0.12391 0.46254 0.0
C54 C 0.51501 0.1442 0.4485 0.0
C55 C 0.52178 0.17979 0.45585 0.0
C56 C 0.53712 0.19547 0.47742 0.0
C57 C 0.54612 0.17509 0.49137 0.0
C58 C 0.53978 0.13981 0.48397 0.0
C59 C 0.56252 0.04519 0.51042 0.0
O60 O 0.54083 0.97032 0.47906 0.0
O61 O 0.50072 0.98593 0.45889 0.0
O62 O 0.65541 0.00646 0.47162 0.0
O63 O 0.63654 0.01247 0.50447 0.0
O64 O 0.65032 0.05302 0.44494 0.0
O65 O 0.57667 0.02363 0.44753 0.0
O66 O 0.62881 0.1136 0.46616 0.0
O67 O 0.67321 0.09789 0.48239 0.0
O68 O 0.49592 0.05699 0.46834 0.0
O69 O 0.55407 0.0925 0.44573 0.0
O70 O 0.52378 0.03537 0.50152 0.0
O71 O 0.5953 0.06142 0.49672 0.0
H72 H 0.58677 0.94238 0.52079 0.0
H73 H 0.56817 0.87716 0.52903 0.0
H74 H 0.67034 0.89728 0.4815 0.0
H75 H 0.68899 0.96246 0.4733 0.0
H76 H 0.50289 0.1325 0.43188 0.0
H77 H 0.51437 0.19473 0.44475 0.0
H78 H 0.55871 0.18675 0.50796 0.0
H79 H 0.54741 0.12492 0.495 0.0
Ho80 Ho 0.58846 0.55221 0.85073 0.0
Ho81 Ho 0.52027 0.45927 0.84773 0.0
C82 C 0.4714 0.50307 0.85041 0.0
C83 C 0.63396 0.62898 0.84409 0.0
C84 C 0.62294 0.65605 0.83759 0.0
C85 C 0.59837 0.64867 0.81795 0.0
C86 C 0.59174 0.67649 0.81133 0.0
C87 C 0.60915 0.71205 0.82427 0.0
C88 C 0.6324 0.71871 0.8442 0.0
C89 C 0.63941 0.69108 0.85073 0.0
C90 C 0.56595 0.51527 0.88879 0.0
C91 C 0.63848 0.50929 0.85009 0.0
C92 C 0.47729 0.38249 0.85288 0.0
C93 C 0.48679 0.3539 0.84571 0.0
C94 C 0.48504 0.32876 0.86074 0.0
C95 C 0.49505 0.3022 0.8543 0.0
C96 C 0.50684 0.30012 0.83262 0.0
C97 C 0.50828 0.32529 0.81759 0.0
C98 C 0.49868 0.35203 0.82407 0.0
C99 C 0.54275 0.49479 0.80913 0.0
O100 O 0.51478 0.53682 0.84551 0.0
O101 O 0.46551 0.46941 0.85508 0.0
O102 O 0.62 0.61378 0.86332 0.0
O103 O 0.62765 0.60242 0.82925 0.0
O104 O 0.60842 0.54872 0.88484 0.0
O105 O 0.53785 0.50482 0.87303 0.0
O106 O 0.59413 0.4741 0.85156 0.0
O107 O 0.64564 0.54419 0.84776 0.0
O108 O 0.46532 0.39572 0.83769 0.0
O109 O 0.50772 0.41153 0.8672 0.0
O110 O 0.50123 0.46088 0.81335 0.0
O111 O 0.57115 0.50637 0.825 0.0
H112 H 0.58494 0.6218 0.8075 0.0
H113 H 0.57319 0.67028 0.79601 0.0
H114 H 0.6466 0.746 0.85443 0.0
H115 H 0.65862 0.69753 0.86589 0.0
H116 H 0.4763 0.32992 0.87755 0.0
H117 H 0.49426 0.28379 0.86641 0.0
H118 H 0.51641 0.32413 0.80069 0.0
H119 H 0.50062 0.37124 0.81212 0.0
P120 P 0.63433 0.03875 0.19647 0.0
H121 H 0.60197 0.97336 0.16327 0.0
H122 H 0.52233 0.91156 0.15252 0.0
H123 H 0.45913 0.95699 0.18968 0.0
H124 H 0.53943 0.0187 0.20074 0.0
H125 H 0.70967 0.11547 0.21922 0.0
H126 H 0.7652 0.18579 0.20847 0.0
H127 H 0.6962 0.14916 0.14498 0.0
H128 H 0.63989 0.07778 0.15608 0.0
H129 H 0.63118 0.98862 0.22913 0.0
H130 H 0.61122 0.08023 0.22709 0.0
O131 O 0.66907 0.02524 0.19153 0.0
H132 H 0.61921 0.98526 0.26836 0.0
H133 H 0.60052 0.07798 0.26653 0.0
C134 C 0.57686 1.00063 0.18301 0.0
C135 C 0.57112 0.97065 0.16869 0.0
C136 C 0.52527 0.93512 0.1625 0.0
C137 C 0.48399 0.92875 0.1705 0.0
C138 C 0.49 0.96036 0.18358 0.0
C139 C 0.536 0.99597 0.18973 0.0
C140 C 0.66916 0.09143 0.1888 0.0
C141 C 0.70524 0.12252 0.2032 0.0
C142 C 0.73735 0.16295 0.19696 0.0
C143 C 0.73499 0.17348 0.17592 0.0
C144 C 0.69902 0.1422 0.16133 0.0
C145 C 0.66644 0.10146 0.16772 0.0
C146 C 0.62363 0.03562 0.22533 0.0
C147 C 0.62459 0.00828 0.23717 0.0
C148 C 0.61781 0.00645 0.25963 0.0
C149 C 0.60967 0.03185 0.2707 0.0
C150 C 0.6066 0.05793 0.25856 0.0
C151 C 0.61321 0.05958 0.23604 0.0
P152 P 0.65628 0.57579 0.57804 0.0
H153 H 0.6779 0.55888 0.53518 0.0
H154 H 0.6525 0.4959 0.51553 0.0
H155 H 0.56055 0.4255 0.56871 0.0
H156 H 0.58447 0.4882 0.5877 0.0
H157 H 0.64672 0.63437 0.59901 0.0
H158 H 0.62689 0.6761 0.58534 0.0
H159 H 0.60137 0.6188 0.52116 0.0
H160 H 0.62077 0.57653 0.53503 0.0
H161 H 0.71689 0.59387 0.61592 0.0
H162 H 0.56923 0.54005 0.60317 0.0
O163 O 0.71562 0.60764 0.57504 0.0
H164 H 0.70171 0.58615 0.65482 0.0
H165 H 0.55298 0.53042 0.64202 0.0
C166 C 0.63324 0.52847 0.56294 0.0
C167 C 0.65169 0.52979 0.54245 0.0
C168 C 0.63746 0.4937 0.53131 0.0
C169 C 0.60472 0.45543 0.54057 0.0
C170 C 0.58534 0.45422 0.5609 0.0
C171 C 0.59931 0.49033 0.57191 0.0
C172 C 0.63412 0.60145 0.56822 0.0
C173 C 0.63554 0.6298 0.58213 0.0
C174 C 0.62425 0.65378 0.57428 0.0
C175 C 0.6123 0.65062 0.55219 0.0
C176 C 0.61052 0.62197 0.53826 0.0
C177 C 0.62135 0.59759 0.54622 0.0
C178 C 0.64422 0.56773 0.60668 0.0
C179 C 0.68103 0.58005 0.62149 0.0
C180 C 0.67218 0.57534 0.64378 0.0
C181 C 0.62611 0.55776 0.65169 0.0
C182 C 0.58912 0.54483 0.63665 0.0
C183 C 0.59818 0.54993 0.61439 0.0
P184 P 0.0825 0.5424 0.87975 0.0
H185 H 0.14248 0.55831 0.84141 0.0
H186 H 0.20136 0.54744 0.83409 0.0
H187 H 0.15178 0.47157 0.88956 0.0
H188 H 0.09133 0.48059 0.89573 0.0
H189 H 0.0576 0.5966 0.87954 0.0
H190 H 0.98564 0.58849 0.87353 0.0
H191 H 0.91123 0.46176 0.85251 0.0
H192 H 0.98485 0.47011 0.85996 0.0
H193 H 0.15079 0.56454 0.91455 0.0
H194 H 1.00059 0.50861 0.90961 0.0
O195 O 0.1262 0.59252 0.87739 0.0
H196 H 0.14531 0.56159 0.95399 0.0
H197 H 0.9957 0.50879 0.94889 0.0
C198 C 0.11145 0.52034 0.86915 0.0
C199 C 0.14286 0.53795 0.85152 0.0
C200 C 0.17788 0.53245 0.84768 0.0
C201 C 0.18357 0.50941 0.86149 0.0
C202 C 0.14971 0.48954 0.87827 0.0
C203 C 0.11433 0.49465 0.88188 0.0
C204 C 1.02839 0.53458 0.86945 0.0
C205 C 1.02649 0.56713 0.873 0.0
C206 C 0.98429 0.56232 0.86947 0.0
C207 C 0.94115 0.52454 0.86198 0.0
C208 C 0.94292 0.49157 0.85828 0.0
C209 C 0.98563 0.4964 0.86218 0.0
C210 C 0.07623 0.53677 0.90893 0.0
C211 C 0.11658 0.55163 0.92193 0.0
C212 C 0.11347 0.55044 0.94462 0.0
C213 C 0.07013 0.53537 0.95496 0.0
C214 C 1.02959 0.52005 0.94176 0.0
C215 C 1.03251 0.52037 0.91905 0.0
P216 P 0.12018 0.52118 0.42393 0.0
H217 H 0.20695 0.56469 0.45122 0.0
H218 H 0.26475 0.63622 0.46352 0.0
H219 H 0.17028 0.65957 0.44017 0.0
H220 H 0.11117 0.58689 0.42894 0.0
H221 H 0.0953 0.46063 0.45528 0.0
H222 H 1.01877 0.39977 0.4673 0.0
H223 H 0.94494 0.43459 0.43297 0.0
H224 H 1.02214 0.4952 0.42054 0.0
H225 H 0.16379 0.59134 0.39557 0.0
H226 H 0.05799 0.45966 0.38957 0.0
O227 O 0.15287 0.50504 0.42297 0.0
H228 H 0.15347 0.59581 0.35739 0.0
H229 H 0.05053 0.46349 0.35065 0.0
C230 C 0.15528 0.57063 0.43856 0.0
C231 C 0.19803 0.58488 0.44917 0.0
C232 C 0.23148 0.62613 0.45599 0.0
C233 C 0.22325 0.6543 0.45211 0.0
C234 C 0.17823 0.63904 0.44333 0.0
C235 C 0.14428 0.5974 0.43687 0.0
C236 C 0.06441 0.48208 0.43669 0.0
C237 C 0.06273 0.45556 0.4506 0.0
C238 C 1.01874 0.42071 0.45757 0.0
C239 C 0.97533 0.41173 0.4509 0.0
C240 C 0.97747 0.43995 0.43806 0.0
C241 C 1.02164 0.47488 0.43109 0.0
C242 C 0.11004 0.52521 0.39583 0.0
C243 C 0.13748 0.56328 0.38622 0.0
C244 C 0.13234 0.56574 0.36403 0.0
C245 C 0.10118 0.53003 0.35065 0.0
C246 C 0.07402 0.49183 0.36035 0.0
C247 C 0.0784 0.48952 0.38269 0.0
P248 P 0.6463 0.05692 0.74483 0.0
H249 H 0.66921 0.10384 0.78603 0.0
H250 H 0.63831 0.13735 0.80289 0.0
H251 H 0.52931 0.08276 0.75217 0.0
H252 H 0.5602 0.04925 0.73547 0.0
H253 H 0.66724 0.00341 0.72837 0.0
H254 H 0.65187 0.94221 0.74196 0.0
H255 H 0.57951 0.94755 0.79715 0.0
H256 H 0.59432 0.0086 0.78323 0.0
H257 H 0.67761 0.11863 0.71349 0.0
H258 H 0.585 0.98656 0.71318 0.0
O259 O 0.70542 0.09269 0.74854 0.0
H260 H 0.66079 0.11487 0.67455 0.0
H261 H 0.56963 0.98281 0.6741 0.0
C262 C 0.61768 0.07481 0.75927 0.0
C263 C 0.63819 0.09858 0.77875 0.0
C264 C 0.62038 0.11758 0.78841 0.0
C265 C 0.58181 0.11316 0.77867 0.0
C266 C 0.55961 0.08732 0.75983 0.0
C267 C 0.57718 0.06806 0.7503 0.0
C268 C 0.63092 0.00999 0.75448 0.0
C269 C 0.64725 0.99098 0.74318 0.0
C270 C 0.63845 0.95601 0.75096 0.0
C271 C 0.61414 0.9399 0.77053 0.0
C272 C 0.59829 0.95929 0.78201 0.0
C273 C 0.60652 0.99405 0.774 0.0
C274 C 0.63372 0.05298 0.71611 0.0
C275 C 0.65412 0.08886 0.705 0.0
C276 C 0.64433 0.08671 0.68283 0.0
C277 C 0.61432 0.04856 0.67136 0.0
C278 C 0.59346 0.01259 0.68255 0.0
C279 C 0.60247 0.01476 0.70486 0.0
P280 P 0.42119 0.29865 0.09226 0.0
H281 H 0.41477 0.25214 0.12772 0.0
H282 H 0.47685 0.25819 0.1489 0.0
H283 H 0.58279 0.34188 0.10296 0.0
H284 H 0.52135 0.33652 0.08232 0.0
H285 H 0.34696 0.29892 0.11321 0.0
H286 H 0.35108 0.3535 0.13249 0.0
H287 H 0.50591 0.43255 0.13098 0.0
H288 H 0.50143 0.37815 0.1113 0.0
H289 H 0.4576 0.28502 0.05247 0.0
H290 H 0.41471 0.35802 0.07315 0.0
O291 O 0.36629 0.25352 0.0913 0.0
H292 H 0.48077 0.3171 0.01716 0.0
H293 H 0.43823 0.39019 0.03853 0.0
C294 C 0.46314 0.29296 0.10311 0.0
C295 C 0.45106 0.27051 0.12178 0.0
C296 C 0.48652 0.27421 0.13395 0.0
C297 C 0.5345 0.30031 0.1275 0.0
C298 C 0.54593 0.32084 0.10807 0.0
C299 C 0.51064 0.31758 0.09613 0.0
C300 C 0.42383 0.33437 0.111 0.0
C301 C 0.38176 0.32753 0.11761 0.0
C302 C 0.38425 0.35876 0.12873 0.0
C303 C 0.42891 0.39739 0.13324 0.0
C304 C 0.47104 0.40323 0.12765 0.0
C305 C 0.46848 0.37201 0.11653 0.0
C306 C 0.43592 0.32003 0.06576 0.0
C307 C 0.45343 0.30803 0.0495 0.0
C308 C 0.46678 0.32645 0.02939 0.0
C309 C 0.46169 0.35643 0.02512 0.0
C310 C 0.44241 0.36709 0.04121 0.0
C311 C 0.42935 0.34888 0.06121 0.0
H312 H 0.35292 0.53638 0.10554 0.0
H313 H 0.34613 0.54637 0.17553 0.0
H314 H 0.4013 0.51469 0.10967 0.0
H315 H 0.39371 0.52306 0.17959 0.0
H316 H 0.48511 0.47419 0.11777 0.0
H317 H 0.47425 0.52608 0.12324 0.0
H318 H 0.36444 0.45147 0.17003 0.0
H319 H 0.37619 0.4 0.16501 0.0
C320 C 0.36314 0.53546 0.12185 0.0
C321 C 0.34468 0.54234 0.14019 0.0
C322 C 0.39102 0.52293 0.12422 0.0
C323 C 0.40075 0.51666 0.14497 0.0
C324 C 0.38613 0.52712 0.1634 0.0
C325 C 0.35865 0.54019 0.16104 0.0
C326 C 0.46005 0.46958 0.1299 0.0
C327 C 0.43082 0.43266 0.1407 0.0
C328 C 0.45368 0.49924 0.13291 0.0
C329 C 0.41802 0.49251 0.14677 0.0
C330 C 0.39235 0.4576 0.15927 0.0
C331 C 0.39863 0.42787 0.15622 0.0
H332 H 0.67709 0.18809 0.4575 0.0
H333 H 0.76195 0.16041 0.48788 0.0
H334 H 0.74899 0.25845 0.45349 0.0
H335 H 0.83406 0.23082 0.48357 0.0
H336 H 0.94917 0.37024 0.48875 0.0
H337 H 0.87502 0.30233 0.49577 0.0
H338 H 0.8209 0.29456 0.43174 0.0
H339 H 0.89499 0.36206 0.42462 0.0
C340 C 0.71103 0.19697 0.46342 0.0
C341 C 0.7136 0.16836 0.47296 0.0
C342 C 0.75238 0.23737 0.46099 0.0
C343 C 0.79748 0.25037 0.46808 0.0
C344 C 0.79991 0.22205 0.47811 0.0
C345 C 0.75852 0.18155 0.48049 0.0
C346 C 0.92151 0.35407 0.47614 0.0
C347 C 0.92835 0.37184 0.45608 0.0
C348 C 0.87894 0.31506 0.48018 0.0
C349 C 0.84193 0.2928 0.46431 0.0
C350 C 0.84828 0.31097 0.44447 0.0
C351 C 0.89087 0.34987 0.44041 0.0
H352 H 0.62784 0.74233 0.78381 0.0
H353 H 0.58196 0.75215 0.84731 0.0
H354 H 0.62528 0.79541 0.77136 0.0
H355 H 0.57796 0.80464 0.83475 0.0
H356 H 0.63198 0.93044 0.81185 0.0
H357 H 0.62753 0.87393 0.82504 0.0
H358 H 0.57475 0.81098 0.76173 0.0
H359 H 0.58087 0.86819 0.7485 0.0
C360 C 0.61638 0.75538 0.79501 0.0
C361 C 0.60505 0.74301 0.81653 0.0
C362 C 0.61474 0.7858 0.78786 0.0
C363 C 0.60126 0.80443 0.802 0.0
C364 C 0.58924 0.79155 0.82348 0.0
C365 C 0.59135 0.76135 0.83069 0.0
C366 C 0.6189 0.90425 0.80088 0.0
C367 C 0.60707 0.90383 0.77912 0.0
C368 C 0.61621 0.87175 0.80842 0.0
C369 C 0.60112 0.83784 0.79443 0.0
C370 C 0.58763 0.83691 0.77286 0.0
C371 C 0.59086 0.8696 0.76528 0.0
H372 H 0.78053 0.47767 0.19852 0.0
H373 H 0.81308 0.39685 0.17927 0.0
H374 H 0.69611 0.42327 0.18905 0.0
H375 H 0.72862 0.34201 0.17017 0.0
H376 H 0.61229 0.305 0.11708 0.0
H377 H 0.68556 0.33899 0.13877 0.0
H378 H 0.61898 0.3548 0.19287 0.0
H379 H 0.54582 0.32146 0.17085 0.0
C380 C 0.76921 0.44774 0.19304 0.0
C381 C 0.80311 0.44148 0.18921 0.0
C382 C 0.72088 0.41649 0.18767 0.0
C383 C 0.70587 0.37853 0.1785 0.0
C384 C 0.73927 0.37117 0.17679 0.0
C385 C 0.78749 0.40243 0.18202 0.0
C386 C 0.61296 0.3148 0.13378 0.0
C387 C 0.57369 0.31104 0.1422 0.0
C388 C 0.65478 0.334 0.14631 0.0
C389 C 0.65821 0.34996 0.1675 0.0
C390 C 0.61753 0.34319 0.17652 0.0
C391 C 0.57553 0.32377 0.16399 0.0
H392 H 0.49537 0.89451 0.48268 0.0
H393 H 0.412 0.92268 0.45118 0.0
H394 H 0.42714 0.82187 0.47971 0.0
H395 H 0.34348 0.84949 0.44813 0.0
H396 H 0.21799 0.71534 0.46634 0.0
H397 H 0.28377 0.78912 0.47071 0.0
H398 H 0.38406 0.7691 0.44982 0.0
H399 H 0.31896 0.69617 0.44494 0.0
C400 C 0.46248 0.88529 0.47514 0.0
C401 C 0.45939 0.91458 0.46706 0.0
C402 C 0.42335 0.84351 0.47336 0.0
C403 C 0.37988 0.82979 0.46358 0.0
C404 C 0.37634 0.85906 0.45589 0.0
C405 C 0.41573 0.90099 0.45751 0.0
C406 C 0.25401 0.72667 0.46256 0.0
C407 C 0.26294 0.6994 0.45555 0.0
C408 C 0.29172 0.76899 0.46508 0.0
C409 C 0.33926 0.78499 0.46079 0.0
C410 C 0.34807 0.75779 0.45371 0.0
C411 C 0.31054 0.71575 0.45103 0.0
H412 H 0.57437 0.31424 0.8037 0.0
H413 H 0.46434 0.22228 0.8457 0.0
H414 H 0.59006 0.26752 0.79105 0.0
H415 H 0.48128 0.17602 0.83341 0.0
H416 H 0.56768 0.12636 0.82108 0.0
H417 H 0.54901 0.171 0.83479 0.0
H418 H 0.54523 0.2007 0.76897 0.0
H419 H 0.56421 0.15657 0.75532 0.0
C420 C 0.55327 0.28401 0.81017 0.0
C421 C 0.51772 0.27202 0.82561 0.0
C422 C 0.56243 0.25729 0.80295 0.0
C423 C 0.53669 0.21803 0.81114 0.0
C424 C 0.50192 0.20622 0.82693 0.0
C425 C 0.49236 0.23283 0.83401 0.0
C426 C 0.56268 0.14235 0.80957 0.0
C427 C 0.56731 0.13789 0.78712 0.0
C428 C 0.55174 0.16768 0.8174 0.0
C429 C 0.54592 0.1895 0.80295 0.0
C430 C 0.54998 0.1846 0.78051 0.0
C431 C 0.56034 0.15898 0.77269 0.0
H432 H 0.60486 0.82191 0.47872 0.0
H433 H 0.61199 0.85622 0.54671 0.0
H434 H 0.59672 0.76194 0.48869 0.0
H435 H 0.60491 0.79696 0.55674 0.0
H436 H 0.55982 0.67245 0.56991 0.0
H437 H 0.55449 0.72439 0.55782 0.0
H438 H 0.64477 0.74641 0.50349 0.0
H439 H 0.64906 0.69388 0.51536 0.0
C440 C 0.60468 0.8166 0.4958 0.0
C441 C 0.60919 0.84387 0.51192 0.0
C442 C 0.60015 0.78229 0.50154 0.0
C443 C 0.60039 0.77457 0.52354 0.0
C444 C 0.60376 0.80141 0.53964 0.0
C445 C 0.60793 0.83552 0.5339 0.0
C446 C 0.57819 0.68822 0.55529 0.0
C447 C 0.60499 0.67916 0.54364 0.0
C448 C 0.57532 0.71812 0.54839 0.0
C449 C 0.59954 0.73998 0.52976 0.0
C450 C 0.62508 0.72991 0.51773 0.0
C451 C 0.62762 0.69977 0.52455 0.0
H452 H 0.64562 0.45242 0.86675 0.0
H453 H 0.72988 0.56715 0.83516 0.0
H454 H 0.71569 0.45495 0.8693 0.0
H455 H 0.79898 0.56877 0.83619 0.0
H456 H 0.93221 0.58461 0.85314 0.0
H457 H 0.86211 0.58041 0.85132 0.0
H458 H 0.7725 0.44976 0.85897 0.0
H459 H 0.84388 0.45489 0.86306 0.0
C460 C 0.67902 0.47809 0.86008 0.0
C461 C 0.68149 0.50972 0.85089 0.0
C462 C 0.7198 0.47953 0.86139 0.0
C463 C 0.76489 0.5123 0.85316 0.0
C464 C 0.76653 0.54335 0.84348 0.0
C465 C 0.72613 0.54232 0.84263 0.0
C466 C 0.89794 0.55483 0.85498 0.0
C467 C 0.8954 0.52031 0.85876 0.0
C468 C 0.85657 0.55218 0.85339 0.0
C469 C 0.80973 0.51461 0.85486 0.0
C470 C 0.80697 0.47973 0.85806 0.0
C471 C 0.84866 0.48255 0.86008 0.0
H472 H 0.18435 0.70449 0.17366 0.0
H473 H 0.26066 0.67018 0.13795 0.0
H474 H 0.25714 0.77561 0.17605 0.0
H475 H 0.33354 0.74111 0.14072 0.0
H476 H 0.44766 0.87823 0.13327 0.0
H477 H 0.37155 0.8092 0.12844 0.0
H478 H 0.33453 0.81756 0.19443 0.0
H479 H 0.41047 0.88634 0.19929 0.0
C480 C 0.21655 0.71201 0.16627 0.0
C481 C 0.21639 0.68132 0.15565 0.0
C482 C 0.25848 0.75288 0.16776 0.0
C483 C 0.30145 0.76428 0.15864 0.0
C484 C 0.30108 0.7337 0.14771 0.0
C485 C 0.2592 0.69283 0.14624 0.0
C486 C 0.42329 0.86541 0.14676 0.0
C487 C 0.43549 0.88809 0.16669 0.0
C488 C 0.37959 0.82571 0.14399 0.0
C489 C 0.3468 0.80754 0.16107 0.0
C490 C 0.35846 0.83063 0.1808 0.0
C491 C 0.40213 0.87028 0.18357 0.0
H492 H 0.5082 0.20823 0.51595 0.0
H493 H 0.58182 0.26764 0.45705 0.0
H494 H 0.52266 0.27084 0.52996 0.0
H495 H 0.59577 0.33021 0.47096 0.0
H496 H 0.66398 0.44605 0.51742 0.0
H497 H 0.64515 0.3833 0.50089 0.0
H498 H 0.49947 0.31489 0.52276 0.0
H499 H 0.51778 0.37785 0.53889 0.0
C500 C 0.52739 0.23467 0.50598 0.0
C501 C 0.54404 0.23305 0.48544 0.0
C502 C 0.53527 0.2704 0.51391 0.0
C503 C 0.56039 0.3055 0.50157 0.0
C504 C 0.57662 0.30377 0.48092 0.0
C505 C 0.5683 0.26786 0.47289 0.0
C506 C 0.62763 0.41786 0.51837 0.0
C507 C 0.59245 0.41722 0.52956 0.0
C508 C 0.61691 0.38182 0.50892 0.0
C509 C 0.57087 0.3441 0.51056 0.0
C510 C 0.53547 0.34341 0.52147 0.0
C511 C 0.54606 0.37952 0.53077 0.0
H512 H 0.3744 0.43807 0.85354 0.0
H513 H 0.47125 0.56939 0.84974 0.0
H514 H 0.30659 0.43879 0.85516 0.0
H515 H 0.40403 0.57075 0.85248 0.0
H516 H 0.27365 0.56502 0.84302 0.0
H517 H 0.33945 0.5625 0.83934 0.0
H518 H 0.258 0.44889 0.87237 0.0
H519 H 0.19068 0.44967 0.87442 0.0
C520 C 0.38147 0.46731 0.85321 0.0
C521 C 0.42903 0.50362 0.85144 0.0
C522 C 0.34212 0.46787 0.85434 0.0
C523 C 0.34835 0.50487 0.85406 0.0
C524 C 0.39625 0.54123 0.85235 0.0
C525 C 0.43549 0.54056 0.85093 0.0
C526 C 0.2688 0.53883 0.84917 0.0
C527 C 0.22525 0.5075 0.85901 0.0
C528 C 0.30772 0.53777 0.8474 0.0
C529 C 0.30567 0.50559 0.85561 0.0
C530 C 0.26211 0.47422 0.86543 0.0
C531 C 0.22297 0.47503 0.86697 0.0
H532 H 0.9231 0.43931 0.16663 0.0
H533 H 0.99889 0.40234 0.13328 0.0
H534 H 0.85421 0.36804 0.17021 0.0
H535 H 0.92988 0.33032 0.13754 0.0
H536 H 0.78325 0.20168 0.1373 0.0
H537 H 0.84697 0.27285 0.12832 0.0
H538 H 0.8337 0.31407 0.19156 0.0
H539 H 0.76929 0.24371 0.20004 0.0
C540 C 0.92509 0.41598 0.15995 0.0
C541 C 0.96691 0.4268 0.14979 0.0
C542 C 0.88548 0.37489 0.16216 0.0
C543 C 0.88645 0.34314 0.15451 0.0
C544 C 0.92757 0.35383 0.14355 0.0
C545 C 0.96729 0.39518 0.14116 0.0
C546 C 0.7934 0.22605 0.14909 0.0
C547 C 0.77113 0.21682 0.16945 0.0
C548 C 0.8304 0.26688 0.14405 0.0
C549 C 0.84582 0.29949 0.15919 0.0
C550 C 0.82265 0.29009 0.17931 0.0
C551 C 0.78588 0.2495 0.18431 0.0
H552 H 0.99687 0.55181 0.08847 0.0
H553 H 0.11452 0.54829 0.09549 0.0
H554 H 0.99973 0.54506 0.04873 0.0
H555 H 0.11844 0.54295 0.05581 0.0
H556 H 0.1411 0.59222 0.98468 0.0
H557 H 0.13664 0.59471 0.02417 0.0
H558 H 0.98847 0.48651 0.02044 0.0
H559 H 0.9932 0.48189 0.98096 0.0
C560 C 1.02339 0.54973 0.08149 0.0
C561 C 0.05562 0.55073 0.09499 0.0
C562 C 1.0249 0.54572 0.05883 0.0
C563 C 0.05938 0.54359 0.04928 0.0
C564 C 0.09169 0.54474 0.0628 0.0
C565 C 0.08943 0.54776 0.08545 0.0
C566 C 0.10774 0.56824 0.99211 0.0
C567 C 0.06756 0.53674 0.9793 0.0
C568 C 0.10521 0.56999 0.01481 0.0
C569 C 0.0622 0.5409 0.02528 0.0
C570 C 1.02194 0.50954 0.01269 0.0
C571 C 1.02471 0.50717 0.99001 0.0
H572 H 0.53146 0.00352 0.40865 0.0
H573 H 0.68616 0.08359 0.40753 0.0
H574 H 0.52857 1.00081 0.3687 0.0
H575 H 0.68347 0.0817 0.368 0.0
H576 H 0.66395 0.02853 0.29994 0.0
H577 H 0.66138 0.031 0.33937 0.0
H578 H 0.54815 0.04114 0.33611 0.0
H579 H 0.54937 0.03695 0.2963 0.0
C580 C 0.56475 0.02091 0.39986 0.0
C581 C 0.60902 0.04333 0.41112 0.0
C582 C 0.56315 0.01948 0.37703 0.0
C583 C 0.6058 0.0405 0.36514 0.0
C584 C 0.64993 0.0643 0.3766 0.0
C585 C 0.6515 0.0656 0.39927 0.0
C586 C 0.63794 0.03065 0.30754 0.0
C587 C 0.60681 0.03246 0.29489 0.0
C588 C 0.63692 0.03265 0.33021 0.0
C589 C 0.60492 0.03674 0.34094 0.0
C590 C 0.57314 0.03787 0.32835 0.0
C591 C 0.57417 0.03588 0.30556 0.0
H592 H 0.63372 0.54809 0.79366 0.0
H593 H 0.48428 0.47508 0.77466 0.0
H594 H 0.65648 0.56744 0.75589 0.0
H595 H 0.50688 0.49449 0.7371 0.0
H596 H 0.56741 0.567 0.67551 0.0
H597 H 0.54946 0.55621 0.7141 0.0
H598 H 0.64638 0.52801 0.72064 0.0
H599 H 0.66339 0.53751 0.68195 0.0
C600 C 0.60584 0.53661 0.78146 0.0
C601 C 0.55726 0.50992 0.78699 0.0
C602 C 0.61882 0.54747 0.75987 0.0
C603 C 0.58343 0.53234 0.74355 0.0
C604 C 0.53495 0.50688 0.74933 0.0
C605 C 0.52201 0.49563 0.7708 0.0
C606 C 0.58463 0.55813 0.68508 0.0
C607 C 0.61663 0.55285 0.67547 0.0
C608 C 0.57453 0.55222 0.70723 0.0
C609 C 0.59656 0.54132 0.72038 0.0
C610 C 0.62937 0.53697 0.71097 0.0
C611 C 0.63912 0.54246 0.68877 0.0
H612 H 0.49795 0.02249 0.54242 0.0
H613 H 0.64285 0.06697 0.53152 0.0
H614 H 0.50963 0.02247 0.58155 0.0
H615 H 0.65383 0.06547 0.57057 0.0
H616 H 0.62584 0.0087 0.63899 0.0
H617 H 0.61297 0.00712 0.59973 0.0
H618 H 0.56846 0.08166 0.61148 0.0
H619 H 0.58223 0.08391 0.65066 0.0
C620 C 0.53214 0.03195 0.54837 0.0
C621 C 0.5694 0.04443 0.53394 0.0
C622 C 0.5388 0.032 0.57072 0.0
C623 C 0.58253 0.0438 0.57899 0.0
C624 C 0.61962 0.05584 0.56454 0.0
C625 C 0.6133 0.05662 0.54224 0.0
C626 C 0.61314 0.02457 0.63313 0.0
C627 C 0.60503 0.04645 0.64775 0.0
C628 C 0.60605 0.02386 0.61074 0.0
C629 C 0.58975 0.04427 0.60268 0.0
C630 C 0.58083 0.06554 0.61734 0.0
C631 C 0.58888 0.06697 0.63967 0.0
H632 H 0.47767 0.44624 0.89791 0.0
H633 H 0.6226 0.53025 0.92373 0.0
H634 H 0.45322 0.40577 0.92987 0.0
H635 H 0.59777 0.49018 0.95629 0.0
H636 H 0.54336 0.38596 0.00242 0.0
H637 H 0.56959 0.42347 0.96894 0.0
H638 H 0.44089 0.41262 0.96776 0.0
H639 H 0.41402 0.37403 0.00053 0.0
C640 C 0.50431 0.45612 0.9105 0.0
C641 C 0.55201 0.49143 0.90841 0.0
C642 C 0.49023 0.43303 0.92888 0.0
C643 C 0.52344 0.44486 0.94571 0.0
C644 C 0.57141 0.48004 0.94352 0.0
C645 C 0.58557 0.50316 0.925 0.0
C646 C 0.52041 0.39108 0.99477 0.0
C647 C 0.47666 0.37709 0.00413 0.0
C648 C 0.5357 0.413 0.97578 0.0
C649 C 0.5074 0.42113 0.96571 0.0
C650 C 0.46335 0.40654 0.97494 0.0
C651 C 0.44814 0.38475 0.99386 0.0
H652 H 0.12908 0.59888 0.21531 0.0
H653 H 0.07981 0.47451 0.21287 0.0
H654 H 0.12268 0.59774 0.25512 0.0
H655 H 0.07217 0.47303 0.25249 0.0
H656 H 1.02363 0.47979 0.32241 0.0
H657 H 1.02237 0.48157 0.2828 0.0
H658 H 0.17126 0.58868 0.28465 0.0
H659 H 0.17399 0.58578 0.32391 0.0
C660 C 0.11629 0.5712 0.22328 0.0
C661 C 0.10524 0.53687 0.21116 0.0
C662 C 0.11271 0.57058 0.24597 0.0
C663 C 0.09689 0.53528 0.25675 0.0
C664 C 0.08412 0.50048 0.2445 0.0
C665 C 0.08875 0.50142 0.22191 0.0
C666 C 0.05634 0.50354 0.31446 0.0
C667 C 0.09896 0.53256 0.32659 0.0
C668 C 0.05537 0.50469 0.29178 0.0
C669 C 0.09663 0.53541 0.2808 0.0
C670 C 0.13878 0.56506 0.29282 0.0
C671 C 0.14012 0.56343 0.3154 0.0
loop_
_geom_bond_atom_site_label_1
_geom_bond_atom_site_label_2
_geom_bond_distance
_geom_bond_site_symmetry_2
_ccdc_geom_bond_type
Ho0 C3 2.811 . S
Ho0 O20 2.322 . S
Ho0 O22 2.378 . S
Ho0 O23 2.524 . S
Ho0 O24 2.381 . S
Ho0 O25 2.669 . S
Ho0 O27 2.346 1_455 S
Ho0 O31 2.305 . S
Ho1 C12 2.811 . S
Ho1 O21 2.346 1_655 S
Ho1 O25 2.305 1_655 S
Ho1 O26 2.322 . S
Ho1 O28 2.378 . S
Ho1 O29 2.524 . S
Ho1 O30 2.381 1_655 S
Ho1 O31 2.669 1_655 S
C2 O20 1.259 . S
C2 O21 1.268 . S
C3 Ho0 2.811 . S
C3 C4 1.488 . S
C3 O22 1.215 . S
C3 O23 1.289 . S
C4 C3 1.488 . S
C4 C5 1.348 . S
C4 C9 1.413 . S
C5 C4 1.348 . S
C5 C6 1.442 . S
C5 H32 0.930 . S
C6 C5 1.442 . S
C6 C7 1.381 . S
C6 H33 0.931 . S
C7 C6 1.381 . S
C7 C8 1.321 . S
C8 C7 1.321 . S
C8 C9 1.403 . S
C8 H34 0.934 . S
C9 C4 1.413 . S
C9 C8 1.403 . S
C9 H35 0.930 . S
C10 O24 1.275 . S
C10 O25 1.256 . S
C11 O26 1.259 . S
C11 O27 1.268 . S
C12 Ho1 2.811 . S
C12 C13 1.488 . S
C12 O28 1.215 . S
C12 O29 1.289 . S
C13 C12 1.488 . S
C13 C14 1.348 . S
C13 C18 1.413 . S
C14 C13 1.348 . S
C14 C15 1.442 . S
C14 H36 0.930 . S
C15 C14 1.442 . S
C15 C16 1.381 . S
C15 H37 0.931 . S
C16 C15 1.381 . S
C16 C17 1.321 . S
C17 C16 1.321 . S
C17 C18 1.403 . S
C17 H38 0.934 . S
C18 C13 1.413 . S
C18 C17 1.403 . S
C18 H39 0.930 . S
C19 O30 1.275 . S
C19 O31 1.256 . S
O20 Ho0 2.322 . S
O20 C2 1.259 . S
O21 Ho1 2.346 1_455 S
O21 C2 1.268 . S
O22 Ho0 2.378 . S
O22 C3 1.215 . S
O23 Ho0 2.524 . S
O23 C3 1.289 . S
O24 Ho0 2.381 . S
O24 C10 1.275 . S
O25 Ho0 2.669 . S
O25 Ho1 2.305 1_455 S
O25 C10 1.256 . S
O26 Ho1 2.322 . S
O26 C11 1.259 . S
O27 Ho0 2.346 1_655 S
O27 C11 1.268 . S
O28 Ho1 2.378 . S
O28 C12 1.215 . S
O29 Ho1 2.524 . S
O29 C12 1.289 . S
O30 Ho1 2.381 1_455 S
O30 C19 1.275 . S
O31 Ho0 2.305 . S
O31 Ho1 2.669 1_455 S
O31 C19 1.256 . S
H32 C5 0.930 . S
H33 C6 0.931 . S
H34 C8 0.934 . S
H35 C9 0.930 . S
H36 C14 0.930 . S
H37 C15 0.931 . S
H38 C17 0.934 . S
H39 C18 0.930 . S
Ho40 C43 2.811 . S
Ho40 O60 2.322 . S
Ho40 O62 2.378 . S
Ho40 O63 2.524 . S
Ho40 O64 2.381 . S
Ho40 O65 2.669 1_565 S
Ho40 O67 2.346 1_565 S
Ho40 O71 2.287 1_565 S
Ho41 C52 2.811 . S
Ho41 O61 2.346 1_545 S
Ho41 O65 2.305 . S
Ho41 O66 2.322 . S
Ho41 O68 2.378 . S
Ho41 O69 2.524 . S
Ho41 O70 2.381 . S
Ho41 O71 2.698 . S
C42 O60 1.259 . S
C42 O61 1.268 . S
C43 Ho40 2.811 . S
C43 C44 1.488 . S
C43 O62 1.215 . S
C43 O63 1.289 . S
C44 C43 1.488 . S
C44 C45 1.348 . S
C44 C49 1.413 . S
C45 C44 1.348 . S
C45 C46 1.442 . S
C45 H72 0.930 . S
C46 C45 1.442 . S
C46 C47 1.381 . S
C46 H73 0.931 . S
C47 C46 1.381 . S
C47 C48 1.321 . S
C48 C47 1.321 . S
C48 C49 1.403 . S
C48 H74 0.934 . S
C49 C44 1.413 . S
C49 C48 1.403 . S
C49 H75 0.930 . S
C50 O64 1.275 1_545 S
C50 O65 1.256 . S
C51 O66 1.259 . S
C51 O67 1.268 . S
C52 Ho41 2.811 . S
C52 C53 1.488 . S
C52 O68 1.215 . S
C52 O69 1.289 . S
C53 C52 1.488 . S
C53 C54 1.348 . S
C53 C58 1.413 . S
C54 C53 1.348 . S
C54 C55 1.442 . S
C54 H76 0.930 . S
C55 C54 1.442 . S
C55 C56 1.381 . S
C55 H77 0.931 . S
C56 C55 1.381 . S
C56 C57 1.321 . S
C57 C56 1.321 . S
C57 C58 1.403 . S
C57 H78 0.934 . S
C58 C53 1.413 . S
C58 C57 1.403 . S
C58 H79 0.930 . S
C59 O70 1.275 . S
C59 O71 1.273 . S
O60 Ho40 2.322 . S
O60 C42 1.259 . S
O61 Ho41 2.346 1_565 S
O61 C42 1.268 . S
O62 Ho40 2.378 . S
O62 C43 1.215 . S
O63 Ho40 2.524 . S
O63 C43 1.289 . S
O64 Ho40 2.381 . S
O64 C50 1.275 1_565 S
O65 Ho40 2.669 1_545 S
O65 Ho41 2.305 . S
O65 C50 1.256 . S
O66 Ho41 2.322 . S
O66 C51 1.259 . S
O67 Ho40 2.346 1_545 S
O67 C51 1.268 . S
O68 Ho41 2.378 . S
O68 C52 1.215 . S
O69 Ho41 2.524 . S
O69 C52 1.289 . S
O70 Ho41 2.381 . S
O70 C59 1.275 . S
O71 Ho40 2.287 1_545 S
O71 Ho41 2.698 . S
O71 C59 1.273 . S
H72 C45 0.930 . S
H73 C46 0.931 . S
H74 C48 0.934 . S
H75 C49 0.930 . S
H76 C54 0.930 . S
H77 C55 0.931 . S
H78 C57 0.934 . S
H79 C58 0.930 . S
Ho80 C83 2.811 . S
Ho80 O100 2.322 . S
Ho80 O102 2.378 . S
Ho80 O103 2.524 . S
Ho80 O104 2.381 . S
Ho80 O105 2.669 . S
Ho80 O107 2.346 . S
Ho80 O111 2.305 . S
Ho81 C92 2.811 . S
Ho81 O101 2.346 . S
Ho81 O105 2.305 . S
Ho81 O106 2.322 . S
Ho81 O108 2.378 . S
Ho81 O109 2.524 . S
Ho81 O110 2.381 . S
Ho81 O111 2.669 . S
C82 O100 1.259 . S
C82 O101 1.268 . S
C83 Ho80 2.811 . S
C83 C84 1.488 . S
C83 O102 1.215 . S
C83 O103 1.289 . S
C84 C83 1.488 . S
C84 C85 1.348 . S
C84 C89 1.413 . S
C85 C84 1.348 . S
C85 C86 1.442 . S
C85 H112 0.930 . S
C86 C85 1.442 . S
C86 C87 1.381 . S
C86 H113 0.931 . S
C87 C86 1.381 . S
C87 C88 1.321 . S
C88 C87 1.321 . S
C88 C89 1.403 . S
C88 H114 0.934 . S
C89 C84 1.413 . S
C89 C88 1.403 . S
C89 H115 0.930 . S
C90 O104 1.275 . S
C90 O105 1.256 . S
C91 O106 1.259 . S
C91 O107 1.268 . S
C92 Ho81 2.811 . S
C92 C93 1.488 . S
C92 O108 1.215 . S
C92 O109 1.289 . S
C93 C92 1.488 . S
C93 C94 1.348 . S
C93 C98 1.413 . S
C94 C93 1.348 . S
C94 C95 1.442 . S
C94 H116 0.930 . S
C95 C94 1.442 . S
C95 C96 1.381 . S
C95 H117 0.931 . S
C96 C95 1.381 . S
C96 C97 1.321 . S
C97 C96 1.321 . S
C97 C98 1.403 . S
C97 H118 0.934 . S
C98 C93 1.413 . S
C98 C97 1.403 . S
C98 H119 0.930 . S
C99 O110 1.275 . S
C99 O111 1.256 . S
O100 Ho80 2.322 . S
O100 C82 1.259 . S
O101 Ho81 2.346 . S
O101 C82 1.268 . S
O102 Ho80 2.378 . S
O102 C83 1.215 . S
O103 Ho80 2.524 . S
O103 C83 1.289 . S
O104 Ho80 2.381 . S
O104 C90 1.275 . S
O105 Ho80 2.669 . S
O105 Ho81 2.305 . S
O105 C90 1.256 . S
O106 Ho81 2.322 . S
O106 C91 1.259 . S
O107 Ho80 2.346 . S
O107 C91 1.268 . S
O108 Ho81 2.378 . S
O108 C92 1.215 . S
O109 Ho81 2.524 . S
O109 C92 1.289 . S
O110 Ho81 2.381 . S
O110 C99 1.275 . S
O111 Ho80 2.305 . S
O111 Ho81 2.669 . S
O111 C99 1.256 . S
H112 C85 0.930 . S
H113 C86 0.931 . S
H114 C88 0.934 . S
H115 C89 0.930 . S
H116 C94 0.930 . S
H117 C95 0.931 . S
H118 C97 0.934 . S
H119 C98 0.930 . S
P120 O131 1.490 1_545 S
P120 C134 1.812 1_545 S
P120 C140 1.803 . S
P120 C146 1.819 . S
H121 C135 0.941 . S
H122 C136 0.939 . S
H123 C138 0.940 . S
H124 C139 0.940 . S
H125 C141 0.939 . S
H126 C142 0.942 . S
H127 C144 0.940 . S
H128 C145 0.939 . S
H129 C147 0.941 . S
H130 C151 0.939 . S
O131 P120 1.490 1_565 S
H132 C148 0.939 . S
H133 C150 0.940 . S
C134 P120 1.812 1_565 S
C134 C135 1.389 . S
C134 C139 1.391 . S
C135 H121 0.941 . S
C135 C134 1.389 . S
C135 C136 1.397 . S
C136 H122 0.939 . S
C136 C135 1.397 . S
C136 C137 1.378 . S
C137 C136 1.378 . S
C137 C138 1.378 . S
C138 H123 0.940 . S
C138 C137 1.378 . S
C138 C139 1.396 . S
C139 H124 0.940 . S
C139 C134 1.391 . S
C139 C138 1.396 . S
C140 P120 1.803 . S
C140 C141 1.378 . S
C140 C145 1.400 . S
C141 H125 0.939 . S
C141 C140 1.378 . S
C141 C142 1.361 . S
C142 H126 0.942 . S
C142 C141 1.361 . S
C142 C143 1.369 . S
C143 C142 1.369 . S
C143 C144 1.404 . S
C144 H127 0.940 . S
C144 C143 1.404 . S
C144 C145 1.389 . S
C145 H128 0.939 . S
C145 C140 1.400 . S
C145 C144 1.389 . S
C146 P120 1.819 . S
C146 C147 1.391 1_545 S
C146 C151 1.391 . S
C147 H129 0.941 . S
C147 C146 1.391 1_565 S
C147 C148 1.396 . S
C148 H132 0.939 . S
C148 C147 1.396 . S
C148 C149 1.397 1_565 S
C149 C148 1.397 1_545 S
C149 C150 1.385 . S
C150 H133 0.940 . S
C150 C149 1.385 . S
C150 C151 1.388 . S
C151 H130 0.939 . S
C151 C146 1.391 . S
C151 C150 1.388 . S
P152 O163 1.490 . S
P152 C166 1.812 . S
P152 C172 1.803 . S
P152 C178 1.819 . S
H153 C167 0.941 . S
H154 C168 0.939 . S
H155 C170 0.940 . S
H156 C171 0.940 . S
H157 C173 0.939 . S
H158 C174 0.942 . S
H159 C176 0.940 . S
H160 C177 0.939 . S
H161 C179 0.941 . S
H162 C183 0.939 . S
O163 P152 1.490 . S
H164 C180 0.939 . S
H165 C182 0.940 . S
C166 P152 1.812 . S
C166 C167 1.389 . S
C166 C171 1.391 . S
C167 H153 0.941 . S
C167 C166 1.389 . S
C167 C168 1.397 . S
C168 H154 0.939 . S
C168 C167 1.397 . S
C168 C169 1.378 . S
C169 C168 1.378 . S
C169 C170 1.378 . S
C170 H155 0.940 . S
C170 C169 1.378 . S
C170 C171 1.396 . S
C171 H156 0.940 . S
C171 C166 1.391 . S
C171 C170 1.396 . S
C172 P152 1.803 . S
C172 C173 1.378 . S
C172 C177 1.400 . S
C173 H157 0.939 . S
C173 C172 1.378 . S
C173 C174 1.361 . S
C174 H158 0.942 . S
C174 C173 1.361 . S
C174 C175 1.369 . S
C175 C174 1.369 . S
C175 C176 1.404 . S
C176 H159 0.940 . S
C176 C175 1.404 . S
C176 C177 1.389 . S
C177 H160 0.939 . S
C177 C172 1.400 . S
C177 C176 1.389 . S
C178 P152 1.819 . S
C178 C179 1.391 . S
C178 C183 1.391 . S
C179 H161 0.941 . S
C179 C178 1.391 . S
C179 C180 1.396 . S
C180 H164 0.939 . S
C180 C179 1.396 . S
C180 C181 1.397 . S
C181 C180 1.397 . S
C181 C182 1.385 . S
C182 H165 0.940 . S
C182 C181 1.385 . S
C182 C183 1.388 . S
C183 H162 0.939 . S
C183 C178 1.391 . S
C183 C182 1.388 . S
P184 O195 1.490 . S
P184 C198 1.812 . S
P184 C204 1.803 . S
P184 C210 1.819 . S
H185 C199 0.941 . S
H186 C200 0.939 . S
H187 C202 0.940 . S
H188 C203 0.940 . S
H189 C205 0.939 . S
H190 C206 0.942 . S
H191 C208 0.940 . S
H192 C209 0.939 . S
H193 C211 0.941 . S
H194 C215 0.939 . S
O195 P184 1.490 . S
H196 C212 0.939 . S
H197 C214 0.940 1_655 S
C198 P184 1.812 . S
C198 C199 1.389 . S
C198 C203 1.391 . S
C199 H185 0.941 . S
C199 C198 1.389 . S
C199 C200 1.397 . S
C200 H186 0.939 . S
C200 C199 1.397 . S
C200 C201 1.378 . S
C201 C200 1.378 . S
C201 C202 1.378 . S
C202 H187 0.940 . S
C202 C201 1.378 . S
C202 C203 1.396 . S
C203 H188 0.940 . S
C203 C198 1.391 . S
C203 C202 1.396 . S
C204 P184 1.803 . S
C204 C205 1.378 . S
C204 C209 1.400 . S
C205 H189 0.939 . S
C205 C204 1.378 . S
C205 C206 1.361 1_455 S
C206 H190 0.942 . S
C206 C205 1.361 1_655 S
C206 C207 1.369 . S
C207 C206 1.369 . S
C207 C208 1.404 . S
C208 H191 0.940 . S
C208 C207 1.404 . S
C208 C209 1.389 1_655 S
C209 H192 0.939 . S
C209 C204 1.400 . S
C209 C208 1.389 1_455 S
C210 P184 1.819 . S
C210 C211 1.391 . S
C210 C215 1.391 . S
C211 H193 0.941 . S
C211 C210 1.391 . S
C211 C212 1.396 . S
C212 H196 0.939 . S
C212 C211 1.396 . S
C212 C213 1.397 . S
C213 C212 1.397 . S
C213 C214 1.385 . S
C214 H197 0.940 1_455 S
C214 C213 1.385 . S
C214 C215 1.388 . S
C215 H194 0.939 . S
C215 C210 1.391 . S
C215 C214 1.388 . S
P216 O227 1.490 . S
P216 C230 1.812 . S
P216 C236 1.803 1_455 S
P216 C242 1.819 . S
H217 C231 0.941 . S
H218 C232 0.939 . S
H219 C234 0.940 . S
H220 C235 0.940 . S
H221 C237 0.939 . S
H222 C238 0.942 . S
H223 C240 0.940 . S
H224 C241 0.939 . S
H225 C243 0.941 . S
H226 C247 0.939 . S
O227 P216 1.490 . S
H228 C244 0.939 . S
H229 C246 0.940 . S
C230 P216 1.812 . S
C230 C231 1.389 . S
C230 C235 1.391 . S
C231 H217 0.941 . S
C231 C230 1.389 . S
C231 C232 1.397 . S
C232 H218 0.939 . S
C232 C231 1.397 . S
C232 C233 1.378 . S
C233 C232 1.378 . S
C233 C234 1.378 . S
C234 H219 0.940 . S
C234 C233 1.378 . S
C234 C235 1.396 . S
C235 H220 0.940 . S
C235 C230 1.391 . S
C235 C234 1.396 . S
C236 P216 1.803 1_655 S
C236 C237 1.378 . S
C236 C241 1.400 . S
C237 H221 0.939 . S
C237 C236 1.378 . S
C237 C238 1.361 . S
C238 H222 0.942 . S
C238 C237 1.361 . S
C238 C239 1.369 . S
C239 C238 1.369 . S
C239 C240 1.404 . S
C240 H223 0.940 . S
C240 C239 1.404 . S
C240 C241 1.389 . S
C241 H224 0.939 . S
C241 C236 1.400 . S
C241 C240 1.389 . S
C242 P216 1.819 . S
C242 C243 1.391 . S
C242 C247 1.391 1_455 S
C243 H225 0.941 . S
C243 C242 1.391 . S
C243 C244 1.396 . S
C244 H228 0.939 . S
C244 C243 1.396 . S
C244 C245 1.397 . S
C245 C244 1.397 . S
C245 C246 1.385 1_455 S
C246 H229 0.940 . S
C246 C245 1.385 1_655 S
C246 C247 1.388 . S
C247 H226 0.939 . S
C247 C242 1.391 1_655 S
C247 C246 1.388 . S
P248 O259 1.490 . S
P248 C262 1.812 . S
P248 C268 1.803 1_545 S
P248 C274 1.819 . S
H249 C263 0.941 . S
H250 C264 0.939 . S
H251 C266 0.940 . S
H252 C267 0.940 . S
H253 C269 0.939 . S
H254 C270 0.942 . S
H255 C272 0.940 . S
H256 C273 0.939 . S
H257 C275 0.941 . S
H258 C279 0.939 . S
O259 P248 1.490 . S
H260 C276 0.939 . S
H261 C278 0.940 . S
C262 P248 1.812 . S
C262 C263 1.389 . S
C262 C267 1.391 . S
C263 H249 0.941 . S
C263 C262 1.389 . S
C263 C264 1.397 . S
C264 H250 0.939 . S
C264 C263 1.397 . S
C264 C265 1.378 . S
C265 C264 1.378 . S
C265 C266 1.378 . S
C266 H251 0.940 . S
C266 C265 1.378 . S
C266 C267 1.396 . S
C267 H252 0.940 . S
C267 C262 1.391 . S
C267 C266 1.396 . S
C268 P248 1.803 1_565 S
C268 C269 1.378 . S
C268 C273 1.400 . S
C269 H253 0.939 . S
C269 C268 1.378 . S
C269 C270 1.361 . S
C270 H254 0.942 . S
C270 C269 1.361 . S
C270 C271 1.369 . S
C271 C270 1.369 . S
C271 C272 1.404 . S
C272 H255 0.940 . S
C272 C271 1.404 . S
C272 C273 1.389 . S
C273 H256 0.939 . S
C273 C268 1.400 . S
C273 C272 1.389 . S
C274 P248 1.819 . S
C274 C275 1.391 . S
C274 C279 1.391 1_545 S
C275 H257 0.941 . S
C275 C274 1.391 . S
C275 C276 1.396 . S
C276 H260 0.939 . S
C276 C275 1.396 . S
C276 C277 1.397 . S
C277 C276 1.397 . S
C277 C278 1.385 1_545 S
C278 H261 0.940 . S
C278 C277 1.385 1_565 S
C278 C279 1.388 . S
C279 H258 0.939 . S
C279 C274 1.391 1_565 S
C279 C278 1.388 . S
P280 O291 1.490 . S
P280 C294 1.812 . S
P280 C300 1.803 . S
P280 C306 1.819 . S
H281 C295 0.941 . S
H282 C296 0.939 . S
H283 C298 0.940 . S
H284 C299 0.940 . S
H285 C301 0.939 . S
H286 C302 0.942 . S
H287 C304 0.940 . S
H288 C305 0.939 . S
H289 C307 0.941 . S
H290 C311 0.939 . S
O291 P280 1.490 . S
H292 C308 0.939 . S
H293 C310 0.940 . S
C294 P280 1.812 . S
C294 C295 1.389 . S
C294 C299 1.391 . S
C295 H281 0.941 . S
C295 C294 1.389 . S
C295 C296 1.397 . S
C296 H282 0.939 . S
C296 C295 1.397 . S
C296 C297 1.378 . S
C297 C296 1.378 . S
C297 C298 1.378 . S
C298 H283 0.940 . S
C298 C297 1.378 . S
C298 C299 1.396 . S
C299 H284 0.940 . S
C299 C294 1.391 . S
C299 C298 1.396 . S
C300 P280 1.803 . S
C300 C301 1.378 . S
C300 C305 1.400 . S
C301 H285 0.939 . S
C301 C300 1.378 . S
C301 C302 1.361 . S
C302 H286 0.942 . S
C302 C301 1.361 . S
C302 C303 1.369 . S
C303 C302 1.369 . S
C303 C304 1.404 . S
C304 H287 0.940 . S
C304 C303 1.404 . S
C304 C305 1.389 . S
C305 H288 0.939 . S
C305 C300 1.400 . S
C305 C304 1.389 . S
C306 P280 1.819 . S
C306 C307 1.391 . S
C306 C311 1.391 . S
C307 H289 0.941 . S
C307 C306 1.391 . S
C307 C308 1.396 . S
C308 H292 0.939 . S
C308 C307 1.396 . S
C308 C309 1.397 . S
C309 C308 1.397 . S
C309 C310 1.385 . S
C310 H293 0.940 . S
C310 C309 1.385 . S
C310 C311 1.388 . S
C311 H290 0.939 . S
C311 C306 1.391 . S
C311 C310 1.388 . S
H312 C320 0.950 . S
H313 C325 0.950 . S
H314 C322 0.950 . S
H315 C324 0.950 . S
H316 C326 0.950 . S
H317 C328 0.950 . S
H318 C330 0.950 . S
H319 C331 0.950 . S
C320 H312 0.950 . S
C320 C321 1.386 . S
C320 C322 1.391 . S
C321 C320 1.386 . S
C321 C325 1.393 . S
C322 H314 0.950 . S
C322 C320 1.391 . S
C322 C323 1.400 . S
C323 C322 1.400 . S
C323 C324 1.398 . S
C323 C329 1.491 . S
C324 H315 0.950 . S
C324 C323 1.398 . S
C324 C325 1.391 . S
C325 H313 0.950 . S
C325 C321 1.393 . S
C325 C324 1.391 . S
C326 H316 0.950 . S
C326 C327 1.386 . S
C326 C328 1.391 . S
C327 C326 1.386 . S
C327 C331 1.393 . S
C328 H317 0.950 . S
C328 C326 1.391 . S
C328 C329 1.400 . S
C329 C323 1.491 . S
C329 C328 1.400 . S
C329 C330 1.398 . S
C330 H318 0.950 . S
C330 C329 1.398 . S
C330 C331 1.391 . S
C331 H319 0.950 . S
C331 C327 1.393 . S
C331 C330 1.391 . S
H332 C340 0.950 . S
H333 C345 0.950 . S
H334 C342 0.950 . S
H335 C344 0.950 . S
H336 C346 0.950 . S
H337 C348 0.950 . S
H338 C350 0.950 . S
H339 C351 0.950 . S
C340 H332 0.950 . S
C340 C341 1.386 . S
C340 C342 1.391 . S
C341 C340 1.386 . S
C341 C345 1.393 . S
C342 H334 0.950 . S
C342 C340 1.391 . S
C342 C343 1.400 . S
C343 C342 1.400 . S
C343 C344 1.398 . S
C343 C349 1.491 . S
C344 H335 0.950 . S
C344 C343 1.398 . S
C344 C345 1.391 . S
C345 H333 0.950 . S
C345 C341 1.393 . S
C345 C344 1.391 . S
C346 H336 0.950 . S
C346 C347 1.386 . S
C346 C348 1.391 . S
C347 C346 1.386 . S
C347 C351 1.393 . S
C348 H337 0.950 . S
C348 C346 1.391 . S
C348 C349 1.400 . S
C349 C343 1.491 . S
C349 C348 1.400 . S
C349 C350 1.398 . S
C350 H338 0.950 . S
C350 C349 1.398 . S
C350 C351 1.391 . S
C351 H339 0.950 . S
C351 C347 1.393 . S
C351 C350 1.391 . S
H352 C360 0.950 . S
H353 C365 0.950 . S
H354 C362 0.950 . S
H355 C364 0.950 . S
H356 C366 0.950 . S
H357 C368 0.950 . S
H358 C370 0.950 . S
H359 C371 0.950 . S
C360 H352 0.950 . S
C360 C361 1.386 . S
C360 C362 1.391 . S
C361 C360 1.386 . S
C361 C365 1.393 . S
C362 H354 0.950 . S
C362 C360 1.391 . S
C362 C363 1.400 . S
C363 C362 1.400 . S
C363 C364 1.398 . S
C363 C369 1.491 . S
C364 H355 0.950 . S
C364 C363 1.398 . S
C364 C365 1.391 . S
C365 H353 0.950 . S
C365 C361 1.393 . S
C365 C364 1.391 . S
C366 H356 0.950 . S
C366 C367 1.386 . S
C366 C368 1.391 . S
C367 C366 1.386 . S
C367 C371 1.393 . S
C368 H357 0.950 . S
C368 C366 1.391 . S
C368 C369 1.400 . S
C369 C363 1.491 . S
C369 C368 1.400 . S
C369 C370 1.398 . S
C370 H358 0.950 . S
C370 C369 1.398 . S
C370 C371 1.391 . S
C371 H359 0.950 . S
C371 C367 1.393 . S
C371 C370 1.391 . S
H372 C380 0.950 . S
H373 C385 0.950 . S
H374 C382 0.950 . S
H375 C384 0.950 . S
H376 C386 0.950 . S
H377 C388 0.950 . S
H378 C390 0.950 . S
H379 C391 0.950 . S
C380 H372 0.950 . S
C380 C381 1.386 . S
C380 C382 1.391 . S
C381 C380 1.386 . S
C381 C385 1.393 . S
C382 H374 0.950 . S
C382 C380 1.391 . S
C382 C383 1.400 . S
C383 C382 1.400 . S
C383 C384 1.398 . S
C383 C389 1.491 . S
C384 H375 0.950 . S
C384 C383 1.398 . S
C384 C385 1.391 . S
C385 H373 0.950 . S
C385 C381 1.393 . S
C385 C384 1.391 . S
C386 H376 0.950 . S
C386 C387 1.386 . S
C386 C388 1.391 . S
C387 C386 1.386 . S
C387 C391 1.393 . S
C388 H377 0.950 . S
C388 C386 1.391 . S
C388 C389 1.400 . S
C389 C383 1.491 . S
C389 C388 1.400 . S
C389 C390 1.398 . S
C390 H378 0.950 . S
C390 C389 1.398 . S
C390 C391 1.391 . S
C391 H379 0.950 . S
C391 C387 1.393 . S
C391 C390 1.391 . S
H392 C400 0.950 . S
H393 C405 0.950 . S
H394 C402 0.950 . S
H395 C404 0.950 . S
H396 C406 0.950 . S
H397 C408 0.950 . S
H398 C410 0.950 . S
H399 C411 0.950 . S
C400 H392 0.950 . S
C400 C401 1.386 . S
C400 C402 1.391 . S
C401 C400 1.386 . S
C401 C405 1.393 . S
C402 H394 0.950 . S
C402 C400 1.391 . S
C402 C403 1.400 . S
C403 C402 1.400 . S
C403 C404 1.398 . S
C403 C409 1.491 . S
C404 H395 0.950 . S
C404 C403 1.398 . S
C404 C405 1.391 . S
C405 H393 0.950 . S
C405 C401 1.393 . S
C405 C404 1.391 . S
C406 H396 0.950 . S
C406 C407 1.386 . S
C406 C408 1.391 . S
C407 C406 1.386 . S
C407 C411 1.393 . S
C408 H397 0.950 . S
C408 C406 1.391 . S
C408 C409 1.400 . S
C409 C403 1.491 . S
C409 C408 1.400 . S
C409 C410 1.398 . S
C410 H398 0.950 . S
C410 C409 1.398 . S
C410 C411 1.391 . S
C411 H399 0.950 . S
C411 C407 1.393 . S
C411 C410 1.391 . S
H412 C420 0.950 . S
H413 C425 0.950 . S
H414 C422 0.950 . S
H415 C424 0.950 . S
H416 C426 0.950 . S
H417 C428 0.950 . S
H418 C430 0.950 . S
H419 C431 0.950 . S
C420 H412 0.950 . S
C420 C421 1.386 . S
C420 C422 1.391 . S
C421 C420 1.386 . S
C421 C425 1.393 . S
C422 H414 0.950 . S
C422 C420 1.391 . S
C422 C423 1.400 . S
C423 C422 1.400 . S
C423 C424 1.398 . S
C423 C429 1.491 . S
C424 H415 0.950 . S
C424 C423 1.398 . S
C424 C425 1.391 . S
C425 H413 0.950 . S
C425 C421 1.393 . S
C425 C424 1.391 . S
C426 H416 0.950 . S
C426 C427 1.386 . S
C426 C428 1.391 . S
C427 C426 1.386 . S
C427 C431 1.393 . S
C428 H417 0.950 . S
C428 C426 1.391 . S
C428 C429 1.400 . S
C429 C423 1.491 . S
C429 C428 1.400 . S
C429 C430 1.398 . S
C430 H418 0.950 . S
C430 C429 1.398 . S
C430 C431 1.391 . S
C431 H419 0.950 . S
C431 C427 1.393 . S
C431 C430 1.391 . S
H432 C440 0.950 . S
H433 C445 0.950 . S
H434 C442 0.950 . S
H435 C444 0.950 . S
H436 C446 0.950 . S
H437 C448 0.950 . S
H438 C450 0.950 . S
H439 C451 0.950 . S
C440 H432 0.950 . S
C440 C441 1.386 . S
C440 C442 1.391 . S
C441 C440 1.386 . S
C441 C445 1.393 . S
C442 H434 0.950 . S
C442 C440 1.391 . S
C442 C443 1.400 . S
C443 C442 1.400 . S
C443 C444 1.398 . S
C443 C449 1.491 . S
C444 H435 0.950 . S
C444 C443 1.398 . S
C444 C445 1.391 . S
C445 H433 0.950 . S
C445 C441 1.393 . S
C445 C444 1.391 . S
C446 H436 0.950 . S
C446 C447 1.386 . S
C446 C448 1.391 . S
C447 C446 1.386 . S
C447 C451 1.393 . S
C448 H437 0.950 . S
C448 C446 1.391 . S
C448 C449 1.400 . S
C449 C443 1.491 . S
C449 C448 1.400 . S
C449 C450 1.398 . S
C450 H438 0.950 . S
C450 C449 1.398 . S
C450 C451 1.391 . S
C451 H439 0.950 . S
C451 C447 1.393 . S
C451 C450 1.391 . S
H452 C460 0.950 . S
H453 C465 0.950 . S
H454 C462 0.950 . S
H455 C464 0.950 . S
H456 C466 0.950 . S
H457 C468 0.950 . S
H458 C470 0.950 . S
H459 C471 0.950 . S
C460 H452 0.950 . S
C460 C461 1.386 . S
C460 C462 1.391 . S
C461 C460 1.386 . S
C461 C465 1.393 . S
C462 H454 0.950 . S
C462 C460 1.391 . S
C462 C463 1.400 . S
C463 C462 1.400 . S
C463 C464 1.398 . S
C463 C469 1.491 . S
C464 H455 0.950 . S
C464 C463 1.398 . S
C464 C465 1.391 . S
C465 H453 0.950 . S
C465 C461 1.393 . S
C465 C464 1.391 . S
C466 H456 0.950 . S
C466 C467 1.386 . S
C466 C468 1.391 . S
C467 C466 1.386 . S
C467 C471 1.393 . S
C468 H457 0.950 . S
C468 C466 1.391 . S
C468 C469 1.400 . S
C469 C463 1.491 . S
C469 C468 1.400 . S
C469 C470 1.398 . S
C470 H458 0.950 . S
C470 C469 1.398 . S
C470 C471 1.391 . S
C471 H459 0.950 . S
C471 C467 1.393 . S
C471 C470 1.391 . S
H472 C480 0.950 . S
H473 C485 0.950 . S
H474 C482 0.950 . S
H475 C484 0.950 . S
H476 C486 0.950 . S
H477 C488 0.950 . S
H478 C490 0.950 . S
H479 C491 0.950 . S
C480 H472 0.950 . S
C480 C481 1.386 . S
C480 C482 1.391 . S
C481 C480 1.386 . S
C481 C485 1.393 . S
C482 H474 0.950 . S
C482 C480 1.391 . S
C482 C483 1.400 . S
C483 C482 1.400 . S
C483 C484 1.398 . S
C483 C489 1.491 . S
C484 H475 0.950 . S
C484 C483 1.398 . S
C484 C485 1.391 . S
C485 H473 0.950 . S
C485 C481 1.393 . S
C485 C484 1.391 . S
C486 H476 0.950 . S
C486 C487 1.386 . S
C486 C488 1.391 . S
C487 C486 1.386 . S
C487 C491 1.393 . S
C488 H477 0.950 . S
C488 C486 1.391 . S
C488 C489 1.400 . S
C489 C483 1.491 . S
C489 C488 1.400 . S
C489 C490 1.398 . S
C490 H478 0.950 . S
C490 C489 1.398 . S
C490 C491 1.391 . S
C491 H479 0.950 . S
C491 C487 1.393 . S
C491 C490 1.391 . S
H492 C500 0.950 . S
H493 C505 0.950 . S
H494 C502 0.950 . S
H495 C504 0.950 . S
H496 C506 0.950 . S
H497 C508 0.950 . S
H498 C510 0.950 . S
H499 C511 0.950 . S
C500 H492 0.950 . S
C500 C501 1.386 . S
C500 C502 1.391 . S
C501 C500 1.386 . S
C501 C505 1.393 . S
C502 H494 0.950 . S
C502 C500 1.391 . S
C502 C503 1.400 . S
C503 C502 1.400 . S
C503 C504 1.398 . S
C503 C509 1.491 . S
C504 H495 0.950 . S
C504 C503 1.398 . S
C504 C505 1.391 . S
C505 H493 0.950 . S
C505 C501 1.393 . S
C505 C504 1.391 . S
C506 H496 0.950 . S
C506 C507 1.386 . S
C506 C508 1.391 . S
C507 C506 1.386 . S
C507 C511 1.393 . S
C508 H497 0.950 . S
C508 C506 1.391 . S
C508 C509 1.400 . S
C509 C503 1.491 . S
C509 C508 1.400 . S
C509 C510 1.398 . S
C510 H498 0.950 . S
C510 C509 1.398 . S
C510 C511 1.391 . S
C511 H499 0.950 . S
C511 C507 1.393 . S
C511 C510 1.391 . S
H512 C520 0.950 . S
H513 C525 0.950 . S
H514 C522 0.950 . S
H515 C524 0.950 . S
H516 C526 0.950 . S
H517 C528 0.950 . S
H518 C530 0.950 . S
H519 C531 0.950 . S
C520 H512 0.950 . S
C520 C521 1.386 . S
C520 C522 1.391 . S
C521 C520 1.386 . S
C521 C525 1.393 . S
C522 H514 0.950 . S
C522 C520 1.391 . S
C522 C523 1.400 . S
C523 C522 1.400 . S
C523 C524 1.398 . S
C523 C529 1.491 . S
C524 H515 0.950 . S
C524 C523 1.398 . S
C524 C525 1.391 . S
C525 H513 0.950 . S
C525 C521 1.393 . S
C525 C524 1.391 . S
C526 H516 0.950 . S
C526 C527 1.386 . S
C526 C528 1.391 . S
C527 C526 1.386 . S
C527 C531 1.393 . S
C528 H517 0.950 . S
C528 C526 1.391 . S
C528 C529 1.400 . S
C529 C523 1.491 . S
C529 C528 1.400 . S
C529 C530 1.398 . S
C530 H518 0.950 . S
C530 C529 1.398 . S
C530 C531 1.391 . S
C531 H519 0.950 . S
C531 C527 1.393 . S
C531 C530 1.391 . S
H532 C540 0.950 . S
H533 C545 0.950 . S
H534 C542 0.950 . S
H535 C544 0.950 . S
H536 C546 0.950 . S
H537 C548 0.950 . S
H538 C550 0.950 . S
H539 C551 0.950 . S
C540 H532 0.950 . S
C540 C541 1.386 . S
C540 C542 1.391 . S
C541 C540 1.386 . S
C541 C545 1.393 . S
C542 H534 0.950 . S
C542 C540 1.391 . S
C542 C543 1.400 . S
C543 C542 1.400 . S
C543 C544 1.398 . S
C543 C549 1.491 . S
C544 H535 0.950 . S
C544 C543 1.398 . S
C544 C545 1.391 . S
C545 H533 0.950 . S
C545 C541 1.393 . S
C545 C544 1.391 . S
C546 H536 0.950 . S
C546 C547 1.386 . S
C546 C548 1.391 . S
C547 C546 1.386 . S
C547 C551 1.393 . S
C548 H537 0.950 . S
C548 C546 1.391 . S
C548 C549 1.400 . S
C549 C543 1.491 . S
C549 C548 1.400 . S
C549 C550 1.398 . S
C550 H538 0.950 . S
C550 C549 1.398 . S
C550 C551 1.391 . S
C551 H539 0.950 . S
C551 C547 1.393 . S
C551 C550 1.391 . S
H552 C560 0.950 . S
H553 C565 0.950 . S
H554 C562 0.950 . S
H555 C564 0.950 . S
H556 C566 0.950 . S
H557 C568 0.950 . S
H558 C570 0.950 1_655 S
H559 C571 0.950 1_655 S
C560 H552 0.950 . S
C560 C561 1.386 1_655 S
C560 C562 1.391 . S
C561 C560 1.386 1_455 S
C561 C565 1.393 . S
C562 H554 0.950 . S
C562 C560 1.391 . S
C562 C563 1.400 1_655 S
C563 C562 1.400 1_455 S
C563 C564 1.398 . S
C563 C569 1.491 . S
C564 H555 0.950 . S
C564 C563 1.398 . S
C564 C565 1.391 . S
C565 H553 0.950 . S
C565 C561 1.393 . S
C565 C564 1.391 . S
C566 H556 0.950 . S
C566 C567 1.386 . S
C566 C568 1.391 1_556 S
C567 C566 1.386 . S
C567 C571 1.393 . S
C568 H557 0.950 . S
C568 C566 1.391 1_554 S
C568 C569 1.400 . S
C569 C563 1.491 . S
C569 C568 1.400 . S
C569 C570 1.398 . S
C570 H558 0.950 1_455 S
C570 C569 1.398 . S
C570 C571 1.391 1_554 S
C571 H559 0.950 1_455 S
C571 C567 1.393 . S
C571 C570 1.391 1_556 S
H572 C580 0.950 . S
H573 C585 0.950 . S
H574 C582 0.950 . S
H575 C584 0.950 . S
H576 C586 0.950 . S
H577 C588 0.950 . S
H578 C590 0.950 . S
H579 C591 0.950 . S
C580 H572 0.950 . S
C580 C581 1.386 . S
C580 C582 1.391 . S
C581 C580 1.386 . S
C581 C585 1.393 . S
C582 H574 0.950 . S
C582 C580 1.391 . S
C582 C583 1.400 . S
C583 C582 1.400 . S
C583 C584 1.398 . S
C583 C589 1.491 . S
C584 H575 0.950 . S
C584 C583 1.398 . S
C584 C585 1.391 . S
C585 H573 0.950 . S
C585 C581 1.393 . S
C585 C584 1.391 . S
C586 H576 0.950 . S
C586 C587 1.386 . S
C586 C588 1.391 . S
C587 C586 1.386 . S
C587 C591 1.393 . S
C588 H577 0.950 . S
C588 C586 1.391 . S
C588 C589 1.400 . S
C589 C583 1.491 . S
C589 C588 1.400 . S
C589 C590 1.398 . S
C590 H578 0.950 . S
C590 C589 1.398 . S
C590 C591 1.391 . S
C591 H579 0.950 . S
C591 C587 1.393 . S
C591 C590 1.391 . S
H592 C600 0.950 . S
H593 C605 0.950 . S
H594 C602 0.950 . S
H595 C604 0.950 . S
H596 C606 0.950 . S
H597 C608 0.950 . S
H598 C610 0.950 . S
H599 C611 0.950 . S
C600 H592 0.950 . S
C600 C601 1.386 . S
C600 C602 1.391 . S
C601 C600 1.386 . S
C601 C605 1.393 . S
C602 H594 0.950 . S
C602 C600 1.391 . S
C602 C603 1.400 . S
C603 C602 1.400 . S
C603 C604 1.398 . S
C603 C609 1.491 . S
C604 H595 0.950 . S
C604 C603 1.398 . S
C604 C605 1.391 . S
C605 H593 0.950 . S
C605 C601 1.393 . S
C605 C604 1.391 . S
C606 H596 0.950 . S
C606 C607 1.386 . S
C606 C608 1.391 . S
C607 C606 1.386 . S
C607 C611 1.393 . S
C608 H597 0.950 . S
C608 C606 1.391 . S
C608 C609 1.400 . S
C609 C603 1.491 . S
C609 C608 1.400 . S
C609 C610 1.398 . S
C610 H598 0.950 . S
C610 C609 1.398 . S
C610 C611 1.391 . S
C611 H599 0.950 . S
C611 C607 1.393 . S
C611 C610 1.391 . S
H612 C620 0.950 . S
H613 C625 0.956 . S
H614 C622 0.950 . S
H615 C624 0.950 . S
H616 C626 0.950 . S
H617 C628 0.950 . S
H618 C630 0.950 . S
H619 C631 0.950 . S
C620 H612 0.950 . S
C620 C621 1.386 . S
C620 C622 1.391 . S
C621 C620 1.386 . S
C621 C625 1.386 1_545 S
C622 H614 0.950 . S
C622 C620 1.391 . S
C622 C623 1.400 . S
C623 C622 1.400 . S
C623 C624 1.398 1_545 S
C623 C629 1.491 . S
C624 H615 0.950 . S
C624 C623 1.398 1_565 S
C624 C625 1.392 . S
C625 H613 0.956 . S
C625 C621 1.386 1_565 S
C625 C624 1.392 . S
C626 H616 0.950 . S
C626 C627 1.370 1_565 S
C626 C628 1.391 . S
C627 C626 1.370 1_545 S
C627 C631 1.411 . S
C628 H617 0.950 . S
C628 C626 1.391 . S
C628 C629 1.400 1_565 S
C629 C623 1.491 . S
C629 C628 1.400 1_545 S
C629 C630 1.398 . S
C630 H618 0.950 . S
C630 C629 1.398 . S
C630 C631 1.391 . S
C631 H619 0.950 . S
C631 C627 1.411 . S
C631 C630 1.391 . S
H632 C640 0.950 . S
H633 C645 0.950 . S
H634 C642 0.950 . S
H635 C644 0.950 . S
H636 C646 0.950 1_554 S
H637 C648 0.950 . S
H638 C650 0.950 . S
H639 C651 0.949 . S
C640 H632 0.950 . S
C640 C641 1.386 . S
C640 C642 1.391 . S
C641 C640 1.386 . S
C641 C645 1.393 . S
C642 H634 0.950 . S
C642 C640 1.391 . S
C642 C643 1.400 . S
C643 C642 1.400 . S
C643 C644 1.398 . S
C643 C649 1.491 . S
C644 H635 0.950 . S
C644 C643 1.398 . S
C644 C645 1.391 . S
C645 H633 0.950 . S
C645 C641 1.393 . S
C645 C644 1.391 . S
C646 H636 0.950 1_556 S
C646 C647 1.386 1_556 S
C646 C648 1.391 . S
C647 C646 1.386 1_554 S
C647 C651 1.393 1_554 S
C648 H637 0.950 . S
C648 C646 1.391 . S
C648 C649 1.400 . S
C649 C643 1.491 . S
C649 C648 1.400 . S
C649 C650 1.398 . S
C650 H638 0.950 . S
C650 C649 1.398 . S
C650 C651 1.391 . S
C651 H639 0.949 . S
C651 C647 1.393 1_556 S
C651 C650 1.391 . S
H652 C660 0.950 . S
H653 C665 0.950 . S
H654 C662 0.950 . S
H655 C664 0.950 . S
H656 C666 0.950 . S
H657 C668 0.950 . S
H658 C670 0.950 . S
H659 C671 0.950 . S
C660 H652 0.950 . S
C660 C661 1.386 . S
C660 C662 1.391 . S
C661 C660 1.386 . S
C661 C665 1.393 1_455 S
C662 H654 0.950 . S
C662 C660 1.391 . S
C662 C663 1.400 . S
C663 C662 1.400 . S
C663 C664 1.398 1_455 S
C663 C669 1.491 . S
C664 H655 0.950 . S
C664 C663 1.398 1_655 S
C664 C665 1.391 . S
C665 H653 0.950 . S
C665 C661 1.393 1_655 S
C665 C664 1.391 . S
C666 H656 0.950 . S
C666 C667 1.386 1_655 S
C666 C668 1.391 . S
C667 C666 1.386 1_455 S
C667 C671 1.393 . S
C668 H657 0.950 . S
C668 C666 1.391 . S
C668 C669 1.400 1_655 S
C669 C663 1.491 . S
C669 C668 1.400 1_455 S
C669 C670 1.398 . S
C670 H658 0.950 . S
C670 C669 1.398 . S
C670 C671 1.391 . S
C671 H659 0.950 . S
C671 C667 1.393 . S
C671 C670 1.391 . S
C321 C7 0.593 . S
C327 C303 0.555 . S
C341 C51 1.897 . S
C347 C239 1.832 . S
C361 C87 1.236 . S
C367 C271 1.209 . S
C381 C16 0.444 . S
C387 C297 0.390 . S
C407 C233 1.905 . S
C401 C42 1.967 . S
C427 C265 1.288 . S
C421 C96 1.294 . S
C441 C47 1.217 . S
C447 C175 1.230 . S
C461 C91 3.057 . S
C467 C207 2.987 . S
C481 C2 1.996 . S
C487 C137 1.956 . S
C507 C169 1.277 . S
C501 C56 1.264 . S
C527 C201 2.968 . S
C521 C82 2.991 . S
C541 C11 1.898 . S
C547 C143 1.844 . S
C567 C213 1.746 . S
C561 C19 1.706 . S
C581 C50 1.345 . S
C587 C149 1.354 . S
C601 C99 1.457 . S
C607 C181 1.472 . S
C627 C277 1.442 . S
C621 C59 1.457 . S
C647 C309 1.103 . S
C641 C90 1.102 . S
C661 C10 1.343 . S
C667 C245 1.335 . S
