# Generated by pormake.
# Topology ptr, (4,4)-cn, num edge types: 1
# Building blocks:
#     Node 0, Type 0, BuildingBlock: TATPOV_clean_sbu_0, # of connection points: 4
#     Node 1, Type 0, BuildingBlock: TATPOV_clean_sbu_0, # of connection points: 4
#     Node 2, Type 0, BuildingBlock: TATPOV_clean_sbu_0, # of connection points: 4
#     Node 3, Type 0, BuildingBlock: TATPOV_clean_sbu_0, # of connection points: 4
#     Node 4, Type 0, BuildingBlock: TATPOV_clean_sbu_0, # of connection points: 4
#     Node 5, Type 0, BuildingBlock: TATPOV_clean_sbu_0, # of connection points: 4
#     Node 6, Type 0, BuildingBlock: TATPOV_clean_sbu_0, # of connection points: 4
#     Node 7, Type 0, BuildingBlock: TATPOV_clean_sbu_0, # of connection points: 4
#     Node 8, Type 0, BuildingBlock: TATPOV_clean_sbu_0, # of connection points: 4
#     Node 9, Type 0, BuildingBlock: TATPOV_clean_sbu_0, # of connection points: 4
#     Node 10, Type 0, BuildingBlock: TATPOV_clean_sbu_0, # of connection points: 4
#     Node 11, Type 0, BuildingBlock: TATPOV_clean_sbu_0, # of connection points: 4
#     Node 12, Type 0, BuildingBlock: TATPOV_clean_sbu_0, # of connection points: 4
#     Node 13, Type 0, BuildingBlock: TATPOV_clean_sbu_0, # of connection points: 4
#     Node 14, Type 0, BuildingBlock: TATPOV_clean_sbu_0, # of connection points: 4
#     Node 15, Type 0, BuildingBlock: TATPOV_clean_sbu_0, # of connection points: 4
#     Node 16, Type 0, BuildingBlock: TATPOV_clean_sbu_0, # of connection points: 4
#     Node 17, Type 0, BuildingBlock: TATPOV_clean_sbu_0, # of connection points: 4
#     Node 18, Type 1, BuildingBlock: NAWXER_clean_linker_0, # of connection points: 4
#     Node 19, Type 1, BuildingBlock: NAWXER_clean_linker_0, # of connection points: 4
#     Node 20, Type 1, BuildingBlock: NAWXER_clean_linker_0, # of connection points: 4
#     Node 21, Type 1, BuildingBlock: NAWXER_clean_linker_0, # of connection points: 4
#     Node 22, Type 1, BuildingBlock: NAWXER_clean_linker_0, # of connection points: 4
#     Node 23, Type 1, BuildingBlock: NAWXER_clean_linker_0, # of connection points: 4
#     Node 24, Type 1, BuildingBlock: NAWXER_clean_linker_0, # of connection points: 4
#     Node 25, Type 1, BuildingBlock: NAWXER_clean_linker_0, # of connection points: 4
#     Node 26, Type 1, BuildingBlock: NAWXER_clean_linker_0, # of connection points: 4
#     Node 27, Type 1, BuildingBlock: NAWXER_clean_linker_0, # of connection points: 4
#     Node 28, Type 1, BuildingBlock: NAWXER_clean_linker_0, # of connection points: 4
#     Node 29, Type 1, BuildingBlock: NAWXER_clean_linker_0, # of connection points: 4
#     Node 30, Type 1, BuildingBlock: NAWXER_clean_linker_0, # of connection points: 4
#     Node 31, Type 1, BuildingBlock: NAWXER_clean_linker_0, # of connection points: 4
#     Node 32, Type 1, BuildingBlock: NAWXER_clean_linker_0, # of connection points: 4
#     Node 33, Type 1, BuildingBlock: NAWXER_clean_linker_0, # of connection points: 4
#     Node 34, Type 1, BuildingBlock: NAWXER_clean_linker_0, # of connection points: 4
#     Node 35, Type 1, BuildingBlock: NAWXER_clean_linker_0, # of connection points: 4
#     Edge 36, Type (0, 1), BuildingBlock: TEMPAE_clean_linker_10, # of connection points: 2
#     Edge 37, Type (0, 1), BuildingBlock: TEMPAE_clean_linker_10, # of connection points: 2
#     Edge 38, Type (0, 1), BuildingBlock: TEMPAE_clean_linker_10, # of connection points: 2
#     Edge 39, Type (0, 1), BuildingBlock: TEMPAE_clean_linker_10, # of connection points: 2
#     Edge 40, Type (0, 1), BuildingBlock: TEMPAE_clean_linker_10, # of connection points: 2
#     Edge 41, Type (0, 1), BuildingBlock: TEMPAE_clean_linker_10, # of connection points: 2
#     Edge 42, Type (0, 1), BuildingBlock: TEMPAE_clean_linker_10, # of connection points: 2
#     Edge 43, Type (0, 1), BuildingBlock: TEMPAE_clean_linker_10, # of connection points: 2
#     Edge 44, Type (0, 1), BuildingBlock: TEMPAE_clean_linker_10, # of connection points: 2
#     Edge 45, Type (0, 1), BuildingBlock: TEMPAE_clean_linker_10, # of connection points: 2
#     Edge 46, Type (0, 1), BuildingBlock: TEMPAE_clean_linker_10, # of connection points: 2
#     Edge 47, Type (0, 1), BuildingBlock: TEMPAE_clean_linker_10, # of connection points: 2
#     Edge 48, Type (0, 1), BuildingBlock: TEMPAE_clean_linker_10, # of connection points: 2
#     Edge 49, Type (0, 1), BuildingBlock: TEMPAE_clean_linker_10, # of connection points: 2
#     Edge 50, Type (0, 1), BuildingBlock: TEMPAE_clean_linker_10, # of connection points: 2
#     Edge 51, Type (0, 1), BuildingBlock: TEMPAE_clean_linker_10, # of connection points: 2
#     Edge 52, Type (0, 1), BuildingBlock: TEMPAE_clean_linker_10, # of connection points: 2
#     Edge 53, Type (0, 1), BuildingBlock: TEMPAE_clean_linker_10, # of connection points: 2
#     Edge 54, Type (0, 1), BuildingBlock: TEMPAE_clean_linker_10, # of connection points: 2
#     Edge 55, Type (0, 1), BuildingBlock: TEMPAE_clean_linker_10, # of connection points: 2
#     Edge 56, Type (0, 1), BuildingBlock: TEMPAE_clean_linker_10, # of connection points: 2
#     Edge 57, Type (0, 1), BuildingBlock: TEMPAE_clean_linker_10, # of connection points: 2
#     Edge 58, Type (0, 1), BuildingBlock: TEMPAE_clean_linker_10, # of connection points: 2
#     Edge 59, Type (0, 1), BuildingBlock: TEMPAE_clean_linker_10, # of connection points: 2
#     Edge 60, Type (0, 1), BuildingBlock: TEMPAE_clean_linker_10, # of connection points: 2
#     Edge 61, Type (0, 1), BuildingBlock: TEMPAE_clean_linker_10, # of connection points: 2
#     Edge 62, Type (0, 1), BuildingBlock: TEMPAE_clean_linker_10, # of connection points: 2
#     Edge 63, Type (0, 1), BuildingBlock: TEMPAE_clean_linker_10, # of connection points: 2
#     Edge 64, Type (0, 1), BuildingBlock: TEMPAE_clean_linker_10, # of connection points: 2
#     Edge 65, Type (0, 1), BuildingBlock: TEMPAE_clean_linker_10, # of connection points: 2
#     Edge 66, Type (0, 1), BuildingBlock: TEMPAE_clean_linker_10, # of connection points: 2
#     Edge 67, Type (0, 1), BuildingBlock: TEMPAE_clean_linker_10, # of connection points: 2
#     Edge 68, Type (0, 1), BuildingBlock: TEMPAE_clean_linker_10, # of connection points: 2
#     Edge 69, Type (0, 1), BuildingBlock: TEMPAE_clean_linker_10, # of connection points: 2
#     Edge 70, Type (0, 1), BuildingBlock: TEMPAE_clean_linker_10, # of connection points: 2
#     Edge 71, Type (0, 1), BuildingBlock: TEMPAE_clean_linker_10, # of connection points: 2
#     Edge 72, Type (0, 1), BuildingBlock: TEMPAE_clean_linker_10, # of connection points: 2
#     Edge 73, Type (0, 1), BuildingBlock: TEMPAE_clean_linker_10, # of connection points: 2
#     Edge 74, Type (0, 1), BuildingBlock: TEMPAE_clean_linker_10, # of connection points: 2
#     Edge 75, Type (0, 1), BuildingBlock: TEMPAE_clean_linker_10, # of connection points: 2
#     Edge 76, Type (0, 1), BuildingBlock: TEMPAE_clean_linker_10, # of connection points: 2
#     Edge 77, Type (0, 1), BuildingBlock: TEMPAE_clean_linker_10, # of connection points: 2
#     Edge 78, Type (0, 1), BuildingBlock: TEMPAE_clean_linker_10, # of connection points: 2
#     Edge 79, Type (0, 1), BuildingBlock: TEMPAE_clean_linker_10, # of connection points: 2
#     Edge 80, Type (0, 1), BuildingBlock: TEMPAE_clean_linker_10, # of connection points: 2
#     Edge 81, Type (0, 1), BuildingBlock: TEMPAE_clean_linker_10, # of connection points: 2
#     Edge 82, Type (0, 1), BuildingBlock: TEMPAE_clean_linker_10, # of connection points: 2
#     Edge 83, Type (0, 1), BuildingBlock: TEMPAE_clean_linker_10, # of connection points: 2
#     Edge 84, Type (0, 1), BuildingBlock: TEMPAE_clean_linker_10, # of connection points: 2
#     Edge 85, Type (0, 1), BuildingBlock: TEMPAE_clean_linker_10, # of connection points: 2
#     Edge 86, Type (0, 1), BuildingBlock: TEMPAE_clean_linker_10, # of connection points: 2
#     Edge 87, Type (0, 1), BuildingBlock: TEMPAE_clean_linker_10, # of connection points: 2
#     Edge 88, Type (0, 1), BuildingBlock: TEMPAE_clean_linker_10, # of connection points: 2
#     Edge 89, Type (0, 1), BuildingBlock: TEMPAE_clean_linker_10, # of connection points: 2
#     Edge 90, Type (0, 1), BuildingBlock: TEMPAE_clean_linker_10, # of connection points: 2
#     Edge 91, Type (0, 1), BuildingBlock: TEMPAE_clean_linker_10, # of connection points: 2
#     Edge 92, Type (0, 1), BuildingBlock: TEMPAE_clean_linker_10, # of connection points: 2
#     Edge 93, Type (0, 1), BuildingBlock: TEMPAE_clean_linker_10, # of connection points: 2
#     Edge 94, Type (0, 1), BuildingBlock: TEMPAE_clean_linker_10, # of connection points: 2
#     Edge 95, Type (0, 1), BuildingBlock: TEMPAE_clean_linker_10, # of connection points: 2
#     Edge 96, Type (0, 1), BuildingBlock: TEMPAE_clean_linker_10, # of connection points: 2
#     Edge 97, Type (0, 1), BuildingBlock: TEMPAE_clean_linker_10, # of connection points: 2
#     Edge 98, Type (0, 1), BuildingBlock: TEMPAE_clean_linker_10, # of connection points: 2
#     Edge 99, Type (0, 1), BuildingBlock: TEMPAE_clean_linker_10, # of connection points: 2
#     Edge 100, Type (0, 1), BuildingBlock: TEMPAE_clean_linker_10, # of connection points: 2
#     Edge 101, Type (0, 1), BuildingBlock: TEMPAE_clean_linker_10, # of connection points: 2
#     Edge 102, Type (0, 1), BuildingBlock: TEMPAE_clean_linker_10, # of connection points: 2
#     Edge 103, Type (0, 1), BuildingBlock: TEMPAE_clean_linker_10, # of connection points: 2
#     Edge 104, Type (0, 1), BuildingBlock: TEMPAE_clean_linker_10, # of connection points: 2
#     Edge 105, Type (0, 1), BuildingBlock: TEMPAE_clean_linker_10, # of connection points: 2
#     Edge 106, Type (0, 1), BuildingBlock: TEMPAE_clean_linker_10, # of connection points: 2
#     Edge 107, Type (0, 1), BuildingBlock: TEMPAE_clean_linker_10, # of connection points: 2
# Relax obj value: 0.067
# Max RMSD: 0.243
# Mean RMSD: 0.106
data_MOF--net-ptr--node1-TATPOV_clean_sbu_0--node2-NAWXER_clean_linker_0--edge1-TEMPAE_clean_linker_10
_symmetry_space_group_name_H-M    P1
_symmetry_Int_Tables_number       1
_symmetry_cell_setting            triclinic
loop_
_symmetry_equiv_pos_as_xyz
'x, y, z'
_cell_length_a     87.625665
_cell_length_b     88.919894
_cell_length_c     63.610542
_cell_angle_alpha  89.752604
_cell_angle_beta   90.618591
_cell_angle_gamma 121.54183
loop_
_atom_site_label
_atom_site_type_symbol
_atom_site_fract_x
_atom_site_fract_y
_atom_site_fract_z
_atom_type_partial_charge
Zn0 Zn 0.96372 0.34974 0.00775 0.0
Zn1 Zn 0.99577 0.35321 0.01423 0.0
O2 O 0.97934 0.32747 0.00493 0.0
O3 O 0.9531 0.32433 0.99877 0.0
O4 O 0.01796 0.35355 0.02363 0.0
O5 O 0.96236 0.35618 0.03778 0.0
O6 O 0.98969 0.36143 0.04139 0.0
C7 C 0.96306 0.31794 0.99903 0.0
C8 C 0.99294 0.37594 0.98107 0.0
O9 O 0.00254 0.37073 0.98981 0.0
O10 O 0.97678 0.36946 0.98646 0.0
C11 C 0.02435 0.34546 0.01432 0.0
O12 O 0.0174 0.33774 0.99618 0.0
C13 C 0.97638 0.36166 0.04886 0.0
Zn14 Zn 0.65734 0.62006 0.99097 0.0
Zn15 Zn 0.65508 0.647 0.00622 0.0
O16 O 0.68071 0.65916 0.9948 0.0
O17 O 0.68259 0.63729 0.98184 0.0
O18 O 0.65454 0.66699 0.02004 0.0
O19 O 0.65279 0.60884 0.0197 0.0
O20 O 0.64934 0.63017 0.03118 0.0
C21 C 0.68963 0.65362 0.98546 0.0
C22 C 0.6296 0.62421 0.97112 0.0
O23 O 0.63544 0.63748 0.98335 0.0
O24 O 0.63651 0.61475 0.9717 0.0
C25 C 0.65942 0.68159 0.01103 0.0
O26 O 0.66435 0.68371 0.99127 0.0
C27 C 0.64922 0.61596 0.03448 0.0
Zn28 Zn 0.34799 0.96518 0.03455 0.0
Zn29 Zn 0.35084 0.99619 0.02519 0.0
O30 O 0.32505 0.98034 0.03582 0.0
O31 O 0.3221 0.95466 0.04242 0.0
O32 O 0.35183 0.01851 0.01598 0.0
O33 O 0.35519 0.9634 0.00512 0.0
O34 O 0.35672 0.98835 0.99755 0.0
C35 C 0.31553 0.9644 0.04196 0.0
C36 C 0.37494 0.9948 0.05935 0.0
O37 O 0.37023 0.00381 0.04844 0.0
O38 O 0.36732 0.97831 0.05642 0.0
C39 C 0.3414 0.0232 0.02299 0.0
O40 O 0.33017 0.01393 0.03801 0.0
C41 C 0.35816 0.97539 0.99204 0.0
Zn42 Zn 0.05375 0.66595 0.01125 0.0
Zn43 Zn 0.02072 0.65966 0.00442 0.0
O44 O 0.03601 0.6854 0.01405 0.0
O45 O 0.06402 0.69224 0.01497 0.0
O46 O 0.99799 0.65836 0.99555 0.0
O47 O 0.05362 0.65517 0.98329 0.0
O48 O 0.02714 0.6516 0.97734 0.0
C49 C 0.05255 0.69669 0.01702 0.0
C50 C 0.02594 0.64081 0.04045 0.0
O51 O 0.01496 0.64263 0.02903 0.0
O52 O 0.04254 0.64952 0.03633 0.0
C53 C 0.9902 0.66411 0.00677 0.0
O54 O 0.99608 0.66958 0.02599 0.0
C55 C 0.0401 0.65007 0.97142 0.0
Zn56 Zn 0.34795 0.39012 0.02601 0.0
Zn57 Zn 0.34721 0.36125 0.01194 0.0
O58 O 0.32152 0.35199 0.02246 0.0
O59 O 0.32214 0.37549 0.03437 0.0
O60 O 0.34585 0.33948 0.00023 0.0
O61 O 0.35444 0.40096 0.99712 0.0
O62 O 0.35573 0.37812 0.98642 0.0
C63 C 0.31366 0.35902 0.03107 0.0
C64 C 0.37261 0.3827 0.0479 0.0
O65 O 0.366 0.36939 0.03564 0.0
O66 O 0.36732 0.3935 0.04663 0.0
C67 C 0.33515 0.32414 0.00746 0.0
O68 O 0.32493 0.32232 0.02341 0.0
C69 C 0.35758 0.39311 0.98281 0.0
Zn70 Zn 0.65029 0.03112 0.99561 0.0
Zn71 Zn 0.64619 -7e-05 0.00569 0.0
O72 O 0.67216 0.01502 0.99516 0.0
O73 O 0.67576 0.04071 0.98693 0.0
O74 O 0.64558 0.97832 0.01648 0.0
O75 O 0.64456 0.03461 0.02524 0.0
O76 O 0.63933 0.00809 0.03229 0.0
C77 C 0.68195 0.03067 0.98819 0.0
C78 C 0.62251 0.00087 0.9714 0.0
O79 O 0.62718 0.99178 0.9822 0.0
O80 O 0.63018 0.01737 0.97444 0.0
C81 C 0.65217 0.97061 0.00673 0.0
O82 O 0.65854 0.97593 0.98775 0.0
C83 C 0.63955 0.02193 0.03797 0.0
Zn84 Zn 0.61453 0.67734 0.34488 0.0
Zn85 Zn 0.64683 0.68183 0.35325 0.0
O86 O 0.63058 0.65577 0.345 0.0
O87 O 0.60383 0.65138 0.33884 0.0
O88 O 0.6688 0.68221 0.36343 0.0
O89 O 0.6135 0.6861 0.37396 0.0
O90 O 0.64067 0.69124 0.3792 0.0
C91 C 0.61425 0.64553 0.33966 0.0
C92 C 0.64396 0.70198 0.31687 0.0
O93 O 0.65386 0.69838 0.32792 0.0
O94 O 0.62749 0.69497 0.3212 0.0
C95 C 0.67598 0.67527 0.35324 0.0
O96 O 0.67003 0.66911 0.33424 0.0
C97 C 0.62734 0.69199 0.38551 0.0
Zn98 Zn 0.31367 0.94827 0.33347 0.0
Zn99 Zn 0.3174 0.97754 0.35001 0.0
O100 O 0.34237 0.98606 0.33792 0.0
O101 O 0.33958 0.96176 0.32521 0.0
O102 O 0.3207 0.99932 0.36401 0.0
O103 O 0.30596 0.93578 0.36126 0.0
O104 O 0.30968 0.96017 0.37498 0.0
C105 C 0.3491 0.9782 0.32865 0.0
C106 C 0.29041 0.95842 0.31417 0.0
O107 O 0.2977 0.97105 0.32743 0.0
O108 O 0.29509 0.94714 0.31364 0.0
C109 C 0.32435 0.01319 0.35399 0.0
O110 O 0.32581 0.01345 0.33343 0.0
C111 C 0.30546 0.94418 0.37699 0.0
Zn112 Zn 0.01458 0.30349 0.3687 0.0
Zn113 Zn 0.01702 0.33252 0.35258 0.0
O114 O 0.99126 0.31811 0.36372 0.0
O115 O 0.98827 0.29303 0.37385 0.0
O116 O 0.01768 0.35332 0.3391 0.0
O117 O 0.02342 0.29936 0.34126 0.0
O118 O 0.02278 0.32182 0.32763 0.0
C119 C 0.98165 0.3026 0.37118 0.0
C120 C 0.04045 0.33566 0.3901 0.0
O121 O 0.0368 0.34314 0.37545 0.0
O122 O 0.03228 0.31899 0.3912 0.0
C123 C 0.01422 0.36358 0.34893 0.0
O124 O 0.01061 0.36102 0.36908 0.0
C125 C 0.0254 0.3091 0.32566 0.0
Zn126 Zn 0.71896 0.9931 0.35244 0.0
Zn127 Zn 0.6864 0.98833 0.34425 0.0
O128 O 0.70199 0.01433 0.35276 0.0
O129 O 0.72884 0.01893 0.35893 0.0
O130 O 0.66398 0.98702 0.33401 0.0
O131 O 0.7203 0.98499 0.32311 0.0
O132 O 0.69324 0.98008 0.3179 0.0
C133 C 0.71829 0.02464 0.35815 0.0
C134 C 0.68969 0.96752 0.37979 0.0
O135 O 0.67975 0.97135 0.36916 0.0
O136 O 0.70619 0.9748 0.3755 0.0
C137 C 0.65533 0.99239 0.34421 0.0
O138 O 0.66012 0.99788 0.36366 0.0
C139 C 0.70662 0.97952 0.31139 0.0
Zn140 Zn 0.00813 0.71506 0.36843 0.0
Zn141 Zn 0.00896 0.68774 0.35208 0.0
O142 O 0.98321 0.67661 0.36293 0.0
O143 O 0.98253 0.6988 0.37697 0.0
O144 O 0.0082 0.66697 0.33861 0.0
O145 O 0.01361 0.72688 0.34001 0.0
O146 O 0.01611 0.70524 0.32745 0.0
C147 C 0.97475 0.68255 0.37254 0.0
C148 C 0.03438 0.70876 0.38819 0.0
O149 O 0.02814 0.69585 0.37536 0.0
O150 O 0.02827 0.71891 0.38803 0.0
C151 C 0.02213 0.66728 0.33255 0.0
O152 O 0.03791 0.68164 0.33555 0.0
C153 C 0.01699 0.7199 0.32488 0.0
Zn154 Zn 0.31981 0.36738 0.33035 0.0
Zn155 Zn 0.31857 0.33714 0.34007 0.0
O156 O 0.34421 0.35416 0.32939 0.0
O157 O 0.34548 0.37889 0.32149 0.0
O158 O 0.31905 0.31561 0.34959 0.0
O159 O 0.31385 0.3697 0.36024 0.0
O160 O 0.31155 0.34436 0.36735 0.0
C161 C 0.35293 0.36996 0.32258 0.0
C162 C 0.29339 0.33653 0.30623 0.0
O163 O 0.29916 0.32831 0.31691 0.0
O164 O 0.29995 0.35289 0.30924 0.0
C165 C 0.33087 0.31236 0.3437 0.0
O166 O 0.34271 0.32264 0.32972 0.0
C167 C 0.31048 0.35749 0.37314 0.0
Zn168 Zn 0.28457 0.01308 0.67661 0.0
Zn169 Zn 0.31559 0.01568 0.6868 0.0
O170 O 0.29879 0.98962 0.67861 0.0
O171 O 0.27272 0.98681 0.67219 0.0
O172 O 0.3375 0.01593 0.69716 0.0
O173 O 0.28387 0.02336 0.70454 0.0
O174 O 0.30905 0.02483 0.71286 0.0
C175 C 0.28232 0.98005 0.67341 0.0
C176 C 0.31436 0.03625 0.64921 0.0
O177 O 0.32358 0.03251 0.66137 0.0
O178 O 0.29777 0.02952 0.65245 0.0
C179 C 0.34556 0.01017 0.68648 0.0
O180 O 0.34016 0.00468 0.66714 0.0
C181 C 0.29646 0.02736 0.71757 0.0
Zn182 Zn 0.97704 0.27874 0.65965 0.0
Zn183 Zn 0.98101 0.30822 0.67608 0.0
O184 O 0.00621 0.31613 0.665 0.0
O185 O 0.00328 0.29158 0.65299 0.0
O186 O 0.98391 0.33031 0.68902 0.0
O187 O 0.96801 0.26617 0.68718 0.0
O188 O 0.97211 0.29067 0.70105 0.0
C189 C 0.01297 0.30799 0.65652 0.0
C190 C 0.9552 0.2898 0.63888 0.0
O191 O 0.96218 0.30211 0.65257 0.0
O192 O 0.95954 0.27828 0.63851 0.0
C193 C 0.99841 0.34197 0.69787 0.0
O194 O 0.01205 0.33967 0.69865 0.0
C195 C 0.96729 0.27448 0.70287 0.0
Zn196 Zn 0.69052 0.64199 0.70293 0.0
Zn197 Zn 0.6934 0.67266 0.69176 0.0
O198 O 0.66744 0.65664 0.70212 0.0
O199 O 0.66504 0.63178 0.71201 0.0
O200 O 0.69356 0.69423 0.6811 0.0
O201 O 0.69582 0.63838 0.67319 0.0
O202 O 0.70023 0.66446 0.66512 0.0
C203 C 0.65817 0.64117 0.70979 0.0
C204 C 0.71797 0.67288 0.72616 0.0
O205 O 0.71261 0.68134 0.71521 0.0
O206 O 0.71084 0.6564 0.72354 0.0
C207 C 0.68309 0.69884 0.68822 0.0
O208 O 0.6728 0.69023 0.70421 0.0
C209 C 0.7002 0.65061 0.65994 0.0
Zn210 Zn 0.37514 0.32041 0.69517 0.0
Zn211 Zn 0.34282 0.31539 0.68519 0.0
O212 O 0.35782 0.34119 0.69492 0.0
O213 O 0.38436 0.34578 0.70309 0.0
O214 O 0.32046 0.31404 0.67444 0.0
O215 O 0.37807 0.31382 0.66568 0.0
O216 O 0.35098 0.30834 0.6588 0.0
C217 C 0.37376 0.35139 0.70162 0.0
C218 C 0.3451 0.29348 0.72022 0.0
O219 O 0.33547 0.29755 0.70933 0.0
O220 O 0.36179 0.30112 0.71689 0.0
C221 C 0.31291 0.32089 0.68403 0.0
O222 O 0.31883 0.32779 0.70277 0.0
C223 C 0.36496 0.30851 0.65306 0.0
Zn224 Zn 0.68253 0.05767 0.6982 0.0
Zn225 Zn 0.68171 0.02899 0.68397 0.0
O226 O 0.65645 0.01893 0.69632 0.0
O227 O 0.65732 0.04253 0.70834 0.0
O228 O 0.68023 0.00764 0.67098 0.0
O229 O 0.68696 0.06813 0.66918 0.0
O230 O 0.68795 0.04524 0.65814 0.0
C231 C 0.64888 0.026 0.70552 0.0
C232 C 0.70896 0.05172 0.71795 0.0
O233 O 0.70192 0.03804 0.70625 0.0
O234 O 0.70323 0.06217 0.7171 0.0
C235 C 0.68086 0.99561 0.68109 0.0
O236 O 0.68283 0.99687 0.70164 0.0
C237 C 0.6892 0.05995 0.65448 0.0
Zn238 Zn 0.97133 0.69489 0.65894 0.0
Zn239 Zn 0.97176 0.66662 0.67334 0.0
O240 O 0.99696 0.68227 0.66119 0.0
O241 O 0.99678 0.70535 0.64895 0.0
O242 O 0.97293 0.64656 0.68635 0.0
O243 O 0.96631 0.70029 0.68774 0.0
O244 O 0.9657 0.67659 0.69912 0.0
C245 C 0.00487 0.69716 0.65193 0.0
C246 C 0.94471 0.66189 0.63943 0.0
O247 O 0.95184 0.65522 0.65065 0.0
O248 O 0.95032 0.6782 0.64051 0.0
C249 C 0.97598 0.63619 0.67606 0.0
O250 O 0.97794 0.63807 0.65559 0.0
C251 C 0.96409 0.68981 0.70255 0.0
C252 C 0.20035 0.30977 0.12505 0.0
C253 C 0.19757 0.2996 0.10695 0.0
C254 C 0.18588 0.30718 0.13692 0.0
C255 C 0.16832 0.29414 0.13119 0.0
C256 C 0.17998 0.28657 0.10116 0.0
C257 C 0.16547 0.28391 0.11315 0.0
C258 C 0.15295 0.29247 0.14272 0.0
C259 C 0.18432 0.27978 0.18876 0.0
C260 C 0.19012 0.29049 0.20684 0.0
C261 C 0.1716 0.27973 0.17513 0.0
C262 C 0.16487 0.29076 0.1791 0.0
C263 C 0.183 0.3011 0.211 0.0
C264 C 0.17056 0.30122 0.19733 0.0
C265 C 0.15176 0.2916 0.16489 0.0
C266 C 0.08403 0.29204 0.18252 0.0
C267 C 0.09025 0.30191 0.20128 0.0
C268 C 0.09573 0.28997 0.16972 0.0
C269 C 0.11394 0.29799 0.17524 0.0
C270 C 0.10848 0.30985 0.20668 0.0
C271 C 0.12013 0.30797 0.19381 0.0
C272 C 0.12664 0.2953 0.16299 0.0
C273 C 0.10898 0.32208 0.11691 0.0
C274 C 0.09852 0.31105 0.10024 0.0
C275 C 0.11817 0.317 0.13041 0.0
C276 C 0.11711 0.30084 0.12741 0.0
C277 C 0.09743 0.29486 0.0973 0.0
C278 C 0.10684 0.2899 0.11064 0.0
C279 C 0.12773 0.296 0.14084 0.0
H280 H 0.21368 0.32024 0.12962 0.0
H281 H 0.18842 0.31575 0.15025 0.0
H282 H 0.17743 0.27855 0.08727 0.0
H283 H 0.152 0.27399 0.10825 0.0
H284 H 0.18952 0.2714 0.18527 0.0
H285 H 0.16707 0.27111 0.16154 0.0
H286 H 0.18742 0.30971 0.22461 0.0
H287 H 0.16563 0.30984 0.20085 0.0
H288 H 0.07009 0.28577 0.17783 0.0
H289 H 0.09041 0.28175 0.15583 0.0
H290 H 0.11375 0.31713 0.22123 0.0
H291 H 0.13405 0.3142 0.1986 0.0
H292 H 0.10997 0.33458 0.11958 0.0
H293 H 0.12633 0.32581 0.143 0.0
H294 H 0.08955 0.2862 0.08446 0.0
H295 H 0.10607 0.2775 0.10791 0.0
N296 N 0.14077 0.29445 0.13158 0.0
N297 N 0.13865 0.29305 0.17399 0.0
C298 C 0.66415 0.88008 0.10802 0.0
C299 C 0.67574 0.88858 0.09111 0.0
C300 C 0.667 0.86945 0.12169 0.0
C301 C 0.68145 0.86707 0.11869 0.0
C302 C 0.6903 0.88633 0.0882 0.0
C303 C 0.693 0.87546 0.10174 0.0
C304 C 0.68356 0.85475 0.1323 0.0
C305 C 0.70018 0.90135 0.17581 0.0
C306 C 0.68876 0.89749 0.19305 0.0
C307 C 0.69798 0.88785 0.16248 0.0
C308 C 0.68435 0.87029 0.16619 0.0
C309 C 0.6746 0.87998 0.196 0.0
C310 C 0.67255 0.86653 0.18285 0.0
C311 C 0.68344 0.85554 0.1544 0.0
C312 C 0.69087 0.79495 0.18382 0.0
C313 C 0.67961 0.79036 0.20131 0.0
C314 C 0.69163 0.80698 0.16889 0.0
C315 C 0.68082 0.81427 0.17103 0.0
C316 C 0.66873 0.79754 0.20323 0.0
C317 C 0.66935 0.80934 0.18831 0.0
C318 C 0.6822 0.82812 0.1567 0.0
C319 C 0.66386 0.78098 0.11434 0.0
C320 C 0.67599 0.78372 0.09833 0.0
C321 C 0.66623 0.79512 0.12648 0.0
C322 C 0.6808 0.81225 0.12287 0.0
C323 C 0.6906 0.80087 0.09481 0.0
C324 C 0.69289 0.81503 0.10685 0.0
C325 C 0.6827 0.82748 0.13452 0.0
H326 H 0.65289 0.88168 0.11067 0.0
H327 H 0.65765 0.86278 0.13435 0.0
H328 H 0.69935 0.89268 0.07519 0.0
H329 H 0.70409 0.8736 0.09901 0.0
H330 H 0.71132 0.91464 0.1732 0.0
H331 H 0.70745 0.89102 0.14992 0.0
H332 H 0.6653 0.87659 0.2088 0.0
H333 H 0.66191 0.85307 0.18596 0.0
H334 H 0.69946 0.78965 0.18204 0.0
H335 H 0.70098 0.81091 0.15606 0.0
H336 H 0.65969 0.79401 0.21635 0.0
H337 H 0.66089 0.81475 0.19038 0.0
H338 H 0.65252 0.76789 0.11746 0.0
H339 H 0.65647 0.79273 0.1384 0.0
H340 H 0.70003 0.80341 0.08241 0.0
H341 H 0.70407 0.82819 0.10362 0.0
N342 N 0.68337 0.84084 0.12318 0.0
N343 N 0.68265 0.84218 0.16567 0.0
C344 C 0.1019 0.80193 0.12839 0.0
C345 C 0.09892 0.80451 0.10724 0.0
C346 C 0.1103 0.8161 0.14238 0.0
C347 C 0.11497 0.83315 0.13607 0.0
C348 C 0.10368 0.82161 0.10089 0.0
C349 C 0.11144 0.83567 0.11516 0.0
C350 C 0.12571 0.84878 0.1499 0.0
C351 C 0.0796 0.81185 0.19388 0.0
C352 C 0.08584 0.80578 0.2104 0.0
C353 C 0.09174 0.82562 0.18079 0.0
C354 C 0.11023 0.83349 0.18416 0.0
C355 C 0.10441 0.81337 0.21307 0.0
C356 C 0.11642 0.82719 0.20031 0.0
C357 C 0.12358 0.84882 0.17192 0.0
C358 C 0.18412 0.92247 0.19797 0.0
C359 C 0.18828 0.9172 0.21697 0.0
C360 C 0.17129 0.90984 0.18411 0.0
C361 C 0.16283 0.89173 0.1888 0.0
C362 C 0.17933 0.89916 0.22188 0.0
C363 C 0.1668 0.88662 0.208 0.0
C364 C 0.14976 0.87772 0.17431 0.0
C365 C 0.20051 0.90568 0.13673 0.0
C366 C 0.19929 0.9133 0.11785 0.0
C367 C 0.18521 0.89459 0.1483 0.0
C368 C 0.16837 0.89104 0.14142 0.0
C369 C 0.18242 0.90986 0.11107 0.0
C370 C 0.16708 0.89873 0.1227 0.0
C371 C 0.15199 0.87771 0.15235 0.0
H372 H 0.09816 0.789 0.13421 0.0
H373 H 0.11375 0.81363 0.15782 0.0
H374 H 0.10203 0.82437 0.08472 0.0
H375 H 0.11524 0.84871 0.10962 0.0
H376 H 0.06539 0.80636 0.19145 0.0
H377 H 0.08673 0.83039 0.16846 0.0
H378 H 0.10972 0.80873 0.2252 0.0
H379 H 0.13065 0.83299 0.20304 0.0
H380 H 0.19078 0.93632 0.19386 0.0
H381 H 0.1681 0.91423 0.16974 0.0
H382 H 0.18248 0.89464 0.2362 0.0
H383 H 0.16053 0.8728 0.21212 0.0
H384 H 0.21321 0.90768 0.14214 0.0
H385 H 0.18648 0.88829 0.16226 0.0
H386 H 0.18105 0.91557 0.09664 0.0
H387 H 0.15416 0.89592 0.11694 0.0
N388 N 0.13979 0.86337 0.14107 0.0
N389 N 0.13565 0.86325 0.18307 0.0
C390 C 0.32195 0.11233 0.85322 0.0
C391 C 0.30604 0.10091 0.84216 0.0
C392 C 0.32288 0.12518 0.86666 0.0
C393 C 0.30796 0.12693 0.86906 0.0
C394 C 0.29096 0.10229 0.84513 0.0
C395 C 0.29198 0.11534 0.85829 0.0
C396 C 0.30952 0.14186 0.88104 0.0
C397 C 0.30873 0.10419 0.92868 0.0
C398 C 0.32505 0.11074 0.93964 0.0
C399 C 0.30558 0.11541 0.91645 0.0
C400 C 0.31867 0.13342 0.91494 0.0
C401 C 0.33806 0.12886 0.93823 0.0
C402 C 0.33482 0.1401 0.92614 0.0
C403 C 0.3154 0.14543 0.90217 0.0
C404 C 0.30509 0.20548 0.92321 0.0
C405 C 0.32107 0.21683 0.93429 0.0
C406 C 0.30295 0.19083 0.91244 0.0
C407 C 0.31672 0.18719 0.91255 0.0
C408 C 0.33471 0.21294 0.93462 0.0
C409 C 0.33248 0.19817 0.92401 0.0
C410 C 0.31467 0.17187 0.9009 0.0
C411 C 0.32132 0.21076 0.85099 0.0
C412 C 0.3073 0.20476 0.83617 0.0
C413 C 0.32168 0.19914 0.86552 0.0
C414 C 0.30785 0.1813 0.86584 0.0
C415 C 0.29334 0.18696 0.83664 0.0
C416 C 0.29365 0.17534 0.85131 0.0
C417 C 0.30918 0.16849 0.87957 0.0
H418 H 0.33376 0.11153 0.85111 0.0
H419 H 0.33543 0.13419 0.87455 0.0
H420 H 0.27861 0.09377 0.83658 0.0
H421 H 0.2804 0.11661 0.85978 0.0
H422 H 0.29823 0.09042 0.92977 0.0
H423 H 0.29281 0.11004 0.90839 0.0
H424 H 0.35086 0.13434 0.94624 0.0
H425 H 0.34507 0.15398 0.92526 0.0
H426 H 0.29413 0.20781 0.92301 0.0
H427 H 0.2905 0.18229 0.90409 0.0
H428 H 0.34727 0.22147 0.94276 0.0
H429 H 0.34324 0.19555 0.92434 0.0
H430 H 0.3325 0.22428 0.85071 0.0
H431 H 0.33319 0.204 0.8759 0.0
H432 H 0.28235 0.18195 0.82545 0.0
H433 H 0.28294 0.1616 0.85106 0.0
N434 N 0.30667 0.15352 0.87055 0.0
N435 N 0.31775 0.1603 0.91133 0.0
C436 C 0.91699 0.19485 0.91323 0.0
C437 C 0.90947 0.19995 0.92899 0.0
C438 C 0.90614 0.17973 0.90112 0.0
C439 C 0.88752 0.16974 0.90424 0.0
C440 C 0.891 0.18952 0.93266 0.0
C441 C 0.88017 0.1746 0.92043 0.0
C442 C 0.87535 0.15423 0.89098 0.0
C443 C 0.89991 0.19947 0.84444 0.0
C444 C 0.9107 0.198 0.82942 0.0
C445 C 0.88923 0.18538 0.85784 0.0
C446 C 0.88916 0.16958 0.85643 0.0
C447 C 0.91091 0.18231 0.82838 0.0
C448 C 0.90007 0.16815 0.84163 0.0
C449 C 0.8764 0.15402 0.86886 0.0
C450 C 0.80375 0.09846 0.84217 0.0
C451 C 0.80741 0.09108 0.82488 0.0
C452 C 0.81726 0.10919 0.85652 0.0
C453 C 0.83469 0.11252 0.85414 0.0
C454 C 0.82482 0.09426 0.82265 0.0
C455 C 0.83834 0.10495 0.8371 0.0
C456 C 0.84949 0.12561 0.86777 0.0
C457 C 0.81013 0.08129 0.90898 0.0
C458 C 0.80322 0.08668 0.92516 0.0
C459 C 0.82524 0.09378 0.89783 0.0
C460 C 0.83333 0.11188 0.9023 0.0
C461 C 0.81187 0.10468 0.93024 0.0
C462 C 0.82672 0.11711 0.91896 0.0
C463 C 0.84853 0.1257 0.88995 0.0
H464 H 0.93124 0.20257 0.91026 0.0
H465 H 0.91229 0.17595 0.88927 0.0
H466 H 0.8848 0.19323 0.94453 0.0
H467 H 0.86589 0.16711 0.92329 0.0
H468 H 0.8995 0.21141 0.84555 0.0
H469 H 0.88062 0.18663 0.86887 0.0
H470 H 0.91889 0.18073 0.81673 0.0
H471 H 0.89999 0.15598 0.84011 0.0
H472 H 0.79062 0.09665 0.84407 0.0
H473 H 0.81423 0.11541 0.86903 0.0
H474 H 0.82805 0.08873 0.80952 0.0
H475 H 0.85175 0.10758 0.83477 0.0
H476 H 0.80378 0.06746 0.90489 0.0
H477 H 0.83041 0.08928 0.88558 0.0
H478 H 0.80672 0.10925 0.94244 0.0
H479 H 0.8327 0.13094 0.92286 0.0
N480 N 0.8615 0.14004 0.90056 0.0
N481 N 0.86351 0.13969 0.85816 0.0
C482 C 0.82261 0.73223 0.91683 0.0
C483 C 0.81371 0.71906 0.93211 0.0
C484 C 0.83707 0.73358 0.90593 0.0
C485 C 0.84252 0.72148 0.90977 0.0
C486 C 0.81991 0.70769 0.93677 0.0
C487 C 0.83416 0.70891 0.92575 0.0
C488 C 0.85653 0.7213 0.89713 0.0
C489 C 0.81232 0.70872 0.85045 0.0
C490 C 0.81715 0.72048 0.83346 0.0
C491 C 0.82534 0.70986 0.86432 0.0
C492 C 0.84345 0.72299 0.86178 0.0
C493 C 0.83527 0.73373 0.83104 0.0
C494 C 0.8483 0.73491 0.84502 0.0
C495 C 0.85747 0.72293 0.87497 0.0
C496 C 0.90206 0.69518 0.84808 0.0
C497 C 0.91397 0.7082 0.83405 0.0
C498 C 0.89222 0.69881 0.8621 0.0
C499 C 0.89409 0.71549 0.86219 0.0
C500 C 0.91617 0.72502 0.83459 0.0
C501 C 0.90614 0.72857 0.8484 0.0
C502 C 0.88226 0.71876 0.87516 0.0
C503 C 0.92051 0.71415 0.91819 0.0
C504 C 0.91228 0.70108 0.93379 0.0
C505 C 0.91059 0.71958 0.90656 0.0
C506 C 0.89213 0.71172 0.90987 0.0
C507 C 0.89394 0.69379 0.93763 0.0
C508 C 0.88401 0.69902 0.92579 0.0
C509 C 0.88103 0.71662 0.89721 0.0
H510 H 0.8182 0.74127 0.91309 0.0
H511 H 0.84369 0.74381 0.8942 0.0
H512 H 0.81319 0.69726 0.94826 0.0
H513 H 0.83816 0.69949 0.92916 0.0
H514 H 0.79857 0.6981 0.85247 0.0
H515 H 0.82129 0.70004 0.87659 0.0
H516 H 0.8394 0.743 0.81813 0.0
H517 H 0.86222 0.74497 0.84255 0.0
H518 H 0.90012 0.68211 0.84791 0.0
H519 H 0.88274 0.68845 0.87239 0.0
H520 H 0.92507 0.7352 0.82371 0.0
H521 H 0.90757 0.74143 0.84809 0.0
H522 H 0.93457 0.72004 0.9147 0.0
H523 H 0.91741 0.72989 0.89497 0.0
H524 H 0.88722 0.68403 0.94984 0.0
H525 H 0.86984 0.69291 0.92892 0.0
N526 N 0.86826 0.71807 0.90727 0.0
N527 N 0.87048 0.72186 0.86494 0.0
C528 C 0.74612 0.62728 0.44664 0.0
C529 C 0.75373 0.64001 0.43057 0.0
C530 C 0.75657 0.62232 0.458 0.0
C531 C 0.77494 0.63033 0.45391 0.0
C532 C 0.77195 0.64742 0.42598 0.0
C533 C 0.78241 0.64267 0.43753 0.0
C534 C 0.78663 0.62588 0.46596 0.0
C535 C 0.76427 0.64573 0.51561 0.0
C536 C 0.75662 0.6344 0.53287 0.0
C537 C 0.77376 0.64244 0.50061 0.0
C538 C 0.7752 0.62744 0.50233 0.0
C539 C 0.75801 0.61943 0.53454 0.0
C540 C 0.76718 0.61597 0.5194 0.0
C541 C 0.78671 0.62455 0.48812 0.0
C542 C 0.85692 0.63111 0.50681 0.0
C543 C 0.85246 0.62168 0.52587 0.0
C544 C 0.84362 0.63033 0.49371 0.0
C545 C 0.82543 0.61935 0.49871 0.0
C546 C 0.83421 0.61063 0.53077 0.0
C547 C 0.8209 0.60943 0.51731 0.0
C548 C 0.81121 0.61988 0.48636 0.0
C549 C 0.84191 0.6072 0.44174 0.0
C550 C 0.85077 0.62024 0.42629 0.0
C551 C 0.8282 0.60662 0.4535 0.0
C552 C 0.8235 0.61935 0.45033 0.0
C553 C 0.84511 0.63212 0.42218 0.0
C554 C 0.8316 0.63165 0.43404 0.0
C555 C 0.81073 0.62061 0.46416 0.0
H556 H 0.73216 0.62131 0.45069 0.0
H557 H 0.7503 0.61232 0.47005 0.0
H558 H 0.77819 0.65688 0.41337 0.0
H559 H 0.79647 0.64886 0.43378 0.0
H560 H 0.76354 0.65748 0.51421 0.0
H561 H 0.78041 0.6519 0.4881 0.0
H562 H 0.7522 0.61052 0.54775 0.0
H563 H 0.76831 0.60447 0.52125 0.0
H564 H 0.87074 0.63955 0.50219 0.0
H565 H 0.84771 0.63881 0.48005 0.0
H566 H 0.83012 0.60344 0.54545 0.0
H567 H 0.80701 0.60114 0.52181 0.0
H568 H 0.84589 0.59776 0.44505 0.0
H569 H 0.82173 0.59663 0.46553 0.0
H570 H 0.8518 0.64245 0.41057 0.0
H571 H 0.8281 0.64151 0.43114 0.0
N572 N 0.79861 0.62378 0.45496 0.0
N573 N 0.79897 0.62158 0.49731 0.0
C574 C 0.33735 0.22074 0.44961 0.0
C575 C 0.34692 0.22667 0.43079 0.0
C576 C 0.33915 0.20906 0.46261 0.0
C577 C 0.35104 0.20354 0.45742 0.0
C578 C 0.35839 0.22078 0.42522 0.0
C579 C 0.36047 0.20935 0.43845 0.0
C580 C 0.3527 0.19073 0.47078 0.0
C581 C 0.369 0.23655 0.51625 0.0
C582 C 0.35715 0.23196 0.53319 0.0
C583 C 0.36748 0.22353 0.50252 0.0
C584 C 0.35406 0.20577 0.50553 0.0
C585 C 0.34335 0.21424 0.53555 0.0
C586 C 0.34195 0.20129 0.52202 0.0
C587 C 0.35334 0.19146 0.49298 0.0
C588 C 0.36333 0.1318 0.51932 0.0
C589 C 0.35265 0.12686 0.53737 0.0
C590 C 0.36324 0.14373 0.5049 0.0
C591 C 0.35217 0.15059 0.50815 0.0
C592 C 0.34153 0.13365 0.54042 0.0
C593 C 0.34133 0.14538 0.52602 0.0
C594 C 0.35258 0.16423 0.49427 0.0
C595 C 0.3332 0.11671 0.45278 0.0
C596 C 0.34452 0.11934 0.43584 0.0
C597 C 0.33574 0.13101 0.46471 0.0
C598 C 0.34975 0.14821 0.46007 0.0
C599 C 0.35845 0.13659 0.43113 0.0
C600 C 0.36095 0.15091 0.44304 0.0
C601 C 0.35208 0.1635 0.47207 0.0
H602 H 0.32814 0.22483 0.45401 0.0
H603 H 0.33092 0.20409 0.47648 0.0
H604 H 0.36588 0.22516 0.41073 0.0
H605 H 0.36947 0.20506 0.43387 0.0
H606 H 0.37986 0.25005 0.51409 0.0
H607 H 0.37713 0.22723 0.49006 0.0
H608 H 0.33375 0.21029 0.54812 0.0
H609 H 0.33147 0.18767 0.52458 0.0
H610 H 0.37207 0.12679 0.51665 0.0
H611 H 0.37211 0.14789 0.49156 0.0
H612 H 0.33289 0.12983 0.55397 0.0
H613 H 0.33268 0.15047 0.52893 0.0
H614 H 0.32241 0.10358 0.45686 0.0
H615 H 0.32662 0.12864 0.47742 0.0
H616 H 0.36723 0.13906 0.418 0.0
H617 H 0.37166 0.1641 0.439 0.0
N618 N 0.35226 0.17683 0.46121 0.0
N619 N 0.35317 0.17817 0.50372 0.0
C620 C 0.77149 0.13818 0.45304 0.0
C621 C 0.76234 0.13829 0.43482 0.0
C622 C 0.78056 0.15312 0.46572 0.0
C623 C 0.78046 0.16846 0.46071 0.0
C624 C 0.76252 0.15376 0.42954 0.0
C625 C 0.77158 0.16877 0.44237 0.0
C626 C 0.79091 0.18451 0.47373 0.0
C627 C 0.74688 0.14601 0.51864 0.0
C628 C 0.75401 0.1401 0.53432 0.0
C629 C 0.75828 0.16002 0.5054 0.0
C630 C 0.77691 0.16837 0.50785 0.0
C631 C 0.77269 0.14799 0.53582 0.0
C632 C 0.78398 0.16211 0.52296 0.0
C633 C 0.78942 0.18424 0.49578 0.0
C634 C 0.84997 0.2578 0.52202 0.0
C635 C 0.85447 0.25218 0.54049 0.0
C636 C 0.83685 0.2454 0.50818 0.0
C637 C 0.82849 0.22721 0.51235 0.0
C638 C 0.84568 0.23406 0.54486 0.0
C639 C 0.83291 0.22178 0.53101 0.0
C640 C 0.81509 0.21339 0.49792 0.0
C641 C 0.86508 0.24245 0.45981 0.0
C642 C 0.86367 0.25063 0.44157 0.0
C643 C 0.84988 0.23074 0.47113 0.0
C644 C 0.83293 0.22717 0.4647 0.0
C645 C 0.84666 0.24697 0.43502 0.0
C646 C 0.8314 0.23526 0.44647 0.0
C647 C 0.81676 0.21364 0.47578 0.0
H648 H 0.77208 0.12667 0.4572 0.0
H649 H 0.78803 0.1528 0.4792 0.0
H650 H 0.75563 0.15424 0.41555 0.0
H651 H 0.77165 0.18059 0.438 0.0
H652 H 0.73256 0.14028 0.51712 0.0
H653 H 0.7526 0.16474 0.49383 0.0
H654 H 0.77866 0.14347 0.54724 0.0
H655 H 0.79835 0.16826 0.52488 0.0
H656 H 0.85655 0.27172 0.51833 0.0
H657 H 0.83336 0.25004 0.49425 0.0
H658 H 0.84911 0.2293 0.55876 0.0
H659 H 0.82677 0.20789 0.53471 0.0
H660 H 0.8779 0.24458 0.46494 0.0
H661 H 0.85134 0.2241 0.48461 0.0
H662 H 0.84516 0.25304 0.42098 0.0
H663 H 0.81839 0.23241 0.44102 0.0
N664 N 0.80447 0.19926 0.46454 0.0
N665 N 0.80146 0.19866 0.50689 0.0
C666 C 0.9877 0.54646 0.17092 0.0
C667 C 0.99857 0.55159 0.153 0.0
C668 C 0.9882 0.53497 0.18566 0.0
C669 C -0.00018 0.52869 0.1829 0.0
C670 C 0.01015 0.54527 0.15034 0.0
C671 C 0.01071 0.53392 0.16507 0.0
C672 C 4e-05 0.51578 0.19751 0.0
C673 C 0.01846 0.56467 0.23588 0.0
C674 C 0.00784 0.56241 0.25341 0.0
C675 C 0.0161 0.55005 0.22482 0.0
C676 C 0.00283 0.53289 0.23082 0.0
C677 C 0.99478 0.54521 0.25963 0.0
C678 C 0.99235 0.5306 0.24846 0.0
C679 C 0.00058 0.51726 0.21967 0.0
C680 C 0.01621 0.46214 0.24723 0.0
C681 C 0.0043 0.45421 0.26402 0.0
C682 C 0.01473 0.47373 0.23371 0.0
C683 C 0.00125 0.47756 0.23666 0.0
C684 C 0.99093 0.45821 0.26708 0.0
C685 C 0.98953 0.46992 0.25362 0.0
C686 C -0.00013 0.4901 0.22263 0.0
C687 C 0.98353 0.44258 0.18088 0.0
C688 C 0.99503 0.4462 0.16379 0.0
C689 C 0.98533 0.45631 0.19345 0.0
C690 C 0.99868 0.47387 0.18917 0.0
C691 C 0.00879 0.46376 0.16012 0.0
C692 C 0.01048 0.47744 0.17255 0.0
C693 C 0.99952 0.48876 0.20053 0.0
H694 H 0.97856 0.55103 0.17327 0.0
H695 H 0.97928 0.53075 0.19896 0.0
H696 H 0.0189 0.54921 0.1369 0.0
H697 H 0.01973 0.52922 0.16252 0.0
H698 H 0.02885 0.57774 0.23098 0.0
H699 H 0.02485 0.55218 0.21178 0.0
H700 H 0.98634 0.54307 0.27301 0.0
H701 H 0.98219 0.51748 0.25355 0.0
H702 H 0.02658 0.45924 0.24441 0.0
H703 H 0.02422 0.47982 0.22104 0.0
H704 H 0.98169 0.45243 0.28003 0.0
H705 H 0.97919 0.47288 0.25632 0.0
H706 H 0.97267 0.42924 0.18399 0.0
H707 H 0.97585 0.45328 0.20595 0.0
H708 H 0.01809 0.46698 0.14736 0.0
H709 H 0.02089 0.49089 0.16899 0.0
N710 N -0.00035 0.50164 0.18889 0.0
N711 N 0.00031 0.50427 0.23137 0.0
C712 C 0.48036 0.42097 0.16461 0.0
C713 C 0.47569 0.42736 0.14697 0.0
C714 C 0.49398 0.43272 0.17842 0.0
C715 C 0.50275 0.45105 0.17507 0.0
C716 C 0.4848 0.44562 0.14344 0.0
C717 C 0.49813 0.45729 0.15729 0.0
C718 C 0.51688 0.46416 0.18946 0.0
C719 C 0.46775 0.43556 0.22916 0.0
C720 C 0.46933 0.42686 0.24677 0.0
C721 C 0.48278 0.4472 0.21754 0.0
C722 C 0.49969 0.45013 0.22301 0.0
C723 C 0.48629 0.42991 0.25238 0.0
C724 C 0.50137 0.44151 0.24061 0.0
C725 C 0.51577 0.46349 0.21165 0.0
C726 C 0.5648 0.53778 0.23666 0.0
C727 C 0.57262 0.53616 0.25527 0.0
C728 C 0.55558 0.52352 0.22296 0.0
C729 C 0.55415 0.50735 0.22736 0.0
C730 C 0.57117 0.51995 0.25973 0.0
C731 C 0.56193 0.50564 0.24592 0.0
C732 C 0.54277 0.4918 0.2139 0.0
C733 C 0.58784 0.52856 0.16919 0.0
C734 C 0.58167 0.53518 0.15323 0.0
C735 C 0.57566 0.51505 0.18249 0.0
C736 C 0.55721 0.50795 0.17986 0.0
C737 C 0.56322 0.52858 0.15152 0.0
C738 C 0.55113 0.51499 0.16449 0.0
C739 C 0.54382 0.49242 0.19178 0.0
H740 H 0.47356 0.40692 0.16761 0.0
H741 H 0.49759 0.42749 0.19168 0.0
H742 H 0.48129 0.45097 0.1302 0.0
H743 H 0.5046 0.47131 0.15426 0.0
H744 H 0.45495 0.43387 0.22478 0.0
H745 H 0.48124 0.45426 0.20458 0.0
H746 H 0.48791 0.42342 0.26592 0.0
H747 H 0.51436 0.44386 0.24533 0.0
H748 H 0.56519 0.54989 0.23304 0.0
H749 H 0.54897 0.525 0.20934 0.0
H750 H 0.57704 0.5183 0.27395 0.0
H751 H 0.56068 0.49318 0.24983 0.0
H752 H 0.60197 0.53331 0.17088 0.0
H753 H 0.58058 0.50969 0.19422 0.0
H754 H 0.55803 0.5337 0.13983 0.0
H755 H 0.53694 0.50981 0.16237 0.0
N756 N 0.5309 0.47861 0.18055 0.0
N757 N 0.52885 0.47727 0.22299 0.0
C758 C 0.47915 0.04423 0.25104 0.0
C759 C 0.47033 0.0305 0.26569 0.0
C760 C 0.49324 0.04575 0.23916 0.0
C761 C 0.49844 0.03331 0.2414 0.0
C762 C 0.47612 0.01858 0.26856 0.0
C763 C 0.49005 0.01999 0.25657 0.0
C764 C 0.51255 0.03388 0.22818 0.0
C765 C 0.4686 0.02398 0.18236 0.0
C766 C 0.47363 0.03659 0.16631 0.0
C767 C 0.48148 0.02422 0.19571 0.0
C768 C 0.49967 0.0373 0.19357 0.0
C769 C 0.49182 0.04976 0.16429 0.0
C770 C 0.50471 0.05006 0.17775 0.0
C771 C 0.51358 0.03659 0.20621 0.0
C772 C 0.56626 0.01746 0.17782 0.0
C773 C 0.5743 0.02999 0.16172 0.0
C774 C 0.55515 0.01881 0.19236 0.0
C775 C 0.55238 0.03303 0.19141 0.0
C776 C 0.57156 0.04417 0.16079 0.0
C777 C 0.56075 0.04569 0.1755 0.0
C778 C 0.53936 0.03393 0.20519 0.0
C779 C 0.57977 0.03279 0.24877 0.0
C780 C 0.57232 0.01922 0.26388 0.0
C781 C 0.56884 0.03684 0.2369 0.0
C782 C 0.55018 0.02707 0.23948 0.0
C783 C 0.55369 0.00991 0.26687 0.0
C784 C 0.54279 0.01376 0.25479 0.0
C785 C 0.53812 0.03088 0.22715 0.0
H786 H 0.47509 0.05372 0.2487 0.0
H787 H 0.4999 0.05652 0.22808 0.0
H788 H 0.46945 0.00773 0.27954 0.0
H789 H 0.49389 0.01031 0.25873 0.0
H790 H 0.45477 0.01341 0.18401 0.0
H791 H 0.47727 0.01381 0.20722 0.0
H792 H 0.4961 0.05967 0.1521 0.0
H793 H 0.51867 0.06013 0.17562 0.0
H794 H 0.568 0.00627 0.17862 0.0
H795 H 0.54832 0.00845 0.2039 0.0
H796 H 0.57763 0.05399 0.14848 0.0
H797 H 0.55865 0.05664 0.17424 0.0
H798 H 0.59404 0.0402 0.24592 0.0
H799 H 0.57501 0.04759 0.22574 0.0
H800 H 0.54749 0.9997 0.2787 0.0
H801 H 0.52846 0.00621 0.25737 0.0
N802 N 0.52476 0.03101 0.23767 0.0
N803 N 0.52706 0.03671 0.19571 0.0
C804 C 0.53267 0.98079 0.79195 0.0
C805 C 0.53001 0.97024 0.77427 0.0
C806 C 0.51812 0.97927 0.8026 0.0
C807 C 0.50055 0.9669 0.79609 0.0
C808 C 0.51242 0.95804 0.76751 0.0
C809 C 0.4978 0.95642 0.77833 0.0
C810 C 0.48519 0.96584 0.80696 0.0
C811 C 0.5138 0.95056 0.85377 0.0
C812 C 0.52004 0.96137 0.87176 0.0
C813 C 0.5016 0.95125 0.83996 0.0
C814 C 0.49583 0.9631 0.84365 0.0
C815 C 0.51381 0.97277 0.87569 0.0
C816 C 0.50186 0.9736 0.86184 0.0
C817 C 0.48346 0.9648 0.82907 0.0
C818 C 0.41638 0.96682 0.84451 0.0
C819 C 0.42237 0.9766 0.86335 0.0
C820 C 0.42817 0.96456 0.83211 0.0
C821 C 0.44628 0.97241 0.83805 0.0
C822 C 0.44051 0.98438 0.86914 0.0
C823 C 0.45227 0.98239 0.85662 0.0
C824 C 0.45903 0.96948 0.82627 0.0
C825 C 0.44042 0.99515 0.78035 0.0
C826 C 0.42987 0.98381 0.76392 0.0
C827 C 0.45045 0.99079 0.79339 0.0
C828 C 0.45008 0.97497 0.79029 0.0
C829 C 0.42983 0.96816 0.76059 0.0
C830 C 0.43999 0.96387 0.77355 0.0
C831 C 0.46058 0.97025 0.80415 0.0
H832 H 0.54606 0.99067 0.79717 0.0
H833 H 0.52063 0.98802 0.81573 0.0
H834 H 0.50999 0.94981 0.75386 0.0
H835 H 0.48434 0.94701 0.77284 0.0
H836 H 0.51828 0.94155 0.85046 0.0
H837 H 0.49676 0.94261 0.82639 0.0
H838 H 0.51858 0.98146 0.88924 0.0
H839 H 0.49762 0.98282 0.86514 0.0
H840 H 0.40255 0.96068 0.83947 0.0
H841 H 0.42299 0.95634 0.81822 0.0
H842 H 0.44562 0.99155 0.88378 0.0
H843 H 0.4661 0.98846 0.86173 0.0
H844 H 0.44064 0.00725 0.78336 0.0
H845 H 0.45845 0.99973 0.80597 0.0
H846 H 0.42198 0.95928 0.74789 0.0
H847 H 0.43974 0.95173 0.77074 0.0
N848 N 0.47353 0.96831 0.79534 0.0
N849 N 0.4705 0.96672 0.83772 0.0
C850 C 0.98708 0.54285 0.77528 0.0
C851 C 0.9974 0.55097 0.75732 0.0
C852 C 0.99067 0.53222 0.78808 0.0
C853 C 0.00471 0.5296 0.78324 0.0
C854 C 0.01122 0.54803 0.75228 0.0
C855 C 0.01473 0.53731 0.76503 0.0
C856 C 0.00862 0.51842 0.79678 0.0
C857 C 0.02323 0.5668 0.83545 0.0
C858 C 0.01615 0.56374 0.85588 0.0
C859 C 0.02147 0.5529 0.82324 0.0
C860 C 0.01191 0.53546 0.83078 0.0
C861 C 0.00682 0.54628 0.86343 0.0
C862 C 0.00461 0.53238 0.851 0.0
C863 C 0.01076 0.5205 0.81889 0.0
C864 C 0.02819 0.46675 0.84727 0.0
C865 C 0.01492 0.45775 0.86246 0.0
C866 C 0.02714 0.47848 0.83343 0.0
C867 C 0.01299 0.48154 0.83494 0.0
C868 C 0.00073 0.46071 0.86379 0.0
C869 C -0.0001 0.47268 0.85031 0.0
C870 C 0.01191 0.4943 0.82107 0.0
C871 C 0.99499 0.44564 0.78336 0.0
C872 C 0.00699 0.44828 0.76721 0.0
C873 C 0.996 0.46 0.79358 0.0
C874 C 0.00909 0.47732 0.78797 0.0
C875 C 0.01984 0.46568 0.76131 0.0
C876 C 0.02079 0.48006 0.77152 0.0
C877 C 0.01036 0.49254 0.79902 0.0
H878 H 0.97641 0.54493 0.77964 0.0
H879 H 0.98249 0.52609 0.80181 0.0
H880 H 0.01924 0.55393 0.73838 0.0
H881 H 0.02547 0.53525 0.76086 0.0
H882 H 0.03038 0.57997 0.82889 0.0
H883 H 0.02799 0.55596 0.80814 0.0
H884 H 0.0016 0.54327 0.87923 0.0
H885 H 0.99742 0.51915 0.85745 0.0
H886 H 0.03926 0.46466 0.84611 0.0
H887 H 0.03746 0.48535 0.82177 0.0
H888 H 0.99045 0.45397 0.87554 0.0
H889 H 0.98894 0.47493 0.85176 0.0
H890 H 0.98466 0.43245 0.78796 0.0
H891 H 0.98647 0.45757 0.80581 0.0
H892 H 0.02937 0.46819 0.74906 0.0
H893 H 0.0309 0.49333 0.76685 0.0
N894 N 0.00877 0.50467 0.78767 0.0
N895 N 0.0121 0.50819 0.8301 0.0
C896 C 0.52679 0.58872 0.78186 0.0
C897 C 0.53403 0.58284 0.76664 0.0
C898 C 0.51129 0.57662 0.79267 0.0
C899 C 0.50305 0.55843 0.78879 0.0
C900 C 0.52518 0.56473 0.76202 0.0
C901 C 0.50985 0.55268 0.77294 0.0
C902 C 0.48766 0.54506 0.80127 0.0
C903 C 0.53298 0.57262 0.84831 0.0
C904 C 0.52962 0.58046 0.86536 0.0
C905 C 0.51924 0.56167 0.83431 0.0
C906 C 0.50193 0.55861 0.83679 0.0
C907 C 0.51232 0.57749 0.86775 0.0
C908 C 0.49859 0.56661 0.85362 0.0
C909 C 0.48692 0.5455 0.82343 0.0
C910 C 0.43115 0.47195 0.84686 0.0
C911 C 0.42373 0.47557 0.86413 0.0
C912 C 0.44245 0.48548 0.83311 0.0
C913 C 0.446 0.50272 0.83597 0.0
C914 C 0.4273 0.49276 0.86704 0.0
C915 C 0.4383 0.50619 0.85307 0.0
C916 C 0.45933 0.51761 0.82295 0.0
C917 C 0.41722 0.47753 0.77915 0.0
C918 C 0.42415 0.4714 0.76385 0.0
C919 C 0.42867 0.49279 0.79076 0.0
C920 C 0.44728 0.50183 0.78765 0.0
C921 C 0.44263 0.48104 0.76 0.0
C922 C 0.45404 0.49607 0.77176 0.0
C923 C 0.4601 0.51713 0.80077 0.0
H924 H 0.53323 0.60263 0.78554 0.0
H925 H 0.50598 0.58147 0.80434 0.0
H926 H 0.53053 0.55976 0.75056 0.0
H927 H 0.50372 0.53875 0.76953 0.0
H928 H 0.54604 0.5743 0.84633 0.0
H929 H 0.52204 0.5551 0.82199 0.0
H930 H 0.50934 0.58336 0.88074 0.0
H931 H 0.48527 0.5642 0.85604 0.0
H932 H 0.4288 0.45884 0.84453 0.0
H933 H 0.44883 0.48255 0.82065 0.0
H934 H 0.42173 0.49584 0.88028 0.0
H935 H 0.44107 0.51941 0.85584 0.0
H936 H 0.40299 0.47041 0.78226 0.0
H937 H 0.42303 0.4973 0.80242 0.0
H938 H 0.44839 0.47654 0.74848 0.0
H939 H 0.46831 0.50284 0.7689 0.0
N940 N 0.47425 0.53087 0.79093 0.0
N941 N 0.47269 0.53187 0.8333 0.0
C942 C 0.65339 0.77931 0.51793 0.0
C943 C 0.63874 0.7718 0.5039 0.0
C944 C 0.65637 0.79305 0.53134 0.0
C945 C 0.64444 0.79916 0.53137 0.0
C946 C 0.62675 0.77776 0.50409 0.0
C947 C 0.62955 0.79126 0.51771 0.0
C948 C 0.64824 0.81496 0.54358 0.0
C949 C 0.64603 0.77669 0.59231 0.0
C950 C 0.66254 0.78286 0.60272 0.0
C951 C 0.64325 0.78807 0.57984 0.0
C952 C 0.65693 0.80581 0.57752 0.0
C953 C 0.67615 0.80068 0.60039 0.0
C954 C 0.6733 0.81204 0.58807 0.0
C955 C 0.65426 0.81818 0.56473 0.0
C956 C 0.6492 0.88144 0.58645 0.0
C957 C 0.66401 0.89027 0.60017 0.0
C958 C 0.64649 0.86705 0.57455 0.0
C959 C 0.65869 0.86133 0.57587 0.0
C960 C 0.67606 0.88435 0.60169 0.0
C961 C 0.67337 0.86999 0.58973 0.0
C962 C 0.65575 0.84581 0.56374 0.0
C963 C 0.66562 0.88587 0.51365 0.0
C964 C 0.65189 0.88063 0.49856 0.0
C965 C 0.66488 0.87382 0.5284 0.0
C966 C 0.65025 0.85634 0.52861 0.0
C967 C 0.6371 0.86324 0.49904 0.0
C968 C 0.63633 0.85121 0.51387 0.0
C969 C 0.65039 0.8429 0.54236 0.0
H970 H 0.66297 0.7751 0.51781 0.0
H971 H 0.66837 0.79932 0.54102 0.0
H972 H 0.61535 0.77216 0.49343 0.0
H973 H 0.62025 0.79582 0.51724 0.0
H974 H 0.63515 0.76315 0.59405 0.0
H975 H 0.63037 0.78307 0.5722 0.0
H976 H 0.68911 0.80584 0.60787 0.0
H977 H 0.68402 0.8257 0.58654 0.0
H978 H 0.63972 0.88571 0.58479 0.0
H979 H 0.63475 0.8603 0.56448 0.0
H980 H 0.68744 0.89066 0.61235 0.0
H981 H 0.68283 0.86568 0.59126 0.0
H982 H 0.67737 0.89906 0.51342 0.0
H983 H 0.67613 0.87802 0.53904 0.0
H984 H 0.62627 0.85883 0.48769 0.0
H985 H 0.62499 0.83776 0.51356 0.0
N986 N 0.64663 0.82751 0.5333 0.0
N987 N 0.6577 0.83344 0.57396 0.0
C988 C 0.14186 0.74856 0.50517 0.0
C989 C 0.13782 0.75453 0.48664 0.0
C990 C 0.15487 0.76064 0.51932 0.0
C991 C 0.16366 0.77888 0.51538 0.0
C992 C 0.14713 0.77271 0.48245 0.0
C993 C 0.15987 0.7847 0.4966 0.0
C994 C 0.17673 0.79234 0.53039 0.0
C995 C 0.12492 0.76372 0.56535 0.0
C996 C 0.12532 0.75533 0.58394 0.0
C997 C 0.14072 0.77536 0.55493 0.0
C998 C 0.15727 0.77858 0.56258 0.0
C999 C 0.1419 0.7587 0.59175 0.0
C1000 C 0.15776 0.77028 0.58117 0.0
C1001 C 0.17408 0.79192 0.55234 0.0
C1002 C 0.221 0.86654 0.57778 0.0
C1003 C 0.22996 0.86578 0.59584 0.0
C1004 C 0.21151 0.85185 0.56475 0.0
C1005 C 0.21095 0.83613 0.56934 0.0
C1006 C 0.22904 0.84987 0.6007 0.0
C1007 C 0.21952 0.83513 0.58758 0.0
C1008 C 0.20055 0.82052 0.55569 0.0
C1009 C 0.24674 0.86225 0.51729 0.0
C1010 C 0.24119 0.86701 0.49889 0.0
C1011 C 0.23453 0.84728 0.52878 0.0
C1012 C 0.21655 0.83696 0.52216 0.0
C1013 C 0.22327 0.8564 0.49221 0.0
C1014 C 0.21115 0.84165 0.5037 0.0
C1015 C 0.20302 0.82106 0.53373 0.0
H1016 H 0.13494 0.7346 0.50871 0.0
H1017 H 0.15788 0.75573 0.53338 0.0
H1018 H 0.14412 0.77777 0.46852 0.0
H1019 H 0.16639 0.79865 0.4931 0.0
H1020 H 0.11242 0.76178 0.55925 0.0
H1021 H 0.14003 0.78217 0.54114 0.0
H1022 H 0.14261 0.75245 0.60607 0.0
H1023 H 0.17042 0.77285 0.58757 0.0
H1024 H 0.22102 0.87843 0.57389 0.0
H1025 H 0.20446 0.85273 0.55117 0.0
H1026 H 0.23579 0.84888 0.61451 0.0
H1027 H 0.21898 0.823 0.59156 0.0
H1028 H 0.26046 0.87009 0.52284 0.0
H1029 H 0.23918 0.84374 0.54269 0.0
H1030 H 0.21859 0.85928 0.47781 0.0
H1031 H 0.19741 0.8339 0.49812 0.0
N1032 N 0.19108 0.8069 0.52211 0.0
N1033 N 0.18624 0.80593 0.56415 0.0
C1034 C 0.24706 0.36954 0.51253 0.0
C1035 C 0.24041 0.35636 0.4969 0.0
C1036 C 0.23529 0.37096 0.52595 0.0
C1037 C 0.21674 0.35929 0.52379 0.0
C1038 C 0.22187 0.34409 0.49578 0.0
C1039 C 0.21017 0.34569 0.5089 0.0
C1040 C 0.20388 0.36203 0.53534 0.0
C1041 C 0.2239 0.33822 0.5822 0.0
C1042 C 0.23409 0.34975 0.59864 0.0
C1043 C 0.21402 0.34235 0.56857 0.0
C1044 C 0.21414 0.35808 0.57113 0.0
C1045 C 0.23421 0.36552 0.60118 0.0
C1046 C 0.22414 0.36955 0.58766 0.0
C1047 C 0.20289 0.36193 0.55741 0.0
C1048 C 0.12955 0.34764 0.57097 0.0
C1049 C 0.13199 0.35845 0.58831 0.0
C1050 C 0.14425 0.34974 0.56005 0.0
C1051 C 0.1617 0.36294 0.56594 0.0
C1052 C 0.14948 0.37141 0.59452 0.0
C1053 C 0.16423 0.37361 0.58343 0.0
C1054 C 0.17726 0.36473 0.55475 0.0
C1055 C 0.14519 0.37603 0.50846 0.0
C1056 C 0.1404 0.36616 0.48968 0.0
C1057 C 0.15801 0.3764 0.52219 0.0
C1058 C 0.16577 0.36634 0.51787 0.0
C1059 C 0.14923 0.35723 0.48475 0.0
C1060 C 0.16153 0.35715 0.49872 0.0
C1061 C 0.17861 0.36537 0.53254 0.0
H1062 H 0.26124 0.37927 0.51373 0.0
H1063 H 0.24059 0.38164 0.53727 0.0
H1064 H 0.21632 0.3335 0.48433 0.0
H1065 H 0.19589 0.33649 0.50712 0.0
H1066 H 0.22364 0.32603 0.57981 0.0
H1067 H 0.20605 0.3331 0.55623 0.0
H1068 H 0.24184 0.37456 0.61383 0.0
H1069 H 0.22419 0.38163 0.59005 0.0
H1070 H 0.11626 0.33722 0.56617 0.0
H1071 H 0.14197 0.34089 0.54712 0.0
H1072 H 0.15175 0.37987 0.60788 0.0
H1073 H 0.17761 0.38366 0.58846 0.0
H1074 H 0.13881 0.38318 0.51285 0.0
H1075 H 0.16163 0.3844 0.53626 0.0
H1076 H 0.14657 0.35009 0.47009 0.0
H1077 H 0.16754 0.34958 0.49457 0.0
N1078 N 0.19183 0.36385 0.52385 0.0
N1079 N 0.18962 0.3633 0.56631 0.0
C1080 C 0.96343 0.3705 0.07774 0.0
C1081 C 0.97803 0.37016 0.06946 0.0
C1082 C 0.96555 0.38094 0.0953 0.0
C1083 C 0.98269 0.39135 0.10474 0.0
C1084 C 0.99718 0.39011 0.09739 0.0
C1085 C 0.99467 0.37948 0.07986 0.0
C1086 C 0.9497 0.38173 0.10284 0.0
C1087 C 0.01566 0.40099 0.10703 0.0
C1088 C 0.99354 0.43528 0.12725 0.0
C1089 C 0.99205 0.43201 0.14896 0.0
C1090 C 0.99066 0.42218 0.11282 0.0
C1091 C 0.98598 0.40526 0.1202 0.0
C1092 C 0.98434 0.40178 0.14206 0.0
C1093 C 0.98742 0.41522 0.15622 0.0
C1094 C 0.99252 0.42644 0.08962 0.0
C1095 C 0.97932 0.38388 0.15046 0.0
H1096 H 0.95047 0.36319 0.06996 0.0
H1097 H 0.00601 0.37922 0.07369 0.0
H1098 H 0.94875 0.38067 0.12021 0.0
H1099 H 0.95148 0.39464 0.09845 0.0
H1100 H 0.93689 0.3711 0.09585 0.0
H1101 H 0.02483 0.39676 0.10147 0.0
H1102 H 0.02147 0.41506 0.10281 0.0
H1103 H 0.01501 0.40009 0.12443 0.0
H1104 H 0.9967 0.44807 0.12146 0.0
H1105 H 0.98635 0.41264 0.17297 0.0
H1106 H 0.97961 0.41765 0.08138 0.0
H1107 H 0.00265 0.42408 0.08268 0.0
H1108 H 0.99657 0.44035 0.08652 0.0
H1109 H 0.96615 0.37363 0.14387 0.0
H1110 H 0.97857 0.38329 0.1679 0.0
H1111 H 0.98928 0.38054 0.14543 0.0
C1112 C 0.63375 0.61097 0.06888 0.0
C1113 C 0.6435 0.60697 0.05506 0.0
C1114 C 0.62585 0.60071 0.08687 0.0
C1115 C 0.62801 0.5863 0.09127 0.0
C1116 C 0.63902 0.58308 0.07827 0.0
C1117 C 0.64651 0.59337 0.0602 0.0
C1118 C 0.61408 0.60446 0.10023 0.0
C1119 C 0.64193 0.56806 0.08266 0.0
C1120 C 0.61101 0.56238 0.14349 0.0
C1121 C 0.59409 0.54816 0.13755 0.0
C1122 C 0.62242 0.57485 0.12858 0.0
C1123 C 0.61664 0.57309 0.10736 0.0
C1124 C 0.5997 0.55864 0.10128 0.0
C1125 C 0.58876 0.5463 0.11637 0.0
C1126 C 0.64052 0.58996 0.13552 0.0
C1127 C 0.593 0.55627 0.07882 0.0
H1128 H 0.63142 0.6215 0.06504 0.0
H1129 H 0.65427 0.59038 0.04975 0.0
H1130 H 0.59985 0.59392 0.09771 0.0
H1131 H 0.61721 0.60441 0.11715 0.0
H1132 H 0.61558 0.61736 0.09632 0.0
H1133 H 0.653 0.56906 0.07317 0.0
H1134 H 0.64501 0.56773 0.09956 0.0
H1135 H 0.62951 0.55535 0.07886 0.0
H1136 H 0.6152 0.56394 0.15983 0.0
H1137 H 0.57593 0.53509 0.11151 0.0
H1138 H 0.64119 0.60265 0.13311 0.0
H1139 H 0.65118 0.59036 0.12583 0.0
H1140 H 0.6434 0.58893 0.15234 0.0
H1141 H 0.59271 0.56806 0.07367 0.0
H1142 H 0.57935 0.54445 0.07679 0.0
H1143 H 0.60222 0.55495 0.06825 0.0
C1144 C 0.39829 0.02145 0.07962 0.0
C1145 C 0.38951 0.0033 0.07535 0.0
C1146 C 0.4123 0.02936 0.09458 0.0
C1147 C 0.41765 0.01887 0.10538 0.0
C1148 C 0.40874 0.00055 0.10122 0.0
C1149 C 0.39481 0.99302 0.08634 0.0
C1150 C 0.42146 0.04892 0.09871 0.0
C1151 C 0.41403 0.98886 0.11233 0.0
C1152 C 0.46373 0.03628 0.12916 0.0
C1153 C 0.46009 0.03499 0.15073 0.0
C1154 C 0.45028 0.03224 0.11412 0.0
C1155 C 0.43277 0.0268 0.1208 0.0
C1156 C 0.42931 0.0266 0.14253 0.0
C1157 C 0.44301 0.03064 0.15724 0.0
C1158 C 0.45452 0.03256 0.09111 0.0
C1159 C 0.41088 0.02103 0.15031 0.0
H1160 H 0.39427 0.02949 0.07125 0.0
H1161 H 0.38815 0.97899 0.08322 0.0
H1162 H 0.4208 0.05133 0.11568 0.0
H1163 H 0.43584 0.05551 0.09464 0.0
H1164 H 0.41536 0.05514 0.08952 0.0
H1165 H 0.40564 0.97483 0.10739 0.0
H1166 H 0.42824 0.99351 0.10906 0.0
H1167 H 0.4128 0.9896 0.12958 0.0
H1168 H 0.47685 0.03949 0.124 0.0
H1169 H 0.4402 0.0299 0.1739 0.0
H1170 H 0.44912 0.03935 0.08179 0.0
H1171 H 0.44803 0.01883 0.08514 0.0
H1172 H 0.46915 0.03925 0.08837 0.0
H1173 H 0.40524 0.02774 0.14125 0.0
H1174 H 0.41099 0.02398 0.16728 0.0
H1175 H 0.40178 0.00662 0.14792 0.0
C1176 C 0.37546 0.96773 0.96839 0.0
C1177 C 0.36475 0.97499 0.97093 0.0
C1178 C 0.38313 0.96836 0.94896 0.0
C1179 C 0.3795 0.97591 0.93142 0.0
C1180 C 0.36806 0.9826 0.93365 0.0
C1181 C 0.36109 0.98238 0.95354 0.0
C1182 C 0.39563 0.9615 0.94743 0.0
C1183 C 0.36335 0.99013 0.91513 0.0
C1184 C 0.41573 0.9928 0.89045 0.0
C1185 C 0.40977 0.97772 0.87792 0.0
C1186 C 0.40553 0.99277 0.90728 0.0
C1187 C 0.38859 0.97754 0.91119 0.0
C1188 C 0.38165 0.96298 0.89728 0.0
C1189 C 0.39243 0.96312 0.881 0.0
C1190 C 0.41359 0.0085 0.9219 0.0
C1191 C 0.36335 0.94676 0.90044 0.0
H1192 H 0.37843 0.96215 0.98187 0.0
H1193 H 0.35269 0.98788 0.95547 0.0
H1194 H 0.39054 0.95083 0.93551 0.0
H1195 H 0.40903 0.97224 0.94224 0.0
H1196 H 0.39722 0.95626 0.96264 0.0
H1197 H 0.35271 0.99289 0.91895 0.0
H1198 H 0.37538 0.0026 0.90999 0.0
H1199 H 0.35877 0.98083 0.90164 0.0
H1200 H 0.42882 0.00441 0.88776 0.0
H1201 H 0.38757 0.95136 0.8715 0.0
H1202 H 0.41666 0.00474 0.93732 0.0
H1203 H 0.40396 0.01277 0.92476 0.0
H1204 H 0.42613 0.01988 0.91562 0.0
H1205 H 0.36391 0.93889 0.91367 0.0
H1206 H 0.35852 0.93827 0.88619 0.0
H1207 H 0.35347 0.95048 0.90455 0.0
C1208 C 0.01259 0.39033 0.94983 0.0
C1209 C 0.00021 0.38943 0.96433 0.0
C1210 C 0.01767 0.40172 0.93239 0.0
C1211 C 0.01045 0.41264 0.92979 0.0
C1212 C 0.99873 0.41242 0.94509 0.0
C1213 C 0.9936 0.40069 0.96201 0.0
C1214 C 0.02999 0.40141 0.91625 0.0
C1215 C 0.99103 0.42413 0.94321 0.0
C1216 C 0.02902 0.45212 0.8933 0.0
C1217 C 0.01585 0.44556 0.87749 0.0
C1218 C 0.02813 0.44124 0.90992 0.0
C1219 C 0.01388 0.42338 0.91044 0.0
C1220 C 0.00132 0.41645 0.8936 0.0
C1221 C 0.00233 0.42771 0.87745 0.0
C1222 C 0.04163 0.44919 0.92767 0.0
C1223 C 0.98612 0.39742 0.89332 0.0
H1224 H 0.01763 0.38155 0.95156 0.0
H1225 H 0.98418 0.40015 0.97335 0.0
H1226 H 0.02238 0.39546 0.90146 0.0
H1227 H 0.04096 0.41501 0.91251 0.0
H1228 H 0.03593 0.39365 0.92165 0.0
H1229 H 0.9834 0.42348 0.95738 0.0
H1230 H 0.00189 0.43804 0.94073 0.0
H1231 H 0.9819 0.42006 0.92936 0.0
H1232 H 0.03939 0.46601 0.89331 0.0
H1233 H 0.99219 0.42272 0.86512 0.0
H1234 H 0.0466 0.44042 0.93214 0.0
H1235 H 0.0351 0.45068 0.94169 0.0
H1236 H 0.05324 0.46237 0.92351 0.0
H1237 H 0.99113 0.38855 0.89706 0.0
H1238 H 0.97909 0.39353 0.87785 0.0
H1239 H 0.97626 0.39538 0.90553 0.0
C1240 C 0.6078 0.63063 0.9534 0.0
C1241 C 0.6147 0.61961 0.95611 0.0
C1242 C 0.59378 0.62625 0.93898 0.0
C1243 C 0.58648 0.61047 0.92714 0.0
C1244 C 0.59334 0.59929 0.9299 0.0
C1245 C 0.60736 0.60401 0.94428 0.0
C1246 C 0.58682 0.6385 0.93635 0.0
C1247 C 0.58588 0.58229 0.91766 0.0
C1248 C 0.53994 0.58689 0.90287 0.0
C1249 C 0.54381 0.59042 0.88144 0.0
C1250 C 0.55364 0.59422 0.91813 0.0
C1251 C 0.57162 0.60538 0.91179 0.0
C1252 C 0.57548 0.60987 0.8903 0.0
C1253 C 0.56152 0.60229 0.87537 0.0
C1254 C 0.54897 0.58906 0.94086 0.0
C1255 C 0.59445 0.62185 0.88292 0.0
H1256 H 0.6134 0.64272 0.96243 0.0
H1257 H 0.61253 0.59537 0.94628 0.0
H1258 H 0.58832 0.64297 0.91978 0.0
H1259 H 0.57232 0.6314 0.93995 0.0
H1260 H 0.59395 0.65028 0.94671 0.0
H1261 H 0.59264 0.57501 0.92179 0.0
H1262 H 0.57135 0.57357 0.92073 0.0
H1263 H 0.5874 0.58511 0.90055 0.0
H1264 H 0.5263 0.57761 0.90765 0.0
H1265 H 0.56453 0.60526 0.85884 0.0
H1266 H 0.55574 0.60088 0.95116 0.0
H1267 H 0.55375 0.58021 0.94571 0.0
H1268 H 0.53431 0.5821 0.94354 0.0
H1269 H 0.60145 0.63393 0.89277 0.0
H1270 H 0.59498 0.62578 0.86622 0.0
H1271 H 0.60192 0.61497 0.88457 0.0
C1272 C 0.04512 0.62912 0.9514 0.0
C1273 C 0.03836 0.64033 0.95191 0.0
C1274 C 0.04162 0.61789 0.93424 0.0
C1275 C 0.03169 0.61835 0.9168 0.0
C1276 C 0.02569 0.63038 0.91673 0.0
C1277 C 0.02876 0.64097 0.93452 0.0
C1278 C 0.0478 0.6049 0.93527 0.0
C1279 C 0.01571 0.63178 0.89808 0.0
C1280 C 0.03514 0.59523 0.86867 0.0
C1281 C 0.01921 0.57863 0.8698 0.0
C1282 C 0.03884 0.60874 0.88301 0.0
C1283 C 0.02668 0.60539 0.8994 0.0
C1284 C 0.01034 0.58895 0.90025 0.0
C1285 C 0.00664 0.57596 0.88519 0.0
C1286 C 0.05611 0.62634 0.88109 0.0
C1287 C 0.99714 0.58469 0.91774 0.0
H1288 H 0.05236 0.62846 0.96495 0.0
H1289 H 0.0236 0.6497 0.93488 0.0
H1290 H 0.03603 0.59123 0.93447 0.0
H1291 H 0.05637 0.60672 0.92163 0.0
H1292 H 0.05547 0.60632 0.94992 0.0
H1293 H 0.01409 0.64333 0.89933 0.0
H1294 H 0.02287 0.63289 0.88331 0.0
H1295 H 0.00223 0.61967 0.89685 0.0
H1296 H 0.04512 0.59758 0.85709 0.0
H1297 H 0.99399 0.56351 0.88588 0.0
H1298 H 0.06556 0.62768 0.89372 0.0
H1299 H 0.05365 0.6373 0.88301 0.0
H1300 H 0.06262 0.62783 0.86569 0.0
H1301 H 0.00353 0.58516 0.93308 0.0
H1302 H 0.98486 0.57142 0.91588 0.0
H1303 H 0.99318 0.59465 0.91832 0.0
C1304 C 0.36074 0.41477 0.95558 0.0
C1305 C 0.3646 0.40212 0.96248 0.0
C1306 C 0.36903 0.42511 0.93777 0.0
C1307 C 0.38184 0.42305 0.92692 0.0
C1308 C 0.38523 0.40976 0.93328 0.0
C1309 C 0.3764 0.3993 0.95089 0.0
C1310 C 0.36472 0.43883 0.93121 0.0
C1311 C 0.399 0.40735 0.92232 0.0
C1312 C 0.39804 0.44565 0.87387 0.0
C1313 C 0.4132 0.46175 0.87988 0.0
C1314 C 0.38771 0.43278 0.88897 0.0
C1315 C 0.39295 0.43601 0.91042 0.0
C1316 C 0.40857 0.45208 0.9164 0.0
C1317 C 0.41838 0.46483 0.90107 0.0
C1318 C 0.37097 0.41597 0.88207 0.0
C1319 C 0.41482 0.45592 0.93904 0.0
H1320 H 0.35147 0.41686 0.96439 0.0
H1321 H 0.37948 0.38958 0.95624 0.0
H1322 H 0.37639 0.45221 0.93456 0.0
H1323 H 0.362 0.43802 0.91405 0.0
H1324 H 0.35295 0.43731 0.93964 0.0
H1325 H 0.39878 0.39535 0.92779 0.0
H1326 H 0.39677 0.40644 0.90506 0.0
H1327 H 0.41255 0.419 0.92541 0.0
H1328 H 0.39405 0.44335 0.85744 0.0
H1329 H 0.43025 0.47721 0.90563 0.0
H1330 H 0.3591 0.41512 0.88939 0.0
H1331 H 0.37143 0.40433 0.88747 0.0
H1332 H 0.3691 0.4152 0.86472 0.0
H1333 H 0.40469 0.45657 0.94866 0.0
H1334 H 0.42782 0.46857 0.94086 0.0
H1335 H 0.41628 0.44512 0.94549 0.0
C1336 C 0.60343 0.00286 0.94348 0.0
C1337 C 0.60783 0.99238 0.95555 0.0
C1338 C 0.589 0.9953 0.92927 0.0
C1339 C 0.57864 0.97674 0.92693 0.0
C1340 C 0.58328 0.96605 0.93853 0.0
C1341 C 0.59783 0.974 0.95276 0.0
C1342 C 0.58455 0.00722 0.9172 0.0
C1343 C 0.5726 0.94622 0.93633 0.0
C1344 C 0.53189 0.9621 0.90789 0.0
C1345 C 0.53367 0.96162 0.88607 0.0
C1346 C 0.54604 0.96565 0.92159 0.0
C1347 C 0.56237 0.96879 0.91324 0.0
C1348 C 0.56373 0.96691 0.89136 0.0
C1349 C 0.54934 0.96335 0.87799 0.0
C1350 C 0.54395 0.96741 0.94482 0.0
C1351 C 0.58086 0.97002 0.88186 0.0
H1352 H 0.61111 0.01708 0.94536 0.0
H1353 H 0.60116 0.96579 0.96196 0.0
H1354 H 0.58416 0.00473 0.90007 0.0
H1355 H 0.57107 0.00434 0.92168 0.0
H1356 H 0.59438 0.02143 0.9202 0.0
H1357 H 0.57891 0.93991 0.94492 0.0
H1358 H 0.55894 0.94091 0.94257 0.0
H1359 H 0.57111 0.9424 0.9195 0.0
H1360 H 0.51966 0.96044 0.91421 0.0
H1361 H 0.55079 0.96302 0.86112 0.0
H1362 H 0.55211 0.98153 0.94941 0.0
H1363 H 0.5489 0.96021 0.95414 0.0
H1364 H 0.5298 0.96233 0.94908 0.0
H1365 H 0.59097 0.98437 0.88187 0.0
H1366 H 0.57881 0.96515 0.8654 0.0
H1367 H 0.58644 0.96345 0.8913 0.0
C1368 C 0.63708 0.03897 0.06749 0.0
C1369 C 0.63255 0.02267 0.05876 0.0
C1370 C 0.62891 0.03984 0.08592 0.0
C1371 C 0.61561 0.02403 0.09557 0.0
C1372 C 0.61154 0.00755 0.08734 0.0
C1373 C 0.62021 0.00707 0.06913 0.0
C1374 C 0.63392 0.05768 0.09448 0.0
C1375 C 0.59725 0.9904 0.09697 0.0
C1376 C 0.59942 0.02636 0.15009 0.0
C1377 C 0.58463 0.02779 0.14507 0.0
C1378 C 0.60968 0.02506 0.13416 0.0
C1379 C 0.60471 0.02479 0.11283 0.0
C1380 C 0.58945 0.02573 0.1078 0.0
C1381 C 0.57971 0.02741 0.12398 0.0
C1382 C 0.62604 0.02439 0.14011 0.0
C1383 C 0.58347 0.02514 0.08529 0.0
H1384 H 0.64675 0.05107 0.05965 0.0
H1385 H 0.61661 0.99443 0.06242 0.0
H1386 H 0.62262 0.05979 0.09201 0.0
H1387 H 0.63655 0.05833 0.11166 0.0
H1388 H 0.64596 0.06861 0.08672 0.0
H1389 H 0.5969 0.97879 0.09 0.0
H1390 H 0.59941 0.99044 0.11419 0.0
H1391 H 0.58395 0.98889 0.09449 0.0
H1392 H 0.60322 0.02673 0.16645 0.0
H1393 H 0.56812 0.02831 0.12016 0.0
H1394 H 0.63816 0.03605 0.13354 0.0
H1395 H 0.62512 0.0125 0.13324 0.0
H1396 H 0.62779 0.02422 0.15741 0.0
H1397 H 0.59397 0.03674 0.07659 0.0
H1398 H 0.57079 0.02509 0.08413 0.0
H1399 H 0.58152 0.01316 0.07733 0.0
C1400 C 0.00126 0.61722 0.06253 0.0
C1401 C 0.01958 0.62821 0.05828 0.0
C1402 C 0.99533 0.60459 0.0787 0.0
C1403 C 0.00803 0.60292 0.0908 0.0
C1404 C 0.02653 0.61435 0.087 0.0
C1405 C 0.03205 0.62683 0.07085 0.0
C1406 C 0.9755 0.5927 0.08243 0.0
C1407 C 0.04053 0.61302 0.09954 0.0
C1408 C 0.99893 0.57913 0.14309 0.0
C1409 C 0.99814 0.56359 0.13703 0.0
C1410 C 0.00096 0.59166 0.12803 0.0
C1411 C 0.00224 0.58852 0.10649 0.0
C1412 C 0.00026 0.57233 0.10024 0.0
C1413 C 0.99822 0.56007 0.11558 0.0
C1414 C 0.00288 0.6087 0.1353 0.0
C1415 C 0.00145 0.5684 0.07744 0.0
H1416 H 0.99152 0.61825 0.05297 0.0
H1417 H 0.04625 0.63532 0.06785 0.0
H1418 H 0.97116 0.57895 0.07807 0.0
H1419 H 0.97251 0.59267 0.09934 0.0
H1420 H 0.96747 0.59679 0.07311 0.0
H1421 H 0.05438 0.62345 0.09528 0.0
H1422 H 0.03873 0.61406 0.11659 0.0
H1423 H 0.03896 0.59997 0.0968 0.0
H1424 H 0.99888 0.58192 0.15965 0.0
H1425 H 0.99721 0.54789 0.11081 0.0
H1426 H 0.99463 0.61209 0.12535 0.0
H1427 H 0.01704 0.61958 0.13377 0.0
H1428 H 0.9989 0.60802 0.15197 0.0
H1429 H 0.99255 0.57096 0.06753 0.0
H1430 H 0.99776 0.55453 0.07499 0.0
H1431 H 0.01535 0.57727 0.07189 0.0
C1432 C 0.39444 0.40111 0.07609 0.0
C1433 C 0.38678 0.38594 0.06342 0.0
C1434 C 0.40843 0.40502 0.09018 0.0
C1435 C 0.41494 0.39345 0.0918 0.0
C1436 C 0.40695 0.37784 0.07956 0.0
C1437 C 0.39297 0.37428 0.06544 0.0
C1438 C 0.4166 0.42185 0.10292 0.0
C1439 C 0.41344 0.36514 0.08101 0.0
C1440 C 0.46296 0.41803 0.1108 0.0
C1441 C 0.46081 0.41545 0.13258 0.0
C1442 C 0.4482 0.40974 0.09707 0.0
C1443 C 0.43088 0.39857 0.10534 0.0
C1444 C 0.42884 0.39467 0.12712 0.0
C1445 C 0.44388 0.4032 0.14054 0.0
C1446 C 0.45101 0.41419 0.07395 0.0
C1447 C 0.41062 0.38266 0.13651 0.0
H1448 H 0.38973 0.41017 0.07476 0.0
H1449 H 0.38707 0.36249 0.0558 0.0
H1450 H 0.41626 0.41886 0.11991 0.0
H1451 H 0.43085 0.43068 0.09859 0.0
H1452 H 0.40954 0.42907 0.10039 0.0
H1453 H 0.40473 0.35281 0.072 0.0
H1454 H 0.42723 0.37149 0.07479 0.0
H1455 H 0.41399 0.36168 0.09767 0.0
H1456 H 0.47611 0.42728 0.1046 0.0
H1457 H 0.44217 0.40118 0.15738 0.0
H1458 H 0.44582 0.42287 0.06989 0.0
H1459 H 0.44351 0.40208 0.06425 0.0
H1460 H 0.46539 0.42112 0.06967 0.0
H1461 H 0.40327 0.3897 0.13717 0.0
H1462 H 0.4116 0.37849 0.1527 0.0
H1463 H 0.4026 0.37074 0.12661 0.0
C1464 C 0.6132 0.69881 0.41504 0.0
C1465 C 0.62864 0.70115 0.40545 0.0
C1466 C 0.61442 0.70884 0.43269 0.0
C1467 C 0.6315 0.72179 0.44062 0.0
C1468 C 0.6471 0.72377 0.43147 0.0
C1469 C 0.64548 0.7133 0.41414 0.0
C1470 C 0.59746 0.70606 0.44231 0.0
C1471 C 0.66556 0.73763 0.43923 0.0
C1472 C 0.63516 0.76187 0.46667 0.0
C1473 C 0.63667 0.75875 0.48797 0.0
C1474 C 0.63356 0.74997 0.45116 0.0
C1475 C 0.63309 0.73437 0.45713 0.0
C1476 C 0.63439 0.73104 0.47868 0.0
C1477 C 0.63639 0.74341 0.49387 0.0
C1478 C 0.63258 0.75421 0.42834 0.0
C1479 C 0.63359 0.7144 0.48565 0.0
H1480 H 0.60014 0.68933 0.40852 0.0
H1481 H 0.65748 0.71524 0.40677 0.0
H1482 H 0.59784 0.70474 0.45963 0.0
H1483 H 0.5963 0.7177 0.4391 0.0
H1484 H 0.58531 0.69414 0.43593 0.0
H1485 H 0.67628 0.73662 0.43145 0.0
H1486 H 0.66785 0.75094 0.43612 0.0
H1487 H 0.66672 0.73648 0.45646 0.0
H1488 H 0.6356 0.77385 0.46212 0.0
H1489 H 0.63748 0.74099 0.51037 0.0
H1490 H 0.61983 0.74371 0.42115 0.0
H1491 H 0.64365 0.75464 0.41951 0.0
H1492 H 0.63345 0.76705 0.42634 0.0
H1493 H 0.62098 0.70267 0.47989 0.0
H1494 H 0.63428 0.71355 0.50303 0.0
H1495 H 0.64482 0.71379 0.47873 0.0
C1496 C 0.30311 0.94425 0.4163 0.0
C1497 C 0.29888 0.93491 0.39728 0.0
C1498 C 0.29622 0.93535 0.43544 0.0
C1499 C 0.28443 0.9168 0.43536 0.0
C1500 C 0.2803 0.90734 0.4162 0.0
C1501 C 0.28776 0.91648 0.39748 0.0
C1502 C 0.30133 0.9458 0.45564 0.0
C1503 C 0.2675 0.88758 0.41534 0.0
C1504 C 0.2712 0.88579 0.48184 0.0
C1505 C 0.25394 0.88237 0.48584 0.0
C1506 C 0.28206 0.89823 0.46662 0.0
C1507 C 0.27533 0.90714 0.45489 0.0
C1508 C 0.25851 0.90471 0.45999 0.0
C1509 C 0.24815 0.89255 0.4756 0.0
C1510 C 0.30018 0.90089 0.46209 0.0
C1511 C 0.25073 0.91381 0.44777 0.0
H1512 H 0.31184 0.95849 0.41623 0.0
H1513 H 0.28435 0.9092 0.38281 0.0
H1514 H 0.28948 0.94551 0.46212 0.0
H1515 H 0.30586 0.93979 0.46757 0.0
H1516 H 0.31212 0.95979 0.45331 0.0
H1517 H 0.26579 0.88222 0.39917 0.0
H1518 H 0.27237 0.88088 0.4257 0.0
H1519 H 0.25418 0.88422 0.42116 0.0
H1520 H 0.27585 0.87805 0.48968 0.0
H1521 H 0.23507 0.89041 0.47907 0.0
H1522 H 0.31027 0.91508 0.45971 0.0
H1523 H 0.29939 0.89382 0.4474 0.0
H1524 H 0.30485 0.89576 0.475 0.0
H1525 H 0.26062 0.92816 0.44656 0.0
H1526 H 0.23837 0.9119 0.45506 0.0
H1527 H 0.2474 0.90843 0.43154 0.0
C1528 C 0.0518 0.34296 0.42676 0.0
C1529 C 0.05504 0.34603 0.40521 0.0
C1530 C 0.06601 0.34956 0.44129 0.0
C1531 C 0.08385 0.35877 0.43393 0.0
C1532 C 0.08715 0.36289 0.41226 0.0
C1533 C 0.07262 0.35663 0.39814 0.0
C1534 C 0.0619 0.3454 0.46431 0.0
C1535 C 0.10591 0.3723 0.40366 0.0
C1536 C 0.12303 0.37864 0.47284 0.0
C1537 C 0.12594 0.36462 0.47548 0.0
C1538 C 0.1093 0.37698 0.45951 0.0
C1539 C 0.09856 0.36113 0.44812 0.0
C1540 C 0.10153 0.34703 0.45056 0.0
C1541 C 0.11486 0.34882 0.46447 0.0
C1542 C 0.10617 0.3921 0.45775 0.0
C1543 C 0.09054 0.32993 0.43854 0.0
H1544 H 0.03813 0.33474 0.43214 0.0
H1545 H 0.07505 0.35879 0.3814 0.0
H1546 H 0.0639 0.33448 0.46881 0.0
H1547 H 0.07107 0.357 0.47418 0.0
H1548 H 0.04786 0.3413 0.46789 0.0
H1549 H 0.1064 0.37688 0.38727 0.0
H1550 H 0.11512 0.3838 0.4136 0.0
H1551 H 0.11093 0.36314 0.4038 0.0
H1552 H 0.13154 0.39098 0.48105 0.0
H1553 H 0.11645 0.33764 0.46681 0.0
H1554 H 0.09218 0.38756 0.46214 0.0
H1555 H 0.10792 0.39675 0.44125 0.0
H1556 H 0.11543 0.40341 0.46799 0.0
H1557 H 0.07636 0.32319 0.44349 0.0
H1558 H 0.09541 0.32077 0.44109 0.0
H1559 H 0.09087 0.33263 0.42145 0.0
C1560 C 0.04252 0.29887 0.30547 0.0
C1561 C 0.03196 0.30645 0.30553 0.0
C1562 C 0.05034 0.29775 0.28689 0.0
C1563 C 0.0471 0.30392 0.26779 0.0
C1564 C 0.03573 0.3108 0.26757 0.0
C1565 C 0.02852 0.31225 0.28654 0.0
C1566 C 0.0627 0.29068 0.2879 0.0
C1567 C 0.03152 0.31697 0.24741 0.0
C1568 C 0.08388 0.31874 0.22771 0.0
C1569 C 0.07788 0.30326 0.21597 0.0
C1570 C 0.07367 0.31934 0.24412 0.0
C1571 C 0.05673 0.30427 0.24851 0.0
C1572 C 0.04992 0.28909 0.23566 0.0
C1573 C 0.06066 0.28867 0.2197 0.0
C1574 C 0.08154 0.33576 0.25757 0.0
C1575 C 0.03167 0.27295 0.23945 0.0
H1576 H 0.04531 0.29447 0.32014 0.0
H1577 H 0.02022 0.31799 0.28652 0.0
H1578 H 0.05806 0.27951 0.27679 0.0
H1579 H 0.07636 0.30113 0.28309 0.0
H1580 H 0.06352 0.2861 0.30392 0.0
H1581 H 0.02086 0.32005 0.2495 0.0
H1582 H 0.04373 0.32901 0.24169 0.0
H1583 H 0.02718 0.30674 0.23502 0.0
H1584 H 0.09691 0.33028 0.22455 0.0
H1585 H 0.05585 0.2766 0.21084 0.0
H1586 H 0.08382 0.33264 0.2738 0.0
H1587 H 0.07208 0.34045 0.2586 0.0
H1588 H 0.09448 0.34665 0.25141 0.0
H1589 H 0.0321 0.26618 0.25393 0.0
H1590 H 0.02718 0.26344 0.22617 0.0
H1591 H 0.0216 0.27674 0.24185 0.0
C1592 C 0.64 0.71728 0.28619 0.0
C1593 C 0.65144 0.71445 0.29893 0.0
C1594 C 0.64665 0.72945 0.26965 0.0
C1595 C 0.66526 0.73913 0.26567 0.0
C1596 C 0.67689 0.73606 0.27807 0.0
C1597 C 0.66983 0.72373 0.29459 0.0
C1598 C 0.63376 0.73228 0.25679 0.0
C1599 C 0.6968 0.74611 0.27425 0.0
C1600 C 0.67644 0.76176 0.21246 0.0
C1601 C 0.679 0.77821 0.21779 0.0
C1602 C 0.67311 0.74918 0.22807 0.0
C1603 C 0.6724 0.75324 0.24943 0.0
C1604 C 0.67625 0.7703 0.25493 0.0
C1605 C 0.67947 0.78255 0.23905 0.0
C1606 C 0.66916 0.73118 0.22158 0.0
C1607 C 0.67579 0.77525 0.2775 0.0
H1608 H 0.62575 0.7101 0.28926 0.0
H1609 H 0.67877 0.72159 0.30429 0.0
H1610 H 0.63692 0.746 0.25897 0.0
H1611 H 0.6352 0.73051 0.23982 0.0
H1612 H 0.61959 0.72308 0.26124 0.0
H1613 H 0.7038 0.74113 0.28403 0.0
H1614 H 0.6995 0.74523 0.25744 0.0
H1615 H 0.70256 0.76028 0.27791 0.0
H1616 H 0.67607 0.75838 0.19603 0.0
H1617 H 0.68179 0.7954 0.24322 0.0
H1618 H 0.65463 0.72143 0.2233 0.0
H1619 H 0.67644 0.72685 0.23188 0.0
H1620 H 0.67287 0.73096 0.20498 0.0
H1621 H 0.66178 0.76783 0.28314 0.0
H1622 H 0.68111 0.78958 0.27937 0.0
H1623 H 0.68369 0.77162 0.28774 0.0
C1624 C 0.26707 0.94116 0.28695 0.0
C1625 C 0.27614 0.95635 0.29952 0.0
C1626 C 0.25313 0.93832 0.27342 0.0
C1627 C 0.24811 0.95106 0.27218 0.0
C1628 C 0.25743 0.96666 0.28441 0.0
C1629 C 0.27131 0.96909 0.29808 0.0
C1630 C 0.24351 0.92142 0.26076 0.0
C1631 C 0.25256 0.98061 0.28331 0.0
C1632 C 0.21985 0.94189 0.22326 0.0
C1633 C 0.2028 0.92999 0.2312 0.0
C1634 C 0.23477 0.95062 0.23682 0.0
C1635 C 0.23249 0.94724 0.25871 0.0
C1636 C 0.21501 0.93682 0.2669 0.0
C1637 C 0.20036 0.92835 0.25302 0.0
C1638 C 0.25313 0.96193 0.22749 0.0
C1639 C 0.2119 0.93294 0.29011 0.0
H1640 H 0.27067 0.93121 0.28789 0.0
H1641 H 0.2783 0.98091 0.30766 0.0
H1642 H 0.22915 0.91371 0.26506 0.0
H1643 H 0.2442 0.92448 0.24374 0.0
H1644 H 0.24925 0.91299 0.26333 0.0
H1645 H 0.26235 0.9928 0.29193 0.0
H1646 H 0.2518 0.98406 0.2667 0.0
H1647 H 0.23914 0.97542 0.29021 0.0
H1648 H 0.2218 0.94326 0.2064 0.0
H1649 H 0.18711 0.91943 0.25921 0.0
H1650 H 0.25975 0.95419 0.22667 0.0
H1651 H 0.26166 0.97369 0.23744 0.0
H1652 H 0.25242 0.96635 0.21134 0.0
H1653 H 0.21569 0.92322 0.29455 0.0
H1654 H 0.19765 0.92736 0.29429 0.0
H1655 H 0.22034 0.94504 0.29956 0.0
C1656 C 0.72014 0.9704 0.28342 0.0
C1657 C 0.70546 0.97096 0.29098 0.0
C1658 C 0.71844 0.96033 0.26563 0.0
C1659 C 0.70164 0.95048 0.25527 0.0
C1660 C 0.68706 0.9518 0.26209 0.0
C1661 C 0.68916 0.96208 0.2798 0.0
C1662 C 0.73437 0.95944 0.25866 0.0
C1663 C 0.6689 0.94145 0.25152 0.0
C1664 C 0.6976 0.92854 0.2025 0.0
C1665 C 0.69219 0.9113 0.20874 0.0
C1666 C 0.70093 0.94156 0.21744 0.0
C1667 C 0.69869 0.93718 0.23907 0.0
C1668 C 0.69334 0.91984 0.24544 0.0
C1669 C 0.69029 0.9072 0.23024 0.0
C1670 C 0.70674 0.95995 0.2101 0.0
C1671 C 0.69078 0.91461 0.26836 0.0
H1672 H 0.73283 0.97735 0.29182 0.0
H1673 H 0.67776 0.9625 0.28542 0.0
H1674 H 0.73212 0.94624 0.2624 0.0
H1675 H 0.73605 0.96123 0.24139 0.0
H1676 H 0.74698 0.96959 0.26653 0.0
H1677 H 0.65954 0.94539 0.2572 0.0
H1678 H 0.67016 0.94324 0.23423 0.0
H1679 H 0.66294 0.92717 0.25472 0.0
H1680 H 0.69902 0.93181 0.18592 0.0
H1681 H 0.68656 0.89405 0.23528 0.0
H1682 H 0.7196 0.9697 0.2178 0.0
H1683 H 0.69669 0.96329 0.21474 0.0
H1684 H 0.70843 0.96138 0.19278 0.0
H1685 H 0.70347 0.92291 0.27721 0.0
H1686 H 0.68643 0.90053 0.27066 0.0
H1687 H 0.68058 0.91687 0.27529 0.0
C1688 C 0.01956 0.74273 0.29974 0.0
C1689 C 0.02323 0.72956 0.30477 0.0
C1690 C 0.02738 0.75369 0.28224 0.0
C1691 C 0.03945 0.75166 0.26974 0.0
C1692 C 0.0424 0.73773 0.27404 0.0
C1693 C 0.03411 0.72672 0.29141 0.0
C1694 C 0.02357 0.76814 0.27793 0.0
C1695 C 0.05535 0.73527 0.26125 0.0
C1696 C 0.05711 0.77731 0.21861 0.0
C1697 C 0.07334 0.79206 0.22543 0.0
C1698 C 0.04574 0.76408 0.23285 0.0
C1699 C 0.05087 0.76557 0.25429 0.0
C1700 C 0.06711 0.78052 0.26127 0.0
C1701 C 0.07799 0.79363 0.24684 0.0
C1702 C 0.02836 0.74847 0.22496 0.0
C1703 C 0.07312 0.78263 0.28399 0.0
H1704 H 0.01095 0.74482 0.30985 0.0
H1705 H 0.03699 0.71655 0.29523 0.0
H1706 H 0.03544 0.78108 0.28237 0.0
H1707 H 0.02094 0.76869 0.26093 0.0
H1708 H 0.01191 0.76626 0.28695 0.0
H1709 H 0.05455 0.72265 0.26497 0.0
H1710 H 0.05277 0.73556 0.2442 0.0
H1711 H 0.06922 0.7463 0.26455 0.0
H1712 H 0.05344 0.77594 0.2021 0.0
H1713 H 0.09023 0.80519 0.25241 0.0
H1714 H 0.017 0.74708 0.23415 0.0
H1715 H 0.02851 0.73617 0.22722 0.0
H1716 H 0.02591 0.74968 0.20804 0.0
H1717 H 0.06317 0.78305 0.29421 0.0
H1718 H 0.08637 0.79483 0.28672 0.0
H1719 H 0.07401 0.77113 0.28898 0.0
C1720 C 0.27302 0.33667 0.27861 0.0
C1721 C 0.27873 0.32715 0.29051 0.0
C1722 C 0.25864 0.32818 0.26441 0.0
C1723 C 0.24966 0.30965 0.26193 0.0
C1724 C 0.25562 0.29995 0.2734 0.0
C1725 C 0.27009 0.30882 0.28761 0.0
C1726 C 0.25275 0.33906 0.25248 0.0
C1727 C 0.24643 0.28019 0.27105 0.0
C1728 C 0.2022 0.29153 0.24289 0.0
C1729 C 0.20418 0.29151 0.22105 0.0
C1730 C 0.21661 0.29602 0.25658 0.0
C1731 C 0.23341 0.30062 0.24822 0.0
C1732 C 0.23506 0.29915 0.22629 0.0
C1733 C 0.22038 0.2946 0.21293 0.0
C1734 C 0.21421 0.29728 0.27985 0.0
C1735 C 0.25269 0.30377 0.21677 0.0
H1736 H 0.27964 0.35084 0.28059 0.0
H1737 H 0.27444 0.30136 0.29667 0.0
H1738 H 0.25263 0.33679 0.23534 0.0
H1739 H 0.23889 0.33496 0.25697 0.0
H1740 H 0.26159 0.35342 0.25561 0.0
H1741 H 0.25368 0.27481 0.27956 0.0
H1742 H 0.23264 0.2738 0.27729 0.0
H1743 H 0.24527 0.27654 0.2542 0.0
H1744 H 0.18957 0.28883 0.24923 0.0
H1745 H 0.22197 0.29462 0.19605 0.0
H1746 H 0.22126 0.31137 0.28458 0.0
H1747 H 0.22017 0.29095 0.28906 0.0
H1748 H 0.19987 0.29099 0.2841 0.0
H1749 H 0.26186 0.31832 0.21683 0.0
H1750 H 0.25103 0.29902 0.20029 0.0
H1751 H 0.2592 0.29807 0.22616 0.0
C1752 C 0.29506 0.34255 0.40659 0.0
C1753 C 0.30396 0.35792 0.39439 0.0
C1754 C 0.28649 0.3422 0.42528 0.0
C1755 C 0.28701 0.35763 0.43197 0.0
C1756 C 0.29708 0.3735 0.42052 0.0
C1757 C 0.30535 0.37343 0.40181 0.0
C1758 C 0.27584 0.32501 0.43703 0.0
C1759 C 0.29816 0.3903 0.42726 0.0
C1760 C 0.2466 0.35268 0.45962 0.0
C1761 C 0.2524 0.35615 0.48066 0.0
C1762 C 0.25762 0.35275 0.44382 0.0
C1763 C 0.27506 0.35665 0.44905 0.0
C1764 C 0.28108 0.36015 0.47022 0.0
C1765 C 0.26965 0.35983 0.48582 0.0
C1766 C 0.25066 0.34894 0.42143 0.0
C1767 C 0.29963 0.36445 0.47632 0.0
H1768 H 0.29397 0.33052 0.40102 0.0
H1769 H 0.31243 0.38543 0.39262 0.0
H1770 H 0.27868 0.32709 0.45416 0.0
H1771 H 0.26133 0.31974 0.43469 0.0
H1772 H 0.27876 0.31494 0.43154 0.0
H1773 H 0.30841 0.40196 0.41834 0.0
H1774 H 0.28497 0.38899 0.42464 0.0
H1775 H 0.30137 0.39273 0.44428 0.0
H1776 H 0.2335 0.35026 0.45535 0.0
H1777 H 0.27419 0.3624 0.50205 0.0
H1778 H 0.25166 0.33793 0.41492 0.0
H1779 H 0.25896 0.36069 0.41147 0.0
H1780 H 0.2365 0.34539 0.42016 0.0
H1781 H 0.30167 0.35373 0.47114 0.0
H1782 H 0.30209 0.36633 0.49354 0.0
H1783 H 0.30978 0.37669 0.46825 0.0
C1784 C 0.66449 0.94735 0.40387 0.0
C1785 C 0.68222 0.95457 0.39725 0.0
C1786 C 0.65756 0.93516 0.42052 0.0
C1787 C 0.66859 0.93002 0.43068 0.0
C1788 C 0.68646 0.93724 0.42403 0.0
C1789 C 0.69304 0.94941 0.40748 0.0
C1790 C 0.63847 0.92778 0.42725 0.0
C1791 C 0.69866 0.93206 0.43436 0.0
C1792 C 0.66045 0.91076 0.48566 0.0
C1793 C 0.65381 0.8929 0.4814 0.0
C1794 C 0.66435 0.92287 0.4693 0.0
C1795 C 0.66164 0.91699 0.44817 0.0
C1796 C 0.6541 0.89883 0.44382 0.0
C1797 C 0.65026 0.887 0.46048 0.0
C1798 C 0.67221 0.94209 0.4746 0.0
C1799 C 0.65108 0.89202 0.42151 0.0
H1800 H 0.65604 0.95127 0.3961 0.0
H1801 H 0.70674 0.95485 0.40251 0.0
H1802 H 0.63073 0.91321 0.42554 0.0
H1803 H 0.63815 0.93074 0.44411 0.0
H1804 H 0.63169 0.93324 0.41791 0.0
H1805 H 0.7122 0.93887 0.42729 0.0
H1806 H 0.70011 0.93526 0.45138 0.0
H1807 H 0.69272 0.9176 0.43294 0.0
H1808 H 0.66297 0.91534 0.50182 0.0
H1809 H 0.6453 0.87326 0.45704 0.0
H1810 H 0.66506 0.94744 0.46584 0.0
H1811 H 0.68644 0.94978 0.46977 0.0
H1812 H 0.67156 0.94421 0.49169 0.0
H1813 H 0.64383 0.89698 0.41222 0.0
H1814 H 0.64334 0.87737 0.42082 0.0
H1815 H 0.66419 0.89695 0.41388 0.0
C1816 C 0.05527 0.70067 0.40502 0.0
C1817 C 0.04901 0.71229 0.40314 0.0
C1818 C 0.06943 0.70434 0.41889 0.0
C1819 C 0.0776 0.72006 0.43095 0.0
C1820 C 0.07116 0.73169 0.42929 0.0
C1821 C 0.05695 0.72763 0.4155 0.0
C1822 C 0.07583 0.69157 0.42043 0.0
C1823 C 0.07955 0.74867 0.44176 0.0
C1824 C 0.10616 0.73011 0.48001 0.0
C1825 C 0.12316 0.74231 0.47216 0.0
C1826 C 0.09124 0.7214 0.46644 0.0
C1827 C 0.09345 0.7251 0.44462 0.0
C1828 C 0.11084 0.73615 0.43648 0.0
C1829 C 0.1255 0.74458 0.45036 0.0
C1830 C 0.07295 0.70948 0.47571 0.0
C1831 C 0.11384 0.74041 0.41333 0.0
H1832 H 0.04916 0.68875 0.3956 0.0
H1833 H 0.05224 0.7367 0.41421 0.0
H1834 H 0.08975 0.69794 0.41462 0.0
H1835 H 0.07602 0.68791 0.43709 0.0
H1836 H 0.06726 0.67935 0.41117 0.0
H1837 H 0.07273 0.75609 0.43895 0.0
H1838 H 0.07908 0.74582 0.45882 0.0
H1839 H 0.09385 0.75726 0.4375 0.0
H1840 H 0.10427 0.7283 0.49685 0.0
H1841 H 0.1387 0.75376 0.44422 0.0
H1842 H 0.06495 0.69752 0.46587 0.0
H1843 H 0.06566 0.71659 0.47616 0.0
H1844 H 0.07382 0.70537 0.49198 0.0
H1845 H 0.10619 0.72827 0.40371 0.0
H1846 H 0.12822 0.74707 0.40918 0.0
H1847 H 0.10894 0.74929 0.40904 0.0
C1848 C 0.30788 0.03667 0.75446 0.0
C1849 C 0.29713 0.0361 0.73761 0.0
C1850 C 0.30934 0.04587 0.77303 0.0
C1851 C 0.30018 0.05504 0.77453 0.0
C1852 C 0.28912 0.05428 0.75767 0.0
C1853 C 0.28757 0.04466 0.73954 0.0
C1854 C 0.32092 0.04604 0.79088 0.0
C1855 C 0.27939 0.06415 0.75847 0.0
C1856 C 0.29189 0.07079 0.82617 0.0
C1857 C 0.30556 0.08862 0.82617 0.0
C1858 C 0.2905 0.05942 0.80998 0.0
C1859 C 0.3028 0.06622 0.79318 0.0
C1860 C 0.31687 0.08416 0.79341 0.0
C1861 C 0.31818 0.0951 0.81003 0.0
C1862 C 0.27557 0.04029 0.81053 0.0
C1863 C 0.33004 0.09201 0.7756 0.0
H1864 H 0.31521 0.02998 0.75311 0.0
H1865 H 0.27933 0.04438 0.72653 0.0
H1866 H 0.33258 0.05962 0.79321 0.0
H1867 H 0.31326 0.04205 0.80574 0.0
H1868 H 0.32595 0.03709 0.78794 0.0
H1869 H 0.27109 0.06197 0.74417 0.0
H1870 H 0.27059 0.05999 0.77239 0.0
H1871 H 0.28923 0.07851 0.76011 0.0
H1872 H 0.28219 0.06579 0.83874 0.0
H1873 H 0.32863 0.10895 0.80993 0.0
H1874 H 0.28096 0.03161 0.80789 0.0
H1875 H 0.2658 0.03764 0.7977 0.0
H1876 H 0.26836 0.03667 0.82572 0.0
H1877 H 0.33647 0.08427 0.77295 0.0
H1878 H 0.34068 0.10597 0.77864 0.0
H1879 H 0.32285 0.09144 0.76087 0.0
C1880 C 0.96259 0.27409 0.74187 0.0
C1881 C 0.96024 0.26497 0.723 0.0
C1882 C 0.95572 0.26491 0.76086 0.0
C1883 C 0.94603 0.24622 0.76085 0.0
C1884 C 0.94361 0.23699 0.74184 0.0
C1885 C 0.95084 0.24646 0.72323 0.0
C1886 C 0.95878 0.27518 0.78091 0.0
C1887 C 0.93314 0.21705 0.74106 0.0
C1888 C 0.93847 0.21796 0.80904 0.0
C1889 C 0.92063 0.21216 0.81374 0.0
C1890 C 0.94733 0.22999 0.79266 0.0
C1891 C 0.93801 0.23608 0.78049 0.0
C1892 C 0.92022 0.2308 0.78574 0.0
C1893 C 0.91178 0.21898 0.8024 0.0
C1894 C 0.9664 0.23553 0.78777 0.0
C1895 C 0.90972 0.23677 0.77297 0.0
H1896 H 0.96991 0.28839 0.74183 0.0
H1897 H 0.94884 0.23928 0.70872 0.0
H1898 H 0.94576 0.27194 0.78756 0.0
H1899 H 0.96551 0.27138 0.7928 0.0
H1900 H 0.96709 0.28967 0.77839 0.0
H1901 H 0.93237 0.2119 0.72496 0.0
H1902 H 0.93945 0.21184 0.75165 0.0
H1903 H 0.91932 0.21183 0.74671 0.0
H1904 H 0.94537 0.21283 0.81796 0.0
H1905 H 0.89793 0.21439 0.80587 0.0
H1906 H 0.97477 0.25006 0.78585 0.0
H1907 H 0.96673 0.22948 0.77271 0.0
H1908 H 0.97246 0.23145 0.80025 0.0
H1909 H 0.91753 0.25132 0.77108 0.0
H1910 H 0.89668 0.23283 0.78026 0.0
H1911 H 0.9071 0.23089 0.757 0.0
C1912 C 0.73829 0.67239 0.75361 0.0
C1913 C 0.73264 0.68207 0.74193 0.0
C1914 C 0.75226 0.6806 0.76838 0.0
C1915 C 0.76088 0.69902 0.77168 0.0
C1916 C 0.75522 0.70892 0.76011 0.0
C1917 C 0.74115 0.70033 0.74533 0.0
C1918 C 0.75788 0.66953 0.78037 0.0
C1919 C 0.76409 0.72858 0.76326 0.0
C1920 C 0.78623 0.71331 0.82358 0.0
C1921 C 0.80346 0.71784 0.81745 0.0
C1922 C 0.77245 0.70827 0.80867 0.0
C1923 C 0.77597 0.70769 0.78711 0.0
C1924 C 0.79359 0.7133 0.78071 0.0
C1925 C 0.80712 0.7183 0.79596 0.0
C1926 C 0.75388 0.70253 0.81612 0.0
C1927 C 0.79792 0.71286 0.75789 0.0
H1928 H 0.73183 0.65828 0.75117 0.0
H1929 H 0.73688 0.70792 0.73641 0.0
H1930 H 0.77214 0.67432 0.77724 0.0
H1931 H 0.75664 0.6708 0.79752 0.0
H1932 H 0.7497 0.65534 0.77605 0.0
H1933 H 0.75787 0.73432 0.75338 0.0
H1934 H 0.76328 0.73151 0.78 0.0
H1935 H 0.77851 0.73522 0.75935 0.0
H1936 H 0.78338 0.71321 0.84014 0.0
H1937 H 0.82035 0.72163 0.79108 0.0
H1938 H 0.74504 0.68803 0.81426 0.0
H1939 H 0.74803 0.70875 0.80648 0.0
H1940 H 0.75383 0.70592 0.83291 0.0
H1941 H 0.79169 0.69895 0.75268 0.0
H1942 H 0.81257 0.71971 0.75523 0.0
H1943 H 0.7923 0.71909 0.74788 0.0
C1944 C 0.7182 0.66427 0.6275 0.0
C1945 C 0.70627 0.64911 0.63888 0.0
C1946 C 0.72583 0.663 0.60879 0.0
C1947 C 0.72111 0.64615 0.60112 0.0
C1948 C 0.70825 0.63079 0.61189 0.0
C1949 C 0.70113 0.63246 0.63076 0.0
C1950 C 0.73969 0.67968 0.59792 0.0
C1951 C 0.70258 0.61258 0.60401 0.0
C1952 C 0.73346 0.64047 0.54577 0.0
C1953 C 0.74811 0.63861 0.54991 0.0
C1954 C 0.72463 0.64325 0.56225 0.0
C1955 C 0.73091 0.64453 0.58318 0.0
C1956 C 0.74616 0.64332 0.58724 0.0
C1957 C 0.75445 0.64019 0.57057 0.0
C1958 C 0.70825 0.64418 0.55737 0.0
C1959 C 0.75349 0.64494 0.60926 0.0
H1960 H 0.72225 0.67717 0.63375 0.0
H1961 H 0.69175 0.6207 0.63938 0.0
H1962 H 0.75302 0.68112 0.59957 0.0
H1963 H 0.73665 0.67902 0.58086 0.0
H1964 H 0.74053 0.69162 0.60461 0.0
H1965 H 0.69101 0.60203 0.61282 0.0
H1966 H 0.69894 0.6113 0.58707 0.0
H1967 H 0.71392 0.61043 0.60565 0.0
H1968 H 0.72857 0.63917 0.52975 0.0
H1969 H 0.76592 0.63892 0.57366 0.0
H1970 H 0.70972 0.65633 0.5642 0.0
H1971 H 0.69634 0.63279 0.56468 0.0
H1972 H 0.70573 0.644 0.5402 0.0
H1973 H 0.75597 0.65729 0.61673 0.0
H1974 H 0.76618 0.64495 0.60953 0.0
H1975 H 0.74353 0.63377 0.619 0.0
C1976 C 0.31204 0.05218 0.61818 0.0
C1977 C 0.32275 0.04876 0.63147 0.0
C1978 C 0.31953 0.06472 0.60211 0.0
C1979 C 0.33828 0.07411 0.59909 0.0
C1980 C 0.34917 0.0703 0.61187 0.0
C1981 C 0.34128 0.05767 0.628 0.0
C1982 C 0.30739 0.06836 0.58886 0.0
C1983 C 0.36918 0.07993 0.60896 0.0
C1984 C 0.35039 0.09838 0.54706 0.0
C1985 C 0.35272 0.11458 0.55318 0.0
C1986 C 0.34717 0.08543 0.5621 0.0
C1987 C 0.34625 0.08883 0.58365 0.0
C1988 C 0.35013 0.10574 0.58996 0.0
C1989 C 0.35333 0.1184 0.57465 0.0
C1990 C 0.34335 0.06766 0.55476 0.0
C1991 C 0.34941 0.10999 0.61275 0.0
H1992 H 0.2977 0.04529 0.62055 0.0
H1993 H 0.34965 0.05504 0.6381 0.0
H1994 H 0.31083 0.08213 0.59148 0.0
H1995 H 0.30933 0.067 0.57193 0.0
H1996 H 0.29302 0.05932 0.59258 0.0
H1997 H 0.37543 0.0739 0.61826 0.0
H1998 H 0.37242 0.08004 0.59213 0.0
H1999 H 0.37528 0.09387 0.61399 0.0
H2000 H 0.34996 0.09541 0.53047 0.0
H2001 H 0.35553 0.13108 0.57943 0.0
H2002 H 0.32873 0.05799 0.55538 0.0
H2003 H 0.35002 0.06274 0.5652 0.0
H2004 H 0.34784 0.06816 0.53837 0.0
H2005 H 0.33528 0.10269 0.618 0.0
H2006 H 0.35503 0.12431 0.6153 0.0
H2007 H 0.35688 0.10574 0.62282 0.0
C2008 C 0.93268 0.2736 0.61046 0.0
C2009 C 0.94158 0.28841 0.62364 0.0
C2010 C 0.91912 0.27133 0.5966 0.0
C2011 C 0.91438 0.28429 0.59566 0.0
C2012 C 0.92367 0.2996 0.60837 0.0
C2013 C 0.93711 0.30143 0.62236 0.0
C2014 C 0.90951 0.25473 0.5834 0.0
C2015 C 0.91914 0.31379 0.60756 0.0
C2016 C 0.88621 0.2764 0.5469 0.0
C2017 C 0.8691 0.26466 0.55478 0.0
C2018 C 0.90117 0.28463 0.56046 0.0
C2019 C 0.89886 0.28088 0.58226 0.0
C2020 C 0.88136 0.27062 0.59045 0.0
C2021 C 0.86668 0.26267 0.57659 0.0
C2022 C 0.91957 0.29582 0.55116 0.0
C2023 C 0.87822 0.26634 0.61358 0.0
H2024 H 0.93602 0.26347 0.61124 0.0
H2025 H 0.944 0.31298 0.63239 0.0
H2026 H 0.89511 0.24703 0.58753 0.0
H2027 H 0.91037 0.25817 0.5665 0.0
H2028 H 0.91513 0.24616 0.58566 0.0
H2029 H 0.92915 0.32588 0.6162 0.0
H2030 H 0.91833 0.31737 0.59103 0.0
H2031 H 0.90583 0.30879 0.61466 0.0
H2032 H 0.88812 0.27801 0.53004 0.0
H2033 H 0.85338 0.25384 0.58272 0.0
H2034 H 0.92593 0.28786 0.54994 0.0
H2035 H 0.92827 0.30736 0.56136 0.0
H2036 H 0.91895 0.30059 0.53519 0.0
H2037 H 0.88197 0.25652 0.61766 0.0
H2038 H 0.86398 0.26073 0.61782 0.0
H2039 H 0.88669 0.27827 0.62328 0.0
C2040 C 0.38091 0.30202 0.62544 0.0
C2041 C 0.36525 0.301 0.6324 0.0
C2042 C 0.38073 0.29289 0.6074 0.0
C2043 C 0.36447 0.28235 0.59618 0.0
C2044 C 0.34888 0.28211 0.6024 0.0
C2045 C 0.34947 0.2915 0.62038 0.0
C2046 C 0.3977 0.29369 0.6011 0.0
C2047 C 0.33126 0.27098 0.59091 0.0
C2048 C 0.364 0.2623 0.54317 0.0
C2049 C 0.35958 0.24527 0.54911 0.0
C2050 C 0.36588 0.27467 0.55831 0.0
C2051 C 0.36319 0.26983 0.5798 0.0
C2052 C 0.35897 0.25275 0.58586 0.0
C2053 C 0.35734 0.24077 0.57049 0.0
C2054 C 0.37055 0.29283 0.55131 0.0
C2055 C 0.35601 0.24705 0.60862 0.0
H2056 H 0.39321 0.30948 0.63448 0.0
H2057 H 0.33732 0.29069 0.62556 0.0
H2058 H 0.39651 0.28089 0.6047 0.0
H2059 H 0.39986 0.29591 0.58393 0.0
H2060 H 0.40966 0.3043 0.60955 0.0
H2061 H 0.32096 0.2738 0.59618 0.0
H2062 H 0.33306 0.27324 0.57372 0.0
H2063 H 0.32619 0.25681 0.59373 0.0
H2064 H 0.36568 0.26586 0.52668 0.0
H2065 H 0.35437 0.2278 0.57529 0.0
H2066 H 0.38269 0.30306 0.5598 0.0
H2067 H 0.3595 0.29493 0.55526 0.0
H2068 H 0.37298 0.29478 0.53413 0.0
H2069 H 0.36819 0.25589 0.61807 0.0
H2070 H 0.35275 0.23326 0.61068 0.0
H2071 H 0.34489 0.24809 0.61509 0.0
C2072 C 0.70426 0.06403 0.61995 0.0
C2073 C 0.69455 0.06826 0.63352 0.0
C2074 C 0.71194 0.07389 0.60162 0.0
C2075 C 0.70956 0.08808 0.59665 0.0
C2076 C 0.69853 0.09143 0.60941 0.0
C2077 C 0.6913 0.08159 0.62781 0.0
C2078 C 0.72375 0.07001 0.58853 0.0
C2079 C 0.69537 0.10622 0.60445 0.0
C2080 C 0.74795 0.12849 0.57105 0.0
C2081 C 0.74231 0.12654 0.54997 0.0
C2082 C 0.73752 0.11589 0.58618 0.0
C2083 C 0.72076 0.10108 0.58028 0.0
C2084 C 0.71478 0.09907 0.55914 0.0
C2085 C 0.72568 0.11181 0.54417 0.0
C2086 C 0.74445 0.11853 0.60856 0.0
C2087 C 0.69686 0.08356 0.55239 0.0
H2088 H 0.70679 0.05371 0.62427 0.0
H2089 H 0.68356 0.08473 0.6381 0.0
H2090 H 0.72071 0.06992 0.57155 0.0
H2091 H 0.73796 0.08055 0.59108 0.0
H2092 H 0.72221 0.05714 0.59269 0.0
H2093 H 0.68434 0.10533 0.61391 0.0
H2094 H 0.70775 0.11908 0.60786 0.0
H2095 H 0.69211 0.10611 0.58753 0.0
H2096 H 0.76052 0.14005 0.57586 0.0
H2097 H 0.72126 0.11014 0.52791 0.0
H2098 H 0.7448 0.10681 0.6139 0.0
H2099 H 0.73533 0.11998 0.61916 0.0
H2100 H 0.75811 0.13038 0.61034 0.0
H2101 H 0.69633 0.07105 0.55577 0.0
H2102 H 0.69411 0.08396 0.53537 0.0
H2103 H 0.68603 0.08334 0.56152 0.0
C2104 C 0.91426 0.65158 0.62582 0.0
C2105 C 0.92985 0.65096 0.62484 0.0
C2106 C 0.90111 0.64392 0.61002 0.0
C2107 C 0.90397 0.63601 0.59244 0.0
C2108 C 0.91935 0.6346 0.5919 0.0
C2109 C 0.93207 0.64194 0.60832 0.0
C2110 C 0.88469 0.64529 0.61154 0.0
C2111 C 0.92307 0.6266 0.57326 0.0
C2112 C 0.86423 0.61103 0.55515 0.0
C2113 C 0.8667 0.62453 0.54137 0.0
C2114 C 0.87657 0.61431 0.57144 0.0
C2115 C 0.892 0.63137 0.5737 0.0
C2116 C 0.89516 0.64473 0.5591 0.0
C2117 C 0.88239 0.64124 0.54339 0.0
C2118 C 0.87262 0.5998 0.58687 0.0
C2119 C 0.91163 0.66303 0.56068 0.0
H2120 H 0.91262 0.65858 0.63868 0.0
H2121 H 0.94429 0.64169 0.60753 0.0
H2122 H 0.88552 0.65498 0.59984 0.0
H2123 H 0.87243 0.6324 0.60789 0.0
H2124 H 0.88331 0.64961 0.6274 0.0
H2125 H 0.93403 0.6241 0.57659 0.0
H2126 H 0.9109 0.61402 0.56847 0.0
H2127 H 0.92704 0.63577 0.55971 0.0
H2128 H 0.85243 0.59795 0.55354 0.0
H2129 H 0.88445 0.65195 0.53326 0.0
H2130 H 0.86942 0.60308 0.60238 0.0
H2131 H 0.88452 0.59862 0.58916 0.0
H2132 H 0.86114 0.58681 0.5817 0.0
H2133 H 0.91073 0.66981 0.57479 0.0
H2134 H 0.91321 0.67121 0.54667 0.0
H2135 H 0.92383 0.6623 0.56249 0.0
C2136 C 0.95194 0.70371 0.72549 0.0
C2137 C 0.95863 0.6925 0.72347 0.0
C2138 C 0.94565 0.70573 0.74478 0.0
C2139 C 0.94635 0.69655 0.76264 0.0
C2140 C 0.95356 0.68561 0.76091 0.0
C2141 C 0.95947 0.68356 0.74126 0.0
C2142 C 0.93782 0.71733 0.74588 0.0
C2143 C 0.95481 0.6759 0.77974 0.0
C2144 C 0.94125 0.71513 0.81382 0.0
C2145 C 0.92292 0.7039 0.81759 0.0
C2146 C 0.94937 0.71223 0.79669 0.0
C2147 C 0.93879 0.698 0.78281 0.0
C2148 C 0.92041 0.68622 0.78706 0.0
C2149 C 0.91273 0.68925 0.80451 0.0
C2150 C 0.96908 0.72487 0.79291 0.0
C2151 C 0.90859 0.67106 0.77247 0.0
H2152 H 0.95116 0.7106 0.71181 0.0
H2153 H 0.96472 0.67496 0.73984 0.0
H2154 H 0.92363 0.70938 0.75082 0.0
H2155 H 0.94513 0.72784 0.75782 0.0
H2156 H 0.93839 0.72365 0.73056 0.0
H2157 H 0.96184 0.66885 0.77609 0.0
H2158 H 0.96201 0.68528 0.79283 0.0
H2159 H 0.94118 0.66615 0.78538 0.0
H2160 H 0.94915 0.72639 0.82406 0.0
H2161 H 0.8985 0.68065 0.80731 0.0
H2162 H 0.97082 0.73309 0.77892 0.0
H2163 H 0.97582 0.7175 0.78962 0.0
H2164 H 0.97585 0.73376 0.80655 0.0
H2165 H 0.9073 0.67631 0.75713 0.0
H2166 H 0.89498 0.66229 0.77892 0.0
H2167 H 0.91469 0.66306 0.7694 0.0
C2168 C 0.34776 0.27468 0.7475 0.0
C2169 C 0.3371 0.27986 0.73693 0.0
C2170 C 0.34075 0.26202 0.76349 0.0
C2171 C 0.3226 0.25429 0.76922 0.0
C2172 C 0.31169 0.25937 0.75863 0.0
C2173 C 0.31906 0.27209 0.74255 0.0
C2174 C 0.35286 0.25694 0.77431 0.0
C2175 C 0.29228 0.25143 0.76437 0.0
C2176 C 0.30506 0.21108 0.79823 0.0
C2177 C 0.30821 0.21676 0.81923 0.0
C2178 C 0.30854 0.22297 0.78173 0.0
C2179 C 0.31533 0.24096 0.78637 0.0
C2180 C 0.3174 0.24652 0.80758 0.0
C2181 C 0.31385 0.23436 0.82376 0.0
C2182 C 0.30617 0.2165 0.75934 0.0
C2183 C 0.32444 0.26555 0.8132 0.0
H2184 H 0.36169 0.28053 0.74327 0.0
H2185 H 0.31073 0.27601 0.7345 0.0
H2186 H 0.35371 0.25982 0.79138 0.0
H2187 H 0.34722 0.24255 0.7726 0.0
H2188 H 0.36662 0.26408 0.76785 0.0
H2189 H 0.28556 0.2567 0.75456 0.0
H2190 H 0.28496 0.23688 0.76248 0.0
H2191 H 0.29127 0.25416 0.78114 0.0
H2192 H 0.30083 0.19754 0.79458 0.0
H2193 H 0.31604 0.23875 0.83999 0.0
H2194 H 0.31951 0.22161 0.75223 0.0
H2195 H 0.29911 0.22151 0.74976 0.0
H2196 H 0.29855 0.20186 0.75837 0.0
H2197 H 0.33884 0.27368 0.80917 0.0
H2198 H 0.32303 0.26727 0.83022 0.0
H2199 H 0.31732 0.2707 0.80402 0.0
C2200 C 0.73166 0.07107 0.74492 0.0
C2201 C 0.72376 0.05558 0.73282 0.0
C2202 C 0.74546 0.07504 0.75934 0.0
C2203 C 0.75159 0.06324 0.76184 0.0
C2204 C 0.74379 0.0476 0.74964 0.0
C2205 C 0.72995 0.04394 0.73523 0.0
C2206 C 0.75343 0.09189 0.77201 0.0
C2207 C 0.75001 0.03473 0.75189 0.0
C2208 C 0.79772 0.08525 0.78707 0.0
C2209 C 0.79346 0.08146 0.8084 0.0
C2210 C 0.78427 0.07838 0.77149 0.0
C2211 C 0.76613 0.06749 0.77739 0.0
C2212 C 0.76186 0.06267 0.79874 0.0
C2213 C 0.77558 0.06973 0.81398 0.0
C2214 C 0.7894 0.08381 0.74891 0.0
C2215 C 0.7427 0.051 0.80567 0.0
H2216 H 0.72705 0.08019 0.74319 0.0
H2217 H 0.72393 0.03194 0.72597 0.0
H2218 H 0.75164 0.08878 0.78904 0.0
H2219 H 0.76803 0.1002 0.76915 0.0
H2220 H 0.74722 0.09972 0.76807 0.0
H2221 H 0.74273 0.02327 0.74109 0.0
H2222 H 0.76455 0.04146 0.74863 0.0
H2223 H 0.74805 0.02979 0.76828 0.0
H2224 H 0.81148 0.0944 0.78262 0.0
H2225 H 0.77224 0.0665 0.83041 0.0
H2226 H 0.78533 0.09327 0.74423 0.0
H2227 H 0.7823 0.07223 0.7383 0.0
H2228 H 0.80405 0.09021 0.7465 0.0
H2229 H 0.73567 0.05833 0.80419 0.0
H2230 H 0.7418 0.04665 0.82225 0.0
H2231 H 0.73552 0.03916 0.79545 0.0
C2232 C 0.04114 0.34652 0.04686 0.0
C2233 C 0.03755 0.34252 0.02537 0.0
C2234 C 0.05191 0.34194 0.05826 0.0
C2235 C 0.05954 0.33342 0.04789 0.0
C2236 C 0.05664 0.33003 0.02603 0.0
C2237 C 0.04555 0.3345 0.01505 0.0
C2238 C 0.05453 0.34563 0.08161 0.0
C2239 C 0.06484 0.32126 0.01436 0.0
C2240 C 0.09762 0.33335 0.07698 0.0
C2241 C 0.08876 0.31648 0.086 0.0
C2242 C 0.08842 0.33886 0.06397 0.0
C2243 C 0.06984 0.32733 0.06022 0.0
C2244 C 0.06088 0.3102 0.06913 0.0
C2245 C 0.07049 0.30493 0.08178 0.0
C2246 C 0.0985 0.3571 0.05446 0.0
C2247 C 0.04103 0.2976 0.06578 0.0
H2248 H 0.03498 0.35266 0.05501 0.0
H2249 H 0.04292 0.33144 0.99844 0.0
H2250 H 0.0487 0.33301 0.09036 0.0
H2251 H 0.06901 0.35349 0.08559 0.0
H2252 H 0.04817 0.35288 0.08716 0.0
H2253 H 0.06249 0.32086 0.99711 0.0
H2254 H 0.07948 0.32833 0.01743 0.0
H2255 H 0.05904 0.30754 0.02008 0.0
H2256 H 0.11181 0.34222 0.08005 0.0
H2257 H 0.06361 0.29193 0.08888 0.0
H2258 H 0.09332 0.36517 0.06079 0.0
H2259 H 0.09637 0.35628 0.03718 0.0
H2260 H 0.11311 0.36401 0.05781 0.0
H2261 H 0.03354 0.3034 0.07229 0.0
H2262 H 0.03617 0.28461 0.07338 0.0
H2263 H 0.03786 0.29544 0.04873 0.0
C2264 C 0.66541 0.71237 0.01338 0.0
C2265 C 0.66074 0.69639 0.02323 0.0
C2266 C 0.66752 0.72673 0.02504 0.0
C2267 C 0.66502 0.7251 0.04708 0.0
C2268 C 0.66008 0.70895 0.05706 0.0
C2269 C 0.65793 0.69478 0.04502 0.0
C2270 C 0.67264 0.74372 0.01383 0.0
C2271 C 0.65738 0.70673 0.08054 0.0
C2272 C 0.68757 0.76659 0.08067 0.0
C2273 C 0.67322 0.7688 0.08506 0.0
C2274 C 0.68511 0.75248 0.06822 0.0
C2275 C 0.66791 0.74039 0.05982 0.0
C2276 C 0.6534 0.74266 0.06401 0.0
C2277 C 0.65622 0.7568 0.07666 0.0
C2278 C 0.70087 0.75039 0.06426 0.0
C2279 C 0.63491 0.73013 0.05518 0.0
H2280 H 0.66756 0.71372 0.99656 0.0
H2281 H 0.65434 0.6825 0.0528 0.0
H2282 H 0.66273 0.74756 0.01716 0.0
H2283 H 0.68583 0.7545 0.01974 0.0
H2284 H 0.67344 0.74264 0.99653 0.0
H2285 H 0.65328 0.69321 0.08585 0.0
H2286 H 0.66997 0.71632 0.08885 0.0
H2287 H 0.64699 0.70954 0.08534 0.0
H2288 H 0.70069 0.77575 0.08729 0.0
H2289 H 0.64514 0.75861 0.07979 0.0
H2290 H 0.70305 0.75039 0.04712 0.0
H2291 H 0.69804 0.73752 0.07052 0.0
H2292 H 0.71341 0.76106 0.07171 0.0
H2293 H 0.63542 0.72967 0.03779 0.0
H2294 H 0.62517 0.73399 0.0595 0.0
H2295 H 0.62992 0.71658 0.06105 0.0
C2296 C 0.2877 0.94073 0.05915 0.0
C2297 C 0.29723 0.95754 0.04999 0.0
C2298 C 0.27112 0.9346 0.06866 0.0
C2299 C 0.26377 0.94548 0.06892 0.0
C2300 C 0.27293 0.96217 0.05898 0.0
C2301 C 0.2896 0.96804 0.04968 0.0
C2302 C 0.26178 0.9167 0.07911 0.0
C2303 C 0.26537 0.97402 0.05872 0.0
C2304 C 0.21455 0.92087 0.08292 0.0
C2305 C 0.21545 0.9237 0.1047 0.0
C2306 C 0.23013 0.92876 0.07075 0.0
C2307 C 0.24699 0.9396 0.08065 0.0
C2308 C 0.24788 0.94329 0.10241 0.0
C2309 C 0.23209 0.93535 0.11415 0.0
C2310 C 0.22862 0.92466 0.04755 0.0
C2311 C 0.2656 0.95482 0.11356 0.0
H2312 H 0.29343 0.93248 0.05943 0.0
H2313 H 0.29679 0.981 0.04252 0.0
H2314 H 0.26074 0.91826 0.09624 0.0
H2315 H 0.24795 0.90842 0.07279 0.0
H2316 H 0.26894 0.90959 0.07678 0.0
H2317 H 0.27338 0.98593 0.04884 0.0
H2318 H 0.25137 0.96671 0.05273 0.0
H2319 H 0.26509 0.97835 0.07497 0.0
H2320 H 0.20177 0.91179 0.0755 0.0
H2321 H 0.23283 0.93786 0.1309 0.0
H2322 H 0.23371 0.91577 0.0445 0.0
H2323 H 0.23694 0.93689 0.03835 0.0
H2324 H 0.21457 0.91811 0.04173 0.0
H2325 H 0.27334 0.94816 0.11363 0.0
H2326 H 0.26389 0.95763 0.13008 0.0
H2327 H 0.27367 0.96752 0.10513 0.0
C2328 C 0.35363 0.04891 0.99832 0.0
C2329 C 0.34051 0.03771 0.01271 0.0
C2330 C 0.3521 0.06173 0.98714 0.0
C2331 C 0.33697 0.06322 0.99022 0.0
C2332 C 0.32391 0.05226 0.00511 0.0
C2333 C 0.3259 0.03972 0.01627 0.0
C2334 C 0.36645 0.07336 0.97164 0.0
C2335 C 0.30749 0.05333 0.0087 0.0
C2336 C 0.33753 0.10428 0.9719 0.0
C2337 C 0.32844 0.09871 0.95251 0.0
C2338 C 0.34064 0.09298 0.98422 0.0
C2339 C 0.33431 0.0756 0.97713 0.0
C2340 C 0.32516 0.06989 0.95758 0.0
C2341 C 0.32246 0.08154 0.94546 0.0
C2342 C 0.35057 0.09958 0.0049 0.0
C2343 C 0.31812 0.05142 0.94951 0.0
H2344 H 0.36501 0.04751 0.99556 0.0
H2345 H 0.31566 0.03109 0.0273 0.0
H2346 H 0.36075 0.07046 0.95547 0.0
H2347 H 0.37142 0.08745 0.97488 0.0
H2348 H 0.37797 0.0714 0.97217 0.0
H2349 H 0.29899 0.04443 0.02149 0.0
H2350 H 0.31145 0.06704 0.01273 0.0
H2351 H 0.29934 0.04971 0.99404 0.0
H2352 H 0.34199 0.11742 0.97765 0.0
H2353 H 0.31572 0.07719 0.93035 0.0
H2354 H 0.36236 0.09806 0.0052 0.0
H2355 H 0.34177 0.09158 0.018 0.0
H2356 H 0.35522 0.11366 0.00779 0.0
H2357 H 0.3293 0.04908 0.94783 0.0
H2358 H 0.31116 0.04899 0.93407 0.0
H2359 H 0.30862 0.04163 0.96097 0.0
C2360 C 0.93882 0.29007 0.98233 0.0
C2361 C 0.95609 0.2998 0.99113 0.0
C2362 C 0.93248 0.27348 0.97323 0.0
C2363 C 0.94362 0.26634 0.97303 0.0
C2364 C 0.96087 0.27583 0.9824 0.0
C2365 C 0.96693 0.29249 0.99129 0.0
C2366 C 0.91399 0.26378 0.96336 0.0
C2367 C 0.97303 0.26854 0.98266 0.0
C2368 C 0.91843 0.21711 0.96263 0.0
C2369 C 0.92046 0.21664 0.94085 0.0
C2370 C 0.92676 0.23319 0.97358 0.0
C2371 C 0.93722 0.24915 0.96243 0.0
C2372 C 0.94008 0.24868 0.94063 0.0
C2373 C 0.9317 0.2324 0.9301 0.0
C2374 C 0.92359 0.23313 0.99688 0.0
C2375 C 0.9511 0.26542 0.92816 0.0
H2376 H 0.93034 0.29559 0.98211 0.0
H2377 H 0.98028 0.29989 0.9981 0.0
H2378 H 0.91498 0.26177 0.94633 0.0
H2379 H 0.90578 0.25053 0.97057 0.0
H2380 H 0.90689 0.271 0.96518 0.0
H2381 H 0.98565 0.27711 0.99159 0.0
H2382 H 0.96607 0.25517 0.98975 0.0
H2383 H 0.97647 0.26719 0.96632 0.0
H2384 H 0.90991 0.2049 0.97101 0.0
H2385 H 0.93318 0.23209 0.91323 0.0
H2386 H 0.915 0.23864 0.99973 0.0
H2387 H 0.93644 0.24162 0.00538 0.0
H2388 H 0.91693 0.21963 0.00363 0.0
H2389 H 0.94408 0.2728 0.92746 0.0
H2390 H 0.95342 0.26275 0.91183 0.0
H2391 H 0.96425 0.2741 0.93596 0.0
C2392 C 0.71794 0.65967 0.96885 0.0
C2393 C 0.70822 0.66612 0.97861 0.0
C2394 C 0.73549 0.6711 0.96212 0.0
C2395 C 0.7436 0.6895 0.96517 0.0
C2396 C 0.73391 0.69618 0.97495 0.0
C2397 C 0.71629 0.68439 0.98159 0.0
C2398 C 0.74538 0.66342 0.95176 0.0
C2399 C 0.74215 0.71573 0.9784 0.0
C2400 C 0.79383 0.71163 0.96323 0.0
C2401 C 0.79694 0.71578 0.94181 0.0
C2402 C 0.77667 0.70451 0.97161 0.0
C2403 C 0.76233 0.70145 0.9582 0.0
C2404 C 0.76575 0.70719 0.93704 0.0
C2405 C 0.78306 0.71431 0.92907 0.0
C2406 C 0.77363 0.69875 0.99432 0.0
C2407 C 0.75084 0.70428 0.92226 0.0
H2408 H 0.71185 0.6456 0.96647 0.0
H2409 H 0.70885 0.68949 0.98908 0.0
H2410 H 0.74959 0.66898 0.93576 0.0
H2411 H 0.75768 0.66701 0.96092 0.0
H2412 H 0.73709 0.64881 0.95047 0.0
H2413 H 0.73276 0.71882 0.98603 0.0
H2414 H 0.75435 0.72096 0.9884 0.0
H2415 H 0.74636 0.72279 0.96315 0.0
H2416 H 0.80464 0.71306 0.97318 0.0
H2417 H 0.78538 0.71744 0.91248 0.0
H2418 H 0.76698 0.68417 0.99508 0.0
H2419 H 0.76469 0.70239 0.00196 0.0
H2420 H 0.7864 0.70467 0.0034 0.0
H2421 H 0.74276 0.69012 0.91784 0.0
H2422 H 0.75607 0.71218 0.90765 0.0
H2423 H 0.74175 0.70769 0.92999 0.0
C2424 C 0.96689 0.67226 0.00945 0.0
C2425 C 0.97655 0.6671 0.9971 0.0
C2426 C 0.95529 0.67688 1.00013 0.0
C2427 C 0.95356 0.6766 0.97795 0.0
C2428 C 0.9629 0.67094 0.96546 0.0
C2429 C 0.97415 0.66612 0.97519 0.0
C2430 C 0.94525 0.68251 0.01397 0.0
C2431 C 0.96156 0.67063 0.94175 0.0
C2432 C 0.91482 0.67703 0.95121 0.0
C2433 C 0.92268 0.69492 0.94584 0.0
C2434 C 0.92453 0.67097 0.96222 0.0
C2435 C 0.94266 0.68299 0.96765 0.0
C2436 C 0.95066 0.70106 0.96244 0.0
C2437 C 0.94054 0.70682 0.95177 0.0
C2438 C 0.91548 0.65163 0.96771 0.0
C2439 C 0.97003 0.71426 0.96779 0.0
H2440 H 0.9686 0.67297 0.02639 0.0
H2441 H 0.9816 0.66221 0.9655 0.0
H2442 H 0.95009 0.69663 0.01119 0.0
H2443 H 0.93076 0.67485 0.00997 0.0
H2444 H 0.94696 0.68069 0.03094 0.0
H2445 H 0.96918 0.66528 0.93435 0.0
H2446 H 0.94736 0.66251 0.93661 0.0
H2447 H 0.96682 0.68421 0.9358 0.0
H2448 H 0.90113 0.66764 0.94645 0.0
H2449 H 0.94666 0.7207 0.94809 0.0
H2450 H 0.91709 0.65005 0.98476 0.0
H2451 H 0.9219 0.64558 0.95912 0.0
H2452 H 0.90097 0.64425 0.96371 0.0
H2453 H 0.97232 0.7143 0.98498 0.0
H2454 H 0.9742 0.72787 0.96283 0.0
H2455 H 0.97878 0.71044 0.96 0.0
C2456 C 0.31906 0.29151 0.00182 0.0
C2457 C 0.33368 0.30841 0.99746 0.0
C2458 C 0.31707 0.27652 0.99184 0.0
C2459 C 0.33016 0.27847 0.97739 0.0
C2460 C 0.34514 0.29547 0.97323 0.0
C2461 C 0.34665 0.31025 0.9832 0.0
C2462 C 0.3008 0.25865 0.99648 0.0
C2463 C 0.3595 0.29804 0.95814 0.0
C2464 C 0.33238 0.2379 0.96489 0.0
C2465 C 0.3235 0.23269 0.94535 0.0
C2466 C 0.33482 0.25287 0.97539 0.0
C2467 C 0.32799 0.26275 0.9663 0.0
C2468 C 0.31896 0.25756 0.94665 0.0
C2469 C 0.31694 0.24269 0.93636 0.0
C2470 C 0.34465 0.25808 0.99625 0.0
C2471 C 0.31137 0.26769 0.93652 0.0
H2472 H 0.30893 0.28998 0.01274 0.0
H2473 H 0.35804 0.32327 0.97985 0.0
H2474 H 0.29296 0.25277 0.98181 0.0
H2475 H 0.30498 0.24958 0.00243 0.0
H2476 H 0.29194 0.25936 0.00828 0.0
H2477 H 0.37061 0.31204 0.95719 0.0
H2478 H 0.36511 0.2899 0.96309 0.0
H2479 H 0.35364 0.29355 0.94219 0.0
H2480 H 0.33727 0.23014 0.97214 0.0
H2481 H 0.31036 0.23901 0.92111 0.0
H2482 H 0.33568 0.25765 0.00872 0.0
H2483 H 0.35624 0.27184 0.99548 0.0
H2484 H 0.34959 0.2493 0.0009 0.0
H2485 H 0.30171 0.26813 0.94726 0.0
H2486 H 0.30444 0.26176 0.92135 0.0
H2487 H 0.32226 0.28152 0.93363 0.0
C2488 C 0.70736 0.02601 0.98113 0.0
C2489 C 0.70029 0.03699 0.98063 0.0
C2490 C 0.72443 0.03176 0.97303 0.0
C2491 C 0.73458 0.04884 0.9642 0.0
C2492 C 0.72758 0.06003 0.9639 0.0
C2493 C 0.71058 0.054 0.97214 0.0
C2494 C 0.73153 0.01953 0.97373 0.0
C2495 C 0.73798 0.07836 0.95462 0.0
C2496 C 0.78482 0.07486 0.95762 0.0
C2497 C 0.78627 0.07402 0.93578 0.0
C2498 C 0.7681 0.06554 0.96742 0.0
C2499 C 0.75249 0.05525 0.95503 0.0
C2500 C 0.75405 0.05328 0.9332 0.0
C2501 C 0.77097 0.06268 0.92383 0.0
C2502 C 0.76705 0.06781 0.99076 0.0
C2503 C 0.73773 0.04243 0.91944 0.0
H2504 H 0.6995 0.01285 0.98765 0.0
H2505 H 0.70527 0.0626 0.97168 0.0
H2506 H 0.73377 0.0166 0.95751 0.0
H2507 H 0.74466 0.026 0.98203 0.0
H2508 H 0.72224 0.00688 0.98174 0.0
H2509 H 0.73064 0.08542 0.95567 0.0
H2510 H 0.75103 0.08631 0.96292 0.0
H2511 H 0.74084 0.0776 0.93784 0.0
H2512 H 0.7967 0.08346 0.96692 0.0
H2513 H 0.77204 0.06207 0.90693 0.0
H2514 H 0.75788 0.05491 0.99831 0.0
H2515 H 0.76158 0.07641 0.99348 0.0
H2516 H 0.78039 0.07392 0.99857 0.0
H2517 H 0.7285 0.02945 0.92678 0.0
H2518 H 0.74132 0.04019 0.90355 0.0
H2519 H 0.73034 0.04939 0.91765 0.0
C2520 C 0.65167 0.95467 0.03942 0.0
C2521 C 0.65446 0.95715 0.01768 0.0
C2522 C 0.65513 0.94305 0.05043 0.0
C2523 C 0.66128 0.93346 0.03941 0.0
C2524 C 0.66368 0.93553 0.01739 0.0
C2525 C 0.66035 0.94746 0.00679 0.0
C2526 C 0.65255 0.94133 0.07396 0.0
C2527 C 0.66995 0.92532 0.00507 0.0
C2528 C 0.68618 0.91694 0.07197 0.0
C2529 C 0.67244 0.89967 0.07658 0.0
C2530 C 0.68284 0.92798 0.05947 0.0
C2531 C 0.66541 0.92147 0.05114 0.0
C2532 C 0.65167 0.90382 0.05511 0.0
C2533 C 0.65532 0.89317 0.06793 0.0
C2534 C 0.69778 0.9468 0.05581 0.0
C2535 C 0.633 0.89631 0.04624 0.0
H2536 H 0.6472 0.96215 0.048 0.0
H2537 H 0.6625 0.94927 0.98999 0.0
H2538 H 0.64284 0.92739 0.07818 0.0
H2539 H 0.66542 0.94518 0.08194 0.0
H2540 H 0.64762 0.94967 0.08016 0.0
H2541 H 0.67039 0.92784 0.98791 0.0
H2542 H 0.68353 0.92895 0.01051 0.0
H2543 H 0.66093 0.91096 0.00786 0.0
H2544 H 0.69939 0.92199 0.07877 0.0
H2545 H 0.64474 0.87974 0.07129 0.0
H2546 H 0.69434 0.95597 0.06305 0.0
H2547 H 0.69948 0.9497 0.03873 0.0
H2548 H 0.71075 0.94957 0.06256 0.0
H2549 H 0.62681 0.90325 0.0532 0.0
H2550 H 0.62423 0.88196 0.04944 0.0
H2551 H 0.63353 0.89842 0.02899 0.0
C2552 C 0.0749 0.72891 0.0217 0.0
C2553 C 0.05804 0.7141 0.02597 0.0
C2554 C 0.08106 0.74488 0.03247 0.0
C2555 C 0.07043 0.74572 0.0485 0.0
C2556 C 0.05312 0.73095 0.0523 0.0
C2557 C 0.047 0.71542 0.04069 0.0
C2558 C 0.09927 0.76057 0.02734 0.0
C2559 C 0.04159 0.73105 0.06972 0.0
C2560 C 0.09542 0.77611 0.0944 0.0
C2561 C 0.09172 0.78961 0.09179 0.0
C2562 C 0.08842 0.76175 0.08056 0.0
C2563 C 0.07814 0.76117 0.06293 0.0
C2564 C 0.07489 0.775 0.05961 0.0
C2565 C 0.08137 0.78884 0.0743 0.0
C2566 C 0.09185 0.74705 0.085 0.0
C2567 C 0.06451 0.77514 0.04058 0.0
H2568 H 0.08338 0.72792 0.01021 0.0
H2569 H 0.03402 0.70391 0.04415 0.0
H2570 H 0.09872 0.77274 0.02626 0.0
H2571 H 0.10892 0.76261 0.04006 0.0
H2572 H 0.10445 0.75875 0.0123 0.0
H2573 H 0.02798 0.71899 0.06962 0.0
H2574 H 0.04807 0.73191 0.08514 0.0
H2575 H 0.04026 0.74275 0.06842 0.0
H2576 H 0.1039 0.7767 0.10727 0.0
H2577 H 0.07815 0.79895 0.07208 0.0
H2578 H 0.09971 0.74611 0.07208 0.0
H2579 H 0.07896 0.73422 0.08577 0.0
H2580 H 0.09928 0.74904 0.10001 0.0
H2581 H 0.07023 0.77325 0.02606 0.0
H2582 H 0.06462 0.78766 0.03921 0.0
H2583 H 0.05041 0.76405 0.04149 0.0
C2584 C 0.286 0.32947 0.03797 0.0
C2585 C 0.29502 0.34797 0.03862 0.0
C2586 C 0.26904 0.31905 0.04712 0.0
C2587 C 0.26101 0.32735 0.05714 0.0
C2588 C 0.26974 0.34598 0.05706 0.0
C2589 C 0.28659 0.35603 0.04779 0.0
C2590 C 0.26004 0.29921 0.04673 0.0
C2591 C 0.26161 0.35537 0.06752 0.0
C2592 C 0.21209 0.30527 0.0717 0.0
C2593 C 0.21302 0.3036 0.09354 0.0
C2594 C 0.22744 0.31182 0.05927 0.0
C2595 C 0.24407 0.31688 0.06898 0.0
C2596 C 0.24481 0.31406 0.0908 0.0
C2597 C 0.22926 0.30742 0.1028 0.0
C2598 C 0.22608 0.31448 0.03603 0.0
C2599 C 0.26226 0.31919 0.10175 0.0
H2600 H 0.29238 0.32311 0.03085 0.0
H2601 H 0.29336 0.3703 0.04824 0.0
H2602 H 0.25972 0.29431 0.06288 0.0
H2603 H 0.24596 0.29305 0.04119 0.0
H2604 H 0.2671 0.29477 0.03643 0.0
H2605 H 0.26973 0.36989 0.06518 0.0
H2606 H 0.24792 0.35038 0.06123 0.0
H2607 H 0.26042 0.35265 0.08466 0.0
H2608 H 0.1996 0.30241 0.06444 0.0
H2609 H 0.22996 0.30583 0.11962 0.0
H2610 H 0.23365 0.30996 0.02687 0.0
H2611 H 0.23208 0.32875 0.0328 0.0
H2612 H 0.21196 0.30734 0.03037 0.0
H2613 H 0.26939 0.3139 0.09311 0.0
H2614 H 0.26023 0.31433 0.11821 0.0
H2615 H 0.27106 0.33378 0.10198 0.0
C2616 C 0.69113 0.67348 0.38581 0.0
C2617 C 0.68905 0.67195 0.36387 0.0
C2618 C 0.70204 0.66867 0.39645 0.0
C2619 C 0.71136 0.66247 0.38486 0.0
C2620 C 0.70983 0.66148 0.36265 0.0
C2621 C 0.69856 0.66609 0.35242 0.0
C2622 C 0.70316 0.66972 0.42017 0.0
C2623 C 0.71985 0.65526 0.34974 0.0
C2624 C 0.75043 0.66339 0.4126 0.0
C2625 C 0.74284 0.64569 0.41868 0.0
C2626 C 0.74046 0.66895 0.40119 0.0
C2627 C 0.72234 0.65661 0.39609 0.0
C2628 C 0.71454 0.63876 0.40225 0.0
C2629 C 0.72491 0.63349 0.41331 0.0
C2630 C 0.7493 0.68807 0.39474 0.0
C2631 C 0.69517 0.62526 0.3973 0.0
H2632 H 0.68376 0.6779 0.39481 0.0
H2633 H 0.69707 0.66494 0.33547 0.0
H2634 H 0.698 0.65636 0.42682 0.0
H2635 H 0.7173 0.67813 0.4254 0.0
H2636 H 0.69535 0.67515 0.42682 0.0
H2637 H 0.718 0.65618 0.33258 0.0
H2638 H 0.73437 0.66321 0.35356 0.0
H2639 H 0.71516 0.64133 0.35365 0.0
H2640 H 0.76414 0.67302 0.41698 0.0
H2641 H 0.71899 0.61974 0.41759 0.0
H2642 H 0.74258 0.69421 0.40244 0.0
H2643 H 0.74789 0.68902 0.37751 0.0
H2644 H 0.76377 0.6958 0.39898 0.0
H2645 H 0.68639 0.62937 0.40437 0.0
H2646 H 0.6911 0.61193 0.40329 0.0
H2647 H 0.69283 0.6244 0.38005 0.0
C2648 C 0.32695 0.02899 0.38756 0.0
C2649 C 0.32725 0.02896 0.3655 0.0
C2650 C 0.32986 0.04384 0.39875 0.0
C2651 C 0.33308 0.05904 0.38764 0.0
C2652 C 0.33334 0.05911 0.36539 0.0
C2653 C 0.33046 0.04407 0.35458 0.0
C2654 C 0.32953 0.04328 0.42249 0.0
C2655 C 0.33666 0.07505 0.353 0.0
C2656 C 0.32434 0.09101 0.41665 0.0
C2657 C 0.34167 0.10413 0.42303 0.0
C2658 C 0.32138 0.07641 0.40486 0.0
C2659 C 0.3361 0.07483 0.39938 0.0
C2660 C 0.35365 0.0881 0.4056 0.0
C2661 C 0.35622 0.10261 0.41732 0.0
C2662 C 0.30249 0.06259 0.39841 0.0
C2663 C 0.36967 0.08683 0.40016 0.0
H2664 H 0.32452 0.01739 0.39616 0.0
H2665 H 0.3307 0.04417 0.33754 0.0
H2666 H 0.34251 0.05401 0.42894 0.0
H2667 H 0.31898 0.04551 0.42831 0.0
H2668 H 0.32695 0.03048 0.42876 0.0
H2669 H 0.33636 0.07296 0.33576 0.0
H2670 H 0.32639 0.0783 0.35685 0.0
H2671 H 0.34988 0.08666 0.35741 0.0
H2672 H 0.31307 0.09225 0.42077 0.0
H2673 H 0.36962 0.11262 0.42238 0.0
H2674 H 0.2988 0.04966 0.40536 0.0
H2675 H 0.30157 0.06094 0.38107 0.0
H2676 H 0.29257 0.066 0.40346 0.0
H2677 H 0.36831 0.07481 0.40736 0.0
H2678 H 0.38246 0.09849 0.4057 0.0
H2679 H 0.37033 0.08561 0.38289 0.0
C2680 C 0.95294 0.27916 0.38692 0.0
C2681 C 0.96308 0.29603 0.37804 0.0
C2682 C 0.93603 0.27321 0.39537 0.0
C2683 C 0.92897 0.28434 0.39484 0.0
C2684 C 0.93876 0.30109 0.38512 0.0
C2685 C 0.95576 0.30678 0.37687 0.0
C2686 C 0.92601 0.25523 0.4056 0.0
C2687 C 0.93154 0.31322 0.38406 0.0
C2688 C 0.87944 0.25954 0.40699 0.0
C2689 C 0.87985 0.26189 0.42883 0.0
C2690 C 0.8953 0.26787 0.39531 0.0
C2691 C 0.91189 0.27868 0.40578 0.0
C2692 C 0.91222 0.2821 0.42754 0.0
C2693 C 0.89618 0.2737 0.43879 0.0
C2694 C 0.89438 0.26407 0.37208 0.0
C2695 C 0.92963 0.2936 0.43929 0.0
H2696 H 0.95841 0.2707 0.38781 0.0
H2697 H 0.96346 0.31981 0.36995 0.0
H2698 H 0.9244 0.25669 0.42261 0.0
H2699 H 0.91241 0.24719 0.3986 0.0
H2700 H 0.93302 0.2479 0.40388 0.0
H2701 H 0.93987 0.32494 0.37403 0.0
H2702 H 0.91762 0.30605 0.37783 0.0
H2703 H 0.93117 0.31783 0.40012 0.0
H2704 H 0.86687 0.25039 0.3992 0.0
H2705 H 0.8965 0.27583 0.4556 0.0
H2706 H 0.89916 0.2549 0.36929 0.0
H2707 H 0.90322 0.27635 0.3632 0.0
H2708 H 0.88052 0.25793 0.36572 0.0
H2709 H 0.93724 0.28682 0.44013 0.0
H2710 H 0.92745 0.29653 0.45557 0.0
H2711 H 0.93805 0.30625 0.43089 0.0
C2712 C 0.01503 0.37885 0.31548 0.0
C2713 C 0.01339 0.37768 0.33744 0.0
C2714 C 0.01363 0.39166 0.3042 0.0
C2715 C 0.01064 0.40371 0.31514 0.0
C2716 C 0.00922 0.40278 0.33731 0.0
C2717 C 0.01055 0.38972 0.34821 0.0
C2718 C 0.01514 0.39218 0.28054 0.0
C2719 C 0.00617 0.4155 0.3495 0.0
C2720 C 0.02256 0.44571 0.28585 0.0
C2721 C 0.00578 0.4417 0.27813 0.0
C2722 C 0.02428 0.43366 0.29841 0.0
C2723 C 0.00886 0.41715 0.30322 0.0
C2724 C 0.99184 0.41316 0.2958 0.0
C2725 C 0.9905 0.42552 0.28339 0.0
C2726 C 0.04263 0.43846 0.30621 0.0
C2727 C 0.97512 0.39564 0.30046 0.0
H2728 H 0.01719 0.36958 0.307 0.0
H2729 H 0.0093 0.38894 0.36517 0.0
H2730 H 0.00268 0.39023 0.27323 0.0
H2731 H 0.02629 0.4053 0.27546 0.0
H2732 H 0.01752 0.3819 0.27443 0.0
H2733 H 0.00579 0.41329 0.36674 0.0
H2734 H 0.01697 0.42928 0.34612 0.0
H2735 H 0.99334 0.41413 0.34448 0.0
H2736 H 0.03437 0.45831 0.28203 0.0
H2737 H 0.97753 0.42231 0.27729 0.0
H2738 H 0.04627 0.42932 0.29935 0.0
H2739 H 0.04258 0.43701 0.32354 0.0
H2740 H 0.05312 0.45219 0.30202 0.0
H2741 H 0.97611 0.38482 0.29332 0.0
H2742 H 0.96283 0.39488 0.29429 0.0
H2743 H 0.97374 0.3933 0.31767 0.0
C2744 C 0.61969 0.62108 0.33195 0.0
C2745 C 0.60801 0.62744 0.33208 0.0
C2746 C 0.61483 0.60511 0.32193 0.0
C2747 C 0.59798 0.59537 0.31167 0.0
C2748 C 0.58576 0.60122 0.31278 0.0
C2749 C 0.5909 0.61713 0.32304 0.0
C2750 C 0.6281 0.59915 0.32138 0.0
C2751 C 0.56765 0.59122 0.30203 0.0
C2752 C 0.59193 0.56847 0.26289 0.0
C2753 C 0.58127 0.55115 0.27034 0.0
C2754 C 0.59811 0.58297 0.2764 0.0
C2755 C 0.59368 0.5801 0.29798 0.0
C2756 C 0.58387 0.56266 0.30588 0.0
C2757 C 0.57771 0.54836 0.29193 0.0
C2758 C 0.6086 0.60136 0.26735 0.0
C2759 C 0.57911 0.55908 0.32883 0.0
H2760 H 0.6329 0.62888 0.33902 0.0
H2761 H 0.58174 0.62187 0.32314 0.0
H2762 H 0.62146 0.58493 0.32533 0.0
H2763 H 0.63349 0.60085 0.30526 0.0
H2764 H 0.6395 0.6068 0.33245 0.0
H2765 H 0.5592 0.59678 0.30573 0.0
H2766 H 0.56943 0.59168 0.28475 0.0
H2767 H 0.56039 0.57715 0.30678 0.0
H2768 H 0.59502 0.5707 0.2463 0.0
H2769 H 0.5694 0.53503 0.29781 0.0
H2770 H 0.62125 0.60951 0.27634 0.0
H2771 H 0.6007 0.6078 0.2687 0.0
H2772 H 0.6119 0.60134 0.25054 0.0
H2773 H 0.59102 0.56746 0.33889 0.0
H2774 H 0.57361 0.54502 0.33296 0.0
H2775 H 0.56892 0.56247 0.33257 0.0
C2776 C 0.3787 0.00649 0.32409 0.0
C2777 C 0.36783 0.98816 0.32121 0.0
C2778 C 0.39627 0.01594 0.31633 0.0
C2779 C 0.40302 0.00682 0.30542 0.0
C2780 C 0.39216 0.98833 0.30266 0.0
C2781 C 0.37476 0.97925 0.3106 0.0
C2782 C 0.40753 0.03564 0.31963 0.0
C2783 C 0.39886 0.9781 0.2911 0.0
C2784 C 0.44044 0.02771 0.26583 0.0
C2785 C 0.45431 0.02767 0.27695 0.0
C2786 C 0.42396 0.02211 0.2754 0.0
C2787 C 0.42136 0.01639 0.29658 0.0
C2788 C 0.43576 0.01755 0.3083 0.0
C2789 C 0.45207 0.02313 0.29832 0.0
C2790 C 0.40892 0.02104 0.26235 0.0
C2791 C 0.43358 0.01174 0.33098 0.0
H2792 H 0.37346 0.01348 0.33227 0.0
H2793 H 0.36651 0.9651 0.30828 0.0
H2794 H 0.42022 0.03919 0.32784 0.0
H2795 H 0.41115 0.04245 0.3042 0.0
H2796 H 0.40048 0.04069 0.32895 0.0
H2797 H 0.38873 0.96374 0.29038 0.0
H2798 H 0.40252 0.98313 0.2748 0.0
H2799 H 0.41111 0.97997 0.29895 0.0
H2800 H 0.44208 0.03111 0.24928 0.0
H2801 H 0.46288 0.02335 0.30704 0.0
H2802 H 0.40209 0.02659 0.27111 0.0
H2803 H 0.39882 0.00701 0.25892 0.0
H2804 H 0.41375 0.02818 0.24719 0.0
H2805 H 0.42687 0.01726 0.34002 0.0
H2806 H 0.44664 0.01582 0.33867 0.0
H2807 H 0.42498 0.99715 0.33176 0.0
C2808 C 0.64052 0.99388 0.31118 0.0
C2809 C 0.6416 0.99453 0.33322 0.0
C2810 C 0.62879 0.99747 0.30028 0.0
C2811 C 0.61761 0.00151 0.31169 0.0
C2812 C 0.61817 0.0016 0.33395 0.0
C2813 C 0.63029 0.99827 0.34447 0.0
C2814 C 0.62877 0.99746 0.27653 0.0
C2815 C 0.60616 0.00549 0.34664 0.0
C2816 C 0.60095 0.02802 0.28339 0.0
C2817 C 0.58385 0.01474 0.27651 0.0
C2818 C 0.612 0.0239 0.295 0.0
C2819 C 0.60571 0.0061 0.3002 0.0
C2820 C 0.58837 0.99266 0.29368 0.0
C2821 C 0.57774 0.99711 0.28174 0.0
C2822 C 0.63053 0.03859 0.30146 0.0
C2823 C 0.58112 0.97355 0.2991 0.0
H2824 H 0.64928 0.9911 0.30233 0.0
H2825 H 0.631 0.99872 0.3615 0.0
H2826 H 0.6151 0.9881 0.27038 0.0
H2827 H 0.63273 0.01077 0.27061 0.0
H2828 H 0.63808 0.99376 0.27002 0.0
H2829 H 0.60749 0.00405 0.36381 0.0
H2830 H 0.60948 0.01915 0.34349 0.0
H2831 H 0.59197 0.99647 0.34188 0.0
H2832 H 0.6057 0.04169 0.27981 0.0
H2833 H 0.5647 0.98668 0.27623 0.0
H2834 H 0.64072 0.03626 0.29465 0.0
H2835 H 0.63207 0.03879 0.3188 0.0
H2836 H 0.63338 0.05175 0.29625 0.0
H2837 H 0.58928 0.96896 0.29142 0.0
H2838 H 0.56694 0.96483 0.29403 0.0
H2839 H 0.58207 0.97208 0.31631 0.0
C2840 C 0.03573 0.65158 0.31579 0.0
C2841 C 0.02044 0.6518 0.32158 0.0
C2842 C 0.03422 0.63712 0.30497 0.0
C2843 C 0.01704 0.6226 0.29972 0.0
C2844 C 0.00157 0.62271 0.30562 0.0
C2845 C 0.00346 0.63727 0.31653 0.0
C2846 C 0.05102 0.63742 0.29904 0.0
C2847 C 0.98301 0.6075 0.30023 0.0
C2848 C 0.01234 0.59262 0.25457 0.0
C2849 C 0.01047 0.57794 0.26528 0.0
C2850 C 0.01464 0.60731 0.26559 0.0
C2851 C 0.01517 0.60735 0.28784 0.0
C2852 C 0.01349 0.59265 0.29874 0.0
C2853 C 0.0111 0.57808 0.28732 0.0
C2854 C 0.01623 0.62268 0.25342 0.0
C2855 C 0.01413 0.59227 0.32246 0.0
H2856 H 0.0489 0.66273 0.31967 0.0
H2857 H 0.99156 0.63732 0.3209 0.0
H2858 H 0.05075 0.62574 0.30573 0.0
H2859 H 0.05168 0.63664 0.2817 0.0
H2860 H 0.06336 0.64953 0.30467 0.0
H2861 H 0.97235 0.60958 0.30608 0.0
H2862 H 0.98148 0.60565 0.28293 0.0
H2863 H 0.98097 0.5951 0.3071 0.0
H2864 H 0.01169 0.59247 0.23754 0.0
H2865 H 0.00989 0.56685 0.29565 0.0
H2866 H 0.02894 0.63499 0.25764 0.0
H2867 H 0.00513 0.62463 0.25764 0.0
H2868 H 0.01587 0.62071 0.23614 0.0
H2869 H 0.02684 0.60378 0.32836 0.0
H2870 H 0.01305 0.58002 0.32852 0.0
H2871 H 0.00303 0.59329 0.32903 0.0
C2872 C 0.37959 0.36764 0.31432 0.0
C2873 C 0.37139 0.37762 0.31466 0.0
C2874 C 0.3964 0.3743 0.30502 0.0
C2875 C 0.40517 0.3913 0.29587 0.0
C2876 C 0.39729 0.40169 0.29691 0.0
C2877 C 0.38053 0.39474 0.30631 0.0
C2878 C 0.40448 0.36291 0.30434 0.0
C2879 C 0.40624 0.41993 0.28739 0.0
C2880 C 0.45434 0.41751 0.28175 0.0
C2881 C 0.4534 0.41556 0.25982 0.0
C2882 C 0.43881 0.40881 0.29396 0.0
C2883 C 0.422 0.39798 0.28395 0.0
C2884 C 0.42113 0.39512 0.26198 0.0
C2885 C 0.43685 0.40394 0.25019 0.0
C2886 C 0.44028 0.4121 0.31737 0.0
C2887 C 0.40347 0.38357 0.25073 0.0
H2888 H 0.37271 0.35446 0.32086 0.0
H2889 H 0.37439 0.40262 0.3066 0.0
H2890 H 0.40476 0.35907 0.28785 0.0
H2891 H 0.41852 0.3704 0.31018 0.0
H2892 H 0.39681 0.35072 0.31386 0.0
H2893 H 0.39879 0.42665 0.29051 0.0
H2894 H 0.42005 0.42825 0.29374 0.0
H2895 H 0.40727 0.41903 0.27012 0.0
H2896 H 0.46709 0.42655 0.28926 0.0
H2897 H 0.43613 0.40217 0.23328 0.0
H2898 H 0.43221 0.39952 0.32603 0.0
H2899 H 0.43487 0.42059 0.3212 0.0
H2900 H 0.45436 0.41875 0.32309 0.0
H2901 H 0.39567 0.37059 0.25865 0.0
H2902 H 0.40526 0.38135 0.234 0.0
H2903 H 0.3954 0.38989 0.2513 0.0
C2904 C 0.3489 0.29911 0.35405 0.0
C2905 C 0.33254 0.29842 0.35426 0.0
C2906 C 0.35131 0.28704 0.36566 0.0
C2907 C 0.3369 0.27374 0.37741 0.0
C2908 C 0.32012 0.27253 0.37699 0.0
C2909 C 0.3182 0.28501 0.3656 0.0
C2910 C 0.36949 0.28896 0.366 0.0
C2911 C 0.30433 0.25829 0.38897 0.0
C2912 C 0.33987 0.23458 0.39577 0.0
C2913 C 0.34472 0.23883 0.41695 0.0
C2914 C 0.3371 0.24573 0.38271 0.0
C2915 C 0.33963 0.26166 0.39098 0.0
C2916 C 0.34482 0.26611 0.41231 0.0
C2917 C 0.34711 0.25454 0.4251 0.0
C2918 C 0.33123 0.24038 0.36018 0.0
C2919 C 0.34801 0.28314 0.42161 0.0
H2920 H 0.36008 0.30952 0.34542 0.0
H2921 H 0.3055 0.28436 0.36571 0.0
H2922 H 0.37507 0.29197 0.38223 0.0
H2923 H 0.36829 0.2764 0.36124 0.0
H2924 H 0.37912 0.29962 0.35541 0.0
H2925 H 0.29186 0.25831 0.38569 0.0
H2926 H 0.302 0.24513 0.38485 0.0
H2927 H 0.30719 0.2602 0.4061 0.0
H2928 H 0.33786 0.22233 0.38957 0.0
H2929 H 0.35098 0.25784 0.44147 0.0
H2930 H 0.34114 0.25053 0.34937 0.0
H2931 H 0.31827 0.23948 0.35724 0.0
H2932 H 0.32966 0.22747 0.35626 0.0
H2933 H 0.35831 0.29453 0.41242 0.0
H2934 H 0.35251 0.28487 0.43829 0.0
H2935 H 0.33553 0.28345 0.42071 0.0
C2936 C 0.74199 0.05366 0.37317 0.0
C2937 C 0.72453 0.04285 0.36525 0.0
C2938 C 0.74744 0.07003 0.3824 0.0
C2939 C 0.73517 0.0758 0.38365 0.0
C2940 C 0.71784 0.06542 0.37467 0.0
C2941 C 0.71271 0.04903 0.36561 0.0
C2942 C 0.76605 0.08073 0.39179 0.0
C2943 C 0.70446 0.07122 0.37549 0.0
C2944 C 0.74346 0.10558 0.43023 0.0
C2945 C 0.75333 0.12239 0.42116 0.0
C2946 C 0.73681 0.0903 0.418 0.0
C2947 C 0.74002 0.09184 0.39611 0.0
C2948 C 0.74911 0.10874 0.38664 0.0
C2949 C 0.7557 0.12385 0.39931 0.0
C2950 C 0.7271 0.07252 0.42871 0.0
C2951 C 0.75262 0.11089 0.36332 0.0
H2952 H 0.75126 0.04907 0.37288 0.0
H2953 H 0.69922 0.04083 0.35941 0.0
H2954 H 0.77293 0.09448 0.38587 0.0
H2955 H 0.76516 0.08131 0.40913 0.0
H2956 H 0.77439 0.07505 0.38814 0.0
H2957 H 0.69241 0.06276 0.36562 0.0
H2958 H 0.70013 0.07063 0.39196 0.0
H2959 H 0.71067 0.08509 0.37018 0.0
H2960 H 0.7413 0.10439 0.44706 0.0
H2961 H 0.7634 0.13681 0.39222 0.0
H2962 H 0.73512 0.06619 0.42749 0.0
H2963 H 0.71404 0.06369 0.42081 0.0
H2964 H 0.72468 0.07355 0.44561 0.0
H2965 H 0.76259 0.10725 0.3594 0.0
H2966 H 0.75785 0.12466 0.35805 0.0
H2967 H 0.74019 0.10193 0.35434 0.0
C2968 C 0.9467 0.67745 0.38892 0.0
C2969 C 0.95591 0.67055 0.37888 0.0
C2970 C 0.929 0.66647 0.39544 0.0
C2971 C 0.9202 0.64806 0.39187 0.0
C2972 C 0.92932 0.64094 0.38167 0.0
C2973 C 0.9471 0.65229 0.37527 0.0
C2974 C 0.91974 0.67461 0.40624 0.0
C2975 C 0.92032 0.62138 0.37764 0.0
C2976 C 0.88095 0.62379 0.42836 0.0
C2977 C 0.86717 0.62299 0.41606 0.0
C2978 C 0.89809 0.6305 0.42007 0.0
C2979 C 0.90145 0.63654 0.39902 0.0
C2980 C 0.88715 0.63416 0.38599 0.0
C2981 C 0.87015 0.62741 0.3947 0.0
C2982 C 0.91295 0.63269 0.43444 0.0
C2983 C 0.89013 0.64026 0.36341 0.0
H2984 H 0.95335 0.69152 0.39177 0.0
H2985 H 0.95412 0.64685 0.36754 0.0
H2986 H 0.90749 0.67153 0.3973 0.0
H2987 H 0.91551 0.66893 0.4222 0.0
H2988 H 0.92847 0.68917 0.40774 0.0
H2989 H 0.92916 0.61797 0.36924 0.0
H2990 H 0.91631 0.61412 0.39277 0.0
H2991 H 0.90792 0.61668 0.36818 0.0
H2992 H 0.87875 0.62047 0.44492 0.0
H2993 H 0.85942 0.62652 0.38506 0.0
H2994 H 0.92151 0.64677 0.43904 0.0
H2995 H 0.92157 0.6289 0.4263 0.0
H2996 H 0.90767 0.62468 0.44896 0.0
H2997 H 0.89719 0.65487 0.36298 0.0
H2998 H 0.87732 0.63481 0.35453 0.0
H2999 H 0.8987 0.63636 0.35533 0.0
C3000 C 0.3631 0.01097 0.7182 0.0
C3001 C 0.35969 0.00807 0.69653 0.0
C3002 C 0.37531 0.00763 0.72836 0.0
C3003 C 0.3845 0.0014 0.71655 0.0
C3004 C 0.3816 0.99901 0.69456 0.0
C3005 C 0.36915 0.00229 0.68482 0.0
C3006 C 0.37796 0.01026 0.75187 0.0
C3007 C 0.39132 0.9926 0.68142 0.0
C3008 C 0.42558 0.00519 0.74273 0.0
C3009 C 0.41859 0.9881 0.7507 0.0
C3010 C 0.41478 0.0096 0.73104 0.0
C3011 C 0.39652 0.99666 0.72747 0.0
C3012 C 0.38948 0.97931 0.7352 0.0
C3013 C 0.40062 0.97523 0.74664 0.0
C3014 C 0.42282 0.02817 0.72284 0.0
C3015 C 0.37003 0.96518 0.7319 0.0
H3016 H 0.35586 0.01543 0.72741 0.0
H3017 H 0.36666 9e-05 0.66806 0.0
H3018 H 0.37369 0.99746 0.75961 0.0
H3019 H 0.39235 0.01932 0.7557 0.0
H3020 H 0.37024 0.01574 0.75865 0.0
H3021 H 0.38847 0.99254 0.66435 0.0
H3022 H 0.40598 0.00106 0.68409 0.0
H3023 H 0.38728 0.979 0.6862 0.0
H3024 H 0.43953 0.01513 0.74564 0.0
H3025 H 0.39513 0.96206 0.75298 0.0
H3026 H 0.4163 0.03458 0.73039 0.0
H3027 H 0.42037 0.02793 0.70566 0.0
H3028 H 0.43747 0.03638 0.7259 0.0
H3029 H 0.36139 0.96914 0.7397 0.0
H3030 H 0.3668 0.9522 0.73829 0.0
H3031 H 0.3666 0.96363 0.7149 0.0
C3032 C 0.98468 0.35921 0.70924 0.0
C3033 C -0.00014 0.35786 0.70741 0.0
C3034 C 0.98581 0.37402 0.71865 0.0
C3035 C 0.00256 0.38789 0.72625 0.0
C3036 C 0.01797 0.38671 0.72422 0.0
C3037 C 0.01643 0.37168 0.7149 0.0
C3038 C 0.96905 0.37474 0.72067 0.0
C3039 C 0.03609 0.4013 0.73199 0.0
C3040 C 0.00829 0.43288 0.73485 0.0
C3041 C 0.00609 0.43292 0.75667 0.0
C3042 C 0.00729 0.41837 0.72475 0.0
C3043 C 0.00388 0.40348 0.73672 0.0
C3044 C 0.00168 0.40344 0.75874 0.0
C3045 C 0.00288 0.41816 0.76844 0.0
C3046 C 0.00977 0.41892 0.70124 0.0
C3047 C 0.99801 0.3878 0.77205 0.0
H3048 H 0.97181 0.34858 0.70354 0.0
H3049 H 0.02825 0.3708 0.71346 0.0
H3050 H 0.96642 0.37564 0.73751 0.0
H3051 H 0.97087 0.38672 0.7128 0.0
H3052 H 0.95711 0.36298 0.71371 0.0
H3053 H 0.04684 0.39856 0.72875 0.0
H3054 H 0.03961 0.41396 0.72439 0.0
H3055 H 0.03568 0.40308 0.74918 0.0
H3056 H 0.01055 0.44411 0.72559 0.0
H3057 H 0.00145 0.41819 0.78534 0.0
H3058 H 0.99751 0.40802 0.69364 0.0
H3059 H 0.02093 0.41693 0.6975 0.0
H3060 H 0.01268 0.43162 0.69426 0.0
H3061 H 0.9856 0.37578 0.76646 0.0
H3062 H 0.99647 0.38979 0.78895 0.0
H3063 H 0.00911 0.38533 0.77052 0.0
C3064 C 0.63159 0.64439 0.71465 0.0
C3065 C 0.63954 0.63424 0.7167 0.0
C3066 C 0.61412 0.63801 0.72181 0.0
C3067 C 0.60443 0.62113 0.73124 0.0
C3068 C 0.61234 0.61079 0.73317 0.0
C3069 C 0.62975 0.61746 0.72588 0.0
C3070 C 0.60607 0.64936 0.71943 0.0
C3071 C 0.60245 0.5927 0.74312 0.0
C3072 C 0.56622 0.60702 0.76911 0.0
C3073 C 0.55148 0.59515 0.75668 0.0
C3074 C 0.58349 0.61651 0.76066 0.0
C3075 C 0.58604 0.61407 0.73928 0.0
C3076 C 0.57103 0.60306 0.72632 0.0
C3077 C 0.55393 0.59369 0.7352 0.0
C3078 C 0.59914 0.62815 0.77499 0.0
C3079 C 0.57316 0.60023 0.70341 0.0
H3080 H 0.63902 0.65736 0.70755 0.0
H3081 H 0.63575 0.6095 0.72754 0.0
H3082 H 0.59338 0.64219 0.71027 0.0
H3083 H 0.60277 0.65223 0.73512 0.0
H3084 H 0.61525 0.66207 0.71144 0.0
H3085 H 0.61048 0.58632 0.74336 0.0
H3086 H 0.59886 0.59369 0.75952 0.0
H3087 H 0.58978 0.58401 0.73439 0.0
H3088 H 0.56442 0.60809 0.78576 0.0
H3089 H 0.54251 0.58472 0.72548 0.0
H3090 H 0.60818 0.6411 0.76748 0.0
H3091 H 0.60703 0.62183 0.77795 0.0
H3092 H 0.59476 0.63042 0.79036 0.0
H3093 H 0.58202 0.61303 0.69551 0.0
H3094 H 0.5601 0.59319 0.69491 0.0
H3095 H 0.57955 0.5923 0.70212 0.0
C3096 C 0.66641 0.7142 0.68141 0.0
C3097 C 0.68107 0.71242 0.67716 0.0
C3098 C 0.66341 0.72591 0.66983 0.0
C3099 C 0.67549 0.73626 0.65379 0.0
C3100 C 0.6906 0.73491 0.64984 0.0
C3101 C 0.69316 0.72293 0.66148 0.0
C3102 C 0.64706 0.72686 0.6744 0.0
C3103 C 0.70391 0.7459 0.63306 0.0
C3104 C 0.65897 0.75332 0.60966 0.0
C3105 C 0.66563 0.77081 0.61597 0.0
C3106 C 0.66197 0.74192 0.62189 0.0
C3107 C 0.67206 0.74818 0.6408 0.0
C3108 C 0.67884 0.76579 0.64727 0.0
C3109 C 0.67545 0.77684 0.63487 0.0
C3110 C 0.65441 0.72317 0.61454 0.0
C3111 C 0.68972 0.77297 0.66728 0.0
H3112 H 0.65695 0.70607 0.69341 0.0
H3113 H 0.70455 0.72167 0.65815 0.0
H3114 H 0.65105 0.74063 0.6781 0.0
H3115 H 0.63824 0.72278 0.66027 0.0
H3116 H 0.63923 0.71827 0.68775 0.0
H3117 H 0.71538 0.74387 0.63258 0.0
H3118 H 0.69718 0.7425 0.61743 0.0
H3119 H 0.70915 0.76011 0.63582 0.0
H3120 H 0.6516 0.74859 0.59496 0.0
H3121 H 0.6804 0.79022 0.6401 0.0
H3122 H 0.64565 0.7138 0.62681 0.0
H3123 H 0.66544 0.72074 0.61194 0.0
H3124 H 0.64651 0.72024 0.59972 0.0
H3125 H 0.68167 0.76519 0.68095 0.0
H3126 H 0.69428 0.78706 0.66994 0.0
H3127 H 0.70165 0.7717 0.66671 0.0
C3128 C 0.28572 0.95432 0.66548 0.0
C3129 C 0.27479 0.9615 0.6667 0.0
C3130 C 0.27932 0.93769 0.65632 0.0
C3131 C 0.26164 0.92809 0.64812 0.0
C3132 C 0.25025 0.93483 0.65039 0.0
C3133 C 0.25695 0.95141 0.6597 0.0
C3134 C 0.29178 0.93083 0.65442 0.0
C3135 C 0.23129 0.92499 0.64189 0.0
C3136 C 0.25021 0.89834 0.60072 0.0
C3137 C 0.23982 0.88153 0.60964 0.0
C3138 C 0.25802 0.91357 0.61322 0.0
C3139 C 0.2555 0.91196 0.63525 0.0
C3140 C 0.24585 0.895 0.64451 0.0
C3141 C 0.23806 0.87996 0.63157 0.0
C3142 C 0.26828 0.93141 0.60272 0.0
C3143 C 0.24304 0.89277 0.66795 0.0
H3144 H 0.29949 0.96197 0.67095 0.0
H3145 H 0.24834 0.95675 0.66071 0.0
H3146 H 0.28497 0.91681 0.65937 0.0
H3147 H 0.29565 0.93143 0.63775 0.0
H3148 H 0.30416 0.93863 0.66403 0.0
H3149 H 0.22374 0.93133 0.64642 0.0
H3150 H 0.23152 0.92449 0.62447 0.0
H3151 H 0.22398 0.91119 0.64765 0.0
H3152 H 0.25193 0.89961 0.58382 0.0
H3153 H 0.22999 0.86701 0.63856 0.0
H3154 H 0.28172 0.93955 0.61009 0.0
H3155 H 0.26109 0.9385 0.60486 0.0
H3156 H 0.26996 0.93035 0.5856 0.0
H3157 H 0.25589 0.90114 0.6765 0.0
H3158 H 0.23724 0.87884 0.67292 0.0
H3159 H 0.23381 0.89713 0.67275 0.0
C3160 C 0.04224 0.33615 0.6499 0.0
C3161 C 0.03191 0.31764 0.64977 0.0
C3162 C 0.05966 0.34524 0.6417 0.0
C3163 C 0.06684 0.33556 0.63324 0.0
C3164 C 0.05673 0.3169 0.63384 0.0
C3165 C 0.03942 0.30819 0.64208 0.0
C3166 C 0.07011 0.36516 0.6414 0.0
C3167 C 0.06393 0.30607 0.62509 0.0
C3168 C 0.10081 0.35247 0.58959 0.0
C3169 C 0.11621 0.35545 0.6003 0.0
C3170 C 0.0849 0.34712 0.60037 0.0
C3171 C 0.08439 0.34465 0.62242 0.0
C3172 C 0.10022 0.34876 0.6335 0.0
C3173 C 0.11598 0.35412 0.62228 0.0
C3174 C 0.06836 0.34302 0.58798 0.0
C3175 C 0.10023 0.34636 0.657 0.0
H3176 H 0.03655 0.34356 0.65587 0.0
H3177 H 0.03163 0.29389 0.64207 0.0
H3178 H 0.08377 0.37043 0.64795 0.0
H3179 H 0.0716 0.36985 0.62493 0.0
H3180 H 0.06342 0.37071 0.65049 0.0
H3181 H 0.05476 0.29171 0.6278 0.0
H3182 H 0.066 0.30834 0.60791 0.0
H3183 H 0.07712 0.3102 0.63237 0.0
H3184 H 0.10105 0.35381 0.57262 0.0
H3185 H 0.12785 0.35636 0.63063 0.0
H3186 H 0.06172 0.34938 0.59533 0.0
H3187 H 0.05865 0.32856 0.58804 0.0
H3188 H 0.07144 0.34748 0.57139 0.0
H3189 H 0.09319 0.35207 0.66495 0.0
H3190 H 0.11402 0.35257 0.66359 0.0
H3191 H 0.09293 0.33206 0.66073 0.0
C3192 C 0.29613 0.3196 0.65136 0.0
C3193 C 0.2993 0.32321 0.67296 0.0
C3194 C 0.28477 0.32347 0.64008 0.0
C3195 C 0.27616 0.33094 0.65068 0.0
C3196 C 0.27874 0.334 0.67262 0.0
C3197 C 0.29038 0.3302 0.68349 0.0
C3198 C 0.28246 0.32013 0.61666 0.0
C3199 C 0.26956 0.34168 0.68451 0.0
C3200 C 0.26262 0.3577 0.61732 0.0
C3201 C 0.24457 0.34528 0.613 0.0
C3202 C 0.27298 0.3533 0.62989 0.0
C3203 C 0.26501 0.33613 0.63856 0.0
C3204 C 0.24664 0.32371 0.63476 0.0
C3205 C 0.23667 0.3284 0.62189 0.0
C3206 C 0.29259 0.36685 0.63338 0.0
C3207 C 0.2376 0.30538 0.64398 0.0
H3208 H 0.30299 0.31424 0.64306 0.0
H3209 H 0.2927 0.33297 0.70018 0.0
H3210 H 0.26805 0.31152 0.61257 0.0
H3211 H 0.28752 0.33279 0.6082 0.0
H3212 H 0.28969 0.31379 0.61089 0.0
H3213 H 0.27199 0.34211 0.70174 0.0
H3214 H 0.27448 0.3553 0.67895 0.0
H3215 H 0.25491 0.33381 0.68147 0.0
H3216 H 0.26878 0.37071 0.61032 0.0
H3217 H 0.22264 0.31884 0.61877 0.0
H3218 H 0.30086 0.36201 0.62657 0.0
H3219 H 0.2957 0.36887 0.65045 0.0
H3220 H 0.29659 0.37977 0.62612 0.0
H3221 H 0.24361 0.29812 0.63743 0.0
H3222 H 0.22297 0.29768 0.64064 0.0
H3223 H 0.23974 0.30612 0.66126 0.0
C3224 C 0.67572 0.97846 0.64794 0.0
C3225 C 0.67896 0.98018 0.66971 0.0
C3226 C 0.67354 0.96382 0.63692 0.0
C3227 C 0.67468 0.95056 0.6479 0.0
C3228 C 0.6781 0.95226 0.66984 0.0
C3229 C 0.68017 0.96704 0.6805 0.0
C3230 C 0.66985 0.96247 0.61353 0.0
C3231 C 0.67949 0.93842 0.68206 0.0
C3232 C 0.6523 0.90523 0.62241 0.0
C3233 C 0.66684 0.90555 0.6129 0.0
C3234 C 0.6547 0.9197 0.63408 0.0
C3235 C 0.67207 0.93483 0.63638 0.0
C3236 C 0.68685 0.93515 0.6271 0.0
C3237 C 0.68405 0.92053 0.61544 0.0
C3238 C 0.6386 0.91885 0.64374 0.0
C3239 C 0.70558 0.95105 0.6292 0.0
H3240 H 0.67475 0.98853 0.63944 0.0
H3241 H 0.6827 0.96826 0.69731 0.0
H3242 H 0.68028 0.96145 0.60506 0.0
H3243 H 0.6568 0.95031 0.60997 0.0
H3244 H 0.66954 0.97399 0.60729 0.0
H3245 H 0.68249 0.94183 0.69899 0.0
H3246 H 0.66674 0.92551 0.68068 0.0
H3247 H 0.69016 0.93676 0.67538 0.0
H3248 H 0.639 0.89361 0.62084 0.0
H3249 H 0.69533 0.92097 0.60794 0.0
H3250 H 0.63693 0.9295 0.63717 0.0
H3251 H 0.64063 0.92106 0.66095 0.0
H3252 H 0.62605 0.90598 0.64085 0.0
H3253 H 0.70622 0.96267 0.62173 0.0
H3254 H 0.71572 0.94892 0.62178 0.0
H3255 H 0.70918 0.95432 0.64604 0.0
C3256 C 0.0322 0.72153 0.63466 0.0
C3257 C 0.02333 0.70477 0.64401 0.0
C3258 C 0.0493 0.72868 0.62614 0.0
C3259 C 0.05781 0.71884 0.62693 0.0
C3260 C 0.04914 0.70208 0.63671 0.0
C3261 C 0.03199 0.69523 0.64516 0.0
C3262 C 0.05813 0.74664 0.6159 0.0
C3263 C 0.05783 0.69125 0.63786 0.0
C3264 C 0.09275 0.73202 0.58475 0.0
C3265 C 0.1085 0.744 0.59562 0.0
C3266 C 0.07624 0.72297 0.59505 0.0
C3267 C 0.07549 0.726 0.61673 0.0
C3268 C 0.09149 0.73733 0.62805 0.0
C3269 C 0.10783 0.7462 0.61734 0.0
C3270 C 0.05951 0.7109 0.58245 0.0
C3271 C 0.09122 0.74088 0.65119 0.0
H3272 H 0.02568 0.72905 0.63377 0.0
H3273 H 0.02525 0.68228 0.65237 0.0
H3274 H 0.07144 0.75557 0.62323 0.0
H3275 H 0.06033 0.74547 0.59899 0.0
H3276 H 0.04997 0.75283 0.61722 0.0
H3277 H 0.04973 0.67887 0.64693 0.0
H3278 H 0.0597 0.68778 0.62175 0.0
H3279 H 0.0713 0.69904 0.64526 0.0
H3280 H 0.09327 0.73008 0.56802 0.0
H3281 H 0.11995 0.75554 0.62579 0.0
H3282 H 0.05107 0.7168 0.58126 0.0
H3283 H 0.05148 0.69798 0.59044 0.0
H3284 H 0.06257 0.70861 0.56629 0.0
H3285 H 0.08486 0.74874 0.65343 0.0
H3286 H 0.10491 0.74827 0.65819 0.0
H3287 H 0.08314 0.72832 0.65989 0.0
C3288 C 0.97824 0.62233 0.70934 0.0
C3289 C 0.97818 0.62277 0.68728 0.0
C3290 C 0.98104 0.61023 0.72028 0.0
C3291 C 0.98374 0.59817 0.70891 0.0
C3292 C 0.9834 0.59833 0.68665 0.0
C3293 C 0.98068 0.61068 0.67609 0.0
C3294 C 0.98139 0.61053 0.74403 0.0
C3295 C 0.98609 0.58559 0.674 0.0
C3296 C 0.00817 0.57909 0.73742 0.0
C3297 C 0.99392 0.5627 0.74412 0.0
C3298 C 0.00505 0.59065 0.72569 0.0
C3299 C 0.98726 0.58566 0.7204 0.0
C3300 C 0.97284 0.56898 0.72676 0.0
C3301 C 0.97634 0.55773 0.73861 0.0
C3302 C 0.02078 0.60838 0.71935 0.0
C3303 C 0.9537 0.56312 0.72128 0.0
H3304 H 0.97634 0.63163 0.71814 0.0
H3305 H 0.98061 0.61089 0.65906 0.0
H3306 H 0.97115 0.5974 0.75022 0.0
H3307 H 0.99462 0.61339 0.7499 0.0
H3308 H 0.97883 0.62059 0.75051 0.0
H3309 H 0.98486 0.58703 0.65681 0.0
H3310 H 0.99954 0.58775 0.6774 0.0
H3311 H 0.97609 0.57182 0.67857 0.0
H3312 H 0.02176 0.58308 0.74184 0.0
H3313 H 0.9653 0.54498 0.74353 0.0
H3314 H 0.01968 0.61907 0.72668 0.0
H3315 H 0.02072 0.61006 0.70207 0.0
H3316 H 0.03381 0.61004 0.72413 0.0
H3317 H 0.95014 0.57216 0.72861 0.0
H3318 H 0.94408 0.54946 0.72666 0.0
H3319 H 0.95216 0.56376 0.70402 0.0
C3320 C 0.39668 0.38014 0.71786 0.0
C3321 C 0.37965 0.3695 0.70876 0.0
C3322 C 0.40215 0.39689 0.72588 0.0
C3323 C 0.39035 0.40326 0.72466 0.0
C3324 C 0.37327 0.39277 0.71513 0.0
C3325 C 0.36809 0.37597 0.70733 0.0
C3326 C 0.42049 0.40768 0.73596 0.0
C3327 C 0.36041 0.39919 0.71342 0.0
C3328 C 0.40146 0.4391 0.76465 0.0
C3329 C 0.41265 0.45431 0.75297 0.0
C3330 C 0.39314 0.42233 0.75529 0.0
C3331 C 0.39602 0.42083 0.73373 0.0
C3332 C 0.40622 0.43624 0.72154 0.0
C3333 C 0.41448 0.45282 0.73134 0.0
C3334 C 0.38237 0.40621 0.76883 0.0
C3335 C 0.40941 0.43521 0.69845 0.0
H3336 H 0.4057 0.37528 0.71906 0.0
H3337 H 0.3549 0.36785 0.7003 0.0
H3338 H 0.42839 0.42055 0.72782 0.0
H3339 H 0.41918 0.41049 0.7526 0.0
H3340 H 0.42809 0.40086 0.73551 0.0
H3341 H 0.34789 0.38972 0.70485 0.0
H3342 H 0.35685 0.40131 0.72936 0.0
H3343 H 0.36685 0.41208 0.70518 0.0
H3344 H 0.40012 0.4402 0.78141 0.0
H3345 H 0.42296 0.46461 0.72223 0.0
H3346 H 0.38988 0.39942 0.77111 0.0
H3347 H 0.36946 0.39673 0.76103 0.0
H3348 H 0.37958 0.40961 0.78454 0.0
H3349 H 0.41857 0.43021 0.6966 0.0
H3350 H 0.4155 0.44828 0.69065 0.0
H3351 H 0.39668 0.42584 0.69024 0.0
C3352 C 0.62093 0.9966 0.71242 0.0
C3353 C 0.63034 0.01511 0.71342 0.0
C3354 C 0.60364 0.9864 0.72083 0.0
C3355 C 0.59566 0.99493 0.73043 0.0
C3356 C 0.60497 0.01358 0.73108 0.0
C3357 C 0.62213 0.0234 0.72258 0.0
C3358 C 0.59406 0.96653 0.71981 0.0
C3359 C 0.59694 0.02322 0.74115 0.0
C3360 C 0.54628 0.97505 0.74043 0.0
C3361 C 0.54572 0.97299 0.76233 0.0
C3362 C 0.56221 0.98084 0.72943 0.0
C3363 C 0.5779 0.98466 0.74064 0.0
C3364 C 0.577 0.98121 0.76248 0.0
C3365 C 0.56091 0.97542 0.77306 0.0
C3366 C 0.56259 0.98424 0.70611 0.0
C3367 C 0.59338 0.98499 0.77501 0.0
H3368 H 0.62717 0.99009 0.70535 0.0
H3369 H 0.62921 0.03768 0.72335 0.0
H3370 H 0.59213 0.96108 0.73595 0.0
H3371 H 0.58057 0.96102 0.71263 0.0
H3372 H 0.60158 0.96195 0.7106 0.0
H3373 H 0.60575 0.03778 0.73984 0.0
H3374 H 0.58384 0.01916 0.73366 0.0
H3375 H 0.59448 0.01973 0.75805 0.0
H3376 H 0.53458 0.97323 0.73206 0.0
H3377 H 0.56042 0.9735 0.78994 0.0
H3378 H 0.57023 0.97937 0.69776 0.0
H3379 H 0.56945 0.99866 0.70333 0.0
H3380 H 0.5489 0.97786 0.69918 0.0
H3381 H 0.60069 0.97966 0.76688 0.0
H3382 H 0.58993 0.97929 0.79107 0.0
H3383 H 0.60262 0.99948 0.77645 0.0
loop_
_geom_bond_atom_site_label_1
_geom_bond_atom_site_label_2
_geom_bond_distance
_geom_bond_site_symmetry_2
_ccdc_geom_bond_type
Zn0 O3 2.031 1_554 S
Zn0 O5 2.049 . S
Zn0 O10 2.067 1_554 S
Zn1 O2 1.962 1_455 S
Zn1 O4 1.986 . S
Zn1 O6 1.996 1_455 S
Zn1 O9 1.943 1_554 S
O2 Zn1 1.962 1_655 S
O2 C7 1.218 1_554 S
O3 Zn0 2.031 1_556 S
O3 C7 1.288 . S
O4 Zn1 1.986 . S
O4 C11 1.262 . S
O5 Zn0 2.049 . S
O5 C13 1.260 . S
O6 Zn1 1.996 1_655 S
O6 C13 1.257 . S
C7 O2 1.218 1_556 S
C7 O3 1.288 . S
C8 O9 1.249 . S
C8 O10 1.270 1_455 S
O9 Zn1 1.943 1_556 S
O9 C8 1.249 . S
O10 Zn0 2.067 1_556 S
O10 C8 1.270 1_655 S
C11 O4 1.262 . S
C11 O12 1.232 . S
O12 C11 1.232 . S
C13 O5 1.260 . S
C13 O6 1.257 . S
Zn14 O17 2.031 1_554 S
Zn14 O19 2.049 . S
Zn14 O24 2.067 1_554 S
Zn15 O16 1.962 . S
Zn15 O18 1.986 . S
Zn15 O20 1.996 . S
Zn15 O23 1.943 1_554 S
O16 Zn15 1.962 . S
O16 C21 1.254 1_554 S
O17 Zn14 2.031 1_556 S
O17 C21 1.269 . S
O18 Zn15 1.986 . S
O18 C25 1.262 . S
O19 Zn14 2.049 . S
O19 C27 1.260 . S
O20 Zn15 1.996 . S
O20 C27 1.257 . S
C21 O16 1.254 1_556 S
C21 O17 1.269 . S
C22 O23 1.249 . S
C22 O24 1.270 . S
O23 Zn15 1.943 1_556 S
O23 C22 1.249 . S
O24 Zn14 2.067 1_556 S
O24 C22 1.270 . S
C25 O18 1.262 . S
C25 O26 1.232 . S
O26 C25 1.232 . S
C27 O19 1.260 . S
C27 O20 1.257 . S
Zn28 O31 2.031 . S
Zn28 O33 2.049 1_554 S
Zn28 O38 2.067 . S
Zn29 O30 1.962 1_545 S
Zn29 O32 1.986 1_554 S
Zn29 O34 1.996 1_544 S
Zn29 O37 1.943 . S
O30 Zn29 1.962 1_565 S
O30 C35 1.254 . S
O31 Zn28 2.031 . S
O31 C35 1.269 . S
O32 Zn29 1.986 1_556 S
O32 C39 1.262 . S
O33 Zn28 2.049 1_556 S
O33 C41 1.260 . S
O34 Zn29 1.996 1_566 S
O34 C41 1.257 . S
C35 O30 1.254 . S
C35 O31 1.269 . S
C36 O37 1.249 . S
C36 O38 1.270 1_545 S
O37 Zn29 1.943 . S
O37 C36 1.249 . S
O38 Zn28 2.067 . S
O38 C36 1.270 1_565 S
C39 O32 1.262 . S
C39 O40 1.232 1_556 S
O40 C39 1.232 1_554 S
C41 O33 1.260 . S
C41 O34 1.257 . S
Zn42 O45 2.031 . S
Zn42 O47 2.049 1_554 S
Zn42 O52 2.067 . S
Zn43 O44 1.962 1_655 S
Zn43 O46 1.986 1_554 S
Zn43 O48 1.996 1_654 S
Zn43 O51 1.943 . S
O44 Zn43 1.962 1_455 S
O44 C49 1.254 . S
O45 Zn42 2.031 . S
O45 C49 1.269 . S
O46 Zn43 1.986 1_556 S
O46 C53 1.262 . S
O47 Zn42 2.049 1_556 S
O47 C55 1.260 . S
O48 Zn43 1.996 1_456 S
O48 C55 1.257 . S
C49 O44 1.254 . S
C49 O45 1.269 . S
C50 O51 1.249 . S
C50 O52 1.270 1_655 S
O51 Zn43 1.943 . S
O51 C50 1.249 . S
O52 Zn42 2.067 . S
O52 C50 1.270 1_455 S
C53 O46 1.262 . S
C53 O54 1.232 1_556 S
O54 C53 1.232 1_554 S
C55 O47 1.260 . S
C55 O48 1.257 . S
Zn56 O59 2.031 . S
Zn56 O61 2.049 1_554 S
Zn56 O66 2.067 . S
Zn57 O58 1.962 . S
Zn57 O60 1.986 1_554 S
Zn57 O62 1.996 1_554 S
Zn57 O65 1.943 . S
O58 Zn57 1.962 . S
O58 C63 1.254 . S
O59 Zn56 2.031 . S
O59 C63 1.269 . S
O60 Zn57 1.986 1_556 S
O60 C67 1.262 . S
O61 Zn56 2.049 1_556 S
O61 C69 1.260 . S
O62 Zn57 1.996 1_556 S
O62 C69 1.257 . S
C63 O58 1.254 . S
C63 O59 1.269 . S
C64 O65 1.249 . S
C64 O66 1.270 . S
O65 Zn57 1.943 . S
O65 C64 1.249 . S
O66 Zn56 2.067 . S
O66 C64 1.270 . S
C67 O60 1.262 . S
C67 O68 1.232 1_556 S
O68 C67 1.232 1_554 S
C69 O61 1.260 . S
C69 O62 1.257 . S
Zn70 O73 2.031 1_554 S
Zn70 O75 2.049 . S
Zn70 O80 2.067 1_554 S
Zn71 O72 1.962 1_565 S
Zn71 O74 1.986 . S
Zn71 O76 1.996 1_565 S
Zn71 O79 1.946 . S
O72 Zn71 1.962 1_545 S
O72 C77 1.254 . S
O73 Zn70 2.031 1_556 S
O73 C77 1.269 1_556 S
O74 Zn71 1.986 . S
O74 C81 1.262 . S
O75 Zn70 2.049 . S
O75 C83 1.260 . S
O76 Zn71 1.996 1_545 S
O76 C83 1.257 . S
C77 O72 1.254 . S
C77 O73 1.269 1_554 S
C78 O79 1.246 1_556 S
C78 O80 1.270 1_565 S
O79 Zn71 1.946 . S
O79 C78 1.246 1_554 S
O80 Zn70 2.067 1_556 S
O80 C78 1.270 1_545 S
C81 O74 1.262 . S
C81 O82 1.232 . S
O82 C81 1.232 . S
C83 O75 1.260 . S
C83 O76 1.257 . S
Zn84 O87 2.031 . S
Zn84 O89 2.049 . S
Zn84 O94 2.067 . S
Zn85 O86 1.962 . S
Zn85 O88 1.986 . S
Zn85 O90 1.996 . S
Zn85 O93 1.943 . S
O86 Zn85 1.962 . S
O86 C91 1.254 . S
O87 Zn84 2.031 . S
O87 C91 1.269 . S
O88 Zn85 1.986 . S
O88 C95 1.262 . S
O89 Zn84 2.049 . S
O89 C97 1.260 . S
O90 Zn85 1.996 . S
O90 C97 1.257 . S
C91 O86 1.254 . S
C91 O87 1.269 . S
C92 O93 1.249 . S
C92 O94 1.270 . S
O93 Zn85 1.943 . S
O93 C92 1.249 . S
O94 Zn84 2.067 . S
O94 C92 1.270 . S
C95 O88 1.262 . S
C95 O96 1.232 . S
O96 C95 1.232 . S
C97 O89 1.260 . S
C97 O90 1.257 . S
Zn98 O101 2.031 . S
Zn98 O103 2.049 . S
Zn98 O108 2.067 . S
Zn99 O100 1.962 . S
Zn99 O102 1.986 1_565 S
Zn99 O104 1.996 . S
Zn99 O107 1.943 . S
O100 Zn99 1.962 . S
O100 C105 1.254 . S
O101 Zn98 2.031 . S
O101 C105 1.269 . S
O102 Zn99 1.986 1_545 S
O102 C109 1.262 . S
O103 Zn98 2.049 . S
O103 C111 1.260 . S
O104 Zn99 1.996 . S
O104 C111 1.257 . S
C105 O100 1.254 . S
C105 O101 1.269 . S
C106 O107 1.249 . S
C106 O108 1.270 . S
O107 Zn99 1.943 . S
O107 C106 1.249 . S
O108 Zn98 2.067 . S
O108 C106 1.270 . S
C109 O102 1.262 . S
C109 O110 1.232 . S
O110 C109 1.232 . S
C111 O103 1.260 . S
C111 O104 1.257 . S
Zn112 O115 2.031 . S
Zn112 O117 2.049 . S
Zn112 O122 2.067 . S
Zn113 O114 1.962 1_455 S
Zn113 O116 1.986 . S
Zn113 O118 1.996 . S
Zn113 O121 1.943 . S
O114 Zn113 1.962 1_655 S
O114 C119 1.254 . S
O115 Zn112 2.031 . S
O115 C119 1.269 1_455 S
O116 Zn113 1.986 . S
O116 C123 1.262 . S
O117 Zn112 2.049 . S
O117 C125 1.260 . S
O118 Zn113 1.996 . S
O118 C125 1.257 . S
C119 O114 1.254 . S
C119 O115 1.269 1_655 S
C120 O121 1.249 . S
C120 O122 1.270 . S
O121 Zn113 1.943 . S
O121 C120 1.249 . S
O122 Zn112 2.067 . S
O122 C120 1.270 . S
C123 O116 1.262 . S
C123 O124 1.232 . S
O124 C123 1.232 . S
C125 O117 1.260 . S
C125 O118 1.257 . S
Zn126 O129 2.031 . S
Zn126 O131 2.049 . S
Zn126 O136 2.067 . S
Zn127 O128 1.962 1_565 S
Zn127 O130 1.986 . S
Zn127 O132 1.996 . S
Zn127 O135 1.943 . S
O128 Zn127 1.962 1_545 S
O128 C133 1.254 . S
O129 Zn126 2.031 . S
O129 C133 1.269 1_565 S
O130 Zn127 1.986 . S
O130 C137 1.262 . S
O131 Zn126 2.049 . S
O131 C139 1.260 . S
O132 Zn127 1.996 . S
O132 C139 1.257 . S
C133 O128 1.254 . S
C133 O129 1.269 1_545 S
C134 O135 1.249 . S
C134 O136 1.270 . S
O135 Zn127 1.943 . S
O135 C134 1.249 . S
O136 Zn126 2.067 . S
O136 C134 1.270 . S
C137 O130 1.262 . S
C137 O138 1.232 . S
O138 C137 1.232 . S
C139 O131 1.260 . S
C139 O132 1.257 . S
Zn140 O143 2.031 . S
Zn140 O145 2.049 . S
Zn140 O150 2.067 . S
Zn141 O142 1.962 1_455 S
Zn141 O144 1.986 . S
Zn141 O146 1.996 . S
Zn141 O149 1.943 . S
O142 Zn141 1.962 1_655 S
O142 C147 1.254 . S
O143 Zn140 2.031 . S
O143 C147 1.269 1_455 S
O144 Zn141 1.986 . S
O144 C151 1.262 . S
O145 Zn140 2.049 . S
O145 C153 1.260 . S
O146 Zn141 1.996 . S
O146 C153 1.257 . S
C147 O142 1.254 . S
C147 O143 1.269 1_655 S
C148 O149 1.249 . S
C148 O150 1.270 . S
O149 Zn141 1.943 . S
O149 C148 1.249 . S
O150 Zn140 2.067 . S
O150 C148 1.270 . S
C151 O144 1.262 . S
C151 O152 1.232 . S
O152 C151 1.232 . S
C153 O145 1.260 . S
C153 O146 1.257 . S
Zn154 O157 2.031 . S
Zn154 O159 2.049 . S
Zn154 O164 2.067 . S
Zn155 O156 1.962 . S
Zn155 O158 1.986 . S
Zn155 O160 1.996 . S
Zn155 O163 1.943 . S
O156 Zn155 1.962 . S
O156 C161 1.254 . S
O157 Zn154 2.031 . S
O157 C161 1.269 . S
O158 Zn155 1.986 . S
O158 C165 1.262 . S
O159 Zn154 2.049 . S
O159 C167 1.260 . S
O160 Zn155 1.996 . S
O160 C167 1.257 . S
C161 O156 1.254 . S
C161 O157 1.269 . S
C162 O163 1.249 . S
C162 O164 1.270 . S
O163 Zn155 1.943 . S
O163 C162 1.249 . S
O164 Zn154 2.067 . S
O164 C162 1.270 . S
C165 O158 1.262 . S
C165 O166 1.232 . S
O166 C165 1.232 . S
C167 O159 1.260 . S
C167 O160 1.257 . S
Zn168 O171 2.031 . S
Zn168 O173 2.049 . S
Zn168 O178 2.067 . S
Zn169 O170 1.962 1_545 S
Zn169 O172 1.986 . S
Zn169 O174 1.996 . S
Zn169 O177 1.943 . S
O170 Zn169 1.962 1_565 S
O170 C175 1.254 . S
O171 Zn168 2.031 . S
O171 C175 1.269 1_545 S
O172 Zn169 1.986 . S
O172 C179 1.262 . S
O173 Zn168 2.049 . S
O173 C181 1.260 . S
O174 Zn169 1.996 . S
O174 C181 1.257 . S
C175 O170 1.254 . S
C175 O171 1.269 1_565 S
C176 O177 1.249 . S
C176 O178 1.270 . S
O177 Zn169 1.943 . S
O177 C176 1.249 . S
O178 Zn168 2.067 . S
O178 C176 1.270 . S
C179 O172 1.262 . S
C179 O180 1.232 . S
O180 C179 1.232 . S
C181 O173 1.260 . S
C181 O174 1.257 . S
Zn182 O185 2.029 1_655 S
Zn182 O187 2.049 . S
Zn182 O192 2.067 . S
Zn183 O184 1.962 1_655 S
Zn183 O186 1.986 . S
Zn183 O188 1.996 . S
Zn183 O191 1.943 . S
O184 Zn183 1.962 1_455 S
O184 C189 1.254 . S
O185 Zn182 2.029 1_455 S
O185 C189 1.273 . S
O186 Zn183 1.986 . S
O186 C193 1.262 . S
O187 Zn182 2.049 . S
O187 C195 1.260 . S
O188 Zn183 1.996 . S
O188 C195 1.257 . S
C189 O184 1.254 . S
C189 O185 1.273 . S
C190 O191 1.249 . S
C190 O192 1.270 . S
O191 Zn183 1.943 . S
O191 C190 1.249 . S
O192 Zn182 2.067 . S
O192 C190 1.270 . S
C193 O186 1.262 . S
C193 O194 1.232 . S
O194 C193 1.232 . S
C195 O187 1.260 . S
C195 O188 1.257 . S
Zn196 O199 2.031 . S
Zn196 O201 2.049 . S
Zn196 O206 2.067 . S
Zn197 O198 1.962 . S
Zn197 O200 1.986 . S
Zn197 O202 1.996 . S
Zn197 O205 1.943 . S
O198 Zn197 1.962 . S
O198 C203 1.254 . S
O199 Zn196 2.031 . S
O199 C203 1.269 . S
O200 Zn197 1.986 . S
O200 C207 1.262 . S
O201 Zn196 2.049 . S
O201 C209 1.260 . S
O202 Zn197 1.996 . S
O202 C209 1.257 . S
C203 O198 1.254 . S
C203 O199 1.269 . S
C204 O205 1.249 . S
C204 O206 1.270 . S
O205 Zn197 1.943 . S
O205 C204 1.249 . S
O206 Zn196 2.067 . S
O206 C204 1.270 . S
C207 O200 1.262 . S
C207 O208 1.232 . S
O208 C207 1.232 . S
C209 O201 1.260 . S
C209 O202 1.257 . S
Zn210 O213 2.031 . S
Zn210 O215 2.049 . S
Zn210 O220 2.067 . S
Zn211 O212 1.962 . S
Zn211 O214 1.986 . S
Zn211 O216 1.996 . S
Zn211 O219 1.943 . S
O212 Zn211 1.962 . S
O212 C217 1.254 . S
O213 Zn210 2.031 . S
O213 C217 1.269 . S
O214 Zn211 1.986 . S
O214 C221 1.262 . S
O215 Zn210 2.049 . S
O215 C223 1.260 . S
O216 Zn211 1.996 . S
O216 C223 1.257 . S
C217 O212 1.254 . S
C217 O213 1.269 . S
C218 O219 1.249 . S
C218 O220 1.270 . S
O219 Zn211 1.943 . S
O219 C218 1.249 . S
O220 Zn210 2.067 . S
O220 C218 1.270 . S
C221 O214 1.262 . S
C221 O222 1.232 . S
O222 C221 1.232 . S
C223 O215 1.260 . S
C223 O216 1.257 . S
Zn224 O227 2.031 . S
Zn224 O229 2.049 . S
Zn224 O234 2.067 . S
Zn225 O226 1.962 . S
Zn225 O228 1.986 1_545 S
Zn225 O230 1.996 . S
Zn225 O233 1.943 . S
O226 Zn225 1.962 . S
O226 C231 1.254 . S
O227 Zn224 2.031 . S
O227 C231 1.269 . S
O228 Zn225 1.986 1_565 S
O228 C235 1.262 . S
O229 Zn224 2.049 . S
O229 C237 1.260 . S
O230 Zn225 1.996 . S
O230 C237 1.257 . S
C231 O226 1.254 . S
C231 O227 1.269 . S
C232 O233 1.249 . S
C232 O234 1.270 . S
O233 Zn225 1.943 . S
O233 C232 1.249 . S
O234 Zn224 2.067 . S
O234 C232 1.270 . S
C235 O228 1.262 . S
C235 O236 1.232 . S
O236 C235 1.232 . S
C237 O229 1.260 . S
C237 O230 1.257 . S
Zn238 O241 2.031 . S
Zn238 O243 2.049 . S
Zn238 O248 2.067 . S
Zn239 O240 1.962 1_655 S
Zn239 O242 1.986 . S
Zn239 O244 1.996 . S
Zn239 O247 1.943 . S
O240 Zn239 1.962 1_455 S
O240 C245 1.254 . S
O241 Zn238 2.031 . S
O241 C245 1.269 1_655 S
O242 Zn239 1.986 . S
O242 C249 1.262 . S
O243 Zn238 2.049 . S
O243 C251 1.260 . S
O244 Zn239 1.996 . S
O244 C251 1.257 . S
C245 O240 1.254 . S
C245 O241 1.269 1_455 S
C246 O247 1.249 . S
C246 O248 1.270 . S
O247 Zn239 1.943 . S
O247 C246 1.249 . S
O248 Zn238 2.067 . S
O248 C246 1.270 . S
C249 O242 1.262 . S
C249 O250 1.232 . S
O250 C249 1.232 . S
C251 O243 1.260 . S
C251 O244 1.257 . S
C252 C253 1.384 . S
C252 C254 1.384 . S
C252 H280 0.931 . S
C253 C252 1.384 . S
C253 C256 1.382 . S
C254 C252 1.384 . S
C254 C255 1.381 . S
C254 H281 0.930 . S
C255 C254 1.381 . S
C255 C257 1.381 . S
C255 C258 1.487 . S
C256 C253 1.382 . S
C256 C257 1.387 . S
C256 H282 0.930 . S
C257 C255 1.381 . S
C257 C256 1.387 . S
C257 H283 0.931 . S
C258 C255 1.487 . S
C258 C265 1.399 . S
C258 N296 1.343 . S
C259 C260 1.384 . S
C259 C261 1.384 . S
C259 H284 0.931 . S
C260 C259 1.384 . S
C260 C263 1.382 . S
C261 C259 1.384 . S
C261 C262 1.381 . S
C261 H285 0.930 . S
C262 C261 1.381 . S
C262 C264 1.381 . S
C262 C265 1.487 . S
C263 C260 1.382 . S
C263 C264 1.387 . S
C263 H286 0.930 . S
C264 C262 1.381 . S
C264 C263 1.387 . S
C264 H287 0.931 . S
C265 C258 1.399 . S
C265 C262 1.487 . S
C265 N297 1.343 . S
C266 C267 1.384 . S
C266 C268 1.384 . S
C266 H288 0.931 . S
C267 C266 1.384 . S
C267 C270 1.382 . S
C268 C266 1.384 . S
C268 C269 1.381 . S
C268 H289 0.930 . S
C269 C268 1.381 . S
C269 C271 1.381 . S
C269 C272 1.487 . S
C270 C267 1.382 . S
C270 C271 1.387 . S
C270 H290 0.930 . S
C271 C269 1.381 . S
C271 C270 1.387 . S
C271 H291 0.931 . S
C272 C269 1.487 . S
C272 C279 1.399 . S
C272 N297 1.343 . S
C273 C274 1.384 . S
C273 C275 1.384 . S
C273 H292 0.931 . S
C274 C273 1.384 . S
C274 C277 1.382 . S
C275 C273 1.384 . S
C275 C276 1.381 . S
C275 H293 0.930 . S
C276 C275 1.381 . S
C276 C278 1.381 . S
C276 C279 1.487 . S
C277 C274 1.382 . S
C277 C278 1.387 . S
C277 H294 0.930 . S
C278 C276 1.381 . S
C278 C277 1.387 . S
C278 H295 0.931 . S
C279 C272 1.399 . S
C279 C276 1.487 . S
C279 N296 1.343 . S
H280 C252 0.931 . S
H281 C254 0.930 . S
H282 C256 0.930 . S
H283 C257 0.931 . S
H284 C259 0.931 . S
H285 C261 0.930 . S
H286 C263 0.930 . S
H287 C264 0.931 . S
H288 C266 0.931 . S
H289 C268 0.930 . S
H290 C270 0.930 . S
H291 C271 0.931 . S
H292 C273 0.931 . S
H293 C275 0.930 . S
H294 C277 0.930 . S
H295 C278 0.931 . S
N296 C258 1.343 . S
N296 C279 1.343 . S
N297 C265 1.343 . S
N297 C272 1.343 . S
C298 C299 1.384 . S
C298 C300 1.384 . S
C298 H326 0.931 . S
C299 C298 1.384 . S
C299 C302 1.382 . S
C300 C298 1.384 . S
C300 C301 1.381 . S
C300 H327 0.930 . S
C301 C300 1.381 . S
C301 C303 1.381 . S
C301 C304 1.487 . S
C302 C299 1.382 . S
C302 C303 1.387 . S
C302 H328 0.930 . S
C303 C301 1.381 . S
C303 C302 1.387 . S
C303 H329 0.931 . S
C304 C301 1.487 . S
C304 C311 1.399 . S
C304 N342 1.343 . S
C305 C306 1.384 . S
C305 C307 1.384 . S
C305 H330 0.931 . S
C306 C305 1.384 . S
C306 C309 1.382 . S
C307 C305 1.384 . S
C307 C308 1.381 . S
C307 H331 0.930 . S
C308 C307 1.381 . S
C308 C310 1.381 . S
C308 C311 1.487 . S
C309 C306 1.382 . S
C309 C310 1.387 . S
C309 H332 0.930 . S
C310 C308 1.381 . S
C310 C309 1.387 . S
C310 H333 0.931 . S
C311 C304 1.399 . S
C311 C308 1.487 . S
C311 N343 1.343 . S
C312 C313 1.384 . S
C312 C314 1.384 . S
C312 H334 0.931 . S
C313 C312 1.384 . S
C313 C316 1.382 . S
C314 C312 1.384 . S
C314 C315 1.381 . S
C314 H335 0.930 . S
C315 C314 1.381 . S
C315 C317 1.381 . S
C315 C318 1.487 . S
C316 C313 1.382 . S
C316 C317 1.387 . S
C316 H336 0.930 . S
C317 C315 1.381 . S
C317 C316 1.387 . S
C317 H337 0.931 . S
C318 C315 1.487 . S
C318 C325 1.399 . S
C318 N343 1.343 . S
C319 C320 1.384 . S
C319 C321 1.384 . S
C319 H338 0.931 . S
C320 C319 1.384 . S
C320 C323 1.382 . S
C321 C319 1.384 . S
C321 C322 1.381 . S
C321 H339 0.930 . S
C322 C321 1.381 . S
C322 C324 1.381 . S
C322 C325 1.487 . S
C323 C320 1.382 . S
C323 C324 1.387 . S
C323 H340 0.930 . S
C324 C322 1.381 . S
C324 C323 1.387 . S
C324 H341 0.931 . S
C325 C318 1.399 . S
C325 C322 1.487 . S
C325 N342 1.343 . S
H326 C298 0.931 . S
H327 C300 0.930 . S
H328 C302 0.930 . S
H329 C303 0.931 . S
H330 C305 0.931 . S
H331 C307 0.930 . S
H332 C309 0.930 . S
H333 C310 0.931 . S
H334 C312 0.931 . S
H335 C314 0.930 . S
H336 C316 0.930 . S
H337 C317 0.931 . S
H338 C319 0.931 . S
H339 C321 0.930 . S
H340 C323 0.930 . S
H341 C324 0.931 . S
N342 C304 1.343 . S
N342 C325 1.343 . S
N343 C311 1.343 . S
N343 C318 1.343 . S
C344 C345 1.384 . S
C344 C346 1.384 . S
C344 H372 0.931 . S
C345 C344 1.384 . S
C345 C348 1.382 . S
C346 C344 1.384 . S
C346 C347 1.381 . S
C346 H373 0.930 . S
C347 C346 1.381 . S
C347 C349 1.381 . S
C347 C350 1.487 . S
C348 C345 1.382 . S
C348 C349 1.387 . S
C348 H374 0.930 . S
C349 C347 1.381 . S
C349 C348 1.387 . S
C349 H375 0.931 . S
C350 C347 1.487 . S
C350 C357 1.399 . S
C350 N388 1.343 . S
C351 C352 1.384 . S
C351 C353 1.384 . S
C351 H376 0.931 . S
C352 C351 1.384 . S
C352 C355 1.382 . S
C353 C351 1.384 . S
C353 C354 1.381 . S
C353 H377 0.930 . S
C354 C353 1.381 . S
C354 C356 1.381 . S
C354 C357 1.487 . S
C355 C352 1.382 . S
C355 C356 1.387 . S
C355 H378 0.930 . S
C356 C354 1.381 . S
C356 C355 1.387 . S
C356 H379 0.931 . S
C357 C350 1.399 . S
C357 C354 1.487 . S
C357 N389 1.343 . S
C358 C359 1.384 . S
C358 C360 1.384 . S
C358 H380 0.931 . S
C359 C358 1.384 . S
C359 C362 1.382 . S
C360 C358 1.384 . S
C360 C361 1.381 . S
C360 H381 0.930 . S
C361 C360 1.381 . S
C361 C363 1.381 . S
C361 C364 1.487 . S
C362 C359 1.382 . S
C362 C363 1.387 . S
C362 H382 0.930 . S
C363 C361 1.381 . S
C363 C362 1.387 . S
C363 H383 0.931 . S
C364 C361 1.487 . S
C364 C371 1.399 . S
C364 N389 1.343 . S
C365 C366 1.384 . S
C365 C367 1.384 . S
C365 H384 0.931 . S
C366 C365 1.384 . S
C366 C369 1.382 . S
C367 C365 1.384 . S
C367 C368 1.381 . S
C367 H385 0.930 . S
C368 C367 1.381 . S
C368 C370 1.381 . S
C368 C371 1.487 . S
C369 C366 1.382 . S
C369 C370 1.387 . S
C369 H386 0.930 . S
C370 C368 1.381 . S
C370 C369 1.387 . S
C370 H387 0.931 . S
C371 C364 1.399 . S
C371 C368 1.487 . S
C371 N388 1.343 . S
H372 C344 0.931 . S
H373 C346 0.930 . S
H374 C348 0.930 . S
H375 C349 0.931 . S
H376 C351 0.931 . S
H377 C353 0.930 . S
H378 C355 0.930 . S
H379 C356 0.931 . S
H380 C358 0.931 . S
H381 C360 0.930 . S
H382 C362 0.930 . S
H383 C363 0.931 . S
H384 C365 0.931 . S
H385 C367 0.930 . S
H386 C369 0.930 . S
H387 C370 0.931 . S
N388 C350 1.343 . S
N388 C371 1.343 . S
N389 C357 1.343 . S
N389 C364 1.343 . S
C390 C391 1.384 . S
C390 C392 1.384 . S
C390 H418 0.931 . S
C391 C390 1.384 . S
C391 C394 1.382 . S
C392 C390 1.384 . S
C392 C393 1.381 . S
C392 H419 0.930 . S
C393 C392 1.381 . S
C393 C395 1.381 . S
C393 C396 1.487 . S
C394 C391 1.382 . S
C394 C395 1.387 . S
C394 H420 0.930 . S
C395 C393 1.381 . S
C395 C394 1.387 . S
C395 H421 0.931 . S
C396 C393 1.487 . S
C396 C403 1.399 . S
C396 N434 1.343 . S
C397 C398 1.384 . S
C397 C399 1.384 . S
C397 H422 0.931 . S
C398 C397 1.384 . S
C398 C401 1.382 . S
C399 C397 1.384 . S
C399 C400 1.381 . S
C399 H423 0.930 . S
C400 C399 1.381 . S
C400 C402 1.381 . S
C400 C403 1.487 . S
C401 C398 1.382 . S
C401 C402 1.387 . S
C401 H424 0.930 . S
C402 C400 1.381 . S
C402 C401 1.387 . S
C402 H425 0.931 . S
C403 C396 1.399 . S
C403 C400 1.487 . S
C403 N435 1.343 . S
C404 C405 1.384 . S
C404 C406 1.384 . S
C404 H426 0.931 . S
C405 C404 1.384 . S
C405 C408 1.382 . S
C406 C404 1.384 . S
C406 C407 1.381 . S
C406 H427 0.930 . S
C407 C406 1.381 . S
C407 C409 1.381 . S
C407 C410 1.487 . S
C408 C405 1.382 . S
C408 C409 1.387 . S
C408 H428 0.930 . S
C409 C407 1.381 . S
C409 C408 1.387 . S
C409 H429 0.931 . S
C410 C407 1.487 . S
C410 C417 1.399 . S
C410 N435 1.343 . S
C411 C412 1.384 . S
C411 C413 1.384 . S
C411 H430 0.931 . S
C412 C411 1.384 . S
C412 C415 1.382 . S
C413 C411 1.384 . S
C413 C414 1.381 . S
C413 H431 0.930 . S
C414 C413 1.381 . S
C414 C416 1.381 . S
C414 C417 1.487 . S
C415 C412 1.382 . S
C415 C416 1.387 . S
C415 H432 0.930 . S
C416 C414 1.381 . S
C416 C415 1.387 . S
C416 H433 0.931 . S
C417 C410 1.399 . S
C417 C414 1.487 . S
C417 N434 1.343 . S
H418 C390 0.931 . S
H419 C392 0.930 . S
H420 C394 0.930 . S
H421 C395 0.931 . S
H422 C397 0.931 . S
H423 C399 0.930 . S
H424 C401 0.930 . S
H425 C402 0.931 . S
H426 C404 0.931 . S
H427 C406 0.930 . S
H428 C408 0.930 . S
H429 C409 0.931 . S
H430 C411 0.931 . S
H431 C413 0.930 . S
H432 C415 0.930 . S
H433 C416 0.931 . S
N434 C396 1.343 . S
N434 C417 1.343 . S
N435 C403 1.343 . S
N435 C410 1.343 . S
C436 C437 1.384 . S
C436 C438 1.384 . S
C436 H464 0.931 . S
C437 C436 1.384 . S
C437 C440 1.382 . S
C438 C436 1.384 . S
C438 C439 1.381 . S
C438 H465 0.930 . S
C439 C438 1.381 . S
C439 C441 1.381 . S
C439 C442 1.487 . S
C440 C437 1.382 . S
C440 C441 1.387 . S
C440 H466 0.930 . S
C441 C439 1.381 . S
C441 C440 1.387 . S
C441 H467 0.931 . S
C442 C439 1.487 . S
C442 C449 1.399 . S
C442 N480 1.343 . S
C443 C444 1.384 . S
C443 C445 1.384 . S
C443 H468 0.931 . S
C444 C443 1.384 . S
C444 C447 1.382 . S
C445 C443 1.384 . S
C445 C446 1.381 . S
C445 H469 0.930 . S
C446 C445 1.381 . S
C446 C448 1.381 . S
C446 C449 1.487 . S
C447 C444 1.382 . S
C447 C448 1.387 . S
C447 H470 0.930 . S
C448 C446 1.381 . S
C448 C447 1.387 . S
C448 H471 0.931 . S
C449 C442 1.399 . S
C449 C446 1.487 . S
C449 N481 1.343 . S
C450 C451 1.384 . S
C450 C452 1.384 . S
C450 H472 0.931 . S
C451 C450 1.384 . S
C451 C454 1.382 . S
C452 C450 1.384 . S
C452 C453 1.381 . S
C452 H473 0.930 . S
C453 C452 1.381 . S
C453 C455 1.381 . S
C453 C456 1.487 . S
C454 C451 1.382 . S
C454 C455 1.387 . S
C454 H474 0.930 . S
C455 C453 1.381 . S
C455 C454 1.387 . S
C455 H475 0.931 . S
C456 C453 1.487 . S
C456 C463 1.399 . S
C456 N481 1.343 . S
C457 C458 1.384 . S
C457 C459 1.384 . S
C457 H476 0.931 . S
C458 C457 1.384 . S
C458 C461 1.382 . S
C459 C457 1.384 . S
C459 C460 1.381 . S
C459 H477 0.930 . S
C460 C459 1.381 . S
C460 C462 1.381 . S
C460 C463 1.487 . S
C461 C458 1.382 . S
C461 C462 1.387 . S
C461 H478 0.930 . S
C462 C460 1.381 . S
C462 C461 1.387 . S
C462 H479 0.931 . S
C463 C456 1.399 . S
C463 C460 1.487 . S
C463 N480 1.343 . S
H464 C436 0.931 . S
H465 C438 0.930 . S
H466 C440 0.930 . S
H467 C441 0.931 . S
H468 C443 0.931 . S
H469 C445 0.930 . S
H470 C447 0.930 . S
H471 C448 0.931 . S
H472 C450 0.931 . S
H473 C452 0.930 . S
H474 C454 0.930 . S
H475 C455 0.931 . S
H476 C457 0.931 . S
H477 C459 0.930 . S
H478 C461 0.930 . S
H479 C462 0.931 . S
N480 C442 1.343 . S
N480 C463 1.343 . S
N481 C449 1.343 . S
N481 C456 1.343 . S
C482 C483 1.384 . S
C482 C484 1.384 . S
C482 H510 0.931 . S
C483 C482 1.384 . S
C483 C486 1.382 . S
C484 C482 1.384 . S
C484 C485 1.381 . S
C484 H511 0.930 . S
C485 C484 1.381 . S
C485 C487 1.381 . S
C485 C488 1.487 . S
C486 C483 1.382 . S
C486 C487 1.387 . S
C486 H512 0.930 . S
C487 C485 1.381 . S
C487 C486 1.387 . S
C487 H513 0.931 . S
C488 C485 1.487 . S
C488 C495 1.399 . S
C488 N526 1.343 . S
C489 C490 1.384 . S
C489 C491 1.384 . S
C489 H514 0.931 . S
C490 C489 1.384 . S
C490 C493 1.382 . S
C491 C489 1.384 . S
C491 C492 1.381 . S
C491 H515 0.930 . S
C492 C491 1.381 . S
C492 C494 1.381 . S
C492 C495 1.487 . S
C493 C490 1.382 . S
C493 C494 1.387 . S
C493 H516 0.930 . S
C494 C492 1.381 . S
C494 C493 1.387 . S
C494 H517 0.931 . S
C495 C488 1.399 . S
C495 C492 1.487 . S
C495 N527 1.343 . S
C496 C497 1.384 . S
C496 C498 1.384 . S
C496 H518 0.931 . S
C497 C496 1.384 . S
C497 C500 1.382 . S
C498 C496 1.384 . S
C498 C499 1.381 . S
C498 H519 0.930 . S
C499 C498 1.381 . S
C499 C501 1.381 . S
C499 C502 1.487 . S
C500 C497 1.382 . S
C500 C501 1.387 . S
C500 H520 0.930 . S
C501 C499 1.381 . S
C501 C500 1.387 . S
C501 H521 0.931 . S
C502 C499 1.487 . S
C502 C509 1.399 . S
C502 N527 1.343 . S
C503 C504 1.384 . S
C503 C505 1.384 . S
C503 H522 0.931 . S
C504 C503 1.384 . S
C504 C507 1.382 . S
C505 C503 1.384 . S
C505 C506 1.381 . S
C505 H523 0.930 . S
C506 C505 1.381 . S
C506 C508 1.381 . S
C506 C509 1.487 . S
C507 C504 1.382 . S
C507 C508 1.387 . S
C507 H524 0.930 . S
C508 C506 1.381 . S
C508 C507 1.387 . S
C508 H525 0.931 . S
C509 C502 1.399 . S
C509 C506 1.487 . S
C509 N526 1.343 . S
H510 C482 0.931 . S
H511 C484 0.930 . S
H512 C486 0.930 . S
H513 C487 0.931 . S
H514 C489 0.931 . S
H515 C491 0.930 . S
H516 C493 0.930 . S
H517 C494 0.931 . S
H518 C496 0.931 . S
H519 C498 0.930 . S
H520 C500 0.930 . S
H521 C501 0.931 . S
H522 C503 0.931 . S
H523 C505 0.930 . S
H524 C507 0.930 . S
H525 C508 0.931 . S
N526 C488 1.343 . S
N526 C509 1.343 . S
N527 C495 1.343 . S
N527 C502 1.343 . S
C528 C529 1.384 . S
C528 C530 1.384 . S
C528 H556 0.931 . S
C529 C528 1.384 . S
C529 C532 1.382 . S
C530 C528 1.384 . S
C530 C531 1.381 . S
C530 H557 0.930 . S
C531 C530 1.381 . S
C531 C533 1.381 . S
C531 C534 1.487 . S
C532 C529 1.382 . S
C532 C533 1.387 . S
C532 H558 0.930 . S
C533 C531 1.381 . S
C533 C532 1.387 . S
C533 H559 0.931 . S
C534 C531 1.487 . S
C534 C541 1.399 . S
C534 N572 1.343 . S
C535 C536 1.384 . S
C535 C537 1.384 . S
C535 H560 0.931 . S
C536 C535 1.384 . S
C536 C539 1.382 . S
C537 C535 1.384 . S
C537 C538 1.381 . S
C537 H561 0.930 . S
C538 C537 1.381 . S
C538 C540 1.381 . S
C538 C541 1.487 . S
C539 C536 1.382 . S
C539 C540 1.387 . S
C539 H562 0.930 . S
C540 C538 1.381 . S
C540 C539 1.387 . S
C540 H563 0.931 . S
C541 C534 1.399 . S
C541 C538 1.487 . S
C541 N573 1.343 . S
C542 C543 1.384 . S
C542 C544 1.384 . S
C542 H564 0.931 . S
C543 C542 1.384 . S
C543 C546 1.382 . S
C544 C542 1.384 . S
C544 C545 1.381 . S
C544 H565 0.930 . S
C545 C544 1.381 . S
C545 C547 1.381 . S
C545 C548 1.487 . S
C546 C543 1.382 . S
C546 C547 1.387 . S
C546 H566 0.930 . S
C547 C545 1.381 . S
C547 C546 1.387 . S
C547 H567 0.931 . S
C548 C545 1.487 . S
C548 C555 1.399 . S
C548 N573 1.343 . S
C549 C550 1.384 . S
C549 C551 1.384 . S
C549 H568 0.931 . S
C550 C549 1.384 . S
C550 C553 1.382 . S
C551 C549 1.384 . S
C551 C552 1.381 . S
C551 H569 0.930 . S
C552 C551 1.381 . S
C552 C554 1.381 . S
C552 C555 1.487 . S
C553 C550 1.382 . S
C553 C554 1.387 . S
C553 H570 0.930 . S
C554 C552 1.381 . S
C554 C553 1.387 . S
C554 H571 0.931 . S
C555 C548 1.399 . S
C555 C552 1.487 . S
C555 N572 1.343 . S
H556 C528 0.931 . S
H557 C530 0.930 . S
H558 C532 0.930 . S
H559 C533 0.931 . S
H560 C535 0.931 . S
H561 C537 0.930 . S
H562 C539 0.930 . S
H563 C540 0.931 . S
H564 C542 0.931 . S
H565 C544 0.930 . S
H566 C546 0.930 . S
H567 C547 0.931 . S
H568 C549 0.931 . S
H569 C551 0.930 . S
H570 C553 0.930 . S
H571 C554 0.931 . S
N572 C534 1.343 . S
N572 C555 1.343 . S
N573 C541 1.343 . S
N573 C548 1.343 . S
C574 C575 1.384 . S
C574 C576 1.384 . S
C574 H602 0.931 . S
C575 C574 1.384 . S
C575 C578 1.382 . S
C576 C574 1.384 . S
C576 C577 1.381 . S
C576 H603 0.930 . S
C577 C576 1.381 . S
C577 C579 1.381 . S
C577 C580 1.487 . S
C578 C575 1.382 . S
C578 C579 1.387 . S
C578 H604 0.930 . S
C579 C577 1.381 . S
C579 C578 1.387 . S
C579 H605 0.931 . S
C580 C577 1.487 . S
C580 C587 1.399 . S
C580 N618 1.343 . S
C581 C582 1.384 . S
C581 C583 1.384 . S
C581 H606 0.931 . S
C582 C581 1.384 . S
C582 C585 1.382 . S
C583 C581 1.384 . S
C583 C584 1.381 . S
C583 H607 0.930 . S
C584 C583 1.381 . S
C584 C586 1.381 . S
C584 C587 1.487 . S
C585 C582 1.382 . S
C585 C586 1.387 . S
C585 H608 0.930 . S
C586 C584 1.381 . S
C586 C585 1.387 . S
C586 H609 0.931 . S
C587 C580 1.399 . S
C587 C584 1.487 . S
C587 N619 1.343 . S
C588 C589 1.384 . S
C588 C590 1.384 . S
C588 H610 0.931 . S
C589 C588 1.384 . S
C589 C592 1.382 . S
C590 C588 1.384 . S
C590 C591 1.381 . S
C590 H611 0.930 . S
C591 C590 1.381 . S
C591 C593 1.381 . S
C591 C594 1.487 . S
C592 C589 1.382 . S
C592 C593 1.387 . S
C592 H612 0.930 . S
C593 C591 1.381 . S
C593 C592 1.387 . S
C593 H613 0.931 . S
C594 C591 1.487 . S
C594 C601 1.399 . S
C594 N619 1.343 . S
C595 C596 1.384 . S
C595 C597 1.384 . S
C595 H614 0.931 . S
C596 C595 1.384 . S
C596 C599 1.382 . S
C597 C595 1.384 . S
C597 C598 1.381 . S
C597 H615 0.930 . S
C598 C597 1.381 . S
C598 C600 1.381 . S
C598 C601 1.487 . S
C599 C596 1.382 . S
C599 C600 1.387 . S
C599 H616 0.930 . S
C600 C598 1.381 . S
C600 C599 1.387 . S
C600 H617 0.931 . S
C601 C594 1.399 . S
C601 C598 1.487 . S
C601 N618 1.343 . S
H602 C574 0.931 . S
H603 C576 0.930 . S
H604 C578 0.930 . S
H605 C579 0.931 . S
H606 C581 0.931 . S
H607 C583 0.930 . S
H608 C585 0.930 . S
H609 C586 0.931 . S
H610 C588 0.931 . S
H611 C590 0.930 . S
H612 C592 0.930 . S
H613 C593 0.931 . S
H614 C595 0.931 . S
H615 C597 0.930 . S
H616 C599 0.930 . S
H617 C600 0.931 . S
N618 C580 1.343 . S
N618 C601 1.343 . S
N619 C587 1.343 . S
N619 C594 1.343 . S
C620 C621 1.384 . S
C620 C622 1.384 . S
C620 H648 0.931 . S
C621 C620 1.384 . S
C621 C624 1.382 . S
C622 C620 1.384 . S
C622 C623 1.381 . S
C622 H649 0.930 . S
C623 C622 1.381 . S
C623 C625 1.381 . S
C623 C626 1.487 . S
C624 C621 1.382 . S
C624 C625 1.387 . S
C624 H650 0.930 . S
C625 C623 1.381 . S
C625 C624 1.387 . S
C625 H651 0.931 . S
C626 C623 1.487 . S
C626 C633 1.399 . S
C626 N664 1.343 . S
C627 C628 1.384 . S
C627 C629 1.384 . S
C627 H652 0.931 . S
C628 C627 1.384 . S
C628 C631 1.382 . S
C629 C627 1.384 . S
C629 C630 1.381 . S
C629 H653 0.930 . S
C630 C629 1.381 . S
C630 C632 1.381 . S
C630 C633 1.487 . S
C631 C628 1.382 . S
C631 C632 1.387 . S
C631 H654 0.930 . S
C632 C630 1.381 . S
C632 C631 1.387 . S
C632 H655 0.931 . S
C633 C626 1.399 . S
C633 C630 1.487 . S
C633 N665 1.343 . S
C634 C635 1.384 . S
C634 C636 1.384 . S
C634 H656 0.931 . S
C635 C634 1.384 . S
C635 C638 1.382 . S
C636 C634 1.384 . S
C636 C637 1.381 . S
C636 H657 0.930 . S
C637 C636 1.381 . S
C637 C639 1.381 . S
C637 C640 1.487 . S
C638 C635 1.382 . S
C638 C639 1.387 . S
C638 H658 0.930 . S
C639 C637 1.381 . S
C639 C638 1.387 . S
C639 H659 0.931 . S
C640 C637 1.487 . S
C640 C647 1.399 . S
C640 N665 1.343 . S
C641 C642 1.384 . S
C641 C643 1.384 . S
C641 H660 0.931 . S
C642 C641 1.384 . S
C642 C645 1.382 . S
C643 C641 1.384 . S
C643 C644 1.381 . S
C643 H661 0.930 . S
C644 C643 1.381 . S
C644 C646 1.381 . S
C644 C647 1.487 . S
C645 C642 1.382 . S
C645 C646 1.387 . S
C645 H662 0.930 . S
C646 C644 1.381 . S
C646 C645 1.387 . S
C646 H663 0.931 . S
C647 C640 1.399 . S
C647 C644 1.487 . S
C647 N664 1.343 . S
H648 C620 0.931 . S
H649 C622 0.930 . S
H650 C624 0.930 . S
H651 C625 0.931 . S
H652 C627 0.931 . S
H653 C629 0.930 . S
H654 C631 0.930 . S
H655 C632 0.931 . S
H656 C634 0.931 . S
H657 C636 0.930 . S
H658 C638 0.930 . S
H659 C639 0.931 . S
H660 C641 0.931 . S
H661 C643 0.930 . S
H662 C645 0.930 . S
H663 C646 0.931 . S
N664 C626 1.343 . S
N664 C647 1.343 . S
N665 C633 1.343 . S
N665 C640 1.343 . S
C666 C667 1.384 . S
C666 C668 1.384 . S
C666 H694 0.931 . S
C667 C666 1.384 . S
C667 C670 1.382 1_655 S
C668 C666 1.384 . S
C668 C669 1.408 . S
C668 H695 0.930 . S
C669 C668 1.408 . S
C669 C671 1.368 1_655 S
C669 C672 1.472 1_655 S
C670 C667 1.382 1_455 S
C670 C671 1.387 . S
C670 H696 0.930 . S
C671 C669 1.368 1_455 S
C671 C670 1.387 . S
C671 H697 0.931 . S
C672 C669 1.472 1_455 S
C672 C679 1.399 1_455 S
C672 N710 1.312 . S
C673 C674 1.384 . S
C673 C675 1.384 . S
C673 H698 0.931 . S
C674 C673 1.384 . S
C674 C677 1.382 1_455 S
C675 C673 1.384 . S
C675 C676 1.381 . S
C675 H699 0.930 . S
C676 C675 1.381 . S
C676 C678 1.383 1_455 S
C676 C679 1.491 1_455 S
C677 C674 1.382 1_655 S
C677 C678 1.387 . S
C677 H700 0.930 . S
C678 C676 1.383 1_655 S
C678 C677 1.387 . S
C678 H701 0.931 . S
C679 C672 1.399 1_655 S
C679 C676 1.491 1_655 S
C679 N711 1.361 . S
C680 C681 1.384 . S
C680 C682 1.384 . S
C680 H702 0.931 . S
C681 C680 1.384 . S
C681 C684 1.382 1_455 S
C682 C680 1.384 . S
C682 C683 1.425 . S
C682 H703 0.930 . S
C683 C682 1.425 . S
C683 C685 1.360 1_455 S
C683 C686 1.464 . S
C684 C681 1.382 1_655 S
C684 C685 1.387 . S
C684 H704 0.930 . S
C685 C683 1.360 1_655 S
C685 C684 1.387 . S
C685 H705 0.931 . S
C686 C683 1.464 . S
C686 C693 1.398 . S
C686 N711 1.320 1_455 S
C687 C688 1.384 . S
C687 C689 1.384 . S
C687 H706 0.931 . S
C688 C687 1.384 . S
C688 C691 1.382 1_655 S
C689 C687 1.384 . S
C689 C690 1.381 1_655 S
C689 H707 0.930 . S
C690 C689 1.381 1_455 S
C690 C692 1.383 . S
C690 C693 1.498 . S
C691 C688 1.382 1_455 S
C691 C692 1.387 . S
C691 H708 0.930 . S
C692 C690 1.383 . S
C692 C691 1.387 . S
C692 H709 0.931 . S
C693 C686 1.398 . S
C693 C690 1.498 . S
C693 N710 1.361 . S
H694 C666 0.931 . S
H695 C668 0.930 . S
H696 C670 0.930 . S
H697 C671 0.931 . S
H698 C673 0.931 . S
H699 C675 0.930 . S
H700 C677 0.930 . S
H701 C678 0.931 . S
H702 C680 0.931 . S
H703 C682 0.930 . S
H704 C684 0.930 . S
H705 C685 0.931 . S
H706 C687 0.931 . S
H707 C689 0.930 . S
H708 C691 0.930 . S
H709 C692 0.931 . S
N710 C672 1.312 . S
N710 C693 1.361 . S
N711 C679 1.361 . S
N711 C686 1.320 1_655 S
C712 C713 1.384 . S
C712 C714 1.384 . S
C712 H740 0.931 . S
C713 C712 1.384 . S
C713 C716 1.382 . S
C714 C712 1.384 . S
C714 C715 1.381 . S
C714 H741 0.930 . S
C715 C714 1.381 . S
C715 C717 1.381 . S
C715 C718 1.487 . S
C716 C713 1.382 . S
C716 C717 1.387 . S
C716 H742 0.930 . S
C717 C715 1.381 . S
C717 C716 1.387 . S
C717 H743 0.931 . S
C718 C715 1.487 . S
C718 C725 1.399 . S
C718 N756 1.343 . S
C719 C720 1.384 . S
C719 C721 1.384 . S
C719 H744 0.931 . S
C720 C719 1.384 . S
C720 C723 1.382 . S
C721 C719 1.384 . S
C721 C722 1.381 . S
C721 H745 0.930 . S
C722 C721 1.381 . S
C722 C724 1.381 . S
C722 C725 1.487 . S
C723 C720 1.382 . S
C723 C724 1.387 . S
C723 H746 0.930 . S
C724 C722 1.381 . S
C724 C723 1.387 . S
C724 H747 0.931 . S
C725 C718 1.399 . S
C725 C722 1.487 . S
C725 N757 1.343 . S
C726 C727 1.384 . S
C726 C728 1.384 . S
C726 H748 0.931 . S
C727 C726 1.384 . S
C727 C730 1.382 . S
C728 C726 1.384 . S
C728 C729 1.381 . S
C728 H749 0.930 . S
C729 C728 1.381 . S
C729 C731 1.381 . S
C729 C732 1.487 . S
C730 C727 1.382 . S
C730 C731 1.387 . S
C730 H750 0.930 . S
C731 C729 1.381 . S
C731 C730 1.387 . S
C731 H751 0.931 . S
C732 C729 1.487 . S
C732 C739 1.399 . S
C732 N757 1.343 . S
C733 C734 1.384 . S
C733 C735 1.384 . S
C733 H752 0.931 . S
C734 C733 1.384 . S
C734 C737 1.382 . S
C735 C733 1.384 . S
C735 C736 1.381 . S
C735 H753 0.930 . S
C736 C735 1.381 . S
C736 C738 1.381 . S
C736 C739 1.487 . S
C737 C734 1.382 . S
C737 C738 1.387 . S
C737 H754 0.930 . S
C738 C736 1.381 . S
C738 C737 1.387 . S
C738 H755 0.931 . S
C739 C732 1.399 . S
C739 C736 1.487 . S
C739 N756 1.343 . S
H740 C712 0.931 . S
H741 C714 0.930 . S
H742 C716 0.930 . S
H743 C717 0.931 . S
H744 C719 0.931 . S
H745 C721 0.930 . S
H746 C723 0.930 . S
H747 C724 0.931 . S
H748 C726 0.931 . S
H749 C728 0.930 . S
H750 C730 0.930 . S
H751 C731 0.931 . S
H752 C733 0.931 . S
H753 C735 0.930 . S
H754 C737 0.930 . S
H755 C738 0.931 . S
N756 C718 1.343 . S
N756 C739 1.343 . S
N757 C725 1.343 . S
N757 C732 1.343 . S
C758 C759 1.384 1_545 S
C758 C760 1.384 . S
C758 H786 0.931 . S
C759 C758 1.384 1_565 S
C759 C762 1.382 . S
C760 C758 1.384 . S
C760 C761 1.381 1_545 S
C760 H787 0.930 . S
C761 C760 1.381 1_565 S
C761 C763 1.381 . S
C761 C764 1.487 . S
C762 C759 1.382 . S
C762 C763 1.387 . S
C762 H788 0.930 . S
C763 C761 1.381 . S
C763 C762 1.387 . S
C763 H789 0.931 . S
C764 C761 1.487 . S
C764 C771 1.399 1_565 S
C764 N802 1.343 . S
C765 C766 1.384 1_565 S
C765 C767 1.384 . S
C765 H790 0.931 . S
C766 C765 1.384 1_545 S
C766 C769 1.382 . S
C767 C765 1.384 . S
C767 C768 1.381 1_565 S
C767 H791 0.930 . S
C768 C767 1.381 1_545 S
C768 C770 1.381 . S
C768 C771 1.487 . S
C769 C766 1.382 . S
C769 C770 1.387 . S
C769 H792 0.930 . S
C770 C768 1.381 . S
C770 C769 1.387 . S
C770 H793 0.931 . S
C771 C764 1.399 1_545 S
C771 C768 1.487 . S
C771 N803 1.343 . S
C772 C773 1.384 1_565 S
C772 C774 1.384 . S
C772 H794 0.931 . S
C773 C772 1.384 1_545 S
C773 C776 1.382 . S
C774 C772 1.384 . S
C774 C775 1.381 1_565 S
C774 H795 0.930 . S
C775 C774 1.381 1_545 S
C775 C777 1.381 . S
C775 C778 1.487 . S
C776 C773 1.382 . S
C776 C777 1.387 . S
C776 H796 0.930 . S
C777 C775 1.381 . S
C777 C776 1.387 . S
C777 H797 0.931 . S
C778 C775 1.487 . S
C778 C785 1.399 1_545 S
C778 N803 1.343 . S
C779 C780 1.384 1_545 S
C779 C781 1.384 . S
C779 H798 0.931 . S
C780 C779 1.384 1_565 S
C780 C783 1.382 . S
C781 C779 1.384 . S
C781 C782 1.381 1_545 S
C781 H799 0.930 . S
C782 C781 1.381 1_565 S
C782 C784 1.381 . S
C782 C785 1.487 . S
C783 C780 1.382 . S
C783 C784 1.387 . S
C783 H800 0.930 . S
C784 C782 1.381 . S
C784 C783 1.387 . S
C784 H801 0.931 . S
C785 C778 1.399 1_565 S
C785 C782 1.487 . S
C785 N802 1.343 . S
H786 C758 0.931 . S
H787 C760 0.930 . S
H788 C762 0.930 . S
H789 C763 0.931 . S
H790 C765 0.931 . S
H791 C767 0.930 . S
H792 C769 0.930 . S
H793 C770 0.931 . S
H794 C772 0.931 . S
H795 C774 0.930 . S
H796 C776 0.930 . S
H797 C777 0.931 . S
H798 C779 0.931 . S
H799 C781 0.930 . S
H800 C783 0.930 . S
H801 C784 0.931 . S
N802 C764 1.343 . S
N802 C785 1.343 . S
N803 C771 1.343 . S
N803 C778 1.343 . S
C804 C805 1.384 . S
C804 C806 1.384 . S
C804 H832 0.931 . S
C805 C804 1.384 . S
C805 C808 1.382 1_545 S
C806 C804 1.384 . S
C806 C807 1.379 1_545 S
C806 H833 0.930 . S
C807 C806 1.379 1_565 S
C807 C809 1.388 . S
C807 C810 1.492 . S
C808 C805 1.382 1_565 S
C808 C809 1.387 . S
C808 H834 0.930 . S
C809 C807 1.388 . S
C809 C808 1.387 . S
C809 H835 0.931 . S
C810 C807 1.492 . S
C810 C817 1.399 1_565 S
C810 N848 1.359 . S
C811 C812 1.384 . S
C811 C813 1.384 . S
C811 H836 0.931 . S
C812 C811 1.384 . S
C812 C815 1.382 1_565 S
C813 C811 1.384 . S
C813 C814 1.419 . S
C813 H837 0.930 . S
C814 C813 1.419 . S
C814 C816 1.363 1_565 S
C814 C817 1.469 1_565 S
C815 C812 1.382 1_545 S
C815 C816 1.387 . S
C815 H838 0.930 . S
C816 C814 1.363 1_545 S
C816 C815 1.387 . S
C816 H839 0.931 . S
C817 C810 1.399 1_545 S
C817 C814 1.469 1_545 S
C817 N849 1.306 . S
C818 C819 1.428 . S
C818 C820 1.384 . S
C818 H840 0.931 . S
C819 C818 1.428 . S
C819 C822 1.370 1_565 S
C820 C818 1.384 . S
C820 C821 1.377 1_565 S
C820 H841 0.930 . S
C821 C820 1.377 1_545 S
C821 C823 1.398 . S
C821 C824 1.492 . S
C822 C819 1.370 1_545 S
C822 C823 1.387 . S
C822 H842 0.930 . S
C823 C821 1.398 . S
C823 C822 1.387 . S
C823 H843 0.931 . S
C824 C821 1.492 . S
C824 C831 1.399 . S
C824 N849 1.359 . S
C825 C826 1.384 . S
C825 C827 1.384 . S
C825 H844 0.931 . S
C826 C825 1.384 . S
C826 C829 1.382 1_545 S
C827 C825 1.384 . S
C827 C828 1.436 . S
C827 H845 0.930 . S
C828 C827 1.436 . S
C828 C830 1.355 1_545 S
C828 C831 1.462 . S
C829 C826 1.382 1_565 S
C829 C830 1.387 . S
C829 H846 0.930 . S
C830 C828 1.355 1_565 S
C830 C829 1.387 . S
C830 H847 0.931 . S
C831 C824 1.399 . S
C831 C828 1.462 . S
C831 N848 1.314 1_545 S
H832 C804 0.931 . S
H833 C806 0.930 . S
H834 C808 0.930 . S
H835 C809 0.931 . S
H836 C811 0.931 . S
H837 C813 0.930 . S
H838 C815 0.930 . S
H839 C816 0.931 . S
H840 C818 0.931 . S
H841 C820 0.930 . S
H842 C822 0.930 . S
H843 C823 0.931 . S
H844 C825 0.931 . S
H845 C827 0.930 . S
H846 C829 0.930 . S
H847 C830 0.931 . S
N848 C810 1.359 . S
N848 C831 1.314 1_565 S
N849 C817 1.306 . S
N849 C824 1.359 . S
C850 C851 1.384 . S
C850 C852 1.384 . S
C850 H878 0.931 . S
C851 C850 1.384 . S
C851 C854 1.382 1_655 S
C852 C850 1.384 . S
C852 C853 1.438 . S
C852 H879 0.930 . S
C853 C852 1.438 . S
C853 C855 1.354 1_655 S
C853 C856 1.461 . S
C854 C851 1.382 1_455 S
C854 C855 1.387 . S
C854 H880 0.930 . S
C855 C853 1.354 1_455 S
C855 C854 1.387 . S
C855 H881 0.931 . S
C856 C853 1.461 . S
C856 C863 1.399 . S
C856 N894 1.323 1_655 S
C857 C858 1.384 . S
C857 C859 1.384 . S
C857 H882 0.931 . S
C858 C857 1.384 . S
C858 C861 1.382 1_455 S
C859 C857 1.384 . S
C859 C860 1.380 . S
C859 H883 0.930 . S
C860 C859 1.380 . S
C860 C862 1.385 1_455 S
C860 C863 1.494 1_455 S
C861 C858 1.382 1_655 S
C861 C862 1.387 . S
C861 H884 0.930 . S
C862 C860 1.385 1_655 S
C862 C861 1.387 . S
C862 H885 0.931 . S
C863 C856 1.399 . S
C863 C860 1.494 1_655 S
C863 N895 1.358 . S
C864 C865 1.384 . S
C864 C866 1.384 . S
C864 H886 0.931 . S
C865 C864 1.384 . S
C865 C868 1.382 1_455 S
C866 C864 1.384 . S
C866 C867 1.421 . S
C866 H887 0.930 . S
C867 C866 1.421 . S
C867 C869 1.361 1_455 S
C867 C870 1.468 1_455 S
C868 C865 1.382 1_655 S
C868 C869 1.387 . S
C868 H888 0.930 . S
C869 C867 1.361 1_655 S
C869 C868 1.387 . S
C869 H889 0.931 . S
C870 C867 1.468 1_655 S
C870 C877 1.399 1_655 S
C870 N895 1.315 . S
C871 C872 1.384 . S
C871 C873 1.384 . S
C871 H890 0.931 . S
C872 C871 1.384 . S
C872 C875 1.382 1_655 S
C873 C871 1.384 . S
C873 C874 1.383 . S
C873 H891 0.930 . S
C874 C873 1.383 . S
C874 C876 1.376 1_655 S
C874 C877 1.494 1_655 S
C875 C872 1.382 1_455 S
C875 C876 1.387 . S
C875 H892 0.930 . S
C876 C874 1.376 1_455 S
C876 C875 1.387 . S
C876 H893 0.931 . S
C877 C870 1.399 1_455 S
C877 C874 1.494 1_455 S
C877 N894 1.358 . S
H878 C850 0.931 . S
H879 C852 0.930 . S
H880 C854 0.930 . S
H881 C855 0.931 . S
H882 C857 0.931 . S
H883 C859 0.930 . S
H884 C861 0.930 . S
H885 C862 0.931 . S
H886 C864 0.931 . S
H887 C866 0.930 . S
H888 C868 0.930 . S
H889 C869 0.931 . S
H890 C871 0.931 . S
H891 C873 0.930 . S
H892 C875 0.930 . S
H893 C876 0.931 . S
N894 C856 1.323 1_455 S
N894 C877 1.358 . S
N895 C863 1.358 . S
N895 C870 1.315 . S
C896 C897 1.384 . S
C896 C898 1.384 . S
C896 H924 0.931 . S
C897 C896 1.384 . S
C897 C900 1.382 . S
C898 C896 1.384 . S
C898 C899 1.381 . S
C898 H925 0.930 . S
C899 C898 1.381 . S
C899 C901 1.381 . S
C899 C902 1.487 . S
C900 C897 1.382 . S
C900 C901 1.387 . S
C900 H926 0.930 . S
C901 C899 1.381 . S
C901 C900 1.387 . S
C901 H927 0.931 . S
C902 C899 1.487 . S
C902 C909 1.399 . S
C902 N940 1.343 . S
C903 C904 1.384 . S
C903 C905 1.384 . S
C903 H928 0.931 . S
C904 C903 1.384 . S
C904 C907 1.382 . S
C905 C903 1.384 . S
C905 C906 1.381 . S
C905 H929 0.930 . S
C906 C905 1.381 . S
C906 C908 1.381 . S
C906 C909 1.487 . S
C907 C904 1.382 . S
C907 C908 1.387 . S
C907 H930 0.930 . S
C908 C906 1.381 . S
C908 C907 1.387 . S
C908 H931 0.931 . S
C909 C902 1.399 . S
C909 C906 1.487 . S
C909 N941 1.343 . S
C910 C911 1.384 . S
C910 C912 1.384 . S
C910 H932 0.931 . S
C911 C910 1.384 . S
C911 C914 1.382 . S
C912 C910 1.384 . S
C912 C913 1.381 . S
C912 H933 0.930 . S
C913 C912 1.381 . S
C913 C915 1.381 . S
C913 C916 1.487 . S
C914 C911 1.382 . S
C914 C915 1.387 . S
C914 H934 0.930 . S
C915 C913 1.381 . S
C915 C914 1.387 . S
C915 H935 0.931 . S
C916 C913 1.487 . S
C916 C923 1.399 . S
C916 N941 1.343 . S
C917 C918 1.384 . S
C917 C919 1.384 . S
C917 H936 0.931 . S
C918 C917 1.384 . S
C918 C921 1.382 . S
C919 C917 1.384 . S
C919 C920 1.381 . S
C919 H937 0.930 . S
C920 C919 1.381 . S
C920 C922 1.381 . S
C920 C923 1.487 . S
C921 C918 1.382 . S
C921 C922 1.387 . S
C921 H938 0.930 . S
C922 C920 1.381 . S
C922 C921 1.387 . S
C922 H939 0.931 . S
C923 C916 1.399 . S
C923 C920 1.487 . S
C923 N940 1.343 . S
H924 C896 0.931 . S
H925 C898 0.930 . S
H926 C900 0.930 . S
H927 C901 0.931 . S
H928 C903 0.931 . S
H929 C905 0.930 . S
H930 C907 0.930 . S
H931 C908 0.931 . S
H932 C910 0.931 . S
H933 C912 0.930 . S
H934 C914 0.930 . S
H935 C915 0.931 . S
H936 C917 0.931 . S
H937 C919 0.930 . S
H938 C921 0.930 . S
H939 C922 0.931 . S
N940 C902 1.343 . S
N940 C923 1.343 . S
N941 C909 1.343 . S
N941 C916 1.343 . S
C942 C943 1.384 . S
C942 C944 1.384 . S
C942 H970 0.931 . S
C943 C942 1.384 . S
C943 C946 1.382 . S
C944 C942 1.384 . S
C944 C945 1.381 . S
C944 H971 0.930 . S
C945 C944 1.381 . S
C945 C947 1.381 . S
C945 C948 1.487 . S
C946 C943 1.382 . S
C946 C947 1.387 . S
C946 H972 0.930 . S
C947 C945 1.381 . S
C947 C946 1.387 . S
C947 H973 0.931 . S
C948 C945 1.487 . S
C948 C955 1.399 . S
C948 N986 1.343 . S
C949 C950 1.384 . S
C949 C951 1.384 . S
C949 H974 0.931 . S
C950 C949 1.384 . S
C950 C953 1.382 . S
C951 C949 1.384 . S
C951 C952 1.381 . S
C951 H975 0.930 . S
C952 C951 1.381 . S
C952 C954 1.381 . S
C952 C955 1.487 . S
C953 C950 1.382 . S
C953 C954 1.387 . S
C953 H976 0.930 . S
C954 C952 1.381 . S
C954 C953 1.387 . S
C954 H977 0.931 . S
C955 C948 1.399 . S
C955 C952 1.487 . S
C955 N987 1.343 . S
C956 C957 1.384 . S
C956 C958 1.384 . S
C956 H978 0.931 . S
C957 C956 1.384 . S
C957 C960 1.382 . S
C958 C956 1.384 . S
C958 C959 1.381 . S
C958 H979 0.930 . S
C959 C958 1.381 . S
C959 C961 1.381 . S
C959 C962 1.487 . S
C960 C957 1.382 . S
C960 C961 1.387 . S
C960 H980 0.930 . S
C961 C959 1.381 . S
C961 C960 1.387 . S
C961 H981 0.931 . S
C962 C959 1.487 . S
C962 C969 1.399 . S
C962 N987 1.343 . S
C963 C964 1.384 . S
C963 C965 1.384 . S
C963 H982 0.931 . S
C964 C963 1.384 . S
C964 C967 1.382 . S
C965 C963 1.384 . S
C965 C966 1.381 . S
C965 H983 0.930 . S
C966 C965 1.381 . S
C966 C968 1.381 . S
C966 C969 1.487 . S
C967 C964 1.382 . S
C967 C968 1.387 . S
C967 H984 0.930 . S
C968 C966 1.381 . S
C968 C967 1.387 . S
C968 H985 0.931 . S
C969 C962 1.399 . S
C969 C966 1.487 . S
C969 N986 1.343 . S
H970 C942 0.931 . S
H971 C944 0.930 . S
H972 C946 0.930 . S
H973 C947 0.931 . S
H974 C949 0.931 . S
H975 C951 0.930 . S
H976 C953 0.930 . S
H977 C954 0.931 . S
H978 C956 0.931 . S
H979 C958 0.930 . S
H980 C960 0.930 . S
H981 C961 0.931 . S
H982 C963 0.931 . S
H983 C965 0.930 . S
H984 C967 0.930 . S
H985 C968 0.931 . S
N986 C948 1.343 . S
N986 C969 1.343 . S
N987 C955 1.343 . S
N987 C962 1.343 . S
C988 C989 1.384 . S
C988 C990 1.384 . S
C988 H1016 0.931 . S
C989 C988 1.384 . S
C989 C992 1.382 . S
C990 C988 1.384 . S
C990 C991 1.381 . S
C990 H1017 0.930 . S
C991 C990 1.381 . S
C991 C993 1.381 . S
C991 C994 1.487 . S
C992 C989 1.382 . S
C992 C993 1.387 . S
C992 H1018 0.930 . S
C993 C991 1.381 . S
C993 C992 1.387 . S
C993 H1019 0.931 . S
C994 C991 1.487 . S
C994 C1001 1.399 . S
C994 N1032 1.343 . S
C995 C996 1.384 . S
C995 C997 1.384 . S
C995 H1020 0.931 . S
C996 C995 1.384 . S
C996 C999 1.382 . S
C997 C995 1.384 . S
C997 C998 1.381 . S
C997 H1021 0.930 . S
C998 C997 1.381 . S
C998 C1000 1.381 . S
C998 C1001 1.487 . S
C999 C996 1.382 . S
C999 C1000 1.387 . S
C999 H1022 0.930 . S
C1000 C998 1.381 . S
C1000 C999 1.387 . S
C1000 H1023 0.931 . S
C1001 C994 1.399 . S
C1001 C998 1.487 . S
C1001 N1033 1.343 . S
C1002 C1003 1.384 . S
C1002 C1004 1.384 . S
C1002 H1024 0.931 . S
C1003 C1002 1.384 . S
C1003 C1006 1.382 . S
C1004 C1002 1.384 . S
C1004 C1005 1.381 . S
C1004 H1025 0.930 . S
C1005 C1004 1.381 . S
C1005 C1007 1.381 . S
C1005 C1008 1.487 . S
C1006 C1003 1.382 . S
C1006 C1007 1.387 . S
C1006 H1026 0.930 . S
C1007 C1005 1.381 . S
C1007 C1006 1.387 . S
C1007 H1027 0.931 . S
C1008 C1005 1.487 . S
C1008 C1015 1.399 . S
C1008 N1033 1.343 . S
C1009 C1010 1.384 . S
C1009 C1011 1.384 . S
C1009 H1028 0.931 . S
C1010 C1009 1.384 . S
C1010 C1013 1.382 . S
C1011 C1009 1.384 . S
C1011 C1012 1.381 . S
C1011 H1029 0.930 . S
C1012 C1011 1.381 . S
C1012 C1014 1.381 . S
C1012 C1015 1.487 . S
C1013 C1010 1.382 . S
C1013 C1014 1.387 . S
C1013 H1030 0.930 . S
C1014 C1012 1.381 . S
C1014 C1013 1.387 . S
C1014 H1031 0.931 . S
C1015 C1008 1.399 . S
C1015 C1012 1.487 . S
C1015 N1032 1.343 . S
H1016 C988 0.931 . S
H1017 C990 0.930 . S
H1018 C992 0.930 . S
H1019 C993 0.931 . S
H1020 C995 0.931 . S
H1021 C997 0.930 . S
H1022 C999 0.930 . S
H1023 C1000 0.931 . S
H1024 C1002 0.931 . S
H1025 C1004 0.930 . S
H1026 C1006 0.930 . S
H1027 C1007 0.931 . S
H1028 C1009 0.931 . S
H1029 C1011 0.930 . S
H1030 C1013 0.930 . S
H1031 C1014 0.931 . S
N1032 C994 1.343 . S
N1032 C1015 1.343 . S
N1033 C1001 1.343 . S
N1033 C1008 1.343 . S
C1034 C1035 1.384 . S
C1034 C1036 1.384 . S
C1034 H1062 0.931 . S
C1035 C1034 1.384 . S
C1035 C1038 1.382 . S
C1036 C1034 1.384 . S
C1036 C1037 1.381 . S
C1036 H1063 0.930 . S
C1037 C1036 1.381 . S
C1037 C1039 1.381 . S
C1037 C1040 1.487 . S
C1038 C1035 1.382 . S
C1038 C1039 1.387 . S
C1038 H1064 0.930 . S
C1039 C1037 1.381 . S
C1039 C1038 1.387 . S
C1039 H1065 0.931 . S
C1040 C1037 1.487 . S
C1040 C1047 1.399 . S
C1040 N1078 1.343 . S
C1041 C1042 1.384 . S
C1041 C1043 1.384 . S
C1041 H1066 0.931 . S
C1042 C1041 1.384 . S
C1042 C1045 1.382 . S
C1043 C1041 1.384 . S
C1043 C1044 1.381 . S
C1043 H1067 0.930 . S
C1044 C1043 1.381 . S
C1044 C1046 1.381 . S
C1044 C1047 1.487 . S
C1045 C1042 1.382 . S
C1045 C1046 1.387 . S
C1045 H1068 0.930 . S
C1046 C1044 1.381 . S
C1046 C1045 1.387 . S
C1046 H1069 0.931 . S
C1047 C1040 1.399 . S
C1047 C1044 1.487 . S
C1047 N1079 1.343 . S
C1048 C1049 1.384 . S
C1048 C1050 1.384 . S
C1048 H1070 0.931 . S
C1049 C1048 1.384 . S
C1049 C1052 1.382 . S
C1050 C1048 1.384 . S
C1050 C1051 1.381 . S
C1050 H1071 0.930 . S
C1051 C1050 1.381 . S
C1051 C1053 1.381 . S
C1051 C1054 1.487 . S
C1052 C1049 1.382 . S
C1052 C1053 1.387 . S
C1052 H1072 0.930 . S
C1053 C1051 1.381 . S
C1053 C1052 1.387 . S
C1053 H1073 0.931 . S
C1054 C1051 1.487 . S
C1054 C1061 1.399 . S
C1054 N1079 1.343 . S
C1055 C1056 1.384 . S
C1055 C1057 1.384 . S
C1055 H1074 0.931 . S
C1056 C1055 1.384 . S
C1056 C1059 1.382 . S
C1057 C1055 1.384 . S
C1057 C1058 1.381 . S
C1057 H1075 0.930 . S
C1058 C1057 1.381 . S
C1058 C1060 1.381 . S
C1058 C1061 1.487 . S
C1059 C1056 1.382 . S
C1059 C1060 1.387 . S
C1059 H1076 0.930 . S
C1060 C1058 1.381 . S
C1060 C1059 1.387 . S
C1060 H1077 0.931 . S
C1061 C1054 1.399 . S
C1061 C1058 1.487 . S
C1061 N1078 1.343 . S
H1062 C1034 0.931 . S
H1063 C1036 0.930 . S
H1064 C1038 0.930 . S
H1065 C1039 0.931 . S
H1066 C1041 0.931 . S
H1067 C1043 0.930 . S
H1068 C1045 0.930 . S
H1069 C1046 0.931 . S
H1070 C1048 0.931 . S
H1071 C1050 0.930 . S
H1072 C1052 0.930 . S
H1073 C1053 0.931 . S
H1074 C1055 0.931 . S
H1075 C1057 0.930 . S
H1076 C1059 0.930 . S
H1077 C1060 0.931 . S
N1078 C1040 1.343 . S
N1078 C1061 1.343 . S
N1079 C1047 1.343 . S
N1079 C1054 1.343 . S
C1080 C1081 1.391 . S
C1080 C1082 1.394 . S
C1080 H1096 0.931 . S
C1081 C1080 1.391 . S
C1081 C1085 1.376 1_655 S
C1082 C1080 1.394 . S
C1082 C1083 1.369 . S
C1082 C1086 1.531 . S
C1083 C1082 1.369 . S
C1083 C1084 1.410 1_655 S
C1083 C1091 1.503 . S
C1084 C1083 1.410 1_455 S
C1084 C1085 1.392 . S
C1084 C1087 1.511 . S
C1085 C1081 1.376 1_455 S
C1085 C1084 1.392 . S
C1085 H1097 0.929 . S
C1086 C1082 1.531 . S
C1086 H1098 0.960 . S
C1086 H1099 0.962 . S
C1086 H1100 0.960 . S
C1087 C1084 1.511 . S
C1087 H1101 0.961 . S
C1087 H1102 0.961 . S
C1087 H1103 0.961 . S
C1088 C1089 1.370 . S
C1088 C1090 1.363 . S
C1088 H1104 0.931 . S
C1089 C1088 1.370 . S
C1089 C1093 1.408 1_655 S
C1090 C1088 1.363 . S
C1090 C1091 1.370 . S
C1090 C1094 1.524 . S
C1091 C1083 1.503 . S
C1091 C1090 1.370 . S
C1091 C1092 1.403 1_655 S
C1092 C1091 1.403 1_455 S
C1092 C1093 1.404 . S
C1092 C1095 1.539 . S
C1093 C1089 1.408 1_455 S
C1093 C1092 1.404 . S
C1093 H1105 0.930 . S
C1094 C1090 1.524 . S
C1094 H1106 0.956 . S
C1094 H1107 0.961 . S
C1094 H1108 0.961 . S
C1095 C1092 1.539 . S
C1095 H1109 0.958 . S
C1095 H1110 0.961 . S
C1095 H1111 0.960 . S
H1096 C1080 0.931 . S
H1097 C1085 0.929 . S
H1098 C1086 0.960 . S
H1099 C1086 0.962 . S
H1100 C1086 0.960 . S
H1101 C1087 0.961 . S
H1102 C1087 0.961 . S
H1103 C1087 0.961 . S
H1104 C1088 0.931 . S
H1105 C1093 0.930 . S
H1106 C1094 0.956 . S
H1107 C1094 0.961 . S
H1108 C1094 0.961 . S
H1109 C1095 0.958 . S
H1110 C1095 0.961 . S
H1111 C1095 0.960 . S
C1112 C1113 1.391 . S
C1112 C1114 1.394 . S
C1112 H1128 0.931 . S
C1113 C1112 1.391 . S
C1113 C1117 1.376 . S
C1114 C1112 1.394 . S
C1114 C1115 1.369 . S
C1114 C1118 1.531 . S
C1115 C1114 1.369 . S
C1115 C1116 1.410 . S
C1115 C1123 1.503 . S
C1116 C1115 1.410 . S
C1116 C1117 1.392 . S
C1116 C1119 1.511 . S
C1117 C1113 1.376 . S
C1117 C1116 1.392 . S
C1117 H1129 0.929 . S
C1118 C1114 1.531 . S
C1118 H1130 0.960 . S
C1118 H1131 0.962 . S
C1118 H1132 0.960 . S
C1119 C1116 1.511 . S
C1119 H1133 0.961 . S
C1119 H1134 0.961 . S
C1119 H1135 0.961 . S
C1120 C1121 1.370 . S
C1120 C1122 1.363 . S
C1120 H1136 0.931 . S
C1121 C1120 1.370 . S
C1121 C1125 1.408 . S
C1122 C1120 1.363 . S
C1122 C1123 1.370 . S
C1122 C1126 1.524 . S
C1123 C1115 1.503 . S
C1123 C1122 1.370 . S
C1123 C1124 1.403 . S
C1124 C1123 1.403 . S
C1124 C1125 1.404 . S
C1124 C1127 1.539 . S
C1125 C1121 1.408 . S
C1125 C1124 1.404 . S
C1125 H1137 0.930 . S
C1126 C1122 1.524 . S
C1126 H1138 0.956 . S
C1126 H1139 0.961 . S
C1126 H1140 0.961 . S
C1127 C1124 1.539 . S
C1127 H1141 0.958 . S
C1127 H1142 0.961 . S
C1127 H1143 0.960 . S
H1128 C1112 0.931 . S
H1129 C1117 0.929 . S
H1130 C1118 0.960 . S
H1131 C1118 0.962 . S
H1132 C1118 0.960 . S
H1133 C1119 0.961 . S
H1134 C1119 0.961 . S
H1135 C1119 0.961 . S
H1136 C1120 0.931 . S
H1137 C1125 0.930 . S
H1138 C1126 0.956 . S
H1139 C1126 0.961 . S
H1140 C1126 0.961 . S
H1141 C1127 0.958 . S
H1142 C1127 0.961 . S
H1143 C1127 0.960 . S
C1144 C1145 1.391 . S
C1144 C1146 1.394 . S
C1144 H1160 0.931 . S
C1145 C1144 1.391 . S
C1145 C1149 1.376 1_545 S
C1146 C1144 1.394 . S
C1146 C1147 1.369 . S
C1146 C1150 1.531 . S
C1147 C1146 1.369 . S
C1147 C1148 1.410 1_545 S
C1147 C1155 1.503 . S
C1148 C1147 1.410 1_565 S
C1148 C1149 1.392 . S
C1148 C1151 1.511 . S
C1149 C1145 1.376 1_565 S
C1149 C1148 1.392 . S
C1149 H1161 0.929 . S
C1150 C1146 1.531 . S
C1150 H1162 0.960 . S
C1150 H1163 0.962 . S
C1150 H1164 0.960 . S
C1151 C1148 1.511 . S
C1151 H1165 0.961 . S
C1151 H1166 0.961 . S
C1151 H1167 0.961 . S
C1152 C1153 1.370 . S
C1152 C1154 1.363 . S
C1152 H1168 0.931 . S
C1153 C1152 1.370 . S
C1153 C1157 1.422 1_545 S
C1154 C1152 1.363 . S
C1154 C1155 1.370 . S
C1154 C1158 1.524 . S
C1155 C1147 1.503 . S
C1155 C1154 1.370 . S
C1155 C1156 1.421 . S
C1156 C1155 1.421 . S
C1156 C1157 1.346 1_545 S
C1156 C1159 1.553 1_545 S
C1157 C1153 1.422 1_565 S
C1157 C1156 1.346 1_565 S
C1157 H1169 0.946 . S
C1158 C1154 1.524 . S
C1158 H1170 0.956 . S
C1158 H1171 0.961 . S
C1158 H1172 0.961 . S
C1159 C1156 1.553 1_565 S
C1159 H1173 0.958 1_565 S
C1159 H1174 0.961 . S
C1159 H1175 0.960 . S
H1160 C1144 0.931 . S
H1161 C1149 0.929 . S
H1162 C1150 0.960 . S
H1163 C1150 0.962 . S
H1164 C1150 0.960 . S
H1165 C1151 0.961 . S
H1166 C1151 0.961 . S
H1167 C1151 0.961 . S
H1168 C1152 0.931 . S
H1169 C1157 0.946 . S
H1170 C1158 0.956 . S
H1171 C1158 0.961 . S
H1172 C1158 0.961 . S
H1173 C1159 0.958 1_545 S
H1174 C1159 0.961 . S
H1175 C1159 0.960 . S
C1176 C1177 1.391 . S
C1176 C1178 1.394 . S
C1176 H1192 0.931 . S
C1177 C1176 1.391 . S
C1177 C1181 1.352 1_565 S
C1178 C1176 1.394 . S
C1178 C1179 1.369 . S
C1178 C1182 1.531 . S
C1179 C1178 1.369 . S
C1179 C1180 1.409 1_565 S
C1179 C1187 1.503 . S
C1180 C1179 1.409 1_545 S
C1180 C1181 1.361 . S
C1180 C1183 1.511 . S
C1181 C1177 1.352 1_545 S
C1181 C1180 1.361 . S
C1181 H1193 0.990 . S
C1182 C1178 1.531 . S
C1182 H1194 0.960 . S
C1182 H1195 0.962 . S
C1182 H1196 0.960 . S
C1183 C1180 1.511 . S
C1183 H1197 0.961 . S
C1183 H1198 0.961 . S
C1183 H1199 0.961 1_545 S
C1184 C1185 1.370 1_545 S
C1184 C1186 1.363 . S
C1184 H1200 0.931 . S
C1185 C1184 1.370 1_565 S
C1185 C1189 1.408 . S
C1186 C1184 1.363 . S
C1186 C1187 1.370 1_545 S
C1186 C1190 1.524 . S
C1187 C1179 1.503 . S
C1187 C1186 1.370 1_565 S
C1187 C1188 1.403 . S
C1188 C1187 1.403 . S
C1188 C1189 1.404 . S
C1188 C1191 1.539 . S
C1189 C1185 1.408 . S
C1189 C1188 1.404 . S
C1189 H1201 0.930 . S
C1190 C1186 1.524 . S
C1190 H1202 0.956 . S
C1190 H1203 0.961 . S
C1190 H1204 0.961 . S
C1191 C1188 1.539 . S
C1191 H1205 0.958 . S
C1191 H1206 0.961 . S
C1191 H1207 0.960 . S
H1192 C1176 0.931 . S
H1193 C1181 0.990 . S
H1194 C1182 0.960 . S
H1195 C1182 0.962 . S
H1196 C1182 0.960 . S
H1197 C1183 0.961 . S
H1198 C1183 0.961 . S
H1199 C1183 0.961 1_565 S
H1200 C1184 0.931 . S
H1201 C1189 0.930 . S
H1202 C1190 0.956 . S
H1203 C1190 0.961 . S
H1204 C1190 0.961 . S
H1205 C1191 0.958 . S
H1206 C1191 0.961 . S
H1207 C1191 0.960 . S
C1208 C1209 1.391 . S
C1208 C1210 1.394 . S
C1208 H1224 0.931 . S
C1209 C1208 1.391 . S
C1209 C1213 1.433 . S
C1210 C1208 1.394 . S
C1210 C1211 1.369 . S
C1210 C1214 1.531 . S
C1211 C1210 1.369 . S
C1211 C1212 1.410 1_455 S
C1211 C1219 1.503 . S
C1212 C1211 1.410 1_655 S
C1212 C1213 1.360 1_655 S
C1212 C1215 1.511 . S
C1213 C1209 1.433 . S
C1213 C1212 1.360 1_455 S
C1213 H1225 0.907 1_455 S
C1214 C1210 1.531 . S
C1214 H1226 0.960 . S
C1214 H1227 0.962 . S
C1214 H1228 0.960 . S
C1215 C1212 1.511 . S
C1215 H1229 0.961 . S
C1215 H1230 0.961 . S
C1215 H1231 0.961 . S
C1216 C1217 1.370 . S
C1216 C1218 1.363 . S
C1216 H1232 0.931 . S
C1217 C1216 1.370 . S
C1217 C1221 1.408 1_455 S
C1218 C1216 1.363 . S
C1218 C1219 1.370 . S
C1218 C1222 1.524 . S
C1219 C1211 1.503 . S
C1219 C1218 1.370 . S
C1219 C1220 1.403 1_455 S
C1220 C1219 1.403 1_655 S
C1220 C1221 1.404 . S
C1220 C1223 1.539 . S
C1221 C1217 1.408 1_655 S
C1221 C1220 1.404 . S
C1221 H1233 0.930 . S
C1222 C1218 1.524 . S
C1222 H1234 0.956 . S
C1222 H1235 0.961 . S
C1222 H1236 0.961 . S
C1223 C1220 1.539 . S
C1223 H1237 0.958 . S
C1223 H1238 0.961 . S
C1223 H1239 0.960 . S
H1224 C1208 0.931 . S
H1225 C1213 0.907 1_655 S
H1226 C1214 0.960 . S
H1227 C1214 0.962 . S
H1228 C1214 0.960 . S
H1229 C1215 0.961 . S
H1230 C1215 0.961 . S
H1231 C1215 0.961 . S
H1232 C1216 0.931 . S
H1233 C1221 0.930 . S
H1234 C1222 0.956 . S
H1235 C1222 0.961 . S
H1236 C1222 0.961 . S
H1237 C1223 0.958 . S
H1238 C1223 0.961 . S
H1239 C1223 0.960 . S
C1240 C1241 1.391 . S
C1240 C1242 1.394 . S
C1240 H1256 0.931 . S
C1241 C1240 1.391 . S
C1241 C1245 1.376 . S
C1242 C1240 1.394 . S
C1242 C1243 1.369 . S
C1242 C1246 1.531 . S
C1243 C1242 1.369 . S
C1243 C1244 1.410 . S
C1243 C1251 1.503 . S
C1244 C1243 1.410 . S
C1244 C1245 1.392 . S
C1244 C1247 1.511 . S
C1245 C1241 1.376 . S
C1245 C1244 1.392 . S
C1245 H1257 0.929 . S
C1246 C1242 1.531 . S
C1246 H1258 0.960 . S
C1246 H1259 0.962 . S
C1246 H1260 0.960 . S
C1247 C1244 1.511 . S
C1247 H1261 0.961 . S
C1247 H1262 0.961 . S
C1247 H1263 0.961 . S
C1248 C1249 1.370 . S
C1248 C1250 1.363 . S
C1248 H1264 0.931 . S
C1249 C1248 1.370 . S
C1249 C1253 1.408 . S
C1250 C1248 1.363 . S
C1250 C1251 1.370 . S
C1250 C1254 1.524 . S
C1251 C1243 1.503 . S
C1251 C1250 1.370 . S
C1251 C1252 1.403 . S
C1252 C1251 1.403 . S
C1252 C1253 1.404 . S
C1252 C1255 1.539 . S
C1253 C1249 1.408 . S
C1253 C1252 1.404 . S
C1253 H1265 0.930 . S
C1254 C1250 1.524 . S
C1254 H1266 0.956 . S
C1254 H1267 0.961 . S
C1254 H1268 0.961 . S
C1255 C1252 1.539 . S
C1255 H1269 0.958 . S
C1255 H1270 0.961 . S
C1255 H1271 0.960 . S
H1256 C1240 0.931 . S
H1257 C1245 0.929 . S
H1258 C1246 0.960 . S
H1259 C1246 0.962 . S
H1260 C1246 0.960 . S
H1261 C1247 0.961 . S
H1262 C1247 0.961 . S
H1263 C1247 0.961 . S
H1264 C1248 0.931 . S
H1265 C1253 0.930 . S
H1266 C1254 0.956 . S
H1267 C1254 0.961 . S
H1268 C1254 0.961 . S
H1269 C1255 0.958 . S
H1270 C1255 0.961 . S
H1271 C1255 0.960 . S
C1272 C1273 1.391 . S
C1272 C1274 1.394 . S
C1272 H1288 0.931 . S
C1273 C1272 1.391 . S
C1273 C1277 1.376 1_455 S
C1274 C1272 1.394 . S
C1274 C1275 1.369 . S
C1274 C1278 1.531 . S
C1275 C1274 1.369 . S
C1275 C1276 1.410 1_455 S
C1275 C1283 1.503 . S
C1276 C1275 1.410 1_655 S
C1276 C1277 1.392 . S
C1276 C1279 1.511 . S
C1277 C1273 1.376 1_655 S
C1277 C1276 1.392 . S
C1277 H1289 0.929 . S
C1278 C1274 1.531 . S
C1278 H1290 0.960 . S
C1278 H1291 0.962 . S
C1278 H1292 0.960 . S
C1279 C1276 1.511 . S
C1279 H1293 0.961 . S
C1279 H1294 0.961 . S
C1279 H1295 0.961 . S
C1280 C1281 1.370 . S
C1280 C1282 1.363 . S
C1280 H1296 0.931 . S
C1281 C1280 1.370 . S
C1281 C1285 1.408 1_455 S
C1282 C1280 1.363 . S
C1282 C1283 1.370 . S
C1282 C1286 1.524 . S
C1283 C1275 1.503 . S
C1283 C1282 1.370 . S
C1283 C1284 1.403 1_455 S
C1284 C1283 1.403 1_655 S
C1284 C1285 1.404 . S
C1284 C1287 1.539 . S
C1285 C1281 1.408 1_655 S
C1285 C1284 1.404 . S
C1285 H1297 0.930 . S
C1286 C1282 1.524 . S
C1286 H1298 0.956 . S
C1286 H1299 0.961 . S
C1286 H1300 0.961 . S
C1287 C1284 1.539 . S
C1287 H1301 0.958 . S
C1287 H1302 0.961 . S
C1287 H1303 0.960 . S
H1288 C1272 0.931 . S
H1289 C1277 0.929 . S
H1290 C1278 0.960 . S
H1291 C1278 0.962 . S
H1292 C1278 0.960 . S
H1293 C1279 0.961 . S
H1294 C1279 0.961 . S
H1295 C1279 0.961 . S
H1296 C1280 0.931 . S
H1297 C1285 0.930 . S
H1298 C1286 0.956 . S
H1299 C1286 0.961 . S
H1300 C1286 0.961 . S
H1301 C1287 0.958 . S
H1302 C1287 0.961 . S
H1303 C1287 0.960 . S
C1304 C1305 1.391 . S
C1304 C1306 1.394 . S
C1304 H1320 0.931 . S
C1305 C1304 1.391 . S
C1305 C1309 1.376 . S
C1306 C1304 1.394 . S
C1306 C1307 1.369 . S
C1306 C1310 1.531 . S
C1307 C1306 1.369 . S
C1307 C1308 1.410 . S
C1307 C1315 1.503 . S
C1308 C1307 1.410 . S
C1308 C1309 1.392 . S
C1308 C1311 1.511 . S
C1309 C1305 1.376 . S
C1309 C1308 1.392 . S
C1309 H1321 0.929 . S
C1310 C1306 1.531 . S
C1310 H1322 0.960 . S
C1310 H1323 0.962 . S
C1310 H1324 0.960 . S
C1311 C1308 1.511 . S
C1311 H1325 0.961 . S
C1311 H1326 0.961 . S
C1311 H1327 0.961 . S
C1312 C1313 1.370 . S
C1312 C1314 1.363 . S
C1312 H1328 0.931 . S
C1313 C1312 1.370 . S
C1313 C1317 1.408 . S
C1314 C1312 1.363 . S
C1314 C1315 1.370 . S
C1314 C1318 1.524 . S
C1315 C1307 1.503 . S
C1315 C1314 1.370 . S
C1315 C1316 1.403 . S
C1316 C1315 1.403 . S
C1316 C1317 1.404 . S
C1316 C1319 1.539 . S
C1317 C1313 1.408 . S
C1317 C1316 1.404 . S
C1317 H1329 0.930 . S
C1318 C1314 1.524 . S
C1318 H1330 0.956 . S
C1318 H1331 0.961 . S
C1318 H1332 0.961 . S
C1319 C1316 1.539 . S
C1319 H1333 0.958 . S
C1319 H1334 0.961 . S
C1319 H1335 0.960 . S
H1320 C1304 0.931 . S
H1321 C1309 0.929 . S
H1322 C1310 0.960 . S
H1323 C1310 0.962 . S
H1324 C1310 0.960 . S
H1325 C1311 0.961 . S
H1326 C1311 0.961 . S
H1327 C1311 0.961 . S
H1328 C1312 0.931 . S
H1329 C1317 0.930 . S
H1330 C1318 0.956 . S
H1331 C1318 0.961 . S
H1332 C1318 0.961 . S
H1333 C1319 0.958 . S
H1334 C1319 0.961 . S
H1335 C1319 0.960 . S
C1336 C1337 1.391 . S
C1336 C1338 1.394 . S
C1336 H1352 0.931 . S
C1337 C1336 1.391 . S
C1337 C1341 1.376 . S
C1338 C1336 1.394 . S
C1338 C1339 1.369 . S
C1338 C1342 1.531 . S
C1339 C1338 1.369 . S
C1339 C1340 1.410 . S
C1339 C1347 1.503 . S
C1340 C1339 1.410 . S
C1340 C1341 1.392 . S
C1340 C1343 1.511 1_565 S
C1341 C1337 1.376 . S
C1341 C1340 1.392 . S
C1341 H1353 0.929 . S
C1342 C1338 1.531 . S
C1342 H1354 0.960 1_565 S
C1342 H1355 0.962 . S
C1342 H1356 0.984 . S
C1343 C1340 1.511 1_545 S
C1343 H1357 0.961 1_545 S
C1343 H1358 0.961 1_545 S
C1343 H1359 0.961 . S
C1344 C1345 1.370 . S
C1344 C1346 1.363 . S
C1344 H1360 0.931 . S
C1345 C1344 1.370 . S
C1345 C1349 1.408 1_565 S
C1346 C1344 1.363 . S
C1346 C1347 1.370 . S
C1346 C1350 1.524 . S
C1347 C1339 1.503 . S
C1347 C1346 1.370 . S
C1347 C1348 1.403 1_565 S
C1348 C1347 1.403 1_545 S
C1348 C1349 1.404 . S
C1348 C1351 1.539 . S
C1349 C1345 1.408 1_545 S
C1349 C1348 1.404 . S
C1349 H1361 0.930 . S
C1350 C1346 1.524 . S
C1350 H1362 0.956 . S
C1350 H1363 0.961 . S
C1350 H1364 0.961 . S
C1351 C1348 1.539 . S
C1351 H1365 0.958 . S
C1351 H1366 0.961 . S
C1351 H1367 0.960 . S
H1352 C1336 0.931 . S
H1353 C1341 0.929 . S
H1354 C1342 0.960 1_545 S
H1355 C1342 0.962 . S
H1356 C1342 0.984 . S
H1357 C1343 0.961 1_565 S
H1358 C1343 0.961 1_565 S
H1359 C1343 0.961 . S
H1360 C1344 0.931 . S
H1361 C1349 0.930 . S
H1362 C1350 0.956 . S
H1363 C1350 0.961 . S
H1364 C1350 0.961 . S
H1365 C1351 0.958 . S
H1366 C1351 0.961 . S
H1367 C1351 0.960 . S
C1368 C1369 1.391 . S
C1368 C1370 1.394 . S
C1368 H1384 0.931 . S
C1369 C1368 1.391 . S
C1369 C1373 1.376 1_545 S
C1370 C1368 1.394 . S
C1370 C1371 1.369 . S
C1370 C1374 1.531 . S
C1371 C1370 1.369 . S
C1371 C1372 1.410 1_545 S
C1371 C1379 1.503 . S
C1372 C1371 1.410 1_565 S
C1372 C1373 1.392 . S
C1372 C1375 1.511 . S
C1373 C1369 1.376 1_565 S
C1373 C1372 1.392 . S
C1373 H1385 0.929 . S
C1374 C1370 1.531 . S
C1374 H1386 0.960 . S
C1374 H1387 0.962 . S
C1374 H1388 0.960 . S
C1375 C1372 1.511 . S
C1375 H1389 0.961 . S
C1375 H1390 0.961 . S
C1375 H1391 0.961 . S
C1376 C1377 1.370 . S
C1376 C1378 1.363 . S
C1376 H1392 0.931 . S
C1377 C1376 1.370 . S
C1377 C1381 1.408 . S
C1378 C1376 1.363 . S
C1378 C1379 1.370 . S
C1378 C1382 1.524 . S
C1379 C1371 1.503 . S
C1379 C1378 1.370 . S
C1379 C1380 1.403 . S
C1380 C1379 1.403 . S
C1380 C1381 1.391 . S
C1380 C1383 1.539 1_545 S
C1381 C1377 1.408 . S
C1381 C1380 1.391 . S
C1381 H1393 0.944 1_545 S
C1382 C1378 1.524 . S
C1382 H1394 0.956 . S
C1382 H1395 0.961 . S
C1382 H1396 0.961 . S
C1383 C1380 1.539 1_565 S
C1383 H1397 0.958 1_565 S
C1383 H1398 0.961 . S
C1383 H1399 0.960 . S
H1384 C1368 0.931 . S
H1385 C1373 0.929 . S
H1386 C1374 0.960 . S
H1387 C1374 0.962 . S
H1388 C1374 0.960 . S
H1389 C1375 0.961 . S
H1390 C1375 0.961 . S
H1391 C1375 0.961 . S
H1392 C1376 0.931 . S
H1393 C1381 0.944 1_565 S
H1394 C1382 0.956 . S
H1395 C1382 0.961 . S
H1396 C1382 0.961 . S
H1397 C1383 0.958 1_545 S
H1398 C1383 0.961 . S
H1399 C1383 0.960 . S
C1400 C1401 1.391 . S
C1400 C1402 1.394 . S
C1400 H1416 0.931 . S
C1401 C1400 1.391 . S
C1401 C1405 1.376 1_655 S
C1402 C1400 1.394 . S
C1402 C1403 1.369 . S
C1402 C1406 1.531 . S
C1403 C1402 1.369 . S
C1403 C1404 1.410 1_655 S
C1403 C1411 1.503 . S
C1404 C1403 1.410 1_455 S
C1404 C1405 1.392 . S
C1404 C1407 1.511 . S
C1405 C1401 1.376 1_455 S
C1405 C1404 1.392 . S
C1405 H1417 0.929 . S
C1406 C1402 1.531 . S
C1406 H1418 0.960 . S
C1406 H1419 0.962 . S
C1406 H1420 0.960 . S
C1407 C1404 1.511 . S
C1407 H1421 0.961 . S
C1407 H1422 0.961 . S
C1407 H1423 0.961 . S
C1408 C1409 1.370 1_455 S
C1408 C1410 1.363 . S
C1408 H1424 0.931 . S
C1409 C1408 1.370 1_655 S
C1409 C1413 1.408 . S
C1410 C1408 1.363 . S
C1410 C1411 1.370 1_455 S
C1410 C1414 1.524 . S
C1411 C1403 1.503 . S
C1411 C1410 1.370 1_655 S
C1411 C1412 1.403 . S
C1412 C1411 1.403 . S
C1412 C1413 1.404 . S
C1412 C1415 1.539 . S
C1413 C1409 1.408 . S
C1413 C1412 1.404 . S
C1413 H1425 0.930 . S
C1414 C1410 1.524 . S
C1414 H1426 0.956 . S
C1414 H1427 0.961 . S
C1414 H1428 0.961 . S
C1415 C1412 1.539 . S
C1415 H1429 0.958 . S
C1415 H1430 0.961 . S
C1415 H1431 0.960 . S
H1416 C1400 0.931 . S
H1417 C1405 0.929 . S
H1418 C1406 0.960 . S
H1419 C1406 0.962 . S
H1420 C1406 0.960 . S
H1421 C1407 0.961 . S
H1422 C1407 0.961 . S
H1423 C1407 0.961 . S
H1424 C1408 0.931 . S
H1425 C1413 0.930 . S
H1426 C1414 0.956 . S
H1427 C1414 0.961 . S
H1428 C1414 0.961 . S
H1429 C1415 0.958 . S
H1430 C1415 0.961 . S
H1431 C1415 0.960 . S
C1432 C1433 1.391 . S
C1432 C1434 1.394 . S
C1432 H1448 0.931 . S
C1433 C1432 1.391 . S
C1433 C1437 1.376 . S
C1434 C1432 1.394 . S
C1434 C1435 1.369 . S
C1434 C1438 1.531 . S
C1435 C1434 1.369 . S
C1435 C1436 1.410 . S
C1435 C1443 1.503 . S
C1436 C1435 1.410 . S
C1436 C1437 1.392 . S
C1436 C1439 1.511 . S
C1437 C1433 1.376 . S
C1437 C1436 1.392 . S
C1437 H1449 0.929 . S
C1438 C1434 1.531 . S
C1438 H1450 0.960 . S
C1438 H1451 0.962 . S
C1438 H1452 0.960 . S
C1439 C1436 1.511 . S
C1439 H1453 0.961 . S
C1439 H1454 0.961 . S
C1439 H1455 0.961 . S
C1440 C1441 1.370 . S
C1440 C1442 1.363 . S
C1440 H1456 0.931 . S
C1441 C1440 1.370 . S
C1441 C1445 1.408 . S
C1442 C1440 1.363 . S
C1442 C1443 1.370 . S
C1442 C1446 1.524 . S
C1443 C1435 1.503 . S
C1443 C1442 1.370 . S
C1443 C1444 1.403 . S
C1444 C1443 1.403 . S
C1444 C1445 1.404 . S
C1444 C1447 1.539 . S
C1445 C1441 1.408 . S
C1445 C1444 1.404 . S
C1445 H1457 0.930 . S
C1446 C1442 1.524 . S
C1446 H1458 0.956 . S
C1446 H1459 0.961 . S
C1446 H1460 0.961 . S
C1447 C1444 1.539 . S
C1447 H1461 0.958 . S
C1447 H1462 0.961 . S
C1447 H1463 0.960 . S
H1448 C1432 0.931 . S
H1449 C1437 0.929 . S
H1450 C1438 0.960 . S
H1451 C1438 0.962 . S
H1452 C1438 0.960 . S
H1453 C1439 0.961 . S
H1454 C1439 0.961 . S
H1455 C1439 0.961 . S
H1456 C1440 0.931 . S
H1457 C1445 0.930 . S
H1458 C1446 0.956 . S
H1459 C1446 0.961 . S
H1460 C1446 0.961 . S
H1461 C1447 0.958 . S
H1462 C1447 0.961 . S
H1463 C1447 0.960 . S
C1464 C1465 1.391 . S
C1464 C1466 1.394 . S
C1464 H1480 0.931 . S
C1465 C1464 1.391 . S
C1465 C1469 1.376 . S
C1466 C1464 1.394 . S
C1466 C1467 1.369 . S
C1466 C1470 1.531 . S
C1467 C1466 1.369 . S
C1467 C1468 1.410 . S
C1467 C1475 1.503 . S
C1468 C1467 1.410 . S
C1468 C1469 1.392 . S
C1468 C1471 1.511 . S
C1469 C1465 1.376 . S
C1469 C1468 1.392 . S
C1469 H1481 0.929 . S
C1470 C1466 1.531 . S
C1470 H1482 0.960 . S
C1470 H1483 0.962 . S
C1470 H1484 0.960 . S
C1471 C1468 1.511 . S
C1471 H1485 0.961 . S
C1471 H1486 0.961 . S
C1471 H1487 0.961 . S
C1472 C1473 1.370 . S
C1472 C1474 1.363 . S
C1472 H1488 0.931 . S
C1473 C1472 1.370 . S
C1473 C1477 1.408 . S
C1474 C1472 1.363 . S
C1474 C1475 1.370 . S
C1474 C1478 1.524 . S
C1475 C1467 1.503 . S
C1475 C1474 1.370 . S
C1475 C1476 1.403 . S
C1476 C1475 1.403 . S
C1476 C1477 1.404 . S
C1476 C1479 1.539 . S
C1477 C1473 1.408 . S
C1477 C1476 1.404 . S
C1477 H1489 0.930 . S
C1478 C1474 1.524 . S
C1478 H1490 0.956 . S
C1478 H1491 0.961 . S
C1478 H1492 0.961 . S
C1479 C1476 1.539 . S
C1479 H1493 0.958 . S
C1479 H1494 0.961 . S
C1479 H1495 0.960 . S
H1480 C1464 0.931 . S
H1481 C1469 0.929 . S
H1482 C1470 0.960 . S
H1483 C1470 0.962 . S
H1484 C1470 0.960 . S
H1485 C1471 0.961 . S
H1486 C1471 0.961 . S
H1487 C1471 0.961 . S
H1488 C1472 0.931 . S
H1489 C1477 0.930 . S
H1490 C1478 0.956 . S
H1491 C1478 0.961 . S
H1492 C1478 0.961 . S
H1493 C1479 0.958 . S
H1494 C1479 0.961 . S
H1495 C1479 0.960 . S
C1496 C1497 1.391 . S
C1496 C1498 1.394 . S
C1496 H1512 0.931 . S
C1497 C1496 1.391 . S
C1497 C1501 1.376 . S
C1498 C1496 1.394 . S
C1498 C1499 1.369 . S
C1498 C1502 1.531 . S
C1499 C1498 1.369 . S
C1499 C1500 1.410 . S
C1499 C1507 1.503 . S
C1500 C1499 1.410 . S
C1500 C1501 1.392 . S
C1500 C1503 1.511 . S
C1501 C1497 1.376 . S
C1501 C1500 1.392 . S
C1501 H1513 0.929 . S
C1502 C1498 1.531 . S
C1502 H1514 0.960 . S
C1502 H1515 0.962 . S
C1502 H1516 0.960 . S
C1503 C1500 1.511 . S
C1503 H1517 0.961 . S
C1503 H1518 0.961 . S
C1503 H1519 0.961 . S
C1504 C1505 1.370 . S
C1504 C1506 1.363 . S
C1504 H1520 0.931 . S
C1505 C1504 1.370 . S
C1505 C1509 1.408 . S
C1506 C1504 1.363 . S
C1506 C1507 1.370 . S
C1506 C1510 1.524 . S
C1507 C1499 1.503 . S
C1507 C1506 1.370 . S
C1507 C1508 1.403 . S
C1508 C1507 1.403 . S
C1508 C1509 1.404 . S
C1508 C1511 1.539 . S
C1509 C1505 1.408 . S
C1509 C1508 1.404 . S
C1509 H1521 0.930 . S
C1510 C1506 1.524 . S
C1510 H1522 0.956 . S
C1510 H1523 0.961 . S
C1510 H1524 0.961 . S
C1511 C1508 1.539 . S
C1511 H1525 0.958 . S
C1511 H1526 0.961 . S
C1511 H1527 0.960 . S
H1512 C1496 0.931 . S
H1513 C1501 0.929 . S
H1514 C1502 0.960 . S
H1515 C1502 0.962 . S
H1516 C1502 0.960 . S
H1517 C1503 0.961 . S
H1518 C1503 0.961 . S
H1519 C1503 0.961 . S
H1520 C1504 0.931 . S
H1521 C1509 0.930 . S
H1522 C1510 0.956 . S
H1523 C1510 0.961 . S
H1524 C1510 0.961 . S
H1525 C1511 0.958 . S
H1526 C1511 0.961 . S
H1527 C1511 0.960 . S
C1528 C1529 1.391 . S
C1528 C1530 1.394 . S
C1528 H1544 0.931 . S
C1529 C1528 1.391 . S
C1529 C1533 1.376 . S
C1530 C1528 1.394 . S
C1530 C1531 1.369 . S
C1530 C1534 1.531 . S
C1531 C1530 1.369 . S
C1531 C1532 1.410 . S
C1531 C1539 1.503 . S
C1532 C1531 1.410 . S
C1532 C1533 1.392 . S
C1532 C1535 1.511 . S
C1533 C1529 1.376 . S
C1533 C1532 1.392 . S
C1533 H1545 0.929 . S
C1534 C1530 1.531 . S
C1534 H1546 0.960 . S
C1534 H1547 0.962 . S
C1534 H1548 0.960 . S
C1535 C1532 1.511 . S
C1535 H1549 0.961 . S
C1535 H1550 0.961 . S
C1535 H1551 0.961 . S
C1536 C1537 1.370 . S
C1536 C1538 1.363 . S
C1536 H1552 0.931 . S
C1537 C1536 1.370 . S
C1537 C1541 1.408 . S
C1538 C1536 1.363 . S
C1538 C1539 1.370 . S
C1538 C1542 1.524 . S
C1539 C1531 1.503 . S
C1539 C1538 1.370 . S
C1539 C1540 1.403 . S
C1540 C1539 1.403 . S
C1540 C1541 1.404 . S
C1540 C1543 1.539 . S
C1541 C1537 1.408 . S
C1541 C1540 1.404 . S
C1541 H1553 0.930 . S
C1542 C1538 1.524 . S
C1542 H1554 0.956 . S
C1542 H1555 0.961 . S
C1542 H1556 0.961 . S
C1543 C1540 1.539 . S
C1543 H1557 0.958 . S
C1543 H1558 0.961 . S
C1543 H1559 0.960 . S
H1544 C1528 0.931 . S
H1545 C1533 0.929 . S
H1546 C1534 0.960 . S
H1547 C1534 0.962 . S
H1548 C1534 0.960 . S
H1549 C1535 0.961 . S
H1550 C1535 0.961 . S
H1551 C1535 0.961 . S
H1552 C1536 0.931 . S
H1553 C1541 0.930 . S
H1554 C1542 0.956 . S
H1555 C1542 0.961 . S
H1556 C1542 0.961 . S
H1557 C1543 0.958 . S
H1558 C1543 0.961 . S
H1559 C1543 0.960 . S
C1560 C1561 1.391 . S
C1560 C1562 1.394 . S
C1560 H1576 0.931 . S
C1561 C1560 1.391 . S
C1561 C1565 1.376 . S
C1562 C1560 1.394 . S
C1562 C1563 1.369 . S
C1562 C1566 1.531 . S
C1563 C1562 1.369 . S
C1563 C1564 1.410 . S
C1563 C1571 1.503 . S
C1564 C1563 1.410 . S
C1564 C1565 1.392 . S
C1564 C1567 1.511 . S
C1565 C1561 1.376 . S
C1565 C1564 1.392 . S
C1565 H1577 0.929 . S
C1566 C1562 1.531 . S
C1566 H1578 0.960 . S
C1566 H1579 0.962 . S
C1566 H1580 0.960 . S
C1567 C1564 1.511 . S
C1567 H1581 0.961 . S
C1567 H1582 0.961 . S
C1567 H1583 0.961 . S
C1568 C1569 1.370 . S
C1568 C1570 1.363 . S
C1568 H1584 0.931 . S
C1569 C1568 1.370 . S
C1569 C1573 1.408 . S
C1570 C1568 1.363 . S
C1570 C1571 1.370 . S
C1570 C1574 1.524 . S
C1571 C1563 1.503 . S
C1571 C1570 1.370 . S
C1571 C1572 1.403 . S
C1572 C1571 1.403 . S
C1572 C1573 1.404 . S
C1572 C1575 1.539 . S
C1573 C1569 1.408 . S
C1573 C1572 1.404 . S
C1573 H1585 0.930 . S
C1574 C1570 1.524 . S
C1574 H1586 0.956 . S
C1574 H1587 0.961 . S
C1574 H1588 0.961 . S
C1575 C1572 1.539 . S
C1575 H1589 0.958 . S
C1575 H1590 0.961 . S
C1575 H1591 0.960 . S
H1576 C1560 0.931 . S
H1577 C1565 0.929 . S
H1578 C1566 0.960 . S
H1579 C1566 0.962 . S
H1580 C1566 0.960 . S
H1581 C1567 0.961 . S
H1582 C1567 0.961 . S
H1583 C1567 0.961 . S
H1584 C1568 0.931 . S
H1585 C1573 0.930 . S
H1586 C1574 0.956 . S
H1587 C1574 0.961 . S
H1588 C1574 0.961 . S
H1589 C1575 0.958 . S
H1590 C1575 0.961 . S
H1591 C1575 0.960 . S
C1592 C1593 1.391 . S
C1592 C1594 1.394 . S
C1592 H1608 0.931 . S
C1593 C1592 1.391 . S
C1593 C1597 1.376 . S
C1594 C1592 1.394 . S
C1594 C1595 1.369 . S
C1594 C1598 1.531 . S
C1595 C1594 1.369 . S
C1595 C1596 1.410 . S
C1595 C1603 1.503 . S
C1596 C1595 1.410 . S
C1596 C1597 1.392 . S
C1596 C1599 1.511 . S
C1597 C1593 1.376 . S
C1597 C1596 1.392 . S
C1597 H1609 0.929 . S
C1598 C1594 1.531 . S
C1598 H1610 0.960 . S
C1598 H1611 0.962 . S
C1598 H1612 0.960 . S
C1599 C1596 1.511 . S
C1599 H1613 0.961 . S
C1599 H1614 0.961 . S
C1599 H1615 0.961 . S
C1600 C1601 1.370 . S
C1600 C1602 1.363 . S
C1600 H1616 0.931 . S
C1601 C1600 1.370 . S
C1601 C1605 1.408 . S
C1602 C1600 1.363 . S
C1602 C1603 1.370 . S
C1602 C1606 1.524 . S
C1603 C1595 1.503 . S
C1603 C1602 1.370 . S
C1603 C1604 1.403 . S
C1604 C1603 1.403 . S
C1604 C1605 1.404 . S
C1604 C1607 1.539 . S
C1605 C1601 1.408 . S
C1605 C1604 1.404 . S
C1605 H1617 0.930 . S
C1606 C1602 1.524 . S
C1606 H1618 0.956 . S
C1606 H1619 0.961 . S
C1606 H1620 0.961 . S
C1607 C1604 1.539 . S
C1607 H1621 0.958 . S
C1607 H1622 0.961 . S
C1607 H1623 0.960 . S
H1608 C1592 0.931 . S
H1609 C1597 0.929 . S
H1610 C1598 0.960 . S
H1611 C1598 0.962 . S
H1612 C1598 0.960 . S
H1613 C1599 0.961 . S
H1614 C1599 0.961 . S
H1615 C1599 0.961 . S
H1616 C1600 0.931 . S
H1617 C1605 0.930 . S
H1618 C1606 0.956 . S
H1619 C1606 0.961 . S
H1620 C1606 0.961 . S
H1621 C1607 0.958 . S
H1622 C1607 0.961 . S
H1623 C1607 0.960 . S
C1624 C1625 1.391 . S
C1624 C1626 1.394 . S
C1624 H1640 0.931 . S
C1625 C1624 1.391 . S
C1625 C1629 1.376 . S
C1626 C1624 1.394 . S
C1626 C1627 1.369 . S
C1626 C1630 1.531 . S
C1627 C1626 1.369 . S
C1627 C1628 1.410 . S
C1627 C1635 1.503 . S
C1628 C1627 1.410 . S
C1628 C1629 1.392 . S
C1628 C1631 1.511 . S
C1629 C1625 1.376 . S
C1629 C1628 1.392 . S
C1629 H1641 0.929 . S
C1630 C1626 1.531 . S
C1630 H1642 0.960 . S
C1630 H1643 0.962 . S
C1630 H1644 0.960 . S
C1631 C1628 1.511 . S
C1631 H1645 0.961 . S
C1631 H1646 0.961 . S
C1631 H1647 0.961 . S
C1632 C1633 1.370 . S
C1632 C1634 1.363 . S
C1632 H1648 0.931 . S
C1633 C1632 1.370 . S
C1633 C1637 1.408 . S
C1634 C1632 1.363 . S
C1634 C1635 1.370 . S
C1634 C1638 1.524 . S
C1635 C1627 1.503 . S
C1635 C1634 1.370 . S
C1635 C1636 1.403 . S
C1636 C1635 1.403 . S
C1636 C1637 1.404 . S
C1636 C1639 1.539 . S
C1637 C1633 1.408 . S
C1637 C1636 1.404 . S
C1637 H1649 0.930 . S
C1638 C1634 1.524 . S
C1638 H1650 0.956 . S
C1638 H1651 0.961 . S
C1638 H1652 0.961 . S
C1639 C1636 1.539 . S
C1639 H1653 0.958 . S
C1639 H1654 0.961 . S
C1639 H1655 0.960 . S
H1640 C1624 0.931 . S
H1641 C1629 0.929 . S
H1642 C1630 0.960 . S
H1643 C1630 0.962 . S
H1644 C1630 0.960 . S
H1645 C1631 0.961 . S
H1646 C1631 0.961 . S
H1647 C1631 0.961 . S
H1648 C1632 0.931 . S
H1649 C1637 0.930 . S
H1650 C1638 0.956 . S
H1651 C1638 0.961 . S
H1652 C1638 0.961 . S
H1653 C1639 0.958 . S
H1654 C1639 0.961 . S
H1655 C1639 0.960 . S
C1656 C1657 1.391 . S
C1656 C1658 1.394 . S
C1656 H1672 0.931 . S
C1657 C1656 1.391 . S
C1657 C1661 1.376 . S
C1658 C1656 1.394 . S
C1658 C1659 1.369 . S
C1658 C1662 1.531 . S
C1659 C1658 1.369 . S
C1659 C1660 1.410 . S
C1659 C1667 1.503 . S
C1660 C1659 1.410 . S
C1660 C1661 1.392 . S
C1660 C1663 1.511 . S
C1661 C1657 1.376 . S
C1661 C1660 1.392 . S
C1661 H1673 0.929 . S
C1662 C1658 1.531 . S
C1662 H1674 0.960 . S
C1662 H1675 0.962 . S
C1662 H1676 0.960 . S
C1663 C1660 1.511 . S
C1663 H1677 0.961 . S
C1663 H1678 0.961 . S
C1663 H1679 0.961 . S
C1664 C1665 1.370 . S
C1664 C1666 1.363 . S
C1664 H1680 0.931 . S
C1665 C1664 1.370 . S
C1665 C1669 1.408 . S
C1666 C1664 1.363 . S
C1666 C1667 1.370 . S
C1666 C1670 1.524 . S
C1667 C1659 1.503 . S
C1667 C1666 1.370 . S
C1667 C1668 1.403 . S
C1668 C1667 1.403 . S
C1668 C1669 1.404 . S
C1668 C1671 1.539 . S
C1669 C1665 1.408 . S
C1669 C1668 1.404 . S
C1669 H1681 0.930 . S
C1670 C1666 1.524 . S
C1670 H1682 0.956 . S
C1670 H1683 0.961 . S
C1670 H1684 0.961 . S
C1671 C1668 1.539 . S
C1671 H1685 0.958 . S
C1671 H1686 0.961 . S
C1671 H1687 0.960 . S
H1672 C1656 0.931 . S
H1673 C1661 0.929 . S
H1674 C1662 0.960 . S
H1675 C1662 0.962 . S
H1676 C1662 0.960 . S
H1677 C1663 0.961 . S
H1678 C1663 0.961 . S
H1679 C1663 0.961 . S
H1680 C1664 0.931 . S
H1681 C1669 0.930 . S
H1682 C1670 0.956 . S
H1683 C1670 0.961 . S
H1684 C1670 0.961 . S
H1685 C1671 0.958 . S
H1686 C1671 0.961 . S
H1687 C1671 0.960 . S
C1688 C1689 1.391 . S
C1688 C1690 1.394 . S
C1688 H1704 0.931 . S
C1689 C1688 1.391 . S
C1689 C1693 1.376 . S
C1690 C1688 1.394 . S
C1690 C1691 1.369 . S
C1690 C1694 1.531 . S
C1691 C1690 1.369 . S
C1691 C1692 1.410 . S
C1691 C1699 1.503 . S
C1692 C1691 1.410 . S
C1692 C1693 1.392 . S
C1692 C1695 1.511 . S
C1693 C1689 1.376 . S
C1693 C1692 1.392 . S
C1693 H1705 0.929 . S
C1694 C1690 1.531 . S
C1694 H1706 0.960 . S
C1694 H1707 0.962 . S
C1694 H1708 0.960 . S
C1695 C1692 1.511 . S
C1695 H1709 0.961 . S
C1695 H1710 0.961 . S
C1695 H1711 0.961 . S
C1696 C1697 1.370 . S
C1696 C1698 1.363 . S
C1696 H1712 0.931 . S
C1697 C1696 1.370 . S
C1697 C1701 1.408 . S
C1698 C1696 1.363 . S
C1698 C1699 1.370 . S
C1698 C1702 1.524 . S
C1699 C1691 1.503 . S
C1699 C1698 1.370 . S
C1699 C1700 1.403 . S
C1700 C1699 1.403 . S
C1700 C1701 1.404 . S
C1700 C1703 1.539 . S
C1701 C1697 1.408 . S
C1701 C1700 1.404 . S
C1701 H1713 0.930 . S
C1702 C1698 1.524 . S
C1702 H1714 0.956 . S
C1702 H1715 0.961 . S
C1702 H1716 0.961 . S
C1703 C1700 1.539 . S
C1703 H1717 0.958 . S
C1703 H1718 0.961 . S
C1703 H1719 0.960 . S
H1704 C1688 0.931 . S
H1705 C1693 0.929 . S
H1706 C1694 0.960 . S
H1707 C1694 0.962 . S
H1708 C1694 0.960 . S
H1709 C1695 0.961 . S
H1710 C1695 0.961 . S
H1711 C1695 0.961 . S
H1712 C1696 0.931 . S
H1713 C1701 0.930 . S
H1714 C1702 0.956 . S
H1715 C1702 0.961 . S
H1716 C1702 0.961 . S
H1717 C1703 0.958 . S
H1718 C1703 0.961 . S
H1719 C1703 0.960 . S
C1720 C1721 1.391 . S
C1720 C1722 1.394 . S
C1720 H1736 0.931 . S
C1721 C1720 1.391 . S
C1721 C1725 1.376 . S
C1722 C1720 1.394 . S
C1722 C1723 1.369 . S
C1722 C1726 1.531 . S
C1723 C1722 1.369 . S
C1723 C1724 1.410 . S
C1723 C1731 1.503 . S
C1724 C1723 1.410 . S
C1724 C1725 1.392 . S
C1724 C1727 1.511 . S
C1725 C1721 1.376 . S
C1725 C1724 1.392 . S
C1725 H1737 0.929 . S
C1726 C1722 1.531 . S
C1726 H1738 0.960 . S
C1726 H1739 0.962 . S
C1726 H1740 0.960 . S
C1727 C1724 1.511 . S
C1727 H1741 0.961 . S
C1727 H1742 0.961 . S
C1727 H1743 0.961 . S
C1728 C1729 1.370 . S
C1728 C1730 1.363 . S
C1728 H1744 0.931 . S
C1729 C1728 1.370 . S
C1729 C1733 1.408 . S
C1730 C1728 1.363 . S
C1730 C1731 1.370 . S
C1730 C1734 1.524 . S
C1731 C1723 1.503 . S
C1731 C1730 1.370 . S
C1731 C1732 1.403 . S
C1732 C1731 1.403 . S
C1732 C1733 1.404 . S
C1732 C1735 1.539 . S
C1733 C1729 1.408 . S
C1733 C1732 1.404 . S
C1733 H1745 0.930 . S
C1734 C1730 1.524 . S
C1734 H1746 0.956 . S
C1734 H1747 0.961 . S
C1734 H1748 0.961 . S
C1735 C1732 1.539 . S
C1735 H1749 0.958 . S
C1735 H1750 0.961 . S
C1735 H1751 0.960 . S
H1736 C1720 0.931 . S
H1737 C1725 0.929 . S
H1738 C1726 0.960 . S
H1739 C1726 0.962 . S
H1740 C1726 0.960 . S
H1741 C1727 0.961 . S
H1742 C1727 0.961 . S
H1743 C1727 0.961 . S
H1744 C1728 0.931 . S
H1745 C1733 0.930 . S
H1746 C1734 0.956 . S
H1747 C1734 0.961 . S
H1748 C1734 0.961 . S
H1749 C1735 0.958 . S
H1750 C1735 0.961 . S
H1751 C1735 0.960 . S
C1752 C1753 1.391 . S
C1752 C1754 1.394 . S
C1752 H1768 0.931 . S
C1753 C1752 1.391 . S
C1753 C1757 1.376 . S
C1754 C1752 1.394 . S
C1754 C1755 1.369 . S
C1754 C1758 1.531 . S
C1755 C1754 1.369 . S
C1755 C1756 1.410 . S
C1755 C1763 1.503 . S
C1756 C1755 1.410 . S
C1756 C1757 1.392 . S
C1756 C1759 1.511 . S
C1757 C1753 1.376 . S
C1757 C1756 1.392 . S
C1757 H1769 0.929 . S
C1758 C1754 1.531 . S
C1758 H1770 0.960 . S
C1758 H1771 0.962 . S
C1758 H1772 0.960 . S
C1759 C1756 1.511 . S
C1759 H1773 0.961 . S
C1759 H1774 0.961 . S
C1759 H1775 0.961 . S
C1760 C1761 1.370 . S
C1760 C1762 1.363 . S
C1760 H1776 0.931 . S
C1761 C1760 1.370 . S
C1761 C1765 1.408 . S
C1762 C1760 1.363 . S
C1762 C1763 1.370 . S
C1762 C1766 1.524 . S
C1763 C1755 1.503 . S
C1763 C1762 1.370 . S
C1763 C1764 1.403 . S
C1764 C1763 1.403 . S
C1764 C1765 1.404 . S
C1764 C1767 1.539 . S
C1765 C1761 1.408 . S
C1765 C1764 1.404 . S
C1765 H1777 0.930 . S
C1766 C1762 1.524 . S
C1766 H1778 0.956 . S
C1766 H1779 0.961 . S
C1766 H1780 0.961 . S
C1767 C1764 1.539 . S
C1767 H1781 0.958 . S
C1767 H1782 0.961 . S
C1767 H1783 0.960 . S
H1768 C1752 0.931 . S
H1769 C1757 0.929 . S
H1770 C1758 0.960 . S
H1771 C1758 0.962 . S
H1772 C1758 0.960 . S
H1773 C1759 0.961 . S
H1774 C1759 0.961 . S
H1775 C1759 0.961 . S
H1776 C1760 0.931 . S
H1777 C1765 0.930 . S
H1778 C1766 0.956 . S
H1779 C1766 0.961 . S
H1780 C1766 0.961 . S
H1781 C1767 0.958 . S
H1782 C1767 0.961 . S
H1783 C1767 0.960 . S
C1784 C1785 1.391 . S
C1784 C1786 1.394 . S
C1784 H1800 0.931 . S
C1785 C1784 1.391 . S
C1785 C1789 1.376 . S
C1786 C1784 1.394 . S
C1786 C1787 1.369 . S
C1786 C1790 1.531 . S
C1787 C1786 1.369 . S
C1787 C1788 1.410 . S
C1787 C1795 1.503 . S
C1788 C1787 1.410 . S
C1788 C1789 1.392 . S
C1788 C1791 1.511 . S
C1789 C1785 1.376 . S
C1789 C1788 1.392 . S
C1789 H1801 0.929 . S
C1790 C1786 1.531 . S
C1790 H1802 0.960 . S
C1790 H1803 0.962 . S
C1790 H1804 0.960 . S
C1791 C1788 1.511 . S
C1791 H1805 0.961 . S
C1791 H1806 0.961 . S
C1791 H1807 0.961 . S
C1792 C1793 1.370 . S
C1792 C1794 1.363 . S
C1792 H1808 0.931 . S
C1793 C1792 1.370 . S
C1793 C1797 1.408 . S
C1794 C1792 1.363 . S
C1794 C1795 1.370 . S
C1794 C1798 1.524 . S
C1795 C1787 1.503 . S
C1795 C1794 1.370 . S
C1795 C1796 1.403 . S
C1796 C1795 1.403 . S
C1796 C1797 1.404 . S
C1796 C1799 1.539 . S
C1797 C1793 1.408 . S
C1797 C1796 1.404 . S
C1797 H1809 0.930 . S
C1798 C1794 1.524 . S
C1798 H1810 0.956 . S
C1798 H1811 0.961 . S
C1798 H1812 0.961 . S
C1799 C1796 1.539 . S
C1799 H1813 0.958 . S
C1799 H1814 0.961 . S
C1799 H1815 0.960 . S
H1800 C1784 0.931 . S
H1801 C1789 0.929 . S
H1802 C1790 0.960 . S
H1803 C1790 0.962 . S
H1804 C1790 0.960 . S
H1805 C1791 0.961 . S
H1806 C1791 0.961 . S
H1807 C1791 0.961 . S
H1808 C1792 0.931 . S
H1809 C1797 0.930 . S
H1810 C1798 0.956 . S
H1811 C1798 0.961 . S
H1812 C1798 0.961 . S
H1813 C1799 0.958 . S
H1814 C1799 0.961 . S
H1815 C1799 0.960 . S
C1816 C1817 1.391 . S
C1816 C1818 1.394 . S
C1816 H1832 0.931 . S
C1817 C1816 1.391 . S
C1817 C1821 1.376 . S
C1818 C1816 1.394 . S
C1818 C1819 1.369 . S
C1818 C1822 1.531 . S
C1819 C1818 1.369 . S
C1819 C1820 1.410 . S
C1819 C1827 1.503 . S
C1820 C1819 1.410 . S
C1820 C1821 1.392 . S
C1820 C1823 1.511 . S
C1821 C1817 1.376 . S
C1821 C1820 1.392 . S
C1821 H1833 0.929 . S
C1822 C1818 1.531 . S
C1822 H1834 0.960 . S
C1822 H1835 0.962 . S
C1822 H1836 0.960 . S
C1823 C1820 1.511 . S
C1823 H1837 0.961 . S
C1823 H1838 0.961 . S
C1823 H1839 0.961 . S
C1824 C1825 1.370 . S
C1824 C1826 1.363 . S
C1824 H1840 0.931 . S
C1825 C1824 1.370 . S
C1825 C1829 1.408 . S
C1826 C1824 1.363 . S
C1826 C1827 1.370 . S
C1826 C1830 1.524 . S
C1827 C1819 1.503 . S
C1827 C1826 1.370 . S
C1827 C1828 1.403 . S
C1828 C1827 1.403 . S
C1828 C1829 1.404 . S
C1828 C1831 1.539 . S
C1829 C1825 1.408 . S
C1829 C1828 1.404 . S
C1829 H1841 0.930 . S
C1830 C1826 1.524 . S
C1830 H1842 0.956 . S
C1830 H1843 0.961 . S
C1830 H1844 0.961 . S
C1831 C1828 1.539 . S
C1831 H1845 0.958 . S
C1831 H1846 0.961 . S
C1831 H1847 0.960 . S
H1832 C1816 0.931 . S
H1833 C1821 0.929 . S
H1834 C1822 0.960 . S
H1835 C1822 0.962 . S
H1836 C1822 0.960 . S
H1837 C1823 0.961 . S
H1838 C1823 0.961 . S
H1839 C1823 0.961 . S
H1840 C1824 0.931 . S
H1841 C1829 0.930 . S
H1842 C1830 0.956 . S
H1843 C1830 0.961 . S
H1844 C1830 0.961 . S
H1845 C1831 0.958 . S
H1846 C1831 0.961 . S
H1847 C1831 0.960 . S
C1848 C1849 1.391 . S
C1848 C1850 1.394 . S
C1848 H1864 0.931 . S
C1849 C1848 1.391 . S
C1849 C1853 1.376 . S
C1850 C1848 1.394 . S
C1850 C1851 1.369 . S
C1850 C1854 1.531 . S
C1851 C1850 1.369 . S
C1851 C1852 1.410 . S
C1851 C1859 1.503 . S
C1852 C1851 1.410 . S
C1852 C1853 1.392 . S
C1852 C1855 1.511 . S
C1853 C1849 1.376 . S
C1853 C1852 1.392 . S
C1853 H1865 0.929 . S
C1854 C1850 1.531 . S
C1854 H1866 0.960 . S
C1854 H1867 0.962 . S
C1854 H1868 0.960 . S
C1855 C1852 1.511 . S
C1855 H1869 0.961 . S
C1855 H1870 0.961 . S
C1855 H1871 0.961 . S
C1856 C1857 1.370 . S
C1856 C1858 1.363 . S
C1856 H1872 0.931 . S
C1857 C1856 1.370 . S
C1857 C1861 1.408 . S
C1858 C1856 1.363 . S
C1858 C1859 1.370 . S
C1858 C1862 1.524 . S
C1859 C1851 1.503 . S
C1859 C1858 1.370 . S
C1859 C1860 1.403 . S
C1860 C1859 1.403 . S
C1860 C1861 1.404 . S
C1860 C1863 1.539 . S
C1861 C1857 1.408 . S
C1861 C1860 1.404 . S
C1861 H1873 0.930 . S
C1862 C1858 1.524 . S
C1862 H1874 0.956 . S
C1862 H1875 0.961 . S
C1862 H1876 0.961 . S
C1863 C1860 1.539 . S
C1863 H1877 0.958 . S
C1863 H1878 0.961 . S
C1863 H1879 0.960 . S
H1864 C1848 0.931 . S
H1865 C1853 0.929 . S
H1866 C1854 0.960 . S
H1867 C1854 0.962 . S
H1868 C1854 0.960 . S
H1869 C1855 0.961 . S
H1870 C1855 0.961 . S
H1871 C1855 0.961 . S
H1872 C1856 0.931 . S
H1873 C1861 0.930 . S
H1874 C1862 0.956 . S
H1875 C1862 0.961 . S
H1876 C1862 0.961 . S
H1877 C1863 0.958 . S
H1878 C1863 0.961 . S
H1879 C1863 0.960 . S
C1880 C1881 1.391 . S
C1880 C1882 1.394 . S
C1880 H1896 0.931 . S
C1881 C1880 1.391 . S
C1881 C1885 1.376 . S
C1882 C1880 1.394 . S
C1882 C1883 1.369 . S
C1882 C1886 1.531 . S
C1883 C1882 1.369 . S
C1883 C1884 1.410 . S
C1883 C1891 1.503 . S
C1884 C1883 1.410 . S
C1884 C1885 1.392 . S
C1884 C1887 1.511 . S
C1885 C1881 1.376 . S
C1885 C1884 1.392 . S
C1885 H1897 0.929 . S
C1886 C1882 1.531 . S
C1886 H1898 0.960 . S
C1886 H1899 0.962 . S
C1886 H1900 0.960 . S
C1887 C1884 1.511 . S
C1887 H1901 0.961 . S
C1887 H1902 0.961 . S
C1887 H1903 0.961 . S
C1888 C1889 1.370 . S
C1888 C1890 1.363 . S
C1888 H1904 0.931 . S
C1889 C1888 1.370 . S
C1889 C1893 1.408 . S
C1890 C1888 1.363 . S
C1890 C1891 1.370 . S
C1890 C1894 1.524 . S
C1891 C1883 1.503 . S
C1891 C1890 1.370 . S
C1891 C1892 1.403 . S
C1892 C1891 1.403 . S
C1892 C1893 1.404 . S
C1892 C1895 1.539 . S
C1893 C1889 1.408 . S
C1893 C1892 1.404 . S
C1893 H1905 0.930 . S
C1894 C1890 1.524 . S
C1894 H1906 0.956 . S
C1894 H1907 0.961 . S
C1894 H1908 0.961 . S
C1895 C1892 1.539 . S
C1895 H1909 0.958 . S
C1895 H1910 0.961 . S
C1895 H1911 0.960 . S
H1896 C1880 0.931 . S
H1897 C1885 0.929 . S
H1898 C1886 0.960 . S
H1899 C1886 0.962 . S
H1900 C1886 0.960 . S
H1901 C1887 0.961 . S
H1902 C1887 0.961 . S
H1903 C1887 0.961 . S
H1904 C1888 0.931 . S
H1905 C1893 0.930 . S
H1906 C1894 0.956 . S
H1907 C1894 0.961 . S
H1908 C1894 0.961 . S
H1909 C1895 0.958 . S
H1910 C1895 0.961 . S
H1911 C1895 0.960 . S
C1912 C1913 1.391 . S
C1912 C1914 1.394 . S
C1912 H1928 0.931 . S
C1913 C1912 1.391 . S
C1913 C1917 1.376 . S
C1914 C1912 1.394 . S
C1914 C1915 1.369 . S
C1914 C1918 1.531 . S
C1915 C1914 1.369 . S
C1915 C1916 1.410 . S
C1915 C1923 1.503 . S
C1916 C1915 1.410 . S
C1916 C1917 1.392 . S
C1916 C1919 1.511 . S
C1917 C1913 1.376 . S
C1917 C1916 1.392 . S
C1917 H1929 0.929 . S
C1918 C1914 1.531 . S
C1918 H1930 0.960 . S
C1918 H1931 0.962 . S
C1918 H1932 0.960 . S
C1919 C1916 1.511 . S
C1919 H1933 0.961 . S
C1919 H1934 0.961 . S
C1919 H1935 0.961 . S
C1920 C1921 1.370 . S
C1920 C1922 1.363 . S
C1920 H1936 0.931 . S
C1921 C1920 1.370 . S
C1921 C1925 1.408 . S
C1922 C1920 1.363 . S
C1922 C1923 1.370 . S
C1922 C1926 1.524 . S
C1923 C1915 1.503 . S
C1923 C1922 1.370 . S
C1923 C1924 1.403 . S
C1924 C1923 1.403 . S
C1924 C1925 1.404 . S
C1924 C1927 1.539 . S
C1925 C1921 1.408 . S
C1925 C1924 1.404 . S
C1925 H1937 0.930 . S
C1926 C1922 1.524 . S
C1926 H1938 0.956 . S
C1926 H1939 0.961 . S
C1926 H1940 0.961 . S
C1927 C1924 1.539 . S
C1927 H1941 0.958 . S
C1927 H1942 0.961 . S
C1927 H1943 0.960 . S
H1928 C1912 0.931 . S
H1929 C1917 0.929 . S
H1930 C1918 0.960 . S
H1931 C1918 0.962 . S
H1932 C1918 0.960 . S
H1933 C1919 0.961 . S
H1934 C1919 0.961 . S
H1935 C1919 0.961 . S
H1936 C1920 0.931 . S
H1937 C1925 0.930 . S
H1938 C1926 0.956 . S
H1939 C1926 0.961 . S
H1940 C1926 0.961 . S
H1941 C1927 0.958 . S
H1942 C1927 0.961 . S
H1943 C1927 0.960 . S
C1944 C1945 1.391 . S
C1944 C1946 1.394 . S
C1944 H1960 0.931 . S
C1945 C1944 1.391 . S
C1945 C1949 1.376 . S
C1946 C1944 1.394 . S
C1946 C1947 1.369 . S
C1946 C1950 1.531 . S
C1947 C1946 1.369 . S
C1947 C1948 1.410 . S
C1947 C1955 1.503 . S
C1948 C1947 1.410 . S
C1948 C1949 1.392 . S
C1948 C1951 1.511 . S
C1949 C1945 1.376 . S
C1949 C1948 1.392 . S
C1949 H1961 0.929 . S
C1950 C1946 1.531 . S
C1950 H1962 0.960 . S
C1950 H1963 0.962 . S
C1950 H1964 0.960 . S
C1951 C1948 1.511 . S
C1951 H1965 0.961 . S
C1951 H1966 0.961 . S
C1951 H1967 0.961 . S
C1952 C1953 1.370 . S
C1952 C1954 1.363 . S
C1952 H1968 0.931 . S
C1953 C1952 1.370 . S
C1953 C1957 1.408 . S
C1954 C1952 1.363 . S
C1954 C1955 1.370 . S
C1954 C1958 1.524 . S
C1955 C1947 1.503 . S
C1955 C1954 1.370 . S
C1955 C1956 1.403 . S
C1956 C1955 1.403 . S
C1956 C1957 1.404 . S
C1956 C1959 1.539 . S
C1957 C1953 1.408 . S
C1957 C1956 1.404 . S
C1957 H1969 0.930 . S
C1958 C1954 1.524 . S
C1958 H1970 0.956 . S
C1958 H1971 0.961 . S
C1958 H1972 0.961 . S
C1959 C1956 1.539 . S
C1959 H1973 0.958 . S
C1959 H1974 0.961 . S
C1959 H1975 0.960 . S
H1960 C1944 0.931 . S
H1961 C1949 0.929 . S
H1962 C1950 0.960 . S
H1963 C1950 0.962 . S
H1964 C1950 0.960 . S
H1965 C1951 0.961 . S
H1966 C1951 0.961 . S
H1967 C1951 0.961 . S
H1968 C1952 0.931 . S
H1969 C1957 0.930 . S
H1970 C1958 0.956 . S
H1971 C1958 0.961 . S
H1972 C1958 0.961 . S
H1973 C1959 0.958 . S
H1974 C1959 0.961 . S
H1975 C1959 0.960 . S
C1976 C1977 1.391 . S
C1976 C1978 1.394 . S
C1976 H1992 0.931 . S
C1977 C1976 1.391 . S
C1977 C1981 1.376 . S
C1978 C1976 1.394 . S
C1978 C1979 1.369 . S
C1978 C1982 1.531 . S
C1979 C1978 1.369 . S
C1979 C1980 1.410 . S
C1979 C1987 1.503 . S
C1980 C1979 1.410 . S
C1980 C1981 1.392 . S
C1980 C1983 1.511 . S
C1981 C1977 1.376 . S
C1981 C1980 1.392 . S
C1981 H1993 0.929 . S
C1982 C1978 1.531 . S
C1982 H1994 0.960 . S
C1982 H1995 0.962 . S
C1982 H1996 0.960 . S
C1983 C1980 1.511 . S
C1983 H1997 0.961 . S
C1983 H1998 0.961 . S
C1983 H1999 0.961 . S
C1984 C1985 1.370 . S
C1984 C1986 1.363 . S
C1984 H2000 0.931 . S
C1985 C1984 1.370 . S
C1985 C1989 1.408 . S
C1986 C1984 1.363 . S
C1986 C1987 1.370 . S
C1986 C1990 1.524 . S
C1987 C1979 1.503 . S
C1987 C1986 1.370 . S
C1987 C1988 1.403 . S
C1988 C1987 1.403 . S
C1988 C1989 1.404 . S
C1988 C1991 1.539 . S
C1989 C1985 1.408 . S
C1989 C1988 1.404 . S
C1989 H2001 0.930 . S
C1990 C1986 1.524 . S
C1990 H2002 0.956 . S
C1990 H2003 0.961 . S
C1990 H2004 0.961 . S
C1991 C1988 1.539 . S
C1991 H2005 0.958 . S
C1991 H2006 0.961 . S
C1991 H2007 0.960 . S
H1992 C1976 0.931 . S
H1993 C1981 0.929 . S
H1994 C1982 0.960 . S
H1995 C1982 0.962 . S
H1996 C1982 0.960 . S
H1997 C1983 0.961 . S
H1998 C1983 0.961 . S
H1999 C1983 0.961 . S
H2000 C1984 0.931 . S
H2001 C1989 0.930 . S
H2002 C1990 0.956 . S
H2003 C1990 0.961 . S
H2004 C1990 0.961 . S
H2005 C1991 0.958 . S
H2006 C1991 0.961 . S
H2007 C1991 0.960 . S
C2008 C2009 1.391 . S
C2008 C2010 1.394 . S
C2008 H2024 0.931 . S
C2009 C2008 1.391 . S
C2009 C2013 1.376 . S
C2010 C2008 1.394 . S
C2010 C2011 1.369 . S
C2010 C2014 1.531 . S
C2011 C2010 1.369 . S
C2011 C2012 1.410 . S
C2011 C2019 1.503 . S
C2012 C2011 1.410 . S
C2012 C2013 1.392 . S
C2012 C2015 1.511 . S
C2013 C2009 1.376 . S
C2013 C2012 1.392 . S
C2013 H2025 0.929 . S
C2014 C2010 1.531 . S
C2014 H2026 0.960 . S
C2014 H2027 0.962 . S
C2014 H2028 0.960 . S
C2015 C2012 1.511 . S
C2015 H2029 0.961 . S
C2015 H2030 0.961 . S
C2015 H2031 0.961 . S
C2016 C2017 1.370 . S
C2016 C2018 1.363 . S
C2016 H2032 0.931 . S
C2017 C2016 1.370 . S
C2017 C2021 1.408 . S
C2018 C2016 1.363 . S
C2018 C2019 1.370 . S
C2018 C2022 1.524 . S
C2019 C2011 1.503 . S
C2019 C2018 1.370 . S
C2019 C2020 1.403 . S
C2020 C2019 1.403 . S
C2020 C2021 1.404 . S
C2020 C2023 1.539 . S
C2021 C2017 1.408 . S
C2021 C2020 1.404 . S
C2021 H2033 0.930 . S
C2022 C2018 1.524 . S
C2022 H2034 0.956 . S
C2022 H2035 0.961 . S
C2022 H2036 0.961 . S
C2023 C2020 1.539 . S
C2023 H2037 0.958 . S
C2023 H2038 0.961 . S
C2023 H2039 0.960 . S
H2024 C2008 0.931 . S
H2025 C2013 0.929 . S
H2026 C2014 0.960 . S
H2027 C2014 0.962 . S
H2028 C2014 0.960 . S
H2029 C2015 0.961 . S
H2030 C2015 0.961 . S
H2031 C2015 0.961 . S
H2032 C2016 0.931 . S
H2033 C2021 0.930 . S
H2034 C2022 0.956 . S
H2035 C2022 0.961 . S
H2036 C2022 0.961 . S
H2037 C2023 0.958 . S
H2038 C2023 0.961 . S
H2039 C2023 0.960 . S
C2040 C2041 1.391 . S
C2040 C2042 1.394 . S
C2040 H2056 0.931 . S
C2041 C2040 1.391 . S
C2041 C2045 1.376 . S
C2042 C2040 1.394 . S
C2042 C2043 1.369 . S
C2042 C2046 1.531 . S
C2043 C2042 1.369 . S
C2043 C2044 1.410 . S
C2043 C2051 1.503 . S
C2044 C2043 1.410 . S
C2044 C2045 1.392 . S
C2044 C2047 1.511 . S
C2045 C2041 1.376 . S
C2045 C2044 1.392 . S
C2045 H2057 0.929 . S
C2046 C2042 1.531 . S
C2046 H2058 0.960 . S
C2046 H2059 0.962 . S
C2046 H2060 0.960 . S
C2047 C2044 1.511 . S
C2047 H2061 0.961 . S
C2047 H2062 0.961 . S
C2047 H2063 0.961 . S
C2048 C2049 1.370 . S
C2048 C2050 1.363 . S
C2048 H2064 0.931 . S
C2049 C2048 1.370 . S
C2049 C2053 1.408 . S
C2050 C2048 1.363 . S
C2050 C2051 1.370 . S
C2050 C2054 1.524 . S
C2051 C2043 1.503 . S
C2051 C2050 1.370 . S
C2051 C2052 1.403 . S
C2052 C2051 1.403 . S
C2052 C2053 1.404 . S
C2052 C2055 1.539 . S
C2053 C2049 1.408 . S
C2053 C2052 1.404 . S
C2053 H2065 0.930 . S
C2054 C2050 1.524 . S
C2054 H2066 0.956 . S
C2054 H2067 0.961 . S
C2054 H2068 0.961 . S
C2055 C2052 1.539 . S
C2055 H2069 0.958 . S
C2055 H2070 0.961 . S
C2055 H2071 0.960 . S
H2056 C2040 0.931 . S
H2057 C2045 0.929 . S
H2058 C2046 0.960 . S
H2059 C2046 0.962 . S
H2060 C2046 0.960 . S
H2061 C2047 0.961 . S
H2062 C2047 0.961 . S
H2063 C2047 0.961 . S
H2064 C2048 0.931 . S
H2065 C2053 0.930 . S
H2066 C2054 0.956 . S
H2067 C2054 0.961 . S
H2068 C2054 0.961 . S
H2069 C2055 0.958 . S
H2070 C2055 0.961 . S
H2071 C2055 0.960 . S
C2072 C2073 1.391 . S
C2072 C2074 1.394 . S
C2072 H2088 0.931 . S
C2073 C2072 1.391 . S
C2073 C2077 1.376 . S
C2074 C2072 1.394 . S
C2074 C2075 1.369 . S
C2074 C2078 1.531 . S
C2075 C2074 1.369 . S
C2075 C2076 1.410 . S
C2075 C2083 1.503 . S
C2076 C2075 1.410 . S
C2076 C2077 1.392 . S
C2076 C2079 1.511 . S
C2077 C2073 1.376 . S
C2077 C2076 1.392 . S
C2077 H2089 0.929 . S
C2078 C2074 1.531 . S
C2078 H2090 0.960 . S
C2078 H2091 0.962 . S
C2078 H2092 0.960 . S
C2079 C2076 1.511 . S
C2079 H2093 0.961 . S
C2079 H2094 0.961 . S
C2079 H2095 0.961 . S
C2080 C2081 1.370 . S
C2080 C2082 1.363 . S
C2080 H2096 0.931 . S
C2081 C2080 1.370 . S
C2081 C2085 1.408 . S
C2082 C2080 1.363 . S
C2082 C2083 1.370 . S
C2082 C2086 1.524 . S
C2083 C2075 1.503 . S
C2083 C2082 1.370 . S
C2083 C2084 1.403 . S
C2084 C2083 1.403 . S
C2084 C2085 1.404 . S
C2084 C2087 1.539 . S
C2085 C2081 1.408 . S
C2085 C2084 1.404 . S
C2085 H2097 0.930 . S
C2086 C2082 1.524 . S
C2086 H2098 0.956 . S
C2086 H2099 0.961 . S
C2086 H2100 0.961 . S
C2087 C2084 1.539 . S
C2087 H2101 0.958 . S
C2087 H2102 0.961 . S
C2087 H2103 0.960 . S
H2088 C2072 0.931 . S
H2089 C2077 0.929 . S
H2090 C2078 0.960 . S
H2091 C2078 0.962 . S
H2092 C2078 0.960 . S
H2093 C2079 0.961 . S
H2094 C2079 0.961 . S
H2095 C2079 0.961 . S
H2096 C2080 0.931 . S
H2097 C2085 0.930 . S
H2098 C2086 0.956 . S
H2099 C2086 0.961 . S
H2100 C2086 0.961 . S
H2101 C2087 0.958 . S
H2102 C2087 0.961 . S
H2103 C2087 0.960 . S
C2104 C2105 1.391 . S
C2104 C2106 1.394 . S
C2104 H2120 0.931 . S
C2105 C2104 1.391 . S
C2105 C2109 1.376 . S
C2106 C2104 1.394 . S
C2106 C2107 1.369 . S
C2106 C2110 1.531 . S
C2107 C2106 1.369 . S
C2107 C2108 1.410 . S
C2107 C2115 1.503 . S
C2108 C2107 1.410 . S
C2108 C2109 1.392 . S
C2108 C2111 1.511 . S
C2109 C2105 1.376 . S
C2109 C2108 1.392 . S
C2109 H2121 0.929 . S
C2110 C2106 1.531 . S
C2110 H2122 0.960 . S
C2110 H2123 0.962 . S
C2110 H2124 0.960 . S
C2111 C2108 1.511 . S
C2111 H2125 0.961 . S
C2111 H2126 0.961 . S
C2111 H2127 0.961 . S
C2112 C2113 1.370 . S
C2112 C2114 1.363 . S
C2112 H2128 0.931 . S
C2113 C2112 1.370 . S
C2113 C2117 1.408 . S
C2114 C2112 1.363 . S
C2114 C2115 1.370 . S
C2114 C2118 1.524 . S
C2115 C2107 1.503 . S
C2115 C2114 1.370 . S
C2115 C2116 1.403 . S
C2116 C2115 1.403 . S
C2116 C2117 1.404 . S
C2116 C2119 1.539 . S
C2117 C2113 1.408 . S
C2117 C2116 1.404 . S
C2117 H2129 0.930 . S
C2118 C2114 1.524 . S
C2118 H2130 0.956 . S
C2118 H2131 0.961 . S
C2118 H2132 0.961 . S
C2119 C2116 1.539 . S
C2119 H2133 0.958 . S
C2119 H2134 0.961 . S
C2119 H2135 0.960 . S
H2120 C2104 0.931 . S
H2121 C2109 0.929 . S
H2122 C2110 0.960 . S
H2123 C2110 0.962 . S
H2124 C2110 0.960 . S
H2125 C2111 0.961 . S
H2126 C2111 0.961 . S
H2127 C2111 0.961 . S
H2128 C2112 0.931 . S
H2129 C2117 0.930 . S
H2130 C2118 0.956 . S
H2131 C2118 0.961 . S
H2132 C2118 0.961 . S
H2133 C2119 0.958 . S
H2134 C2119 0.961 . S
H2135 C2119 0.960 . S
C2136 C2137 1.391 . S
C2136 C2138 1.394 . S
C2136 H2152 0.931 . S
C2137 C2136 1.391 . S
C2137 C2141 1.376 . S
C2138 C2136 1.394 . S
C2138 C2139 1.369 . S
C2138 C2142 1.531 . S
C2139 C2138 1.369 . S
C2139 C2140 1.410 . S
C2139 C2147 1.503 . S
C2140 C2139 1.410 . S
C2140 C2141 1.392 . S
C2140 C2143 1.511 . S
C2141 C2137 1.376 . S
C2141 C2140 1.392 . S
C2141 H2153 0.929 . S
C2142 C2138 1.531 . S
C2142 H2154 0.960 . S
C2142 H2155 0.962 . S
C2142 H2156 0.960 . S
C2143 C2140 1.511 . S
C2143 H2157 0.961 . S
C2143 H2158 0.961 . S
C2143 H2159 0.961 . S
C2144 C2145 1.370 . S
C2144 C2146 1.363 . S
C2144 H2160 0.931 . S
C2145 C2144 1.370 . S
C2145 C2149 1.408 . S
C2146 C2144 1.363 . S
C2146 C2147 1.370 . S
C2146 C2150 1.524 . S
C2147 C2139 1.503 . S
C2147 C2146 1.370 . S
C2147 C2148 1.403 . S
C2148 C2147 1.403 . S
C2148 C2149 1.404 . S
C2148 C2151 1.539 . S
C2149 C2145 1.408 . S
C2149 C2148 1.404 . S
C2149 H2161 0.930 . S
C2150 C2146 1.524 . S
C2150 H2162 0.956 . S
C2150 H2163 0.961 . S
C2150 H2164 0.961 . S
C2151 C2148 1.539 . S
C2151 H2165 0.958 . S
C2151 H2166 0.961 . S
C2151 H2167 0.960 . S
H2152 C2136 0.931 . S
H2153 C2141 0.929 . S
H2154 C2142 0.960 . S
H2155 C2142 0.962 . S
H2156 C2142 0.960 . S
H2157 C2143 0.961 . S
H2158 C2143 0.961 . S
H2159 C2143 0.961 . S
H2160 C2144 0.931 . S
H2161 C2149 0.930 . S
H2162 C2150 0.956 . S
H2163 C2150 0.961 . S
H2164 C2150 0.961 . S
H2165 C2151 0.958 . S
H2166 C2151 0.961 . S
H2167 C2151 0.960 . S
C2168 C2169 1.391 . S
C2168 C2170 1.394 . S
C2168 H2184 0.931 . S
C2169 C2168 1.391 . S
C2169 C2173 1.376 . S
C2170 C2168 1.394 . S
C2170 C2171 1.369 . S
C2170 C2174 1.531 . S
C2171 C2170 1.369 . S
C2171 C2172 1.410 . S
C2171 C2179 1.503 . S
C2172 C2171 1.410 . S
C2172 C2173 1.392 . S
C2172 C2175 1.511 . S
C2173 C2169 1.376 . S
C2173 C2172 1.392 . S
C2173 H2185 0.929 . S
C2174 C2170 1.531 . S
C2174 H2186 0.960 . S
C2174 H2187 0.962 . S
C2174 H2188 0.960 . S
C2175 C2172 1.511 . S
C2175 H2189 0.961 . S
C2175 H2190 0.961 . S
C2175 H2191 0.961 . S
C2176 C2177 1.370 . S
C2176 C2178 1.363 . S
C2176 H2192 0.931 . S
C2177 C2176 1.370 . S
C2177 C2181 1.408 . S
C2178 C2176 1.363 . S
C2178 C2179 1.370 . S
C2178 C2182 1.524 . S
C2179 C2171 1.503 . S
C2179 C2178 1.370 . S
C2179 C2180 1.403 . S
C2180 C2179 1.403 . S
C2180 C2181 1.404 . S
C2180 C2183 1.539 . S
C2181 C2177 1.408 . S
C2181 C2180 1.404 . S
C2181 H2193 0.930 . S
C2182 C2178 1.524 . S
C2182 H2194 0.956 . S
C2182 H2195 0.961 . S
C2182 H2196 0.961 . S
C2183 C2180 1.539 . S
C2183 H2197 0.958 . S
C2183 H2198 0.961 . S
C2183 H2199 0.960 . S
H2184 C2168 0.931 . S
H2185 C2173 0.929 . S
H2186 C2174 0.960 . S
H2187 C2174 0.962 . S
H2188 C2174 0.960 . S
H2189 C2175 0.961 . S
H2190 C2175 0.961 . S
H2191 C2175 0.961 . S
H2192 C2176 0.931 . S
H2193 C2181 0.930 . S
H2194 C2182 0.956 . S
H2195 C2182 0.961 . S
H2196 C2182 0.961 . S
H2197 C2183 0.958 . S
H2198 C2183 0.961 . S
H2199 C2183 0.960 . S
C2200 C2201 1.391 . S
C2200 C2202 1.394 . S
C2200 H2216 0.931 . S
C2201 C2200 1.391 . S
C2201 C2205 1.376 . S
C2202 C2200 1.394 . S
C2202 C2203 1.369 . S
C2202 C2206 1.531 . S
C2203 C2202 1.369 . S
C2203 C2204 1.410 . S
C2203 C2211 1.503 . S
C2204 C2203 1.410 . S
C2204 C2205 1.392 . S
C2204 C2207 1.511 . S
C2205 C2201 1.376 . S
C2205 C2204 1.392 . S
C2205 H2217 0.929 . S
C2206 C2202 1.531 . S
C2206 H2218 0.960 . S
C2206 H2219 0.962 . S
C2206 H2220 0.960 . S
C2207 C2204 1.511 . S
C2207 H2221 0.961 . S
C2207 H2222 0.961 . S
C2207 H2223 0.961 . S
C2208 C2209 1.370 . S
C2208 C2210 1.363 . S
C2208 H2224 0.931 . S
C2209 C2208 1.370 . S
C2209 C2213 1.408 . S
C2210 C2208 1.363 . S
C2210 C2211 1.370 . S
C2210 C2214 1.524 . S
C2211 C2203 1.503 . S
C2211 C2210 1.370 . S
C2211 C2212 1.403 . S
C2212 C2211 1.403 . S
C2212 C2213 1.404 . S
C2212 C2215 1.539 . S
C2213 C2209 1.408 . S
C2213 C2212 1.404 . S
C2213 H2225 0.930 . S
C2214 C2210 1.524 . S
C2214 H2226 0.956 . S
C2214 H2227 0.961 . S
C2214 H2228 0.961 . S
C2215 C2212 1.539 . S
C2215 H2229 0.958 . S
C2215 H2230 0.961 . S
C2215 H2231 0.960 . S
H2216 C2200 0.931 . S
H2217 C2205 0.929 . S
H2218 C2206 0.960 . S
H2219 C2206 0.962 . S
H2220 C2206 0.960 . S
H2221 C2207 0.961 . S
H2222 C2207 0.961 . S
H2223 C2207 0.961 . S
H2224 C2208 0.931 . S
H2225 C2213 0.930 . S
H2226 C2214 0.956 . S
H2227 C2214 0.961 . S
H2228 C2214 0.961 . S
H2229 C2215 0.958 . S
H2230 C2215 0.961 . S
H2231 C2215 0.960 . S
C2232 C2233 1.391 . S
C2232 C2234 1.394 . S
C2232 H2248 0.931 . S
C2233 C2232 1.391 . S
C2233 C2237 1.376 . S
C2234 C2232 1.394 . S
C2234 C2235 1.369 . S
C2234 C2238 1.531 . S
C2235 C2234 1.369 . S
C2235 C2236 1.410 . S
C2235 C2243 1.503 . S
C2236 C2235 1.410 . S
C2236 C2237 1.392 . S
C2236 C2239 1.511 . S
C2237 C2233 1.376 . S
C2237 C2236 1.392 . S
C2237 H2249 0.929 . S
C2238 C2234 1.531 . S
C2238 H2250 0.960 . S
C2238 H2251 0.962 . S
C2238 H2252 0.960 . S
C2239 C2236 1.511 . S
C2239 H2253 0.961 . S
C2239 H2254 0.961 . S
C2239 H2255 0.961 . S
C2240 C2241 1.370 . S
C2240 C2242 1.363 . S
C2240 H2256 0.931 . S
C2241 C2240 1.370 . S
C2241 C2245 1.408 . S
C2242 C2240 1.363 . S
C2242 C2243 1.370 . S
C2242 C2246 1.524 . S
C2243 C2235 1.503 . S
C2243 C2242 1.370 . S
C2243 C2244 1.403 . S
C2244 C2243 1.403 . S
C2244 C2245 1.404 . S
C2244 C2247 1.539 . S
C2245 C2241 1.408 . S
C2245 C2244 1.404 . S
C2245 H2257 0.930 . S
C2246 C2242 1.524 . S
C2246 H2258 0.956 . S
C2246 H2259 0.961 . S
C2246 H2260 0.961 . S
C2247 C2244 1.539 . S
C2247 H2261 0.958 . S
C2247 H2262 0.961 . S
C2247 H2263 0.960 . S
H2248 C2232 0.931 . S
H2249 C2237 0.929 . S
H2250 C2238 0.960 . S
H2251 C2238 0.962 . S
H2252 C2238 0.960 . S
H2253 C2239 0.961 . S
H2254 C2239 0.961 . S
H2255 C2239 0.961 . S
H2256 C2240 0.931 . S
H2257 C2245 0.930 . S
H2258 C2246 0.956 . S
H2259 C2246 0.961 . S
H2260 C2246 0.961 . S
H2261 C2247 0.958 . S
H2262 C2247 0.961 . S
H2263 C2247 0.960 . S
C2264 C2265 1.391 . S
C2264 C2266 1.394 . S
C2264 H2280 0.931 . S
C2265 C2264 1.391 . S
C2265 C2269 1.376 . S
C2266 C2264 1.394 . S
C2266 C2267 1.369 . S
C2266 C2270 1.531 . S
C2267 C2266 1.369 . S
C2267 C2268 1.410 . S
C2267 C2275 1.503 . S
C2268 C2267 1.410 . S
C2268 C2269 1.392 . S
C2268 C2271 1.511 . S
C2269 C2265 1.376 . S
C2269 C2268 1.392 . S
C2269 H2281 0.929 . S
C2270 C2266 1.531 . S
C2270 H2282 0.960 . S
C2270 H2283 0.962 . S
C2270 H2284 0.960 . S
C2271 C2268 1.511 . S
C2271 H2285 0.961 . S
C2271 H2286 0.961 . S
C2271 H2287 0.961 . S
C2272 C2273 1.370 . S
C2272 C2274 1.363 . S
C2272 H2288 0.931 . S
C2273 C2272 1.370 . S
C2273 C2277 1.408 . S
C2274 C2272 1.363 . S
C2274 C2275 1.370 . S
C2274 C2278 1.524 . S
C2275 C2267 1.503 . S
C2275 C2274 1.370 . S
C2275 C2276 1.403 . S
C2276 C2275 1.403 . S
C2276 C2277 1.404 . S
C2276 C2279 1.539 . S
C2277 C2273 1.408 . S
C2277 C2276 1.404 . S
C2277 H2289 0.930 . S
C2278 C2274 1.524 . S
C2278 H2290 0.956 . S
C2278 H2291 0.961 . S
C2278 H2292 0.961 . S
C2279 C2276 1.539 . S
C2279 H2293 0.958 . S
C2279 H2294 0.961 . S
C2279 H2295 0.960 . S
H2280 C2264 0.931 . S
H2281 C2269 0.929 . S
H2282 C2270 0.960 . S
H2283 C2270 0.962 . S
H2284 C2270 0.960 . S
H2285 C2271 0.961 . S
H2286 C2271 0.961 . S
H2287 C2271 0.961 . S
H2288 C2272 0.931 . S
H2289 C2277 0.930 . S
H2290 C2278 0.956 . S
H2291 C2278 0.961 . S
H2292 C2278 0.961 . S
H2293 C2279 0.958 . S
H2294 C2279 0.961 . S
H2295 C2279 0.960 . S
C2296 C2297 1.391 . S
C2296 C2298 1.394 . S
C2296 H2312 0.931 . S
C2297 C2296 1.391 . S
C2297 C2301 1.376 . S
C2298 C2296 1.394 . S
C2298 C2299 1.369 . S
C2298 C2302 1.531 . S
C2299 C2298 1.369 . S
C2299 C2300 1.410 . S
C2299 C2307 1.503 . S
C2300 C2299 1.410 . S
C2300 C2301 1.392 . S
C2300 C2303 1.511 . S
C2301 C2297 1.376 . S
C2301 C2300 1.392 . S
C2301 H2313 0.929 . S
C2302 C2298 1.531 . S
C2302 H2314 0.960 . S
C2302 H2315 0.962 . S
C2302 H2316 0.960 . S
C2303 C2300 1.511 . S
C2303 H2317 0.961 . S
C2303 H2318 0.961 . S
C2303 H2319 0.961 . S
C2304 C2305 1.370 . S
C2304 C2306 1.363 . S
C2304 H2320 0.931 . S
C2305 C2304 1.370 . S
C2305 C2309 1.408 . S
C2306 C2304 1.363 . S
C2306 C2307 1.370 . S
C2306 C2310 1.524 . S
C2307 C2299 1.503 . S
C2307 C2306 1.370 . S
C2307 C2308 1.403 . S
C2308 C2307 1.403 . S
C2308 C2309 1.404 . S
C2308 C2311 1.539 . S
C2309 C2305 1.408 . S
C2309 C2308 1.404 . S
C2309 H2321 0.930 . S
C2310 C2306 1.524 . S
C2310 H2322 0.956 . S
C2310 H2323 0.961 . S
C2310 H2324 0.961 . S
C2311 C2308 1.539 . S
C2311 H2325 0.958 . S
C2311 H2326 0.961 . S
C2311 H2327 0.960 . S
H2312 C2296 0.931 . S
H2313 C2301 0.929 . S
H2314 C2302 0.960 . S
H2315 C2302 0.962 . S
H2316 C2302 0.960 . S
H2317 C2303 0.961 . S
H2318 C2303 0.961 . S
H2319 C2303 0.961 . S
H2320 C2304 0.931 . S
H2321 C2309 0.930 . S
H2322 C2310 0.956 . S
H2323 C2310 0.961 . S
H2324 C2310 0.961 . S
H2325 C2311 0.958 . S
H2326 C2311 0.961 . S
H2327 C2311 0.960 . S
C2328 C2329 1.391 . S
C2328 C2330 1.394 . S
C2328 H2344 0.931 . S
C2329 C2328 1.391 . S
C2329 C2333 1.376 . S
C2330 C2328 1.394 . S
C2330 C2331 1.369 . S
C2330 C2334 1.531 . S
C2331 C2330 1.369 . S
C2331 C2332 1.410 . S
C2331 C2339 1.503 . S
C2332 C2331 1.410 . S
C2332 C2333 1.392 . S
C2332 C2335 1.511 . S
C2333 C2329 1.376 . S
C2333 C2332 1.392 . S
C2333 H2345 0.929 1_556 S
C2334 C2330 1.531 . S
C2334 H2346 0.960 . S
C2334 H2347 0.962 . S
C2334 H2348 0.960 . S
C2335 C2332 1.511 . S
C2335 H2349 0.961 1_556 S
C2335 H2350 0.961 . S
C2335 H2351 0.961 . S
C2336 C2337 1.370 . S
C2336 C2338 1.363 . S
C2336 H2352 0.931 . S
C2337 C2336 1.370 . S
C2337 C2341 1.408 . S
C2338 C2336 1.363 . S
C2338 C2339 1.370 . S
C2338 C2342 1.524 . S
C2339 C2331 1.503 . S
C2339 C2338 1.370 . S
C2339 C2340 1.403 . S
C2340 C2339 1.403 . S
C2340 C2341 1.404 . S
C2340 C2343 1.539 . S
C2341 C2337 1.408 . S
C2341 C2340 1.404 . S
C2341 H2353 0.930 . S
C2342 C2338 1.524 . S
C2342 H2354 0.956 . S
C2342 H2355 0.961 . S
C2342 H2356 0.961 . S
C2343 C2340 1.539 . S
C2343 H2357 0.958 . S
C2343 H2358 0.961 . S
C2343 H2359 0.960 . S
H2344 C2328 0.931 . S
H2345 C2333 0.929 1_554 S
H2346 C2334 0.960 . S
H2347 C2334 0.962 . S
H2348 C2334 0.960 . S
H2349 C2335 0.961 1_554 S
H2350 C2335 0.961 . S
H2351 C2335 0.961 . S
H2352 C2336 0.931 . S
H2353 C2341 0.930 . S
H2354 C2342 0.956 . S
H2355 C2342 0.961 . S
H2356 C2342 0.961 . S
H2357 C2343 0.958 . S
H2358 C2343 0.961 . S
H2359 C2343 0.960 . S
C2360 C2361 1.391 . S
C2360 C2362 1.394 . S
C2360 H2376 0.931 . S
C2361 C2360 1.391 . S
C2361 C2365 1.376 . S
C2362 C2360 1.394 . S
C2362 C2363 1.369 . S
C2362 C2366 1.531 . S
C2363 C2362 1.369 . S
C2363 C2364 1.410 . S
C2363 C2371 1.503 . S
C2364 C2363 1.410 . S
C2364 C2365 1.392 . S
C2364 C2367 1.511 . S
C2365 C2361 1.376 . S
C2365 C2364 1.392 . S
C2365 H2377 0.929 1_556 S
C2366 C2362 1.531 . S
C2366 H2378 0.960 . S
C2366 H2379 0.962 . S
C2366 H2380 0.960 . S
C2367 C2364 1.511 . S
C2367 H2381 0.961 1_556 S
C2367 H2382 0.961 . S
C2367 H2383 0.961 . S
C2368 C2369 1.370 . S
C2368 C2370 1.363 . S
C2368 H2384 0.931 . S
C2369 C2368 1.370 . S
C2369 C2373 1.408 . S
C2370 C2368 1.363 . S
C2370 C2371 1.370 . S
C2370 C2374 1.524 . S
C2371 C2363 1.503 . S
C2371 C2370 1.370 . S
C2371 C2372 1.403 . S
C2372 C2371 1.403 . S
C2372 C2373 1.404 . S
C2372 C2375 1.539 . S
C2373 C2369 1.408 . S
C2373 C2372 1.404 . S
C2373 H2385 0.930 . S
C2374 C2370 1.524 . S
C2374 H2386 0.956 . S
C2374 H2387 0.961 . S
C2374 H2388 0.961 . S
C2375 C2372 1.539 . S
C2375 H2389 0.958 . S
C2375 H2390 0.961 . S
C2375 H2391 0.960 . S
H2376 C2360 0.931 . S
H2377 C2365 0.929 1_554 S
H2378 C2366 0.960 . S
H2379 C2366 0.962 . S
H2380 C2366 0.960 . S
H2381 C2367 0.961 1_554 S
H2382 C2367 0.961 . S
H2383 C2367 0.961 . S
H2384 C2368 0.931 . S
H2385 C2373 0.930 . S
H2386 C2374 0.956 . S
H2387 C2374 0.961 . S
H2388 C2374 0.961 . S
H2389 C2375 0.958 . S
H2390 C2375 0.961 . S
H2391 C2375 0.960 . S
C2392 C2393 1.391 . S
C2392 C2394 1.394 . S
C2392 H2408 0.931 . S
C2393 C2392 1.391 . S
C2393 C2397 1.376 . S
C2394 C2392 1.394 . S
C2394 C2395 1.369 . S
C2394 C2398 1.531 . S
C2395 C2394 1.369 . S
C2395 C2396 1.410 . S
C2395 C2403 1.503 . S
C2396 C2395 1.410 . S
C2396 C2397 1.392 . S
C2396 C2399 1.511 . S
C2397 C2393 1.376 . S
C2397 C2396 1.392 . S
C2397 H2409 0.929 . S
C2398 C2394 1.531 . S
C2398 H2410 0.960 . S
C2398 H2411 0.962 . S
C2398 H2412 0.960 . S
C2399 C2396 1.511 . S
C2399 H2413 0.961 . S
C2399 H2414 0.961 . S
C2399 H2415 0.961 . S
C2400 C2401 1.370 . S
C2400 C2402 1.363 . S
C2400 H2416 0.931 . S
C2401 C2400 1.370 . S
C2401 C2405 1.408 . S
C2402 C2400 1.363 . S
C2402 C2403 1.370 . S
C2402 C2406 1.524 . S
C2403 C2395 1.503 . S
C2403 C2402 1.370 . S
C2403 C2404 1.403 . S
C2404 C2403 1.403 . S
C2404 C2405 1.404 . S
C2404 C2407 1.539 . S
C2405 C2401 1.408 . S
C2405 C2404 1.404 . S
C2405 H2417 0.930 . S
C2406 C2402 1.524 . S
C2406 H2418 0.956 . S
C2406 H2419 0.961 . S
C2406 H2420 0.961 . S
C2407 C2404 1.539 . S
C2407 H2421 0.958 . S
C2407 H2422 0.961 . S
C2407 H2423 0.960 . S
H2408 C2392 0.931 . S
H2409 C2397 0.929 . S
H2410 C2398 0.960 . S
H2411 C2398 0.962 . S
H2412 C2398 0.960 . S
H2413 C2399 0.961 . S
H2414 C2399 0.961 . S
H2415 C2399 0.961 . S
H2416 C2400 0.931 . S
H2417 C2405 0.930 . S
H2418 C2406 0.956 . S
H2419 C2406 0.961 . S
H2420 C2406 0.961 . S
H2421 C2407 0.958 . S
H2422 C2407 0.961 . S
H2423 C2407 0.960 . S
C2424 C2425 1.422 . S
C2424 C2426 1.421 . S
C2424 H2440 0.875 1_556 S
C2425 C2424 1.422 . S
C2425 C2429 1.376 . S
C2426 C2424 1.421 . S
C2426 C2427 1.369 . S
C2426 C2430 1.531 1_556 S
C2427 C2426 1.369 . S
C2427 C2428 1.410 . S
C2427 C2435 1.503 . S
C2428 C2427 1.410 . S
C2428 C2429 1.392 . S
C2428 C2431 1.511 . S
C2429 C2425 1.376 . S
C2429 C2428 1.392 . S
C2429 H2441 0.929 . S
C2430 C2426 1.531 1_554 S
C2430 H2442 0.960 1_554 S
C2430 H2443 0.962 . S
C2430 H2444 0.960 . S
C2431 C2428 1.511 . S
C2431 H2445 0.961 . S
C2431 H2446 0.961 . S
C2431 H2447 0.961 . S
C2432 C2433 1.370 . S
C2432 C2434 1.363 . S
C2432 H2448 0.931 . S
C2433 C2432 1.370 . S
C2433 C2437 1.408 . S
C2434 C2432 1.363 . S
C2434 C2435 1.370 . S
C2434 C2438 1.524 . S
C2435 C2427 1.503 . S
C2435 C2434 1.370 . S
C2435 C2436 1.403 . S
C2436 C2435 1.403 . S
C2436 C2437 1.404 . S
C2436 C2439 1.539 . S
C2437 C2433 1.408 . S
C2437 C2436 1.404 . S
C2437 H2449 0.930 . S
C2438 C2434 1.524 . S
C2438 H2450 0.956 . S
C2438 H2451 0.961 . S
C2438 H2452 0.961 . S
C2439 C2436 1.539 . S
C2439 H2453 0.958 . S
C2439 H2454 0.961 . S
C2439 H2455 0.960 . S
H2440 C2424 0.875 1_554 S
H2441 C2429 0.929 . S
H2442 C2430 0.960 1_556 S
H2443 C2430 0.962 . S
H2444 C2430 0.960 . S
H2445 C2431 0.961 . S
H2446 C2431 0.961 . S
H2447 C2431 0.961 . S
H2448 C2432 0.931 . S
H2449 C2437 0.930 . S
H2450 C2438 0.956 . S
H2451 C2438 0.961 . S
H2452 C2438 0.961 . S
H2453 C2439 0.958 . S
H2454 C2439 0.961 . S
H2455 C2439 0.960 . S
C2456 C2457 1.391 . S
C2456 C2458 1.394 . S
C2456 H2472 0.931 1_556 S
C2457 C2456 1.391 . S
C2457 C2461 1.376 . S
C2458 C2456 1.394 . S
C2458 C2459 1.369 . S
C2458 C2462 1.531 . S
C2459 C2458 1.369 . S
C2459 C2460 1.410 . S
C2459 C2467 1.503 . S
C2460 C2459 1.410 . S
C2460 C2461 1.392 . S
C2460 C2463 1.511 . S
C2461 C2457 1.376 . S
C2461 C2460 1.392 . S
C2461 H2473 0.929 . S
C2462 C2458 1.531 . S
C2462 H2474 0.960 . S
C2462 H2475 0.992 . S
C2462 H2476 0.960 . S
C2463 C2460 1.511 . S
C2463 H2477 0.961 . S
C2463 H2478 0.961 . S
C2463 H2479 0.961 . S
C2464 C2465 1.370 . S
C2464 C2466 1.363 . S
C2464 H2480 0.931 . S
C2465 C2464 1.370 . S
C2465 C2469 1.408 . S
C2466 C2464 1.363 . S
C2466 C2467 1.370 . S
C2466 C2470 1.524 . S
C2467 C2459 1.503 . S
C2467 C2466 1.370 . S
C2467 C2468 1.403 . S
C2468 C2467 1.403 . S
C2468 C2469 1.404 . S
C2468 C2471 1.539 . S
C2469 C2465 1.408 . S
C2469 C2468 1.404 . S
C2469 H2481 0.930 . S
C2470 C2466 1.524 . S
C2470 H2482 0.956 . S
C2470 H2483 0.961 . S
C2470 H2484 0.961 . S
C2471 C2468 1.539 . S
C2471 H2485 0.958 . S
C2471 H2486 0.961 . S
C2471 H2487 0.960 . S
H2472 C2456 0.931 1_554 S
H2473 C2461 0.929 . S
H2474 C2462 0.960 . S
H2475 C2462 0.992 . S
H2476 C2462 0.960 . S
H2477 C2463 0.961 . S
H2478 C2463 0.961 . S
H2479 C2463 0.961 . S
H2480 C2464 0.931 . S
H2481 C2469 0.930 . S
H2482 C2470 0.956 . S
H2483 C2470 0.961 . S
H2484 C2470 0.961 . S
H2485 C2471 0.958 . S
H2486 C2471 0.961 . S
H2487 C2471 0.960 . S
C2488 C2489 1.391 . S
C2488 C2490 1.394 . S
C2488 H2504 0.931 . S
C2489 C2488 1.391 . S
C2489 C2493 1.376 . S
C2490 C2488 1.394 . S
C2490 C2491 1.369 . S
C2490 C2494 1.531 . S
C2491 C2490 1.369 . S
C2491 C2492 1.410 . S
C2491 C2499 1.503 . S
C2492 C2491 1.410 . S
C2492 C2493 1.392 . S
C2492 C2495 1.511 . S
C2493 C2489 1.376 . S
C2493 C2492 1.392 . S
C2493 H2505 0.955 . S
C2494 C2490 1.531 . S
C2494 H2506 0.960 . S
C2494 H2507 0.962 . S
C2494 H2508 0.960 . S
C2495 C2492 1.511 . S
C2495 H2509 0.961 . S
C2495 H2510 0.961 . S
C2495 H2511 0.961 . S
C2496 C2497 1.370 . S
C2496 C2498 1.363 . S
C2496 H2512 0.931 . S
C2497 C2496 1.370 . S
C2497 C2501 1.408 . S
C2498 C2496 1.363 . S
C2498 C2499 1.370 . S
C2498 C2502 1.524 . S
C2499 C2491 1.503 . S
C2499 C2498 1.370 . S
C2499 C2500 1.403 . S
C2500 C2499 1.403 . S
C2500 C2501 1.404 . S
C2500 C2503 1.539 . S
C2501 C2497 1.408 . S
C2501 C2500 1.404 . S
C2501 H2513 0.930 . S
C2502 C2498 1.524 . S
C2502 H2514 0.956 . S
C2502 H2515 0.961 . S
C2502 H2516 0.961 . S
C2503 C2500 1.539 . S
C2503 H2517 0.958 . S
C2503 H2518 0.961 . S
C2503 H2519 0.960 . S
H2504 C2488 0.931 . S
H2505 C2493 0.955 . S
H2506 C2494 0.960 . S
H2507 C2494 0.962 . S
H2508 C2494 0.960 . S
H2509 C2495 0.961 . S
H2510 C2495 0.961 . S
H2511 C2495 0.961 . S
H2512 C2496 0.931 . S
H2513 C2501 0.930 . S
H2514 C2502 0.956 . S
H2515 C2502 0.961 . S
H2516 C2502 0.961 . S
H2517 C2503 0.958 . S
H2518 C2503 0.961 . S
H2519 C2503 0.960 . S
C2520 C2521 1.391 . S
C2520 C2522 1.394 . S
C2520 H2536 0.931 . S
C2521 C2520 1.391 . S
C2521 C2525 1.376 . S
C2522 C2520 1.394 . S
C2522 C2523 1.369 . S
C2522 C2526 1.531 . S
C2523 C2522 1.369 . S
C2523 C2524 1.410 . S
C2523 C2531 1.503 . S
C2524 C2523 1.410 . S
C2524 C2525 1.392 . S
C2524 C2527 1.511 . S
C2525 C2521 1.376 . S
C2525 C2524 1.392 . S
C2525 H2537 0.929 . S
C2526 C2522 1.531 . S
C2526 H2538 0.960 . S
C2526 H2539 0.962 . S
C2526 H2540 0.960 . S
C2527 C2524 1.511 . S
C2527 H2541 0.961 . S
C2527 H2542 0.961 . S
C2527 H2543 0.961 . S
C2528 C2529 1.370 . S
C2528 C2530 1.363 . S
C2528 H2544 0.931 . S
C2529 C2528 1.370 . S
C2529 C2533 1.408 . S
C2530 C2528 1.363 . S
C2530 C2531 1.370 . S
C2530 C2534 1.524 . S
C2531 C2523 1.503 . S
C2531 C2530 1.370 . S
C2531 C2532 1.403 . S
C2532 C2531 1.403 . S
C2532 C2533 1.404 . S
C2532 C2535 1.539 . S
C2533 C2529 1.408 . S
C2533 C2532 1.404 . S
C2533 H2545 0.930 . S
C2534 C2530 1.524 . S
C2534 H2546 0.956 . S
C2534 H2547 0.961 . S
C2534 H2548 0.961 . S
C2535 C2532 1.539 . S
C2535 H2549 0.958 . S
C2535 H2550 0.961 . S
C2535 H2551 0.960 . S
H2536 C2520 0.931 . S
H2537 C2525 0.929 . S
H2538 C2526 0.960 . S
H2539 C2526 0.962 . S
H2540 C2526 0.960 . S
H2541 C2527 0.961 . S
H2542 C2527 0.961 . S
H2543 C2527 0.961 . S
H2544 C2528 0.931 . S
H2545 C2533 0.930 . S
H2546 C2534 0.956 . S
H2547 C2534 0.961 . S
H2548 C2534 0.961 . S
H2549 C2535 0.958 . S
H2550 C2535 0.961 . S
H2551 C2535 0.960 . S
C2552 C2553 1.391 . S
C2552 C2554 1.394 . S
C2552 H2568 0.931 . S
C2553 C2552 1.391 . S
C2553 C2557 1.376 . S
C2554 C2552 1.394 . S
C2554 C2555 1.369 . S
C2554 C2558 1.531 . S
C2555 C2554 1.369 . S
C2555 C2556 1.410 . S
C2555 C2563 1.503 . S
C2556 C2555 1.410 . S
C2556 C2557 1.392 . S
C2556 C2559 1.511 . S
C2557 C2553 1.376 . S
C2557 C2556 1.392 . S
C2557 H2569 0.929 . S
C2558 C2554 1.531 . S
C2558 H2570 0.960 . S
C2558 H2571 0.962 . S
C2558 H2572 0.960 . S
C2559 C2556 1.511 . S
C2559 H2573 0.961 . S
C2559 H2574 0.961 . S
C2559 H2575 0.961 . S
C2560 C2561 1.370 . S
C2560 C2562 1.363 . S
C2560 H2576 0.931 . S
C2561 C2560 1.370 . S
C2561 C2565 1.408 . S
C2562 C2560 1.363 . S
C2562 C2563 1.370 . S
C2562 C2566 1.524 . S
C2563 C2555 1.503 . S
C2563 C2562 1.370 . S
C2563 C2564 1.403 . S
C2564 C2563 1.403 . S
C2564 C2565 1.404 . S
C2564 C2567 1.539 . S
C2565 C2561 1.408 . S
C2565 C2564 1.404 . S
C2565 H2577 0.930 . S
C2566 C2562 1.524 . S
C2566 H2578 0.956 . S
C2566 H2579 0.961 . S
C2566 H2580 0.961 . S
C2567 C2564 1.539 . S
C2567 H2581 0.958 . S
C2567 H2582 0.961 . S
C2567 H2583 0.960 . S
H2568 C2552 0.931 . S
H2569 C2557 0.929 . S
H2570 C2558 0.960 . S
H2571 C2558 0.962 . S
H2572 C2558 0.960 . S
H2573 C2559 0.961 . S
H2574 C2559 0.961 . S
H2575 C2559 0.961 . S
H2576 C2560 0.931 . S
H2577 C2565 0.930 . S
H2578 C2566 0.956 . S
H2579 C2566 0.961 . S
H2580 C2566 0.961 . S
H2581 C2567 0.958 . S
H2582 C2567 0.961 . S
H2583 C2567 0.960 . S
C2584 C2585 1.391 . S
C2584 C2586 1.394 . S
C2584 H2600 0.931 . S
C2585 C2584 1.391 . S
C2585 C2589 1.376 . S
C2586 C2584 1.394 . S
C2586 C2587 1.369 . S
C2586 C2590 1.531 . S
C2587 C2586 1.369 . S
C2587 C2588 1.410 . S
C2587 C2595 1.503 . S
C2588 C2587 1.410 . S
C2588 C2589 1.392 . S
C2588 C2591 1.511 . S
C2589 C2585 1.376 . S
C2589 C2588 1.392 . S
C2589 H2601 0.929 . S
C2590 C2586 1.531 . S
C2590 H2602 0.960 . S
C2590 H2603 0.962 . S
C2590 H2604 0.960 . S
C2591 C2588 1.511 . S
C2591 H2605 0.961 . S
C2591 H2606 0.961 . S
C2591 H2607 0.961 . S
C2592 C2593 1.370 . S
C2592 C2594 1.363 . S
C2592 H2608 0.931 . S
C2593 C2592 1.370 . S
C2593 C2597 1.408 . S
C2594 C2592 1.363 . S
C2594 C2595 1.370 . S
C2594 C2598 1.524 . S
C2595 C2587 1.503 . S
C2595 C2594 1.370 . S
C2595 C2596 1.403 . S
C2596 C2595 1.403 . S
C2596 C2597 1.404 . S
C2596 C2599 1.539 . S
C2597 C2593 1.408 . S
C2597 C2596 1.404 . S
C2597 H2609 0.930 . S
C2598 C2594 1.524 . S
C2598 H2610 0.956 . S
C2598 H2611 0.961 . S
C2598 H2612 0.961 . S
C2599 C2596 1.539 . S
C2599 H2613 0.958 . S
C2599 H2614 0.961 . S
C2599 H2615 0.960 . S
H2600 C2584 0.931 . S
H2601 C2589 0.929 . S
H2602 C2590 0.960 . S
H2603 C2590 0.962 . S
H2604 C2590 0.960 . S
H2605 C2591 0.961 . S
H2606 C2591 0.961 . S
H2607 C2591 0.961 . S
H2608 C2592 0.931 . S
H2609 C2597 0.930 . S
H2610 C2598 0.956 . S
H2611 C2598 0.961 . S
H2612 C2598 0.961 . S
H2613 C2599 0.958 . S
H2614 C2599 0.961 . S
H2615 C2599 0.960 . S
C2616 C2617 1.391 . S
C2616 C2618 1.394 . S
C2616 H2632 0.931 . S
C2617 C2616 1.391 . S
C2617 C2621 1.376 . S
C2618 C2616 1.394 . S
C2618 C2619 1.369 . S
C2618 C2622 1.531 . S
C2619 C2618 1.369 . S
C2619 C2620 1.410 . S
C2619 C2627 1.503 . S
C2620 C2619 1.410 . S
C2620 C2621 1.392 . S
C2620 C2623 1.511 . S
C2621 C2617 1.376 . S
C2621 C2620 1.392 . S
C2621 H2633 0.929 . S
C2622 C2618 1.531 . S
C2622 H2634 0.960 . S
C2622 H2635 0.962 . S
C2622 H2636 0.960 . S
C2623 C2620 1.511 . S
C2623 H2637 0.961 . S
C2623 H2638 0.961 . S
C2623 H2639 0.961 . S
C2624 C2625 1.370 . S
C2624 C2626 1.363 . S
C2624 H2640 0.931 . S
C2625 C2624 1.370 . S
C2625 C2629 1.408 . S
C2626 C2624 1.363 . S
C2626 C2627 1.370 . S
C2626 C2630 1.524 . S
C2627 C2619 1.503 . S
C2627 C2626 1.370 . S
C2627 C2628 1.403 . S
C2628 C2627 1.403 . S
C2628 C2629 1.404 . S
C2628 C2631 1.539 . S
C2629 C2625 1.408 . S
C2629 C2628 1.404 . S
C2629 H2641 0.930 . S
C2630 C2626 1.524 . S
C2630 H2642 0.956 . S
C2630 H2643 0.961 . S
C2630 H2644 0.961 . S
C2631 C2628 1.539 . S
C2631 H2645 0.958 . S
C2631 H2646 0.961 . S
C2631 H2647 0.960 . S
H2632 C2616 0.931 . S
H2633 C2621 0.929 . S
H2634 C2622 0.960 . S
H2635 C2622 0.962 . S
H2636 C2622 0.960 . S
H2637 C2623 0.961 . S
H2638 C2623 0.961 . S
H2639 C2623 0.961 . S
H2640 C2624 0.931 . S
H2641 C2629 0.930 . S
H2642 C2630 0.956 . S
H2643 C2630 0.961 . S
H2644 C2630 0.961 . S
H2645 C2631 0.958 . S
H2646 C2631 0.961 . S
H2647 C2631 0.960 . S
C2648 C2649 1.391 . S
C2648 C2650 1.394 . S
C2648 H2664 0.931 . S
C2649 C2648 1.391 . S
C2649 C2653 1.376 . S
C2650 C2648 1.394 . S
C2650 C2651 1.369 . S
C2650 C2654 1.531 . S
C2651 C2650 1.369 . S
C2651 C2652 1.410 . S
C2651 C2659 1.503 . S
C2652 C2651 1.410 . S
C2652 C2653 1.392 . S
C2652 C2655 1.511 . S
C2653 C2649 1.376 . S
C2653 C2652 1.392 . S
C2653 H2665 0.929 . S
C2654 C2650 1.531 . S
C2654 H2666 0.960 . S
C2654 H2667 0.962 . S
C2654 H2668 0.960 . S
C2655 C2652 1.511 . S
C2655 H2669 0.961 . S
C2655 H2670 0.961 . S
C2655 H2671 0.961 . S
C2656 C2657 1.370 . S
C2656 C2658 1.363 . S
C2656 H2672 0.931 . S
C2657 C2656 1.370 . S
C2657 C2661 1.408 . S
C2658 C2656 1.363 . S
C2658 C2659 1.370 . S
C2658 C2662 1.524 . S
C2659 C2651 1.503 . S
C2659 C2658 1.370 . S
C2659 C2660 1.403 . S
C2660 C2659 1.403 . S
C2660 C2661 1.404 . S
C2660 C2663 1.539 . S
C2661 C2657 1.408 . S
C2661 C2660 1.404 . S
C2661 H2673 0.930 . S
C2662 C2658 1.524 . S
C2662 H2674 0.956 . S
C2662 H2675 0.961 . S
C2662 H2676 0.961 . S
C2663 C2660 1.539 . S
C2663 H2677 0.958 . S
C2663 H2678 0.961 . S
C2663 H2679 0.960 . S
H2664 C2648 0.931 . S
H2665 C2653 0.929 . S
H2666 C2654 0.960 . S
H2667 C2654 0.962 . S
H2668 C2654 0.960 . S
H2669 C2655 0.961 . S
H2670 C2655 0.961 . S
H2671 C2655 0.961 . S
H2672 C2656 0.931 . S
H2673 C2661 0.930 . S
H2674 C2662 0.956 . S
H2675 C2662 0.961 . S
H2676 C2662 0.961 . S
H2677 C2663 0.958 . S
H2678 C2663 0.961 . S
H2679 C2663 0.960 . S
C2680 C2681 1.391 . S
C2680 C2682 1.394 . S
C2680 H2696 0.931 . S
C2681 C2680 1.391 . S
C2681 C2685 1.376 . S
C2682 C2680 1.394 . S
C2682 C2683 1.369 . S
C2682 C2686 1.531 . S
C2683 C2682 1.369 . S
C2683 C2684 1.410 . S
C2683 C2691 1.503 . S
C2684 C2683 1.410 . S
C2684 C2685 1.392 . S
C2684 C2687 1.511 . S
C2685 C2681 1.376 . S
C2685 C2684 1.392 . S
C2685 H2697 0.929 . S
C2686 C2682 1.531 . S
C2686 H2698 0.960 . S
C2686 H2699 0.962 . S
C2686 H2700 0.960 . S
C2687 C2684 1.511 . S
C2687 H2701 0.961 . S
C2687 H2702 0.961 . S
C2687 H2703 0.961 . S
C2688 C2689 1.370 . S
C2688 C2690 1.363 . S
C2688 H2704 0.931 . S
C2689 C2688 1.370 . S
C2689 C2693 1.408 . S
C2690 C2688 1.363 . S
C2690 C2691 1.370 . S
C2690 C2694 1.524 . S
C2691 C2683 1.503 . S
C2691 C2690 1.370 . S
C2691 C2692 1.403 . S
C2692 C2691 1.403 . S
C2692 C2693 1.404 . S
C2692 C2695 1.539 . S
C2693 C2689 1.408 . S
C2693 C2692 1.404 . S
C2693 H2705 0.930 . S
C2694 C2690 1.524 . S
C2694 H2706 0.956 . S
C2694 H2707 0.961 . S
C2694 H2708 0.961 . S
C2695 C2692 1.539 . S
C2695 H2709 0.958 . S
C2695 H2710 0.961 . S
C2695 H2711 0.960 . S
H2696 C2680 0.931 . S
H2697 C2685 0.929 . S
H2698 C2686 0.960 . S
H2699 C2686 0.962 . S
H2700 C2686 0.960 . S
H2701 C2687 0.961 . S
H2702 C2687 0.961 . S
H2703 C2687 0.961 . S
H2704 C2688 0.931 . S
H2705 C2693 0.930 . S
H2706 C2694 0.956 . S
H2707 C2694 0.961 . S
H2708 C2694 0.961 . S
H2709 C2695 0.958 . S
H2710 C2695 0.961 . S
H2711 C2695 0.960 . S
C2712 C2713 1.391 . S
C2712 C2714 1.394 . S
C2712 H2728 0.933 1_455 S
C2713 C2712 1.391 . S
C2713 C2717 1.376 . S
C2714 C2712 1.394 . S
C2714 C2715 1.369 . S
C2714 C2718 1.531 1_455 S
C2715 C2714 1.369 . S
C2715 C2716 1.410 . S
C2715 C2723 1.503 . S
C2716 C2715 1.410 . S
C2716 C2717 1.392 . S
C2716 C2719 1.511 . S
C2717 C2713 1.376 . S
C2717 C2716 1.392 . S
C2717 H2729 0.929 . S
C2718 C2714 1.531 1_655 S
C2718 H2730 0.960 . S
C2718 H2731 0.962 . S
C2718 H2732 0.960 . S
C2719 C2716 1.511 . S
C2719 H2733 0.961 . S
C2719 H2734 0.961 . S
C2719 H2735 0.961 . S
C2720 C2721 1.370 . S
C2720 C2722 1.363 . S
C2720 H2736 0.931 . S
C2721 C2720 1.370 . S
C2721 C2725 1.408 1_455 S
C2722 C2720 1.363 . S
C2722 C2723 1.370 . S
C2722 C2726 1.524 . S
C2723 C2715 1.503 . S
C2723 C2722 1.370 . S
C2723 C2724 1.403 1_455 S
C2724 C2723 1.403 1_655 S
C2724 C2725 1.404 . S
C2724 C2727 1.539 . S
C2725 C2721 1.408 1_655 S
C2725 C2724 1.404 . S
C2725 H2737 0.930 . S
C2726 C2722 1.524 . S
C2726 H2738 0.956 . S
C2726 H2739 0.961 . S
C2726 H2740 0.961 . S
C2727 C2724 1.539 . S
C2727 H2741 0.958 . S
C2727 H2742 0.961 . S
C2727 H2743 0.960 . S
H2728 C2712 0.933 1_655 S
H2729 C2717 0.929 . S
H2730 C2718 0.960 . S
H2731 C2718 0.962 . S
H2732 C2718 0.960 . S
H2733 C2719 0.961 . S
H2734 C2719 0.961 . S
H2735 C2719 0.961 . S
H2736 C2720 0.931 . S
H2737 C2725 0.930 . S
H2738 C2726 0.956 . S
H2739 C2726 0.961 . S
H2740 C2726 0.961 . S
H2741 C2727 0.958 . S
H2742 C2727 0.961 . S
H2743 C2727 0.960 . S
C2744 C2745 1.391 . S
C2744 C2746 1.394 . S
C2744 H2760 0.931 . S
C2745 C2744 1.391 . S
C2745 C2749 1.376 . S
C2746 C2744 1.394 . S
C2746 C2747 1.369 . S
C2746 C2750 1.531 . S
C2747 C2746 1.369 . S
C2747 C2748 1.410 . S
C2747 C2755 1.503 . S
C2748 C2747 1.410 . S
C2748 C2749 1.392 . S
C2748 C2751 1.511 . S
C2749 C2745 1.376 . S
C2749 C2748 1.392 . S
C2749 H2761 0.929 . S
C2750 C2746 1.531 . S
C2750 H2762 0.960 . S
C2750 H2763 0.962 . S
C2750 H2764 0.960 . S
C2751 C2748 1.511 . S
C2751 H2765 0.961 . S
C2751 H2766 0.961 . S
C2751 H2767 0.961 . S
C2752 C2753 1.370 . S
C2752 C2754 1.363 . S
C2752 H2768 0.931 . S
C2753 C2752 1.370 . S
C2753 C2757 1.408 . S
C2754 C2752 1.363 . S
C2754 C2755 1.370 . S
C2754 C2758 1.524 . S
C2755 C2747 1.503 . S
C2755 C2754 1.370 . S
C2755 C2756 1.403 . S
C2756 C2755 1.403 . S
C2756 C2757 1.404 . S
C2756 C2759 1.539 . S
C2757 C2753 1.408 . S
C2757 C2756 1.404 . S
C2757 H2769 0.930 . S
C2758 C2754 1.524 . S
C2758 H2770 0.956 . S
C2758 H2771 0.961 . S
C2758 H2772 0.961 . S
C2759 C2756 1.539 . S
C2759 H2773 0.958 . S
C2759 H2774 0.961 . S
C2759 H2775 0.960 . S
H2760 C2744 0.931 . S
H2761 C2749 0.929 . S
H2762 C2750 0.960 . S
H2763 C2750 0.962 . S
H2764 C2750 0.960 . S
H2765 C2751 0.961 . S
H2766 C2751 0.961 . S
H2767 C2751 0.961 . S
H2768 C2752 0.931 . S
H2769 C2757 0.930 . S
H2770 C2758 0.956 . S
H2771 C2758 0.961 . S
H2772 C2758 0.961 . S
H2773 C2759 0.958 . S
H2774 C2759 0.961 . S
H2775 C2759 0.960 . S
C2776 C2777 1.391 . S
C2776 C2778 1.376 . S
C2776 H2792 0.931 . S
C2777 C2776 1.391 . S
C2777 C2781 1.376 . S
C2778 C2776 1.376 . S
C2778 C2779 1.403 . S
C2778 C2782 1.517 1_565 S
C2779 C2778 1.403 . S
C2779 C2780 1.410 . S
C2779 C2787 1.503 . S
C2780 C2779 1.410 . S
C2780 C2781 1.392 . S
C2780 C2783 1.511 . S
C2781 C2777 1.376 . S
C2781 C2780 1.392 . S
C2781 H2793 0.929 . S
C2782 C2778 1.517 1_545 S
C2782 H2794 0.960 . S
C2782 H2795 0.962 1_545 S
C2782 H2796 0.960 . S
C2783 C2780 1.511 . S
C2783 H2797 0.961 . S
C2783 H2798 0.961 . S
C2783 H2799 0.961 1_565 S
C2784 C2785 1.370 . S
C2784 C2786 1.363 . S
C2784 H2800 0.931 . S
C2785 C2784 1.370 . S
C2785 C2789 1.408 1_565 S
C2786 C2784 1.363 . S
C2786 C2787 1.370 . S
C2786 C2790 1.524 . S
C2787 C2779 1.503 . S
C2787 C2786 1.370 . S
C2787 C2788 1.403 1_565 S
C2788 C2787 1.403 1_545 S
C2788 C2789 1.404 . S
C2788 C2791 1.539 . S
C2789 C2785 1.408 1_545 S
C2789 C2788 1.404 . S
C2789 H2801 0.930 . S
C2790 C2786 1.524 . S
C2790 H2802 0.956 . S
C2790 H2803 0.961 . S
C2790 H2804 0.961 . S
C2791 C2788 1.539 . S
C2791 H2805 0.958 . S
C2791 H2806 0.961 . S
C2791 H2807 0.960 . S
H2792 C2776 0.931 . S
H2793 C2781 0.929 . S
H2794 C2782 0.960 . S
H2795 C2782 0.962 1_565 S
H2796 C2782 0.960 . S
H2797 C2783 0.961 . S
H2798 C2783 0.961 . S
H2799 C2783 0.961 1_545 S
H2800 C2784 0.931 . S
H2801 C2789 0.930 . S
H2802 C2790 0.956 . S
H2803 C2790 0.961 . S
H2804 C2790 0.961 . S
H2805 C2791 0.958 . S
H2806 C2791 0.961 . S
H2807 C2791 0.960 . S
C2808 C2809 1.391 . S
C2808 C2810 1.394 . S
C2808 H2824 0.931 . S
C2809 C2808 1.391 . S
C2809 C2813 1.376 . S
C2810 C2808 1.394 . S
C2810 C2811 1.369 . S
C2810 C2814 1.531 1_565 S
C2811 C2810 1.369 . S
C2811 C2812 1.410 . S
C2811 C2819 1.503 . S
C2812 C2811 1.410 . S
C2812 C2813 1.392 . S
C2812 C2815 1.511 . S
C2813 C2809 1.376 . S
C2813 C2812 1.392 . S
C2813 H2825 0.929 . S
C2814 C2810 1.531 1_545 S
C2814 H2826 0.960 1_545 S
C2814 H2827 0.962 . S
C2814 H2828 0.960 . S
C2815 C2812 1.511 . S
C2815 H2829 0.961 . S
C2815 H2830 0.961 . S
C2815 H2831 0.961 . S
C2816 C2817 1.370 1_545 S
C2816 C2818 1.363 . S
C2816 H2832 0.931 . S
C2817 C2816 1.370 1_565 S
C2817 C2821 1.408 . S
C2818 C2816 1.363 . S
C2818 C2819 1.370 1_545 S
C2818 C2822 1.524 . S
C2819 C2811 1.503 . S
C2819 C2818 1.370 1_565 S
C2819 C2820 1.403 . S
C2820 C2819 1.403 . S
C2820 C2821 1.404 . S
C2820 C2823 1.539 . S
C2821 C2817 1.408 . S
C2821 C2820 1.404 . S
C2821 H2833 0.930 . S
C2822 C2818 1.524 . S
C2822 H2834 0.956 . S
C2822 H2835 0.961 . S
C2822 H2836 0.961 . S
C2823 C2820 1.539 . S
C2823 H2837 0.958 . S
C2823 H2838 0.961 . S
C2823 H2839 0.960 . S
H2824 C2808 0.931 . S
H2825 C2813 0.929 . S
H2826 C2814 0.960 1_565 S
H2827 C2814 0.962 . S
H2828 C2814 0.960 . S
H2829 C2815 0.961 . S
H2830 C2815 0.961 . S
H2831 C2815 0.961 . S
H2832 C2816 0.931 . S
H2833 C2821 0.930 . S
H2834 C2822 0.956 . S
H2835 C2822 0.961 . S
H2836 C2822 0.961 . S
H2837 C2823 0.958 . S
H2838 C2823 0.961 . S
H2839 C2823 0.960 . S
C2840 C2841 1.391 . S
C2840 C2842 1.394 . S
C2840 H2856 0.931 . S
C2841 C2840 1.391 . S
C2841 C2845 1.376 1_455 S
C2842 C2840 1.394 . S
C2842 C2843 1.369 . S
C2842 C2846 1.531 . S
C2843 C2842 1.369 . S
C2843 C2844 1.410 1_455 S
C2843 C2851 1.503 . S
C2844 C2843 1.410 1_655 S
C2844 C2845 1.392 . S
C2844 C2847 1.511 . S
C2845 C2841 1.376 1_655 S
C2845 C2844 1.392 . S
C2845 H2857 0.929 . S
C2846 C2842 1.531 . S
C2846 H2858 0.960 . S
C2846 H2859 0.962 . S
C2846 H2860 0.960 . S
C2847 C2844 1.511 . S
C2847 H2861 0.961 . S
C2847 H2862 0.961 . S
C2847 H2863 0.961 . S
C2848 C2849 1.370 . S
C2848 C2850 1.363 . S
C2848 H2864 0.931 . S
C2849 C2848 1.370 . S
C2849 C2853 1.408 1_455 S
C2850 C2848 1.363 . S
C2850 C2851 1.370 . S
C2850 C2854 1.524 . S
C2851 C2843 1.503 . S
C2851 C2850 1.370 . S
C2851 C2852 1.403 1_455 S
C2852 C2851 1.403 1_655 S
C2852 C2853 1.404 . S
C2852 C2855 1.539 . S
C2853 C2849 1.408 1_655 S
C2853 C2852 1.404 . S
C2853 H2865 0.930 . S
C2854 C2850 1.524 . S
C2854 H2866 0.956 . S
C2854 H2867 0.961 . S
C2854 H2868 0.961 . S
C2855 C2852 1.539 . S
C2855 H2869 0.958 . S
C2855 H2870 0.961 . S
C2855 H2871 0.960 . S
H2856 C2840 0.931 . S
H2857 C2845 0.929 . S
H2858 C2846 0.960 . S
H2859 C2846 0.962 . S
H2860 C2846 0.960 . S
H2861 C2847 0.961 . S
H2862 C2847 0.961 . S
H2863 C2847 0.961 . S
H2864 C2848 0.931 . S
H2865 C2853 0.930 . S
H2866 C2854 0.956 . S
H2867 C2854 0.961 . S
H2868 C2854 0.961 . S
H2869 C2855 0.958 . S
H2870 C2855 0.961 . S
H2871 C2855 0.960 . S
C2872 C2873 1.391 . S
C2872 C2874 1.394 . S
C2872 H2888 0.931 . S
C2873 C2872 1.391 . S
C2873 C2877 1.376 . S
C2874 C2872 1.394 . S
C2874 C2875 1.369 . S
C2874 C2878 1.531 . S
C2875 C2874 1.369 . S
C2875 C2876 1.410 . S
C2875 C2883 1.503 . S
C2876 C2875 1.410 . S
C2876 C2877 1.392 . S
C2876 C2879 1.511 . S
C2877 C2873 1.376 . S
C2877 C2876 1.392 . S
C2877 H2889 0.929 . S
C2878 C2874 1.531 . S
C2878 H2890 0.960 . S
C2878 H2891 0.962 . S
C2878 H2892 0.960 . S
C2879 C2876 1.511 . S
C2879 H2893 0.961 . S
C2879 H2894 0.961 . S
C2879 H2895 0.961 . S
C2880 C2881 1.370 . S
C2880 C2882 1.363 . S
C2880 H2896 0.931 . S
C2881 C2880 1.370 . S
C2881 C2885 1.408 . S
C2882 C2880 1.363 . S
C2882 C2883 1.370 . S
C2882 C2886 1.524 . S
C2883 C2875 1.503 . S
C2883 C2882 1.370 . S
C2883 C2884 1.403 . S
C2884 C2883 1.403 . S
C2884 C2885 1.404 . S
C2884 C2887 1.539 . S
C2885 C2881 1.408 . S
C2885 C2884 1.404 . S
C2885 H2897 0.930 . S
C2886 C2882 1.524 . S
C2886 H2898 0.956 . S
C2886 H2899 0.961 . S
C2886 H2900 0.961 . S
C2887 C2884 1.539 . S
C2887 H2901 0.958 . S
C2887 H2902 0.961 . S
C2887 H2903 0.960 . S
H2888 C2872 0.931 . S
H2889 C2877 0.929 . S
H2890 C2878 0.960 . S
H2891 C2878 0.962 . S
H2892 C2878 0.960 . S
H2893 C2879 0.961 . S
H2894 C2879 0.961 . S
H2895 C2879 0.961 . S
H2896 C2880 0.931 . S
H2897 C2885 0.930 . S
H2898 C2886 0.956 . S
H2899 C2886 0.961 . S
H2900 C2886 0.961 . S
H2901 C2887 0.958 . S
H2902 C2887 0.961 . S
H2903 C2887 0.960 . S
C2904 C2905 1.391 . S
C2904 C2906 1.394 . S
C2904 H2920 0.931 . S
C2905 C2904 1.391 . S
C2905 C2909 1.376 . S
C2906 C2904 1.394 . S
C2906 C2907 1.369 . S
C2906 C2910 1.531 . S
C2907 C2906 1.369 . S
C2907 C2908 1.410 . S
C2907 C2915 1.503 . S
C2908 C2907 1.410 . S
C2908 C2909 1.392 . S
C2908 C2911 1.511 . S
C2909 C2905 1.376 . S
C2909 C2908 1.392 . S
C2909 H2921 0.929 . S
C2910 C2906 1.531 . S
C2910 H2922 0.960 . S
C2910 H2923 0.962 . S
C2910 H2924 0.960 . S
C2911 C2908 1.511 . S
C2911 H2925 0.961 . S
C2911 H2926 0.961 . S
C2911 H2927 0.961 . S
C2912 C2913 1.370 . S
C2912 C2914 1.363 . S
C2912 H2928 0.931 . S
C2913 C2912 1.370 . S
C2913 C2917 1.408 . S
C2914 C2912 1.363 . S
C2914 C2915 1.370 . S
C2914 C2918 1.524 . S
C2915 C2907 1.503 . S
C2915 C2914 1.370 . S
C2915 C2916 1.403 . S
C2916 C2915 1.403 . S
C2916 C2917 1.404 . S
C2916 C2919 1.539 . S
C2917 C2913 1.408 . S
C2917 C2916 1.404 . S
C2917 H2929 0.930 . S
C2918 C2914 1.524 . S
C2918 H2930 0.956 . S
C2918 H2931 0.961 . S
C2918 H2932 0.961 . S
C2919 C2916 1.539 . S
C2919 H2933 0.958 . S
C2919 H2934 0.961 . S
C2919 H2935 0.960 . S
H2920 C2904 0.931 . S
H2921 C2909 0.929 . S
H2922 C2910 0.960 . S
H2923 C2910 0.962 . S
H2924 C2910 0.960 . S
H2925 C2911 0.961 . S
H2926 C2911 0.961 . S
H2927 C2911 0.961 . S
H2928 C2912 0.931 . S
H2929 C2917 0.930 . S
H2930 C2918 0.956 . S
H2931 C2918 0.961 . S
H2932 C2918 0.961 . S
H2933 C2919 0.958 . S
H2934 C2919 0.961 . S
H2935 C2919 0.960 . S
C2936 C2937 1.391 . S
C2936 C2938 1.394 . S
C2936 H2952 0.931 . S
C2937 C2936 1.391 . S
C2937 C2941 1.376 . S
C2938 C2936 1.394 . S
C2938 C2939 1.369 . S
C2938 C2942 1.531 . S
C2939 C2938 1.369 . S
C2939 C2940 1.410 . S
C2939 C2947 1.503 . S
C2940 C2939 1.410 . S
C2940 C2941 1.392 . S
C2940 C2943 1.511 . S
C2941 C2937 1.376 . S
C2941 C2940 1.392 . S
C2941 H2953 0.929 . S
C2942 C2938 1.531 . S
C2942 H2954 0.960 . S
C2942 H2955 0.962 . S
C2942 H2956 0.960 . S
C2943 C2940 1.511 . S
C2943 H2957 0.961 . S
C2943 H2958 0.961 . S
C2943 H2959 0.961 . S
C2944 C2945 1.370 . S
C2944 C2946 1.363 . S
C2944 H2960 0.931 . S
C2945 C2944 1.370 . S
C2945 C2949 1.408 . S
C2946 C2944 1.363 . S
C2946 C2947 1.370 . S
C2946 C2950 1.524 . S
C2947 C2939 1.503 . S
C2947 C2946 1.370 . S
C2947 C2948 1.403 . S
C2948 C2947 1.403 . S
C2948 C2949 1.404 . S
C2948 C2951 1.539 . S
C2949 C2945 1.408 . S
C2949 C2948 1.404 . S
C2949 H2961 0.930 . S
C2950 C2946 1.524 . S
C2950 H2962 0.956 . S
C2950 H2963 0.961 . S
C2950 H2964 0.961 . S
C2951 C2948 1.539 . S
C2951 H2965 0.958 . S
C2951 H2966 0.961 . S
C2951 H2967 0.960 . S
H2952 C2936 0.931 . S
H2953 C2941 0.929 . S
H2954 C2942 0.960 . S
H2955 C2942 0.962 . S
H2956 C2942 0.960 . S
H2957 C2943 0.961 . S
H2958 C2943 0.961 . S
H2959 C2943 0.961 . S
H2960 C2944 0.931 . S
H2961 C2949 0.930 . S
H2962 C2950 0.956 . S
H2963 C2950 0.961 . S
H2964 C2950 0.961 . S
H2965 C2951 0.958 . S
H2966 C2951 0.961 . S
H2967 C2951 0.960 . S
C2968 C2969 1.391 . S
C2968 C2970 1.394 . S
C2968 H2984 0.931 . S
C2969 C2968 1.391 . S
C2969 C2973 1.376 . S
C2970 C2968 1.394 . S
C2970 C2971 1.369 . S
C2970 C2974 1.531 . S
C2971 C2970 1.369 . S
C2971 C2972 1.410 . S
C2971 C2979 1.503 . S
C2972 C2971 1.410 . S
C2972 C2973 1.392 . S
C2972 C2975 1.511 . S
C2973 C2969 1.376 . S
C2973 C2972 1.392 . S
C2973 H2985 0.929 . S
C2974 C2970 1.531 . S
C2974 H2986 0.960 . S
C2974 H2987 0.962 . S
C2974 H2988 0.960 . S
C2975 C2972 1.511 . S
C2975 H2989 0.961 . S
C2975 H2990 0.961 . S
C2975 H2991 0.961 . S
C2976 C2977 1.370 . S
C2976 C2978 1.363 . S
C2976 H2992 0.931 . S
C2977 C2976 1.370 . S
C2977 C2981 1.408 . S
C2978 C2976 1.363 . S
C2978 C2979 1.370 . S
C2978 C2982 1.524 . S
C2979 C2971 1.503 . S
C2979 C2978 1.370 . S
C2979 C2980 1.403 . S
C2980 C2979 1.403 . S
C2980 C2981 1.404 . S
C2980 C2983 1.539 . S
C2981 C2977 1.408 . S
C2981 C2980 1.404 . S
C2981 H2993 0.930 . S
C2982 C2978 1.524 . S
C2982 H2994 0.956 . S
C2982 H2995 0.961 . S
C2982 H2996 0.961 . S
C2983 C2980 1.539 . S
C2983 H2997 0.958 . S
C2983 H2998 0.961 . S
C2983 H2999 0.960 . S
H2984 C2968 0.931 . S
H2985 C2973 0.929 . S
H2986 C2974 0.960 . S
H2987 C2974 0.962 . S
H2988 C2974 0.960 . S
H2989 C2975 0.961 . S
H2990 C2975 0.961 . S
H2991 C2975 0.961 . S
H2992 C2976 0.931 . S
H2993 C2981 0.930 . S
H2994 C2982 0.956 . S
H2995 C2982 0.961 . S
H2996 C2982 0.961 . S
H2997 C2983 0.958 . S
H2998 C2983 0.961 . S
H2999 C2983 0.960 . S
C3000 C3001 1.391 . S
C3000 C3002 1.394 . S
C3000 H3016 0.931 . S
C3001 C3000 1.391 . S
C3001 C3005 1.376 . S
C3002 C3000 1.394 . S
C3002 C3003 1.369 . S
C3002 C3006 1.531 . S
C3003 C3002 1.369 . S
C3003 C3004 1.410 . S
C3003 C3011 1.503 . S
C3004 C3003 1.410 . S
C3004 C3005 1.392 . S
C3004 C3007 1.511 . S
C3005 C3001 1.376 . S
C3005 C3004 1.392 . S
C3005 H3017 0.929 . S
C3006 C3002 1.531 . S
C3006 H3018 0.960 1_545 S
C3006 H3019 0.962 . S
C3006 H3020 0.960 1_545 S
C3007 C3004 1.511 . S
C3007 H3021 0.961 . S
C3007 H3022 0.961 . S
C3007 H3023 0.998 . S
C3008 C3009 1.370 . S
C3008 C3010 1.363 . S
C3008 H3024 0.931 . S
C3009 C3008 1.370 . S
C3009 C3013 1.408 1_545 S
C3010 C3008 1.363 . S
C3010 C3011 1.370 . S
C3010 C3014 1.524 . S
C3011 C3003 1.503 . S
C3011 C3010 1.370 . S
C3011 C3012 1.403 1_545 S
C3012 C3011 1.403 1_565 S
C3012 C3013 1.404 . S
C3012 C3015 1.539 . S
C3013 C3009 1.408 1_565 S
C3013 C3012 1.404 . S
C3013 H3025 0.930 . S
C3014 C3010 1.524 . S
C3014 H3026 0.956 . S
C3014 H3027 0.961 . S
C3014 H3028 0.961 . S
C3015 C3012 1.539 . S
C3015 H3029 0.958 . S
C3015 H3030 0.961 . S
C3015 H3031 0.960 . S
H3016 C3000 0.931 . S
H3017 C3005 0.929 . S
H3018 C3006 0.960 1_565 S
H3019 C3006 0.962 . S
H3020 C3006 0.960 1_565 S
H3021 C3007 0.961 . S
H3022 C3007 0.961 . S
H3023 C3007 0.998 . S
H3024 C3008 0.931 . S
H3025 C3013 0.930 . S
H3026 C3014 0.956 . S
H3027 C3014 0.961 . S
H3028 C3014 0.961 . S
H3029 C3015 0.958 . S
H3030 C3015 0.961 . S
H3031 C3015 0.960 . S
C3032 C3033 1.391 . S
C3032 C3034 1.394 . S
C3032 H3048 0.931 . S
C3033 C3032 1.391 . S
C3033 C3037 1.376 1_655 S
C3034 C3032 1.394 . S
C3034 C3035 1.369 . S
C3034 C3038 1.531 . S
C3035 C3034 1.369 . S
C3035 C3036 1.410 1_655 S
C3035 C3043 1.503 . S
C3036 C3035 1.410 1_455 S
C3036 C3037 1.392 . S
C3036 C3039 1.511 . S
C3037 C3033 1.376 1_455 S
C3037 C3036 1.392 . S
C3037 H3049 0.929 . S
C3038 C3034 1.531 . S
C3038 H3050 0.960 . S
C3038 H3051 0.962 . S
C3038 H3052 0.960 . S
C3039 C3036 1.511 . S
C3039 H3053 0.961 . S
C3039 H3054 0.961 . S
C3039 H3055 0.961 . S
C3040 C3041 1.370 . S
C3040 C3042 1.363 . S
C3040 H3056 0.931 . S
C3041 C3040 1.370 . S
C3041 C3045 1.408 1_655 S
C3042 C3040 1.363 . S
C3042 C3043 1.370 . S
C3042 C3046 1.524 . S
C3043 C3035 1.503 . S
C3043 C3042 1.370 . S
C3043 C3044 1.403 1_655 S
C3044 C3043 1.403 1_455 S
C3044 C3045 1.404 . S
C3044 C3047 1.539 . S
C3045 C3041 1.408 1_455 S
C3045 C3044 1.404 . S
C3045 H3057 0.930 . S
C3046 C3042 1.524 . S
C3046 H3058 0.956 . S
C3046 H3059 0.961 . S
C3046 H3060 0.961 . S
C3047 C3044 1.539 . S
C3047 H3061 0.958 . S
C3047 H3062 0.961 . S
C3047 H3063 0.960 . S
H3048 C3032 0.931 . S
H3049 C3037 0.929 . S
H3050 C3038 0.960 . S
H3051 C3038 0.962 . S
H3052 C3038 0.960 . S
H3053 C3039 0.961 . S
H3054 C3039 0.961 . S
H3055 C3039 0.961 . S
H3056 C3040 0.931 . S
H3057 C3045 0.930 . S
H3058 C3046 0.956 . S
H3059 C3046 0.961 . S
H3060 C3046 0.961 . S
H3061 C3047 0.958 . S
H3062 C3047 0.961 . S
H3063 C3047 0.960 . S
C3064 C3065 1.391 . S
C3064 C3066 1.394 . S
C3064 H3080 0.931 . S
C3065 C3064 1.391 . S
C3065 C3069 1.376 . S
C3066 C3064 1.394 . S
C3066 C3067 1.369 . S
C3066 C3070 1.531 . S
C3067 C3066 1.369 . S
C3067 C3068 1.410 . S
C3067 C3075 1.503 . S
C3068 C3067 1.410 . S
C3068 C3069 1.392 . S
C3068 C3071 1.511 . S
C3069 C3065 1.376 . S
C3069 C3068 1.392 . S
C3069 H3081 0.929 . S
C3070 C3066 1.531 . S
C3070 H3082 0.960 . S
C3070 H3083 0.962 . S
C3070 H3084 0.960 . S
C3071 C3068 1.511 . S
C3071 H3085 0.961 . S
C3071 H3086 0.961 . S
C3071 H3087 0.961 . S
C3072 C3073 1.370 . S
C3072 C3074 1.363 . S
C3072 H3088 0.931 . S
C3073 C3072 1.370 . S
C3073 C3077 1.408 . S
C3074 C3072 1.363 . S
C3074 C3075 1.370 . S
C3074 C3078 1.524 . S
C3075 C3067 1.503 . S
C3075 C3074 1.370 . S
C3075 C3076 1.403 . S
C3076 C3075 1.403 . S
C3076 C3077 1.404 . S
C3076 C3079 1.539 . S
C3077 C3073 1.408 . S
C3077 C3076 1.404 . S
C3077 H3089 0.930 . S
C3078 C3074 1.524 . S
C3078 H3090 0.956 . S
C3078 H3091 0.961 . S
C3078 H3092 0.961 . S
C3079 C3076 1.539 . S
C3079 H3093 0.958 . S
C3079 H3094 0.961 . S
C3079 H3095 0.960 . S
H3080 C3064 0.931 . S
H3081 C3069 0.929 . S
H3082 C3070 0.960 . S
H3083 C3070 0.962 . S
H3084 C3070 0.960 . S
H3085 C3071 0.961 . S
H3086 C3071 0.961 . S
H3087 C3071 0.961 . S
H3088 C3072 0.931 . S
H3089 C3077 0.930 . S
H3090 C3078 0.956 . S
H3091 C3078 0.961 . S
H3092 C3078 0.961 . S
H3093 C3079 0.958 . S
H3094 C3079 0.961 . S
H3095 C3079 0.960 . S
C3096 C3097 1.391 . S
C3096 C3098 1.394 . S
C3096 H3112 0.931 . S
C3097 C3096 1.391 . S
C3097 C3101 1.376 . S
C3098 C3096 1.394 . S
C3098 C3099 1.369 . S
C3098 C3102 1.531 . S
C3099 C3098 1.369 . S
C3099 C3100 1.410 . S
C3099 C3107 1.503 . S
C3100 C3099 1.410 . S
C3100 C3101 1.392 . S
C3100 C3103 1.511 . S
C3101 C3097 1.376 . S
C3101 C3100 1.392 . S
C3101 H3113 0.929 . S
C3102 C3098 1.531 . S
C3102 H3114 0.960 . S
C3102 H3115 0.962 . S
C3102 H3116 0.960 . S
C3103 C3100 1.511 . S
C3103 H3117 0.961 . S
C3103 H3118 0.961 . S
C3103 H3119 0.961 . S
C3104 C3105 1.370 . S
C3104 C3106 1.363 . S
C3104 H3120 0.931 . S
C3105 C3104 1.370 . S
C3105 C3109 1.408 . S
C3106 C3104 1.363 . S
C3106 C3107 1.370 . S
C3106 C3110 1.524 . S
C3107 C3099 1.503 . S
C3107 C3106 1.370 . S
C3107 C3108 1.403 . S
C3108 C3107 1.403 . S
C3108 C3109 1.404 . S
C3108 C3111 1.539 . S
C3109 C3105 1.408 . S
C3109 C3108 1.404 . S
C3109 H3121 0.930 . S
C3110 C3106 1.524 . S
C3110 H3122 0.956 . S
C3110 H3123 0.961 . S
C3110 H3124 0.961 . S
C3111 C3108 1.539 . S
C3111 H3125 0.958 . S
C3111 H3126 0.961 . S
C3111 H3127 0.960 . S
H3112 C3096 0.931 . S
H3113 C3101 0.929 . S
H3114 C3102 0.960 . S
H3115 C3102 0.962 . S
H3116 C3102 0.960 . S
H3117 C3103 0.961 . S
H3118 C3103 0.961 . S
H3119 C3103 0.961 . S
H3120 C3104 0.931 . S
H3121 C3109 0.930 . S
H3122 C3110 0.956 . S
H3123 C3110 0.961 . S
H3124 C3110 0.961 . S
H3125 C3111 0.958 . S
H3126 C3111 0.961 . S
H3127 C3111 0.960 . S
C3128 C3129 1.391 . S
C3128 C3130 1.394 . S
C3128 H3144 0.931 . S
C3129 C3128 1.391 . S
C3129 C3133 1.376 . S
C3130 C3128 1.394 . S
C3130 C3131 1.369 . S
C3130 C3134 1.531 . S
C3131 C3130 1.369 . S
C3131 C3132 1.410 . S
C3131 C3139 1.503 . S
C3132 C3131 1.410 . S
C3132 C3133 1.392 . S
C3132 C3135 1.511 . S
C3133 C3129 1.376 . S
C3133 C3132 1.392 . S
C3133 H3145 0.929 . S
C3134 C3130 1.531 . S
C3134 H3146 0.960 . S
C3134 H3147 0.962 . S
C3134 H3148 0.960 . S
C3135 C3132 1.511 . S
C3135 H3149 0.961 . S
C3135 H3150 0.961 . S
C3135 H3151 0.961 . S
C3136 C3137 1.370 . S
C3136 C3138 1.363 . S
C3136 H3152 0.931 . S
C3137 C3136 1.370 . S
C3137 C3141 1.408 . S
C3138 C3136 1.363 . S
C3138 C3139 1.370 . S
C3138 C3142 1.524 . S
C3139 C3131 1.503 . S
C3139 C3138 1.370 . S
C3139 C3140 1.403 . S
C3140 C3139 1.403 . S
C3140 C3141 1.404 . S
C3140 C3143 1.539 . S
C3141 C3137 1.408 . S
C3141 C3140 1.404 . S
C3141 H3153 0.930 . S
C3142 C3138 1.524 . S
C3142 H3154 0.956 . S
C3142 H3155 0.961 . S
C3142 H3156 0.961 . S
C3143 C3140 1.539 . S
C3143 H3157 0.958 . S
C3143 H3158 0.961 . S
C3143 H3159 0.960 . S
H3144 C3128 0.931 . S
H3145 C3133 0.929 . S
H3146 C3134 0.960 . S
H3147 C3134 0.962 . S
H3148 C3134 0.960 . S
H3149 C3135 0.961 . S
H3150 C3135 0.961 . S
H3151 C3135 0.961 . S
H3152 C3136 0.931 . S
H3153 C3141 0.930 . S
H3154 C3142 0.956 . S
H3155 C3142 0.961 . S
H3156 C3142 0.961 . S
H3157 C3143 0.958 . S
H3158 C3143 0.961 . S
H3159 C3143 0.960 . S
C3160 C3161 1.391 . S
C3160 C3162 1.394 . S
C3160 H3176 0.931 . S
C3161 C3160 1.391 . S
C3161 C3165 1.376 . S
C3162 C3160 1.394 . S
C3162 C3163 1.369 . S
C3162 C3166 1.531 . S
C3163 C3162 1.369 . S
C3163 C3164 1.410 . S
C3163 C3171 1.503 . S
C3164 C3163 1.410 . S
C3164 C3165 1.392 . S
C3164 C3167 1.511 . S
C3165 C3161 1.376 . S
C3165 C3164 1.392 . S
C3165 H3177 0.929 . S
C3166 C3162 1.531 . S
C3166 H3178 0.960 . S
C3166 H3179 0.962 . S
C3166 H3180 0.960 . S
C3167 C3164 1.511 . S
C3167 H3181 0.961 . S
C3167 H3182 0.961 . S
C3167 H3183 0.961 . S
C3168 C3169 1.370 . S
C3168 C3170 1.363 . S
C3168 H3184 0.931 . S
C3169 C3168 1.370 . S
C3169 C3173 1.408 . S
C3170 C3168 1.363 . S
C3170 C3171 1.370 . S
C3170 C3174 1.524 . S
C3171 C3163 1.503 . S
C3171 C3170 1.370 . S
C3171 C3172 1.403 . S
C3172 C3171 1.403 . S
C3172 C3173 1.404 . S
C3172 C3175 1.539 . S
C3173 C3169 1.408 . S
C3173 C3172 1.404 . S
C3173 H3185 0.930 . S
C3174 C3170 1.524 . S
C3174 H3186 0.956 . S
C3174 H3187 0.961 . S
C3174 H3188 0.961 . S
C3175 C3172 1.539 . S
C3175 H3189 0.958 . S
C3175 H3190 0.961 . S
C3175 H3191 0.960 . S
H3176 C3160 0.931 . S
H3177 C3165 0.929 . S
H3178 C3166 0.960 . S
H3179 C3166 0.962 . S
H3180 C3166 0.960 . S
H3181 C3167 0.961 . S
H3182 C3167 0.961 . S
H3183 C3167 0.961 . S
H3184 C3168 0.931 . S
H3185 C3173 0.930 . S
H3186 C3174 0.956 . S
H3187 C3174 0.961 . S
H3188 C3174 0.961 . S
H3189 C3175 0.958 . S
H3190 C3175 0.961 . S
H3191 C3175 0.960 . S
C3192 C3193 1.391 . S
C3192 C3194 1.394 . S
C3192 H3208 0.931 . S
C3193 C3192 1.391 . S
C3193 C3197 1.376 . S
C3194 C3192 1.394 . S
C3194 C3195 1.369 . S
C3194 C3198 1.531 . S
C3195 C3194 1.369 . S
C3195 C3196 1.410 . S
C3195 C3203 1.503 . S
C3196 C3195 1.410 . S
C3196 C3197 1.392 . S
C3196 C3199 1.511 . S
C3197 C3193 1.376 . S
C3197 C3196 1.392 . S
C3197 H3209 0.929 . S
C3198 C3194 1.531 . S
C3198 H3210 0.960 . S
C3198 H3211 0.962 . S
C3198 H3212 0.960 . S
C3199 C3196 1.511 . S
C3199 H3213 0.961 . S
C3199 H3214 0.961 . S
C3199 H3215 0.961 . S
C3200 C3201 1.370 . S
C3200 C3202 1.363 . S
C3200 H3216 0.931 . S
C3201 C3200 1.370 . S
C3201 C3205 1.408 . S
C3202 C3200 1.363 . S
C3202 C3203 1.370 . S
C3202 C3206 1.524 . S
C3203 C3195 1.503 . S
C3203 C3202 1.370 . S
C3203 C3204 1.403 . S
C3204 C3203 1.403 . S
C3204 C3205 1.404 . S
C3204 C3207 1.539 . S
C3205 C3201 1.408 . S
C3205 C3204 1.404 . S
C3205 H3217 0.930 . S
C3206 C3202 1.524 . S
C3206 H3218 0.956 . S
C3206 H3219 0.961 . S
C3206 H3220 0.961 . S
C3207 C3204 1.539 . S
C3207 H3221 0.958 . S
C3207 H3222 0.961 . S
C3207 H3223 0.960 . S
H3208 C3192 0.931 . S
H3209 C3197 0.929 . S
H3210 C3198 0.960 . S
H3211 C3198 0.962 . S
H3212 C3198 0.960 . S
H3213 C3199 0.961 . S
H3214 C3199 0.961 . S
H3215 C3199 0.961 . S
H3216 C3200 0.931 . S
H3217 C3205 0.930 . S
H3218 C3206 0.956 . S
H3219 C3206 0.961 . S
H3220 C3206 0.961 . S
H3221 C3207 0.958 . S
H3222 C3207 0.961 . S
H3223 C3207 0.960 . S
C3224 C3225 1.391 . S
C3224 C3226 1.394 . S
C3224 H3240 0.931 . S
C3225 C3224 1.391 . S
C3225 C3229 1.376 . S
C3226 C3224 1.394 . S
C3226 C3227 1.369 . S
C3226 C3230 1.531 . S
C3227 C3226 1.369 . S
C3227 C3228 1.410 . S
C3227 C3235 1.503 . S
C3228 C3227 1.410 . S
C3228 C3229 1.392 . S
C3228 C3231 1.511 . S
C3229 C3225 1.376 . S
C3229 C3228 1.392 . S
C3229 H3241 0.929 . S
C3230 C3226 1.531 . S
C3230 H3242 0.960 . S
C3230 H3243 0.962 . S
C3230 H3244 0.960 . S
C3231 C3228 1.511 . S
C3231 H3245 0.961 . S
C3231 H3246 0.961 . S
C3231 H3247 0.961 . S
C3232 C3233 1.370 . S
C3232 C3234 1.363 . S
C3232 H3248 0.931 . S
C3233 C3232 1.370 . S
C3233 C3237 1.408 . S
C3234 C3232 1.363 . S
C3234 C3235 1.370 . S
C3234 C3238 1.524 . S
C3235 C3227 1.503 . S
C3235 C3234 1.370 . S
C3235 C3236 1.403 . S
C3236 C3235 1.403 . S
C3236 C3237 1.404 . S
C3236 C3239 1.539 . S
C3237 C3233 1.408 . S
C3237 C3236 1.404 . S
C3237 H3249 0.930 . S
C3238 C3234 1.524 . S
C3238 H3250 0.956 . S
C3238 H3251 0.961 . S
C3238 H3252 0.961 . S
C3239 C3236 1.539 . S
C3239 H3253 0.958 . S
C3239 H3254 0.961 . S
C3239 H3255 0.960 . S
H3240 C3224 0.931 . S
H3241 C3229 0.929 . S
H3242 C3230 0.960 . S
H3243 C3230 0.962 . S
H3244 C3230 0.960 . S
H3245 C3231 0.961 . S
H3246 C3231 0.961 . S
H3247 C3231 0.961 . S
H3248 C3232 0.931 . S
H3249 C3237 0.930 . S
H3250 C3238 0.956 . S
H3251 C3238 0.961 . S
H3252 C3238 0.961 . S
H3253 C3239 0.958 . S
H3254 C3239 0.961 . S
H3255 C3239 0.960 . S
C3256 C3257 1.391 . S
C3256 C3258 1.394 . S
C3256 H3272 0.931 . S
C3257 C3256 1.391 . S
C3257 C3261 1.376 . S
C3258 C3256 1.394 . S
C3258 C3259 1.369 . S
C3258 C3262 1.531 . S
C3259 C3258 1.369 . S
C3259 C3260 1.410 . S
C3259 C3267 1.503 . S
C3260 C3259 1.410 . S
C3260 C3261 1.392 . S
C3260 C3263 1.511 . S
C3261 C3257 1.376 . S
C3261 C3260 1.392 . S
C3261 H3273 0.929 . S
C3262 C3258 1.531 . S
C3262 H3274 0.960 . S
C3262 H3275 0.962 . S
C3262 H3276 0.960 . S
C3263 C3260 1.511 . S
C3263 H3277 0.961 . S
C3263 H3278 0.961 . S
C3263 H3279 0.961 . S
C3264 C3265 1.370 . S
C3264 C3266 1.363 . S
C3264 H3280 0.931 . S
C3265 C3264 1.370 . S
C3265 C3269 1.408 . S
C3266 C3264 1.363 . S
C3266 C3267 1.370 . S
C3266 C3270 1.524 . S
C3267 C3259 1.503 . S
C3267 C3266 1.370 . S
C3267 C3268 1.403 . S
C3268 C3267 1.403 . S
C3268 C3269 1.404 . S
C3268 C3271 1.539 . S
C3269 C3265 1.408 . S
C3269 C3268 1.404 . S
C3269 H3281 0.930 . S
C3270 C3266 1.524 . S
C3270 H3282 0.956 . S
C3270 H3283 0.961 . S
C3270 H3284 0.961 . S
C3271 C3268 1.539 . S
C3271 H3285 0.958 . S
C3271 H3286 0.961 . S
C3271 H3287 0.960 . S
H3272 C3256 0.931 . S
H3273 C3261 0.929 . S
H3274 C3262 0.960 . S
H3275 C3262 0.962 . S
H3276 C3262 0.960 . S
H3277 C3263 0.961 . S
H3278 C3263 0.961 . S
H3279 C3263 0.961 . S
H3280 C3264 0.931 . S
H3281 C3269 0.930 . S
H3282 C3270 0.956 . S
H3283 C3270 0.961 . S
H3284 C3270 0.961 . S
H3285 C3271 0.958 . S
H3286 C3271 0.961 . S
H3287 C3271 0.960 . S
C3288 C3289 1.391 . S
C3288 C3290 1.394 . S
C3288 H3304 0.931 . S
C3289 C3288 1.391 . S
C3289 C3293 1.376 . S
C3290 C3288 1.394 . S
C3290 C3291 1.369 . S
C3290 C3294 1.531 . S
C3291 C3290 1.369 . S
C3291 C3292 1.410 . S
C3291 C3299 1.503 . S
C3292 C3291 1.410 . S
C3292 C3293 1.392 . S
C3292 C3295 1.511 . S
C3293 C3289 1.376 . S
C3293 C3292 1.392 . S
C3293 H3305 0.929 . S
C3294 C3290 1.531 . S
C3294 H3306 0.960 . S
C3294 H3307 0.962 1_655 S
C3294 H3308 0.960 . S
C3295 C3292 1.511 . S
C3295 H3309 0.961 . S
C3295 H3310 0.961 . S
C3295 H3311 0.961 . S
C3296 C3297 1.370 1_455 S
C3296 C3298 1.363 . S
C3296 H3312 0.931 . S
C3297 C3296 1.370 1_655 S
C3297 C3301 1.408 . S
C3298 C3296 1.363 . S
C3298 C3299 1.370 1_455 S
C3298 C3302 1.524 . S
C3299 C3291 1.503 . S
C3299 C3298 1.370 1_655 S
C3299 C3300 1.403 . S
C3300 C3299 1.403 . S
C3300 C3301 1.404 . S
C3300 C3303 1.539 . S
C3301 C3297 1.408 . S
C3301 C3300 1.404 . S
C3301 H3313 0.930 . S
C3302 C3298 1.524 . S
C3302 H3314 0.956 . S
C3302 H3315 0.961 . S
C3302 H3316 0.961 . S
C3303 C3300 1.539 . S
C3303 H3317 0.958 . S
C3303 H3318 0.961 . S
C3303 H3319 0.960 . S
H3304 C3288 0.931 . S
H3305 C3293 0.929 . S
H3306 C3294 0.960 . S
H3307 C3294 0.962 1_455 S
H3308 C3294 0.960 . S
H3309 C3295 0.961 . S
H3310 C3295 0.961 . S
H3311 C3295 0.961 . S
H3312 C3296 0.931 . S
H3313 C3301 0.930 . S
H3314 C3302 0.956 . S
H3315 C3302 0.961 . S
H3316 C3302 0.961 . S
H3317 C3303 0.958 . S
H3318 C3303 0.961 . S
H3319 C3303 0.960 . S
C3320 C3321 1.391 . S
C3320 C3322 1.394 . S
C3320 H3336 0.931 . S
C3321 C3320 1.391 . S
C3321 C3325 1.376 . S
C3322 C3320 1.394 . S
C3322 C3323 1.369 . S
C3322 C3326 1.531 . S
C3323 C3322 1.369 . S
C3323 C3324 1.410 . S
C3323 C3331 1.503 . S
C3324 C3323 1.410 . S
C3324 C3325 1.392 . S
C3324 C3327 1.511 . S
C3325 C3321 1.376 . S
C3325 C3324 1.392 . S
C3325 H3337 0.929 . S
C3326 C3322 1.531 . S
C3326 H3338 0.960 . S
C3326 H3339 0.962 . S
C3326 H3340 0.960 . S
C3327 C3324 1.511 . S
C3327 H3341 0.961 . S
C3327 H3342 0.961 . S
C3327 H3343 0.961 . S
C3328 C3329 1.370 . S
C3328 C3330 1.363 . S
C3328 H3344 0.931 . S
C3329 C3328 1.370 . S
C3329 C3333 1.408 . S
C3330 C3328 1.363 . S
C3330 C3331 1.370 . S
C3330 C3334 1.524 . S
C3331 C3323 1.503 . S
C3331 C3330 1.370 . S
C3331 C3332 1.403 . S
C3332 C3331 1.403 . S
C3332 C3333 1.404 . S
C3332 C3335 1.539 . S
C3333 C3329 1.408 . S
C3333 C3332 1.404 . S
C3333 H3345 0.930 . S
C3334 C3330 1.524 . S
C3334 H3346 0.956 . S
C3334 H3347 0.961 . S
C3334 H3348 0.961 . S
C3335 C3332 1.539 . S
C3335 H3349 0.958 . S
C3335 H3350 0.961 . S
C3335 H3351 0.960 . S
H3336 C3320 0.931 . S
H3337 C3325 0.929 . S
H3338 C3326 0.960 . S
H3339 C3326 0.962 . S
H3340 C3326 0.960 . S
H3341 C3327 0.961 . S
H3342 C3327 0.961 . S
H3343 C3327 0.961 . S
H3344 C3328 0.931 . S
H3345 C3333 0.930 . S
H3346 C3334 0.956 . S
H3347 C3334 0.961 . S
H3348 C3334 0.961 . S
H3349 C3335 0.958 . S
H3350 C3335 0.961 . S
H3351 C3335 0.960 . S
C3352 C3353 1.391 . S
C3352 C3354 1.406 1_545 S
C3352 H3368 0.931 1_545 S
C3353 C3352 1.391 . S
C3353 C3357 1.376 . S
C3354 C3352 1.406 1_565 S
C3354 C3355 1.356 1_565 S
C3354 C3358 1.533 . S
C3355 C3354 1.356 1_545 S
C3355 C3356 1.410 . S
C3355 C3363 1.503 . S
C3356 C3355 1.410 . S
C3356 C3357 1.392 . S
C3356 C3359 1.511 . S
C3357 C3353 1.376 . S
C3357 C3356 1.392 . S
C3357 H3369 0.929 . S
C3358 C3354 1.533 . S
C3358 H3370 0.960 . S
C3358 H3371 0.962 . S
C3358 H3372 0.960 . S
C3359 C3356 1.511 . S
C3359 H3373 0.961 . S
C3359 H3374 0.961 . S
C3359 H3375 0.961 . S
C3360 C3361 1.370 . S
C3360 C3362 1.363 . S
C3360 H3376 0.931 . S
C3361 C3360 1.370 . S
C3361 C3365 1.408 1_545 S
C3362 C3360 1.363 . S
C3362 C3363 1.370 . S
C3362 C3366 1.524 . S
C3363 C3355 1.503 . S
C3363 C3362 1.370 . S
C3363 C3364 1.403 1_545 S
C3364 C3363 1.403 1_565 S
C3364 C3365 1.404 . S
C3364 C3367 1.539 . S
C3365 C3361 1.408 1_565 S
C3365 C3364 1.404 . S
C3365 H3377 0.930 . S
C3366 C3362 1.524 . S
C3366 H3378 0.956 . S
C3366 H3379 0.961 . S
C3366 H3380 0.961 . S
C3367 C3364 1.539 . S
C3367 H3381 0.958 . S
C3367 H3382 0.961 . S
C3367 H3383 0.960 . S
H3368 C3352 0.931 1_565 S
H3369 C3357 0.929 . S
H3370 C3358 0.960 . S
H3371 C3358 0.962 . S
H3372 C3358 0.960 . S
H3373 C3359 0.961 . S
H3374 C3359 0.961 . S
H3375 C3359 0.961 . S
H3376 C3360 0.931 . S
H3377 C3365 0.930 . S
H3378 C3366 0.956 . S
H3379 C3366 0.961 . S
H3380 C3366 0.961 . S
H3381 C3367 0.958 . S
H3382 C3367 0.961 . S
H3383 C3367 0.960 . S
C1081 C13 1.436 . S
C1089 C688 1.476 . S
C1113 C27 1.304 . S
C1121 C734 1.419 . S
C1153 C766 1.452 . S
C1145 C36 1.358 . S
C1177 C41 1.382 . S
C1185 C819 1.446 . S
C1209 C8 1.424 . S
C1217 C865 1.555 . S
C1241 C22 1.437 . S
C1249 C904 1.505 . S
C1273 C55 1.403 . S
C1281 C858 1.470 . S
C1313 C911 1.419 . S
C1305 C69 1.299 . S
C1345 C812 1.466 . S
C1337 C78 1.331 . S
C1369 C83 1.357 . S
C1377 C773 1.456 . S
C1409 C667 1.563 . S
C1401 C50 1.435 . S
C1433 C64 1.415 . S
C1441 C713 1.492 . S
C1465 C97 1.575 . S
C1473 C943 1.648 . S
C1497 C111 1.401 . S
C1505 C1010 1.472 . S
C1537 C1056 1.559 . S
C1529 C120 1.487 . S
C1561 C125 1.414 . S
C1569 C267 1.542 . S
C1593 C92 1.669 . S
C1601 C313 1.717 . S
C1625 C106 1.496 . S
C1633 C359 1.552 . S
C1657 C139 1.441 . S
C1665 C306 1.562 . S
C1689 C153 1.366 . S
C1697 C352 1.454 . S
C1729 C260 1.579 . S
C1721 C162 1.528 . S
C1761 C1035 1.618 . S
C1753 C167 1.536 . S
C1793 C964 1.704 . S
C1785 C134 1.628 . S
C1825 C989 1.564 . S
C1817 C148 1.496 . S
C1849 C181 1.475 . S
C1857 C391 1.574 . S
C1881 C195 1.414 . S
C1889 C444 1.453 . S
C1913 C204 1.491 . S
C1921 C490 1.585 . S
C1945 C209 1.479 . S
C1953 C536 1.619 . S
C1985 C589 1.714 . S
C1977 C176 1.659 . S
C2017 C635 1.570 . S
C2009 C190 1.503 . S
C2049 C582 1.642 . S
C2041 C223 1.532 . S
C2081 C628 1.486 . S
C2073 C237 1.447 . S
C2105 C246 1.497 . S
C2113 C543 1.563 . S
C2145 C497 1.533 . S
C2137 C251 1.481 . S
C2169 C218 1.685 . S
C2177 C412 1.724 . S
C2209 C451 1.563 . S
C2201 C232 1.515 . S
C2241 C274 1.524 . S
C2233 C11 1.471 . S
C2265 C25 1.398 . S
C2273 C320 1.373 . S
C2305 C366 1.494 . S
C2297 C35 1.502 . S
C2337 C398 1.515 . S
C2329 C39 1.475 . S
C2369 C437 1.578 . S
C2361 C7 1.623 . S
C2401 C483 1.417 . S
C2393 C21 1.456 . S
C2425 C53 1.476 . S
C2433 C504 1.525 . S
C2457 C67 1.340 . S
C2465 C405 1.363 . S
C2489 C77 1.483 1_556 S
C2497 C458 1.451 . S
C2521 C81 1.547 . S
C2529 C299 1.544 . S
C2561 C345 1.589 . S
C2553 C49 1.594 . S
C2585 C63 1.454 . S
C2593 C253 1.428 . S
C2625 C529 1.456 . S
C2617 C95 1.428 . S
C2649 C109 1.439 . S
C2657 C596 1.470 . S
C2681 C119 1.551 . S
C2689 C642 1.536 . S
C2721 C681 1.271 . S
C2713 C123 1.248 . S
C2745 C91 1.530 . S
C2753 C727 1.524 . S
C2777 C105 1.260 . S
C2785 C759 1.259 . S
C2809 C137 1.303 . S
C2817 C780 1.287 . S
C2841 C151 1.161 . S
C2849 C674 1.175 . S
C2881 C720 1.431 . S
C2873 C161 1.442 . S
C2905 C165 1.488 . S
C2913 C575 1.484 . S
C2937 C133 1.621 . S
C2945 C621 1.612 . S
C2977 C550 1.525 . S
C2969 C147 1.550 . S
C3009 C826 1.317 . S
C3001 C179 1.292 . S
C3033 C193 1.144 . S
C3041 C872 1.163 . S
C3065 C203 1.438 . S
C3073 C897 1.427 . S
C3105 C950 1.464 . S
C3097 C207 1.468 . S
C3137 C1003 1.613 . S
C3129 C175 1.623 . S
C3161 C189 1.553 . S
C3169 C1049 1.542 . S
C3193 C221 1.478 . S
C3201 C1042 1.472 . S
C3225 C235 1.477 . S
C3233 C957 1.440 . S
C3265 C996 1.519 . S
C3257 C245 1.530 . S
C3297 C851 1.250 . S
C3289 C249 1.255 . S
C3329 C918 1.524 . S
C3321 C217 1.538 . S
C3353 C231 1.273 . S
C3361 C805 1.271 . S
