# Generated by pormake.
# Topology zzz, (3,6)-cn, num edge types: 1
# Building blocks:
#     Node 0, Type 0, BuildingBlock: BELTOD_clean_linker_0, # of connection points: 3
#     Node 1, Type 0, BuildingBlock: BELTOD_clean_linker_0, # of connection points: 3
#     Node 2, Type 0, BuildingBlock: BELTOD_clean_linker_0, # of connection points: 3
#     Node 3, Type 0, BuildingBlock: BELTOD_clean_linker_0, # of connection points: 3
#     Node 4, Type 0, BuildingBlock: BELTOD_clean_linker_0, # of connection points: 3
#     Node 5, Type 0, BuildingBlock: BELTOD_clean_linker_0, # of connection points: 3
#     Node 6, Type 0, BuildingBlock: BELTOD_clean_linker_0, # of connection points: 3
#     Node 7, Type 0, BuildingBlock: BELTOD_clean_linker_0, # of connection points: 3
#     Node 8, Type 1, BuildingBlock: KUMBUR_clean_sbu_0, # of connection points: 6
#     Node 9, Type 1, BuildingBlock: KUMBUR_clean_sbu_0, # of connection points: 6
#     Node 10, Type 1, BuildingBlock: KUMBUR_clean_sbu_0, # of connection points: 6
#     Node 11, Type 1, BuildingBlock: KUMBUR_clean_sbu_0, # of connection points: 6
#     Edge 12, Type (0, 1), BuildingBlock: CIFDUS_clean_linker_0, # of connection points: 2
#     Edge 13, Type (0, 1), BuildingBlock: CIFDUS_clean_linker_0, # of connection points: 2
#     Edge 14, Type (0, 1), BuildingBlock: CIFDUS_clean_linker_0, # of connection points: 2
#     Edge 15, Type (0, 1), BuildingBlock: CIFDUS_clean_linker_0, # of connection points: 2
#     Edge 16, Type (0, 1), BuildingBlock: CIFDUS_clean_linker_0, # of connection points: 2
#     Edge 17, Type (0, 1), BuildingBlock: CIFDUS_clean_linker_0, # of connection points: 2
#     Edge 18, Type (0, 1), BuildingBlock: CIFDUS_clean_linker_0, # of connection points: 2
#     Edge 19, Type (0, 1), BuildingBlock: CIFDUS_clean_linker_0, # of connection points: 2
#     Edge 20, Type (0, 1), BuildingBlock: CIFDUS_clean_linker_0, # of connection points: 2
#     Edge 21, Type (0, 1), BuildingBlock: CIFDUS_clean_linker_0, # of connection points: 2
#     Edge 22, Type (0, 1), BuildingBlock: CIFDUS_clean_linker_0, # of connection points: 2
#     Edge 23, Type (0, 1), BuildingBlock: CIFDUS_clean_linker_0, # of connection points: 2
#     Edge 24, Type (0, 1), BuildingBlock: CIFDUS_clean_linker_0, # of connection points: 2
#     Edge 25, Type (0, 1), BuildingBlock: CIFDUS_clean_linker_0, # of connection points: 2
#     Edge 26, Type (0, 1), BuildingBlock: CIFDUS_clean_linker_0, # of connection points: 2
#     Edge 27, Type (0, 1), BuildingBlock: CIFDUS_clean_linker_0, # of connection points: 2
#     Edge 28, Type (0, 1), BuildingBlock: CIFDUS_clean_linker_0, # of connection points: 2
#     Edge 29, Type (0, 1), BuildingBlock: CIFDUS_clean_linker_0, # of connection points: 2
#     Edge 30, Type (0, 1), BuildingBlock: CIFDUS_clean_linker_0, # of connection points: 2
#     Edge 31, Type (0, 1), BuildingBlock: CIFDUS_clean_linker_0, # of connection points: 2
#     Edge 32, Type (0, 1), BuildingBlock: CIFDUS_clean_linker_0, # of connection points: 2
#     Edge 33, Type (0, 1), BuildingBlock: CIFDUS_clean_linker_0, # of connection points: 2
#     Edge 34, Type (0, 1), BuildingBlock: CIFDUS_clean_linker_0, # of connection points: 2
#     Edge 35, Type (0, 1), BuildingBlock: CIFDUS_clean_linker_0, # of connection points: 2
# Relax obj value: 0.305
# Max RMSD: 0.209
# Mean RMSD: 0.204
data_MOF--net-zzz--node1-KUMBUR_clean_sbu_0--node2-BELTOD_clean_linker_0--edge1-CIFDUS_clean_linker_0
_symmetry_space_group_name_H-M    P1
_symmetry_Int_Tables_number       1
_symmetry_cell_setting            triclinic
loop_
_symmetry_equiv_pos_as_xyz
'x, y, z'
_cell_length_a     47.537825
_cell_length_b     47.4375
_cell_length_c     16.39679
_cell_angle_alpha  90.724724
_cell_angle_beta   90.133857
_cell_angle_gamma 89.938609
loop_
_atom_site_label
_atom_site_type_symbol
_atom_site_fract_x
_atom_site_fract_y
_atom_site_fract_z
_atom_type_partial_charge
P0 P 0.75083 0.53047 0.17892 0.0
H1 H 0.78787 0.48632 0.24213 0.0
H2 H 0.82382 0.48702 0.3466 0.0
H3 H 0.79173 0.56651 0.43786 0.0
H4 H 0.75549 0.56586 0.33055 0.0
H5 H 0.70853 0.48675 0.15043 0.0
H6 H 0.66278 0.48881 0.08548 0.0
H7 H 0.66222 0.57947 0.11622 0.0
H8 H 0.70911 0.57714 0.17782 0.0
H9 H 0.7978 0.56985 0.21479 0.0
H10 H 0.73813 0.55476 0.02025 0.0
O11 O 0.76039 0.50261 0.12218 0.0
H12 H 0.82573 0.59799 0.12659 0.0
H13 H 0.76656 0.58359 0.92983 0.0
C14 C 0.76873 0.52616 0.27714 0.0
C15 C 0.78771 0.5036 0.2858 0.0
C16 C 0.80859 0.504 0.34638 0.0
C17 C 0.81133 0.52705 0.40065 0.0
C18 C 0.79077 0.54859 0.39645 0.0
C19 C 0.76958 0.54802 0.33586 0.0
C20 C 0.71266 0.53178 0.16864 0.0
C21 C 0.69829 0.50707 0.14572 0.0
C22 C 0.67181 0.50833 0.10799 0.0
C23 C 0.65854 0.53441 0.09321 0.0
C24 C 0.67186 0.559 0.12382 0.0
C25 C 0.69859 0.55768 0.16096 0.0
C26 C 0.76568 0.55983 0.12473 0.0
C27 C 0.78973 0.57361 0.1544 0.0
C28 C 0.80587 0.59019 0.10306 0.0
C29 C 0.79881 0.59271 0.02 0.0
C30 C 0.77284 0.58179 0.9931 0.0
C31 C 0.75655 0.56525 0.04492 0.0
P32 P 0.99887 0.75676 0.18638 0.0
H33 H 0.02791 0.75664 0.34563 0.0
H34 H 0.03569 0.79449 0.44728 0.0
H35 H 0.97352 0.84566 0.32805 0.0
H36 H 0.96747 0.80957 0.22464 0.0
H37 H 0.04516 0.71592 0.19344 0.0
H38 H 0.04896 0.66867 0.13584 0.0
H39 H 0.95856 0.66482 0.11052 0.0
H40 H 0.95503 0.71266 0.16711 0.0
H41 H 1.00332 0.75755 1.01088 0.0
H42 H 0.93778 0.77139 0.18795 0.0
O43 O 0.02989 0.76671 0.14888 0.0
H44 H 0.9739 0.77721 0.90547 0.0
H45 H 0.90836 0.7933 0.0824 0.0
C46 C 0.99589 0.77896 0.27844 0.0
C47 C 0.01498 0.77542 0.34326 0.0
C48 C 0.01961 0.79724 0.40115 0.0
C49 C 1.00484 0.823 0.39666 0.0
C50 C 0.98466 0.82588 0.33486 0.0
C51 C 0.9808 0.80459 0.27569 0.0
C52 C 0.99985 0.71831 0.1845 0.0
C53 C 0.02599 0.70466 0.1785 0.0
C54 C 0.02812 0.67741 0.14465 0.0
C55 C 1.0041 0.66277 0.11627 0.0
C56 C 0.97765 0.67552 0.12933 0.0
C57 C 0.97556 0.70285 0.16342 0.0
C58 C 0.97363 0.76546 0.1083 0.0
C59 C 0.9824 0.76472 0.02699 0.0
C60 C 0.96517 0.77543 0.96616 0.0
C61 C 0.93897 0.7875 0.98593 0.0
C62 C 0.92859 0.78447 0.06564 0.0
C63 C 0.94565 0.77268 0.12621 0.0
P64 P 0.76737 0.99739 0.23 0.0
H65 H 0.75899 0.04491 0.34223 0.0
H66 H 0.72086 0.05481 0.43736 0.0
H67 H 0.69616 0.96731 0.42706 0.0
H68 H 0.73546 0.95728 0.3344 0.0
H69 H 0.81145 0.04012 0.21736 0.0
H70 H 0.8578 0.03745 0.15559 0.0
H71 H 0.85409 0.9465 0.16235 0.0
H72 H 0.80815 0.94955 0.22898 0.0
H73 H 0.7089 0.98033 0.21286 0.0
H74 H 0.7871 0.96164 0.09035 0.0
O75 O 0.75968 0.02768 0.18411 0.0
H76 H 0.6835 0.95844 0.10395 0.0
H77 H 0.76168 0.93819 0.9818 0.0
C78 C 0.74968 1.00053 0.32849 0.0
C79 C 0.74619 0.02753 0.36285 0.0
C80 C 0.72394 0.03327 0.41656 0.0
C81 C 0.70446 0.01215 0.43728 0.0
C82 C 0.71036 0.98427 0.41177 0.0
C83 C 0.73301 0.97847 0.35866 0.0
C84 C 0.80561 0.995 0.2248 0.0
C85 C 0.82092 0.01955 0.20834 0.0
C86 C 0.84742 0.01796 0.17136 0.0
C87 C 0.85928 0.99172 0.14929 0.0
C88 C 0.84563 0.96716 0.17666 0.0
C89 C 0.81925 0.96886 0.21547 0.0
C90 C 0.75031 0.97176 0.16366 0.0
C91 C 0.72095 0.96968 0.16588 0.0
C92 C 0.7062 0.95693 0.10201 0.0
C93 C 0.72036 0.94658 0.03227 0.0
C94 C 0.74993 0.94617 0.03368 0.0
C95 C 0.7647 0.95932 0.09746 0.0
P96 P 0.52396 0.7799 0.24706 0.0
H97 H 0.48202 0.76573 0.37104 0.0
H98 H 0.48271 0.72955 0.47461 0.0
H99 H 0.57278 0.72208 0.44833 0.0
H100 H 0.57198 0.7592 0.34583 0.0
H101 H 0.49315 0.83321 0.24003 0.0
H102 H 0.50279 0.87611 0.16564 0.0
H103 H 0.58884 0.84926 0.13102 0.0
H104 H 0.5788 0.80591 0.2055 0.0
H105 H 0.53562 0.71949 0.25449 0.0
H106 H 0.54493 0.78553 0.07781 0.0
O107 O 0.48992 0.77854 0.22195 0.0
H108 H 0.5519 0.68547 0.15705 0.0
H109 H 0.5615 0.75073 0.97758 0.0
C110 C 0.52691 0.76508 0.34899 0.0
C111 C 0.50216 0.7572 0.38942 0.0
C112 C 0.5025 0.73596 0.4481 0.0
C113 C 0.52763 0.72183 0.46801 0.0
C114 C 0.55292 0.73214 0.43456 0.0
C115 C 0.55257 0.75374 0.37623 0.0
C116 C 0.53504 0.81588 0.22709 0.0
C117 C 0.5144 0.83687 0.21909 0.0
C118 C 0.51998 0.86159 0.17607 0.0
C119 C 0.54645 0.86603 0.14008 0.0
C120 C 0.56799 0.84632 0.15598 0.0
C121 C 0.5624 0.82163 0.19977 0.0
C122 C 0.54059 0.75566 0.17613 0.0
C123 C 0.54268 0.72715 0.19627 0.0
C124 C 0.55214 0.70741 0.13951 0.0
C125 C 0.55893 0.71535 0.05955 0.0
C126 C 0.55706 0.74399 0.03907 0.0
C127 C 0.54771 0.76394 0.09674 0.0
P128 P 0.29771 0.45453 0.05075 0.0
H129 H 0.28333 0.44591 0.87849 0.0
H130 H 0.24283 0.46021 0.79978 0.0
H131 H 0.22043 0.52034 0.98911 0.0
H132 H 0.26079 0.50466 0.06983 0.0
H133 H 0.34991 0.42859 0.10309 0.0
H134 H 0.38954 0.44451 0.18505 0.0
H135 H 0.35388 0.5283 0.19535 0.0
H136 H 0.31437 0.51215 0.10977 0.0
H137 H 0.25349 0.41223 0.05568 0.0
H138 H 0.28668 0.47725 0.21481 0.0
O139 O 0.30755 0.42484 1.00299 0.0
H140 H 0.2119 0.40857 0.14224 0.0
H141 H 0.24531 0.47442 0.29938 0.0
C142 C 0.27559 0.47424 0.98043 0.0
C143 C 0.27036 0.46284 0.90243 0.0
C144 C 0.24681 0.47113 0.85696 0.0
C145 C 0.22765 0.49137 0.8876 0.0
C146 C 0.23409 0.50426 0.96355 0.0
C147 C 0.25768 0.49574 1.00937 0.0
C148 C 0.32923 0.46923 0.09843 0.0
C149 C 0.35082 0.45061 0.12102 0.0
C150 C 0.37342 0.45968 0.16949 0.0
C151 C 0.37501 0.48769 0.19838 0.0
C152 C 0.35367 0.50662 0.17393 0.0
C153 C 0.331 0.49747 0.12463 0.0
C154 C 0.27331 0.44486 0.12899 0.0
C155 C 0.25237 0.42493 0.11094 0.0
C156 C 0.22847 0.42306 0.16002 0.0
C157 C 0.22503 0.44142 0.22728 0.0
C158 C 0.24728 0.45963 0.24887 0.0
C159 C 0.27112 0.46139 0.2 0.0
P160 P 0.06658 0.28721 0.06088 0.0
H161 H 0.05838 0.2686 0.89073 0.0
H162 H 0.03999 0.22492 0.83162 0.0
H163 H 0.00888 0.20105 0.06802 0.0
H164 H 0.02724 0.2451 0.12678 0.0
H165 H 0.09264 0.33877 0.11849 0.0
H166 H 0.07791 0.37731 0.20858 0.0
H167 H 0.99555 0.33978 0.2277 0.0
H168 H 0.0107 0.30076 0.13702 0.0
H169 H 0.10625 0.24173 0.02814 0.0
H170 H 0.07414 0.28633 0.23934 0.0
O171 O 0.08716 0.30054 0.98866 0.0
H172 H 0.12482 0.20489 0.1167 0.0
H173 H 0.09276 0.25025 0.32694 0.0
C174 C 0.04385 0.26068 1.01338 0.0
C175 C 0.0468 0.25451 0.92971 0.0
C176 C 0.03668 0.2291 0.89597 0.0
C177 C 0.02327 0.20899 0.94491 0.0
C178 C 0.01891 0.21594 0.02794 0.0
C179 C 0.02915 0.2414 0.06172 0.0
C180 C 0.05265 0.31706 0.11925 0.0
C181 C 0.07123 0.33893 0.14099 0.0
C182 C 0.0629 0.36087 0.19363 0.0
C183 C 0.03558 0.36172 0.22614 0.0
C184 C 0.01672 0.33993 0.20348 0.0
C185 C 0.02528 0.31764 0.15129 0.0
C186 C 0.08863 0.2667 0.12687 0.0
C187 C 0.10429 0.24427 0.09363 0.0
C188 C 0.11493 0.22326 0.14419 0.0
C189 C 0.11015 0.22457 0.22871 0.0
C190 C 0.09719 0.24872 0.26225 0.0
C191 C 0.08624 0.26944 0.21172 0.0
P192 P 0.24548 0.08516 0.08454 0.0
H193 H 0.26209 0.08506 0.91102 0.0
H194 H 0.30147 0.06329 0.83885 0.0
H195 H 0.32188 0.01623 0.05548 0.0
H196 H 0.28149 0.03669 0.12436 0.0
H197 H 0.18949 0.10907 0.10809 0.0
H198 H 0.14922 0.09449 0.18957 0.0
H199 H 0.18946 0.01457 0.23349 0.0
H200 H 0.23028 0.02957 0.15309 0.0
H201 H 0.30566 0.0956 0.1115 0.0
H202 H 0.2294 0.10287 0.2522 0.0
O203 O 0.23769 0.11367 0.03028 0.0
H204 H 0.33313 0.0967 0.23499 0.0
H205 H 0.25689 0.10672 0.37676 0.0
C206 C 0.26855 0.06253 0.02344 0.0
C207 C 0.27447 0.0693 0.94207 0.0
C208 C 0.29755 0.05715 0.90112 0.0
C209 C 0.3157 0.03815 0.94087 0.0
C210 C 0.30858 0.0303 0.02117 0.0
C211 C 0.28517 0.04201 0.06124 0.0
C212 C 0.21285 0.07022 0.1225 0.0
C213 C 0.18943 0.08804 0.13295 0.0
C214 C 0.1665 0.07986 0.18068 0.0
C215 C 0.16619 0.05347 0.21853 0.0
C216 C 0.189 0.035 0.20479 0.0
C217 C 0.21228 0.04346 0.15814 0.0
C218 C 0.26539 0.09674 0.17281 0.0
C219 C 0.29477 0.09801 0.16907 0.0
C220 C 0.31061 0.09929 0.24067 0.0
C221 C 0.29732 0.10049 0.31752 0.0
C222 C 0.26792 0.10421 0.31945 0.0
C223 C 0.25207 0.10207 0.24772 0.0
P224 P 0.43919 0.24089 0.05646 0.0
H225 H 0.41726 0.2634 0.90534 0.0
H226 H 0.43252 0.30042 0.81781 0.0
H227 H 0.51324 0.30204 0.9406 0.0
H228 H 0.49622 0.26639 0.03429 0.0
H229 H 0.41501 0.18884 0.11656 0.0
H230 H 0.43236 0.15237 0.20643 0.0
H231 H 0.51549 0.1886 0.19644 0.0
H232 H 0.49801 0.22512 0.10505 0.0
H233 H 0.39479 0.2828 0.07977 0.0
H234 H 0.47149 0.25838 0.20088 0.0
O235 O 0.40778 0.23052 0.02157 0.0
H236 H 0.39253 0.32543 0.16502 0.0
H237 H 0.46979 0.30063 0.28408 0.0
C238 C 0.45577 0.26095 0.97554 0.0
C239 C 0.4386 0.27095 0.91245 0.0
C240 C 0.4476 0.29252 0.86133 0.0
C241 C 0.4745 0.30478 0.87003 0.0
C242 C 0.49225 0.29382 0.93145 0.0
C243 C 0.4828 0.2726 0.98435 0.0
C244 C 0.45512 0.20996 0.10284 0.0
C245 C 0.43724 0.18858 0.13104 0.0
C246 C 0.44719 0.16755 0.18293 0.0
C247 C 0.4753 0.16755 0.2095 0.0
C248 C 0.49362 0.18809 0.17788 0.0
C249 C 0.48366 0.20897 0.12482 0.0
C250 C 0.43311 0.26713 0.13453 0.0
C251 C 0.41059 0.28604 0.12664 0.0
C252 C 0.4094 0.3105 0.17508 0.0
C253 C 0.43097 0.31658 0.23145 0.0
C254 C 0.45243 0.29651 0.24276 0.0
C255 C 0.45356 0.27217 0.19446 0.0
Tb256 Tb 0.04049 0.01063 0.74421 0.0
C257 C 0.93078 0.9827 0.55696 0.0
C258 C 0.94498 0.94903 0.45351 0.0
C259 C 0.89729 0.94792 0.50616 0.0
C260 C 0.95119 0.97178 0.50694 0.0
C261 C 0.90329 0.9715 0.5558 0.0
C262 C 0.91814 0.93668 0.45496 0.0
C263 C 0.88905 0.0099 0.6443 0.0
N264 N 0.93738 1.00573 0.60242 0.0
C265 C 0.91654 0.02034 0.6422 0.0
C266 C 0.88248 0.98505 0.602 0.0
Tb267 Tb 0.9834 0.02074 0.60173 0.0
N268 N 0.97676 0.98444 0.5077 0.0
C269 C 0.99642 0.97646 0.45075 0.0
C270 C 0.96567 0.93985 0.39897 0.0
C271 C 0.99135 0.95391 0.39685 0.0
H272 H 0.92125 0.03992 0.67328 0.0
H273 H 1.00738 0.94735 0.35383 0.0
H274 H 0.91309 0.91898 0.41519 0.0
H275 H 0.87291 0.02118 0.67789 0.0
H276 H 0.01653 0.98663 0.44682 0.0
H277 H 0.01982 0.07883 1.00694 0.0
H278 H 0.96182 0.92239 0.35721 0.0
H279 H 0.09998 0.99828 0.64426 0.0
H280 H 0.00976 0.04063 0.91139 0.0
H281 H 0.14716 0.01953 0.63348 0.0
H282 H 0.8764 0.93879 0.505 0.0
H283 H 0.06426 0.10548 0.99774 0.0
H284 H 0.11114 0.11174 0.9307 0.0
H285 H 0.86111 0.97713 0.60287 0.0
H286 H 0.14586 0.09566 0.82914 0.0
N287 N 0.04789 0.04512 0.84291 0.0
C288 C 0.02933 0.05161 0.90433 0.0
C289 C 0.06002 0.0885 0.9546 0.0
C290 C 0.07962 0.08095 0.89489 0.0
C291 C 0.03495 0.0735 0.95997 0.0
C292 C 0.07296 0.05879 0.83986 0.0
H293 H 0.15957 0.06115 0.71857 0.0
N294 N 0.08546 0.02797 0.73344 0.0
C295 C 0.13195 0.02835 0.67568 0.0
C296 C 0.09241 0.0499 0.78305 0.0
C297 C 0.10525 0.01629 0.68233 0.0
C298 C 0.13884 0.05188 0.72361 0.0
C299 C 0.11915 0.06268 0.77908 0.0
O300 O 0.06969 0.97907 0.77238 0.0
O301 O 0.01032 0.99072 0.66188 0.0
O302 O 0.96464 1.00178 0.71054 0.0
O303 O 0.99964 0.00932 0.80938 0.0
O304 O 0.0507 0.9766 0.65659 0.0
O305 O 0.03425 0.98727 0.851 0.0
O306 O 0.95901 0.0555 0.56658 0.0
O307 O 0.01238 0.03956 0.68761 0.0
O308 O 0.05518 0.03708 0.64419 0.0
O309 O 0.02527 0.02148 0.54156 0.0
O310 O 0.97336 0.0566 0.68465 0.0
O311 O 0.99228 0.04001 0.48971 0.0
C312 C 0.02579 0.97206 0.62939 0.0
C313 C 0.04521 0.93955 0.81737 0.0
C314 C 0.00847 0.90356 0.81107 0.0
C315 C 0.01727 0.93111 0.8304 0.0
C316 C 0.02794 0.88473 0.77533 0.0
C317 C 0.06435 0.92017 0.78321 0.0
C318 C 0.05561 0.89307 0.76142 0.0
C319 C 0.97332 1.00337 0.78757 0.0
C320 C 0.05377 0.96923 0.82969 0.0
C321 C 0.12554 0.08539 0.83164 0.0
C322 C 0.10578 0.09453 0.88946 0.0
C323 C 0.99764 0.05904 0.71846 0.0
C324 C 0.98932 0.08934 0.51019 0.0
C325 C 0.01363 0.09464 0.46417 0.0
C326 C 0.02813 0.12031 0.47293 0.0
C327 C 0.01818 0.14056 0.52944 0.0
C328 C 0.97946 0.11023 0.56479 0.0
C329 C 0.99403 0.13549 0.57487 0.0
C330 C 0.04924 0.0331 0.56614 0.0
C331 C 0.97586 0.06126 0.50678 0.0
H332 H 1.0023 0.94599 0.85535 0.0
H333 H 0.02222 0.86314 0.76107 0.0
H334 H 0.08592 0.92622 0.77145 0.0
H335 H 0.07044 0.87835 0.7345 0.0
H336 H 0.02141 0.07868 0.42202 0.0
H337 H 0.02841 0.16082 0.53658 0.0
H338 H 0.96081 0.10689 0.60119 0.0
H339 H 0.98645 0.15129 0.61769 0.0
Tb340 Tb 0.51257 0.0546 0.75439 0.0
C341 C 0.5501 0.93828 0.6249 0.0
C342 C 0.58289 0.9472 0.5158 0.0
C343 C 0.58704 0.90428 0.59422 0.0
C344 C 0.55967 0.95553 0.56403 0.0
C345 C 0.56319 0.91211 0.63952 0.0
C346 C 0.59689 0.92182 0.53246 0.0
C347 C 0.52661 0.90218 0.73691 0.0
N348 N 0.52704 0.94654 0.66722 0.0
C349 C 0.51442 0.92833 0.72025 0.0
C350 C 0.5514 0.89423 0.69738 0.0
Tb351 Tb 0.50835 0.9898 0.6359 0.0
N352 N 0.5456 0.97994 0.55006 0.0
C353 C 0.55269 0.99593 0.48409 0.0
C354 C 0.59101 0.96432 0.45131 0.0
C355 C 0.5756 0.98858 0.43479 0.0
H356 H 0.49542 0.93449 0.75193 0.0
H357 H 0.58143 1.00178 0.3842 0.0
H358 H 0.61495 0.91526 0.49669 0.0
H359 H 0.517 0.8883 0.78067 0.0
H360 H 0.54149 0.01488 0.46918 0.0
H361 H 0.43729 0.03744 0.99847 0.0
H362 H 0.60879 0.95875 0.41311 0.0
H363 H 0.52795 0.11415 0.66199 0.0
H364 H 0.47763 0.02634 0.91347 0.0
H365 H 0.50585 0.16028 0.63611 0.0
H366 H 0.59758 0.88441 0.60509 0.0
H367 H 0.40954 0.08059 0.97458 0.0
H368 H 0.40331 0.12541 0.89702 0.0
H369 H 0.56084 0.87398 0.71043 0.0
H370 H 0.42149 0.15866 0.7959 0.0
N371 N 0.47412 0.06276 0.83857 0.0
C372 C 0.46666 0.04555 0.90153 0.0
C373 C 0.42766 0.07596 0.93675 0.0
C374 C 0.43597 0.09427 0.87537 0.0
C375 C 0.44333 0.05168 0.95052 0.0
C376 C 0.45969 0.08712 0.82755 0.0
H377 H 0.45989 0.17198 0.69853 0.0
N378 N 0.49372 0.09866 0.73182 0.0
C379 C 0.49519 0.14499 0.67349 0.0
C380 C 0.46968 0.10561 0.77112 0.0
C381 C 0.50752 0.11872 0.68773 0.0
C382 C 0.46927 0.15149 0.70865 0.0
C383 C 0.45657 0.13203 0.76021 0.0
O384 O 0.54274 0.08529 0.78413 0.0
O385 O 0.53488 0.02215 0.68673 0.0
O386 O 0.53236 0.98082 0.74707 0.0
O387 O 0.51541 0.0165 0.83194 0.0
O388 O 0.54938 0.06219 0.67591 0.0
O389 O 0.53129 0.05384 0.87097 0.0
O390 O 0.4784 0.95826 0.61394 0.0
O391 O 0.48546 0.02304 0.69975 0.0
O392 O 0.4957 0.06646 0.63452 0.0
O393 O 0.50471 0.02632 0.55376 0.0
O394 O 0.47242 0.98267 0.71724 0.0
O395 O 0.48995 0.9872 0.51914 0.0
C396 C 0.55401 0.03653 0.65415 0.0
C397 C 0.57906 0.0673 0.8619 0.0
C398 C 0.61802 0.03403 0.85247 0.0
C399 C 0.58911 0.03974 0.84992 0.0
C400 C 0.6369 0.05657 0.86493 0.0
C401 C 0.59812 0.08944 0.87447 0.0
C402 C 0.62695 0.08406 0.87554 0.0
C403 C 0.52715 0.99127 0.82072 0.0
C404 C 0.54908 0.07366 0.85271 0.0
C405 C 0.43205 0.13863 0.80403 0.0
C406 C 0.42176 0.11976 0.8617 0.0
C407 C 0.46673 1.00852 0.73387 0.0
C408 C 0.44261 0.97155 0.52574 0.0
C409 C 0.43024 0.99847 0.52964 0.0
C410 C 0.40113 1.00174 0.51679 0.0
C411 C 0.3846 0.97747 0.50278 0.0
C412 C 0.42574 0.94778 0.51176 0.0
C413 C 0.39685 0.95075 0.50086 0.0
C414 C 0.49799 0.0534 0.56266 0.0
C415 C 0.47268 0.96735 0.54144 0.0
H416 H 0.57453 0.02271 0.83839 0.0
H417 H 0.65934 0.05291 0.86937 0.0
H418 H 0.59069 0.11091 0.88216 0.0
H419 H 0.64163 0.1012 0.88545 0.0
H420 H 0.44324 0.01676 0.54225 0.0
H421 H 0.36229 0.97907 0.49029 0.0
H422 H 0.43494 0.92687 0.5099 0.0
H423 H 0.38393 0.93232 0.48964 0.0
Tb424 Tb 0.54481 0.5123 0.62491 0.0
C425 C 0.42665 0.46576 0.67914 0.0
C426 C 0.39637 0.48543 0.57593 0.0
C427 C 0.38673 0.43875 0.62829 0.0
C428 C 0.42028 0.4873 0.62695 0.0
C429 C 0.40962 0.44148 0.68212 0.0
C430 C 0.38009 0.46073 0.57527 0.0
C431 C 0.4372 0.42595 0.79694 0.0
N432 N 0.44874 0.46938 0.73046 0.0
C433 C 0.45332 0.45051 0.79188 0.0
C434 C 0.41554 0.42116 0.74086 0.0
Tb435 Tb 0.47527 0.50952 0.71431 0.0
N436 N 0.43665 0.51072 0.62932 0.0
C437 C 0.42845 0.53411 0.58748 0.0
C438 C 0.38917 0.50868 0.52873 0.0
C439 C 0.40501 0.5333 0.53571 0.0
H440 H 0.47024 0.45388 0.83511 0.0
H441 H 0.39917 0.55175 0.50135 0.0
H442 H 0.36191 0.45873 0.53559 0.0
H443 H 0.4416 0.41068 0.84379 0.0
H444 H 0.43965 0.55356 0.59328 0.0
H445 H 0.62278 0.46847 0.82985 0.0
H446 H 0.37105 0.5081 0.48851 0.0
H447 H 0.54935 0.56743 0.5032 0.0
H448 H 0.58017 0.46785 0.74704 0.0
H449 H 0.57939 0.60945 0.48826 0.0
H450 H 0.37356 0.42013 0.6289 0.0
H451 H 0.65291 0.51087 0.835 0.0
H452 H 0.66273 0.55969 0.78541 0.0
H453 H 0.40303 0.40216 0.74498 0.0
H454 H 0.65061 0.59848 0.69337 0.0
N455 N 0.58415 0.51047 0.70717 0.0
C456 C 0.59233 0.48693 0.74873 0.0
C457 C 0.63389 0.5109 0.79844 0.0
C458 C 0.62645 0.53432 0.75227 0.0
C459 C 0.61693 0.48697 0.79575 0.0
C460 C 0.60136 0.53329 0.70603 0.0
H461 H 0.61978 0.61706 0.58135 0.0
N462 N 0.57173 0.55193 0.60617 0.0
C463 C 0.5839 0.59436 0.53552 0.0
C464 C 0.59476 0.55492 0.65419 0.0
C465 C 0.56695 0.57051 0.54417 0.0
C466 C 0.60658 0.59864 0.58839 0.0
C467 C 0.61269 0.57845 0.64734 0.0
O468 O 0.56423 0.51103 0.51042 0.0
O469 O 0.50051 0.50389 0.60731 0.0
O470 O 0.48822 0.46707 0.67496 0.0
O471 O 0.5367 0.47132 0.68525 0.0
O472 O 0.52031 0.5221 0.51291 0.0
O473 O 0.5635 0.47418 0.58605 0.0
O474 O 0.45413 0.50988 0.82622 0.0
O475 O 0.51978 0.5177 0.7336 0.0
O476 O 0.53235 0.55515 0.66303 0.0
O477 O 0.48368 0.55081 0.65555 0.0
O478 O 0.49883 0.49871 0.82562 0.0
O479 O 0.45741 0.54776 0.75561 0.0
C480 C 0.49654 0.5123 0.53587 0.0
C481 C 0.55903 0.46806 0.44293 0.0
C482 C 0.52352 0.43893 0.3757 0.0
C483 C 0.53428 0.45196 0.44649 0.0
C484 C 0.53779 0.44232 0.30128 0.0
C485 C 0.573 0.47109 0.36837 0.0
C486 C 0.56236 0.45829 0.29784 0.0
C487 C 0.51335 0.45593 0.68751 0.0
C488 C 0.56908 0.48414 0.51407 0.0
C489 C 0.63673 0.58043 0.697 0.0
C490 C 0.64366 0.55834 0.74924 0.0
C491 C 0.52272 0.50892 0.80551 0.0
C492 C 0.46336 0.55096 0.89903 0.0
C493 C 0.48836 0.56656 0.89355 0.0
C494 C 0.50197 0.57633 0.9643 0.0
C495 C 0.49046 0.57009 0.04099 0.0
C496 C 0.45198 0.5452 0.97589 0.0
C497 C 0.46556 0.55468 0.04655 0.0
C498 C 0.50707 0.56626 0.65169 0.0
C499 C 0.45136 0.5371 0.82649 0.0
H500 H 0.52322 0.44991 0.50381 0.0
H501 H 0.53035 0.43205 0.24595 0.0
H502 H 0.59189 0.48378 0.36454 0.0
H503 H 0.5732 0.46072 0.24037 0.0
H504 H 0.49755 0.57075 0.8345 0.0
H505 H 0.50022 0.57788 0.09661 0.0
H506 H 0.43302 0.53271 0.98121 0.0
H507 H 0.45677 0.55008 0.10577 0.0
Tb508 Tb 0.02091 0.54197 0.61606 0.0
C509 C 0.0479 0.42374 0.7289 0.0
C510 C 0.02855 0.39225 0.62651 0.0
C511 C 0.07043 0.37856 0.70144 0.0
C512 C 0.02811 0.41818 0.66977 0.0
C513 C 0.06892 0.40375 0.74715 0.0
C514 C 0.05024 0.37282 0.64112 0.0
C515 C 0.08337 0.43363 0.85985 0.0
N516 N 0.04543 0.44808 0.77217 0.0
C517 C 0.06197 0.45258 0.83984 0.0
C518 C 0.08715 0.40927 0.81253 0.0
Tb519 Tb 0.01096 0.47914 0.73189 0.0
N520 N 1.00749 0.43751 0.65795 0.0
C521 C 0.9853 0.43091 0.6078 0.0
C522 C 1.00674 0.38628 0.57178 0.0
C523 C 0.98477 0.4055 0.56352 0.0
H524 H 0.05913 0.47131 0.87704 0.0
H525 H 0.96748 0.40091 0.52237 0.0
H526 H 0.05112 0.35296 0.60778 0.0
H527 H 0.09686 0.43779 0.91188 0.0
H528 H 0.96818 0.44525 0.5988 0.0
H529 H 0.06039 0.62175 0.83023 0.0
H530 H 1.00632 0.36668 0.53715 0.0
H531 H 0.97871 0.55063 0.45518 0.0
H532 H 0.0625 0.57758 0.75501 0.0
H533 H 0.94341 0.58505 0.40966 0.0
H534 H 0.08658 0.36306 0.71387 0.0
H535 H 0.02152 0.65524 0.8073 0.0
H536 H 0.97868 0.66835 0.72765 0.0
H537 H 0.10359 0.39448 0.82847 0.0
H538 H 0.94657 0.65833 0.61326 0.0
N539 N 0.02347 0.58357 0.69069 0.0
C540 C 0.04476 0.59099 0.74353 0.0
C541 C 0.022 0.63542 0.77372 0.0
C542 C 1.00155 0.62898 0.71513 0.0
C543 C 0.04395 0.61657 0.78677 0.0
C544 C 1.00304 0.60278 0.67331 0.0
H545 H 0.93376 0.62772 0.49311 0.0
N546 N 0.9883 0.57289 0.5658 0.0
C547 C 0.9547 0.5886 0.46624 0.0
C548 C 0.9848 0.59718 0.60911 0.0
C549 C 0.97473 0.5691 0.49247 0.0
C550 C 0.94924 0.6126 0.51369 0.0
C551 C 0.96484 0.61751 0.58493 0.0
O552 O 0.03498 0.57043 0.52726 0.0
O553 O 0.02293 0.49658 0.61679 0.0
O554 O 0.0562 0.4859 0.71201 0.0
O555 O 0.05727 0.53453 0.69791 0.0
O556 O 0.00851 0.5143 0.51258 0.0
O557 O 0.06036 0.53527 0.56155 0.0
O558 O 1.00403 0.46696 0.85266 0.0
O559 O 1.00668 0.52484 0.73021 0.0
O560 O 0.97503 0.53545 0.62195 0.0
O561 O 0.97173 0.48868 0.66343 0.0
O562 O 0.02113 0.50746 0.83521 0.0
O563 O 0.97033 0.46575 0.76473 0.0
C564 C 0.01449 0.4906 0.54559 0.0
C565 C 0.06051 0.54737 0.42201 0.0
C566 C 0.08227 0.51689 0.31822 0.0
C567 C 0.07582 0.52307 0.40027 0.0
C568 C 0.07132 0.53463 0.25746 0.0
C569 C 0.04992 0.56471 0.3603 0.0
C570 C 0.05497 0.55806 0.27853 0.0
C571 C 0.0695 0.51034 0.71739 0.0
C572 C 0.05669 0.5551 0.50889 0.0
C573 C 0.96206 0.64266 0.63013 0.0
C574 C 0.98038 0.64838 0.69517 0.0
C575 C 0.0138 0.53079 0.80279 0.0
C576 C 0.96104 0.48503 0.89639 0.0
C577 C 0.94216 0.50496 0.86456 0.0
C578 C 0.92992 0.52555 0.91551 0.0
C579 C 0.93723 0.52631 0.99879 0.0
C580 C 0.9676 0.48589 0.97991 0.0
C581 C 0.95591 0.50658 0.03056 0.0
C582 C 0.96038 0.51204 0.63328 0.0
C583 C 0.97698 0.46594 0.84202 0.0
H584 H 0.08325 0.50929 0.44784 0.0
H585 H 0.07618 0.5312 0.19367 0.0
H586 H 0.03799 0.58354 0.37519 0.0
H587 H 0.0469 0.57163 0.23131 0.0
H588 H 0.9371 0.5047 0.80014 0.0
H589 H 0.92772 0.54148 0.04026 0.0
H590 H 0.98241 0.47102 1.0055 0.0
H591 H 0.96122 0.50723 0.09479 0.0
H592 H 0.14566 0.0843 0.34676 0.0
H593 H 0.13433 1.00542 0.21767 0.0
H594 H 0.09597 0.99289 0.31012 0.0
H595 H 0.06614 1.00397 0.43019 0.0
H596 H 0.08067 0.0809 0.56624 0.0
H597 H 0.11695 0.0947 0.46885 0.0
C598 C 0.13467 0.06443 0.33863 0.0
C599 C 0.14277 0.04588 0.27494 0.0
C600 C 0.11311 0.05706 0.39343 0.0
C601 C 0.12859 0.02002 0.26617 0.0
C602 C 0.1066 0.0129 0.31895 0.0
C603 C 0.07709 0.02386 0.43785 0.0
C604 C 0.07049 0.04156 0.5048 0.0
C605 C 0.0987 0.0312 0.38304 0.0
C606 C 0.08532 0.06696 0.51516 0.0
C607 C 0.10608 0.07485 0.45946 0.0
H608 H 0.46372 0.11099 0.22843 0.0
H609 H 0.50684 0.18106 0.34331 0.0
H610 H 0.5181 0.15193 0.4604 0.0
H611 H 0.51476 0.10713 0.53185 0.0
H612 H 0.47312 0.03632 0.41931 0.0
H613 H 0.46272 0.06478 0.29893 0.0
C614 C 0.47568 0.11984 0.27894 0.0
C615 C 0.4844 0.14833 0.27656 0.0
C616 C 0.48219 0.10286 0.34675 0.0
C617 C 0.50017 0.15923 0.34245 0.0
C618 C 0.50644 0.14262 0.40998 0.0
C619 C 0.50262 0.09817 0.4826 0.0
C620 C 0.49323 0.07012 0.4873 0.0
C621 C 0.49723 0.11457 0.41333 0.0
C622 C 0.47979 0.05813 0.41874 0.0
C623 C 0.47391 0.07442 0.34972 0.0
H624 H 0.39981 0.45727 0.32087 0.0
H625 H 0.40338 0.53835 0.20468 0.0
H626 H 0.44115 0.55292 0.29741 0.0
H627 H 0.47337 0.54279 0.41302 0.0
H628 H 0.46988 0.46144 0.52629 0.0
H629 H 0.43267 0.44666 0.43228 0.0
C630 C 0.409 0.47804 0.31473 0.0
C631 C 0.39844 0.49662 0.25515 0.0
C632 C 0.43095 0.48626 0.368 0.0
C633 C 0.41054 0.52364 0.25023 0.0
C634 C 0.43238 0.53196 0.30304 0.0
C635 C 0.46435 0.52187 0.417 0.0
C636 C 0.47375 0.50359 0.47851 0.0
C637 C 0.44273 0.5135 0.36244 0.0
C638 C 0.4624 0.4763 0.48167 0.0
C639 C 0.4412 0.46775 0.42732 0.0
H640 H 0.06521 0.38501 0.3544 0.0
H641 H 0.9866 0.39228 0.22444 0.0
H642 H 0.97339 0.43263 0.31061 0.0
H643 H 0.98453 0.46685 0.42149 0.0
H644 H 0.06215 0.45845 0.55498 0.0
H645 H 0.07559 0.41811 0.46851 0.0
C646 C 0.04519 0.39544 0.34474 0.0
C647 C 0.027 0.38551 0.28234 0.0
C648 C 0.03762 0.41864 0.39512 0.0
C649 C 1.00096 0.39916 0.27203 0.0
C650 C 0.99346 0.42242 0.32107 0.0
C651 C 1.00431 0.45603 0.43174 0.0
C652 C 0.02206 0.46526 0.49568 0.0
C653 C 0.01165 0.43247 0.38252 0.0
C654 C 0.04782 0.45135 0.50755 0.0
C655 C 0.05556 0.42835 0.45776 0.0
H656 H 0.87069 0.02661 0.02225 0.0
H657 H 0.90312 0.95298 0.14278 0.0
H658 H 0.94106 0.9496 0.04227 0.0
H659 H 0.96509 0.96773 0.91813 0.0
H660 H 0.93331 0.04288 0.80591 0.0
H661 H 0.89547 0.04572 0.90543 0.0
C662 C 0.88629 0.01009 0.02823 0.0
C663 C 0.88384 0.99024 0.09131 0.0
C664 C 0.90818 1.00838 0.97064 0.0
C665 C 0.90408 0.96853 0.09512 0.0
C666 C 0.92595 0.96663 0.03761 0.0
C667 C 0.9498 0.98456 0.91534 0.0
C668 C 0.95128 1.00435 0.85191 0.0
C669 C 0.92819 0.98638 0.97465 0.0
C670 C 0.93171 0.0265 0.85084 0.0
C671 C 0.9103 0.0284 0.9088 0.0
H672 H 0.52598 0.92035 0.14546 0.0
H673 H 0.57511 0.86361 0.9951 0.0
H674 H 0.57604 0.89834 0.88666 0.0
H675 H 0.55947 0.94329 0.82926 0.0
H676 H 0.50938 0.99933 0.97869 0.0
H677 H 0.51268 0.96685 0.09189 0.0
C678 C 0.53701 0.91556 0.08918 0.0
C679 C 0.55028 0.8891 0.07901 0.0
C680 C 0.53708 0.93552 0.02597 0.0
C681 C 0.56492 0.88374 1.00576 0.0
C682 C 0.56526 0.90356 0.94303 0.0
C683 C 0.54896 0.94828 0.88619 0.0
C684 C 0.53295 0.97327 0.89329 0.0
C685 C 0.5508 0.92924 0.95158 0.0
C686 C 0.52101 0.97999 0.96958 0.0
C687 C 0.52294 0.96134 0.03492 0.0
H688 H 0.6154 0.49579 0.0791 0.0
H689 H 0.64213 0.5763 0.9869 0.0
H690 H 0.60214 0.57668 0.89354 0.0
H691 H 0.56077 0.55248 0.82984 0.0
H692 H 0.53664 0.4709 0.91818 0.0
H693 H 0.57443 0.47242 0.01882 0.0
C694 C 0.61287 0.51339 0.03825 0.0
C695 C 0.63236 0.53585 0.0408 0.0
C696 C 0.59029 0.51309 0.98218 0.0
C697 C 0.62762 0.55876 0.98828 0.0
C698 C 0.60476 0.55891 0.93375 0.0
C699 C 0.56423 0.53487 0.87016 0.0
C700 C 0.54688 0.51083 0.86323 0.0
C701 C 0.58624 0.5359 0.92874 0.0
C702 C 0.55049 0.48901 0.91947 0.0
C703 C 0.57199 0.48997 0.9777 0.0
H704 H 0.97285 0.64268 0.98482 0.0
H705 H 0.04216 0.62016 0.1421 0.0
H706 H 0.05102 0.57825 0.059 0.0
H707 H 0.04071 0.54867 0.93852 0.0
H708 H 0.96994 0.56844 0.78533 0.0
H709 H 0.9597 0.61022 0.87053 0.0
C710 C 0.98961 0.62844 1.00204 0.0
C711 C 1.00709 0.63525 0.06968 0.0
C712 C 0.9945 0.60385 0.95407 0.0
C713 C 0.02876 0.61625 0.08971 0.0
C714 C 0.0338 0.59203 0.04228 0.0
C715 C 0.02313 0.56223 0.92349 0.0
C716 C 1.00697 0.55626 0.85322 0.0
C717 C 0.01718 0.58588 0.97354 0.0
C718 C 0.9835 0.57332 0.83676 0.0
C719 C 0.97749 0.59704 0.88614 0.0
H720 H 0.09108 0.17301 0.1859 0.0
H721 H 0.13037 0.21865 0.38462 0.0
H722 H 0.113 0.18384 0.48094 0.0
H723 H 0.07635 0.14893 0.51017 0.0
H724 H 0.03287 0.10776 0.31031 0.0
H725 H 0.06311 0.13122 0.21321 0.0
C726 C 0.09704 0.17465 0.2497 0.0
C727 C 0.11131 0.19875 0.27856 0.0
C728 C 0.08564 0.15554 0.30495 0.0
C729 C 0.11892 0.20051 0.36137 0.0
C730 C 0.10876 0.18076 0.41647 0.0
C731 C 0.07384 0.14476 0.44537 0.0
C732 C 0.05165 0.12751 0.41755 0.0
C733 C 0.0903 0.15955 0.38946 0.0
C734 C 0.04948 0.12122 0.3337 0.0
C735 C 0.06664 0.13487 0.27783 0.0
H736 H 0.35337 0.10852 0.35426 0.0
H737 H 0.27717 0.07237 0.4514 0.0
H738 H 0.30459 0.04377 0.5429 0.0
H739 H 0.3491 0.0193 0.56629 0.0
H740 H 0.42405 0.04832 0.44636 0.0
H741 H 0.39884 0.08891 0.39476 0.0
C742 C 0.34264 0.09456 0.3957 0.0
C743 C 0.31314 0.09186 0.39214 0.0
C744 C 0.35858 0.07612 0.44359 0.0
C745 C 0.29977 0.07495 0.4507 0.0
C746 C 0.31552 0.05807 0.50282 0.0
C747 C 0.36001 0.03472 0.52973 0.0
C748 C 0.38826 0.03015 0.50789 0.0
C749 C 0.3448 0.05689 0.49499 0.0
C750 C 0.40237 0.05106 0.46384 0.0
C751 C 0.38778 0.0742 0.43327 0.0
H752 H 0.44954 0.33155 0.38379 0.0
H753 H 0.42116 0.36681 0.15643 0.0
H754 H 0.44252 0.41177 0.19271 0.0
H755 H 0.47941 0.43628 0.27044 0.0
H756 H 0.51203 0.39924 0.49025 0.0
H757 H 0.47889 0.36024 0.47624 0.0
C758 C 0.44752 0.34928 0.34303 0.0
C759 C 0.43462 0.34544 0.26633 0.0
C760 C 0.46132 0.37465 0.362 0.0
C761 C 0.43117 0.36892 0.21557 0.0
C762 C 0.44378 0.39463 0.23572 0.0
C763 C 0.47892 0.41985 0.31587 0.0
C764 C 0.49879 0.42002 0.37943 0.0
C765 C 0.46058 0.39698 0.30575 0.0
C766 C 0.49721 0.39936 0.43996 0.0
C767 C 0.47838 0.37692 0.43168 0.0
H768 H 0.17395 0.44119 0.15182 0.0
H769 H 0.21299 0.45196 0.3883 0.0
H770 H 0.17008 0.47371 0.44073 0.0
H771 H 0.12625 0.49773 0.41072 0.0
H772 H 0.08519 0.48418 0.17772 0.0
H773 H 0.12475 0.45533 0.13249 0.0
C774 C 0.17283 0.44721 0.21574 0.0
C775 C 0.19701 0.4457 0.26542 0.0
C776 C 0.14816 0.45989 0.24538 0.0
C777 C 0.19497 0.45366 0.34809 0.0
C778 C 0.17046 0.46613 0.37808 0.0
C779 C 0.12503 0.48773 0.35111 0.0
C780 C 0.10286 0.49414 0.29702 0.0
C781 C 0.14753 0.47069 0.32593 0.0
C782 C 0.10242 0.4808 0.21977 0.0
C783 C 0.12494 0.46401 0.19397 0.0
H784 H 0.92787 0.84103 0.0298 0.0
H785 H 0.9281 0.78524 0.82071 0.0
H786 H 0.94375 0.82369 0.73433 0.0
H787 H 0.9735 0.86612 0.7328 0.0
H788 H 0.98032 0.91751 0.95133 0.0
H789 H 0.94521 0.88894 0.01768 0.0
C790 C 0.92973 0.83766 0.96444 0.0
C791 C 0.92843 0.8101 0.93226 0.0
C792 C 0.94124 0.85914 0.91718 0.0
C793 C 0.9299 0.8062 0.84719 0.0
C794 C 0.93945 0.82809 0.79813 0.0
C795 C 0.96679 0.87143 0.7943 0.0
C796 C 0.98054 0.89314 0.83807 0.0
C797 C 0.94798 0.85361 0.83456 0.0
C798 C 0.97058 0.90069 0.91615 0.0
C799 C 0.95059 0.8841 0.95482 0.0
H800 H 0.66618 0.9284 1.00427 0.0
H801 H 0.73869 0.96069 0.87826 0.0
H802 H 0.7085 0.98549 0.78472 0.0
H803 H 0.66482 0.01284 0.7784 0.0
H804 H 0.59448 0.98868 0.92774 0.0
H805 H 0.61952 0.94673 0.97061 0.0
C806 C 0.67535 0.94023 0.95478 0.0
C807 C 0.70463 0.9447 0.95338 0.0
C808 C 0.65791 0.95724 0.90693 0.0
C809 C 0.71622 0.95789 0.88456 0.0
C810 C 0.69888 0.97268 0.83128 0.0
C811 C 0.65476 0.99797 0.81874 0.0
C812 C 0.62844 1.00453 0.85276 0.0
C813 C 0.67014 0.97508 0.84841 0.0
C814 C 0.61496 0.98445 0.90157 0.0
C815 C 0.62944 0.9605 0.92696 0.0
H816 H 0.58761 0.66583 0.07041 0.0
H817 H 0.53583 0.71374 0.90615 0.0
H818 H 0.51956 0.67045 0.84079 0.0
H819 H 0.50683 0.62138 0.86637 0.0
H820 H 0.55128 0.57477 0.05042 0.0
H821 H 0.58313 0.61452 0.07289 0.0
C822 C 0.57347 0.66674 0.01845 0.0
C823 C 0.56171 0.6928 0.99635 0.0
C824 C 0.56181 0.64173 0.9873 0.0
C825 C 0.54466 0.69395 0.92625 0.0
C826 C 0.53487 0.66908 0.88971 0.0
C827 C 0.52417 0.61955 0.90912 0.0
C828 C 0.52623 0.59569 0.95873 0.0
C829 C 0.54113 0.64309 0.92534 0.0
C830 C 0.54886 0.59339 1.01346 0.0
C831 C 0.56704 0.61609 0.02622 0.0
H832 H 0.80938 0.56437 0.87863 0.0
H833 H 0.84123 0.6325 0.02886 0.0
H834 H 0.8892 0.62074 0.98796 0.0
H835 H 0.92056 0.58121 0.95081 0.0
H836 H 0.88729 0.51093 0.81148 0.0
H837 H 0.84174 0.53394 0.8042 0.0
C838 C 0.82654 0.57772 0.89931 0.0
C839 C 0.82194 0.59805 0.96116 0.0
C840 C 0.85407 0.56976 0.87931 0.0
C841 C 0.8444 0.61579 0.98415 0.0
C842 C 0.8719 0.60884 0.96157 0.0
C843 C 0.90355 0.57138 0.91669 0.0
C844 C 0.90692 0.54385 0.88519 0.0
C845 C 0.87694 0.58414 0.91599 0.0
C846 C 0.88516 0.53184 0.83805 0.0
C847 C 0.85893 0.54492 0.83434 0.0
H848 H 0.05185 0.17509 0.83539 0.0
H849 H 0.97532 0.17865 0.97616 0.0
H850 H 0.96125 0.13271 0.92076 0.0
H851 H 0.97006 0.09151 0.82992 0.0
H852 H 0.0462 0.08826 0.68846 0.0
H853 H 0.06078 0.13385 0.74527 0.0
C854 C 0.03194 0.16601 0.85353 0.0
C855 C 0.01468 0.1807 0.91006 0.0
C856 C 0.0239 0.1394 0.82126 0.0
C857 C 0.98924 0.16801 0.93359 0.0
C858 C 0.98107 0.14169 0.90151 0.0
C859 C 0.98997 0.10072 0.81226 0.0
C860 C 1.00746 0.08594 0.75703 0.0
C861 C 0.99817 0.12717 0.84521 0.0
C862 C 0.03284 0.0985 0.7331 0.0
C863 C 0.04104 0.12483 0.76505 0.0
H864 H 0.34942 0.0642 0.82556 0.0
H865 H 0.34302 0.98749 0.9642 0.0
H866 H 0.3885 0.97228 0.91314 0.0
H867 H 0.43137 0.98112 0.83379 0.0
H868 H 0.43646 0.0549 0.68441 0.0
H869 H 0.38981 0.07012 0.73197 0.0
C870 C 0.35746 0.04385 0.84367 0.0
C871 C 0.34248 0.02754 0.90109 0.0
C872 C 0.38358 0.03456 0.81178 0.0
C873 C 0.35403 1.00129 0.92308 0.0
C874 C 0.3801 0.99228 0.89303 0.0
C875 C 0.42222 1.00054 0.81161 0.0
C876 C 0.43792 0.01756 0.75869 0.0
C877 C 0.3953 1.00892 0.83856 0.0
C878 C 0.42533 0.04206 0.72791 0.0
C879 C 0.39855 0.05063 0.75476 0.0
H880 H 0.51297 0.34757 0.90455 0.0
H881 H 0.45557 0.31907 0.71565 0.0
H882 H 0.46288 0.36246 0.64244 0.0
H883 H 0.48299 0.41039 0.6354 0.0
H884 H 0.54518 0.43609 0.81254 0.0
H885 H 0.53933 0.39163 0.88452 0.0
C886 C 0.50245 0.35019 0.84653 0.0
C887 C 0.48278 0.3298 0.8186 0.0
C888 C 0.50773 0.37492 0.8017 0.0
C889 C 0.46971 0.33446 0.74238 0.0
C890 C 0.47417 0.35932 0.69912 0.0
C891 C 0.49575 0.40592 0.68865 0.0
C892 C 0.5143 0.42669 0.71906 0.0
C893 C 0.49267 0.37998 0.72894 0.0
C894 C 0.53074 0.42056 0.78793 0.0
C895 C 0.52723 0.39514 0.82948 0.0
H896 H 0.17552 0.50573 0.95065 0.0
H897 H 0.21789 0.49078 0.72128 0.0
H898 H 0.17336 0.49501 0.64891 0.0
H899 H 0.12142 0.50116 0.64995 0.0
H900 H 0.08002 0.52035 0.8771 0.0
H901 H 0.12483 0.51673 0.95026 0.0
C902 C 0.17534 0.50395 0.88472 0.0
C903 C 0.20051 0.49739 0.84253 0.0
C904 C 0.14953 0.5071 0.84254 0.0
C905 C 0.19912 0.49496 0.75668 0.0
C906 C 0.17353 0.4976 0.71468 0.0
C907 C 0.12239 0.50487 0.7153 0.0
C908 C 0.09744 0.51086 0.75828 0.0
C909 C 0.14848 0.50329 0.7569 0.0
C910 C 0.09893 0.51568 0.84284 0.0
C911 C 0.12458 0.51356 0.88469 0.0
H912 H 0.97225 0.85698 0.49721 0.0
H913 H 0.05663 0.84666 0.40579 0.0
H914 H 0.0704 0.89145 0.46941 0.0
H915 H 0.05794 0.93513 0.54387 0.0
H916 H 0.97535 0.94405 0.64804 0.0
H917 H 0.96149 0.89837 0.58822 0.0
C918 C 0.99374 0.86437 0.49237 0.0
C919 C 0.0134 0.84835 0.44652 0.0
C920 C 1.00174 0.89013 0.53075 0.0
C921 C 0.04117 0.8583 0.44112 0.0
C922 C 0.04901 0.88407 0.4771 0.0
C923 C 0.03687 0.92708 0.55339 0.0
C924 C 0.01721 0.94375 0.59664 0.0
C925 C 0.02939 0.90042 0.52077 0.0
C926 C 0.99044 0.93237 0.61156 0.0
C927 C 0.98262 0.90607 0.57795 0.0
H928 H 0.67312 0.98447 0.55548 0.0
H929 H 0.67206 0.05761 0.40124 0.0
H930 H 0.62643 0.07124 0.45486 0.0
H931 H 0.58594 0.06257 0.54315 0.0
H932 H 0.58572 0.99039 0.69945 0.0
H933 H 0.6322 0.97632 0.64795 0.0
C934 C 0.66294 1.0034 0.53372 0.0
C935 C 0.6766 0.02013 0.47483 0.0
C936 C 0.63618 0.01129 0.56493 0.0
C937 C 0.66276 0.0446 0.44776 0.0
C938 C 0.63638 0.05237 0.47793 0.0
C939 C 0.59605 0.04367 0.56564 0.0
C940 C 0.58189 0.027 0.62272 0.0
C941 C 0.62284 0.03591 0.53622 0.0
C942 C 0.59562 1.00303 0.65316 0.0
C943 C 0.62238 0.99513 0.62415 0.0
H944 H 0.4879 0.68017 0.46293 0.0
H945 H 0.56606 0.70226 0.58157 0.0
H946 H 0.5658 0.6572 0.65306 0.0
H947 H 0.544 0.61035 0.67835 0.0
H948 H 0.46671 0.58901 0.55413 0.0
H949 H 0.46548 0.6351 0.49189 0.0
C950 C 0.50466 0.67559 0.50568 0.0
C951 C 0.52689 0.69504 0.51664 0.0
C952 C 0.50442 0.6496 0.54658 0.0
C953 C 0.54873 0.68788 0.57093 0.0
C954 C 0.54853 0.66207 0.61233 0.0
C955 C 0.52675 0.6159 0.63822 0.0
C956 C 0.50527 0.59596 0.62201 0.0
C957 C 0.52659 0.64257 0.60008 0.0
C958 C 0.48315 0.60376 0.56984 0.0
C959 C 0.48264 0.63018 0.53299 0.0
H960 H 0.83965 0.48523 0.4835 0.0
H961 H 0.84176 0.57471 0.43943 0.0
H962 H 0.8863 0.57844 0.51316 0.0
H963 H 0.92651 0.55589 0.58294 0.0
H964 H 0.92501 0.46624 0.62238 0.0
H965 H 0.87865 0.46323 0.55952 0.0
C966 C 0.84974 0.50562 0.48989 0.0
C967 C 0.837 0.52961 0.4549 0.0
C968 C 0.87583 0.50762 0.53146 0.0
C969 C 0.85051 0.55584 0.46601 0.0
C970 C 0.87628 0.55799 0.50776 0.0
C971 C 0.91634 0.5356 0.57666 0.0
C972 C 0.93029 0.51115 0.60431 0.0
C973 C 0.88946 0.53394 0.53939 0.0
C974 C 0.91563 0.48537 0.59972 0.0
C975 C 0.88887 0.48361 0.56373 0.0
loop_
_geom_bond_atom_site_label_1
_geom_bond_atom_site_label_2
_geom_bond_distance
_geom_bond_site_symmetry_2
_ccdc_geom_bond_type
P0 O11 1.490 . S
P0 C14 1.812 . S
P0 C20 1.803 . S
P0 C26 1.819 . S
H1 C15 0.941 . S
H2 C16 0.939 . S
H3 C18 0.940 . S
H4 C19 0.940 . S
H5 C21 0.939 . S
H6 C22 0.942 . S
H7 C24 0.940 . S
H8 C25 0.939 . S
H9 C27 0.941 . S
H10 C31 0.939 . S
O11 P0 1.490 . S
H12 C28 0.939 . S
H13 C30 0.940 . S
C14 P0 1.812 . S
C14 C15 1.389 . S
C14 C19 1.391 . S
C15 H1 0.941 . S
C15 C14 1.389 . S
C15 C16 1.397 . S
C16 H2 0.939 . S
C16 C15 1.397 . S
C16 C17 1.378 . S
C17 C16 1.378 . S
C17 C18 1.378 . S
C18 H3 0.940 . S
C18 C17 1.378 . S
C18 C19 1.396 . S
C19 H4 0.940 . S
C19 C14 1.391 . S
C19 C18 1.396 . S
C20 P0 1.803 . S
C20 C21 1.378 . S
C20 C25 1.400 . S
C21 H5 0.939 . S
C21 C20 1.378 . S
C21 C22 1.361 . S
C22 H6 0.942 . S
C22 C21 1.361 . S
C22 C23 1.369 . S
C23 C22 1.369 . S
C23 C24 1.404 . S
C24 H7 0.940 . S
C24 C23 1.404 . S
C24 C25 1.389 . S
C25 H8 0.939 . S
C25 C20 1.400 . S
C25 C24 1.389 . S
C26 P0 1.819 . S
C26 C27 1.391 . S
C26 C31 1.391 . S
C27 H9 0.941 . S
C27 C26 1.391 . S
C27 C28 1.396 . S
C28 H12 0.939 . S
C28 C27 1.396 . S
C28 C29 1.397 . S
C29 C28 1.397 . S
C29 C30 1.385 . S
C30 H13 0.940 . S
C30 C29 1.385 . S
C30 C31 1.388 . S
C31 H10 0.939 . S
C31 C26 1.391 . S
C31 C30 1.388 . S
P32 O43 1.490 1_655 S
P32 C46 1.812 . S
P32 C52 1.803 . S
P32 C58 1.819 . S
H33 C47 0.941 . S
H34 C48 0.939 . S
H35 C50 0.940 . S
H36 C51 0.940 . S
H37 C53 0.962 . S
H38 C54 0.942 . S
H39 C56 0.940 . S
H40 C57 0.939 . S
H41 C59 0.941 . S
H42 C63 0.939 . S
O43 P32 1.490 1_455 S
H44 C60 0.939 . S
H45 C62 0.940 . S
C46 P32 1.812 . S
C46 C47 1.389 . S
C46 C51 1.391 . S
C47 H33 0.941 . S
C47 C46 1.389 . S
C47 C48 1.397 . S
C48 H34 0.939 . S
C48 C47 1.397 . S
C48 C49 1.378 . S
C49 C48 1.378 . S
C49 C50 1.378 . S
C50 H35 0.940 . S
C50 C49 1.378 . S
C50 C51 1.396 . S
C51 H36 0.940 . S
C51 C46 1.391 . S
C51 C50 1.396 . S
C52 P32 1.803 . S
C52 C53 1.378 . S
C52 C57 1.400 . S
C53 H37 0.962 . S
C53 C52 1.378 . S
C53 C54 1.361 . S
C54 H38 0.942 . S
C54 C53 1.361 . S
C54 C55 1.369 . S
C55 C54 1.369 . S
C55 C56 1.404 . S
C56 H39 0.940 . S
C56 C55 1.404 . S
C56 C57 1.389 . S
C57 H40 0.939 . S
C57 C52 1.400 . S
C57 C56 1.389 . S
C58 P32 1.819 . S
C58 C59 1.391 . S
C58 C63 1.391 . S
C59 H41 0.941 . S
C59 C58 1.391 . S
C59 C60 1.396 . S
C60 H44 0.939 . S
C60 C59 1.396 . S
C60 C61 1.397 . S
C61 C60 1.397 . S
C61 C62 1.385 . S
C62 H45 0.940 . S
C62 C61 1.385 . S
C62 C63 1.388 . S
C63 H42 0.939 . S
C63 C58 1.391 . S
C63 C62 1.388 . S
P64 O75 1.490 1_565 S
P64 C78 1.812 . S
P64 C84 1.803 . S
P64 C90 1.819 . S
H65 C79 0.941 1_545 S
H66 C80 0.939 . S
H67 C82 0.940 . S
H68 C83 0.940 . S
H69 C85 0.939 1_545 S
H70 C86 0.942 . S
H71 C88 0.940 . S
H72 C89 0.939 . S
H73 C91 0.941 1_545 S
H74 C95 0.939 . S
O75 P64 1.490 1_545 S
H76 C92 0.939 . S
H77 C94 0.940 . S
C78 P64 1.812 . S
C78 C79 1.389 . S
C78 C83 1.391 . S
C79 H65 0.941 1_565 S
C79 C78 1.389 . S
C79 C80 1.397 . S
C80 H66 0.939 . S
C80 C79 1.397 . S
C80 C81 1.378 . S
C81 C80 1.378 . S
C81 C82 1.378 . S
C82 H67 0.940 . S
C82 C81 1.378 . S
C82 C83 1.396 . S
C83 H68 0.940 . S
C83 C78 1.391 . S
C83 C82 1.396 . S
C84 P64 1.803 . S
C84 C85 1.378 . S
C84 C89 1.400 . S
C85 H69 0.939 1_565 S
C85 C84 1.378 . S
C85 C86 1.361 . S
C86 H70 0.942 . S
C86 C85 1.361 . S
C86 C87 1.369 . S
C87 C86 1.369 . S
C87 C88 1.404 . S
C88 H71 0.940 . S
C88 C87 1.404 . S
C88 C89 1.389 . S
C89 H72 0.939 . S
C89 C84 1.400 . S
C89 C88 1.389 . S
C90 P64 1.819 . S
C90 C91 1.391 . S
C90 C95 1.391 . S
C91 H73 0.941 1_565 S
C91 C90 1.391 . S
C91 C92 1.396 . S
C92 H76 0.939 . S
C92 C91 1.396 . S
C92 C93 1.397 . S
C93 C92 1.397 . S
C93 C94 1.385 . S
C94 H77 0.940 . S
C94 C93 1.385 . S
C94 C95 1.388 . S
C95 H74 0.939 . S
C95 C90 1.391 . S
C95 C94 1.388 . S
P96 O107 1.490 . S
P96 C110 1.812 . S
P96 C116 1.803 . S
P96 C122 1.819 . S
H97 C111 0.941 . S
H98 C112 0.939 . S
H99 C114 0.940 . S
H100 C115 0.940 . S
H101 C117 0.939 . S
H102 C118 0.942 . S
H103 C120 0.940 . S
H104 C121 0.939 . S
H105 C123 0.941 . S
H106 C127 0.939 . S
O107 P96 1.490 . S
H108 C124 0.939 . S
H109 C126 0.940 . S
C110 P96 1.812 . S
C110 C111 1.389 . S
C110 C115 1.391 . S
C111 H97 0.941 . S
C111 C110 1.389 . S
C111 C112 1.397 . S
C112 H98 0.939 . S
C112 C111 1.397 . S
C112 C113 1.378 . S
C113 C112 1.378 . S
C113 C114 1.378 . S
C114 H99 0.940 . S
C114 C113 1.378 . S
C114 C115 1.396 . S
C115 H100 0.940 . S
C115 C110 1.391 . S
C115 C114 1.396 . S
C116 P96 1.803 . S
C116 C117 1.378 . S
C116 C121 1.400 . S
C117 H101 0.939 . S
C117 C116 1.378 . S
C117 C118 1.361 . S
C118 H102 0.942 . S
C118 C117 1.361 . S
C118 C119 1.369 . S
C119 C118 1.369 . S
C119 C120 1.404 . S
C120 H103 0.940 . S
C120 C119 1.404 . S
C120 C121 1.389 . S
C121 H104 0.939 . S
C121 C116 1.400 . S
C121 C120 1.389 . S
C122 P96 1.819 . S
C122 C123 1.391 . S
C122 C127 1.391 . S
C123 H105 0.941 . S
C123 C122 1.391 . S
C123 C124 1.396 . S
C124 H108 0.939 . S
C124 C123 1.396 . S
C124 C125 1.397 . S
C125 C124 1.397 . S
C125 C126 1.385 . S
C126 H109 0.940 . S
C126 C125 1.385 . S
C126 C127 1.388 . S
C127 H106 0.939 . S
C127 C122 1.391 . S
C127 C126 1.388 . S
P128 O139 1.490 . S
P128 C142 1.812 1_554 S
P128 C148 1.803 . S
P128 C154 1.819 . S
H129 C143 0.941 . S
H130 C144 0.939 . S
H131 C146 0.940 . S
H132 C147 0.940 . S
H133 C149 0.939 . S
H134 C150 0.942 . S
H135 C152 0.940 . S
H136 C153 0.939 1_556 S
H137 C155 0.941 . S
H138 C159 0.939 . S
O139 P128 1.490 . S
H140 C156 0.939 . S
H141 C158 0.940 . S
C142 P128 1.812 1_556 S
C142 C143 1.389 . S
C142 C147 1.391 . S
C143 H129 0.941 . S
C143 C142 1.389 . S
C143 C144 1.397 . S
C144 H130 0.939 . S
C144 C143 1.397 . S
C144 C145 1.378 . S
C145 C144 1.378 . S
C145 C146 1.378 . S
C146 H131 0.940 . S
C146 C145 1.378 . S
C146 C147 1.396 . S
C147 H132 0.940 . S
C147 C142 1.391 . S
C147 C146 1.396 . S
C148 P128 1.803 . S
C148 C149 1.378 . S
C148 C153 1.400 . S
C149 H133 0.939 . S
C149 C148 1.378 . S
C149 C150 1.361 . S
C150 H134 0.942 . S
C150 C149 1.361 . S
C150 C151 1.369 . S
C151 C150 1.369 . S
C151 C152 1.404 . S
C152 H135 0.940 . S
C152 C151 1.404 . S
C152 C153 1.389 . S
C153 H136 0.939 1_554 S
C153 C148 1.400 . S
C153 C152 1.389 . S
C154 P128 1.819 . S
C154 C155 1.391 . S
C154 C159 1.391 . S
C155 H137 0.941 . S
C155 C154 1.391 . S
C155 C156 1.396 . S
C156 H140 0.939 . S
C156 C155 1.396 . S
C156 C157 1.397 . S
C157 C156 1.397 . S
C157 C158 1.385 . S
C158 H141 0.940 . S
C158 C157 1.385 . S
C158 C159 1.388 . S
C159 H138 0.939 . S
C159 C154 1.391 . S
C159 C158 1.388 . S
P160 O171 1.490 . S
P160 C174 1.812 1_554 S
P160 C180 1.803 . S
P160 C186 1.819 . S
H161 C175 0.941 . S
H162 C176 0.939 . S
H163 C178 0.940 . S
H164 C179 0.940 . S
H165 C181 0.939 . S
H166 C182 0.942 . S
H167 C184 0.940 . S
H168 C185 0.939 1_556 S
H169 C187 0.941 . S
H170 C191 0.939 . S
O171 P160 1.490 . S
H172 C188 0.939 . S
H173 C190 0.940 . S
C174 P160 1.812 1_556 S
C174 C175 1.389 . S
C174 C179 1.391 . S
C175 H161 0.941 . S
C175 C174 1.389 . S
C175 C176 1.397 . S
C176 H162 0.939 . S
C176 C175 1.397 . S
C176 C177 1.378 . S
C177 C176 1.378 . S
C177 C178 1.378 . S
C178 H163 0.940 . S
C178 C177 1.378 . S
C178 C179 1.396 . S
C179 H164 0.940 . S
C179 C174 1.391 . S
C179 C178 1.396 . S
C180 P160 1.803 . S
C180 C181 1.378 . S
C180 C185 1.400 . S
C181 H165 0.939 . S
C181 C180 1.378 . S
C181 C182 1.361 . S
C182 H166 0.942 . S
C182 C181 1.361 . S
C182 C183 1.369 . S
C183 C182 1.369 . S
C183 C184 1.404 . S
C184 H167 0.940 . S
C184 C183 1.404 . S
C184 C185 1.389 . S
C185 H168 0.939 1_554 S
C185 C180 1.400 . S
C185 C184 1.389 . S
C186 P160 1.819 . S
C186 C187 1.391 . S
C186 C191 1.391 . S
C187 H169 0.941 . S
C187 C186 1.391 . S
C187 C188 1.396 . S
C188 H172 0.939 . S
C188 C187 1.396 . S
C188 C189 1.397 . S
C189 C188 1.397 . S
C189 C190 1.385 . S
C190 H173 0.940 . S
C190 C189 1.385 . S
C190 C191 1.388 . S
C191 H170 0.939 . S
C191 C186 1.391 . S
C191 C190 1.388 . S
P192 O203 1.490 . S
P192 C206 1.812 1_554 S
P192 C212 1.803 . S
P192 C218 1.819 . S
H193 C207 0.941 . S
H194 C208 0.939 . S
H195 C210 0.940 . S
H196 C211 0.940 . S
H197 C213 0.939 . S
H198 C214 0.942 . S
H199 C216 0.940 . S
H200 C217 0.939 1_556 S
H201 C219 0.941 . S
H202 C223 0.939 . S
O203 P192 1.490 . S
H204 C220 0.939 . S
H205 C222 0.940 . S
C206 P192 1.812 1_556 S
C206 C207 1.389 . S
C206 C211 1.391 . S
C207 H193 0.941 . S
C207 C206 1.389 . S
C207 C208 1.397 . S
C208 H194 0.939 . S
C208 C207 1.397 . S
C208 C209 1.378 . S
C209 C208 1.378 . S
C209 C210 1.378 . S
C210 H195 0.940 . S
C210 C209 1.378 . S
C210 C211 1.396 . S
C211 H196 0.940 . S
C211 C206 1.391 . S
C211 C210 1.396 . S
C212 P192 1.803 . S
C212 C213 1.378 . S
C212 C217 1.400 . S
C213 H197 0.939 . S
C213 C212 1.378 . S
C213 C214 1.361 . S
C214 H198 0.942 . S
C214 C213 1.361 . S
C214 C215 1.369 . S
C215 C214 1.369 . S
C215 C216 1.404 . S
C216 H199 0.940 . S
C216 C215 1.404 . S
C216 C217 1.389 . S
C217 H200 0.939 1_554 S
C217 C212 1.400 . S
C217 C216 1.389 . S
C218 P192 1.819 . S
C218 C219 1.391 . S
C218 C223 1.391 . S
C219 H201 0.941 . S
C219 C218 1.391 . S
C219 C220 1.396 . S
C220 H204 0.939 . S
C220 C219 1.396 . S
C220 C221 1.397 . S
C221 C220 1.397 . S
C221 C222 1.385 . S
C222 H205 0.940 . S
C222 C221 1.385 . S
C222 C223 1.388 . S
C223 H202 0.939 . S
C223 C218 1.391 . S
C223 C222 1.388 . S
P224 O235 1.490 . S
P224 C238 1.812 1_554 S
P224 C244 1.803 . S
P224 C250 1.819 . S
H225 C239 0.941 . S
H226 C240 0.939 . S
H227 C242 0.940 . S
H228 C243 0.940 . S
H229 C245 0.939 . S
H230 C246 0.942 . S
H231 C248 0.940 . S
H232 C249 0.939 1_556 S
H233 C251 0.941 . S
H234 C255 0.939 . S
O235 P224 1.490 . S
H236 C252 0.939 . S
H237 C254 0.940 . S
C238 P224 1.812 1_556 S
C238 C239 1.389 . S
C238 C243 1.391 . S
C239 H225 0.941 . S
C239 C238 1.389 . S
C239 C240 1.397 . S
C240 H226 0.939 . S
C240 C239 1.397 . S
C240 C241 1.378 . S
C241 C240 1.378 . S
C241 C242 1.378 . S
C242 H227 0.940 . S
C242 C241 1.378 . S
C242 C243 1.396 . S
C243 H228 0.940 . S
C243 C238 1.391 . S
C243 C242 1.396 . S
C244 P224 1.803 . S
C244 C245 1.378 . S
C244 C249 1.400 . S
C245 H229 0.939 . S
C245 C244 1.378 . S
C245 C246 1.361 . S
C246 H230 0.942 . S
C246 C245 1.361 . S
C246 C247 1.369 . S
C247 C246 1.369 . S
C247 C248 1.404 . S
C248 H231 0.940 . S
C248 C247 1.404 . S
C248 C249 1.389 . S
C249 H232 0.939 1_554 S
C249 C244 1.400 . S
C249 C248 1.389 . S
C250 P224 1.819 . S
C250 C251 1.391 . S
C250 C255 1.391 . S
C251 H233 0.941 . S
C251 C250 1.391 . S
C251 C252 1.396 . S
C252 H236 0.939 . S
C252 C251 1.396 . S
C252 C253 1.397 . S
C253 C252 1.397 . S
C253 C254 1.385 . S
C254 H237 0.940 . S
C254 C253 1.385 . S
C254 C255 1.388 . S
C255 H234 0.939 . S
C255 C250 1.391 . S
C255 C254 1.388 . S
Tb256 N287 2.660 1_565 S
Tb256 N294 2.600 . S
Tb256 O300 2.546 . S
Tb256 O301 2.610 1_455 S
Tb256 O303 2.320 1_455 S
Tb256 O304 2.552 . S
Tb256 O305 2.413 . S
Tb256 O307 2.362 1_565 S
Tb256 O308 2.421 . S
Tb256 C320 2.833 . S
C257 C260 1.432 1_545 S
C257 C261 1.414 1_545 S
C257 N264 1.359 . S
C258 C260 1.417 . S
C258 C262 1.432 . S
C258 C270 1.410 . S
C259 C261 1.444 . S
C259 C262 1.317 . S
C259 H282 0.929 . S
C260 C257 1.432 1_565 S
C260 C258 1.417 . S
C260 N268 1.360 . S
C261 C257 1.414 1_565 S
C261 C259 1.444 . S
C261 C266 1.385 1_565 S
C262 C258 1.432 . S
C262 C259 1.317 . S
C262 H274 0.930 . S
C263 C265 1.392 . S
C263 C266 1.370 . S
C263 H275 0.931 . S
N264 C257 1.359 . S
N264 C265 1.327 . S
N264 Tb267 2.600 . S
C265 C263 1.392 . S
C265 N264 1.327 . S
C265 H272 0.930 . S
C266 C261 1.385 1_545 S
C266 C263 1.370 . S
C266 H285 0.930 . S
Tb267 N264 2.600 . S
Tb267 N268 2.660 1_545 S
Tb267 O301 2.362 1_545 S
Tb267 O302 2.421 . S
Tb267 O306 2.546 . S
Tb267 O307 2.610 1_655 S
Tb267 O309 2.320 1_655 S
Tb267 O310 2.552 1_655 S
Tb267 O311 2.413 . S
Tb267 C331 2.833 . S
N268 C260 1.360 . S
N268 Tb267 2.660 1_565 S
N268 C269 1.305 . S
C269 N268 1.305 . S
C269 C271 1.407 . S
C269 H276 0.930 1_655 S
C270 C258 1.410 . S
C270 C271 1.345 . S
C270 H278 0.930 . S
C271 C269 1.407 . S
C271 C270 1.345 . S
C271 H273 0.930 1_655 S
H272 C265 0.930 . S
H273 C271 0.930 1_455 S
H274 C262 0.930 . S
H275 C263 0.931 . S
H276 C269 0.930 1_455 S
H277 C291 0.930 1_655 S
H278 C270 0.930 . S
H279 C297 0.930 . S
H280 C288 0.930 1_655 S
H281 C295 0.931 . S
H282 C259 0.929 . S
H283 C289 0.930 1_554 S
H284 C322 0.930 1_554 S
H285 C266 0.930 . S
H286 C321 0.929 . S
N287 Tb256 2.660 1_545 S
N287 C288 1.305 . S
N287 C292 1.360 . S
C288 H280 0.930 1_455 S
C288 N287 1.305 . S
C288 C291 1.407 . S
C289 H283 0.930 1_556 S
C289 C290 1.410 . S
C289 C291 1.345 . S
C290 C289 1.410 . S
C290 C292 1.417 . S
C290 C322 1.432 . S
C291 H277 0.930 1_455 S
C291 C288 1.407 . S
C291 C289 1.345 . S
C292 N287 1.360 . S
C292 C290 1.417 . S
C292 C296 1.432 . S
H293 C298 0.930 . S
N294 Tb256 2.600 . S
N294 C296 1.359 1_565 S
N294 C297 1.327 . S
C295 H281 0.931 . S
C295 C297 1.392 . S
C295 C298 1.370 1_565 S
C296 C292 1.432 . S
C296 N294 1.359 1_545 S
C296 C299 1.414 . S
C297 H279 0.930 . S
C297 N294 1.327 . S
C297 C295 1.392 . S
C298 H293 0.930 . S
C298 C295 1.370 1_545 S
C298 C299 1.385 . S
C299 C296 1.414 . S
C299 C298 1.385 . S
C299 C321 1.444 . S
O300 Tb256 2.546 . S
O300 C320 1.251 . S
O301 Tb256 2.610 1_655 S
O301 Tb267 2.362 1_565 S
O301 C312 1.283 . S
O302 Tb267 2.421 . S
O302 C319 1.262 . S
O303 Tb256 2.320 1_655 S
O303 C319 1.260 1_565 S
O304 Tb256 2.552 . S
O304 C312 1.243 1_455 S
O305 Tb256 2.413 . S
O305 C320 1.256 . S
O306 Tb267 2.546 . S
O306 C331 1.251 . S
O307 Tb256 2.362 1_545 S
O307 Tb267 2.610 1_455 S
O307 C323 1.283 . S
O308 Tb256 2.421 . S
O308 C330 1.262 1_565 S
O309 Tb267 2.320 1_455 S
O309 C330 1.260 . S
O310 Tb267 2.552 1_455 S
O310 C323 1.243 . S
O311 Tb267 2.413 . S
O311 C331 1.256 . S
C312 O301 1.283 . S
C312 O304 1.243 1_655 S
C313 C315 1.382 . S
C313 C317 1.393 . S
C313 C320 1.500 . S
C314 C315 1.400 . S
C314 C316 1.384 . S
C315 C313 1.382 . S
C315 C314 1.400 . S
C315 H332 0.930 . S
C316 C314 1.384 . S
C316 C318 1.392 . S
C316 H333 0.931 . S
C317 C313 1.393 . S
C317 C318 1.401 . S
C317 H334 0.930 . S
C318 C316 1.392 . S
C318 C317 1.401 . S
C318 H335 0.930 . S
C319 O302 1.262 . S
C319 O303 1.260 1_545 S
C320 Tb256 2.833 . S
C320 O300 1.251 . S
C320 O305 1.256 . S
C320 C313 1.500 . S
C321 H286 0.929 . S
C321 C299 1.444 . S
C321 C322 1.317 . S
C322 H284 0.930 1_556 S
C322 C290 1.432 . S
C322 C321 1.317 . S
C323 O307 1.283 . S
C323 O310 1.243 . S
C324 C325 1.382 . S
C324 C328 1.393 . S
C324 C331 1.500 . S
C325 C324 1.382 . S
C325 C326 1.400 . S
C325 H336 0.930 1_655 S
C326 C325 1.400 . S
C326 C327 1.384 . S
C327 C326 1.384 . S
C327 C329 1.392 . S
C327 H337 0.931 . S
C328 C324 1.393 . S
C328 C329 1.401 . S
C328 H338 0.930 . S
C329 C327 1.392 . S
C329 C328 1.401 . S
C329 H339 0.930 . S
C330 O308 1.262 1_545 S
C330 O309 1.260 . S
C331 Tb267 2.833 . S
C331 O306 1.251 . S
C331 O311 1.256 . S
C331 C324 1.500 . S
H332 C315 0.930 . S
H333 C316 0.931 . S
H334 C317 0.930 . S
H335 C318 0.930 . S
H336 C325 0.930 1_455 S
H337 C327 0.931 . S
H338 C328 0.930 . S
H339 C329 0.930 . S
Tb340 N371 2.660 . S
Tb340 N378 2.600 . S
Tb340 O384 2.546 . S
Tb340 O385 2.610 1_545 S
Tb340 O387 2.320 1_545 S
Tb340 O388 2.552 . S
Tb340 O389 2.413 . S
Tb340 O391 2.362 . S
Tb340 O392 2.421 . S
Tb340 C404 2.833 . S
C341 C344 1.432 . S
C341 C345 1.414 . S
C341 N348 1.359 . S
C342 C344 1.417 . S
C342 C346 1.432 . S
C342 C354 1.410 . S
C343 C345 1.444 . S
C343 C346 1.317 . S
C343 H366 0.929 . S
C344 C341 1.432 . S
C344 C342 1.417 . S
C344 N352 1.360 . S
C345 C341 1.414 . S
C345 C343 1.444 . S
C345 C350 1.385 . S
C346 C342 1.432 . S
C346 C343 1.317 . S
C346 H358 0.930 . S
C347 C349 1.392 . S
C347 C350 1.370 . S
C347 H359 0.931 . S
N348 C341 1.359 . S
N348 C349 1.327 . S
N348 Tb351 2.600 . S
C349 C347 1.392 . S
C349 N348 1.327 . S
C349 H356 0.930 . S
C350 C345 1.385 . S
C350 C347 1.370 . S
C350 H369 0.930 . S
Tb351 N348 2.600 . S
Tb351 N352 2.660 . S
Tb351 O385 2.362 . S
Tb351 O386 2.421 . S
Tb351 O390 2.546 . S
Tb351 O391 2.610 1_565 S
Tb351 O393 2.320 1_565 S
Tb351 O394 2.552 1_565 S
Tb351 O395 2.413 . S
Tb351 C415 2.833 . S
N352 C344 1.360 . S
N352 Tb351 2.660 . S
N352 C353 1.305 1_565 S
C353 N352 1.305 1_545 S
C353 C355 1.407 . S
C353 H360 0.930 . S
C354 C342 1.410 . S
C354 C355 1.345 1_565 S
C354 H362 0.930 . S
C355 C353 1.407 . S
C355 C354 1.345 1_545 S
C355 H357 0.930 . S
H356 C349 0.930 . S
H357 C355 0.930 . S
H358 C346 0.930 . S
H359 C347 0.931 . S
H360 C353 0.930 . S
H361 C375 0.930 1_565 S
H362 C354 0.930 . S
H363 C381 0.930 . S
H364 C372 0.930 1_565 S
H365 C379 0.931 . S
H366 C343 0.929 . S
H367 C373 0.930 1_554 S
H368 C406 0.930 1_554 S
H369 C350 0.930 . S
H370 C405 0.929 . S
N371 Tb340 2.660 . S
N371 C372 1.305 . S
N371 C376 1.360 . S
C372 H364 0.930 1_545 S
C372 N371 1.305 . S
C372 C375 1.407 . S
C373 H367 0.930 1_556 S
C373 C374 1.410 . S
C373 C375 1.345 . S
C374 C373 1.410 . S
C374 C376 1.417 . S
C374 C406 1.432 . S
C375 H361 0.930 1_545 S
C375 C372 1.407 . S
C375 C373 1.345 . S
C376 N371 1.360 . S
C376 C374 1.417 . S
C376 C380 1.432 . S
H377 C382 0.930 . S
N378 Tb340 2.600 . S
N378 C380 1.359 . S
N378 C381 1.327 . S
C379 H365 0.931 . S
C379 C381 1.392 . S
C379 C382 1.370 . S
C380 C376 1.432 . S
C380 N378 1.359 . S
C380 C383 1.414 . S
C381 H363 0.930 . S
C381 N378 1.327 . S
C381 C379 1.392 . S
C382 H377 0.930 . S
C382 C379 1.370 . S
C382 C383 1.385 . S
C383 C380 1.414 . S
C383 C382 1.385 . S
C383 C405 1.444 . S
O384 Tb340 2.546 . S
O384 C404 1.251 . S
O385 Tb340 2.610 1_565 S
O385 Tb351 2.362 . S
O385 C396 1.283 . S
O386 Tb351 2.421 . S
O386 C403 1.262 . S
O387 Tb340 2.320 1_565 S
O387 C403 1.260 . S
O388 Tb340 2.552 . S
O388 C396 1.243 1_545 S
O389 Tb340 2.413 . S
O389 C404 1.256 . S
O390 Tb351 2.546 . S
O390 C415 1.251 . S
O391 Tb340 2.362 . S
O391 Tb351 2.610 1_545 S
O391 C407 1.283 . S
O392 Tb340 2.421 . S
O392 C414 1.262 . S
O393 Tb351 2.320 1_545 S
O393 C414 1.260 . S
O394 Tb351 2.552 1_545 S
O394 C407 1.243 . S
O395 Tb351 2.413 . S
O395 C415 1.256 . S
C396 O385 1.283 . S
C396 O388 1.243 1_565 S
C397 C399 1.382 . S
C397 C401 1.393 . S
C397 C404 1.500 . S
C398 C399 1.400 . S
C398 C400 1.384 . S
C399 C397 1.382 . S
C399 C398 1.400 . S
C399 H416 0.930 . S
C400 C398 1.384 . S
C400 C402 1.392 . S
C400 H417 0.931 . S
C401 C397 1.393 . S
C401 C402 1.401 . S
C401 H418 0.930 . S
C402 C400 1.392 . S
C402 C401 1.401 . S
C402 H419 0.930 . S
C403 O386 1.262 . S
C403 O387 1.260 . S
C404 Tb340 2.833 . S
C404 O384 1.251 . S
C404 O389 1.256 . S
C404 C397 1.500 . S
C405 H370 0.929 . S
C405 C383 1.444 . S
C405 C406 1.317 . S
C406 H368 0.930 1_556 S
C406 C374 1.432 . S
C406 C405 1.317 . S
C407 O391 1.283 . S
C407 O394 1.243 . S
C408 C409 1.382 . S
C408 C412 1.393 . S
C408 C415 1.500 . S
C409 C408 1.382 . S
C409 C410 1.400 . S
C409 H420 0.930 1_565 S
C410 C409 1.400 . S
C410 C411 1.384 . S
C411 C410 1.384 . S
C411 C413 1.392 . S
C411 H421 0.931 . S
C412 C408 1.393 . S
C412 C413 1.401 . S
C412 H422 0.930 . S
C413 C411 1.392 . S
C413 C412 1.401 . S
C413 H423 0.930 . S
C414 O392 1.262 . S
C414 O393 1.260 . S
C415 Tb351 2.833 . S
C415 O390 1.251 . S
C415 O395 1.256 . S
C415 C408 1.500 . S
H416 C399 0.930 . S
H417 C400 0.931 . S
H418 C401 0.930 . S
H419 C402 0.930 . S
H420 C409 0.930 1_545 S
H421 C411 0.931 . S
H422 C412 0.930 . S
H423 C413 0.930 . S
Tb424 N455 2.660 . S
Tb424 N462 2.600 . S
Tb424 O468 2.546 . S
Tb424 O469 2.610 . S
Tb424 O471 2.320 . S
Tb424 O472 2.552 . S
Tb424 O473 2.413 . S
Tb424 O475 2.362 . S
Tb424 O476 2.421 . S
Tb424 C488 2.833 . S
C425 C428 1.432 . S
C425 C429 1.414 . S
C425 N432 1.359 . S
C426 C428 1.417 . S
C426 C430 1.432 . S
C426 C438 1.410 . S
C427 C429 1.444 . S
C427 C430 1.317 . S
C427 H450 0.929 . S
C428 C425 1.432 . S
C428 C426 1.417 . S
C428 N436 1.360 . S
C429 C425 1.414 . S
C429 C427 1.444 . S
C429 C434 1.385 . S
C430 C426 1.432 . S
C430 C427 1.317 . S
C430 H442 0.930 . S
C431 C433 1.392 . S
C431 C434 1.370 . S
C431 H443 0.931 . S
N432 C425 1.359 . S
N432 C433 1.327 . S
N432 Tb435 2.600 . S
C433 C431 1.392 . S
C433 N432 1.327 . S
C433 H440 0.930 . S
C434 C429 1.385 . S
C434 C431 1.370 . S
C434 H453 0.930 . S
Tb435 N432 2.600 . S
Tb435 N436 2.660 . S
Tb435 O469 2.362 . S
Tb435 O470 2.421 . S
Tb435 O474 2.546 . S
Tb435 O475 2.610 . S
Tb435 O477 2.320 . S
Tb435 O478 2.552 . S
Tb435 O479 2.413 . S
Tb435 C499 2.833 . S
N436 C428 1.360 . S
N436 Tb435 2.660 . S
N436 C437 1.305 . S
C437 N436 1.305 . S
C437 C439 1.407 . S
C437 H444 0.930 . S
C438 C426 1.410 . S
C438 C439 1.345 . S
C438 H446 0.930 . S
C439 C437 1.407 . S
C439 C438 1.345 . S
C439 H441 0.930 . S
H440 C433 0.930 . S
H441 C439 0.930 . S
H442 C430 0.930 . S
H443 C431 0.931 . S
H444 C437 0.930 . S
H445 C459 0.930 . S
H446 C438 0.930 . S
H447 C465 0.930 . S
H448 C456 0.930 . S
H449 C463 0.931 . S
H450 C427 0.929 . S
H451 C457 0.930 . S
H452 C490 0.930 . S
H453 C434 0.930 . S
H454 C489 0.929 . S
N455 Tb424 2.660 . S
N455 C456 1.305 . S
N455 C460 1.360 . S
C456 H448 0.930 . S
C456 N455 1.305 . S
C456 C459 1.407 . S
C457 H451 0.930 . S
C457 C458 1.410 . S
C457 C459 1.345 . S
C458 C457 1.410 . S
C458 C460 1.417 . S
C458 C490 1.432 . S
C459 H445 0.930 . S
C459 C456 1.407 . S
C459 C457 1.345 . S
C460 N455 1.360 . S
C460 C458 1.417 . S
C460 C464 1.432 . S
H461 C466 0.930 . S
N462 Tb424 2.600 . S
N462 C464 1.359 . S
N462 C465 1.327 . S
C463 H449 0.931 . S
C463 C465 1.392 . S
C463 C466 1.370 . S
C464 C460 1.432 . S
C464 N462 1.359 . S
C464 C467 1.414 . S
C465 H447 0.930 . S
C465 N462 1.327 . S
C465 C463 1.392 . S
C466 H461 0.930 . S
C466 C463 1.370 . S
C466 C467 1.385 . S
C467 C464 1.414 . S
C467 C466 1.385 . S
C467 C489 1.444 . S
O468 Tb424 2.546 . S
O468 C488 1.251 . S
O469 Tb424 2.610 . S
O469 Tb435 2.362 . S
O469 C480 1.283 . S
O470 Tb435 2.421 . S
O470 C487 1.262 . S
O471 Tb424 2.320 . S
O471 C487 1.260 . S
O472 Tb424 2.552 . S
O472 C480 1.243 . S
O473 Tb424 2.413 . S
O473 C488 1.256 . S
O474 Tb435 2.546 . S
O474 C499 1.251 . S
O475 Tb424 2.362 . S
O475 Tb435 2.610 . S
O475 C491 1.283 . S
O476 Tb424 2.421 . S
O476 C498 1.262 . S
O477 Tb435 2.320 . S
O477 C498 1.260 . S
O478 Tb435 2.552 . S
O478 C491 1.243 . S
O479 Tb435 2.413 . S
O479 C499 1.256 . S
C480 O469 1.283 . S
C480 O472 1.243 . S
C481 C483 1.382 . S
C481 C485 1.393 . S
C481 C488 1.500 . S
C482 C483 1.400 . S
C482 C484 1.384 . S
C483 C481 1.382 . S
C483 C482 1.400 . S
C483 H500 0.930 . S
C484 C482 1.384 . S
C484 C486 1.392 . S
C484 H501 0.931 . S
C485 C481 1.393 . S
C485 C486 1.401 . S
C485 H502 0.930 . S
C486 C484 1.392 . S
C486 C485 1.401 . S
C486 H503 0.930 . S
C487 O470 1.262 . S
C487 O471 1.260 . S
C488 Tb424 2.833 . S
C488 O468 1.251 . S
C488 O473 1.256 . S
C488 C481 1.500 . S
C489 H454 0.929 . S
C489 C467 1.444 . S
C489 C490 1.317 . S
C490 H452 0.930 . S
C490 C458 1.432 . S
C490 C489 1.317 . S
C491 O475 1.283 . S
C491 O478 1.243 . S
C492 C493 1.382 . S
C492 C496 1.393 . S
C492 C499 1.500 . S
C493 C492 1.382 . S
C493 C494 1.400 . S
C493 H504 0.930 . S
C494 C493 1.400 . S
C494 C495 1.384 1_556 S
C495 C494 1.384 1_554 S
C495 C497 1.392 . S
C495 H505 0.931 . S
C496 C492 1.393 . S
C496 C497 1.401 1_556 S
C496 H506 0.930 . S
C497 C495 1.392 . S
C497 C496 1.401 1_554 S
C497 H507 0.930 . S
C498 O476 1.262 . S
C498 O477 1.260 . S
C499 Tb435 2.833 . S
C499 O474 1.251 . S
C499 O479 1.256 . S
C499 C492 1.500 . S
H500 C483 0.930 . S
H501 C484 0.931 . S
H502 C485 0.930 . S
H503 C486 0.930 . S
H504 C493 0.930 . S
H505 C495 0.931 . S
H506 C496 0.930 . S
H507 C497 0.930 . S
Tb508 N539 2.660 . S
Tb508 N546 2.600 . S
Tb508 O552 2.546 . S
Tb508 O553 2.610 . S
Tb508 O555 2.320 . S
Tb508 O556 2.552 . S
Tb508 O557 2.413 . S
Tb508 O559 2.355 1_455 S
Tb508 O560 2.421 1_455 S
Tb508 C572 2.833 . S
C509 C512 1.432 . S
C509 C513 1.414 . S
C509 N516 1.359 . S
C510 C512 1.417 . S
C510 C514 1.432 . S
C510 C522 1.410 . S
C511 C513 1.444 . S
C511 C514 1.317 . S
C511 H534 0.929 . S
C512 C509 1.432 . S
C512 C510 1.417 . S
C512 N520 1.360 . S
C513 C509 1.414 . S
C513 C511 1.444 . S
C513 C518 1.390 . S
C514 C510 1.432 . S
C514 C511 1.317 . S
C514 H526 0.930 . S
C515 C517 1.392 . S
C515 C518 1.365 1_455 S
C515 H527 0.931 . S
N516 C509 1.359 . S
N516 C517 1.327 1_655 S
N516 Tb519 2.600 . S
C517 C515 1.392 . S
C517 N516 1.327 1_455 S
C517 H524 0.930 . S
C518 C513 1.390 . S
C518 C515 1.365 1_655 S
C518 H537 0.928 1_655 S
Tb519 N516 2.600 . S
Tb519 N520 2.660 . S
Tb519 O553 2.362 1_655 S
Tb519 O554 2.421 1_655 S
Tb519 O558 2.546 . S
Tb519 O559 2.614 . S
Tb519 O561 2.320 . S
Tb519 O562 2.552 . S
Tb519 O563 2.413 . S
Tb519 C583 2.833 . S
N520 C512 1.360 . S
N520 Tb519 2.660 . S
N520 C521 1.305 . S
C521 N520 1.305 . S
C521 C523 1.407 . S
C521 H528 0.930 . S
C522 C510 1.410 . S
C522 C523 1.345 . S
C522 H530 0.930 . S
C523 C521 1.407 . S
C523 C522 1.345 . S
C523 H525 0.930 . S
H524 C517 0.930 . S
H525 C523 0.930 . S
H526 C514 0.930 . S
H527 C515 0.931 . S
H528 C521 0.930 . S
H529 C543 0.930 . S
H530 C522 0.930 . S
H531 C549 0.939 . S
H532 C540 0.930 . S
H533 C547 0.931 . S
H534 C511 0.929 . S
H535 C541 0.930 . S
H536 C574 0.930 . S
H537 C518 0.928 1_455 S
H538 C573 0.929 . S
N539 Tb508 2.660 . S
N539 C540 1.305 . S
N539 C544 1.360 . S
C540 H532 0.930 . S
C540 N539 1.305 . S
C540 C543 1.407 . S
C541 H535 0.930 . S
C541 C542 1.410 . S
C541 C543 1.345 . S
C542 C541 1.410 . S
C542 C544 1.417 . S
C542 C574 1.432 . S
C543 H529 0.930 . S
C543 C540 1.407 . S
C543 C541 1.345 . S
C544 N539 1.360 . S
C544 C542 1.417 . S
C544 C548 1.432 . S
H545 C550 0.930 . S
N546 Tb508 2.600 . S
N546 C548 1.359 . S
N546 C549 1.316 1_455 S
C547 H533 0.931 . S
C547 C549 1.395 . S
C547 C550 1.370 1_655 S
C548 C544 1.432 . S
C548 N546 1.359 . S
C548 C551 1.414 . S
C549 H531 0.939 . S
C549 N546 1.316 1_655 S
C549 C547 1.395 . S
C550 H545 0.930 . S
C550 C547 1.370 1_455 S
C550 C551 1.385 . S
C551 C548 1.414 . S
C551 C550 1.385 . S
C551 C573 1.444 . S
O552 Tb508 2.546 . S
O552 C572 1.251 . S
O553 Tb508 2.610 . S
O553 Tb519 2.362 1_455 S
O553 C564 1.283 . S
O554 Tb519 2.421 1_455 S
O554 C571 1.262 . S
O555 Tb508 2.320 . S
O555 C571 1.260 . S
O556 Tb508 2.552 . S
O556 C564 1.243 . S
O557 Tb508 2.413 . S
O557 C572 1.256 . S
O558 Tb519 2.546 . S
O558 C583 1.251 . S
O559 Tb508 2.355 1_655 S
O559 Tb519 2.614 . S
O559 C575 1.288 . S
O560 Tb508 2.421 1_655 S
O560 C582 1.262 . S
O561 Tb519 2.320 . S
O561 C582 1.260 . S
O562 Tb519 2.552 . S
O562 C575 1.243 . S
O563 Tb519 2.413 . S
O563 C583 1.256 . S
C564 O553 1.283 . S
C564 O556 1.243 . S
C565 C567 1.382 . S
C565 C569 1.393 . S
C565 C572 1.500 . S
C566 C567 1.400 . S
C566 C568 1.384 . S
C567 C565 1.382 . S
C567 C566 1.400 . S
C567 H584 0.930 . S
C568 C566 1.384 . S
C568 C570 1.392 . S
C568 H585 0.931 . S
C569 C565 1.393 . S
C569 C570 1.401 . S
C569 H586 0.930 . S
C570 C568 1.392 . S
C570 C569 1.401 . S
C570 H587 0.930 . S
C571 O554 1.262 . S
C571 O555 1.260 . S
C572 Tb508 2.833 . S
C572 O552 1.251 . S
C572 O557 1.256 . S
C572 C565 1.500 . S
C573 H538 0.929 . S
C573 C551 1.444 . S
C573 C574 1.317 . S
C574 H536 0.930 . S
C574 C542 1.432 . S
C574 C573 1.317 . S
C575 O559 1.288 . S
C575 O562 1.243 . S
C576 C577 1.382 . S
C576 C580 1.393 . S
C576 C583 1.500 . S
C577 C576 1.382 . S
C577 C578 1.400 . S
C577 H588 0.930 . S
C578 C577 1.400 . S
C578 C579 1.384 1_556 S
C579 C578 1.384 1_554 S
C579 C581 1.392 . S
C579 H589 0.931 . S
C580 C576 1.393 . S
C580 C581 1.401 1_556 S
C580 H590 0.930 . S
C581 C579 1.392 . S
C581 C580 1.401 1_554 S
C581 H591 0.930 . S
C582 O560 1.262 . S
C582 O561 1.260 . S
C583 Tb519 2.833 . S
C583 O558 1.251 . S
C583 O563 1.256 . S
C583 C576 1.500 . S
H584 C567 0.930 . S
H585 C568 0.931 . S
H586 C569 0.930 . S
H587 C570 0.930 . S
H588 C577 0.930 . S
H589 C579 0.931 . S
H590 C580 0.930 . S
H591 C581 0.930 . S
H592 C598 0.930 . S
H593 C601 0.930 . S
H594 C602 0.930 1_565 S
H595 C603 0.930 1_565 S
H596 C606 0.930 . S
H597 C607 0.930 . S
C598 H592 0.930 . S
C598 C599 1.355 . S
C598 C600 1.415 . S
C599 C598 1.355 . S
C599 C601 1.419 . S
C600 C598 1.415 . S
C600 C605 1.425 . S
C600 C607 1.409 . S
C601 H593 0.930 . S
C601 C599 1.419 . S
C601 C602 1.362 . S
C602 H594 0.930 1_545 S
C602 C601 1.362 . S
C602 C605 1.409 . S
C603 H595 0.930 1_545 S
C603 C604 1.355 . S
C603 C605 1.415 . S
C604 C603 1.355 . S
C604 C606 1.419 . S
C605 C600 1.425 . S
C605 C602 1.409 . S
C605 C603 1.415 . S
C606 H596 0.930 . S
C606 C604 1.419 . S
C606 C607 1.362 . S
C607 H597 0.930 . S
C607 C600 1.409 . S
C607 C606 1.362 . S
H608 C614 0.930 . S
H609 C617 0.930 . S
H610 C618 0.930 . S
H611 C619 0.930 . S
H612 C622 0.930 . S
H613 C623 0.930 . S
C614 H608 0.930 . S
C614 C615 1.355 . S
C614 C616 1.415 . S
C615 C614 1.355 . S
C615 C617 1.419 . S
C616 C614 1.415 . S
C616 C621 1.425 . S
C616 C623 1.409 . S
C617 H609 0.930 . S
C617 C615 1.419 . S
C617 C618 1.362 . S
C618 H610 0.930 . S
C618 C617 1.362 . S
C618 C621 1.409 . S
C619 H611 0.930 . S
C619 C620 1.355 . S
C619 C621 1.415 . S
C620 C619 1.355 . S
C620 C622 1.419 . S
C621 C616 1.425 . S
C621 C618 1.409 . S
C621 C619 1.415 . S
C622 H612 0.930 . S
C622 C620 1.419 . S
C622 C623 1.362 . S
C623 H613 0.930 . S
C623 C616 1.409 . S
C623 C622 1.362 . S
H624 C630 0.930 . S
H625 C633 0.930 . S
H626 C634 0.930 . S
H627 C635 0.930 . S
H628 C638 0.930 . S
H629 C639 0.930 . S
C630 H624 0.930 . S
C630 C631 1.355 . S
C630 C632 1.415 . S
C631 C630 1.355 . S
C631 C633 1.419 . S
C632 C630 1.415 . S
C632 C637 1.425 . S
C632 C639 1.409 . S
C633 H625 0.930 . S
C633 C631 1.419 . S
C633 C634 1.362 . S
C634 H626 0.930 . S
C634 C633 1.362 . S
C634 C637 1.409 . S
C635 H627 0.930 . S
C635 C636 1.355 . S
C635 C637 1.415 . S
C636 C635 1.355 . S
C636 C638 1.419 . S
C637 C632 1.425 . S
C637 C634 1.409 . S
C637 C635 1.415 . S
C638 H628 0.930 . S
C638 C636 1.419 . S
C638 C639 1.362 . S
C639 H629 0.930 . S
C639 C632 1.409 . S
C639 C638 1.362 . S
H640 C646 0.930 . S
H641 C649 0.930 . S
H642 C650 0.930 1_655 S
H643 C651 0.930 1_655 S
H644 C654 0.930 . S
H645 C655 0.930 . S
C646 H640 0.930 . S
C646 C647 1.355 . S
C646 C648 1.415 . S
C647 C646 1.355 . S
C647 C649 1.419 . S
C648 C646 1.415 . S
C648 C653 1.425 . S
C648 C655 1.409 . S
C649 H641 0.930 . S
C649 C647 1.419 . S
C649 C650 1.362 . S
C650 H642 0.930 1_455 S
C650 C649 1.362 . S
C650 C653 1.409 . S
C651 H643 0.930 1_455 S
C651 C652 1.355 . S
C651 C653 1.415 . S
C652 C651 1.355 . S
C652 C654 1.419 . S
C653 C648 1.425 . S
C653 C650 1.409 . S
C653 C651 1.415 . S
C654 H644 0.930 . S
C654 C652 1.419 . S
C654 C655 1.362 . S
C655 H645 0.930 . S
C655 C648 1.409 . S
C655 C654 1.362 . S
H656 C662 0.930 . S
H657 C665 0.930 . S
H658 C666 0.930 . S
H659 C667 0.930 . S
H660 C670 0.930 . S
H661 C671 0.930 . S
C662 H656 0.930 . S
C662 C663 1.355 . S
C662 C664 1.412 1_554 S
C663 C662 1.355 . S
C663 C665 1.419 . S
C664 C662 1.412 1_556 S
C664 C669 1.427 . S
C664 C671 1.410 1_565 S
C665 H657 0.930 . S
C665 C663 1.419 . S
C665 C666 1.362 1_554 S
C666 H658 0.930 . S
C666 C665 1.362 1_556 S
C666 C669 1.409 . S
C667 H659 0.930 . S
C667 C668 1.355 . S
C667 C669 1.415 . S
C668 C667 1.355 . S
C668 C670 1.419 1_565 S
C669 C664 1.427 . S
C669 C666 1.409 . S
C669 C667 1.415 . S
C670 H660 0.930 . S
C670 C668 1.419 1_545 S
C670 C671 1.362 . S
C671 H661 0.930 . S
C671 C664 1.410 1_545 S
C671 C670 1.362 . S
H672 C678 0.930 . S
H673 C681 0.930 . S
H674 C682 0.930 . S
H675 C683 0.930 . S
H676 C686 0.930 . S
H677 C687 0.930 1_554 S
C678 H672 0.930 . S
C678 C679 1.355 . S
C678 C680 1.415 . S
C679 C678 1.355 . S
C679 C681 1.419 . S
C680 C678 1.415 . S
C680 C685 1.425 1_554 S
C680 C687 1.409 1_554 S
C681 H673 0.930 . S
C681 C679 1.419 . S
C681 C682 1.362 1_554 S
C682 H674 0.930 . S
C682 C681 1.362 1_556 S
C682 C685 1.409 . S
C683 H675 0.930 . S
C683 C684 1.355 . S
C683 C685 1.415 . S
C684 C683 1.355 . S
C684 C686 1.419 . S
C685 C680 1.425 1_556 S
C685 C682 1.409 . S
C685 C683 1.415 . S
C686 H676 0.930 . S
C686 C684 1.419 . S
C686 C687 1.362 . S
C687 H677 0.930 1_556 S
C687 C680 1.409 1_556 S
C687 C686 1.362 . S
H688 C694 0.930 . S
H689 C697 0.930 . S
H690 C698 0.930 . S
H691 C699 0.930 . S
H692 C702 0.930 . S
H693 C703 0.930 1_554 S
C694 H688 0.930 . S
C694 C695 1.355 . S
C694 C696 1.412 1_554 S
C695 C694 1.355 . S
C695 C697 1.419 . S
C696 C694 1.412 1_556 S
C696 C701 1.427 . S
C696 C703 1.410 . S
C697 H689 0.930 . S
C697 C695 1.419 . S
C697 C698 1.362 1_554 S
C698 H690 0.930 . S
C698 C697 1.362 1_556 S
C698 C701 1.409 . S
C699 H691 0.930 . S
C699 C700 1.355 . S
C699 C701 1.415 . S
C700 C699 1.355 . S
C700 C702 1.419 . S
C701 C696 1.427 . S
C701 C698 1.409 . S
C701 C699 1.415 . S
C702 H692 0.930 . S
C702 C700 1.419 . S
C702 C703 1.362 . S
C703 H693 0.930 1_556 S
C703 C696 1.410 . S
C703 C702 1.362 . S
H704 C710 0.930 . S
H705 C713 0.930 . S
H706 C714 0.930 1_455 S
H707 C715 0.930 1_455 S
H708 C718 0.930 . S
H709 C719 0.930 . S
C710 H704 0.930 . S
C710 C711 1.355 . S
C710 C712 1.415 1_554 S
C711 C710 1.355 . S
C711 C713 1.419 . S
C712 C710 1.415 1_556 S
C712 C717 1.425 . S
C712 C719 1.409 . S
C713 H705 0.930 . S
C713 C711 1.419 . S
C713 C714 1.362 . S
C714 H706 0.930 1_655 S
C714 C713 1.362 . S
C714 C717 1.409 1_554 S
C715 H707 0.930 1_655 S
C715 C716 1.355 . S
C715 C717 1.415 . S
C716 C715 1.355 . S
C716 C718 1.419 . S
C717 C712 1.425 . S
C717 C714 1.409 1_556 S
C717 C715 1.415 . S
C718 H708 0.930 . S
C718 C716 1.419 . S
C718 C719 1.362 . S
C719 H709 0.930 . S
C719 C712 1.409 . S
C719 C718 1.362 . S
H720 C726 0.930 . S
H721 C729 0.930 . S
H722 C730 0.930 . S
H723 C731 0.930 . S
H724 C734 0.930 . S
H725 C735 0.930 . S
C726 H720 0.930 . S
C726 C727 1.355 . S
C726 C728 1.415 . S
C727 C726 1.355 . S
C727 C729 1.419 . S
C728 C726 1.415 . S
C728 C733 1.425 . S
C728 C735 1.409 1_455 S
C729 H721 0.930 . S
C729 C727 1.419 . S
C729 C730 1.362 . S
C730 H722 0.930 . S
C730 C729 1.362 . S
C730 C733 1.409 . S
C731 H723 0.930 . S
C731 C732 1.355 1_455 S
C731 C733 1.415 . S
C732 C731 1.355 1_655 S
C732 C734 1.419 . S
C733 C728 1.425 . S
C733 C730 1.409 . S
C733 C731 1.415 . S
C734 H724 0.930 . S
C734 C732 1.419 . S
C734 C735 1.362 . S
C735 H725 0.930 . S
C735 C728 1.409 1_655 S
C735 C734 1.362 . S
H736 C742 0.930 . S
H737 C745 0.930 . S
H738 C746 0.930 1_565 S
H739 C747 0.930 . S
H740 C750 0.930 . S
H741 C751 0.930 . S
C742 H736 0.930 . S
C742 C743 1.355 . S
C742 C744 1.415 . S
C743 C742 1.355 . S
C743 C745 1.419 . S
C744 C742 1.415 . S
C744 C749 1.425 . S
C744 C751 1.409 . S
C745 H737 0.930 . S
C745 C743 1.419 . S
C745 C746 1.362 . S
C746 H738 0.930 1_545 S
C746 C745 1.362 . S
C746 C749 1.409 . S
C747 H739 0.930 . S
C747 C748 1.356 . S
C747 C749 1.415 1_565 S
C748 C747 1.356 . S
C748 C750 1.413 1_565 S
C749 C744 1.425 . S
C749 C746 1.409 . S
C749 C747 1.415 1_545 S
C750 H740 0.930 . S
C750 C748 1.413 1_545 S
C750 C751 1.362 . S
C751 H741 0.930 . S
C751 C744 1.409 . S
C751 C750 1.362 . S
H752 C758 0.930 . S
H753 C761 0.930 . S
H754 C762 0.930 . S
H755 C763 0.930 . S
H756 C766 0.930 . S
H757 C767 0.930 . S
C758 H752 0.930 . S
C758 C759 1.355 . S
C758 C760 1.415 . S
C759 C758 1.355 . S
C759 C761 1.419 . S
C760 C758 1.415 . S
C760 C765 1.425 . S
C760 C767 1.409 . S
C761 H753 0.930 . S
C761 C759 1.419 . S
C761 C762 1.362 . S
C762 H754 0.930 . S
C762 C761 1.362 . S
C762 C765 1.409 . S
C763 H755 0.930 . S
C763 C764 1.355 . S
C763 C765 1.415 . S
C764 C763 1.355 . S
C764 C766 1.419 . S
C765 C760 1.425 . S
C765 C762 1.409 . S
C765 C763 1.415 . S
C766 H756 0.930 . S
C766 C764 1.419 . S
C766 C767 1.362 . S
C767 H757 0.930 . S
C767 C760 1.409 . S
C767 C766 1.362 . S
H768 C774 0.930 . S
H769 C777 0.930 . S
H770 C778 0.930 . S
H771 C779 0.930 . S
H772 C782 0.930 . S
H773 C783 0.930 . S
C774 H768 0.930 . S
C774 C775 1.355 . S
C774 C776 1.415 . S
C775 C774 1.355 . S
C775 C777 1.419 . S
C776 C774 1.415 . S
C776 C781 1.425 . S
C776 C783 1.409 . S
C777 H769 0.930 . S
C777 C775 1.419 . S
C777 C778 1.362 . S
C778 H770 0.930 . S
C778 C777 1.362 . S
C778 C781 1.409 . S
C779 H771 0.930 . S
C779 C780 1.355 . S
C779 C781 1.415 . S
C780 C779 1.355 . S
C780 C782 1.419 . S
C781 C776 1.425 . S
C781 C778 1.409 . S
C781 C779 1.415 . S
C782 H772 0.930 . S
C782 C780 1.419 . S
C782 C783 1.362 . S
C783 H773 0.930 . S
C783 C776 1.409 . S
C783 C782 1.362 . S
H784 C790 0.930 . S
H785 C793 0.930 . S
H786 C794 0.930 . S
H787 C795 0.920 1_455 S
H788 C798 0.930 . S
H789 C799 0.930 . S
C790 H784 0.930 . S
C790 C791 1.355 . S
C790 C792 1.415 . S
C791 C790 1.355 . S
C791 C793 1.419 1_554 S
C792 C790 1.415 . S
C792 C797 1.425 1_554 S
C792 C799 1.409 . S
C793 H785 0.930 . S
C793 C791 1.419 1_556 S
C793 C794 1.362 . S
C794 H786 0.930 . S
C794 C793 1.362 . S
C794 C797 1.409 . S
C795 H787 0.920 1_655 S
C795 C796 1.342 1_655 S
C795 C797 1.437 . S
C796 C795 1.342 1_455 S
C796 C798 1.419 1_556 S
C797 C792 1.425 1_556 S
C797 C794 1.409 . S
C797 C795 1.437 . S
C798 H788 0.930 . S
C798 C796 1.419 1_554 S
C798 C799 1.362 1_455 S
C799 H789 0.930 . S
C799 C792 1.409 . S
C799 C798 1.362 1_655 S
H800 C806 0.930 . S
H801 C809 0.930 . S
H802 C810 0.933 1_545 S
H803 C811 0.930 . S
H804 C814 0.930 . S
H805 C815 0.930 . S
C806 H800 0.930 . S
C806 C807 1.355 . S
C806 C808 1.415 . S
C807 C806 1.355 . S
C807 C809 1.419 . S
C808 C806 1.415 . S
C808 C813 1.423 1_554 S
C808 C815 1.409 . S
C809 H801 0.930 . S
C809 C807 1.419 . S
C809 C810 1.362 . S
C810 H802 0.933 1_565 S
C810 C809 1.362 . S
C810 C813 1.408 1_554 S
C811 H803 0.930 . S
C811 C812 1.355 . S
C811 C813 1.418 1_545 S
C812 C811 1.355 . S
C812 C814 1.419 1_545 S
C813 C808 1.423 1_556 S
C813 C810 1.408 1_556 S
C813 C811 1.418 1_565 S
C814 H804 0.930 . S
C814 C812 1.419 1_565 S
C814 C815 1.362 1_556 S
C815 H805 0.930 . S
C815 C808 1.409 . S
C815 C814 1.362 1_554 S
H816 C822 0.930 . S
H817 C825 0.930 . S
H818 C826 0.930 . S
H819 C827 0.930 . S
H820 C830 0.930 . S
H821 C831 0.930 . S
C822 H816 0.930 . S
C822 C823 1.355 . S
C822 C824 1.415 . S
C823 C822 1.355 . S
C823 C825 1.419 . S
C824 C822 1.415 . S
C824 C829 1.425 1_554 S
C824 C831 1.409 . S
C825 H817 0.930 . S
C825 C823 1.419 . S
C825 C826 1.362 1_554 S
C826 H818 0.930 . S
C826 C825 1.362 1_556 S
C826 C829 1.409 . S
C827 H819 0.930 . S
C827 C828 1.355 . S
C827 C829 1.415 . S
C828 C827 1.355 . S
C828 C830 1.419 1_556 S
C829 C824 1.425 1_556 S
C829 C826 1.409 . S
C829 C827 1.415 . S
C830 H820 0.930 . S
C830 C828 1.419 1_554 S
C830 C831 1.362 . S
C831 H821 0.930 . S
C831 C824 1.409 . S
C831 C830 1.362 . S
H832 C838 0.930 . S
H833 C841 0.930 . S
H834 C842 0.930 . S
H835 C843 0.930 . S
H836 C846 0.930 . S
H837 C847 0.930 . S
C838 H832 0.930 . S
C838 C839 1.355 . S
C838 C840 1.415 . S
C839 C838 1.355 . S
C839 C841 1.419 1_554 S
C840 C838 1.415 . S
C840 C845 1.425 1_554 S
C840 C847 1.409 . S
C841 H833 0.930 . S
C841 C839 1.419 1_556 S
C841 C842 1.362 . S
C842 H834 0.930 . S
C842 C841 1.362 . S
C842 C845 1.409 . S
C843 H835 0.930 . S
C843 C844 1.355 . S
C843 C845 1.415 . S
C844 C843 1.355 . S
C844 C846 1.419 1_556 S
C845 C840 1.425 1_556 S
C845 C842 1.409 . S
C845 C843 1.415 . S
C846 H836 0.930 . S
C846 C844 1.419 1_554 S
C846 C847 1.362 . S
C847 H837 0.930 . S
C847 C840 1.409 . S
C847 C846 1.362 . S
H848 C854 0.930 . S
H849 C857 0.930 . S
H850 C858 0.930 . S
H851 C859 0.930 . S
H852 C862 0.930 . S
H853 C863 0.930 . S
C854 H848 0.930 . S
C854 C855 1.355 . S
C854 C856 1.415 . S
C855 C854 1.355 . S
C855 C857 1.419 . S
C856 C854 1.415 . S
C856 C861 1.425 . S
C856 C863 1.409 . S
C857 H849 0.930 . S
C857 C855 1.419 . S
C857 C858 1.362 . S
C858 H850 0.930 . S
C858 C857 1.362 . S
C858 C861 1.409 . S
C859 H851 0.930 . S
C859 C860 1.355 . S
C859 C861 1.415 . S
C860 C859 1.355 . S
C860 C862 1.419 . S
C861 C856 1.425 . S
C861 C858 1.409 . S
C861 C859 1.415 . S
C862 H852 0.930 . S
C862 C860 1.419 . S
C862 C863 1.362 . S
C863 H853 0.930 . S
C863 C856 1.409 . S
C863 C862 1.362 . S
H864 C870 0.930 . S
H865 C873 0.930 . S
H866 C874 0.913 1_565 S
H867 C875 0.930 . S
H868 C878 0.930 . S
H869 C879 0.930 . S
C870 H864 0.930 . S
C870 C871 1.355 . S
C870 C872 1.415 . S
C871 C870 1.355 . S
C871 C873 1.419 . S
C872 C870 1.415 . S
C872 C877 1.425 . S
C872 C879 1.409 . S
C873 H865 0.930 . S
C873 C871 1.419 . S
C873 C874 1.362 . S
C874 H866 0.913 1_545 S
C874 C873 1.362 . S
C874 C877 1.409 . S
C875 H867 0.930 . S
C875 C876 1.355 . S
C875 C877 1.415 . S
C876 C875 1.355 . S
C876 C878 1.419 . S
C877 C872 1.425 . S
C877 C874 1.409 . S
C877 C875 1.415 . S
C878 H868 0.930 . S
C878 C876 1.419 . S
C878 C879 1.362 . S
C879 H869 0.930 . S
C879 C872 1.409 . S
C879 C878 1.362 . S
H880 C886 0.930 . S
H881 C889 0.930 . S
H882 C890 0.930 . S
H883 C891 0.930 . S
H884 C894 0.930 . S
H885 C895 0.930 . S
C886 H880 0.930 . S
C886 C887 1.355 . S
C886 C888 1.415 . S
C887 C886 1.355 . S
C887 C889 1.419 . S
C888 C886 1.415 . S
C888 C893 1.425 . S
C888 C895 1.409 . S
C889 H881 0.930 . S
C889 C887 1.419 . S
C889 C890 1.362 . S
C890 H882 0.930 . S
C890 C889 1.362 . S
C890 C893 1.409 . S
C891 H883 0.930 . S
C891 C892 1.355 . S
C891 C893 1.415 . S
C892 C891 1.355 . S
C892 C894 1.419 . S
C893 C888 1.425 . S
C893 C890 1.409 . S
C893 C891 1.415 . S
C894 H884 0.930 . S
C894 C892 1.419 . S
C894 C895 1.362 . S
C895 H885 0.930 . S
C895 C888 1.409 . S
C895 C894 1.362 . S
H896 C902 0.930 . S
H897 C905 0.930 . S
H898 C906 0.930 . S
H899 C907 0.930 . S
H900 C910 0.930 . S
H901 C911 0.930 . S
C902 H896 0.930 . S
C902 C903 1.355 . S
C902 C904 1.415 . S
C903 C902 1.355 . S
C903 C905 1.419 . S
C904 C902 1.415 . S
C904 C909 1.425 . S
C904 C911 1.409 . S
C905 H897 0.930 . S
C905 C903 1.419 . S
C905 C906 1.362 . S
C906 H898 0.930 . S
C906 C905 1.362 . S
C906 C909 1.409 . S
C907 H899 0.930 . S
C907 C908 1.355 . S
C907 C909 1.415 . S
C908 C907 1.355 . S
C908 C910 1.419 . S
C909 C904 1.425 . S
C909 C906 1.409 . S
C909 C907 1.415 . S
C910 H900 0.930 . S
C910 C908 1.419 . S
C910 C911 1.362 . S
C911 H901 0.930 . S
C911 C904 1.409 . S
C911 C910 1.362 . S
H912 C918 0.930 . S
H913 C921 0.930 . S
H914 C922 0.930 1_455 S
H915 C923 0.930 1_455 S
H916 C926 0.930 . S
H917 C927 0.930 . S
C918 H912 0.930 . S
C918 C919 1.355 . S
C918 C920 1.415 . S
C919 C918 1.355 . S
C919 C921 1.419 . S
C920 C918 1.415 . S
C920 C925 1.425 . S
C920 C927 1.409 . S
C921 H913 0.930 . S
C921 C919 1.419 . S
C921 C922 1.362 . S
C922 H914 0.930 1_655 S
C922 C921 1.362 . S
C922 C925 1.409 . S
C923 H915 0.930 1_655 S
C923 C924 1.355 . S
C923 C925 1.415 . S
C924 C923 1.355 . S
C924 C926 1.419 . S
C925 C920 1.425 . S
C925 C922 1.409 . S
C925 C923 1.415 . S
C926 H916 0.930 . S
C926 C924 1.419 . S
C926 C927 1.362 . S
C927 H917 0.930 . S
C927 C920 1.409 . S
C927 C926 1.362 . S
H928 C934 0.930 . S
H929 C937 0.932 1_545 S
H930 C938 0.930 1_545 S
H931 C939 0.930 1_545 S
H932 C942 0.930 . S
H933 C943 0.930 . S
C934 H928 0.930 . S
C934 C935 1.355 . S
C934 C936 1.415 . S
C935 C934 1.355 . S
C935 C937 1.419 . S
C936 C934 1.415 . S
C936 C941 1.425 . S
C936 C943 1.409 . S
C937 H929 0.932 1_565 S
C937 C935 1.419 . S
C937 C938 1.362 . S
C938 H930 0.930 1_565 S
C938 C937 1.362 . S
C938 C941 1.409 . S
C939 H931 0.930 1_565 S
C939 C940 1.355 . S
C939 C941 1.415 . S
C940 C939 1.355 . S
C940 C942 1.419 . S
C941 C936 1.425 . S
C941 C938 1.409 . S
C941 C939 1.415 . S
C942 H932 0.930 . S
C942 C940 1.419 . S
C942 C943 1.362 . S
C943 H933 0.930 . S
C943 C936 1.409 . S
C943 C942 1.362 . S
H944 C950 0.930 . S
H945 C953 0.930 . S
H946 C954 0.930 . S
H947 C955 0.930 . S
H948 C958 0.930 . S
H949 C959 0.930 . S
C950 H944 0.930 . S
C950 C951 1.355 . S
C950 C952 1.415 . S
C951 C950 1.355 . S
C951 C953 1.419 . S
C952 C950 1.415 . S
C952 C957 1.425 . S
C952 C959 1.409 . S
C953 H945 0.930 . S
C953 C951 1.419 . S
C953 C954 1.362 . S
C954 H946 0.930 . S
C954 C953 1.362 . S
C954 C957 1.409 . S
C955 H947 0.930 . S
C955 C956 1.355 . S
C955 C957 1.415 . S
C956 C955 1.355 . S
C956 C958 1.419 . S
C957 C952 1.425 . S
C957 C954 1.409 . S
C957 C955 1.415 . S
C958 H948 0.930 . S
C958 C956 1.419 . S
C958 C959 1.362 . S
C959 H949 0.930 . S
C959 C952 1.409 . S
C959 C958 1.362 . S
H960 C966 0.930 . S
H961 C969 0.930 . S
H962 C970 0.930 . S
H963 C971 0.930 . S
H964 C974 0.930 . S
H965 C975 0.930 . S
C966 H960 0.930 . S
C966 C967 1.355 . S
C966 C968 1.415 . S
C967 C966 1.355 . S
C967 C969 1.419 . S
C968 C966 1.415 . S
C968 C973 1.425 . S
C968 C975 1.409 . S
C969 H961 0.930 . S
C969 C967 1.419 . S
C969 C970 1.362 . S
C970 H962 0.930 . S
C970 C969 1.362 . S
C970 C973 1.409 . S
C971 H963 0.930 . S
C971 C972 1.355 . S
C971 C973 1.415 . S
C972 C971 1.355 . S
C972 C974 1.419 . S
C973 C968 1.425 . S
C973 C970 1.409 . S
C973 C971 1.415 . S
C974 H964 0.930 . S
C974 C972 1.419 . S
C974 C975 1.362 . S
C975 H965 0.930 . S
C975 C968 1.409 . S
C975 C974 1.362 . S
C599 C215 2.228 . S
C604 C330 2.271 . S
C620 C414 2.260 . S
C615 C247 2.224 . S
C636 C480 2.203 . S
C631 C151 2.376 . S
C652 C564 2.143 . S
C647 C183 2.330 . S
C668 C319 2.256 1_565 S
C663 C87 2.154 . S
C679 C119 2.111 . S
C684 C403 2.262 . S
C695 C23 2.225 . S
C700 C491 2.157 . S
C711 C55 2.218 . S
C716 C575 2.185 . S
C732 C326 0.761 . S
C727 C189 0.830 . S
C748 C410 0.773 . S
C743 C221 0.699 . S
C764 C482 0.728 . S
C759 C253 0.719 . S
C775 C157 0.769 . S
C780 C566 0.695 . S
C791 C61 0.822 . S
C796 C314 0.779 . S
C812 C398 0.754 . S
C807 C93 0.679 . S
C828 C494 0.647 . S
C823 C125 0.719 . S
C839 C29 0.871 . S
C844 C578 0.734 . S
C855 C177 2.621 . S
C860 C323 2.689 . S
C871 C209 2.559 . S
C876 C407 2.650 . S
C892 C487 2.707 . S
C887 C241 2.481 . S
C908 C571 2.734 . S
C903 C145 2.512 . S
C919 C49 2.471 . S
C924 C312 2.671 . S
C940 C396 2.651 . S
C935 C81 2.458 . S
C956 C498 2.709 . S
C951 C113 2.411 . S
C967 C17 2.395 . S
C972 C582 2.727 . S
