# Generated by pormake.
# Topology apo, (3,6)-cn, num edge types: 1
# Building blocks:
#     Node 0, Type 0, BuildingBlock: QEWDON_clean_linker_0, # of connection points: 3
#     Node 1, Type 0, BuildingBlock: QEWDON_clean_linker_0, # of connection points: 3
#     Node 2, Type 0, BuildingBlock: QEWDON_clean_linker_0, # of connection points: 3
#     Node 3, Type 0, BuildingBlock: QEWDON_clean_linker_0, # of connection points: 3
#     Node 4, Type 0, BuildingBlock: QEWDON_clean_linker_0, # of connection points: 3
#     Node 5, Type 0, BuildingBlock: QEWDON_clean_linker_0, # of connection points: 3
#     Node 6, Type 0, BuildingBlock: QEWDON_clean_linker_0, # of connection points: 3
#     Node 7, Type 0, BuildingBlock: QEWDON_clean_linker_0, # of connection points: 3
#     Node 8, Type 1, BuildingBlock: KUMBUR_clean_sbu_1, # of connection points: 6
#     Node 9, Type 1, BuildingBlock: KUMBUR_clean_sbu_1, # of connection points: 6
#     Node 10, Type 1, BuildingBlock: KUMBUR_clean_sbu_1, # of connection points: 6
#     Node 11, Type 1, BuildingBlock: KUMBUR_clean_sbu_1, # of connection points: 6
#     Edge 12, Type (0, 1), BuildingBlock: UVAHIK_clean_linker_0, # of connection points: 2
#     Edge 13, Type (0, 1), BuildingBlock: UVAHIK_clean_linker_0, # of connection points: 2
#     Edge 14, Type (0, 1), BuildingBlock: UVAHIK_clean_linker_0, # of connection points: 2
#     Edge 15, Type (0, 1), BuildingBlock: UVAHIK_clean_linker_0, # of connection points: 2
#     Edge 16, Type (0, 1), BuildingBlock: UVAHIK_clean_linker_0, # of connection points: 2
#     Edge 17, Type (0, 1), BuildingBlock: UVAHIK_clean_linker_0, # of connection points: 2
#     Edge 18, Type (0, 1), BuildingBlock: UVAHIK_clean_linker_0, # of connection points: 2
#     Edge 19, Type (0, 1), BuildingBlock: UVAHIK_clean_linker_0, # of connection points: 2
#     Edge 20, Type (0, 1), BuildingBlock: UVAHIK_clean_linker_0, # of connection points: 2
#     Edge 21, Type (0, 1), BuildingBlock: UVAHIK_clean_linker_0, # of connection points: 2
#     Edge 22, Type (0, 1), BuildingBlock: UVAHIK_clean_linker_0, # of connection points: 2
#     Edge 23, Type (0, 1), BuildingBlock: UVAHIK_clean_linker_0, # of connection points: 2
#     Edge 24, Type (0, 1), BuildingBlock: UVAHIK_clean_linker_0, # of connection points: 2
#     Edge 25, Type (0, 1), BuildingBlock: UVAHIK_clean_linker_0, # of connection points: 2
#     Edge 26, Type (0, 1), BuildingBlock: UVAHIK_clean_linker_0, # of connection points: 2
#     Edge 27, Type (0, 1), BuildingBlock: UVAHIK_clean_linker_0, # of connection points: 2
#     Edge 28, Type (0, 1), BuildingBlock: UVAHIK_clean_linker_0, # of connection points: 2
#     Edge 29, Type (0, 1), BuildingBlock: UVAHIK_clean_linker_0, # of connection points: 2
#     Edge 30, Type (0, 1), BuildingBlock: UVAHIK_clean_linker_0, # of connection points: 2
#     Edge 31, Type (0, 1), BuildingBlock: UVAHIK_clean_linker_0, # of connection points: 2
#     Edge 32, Type (0, 1), BuildingBlock: UVAHIK_clean_linker_0, # of connection points: 2
#     Edge 33, Type (0, 1), BuildingBlock: UVAHIK_clean_linker_0, # of connection points: 2
#     Edge 34, Type (0, 1), BuildingBlock: UVAHIK_clean_linker_0, # of connection points: 2
#     Edge 35, Type (0, 1), BuildingBlock: UVAHIK_clean_linker_0, # of connection points: 2
# Relax obj value: 0.074
# Max RMSD: 0.251
# Mean RMSD: 0.202
data_MOF--net-apo--node1-KUMBUR_clean_sbu_1--node2-QEWDON_clean_linker_0--edge1-UVAHIK_clean_linker_0
_symmetry_space_group_name_H-M    P1
_symmetry_Int_Tables_number       1
_symmetry_cell_setting            triclinic
loop_
_symmetry_equiv_pos_as_xyz
'x, y, z'
_cell_length_a     37.948532
_cell_length_b     55.933878
_cell_length_c     64.500755
_cell_angle_alpha  89.937321
_cell_angle_beta   89.947065
_cell_angle_gamma 90.211975
loop_
_atom_site_label
_atom_site_type_symbol
_atom_site_fract_x
_atom_site_fract_y
_atom_site_fract_z
_atom_type_partial_charge
H0 H 0.28349 0.38689 0.38834 0.0
C1 C 0.29567 0.38674 0.40355 0.0
C2 C 0.3266 0.40004 0.40703 0.0
C3 C 0.27925 0.37437 0.41988 0.0
H4 H 0.3653 0.41061 0.42966 0.0
C5 C 0.34162 0.4002 0.42695 0.0
C6 C 0.32523 0.38825 0.44361 0.0
C7 C 0.2941 0.37524 0.43982 0.0
C8 C 0.24421 0.36318 0.41677 0.0
H9 H 0.28042 0.36659 0.45256 0.0
C10 C 0.23883 0.34526 0.40175 0.0
C11 C 0.20491 0.33559 0.39861 0.0
C12 C 0.21554 0.37112 0.42868 0.0
H13 H 0.21906 0.38497 0.44024 0.0
C14 C 0.18195 0.36167 0.42549 0.0
H15 H 0.26081 0.33892 0.39255 0.0
C16 C 0.17657 0.34409 0.4105 0.0
H17 H 0.15031 0.33683 0.40839 0.0
H18 H 0.15998 0.368 0.43465 0.0
H19 H 0.2437 0.12482 0.88713 0.0
C20 C 0.23117 0.12585 0.90222 0.0
C21 C 0.19984 0.11307 0.90598 0.0
C22 C 0.24714 0.13912 0.91815 0.0
H23 H 0.16133 0.10287 0.92886 0.0
C24 C 0.18451 0.1137 0.92582 0.0
C25 C 0.20024 0.12672 0.94203 0.0
C26 C 0.23127 0.1397 0.93785 0.0
C27 C 0.28237 0.15019 0.91511 0.0
H28 H 0.24366 0.15004 0.95005 0.0
C29 C 0.28925 0.16625 0.8987 0.0
C30 C 0.32313 0.17641 0.89628 0.0
C31 C 0.30961 0.14437 0.92895 0.0
H32 H 0.30505 0.13195 0.94158 0.0
C33 C 0.34309 0.15426 0.92653 0.0
H34 H 0.26837 0.17086 0.88798 0.0
C35 C 0.34986 0.17016 0.91036 0.0
H36 H 0.37597 0.17792 0.9091 0.0
H37 H 0.36387 0.14966 0.93729 0.0
H38 H 0.77123 0.12306 0.63419 0.0
C39 C 0.78041 0.12572 0.61843 0.0
C40 C 0.81093 0.11398 0.61145 0.0
C41 C 0.75986 0.1392 0.60469 0.0
H42 H 0.84481 0.10777 0.58507 0.0
C43 C 0.82146 0.11683 0.59064 0.0
C44 C 0.80112 0.13033 0.57669 0.0
C45 C 0.77024 0.14138 0.58389 0.0
C46 C 0.72491 0.14796 0.61125 0.0
H47 H 0.75387 0.15142 0.57324 0.0
C48 C 0.7214 0.16678 0.62558 0.0
C49 C 0.68765 0.17412 0.63206 0.0
C50 C 0.69464 0.13675 0.60334 0.0
H51 H 0.69689 0.12223 0.59231 0.0
C52 C 0.66126 0.14388 0.60986 0.0
H53 H 0.74469 0.17559 0.63165 0.0
C54 C 0.65773 0.16237 0.62419 0.0
H55 H 0.63153 0.16781 0.62888 0.0
H56 H 0.63804 0.13507 0.60377 0.0
H57 H 0.73363 0.38469 0.13852 0.0
C58 C 0.72067 0.38269 0.12365 0.0
C59 C 0.68792 0.39371 0.12006 0.0
C60 C 0.73765 0.37008 0.10775 0.0
H61 H 0.64721 0.40032 0.09737 0.0
C62 C 0.67185 0.39127 0.10048 0.0
C63 C 0.68867 0.37875 0.0844 0.0
C64 C 0.72154 0.36818 0.08824 0.0
C65 C 0.77413 0.3614 0.11045 0.0
H66 H 0.735 0.35868 0.07593 0.0
C67 C 0.78235 0.3429 0.12449 0.0
C68 C 0.81703 0.33396 0.12556 0.0
C69 C 0.80089 0.37136 0.09809 0.0
H70 H 0.79505 0.38564 0.08727 0.0
C71 C 0.83533 0.36306 0.09958 0.0
H72 H 0.76168 0.3349 0.13383 0.0
C73 C 0.84338 0.34444 0.11311 0.0
H74 H 0.87034 0.33819 0.11386 0.0
H75 H 0.85582 0.37092 0.09005 0.0
H76 H 0.69274 0.64592 0.64012 0.0
C77 C 0.68953 0.64211 0.62376 0.0
C78 C 0.68111 0.61873 0.61717 0.0
C79 C 0.69193 0.66092 0.60938 0.0
H80 H 0.66797 0.59685 0.59064 0.0
C81 C 0.67611 0.61443 0.59583 0.0
C82 C 0.67889 0.63303 0.58125 0.0
C83 C 0.68717 0.65613 0.58821 0.0
C84 C 0.69443 0.68612 0.61639 0.0
H85 H 0.6891 0.67069 0.57714 0.0
C86 C 0.72184 0.69423 0.62941 0.0
C87 C 0.72332 0.71846 0.63553 0.0
C88 C 0.66858 0.70233 0.60973 0.0
H89 H 0.6471 0.69647 0.59988 0.0
C90 C 0.66991 0.72617 0.61579 0.0
H91 H 0.74188 0.68185 0.63461 0.0
C92 C 0.69705 0.73423 0.62851 0.0
H93 H 0.69778 0.753 0.63259 0.0
H94 H 0.64992 0.73851 0.6105 0.0
H95 H 0.82635 0.86951 0.14264 0.0
C96 C 0.82996 0.8738 0.12638 0.0
C97 C 0.84013 0.89708 0.12051 0.0
C98 C 0.82586 0.85583 0.11136 0.0
H99 H 0.85507 0.91993 0.09502 0.0
C100 C 0.84582 0.90228 0.09943 0.0
C101 C 0.84226 0.88445 0.08423 0.0
C102 C 0.83179 0.86139 0.09038 0.0
C103 C 0.81858 0.83068 0.11741 0.0
H104 H 0.82862 0.84752 0.07879 0.0
C105 C 0.78956 0.82446 0.13004 0.0
C106 C 0.7823 0.80023 0.13435 0.0
C107 C 0.84061 0.8125 0.10982 0.0
H108 H 0.86328 0.81683 0.10028 0.0
C109 C 0.83371 0.7886 0.11443 0.0
H110 H 0.77215 0.83823 0.13587 0.0
C111 C 0.8046 0.78245 0.1265 0.0
H112 H 0.79936 0.76375 0.12971 0.0
H113 H 0.85082 0.77476 0.10847 0.0
H114 H 0.17798 0.85953 0.37919 0.0
C115 C 0.17743 0.86279 0.39575 0.0
C116 C 0.16898 0.88567 0.40328 0.0
C117 C 0.18204 0.84361 0.40958 0.0
H118 H 0.15962 0.9069 0.43062 0.0
C119 C 0.16664 0.88937 0.42482 0.0
C120 C 0.17176 0.87048 0.43886 0.0
C121 C 0.17956 0.84767 0.43103 0.0
C122 C 0.18418 0.81871 0.40188 0.0
H123 H 0.1831 0.83281 0.44162 0.0
C124 C 0.21177 0.81097 0.38887 0.0
C125 C 0.2131 0.78692 0.38219 0.0
C126 C 0.15796 0.80236 0.40799 0.0
H127 H 0.13646 0.80796 0.41791 0.0
C128 C 0.15904 0.77873 0.40131 0.0
H129 H 0.23211 0.82349 0.38415 0.0
C130 C 0.18637 0.77102 0.38858 0.0
H131 H 0.18692 0.75238 0.38405 0.0
H132 H 0.13873 0.76627 0.40616 0.0
H133 H 0.32506 0.65625 0.87702 0.0
C134 C 0.33125 0.65301 0.89317 0.0
C135 C 0.34263 0.6302 0.89967 0.0
C136 C 0.32911 0.67199 0.90737 0.0
H137 H 0.3605 0.60946 0.92597 0.0
C138 C 0.35102 0.62668 0.92074 0.0
C139 C 0.34798 0.64531 0.93518 0.0
C140 C 0.337 0.66788 0.92834 0.0
C141 C 0.32193 0.69673 0.90031 0.0
H142 H 0.33557 0.68255 0.93928 0.0
C143 C 0.29105 0.70261 0.8893 0.0
C144 C 0.28397 0.72664 0.88429 0.0
C145 C 0.346 0.71495 0.90548 0.0
H146 H 0.37005 0.71082 0.91377 0.0
C147 C 0.3393 0.73862 0.9001 0.0
H148 H 0.27208 0.68879 0.88541 0.0
C149 C 0.30835 0.7445 0.88972 0.0
H150 H 0.30331 0.76306 0.88596 0.0
H151 H 0.35798 0.7525 0.9042 0.0
Tb152 Tb 0.05181 0.11911 0.24058 0.0
C153 C 0.92009 0.0768 0.28009 0.0
N154 N 0.92723 0.10018 0.27627 0.0
C155 C 0.87054 0.10487 0.2604 0.0
C156 C 0.88844 0.06617 0.27333 0.0
C157 C 0.90253 0.11454 0.26725 0.0
C158 C 0.86365 0.08049 0.26319 0.0
C159 C 0.93787 0.03961 0.29605 0.0
C160 C 0.94451 0.06378 0.29115 0.0
C161 C 0.90716 0.02849 0.28853 0.0
C162 C 0.88245 0.04176 0.27721 0.0
Tb163 Tb 0.98071 0.11405 0.28728 0.0
N164 N 0.9736 0.07529 0.29831 0.0
C165 C 0.96159 0.02768 0.309 0.0
C166 C 0.99472 0.06442 0.31263 0.0
C167 C 0.98974 0.04031 0.31769 0.0
H168 H 0.90793 0.13331 0.26488 0.0
H169 H 0.00729 0.0316 0.32852 0.0
H170 H 0.11309 0.07808 0.25334 0.0
H171 H 0.06774 0.21284 0.22386 0.0
H172 H 0.01532 0.07433 0.32036 0.0
H173 H 0.95751 0.00909 0.31312 0.0
H174 H 0.0381 0.17329 0.22267 0.0
H175 H 0.85131 0.11617 0.25287 0.0
H176 H 0.90178 0.00985 0.2919 0.0
H177 H 0.85849 0.03313 0.27191 0.0
H178 H 0.17102 0.07799 0.27029 0.0
H179 H 0.83896 0.07302 0.25776 0.0
H180 H 0.12488 0.21725 0.24205 0.0
N181 N 0.10777 0.11608 0.25406 0.0
C182 C 0.12527 0.13709 0.25672 0.0
C183 C 0.15817 0.09479 0.26691 0.0
C184 C 0.15913 0.13791 0.26566 0.0
C185 C 0.12481 0.09496 0.25769 0.0
C186 C 0.17511 0.11639 0.27134 0.0
N187 N 0.07776 0.15597 0.24035 0.0
C188 C 0.0631 0.17517 0.23052 0.0
C189 C 0.12784 0.1798 0.2504 0.0
C190 C 0.11006 0.15771 0.24918 0.0
C191 C 0.11209 0.19992 0.24144 0.0
C192 C 0.07981 0.19751 0.23118 0.0
H193 H 0.20111 0.1162 0.27827 0.0
H194 H 0.20222 0.16107 0.27502 0.0
H195 H 0.17469 0.19783 0.26169 0.0
O196 O 0.03759 0.12382 0.2094 0.0
O197 O 0.04273 0.14772 0.2633 0.0
O198 O 0.03318 0.12854 0.29393 0.0
O199 O 0.08741 0.1085 0.2172 0.0
O200 O 0.99952 0.13437 0.23466 0.0
O201 O 0.97406 0.145 0.26637 0.0
O202 O 0.96125 0.11196 0.31785 0.0
O203 O 0.96866 0.10075 0.2559 0.0
O204 O 0.02048 0.0862 0.24269 0.0
O205 O 0.96115 0.14524 0.30133 0.0
O206 O 0.03417 0.09962 0.29184 0.0
O207 O 0.05278 0.08638 0.25971 0.0
C208 C 0.04797 0.14583 0.28327 0.0
C209 C 0.06117 0.09647 0.18568 0.0
C210 C 0.0676 0.08568 0.14919 0.0
C211 C 0.04827 0.06462 0.15298 0.0
C212 C 0.04221 0.07529 0.18922 0.0
C213 C 0.03585 0.05944 0.17291 0.0
C214 C 0.07404 0.10151 0.16573 0.0
C215 C 0.97793 0.1475 0.24604 0.0
C216 C 0.06613 0.11416 0.20226 0.0
C217 C 0.17639 0.16004 0.26793 0.0
C218 C 0.16078 0.18096 0.26028 0.0
C219 C 0.98623 0.08458 0.24546 0.0
C220 C 0.91678 0.13938 0.32695 0.0
C221 C 0.87823 0.1416 0.35738 0.0
C222 C 0.8511 0.15023 0.34455 0.0
C223 C 0.88936 0.14813 0.31452 0.0
C224 C 0.91103 0.13609 0.34831 0.0
C225 C 0.85668 0.15338 0.32331 0.0
C226 C 0.0516 0.08446 0.28008 0.0
C227 C 0.95192 0.13422 0.31827 0.0
H228 H 0.0431 0.05205 0.14059 0.0
H229 H 0.03206 0.07113 0.20448 0.0
H230 H 0.02108 0.04316 0.1757 0.0
H231 H 0.08831 0.11805 0.16297 0.0
H232 H 0.82572 0.15505 0.35096 0.0
H233 H 0.89324 0.15118 0.29812 0.0
H234 H 0.93221 0.12918 0.35784 0.0
H235 H 0.83568 0.16022 0.31365 0.0
Tb236 Tb 0.47028 0.39925 0.73893 0.0
C237 C 0.61511 0.41948 0.77174 0.0
N238 N 0.59686 0.39863 0.77359 0.0
C239 C 0.64737 0.37701 0.76135 0.0
C240 C 0.64959 0.42006 0.7636 0.0
C241 C 0.61343 0.37738 0.76983 0.0
C242 C 0.66528 0.39848 0.75781 0.0
C243 C 0.6185 0.46197 0.77897 0.0
C244 C 0.59999 0.44011 0.77935 0.0
C245 C 0.65216 0.46292 0.76993 0.0
C246 C 0.66767 0.44199 0.76223 0.0
Tb247 Tb 0.54033 0.40203 0.78604 0.0
N248 N 0.56705 0.43859 0.78745 0.0
C249 C 0.60276 0.48204 0.788 0.0
C250 C 0.55238 0.45769 0.79739 0.0
C251 C 0.56979 0.47979 0.79754 0.0
H252 H 0.60087 0.36058 0.77358 0.0
H253 H 0.55775 0.49508 0.80495 0.0
H254 H 0.39823 0.42007 0.76054 0.0
H255 H 0.49362 0.31701 0.69669 0.0
H256 H 0.52693 0.45592 0.80477 0.0
H257 H 0.61612 0.4992 0.78806 0.0
H258 H 0.50417 0.35916 0.7057 0.0
H259 H 0.65991 0.36013 0.75787 0.0
H260 H 0.66671 0.4796 0.76923 0.0
H261 H 0.69403 0.44285 0.7558 0.0
H262 H 0.33997 0.40436 0.77158 0.0
H263 H 0.69172 0.39813 0.75147 0.0
H264 H 0.44174 0.29567 0.71097 0.0
N265 N 0.41597 0.3865 0.74931 0.0
C266 C 0.40746 0.3635 0.74489 0.0
C267 C 0.35884 0.39263 0.76424 0.0
C268 C 0.37482 0.35369 0.75095 0.0
C269 C 0.39176 0.40147 0.75803 0.0
C270 C 0.35052 0.36854 0.76096 0.0
N271 N 0.46142 0.36098 0.72712 0.0
C272 C 0.48254 0.34978 0.71298 0.0
C273 C 0.42341 0.3263 0.72836 0.0
C274 C 0.43141 0.35011 0.73379 0.0
C275 C 0.44685 0.31401 0.71549 0.0
C276 C 0.47619 0.32598 0.70744 0.0
H277 H 0.32508 0.36171 0.76586 0.0
H278 H 0.34265 0.32159 0.75128 0.0
H279 H 0.38526 0.29755 0.73147 0.0
O280 O 0.44991 0.39916 0.70812 0.0
O281 O 0.45702 0.38558 0.77004 0.0
O282 O 0.5082 0.36965 0.78264 0.0
O283 O 0.45122 0.43148 0.72689 0.0
O284 O 0.52305 0.38381 0.73394 0.0
O285 O 0.54097 0.36999 0.7661 0.0
O286 O 0.52485 0.40512 0.81724 0.0
O287 O 0.53481 0.4313 0.76331 0.0
O288 O 0.5234 0.41261 0.73258 0.0
O289 O 0.57515 0.39053 0.80946 0.0
O290 O 0.48862 0.41824 0.79186 0.0
O291 O 0.46649 0.43026 0.75978 0.0
C292 C 0.47387 0.36876 0.7801 0.0
C293 C 0.42608 0.43588 0.69258 0.0
C294 C 0.40843 0.44114 0.65637 0.0
C295 C 0.39496 0.4638 0.66146 0.0
C296 C 0.41259 0.45864 0.69713 0.0
C297 C 0.39705 0.47242 0.68168 0.0
C298 C 0.42368 0.42707 0.67214 0.0
C299 C 0.54073 0.3687 0.74567 0.0
C300 C 0.44262 0.42179 0.70931 0.0
C301 C 0.36739 0.32962 0.74651 0.0
C302 C 0.3917 0.31591 0.73527 0.0
C303 C 0.53892 0.42965 0.74317 0.0
C304 C 0.54775 0.37611 0.83983 0.0
C305 C 0.55339 0.36188 0.87553 0.0
C306 C 0.5354 0.34082 0.86993 0.0
C307 C 0.53013 0.3549 0.83455 0.0
C308 C 0.55951 0.37949 0.86028 0.0
C309 C 0.52398 0.33737 0.84956 0.0
C310 C 0.46928 0.43244 0.78013 0.0
C311 C 0.55318 0.3951 0.82435 0.0
H312 H 0.38244 0.47484 0.64981 0.0
H313 H 0.4139 0.4658 0.71271 0.0
H314 H 0.38656 0.48987 0.68538 0.0
H315 H 0.43432 0.40963 0.66845 0.0
H316 H 0.5306 0.32685 0.88123 0.0
H317 H 0.52106 0.35193 0.8189 0.0
H318 H 0.57286 0.39599 0.86437 0.0
H319 H 0.5103 0.32106 0.84538 0.0
Tb320 Tb 0.03993 0.90372 0.73913 0.0
C321 C 0.88271 0.89435 0.77519 0.0
N322 N 0.90549 0.91312 0.77602 0.0
C323 C 0.85812 0.94029 0.76914 0.0
C324 C 0.84667 0.89778 0.77093 0.0
C325 C 0.89364 0.93598 0.7735 0.0
C326 C 0.83456 0.9211 0.76772 0.0
C327 C 0.87305 0.85156 0.77798 0.0
C328 C 0.89567 0.87156 0.77868 0.0
C329 C 0.83714 0.85483 0.77359 0.0
C330 C 0.82398 0.87789 0.77006 0.0
Tb331 Tb 0.96284 0.90369 0.78266 0.0
N332 N 0.93086 0.86901 0.78201 0.0
C333 C 0.88731 0.82889 0.78159 0.0
C334 C 0.94461 0.84709 0.78652 0.0
C335 C 0.92318 0.82669 0.78607 0.0
H336 H 0.9114 0.95094 0.77531 0.0
H337 H 0.9343 0.80928 0.78927 0.0
H338 H 0.10468 0.87568 0.76308 0.0
H339 H 0.0285 0.99451 0.71028 0.0
H340 H 0.97204 0.84519 0.79037 0.0
H341 H 0.87083 0.81304 0.78117 0.0
H342 H 0.01263 0.95204 0.71257 0.0
H343 H 0.84889 0.95841 0.76704 0.0
H344 H 0.81933 0.83967 0.77288 0.0
H345 H 0.79621 0.88014 0.76673 0.0
H346 H 0.16275 0.88603 0.77803 0.0
H347 H 0.80705 0.92451 0.76438 0.0
H348 H 0.08199 0.00945 0.72799 0.0
N349 N 0.09342 0.91127 0.75378 0.0
C350 C 0.10533 0.93416 0.75221 0.0
C351 C 0.14676 0.89976 0.77091 0.0
C352 C 0.13823 0.9409 0.76049 0.0
C353 C 0.1138 0.89395 0.76258 0.0
C354 C 0.15896 0.92335 0.76997 0.0
N355 N 0.05256 0.94353 0.7345 0.0
C356 C 0.03407 0.95857 0.72188 0.0
C357 C 0.09528 0.97484 0.74078 0.0
C358 C 0.08392 0.9509 0.7426 0.0
C359 C 0.07422 0.9909 0.72976 0.0
C360 C 0.04387 0.98259 0.71989 0.0
H361 H 0.18441 0.9278 0.77654 0.0
H362 H 0.17418 0.97048 0.76571 0.0
H363 H 0.13666 1.00018 0.74836 0.0
O364 O 0.04524 0.90791 0.70677 0.0
O365 O 0.04787 0.91647 0.7713 0.0
O366 O 0.99655 0.93508 0.77982 0.0
O367 O 0.07759 0.88306 0.72326 0.0
O368 O 0.98773 0.91831 0.73118 0.0
O369 O 0.96735 0.93446 0.76182 0.0
O370 O 0.97888 0.89638 0.81323 0.0
O371 O 0.95183 0.8827 0.75479 0.0
O372 O 1.00202 0.87438 0.73508 0.0
O373 O 0.93273 0.91739 0.80732 0.0
O374 O 0.01047 0.88215 0.78808 0.0
O375 O 0.03661 0.87063 0.75694 0.0
C376 C 0.03102 0.93424 0.78009 0.0
C377 C 0.1021 0.90112 0.69319 0.0
C378 C 0.13005 0.90674 0.65928 0.0
C379 C 0.16003 0.91604 0.66931 0.0
C380 C 0.13251 0.91016 0.70278 0.0
C381 C 0.16115 0.91773 0.69088 0.0
C382 C 0.10102 0.89942 0.67144 0.0
C383 C 0.96723 0.93319 0.74144 0.0
C384 C 0.0714 0.89311 0.70548 0.0
C385 C 0.14913 0.96487 0.75925 0.0
C386 C 0.12768 0.98181 0.74946 0.0
C387 C 0.96854 0.87126 0.73994 0.0
C388 C 0.96298 0.92487 0.8385 0.0
C389 C 0.95983 0.93496 0.87533 0.0
C390 C 0.98071 0.95533 0.8714 0.0
C391 C 0.98343 0.94534 0.8349 0.0
C392 C 0.95119 0.91975 0.85867 0.0
C393 C 0.99238 0.96044 0.85131 0.0
C394 C 0.0305 0.86775 0.77691 0.0
C395 C 0.9534 0.90871 0.82145 0.0
H396 H 0.18302 0.9215 0.66051 0.0
H397 H 0.13445 0.91116 0.71943 0.0
H398 H 0.18452 0.92465 0.69842 0.0
H399 H 0.07752 0.89245 0.66401 0.0
H400 H 0.98755 0.96754 0.88379 0.0
H401 H 0.99223 0.94965 0.81944 0.0
H402 H 0.93556 0.90378 0.86138 0.0
H403 H 0.00823 0.97623 0.84842 0.0
Tb404 Tb 0.46972 0.61809 0.24052 0.0
C405 C 0.61972 0.64501 0.26495 0.0
N406 N 0.6058 0.6226 0.26539 0.0
C407 C 0.65731 0.60711 0.24867 0.0
C408 C 0.653 0.64941 0.25597 0.0
C409 C 0.62406 0.60365 0.25757 0.0
C410 C 0.67184 0.63009 0.24783 0.0
C411 C 0.61279 0.68732 0.27183 0.0
C412 C 0.5996 0.66372 0.2726 0.0
C413 C 0.64588 0.69183 0.26282 0.0
C414 C 0.66597 0.67292 0.25496 0.0
Tb415 Tb 0.55179 0.619 0.28049 0.0
N416 N 0.56726 0.65876 0.28082 0.0
C417 C 0.59257 0.70565 0.28044 0.0
C418 C 0.54925 0.67631 0.29102 0.0
C419 C 0.561 0.70003 0.29043 0.0
H420 H 0.61314 0.58582 0.25836 0.0
H421 H 0.54611 0.71388 0.29815 0.0
H422 H 0.41922 0.66529 0.24919 0.0
H423 H 0.44039 0.52351 0.23806 0.0
H424 H 0.52666 0.67225 0.30045 0.0
H425 H 0.60173 0.72402 0.28015 0.0
H426 H 0.47692 0.55949 0.2328 0.0
H427 H 0.67171 0.59207 0.24245 0.0
H428 H 0.65627 0.70988 0.26195 0.0
H429 H 0.69139 0.6767 0.248 0.0
H430 H 0.35909 0.67309 0.26226 0.0
H431 H 0.69748 0.63274 0.24077 0.0
H432 H 0.37959 0.52728 0.25157 0.0
N433 N 0.41385 0.62752 0.25081 0.0
C434 C 0.39182 0.60876 0.25438 0.0
C435 C 0.36803 0.65489 0.26022 0.0
C436 C 0.35703 0.6123 0.26133 0.0
C437 C 0.40223 0.65043 0.25312 0.0
C438 C 0.34539 0.63574 0.26448 0.0
N439 N 0.43813 0.5834 0.24428 0.0
C440 C 0.45083 0.56141 0.23909 0.0
C441 C 0.38216 0.56588 0.25375 0.0
C442 C 0.40418 0.58589 0.25073 0.0
C443 C 0.39562 0.54316 0.24941 0.0
C444 C 0.42999 0.54096 0.24186 0.0
H445 H 0.31886 0.63925 0.26988 0.0
H446 H 0.30825 0.59473 0.27017 0.0
H447 H 0.33025 0.55407 0.26349 0.0
O448 O 0.4774 0.60849 0.20921 0.0
O449 O 0.46217 0.59982 0.27061 0.0
O450 O 0.51642 0.58834 0.28406 0.0
O451 O 0.43901 0.63481 0.2176 0.0
O452 O 0.51604 0.59598 0.23316 0.0
O453 O 0.54671 0.58543 0.26324 0.0
O454 O 0.55704 0.62612 0.31244 0.0
O455 O 0.55802 0.62968 0.24779 0.0
O456 O 0.5064 0.64843 0.23984 0.0
O457 O 0.59067 0.60082 0.29749 0.0
O458 O 0.50092 0.63453 0.29004 0.0
O459 O 0.47965 0.64967 0.25943 0.0
C460 C 0.482 0.58607 0.28236 0.0
C461 C 0.42652 0.61129 0.18815 0.0
C462 C 0.40544 0.60465 0.15275 0.0
C463 C 0.37703 0.59132 0.16082 0.0
C464 C 0.39777 0.5981 0.1957 0.0
C465 C 0.37334 0.58807 0.18213 0.0
C466 C 0.43027 0.61458 0.16662 0.0
C467 C 0.53738 0.58182 0.24372 0.0
C468 C 0.45211 0.62219 0.20258 0.0
C469 C 0.33505 0.5924 0.26475 0.0
C470 C 0.34757 0.56924 0.26093 0.0
C471 C 0.54073 0.64653 0.23803 0.0
C472 C 0.5755 0.59321 0.33235 0.0
C473 C 0.5791 0.58402 0.36936 0.0
C474 C 0.56332 0.56167 0.36545 0.0
C475 C 0.56011 0.57075 0.32883 0.0
C476 C 0.58506 0.59976 0.35262 0.0
C477 C 0.55394 0.55513 0.34532 0.0
C478 C 0.47956 0.64877 0.27974 0.0
C479 C 0.58125 0.61005 0.31507 0.0
H480 H 0.35708 0.58385 0.1507 0.0
H481 H 0.3938 0.59578 0.21204 0.0
H482 H 0.35117 0.57801 0.18818 0.0
H483 H 0.45242 0.62482 0.16072 0.0
H484 H 0.55874 0.54905 0.37793 0.0
H485 H 0.55307 0.56526 0.31332 0.0
H486 H 0.59673 0.6172 0.35535 0.0
H487 H 0.54202 0.53783 0.34246 0.0
C488 C 0.18081 0.91141 0.37188 0.0
C489 C 0.15934 0.90533 0.38886 0.0
C490 C 0.17194 0.9307 0.35899 0.0
C491 C 0.11651 0.98552 0.3588 0.0
H492 H 0.13319 0.98468 0.29952 0.0
C493 C 0.08689 0.06843 0.30953 0.0
C494 C 0.07066 0.06472 0.29028 0.0
C495 C 0.10157 0.0493 0.3204 0.0
C496 C 0.12813 0.98516 0.31604 0.0
H497 H 0.11082 0.91374 0.40496 0.0
H498 H 0.09491 0.94676 0.38238 0.0
H499 H 0.14968 0.95015 0.32053 0.0
H500 H 0.05819 0.03842 0.26681 0.0
H501 H 0.08287 1.00471 0.28604 0.0
H502 H 0.09355 0.01989 0.35436 0.0
C503 C 0.11929 0.93738 0.37934 0.0
C504 C 0.13801 0.96545 0.32814 0.0
C505 C 0.12832 0.91836 0.39227 0.0
C506 C 0.07067 0.04171 0.28163 0.0
C507 C 0.08493 0.02244 0.29266 0.0
C508 C 0.10641 1.00505 0.34673 0.0
C509 C 0.14122 0.94412 0.36271 0.0
C510 C 0.13205 0.96529 0.34969 0.0
C511 C 0.09993 0.0259 0.31241 0.0
C512 C 0.11197 1.00518 0.32517 0.0
H513 H 0.20488 0.90164 0.3689 0.0
H514 H 0.1896 0.93542 0.34643 0.0
H515 H 0.11205 0.98633 0.37537 0.0
H516 H 0.08764 0.08612 0.31637 0.0
H517 H 0.11374 0.05285 0.33527 0.0
C518 C 0.34157 0.58646 0.89033 0.0
C519 C 0.34792 0.61035 0.88451 0.0
C520 C 0.35036 0.56763 0.87712 0.0
C521 C 0.40756 0.55421 0.83163 0.0
H522 H 0.35909 0.49312 0.83414 0.0
C523 C 0.44296 0.47343 0.77923 0.0
C524 C 0.45067 0.45244 0.79031 0.0
C525 C 0.42737 0.49293 0.78921 0.0
C526 C 0.37281 0.51011 0.83329 0.0
H527 H 0.36706 0.63296 0.85952 0.0
H528 H 0.38033 0.60028 0.83603 0.0
H529 H 0.3358 0.5271 0.8534 0.0
H530 H 0.44718 0.43512 0.82034 0.0
H531 H 0.41902 0.46898 0.83761 0.0
H532 H 0.44411 0.53709 0.81112 0.0
C533 C 0.36978 0.59601 0.8512 0.0
C534 C 0.35966 0.52959 0.84443 0.0
C535 C 0.36154 0.61488 0.86458 0.0
C536 C 0.44163 0.45109 0.81142 0.0
C537 C 0.42537 0.47039 0.82127 0.0
C538 C 0.42028 0.53484 0.82019 0.0
C539 C 0.36513 0.57207 0.85745 0.0
C540 C 0.37721 0.55185 0.84409 0.0
C541 C 0.41851 0.49159 0.81033 0.0
C542 C 0.40337 0.51252 0.82119 0.0
H543 H 0.3304 0.58221 0.90535 0.0
H544 H 0.3466 0.54955 0.88271 0.0
H545 H 0.42232 0.5708 0.8312 0.0
H546 H 0.44983 0.47505 0.76298 0.0
H547 H 0.42226 0.50907 0.78044 0.0
C548 C 0.65566 0.60389 0.65098 0.0
C549 C 0.6741 0.59922 0.63247 0.0
C550 C 0.64565 0.5852 0.66421 0.0
C551 C 0.62342 0.52161 0.66259 0.0
H552 H 0.62949 0.52466 0.72252 0.0
C553 C 0.57603 0.44293 0.7133 0.0
C554 C 0.55841 0.44844 0.73181 0.0
C555 C 0.59363 0.46078 0.70213 0.0
C556 C 0.62721 0.52361 0.70582 0.0
H557 H 0.69812 0.57118 0.61408 0.0
H558 H 0.68002 0.5386 0.63697 0.0
H559 H 0.65423 0.55703 0.70154 0.0
H560 H 0.54507 0.47688 0.75311 0.0
H561 H 0.57508 0.50819 0.73348 0.0
H562 H 0.59537 0.48877 0.66665 0.0
C563 C 0.67306 0.55675 0.64109 0.0
C564 C 0.64154 0.54214 0.69381 0.0
C565 C 0.68336 0.57544 0.62797 0.0
C566 C 0.55893 0.47209 0.73904 0.0
C567 C 0.57624 0.49002 0.72777 0.0
C568 C 0.60876 0.50325 0.67455 0.0
C569 C 0.65356 0.56138 0.65917 0.0
C570 C 0.63974 0.54135 0.67206 0.0
C571 C 0.59359 0.48466 0.70903 0.0
C572 C 0.61034 0.50398 0.69635 0.0
H573 H 0.64754 0.62188 0.65485 0.0
H574 H 0.63037 0.58932 0.67793 0.0
H575 H 0.62106 0.52067 0.64587 0.0
H576 H 0.57632 0.42476 0.7075 0.0
H577 H 0.60728 0.4558 0.68804 0.0
C578 C 0.87219 0.9107 0.15232 0.0
C579 C 0.84817 0.91554 0.13634 0.0
C580 C 0.8832 0.92887 0.16576 0.0
C581 C 0.88767 0.99543 0.16903 0.0
H582 H 0.91825 0.98212 0.22521 0.0
C583 C 0.93355 0.06916 0.22628 0.0
C584 C 0.96698 0.06514 0.23489 0.0
C585 C 0.91606 0.05091 0.21556 0.0
C586 C 0.90978 0.98605 0.20954 0.0
H587 H 0.81552 0.94281 0.12243 0.0
H588 H 0.83327 0.97432 0.14642 0.0
H589 H 0.89153 0.9503 0.20458 0.0
H590 H 0.00812 0.03894 0.23943 0.0
H591 H 0.97725 1.00686 0.22099 0.0
H592 H 0.90544 0.03135 0.17431 0.0
C593 C 0.84476 0.95676 0.14822 0.0
C594 C 0.89465 0.9678 0.19762 0.0
C595 C 0.83426 0.93867 0.13457 0.0
C596 C 0.98237 0.04247 0.23291 0.0
C597 C 0.96464 0.02411 0.22249 0.0
C598 C 0.90221 0.01374 0.18109 0.0
C599 C 0.87003 0.95229 0.16374 0.0
C600 C 0.88383 0.97211 0.17706 0.0
C601 C 0.93149 0.02823 0.21352 0.0
C602 C 0.91384 0.00916 0.20134 0.0
H603 H 0.8837 0.89308 0.15385 0.0
H604 H 0.9031 0.92467 0.17719 0.0
H605 H 0.88046 0.99949 0.15319 0.0
H606 H 0.92131 0.08656 0.22742 0.0
H607 H 0.89049 0.05452 0.20882 0.0
C608 C 0.8355 0.10215 0.6463 0.0
C609 C 0.8296 0.09685 0.62528 0.0
C610 C 0.85107 0.08528 0.65946 0.0
C611 C 0.90347 0.02917 0.65885 0.0
H612 H 0.86625 0.02076 0.71441 0.0
C613 C 0.93894 0.94727 0.70862 0.0
C614 C 0.94787 0.95152 0.72943 0.0
C615 C 0.92403 0.96535 0.69654 0.0
C616 C 0.87714 0.02304 0.699 0.0
H617 H 0.83509 0.06946 0.60172 0.0
H618 H 0.86201 0.04018 0.62453 0.0
H619 H 0.84255 0.05216 0.69213 0.0
H620 H 0.94776 0.97801 0.75395 0.0
H621 H 0.92114 0.00947 0.73292 0.0
H622 H 0.93774 0.99988 0.66562 0.0
C623 C 0.85538 0.05753 0.63083 0.0
C624 C 0.86365 0.04109 0.68624 0.0
C625 C 0.83994 0.07438 0.6177 0.0
C626 C 0.94058 0.97403 0.73807 0.0
C627 C 0.92547 0.9921 0.726 0.0
C628 C 0.91681 0.01108 0.67155 0.0
C629 C 0.861 0.06268 0.65191 0.0
C630 C 0.87645 0.04426 0.66593 0.0
C631 C 0.91757 0.98808 0.70499 0.0
C632 C 0.90362 1.00766 0.69172 0.0
H633 H 0.82807 0.11936 0.65259 0.0
H634 H 0.85545 0.08999 0.67554 0.0
H635 H 0.9145 0.03137 0.64347 0.0
H636 H 0.94413 0.93008 0.70155 0.0
H637 H 0.91772 0.96155 0.6805 0.0
C638 C 0.63561 0.40928 0.13982 0.0
C639 C 0.67205 0.40969 0.13594 0.0
C640 C 0.62038 0.42578 0.15342 0.0
C641 C 0.64182 0.47098 0.19421 0.0
H642 H 0.55258 0.49826 0.17734 0.0
C643 C 0.56932 0.54244 0.24351 0.0
C644 C 0.55258 0.56101 0.23264 0.0
C645 C 0.58308 0.52271 0.23291 0.0
C646 C 0.57764 0.49098 0.18224 0.0
H647 H 0.7211 0.42768 0.14343 0.0
H648 H 0.69463 0.4566 0.16684 0.0
H649 H 0.57838 0.46623 0.15703 0.0
H650 H 0.53766 0.57345 0.202 0.0
H651 H 0.56216 0.53953 0.18361 0.0
H652 H 0.64175 0.49652 0.21892 0.0
C653 C 0.67778 0.44322 0.15981 0.0
C654 C 0.59222 0.47229 0.17073 0.0
C655 C 0.69302 0.42662 0.14634 0.0
C656 C 0.55011 0.55942 0.21093 0.0
C657 C 0.564 0.53982 0.20035 0.0
C658 C 0.62731 0.48979 0.20567 0.0
C659 C 0.64118 0.44326 0.16333 0.0
C660 C 0.62468 0.46217 0.17643 0.0
C661 C 0.58053 0.52112 0.21117 0.0
C662 C 0.59521 0.50024 0.19969 0.0
H663 H 0.61881 0.39629 0.13221 0.0
H664 H 0.59221 0.42493 0.15604 0.0
H665 H 0.66661 0.46344 0.19926 0.0
H666 H 0.57146 0.54299 0.26025 0.0
H667 H 0.59525 0.50853 0.24179 0.0
C668 C 0.31877 0.43213 0.38034 0.0
C669 C 0.34107 0.41608 0.39072 0.0
C670 C 0.3327 0.4494 0.36692 0.0
C671 C 0.40973 0.46547 0.33523 0.0
H672 H 0.38116 0.53085 0.34568 0.0
C673 C 0.48371 0.54559 0.2989 0.0
C674 C 0.46471 0.56627 0.29381 0.0
C675 C 0.46758 0.5268 0.30966 0.0
C676 C 0.38902 0.5127 0.34221 0.0
H677 H 0.39525 0.40487 0.39453 0.0
H678 H 0.41962 0.43483 0.37071 0.0
H679 H 0.35455 0.49838 0.36547 0.0
H680 H 0.41364 0.58331 0.29575 0.0
H681 H 0.38489 0.55008 0.3135 0.0
H682 H 0.44374 0.47959 0.31173 0.0
C683 C 0.39137 0.4341 0.37307 0.0
C684 C 0.37381 0.49408 0.35366 0.0
C685 C 0.37748 0.41704 0.38675 0.0
C686 C 0.42898 0.56757 0.29938 0.0
C687 C 0.41263 0.54859 0.30983 0.0
C688 C 0.4246 0.48406 0.32355 0.0
C689 C 0.36919 0.45078 0.36336 0.0
C690 C 0.38422 0.4703 0.35042 0.0
C691 C 0.43177 0.52798 0.31527 0.0
C692 C 0.41475 0.50799 0.32703 0.0
H693 H 0.29065 0.432 0.38327 0.0
H694 H 0.31497 0.46191 0.35952 0.0
H695 H 0.41799 0.44727 0.33227 0.0
H696 H 0.51102 0.54374 0.29436 0.0
H697 H 0.48344 0.51146 0.31376 0.0
C698 C 0.14853 0.09885 0.8849 0.0
C699 C 0.18441 0.09728 0.88989 0.0
C700 C 0.13311 0.08245 0.87127 0.0
C701 C 0.15415 0.03376 0.83323 0.0
H702 H 0.0579 0.01468 0.84521 0.0
C703 C 0.08366 0.94916 0.79987 0.0
C704 C 0.05053 0.95343 0.79094 0.0
C705 C 0.10137 0.96736 0.81056 0.0
C706 C 0.08473 0.01996 0.84162 0.0
H707 H 0.23247 0.07754 0.88449 0.0
H708 H 0.20551 0.04831 0.86134 0.0
H709 H 0.08609 0.04522 0.86635 0.0
H710 H 0.00995 0.98005 0.78615 0.0
H711 H 0.04023 0.01149 0.80556 0.0
H712 H 0.15277 1.00748 0.80895 0.0
C713 C 0.18927 0.06259 0.86734 0.0
C714 C 0.10091 0.03763 0.85363 0.0
C715 C 0.20481 0.0793 0.88068 0.0
C716 C 0.03541 0.97621 0.79295 0.0
C717 C 0.0527 0.9942 0.80401 0.0
C718 C 0.1381 0.01573 0.82145 0.0
C719 C 0.15304 0.0637 0.86266 0.0
C720 C 0.13582 0.04494 0.84957 0.0
C721 C 0.08578 0.98993 0.81298 0.0
C722 C 0.10319 0.00878 0.82548 0.0
H723 H 0.13231 0.11267 0.89173 0.0
H724 H 0.10541 0.08441 0.86768 0.0
H725 H 0.18081 0.03907 0.82934 0.0
H726 H 0.0956 0.93165 0.79889 0.0
H727 H 0.12675 0.96358 0.81749 0.0
C728 C 0.20877 0.12431 0.98073 0.0
C729 C 0.18587 0.12519 0.96359 0.0
C730 C 0.19564 0.12154 1.00084 0.0
C731 C 0.1131 0.12451 0.03237 0.0
H732 H 0.16721 0.08546 0.07043 0.0
C733 C 0.05851 0.08884 0.1107 0.0
C734 C 0.08075 0.09124 0.12801 0.0
C735 C 0.07094 0.09402 0.09076 0.0
C736 C 0.15195 0.09658 0.06003 0.0
H737 H 0.13083 0.12442 0.95451 0.0
H738 H 0.10806 0.11848 0.98942 0.0
H739 H 0.18924 0.09247 0.03549 0.0
H740 H 0.13346 0.10081 0.13797 0.0
H741 H 0.15532 0.10956 0.10306 0.0
H742 H 0.0753 0.12789 0.05694 0.0
C743 C 0.13623 0.12043 0.98736 0.0
C744 C 0.16464 0.10073 0.03999 0.0
C745 C 0.14936 0.12352 0.96723 0.0
C746 C 0.11568 0.09892 0.12494 0.0
C747 C 0.12824 0.10377 0.10497 0.0
C748 C 0.1002 0.12009 0.05236 0.0
C749 C 0.15922 0.11918 1.00445 0.0
C750 C 0.1455 0.11484 0.02586 0.0
C751 C 0.10601 0.10137 0.08766 0.0
C752 C 0.11956 0.10614 0.06642 0.0
H753 H 0.23706 0.12516 0.97864 0.0
H754 H 0.21422 0.12114 0.01356 0.0
H755 H 0.09783 0.13577 0.02212 0.0
H756 H 0.03139 0.08315 0.11262 0.0
H757 H 0.05328 0.09187 0.0777 0.0
C758 C 0.33712 0.37244 0.47966 0.0
C759 C 0.33853 0.39132 0.46522 0.0
C760 C 0.3472 0.37606 0.50033 0.0
C761 C 0.35777 0.42501 0.53849 0.0
H762 H 0.40801 0.37781 0.57103 0.0
C763 C 0.41339 0.4486 0.61819 0.0
C764 C 0.40626 0.43265 0.63454 0.0
C765 C 0.40751 0.44189 0.59766 0.0
C766 C 0.39375 0.39106 0.56216 0.0
H767 H 0.35213 0.42882 0.46138 0.0
H768 H 0.37084 0.4348 0.49692 0.0
H769 H 0.39332 0.36929 0.53478 0.0
H770 H 0.38907 0.39666 0.64202 0.0
H771 H 0.37892 0.38483 0.6059 0.0
H772 H 0.3583 0.44683 0.56566 0.0
C773 C 0.36133 0.41728 0.49244 0.0
C774 C 0.38527 0.38619 0.54141 0.0
C775 C 0.35111 0.41371 0.47189 0.0
C776 C 0.3949 0.40933 0.62976 0.0
C777 C 0.38905 0.40257 0.6091 0.0
C778 C 0.36637 0.4299 0.55908 0.0
C779 C 0.35893 0.39865 0.50704 0.0
C780 C 0.36746 0.40324 0.52926 0.0
C781 C 0.39443 0.41903 0.59287 0.0
C782 C 0.38475 0.41312 0.57112 0.0
H783 H 0.32792 0.35489 0.47504 0.0
H784 H 0.34485 0.36133 0.51115 0.0
H785 H 0.34318 0.4383 0.52985 0.0
H786 H 0.42297 0.4665 0.6213 0.0
H787 H 0.41273 0.4548 0.58549 0.0
C788 C 0.6372 0.37298 0.06024 0.0
C789 C 0.67317 0.378 0.06321 0.0
C790 C 0.62295 0.3721 0.04022 0.0
C791 C 0.63853 0.3927 0.98652 0.0
H792 H 0.57715 0.34004 0.97133 0.0
C793 C 0.59975 0.37415 0.9013 0.0
C794 C 0.56573 0.36534 0.89723 0.0
C795 C 0.61178 0.37653 0.92171 0.0
C796 C 0.59379 0.3551 0.97535 0.0
H797 H 0.72215 0.38666 0.04751 0.0
H798 H 0.69736 0.38504 0.01267 0.0
H799 H 0.59951 0.34285 1.00666 0.0
H800 H 0.51726 0.35286 0.91144 0.0
H801 H 0.5379 0.35741 0.94699 0.0
H802 H 0.6327 0.4051 0.95532 0.0
C803 C 0.68015 0.38177 0.02578 0.0
C804 C 0.60667 0.35666 0.99563 0.0
C805 C 0.69443 0.38244 0.04574 0.0
C806 C 0.54381 0.35936 0.91405 0.0
C807 C 0.55572 0.36191 0.93445 0.0
C808 C 0.62546 0.39125 0.96628 0.0
C809 C 0.64427 0.37651 0.02276 0.0
C810 C 0.62941 0.37538 1.00142 0.0
C811 C 0.58998 0.37034 0.93859 0.0
C812 C 0.60311 0.37232 0.96035 0.0
H813 H 0.62019 0.36943 0.07338 0.0
H814 H 0.59515 0.36818 0.03841 0.0
H815 H 0.6556 0.40754 0.99057 0.0
H816 H 0.61743 0.37865 0.88868 0.0
H817 H 0.63851 0.38273 0.92422 0.0
C818 C 0.78496 0.12758 0.53904 0.0
C819 C 0.81073 0.13142 0.55433 0.0
C820 C 0.79392 0.1279 0.51802 0.0
C821 C 0.8599 0.15059 0.48108 0.0
H822 H 0.82191 0.10156 0.4449 0.0
C823 C 0.89915 0.14473 0.39442 0.0
C824 C 0.87243 0.13884 0.38017 0.0
C825 C 0.89323 0.14289 0.41579 0.0
C826 C 0.83243 0.11557 0.45469 0.0
H827 H 0.8661 0.13887 0.55952 0.0
H828 H 0.88179 0.13959 0.52267 0.0
H829 H 0.80838 0.10056 0.48182 0.0
H830 H 0.81871 0.12582 0.37743 0.0
H831 H 0.80802 0.1234 0.41454 0.0
H832 H 0.88332 0.16595 0.45394 0.0
C833 C 0.85462 0.13633 0.52701 0.0
C834 C 0.82473 0.11494 0.4759 0.0
C835 C 0.84569 0.13576 0.54809 0.0
C836 C 0.83978 0.13082 0.38789 0.0
C837 C 0.8338 0.12911 0.40924 0.0
C838 C 0.86739 0.15134 0.45982 0.0
C839 C 0.82885 0.13226 0.51174 0.0
C840 C 0.83816 0.13253 0.48932 0.0
C841 C 0.86038 0.13521 0.42351 0.0
C842 C 0.85356 0.13393 0.4463 0.0
H843 H 0.75787 0.12391 0.54335 0.0
H844 H 0.7734 0.12493 0.50664 0.0
H845 H 0.87037 0.16453 0.49098 0.0
H846 H 0.92451 0.15122 0.3891 0.0
H847 H 0.9145 0.14745 0.42626 0.0
C848 C 0.84305 0.91111 0.05264 0.0
C849 C 0.85204 0.88938 0.06224 0.0
C850 C 0.85362 0.91595 0.03225 0.0
C851 C 0.92013 0.89817 0.99325 0.0
H852 H 0.85805 0.93011 0.95446 0.0
C853 C 0.96921 0.93296 0.91391 0.0
C854 C 0.947 0.92967 0.8967 0.0
C855 C 0.95715 0.92812 0.93398 0.0
C856 C 0.87564 0.92103 0.96506 0.0
H857 H 0.87942 0.85576 0.05782 0.0
H858 H 0.89707 0.86397 0.02225 0.0
H859 H 0.83729 0.92113 0.98947 0.0
H860 H 0.89447 0.91893 0.8872 0.0
H861 H 0.87363 0.91009 0.92219 0.0
H862 H 0.95826 0.89768 0.96879 0.0
C863 C 0.88214 0.87739 0.03053 0.0
C864 C 0.86386 0.91612 0.9852 0.0
C865 C 0.87158 0.87255 0.05087 0.0
C866 C 0.9124 0.92143 0.90008 0.0
C867 C 0.90031 0.91663 0.92017 0.0
C868 C 0.93191 0.90311 0.97314 0.0
C869 C 0.87355 0.89922 0.02099 0.0
C870 C 0.88595 0.90459 0.99954 0.0
C871 C 0.92255 0.91989 0.93738 0.0
C872 C 0.90984 0.91461 0.95878 0.0
H873 H 0.82783 0.92439 0.0609 0.0
H874 H 0.84678 0.93303 0.02545 0.0
H875 H 0.93802 0.88953 1.00394 0.0
H876 H 0.99611 0.93907 0.91186 0.0
H877 H 0.97489 0.93106 0.94688 0.0
C878 C 0.64948 0.6452 0.54801 0.0
C879 C 0.67035 0.62878 0.55901 0.0
C880 C 0.64049 0.64104 0.52732 0.0
C881 C 0.66586 0.60647 0.48082 0.0
H882 H 0.57016 0.61998 0.46343 0.0
C883 C 0.62211 0.60172 0.39483 0.0
C884 C 0.58947 0.59067 0.39086 0.0
C885 C 0.63238 0.60702 0.41516 0.0
C886 C 0.59694 0.616 0.46804 0.0
H887 H 0.69842 0.5952 0.55675 0.0
H888 H 0.68232 0.58776 0.52062 0.0
H889 H 0.58752 0.62731 0.49923 0.0
H890 H 0.54164 0.57711 0.40514 0.0
H891 H 0.55965 0.58611 0.44054 0.0
H892 H 0.67504 0.59474 0.44967 0.0
C893 C 0.67321 0.604 0.52799 0.0
C894 C 0.60701 0.62044 0.48852 0.0
C895 C 0.68216 0.60814 0.54875 0.0
C896 C 0.56712 0.5854 0.40767 0.0
C897 C 0.5773 0.59078 0.42796 0.0
C898 C 0.65581 0.6021 0.46028 0.0
C899 C 0.65207 0.62034 0.51707 0.0
C900 C 0.64157 0.61569 0.49519 0.0
C901 C 0.61014 0.60152 0.43198 0.0
C902 C 0.62118 0.60673 0.45367 0.0
H903 H 0.6395 0.66112 0.55549 0.0
H904 H 0.62449 0.65412 0.51933 0.0
H905 H 0.69276 0.60282 0.48539 0.0
H906 H 0.64006 0.60585 0.38225 0.0
H907 H 0.65769 0.61552 0.4177 0.0
C908 C 0.33548 0.65003 0.97317 0.0
C909 C 0.35743 0.64149 0.9573 0.0
C910 C 0.34439 0.64656 0.99399 0.0
C911 C 0.40059 0.60931 0.02821 0.0
H912 H 0.37748 0.65793 0.06874 0.0
C913 C 0.39907 0.5903 0.11605 0.0
C914 C 0.40793 0.6087 0.12996 0.0
C915 C 0.39731 0.59467 0.09476 0.0
C916 C 0.38464 0.64428 0.05763 0.0
H917 H 0.40632 0.62306 0.95079 0.0
H918 H 0.42223 0.61732 0.98708 0.0
H919 H 0.36601 0.66529 0.0322 0.0
H920 H 0.4234 0.64597 0.13219 0.0
H921 H 0.42142 0.65344 0.09492 0.0
H922 H 0.4199 0.58851 0.0536 0.0
C923 C 0.39768 0.62622 0.98351 0.0
C924 C 0.37752 0.64836 0.03666 0.0
C925 C 0.38861 0.62952 0.96269 0.0
C926 C 0.41663 0.63135 0.12193 0.0
C927 C 0.41502 0.63571 0.10056 0.0
C928 C 0.40793 0.6053 0.04917 0.0
C929 C 0.37566 0.63466 0.99946 0.0
C930 C 0.38494 0.6308 0.02168 0.0
C931 C 0.40463 0.61754 0.08673 0.0
C932 C 0.3996 0.62259 0.06421 0.0
H933 H 0.31109 0.65908 0.96949 0.0
H934 H 0.32641 0.6529 1.00579 0.0
H935 H 0.40643 0.59527 0.0172 0.0
H936 H 0.39276 0.57253 0.12167 0.0
H937 H 0.38892 0.58026 0.08469 0.0
C938 C 0.14867 0.85717 0.47363 0.0
C939 C 0.16671 0.87426 0.46156 0.0
C940 C 0.14314 0.86091 0.49482 0.0
C941 C 0.13973 0.90844 0.5346 0.0
H942 H 0.15231 0.85584 0.57305 0.0
C943 C 0.14485 0.92176 0.6235 0.0
C944 C 0.12981 0.90405 0.63629 0.0
C945 C 0.14709 0.91848 0.60205 0.0
C946 C 0.14815 0.87066 0.56252 0.0
H947 H 0.1934 0.90859 0.4625 0.0
H948 H 0.18367 0.91512 0.49947 0.0
H949 H 0.16131 0.84936 0.53609 0.0
H950 H 0.10462 0.86919 0.63635 0.0
H951 H 0.1078 0.8637 0.59888 0.0
H952 H 0.12662 0.92976 0.56104 0.0
C953 C 0.17343 0.89895 0.49246 0.0
C954 C 0.1534 0.86694 0.5413 0.0
C955 C 0.17905 0.89518 0.47126 0.0
C956 C 0.11615 0.88327 0.62698 0.0
C957 C 0.11839 0.87999 0.60551 0.0
C958 C 0.1344 0.91215 0.55583 0.0
C959 C 0.15539 0.88185 0.5045 0.0
C960 C 0.1494 0.8858 0.52707 0.0
C961 C 0.13432 0.89741 0.59279 0.0
C962 C 0.13868 0.89333 0.57008 0.0
H963 H 0.13813 0.84108 0.46663 0.0
H964 H 0.12866 0.84754 0.50355 0.0
H965 H 0.13587 0.92327 0.52404 0.0
H966 H 0.15522 0.93813 0.63011 0.0
H967 H 0.15976 0.93221 0.5928 0.0
C968 C 0.17287 0.31923 0.36792 0.0
C969 C 0.19847 0.31627 0.3834 0.0
C970 C 0.16305 0.30005 0.35529 0.0
C971 C 0.15363 0.23576 0.35706 0.0
H972 H 0.1394 0.24068 0.2977 0.0
C973 C 0.09185 0.15799 0.31018 0.0
C974 C 0.06885 0.16426 0.29408 0.0
C975 C 0.11245 0.17548 0.31993 0.0
C976 C 0.1428 0.23905 0.31431 0.0
H977 H 0.23449 0.29123 0.3976 0.0
H978 H 0.21672 0.25734 0.37572 0.0
H979 H 0.16746 0.27355 0.31638 0.0
H980 H 0.04866 0.19354 0.27572 0.0
H981 H 0.08333 0.22421 0.29314 0.0
H982 H 0.12738 0.20195 0.35537 0.0
C983 C 0.20458 0.2746 0.37324 0.0
C984 C 0.15915 0.25784 0.32495 0.0
C985 C 0.2149 0.29396 0.38563 0.0
C986 C 0.06648 0.18827 0.288 0.0
C987 C 0.08665 0.2058 0.2979 0.0
C988 C 0.13677 0.21712 0.34649 0.0
C989 C 0.17816 0.27739 0.35816 0.0
C990 C 0.16431 0.25651 0.34647 0.0
C991 C 0.10999 0.19969 0.31401 0.0
C992 C 0.13058 0.21866 0.325 0.0
H993 H 0.15976 0.33627 0.36598 0.0
H994 H 0.14243 0.30267 0.34391 0.0
H995 H 0.15689 0.23437 0.3737 0.0
H996 H 0.09441 0.13949 0.31493 0.0
H997 H 0.1305 0.16997 0.33199 0.0
C998 C 0.36279 0.19255 0.86847 0.0
C999 C 0.33109 0.19411 0.87967 0.0
C1000 C 0.37308 0.21081 0.85496 0.0
C1001 C 0.36117 0.27534 0.84678 0.0
H1002 H 0.41461 0.26326 0.79663 0.0
C1003 C 0.41917 0.35199 0.79648 0.0
C1004 C 0.45393 0.34878 0.78957 0.0
C1005 C 0.40048 0.33303 0.80552 0.0
C1006 C 0.39989 0.26693 0.81065 0.0
H1007 H 0.28451 0.2156 0.88473 0.0
H1008 H 0.3023 0.24754 0.86085 0.0
H1009 H 0.38723 0.22995 0.81512 0.0
H1010 H 0.49651 0.32332 0.78676 0.0
H1011 H 0.46424 0.29033 0.80283 0.0
H1012 H 0.37441 0.31228 0.84252 0.0
C1013 C 0.31941 0.23225 0.86276 0.0
C1014 C 0.38414 0.24784 0.82124 0.0
C1015 C 0.30902 0.21385 0.87626 0.0
C1016 C 0.46972 0.32629 0.79193 0.0
C1017 C 0.45107 0.30734 0.80094 0.0
C1018 C 0.37688 0.29445 0.83617 0.0
C1019 C 0.35194 0.23117 0.85227 0.0
C1020 C 0.36515 0.25172 0.83967 0.0
C1021 C 0.41623 0.31047 0.8079 0.0
C1022 C 0.39701 0.29043 0.81819 0.0
H1023 H 0.38021 0.17745 0.87063 0.0
H1024 H 0.39841 0.20941 0.84732 0.0
H1025 H 0.34715 0.27899 0.86106 0.0
H1026 H 0.40658 0.36925 0.79515 0.0
H1027 H 0.37365 0.33604 0.81059 0.0
C1028 C 0.69521 0.21733 0.64124 0.0
C1029 C 0.68283 0.19443 0.64649 0.0
C1030 C 0.68563 0.23719 0.65318 0.0
C1031 C 0.6514 0.25644 0.70386 0.0
H1032 H 0.60444 0.30645 0.67288 0.0
C1033 C 0.56437 0.32707 0.74429 0.0
C1034 C 0.56169 0.34991 0.73544 0.0
C1035 C 0.58297 0.30899 0.73411 0.0
C1036 C 0.6181 0.293 0.68185 0.0
H1037 H 0.65244 0.17401 0.66879 0.0
H1038 H 0.63652 0.2086 0.69 0.0
H1039 H 0.63247 0.2737 0.65446 0.0
H1040 H 0.57738 0.37217 0.70956 0.0
H1041 H 0.61109 0.34107 0.69216 0.0
H1042 H 0.63757 0.27575 0.73127 0.0
C1043 C 0.65334 0.21127 0.67661 0.0
C1044 C 0.63409 0.27416 0.67122 0.0
C1045 C 0.66234 0.19152 0.66447 0.0
C1046 C 0.5787 0.35458 0.71655 0.0
C1047 C 0.59784 0.33666 0.70654 0.0
C1048 C 0.63593 0.27552 0.71452 0.0
C1049 C 0.66409 0.23438 0.67078 0.0
C1050 C 0.65043 0.2555 0.68211 0.0
C1051 C 0.59988 0.31347 0.71501 0.0
C1052 C 0.61851 0.2939 0.70368 0.0
H1053 H 0.7108 0.22002 0.62735 0.0
H1054 H 0.69438 0.25481 0.6484 0.0
H1055 H 0.66404 0.24235 0.71263 0.0
H1056 H 0.55127 0.32302 0.75881 0.0
H1057 H 0.58327 0.29135 0.74101 0.0
C1058 C 0.84667 0.29462 0.13064 0.0
C1059 C 0.82633 0.31325 0.13891 0.0
C1060 C 0.85948 0.27647 0.14336 0.0
C1061 C 0.85134 0.24687 0.19449 0.0
H1062 H 0.94882 0.23049 0.18354 0.0
C1063 C 0.93509 0.18198 0.24595 0.0
C1064 C 0.95692 0.16599 0.23508 0.0
C1065 C 0.91681 0.20004 0.23537 0.0
C1066 C 0.92149 0.23466 0.18671 0.0
H1067 H 0.80183 0.32677 0.16685 0.0
H1068 H 0.82458 0.29488 0.18934 0.0
H1069 H 0.92051 0.26136 0.16306 0.0
H1070 H 0.97543 0.15606 0.20439 0.0
H1071 H 0.94374 0.18717 0.18621 0.0
H1072 H 0.85266 0.21992 0.21826 0.0
C1073 C 0.83048 0.29438 0.17292 0.0
C1074 C 0.9052 0.25237 0.17493 0.0
C1075 C 0.81746 0.31262 0.16008 0.0
C1076 C 0.95926 0.16813 0.2134 0.0
C1077 C 0.94117 0.18611 0.20291 0.0
C1078 C 0.86775 0.22903 0.20636 0.0
C1079 C 0.85248 0.27646 0.16476 0.0
C1080 C 0.86975 0.25843 0.17837 0.0
C1081 C 0.92014 0.20252 0.21375 0.0
C1082 C 0.90286 0.22245 0.20233 0.0
H1083 H 0.85331 0.29436 0.1143 0.0
H1084 H 0.87547 0.26259 0.13644 0.0
H1085 H 0.82399 0.2511 0.19752 0.0
H1086 H 0.93253 0.18083 0.26264 0.0
H1087 H 0.90088 0.21244 0.24417 0.0
C1088 C 0.7445 0.74456 0.66442 0.0
C1089 C 0.75232 0.72809 0.64864 0.0
C1090 C 0.77132 0.75735 0.67421 0.0
C1091 C 0.86468 0.76188 0.68653 0.0
H1092 H 0.84727 0.83005 0.68294 0.0
C1093 C 0.96306 0.83442 0.71751 0.0
C1094 C 0.94739 0.85372 0.72797 0.0
C1095 C 0.94214 0.8177 0.70687 0.0
C1096 C 0.85247 0.81109 0.6843 0.0
H1097 H 0.7947 0.71074 0.63194 0.0
H1098 H 0.84201 0.73301 0.64952 0.0
H1099 H 0.80557 0.80212 0.66766 0.0
H1100 H 0.8976 0.87099 0.73471 0.0
H1101 H 0.86148 0.84171 0.71717 0.0
H1102 H 0.91117 0.77095 0.70385 0.0
C1103 C 0.8149 0.73606 0.65405 0.0
C1104 C 0.8286 0.7951 0.67546 0.0
C1105 C 0.78787 0.72329 0.64406 0.0
C1106 C 0.91058 0.85609 0.72728 0.0
C1107 C 0.88981 0.83944 0.71685 0.0
C1108 C 0.88856 0.77797 0.69566 0.0
C1109 C 0.80668 0.75384 0.66864 0.0
C1110 C 0.83402 0.77034 0.67683 0.0
C1111 C 0.9052 0.82008 0.70638 0.0
C1112 C 0.88227 0.80278 0.69504 0.0
H1113 H 0.71743 0.74829 0.66863 0.0
H1114 H 0.76431 0.77064 0.6857 0.0
H1115 H 0.86948 0.74285 0.68772 0.0
H1116 H 0.99138 0.8321 0.71775 0.0
H1117 H 0.95488 0.80309 0.69884 0.0
C1118 C 0.75218 0.79246 0.16814 0.0
C1119 C 0.75107 0.79274 0.14642 0.0
C1120 C 0.72581 0.78066 0.17947 0.0
C1121 C 0.68538 0.73733 0.19582 0.0
H1122 H 0.58637 0.7363 0.18093 0.0
C1123 C 0.59403 0.65937 0.2182 0.0
C1124 C 0.56102 0.665 0.22668 0.0
C1125 C 0.61516 0.67717 0.20938 0.0
C1126 C 0.61388 0.73655 0.18539 0.0
H1127 H 0.72142 0.78186 0.11941 0.0
H1128 H 0.67501 0.76154 0.13908 0.0
H1129 H 0.62607 0.7653 0.1645 0.0
H1130 H 0.5235 0.69349 0.23182 0.0
H1131 H 0.56029 0.72469 0.21595 0.0
H1132 H 0.67344 0.70829 0.21634 0.0
C1133 C 0.6959 0.77053 0.14748 0.0
C1134 C 0.63663 0.75305 0.17591 0.0
C1135 C 0.72241 0.78213 0.13619 0.0
C1136 C 0.5488 0.68864 0.22532 0.0
C1137 C 0.5699 0.70648 0.21633 0.0
C1138 C 0.66274 0.72072 0.20512 0.0
C1139 C 0.69784 0.76902 0.16922 0.0
C1140 C 0.67276 0.75341 0.18081 0.0
C1141 C 0.60357 0.70098 0.20859 0.0
C1142 C 0.62686 0.71987 0.19978 0.0
H1143 H 0.77436 0.80028 0.17628 0.0
H1144 H 0.72788 0.77998 0.1962 0.0
H1145 H 0.71309 0.73694 0.19981 0.0
H1146 H 0.60384 0.64122 0.21873 0.0
H1147 H 0.6407 0.67228 0.20322 0.0
C1148 C 0.2779 0.7828 0.37428 0.0
C1149 C 0.2426 0.77766 0.36929 0.0
C1150 C 0.30547 0.77092 0.36412 0.0
C1151 C 0.32208 0.71408 0.3373 0.0
H1152 H 0.40963 0.74353 0.31942 0.0
C1153 C 0.44034 0.65771 0.30992 0.0
C1154 C 0.45622 0.66511 0.29134 0.0
C1155 C 0.41617 0.67253 0.32004 0.0
C1156 C 0.38528 0.73508 0.32431 0.0
H1157 H 0.20872 0.75749 0.3486 0.0
H1158 H 0.25657 0.73688 0.33099 0.0
H1159 H 0.36328 0.76827 0.33478 0.0
H1160 H 0.46097 0.6942 0.26931 0.0
H1161 H 0.4188 0.72014 0.28697 0.0
H1162 H 0.34372 0.68098 0.32673 0.0
C1163 C 0.26301 0.74962 0.34306 0.0
C1164 C 0.35887 0.74921 0.33322 0.0
C1165 C 0.23559 0.76149 0.35311 0.0
C1166 C 0.44871 0.68798 0.28351 0.0
C1167 C 0.4248 0.70288 0.29371 0.0
C1168 C 0.34852 0.69996 0.32858 0.0
C1169 C 0.29822 0.75366 0.34882 0.0
C1170 C 0.32682 0.73889 0.33965 0.0
C1171 C 0.40781 0.69518 0.31192 0.0
C1172 C 0.38037 0.71028 0.32189 0.0
H1173 H 0.28416 0.79505 0.38674 0.0
H1174 H 0.33233 0.77442 0.36892 0.0
H1175 H 0.29791 0.7055 0.34234 0.0
H1176 H 0.44578 0.64018 0.31629 0.0
H1177 H 0.40385 0.6662 0.33418 0.0
C1178 C 0.24534 0.73014 0.853 0.0
C1179 C 0.25073 0.73393 0.87425 0.0
C1180 C 0.21722 0.7413 0.84278 0.0
C1181 C 0.16122 0.79482 0.84864 0.0
H1182 H 0.10978 0.76861 0.80195 0.0
C1183 C 0.05004 0.84782 0.80982 0.0
C1184 C 0.05041 0.84882 0.78803 0.0
C1185 C 0.07117 0.8315 0.82045 0.0
C1186 C 0.12408 0.7762 0.81491 0.0
H1187 H 0.23039 0.75101 0.9018 0.0
H1188 H 0.18064 0.76975 0.88429 0.0
H1189 H 0.15203 0.74356 0.82059 0.0
H1190 H 0.07211 0.83242 0.76036 0.0
H1191 H 0.10926 0.80408 0.77897 0.0
H1192 H 0.13374 0.82744 0.84294 0.0
C1193 C 0.19841 0.75878 0.87527 0.0
C1194 C 0.1483 0.76186 0.82558 0.0
C1195 C 0.22662 0.74786 0.88538 0.0
C1196 C 0.07133 0.83231 0.77714 0.0
C1197 C 0.09249 0.81594 0.78781 0.0
C1198 C 0.13702 0.80906 0.83806 0.0
C1199 C 0.19403 0.75637 0.85371 0.0
C1200 C 0.16721 0.77102 0.8426 0.0
C1201 C 0.09319 0.81568 0.80961 0.0
C1202 C 0.11815 0.79998 0.82106 0.0
H1203 H 0.26396 0.71968 0.84411 0.0
H1204 H 0.21484 0.73915 0.82616 0.0
H1205 H 0.1759 0.80276 0.86129 0.0
H1206 H 0.03408 0.86006 0.81879 0.0
H1207 H 0.07059 0.83148 0.83724 0.0
loop_
_geom_bond_atom_site_label_1
_geom_bond_atom_site_label_2
_geom_bond_distance
_geom_bond_site_symmetry_2
_ccdc_geom_bond_type
H0 C1 0.949 . S
C1 H0 0.949 . S
C1 C2 1.395 . S
C1 C3 1.391 . S
C2 C1 1.395 . S
C2 C5 1.390 . S
C3 C1 1.391 . S
C3 C7 1.387 . S
C3 C8 1.491 . S
H4 C5 0.950 . S
C5 C2 1.390 . S
C5 H4 0.950 . S
C5 C6 1.378 . S
C6 C5 1.378 . S
C6 C7 1.409 . S
C7 C3 1.387 . S
C7 C6 1.409 . S
C7 H9 0.951 . S
C8 C3 1.491 . S
C8 C10 1.382 . S
C8 C12 1.404 . S
H9 C7 0.951 . S
C10 C8 1.382 . S
C10 C11 1.390 . S
C10 H15 0.949 . S
C11 C10 1.390 . S
C11 C16 1.399 . S
C12 C8 1.404 . S
C12 H13 0.950 . S
C12 C14 1.375 . S
H13 C12 0.950 . S
C14 C12 1.375 . S
C14 C16 1.382 . S
C14 H18 0.950 . S
H15 C10 0.949 . S
C16 C11 1.399 . S
C16 C14 1.382 . S
C16 H17 0.952 . S
H17 C16 0.952 . S
H18 C14 0.950 . S
H19 C20 0.949 . S
C20 H19 0.949 . S
C20 C21 1.395 . S
C20 C22 1.391 . S
C21 C20 1.395 . S
C21 C24 1.390 . S
C22 C20 1.391 . S
C22 C26 1.387 . S
C22 C27 1.491 . S
H23 C24 0.950 . S
C24 C21 1.390 . S
C24 H23 0.950 . S
C24 C25 1.378 . S
C25 C24 1.378 . S
C25 C26 1.409 . S
C26 C22 1.387 . S
C26 C25 1.409 . S
C26 H28 0.951 . S
C27 C22 1.491 . S
C27 C29 1.382 . S
C27 C31 1.404 . S
H28 C26 0.951 . S
C29 C27 1.382 . S
C29 C30 1.390 . S
C29 H34 0.949 . S
C30 C29 1.390 . S
C30 C35 1.399 . S
C31 C27 1.404 . S
C31 H32 0.950 . S
C31 C33 1.375 . S
H32 C31 0.950 . S
C33 C31 1.375 . S
C33 C35 1.382 . S
C33 H37 0.950 . S
H34 C29 0.949 . S
C35 C30 1.399 . S
C35 C33 1.382 . S
C35 H36 0.952 . S
H36 C35 0.952 . S
H37 C33 0.950 . S
H38 C39 0.949 . S
C39 H38 0.949 . S
C39 C40 1.395 . S
C39 C41 1.391 . S
C40 C39 1.395 . S
C40 C43 1.390 . S
C41 C39 1.391 . S
C41 C45 1.387 . S
C41 C46 1.491 . S
H42 C43 0.950 . S
C43 C40 1.390 . S
C43 H42 0.950 . S
C43 C44 1.378 . S
C44 C43 1.378 . S
C44 C45 1.409 . S
C45 C41 1.387 . S
C45 C44 1.409 . S
C45 H47 0.951 . S
C46 C41 1.491 . S
C46 C48 1.382 . S
C46 C50 1.404 . S
H47 C45 0.951 . S
C48 C46 1.382 . S
C48 C49 1.390 . S
C48 H53 0.949 . S
C49 C48 1.390 . S
C49 C54 1.399 . S
C50 C46 1.404 . S
C50 H51 0.950 . S
C50 C52 1.375 . S
H51 C50 0.950 . S
C52 C50 1.375 . S
C52 C54 1.382 . S
C52 H56 0.950 . S
H53 C48 0.949 . S
C54 C49 1.399 . S
C54 C52 1.382 . S
C54 H55 0.952 . S
H55 C54 0.952 . S
H56 C52 0.950 . S
H57 C58 0.949 . S
C58 H57 0.949 . S
C58 C59 1.395 . S
C58 C60 1.391 . S
C59 C58 1.395 . S
C59 C62 1.390 . S
C60 C58 1.391 . S
C60 C64 1.387 . S
C60 C65 1.491 . S
H61 C62 0.950 . S
C62 C59 1.390 . S
C62 H61 0.950 . S
C62 C63 1.378 . S
C63 C62 1.378 . S
C63 C64 1.409 . S
C64 C60 1.387 . S
C64 C63 1.409 . S
C64 H66 0.951 . S
C65 C60 1.491 . S
C65 C67 1.382 . S
C65 C69 1.404 . S
H66 C64 0.951 . S
C67 C65 1.382 . S
C67 C68 1.390 . S
C67 H72 0.949 . S
C68 C67 1.390 . S
C68 C73 1.399 . S
C69 C65 1.404 . S
C69 H70 0.950 . S
C69 C71 1.375 . S
H70 C69 0.950 . S
C71 C69 1.375 . S
C71 C73 1.382 . S
C71 H75 0.950 . S
H72 C67 0.949 . S
C73 C68 1.399 . S
C73 C71 1.382 . S
C73 H74 0.952 . S
H74 C73 0.952 . S
H75 C71 0.950 . S
H76 C77 0.949 . S
C77 H76 0.949 . S
C77 C78 1.395 . S
C77 C79 1.391 . S
C78 C77 1.395 . S
C78 C81 1.390 . S
C79 C77 1.391 . S
C79 C83 1.387 . S
C79 C84 1.491 . S
H80 C81 0.950 . S
C81 C78 1.390 . S
C81 H80 0.950 . S
C81 C82 1.378 . S
C82 C81 1.378 . S
C82 C83 1.409 . S
C83 C79 1.387 . S
C83 C82 1.409 . S
C83 H85 0.951 . S
C84 C79 1.491 . S
C84 C86 1.382 . S
C84 C88 1.404 . S
H85 C83 0.951 . S
C86 C84 1.382 . S
C86 C87 1.390 . S
C86 H91 0.949 . S
C87 C86 1.390 . S
C87 C92 1.399 . S
C88 C84 1.404 . S
C88 H89 0.950 . S
C88 C90 1.375 . S
H89 C88 0.950 . S
C90 C88 1.375 . S
C90 C92 1.382 . S
C90 H94 0.950 . S
H91 C86 0.949 . S
C92 C87 1.399 . S
C92 C90 1.382 . S
C92 H93 0.952 . S
H93 C92 0.952 . S
H94 C90 0.950 . S
H95 C96 0.949 . S
C96 H95 0.949 . S
C96 C97 1.395 . S
C96 C98 1.391 . S
C97 C96 1.395 . S
C97 C100 1.390 . S
C98 C96 1.391 . S
C98 C102 1.387 . S
C98 C103 1.491 . S
H99 C100 0.950 . S
C100 C97 1.390 . S
C100 H99 0.950 . S
C100 C101 1.378 . S
C101 C100 1.378 . S
C101 C102 1.409 . S
C102 C98 1.387 . S
C102 C101 1.409 . S
C102 H104 0.951 . S
C103 C98 1.491 . S
C103 C105 1.382 . S
C103 C107 1.404 . S
H104 C102 0.951 . S
C105 C103 1.382 . S
C105 C106 1.390 . S
C105 H110 0.949 . S
C106 C105 1.390 . S
C106 C111 1.399 . S
C107 C103 1.404 . S
C107 H108 0.950 . S
C107 C109 1.375 . S
H108 C107 0.950 . S
C109 C107 1.375 . S
C109 C111 1.382 . S
C109 H113 0.950 . S
H110 C105 0.949 . S
C111 C106 1.399 . S
C111 C109 1.382 . S
C111 H112 0.952 . S
H112 C111 0.952 . S
H113 C109 0.950 . S
H114 C115 0.949 . S
C115 H114 0.949 . S
C115 C116 1.395 . S
C115 C117 1.391 . S
C116 C115 1.395 . S
C116 C119 1.390 . S
C117 C115 1.391 . S
C117 C121 1.387 . S
C117 C122 1.491 . S
H118 C119 0.950 . S
C119 C116 1.390 . S
C119 H118 0.950 . S
C119 C120 1.378 . S
C120 C119 1.378 . S
C120 C121 1.409 . S
C121 C117 1.387 . S
C121 C120 1.409 . S
C121 H123 0.951 . S
C122 C117 1.491 . S
C122 C124 1.382 . S
C122 C126 1.404 . S
H123 C121 0.951 . S
C124 C122 1.382 . S
C124 C125 1.390 . S
C124 H129 0.949 . S
C125 C124 1.390 . S
C125 C130 1.399 . S
C126 C122 1.404 . S
C126 H127 0.950 . S
C126 C128 1.375 . S
H127 C126 0.950 . S
C128 C126 1.375 . S
C128 C130 1.382 . S
C128 H132 0.950 . S
H129 C124 0.949 . S
C130 C125 1.399 . S
C130 C128 1.382 . S
C130 H131 0.952 . S
H131 C130 0.952 . S
H132 C128 0.950 . S
H133 C134 0.949 . S
C134 H133 0.949 . S
C134 C135 1.395 . S
C134 C136 1.391 . S
C135 C134 1.395 . S
C135 C138 1.390 . S
C136 C134 1.391 . S
C136 C140 1.387 . S
C136 C141 1.491 . S
H137 C138 0.950 . S
C138 C135 1.390 . S
C138 H137 0.950 . S
C138 C139 1.378 . S
C139 C138 1.378 . S
C139 C140 1.409 . S
C140 C136 1.387 . S
C140 C139 1.409 . S
C140 H142 0.951 . S
C141 C136 1.491 . S
C141 C143 1.382 . S
C141 C145 1.404 . S
H142 C140 0.951 . S
C143 C141 1.382 . S
C143 C144 1.390 . S
C143 H148 0.949 . S
C144 C143 1.390 . S
C144 C149 1.399 . S
C145 C141 1.404 . S
C145 H146 0.950 . S
C145 C147 1.375 . S
H146 C145 0.950 . S
C147 C145 1.375 . S
C147 C149 1.382 . S
C147 H151 0.950 . S
H148 C143 0.949 . S
C149 C144 1.399 . S
C149 C147 1.382 . S
C149 H150 0.952 . S
H150 C149 0.952 . S
H151 C147 0.950 . S
Tb152 N181 2.617 . S
Tb152 N187 2.572 . S
Tb152 O196 2.465 . S
Tb152 O197 2.387 . S
Tb152 O199 2.428 . S
Tb152 O200 2.307 1_455 S
Tb152 O204 2.365 . S
Tb152 O207 2.393 . S
Tb152 C216 2.802 . S
C153 N154 1.379 . S
C153 C156 1.416 . S
C153 C160 1.424 . S
N154 C153 1.379 . S
N154 C157 1.334 . S
N154 Tb163 2.617 . S
C155 C157 1.390 . S
C155 C158 1.339 . S
C155 H175 0.930 . S
C156 C153 1.416 . S
C156 C158 1.416 . S
C156 C162 1.448 . S
C157 N154 1.334 . S
C157 C155 1.390 . S
C157 H168 0.930 . S
C158 C155 1.339 . S
C158 C156 1.416 . S
C158 H179 0.930 . S
C159 C160 1.413 . S
C159 C161 1.427 . S
C159 C165 1.416 . S
C160 C153 1.424 . S
C160 C159 1.413 . S
C160 N164 1.361 . S
C161 C159 1.427 . S
C161 C162 1.328 . S
C161 H176 0.929 . S
C162 C156 1.448 . S
C162 C161 1.328 . S
C162 H177 0.930 . S
Tb163 N154 2.617 . S
Tb163 N164 2.572 . S
Tb163 O198 2.349 1_655 S
Tb163 O201 2.393 . S
Tb163 O202 2.465 . S
Tb163 O203 2.387 . S
Tb163 O205 2.428 . S
Tb163 O206 2.308 1_655 S
Tb163 C227 2.802 . S
N164 C160 1.361 . S
N164 Tb163 2.572 . S
N164 C166 1.340 . S
C165 C159 1.416 . S
C165 C167 1.332 . S
C165 H173 0.931 1_545 S
C166 N164 1.340 . S
C166 C167 1.407 . S
C166 H172 0.930 . S
C167 C165 1.332 . S
C167 C166 1.407 . S
C167 H169 0.929 1_545 S
H168 C157 0.930 . S
H169 C167 0.929 1_565 S
H170 C185 0.930 . S
H171 C192 0.929 . S
H172 C166 0.930 . S
H173 C165 0.931 1_565 S
H174 C188 0.930 . S
H175 C155 0.930 . S
H176 C161 0.929 . S
H177 C162 0.930 . S
H178 C183 0.930 . S
H179 C158 0.930 . S
H180 C191 0.931 . S
N181 Tb152 2.617 . S
N181 C182 1.379 . S
N181 C185 1.334 . S
C182 N181 1.379 . S
C182 C184 1.416 . S
C182 C190 1.424 . S
C183 H178 0.930 . S
C183 C185 1.390 . S
C183 C186 1.339 . S
C184 C182 1.416 . S
C184 C186 1.416 . S
C184 C217 1.448 . S
C185 H170 0.930 . S
C185 N181 1.334 . S
C185 C183 1.390 . S
C186 C183 1.339 . S
C186 C184 1.416 . S
C186 H193 0.930 . S
N187 Tb152 2.572 . S
N187 C188 1.340 . S
N187 C190 1.361 . S
C188 H174 0.930 . S
C188 N187 1.340 . S
C188 C192 1.407 . S
C189 C190 1.413 . S
C189 C191 1.416 . S
C189 C218 1.427 . S
C190 C182 1.424 . S
C190 N187 1.361 . S
C190 C189 1.413 . S
C191 H180 0.931 . S
C191 C189 1.416 . S
C191 C192 1.332 . S
C192 H171 0.929 . S
C192 C188 1.407 . S
C192 C191 1.332 . S
H193 C186 0.930 . S
H194 C217 0.930 . S
H195 C218 0.929 . S
O196 Tb152 2.465 . S
O196 C216 1.264 . S
O197 Tb152 2.387 . S
O197 C208 1.264 . S
O198 Tb163 2.349 1_455 S
O198 C208 1.243 . S
O199 Tb152 2.428 . S
O199 C216 1.256 . S
O200 Tb152 2.307 1_655 S
O200 C215 1.267 . S
O201 Tb163 2.393 . S
O201 C215 1.248 . S
O202 Tb163 2.465 . S
O202 C227 1.264 . S
O203 Tb163 2.387 . S
O203 C219 1.264 . S
O204 Tb152 2.365 . S
O204 C219 1.223 1_455 S
O205 Tb163 2.428 . S
O205 C227 1.256 . S
O206 Tb163 2.308 1_455 S
O206 C226 1.266 . S
O207 Tb152 2.393 . S
O207 C226 1.248 . S
C208 O197 1.264 . S
C208 O198 1.243 . S
C209 C212 1.399 . S
C209 C214 1.383 . S
C209 C216 1.496 . S
C210 C211 1.399 . S
C210 C214 1.389 . S
C211 C210 1.399 . S
C211 C213 1.380 . S
C211 H228 0.929 . S
C212 C209 1.399 . S
C212 C213 1.392 . S
C212 H229 0.929 . S
C213 C211 1.380 . S
C213 C212 1.392 . S
C213 H230 0.929 . S
C214 C209 1.383 . S
C214 C210 1.389 . S
C214 H231 0.931 . S
C215 O200 1.267 . S
C215 O201 1.248 . S
C216 Tb152 2.802 . S
C216 O196 1.264 . S
C216 O199 1.256 . S
C216 C209 1.496 . S
C217 C184 1.448 . S
C217 H194 0.930 . S
C217 C218 1.328 . S
C218 C189 1.427 . S
C218 H195 0.929 . S
C218 C217 1.328 . S
C219 O203 1.264 . S
C219 O204 1.223 1_655 S
C220 C223 1.399 . S
C220 C224 1.383 . S
C220 C227 1.496 . S
C221 C222 1.399 . S
C221 C224 1.389 . S
C222 C221 1.399 . S
C222 C225 1.380 . S
C222 H232 0.929 . S
C223 C220 1.399 . S
C223 C225 1.392 . S
C223 H233 0.929 . S
C224 C220 1.383 . S
C224 C221 1.389 . S
C224 H234 0.931 . S
C225 C222 1.380 . S
C225 C223 1.392 . S
C225 H235 0.929 . S
C226 O206 1.266 . S
C226 O207 1.248 . S
C227 Tb163 2.802 . S
C227 O202 1.264 . S
C227 O205 1.256 . S
C227 C220 1.496 . S
H228 C211 0.929 . S
H229 C212 0.929 . S
H230 C213 0.929 . S
H231 C214 0.931 . S
H232 C222 0.929 . S
H233 C223 0.929 . S
H234 C224 0.931 . S
H235 C225 0.929 . S
Tb236 N265 2.617 . S
Tb236 N271 2.572 . S
Tb236 O280 2.465 . S
Tb236 O281 2.387 . S
Tb236 O283 2.428 . S
Tb236 O284 2.308 . S
Tb236 O288 2.349 . S
Tb236 O291 2.393 . S
Tb236 C300 2.802 . S
C237 N238 1.379 . S
C237 C240 1.416 . S
C237 C244 1.424 . S
N238 C237 1.379 . S
N238 C241 1.334 . S
N238 Tb247 2.617 . S
C239 C241 1.390 . S
C239 C242 1.339 . S
C239 H259 0.930 . S
C240 C237 1.416 . S
C240 C242 1.416 . S
C240 C246 1.448 . S
C241 N238 1.334 . S
C241 C239 1.390 . S
C241 H252 0.930 . S
C242 C239 1.339 . S
C242 C240 1.416 . S
C242 H263 0.930 . S
C243 C244 1.413 . S
C243 C245 1.427 . S
C243 C249 1.416 . S
C244 C237 1.424 . S
C244 C243 1.413 . S
C244 N248 1.361 . S
C245 C243 1.427 . S
C245 C246 1.328 . S
C245 H260 0.929 . S
C246 C240 1.448 . S
C246 C245 1.328 . S
C246 H261 0.930 . S
Tb247 N238 2.617 . S
Tb247 N248 2.572 . S
Tb247 O282 2.349 . S
Tb247 O285 2.393 . S
Tb247 O286 2.465 . S
Tb247 O287 2.387 . S
Tb247 O289 2.428 . S
Tb247 O290 2.308 . S
Tb247 C311 2.802 . S
N248 C244 1.361 . S
N248 Tb247 2.572 . S
N248 C250 1.340 . S
C249 C243 1.416 . S
C249 C251 1.332 . S
C249 H257 0.931 . S
C250 N248 1.340 . S
C250 C251 1.407 . S
C250 H256 0.930 . S
C251 C249 1.332 . S
C251 C250 1.407 . S
C251 H253 0.929 . S
H252 C241 0.930 . S
H253 C251 0.929 . S
H254 C269 0.930 . S
H255 C276 0.929 . S
H256 C250 0.930 . S
H257 C249 0.931 . S
H258 C272 0.930 . S
H259 C239 0.930 . S
H260 C245 0.929 . S
H261 C246 0.930 . S
H262 C267 0.930 . S
H263 C242 0.930 . S
H264 C275 0.931 . S
N265 Tb236 2.617 . S
N265 C266 1.379 . S
N265 C269 1.334 . S
C266 N265 1.379 . S
C266 C268 1.416 . S
C266 C274 1.424 . S
C267 H262 0.930 . S
C267 C269 1.390 . S
C267 C270 1.339 . S
C268 C266 1.416 . S
C268 C270 1.416 . S
C268 C301 1.448 . S
C269 H254 0.930 . S
C269 N265 1.334 . S
C269 C267 1.390 . S
C270 C267 1.339 . S
C270 C268 1.416 . S
C270 H277 0.930 . S
N271 Tb236 2.572 . S
N271 C272 1.340 . S
N271 C274 1.361 . S
C272 H258 0.930 . S
C272 N271 1.340 . S
C272 C276 1.407 . S
C273 C274 1.413 . S
C273 C275 1.416 . S
C273 C302 1.427 . S
C274 C266 1.424 . S
C274 N271 1.361 . S
C274 C273 1.413 . S
C275 H264 0.931 . S
C275 C273 1.416 . S
C275 C276 1.332 . S
C276 H255 0.929 . S
C276 C272 1.407 . S
C276 C275 1.332 . S
H277 C270 0.930 . S
H278 C301 0.930 . S
H279 C302 0.929 . S
O280 Tb236 2.465 . S
O280 C300 1.264 . S
O281 Tb236 2.387 . S
O281 C292 1.264 . S
O282 Tb247 2.349 . S
O282 C292 1.243 . S
O283 Tb236 2.428 . S
O283 C300 1.256 . S
O284 Tb236 2.308 . S
O284 C299 1.266 . S
O285 Tb247 2.393 . S
O285 C299 1.248 . S
O286 Tb247 2.465 . S
O286 C311 1.264 . S
O287 Tb247 2.387 . S
O287 C303 1.264 . S
O288 Tb236 2.349 . S
O288 C303 1.243 . S
O289 Tb247 2.428 . S
O289 C311 1.256 . S
O290 Tb247 2.308 . S
O290 C310 1.266 . S
O291 Tb236 2.393 . S
O291 C310 1.248 . S
C292 O281 1.264 . S
C292 O282 1.243 . S
C293 C296 1.399 . S
C293 C298 1.383 . S
C293 C300 1.496 . S
C294 C295 1.399 . S
C294 C298 1.389 . S
C295 C294 1.399 . S
C295 C297 1.380 . S
C295 H312 0.929 . S
C296 C293 1.399 . S
C296 C297 1.392 . S
C296 H313 0.929 . S
C297 C295 1.380 . S
C297 C296 1.392 . S
C297 H314 0.929 . S
C298 C293 1.383 . S
C298 C294 1.389 . S
C298 H315 0.931 . S
C299 O284 1.266 . S
C299 O285 1.248 . S
C300 Tb236 2.802 . S
C300 O280 1.264 . S
C300 O283 1.256 . S
C300 C293 1.496 . S
C301 C268 1.448 . S
C301 H278 0.930 . S
C301 C302 1.328 . S
C302 C273 1.427 . S
C302 H279 0.929 . S
C302 C301 1.328 . S
C303 O287 1.264 . S
C303 O288 1.243 . S
C304 C307 1.399 . S
C304 C308 1.383 . S
C304 C311 1.496 . S
C305 C306 1.399 . S
C305 C308 1.389 . S
C306 C305 1.399 . S
C306 C309 1.380 . S
C306 H316 0.929 . S
C307 C304 1.399 . S
C307 C309 1.392 . S
C307 H317 0.929 . S
C308 C304 1.383 . S
C308 C305 1.389 . S
C308 H318 0.931 . S
C309 C306 1.380 . S
C309 C307 1.392 . S
C309 H319 0.929 . S
C310 O290 1.266 . S
C310 O291 1.248 . S
C311 Tb247 2.802 . S
C311 O286 1.264 . S
C311 O289 1.256 . S
C311 C304 1.496 . S
H312 C295 0.929 . S
H313 C296 0.929 . S
H314 C297 0.929 . S
H315 C298 0.931 . S
H316 C306 0.929 . S
H317 C307 0.929 . S
H318 C308 0.931 . S
H319 C309 0.929 . S
Tb320 N349 2.617 . S
Tb320 N355 2.572 . S
Tb320 O364 2.465 . S
Tb320 O365 2.387 . S
Tb320 O367 2.428 . S
Tb320 O368 2.308 . S
Tb320 O372 2.349 . S
Tb320 O375 2.393 . S
Tb320 C384 2.802 . S
C321 N322 1.379 . S
C321 C324 1.416 . S
C321 C328 1.424 . S
N322 C321 1.379 . S
N322 C325 1.334 . S
N322 Tb331 2.617 . S
C323 C325 1.390 . S
C323 C326 1.339 . S
C323 H343 0.930 . S
C324 C321 1.416 . S
C324 C326 1.416 . S
C324 C330 1.448 . S
C325 N322 1.334 . S
C325 C323 1.390 . S
C325 H336 0.930 . S
C326 C323 1.339 . S
C326 C324 1.416 . S
C326 H347 0.930 . S
C327 C328 1.413 . S
C327 C329 1.427 . S
C327 C333 1.416 . S
C328 C321 1.424 . S
C328 C327 1.413 . S
C328 N332 1.361 . S
C329 C327 1.427 . S
C329 C330 1.328 . S
C329 H344 0.929 . S
C330 C324 1.448 . S
C330 C329 1.328 . S
C330 H345 0.930 . S
Tb331 N322 2.617 . S
Tb331 N332 2.572 . S
Tb331 O366 2.349 1_655 S
Tb331 O369 2.393 . S
Tb331 O370 2.465 . S
Tb331 O371 2.387 . S
Tb331 O373 2.428 . S
Tb331 O374 2.308 1_655 S
Tb331 C395 2.802 . S
N332 C328 1.361 . S
N332 Tb331 2.572 . S
N332 C334 1.340 . S
C333 C327 1.416 . S
C333 C335 1.332 . S
C333 H341 0.931 . S
C334 N332 1.340 . S
C334 C335 1.407 . S
C334 H340 0.930 . S
C335 C333 1.332 . S
C335 C334 1.407 . S
C335 H337 0.929 . S
H336 C325 0.930 . S
H337 C335 0.929 . S
H338 C353 0.930 . S
H339 C360 0.929 1_545 S
H340 C334 0.930 . S
H341 C333 0.931 . S
H342 C356 0.930 . S
H343 C323 0.930 . S
H344 C329 0.929 . S
H345 C330 0.930 . S
H346 C351 0.930 . S
H347 C326 0.930 . S
H348 C359 0.931 1_545 S
N349 Tb320 2.617 . S
N349 C350 1.379 . S
N349 C353 1.334 . S
C350 N349 1.379 . S
C350 C352 1.416 . S
C350 C358 1.424 . S
C351 H346 0.930 . S
C351 C353 1.390 . S
C351 C354 1.339 . S
C352 C350 1.416 . S
C352 C354 1.416 . S
C352 C385 1.448 . S
C353 H338 0.930 . S
C353 N349 1.334 . S
C353 C351 1.390 . S
C354 C351 1.339 . S
C354 C352 1.416 . S
C354 H361 0.930 . S
N355 Tb320 2.572 . S
N355 C356 1.340 . S
N355 C358 1.361 . S
C356 H342 0.930 . S
C356 N355 1.340 . S
C356 C360 1.407 . S
C357 C358 1.413 . S
C357 C359 1.416 . S
C357 C386 1.427 . S
C358 C350 1.424 . S
C358 N355 1.361 . S
C358 C357 1.413 . S
C359 H348 0.931 1_565 S
C359 C357 1.416 . S
C359 C360 1.332 . S
C360 H339 0.929 1_565 S
C360 C356 1.407 . S
C360 C359 1.332 . S
H361 C354 0.930 . S
H362 C385 0.930 . S
H363 C386 0.929 . S
O364 Tb320 2.465 . S
O364 C384 1.264 . S
O365 Tb320 2.387 . S
O365 C376 1.264 . S
O366 Tb331 2.349 1_455 S
O366 C376 1.243 . S
O367 Tb320 2.428 . S
O367 C384 1.256 . S
O368 Tb320 2.308 . S
O368 C383 1.266 1_455 S
O369 Tb331 2.393 . S
O369 C383 1.248 . S
O370 Tb331 2.465 . S
O370 C395 1.264 . S
O371 Tb331 2.387 . S
O371 C387 1.264 . S
O372 Tb320 2.349 . S
O372 C387 1.243 1_455 S
O373 Tb331 2.428 . S
O373 C395 1.256 . S
O374 Tb331 2.308 1_455 S
O374 C394 1.266 . S
O375 Tb320 2.393 . S
O375 C394 1.248 . S
C376 O365 1.264 . S
C376 O366 1.243 . S
C377 C380 1.399 . S
C377 C382 1.383 . S
C377 C384 1.496 . S
C378 C379 1.399 . S
C378 C382 1.389 . S
C379 C378 1.399 . S
C379 C381 1.380 . S
C379 H396 0.929 . S
C380 C377 1.399 . S
C380 C381 1.392 . S
C380 H397 0.929 . S
C381 C379 1.380 . S
C381 C380 1.392 . S
C381 H398 0.929 . S
C382 C377 1.383 . S
C382 C378 1.389 . S
C382 H399 0.931 . S
C383 O368 1.266 1_655 S
C383 O369 1.248 . S
C384 Tb320 2.802 . S
C384 O364 1.264 . S
C384 O367 1.256 . S
C384 C377 1.496 . S
C385 C352 1.448 . S
C385 H362 0.930 . S
C385 C386 1.328 . S
C386 C357 1.427 . S
C386 H363 0.929 . S
C386 C385 1.328 . S
C387 O371 1.264 . S
C387 O372 1.243 1_655 S
C388 C391 1.399 . S
C388 C392 1.383 . S
C388 C395 1.496 . S
C389 C390 1.399 . S
C389 C392 1.389 . S
C390 C389 1.399 . S
C390 C393 1.380 . S
C390 H400 0.929 . S
C391 C388 1.399 . S
C391 C393 1.392 . S
C391 H401 0.929 . S
C392 C388 1.383 . S
C392 C389 1.389 . S
C392 H402 0.931 . S
C393 C390 1.380 . S
C393 C391 1.392 . S
C393 H403 0.929 . S
C394 O374 1.266 . S
C394 O375 1.248 . S
C395 Tb331 2.802 . S
C395 O370 1.264 . S
C395 O373 1.256 . S
C395 C388 1.496 . S
H396 C379 0.929 . S
H397 C380 0.929 . S
H398 C381 0.929 . S
H399 C382 0.931 . S
H400 C390 0.929 . S
H401 C391 0.929 . S
H402 C392 0.931 . S
H403 C393 0.929 . S
Tb404 N433 2.617 . S
Tb404 N439 2.572 . S
Tb404 O448 2.465 . S
Tb404 O449 2.387 . S
Tb404 O451 2.428 . S
Tb404 O452 2.308 . S
Tb404 O456 2.349 . S
Tb404 O459 2.393 . S
Tb404 C468 2.802 . S
C405 N406 1.379 . S
C405 C408 1.416 . S
C405 C412 1.424 . S
N406 C405 1.379 . S
N406 C409 1.334 . S
N406 Tb415 2.617 . S
C407 C409 1.390 . S
C407 C410 1.339 . S
C407 H427 0.930 . S
C408 C405 1.416 . S
C408 C410 1.416 . S
C408 C414 1.448 . S
C409 N406 1.334 . S
C409 C407 1.390 . S
C409 H420 0.930 . S
C410 C407 1.339 . S
C410 C408 1.416 . S
C410 H431 0.930 . S
C411 C412 1.413 . S
C411 C413 1.427 . S
C411 C417 1.416 . S
C412 C405 1.424 . S
C412 C411 1.413 . S
C412 N416 1.361 . S
C413 C411 1.427 . S
C413 C414 1.328 . S
C413 H428 0.929 . S
C414 C408 1.448 . S
C414 C413 1.328 . S
C414 H429 0.930 . S
Tb415 N406 2.617 . S
Tb415 N416 2.572 . S
Tb415 O450 2.349 . S
Tb415 O453 2.393 . S
Tb415 O454 2.465 . S
Tb415 O455 2.387 . S
Tb415 O457 2.428 . S
Tb415 O458 2.308 . S
Tb415 C479 2.802 . S
N416 C412 1.361 . S
N416 Tb415 2.572 . S
N416 C418 1.340 . S
C417 C411 1.416 . S
C417 C419 1.332 . S
C417 H425 0.931 . S
C418 N416 1.340 . S
C418 C419 1.407 . S
C418 H424 0.930 . S
C419 C417 1.332 . S
C419 C418 1.407 . S
C419 H421 0.929 . S
H420 C409 0.930 . S
H421 C419 0.929 . S
H422 C437 0.930 . S
H423 C444 0.929 . S
H424 C418 0.930 . S
H425 C417 0.931 . S
H426 C440 0.930 . S
H427 C407 0.930 . S
H428 C413 0.929 . S
H429 C414 0.930 . S
H430 C435 0.930 . S
H431 C410 0.930 . S
H432 C443 0.931 . S
N433 Tb404 2.617 . S
N433 C434 1.379 . S
N433 C437 1.334 . S
C434 N433 1.379 . S
C434 C436 1.416 . S
C434 C442 1.424 . S
C435 H430 0.930 . S
C435 C437 1.390 . S
C435 C438 1.339 . S
C436 C434 1.416 . S
C436 C438 1.416 . S
C436 C469 1.448 . S
C437 H422 0.930 . S
C437 N433 1.334 . S
C437 C435 1.390 . S
C438 C435 1.339 . S
C438 C436 1.416 . S
C438 H445 0.930 . S
N439 Tb404 2.572 . S
N439 C440 1.340 . S
N439 C442 1.361 . S
C440 H426 0.930 . S
C440 N439 1.340 . S
C440 C444 1.407 . S
C441 C442 1.413 . S
C441 C443 1.416 . S
C441 C470 1.427 . S
C442 C434 1.424 . S
C442 N439 1.361 . S
C442 C441 1.413 . S
C443 H432 0.931 . S
C443 C441 1.416 . S
C443 C444 1.332 . S
C444 H423 0.929 . S
C444 C440 1.407 . S
C444 C443 1.332 . S
H445 C438 0.930 . S
H446 C469 0.930 . S
H447 C470 0.929 . S
O448 Tb404 2.465 . S
O448 C468 1.264 . S
O449 Tb404 2.387 . S
O449 C460 1.264 . S
O450 Tb415 2.349 . S
O450 C460 1.243 . S
O451 Tb404 2.428 . S
O451 C468 1.256 . S
O452 Tb404 2.308 . S
O452 C467 1.266 . S
O453 Tb415 2.393 . S
O453 C467 1.248 . S
O454 Tb415 2.465 . S
O454 C479 1.264 . S
O455 Tb415 2.387 . S
O455 C471 1.264 . S
O456 Tb404 2.349 . S
O456 C471 1.243 . S
O457 Tb415 2.428 . S
O457 C479 1.256 . S
O458 Tb415 2.308 . S
O458 C478 1.266 . S
O459 Tb404 2.393 . S
O459 C478 1.248 . S
C460 O449 1.264 . S
C460 O450 1.243 . S
C461 C464 1.399 . S
C461 C466 1.383 . S
C461 C468 1.496 . S
C462 C463 1.399 . S
C462 C466 1.389 . S
C463 C462 1.399 . S
C463 C465 1.380 . S
C463 H480 0.929 . S
C464 C461 1.399 . S
C464 C465 1.392 . S
C464 H481 0.929 . S
C465 C463 1.380 . S
C465 C464 1.392 . S
C465 H482 0.929 . S
C466 C461 1.383 . S
C466 C462 1.389 . S
C466 H483 0.931 . S
C467 O452 1.266 . S
C467 O453 1.248 . S
C468 Tb404 2.802 . S
C468 O448 1.264 . S
C468 O451 1.256 . S
C468 C461 1.496 . S
C469 C436 1.448 . S
C469 H446 0.930 . S
C469 C470 1.328 . S
C470 C441 1.427 . S
C470 H447 0.929 . S
C470 C469 1.328 . S
C471 O455 1.264 . S
C471 O456 1.243 . S
C472 C475 1.399 . S
C472 C476 1.383 . S
C472 C479 1.496 . S
C473 C474 1.399 . S
C473 C476 1.389 . S
C474 C473 1.399 . S
C474 C477 1.380 . S
C474 H484 0.929 . S
C475 C472 1.399 . S
C475 C477 1.392 . S
C475 H485 0.929 . S
C476 C472 1.383 . S
C476 C473 1.389 . S
C476 H486 0.931 . S
C477 C474 1.380 . S
C477 C475 1.392 . S
C477 H487 0.929 . S
C478 O458 1.266 . S
C478 O459 1.248 . S
C479 Tb415 2.802 . S
C479 O454 1.264 . S
C479 O457 1.256 . S
C479 C472 1.496 . S
H480 C463 0.929 . S
H481 C464 0.929 . S
H482 C465 0.929 . S
H483 C466 0.931 . S
H484 C474 0.929 . S
H485 C475 0.929 . S
H486 C476 0.931 . S
H487 C477 0.929 . S
C488 C489 1.349 . S
C488 C490 1.327 . S
C488 H513 0.950 . S
C489 C488 1.349 . S
C489 C505 1.349 . S
C490 C488 1.327 . S
C490 C509 1.429 . S
C490 H514 0.950 . S
C491 C508 1.574 . S
C491 C510 1.368 . S
C491 H515 0.949 . S
H492 C496 0.949 . S
C493 C494 1.349 . S
C493 C495 1.327 . S
C493 H516 0.950 . S
C494 C493 1.349 . S
C494 C506 1.349 . S
C495 C493 1.327 . S
C495 C511 1.422 1_545 S
C495 H517 0.950 . S
C496 H492 0.949 . S
C496 C504 1.574 . S
C496 C512 1.368 . S
H497 C505 0.950 . S
H498 C503 0.950 . S
H499 C504 0.949 . S
H500 C506 0.950 . S
H501 C507 0.950 1_565 S
H502 C508 0.949 . S
C503 H498 0.950 . S
C503 C505 1.327 . S
C503 C509 1.429 . S
C504 C496 1.574 . S
C504 H499 0.949 . S
C504 C510 1.368 . S
C505 C489 1.349 . S
C505 H497 0.950 . S
C505 C503 1.327 . S
C506 C494 1.349 . S
C506 H500 0.950 . S
C506 C507 1.327 . S
C507 H501 0.950 1_545 S
C507 C506 1.327 . S
C507 C511 1.426 1_545 S
C508 C491 1.574 . S
C508 H502 0.949 . S
C508 C512 1.368 . S
C509 C490 1.429 . S
C509 C503 1.429 . S
C509 C510 1.523 . S
C510 C491 1.368 . S
C510 C504 1.368 . S
C510 C509 1.523 . S
C511 C495 1.422 1_565 S
C511 C507 1.426 1_565 S
C511 C512 1.532 . S
C512 C496 1.368 . S
C512 C508 1.368 . S
C512 C511 1.532 . S
H513 C488 0.950 . S
H514 C490 0.950 . S
H515 C491 0.949 . S
H516 C493 0.950 . S
H517 C495 0.950 . S
C518 C519 1.349 . S
C518 C520 1.327 . S
C518 H543 0.950 . S
C519 C518 1.349 . S
C519 C535 1.349 . S
C520 C518 1.327 . S
C520 C539 1.429 . S
C520 H544 0.950 . S
C521 C538 1.574 . S
C521 C540 1.368 . S
C521 H545 0.949 . S
H522 C526 0.949 . S
C523 C524 1.349 . S
C523 C525 1.327 . S
C523 H546 0.950 . S
C524 C523 1.349 . S
C524 C536 1.349 . S
C525 C523 1.327 . S
C525 C541 1.429 . S
C525 H547 0.950 . S
C526 H522 0.949 . S
C526 C534 1.574 . S
C526 C542 1.368 . S
H527 C535 0.950 . S
H528 C533 0.950 . S
H529 C534 0.949 . S
H530 C536 0.950 . S
H531 C537 0.950 . S
H532 C538 0.949 . S
C533 H528 0.950 . S
C533 C535 1.327 . S
C533 C539 1.429 . S
C534 C526 1.574 . S
C534 H529 0.949 . S
C534 C540 1.368 . S
C535 C519 1.349 . S
C535 H527 0.950 . S
C535 C533 1.327 . S
C536 C524 1.349 . S
C536 H530 0.950 . S
C536 C537 1.327 . S
C537 H531 0.950 . S
C537 C536 1.327 . S
C537 C541 1.429 . S
C538 C521 1.574 . S
C538 H532 0.949 . S
C538 C542 1.368 . S
C539 C520 1.429 . S
C539 C533 1.429 . S
C539 C540 1.523 . S
C540 C521 1.368 . S
C540 C534 1.368 . S
C540 C539 1.523 . S
C541 C525 1.429 . S
C541 C537 1.429 . S
C541 C542 1.523 . S
C542 C526 1.368 . S
C542 C538 1.368 . S
C542 C541 1.523 . S
H543 C518 0.950 . S
H544 C520 0.950 . S
H545 C521 0.949 . S
H546 C523 0.950 . S
H547 C525 0.950 . S
C548 C549 1.349 . S
C548 C550 1.327 . S
C548 H573 0.950 . S
C549 C548 1.349 . S
C549 C565 1.349 . S
C550 C548 1.327 . S
C550 C569 1.429 . S
C550 H574 0.950 . S
C551 C568 1.574 . S
C551 C570 1.368 . S
C551 H575 0.949 . S
H552 C556 0.949 . S
C553 C554 1.349 . S
C553 C555 1.327 . S
C553 H576 0.950 . S
C554 C553 1.349 . S
C554 C566 1.349 . S
C555 C553 1.327 . S
C555 C571 1.429 . S
C555 H577 0.950 . S
C556 H552 0.949 . S
C556 C564 1.574 . S
C556 C572 1.368 . S
H557 C565 0.950 . S
H558 C563 0.950 . S
H559 C564 0.949 . S
H560 C566 0.950 . S
H561 C567 0.950 . S
H562 C568 0.949 . S
C563 H558 0.950 . S
C563 C565 1.327 . S
C563 C569 1.429 . S
C564 C556 1.574 . S
C564 H559 0.949 . S
C564 C570 1.368 . S
C565 C549 1.349 . S
C565 H557 0.950 . S
C565 C563 1.327 . S
C566 C554 1.349 . S
C566 H560 0.950 . S
C566 C567 1.327 . S
C567 H561 0.950 . S
C567 C566 1.327 . S
C567 C571 1.429 . S
C568 C551 1.574 . S
C568 H562 0.949 . S
C568 C572 1.368 . S
C569 C550 1.429 . S
C569 C563 1.429 . S
C569 C570 1.523 . S
C570 C551 1.368 . S
C570 C564 1.368 . S
C570 C569 1.523 . S
C571 C555 1.429 . S
C571 C567 1.429 . S
C571 C572 1.523 . S
C572 C556 1.368 . S
C572 C568 1.368 . S
C572 C571 1.523 . S
H573 C548 0.950 . S
H574 C550 0.950 . S
H575 C551 0.949 . S
H576 C553 0.950 . S
H577 C555 0.950 . S
C578 C579 1.349 . S
C578 C580 1.327 . S
C578 H603 0.950 . S
C579 C578 1.349 . S
C579 C595 1.349 . S
C580 C578 1.327 . S
C580 C599 1.429 . S
C580 H604 0.950 . S
C581 C598 1.574 . S
C581 C600 1.368 . S
C581 H605 0.949 . S
H582 C586 0.949 . S
C583 C584 1.349 . S
C583 C585 1.327 . S
C583 H606 0.950 . S
C584 C583 1.349 . S
C584 C596 1.349 . S
C585 C583 1.327 . S
C585 C601 1.425 1_545 S
C585 H607 0.950 . S
C586 H582 0.949 . S
C586 C594 1.574 . S
C586 C602 1.368 . S
H587 C595 0.950 . S
H588 C593 0.950 . S
H589 C594 0.949 . S
H590 C596 0.950 . S
H591 C597 0.950 . S
H592 C598 0.949 1_545 S
C593 H588 0.950 . S
C593 C595 1.327 . S
C593 C599 1.429 . S
C594 C586 1.574 . S
C594 H589 0.949 . S
C594 C600 1.368 . S
C595 C579 1.349 . S
C595 H587 0.950 . S
C595 C593 1.327 . S
C596 C584 1.349 . S
C596 H590 0.950 . S
C596 C597 1.327 1_545 S
C597 H591 0.950 . S
C597 C596 1.327 1_565 S
C597 C601 1.429 . S
C598 C581 1.574 . S
C598 H592 0.949 1_565 S
C598 C602 1.368 . S
C599 C580 1.429 . S
C599 C593 1.429 . S
C599 C600 1.523 . S
C600 C581 1.368 . S
C600 C594 1.368 . S
C600 C599 1.523 . S
C601 C585 1.425 1_565 S
C601 C597 1.429 . S
C601 C602 1.525 . S
C602 C586 1.368 . S
C602 C598 1.368 . S
C602 C601 1.525 . S
H603 C578 0.950 . S
H604 C580 0.950 . S
H605 C581 0.949 . S
H606 C583 0.950 . S
H607 C585 0.950 . S
C608 C609 1.349 . S
C608 C610 1.327 . S
C608 H633 0.950 . S
C609 C608 1.349 . S
C609 C625 1.349 . S
C610 C608 1.327 . S
C610 C629 1.429 . S
C610 H634 0.950 . S
C611 C628 1.574 . S
C611 C630 1.368 . S
C611 H635 0.949 . S
H612 C616 0.949 . S
C613 C614 1.349 . S
C613 C615 1.327 . S
C613 H636 0.950 . S
C614 C613 1.349 . S
C614 C626 1.349 . S
C615 C613 1.327 . S
C615 C631 1.420 1_565 S
C615 H637 0.950 . S
C616 H612 0.949 . S
C616 C624 1.574 . S
C616 C632 1.368 . S
H617 C625 0.950 . S
H618 C623 0.950 . S
H619 C624 0.949 . S
H620 C626 0.950 . S
H621 C627 0.935 1_545 S
H622 C628 0.949 . S
C623 H618 0.950 . S
C623 C625 1.327 . S
C623 C629 1.429 . S
C624 C616 1.574 . S
C624 H619 0.949 . S
C624 C630 1.368 . S
C625 C609 1.349 . S
C625 H617 0.950 . S
C625 C623 1.327 . S
C626 C614 1.349 . S
C626 H620 0.950 . S
C626 C627 1.342 . S
C627 H621 0.935 1_565 S
C627 C626 1.342 . S
C627 C631 1.428 1_565 S
C628 C611 1.574 . S
C628 H622 0.949 . S
C628 C632 1.368 . S
C629 C610 1.429 . S
C629 C623 1.429 . S
C629 C630 1.523 . S
C630 C611 1.368 . S
C630 C624 1.368 . S
C630 C629 1.523 . S
C631 C615 1.420 1_545 S
C631 C627 1.428 1_545 S
C631 C632 1.532 . S
C632 C616 1.368 . S
C632 C628 1.368 . S
C632 C631 1.532 . S
H633 C608 0.950 . S
H634 C610 0.950 . S
H635 C611 0.949 . S
H636 C613 0.950 . S
H637 C615 0.950 . S
C638 C639 1.349 . S
C638 C640 1.327 . S
C638 H663 0.950 . S
C639 C638 1.349 . S
C639 C655 1.349 . S
C640 C638 1.327 . S
C640 C659 1.429 . S
C640 H664 0.950 . S
C641 C658 1.574 . S
C641 C660 1.368 . S
C641 H665 0.949 . S
H642 C646 0.949 . S
C643 C644 1.349 . S
C643 C645 1.327 . S
C643 H666 0.950 . S
C644 C643 1.349 . S
C644 C656 1.349 . S
C645 C643 1.327 . S
C645 C661 1.429 . S
C645 H667 0.950 . S
C646 H642 0.949 . S
C646 C654 1.574 . S
C646 C662 1.368 . S
H647 C655 0.950 . S
H648 C653 0.950 . S
H649 C654 0.949 . S
H650 C656 0.950 . S
H651 C657 0.950 . S
H652 C658 0.949 . S
C653 H648 0.950 . S
C653 C655 1.327 . S
C653 C659 1.429 . S
C654 C646 1.574 . S
C654 H649 0.949 . S
C654 C660 1.368 . S
C655 C639 1.349 . S
C655 H647 0.950 . S
C655 C653 1.327 . S
C656 C644 1.349 . S
C656 H650 0.950 . S
C656 C657 1.327 . S
C657 H651 0.950 . S
C657 C656 1.327 . S
C657 C661 1.429 . S
C658 C641 1.574 . S
C658 H652 0.949 . S
C658 C662 1.368 . S
C659 C640 1.429 . S
C659 C653 1.429 . S
C659 C660 1.523 . S
C660 C641 1.368 . S
C660 C654 1.368 . S
C660 C659 1.523 . S
C661 C645 1.429 . S
C661 C657 1.429 . S
C661 C662 1.523 . S
C662 C646 1.368 . S
C662 C658 1.368 . S
C662 C661 1.523 . S
H663 C638 0.950 . S
H664 C640 0.950 . S
H665 C641 0.949 . S
H666 C643 0.950 . S
H667 C645 0.950 . S
C668 C669 1.349 . S
C668 C670 1.327 . S
C668 H693 0.950 . S
C669 C668 1.349 . S
C669 C685 1.349 . S
C670 C668 1.327 . S
C670 C689 1.429 . S
C670 H694 0.950 . S
C671 C688 1.574 . S
C671 C690 1.368 . S
C671 H695 0.949 . S
H672 C676 0.949 . S
C673 C674 1.349 . S
C673 C675 1.327 . S
C673 H696 0.950 . S
C674 C673 1.349 . S
C674 C686 1.349 . S
C675 C673 1.327 . S
C675 C691 1.429 . S
C675 H697 0.950 . S
C676 H672 0.949 . S
C676 C684 1.574 . S
C676 C692 1.368 . S
H677 C685 0.950 . S
H678 C683 0.950 . S
H679 C684 0.949 . S
H680 C686 0.950 . S
H681 C687 0.950 . S
H682 C688 0.949 . S
C683 H678 0.950 . S
C683 C685 1.327 . S
C683 C689 1.429 . S
C684 C676 1.574 . S
C684 H679 0.949 . S
C684 C690 1.368 . S
C685 C669 1.349 . S
C685 H677 0.950 . S
C685 C683 1.327 . S
C686 C674 1.349 . S
C686 H680 0.950 . S
C686 C687 1.327 . S
C687 H681 0.950 . S
C687 C686 1.327 . S
C687 C691 1.429 . S
C688 C671 1.574 . S
C688 H682 0.949 . S
C688 C692 1.368 . S
C689 C670 1.429 . S
C689 C683 1.429 . S
C689 C690 1.523 . S
C690 C671 1.368 . S
C690 C684 1.368 . S
C690 C689 1.523 . S
C691 C675 1.429 . S
C691 C687 1.429 . S
C691 C692 1.523 . S
C692 C676 1.368 . S
C692 C688 1.368 . S
C692 C691 1.523 . S
H693 C668 0.950 . S
H694 C670 0.950 . S
H695 C671 0.949 . S
H696 C673 0.950 . S
H697 C675 0.950 . S
C698 C699 1.349 . S
C698 C700 1.327 . S
C698 H723 0.950 . S
C699 C698 1.349 . S
C699 C715 1.349 . S
C700 C698 1.327 . S
C700 C719 1.429 . S
C700 H724 0.950 . S
C701 C718 1.574 . S
C701 C720 1.368 . S
C701 H725 0.949 . S
H702 C706 0.949 . S
C703 C704 1.349 . S
C703 C705 1.327 . S
C703 H726 0.950 . S
C704 C703 1.349 . S
C704 C716 1.349 . S
C705 C703 1.327 . S
C705 C721 1.428 1_565 S
C705 H727 0.950 1_565 S
C706 H702 0.949 . S
C706 C714 1.574 . S
C706 C722 1.368 . S
H707 C715 0.950 . S
H708 C713 0.950 . S
H709 C714 0.949 . S
H710 C716 0.950 . S
H711 C717 0.950 . S
H712 C718 0.949 . S
C713 H708 0.950 . S
C713 C715 1.327 . S
C713 C719 1.429 . S
C714 C706 1.574 . S
C714 H709 0.949 . S
C714 C720 1.368 . S
C715 C699 1.349 . S
C715 H707 0.950 . S
C715 C713 1.327 . S
C716 C704 1.349 . S
C716 H710 0.950 . S
C716 C717 1.327 . S
C717 H711 0.950 . S
C717 C716 1.327 . S
C717 C721 1.427 1_565 S
C718 C701 1.574 . S
C718 H712 0.949 . S
C718 C722 1.368 . S
C719 C700 1.429 . S
C719 C713 1.429 . S
C719 C720 1.523 . S
C720 C701 1.368 . S
C720 C714 1.368 . S
C720 C719 1.523 . S
C721 C705 1.428 1_545 S
C721 C717 1.427 1_545 S
C721 C722 1.525 . S
C722 C706 1.368 . S
C722 C718 1.368 . S
C722 C721 1.525 . S
H723 C698 0.950 . S
H724 C700 0.950 . S
H725 C701 0.949 . S
H726 C703 0.950 . S
H727 C705 0.950 1_545 S
C728 C729 1.349 . S
C728 C730 1.327 . S
C728 H753 0.950 . S
C729 C728 1.349 . S
C729 C745 1.349 . S
C730 C728 1.327 . S
C730 C749 1.429 . S
C730 H754 0.950 1_556 S
C731 C748 1.574 . S
C731 C750 1.368 . S
C731 H755 0.949 . S
H732 C736 0.949 . S
C733 C734 1.349 . S
C733 C735 1.327 . S
C733 H756 0.950 . S
C734 C733 1.349 . S
C734 C746 1.349 . S
C735 C733 1.327 . S
C735 C751 1.429 . S
C735 H757 0.950 . S
C736 H732 0.949 . S
C736 C744 1.574 . S
C736 C752 1.368 . S
H737 C745 0.950 . S
H738 C743 0.950 . S
H739 C744 0.949 . S
H740 C746 0.950 . S
H741 C747 0.950 . S
H742 C748 0.949 . S
C743 H738 0.950 . S
C743 C745 1.327 . S
C743 C749 1.429 . S
C744 C736 1.574 . S
C744 H739 0.949 . S
C744 C750 1.368 . S
C745 C729 1.349 . S
C745 H737 0.950 . S
C745 C743 1.327 . S
C746 C734 1.349 . S
C746 H740 0.950 . S
C746 C747 1.327 . S
C747 H741 0.950 . S
C747 C746 1.327 . S
C747 C751 1.429 . S
C748 C731 1.574 . S
C748 H742 0.949 . S
C748 C752 1.368 . S
C749 C730 1.429 . S
C749 C743 1.429 . S
C749 C750 1.523 1_556 S
C750 C731 1.368 . S
C750 C744 1.368 . S
C750 C749 1.523 1_554 S
C751 C735 1.429 . S
C751 C747 1.429 . S
C751 C752 1.523 . S
C752 C736 1.368 . S
C752 C748 1.368 . S
C752 C751 1.523 . S
H753 C728 0.950 . S
H754 C730 0.950 1_554 S
H755 C731 0.949 . S
H756 C733 0.950 . S
H757 C735 0.950 . S
C758 C759 1.349 . S
C758 C760 1.327 . S
C758 H783 0.950 . S
C759 C758 1.349 . S
C759 C775 1.349 . S
C760 C758 1.327 . S
C760 C779 1.429 . S
C760 H784 0.950 . S
C761 C778 1.574 . S
C761 C780 1.368 . S
C761 H785 0.949 . S
H762 C766 0.949 . S
C763 C764 1.349 . S
C763 C765 1.327 . S
C763 H786 0.950 . S
C764 C763 1.349 . S
C764 C776 1.349 . S
C765 C763 1.327 . S
C765 C781 1.429 . S
C765 H787 0.950 . S
C766 H762 0.949 . S
C766 C774 1.574 . S
C766 C782 1.368 . S
H767 C775 0.950 . S
H768 C773 0.950 . S
H769 C774 0.949 . S
H770 C776 0.950 . S
H771 C777 0.950 . S
H772 C778 0.949 . S
C773 H768 0.950 . S
C773 C775 1.327 . S
C773 C779 1.429 . S
C774 C766 1.574 . S
C774 H769 0.949 . S
C774 C780 1.368 . S
C775 C759 1.349 . S
C775 H767 0.950 . S
C775 C773 1.327 . S
C776 C764 1.349 . S
C776 H770 0.950 . S
C776 C777 1.327 . S
C777 H771 0.950 . S
C777 C776 1.327 . S
C777 C781 1.429 . S
C778 C761 1.574 . S
C778 H772 0.949 . S
C778 C782 1.368 . S
C779 C760 1.429 . S
C779 C773 1.429 . S
C779 C780 1.523 . S
C780 C761 1.368 . S
C780 C774 1.368 . S
C780 C779 1.523 . S
C781 C765 1.429 . S
C781 C777 1.429 . S
C781 C782 1.523 . S
C782 C766 1.368 . S
C782 C778 1.368 . S
C782 C781 1.523 . S
H783 C758 0.950 . S
H784 C760 0.950 . S
H785 C761 0.949 . S
H786 C763 0.950 . S
H787 C765 0.950 . S
C788 C789 1.349 . S
C788 C790 1.327 . S
C788 H813 0.950 . S
C789 C788 1.349 . S
C789 C805 1.349 . S
C790 C788 1.327 . S
C790 C809 1.429 . S
C790 H814 0.950 . S
C791 C808 1.574 . S
C791 C810 1.368 . S
C791 H815 0.949 . S
H792 C796 0.949 . S
C793 C794 1.349 . S
C793 C795 1.327 . S
C793 H816 0.950 . S
C794 C793 1.349 . S
C794 C806 1.349 . S
C795 C793 1.327 . S
C795 C811 1.429 . S
C795 H817 0.950 . S
C796 H792 0.949 . S
C796 C804 1.574 . S
C796 C812 1.368 . S
H797 C805 0.950 . S
H798 C803 0.950 . S
H799 C804 0.949 . S
H800 C806 0.950 . S
H801 C807 0.950 . S
H802 C808 0.949 . S
C803 H798 0.950 . S
C803 C805 1.327 . S
C803 C809 1.429 . S
C804 C796 1.574 . S
C804 H799 0.949 . S
C804 C810 1.368 . S
C805 C789 1.349 . S
C805 H797 0.950 . S
C805 C803 1.327 . S
C806 C794 1.349 . S
C806 H800 0.950 . S
C806 C807 1.327 . S
C807 H801 0.950 . S
C807 C806 1.327 . S
C807 C811 1.429 . S
C808 C791 1.574 . S
C808 H802 0.949 . S
C808 C812 1.368 . S
C809 C790 1.429 . S
C809 C803 1.429 . S
C809 C810 1.523 1_554 S
C810 C791 1.368 . S
C810 C804 1.368 . S
C810 C809 1.523 1_556 S
C811 C795 1.429 . S
C811 C807 1.429 . S
C811 C812 1.523 . S
C812 C796 1.368 . S
C812 C808 1.368 . S
C812 C811 1.523 . S
H813 C788 0.950 . S
H814 C790 0.950 . S
H815 C791 0.949 . S
H816 C793 0.950 . S
H817 C795 0.950 . S
C818 C819 1.349 . S
C818 C820 1.327 . S
C818 H843 0.950 . S
C819 C818 1.349 . S
C819 C835 1.349 . S
C820 C818 1.327 . S
C820 C839 1.429 . S
C820 H844 0.950 . S
C821 C838 1.574 . S
C821 C840 1.368 . S
C821 H845 0.949 . S
H822 C826 0.949 . S
C823 C824 1.349 . S
C823 C825 1.327 . S
C823 H846 0.950 . S
C824 C823 1.349 . S
C824 C836 1.349 . S
C825 C823 1.327 . S
C825 C841 1.429 . S
C825 H847 0.950 . S
C826 H822 0.949 . S
C826 C834 1.574 . S
C826 C842 1.368 . S
H827 C835 0.950 . S
H828 C833 0.950 . S
H829 C834 0.949 . S
H830 C836 0.950 . S
H831 C837 0.950 . S
H832 C838 0.949 . S
C833 H828 0.950 . S
C833 C835 1.327 . S
C833 C839 1.429 . S
C834 C826 1.574 . S
C834 H829 0.949 . S
C834 C840 1.368 . S
C835 C819 1.349 . S
C835 H827 0.950 . S
C835 C833 1.327 . S
C836 C824 1.349 . S
C836 H830 0.950 . S
C836 C837 1.327 . S
C837 H831 0.950 . S
C837 C836 1.327 . S
C837 C841 1.429 . S
C838 C821 1.574 . S
C838 H832 0.949 . S
C838 C842 1.368 . S
C839 C820 1.429 . S
C839 C833 1.429 . S
C839 C840 1.523 . S
C840 C821 1.368 . S
C840 C834 1.368 . S
C840 C839 1.523 . S
C841 C825 1.429 . S
C841 C837 1.429 . S
C841 C842 1.523 . S
C842 C826 1.368 . S
C842 C838 1.368 . S
C842 C841 1.523 . S
H843 C818 0.950 . S
H844 C820 0.950 . S
H845 C821 0.949 . S
H846 C823 0.950 . S
H847 C825 0.950 . S
C848 C849 1.349 . S
C848 C850 1.327 . S
C848 H873 0.950 . S
C849 C848 1.349 . S
C849 C865 1.349 . S
C850 C848 1.327 . S
C850 C869 1.429 . S
C850 H874 0.950 1_554 S
C851 C868 1.574 . S
C851 C870 1.368 . S
C851 H875 0.949 . S
H852 C856 0.949 . S
C853 C854 1.349 . S
C853 C855 1.327 . S
C853 H876 0.950 . S
C854 C853 1.349 . S
C854 C866 1.349 . S
C855 C853 1.327 . S
C855 C871 1.429 . S
C855 H877 0.950 . S
C856 H852 0.949 . S
C856 C864 1.574 . S
C856 C872 1.368 . S
H857 C865 0.950 . S
H858 C863 0.950 . S
H859 C864 0.949 . S
H860 C866 0.950 . S
H861 C867 0.950 . S
H862 C868 0.949 . S
C863 H858 0.950 . S
C863 C865 1.327 . S
C863 C869 1.429 . S
C864 C856 1.574 . S
C864 H859 0.949 . S
C864 C870 1.368 . S
C865 C849 1.349 . S
C865 H857 0.950 . S
C865 C863 1.327 . S
C866 C854 1.349 . S
C866 H860 0.950 . S
C866 C867 1.327 . S
C867 H861 0.950 . S
C867 C866 1.327 . S
C867 C871 1.429 . S
C868 C851 1.574 . S
C868 H862 0.949 . S
C868 C872 1.368 . S
C869 C850 1.429 . S
C869 C863 1.429 . S
C869 C870 1.523 1_554 S
C870 C851 1.368 . S
C870 C864 1.368 . S
C870 C869 1.523 1_556 S
C871 C855 1.429 . S
C871 C867 1.429 . S
C871 C872 1.523 . S
C872 C856 1.368 . S
C872 C868 1.368 . S
C872 C871 1.523 . S
H873 C848 0.950 . S
H874 C850 0.950 1_556 S
H875 C851 0.949 . S
H876 C853 0.950 . S
H877 C855 0.950 . S
C878 C879 1.349 . S
C878 C880 1.327 . S
C878 H903 0.950 . S
C879 C878 1.349 . S
C879 C895 1.349 . S
C880 C878 1.327 . S
C880 C899 1.429 . S
C880 H904 0.950 . S
C881 C898 1.574 . S
C881 C900 1.368 . S
C881 H905 0.949 . S
H882 C886 0.949 . S
C883 C884 1.349 . S
C883 C885 1.327 . S
C883 H906 0.950 . S
C884 C883 1.349 . S
C884 C896 1.349 . S
C885 C883 1.327 . S
C885 C901 1.429 . S
C885 H907 0.950 . S
C886 H882 0.949 . S
C886 C894 1.574 . S
C886 C902 1.368 . S
H887 C895 0.950 . S
H888 C893 0.950 . S
H889 C894 0.949 . S
H890 C896 0.950 . S
H891 C897 0.950 . S
H892 C898 0.949 . S
C893 H888 0.950 . S
C893 C895 1.327 . S
C893 C899 1.429 . S
C894 C886 1.574 . S
C894 H889 0.949 . S
C894 C900 1.368 . S
C895 C879 1.349 . S
C895 H887 0.950 . S
C895 C893 1.327 . S
C896 C884 1.349 . S
C896 H890 0.950 . S
C896 C897 1.327 . S
C897 H891 0.950 . S
C897 C896 1.327 . S
C897 C901 1.429 . S
C898 C881 1.574 . S
C898 H892 0.949 . S
C898 C902 1.368 . S
C899 C880 1.429 . S
C899 C893 1.429 . S
C899 C900 1.523 . S
C900 C881 1.368 . S
C900 C894 1.368 . S
C900 C899 1.523 . S
C901 C885 1.429 . S
C901 C897 1.429 . S
C901 C902 1.523 . S
C902 C886 1.368 . S
C902 C898 1.368 . S
C902 C901 1.523 . S
H903 C878 0.950 . S
H904 C880 0.950 . S
H905 C881 0.949 . S
H906 C883 0.950 . S
H907 C885 0.950 . S
C908 C909 1.349 . S
C908 C910 1.327 . S
C908 H933 0.950 . S
C909 C908 1.349 . S
C909 C925 1.349 . S
C910 C908 1.327 . S
C910 C929 1.429 . S
C910 H934 0.950 1_556 S
C911 C928 1.574 . S
C911 C930 1.368 . S
C911 H935 0.949 . S
H912 C916 0.949 . S
C913 C914 1.349 . S
C913 C915 1.327 . S
C913 H936 0.950 . S
C914 C913 1.349 . S
C914 C926 1.349 . S
C915 C913 1.327 . S
C915 C931 1.429 . S
C915 H937 0.950 . S
C916 H912 0.949 . S
C916 C924 1.574 . S
C916 C932 1.368 . S
H917 C925 0.950 . S
H918 C923 0.950 . S
H919 C924 0.949 . S
H920 C926 0.950 . S
H921 C927 0.950 . S
H922 C928 0.949 . S
C923 H918 0.950 . S
C923 C925 1.327 . S
C923 C929 1.429 . S
C924 C916 1.574 . S
C924 H919 0.949 . S
C924 C930 1.368 . S
C925 C909 1.349 . S
C925 H917 0.950 . S
C925 C923 1.327 . S
C926 C914 1.349 . S
C926 H920 0.950 . S
C926 C927 1.327 . S
C927 H921 0.950 . S
C927 C926 1.327 . S
C927 C931 1.429 . S
C928 C911 1.574 . S
C928 H922 0.949 . S
C928 C932 1.368 . S
C929 C910 1.429 . S
C929 C923 1.429 . S
C929 C930 1.523 1_556 S
C930 C911 1.368 . S
C930 C924 1.368 . S
C930 C929 1.523 1_554 S
C931 C915 1.429 . S
C931 C927 1.429 . S
C931 C932 1.523 . S
C932 C916 1.368 . S
C932 C928 1.368 . S
C932 C931 1.523 . S
H933 C908 0.950 . S
H934 C910 0.950 1_554 S
H935 C911 0.949 . S
H936 C913 0.950 . S
H937 C915 0.950 . S
C938 C939 1.349 . S
C938 C940 1.327 . S
C938 H963 0.950 . S
C939 C938 1.349 . S
C939 C955 1.349 . S
C940 C938 1.327 . S
C940 C959 1.429 . S
C940 H964 0.950 . S
C941 C958 1.574 . S
C941 C960 1.368 . S
C941 H965 0.949 . S
H942 C946 0.949 . S
C943 C944 1.349 . S
C943 C945 1.327 . S
C943 H966 0.950 . S
C944 C943 1.349 . S
C944 C956 1.349 . S
C945 C943 1.327 . S
C945 C961 1.429 . S
C945 H967 0.950 . S
C946 H942 0.949 . S
C946 C954 1.574 . S
C946 C962 1.368 . S
H947 C955 0.950 . S
H948 C953 0.950 . S
H949 C954 0.949 . S
H950 C956 0.950 . S
H951 C957 0.950 . S
H952 C958 0.949 . S
C953 H948 0.950 . S
C953 C955 1.327 . S
C953 C959 1.429 . S
C954 C946 1.574 . S
C954 H949 0.949 . S
C954 C960 1.368 . S
C955 C939 1.349 . S
C955 H947 0.950 . S
C955 C953 1.327 . S
C956 C944 1.349 . S
C956 H950 0.950 . S
C956 C957 1.327 . S
C957 H951 0.950 . S
C957 C956 1.327 . S
C957 C961 1.429 . S
C958 C941 1.574 . S
C958 H952 0.949 . S
C958 C962 1.368 . S
C959 C940 1.429 . S
C959 C953 1.429 . S
C959 C960 1.523 . S
C960 C941 1.368 . S
C960 C954 1.368 . S
C960 C959 1.523 . S
C961 C945 1.429 . S
C961 C957 1.429 . S
C961 C962 1.523 . S
C962 C946 1.368 . S
C962 C958 1.368 . S
C962 C961 1.523 . S
H963 C938 0.950 . S
H964 C940 0.950 . S
H965 C941 0.949 . S
H966 C943 0.950 . S
H967 C945 0.950 . S
C968 C969 1.349 . S
C968 C970 1.327 . S
C968 H993 0.950 . S
C969 C968 1.349 . S
C969 C985 1.349 . S
C970 C968 1.327 . S
C970 C989 1.429 . S
C970 H994 0.950 . S
C971 C988 1.574 . S
C971 C990 1.368 . S
C971 H995 0.949 . S
H972 C976 0.949 . S
C973 C974 1.349 . S
C973 C975 1.327 . S
C973 H996 0.950 . S
C974 C973 1.349 . S
C974 C986 1.349 . S
C975 C973 1.327 . S
C975 C991 1.429 . S
C975 H997 0.950 . S
C976 H972 0.949 . S
C976 C984 1.574 . S
C976 C992 1.368 . S
H977 C985 0.950 . S
H978 C983 0.950 . S
H979 C984 0.949 . S
H980 C986 0.950 . S
H981 C987 0.950 . S
H982 C988 0.949 . S
C983 H978 0.950 . S
C983 C985 1.327 . S
C983 C989 1.429 . S
C984 C976 1.574 . S
C984 H979 0.949 . S
C984 C990 1.368 . S
C985 C969 1.349 . S
C985 H977 0.950 . S
C985 C983 1.327 . S
C986 C974 1.349 . S
C986 H980 0.950 . S
C986 C987 1.327 . S
C987 H981 0.950 . S
C987 C986 1.327 . S
C987 C991 1.429 . S
C988 C971 1.574 . S
C988 H982 0.949 . S
C988 C992 1.368 . S
C989 C970 1.429 . S
C989 C983 1.429 . S
C989 C990 1.523 . S
C990 C971 1.368 . S
C990 C984 1.368 . S
C990 C989 1.523 . S
C991 C975 1.429 . S
C991 C987 1.429 . S
C991 C992 1.523 . S
C992 C976 1.368 . S
C992 C988 1.368 . S
C992 C991 1.523 . S
H993 C968 0.950 . S
H994 C970 0.950 . S
H995 C971 0.949 . S
H996 C973 0.950 . S
H997 C975 0.950 . S
C998 C999 1.349 . S
C998 C1000 1.327 . S
C998 H1023 0.950 . S
C999 C998 1.349 . S
C999 C1015 1.349 . S
C1000 C998 1.327 . S
C1000 C1019 1.429 . S
C1000 H1024 0.950 . S
C1001 C1018 1.574 . S
C1001 C1020 1.368 . S
C1001 H1025 0.949 . S
H1002 C1006 0.949 . S
C1003 C1004 1.349 . S
C1003 C1005 1.327 . S
C1003 H1026 0.950 . S
C1004 C1003 1.349 . S
C1004 C1016 1.349 . S
C1005 C1003 1.327 . S
C1005 C1021 1.429 . S
C1005 H1027 0.950 . S
C1006 H1002 0.949 . S
C1006 C1014 1.574 . S
C1006 C1022 1.368 . S
H1007 C1015 0.950 . S
H1008 C1013 0.950 . S
H1009 C1014 0.949 . S
H1010 C1016 0.950 . S
H1011 C1017 0.950 . S
H1012 C1018 0.949 . S
C1013 H1008 0.950 . S
C1013 C1015 1.327 . S
C1013 C1019 1.429 . S
C1014 C1006 1.574 . S
C1014 H1009 0.949 . S
C1014 C1020 1.368 . S
C1015 C999 1.349 . S
C1015 H1007 0.950 . S
C1015 C1013 1.327 . S
C1016 C1004 1.349 . S
C1016 H1010 0.950 . S
C1016 C1017 1.327 . S
C1017 H1011 0.950 . S
C1017 C1016 1.327 . S
C1017 C1021 1.429 . S
C1018 C1001 1.574 . S
C1018 H1012 0.949 . S
C1018 C1022 1.368 . S
C1019 C1000 1.429 . S
C1019 C1013 1.429 . S
C1019 C1020 1.523 . S
C1020 C1001 1.368 . S
C1020 C1014 1.368 . S
C1020 C1019 1.523 . S
C1021 C1005 1.429 . S
C1021 C1017 1.429 . S
C1021 C1022 1.523 . S
C1022 C1006 1.368 . S
C1022 C1018 1.368 . S
C1022 C1021 1.523 . S
H1023 C998 0.950 . S
H1024 C1000 0.950 . S
H1025 C1001 0.949 . S
H1026 C1003 0.950 . S
H1027 C1005 0.950 . S
C1028 C1029 1.349 . S
C1028 C1030 1.327 . S
C1028 H1053 0.950 . S
C1029 C1028 1.349 . S
C1029 C1045 1.349 . S
C1030 C1028 1.327 . S
C1030 C1049 1.429 . S
C1030 H1054 0.950 . S
C1031 C1048 1.574 . S
C1031 C1050 1.368 . S
C1031 H1055 0.949 . S
H1032 C1036 0.949 . S
C1033 C1034 1.349 . S
C1033 C1035 1.327 . S
C1033 H1056 0.950 . S
C1034 C1033 1.349 . S
C1034 C1046 1.349 . S
C1035 C1033 1.327 . S
C1035 C1051 1.429 . S
C1035 H1057 0.950 . S
C1036 H1032 0.949 . S
C1036 C1044 1.574 . S
C1036 C1052 1.368 . S
H1037 C1045 0.950 . S
H1038 C1043 0.950 . S
H1039 C1044 0.949 . S
H1040 C1046 0.950 . S
H1041 C1047 0.950 . S
H1042 C1048 0.949 . S
C1043 H1038 0.950 . S
C1043 C1045 1.327 . S
C1043 C1049 1.429 . S
C1044 C1036 1.574 . S
C1044 H1039 0.949 . S
C1044 C1050 1.368 . S
C1045 C1029 1.349 . S
C1045 H1037 0.950 . S
C1045 C1043 1.327 . S
C1046 C1034 1.349 . S
C1046 H1040 0.950 . S
C1046 C1047 1.327 . S
C1047 H1041 0.950 . S
C1047 C1046 1.327 . S
C1047 C1051 1.429 . S
C1048 C1031 1.574 . S
C1048 H1042 0.949 . S
C1048 C1052 1.368 . S
C1049 C1030 1.429 . S
C1049 C1043 1.429 . S
C1049 C1050 1.523 . S
C1050 C1031 1.368 . S
C1050 C1044 1.368 . S
C1050 C1049 1.523 . S
C1051 C1035 1.429 . S
C1051 C1047 1.429 . S
C1051 C1052 1.523 . S
C1052 C1036 1.368 . S
C1052 C1048 1.368 . S
C1052 C1051 1.523 . S
H1053 C1028 0.950 . S
H1054 C1030 0.950 . S
H1055 C1031 0.949 . S
H1056 C1033 0.950 . S
H1057 C1035 0.950 . S
C1058 C1059 1.349 . S
C1058 C1060 1.327 . S
C1058 H1083 0.950 . S
C1059 C1058 1.349 . S
C1059 C1075 1.349 . S
C1060 C1058 1.327 . S
C1060 C1079 1.429 . S
C1060 H1084 0.950 . S
C1061 C1078 1.574 . S
C1061 C1080 1.368 . S
C1061 H1085 0.949 . S
H1062 C1066 0.949 . S
C1063 C1064 1.349 . S
C1063 C1065 1.327 . S
C1063 H1086 0.950 . S
C1064 C1063 1.349 . S
C1064 C1076 1.349 . S
C1065 C1063 1.327 . S
C1065 C1081 1.429 . S
C1065 H1087 0.950 . S
C1066 H1062 0.949 . S
C1066 C1074 1.574 . S
C1066 C1082 1.368 . S
H1067 C1075 0.950 . S
H1068 C1073 0.950 . S
H1069 C1074 0.949 . S
H1070 C1076 0.950 . S
H1071 C1077 0.950 . S
H1072 C1078 0.949 . S
C1073 H1068 0.950 . S
C1073 C1075 1.327 . S
C1073 C1079 1.429 . S
C1074 C1066 1.574 . S
C1074 H1069 0.949 . S
C1074 C1080 1.368 . S
C1075 C1059 1.349 . S
C1075 H1067 0.950 . S
C1075 C1073 1.327 . S
C1076 C1064 1.349 . S
C1076 H1070 0.950 . S
C1076 C1077 1.327 . S
C1077 H1071 0.950 . S
C1077 C1076 1.327 . S
C1077 C1081 1.429 . S
C1078 C1061 1.574 . S
C1078 H1072 0.949 . S
C1078 C1082 1.368 . S
C1079 C1060 1.429 . S
C1079 C1073 1.429 . S
C1079 C1080 1.523 . S
C1080 C1061 1.368 . S
C1080 C1074 1.368 . S
C1080 C1079 1.523 . S
C1081 C1065 1.429 . S
C1081 C1077 1.429 . S
C1081 C1082 1.523 . S
C1082 C1066 1.368 . S
C1082 C1078 1.368 . S
C1082 C1081 1.523 . S
H1083 C1058 0.950 . S
H1084 C1060 0.950 . S
H1085 C1061 0.949 . S
H1086 C1063 0.950 . S
H1087 C1065 0.950 . S
C1088 C1089 1.349 . S
C1088 C1090 1.327 . S
C1088 H1113 0.950 . S
C1089 C1088 1.349 . S
C1089 C1105 1.349 . S
C1090 C1088 1.327 . S
C1090 C1109 1.429 . S
C1090 H1114 0.950 . S
C1091 C1108 1.574 . S
C1091 C1110 1.368 . S
C1091 H1115 0.949 . S
H1092 C1096 0.949 . S
C1093 C1094 1.349 . S
C1093 C1095 1.327 . S
C1093 H1116 0.950 . S
C1094 C1093 1.349 . S
C1094 C1106 1.349 . S
C1095 C1093 1.327 . S
C1095 C1111 1.429 . S
C1095 H1117 0.950 . S
C1096 H1092 0.949 . S
C1096 C1104 1.574 . S
C1096 C1112 1.368 . S
H1097 C1105 0.950 . S
H1098 C1103 0.950 . S
H1099 C1104 0.949 . S
H1100 C1106 0.950 . S
H1101 C1107 0.950 . S
H1102 C1108 0.949 . S
C1103 H1098 0.950 . S
C1103 C1105 1.327 . S
C1103 C1109 1.429 . S
C1104 C1096 1.574 . S
C1104 H1099 0.949 . S
C1104 C1110 1.368 . S
C1105 C1089 1.349 . S
C1105 H1097 0.950 . S
C1105 C1103 1.327 . S
C1106 C1094 1.349 . S
C1106 H1100 0.950 . S
C1106 C1107 1.327 . S
C1107 H1101 0.950 . S
C1107 C1106 1.327 . S
C1107 C1111 1.429 . S
C1108 C1091 1.574 . S
C1108 H1102 0.949 . S
C1108 C1112 1.368 . S
C1109 C1090 1.429 . S
C1109 C1103 1.429 . S
C1109 C1110 1.523 . S
C1110 C1091 1.368 . S
C1110 C1104 1.368 . S
C1110 C1109 1.523 . S
C1111 C1095 1.429 . S
C1111 C1107 1.429 . S
C1111 C1112 1.523 . S
C1112 C1096 1.368 . S
C1112 C1108 1.368 . S
C1112 C1111 1.523 . S
H1113 C1088 0.950 . S
H1114 C1090 0.950 . S
H1115 C1091 0.949 . S
H1116 C1093 0.950 . S
H1117 C1095 0.950 . S
C1118 C1119 1.349 . S
C1118 C1120 1.327 . S
C1118 H1143 0.950 . S
C1119 C1118 1.349 . S
C1119 C1135 1.349 . S
C1120 C1118 1.327 . S
C1120 C1139 1.429 . S
C1120 H1144 0.950 . S
C1121 C1138 1.574 . S
C1121 C1140 1.368 . S
C1121 H1145 0.949 . S
H1122 C1126 0.949 . S
C1123 C1124 1.349 . S
C1123 C1125 1.327 . S
C1123 H1146 0.950 . S
C1124 C1123 1.349 . S
C1124 C1136 1.349 . S
C1125 C1123 1.327 . S
C1125 C1141 1.429 . S
C1125 H1147 0.950 . S
C1126 H1122 0.949 . S
C1126 C1134 1.574 . S
C1126 C1142 1.368 . S
H1127 C1135 0.950 . S
H1128 C1133 0.950 . S
H1129 C1134 0.949 . S
H1130 C1136 0.950 . S
H1131 C1137 0.950 . S
H1132 C1138 0.949 . S
C1133 H1128 0.950 . S
C1133 C1135 1.327 . S
C1133 C1139 1.429 . S
C1134 C1126 1.574 . S
C1134 H1129 0.949 . S
C1134 C1140 1.368 . S
C1135 C1119 1.349 . S
C1135 H1127 0.950 . S
C1135 C1133 1.327 . S
C1136 C1124 1.349 . S
C1136 H1130 0.950 . S
C1136 C1137 1.327 . S
C1137 H1131 0.950 . S
C1137 C1136 1.327 . S
C1137 C1141 1.429 . S
C1138 C1121 1.574 . S
C1138 H1132 0.949 . S
C1138 C1142 1.368 . S
C1139 C1120 1.429 . S
C1139 C1133 1.429 . S
C1139 C1140 1.523 . S
C1140 C1121 1.368 . S
C1140 C1134 1.368 . S
C1140 C1139 1.523 . S
C1141 C1125 1.429 . S
C1141 C1137 1.429 . S
C1141 C1142 1.523 . S
C1142 C1126 1.368 . S
C1142 C1138 1.368 . S
C1142 C1141 1.523 . S
H1143 C1118 0.950 . S
H1144 C1120 0.950 . S
H1145 C1121 0.949 . S
H1146 C1123 0.950 . S
H1147 C1125 0.950 . S
C1148 C1149 1.349 . S
C1148 C1150 1.327 . S
C1148 H1173 0.950 . S
C1149 C1148 1.349 . S
C1149 C1165 1.349 . S
C1150 C1148 1.327 . S
C1150 C1169 1.429 . S
C1150 H1174 0.950 . S
C1151 C1168 1.574 . S
C1151 C1170 1.368 . S
C1151 H1175 0.949 . S
H1152 C1156 0.949 . S
C1153 C1154 1.349 . S
C1153 C1155 1.327 . S
C1153 H1176 0.950 . S
C1154 C1153 1.349 . S
C1154 C1166 1.349 . S
C1155 C1153 1.327 . S
C1155 C1171 1.429 . S
C1155 H1177 0.950 . S
C1156 H1152 0.949 . S
C1156 C1164 1.574 . S
C1156 C1172 1.368 . S
H1157 C1165 0.950 . S
H1158 C1163 0.950 . S
H1159 C1164 0.949 . S
H1160 C1166 0.950 . S
H1161 C1167 0.950 . S
H1162 C1168 0.949 . S
C1163 H1158 0.950 . S
C1163 C1165 1.327 . S
C1163 C1169 1.429 . S
C1164 C1156 1.574 . S
C1164 H1159 0.949 . S
C1164 C1170 1.368 . S
C1165 C1149 1.349 . S
C1165 H1157 0.950 . S
C1165 C1163 1.327 . S
C1166 C1154 1.349 . S
C1166 H1160 0.950 . S
C1166 C1167 1.327 . S
C1167 H1161 0.950 . S
C1167 C1166 1.327 . S
C1167 C1171 1.429 . S
C1168 C1151 1.574 . S
C1168 H1162 0.949 . S
C1168 C1172 1.368 . S
C1169 C1150 1.429 . S
C1169 C1163 1.429 . S
C1169 C1170 1.523 . S
C1170 C1151 1.368 . S
C1170 C1164 1.368 . S
C1170 C1169 1.523 . S
C1171 C1155 1.429 . S
C1171 C1167 1.429 . S
C1171 C1172 1.523 . S
C1172 C1156 1.368 . S
C1172 C1168 1.368 . S
C1172 C1171 1.523 . S
H1173 C1148 0.950 . S
H1174 C1150 0.950 . S
H1175 C1151 0.949 . S
H1176 C1153 0.950 . S
H1177 C1155 0.950 . S
C1178 C1179 1.349 . S
C1178 C1180 1.327 . S
C1178 H1203 0.950 . S
C1179 C1178 1.349 . S
C1179 C1195 1.349 . S
C1180 C1178 1.327 . S
C1180 C1199 1.429 . S
C1180 H1204 0.950 . S
C1181 C1198 1.574 . S
C1181 C1200 1.368 . S
C1181 H1205 0.949 . S
H1182 C1186 0.949 . S
C1183 C1184 1.349 . S
C1183 C1185 1.327 . S
C1183 H1206 0.950 . S
C1184 C1183 1.349 . S
C1184 C1196 1.349 . S
C1185 C1183 1.327 . S
C1185 C1201 1.429 . S
C1185 H1207 0.950 . S
C1186 H1182 0.949 . S
C1186 C1194 1.574 . S
C1186 C1202 1.368 . S
H1187 C1195 0.950 . S
H1188 C1193 0.950 . S
H1189 C1194 0.949 . S
H1190 C1196 0.950 . S
H1191 C1197 0.950 . S
H1192 C1198 0.949 . S
C1193 H1188 0.950 . S
C1193 C1195 1.327 . S
C1193 C1199 1.429 . S
C1194 C1186 1.574 . S
C1194 H1189 0.949 . S
C1194 C1200 1.368 . S
C1195 C1179 1.349 . S
C1195 H1187 0.950 . S
C1195 C1193 1.327 . S
C1196 C1184 1.349 . S
C1196 H1190 0.950 . S
C1196 C1197 1.327 . S
C1197 H1191 0.950 . S
C1197 C1196 1.327 . S
C1197 C1201 1.429 . S
C1198 C1181 1.574 . S
C1198 H1192 0.949 . S
C1198 C1202 1.368 . S
C1199 C1180 1.429 . S
C1199 C1193 1.429 . S
C1199 C1200 1.523 . S
C1200 C1181 1.368 . S
C1200 C1194 1.368 . S
C1200 C1199 1.523 . S
C1201 C1185 1.429 . S
C1201 C1197 1.429 . S
C1201 C1202 1.523 . S
C1202 C1186 1.368 . S
C1202 C1198 1.368 . S
C1202 C1201 1.523 . S
H1203 C1178 0.950 . S
H1204 C1180 0.950 . S
H1205 C1181 0.949 . S
H1206 C1183 0.950 . S
H1207 C1185 0.950 . S
C489 C116 1.838 . S
C494 C226 1.828 . S
C524 C310 1.827 . S
C519 C135 1.838 . S
C554 C303 1.838 . S
C549 C78 1.831 . S
C579 C97 1.831 . S
C584 C219 1.837 . S
C614 C383 1.827 . S
C609 C40 1.838 . S
C644 C467 1.827 . S
C639 C59 1.838 . S
C669 C2 1.832 . S
C674 C460 1.838 . S
C699 C21 1.832 . S
C704 C376 1.837 . S
C734 C210 1.595 . S
C729 C25 1.766 . S
C764 C294 1.596 . S
C759 C6 1.766 . S
C794 C305 1.514 . S
C789 C63 1.772 . S
C824 C221 1.515 . S
C819 C44 1.773 . S
C854 C389 1.595 . S
C849 C101 1.764 . S
C879 C82 1.764 . S
C884 C473 1.595 . S
C914 C462 1.514 . S
C909 C139 1.771 . S
C939 C120 1.771 . S
C944 C378 1.514 . S
C974 C208 1.542 . S
C969 C11 1.468 . S
C1004 C292 1.542 . S
C999 C30 1.468 . S
C1029 C49 1.460 . S
C1034 C299 1.508 . S
C1064 C215 1.507 . S
C1059 C68 1.460 . S
C1094 C387 1.542 . S
C1089 C87 1.423 . S
C1119 C106 1.423 . S
C1124 C471 1.542 . S
C1149 C125 1.420 . S
C1154 C478 1.508 . S
C1179 C144 1.420 . S
C1184 C394 1.507 . S
