# Generated by pormake.
# Topology ctn, (3,4)-cn, num edge types: 1
# Building blocks:
#     Node 0, Type 0, BuildingBlock: PAMTOO_clean_linker_0, # of connection points: 3
#     Node 1, Type 0, BuildingBlock: PAMTOO_clean_linker_0, # of connection points: 3
#     Node 2, Type 0, BuildingBlock: PAMTOO_clean_linker_0, # of connection points: 3
#     Node 3, Type 0, BuildingBlock: PAMTOO_clean_linker_0, # of connection points: 3
#     Node 4, Type 0, BuildingBlock: PAMTOO_clean_linker_0, # of connection points: 3
#     Node 5, Type 0, BuildingBlock: PAMTOO_clean_linker_0, # of connection points: 3
#     Node 6, Type 0, BuildingBlock: PAMTOO_clean_linker_0, # of connection points: 3
#     Node 7, Type 0, BuildingBlock: PAMTOO_clean_linker_0, # of connection points: 3
#     Node 8, Type 0, BuildingBlock: PAMTOO_clean_linker_0, # of connection points: 3
#     Node 9, Type 0, BuildingBlock: PAMTOO_clean_linker_0, # of connection points: 3
#     Node 10, Type 0, BuildingBlock: PAMTOO_clean_linker_0, # of connection points: 3
#     Node 11, Type 0, BuildingBlock: PAMTOO_clean_linker_0, # of connection points: 3
#     Node 12, Type 0, BuildingBlock: PAMTOO_clean_linker_0, # of connection points: 3
#     Node 13, Type 0, BuildingBlock: PAMTOO_clean_linker_0, # of connection points: 3
#     Node 14, Type 0, BuildingBlock: PAMTOO_clean_linker_0, # of connection points: 3
#     Node 15, Type 0, BuildingBlock: PAMTOO_clean_linker_0, # of connection points: 3
#     Node 16, Type 1, BuildingBlock: AZAVOO_clean_sbu_0, # of connection points: 4
#     Node 17, Type 1, BuildingBlock: AZAVOO_clean_sbu_0, # of connection points: 4
#     Node 18, Type 1, BuildingBlock: AZAVOO_clean_sbu_0, # of connection points: 4
#     Node 19, Type 1, BuildingBlock: AZAVOO_clean_sbu_0, # of connection points: 4
#     Node 20, Type 1, BuildingBlock: AZAVOO_clean_sbu_0, # of connection points: 4
#     Node 21, Type 1, BuildingBlock: AZAVOO_clean_sbu_0, # of connection points: 4
#     Node 22, Type 1, BuildingBlock: AZAVOO_clean_sbu_0, # of connection points: 4
#     Node 23, Type 1, BuildingBlock: AZAVOO_clean_sbu_0, # of connection points: 4
#     Node 24, Type 1, BuildingBlock: AZAVOO_clean_sbu_0, # of connection points: 4
#     Node 25, Type 1, BuildingBlock: AZAVOO_clean_sbu_0, # of connection points: 4
#     Node 26, Type 1, BuildingBlock: AZAVOO_clean_sbu_0, # of connection points: 4
#     Node 27, Type 1, BuildingBlock: AZAVOO_clean_sbu_0, # of connection points: 4
#     Edge 28, Type (0, 1), BuildingBlock: CIFDUS_clean_linker_0, # of connection points: 2
#     Edge 29, Type (0, 1), BuildingBlock: CIFDUS_clean_linker_0, # of connection points: 2
#     Edge 30, Type (0, 1), BuildingBlock: CIFDUS_clean_linker_0, # of connection points: 2
#     Edge 31, Type (0, 1), BuildingBlock: CIFDUS_clean_linker_0, # of connection points: 2
#     Edge 32, Type (0, 1), BuildingBlock: CIFDUS_clean_linker_0, # of connection points: 2
#     Edge 33, Type (0, 1), BuildingBlock: CIFDUS_clean_linker_0, # of connection points: 2
#     Edge 34, Type (0, 1), BuildingBlock: CIFDUS_clean_linker_0, # of connection points: 2
#     Edge 35, Type (0, 1), BuildingBlock: CIFDUS_clean_linker_0, # of connection points: 2
#     Edge 36, Type (0, 1), BuildingBlock: CIFDUS_clean_linker_0, # of connection points: 2
#     Edge 37, Type (0, 1), BuildingBlock: CIFDUS_clean_linker_0, # of connection points: 2
#     Edge 38, Type (0, 1), BuildingBlock: CIFDUS_clean_linker_0, # of connection points: 2
#     Edge 39, Type (0, 1), BuildingBlock: CIFDUS_clean_linker_0, # of connection points: 2
#     Edge 40, Type (0, 1), BuildingBlock: CIFDUS_clean_linker_0, # of connection points: 2
#     Edge 41, Type (0, 1), BuildingBlock: CIFDUS_clean_linker_0, # of connection points: 2
#     Edge 42, Type (0, 1), BuildingBlock: CIFDUS_clean_linker_0, # of connection points: 2
#     Edge 43, Type (0, 1), BuildingBlock: CIFDUS_clean_linker_0, # of connection points: 2
#     Edge 44, Type (0, 1), BuildingBlock: CIFDUS_clean_linker_0, # of connection points: 2
#     Edge 45, Type (0, 1), BuildingBlock: CIFDUS_clean_linker_0, # of connection points: 2
#     Edge 46, Type (0, 1), BuildingBlock: CIFDUS_clean_linker_0, # of connection points: 2
#     Edge 47, Type (0, 1), BuildingBlock: CIFDUS_clean_linker_0, # of connection points: 2
#     Edge 48, Type (0, 1), BuildingBlock: CIFDUS_clean_linker_0, # of connection points: 2
#     Edge 49, Type (0, 1), BuildingBlock: CIFDUS_clean_linker_0, # of connection points: 2
#     Edge 50, Type (0, 1), BuildingBlock: CIFDUS_clean_linker_0, # of connection points: 2
#     Edge 51, Type (0, 1), BuildingBlock: CIFDUS_clean_linker_0, # of connection points: 2
#     Edge 52, Type (0, 1), BuildingBlock: CIFDUS_clean_linker_0, # of connection points: 2
#     Edge 53, Type (0, 1), BuildingBlock: CIFDUS_clean_linker_0, # of connection points: 2
#     Edge 54, Type (0, 1), BuildingBlock: CIFDUS_clean_linker_0, # of connection points: 2
#     Edge 55, Type (0, 1), BuildingBlock: CIFDUS_clean_linker_0, # of connection points: 2
#     Edge 56, Type (0, 1), BuildingBlock: CIFDUS_clean_linker_0, # of connection points: 2
#     Edge 57, Type (0, 1), BuildingBlock: CIFDUS_clean_linker_0, # of connection points: 2
#     Edge 58, Type (0, 1), BuildingBlock: CIFDUS_clean_linker_0, # of connection points: 2
#     Edge 59, Type (0, 1), BuildingBlock: CIFDUS_clean_linker_0, # of connection points: 2
#     Edge 60, Type (0, 1), BuildingBlock: CIFDUS_clean_linker_0, # of connection points: 2
#     Edge 61, Type (0, 1), BuildingBlock: CIFDUS_clean_linker_0, # of connection points: 2
#     Edge 62, Type (0, 1), BuildingBlock: CIFDUS_clean_linker_0, # of connection points: 2
#     Edge 63, Type (0, 1), BuildingBlock: CIFDUS_clean_linker_0, # of connection points: 2
#     Edge 64, Type (0, 1), BuildingBlock: CIFDUS_clean_linker_0, # of connection points: 2
#     Edge 65, Type (0, 1), BuildingBlock: CIFDUS_clean_linker_0, # of connection points: 2
#     Edge 66, Type (0, 1), BuildingBlock: CIFDUS_clean_linker_0, # of connection points: 2
#     Edge 67, Type (0, 1), BuildingBlock: CIFDUS_clean_linker_0, # of connection points: 2
#     Edge 68, Type (0, 1), BuildingBlock: CIFDUS_clean_linker_0, # of connection points: 2
#     Edge 69, Type (0, 1), BuildingBlock: CIFDUS_clean_linker_0, # of connection points: 2
#     Edge 70, Type (0, 1), BuildingBlock: CIFDUS_clean_linker_0, # of connection points: 2
#     Edge 71, Type (0, 1), BuildingBlock: CIFDUS_clean_linker_0, # of connection points: 2
#     Edge 72, Type (0, 1), BuildingBlock: CIFDUS_clean_linker_0, # of connection points: 2
#     Edge 73, Type (0, 1), BuildingBlock: CIFDUS_clean_linker_0, # of connection points: 2
#     Edge 74, Type (0, 1), BuildingBlock: CIFDUS_clean_linker_0, # of connection points: 2
#     Edge 75, Type (0, 1), BuildingBlock: CIFDUS_clean_linker_0, # of connection points: 2
# Relax obj value: 0.058
# Max RMSD: 0.170
# Mean RMSD: 0.108
data_MOF--net-ctn--node1-AZAVOO_clean_sbu_0--node2-PAMTOO_clean_linker_0--edge1-CIFDUS_clean_linker_0
_symmetry_space_group_name_H-M    P1
_symmetry_Int_Tables_number       1
_symmetry_cell_setting            triclinic
loop_
_symmetry_equiv_pos_as_xyz
'x, y, z'
_cell_length_a     45.868777
_cell_length_b     47.073748
_cell_length_c     48.104345
_cell_angle_alpha  84.977035
_cell_angle_beta   95.627257
_cell_angle_gamma 101.08803
loop_
_atom_site_label
_atom_site_type_symbol
_atom_site_fract_x
_atom_site_fract_y
_atom_site_fract_z
_atom_type_partial_charge
H0 H 0.01232 0.07954 0.05785 0.0
H1 H 0.03732 0.99581 0.07507 0.0
H2 H 0.06924 0.05043 0.00444 0.0
H3 H 0.05721 0.99389 0.99316 0.0
C4 C 0.06332 0.98239 0.01347 0.0
O5 O 0.07191 0.00199 0.03382 0.0
H6 H 0.04354 0.96636 0.01986 0.0
C7 C 0.02339 0.06291 0.05192 0.0
C8 C 0.04028 0.06832 0.02846 0.0
C9 C 0.02188 0.0368 0.06882 0.0
C10 C 0.03784 0.01594 0.06219 0.0
C11 C 0.05504 0.02119 0.03912 0.0
C12 C 0.05609 0.04712 0.02234 0.0
H13 H 0.32751 0.7011 0.30767 0.0
H14 H 0.27622 0.73468 0.23701 0.0
H15 H 0.36002 0.78477 0.26627 0.0
H16 H 0.31333 0.82195 0.23996 0.0
C17 C 0.29928 0.80388 0.22863 0.0
O18 O 0.31543 0.78206 0.22803 0.0
H19 H 0.27878 0.7958 0.23973 0.0
C20 C 0.32482 0.71831 0.29167 0.0
C21 C 0.34714 0.74341 0.28962 0.0
C22 C 0.29898 0.71521 0.27304 0.0
C23 C 0.29572 0.73709 0.2519 0.0
C24 C 0.31788 0.76194 0.24947 0.0
C25 C 0.3433 0.7652 0.26835 0.0
H26 H 0.98286 0.5418 0.12961 0.0
H27 H 0.94483 0.49996 0.05463 0.0
H28 H 0.0148 0.46777 0.1055 0.0
H29 H 0.01952 0.47025 0.04614 0.0
C30 C 0.99586 0.46179 0.03902 0.0
O31 O 0.97802 0.46028 0.06087 0.0
H32 H 0.98846 0.4768 0.02177 0.0
C33 C 0.98191 0.52493 0.11542 0.0
C34 C 1.00197 0.50536 0.12047 0.0
C35 C 0.96131 0.52341 0.0915 0.0
C36 C 0.96081 0.50191 0.07283 0.0
C37 C 0.98008 0.48203 0.07797 0.0
C38 C 1.0004 0.48369 0.10169 0.0
H39 H 0.71236 0.87209 0.27431 0.0
H40 H 0.68012 0.78091 0.26506 0.0
H41 H 0.75595 0.82487 0.22326 0.0
H42 H 0.69388 0.7824 0.19609 0.0
C43 C 0.70253 0.76455 0.20914 0.0
O44 O 0.72029 0.77523 0.23219 0.0
H45 H 0.68292 0.74893 0.21643 0.0
C46 C 0.71383 0.85214 0.26536 0.0
C47 C 0.73705 0.85175 0.24837 0.0
C48 C 0.69284 0.82683 0.27138 0.0
C49 C 0.69544 0.80089 0.26017 0.0
C50 C 0.718 0.80037 0.24273 0.0
C51 C 0.7386 0.82571 0.23675 0.0
H52 H 0.09702 0.99059 0.55677 0.0
H53 H 0.03245 0.95504 0.49152 0.0
H54 H 0.07359 0.04464 0.48402 0.0
H55 H 0.00738 0.03002 0.46309 0.0
C56 C 0.00782 0.00843 0.45556 0.0
O57 O 0.03656 0.00314 0.45968 0.0
H58 H 0.99263 0.99151 0.46755 0.0
C59 C 0.08396 0.99337 0.53702 0.0
C60 C 0.0876 0.02064 0.52186 0.0
C61 C 0.06385 0.96957 0.5263 0.0
C62 C 0.04766 0.97325 0.50029 0.0
C63 C 0.05096 1.0003 0.48534 0.0
C64 C 0.07068 0.02394 0.49618 0.0
H65 H 0.15737 0.75895 0.80137 0.0
H66 H 0.18986 0.70001 0.75332 0.0
H67 H 0.23652 0.72479 0.83113 0.0
H68 H 0.27036 0.72753 0.7799 0.0
C69 C 0.26027 0.70525 0.77377 0.0
O70 O 0.23567 0.69438 0.78846 0.0
H71 H 0.25322 0.70682 0.75098 0.0
C72 C 0.17343 0.74546 0.79876 0.0
C73 C 0.19678 0.74333 0.81979 0.0
C74 C 0.17082 0.73024 0.77434 0.0
C75 C 0.19166 0.71248 0.7715 0.0
C76 C 0.21523 0.71075 0.7919 0.0
C77 C 0.21781 0.72615 0.8158 0.0
H78 H 0.91419 0.53199 0.52263 0.0
H79 H 0.94242 0.48801 0.45805 0.0
H80 H 1.00117 0.56089 0.49213 0.0
H81 H 0.00435 0.55872 0.43089 0.0
C82 C 0.9956 0.53516 0.42923 0.0
O83 O 0.9945 0.52135 0.45579 0.0
H84 H 0.97269 0.53256 0.4185 0.0
C85 C 0.93089 0.52987 0.50893 0.0
C86 C 0.95826 0.54963 0.50976 0.0
C87 C 0.9249 0.50727 0.49063 0.0
C88 C 0.9466 0.50487 0.47266 0.0
C89 C 0.97383 0.5243 0.4731 0.0
C90 C 0.97972 0.54642 0.49172 0.0
H91 H 0.7614 0.80009 0.84499 0.0
H92 H 0.83646 0.76155 0.8328 0.0
H93 H 0.80596 0.82037 0.76873 0.0
H94 H 0.82021 0.77177 0.74488 0.0
C95 C 0.83577 0.7643 0.76195 0.0
O96 O 0.84277 0.78469 0.78171 0.0
H97 H 0.82404 0.74337 0.77162 0.0
C98 C 0.77883 0.79802 0.83212 0.0
C99 C 0.78077 0.81328 0.80559 0.0
C100 C 0.79937 0.78013 0.84269 0.0
C101 C 0.82056 0.77535 0.82528 0.0
C102 C 0.8222 0.78935 0.79838 0.0
C103 C 0.803 0.80875 0.78897 0.0
H104 H 0.27255 0.31356 0.35081 0.0
H105 H 0.33372 0.2624 0.32757 0.0
H106 H 0.30501 0.32646 0.26844 0.0
H107 H 0.30806 0.26569 0.25099 0.0
C108 C 0.33176 0.26699 0.2594 0.0
O109 O 0.33981 0.28865 0.27775 0.0
H110 H 0.3337 0.24574 0.27079 0.0
C111 C 0.28538 0.30763 0.33522 0.0
C112 C 0.28653 0.32325 0.30879 0.0
C113 C 0.30225 0.28545 0.34226 0.0
C114 C 0.32036 0.27908 0.32255 0.0
C115 C 0.32124 0.29396 0.29611 0.0
C116 C 0.30404 0.31545 0.28916 0.0
H117 H 0.4796 0.03985 0.63182 0.0
H118 H 0.43374 0.00325 0.55679 0.0
H119 H 0.50674 0.96777 0.59864 0.0
H120 H 0.50613 0.97867 0.53829 0.0
C121 C 0.48323 0.96624 0.53341 0.0
O122 O 0.46669 0.96371 0.55635 0.0
H123 H 0.47216 0.97817 0.51576 0.0
C124 C 0.47681 0.02406 0.61623 0.0
C125 C 0.49637 0.00409 0.618 0.0
C126 C 0.45394 0.02408 0.59428 0.0
C127 C 0.45138 0.00415 0.57358 0.0
C128 C 0.47058 0.98412 0.5752 0.0
C129 C 0.4927 0.98398 0.59739 0.0
H130 H 0.20714 0.3683 0.78083 0.0
H131 H 0.17028 0.28259 0.75491 0.0
H132 H 0.25254 0.32775 0.72529 0.0
H133 H 0.20174 0.30482 0.68361 0.0
C134 C 0.19724 0.28246 0.6939 0.0
O135 O 0.21105 0.28203 0.72075 0.0
H136 H 0.17276 0.27577 0.69517 0.0
C137 C 0.20884 0.3499 0.76949 0.0
C138 C 0.23333 0.35133 0.75352 0.0
C139 C 0.1862 0.32504 0.77082 0.0
C140 C 0.18738 0.30198 0.75447 0.0
C141 C 0.2109 0.30357 0.73757 0.0
C142 C 0.23405 0.32774 0.73765 0.0
H143 H 0.82377 0.19304 0.79536 0.0
H144 H 0.77396 0.2274 0.72402 0.0
H145 H 0.857 0.27725 0.75553 0.0
H146 H 0.81781 0.31712 0.72689 0.0
C147 C 0.80023 0.29913 0.71932 0.0
O148 O 0.81293 0.27527 0.71669 0.0
H149 H 0.78309 0.29378 0.73482 0.0
C150 C 0.82147 0.21032 0.77933 0.0
C151 C 0.84353 0.23565 0.77821 0.0
C152 C 0.79625 0.20723 0.75994 0.0
C153 C 0.79318 0.22958 0.73922 0.0
C154 C 0.8153 0.25453 0.73756 0.0
C155 C 0.84036 0.25754 0.7569 0.0
H156 H 0.50147 0.58421 0.56064 0.0
H157 H 0.53439 0.50406 0.57233 0.0
H158 H 0.55752 0.56318 0.50156 0.0
H159 H 0.55744 0.5054 0.48781 0.0
C160 C 0.55699 0.4943 0.50919 0.0
O161 O 0.56602 0.51469 0.52875 0.0
H162 H 0.53369 0.48291 0.51187 0.0
C163 C 0.5135 0.56916 0.55308 0.0
C164 C 0.52842 0.57693 0.52859 0.0
C165 C 0.515 0.54284 0.56885 0.0
C166 C 0.53252 0.52428 0.56028 0.0
C167 C 0.54795 0.53187 0.53613 0.0
C168 C 0.54572 0.55795 0.5203 0.0
H169 H 0.59964 0.48752 0.04117 0.0
H170 H 0.51353 0.46336 0.99644 0.0
H171 H 0.56939 0.54332 0.9725 0.0
H172 H 0.50286 0.5422 0.96915 0.0
C173 C 0.49575 0.52058 0.96039 0.0
O174 O 0.52028 0.50772 0.95985 0.0
H175 H 0.47945 0.50677 0.97386 0.0
C176 C 0.58275 0.49257 0.02514 0.0
C177 C 0.58842 0.51824 0.00738 0.0
C178 C 0.5554 0.47295 0.02186 0.0
C179 C 0.53405 0.47883 1.00022 0.0
C180 C 0.53946 0.50396 0.98243 0.0
C181 C 0.5661 0.5238 0.98638 0.0
H182 H 0.65465 0.25957 0.294 0.0
H183 H 0.68795 0.19983 0.24753 0.0
H184 H 0.73128 0.22305 0.32714 0.0
H185 H 0.77484 0.21454 0.29125 0.0
C186 C 0.75933 0.20457 0.27403 0.0
O187 O 0.73206 0.19312 0.28416 0.0
H188 H 0.75697 0.22206 0.25724 0.0
C189 C 0.67046 0.24563 0.29204 0.0
C190 C 0.69286 0.243 0.31385 0.0
C191 C 0.66835 0.23022 0.2678 0.0
C192 C 0.68922 0.2123 0.26564 0.0
C193 C 0.71179 0.20992 0.28692 0.0
C194 C 0.71346 0.22501 0.31096 0.0
H195 H 0.41442 0.03628 0.02081 0.0
H196 H 0.44523 0.98795 0.96127 0.0
H197 H 0.50034 0.06631 0.98846 0.0
H198 H 0.495 0.05604 0.92569 0.0
C199 C 0.49548 0.0324 0.92835 0.0
O200 O 0.49599 0.02322 0.95644 0.0
H201 H 0.47493 0.02069 0.91708 0.0
C202 C 0.43129 0.03377 0.00744 0.0
C203 C 0.4579 0.05456 0.00682 0.0
C204 C 0.42642 0.00948 0.99131 0.0
C205 C 0.44847 0.00634 0.97403 0.0
C206 C 0.47478 0.027 0.97276 0.0
C207 C 0.4795 0.05097 0.98913 0.0
Mg208 Mg 0.22462 0.84815 0.01777 0.0
O209 O 0.27134 0.87544 0.0099 0.0
O210 O 0.30257 0.84404 0.01896 0.0
Mg211 Mg 0.27801 0.79908 0.03353 0.0
C212 C 0.29759 0.8695 0.01142 0.0
C213 C 0.17206 0.87369 0.99164 0.0
O214 O 0.16301 0.84543 0.99212 0.0
O215 O 0.22248 0.826 0.97638 0.0
O216 O 0.25255 0.79436 0.99026 0.0
O217 O 0.23134 0.85769 0.06313 0.0
O218 O 0.24364 0.81987 0.04655 0.0
C219 C 0.23442 0.80454 0.97194 0.0
C220 C 0.24318 0.83471 0.06762 0.0
O221 O 0.19945 0.88344 0.9984 0.0
Mg222 Mg 0.16567 0.50844 0.30221 0.0
O223 O 0.13736 0.50706 0.25913 0.0
O224 O 0.17054 0.51218 0.22719 0.0
Mg225 Mg 0.2183 0.51931 0.24762 0.0
C226 C 0.14364 0.50852 0.23363 0.0
C227 C 0.12968 0.49768 0.35291 0.0
O228 O 0.15776 0.50399 0.36273 0.0
O229 O 0.17593 0.46181 0.29988 0.0
O230 O 0.21068 0.47378 0.26926 0.0
O231 O 0.17231 0.5576 0.30057 0.0
O232 O 0.20279 0.53357 0.28439 0.0
C233 C 0.19627 0.45527 0.28635 0.0
C234 C 0.19648 0.55811 0.28862 0.0
O235 O 0.12399 0.49471 0.32675 0.0
Mg236 Mg 0.80216 0.67113 0.05895 0.0
O237 O 0.7585 0.63718 0.05319 0.0
O238 O 0.72236 0.66255 0.03927 0.0
Mg239 Mg 0.74048 0.71124 0.04018 0.0
C240 C 0.73137 0.63854 0.04511 0.0
C241 C 0.83582 0.62223 0.08479 0.0
O242 O 0.82174 0.62743 0.10575 0.0
O243 O 0.80325 0.6814 0.0105 0.0
O244 O 0.76835 0.70928 0.00416 0.0
O245 O 0.79405 0.67556 0.10434 0.0
O246 O 0.77814 0.70213 0.06846 0.0
C247 C 0.7888 0.69855 0.99504 0.0
C248 C 0.77952 0.69583 0.09493 0.0
O249 O 0.83152 0.63583 0.06108 0.0
Mg250 Mg 0.9025 0.04885 0.24049 0.0
O251 O 0.87573 0.00199 0.2395 0.0
O252 O 0.90873 0.97325 0.23671 0.0
Mg253 Mg 0.95539 1.00082 0.23487 0.0
C254 C 0.88204 0.97684 0.23825 0.0
C255 C 0.85065 0.08498 0.24092 0.0
O256 O 0.86193 0.06538 0.25724 0.0
O257 O 0.92059 0.0393 0.28551 0.0
O258 O 0.95406 0.0117 0.28054 0.0
O259 O 0.8978 0.05471 0.19365 0.0
O260 O 0.93496 0.03801 0.21799 0.0
C261 C 0.94065 0.02508 0.29585 0.0
C262 C 0.92201 0.04431 0.1939 0.0
O263 O 0.86229 0.06583 0.2562 0.0
Mg264 Mg 0.29888 0.18122 0.5549 0.0
O265 O 0.2551 0.14681 0.55252 0.0
O266 O 0.21751 0.17132 0.5493 0.0
Mg267 Mg 0.23544 0.21993 0.54935 0.0
C268 C 0.22717 0.14749 0.55056 0.0
C269 C 0.3362 0.13215 0.57044 0.0
O270 O 0.32695 0.13593 0.5946 0.0
O271 O 0.2918 0.19429 0.50726 0.0
O272 O 0.25411 0.21827 0.50737 0.0
O273 O 0.29886 0.18158 0.60202 0.0
O274 O 0.27624 0.20962 0.57173 0.0
C275 C 0.27311 0.20905 0.4945 0.0
C276 C 0.28192 0.20074 0.59734 0.0
O277 O 0.32765 0.14695 0.54871 0.0
Mg278 Mg 0.40208 0.54879 0.74587 0.0
O279 O 0.37163 0.50414 0.74142 0.0
O280 O 0.39961 0.47258 0.73208 0.0
Mg281 Mg 0.44825 0.49577 0.73524 0.0
C282 C 0.37447 0.47888 0.73567 0.0
C283 C 0.36861 0.59161 0.77019 0.0
O284 O 0.39644 0.60469 0.77503 0.0
O285 O 0.41775 0.53431 0.79044 0.0
O286 O 0.44548 0.50224 0.78196 0.0
O287 O 0.39842 0.55798 0.69956 0.0
O288 O 0.43362 0.53702 0.72244 0.0
C289 C 0.4345 0.51598 0.79894 0.0
C290 C 0.42122 0.54566 0.69885 0.0
O291 O 0.36341 0.56704 0.75977 0.0
Mg292 Mg 0.71928 0.34979 0.51188 0.0
O293 O 0.76576 0.37672 0.50229 0.0
O294 O 0.79662 0.34475 0.50974 0.0
Mg295 Mg 0.77256 0.30002 0.52524 0.0
C296 C 0.79176 0.37034 0.50266 0.0
C297 C 0.67267 0.38611 0.50908 0.0
O298 O 0.66862 0.36651 0.53024 0.0
O299 O 0.71508 0.32734 0.47016 0.0
O300 O 0.745 0.29539 0.4832 0.0
O301 O 0.72791 0.35981 0.5571 0.0
O302 O 0.74036 0.32226 0.54014 0.0
C303 C 0.72639 0.30555 0.46544 0.0
C304 C 0.74095 0.33762 0.56108 0.0
O305 O 0.69373 0.38562 0.49378 0.0
Mg306 Mg 0.66496 0.00144 0.79324 0.0
O307 O 0.6364 0.99862 0.75062 0.0
O308 O 0.66811 1.0008 0.71782 0.0
Mg309 Mg 0.71596 0.00641 0.73816 0.0
C310 C 0.64166 0.99869 0.72498 0.0
C311 C 0.6242 0.00316 0.83897 0.0
O312 O 0.64933 0.02054 0.84617 0.0
O313 O 0.67399 0.95462 0.79325 0.0
O314 O 0.70708 0.96092 0.7609 0.0
O315 O 0.67183 0.05005 0.78883 0.0
O316 O 0.70231 0.02467 0.77426 0.0
C317 C 0.69217 0.94498 0.77947 0.0
C318 C 0.69581 0.04963 0.77689 0.0
O319 O 0.6228 0.98917 0.81721 0.0
Mg320 Mg 0.03459 0.27519 0.93023 0.0
O321 O 0.98864 0.26277 0.90554 0.0
O322 O 0.95634 0.24607 0.93779 0.0
Mg323 Mg 0.98057 0.24589 0.98165 0.0
C324 C 0.96216 0.25244 0.9123 0.0
C325 C 0.0827 0.31237 0.89726 0.0
O326 O 0.09301 0.31426 0.92363 0.0
O327 O 0.02091 0.31576 0.94449 0.0
O328 O 0.99161 0.29581 0.97826 0.0
O329 O 0.04427 0.23064 0.92872 0.0
O330 O 0.02101 0.24393 0.96206 0.0
C331 C 0.00522 0.31807 0.96448 0.0
C332 C 0.03047 0.22373 0.95123 0.0
O333 O 0.05617 0.29903 0.89182 0.0
Mg334 Mg 0.54687 0.7865 0.43065 0.0
O335 O 0.50029 0.77047 0.40834 0.0
O336 O 0.47116 0.75082 0.44237 0.0
Mg337 Mg 0.49836 0.75214 0.48486 0.0
C338 C 0.47492 0.75804 0.41655 0.0
C339 C 0.59016 0.82765 0.39541 0.0
O340 O 0.60138 0.83145 0.42131 0.0
O341 O 0.52965 0.82434 0.44625 0.0
O342 O 0.50364 0.80217 0.48153 0.0
O343 O 0.56103 0.74445 0.42713 0.0
O344 O 0.53806 0.7539 0.46255 0.0
C345 C 0.51437 0.82517 0.46692 0.0
C346 C 0.54915 0.73559 0.45036 0.0
O347 O 0.56438 0.81213 0.39141 0.0
Mg348 Mg 0.99395 0.74683 0.60875 0.0
O349 O 0.03616 0.74093 0.6378 0.0
O350 O 0.06965 0.73515 0.609 0.0
Mg351 Mg 0.04984 0.73406 0.5636 0.0
C352 C 0.06233 0.73748 0.63353 0.0
C353 C 0.9629 0.74762 0.66506 0.0
O354 O 0.96809 0.72099 0.66859 0.0
O355 O 0.01708 0.79316 0.59363 0.0
O356 O 0.04677 0.78182 0.5637 0.0
O357 O 0.97624 0.69787 0.60898 0.0
O358 O 0.00559 0.7227 0.57858 0.0
C359 C 0.03565 0.80051 0.57485 0.0
C360 C 0.99082 0.69814 0.58722 0.0
O361 O 0.97223 0.76364 0.64382 0.0
Mg362 Mg 0.49094 0.25089 0.10643 0.0
O363 O 0.53388 0.24242 0.13245 0.0
O364 O 0.56666 0.23807 0.10239 0.0
Mg365 Mg 0.54553 0.24354 0.05774 0.0
C366 C 0.55961 0.23848 0.12736 0.0
C367 C 0.44739 0.2705 0.14399 0.0
O368 O 0.43454 0.27559 0.11889 0.0
O369 O 0.51396 0.29818 0.09586 0.0
O370 O 0.54557 0.29096 0.06566 0.0
O371 O 0.47371 0.20295 0.10378 0.0
O372 O 0.50101 0.23003 0.07273 0.0
C373 C 0.53434 0.30782 0.07921 0.0
C374 C 0.48725 0.20476 0.08114 0.0
O375 O 0.4721 0.26162 0.14608 0.0
H376 H 0.21203 0.7226 0.8724 0.0
H377 H 0.18754 0.79853 0.82643 0.0
H378 H 0.19526 0.82401 0.86962 0.0
H379 H 0.21181 0.82539 0.92049 0.0
H380 H 0.23893 0.7494 0.96434 0.0
H381 H 0.22791 0.72369 0.92193 0.0
C382 C 0.20863 0.74484 0.87166 0.0
C383 C 0.19954 0.75865 0.84607 0.0
C384 C 0.21383 0.75952 0.89629 0.0
C385 C 0.19438 0.78722 0.84583 0.0
C386 C 0.19902 0.8019 0.87051 0.0
C387 C 0.21516 0.80319 0.92071 0.0
C388 C 0.22644 0.78953 0.94561 0.0
C389 C 0.20914 0.78838 0.89588 0.0
C390 C 0.23067 0.7607 0.9455 0.0
C391 C 0.22426 0.74583 0.92123 0.0
H392 H 0.05071 0.52187 0.44539 0.0
H393 H 0.98631 0.52332 0.37402 0.0
H394 H 0.02081 0.50924 0.3444 0.0
H395 H 0.07083 0.49998 0.33804 0.0
H396 H 0.1353 0.49919 0.40963 0.0
H397 H 0.09921 0.50889 0.4398 0.0
C398 C 0.04406 0.51852 0.42348 0.0
C399 C 0.0158 0.52316 0.41204 0.0
C400 C 0.06411 0.51059 0.40651 0.0
C401 C 0.00776 0.51944 0.38343 0.0
C402 C 0.02753 0.51149 0.36645 0.0
C403 C 0.07681 0.50141 0.36031 0.0
C404 C 0.10588 0.49901 0.37142 0.0
C405 C 0.05597 0.50742 0.37765 0.0
C406 C 0.1132 0.50108 0.40038 0.0
C407 C 0.09257 0.50673 0.41772 0.0
H408 H 0.80756 0.72591 0.86586 0.0
H409 H 0.79319 0.80914 0.88727 0.0
H410 H 0.79078 0.79141 0.93602 0.0
H411 H 0.79002 0.75229 0.97217 0.0
H412 H 0.80493 0.66866 0.95342 0.0
H413 H 0.81072 0.68671 0.90418 0.0
C414 C 0.80416 0.74018 0.88126 0.0
C415 C 0.79977 0.76866 0.87263 0.0
C416 C 0.80302 0.72984 0.90972 0.0
C417 C 0.79565 0.78689 0.893 0.0
C418 C 0.79453 0.77687 0.921 0.0
C419 C 0.7947 0.73795 0.95737 0.0
C420 C 0.79666 0.70909 0.96629 0.0
C421 C 0.79767 0.74835 0.92947 0.0
C422 C 0.80334 0.69099 0.94703 0.0
C423 C 0.80641 0.70128 0.91888 0.0
H424 H 0.97237 0.04223 0.42507 0.0
H425 H 0.01778 0.97137 0.41799 0.0
H426 H 1.00075 0.97006 0.36828 0.0
H427 H 0.97396 0.98972 0.32667 0.0
H428 H 0.9269 0.05952 0.33385 0.0
H429 H 0.94341 0.06044 0.38365 0.0
C430 C 0.97863 0.02665 0.41253 0.0
C431 C 0.99712 0.0076 0.4249 0.0
C432 C 0.96841 0.02576 0.38403 0.0
C433 C 0.00429 0.98684 0.40872 0.0
C434 C 0.99445 0.98599 0.38035 0.0
C435 C 0.96727 0.00515 0.33908 0.0
C436 C 0.94938 0.02466 0.3264 0.0
C437 C 0.97672 0.00551 0.36773 0.0
C438 C 0.94065 0.04424 0.34299 0.0
C439 C 0.95016 0.04486 0.37149 0.0
H440 H 0.25094 0.26262 0.69885 0.0
H441 H 0.1682 0.25952 0.64714 0.0
H442 H 0.18615 0.23239 0.61347 0.0
H443 H 0.2262 0.21192 0.5975 0.0
H444 H 0.30889 0.2141 0.64879 0.0
H445 H 0.28983 0.23837 0.6844 0.0
C446 C 0.23662 0.25548 0.68052 0.0
C447 C 0.208 0.26264 0.67572 0.0
C448 C 0.24711 0.23979 0.6612 0.0
C449 C 0.19006 0.25382 0.65149 0.0
C450 C 0.20036 0.23843 0.63219 0.0
C451 C 0.2401 0.21784 0.61638 0.0
C452 C 0.26911 0.21188 0.62027 0.0
C453 C 0.22899 0.23171 0.6366 0.0
C454 C 0.28647 0.2186 0.64535 0.0
C455 C 0.27564 0.23261 0.6656 0.0
H456 H 0.45873 0.54927 0.57595 0.0
H457 H 0.53593 0.52159 0.62033 0.0
H458 H 0.51246 0.51748 0.66444 0.0
H459 H 0.47218 0.52667 0.69088 0.0
H460 H 0.39614 0.55653 0.64622 0.0
H461 H 0.41713 0.55515 0.6018 0.0
C462 C 0.47037 0.54219 0.59527 0.0
C463 C 0.49918 0.53607 0.59489 0.0
C464 C 0.45709 0.5406 0.62055 0.0
C465 C 0.5137 0.52632 0.62 0.0
C466 C 0.50039 0.52422 0.64526 0.0
C467 C 0.46 0.5325 0.67141 0.0
C468 C 0.4327 0.54189 0.67193 0.0
C469 C 0.47241 0.53203 0.64588 0.0
C470 C 0.41727 0.54941 0.64648 0.0
C471 C 0.42926 0.54864 0.62104 0.0
H472 H 0.81832 0.29657 0.66708 0.0
H473 H 0.75151 0.32516 0.70921 0.0
H474 H 0.7282 0.34128 0.66408 0.0
H475 H 0.7258 0.34541 0.61246 0.0
H476 H 0.7916 0.31474 0.57077 0.0
H477 H 0.81615 0.30096 0.61582 0.0
C478 C 0.79847 0.30605 0.66637 0.0
C479 C 0.78609 0.30891 0.69137 0.0
C480 C 0.78498 0.31477 0.64042 0.0
C481 C 0.76099 0.32214 0.69016 0.0
C482 C 0.74773 0.3314 0.66441 0.0
C483 C 0.74561 0.33585 0.61332 0.0
C484 C 0.75666 0.33073 0.58835 0.0
C485 C 0.75936 0.32755 0.63938 0.0
C486 C 0.78226 0.31827 0.58966 0.0
C487 C 0.79644 0.31057 0.61544 0.0
H488 H 0.55338 0.99624 0.61522 0.0
H489 H 0.49331 0.01122 0.67369 0.0
H490 H 0.53238 0.01019 0.712 0.0
H491 H 0.58393 0.00512 0.72899 0.0
H492 H 0.64338 0.98985 0.66993 0.0
H493 H 0.60411 0.99032 0.63211 0.0
C494 C 0.54866 0.999 0.63638 0.0
C495 C 0.52032 0.00381 0.64143 0.0
C496 C 0.57116 0.99818 0.65836 0.0
C497 C 0.51496 0.00787 0.669 0.0
C498 C 0.53727 0.00707 0.69101 0.0
C499 C 0.58825 0.00169 0.7079 0.0
C500 C 0.61674 0.99747 0.70249 0.0
C501 C 0.5655 0.00224 0.68596 0.0
C502 C 0.62183 0.99325 0.67487 0.0
C503 C 0.59934 0.99353 0.65312 0.0
H504 H 0.84268 0.22367 0.83437 0.0
H505 H 0.90229 0.25703 0.77028 0.0
H506 H 0.94431 0.26528 0.80592 0.0
H507 H 0.96402 0.26335 0.85549 0.0
H508 H 0.9037 0.22979 0.91919 0.0
H509 H 0.8623 0.2211 0.88349 0.0
C510 C 0.86493 0.23241 0.82815 0.0
C511 C 0.86932 0.23965 0.7997 0.0
C512 C 0.88893 0.23715 0.84872 0.0
C513 C 0.89823 0.25149 0.79207 0.0
C514 C 0.92229 0.25612 0.81243 0.0
C515 C 0.94185 0.25412 0.86159 0.0
C516 C 0.93717 0.24731 0.89011 0.0
C517 C 0.91789 0.24916 0.84087 0.0
C518 C 0.90816 0.23534 0.8975 0.0
C519 C 0.88435 0.23031 0.87706 0.0
H520 H 0.50222 0.95413 0.48493 0.0
H521 H 0.47193 0.91231 0.56311 0.0
H522 H 0.47801 0.86557 0.54882 0.0
H523 H 0.4926 0.83648 0.51462 0.0
H524 H 0.52509 0.87806 0.43711 0.0
H525 H 0.51749 0.92481 0.45064 0.0
C526 C 0.49674 0.93469 0.49868 0.0
C527 C 0.48596 0.93675 0.52471 0.0
C528 C 0.50078 0.9078 0.49053 0.0
C529 C 0.47963 0.91148 0.54268 0.0
C530 C 0.48323 0.88466 0.53458 0.0
C531 C 0.49791 0.85569 0.50055 0.0
C532 C 0.50932 0.85361 0.4748 0.0
C533 C 0.49381 0.88256 0.50858 0.0
C534 C 0.5163 0.87892 0.45705 0.0
C535 C 0.51194 0.90571 0.46477 0.0
H536 H 0.19129 0.34447 0.82306 0.0
H537 H 0.12674 0.30056 0.76212 0.0
H538 H 0.08832 0.29455 0.79506 0.0
H539 H 0.07373 0.29964 0.84222 0.0
H540 H 0.13873 0.34439 0.90233 0.0
H541 H 0.17591 0.35306 0.86824 0.0
C542 C 0.1687 0.33412 0.81663 0.0
C543 C 0.1621 0.3229 0.79007 0.0
C544 C 0.14667 0.33098 0.83554 0.0
C545 C 0.13272 0.30899 0.78255 0.0
C546 C 0.11063 0.30572 0.80133 0.0
C547 C 0.09588 0.3117 0.84771 0.0
C548 C 0.10342 0.32118 0.87491 0.0
C549 C 0.11744 0.31632 0.82804 0.0
C550 C 0.1323 0.33669 0.88164 0.0
C551 C 0.15366 0.34159 0.86217 0.0
H552 H 0.57181 0.61302 0.50032 0.0
H553 H 0.48073 0.60516 0.52061 0.0
H554 H 0.47943 0.65378 0.49937 0.0
H555 H 0.50455 0.69936 0.47595 0.0
H556 H 0.5933 0.70492 0.45103 0.0
H557 H 0.59481 0.65614 0.47255 0.0
C558 C 0.5514 0.62153 0.49965 0.0
C559 C 0.52667 0.60539 0.51271 0.0
C560 C 0.55037 0.64924 0.48657 0.0
C561 C 0.50056 0.61726 0.51164 0.0
C562 C 0.49964 0.64507 0.49926 0.0
C563 C 0.52416 0.68981 0.47531 0.0
C564 C 0.54892 0.70569 0.46236 0.0
C565 C 0.52455 0.66144 0.48702 0.0
C566 C 0.574 0.69298 0.46101 0.0
C567 C 0.5749 0.66515 0.47333 0.0
H568 H 0.86665 0.79827 0.72148 0.0
H569 H 0.86679 0.71998 0.77501 0.0
H570 H 0.90769 0.70899 0.75124 0.0
H571 H 0.94036 0.71946 0.71256 0.0
H572 H 0.94025 0.79781 0.65877 0.0
H573 H 0.90276 0.81104 0.68535 0.0
C574 C 0.87596 0.77901 0.72807 0.0
C575 C 0.86345 0.75969 0.74961 0.0
C576 C 0.89935 0.77273 0.71412 0.0
C577 C 0.87585 0.73498 0.75826 0.0
C578 C 0.89918 0.72867 0.74463 0.0
C579 C 0.9324 0.7396 0.7068 0.0
C580 C 0.94298 0.75741 0.68343 0.0
C581 C 0.91063 0.74702 0.72209 0.0
C582 C 0.93251 0.78356 0.67652 0.0
C583 C 0.91094 0.79114 0.69169 0.0
H584 H 0.07039 0.92022 0.50566 0.0
H585 H 0.04916 0.95369 0.58014 0.0
H586 H 0.03833 0.90417 0.60243 0.0
H587 H 0.03281 0.85072 0.59946 0.0
H588 H 0.05602 0.81919 0.52439 0.0
H589 H 0.06793 0.86835 0.5037 0.0
C590 C 0.06354 0.91663 0.52684 0.0
C591 C 0.06032 0.94035 0.5412 0.0
C592 C 0.05748 0.88836 0.53936 0.0
C593 C 0.05183 0.93562 0.56875 0.0
C594 C 0.04547 0.90734 0.58139 0.0
C595 C 0.04052 0.8547 0.57863 0.0
C596 C 0.0434 0.83115 0.56357 0.0
C597 C 0.04783 0.88342 0.56672 0.0
C598 C 0.0537 0.83675 0.53664 0.0
C599 C 0.0605 0.86494 0.52464 0.0
H600 H 0.17589 0.73457 0.71834 0.0
H601 H 0.11182 0.73241 0.77878 0.0
H602 H 0.0726 0.73521 0.74078 0.0
H603 H 0.05622 0.73669 0.69004 0.0
H604 H 0.12115 0.73688 0.63064 0.0
H605 H 0.15993 0.7358 0.6686 0.0
C606 C 0.15329 0.73437 0.72332 0.0
C607 C 0.14687 0.73302 0.75146 0.0
C608 C 0.13083 0.73544 0.70147 0.0
C609 C 0.11754 0.73364 0.75734 0.0
C610 C 0.09503 0.73503 0.7356 0.0
C611 C 0.07884 0.7365 0.68541 0.0
C612 C 0.08553 0.73675 0.65736 0.0
C613 C 0.10136 0.73572 0.70752 0.0
C614 C 0.11509 0.73653 0.65189 0.0
C615 C 0.13744 0.73598 0.67362 0.0
H616 H 0.988 0.60516 0.49982 0.0
H617 H 0.94152 0.54874 0.56341 0.0
H618 H 0.94791 0.58912 0.59337 0.0
H619 H 0.96534 0.64134 0.60097 0.0
H620 H 0.01323 0.69641 0.53736 0.0
H621 H 0.00839 0.65563 0.50867 0.0
C622 C 0.97972 0.6014 0.52043 0.0
C623 C 0.96402 0.57381 0.52903 0.0
C624 C 0.98384 0.62462 0.5378 0.0
C625 C 0.95311 0.5698 0.55577 0.0
C626 C 0.95695 0.59289 0.5731 0.0
C627 C 0.97498 0.6443 0.58098 0.0
C628 C 0.98974 0.67203 0.57154 0.0
C629 C 0.972 0.62054 0.56423 0.0
C630 C 1.00202 0.6754 0.54547 0.0
C631 C 0.9991 0.65205 0.52883 0.0
H632 H 0.79685 0.85455 0.24833 0.0
H633 H 0.72984 0.90848 0.23886 0.0
H634 H 0.76858 0.95189 0.23495 0.0
H635 H 0.8217 0.97464 0.23518 0.0
H636 H 0.88822 0.92005 0.24347 0.0
H637 H 0.84939 0.87695 0.24638 0.0
C638 C 0.79061 0.87574 0.24492 0.0
C639 C 0.76041 0.87815 0.24399 0.0
C640 C 0.81296 0.9006 0.24253 0.0
C641 C 0.75291 0.90593 0.24007 0.0
C642 C 0.77505 0.9308 0.23771 0.0
C643 C 0.82772 0.95333 0.23757 0.0
C644 C 0.85795 0.95076 0.2392 0.0
C645 C 0.8052 0.92842 0.23916 0.0
C646 C 0.86522 0.92286 0.24214 0.0
C647 C 0.843 0.89809 0.24385 0.0
H648 H 0.78063 0.15981 0.30379 0.0
H649 H 0.76708 0.19706 0.21954 0.0
H650 H 0.79249 0.16197 0.20194 0.0
H651 H 0.82175 0.12292 0.21097 0.0
H652 H 0.83533 0.08547 0.29522 0.0
H653 H 0.80667 0.11808 0.31234 0.0
C654 C 0.78305 0.15994 0.28157 0.0
C655 C 0.77238 0.18112 0.26301 0.0
C656 C 0.7978 0.13974 0.27164 0.0
C657 C 0.77537 0.18109 0.23423 0.0
C658 C 0.78991 0.16106 0.22418 0.0
C659 C 0.81806 0.1217 0.23302 0.0
C660 C 0.83068 0.10192 0.25171 0.0
C661 C 0.8017 0.14064 0.24274 0.0
C662 C 0.82583 0.10048 0.2803 0.0
C663 C 0.80951 0.11921 0.29015 0.0
H664 H 0.42183 0.95087 0.99387 0.0
H665 H 0.36885 0.01737 0.99336 0.0
H666 H 0.32408 0.9802 0.99857 0.0
H667 H 0.30013 0.92851 0.00454 0.0
H668 H 0.35402 0.86263 0.0047 0.0
H669 H 0.39792 0.89982 0.99781 0.0
C670 C 0.40045 0.9573 0.99445 0.0
C671 C 0.39883 0.98693 0.99325 0.0
C672 C 0.37481 0.93586 0.99739 0.0
C673 C 0.3709 0.99475 0.9946 0.0
C674 C 0.34522 0.97348 0.99744 0.0
C675 C 0.32142 0.92228 0.00283 0.0
C676 C 0.32361 0.89269 0.00529 0.0
C677 C 0.34692 0.94392 0.99906 0.0
C678 C 0.35151 0.88515 0.00309 0.0
C679 C 0.37676 0.90643 0.99914 0.0
H680 H 0.2324 0.3325 0.32439 0.0
H681 H 0.3081 0.37352 0.27903 0.0
H682 H 0.28541 0.41561 0.26659 0.0
H683 H 0.24578 0.44175 0.26919 0.0
H684 H 0.17115 0.40518 0.3173 0.0
H685 H 0.1919 0.36057 0.32816 0.0
C686 C 0.244 0.35069 0.31191 0.0
C687 C 0.2718 0.34917 0.30217 0.0
C688 C 0.23108 0.37573 0.30531 0.0
C689 C 0.28633 0.37321 0.28606 0.0
C690 C 0.27349 0.39763 0.27912 0.0
C691 C 0.23363 0.42408 0.28191 0.0
C692 C 0.20666 0.42695 0.29218 0.0
C693 C 0.24598 0.39911 0.28858 0.0
C694 C 0.19182 0.40366 0.30893 0.0
C695 C 0.20378 0.37817 0.31521 0.0
H696 H 0.14709 0.02321 0.53525 0.0
H697 H 0.07789 0.0743 0.52948 0.0
H698 H 0.11497 0.11766 0.53958 0.0
H699 H 0.16688 0.14156 0.54663 0.0
H700 H 0.23706 0.09159 0.55051 0.0
H701 H 0.19979 0.04725 0.5447 0.0
C702 C 0.14021 0.04378 0.53675 0.0
C703 C 0.10986 0.04566 0.53172 0.0
C704 C 0.1618 0.06881 0.54188 0.0
C705 C 0.10115 0.07244 0.53327 0.0
C706 C 0.12233 0.0972 0.53895 0.0
C707 C 0.17419 0.12101 0.54638 0.0
C708 C 0.20486 0.12008 0.54881 0.0
C709 C 0.15273 0.09575 0.5427 0.0
C710 C 0.21367 0.09307 0.54857 0.0
C711 C 0.19234 0.06768 0.54523 0.0
H712 H 0.80349 0.15222 0.75555 0.0
H713 H 0.73744 0.20299 0.7671 0.0
H714 H 0.69961 0.15867 0.77172 0.0
H715 H 0.68621 0.10523 0.77494 0.0
H716 H 0.75221 0.05483 0.76141 0.0
H717 H 0.78899 0.09915 0.75463 0.0
C718 C 0.78075 0.15344 0.75899 0.0
C719 C 0.77318 0.18059 0.76133 0.0
C720 C 0.75913 0.12798 0.76115 0.0
C721 C 0.74365 0.18218 0.76535 0.0
C722 C 0.72209 0.1569 0.768 0.0
C723 C 0.70853 0.10398 0.77016 0.0
C724 C 0.71646 0.07672 0.76887 0.0
C725 C 0.72966 0.12963 0.76625 0.0
C726 C 0.74544 0.07549 0.76249 0.0
C727 C 0.7666 0.10084 0.75878 0.0
H728 H 0.42949 0.05419 0.54907 0.0
H729 H 0.42808 0.03797 0.63873 0.0
H730 H 0.39174 0.06941 0.63897 0.0
H731 H 0.36022 0.10134 0.61415 0.0
H732 H 0.36063 0.11805 0.52453 0.0
H733 H 0.39704 0.08625 0.52386 0.0
C734 C 0.42111 0.0574 0.56865 0.0
C735 C 0.43186 0.04379 0.5939 0.0
C736 C 0.39987 0.0755 0.56866 0.0
C737 C 0.42082 0.04851 0.61905 0.0
C738 C 0.39978 0.06634 0.6192 0.0
C739 C 0.36812 0.09804 0.59437 0.0
C740 C 0.35756 0.11214 0.5694 0.0
C741 C 0.38917 0.07995 0.59418 0.0
C742 C 0.36827 0.10751 0.54407 0.0
C743 C 0.38916 0.08934 0.54369 0.0
H744 H 0.60071 0.48829 0.47607 0.0
H745 H 0.55871 0.45147 0.55067 0.0
H746 H 0.5906 0.41486 0.55704 0.0
H747 H 0.62977 0.3932 0.54126 0.0
H748 H 0.6726 0.42958 0.46682 0.0
H749 H 0.6409 0.46647 0.46037 0.0
C750 C 0.5986 0.47217 0.49366 0.0
C751 C 0.57721 0.47226 0.51277 0.0
C752 C 0.61702 0.45116 0.49712 0.0
C753 C 0.57485 0.45155 0.53564 0.0
C754 C 0.59305 0.43069 0.53925 0.0
C755 C 0.63223 0.40911 0.52353 0.0
C756 C 0.65353 0.4085 0.50448 0.0
C757 C 0.61409 0.43021 0.52007 0.0
C758 C 0.65638 0.42948 0.48176 0.0
C759 C 0.63827 0.45059 0.47809 0.0
H760 H 0.70342 0.22192 0.3673 0.0
H761 H 0.68674 0.29943 0.31875 0.0
H762 H 0.69333 0.32555 0.36151 0.0
H763 H 0.70712 0.32699 0.41291 0.0
H764 H 0.72564 0.24898 0.4597 0.0
H765 H 0.71531 0.22273 0.41757 0.0
C766 C 0.70138 0.24459 0.36598 0.0
C767 C 0.69492 0.25872 0.33979 0.0
C768 C 0.70568 0.25952 0.39046 0.0
C769 C 0.69158 0.28793 0.33865 0.0
C770 C 0.69553 0.30294 0.3631 0.0
C771 C 0.70858 0.3042 0.41383 0.0
C772 C 0.71745 0.29012 0.43944 0.0
C773 C 0.70301 0.28907 0.38917 0.0
C774 C 0.71929 0.26054 0.44027 0.0
C775 C 0.71332 0.24541 0.41616 0.0
H776 H 0.49889 0.9976 0.88624 0.0
H777 H 0.55342 0.05596 0.94293 0.0
H778 H 0.59818 0.05064 0.92148 0.0
H779 H 0.62133 0.03146 0.88518 0.0
H780 H 0.56696 0.97383 0.82752 0.0
H781 H 0.52262 0.97658 0.85091 0.0
C782 C 0.52063 0.00893 0.894 0.0
C783 C 0.52296 0.02718 0.91613 0.0
C784 C 0.54621 0.00596 0.88135 0.0
C785 C 0.5512 0.0418 0.92597 0.0
C786 C 0.57672 0.03879 0.91367 0.0
C787 C 0.59985 0.01928 0.87779 0.0
C788 C 0.59755 0.00254 0.85448 0.0
C789 C 0.57445 0.02123 0.89113 0.0
C790 C 0.56945 0.98689 0.84536 0.0
C791 C 0.54405 0.98853 0.85869 0.0
H792 H 0.25393 0.26266 0.37104 0.0
H793 H 0.34966 0.27214 0.3767 0.0
H794 H 0.34911 0.24623 0.42302 0.0
H795 H 0.3215 0.22332 0.46344 0.0
H796 H 0.22589 0.21542 0.45774 0.0
H797 H 0.22629 0.23776 0.41009 0.0
C798 C 0.27467 0.25913 0.38246 0.0
C799 C 0.30177 0.26947 0.37043 0.0
C800 C 0.27421 0.24425 0.40913 0.0
C801 C 0.32843 0.26428 0.38536 0.0
C802 C 0.32815 0.24949 0.41191 0.0
C803 C 0.30076 0.22593 0.45149 0.0
C804 C 0.27372 0.2177 0.46413 0.0
C805 C 0.30118 0.23955 0.42416 0.0
C806 C 0.24703 0.22164 0.44853 0.0
C807 C 0.24722 0.23456 0.42129 0.0
H808 H 0.48368 0.48031 0.92147 0.0
H809 H 0.47402 0.5674 0.9342 0.0
H810 H 0.45172 0.57289 0.88607 0.0
H811 H 0.43784 0.55382 0.83945 0.0
H812 H 0.45058 0.46764 0.82638 0.0
H813 H 0.46878 0.46088 0.87545 0.0
C814 C 0.47675 0.50051 0.91362 0.0
C815 C 0.48109 0.52367 0.93107 0.0
C816 C 0.46455 0.50366 0.88585 0.0
C817 C 0.47138 0.54948 0.92094 0.0
C818 C 0.45862 0.55259 0.89347 0.0
C819 C 0.44426 0.53345 0.84746 0.0
C820 C 0.4429 0.51128 0.82928 0.0
C821 C 0.45549 0.52997 0.87559 0.0
C822 C 0.45158 0.48511 0.83989 0.0
C823 C 0.46201 0.48121 0.86795 0.0
H824 H 0.71368 0.77669 0.15439 0.0
H825 H 0.72879 0.71746 0.22544 0.0
H826 H 0.75417 0.69065 0.19678 0.0
H827 H 0.77117 0.6837 0.15084 0.0
H828 H 0.75509 0.74364 0.08031 0.0
H829 H 0.73085 0.77023 0.10927 0.0
C830 C 0.72269 0.75801 0.16362 0.0
C831 C 0.71959 0.74911 0.19196 0.0
C832 C 0.73685 0.74263 0.14699 0.0
C833 C 0.73117 0.72476 0.20365 0.0
C834 C 0.74555 0.70941 0.18725 0.0
C835 C 0.76231 0.70254 0.14186 0.0
C836 C 0.76464 0.71133 0.11329 0.0
C837 C 0.74838 0.71805 0.15879 0.0
C838 C 0.75318 0.73595 0.10204 0.0
C839 C 0.73944 0.75138 0.11865 0.0
H840 H 0.96649 0.04795 0.0733 0.0
H841 H 0.03949 0.01621 0.12147 0.0
H842 H 0.01402 0.01376 0.16416 0.0
H843 H 0.97295 0.0243 0.18827 0.0
H844 H 0.90016 0.05665 0.14022 0.0
H845 H 0.92372 0.05536 0.09707 0.0
C846 C 0.97676 0.0404 0.09314 0.0
C847 C 0.00494 0.03245 0.0942 0.0
C848 C 0.96214 0.03935 0.11766 0.0
C849 C 0.01773 0.02225 0.12 0.0
C850 C 1.00327 0.02105 0.14447 0.0
C851 C 0.96197 0.03069 0.16837 0.0
C852 C 0.93483 0.04065 0.16757 0.0
C853 C 0.97572 0.03004 0.14362 0.0
C854 C 0.92107 0.04894 0.14151 0.0
C855 C 0.93456 0.04827 0.1168 0.0
H856 H 0.28986 0.77429 0.18076 0.0
H857 H 0.28605 0.85695 0.21103 0.0
H858 H 0.26869 0.8743 0.16392 0.0
H859 H 0.25412 0.86555 0.11419 0.0
H860 H 0.25966 0.78302 0.08437 0.0
H861 H 0.27748 0.76629 0.13117 0.0
C862 C 0.28574 0.79628 0.17702 0.0
C863 C 0.28996 0.81462 0.19922 0.0
C864 C 0.27616 0.80615 0.14994 0.0
C865 C 0.28352 0.84269 0.19411 0.0
C866 C 0.27356 0.85256 0.16723 0.0
C867 C 0.2594 0.84397 0.11793 0.0
C868 C 0.2556 0.8256 0.0958 0.0
C869 C 0.26978 0.83446 0.14497 0.0
C870 C 0.26258 0.79771 0.10096 0.0
C871 C 0.27264 0.78804 0.12776 0.0
H872 H 0.05994 0.49999 0.12103 0.0
H873 H 0.99575 0.51556 0.17495 0.0
H874 H 0.03337 0.51732 0.21497 0.0
H875 H 0.08489 0.51399 0.23476 0.0
H876 H 0.14815 0.49844 0.17958 0.0
H877 H 0.11043 0.49661 0.14033 0.0
C878 C 0.05401 0.50352 0.14158 0.0
C879 C 0.02492 0.50745 0.14491 0.0
C880 C 0.07565 0.50436 0.16444 0.0
C881 C 0.01799 0.51267 0.17165 0.0
C882 C 0.03947 0.51348 0.19461 0.0
C883 C 0.09035 0.51003 0.21419 0.0
C884 C 0.11949 0.50636 0.21033 0.0
C885 C 0.06843 0.50926 0.1913 0.0
C886 C 0.12609 0.50148 0.18336 0.0
C887 C 0.10448 0.50041 0.16077 0.0
H888 H 0.35057 0.72965 0.34587 0.0
H889 H 0.40493 0.76526 0.27831 0.0
H890 H 0.44923 0.77275 0.31133 0.0
H891 H 0.47251 0.76981 0.35962 0.0
H892 H 0.41774 0.73329 0.42681 0.0
H893 H 0.37394 0.72515 0.39364 0.0
C894 C 0.37215 0.73869 0.33828 0.0
C895 C 0.37431 0.74696 0.30963 0.0
C896 C 0.39758 0.7428 0.35735 0.0
C897 C 0.40247 0.7591 0.3003 0.0
C898 C 0.42789 0.76324 0.31916 0.0
C899 C 0.45103 0.75998 0.36703 0.0
C900 C 0.4486 0.7523 0.39579 0.0
C901 C 0.42569 0.75533 0.34778 0.0
C902 C 0.42047 0.73952 0.40488 0.0
C903 C 0.39528 0.73484 0.3859 0.0
H904 H 0.01105 0.44942 0.98881 0.0
H905 H 0.97852 0.40758 0.06617 0.0
H906 H 0.97732 0.36016 0.0491 0.0
H907 H 0.98636 0.33046 0.01293 0.0
H908 H 0.0216 0.37137 0.93631 0.0
H909 H 0.0208 0.41919 0.95232 0.0
C910 C 1.00343 0.42985 0.00175 0.0
C911 C 0.99407 0.43213 0.02836 0.0
C912 C 1.00335 0.40248 0.99199 0.0
C913 C 0.98509 0.40662 0.04531 0.0
C914 C 0.98453 0.37941 0.03561 0.0
C915 C 0.99367 0.34977 0.99953 0.0
C916 C 1.00386 0.34723 0.97333 0.0
C917 C 0.99363 0.37709 0.00904 0.0
C918 C 0.01361 0.37262 0.95654 0.0
C919 C 0.01317 0.39998 0.9657 0.0
H920 H 0.69702 0.85521 0.31913 0.0
H921 H 0.6345 0.79918 0.26565 0.0
H922 H 0.59604 0.79693 0.29788 0.0
H923 H 0.58126 0.8081 0.34291 0.0
H924 H 0.64409 0.86401 0.39627 0.0
H925 H 0.6809 0.86991 0.36189 0.0
C926 C 0.67483 0.84297 0.31417 0.0
C927 C 0.66883 0.82719 0.29005 0.0
C928 C 0.65277 0.84184 0.33274 0.0
C929 C 0.63999 0.81108 0.28431 0.0
C930 C 0.61788 0.80994 0.30264 0.0
C931 C 0.60278 0.82206 0.34678 0.0
C932 C 0.60993 0.83545 0.37224 0.0
C933 C 0.62416 0.82485 0.32716 0.0
C934 C 0.63801 0.85333 0.37692 0.0
C935 C 0.65916 0.85661 0.35732 0.0
H936 H 0.99703 0.10143 0.01603 0.0
H937 H 0.08814 0.09912 0.00177 0.0
H938 H 0.09167 0.14526 0.97422 0.0
H939 H 0.07014 0.18789 0.95636 0.0
H940 H 0.9816 0.19318 0.97551 0.0
H941 H 0.97607 0.14462 0.99952 0.0
C942 C 0.01786 0.11108 0.00729 0.0
C943 C 0.04221 0.09644 0.0111 0.0
C944 C 0.02029 0.13836 0.99244 0.0
C945 C 0.06871 0.10927 0.99885 0.0
C946 C 0.07092 0.13593 0.98326 0.0
C947 C 0.04956 0.17821 0.9656 0.0
C948 C 0.02629 0.19391 0.96424 0.0
C949 C 0.04698 0.15078 0.98014 0.0
C950 C 0.99988 0.18151 0.97657 0.0
C951 C 0.99671 0.15375 0.9902 0.0
H952 H 0.38778 0.25521 0.25899 0.0
H953 H 0.32064 0.29207 0.20688 0.0
H954 H 0.35131 0.29823 0.16712 0.0
H955 H 0.39566 0.29015 0.14643 0.0
H956 H 0.4631 0.25327 0.19843 0.0
H957 H 0.43411 0.25033 0.23893 0.0
C958 C 0.38005 0.2647 0.23891 0.0
C959 C 0.35178 0.27261 0.23561 0.0
C960 C 0.39781 0.26809 0.21613 0.0
C961 C 0.34212 0.28539 0.20972 0.0
C962 C 0.35965 0.28891 0.18702 0.0
C963 C 0.40419 0.28168 0.16665 0.0
C964 C 0.43146 0.27172 0.16923 0.0
C965 C 0.38729 0.27986 0.18984 0.0
C966 C 0.44219 0.26104 0.19573 0.0
C967 C 0.42555 0.25925 0.21893 0.0
H968 H 0.5917 0.43344 0.03387 0.0
H969 H 0.50534 0.44979 0.0483 0.0
H970 H 0.49221 0.40087 0.07069 0.0
H971 H 0.50332 0.3516 0.08143 0.0
H972 H 0.58887 0.33496 0.06437 0.0
H973 H 0.60441 0.38571 0.04831 0.0
C974 C 0.5703 0.42651 0.04252 0.0
C975 C 0.54949 0.44514 0.03934 0.0
C976 C 0.56263 0.39811 0.05473 0.0
C977 C 0.52165 0.43571 0.05031 0.0
C978 C 0.51412 0.40774 0.06308 0.0
C979 C 0.52556 0.35926 0.07473 0.0
C980 C 0.5448 0.33947 0.0739 0.0
C981 C 0.53412 0.38844 0.06472 0.0
C982 C 0.57349 0.34969 0.06495 0.0
C983 C 0.58242 0.37872 0.05572 0.0
H984 H 0.673 0.23206 0.21162 0.0
H985 H 0.60975 0.2336 0.27202 0.0
H986 H 0.57059 0.23635 0.23414 0.0
H987 H 0.55409 0.23757 0.18372 0.0
H988 H 0.61752 0.23378 0.124 0.0
H989 H 0.65643 0.2318 0.16187 0.0
C990 C 0.65058 0.23261 0.21663 0.0
C991 C 0.64447 0.23256 0.24476 0.0
C992 C 0.62803 0.23354 0.19483 0.0
C993 C 0.61534 0.23402 0.25062 0.0
C994 C 0.59281 0.23533 0.22895 0.0
C995 C 0.57637 0.23618 0.17896 0.0
C996 C 0.58269 0.23583 0.15091 0.0
C997 C 0.59887 0.235 0.20095 0.0
C998 C 0.61181 0.23404 0.14528 0.0
C999 C 0.63421 0.23298 0.16696 0.0
H1000 H 0.48472 0.11086 0.99423 0.0
H1001 H 0.44307 0.05466 0.0607 0.0
H1002 H 0.44897 0.0957 0.08962 0.0
H1003 H 0.46467 0.14796 0.09578 0.0
H1004 H 0.50771 0.2038 0.0299 0.0
H1005 H 0.5032 0.16247 0.00151 0.0
C1006 C 0.47729 0.10743 0.01518 0.0
C1007 C 0.46309 0.0796 0.02497 0.0
C1008 C 0.4811 0.13114 0.03198 0.0
C1009 C 0.45341 0.07586 0.05218 0.0
C1010 C 0.45698 0.09932 0.06891 0.0
C1011 C 0.47328 0.15106 0.07531 0.0
C1012 C 0.4865 0.17903 0.06506 0.0
C1013 C 0.47053 0.12713 0.05895 0.0
C1014 C 0.49756 0.18256 0.03846 0.0
C1015 C 0.49486 0.15891 0.02209 0.0
H1016 H 0.26898 0.37476 0.71135 0.0
H1017 H 0.25458 0.38625 0.79686 0.0
H1018 H 0.29462 0.42829 0.79762 0.0
H1019 H 0.33557 0.46081 0.77496 0.0
H1020 H 0.35478 0.44495 0.69245 0.0
H1021 H 0.31156 0.4052 0.6898 0.0
C1022 C 0.27474 0.38601 0.73039 0.0
C1023 C 0.2582 0.37713 0.75388 0.0
C1024 C 0.29889 0.40946 0.73127 0.0
C1025 C 0.26603 0.39276 0.77806 0.0
C1026 C 0.28928 0.41675 0.7787 0.0
C1027 C 0.33003 0.44871 0.75637 0.0
C1028 C 0.34789 0.45579 0.73379 0.0
C1029 C 0.30595 0.42521 0.75551 0.0
C1030 C 0.3411 0.43978 0.70999 0.0
C1031 C 0.31647 0.41711 0.70851 0.0
H1032 H 0.25404 0.64921 0.76033 0.0
H1033 H 0.31723 0.71763 0.79862 0.0
H1034 H 0.35566 0.68764 0.80287 0.0
H1035 H 0.37227 0.64345 0.79254 0.0
H1036 H 0.30927 0.57482 0.75399 0.0
H1037 H 0.26979 0.60313 0.75336 0.0
C1038 C 0.27616 0.65729 0.76989 0.0
C1039 C 0.2829 0.68558 0.77898 0.0
C1040 C 0.2982 0.63995 0.77213 0.0
C1041 C 0.31158 0.69595 0.79138 0.0
C1042 C 0.33355 0.67883 0.79377 0.0
C1043 C 0.34985 0.63451 0.78426 0.0
C1044 C 0.34389 0.60713 0.77309 0.0
C1045 C 0.32728 0.65101 0.78374 0.0
C1046 C 0.31458 0.59585 0.76266 0.0
C1047 C 0.29197 0.61209 0.76218 0.0
H1048 H 0.91732 0.44902 0.48659 0.0
H1049 H 0.86831 0.51686 0.49545 0.0
H1050 H 0.82236 0.48086 0.49846 0.0
H1051 H 0.7964 0.42957 0.5005 0.0
H1052 H 0.84633 0.36252 0.49089 0.0
H1053 H 0.89122 0.39884 0.48551 0.0
C1054 C 0.89654 0.4561 0.48866 0.0
C1055 C 0.89644 0.48568 0.4909 0.0
C1056 C 0.87019 0.43535 0.4902 0.0
C1057 C 0.86925 0.49421 0.49414 0.0
C1058 C 0.84287 0.47363 0.49568 0.0
C1059 C 0.817 0.42295 0.49686 0.0
C1060 C 0.81789 0.39325 0.49632 0.0
C1061 C 0.84311 0.44405 0.49403 0.0
C1062 C 0.84491 0.38514 0.49168 0.0
C1063 C 0.8707 0.40591 0.4886 0.0
H1064 H 0.753 0.84469 0.83759 0.0
H1065 H 0.76175 0.83044 0.75134 0.0
H1066 H 0.73345 0.86833 0.73572 0.0
H1067 H 0.70908 0.90804 0.74639 0.0
H1068 H 0.69573 0.91848 0.83212 0.0
H1069 H 0.72147 0.87827 0.84784 0.0
C1070 C 0.74817 0.84892 0.8153 0.0
C1071 C 0.7605 0.83459 0.79589 0.0
C1072 C 0.73062 0.87001 0.80623 0.0
C1073 C 0.75392 0.84149 0.76711 0.0
C1074 C 0.73724 0.86303 0.758 0.0
C1075 C 0.71117 0.90103 0.76847 0.0
C1076 C 0.70059 0.91635 0.78806 0.0
C1077 C 0.72597 0.87781 0.77737 0.0
C1078 C 0.70339 0.90695 0.81657 0.0
C1079 C 0.71846 0.88416 0.82559 0.0
H1080 H 0.62489 0.53284 0.05508 0.0
H1081 H 0.61867 0.55013 0.96514 0.0
H1082 H 0.66269 0.58799 0.96891 0.0
H1083 H 0.70126 0.6187 0.99779 0.0
H1084 H 0.71096 0.59922 0.08693 0.0
H1085 H 0.66789 0.55922 0.08339 0.0
C1086 C 0.63339 0.54442 0.03621 0.0
C1087 C 0.61757 0.53902 0.00993 0.0
C1088 C 0.65951 0.5658 0.03836 0.0
C1089 C 0.62933 0.55445 0.98582 0.0
C1090 C 0.65483 0.57599 0.98786 0.0
C1091 C 0.69419 0.60527 0.01631 0.0
C1092 C 0.70904 0.61168 0.04255 0.0
C1093 C 0.66973 0.58227 0.01403 0.0
C1094 C 0.69987 0.59436 0.0665 0.0
C1095 C 0.67516 0.57168 0.06447 0.0
H1096 H 0.30521 0.66002 0.26847 0.0
H1097 H 0.24067 0.71167 0.28211 0.0
H1098 H 0.20237 0.66769 0.28714 0.0
H1099 H 0.18796 0.61412 0.28932 0.0
H1100 H 0.25275 0.56332 0.27332 0.0
H1101 H 0.28997 0.60722 0.26718 0.0
C1102 C 0.28272 0.66152 0.27253 0.0
C1103 C 0.2757 0.68879 0.27526 0.0
C1104 C 0.26082 0.6363 0.27482 0.0
C1105 C 0.24645 0.69073 0.28006 0.0
C1106 C 0.22463 0.66565 0.28293 0.0
C1107 C 0.21012 0.61273 0.2842 0.0
C1108 C 0.21748 0.5854 0.28186 0.0
C1109 C 0.23161 0.63824 0.28054 0.0
C1110 C 0.24632 0.584 0.27512 0.0
C1111 C 0.26777 0.60912 0.27176 0.0
H1112 H 0.92606 0.53851 0.12803 0.0
H1113 H 0.94799 0.5536 0.04222 0.0
H1114 H 0.91091 0.58496 0.03215 0.0
H1115 H 0.87183 0.60805 0.04772 0.0
H1116 H 0.84962 0.59188 0.13355 0.0
H1117 H 0.88694 0.56117 0.14345 0.0
C1118 C 0.92293 0.54892 0.10721 0.0
C1119 C 0.93986 0.54378 0.08596 0.0
C1120 C 0.90128 0.56666 0.10146 0.0
C1121 C 0.93516 0.55707 0.05895 0.0
C1122 C 0.91396 0.57503 0.05316 0.0
C1123 C 0.87507 0.59772 0.06854 0.0
C1124 C 0.85781 0.60241 0.08979 0.0
C1125 C 0.89673 0.5799 0.07422 0.0
C1126 C 0.86245 0.58878 0.11669 0.0
C1127 C 0.88391 0.57118 0.12246 0.0
H1128 H 0.05845 0.93043 0.99171 0.0
H1129 H 0.12444 1.00051 0.02398 0.0
H1130 H 0.1641 0.9743 0.01752 0.0
H1131 H 0.1798 0.92995 0.00548 0.0
H1132 H 0.11352 0.86009 0.97291 0.0
H1133 H 0.07445 0.88788 0.97621 0.0
C1134 C 0.08154 0.93986 0.99741 0.0
C1135 C 0.08833 0.96681 0.00931 0.0
C1136 C 0.10426 0.92479 0.99339 0.0
C1137 C 0.11843 0.97933 0.01568 0.0
C1138 C 0.14118 0.96443 0.01181 0.0
C1139 C 0.15689 0.92102 0.99864 0.0
C1140 C 0.14963 0.89286 0.98914 0.0
C1141 C 0.13433 0.93694 0.00106 0.0
C1142 C 0.11977 0.88162 0.98045 0.0
C1143 C 0.09734 0.89745 0.98244 0.0
loop_
_geom_bond_atom_site_label_1
_geom_bond_atom_site_label_2
_geom_bond_distance
_geom_bond_site_symmetry_2
_ccdc_geom_bond_type
H0 C7 0.929 . S
H1 C10 0.930 . S
H2 C12 0.929 1_556 S
H3 C4 0.969 . S
C4 H3 0.969 . S
C4 O5 1.550 1_565 S
C4 H6 0.973 . S
O5 C4 1.550 1_545 S
O5 C11 1.412 . S
H6 C4 0.973 . S
C7 H0 0.929 . S
C7 C8 1.404 . S
C7 C9 1.364 . S
C8 C7 1.404 . S
C8 C12 1.371 1_655 S
C9 C7 1.364 . S
C9 C10 1.374 1_655 S
C10 H1 0.930 . S
C10 C9 1.374 1_455 S
C10 C11 1.383 . S
C11 O5 1.412 . S
C11 C10 1.383 . S
C11 C12 1.394 . S
C12 H2 0.929 1_554 S
C12 C8 1.371 1_455 S
C12 C11 1.394 . S
H13 C20 0.929 . S
H14 C23 0.930 . S
H15 C25 0.929 . S
H16 C17 0.969 . S
C17 H16 0.969 . S
C17 O18 1.550 . S
C17 H19 0.973 . S
O18 C17 1.550 . S
O18 C24 1.412 . S
H19 C17 0.973 . S
C20 H13 0.929 . S
C20 C21 1.400 . S
C20 C22 1.364 . S
C21 C20 1.400 . S
C21 C25 1.377 . S
C22 C20 1.364 . S
C22 C23 1.374 . S
C23 H14 0.930 . S
C23 C22 1.374 . S
C23 C24 1.383 . S
C24 O18 1.412 . S
C24 C23 1.383 . S
C24 C25 1.394 . S
C25 H15 0.929 . S
C25 C21 1.377 . S
C25 C24 1.394 . S
H26 C33 0.929 . S
H27 C36 0.930 . S
H28 C38 0.929 . S
H29 C30 0.969 . S
C30 H29 0.969 . S
C30 O31 1.550 . S
C30 H32 0.973 . S
O31 C30 1.550 . S
O31 C37 1.412 . S
H32 C30 0.973 . S
C33 H26 0.929 . S
C33 C34 1.380 1_655 S
C33 C35 1.364 . S
C34 C33 1.380 1_455 S
C34 C38 1.386 . S
C35 C33 1.364 . S
C35 C36 1.374 . S
C36 H27 0.930 . S
C36 C35 1.374 . S
C36 C37 1.383 . S
C37 O31 1.412 . S
C37 C36 1.383 . S
C37 C38 1.394 1_655 S
C38 H28 0.929 . S
C38 C34 1.386 . S
C38 C37 1.394 1_455 S
H39 C46 0.929 . S
H40 C49 0.930 . S
H41 C51 0.929 . S
H42 C43 0.969 . S
C43 H42 0.969 . S
C43 O44 1.550 . S
C43 H45 0.973 . S
O44 C43 1.550 . S
O44 C50 1.412 . S
H45 C43 0.973 . S
C46 H39 0.929 . S
C46 C47 1.400 . S
C46 C48 1.364 . S
C47 C46 1.400 . S
C47 C51 1.377 . S
C48 C46 1.364 . S
C48 C49 1.374 . S
C49 H40 0.930 . S
C49 C48 1.374 . S
C49 C50 1.383 . S
C50 O44 1.412 . S
C50 C49 1.383 . S
C50 C51 1.394 . S
C51 H41 0.929 . S
C51 C47 1.377 . S
C51 C50 1.394 . S
H52 C59 0.929 . S
H53 C62 0.930 . S
H54 C64 0.929 . S
H55 C56 0.969 1_655 S
C56 H55 0.969 1_455 S
C56 O57 1.550 . S
C56 H58 0.973 . S
O57 C56 1.550 . S
O57 C63 1.412 . S
H58 C56 0.973 . S
C59 H52 0.929 . S
C59 C60 1.380 1_565 S
C59 C61 1.364 . S
C60 C59 1.380 1_545 S
C60 C64 1.385 . S
C61 C59 1.364 . S
C61 C62 1.374 . S
C62 H53 0.930 . S
C62 C61 1.374 . S
C62 C63 1.383 . S
C63 O57 1.412 . S
C63 C62 1.383 . S
C63 C64 1.394 1_565 S
C64 H54 0.929 . S
C64 C60 1.385 . S
C64 C63 1.394 1_545 S
H65 C72 0.929 . S
H66 C75 0.930 . S
H67 C77 0.929 . S
H68 C69 0.969 . S
C69 H68 0.969 . S
C69 O70 1.550 . S
C69 H71 0.973 . S
O70 C69 1.550 . S
O70 C76 1.412 . S
H71 C69 0.973 . S
C72 H65 0.929 . S
C72 C73 1.400 . S
C72 C74 1.364 . S
C73 C72 1.400 . S
C73 C77 1.377 . S
C74 C72 1.364 . S
C74 C75 1.374 . S
C75 H66 0.930 . S
C75 C74 1.374 . S
C75 C76 1.383 . S
C76 O70 1.412 . S
C76 C75 1.383 . S
C76 C77 1.394 . S
C77 H67 0.929 . S
C77 C73 1.377 . S
C77 C76 1.394 . S
H78 C85 0.929 . S
H79 C88 0.930 . S
H80 C90 0.929 1_455 S
H81 C82 0.969 1_655 S
C82 H81 0.969 1_455 S
C82 O83 1.550 . S
C82 H84 0.973 1_455 S
O83 C82 1.550 . S
O83 C89 1.412 1_455 S
H84 C82 0.973 1_655 S
C85 H78 0.929 . S
C85 C86 1.400 . S
C85 C87 1.364 . S
C86 C85 1.400 . S
C86 C90 1.377 . S
C87 C85 1.364 . S
C87 C88 1.374 . S
C88 H79 0.930 . S
C88 C87 1.374 . S
C88 C89 1.383 . S
C89 O83 1.412 1_655 S
C89 C88 1.383 . S
C89 C90 1.394 . S
C90 H80 0.929 1_655 S
C90 C86 1.377 . S
C90 C89 1.394 . S
H91 C98 0.929 . S
H92 C101 0.930 . S
H93 C103 0.929 . S
H94 C95 0.969 . S
C95 H94 0.969 . S
C95 O96 1.550 . S
C95 H97 0.973 . S
O96 C95 1.550 . S
O96 C102 1.412 . S
H97 C95 0.973 . S
C98 H91 0.929 . S
C98 C99 1.400 . S
C98 C100 1.364 . S
C99 C98 1.400 . S
C99 C103 1.377 . S
C100 C98 1.364 . S
C100 C101 1.374 . S
C101 H92 0.930 . S
C101 C100 1.374 . S
C101 C102 1.383 . S
C102 O96 1.412 . S
C102 C101 1.383 . S
C102 C103 1.394 . S
C103 H93 0.929 . S
C103 C99 1.377 . S
C103 C102 1.394 . S
H104 C111 0.929 . S
H105 C114 0.930 . S
H106 C116 0.929 . S
H107 C108 0.969 . S
C108 H107 0.969 . S
C108 O109 1.550 . S
C108 H110 0.973 . S
O109 C108 1.550 . S
O109 C115 1.412 . S
H110 C108 0.973 . S
C111 H104 0.929 . S
C111 C112 1.400 . S
C111 C113 1.364 . S
C112 C111 1.400 . S
C112 C116 1.377 . S
C113 C111 1.364 . S
C113 C114 1.374 . S
C114 H105 0.930 . S
C114 C113 1.374 . S
C114 C115 1.383 . S
C115 O109 1.412 . S
C115 C114 1.383 . S
C115 C116 1.394 . S
C116 H106 0.929 . S
C116 C112 1.377 . S
C116 C115 1.394 . S
H117 C124 0.929 1_545 S
H118 C127 0.930 . S
H119 C129 0.929 . S
H120 C121 0.969 . S
C121 H120 0.969 . S
C121 O122 1.550 . S
C121 H123 0.973 . S
O122 C121 1.550 . S
O122 C128 1.412 . S
H123 C121 0.973 . S
C124 H117 0.929 1_565 S
C124 C125 1.400 . S
C124 C126 1.364 . S
C125 C124 1.400 . S
C125 C129 1.377 . S
C126 C124 1.364 . S
C126 C127 1.374 . S
C127 H118 0.930 . S
C127 C126 1.374 . S
C127 C128 1.383 . S
C128 O122 1.412 . S
C128 C127 1.383 . S
C128 C129 1.394 . S
C129 H119 0.929 . S
C129 C125 1.377 . S
C129 C128 1.394 . S
H130 C137 0.929 . S
H131 C140 0.930 . S
H132 C142 0.929 . S
H133 C134 0.969 . S
C134 H133 0.969 . S
C134 O135 1.550 . S
C134 H136 0.973 . S
O135 C134 1.550 . S
O135 C141 1.412 . S
H136 C134 0.973 . S
C137 H130 0.929 . S
C137 C138 1.400 . S
C137 C139 1.364 . S
C138 C137 1.400 . S
C138 C142 1.377 . S
C139 C137 1.364 . S
C139 C140 1.374 . S
C140 H131 0.930 . S
C140 C139 1.374 . S
C140 C141 1.383 . S
C141 O135 1.412 . S
C141 C140 1.383 . S
C141 C142 1.394 . S
C142 H132 0.929 . S
C142 C138 1.377 . S
C142 C141 1.394 . S
H143 C150 0.929 . S
H144 C153 0.930 . S
H145 C155 0.929 . S
H146 C147 0.969 . S
C147 H146 0.969 . S
C147 O148 1.550 . S
C147 H149 0.973 . S
O148 C147 1.550 . S
O148 C154 1.412 . S
H149 C147 0.973 . S
C150 H143 0.929 . S
C150 C151 1.400 . S
C150 C152 1.364 . S
C151 C150 1.400 . S
C151 C155 1.377 . S
C152 C150 1.364 . S
C152 C153 1.374 . S
C153 H144 0.930 . S
C153 C152 1.374 . S
C153 C154 1.383 . S
C154 O148 1.412 . S
C154 C153 1.383 . S
C154 C155 1.394 . S
C155 H145 0.929 . S
C155 C151 1.377 . S
C155 C154 1.394 . S
H156 C163 0.929 . S
H157 C166 0.930 . S
H158 C168 0.929 . S
H159 C160 0.969 . S
C160 H159 0.969 . S
C160 O161 1.550 . S
C160 H162 0.973 . S
O161 C160 1.550 . S
O161 C167 1.412 . S
H162 C160 0.973 . S
C163 H156 0.929 . S
C163 C164 1.400 . S
C163 C165 1.364 . S
C164 C163 1.400 . S
C164 C168 1.377 . S
C165 C163 1.364 . S
C165 C166 1.374 . S
C166 H157 0.930 . S
C166 C165 1.374 . S
C166 C167 1.383 . S
C167 O161 1.412 . S
C167 C166 1.383 . S
C167 C168 1.394 . S
C168 H158 0.929 . S
C168 C164 1.377 . S
C168 C167 1.394 . S
H169 C176 0.929 . S
H170 C179 0.930 . S
H171 C181 0.929 . S
H172 C173 0.969 . S
C173 H172 0.969 . S
C173 O174 1.550 . S
C173 H175 0.973 . S
O174 C173 1.550 . S
O174 C180 1.412 . S
H175 C173 0.973 . S
C176 H169 0.929 . S
C176 C177 1.400 1_554 S
C176 C178 1.364 1_554 S
C177 C176 1.400 1_556 S
C177 C181 1.377 . S
C178 C176 1.364 1_556 S
C178 C179 1.374 . S
C179 H170 0.930 . S
C179 C178 1.374 . S
C179 C180 1.383 . S
C180 O174 1.412 . S
C180 C179 1.383 . S
C180 C181 1.394 . S
C181 H171 0.929 . S
C181 C177 1.377 . S
C181 C180 1.394 . S
H182 C189 0.929 . S
H183 C192 0.930 . S
H184 C194 0.929 . S
H185 C186 0.969 . S
C186 H185 0.969 . S
C186 O187 1.550 . S
C186 H188 0.973 . S
O187 C186 1.550 . S
O187 C193 1.412 . S
H188 C186 0.973 . S
C189 H182 0.929 . S
C189 C190 1.400 . S
C189 C191 1.364 . S
C190 C189 1.400 . S
C190 C194 1.377 . S
C191 C189 1.364 . S
C191 C192 1.374 . S
C192 H183 0.930 . S
C192 C191 1.374 . S
C192 C193 1.383 . S
C193 O187 1.412 . S
C193 C192 1.383 . S
C193 C194 1.394 . S
C194 H184 0.929 . S
C194 C190 1.377 . S
C194 C193 1.394 . S
H195 C202 0.929 . S
H196 C205 0.930 . S
H197 C207 0.929 . S
H198 C199 0.969 . S
C199 H198 0.969 . S
C199 O200 1.550 . S
C199 H201 0.973 . S
O200 C199 1.550 . S
O200 C206 1.412 . S
H201 C199 0.973 . S
C202 H195 0.929 . S
C202 C203 1.400 . S
C202 C204 1.364 . S
C203 C202 1.400 . S
C203 C207 1.377 . S
C204 C202 1.364 . S
C204 C205 1.374 1_554 S
C205 H196 0.930 . S
C205 C204 1.374 1_556 S
C205 C206 1.383 . S
C206 O200 1.412 . S
C206 C205 1.383 . S
C206 C207 1.394 1_556 S
C207 H197 0.929 . S
C207 C203 1.377 . S
C207 C206 1.394 1_554 S
Mg208 O209 2.028 . S
Mg208 O215 1.986 1_554 S
Mg208 O217 2.114 . S
Mg208 O218 2.251 . S
Mg208 O221 2.010 . S
O209 Mg208 2.028 . S
O209 C212 1.254 . S
O210 Mg211 2.025 1_554 S
O210 C212 1.246 . S
Mg211 O210 2.025 1_556 S
Mg211 O216 2.050 . S
Mg211 O218 2.063 1_556 S
C212 O209 1.254 . S
C212 O210 1.246 . S
C213 O214 1.264 . S
C213 O221 1.249 . S
O214 C213 1.264 . S
O215 Mg208 1.986 1_556 S
O215 C219 1.246 . S
O216 Mg211 2.050 . S
O216 C219 1.259 . S
O217 Mg208 2.114 . S
O217 C220 1.252 . S
O218 Mg208 2.251 . S
O218 Mg211 2.063 1_554 S
O218 C220 1.273 . S
C219 O215 1.246 . S
C219 O216 1.259 . S
C220 O217 1.252 . S
C220 O218 1.273 . S
O221 Mg208 2.010 . S
O221 C213 1.249 . S
Mg222 O223 2.028 . S
Mg222 O229 1.986 . S
Mg222 O231 2.114 . S
Mg222 O232 2.251 . S
Mg222 O235 2.010 . S
O223 Mg222 2.028 . S
O223 C226 1.250 . S
O224 Mg225 2.028 . S
O224 C226 1.248 . S
Mg225 O224 2.028 . S
Mg225 O230 2.032 . S
Mg225 O232 2.079 . S
C226 O223 1.250 . S
C226 O224 1.248 . S
C227 O228 1.264 . S
C227 O235 1.249 . S
O228 C227 1.264 . S
O229 Mg222 1.986 . S
O229 C233 1.246 . S
O230 Mg225 2.032 . S
O230 C233 1.259 . S
O231 Mg222 2.114 . S
O231 C234 1.252 . S
O232 Mg222 2.251 . S
O232 Mg225 2.079 . S
O232 C234 1.273 . S
C233 O229 1.246 . S
C233 O230 1.259 . S
C234 O231 1.252 . S
C234 O232 1.273 . S
O235 Mg222 2.010 . S
O235 C227 1.249 . S
Mg236 O237 2.028 . S
Mg236 O243 1.986 . S
Mg236 O245 2.114 . S
Mg236 O246 2.251 . S
Mg236 O249 2.010 . S
O237 Mg236 2.028 . S
O237 C240 1.250 . S
O238 Mg239 2.028 . S
O238 C240 1.248 . S
Mg239 O238 2.028 . S
Mg239 O244 2.032 . S
Mg239 O246 2.079 . S
C240 O237 1.250 . S
C240 O238 1.248 . S
C241 O242 1.264 . S
C241 O249 1.249 . S
O242 C241 1.264 . S
O243 Mg236 1.986 . S
O243 C247 1.246 . S
O244 Mg239 2.032 . S
O244 C247 1.259 . S
O245 Mg236 2.114 . S
O245 C248 1.252 . S
O246 Mg236 2.251 . S
O246 Mg239 2.079 . S
O246 C248 1.273 . S
C247 O243 1.246 . S
C247 O244 1.259 . S
C248 O245 1.252 . S
C248 O246 1.273 . S
O249 Mg236 2.010 . S
O249 C241 1.249 . S
Mg250 O251 2.028 . S
Mg250 O257 1.986 . S
Mg250 O259 2.114 . S
Mg250 O260 2.251 . S
Mg250 O263 2.010 . S
O251 Mg250 2.028 . S
O251 C254 1.250 1_545 S
O252 Mg253 2.028 . S
O252 C254 1.248 . S
Mg253 O252 2.028 . S
Mg253 O258 2.031 1_565 S
Mg253 O260 2.079 1_565 S
C254 O251 1.250 1_565 S
C254 O252 1.248 . S
C255 O256 1.264 . S
C255 O263 1.249 . S
O256 C255 1.264 . S
O257 Mg250 1.986 . S
O257 C261 1.246 . S
O258 Mg253 2.031 1_545 S
O258 C261 1.262 . S
O259 Mg250 2.114 . S
O259 C262 1.252 . S
O260 Mg250 2.251 . S
O260 Mg253 2.079 1_545 S
O260 C262 1.273 . S
C261 O257 1.246 . S
C261 O258 1.262 . S
C262 O259 1.252 . S
C262 O260 1.273 . S
O263 Mg250 2.010 . S
O263 C255 1.249 . S
Mg264 O265 2.028 . S
Mg264 O271 1.986 . S
Mg264 O273 2.114 . S
Mg264 O274 2.251 . S
Mg264 O277 2.010 . S
O265 Mg264 2.028 . S
O265 C268 1.250 . S
O266 Mg267 2.028 . S
O266 C268 1.248 . S
Mg267 O266 2.028 . S
Mg267 O272 2.032 . S
Mg267 O274 2.079 . S
C268 O265 1.250 . S
C268 O266 1.248 . S
C269 O270 1.264 . S
C269 O277 1.249 . S
O270 C269 1.264 . S
O271 Mg264 1.986 . S
O271 C275 1.246 . S
O272 Mg267 2.032 . S
O272 C275 1.259 . S
O273 Mg264 2.114 . S
O273 C276 1.252 . S
O274 Mg264 2.251 . S
O274 Mg267 2.079 . S
O274 C276 1.273 . S
C275 O271 1.246 . S
C275 O272 1.259 . S
C276 O273 1.252 . S
C276 O274 1.273 . S
O277 Mg264 2.010 . S
O277 C269 1.249 . S
Mg278 O279 2.028 . S
Mg278 O285 1.986 . S
Mg278 O287 2.114 . S
Mg278 O288 2.251 . S
Mg278 O291 2.010 . S
O279 Mg278 2.028 . S
O279 C282 1.250 . S
O280 Mg281 2.028 . S
O280 C282 1.248 . S
Mg281 O280 2.028 . S
Mg281 O286 2.032 . S
Mg281 O288 2.079 . S
C282 O279 1.250 . S
C282 O280 1.248 . S
C283 O284 1.264 . S
C283 O291 1.249 . S
O284 C283 1.264 . S
O285 Mg278 1.986 . S
O285 C289 1.246 . S
O286 Mg281 2.032 . S
O286 C289 1.259 . S
O287 Mg278 2.114 . S
O287 C290 1.252 . S
O288 Mg278 2.251 . S
O288 Mg281 2.079 . S
O288 C290 1.273 . S
C289 O285 1.246 . S
C289 O286 1.259 . S
C290 O287 1.252 . S
C290 O288 1.273 . S
O291 Mg278 2.010 . S
O291 C283 1.249 . S
Mg292 O293 2.028 . S
Mg292 O299 1.986 . S
Mg292 O301 2.114 . S
Mg292 O302 2.251 . S
Mg292 O305 2.010 . S
O293 Mg292 2.028 . S
O293 C296 1.250 . S
O294 Mg295 2.028 . S
O294 C296 1.248 . S
Mg295 O294 2.028 . S
Mg295 O300 2.032 . S
Mg295 O302 2.079 . S
C296 O293 1.250 . S
C296 O294 1.248 . S
C297 O298 1.264 . S
C297 O305 1.249 . S
O298 C297 1.264 . S
O299 Mg292 1.986 . S
O299 C303 1.246 . S
O300 Mg295 2.032 . S
O300 C303 1.259 . S
O301 Mg292 2.114 . S
O301 C304 1.252 . S
O302 Mg292 2.251 . S
O302 Mg295 2.079 . S
O302 C304 1.273 . S
C303 O299 1.246 . S
C303 O300 1.259 . S
C304 O301 1.252 . S
C304 O302 1.273 . S
O305 Mg292 2.010 . S
O305 C297 1.249 . S
Mg306 O307 2.028 1_545 S
Mg306 O313 1.986 1_545 S
Mg306 O315 2.114 . S
Mg306 O316 2.251 . S
Mg306 O319 2.010 . S
O307 Mg306 2.028 1_565 S
O307 C310 1.250 . S
O308 Mg309 2.028 . S
O308 C310 1.248 . S
Mg309 O308 2.028 . S
Mg309 O314 2.032 . S
Mg309 O316 2.079 1_565 S
C310 O307 1.250 . S
C310 O308 1.248 . S
C311 O312 1.264 . S
C311 O319 1.249 . S
O312 C311 1.264 . S
O313 Mg306 1.986 1_565 S
O313 C317 1.246 . S
O314 Mg309 2.032 . S
O314 C317 1.259 . S
O315 Mg306 2.114 . S
O315 C318 1.252 . S
O316 Mg306 2.251 . S
O316 Mg309 2.079 1_545 S
O316 C318 1.273 . S
C317 O313 1.246 . S
C317 O314 1.259 . S
C318 O315 1.252 . S
C318 O316 1.273 . S
O319 Mg306 2.010 . S
O319 C311 1.249 . S
Mg320 O321 2.028 1_455 S
Mg320 O327 1.986 . S
Mg320 O329 2.114 . S
Mg320 O330 2.251 1_455 S
Mg320 O333 2.010 . S
O321 Mg320 2.028 1_655 S
O321 C324 1.250 . S
O322 Mg323 2.028 . S
O322 C324 1.248 . S
Mg323 O322 2.028 . S
Mg323 O328 2.032 . S
Mg323 O330 2.079 . S
C324 O321 1.250 . S
C324 O322 1.248 . S
C325 O326 1.264 . S
C325 O333 1.249 . S
O326 C325 1.264 . S
O327 Mg320 1.986 . S
O327 C331 1.246 1_455 S
O328 Mg323 2.032 . S
O328 C331 1.259 . S
O329 Mg320 2.114 . S
O329 C332 1.252 . S
O330 Mg320 2.251 1_655 S
O330 Mg323 2.079 . S
O330 C332 1.273 1_655 S
C331 O327 1.246 1_655 S
C331 O328 1.259 . S
C332 O329 1.252 . S
C332 O330 1.273 1_455 S
O333 Mg320 2.010 . S
O333 C325 1.249 . S
Mg334 O335 2.028 . S
Mg334 O341 1.986 . S
Mg334 O343 2.114 . S
Mg334 O344 2.251 . S
Mg334 O347 2.010 . S
O335 Mg334 2.028 . S
O335 C338 1.250 . S
O336 Mg337 2.028 . S
O336 C338 1.248 . S
Mg337 O336 2.028 . S
Mg337 O342 2.032 . S
Mg337 O344 2.079 . S
C338 O335 1.250 . S
C338 O336 1.248 . S
C339 O340 1.264 . S
C339 O347 1.249 . S
O340 C339 1.264 . S
O341 Mg334 1.986 . S
O341 C345 1.246 . S
O342 Mg337 2.032 . S
O342 C345 1.259 . S
O343 Mg334 2.114 . S
O343 C346 1.252 . S
O344 Mg334 2.251 . S
O344 Mg337 2.079 . S
O344 C346 1.273 . S
C345 O341 1.246 . S
C345 O342 1.259 . S
C346 O343 1.252 . S
C346 O344 1.273 . S
O347 Mg334 2.010 . S
O347 C339 1.249 . S
Mg348 O349 2.028 1_655 S
Mg348 O355 1.986 1_655 S
Mg348 O357 2.114 . S
Mg348 O358 2.251 1_655 S
Mg348 O361 2.010 . S
O349 Mg348 2.028 1_455 S
O349 C352 1.250 . S
O350 Mg351 2.028 . S
O350 C352 1.248 . S
Mg351 O350 2.028 . S
Mg351 O356 2.032 . S
Mg351 O358 2.079 . S
C352 O349 1.250 . S
C352 O350 1.248 . S
C353 O354 1.264 . S
C353 O361 1.249 . S
O354 C353 1.264 . S
O355 Mg348 1.986 1_455 S
O355 C359 1.246 . S
O356 Mg351 2.032 . S
O356 C359 1.259 . S
O357 Mg348 2.114 . S
O357 C360 1.252 . S
O358 Mg348 2.251 1_455 S
O358 Mg351 2.079 . S
O358 C360 1.273 1_455 S
C359 O355 1.246 . S
C359 O356 1.259 . S
C360 O357 1.252 . S
C360 O358 1.273 1_655 S
O361 Mg348 2.010 . S
O361 C353 1.249 . S
Mg362 O363 2.028 . S
Mg362 O369 1.986 . S
Mg362 O371 2.114 . S
Mg362 O372 2.251 . S
Mg362 O375 2.010 . S
O363 Mg362 2.028 . S
O363 C366 1.250 . S
O364 Mg365 2.028 . S
O364 C366 1.248 . S
Mg365 O364 2.028 . S
Mg365 O370 2.032 . S
Mg365 O372 2.079 . S
C366 O363 1.250 . S
C366 O364 1.248 . S
C367 O368 1.264 . S
C367 O375 1.249 . S
O368 C367 1.264 . S
O369 Mg362 1.986 . S
O369 C373 1.246 . S
O370 Mg365 2.032 . S
O370 C373 1.259 . S
O371 Mg362 2.114 . S
O371 C374 1.252 . S
O372 Mg362 2.251 . S
O372 Mg365 2.079 . S
O372 C374 1.273 . S
C373 O369 1.246 . S
C373 O370 1.259 . S
C374 O371 1.252 . S
C374 O372 1.273 . S
O375 Mg362 2.010 . S
O375 C367 1.249 . S
H376 C382 0.930 . S
H377 C385 0.930 . S
H378 C386 0.930 . S
H379 C387 0.930 . S
H380 C390 0.930 . S
H381 C391 0.930 . S
C382 H376 0.930 . S
C382 C383 1.355 . S
C382 C384 1.415 . S
C383 C382 1.355 . S
C383 C385 1.419 . S
C384 C382 1.415 . S
C384 C389 1.425 . S
C384 C391 1.409 . S
C385 H377 0.930 . S
C385 C383 1.419 . S
C385 C386 1.362 . S
C386 H378 0.930 . S
C386 C385 1.362 . S
C386 C389 1.409 . S
C387 H379 0.930 . S
C387 C388 1.355 . S
C387 C389 1.415 . S
C388 C387 1.355 . S
C388 C390 1.419 . S
C389 C384 1.425 . S
C389 C386 1.409 . S
C389 C387 1.415 . S
C390 H380 0.930 . S
C390 C388 1.419 . S
C390 C391 1.362 . S
C391 H381 0.930 . S
C391 C384 1.409 . S
C391 C390 1.362 . S
H392 C398 0.930 . S
H393 C401 0.930 1_655 S
H394 C402 0.930 . S
H395 C403 0.930 . S
H396 C406 0.930 . S
H397 C407 0.930 . S
C398 H392 0.930 . S
C398 C399 1.355 . S
C398 C400 1.415 . S
C399 C398 1.355 . S
C399 C401 1.419 . S
C400 C398 1.415 . S
C400 C405 1.425 . S
C400 C407 1.409 . S
C401 H393 0.930 1_455 S
C401 C399 1.419 . S
C401 C402 1.362 . S
C402 H394 0.930 . S
C402 C401 1.362 . S
C402 C405 1.409 . S
C403 H395 0.930 . S
C403 C404 1.355 . S
C403 C405 1.415 . S
C404 C403 1.355 . S
C404 C406 1.419 . S
C405 C400 1.425 . S
C405 C402 1.409 . S
C405 C403 1.415 . S
C406 H396 0.930 . S
C406 C404 1.419 . S
C406 C407 1.362 . S
C407 H397 0.930 . S
C407 C400 1.409 . S
C407 C406 1.362 . S
H408 C414 0.930 . S
H409 C417 0.930 . S
H410 C418 0.930 . S
H411 C419 0.930 . S
H412 C422 0.930 . S
H413 C423 0.930 . S
C414 H408 0.930 . S
C414 C415 1.355 . S
C414 C416 1.415 . S
C415 C414 1.355 . S
C415 C417 1.419 . S
C416 C414 1.415 . S
C416 C421 1.425 . S
C416 C423 1.409 . S
C417 H409 0.930 . S
C417 C415 1.419 . S
C417 C418 1.362 . S
C418 H410 0.930 . S
C418 C417 1.362 . S
C418 C421 1.409 . S
C419 H411 0.930 . S
C419 C420 1.355 . S
C419 C421 1.415 . S
C420 C419 1.355 . S
C420 C422 1.419 . S
C421 C416 1.425 . S
C421 C418 1.409 . S
C421 C419 1.415 . S
C422 H412 0.930 . S
C422 C420 1.419 . S
C422 C423 1.362 . S
C423 H413 0.930 . S
C423 C416 1.409 . S
C423 C422 1.362 . S
H424 C430 0.933 . S
H425 C433 0.930 . S
H426 C434 0.930 . S
H427 C435 0.930 . S
H428 C438 0.930 . S
H429 C439 0.930 . S
C430 H424 0.933 . S
C430 C431 1.355 1_545 S
C430 C432 1.415 . S
C431 C430 1.355 1_565 S
C431 C433 1.419 . S
C432 C430 1.415 . S
C432 C437 1.425 1_545 S
C432 C439 1.409 . S
C433 H425 0.930 . S
C433 C431 1.419 . S
C433 C434 1.362 . S
C434 H426 0.930 . S
C434 C433 1.362 . S
C434 C437 1.409 . S
C435 H427 0.930 . S
C435 C436 1.355 1_565 S
C435 C437 1.415 . S
C436 C435 1.355 1_545 S
C436 C438 1.419 . S
C437 C432 1.425 1_565 S
C437 C434 1.409 . S
C437 C435 1.415 . S
C438 H428 0.930 . S
C438 C436 1.419 . S
C438 C439 1.362 . S
C439 H429 0.930 . S
C439 C432 1.409 . S
C439 C438 1.362 . S
H440 C446 0.930 . S
H441 C449 0.930 . S
H442 C450 0.930 . S
H443 C451 0.930 . S
H444 C454 0.930 . S
H445 C455 0.930 . S
C446 H440 0.930 . S
C446 C447 1.355 . S
C446 C448 1.415 . S
C447 C446 1.355 . S
C447 C449 1.419 . S
C448 C446 1.415 . S
C448 C453 1.425 . S
C448 C455 1.409 . S
C449 H441 0.930 . S
C449 C447 1.419 . S
C449 C450 1.362 . S
C450 H442 0.930 . S
C450 C449 1.362 . S
C450 C453 1.409 . S
C451 H443 0.930 . S
C451 C452 1.355 . S
C451 C453 1.415 . S
C452 C451 1.355 . S
C452 C454 1.419 . S
C453 C448 1.425 . S
C453 C450 1.409 . S
C453 C451 1.415 . S
C454 H444 0.930 . S
C454 C452 1.419 . S
C454 C455 1.362 . S
C455 H445 0.930 . S
C455 C448 1.409 . S
C455 C454 1.362 . S
H456 C462 0.930 . S
H457 C465 0.930 . S
H458 C466 0.930 . S
H459 C467 0.930 . S
H460 C470 0.930 . S
H461 C471 0.930 . S
C462 H456 0.930 . S
C462 C463 1.355 . S
C462 C464 1.415 . S
C463 C462 1.355 . S
C463 C465 1.419 . S
C464 C462 1.415 . S
C464 C469 1.425 . S
C464 C471 1.409 . S
C465 H457 0.930 . S
C465 C463 1.419 . S
C465 C466 1.362 . S
C466 H458 0.930 . S
C466 C465 1.362 . S
C466 C469 1.409 . S
C467 H459 0.930 . S
C467 C468 1.355 . S
C467 C469 1.415 . S
C468 C467 1.355 . S
C468 C470 1.419 . S
C469 C464 1.425 . S
C469 C466 1.409 . S
C469 C467 1.415 . S
C470 H460 0.930 . S
C470 C468 1.419 . S
C470 C471 1.362 . S
C471 H461 0.930 . S
C471 C464 1.409 . S
C471 C470 1.362 . S
H472 C478 0.930 . S
H473 C481 0.930 . S
H474 C482 0.930 . S
H475 C483 0.930 . S
H476 C486 0.930 . S
H477 C487 0.930 . S
C478 H472 0.930 . S
C478 C479 1.355 . S
C478 C480 1.415 . S
C479 C478 1.355 . S
C479 C481 1.419 . S
C480 C478 1.415 . S
C480 C485 1.425 . S
C480 C487 1.409 . S
C481 H473 0.930 . S
C481 C479 1.419 . S
C481 C482 1.362 . S
C482 H474 0.930 . S
C482 C481 1.362 . S
C482 C485 1.409 . S
C483 H475 0.930 . S
C483 C484 1.355 . S
C483 C485 1.415 . S
C484 C483 1.355 . S
C484 C486 1.419 . S
C485 C480 1.425 . S
C485 C482 1.409 . S
C485 C483 1.415 . S
C486 H476 0.930 . S
C486 C484 1.419 . S
C486 C487 1.362 . S
C487 H477 0.930 . S
C487 C480 1.409 . S
C487 C486 1.362 . S
H488 C494 0.930 . S
H489 C497 0.930 . S
H490 C498 0.930 . S
H491 C499 0.930 . S
H492 C502 0.930 . S
H493 C503 0.930 . S
C494 H488 0.930 . S
C494 C495 1.355 . S
C494 C496 1.415 . S
C495 C494 1.355 . S
C495 C497 1.419 . S
C496 C494 1.415 . S
C496 C501 1.425 . S
C496 C503 1.409 . S
C497 H489 0.930 . S
C497 C495 1.419 . S
C497 C498 1.362 . S
C498 H490 0.930 . S
C498 C497 1.362 . S
C498 C501 1.409 . S
C499 H491 0.930 . S
C499 C500 1.355 . S
C499 C501 1.415 . S
C500 C499 1.355 . S
C500 C502 1.419 . S
C501 C496 1.425 . S
C501 C498 1.409 . S
C501 C499 1.415 . S
C502 H492 0.930 . S
C502 C500 1.419 . S
C502 C503 1.362 . S
C503 H493 0.930 . S
C503 C496 1.409 . S
C503 C502 1.362 . S
H504 C510 0.930 . S
H505 C513 0.930 . S
H506 C514 0.930 . S
H507 C515 0.930 . S
H508 C518 0.930 . S
H509 C519 0.930 . S
C510 H504 0.930 . S
C510 C511 1.355 . S
C510 C512 1.415 . S
C511 C510 1.355 . S
C511 C513 1.419 . S
C512 C510 1.415 . S
C512 C517 1.425 . S
C512 C519 1.409 . S
C513 H505 0.930 . S
C513 C511 1.419 . S
C513 C514 1.362 . S
C514 H506 0.930 . S
C514 C513 1.362 . S
C514 C517 1.409 . S
C515 H507 0.930 . S
C515 C516 1.355 . S
C515 C517 1.415 . S
C516 C515 1.355 . S
C516 C518 1.419 . S
C517 C512 1.425 . S
C517 C514 1.409 . S
C517 C515 1.415 . S
C518 H508 0.930 . S
C518 C516 1.419 . S
C518 C519 1.362 . S
C519 H509 0.930 . S
C519 C512 1.409 . S
C519 C518 1.362 . S
H520 C526 0.930 . S
H521 C529 0.930 . S
H522 C530 0.930 . S
H523 C531 0.930 . S
H524 C534 0.930 . S
H525 C535 0.930 . S
C526 H520 0.930 . S
C526 C527 1.355 . S
C526 C528 1.415 . S
C527 C526 1.355 . S
C527 C529 1.419 . S
C528 C526 1.415 . S
C528 C533 1.425 . S
C528 C535 1.409 . S
C529 H521 0.930 . S
C529 C527 1.419 . S
C529 C530 1.362 . S
C530 H522 0.930 . S
C530 C529 1.362 . S
C530 C533 1.409 . S
C531 H523 0.930 . S
C531 C532 1.355 . S
C531 C533 1.415 . S
C532 C531 1.355 . S
C532 C534 1.419 . S
C533 C528 1.425 . S
C533 C530 1.409 . S
C533 C531 1.415 . S
C534 H524 0.930 . S
C534 C532 1.419 . S
C534 C535 1.362 . S
C535 H525 0.930 . S
C535 C528 1.409 . S
C535 C534 1.362 . S
H536 C542 0.930 . S
H537 C545 0.930 . S
H538 C546 0.930 . S
H539 C547 0.930 . S
H540 C550 0.930 . S
H541 C551 0.930 . S
C542 H536 0.930 . S
C542 C543 1.355 . S
C542 C544 1.415 . S
C543 C542 1.355 . S
C543 C545 1.419 . S
C544 C542 1.415 . S
C544 C549 1.425 . S
C544 C551 1.409 . S
C545 H537 0.930 . S
C545 C543 1.419 . S
C545 C546 1.362 . S
C546 H538 0.930 . S
C546 C545 1.362 . S
C546 C549 1.409 . S
C547 H539 0.930 . S
C547 C548 1.355 . S
C547 C549 1.415 . S
C548 C547 1.355 . S
C548 C550 1.419 . S
C549 C544 1.425 . S
C549 C546 1.409 . S
C549 C547 1.415 . S
C550 H540 0.930 . S
C550 C548 1.419 . S
C550 C551 1.362 . S
C551 H541 0.930 . S
C551 C544 1.409 . S
C551 C550 1.362 . S
H552 C558 0.930 . S
H553 C561 0.930 . S
H554 C562 0.930 . S
H555 C563 0.930 . S
H556 C566 0.930 . S
H557 C567 0.930 . S
C558 H552 0.930 . S
C558 C559 1.355 . S
C558 C560 1.415 . S
C559 C558 1.355 . S
C559 C561 1.419 . S
C560 C558 1.415 . S
C560 C565 1.425 . S
C560 C567 1.409 . S
C561 H553 0.930 . S
C561 C559 1.419 . S
C561 C562 1.362 . S
C562 H554 0.930 . S
C562 C561 1.362 . S
C562 C565 1.409 . S
C563 H555 0.930 . S
C563 C564 1.355 . S
C563 C565 1.415 . S
C564 C563 1.355 . S
C564 C566 1.419 . S
C565 C560 1.425 . S
C565 C562 1.409 . S
C565 C563 1.415 . S
C566 H556 0.930 . S
C566 C564 1.419 . S
C566 C567 1.362 . S
C567 H557 0.930 . S
C567 C560 1.409 . S
C567 C566 1.362 . S
H568 C574 0.930 . S
H569 C577 0.930 . S
H570 C578 0.930 . S
H571 C579 0.930 . S
H572 C582 0.930 . S
H573 C583 0.930 . S
C574 H568 0.930 . S
C574 C575 1.355 . S
C574 C576 1.415 . S
C575 C574 1.355 . S
C575 C577 1.419 . S
C576 C574 1.415 . S
C576 C581 1.425 . S
C576 C583 1.409 . S
C577 H569 0.930 . S
C577 C575 1.419 . S
C577 C578 1.362 . S
C578 H570 0.930 . S
C578 C577 1.362 . S
C578 C581 1.409 . S
C579 H571 0.930 . S
C579 C580 1.355 . S
C579 C581 1.415 . S
C580 C579 1.355 . S
C580 C582 1.419 . S
C581 C576 1.425 . S
C581 C578 1.409 . S
C581 C579 1.415 . S
C582 H572 0.930 . S
C582 C580 1.419 . S
C582 C583 1.362 . S
C583 H573 0.930 . S
C583 C576 1.409 . S
C583 C582 1.362 . S
H584 C590 0.930 . S
H585 C593 0.930 . S
H586 C594 0.930 . S
H587 C595 0.930 . S
H588 C598 0.914 1_655 S
H589 C599 0.930 1_655 S
C590 H584 0.930 . S
C590 C591 1.355 . S
C590 C592 1.415 . S
C591 C590 1.355 . S
C591 C593 1.419 . S
C592 C590 1.415 . S
C592 C597 1.425 . S
C592 C599 1.409 . S
C593 H585 0.930 . S
C593 C591 1.419 . S
C593 C594 1.362 . S
C594 H586 0.930 . S
C594 C593 1.362 . S
C594 C597 1.409 . S
C595 H587 0.930 . S
C595 C596 1.355 . S
C595 C597 1.415 . S
C596 C595 1.355 . S
C596 C598 1.437 . S
C597 C592 1.425 . S
C597 C594 1.409 . S
C597 C595 1.415 . S
C598 H588 0.914 1_455 S
C598 C596 1.437 . S
C598 C599 1.361 . S
C599 H589 0.930 1_455 S
C599 C592 1.409 . S
C599 C598 1.361 . S
H600 C606 0.930 . S
H601 C609 0.930 . S
H602 C610 0.930 . S
H603 C611 0.930 . S
H604 C614 0.930 . S
H605 C615 0.930 . S
C606 H600 0.930 . S
C606 C607 1.355 . S
C606 C608 1.415 . S
C607 C606 1.355 . S
C607 C609 1.419 . S
C608 C606 1.415 . S
C608 C613 1.425 . S
C608 C615 1.409 . S
C609 H601 0.930 . S
C609 C607 1.419 . S
C609 C610 1.362 . S
C610 H602 0.930 . S
C610 C609 1.362 . S
C610 C613 1.409 . S
C611 H603 0.930 . S
C611 C612 1.355 . S
C611 C613 1.415 . S
C612 C611 1.355 . S
C612 C614 1.419 . S
C613 C608 1.425 . S
C613 C610 1.409 . S
C613 C611 1.415 . S
C614 H604 0.930 . S
C614 C612 1.419 . S
C614 C615 1.362 . S
C615 H605 0.930 . S
C615 C608 1.409 . S
C615 C614 1.362 . S
H616 C622 0.930 1_455 S
H617 C625 0.930 . S
H618 C626 0.930 . S
H619 C627 0.930 . S
H620 C630 0.930 . S
H621 C631 0.930 . S
C622 H616 0.930 1_655 S
C622 C623 1.355 . S
C622 C624 1.415 . S
C623 C622 1.355 . S
C623 C625 1.419 . S
C624 C622 1.415 . S
C624 C629 1.425 . S
C624 C631 1.409 1_655 S
C625 H617 0.930 . S
C625 C623 1.419 . S
C625 C626 1.362 . S
C626 H618 0.930 . S
C626 C625 1.362 . S
C626 C629 1.409 . S
C627 H619 0.930 . S
C627 C628 1.355 . S
C627 C629 1.415 . S
C628 C627 1.355 . S
C628 C630 1.419 1_655 S
C629 C624 1.425 . S
C629 C626 1.409 . S
C629 C627 1.415 . S
C630 H620 0.930 . S
C630 C628 1.419 1_455 S
C630 C631 1.362 . S
C631 H621 0.930 . S
C631 C624 1.409 1_455 S
C631 C630 1.362 . S
H632 C638 0.930 . S
H633 C641 0.930 . S
H634 C642 0.930 . S
H635 C643 0.930 . S
H636 C646 0.930 . S
H637 C647 0.930 . S
C638 H632 0.930 . S
C638 C639 1.355 . S
C638 C640 1.415 . S
C639 C638 1.355 . S
C639 C641 1.419 . S
C640 C638 1.415 . S
C640 C645 1.425 . S
C640 C647 1.409 . S
C641 H633 0.930 . S
C641 C639 1.419 . S
C641 C642 1.362 . S
C642 H634 0.930 . S
C642 C641 1.362 . S
C642 C645 1.409 . S
C643 H635 0.930 . S
C643 C644 1.355 . S
C643 C645 1.415 . S
C644 C643 1.355 . S
C644 C646 1.419 . S
C645 C640 1.425 . S
C645 C642 1.409 . S
C645 C643 1.415 . S
C646 H636 0.930 . S
C646 C644 1.419 . S
C646 C647 1.362 . S
C647 H637 0.930 . S
C647 C640 1.409 . S
C647 C646 1.362 . S
H648 C654 0.930 . S
H649 C657 0.930 . S
H650 C658 0.930 . S
H651 C659 0.930 . S
H652 C662 0.930 . S
H653 C663 0.930 . S
C654 H648 0.930 . S
C654 C655 1.355 . S
C654 C656 1.415 . S
C655 C654 1.355 . S
C655 C657 1.419 . S
C656 C654 1.415 . S
C656 C661 1.425 . S
C656 C663 1.409 . S
C657 H649 0.930 . S
C657 C655 1.419 . S
C657 C658 1.362 . S
C658 H650 0.930 . S
C658 C657 1.362 . S
C658 C661 1.409 . S
C659 H651 0.930 . S
C659 C660 1.355 . S
C659 C661 1.415 . S
C660 C659 1.355 . S
C660 C662 1.419 . S
C661 C656 1.425 . S
C661 C658 1.409 . S
C661 C659 1.415 . S
C662 H652 0.930 . S
C662 C660 1.419 . S
C662 C663 1.362 . S
C663 H653 0.930 . S
C663 C656 1.409 . S
C663 C662 1.362 . S
H664 C670 0.930 . S
H665 C673 0.930 . S
H666 C674 0.930 . S
H667 C675 0.930 . S
H668 C678 0.930 . S
H669 C679 0.930 . S
C670 H664 0.930 . S
C670 C671 1.355 1_565 S
C670 C672 1.415 . S
C671 C670 1.355 1_545 S
C671 C673 1.419 1_554 S
C672 C670 1.415 . S
C672 C677 1.423 1_554 S
C672 C679 1.409 . S
C673 H665 0.930 . S
C673 C671 1.419 1_556 S
C673 C674 1.362 . S
C674 H666 0.930 . S
C674 C673 1.362 . S
C674 C677 1.411 1_545 S
C675 H667 0.930 . S
C675 C676 1.355 1_556 S
C675 C677 1.415 . S
C676 C675 1.355 1_554 S
C676 C678 1.419 . S
C677 C672 1.423 1_556 S
C677 C674 1.411 1_565 S
C677 C675 1.415 . S
C678 H668 0.930 . S
C678 C676 1.419 . S
C678 C679 1.362 . S
C679 H669 0.930 . S
C679 C672 1.409 . S
C679 C678 1.362 . S
H680 C686 0.930 . S
H681 C689 0.930 . S
H682 C690 0.930 . S
H683 C691 0.930 . S
H684 C694 0.930 . S
H685 C695 0.930 . S
C686 H680 0.930 . S
C686 C687 1.355 . S
C686 C688 1.415 . S
C687 C686 1.355 . S
C687 C689 1.419 . S
C688 C686 1.415 . S
C688 C693 1.425 . S
C688 C695 1.409 . S
C689 H681 0.930 . S
C689 C687 1.419 . S
C689 C690 1.362 . S
C690 H682 0.930 . S
C690 C689 1.362 . S
C690 C693 1.409 . S
C691 H683 0.930 . S
C691 C692 1.355 . S
C691 C693 1.415 . S
C692 C691 1.355 . S
C692 C694 1.419 . S
C693 C688 1.425 . S
C693 C690 1.409 . S
C693 C691 1.415 . S
C694 H684 0.930 . S
C694 C692 1.419 . S
C694 C695 1.362 . S
C695 H685 0.930 . S
C695 C688 1.409 . S
C695 C694 1.362 . S
H696 C702 0.930 . S
H697 C705 0.930 . S
H698 C706 0.930 . S
H699 C707 0.930 . S
H700 C710 0.930 . S
H701 C711 0.930 . S
C702 H696 0.930 . S
C702 C703 1.355 . S
C702 C704 1.415 . S
C703 C702 1.355 . S
C703 C705 1.419 . S
C704 C702 1.415 . S
C704 C709 1.425 . S
C704 C711 1.409 . S
C705 H697 0.930 . S
C705 C703 1.419 . S
C705 C706 1.362 . S
C706 H698 0.930 . S
C706 C705 1.362 . S
C706 C709 1.409 . S
C707 H699 0.930 . S
C707 C708 1.355 . S
C707 C709 1.415 . S
C708 C707 1.355 . S
C708 C710 1.419 . S
C709 C704 1.425 . S
C709 C706 1.409 . S
C709 C707 1.415 . S
C710 H700 0.930 . S
C710 C708 1.419 . S
C710 C711 1.362 . S
C711 H701 0.930 . S
C711 C704 1.409 . S
C711 C710 1.362 . S
H712 C718 0.930 . S
H713 C721 0.930 . S
H714 C722 0.930 . S
H715 C723 0.930 . S
H716 C726 0.930 . S
H717 C727 0.930 . S
C718 H712 0.930 . S
C718 C719 1.355 . S
C718 C720 1.415 . S
C719 C718 1.355 . S
C719 C721 1.419 . S
C720 C718 1.415 . S
C720 C725 1.425 . S
C720 C727 1.409 . S
C721 H713 0.930 . S
C721 C719 1.419 . S
C721 C722 1.362 . S
C722 H714 0.930 . S
C722 C721 1.362 . S
C722 C725 1.409 . S
C723 H715 0.930 . S
C723 C724 1.355 . S
C723 C725 1.415 . S
C724 C723 1.355 . S
C724 C726 1.419 . S
C725 C720 1.425 . S
C725 C722 1.409 . S
C725 C723 1.415 . S
C726 H716 0.930 . S
C726 C724 1.419 . S
C726 C727 1.362 . S
C727 H717 0.930 . S
C727 C720 1.409 . S
C727 C726 1.362 . S
H728 C734 0.930 . S
H729 C737 0.930 . S
H730 C738 0.930 1_565 S
H731 C739 0.930 . S
H732 C742 0.930 . S
H733 C743 0.930 . S
C734 H728 0.930 . S
C734 C735 1.355 . S
C734 C736 1.415 . S
C735 C734 1.355 . S
C735 C737 1.419 1_545 S
C736 C734 1.415 . S
C736 C741 1.425 . S
C736 C743 1.409 . S
C737 H729 0.930 . S
C737 C735 1.419 1_565 S
C737 C738 1.362 1_565 S
C738 H730 0.930 1_545 S
C738 C737 1.362 1_545 S
C738 C741 1.409 . S
C739 H731 0.930 . S
C739 C740 1.355 . S
C739 C741 1.415 . S
C740 C739 1.355 . S
C740 C742 1.419 . S
C741 C736 1.425 . S
C741 C738 1.409 . S
C741 C739 1.415 . S
C742 H732 0.930 . S
C742 C740 1.419 . S
C742 C743 1.362 . S
C743 H733 0.930 . S
C743 C736 1.409 . S
C743 C742 1.362 . S
H744 C750 0.930 . S
H745 C753 0.930 . S
H746 C754 0.930 . S
H747 C755 0.930 . S
H748 C758 0.930 . S
H749 C759 0.930 . S
C750 H744 0.930 . S
C750 C751 1.355 . S
C750 C752 1.415 . S
C751 C750 1.355 . S
C751 C753 1.419 . S
C752 C750 1.415 . S
C752 C757 1.425 . S
C752 C759 1.409 . S
C753 H745 0.930 . S
C753 C751 1.419 . S
C753 C754 1.362 . S
C754 H746 0.930 . S
C754 C753 1.362 . S
C754 C757 1.409 . S
C755 H747 0.930 . S
C755 C756 1.355 . S
C755 C757 1.415 . S
C756 C755 1.355 . S
C756 C758 1.419 . S
C757 C752 1.425 . S
C757 C754 1.409 . S
C757 C755 1.415 . S
C758 H748 0.930 . S
C758 C756 1.419 . S
C758 C759 1.362 . S
C759 H749 0.930 . S
C759 C752 1.409 . S
C759 C758 1.362 . S
H760 C766 0.930 . S
H761 C769 0.930 . S
H762 C770 0.930 . S
H763 C771 0.930 . S
H764 C774 0.930 . S
H765 C775 0.930 . S
C766 H760 0.930 . S
C766 C767 1.355 . S
C766 C768 1.415 . S
C767 C766 1.355 . S
C767 C769 1.419 . S
C768 C766 1.415 . S
C768 C773 1.425 . S
C768 C775 1.409 . S
C769 H761 0.930 . S
C769 C767 1.419 . S
C769 C770 1.362 . S
C770 H762 0.930 . S
C770 C769 1.362 . S
C770 C773 1.409 . S
C771 H763 0.930 . S
C771 C772 1.355 . S
C771 C773 1.415 . S
C772 C771 1.355 . S
C772 C774 1.419 . S
C773 C768 1.425 . S
C773 C770 1.409 . S
C773 C771 1.415 . S
C774 H764 0.930 . S
C774 C772 1.419 . S
C774 C775 1.362 . S
C775 H765 0.930 . S
C775 C768 1.409 . S
C775 C774 1.362 . S
H776 C782 0.930 . S
H777 C785 0.930 . S
H778 C786 0.930 . S
H779 C787 0.930 . S
H780 C790 0.930 . S
H781 C791 0.930 . S
C782 H776 0.930 . S
C782 C783 1.355 . S
C782 C784 1.415 . S
C783 C782 1.355 . S
C783 C785 1.419 . S
C784 C782 1.415 . S
C784 C789 1.425 . S
C784 C791 1.409 . S
C785 H777 0.930 . S
C785 C783 1.419 . S
C785 C786 1.362 . S
C786 H778 0.930 . S
C786 C785 1.362 . S
C786 C789 1.409 . S
C787 H779 0.930 . S
C787 C788 1.355 . S
C787 C789 1.415 . S
C788 C787 1.355 . S
C788 C790 1.419 . S
C789 C784 1.425 . S
C789 C786 1.409 . S
C789 C787 1.415 . S
C790 H780 0.930 . S
C790 C788 1.419 . S
C790 C791 1.362 . S
C791 H781 0.930 . S
C791 C784 1.409 . S
C791 C790 1.362 . S
H792 C798 0.930 . S
H793 C801 0.930 . S
H794 C802 0.930 . S
H795 C803 0.930 . S
H796 C806 0.930 . S
H797 C807 0.930 . S
C798 H792 0.930 . S
C798 C799 1.355 . S
C798 C800 1.415 . S
C799 C798 1.355 . S
C799 C801 1.419 . S
C800 C798 1.415 . S
C800 C805 1.425 . S
C800 C807 1.409 . S
C801 H793 0.930 . S
C801 C799 1.419 . S
C801 C802 1.362 . S
C802 H794 0.930 . S
C802 C801 1.362 . S
C802 C805 1.409 . S
C803 H795 0.930 . S
C803 C804 1.355 . S
C803 C805 1.415 . S
C804 C803 1.355 . S
C804 C806 1.419 . S
C805 C800 1.425 . S
C805 C802 1.409 . S
C805 C803 1.415 . S
C806 H796 0.930 . S
C806 C804 1.419 . S
C806 C807 1.362 . S
C807 H797 0.930 . S
C807 C800 1.409 . S
C807 C806 1.362 . S
H808 C814 0.930 . S
H809 C817 0.930 . S
H810 C818 0.930 . S
H811 C819 0.930 . S
H812 C822 0.930 . S
H813 C823 0.930 . S
C814 H808 0.930 . S
C814 C815 1.355 . S
C814 C816 1.415 . S
C815 C814 1.355 . S
C815 C817 1.419 . S
C816 C814 1.415 . S
C816 C821 1.425 . S
C816 C823 1.409 . S
C817 H809 0.930 . S
C817 C815 1.419 . S
C817 C818 1.362 . S
C818 H810 0.930 . S
C818 C817 1.362 . S
C818 C821 1.409 . S
C819 H811 0.930 . S
C819 C820 1.355 . S
C819 C821 1.415 . S
C820 C819 1.355 . S
C820 C822 1.419 . S
C821 C816 1.425 . S
C821 C818 1.409 . S
C821 C819 1.415 . S
C822 H812 0.930 . S
C822 C820 1.419 . S
C822 C823 1.362 . S
C823 H813 0.930 . S
C823 C816 1.409 . S
C823 C822 1.362 . S
H824 C830 0.930 . S
H825 C833 0.930 . S
H826 C834 0.930 . S
H827 C835 0.930 . S
H828 C838 0.930 . S
H829 C839 0.930 . S
C830 H824 0.930 . S
C830 C831 1.355 . S
C830 C832 1.415 . S
C831 C830 1.355 . S
C831 C833 1.419 . S
C832 C830 1.415 . S
C832 C837 1.425 . S
C832 C839 1.409 . S
C833 H825 0.930 . S
C833 C831 1.419 . S
C833 C834 1.362 . S
C834 H826 0.930 . S
C834 C833 1.362 . S
C834 C837 1.409 . S
C835 H827 0.930 . S
C835 C836 1.355 . S
C835 C837 1.415 . S
C836 C835 1.355 . S
C836 C838 1.419 . S
C837 C832 1.425 . S
C837 C834 1.409 . S
C837 C835 1.415 . S
C838 H828 0.930 . S
C838 C836 1.419 . S
C838 C839 1.362 . S
C839 H829 0.930 . S
C839 C832 1.409 . S
C839 C838 1.362 . S
H840 C846 0.930 1_565 S
H841 C849 0.930 . S
H842 C850 0.930 . S
H843 C851 0.930 . S
H844 C854 0.930 1_565 S
H845 C855 0.930 1_565 S
C846 H840 0.930 1_545 S
C846 C847 1.355 . S
C846 C848 1.415 . S
C847 C846 1.355 . S
C847 C849 1.419 . S
C848 C846 1.415 . S
C848 C853 1.425 . S
C848 C855 1.409 . S
C849 H841 0.930 . S
C849 C847 1.419 . S
C849 C850 1.362 . S
C850 H842 0.930 . S
C850 C849 1.362 . S
C850 C853 1.409 . S
C851 H843 0.930 . S
C851 C852 1.355 . S
C851 C853 1.415 . S
C852 C851 1.355 . S
C852 C854 1.419 . S
C853 C848 1.425 . S
C853 C850 1.409 . S
C853 C851 1.415 . S
C854 H844 0.930 1_545 S
C854 C852 1.419 . S
C854 C855 1.362 . S
C855 H845 0.930 1_545 S
C855 C848 1.409 . S
C855 C854 1.362 . S
H856 C862 0.930 . S
H857 C865 0.930 . S
H858 C866 0.930 . S
H859 C867 0.930 . S
H860 C870 0.930 . S
H861 C871 0.930 . S
C862 H856 0.930 . S
C862 C863 1.355 . S
C862 C864 1.415 . S
C863 C862 1.355 . S
C863 C865 1.419 . S
C864 C862 1.415 . S
C864 C869 1.425 . S
C864 C871 1.409 . S
C865 H857 0.930 . S
C865 C863 1.419 . S
C865 C866 1.362 . S
C866 H858 0.930 . S
C866 C865 1.362 . S
C866 C869 1.409 . S
C867 H859 0.930 . S
C867 C868 1.355 . S
C867 C869 1.415 . S
C868 C867 1.355 . S
C868 C870 1.419 . S
C869 C864 1.425 . S
C869 C866 1.409 . S
C869 C867 1.415 . S
C870 H860 0.930 . S
C870 C868 1.419 . S
C870 C871 1.362 . S
C871 H861 0.930 . S
C871 C864 1.409 . S
C871 C870 1.362 . S
H872 C878 0.930 . S
H873 C881 0.930 . S
H874 C882 0.930 . S
H875 C883 0.930 . S
H876 C886 0.930 . S
H877 C887 0.930 . S
C878 H872 0.930 . S
C878 C879 1.355 . S
C878 C880 1.415 . S
C879 C878 1.355 . S
C879 C881 1.419 . S
C880 C878 1.415 . S
C880 C885 1.425 . S
C880 C887 1.409 . S
C881 H873 0.930 . S
C881 C879 1.419 . S
C881 C882 1.362 . S
C882 H874 0.930 . S
C882 C881 1.362 . S
C882 C885 1.409 . S
C883 H875 0.930 . S
C883 C884 1.355 . S
C883 C885 1.415 . S
C884 C883 1.355 . S
C884 C886 1.419 . S
C885 C880 1.425 . S
C885 C882 1.409 . S
C885 C883 1.415 . S
C886 H876 0.930 . S
C886 C884 1.419 . S
C886 C887 1.362 . S
C887 H877 0.930 . S
C887 C880 1.409 . S
C887 C886 1.362 . S
H888 C894 0.930 . S
H889 C897 0.930 . S
H890 C898 0.930 . S
H891 C899 0.930 . S
H892 C902 0.930 . S
H893 C903 0.930 . S
C894 H888 0.930 . S
C894 C895 1.355 . S
C894 C896 1.415 . S
C895 C894 1.355 . S
C895 C897 1.419 . S
C896 C894 1.415 . S
C896 C901 1.425 . S
C896 C903 1.409 . S
C897 H889 0.930 . S
C897 C895 1.419 . S
C897 C898 1.362 . S
C898 H890 0.930 . S
C898 C897 1.362 . S
C898 C901 1.409 . S
C899 H891 0.930 . S
C899 C900 1.355 . S
C899 C901 1.415 . S
C900 C899 1.355 . S
C900 C902 1.419 . S
C901 C896 1.425 . S
C901 C898 1.409 . S
C901 C899 1.415 . S
C902 H892 0.930 . S
C902 C900 1.419 . S
C902 C903 1.362 . S
C903 H893 0.930 . S
C903 C896 1.409 . S
C903 C902 1.362 . S
H904 C910 0.930 . S
H905 C913 0.930 . S
H906 C914 0.930 . S
H907 C915 0.930 . S
H908 C918 0.930 . S
H909 C919 0.930 . S
C910 H904 0.930 . S
C910 C911 1.355 . S
C910 C912 1.415 1_554 S
C911 C910 1.355 . S
C911 C913 1.419 1_655 S
C912 C910 1.415 1_556 S
C912 C917 1.425 1_655 S
C912 C919 1.409 . S
C913 H905 0.930 . S
C913 C911 1.419 1_455 S
C913 C914 1.362 . S
C914 H906 0.930 . S
C914 C913 1.362 . S
C914 C917 1.409 1_554 S
C915 H907 0.930 . S
C915 C916 1.355 1_455 S
C915 C917 1.415 . S
C916 C915 1.355 1_655 S
C916 C918 1.419 . S
C917 C912 1.425 1_455 S
C917 C914 1.409 1_556 S
C917 C915 1.415 . S
C918 H908 0.930 . S
C918 C916 1.419 . S
C918 C919 1.362 . S
C919 H909 0.930 . S
C919 C912 1.409 . S
C919 C918 1.362 . S
H920 C926 0.930 . S
H921 C929 0.930 . S
H922 C930 0.930 . S
H923 C931 0.930 . S
H924 C934 0.930 . S
H925 C935 0.930 . S
C926 H920 0.930 . S
C926 C927 1.355 . S
C926 C928 1.415 . S
C927 C926 1.355 . S
C927 C929 1.419 . S
C928 C926 1.415 . S
C928 C933 1.425 . S
C928 C935 1.409 . S
C929 H921 0.930 . S
C929 C927 1.419 . S
C929 C930 1.362 . S
C930 H922 0.930 . S
C930 C929 1.362 . S
C930 C933 1.409 . S
C931 H923 0.930 . S
C931 C932 1.355 . S
C931 C933 1.415 . S
C932 C931 1.355 . S
C932 C934 1.419 . S
C933 C928 1.425 . S
C933 C930 1.409 . S
C933 C931 1.415 . S
C934 H924 0.930 . S
C934 C932 1.419 . S
C934 C935 1.362 . S
C935 H925 0.930 . S
C935 C928 1.409 . S
C935 C934 1.362 . S
H936 C942 0.930 . S
H937 C945 0.930 1_554 S
H938 C946 0.930 . S
H939 C947 0.930 . S
H940 C950 0.930 . S
H941 C951 0.930 . S
C942 H936 0.930 . S
C942 C943 1.355 1_655 S
C942 C944 1.415 . S
C943 C942 1.355 1_455 S
C943 C945 1.419 . S
C944 C942 1.415 . S
C944 C949 1.425 1_655 S
C944 C951 1.409 . S
C945 H937 0.930 1_556 S
C945 C943 1.419 . S
C945 C946 1.362 . S
C946 H938 0.930 . S
C946 C945 1.362 . S
C946 C949 1.409 . S
C947 H939 0.930 . S
C947 C948 1.362 . S
C947 C949 1.415 . S
C948 C947 1.362 . S
C948 C950 1.411 1_455 S
C949 C944 1.425 1_455 S
C949 C946 1.409 . S
C949 C947 1.415 . S
C950 H940 0.930 . S
C950 C948 1.411 1_655 S
C950 C951 1.362 . S
C951 H941 0.930 . S
C951 C944 1.409 . S
C951 C950 1.362 . S
H952 C958 0.930 . S
H953 C961 0.930 . S
H954 C962 0.930 . S
H955 C963 0.930 . S
H956 C966 0.930 . S
H957 C967 0.930 . S
C958 H952 0.930 . S
C958 C959 1.355 . S
C958 C960 1.415 . S
C959 C958 1.355 . S
C959 C961 1.419 . S
C960 C958 1.415 . S
C960 C965 1.425 . S
C960 C967 1.409 . S
C961 H953 0.930 . S
C961 C959 1.419 . S
C961 C962 1.362 . S
C962 H954 0.930 . S
C962 C961 1.362 . S
C962 C965 1.409 . S
C963 H955 0.930 . S
C963 C964 1.355 . S
C963 C965 1.415 . S
C964 C963 1.355 . S
C964 C966 1.419 . S
C965 C960 1.425 . S
C965 C962 1.409 . S
C965 C963 1.415 . S
C966 H956 0.930 . S
C966 C964 1.419 . S
C966 C967 1.362 . S
C967 H957 0.930 . S
C967 C960 1.409 . S
C967 C966 1.362 . S
H968 C974 0.930 . S
H969 C977 0.930 . S
H970 C978 0.930 . S
H971 C979 0.930 . S
H972 C982 0.930 . S
H973 C983 0.930 . S
C974 H968 0.930 . S
C974 C975 1.355 . S
C974 C976 1.415 . S
C975 C974 1.355 . S
C975 C977 1.419 . S
C976 C974 1.415 . S
C976 C981 1.425 . S
C976 C983 1.409 . S
C977 H969 0.930 . S
C977 C975 1.419 . S
C977 C978 1.362 . S
C978 H970 0.930 . S
C978 C977 1.362 . S
C978 C981 1.409 . S
C979 H971 0.930 . S
C979 C980 1.355 . S
C979 C981 1.415 . S
C980 C979 1.355 . S
C980 C982 1.419 . S
C981 C976 1.425 . S
C981 C978 1.409 . S
C981 C979 1.415 . S
C982 H972 0.930 . S
C982 C980 1.419 . S
C982 C983 1.362 . S
C983 H973 0.930 . S
C983 C976 1.409 . S
C983 C982 1.362 . S
H984 C990 0.930 . S
H985 C993 0.930 . S
H986 C994 0.930 . S
H987 C995 0.930 . S
H988 C998 0.930 . S
H989 C999 0.930 . S
C990 H984 0.930 . S
C990 C991 1.355 . S
C990 C992 1.415 . S
C991 C990 1.355 . S
C991 C993 1.419 . S
C992 C990 1.415 . S
C992 C997 1.425 . S
C992 C999 1.409 . S
C993 H985 0.930 . S
C993 C991 1.419 . S
C993 C994 1.362 . S
C994 H986 0.930 . S
C994 C993 1.362 . S
C994 C997 1.409 . S
C995 H987 0.930 . S
C995 C996 1.355 . S
C995 C997 1.415 . S
C996 C995 1.355 . S
C996 C998 1.419 . S
C997 C992 1.425 . S
C997 C994 1.409 . S
C997 C995 1.415 . S
C998 H988 0.930 . S
C998 C996 1.419 . S
C998 C999 1.362 . S
C999 H989 0.930 . S
C999 C992 1.409 . S
C999 C998 1.362 . S
H1000 C1006 0.930 . S
H1001 C1009 0.930 . S
H1002 C1010 0.930 . S
H1003 C1011 0.930 . S
H1004 C1014 0.930 . S
H1005 C1015 0.930 . S
C1006 H1000 0.930 . S
C1006 C1007 1.355 . S
C1006 C1008 1.415 . S
C1007 C1006 1.355 . S
C1007 C1009 1.419 . S
C1008 C1006 1.415 . S
C1008 C1013 1.425 . S
C1008 C1015 1.409 . S
C1009 H1001 0.930 . S
C1009 C1007 1.419 . S
C1009 C1010 1.362 . S
C1010 H1002 0.930 . S
C1010 C1009 1.362 . S
C1010 C1013 1.409 . S
C1011 H1003 0.930 . S
C1011 C1012 1.355 . S
C1011 C1013 1.415 . S
C1012 C1011 1.355 . S
C1012 C1014 1.419 . S
C1013 C1008 1.425 . S
C1013 C1010 1.409 . S
C1013 C1011 1.415 . S
C1014 H1004 0.930 . S
C1014 C1012 1.419 . S
C1014 C1015 1.362 . S
C1015 H1005 0.930 . S
C1015 C1008 1.409 . S
C1015 C1014 1.362 . S
H1016 C1022 0.930 . S
H1017 C1025 0.930 . S
H1018 C1026 0.930 . S
H1019 C1027 0.930 . S
H1020 C1030 0.930 . S
H1021 C1031 0.930 . S
C1022 H1016 0.930 . S
C1022 C1023 1.355 . S
C1022 C1024 1.415 . S
C1023 C1022 1.355 . S
C1023 C1025 1.419 . S
C1024 C1022 1.415 . S
C1024 C1029 1.425 . S
C1024 C1031 1.409 . S
C1025 H1017 0.930 . S
C1025 C1023 1.419 . S
C1025 C1026 1.362 . S
C1026 H1018 0.930 . S
C1026 C1025 1.362 . S
C1026 C1029 1.409 . S
C1027 H1019 0.930 . S
C1027 C1028 1.355 . S
C1027 C1029 1.415 . S
C1028 C1027 1.355 . S
C1028 C1030 1.419 . S
C1029 C1024 1.425 . S
C1029 C1026 1.409 . S
C1029 C1027 1.415 . S
C1030 H1020 0.930 . S
C1030 C1028 1.419 . S
C1030 C1031 1.362 . S
C1031 H1021 0.930 . S
C1031 C1024 1.409 . S
C1031 C1030 1.362 . S
H1032 C1038 0.930 . S
H1033 C1041 0.930 . S
H1034 C1042 0.930 . S
H1035 C1043 0.930 . S
H1036 C1046 0.930 . S
H1037 C1047 0.930 . S
C1038 H1032 0.930 . S
C1038 C1039 1.355 . S
C1038 C1040 1.415 . S
C1039 C1038 1.355 . S
C1039 C1041 1.419 . S
C1040 C1038 1.415 . S
C1040 C1045 1.425 . S
C1040 C1047 1.409 . S
C1041 H1033 0.930 . S
C1041 C1039 1.419 . S
C1041 C1042 1.362 . S
C1042 H1034 0.930 . S
C1042 C1041 1.362 . S
C1042 C1045 1.409 . S
C1043 H1035 0.930 . S
C1043 C1044 1.355 . S
C1043 C1045 1.415 . S
C1044 C1043 1.355 . S
C1044 C1046 1.419 . S
C1045 C1040 1.425 . S
C1045 C1042 1.409 . S
C1045 C1043 1.415 . S
C1046 H1036 0.930 . S
C1046 C1044 1.419 . S
C1046 C1047 1.362 . S
C1047 H1037 0.930 . S
C1047 C1040 1.409 . S
C1047 C1046 1.362 . S
H1048 C1054 0.930 . S
H1049 C1057 0.930 . S
H1050 C1058 0.930 . S
H1051 C1059 0.930 . S
H1052 C1062 0.930 . S
H1053 C1063 0.930 . S
C1054 H1048 0.930 . S
C1054 C1055 1.355 . S
C1054 C1056 1.415 . S
C1055 C1054 1.355 . S
C1055 C1057 1.419 . S
C1056 C1054 1.415 . S
C1056 C1061 1.425 . S
C1056 C1063 1.409 . S
C1057 H1049 0.930 . S
C1057 C1055 1.419 . S
C1057 C1058 1.362 . S
C1058 H1050 0.930 . S
C1058 C1057 1.362 . S
C1058 C1061 1.409 . S
C1059 H1051 0.930 . S
C1059 C1060 1.355 . S
C1059 C1061 1.415 . S
C1060 C1059 1.355 . S
C1060 C1062 1.419 . S
C1061 C1056 1.425 . S
C1061 C1058 1.409 . S
C1061 C1059 1.415 . S
C1062 H1052 0.930 . S
C1062 C1060 1.419 . S
C1062 C1063 1.362 . S
C1063 H1053 0.930 . S
C1063 C1056 1.409 . S
C1063 C1062 1.362 . S
H1064 C1070 0.930 . S
H1065 C1073 0.930 . S
H1066 C1074 0.930 . S
H1067 C1075 0.930 . S
H1068 C1078 0.930 . S
H1069 C1079 0.930 . S
C1070 H1064 0.930 . S
C1070 C1071 1.355 . S
C1070 C1072 1.415 . S
C1071 C1070 1.355 . S
C1071 C1073 1.419 . S
C1072 C1070 1.415 . S
C1072 C1077 1.425 . S
C1072 C1079 1.409 . S
C1073 H1065 0.930 . S
C1073 C1071 1.419 . S
C1073 C1074 1.362 . S
C1074 H1066 0.930 . S
C1074 C1073 1.362 . S
C1074 C1077 1.409 . S
C1075 H1067 0.930 . S
C1075 C1076 1.355 . S
C1075 C1077 1.415 . S
C1076 C1075 1.355 . S
C1076 C1078 1.419 . S
C1077 C1072 1.425 . S
C1077 C1074 1.409 . S
C1077 C1075 1.415 . S
C1078 H1068 0.930 . S
C1078 C1076 1.419 . S
C1078 C1079 1.362 . S
C1079 H1069 0.930 . S
C1079 C1072 1.409 . S
C1079 C1078 1.362 . S
H1080 C1086 0.930 . S
H1081 C1089 0.930 . S
H1082 C1090 0.930 . S
H1083 C1091 0.930 1_556 S
H1084 C1094 0.930 . S
H1085 C1095 0.930 . S
C1086 H1080 0.930 . S
C1086 C1087 1.355 1_554 S
C1086 C1088 1.415 . S
C1087 C1086 1.355 1_556 S
C1087 C1089 1.419 . S
C1088 C1086 1.415 . S
C1088 C1093 1.425 . S
C1088 C1095 1.409 . S
C1089 H1081 0.930 . S
C1089 C1087 1.419 . S
C1089 C1090 1.362 . S
C1090 H1082 0.930 . S
C1090 C1089 1.362 . S
C1090 C1093 1.409 1_556 S
C1091 H1083 0.930 1_554 S
C1091 C1092 1.355 . S
C1091 C1093 1.415 . S
C1092 C1091 1.355 . S
C1092 C1094 1.419 . S
C1093 C1088 1.425 . S
C1093 C1090 1.409 1_554 S
C1093 C1091 1.415 . S
C1094 H1084 0.930 . S
C1094 C1092 1.419 . S
C1094 C1095 1.362 . S
C1095 H1085 0.930 . S
C1095 C1088 1.409 . S
C1095 C1094 1.362 . S
H1096 C1102 0.930 . S
H1097 C1105 0.930 . S
H1098 C1106 0.930 . S
H1099 C1107 0.930 . S
H1100 C1110 0.930 . S
H1101 C1111 0.930 . S
C1102 H1096 0.930 . S
C1102 C1103 1.355 . S
C1102 C1104 1.415 . S
C1103 C1102 1.355 . S
C1103 C1105 1.419 . S
C1104 C1102 1.415 . S
C1104 C1109 1.425 . S
C1104 C1111 1.409 . S
C1105 H1097 0.930 . S
C1105 C1103 1.419 . S
C1105 C1106 1.362 . S
C1106 H1098 0.930 . S
C1106 C1105 1.362 . S
C1106 C1109 1.409 . S
C1107 H1099 0.930 . S
C1107 C1108 1.355 . S
C1107 C1109 1.415 . S
C1108 C1107 1.355 . S
C1108 C1110 1.419 . S
C1109 C1104 1.425 . S
C1109 C1106 1.409 . S
C1109 C1107 1.415 . S
C1110 H1100 0.930 . S
C1110 C1108 1.419 . S
C1110 C1111 1.362 . S
C1111 H1101 0.930 . S
C1111 C1104 1.409 . S
C1111 C1110 1.362 . S
H1112 C1118 0.930 . S
H1113 C1121 0.930 . S
H1114 C1122 0.930 . S
H1115 C1123 0.930 . S
H1116 C1126 0.930 . S
H1117 C1127 0.930 . S
C1118 H1112 0.930 . S
C1118 C1119 1.355 . S
C1118 C1120 1.415 . S
C1119 C1118 1.355 . S
C1119 C1121 1.419 . S
C1120 C1118 1.415 . S
C1120 C1125 1.425 . S
C1120 C1127 1.409 . S
C1121 H1113 0.930 . S
C1121 C1119 1.419 . S
C1121 C1122 1.362 . S
C1122 H1114 0.930 . S
C1122 C1121 1.362 . S
C1122 C1125 1.409 . S
C1123 H1115 0.930 . S
C1123 C1124 1.355 . S
C1123 C1125 1.415 . S
C1124 C1123 1.355 . S
C1124 C1126 1.419 . S
C1125 C1120 1.425 . S
C1125 C1122 1.409 . S
C1125 C1123 1.415 . S
C1126 H1116 0.930 . S
C1126 C1124 1.419 . S
C1126 C1127 1.362 . S
C1127 H1117 0.930 . S
C1127 C1120 1.409 . S
C1127 C1126 1.362 . S
H1128 C1134 0.930 . S
H1129 C1137 0.930 1_556 S
H1130 C1138 0.930 1_545 S
H1131 C1139 0.930 . S
H1132 C1142 0.930 . S
H1133 C1143 0.930 . S
C1134 H1128 0.930 . S
C1134 C1135 1.355 . S
C1134 C1136 1.415 . S
C1135 C1134 1.355 . S
C1135 C1137 1.419 1_565 S
C1136 C1134 1.415 . S
C1136 C1141 1.425 . S
C1136 C1143 1.409 . S
C1137 H1129 0.930 1_554 S
C1137 C1135 1.419 1_545 S
C1137 C1138 1.362 1_544 S
C1138 H1130 0.930 1_565 S
C1138 C1137 1.362 1_566 S
C1138 C1141 1.409 1_556 S
C1139 H1131 0.930 . S
C1139 C1140 1.355 1_556 S
C1139 C1141 1.415 1_556 S
C1140 C1139 1.355 1_554 S
C1140 C1142 1.419 . S
C1141 C1136 1.425 . S
C1141 C1138 1.409 1_554 S
C1141 C1139 1.415 1_554 S
C1142 H1132 0.930 . S
C1142 C1140 1.419 . S
C1142 C1143 1.362 . S
C1143 H1133 0.930 . S
C1143 C1136 1.409 . S
C1143 C1142 1.362 . S
C388 C219 1.638 . S
C383 C73 1.695 . S
C404 C227 1.082 . S
C399 C82 1.260 . S
C415 C100 1.724 . S
C420 C247 1.697 1_556 S
C436 C261 1.362 . S
C431 C56 1.308 1_655 S
C452 C276 1.431 . S
C447 C134 1.381 . S
C468 C290 1.698 . S
C463 C165 1.670 . S
C479 C147 1.228 . S
C484 C304 1.300 . S
C500 C310 1.694 . S
C495 C125 1.771 . S
C511 C151 1.423 . S
C516 C324 1.358 . S
C532 C345 1.492 . S
C527 C121 1.465 . S
C543 C139 1.686 . S
C548 C325 1.371 . S
C564 C346 1.369 . S
C559 C164 1.377 . S
C575 C95 1.264 . S
C580 C353 1.182 . S
C591 C61 1.498 . S
C596 C359 1.489 . S
C607 C74 1.427 . S
C612 C352 1.378 . S
C623 C86 1.692 . S
C628 C360 1.689 . S
C639 C47 1.430 . S
C644 C254 1.342 . S
C655 C186 1.313 . S
C660 C255 1.041 . S
C676 C212 1.459 . S
C671 C204 1.543 . S
C692 C233 1.754 . S
C687 C112 1.766 . S
C703 C60 1.389 . S
C708 C268 1.316 . S
C724 C318 1.459 . S
C719 C152 1.463 . S
C740 C269 1.511 . S
C735 C126 1.795 1_545 S
C756 C297 1.195 . S
C751 C160 1.353 . S
C772 C303 1.641 . S
C767 C190 1.696 . S
C783 C199 1.326 . S
C788 C311 1.207 . S
C799 C113 1.728 . S
C804 C275 1.658 . S
C820 C289 1.316 . S
C815 C173 1.354 . S
C831 C43 1.401 . S
C836 C248 1.418 . S
C852 C262 1.698 . S
C847 C9 1.671 . S
C868 C220 1.304 . S
C863 C17 1.292 . S
C884 C226 1.712 . S
C879 C34 1.778 . S
C895 C21 1.424 . S
C900 C338 1.358 . S
C911 C30 1.475 . S
C916 C331 1.449 . S
C927 C48 1.683 . S
C932 C339 1.372 . S
C943 C8 1.357 1_456 S
C948 C332 1.374 . S
C964 C367 1.235 . S
C959 C108 1.315 . S
C980 C373 1.467 . S
C975 C178 1.515 1_554 S
C996 C366 1.383 . S
C991 C191 1.429 . S
C1007 C203 1.694 . S
C1012 C374 1.690 . S
C1023 C138 1.432 . S
C1028 C282 1.352 . S
C1044 C283 1.209 . S
C1039 C69 1.343 . S
C1060 C296 1.454 . S
C1055 C87 1.543 . S
C1076 C317 1.713 . S
C1071 C99 1.771 . S
C1087 C177 1.384 . S
C1092 C240 1.370 . S
C1108 C234 1.461 . S
C1103 C22 1.459 . S
C1119 C35 1.808 . S
C1124 C241 1.541 . S
C1140 C213 1.022 . S
C1135 C4 1.392 . S
