# Generated by pormake.
# Topology pto, (3,4)-cn, num edge types: 1
# Building blocks:
#     Node 0, Type 0, BuildingBlock: ESEHIV_clean_linker_0, # of connection points: 3
#     Node 1, Type 0, BuildingBlock: ESEHIV_clean_linker_0, # of connection points: 3
#     Node 2, Type 0, BuildingBlock: ESEHIV_clean_linker_0, # of connection points: 3
#     Node 3, Type 0, BuildingBlock: ESEHIV_clean_linker_0, # of connection points: 3
#     Node 4, Type 0, BuildingBlock: ESEHIV_clean_linker_0, # of connection points: 3
#     Node 5, Type 0, BuildingBlock: ESEHIV_clean_linker_0, # of connection points: 3
#     Node 6, Type 0, BuildingBlock: ESEHIV_clean_linker_0, # of connection points: 3
#     Node 7, Type 0, BuildingBlock: ESEHIV_clean_linker_0, # of connection points: 3
#     Node 8, Type 1, BuildingBlock: KOZSID_clean_sbu_0, # of connection points: 4
#     Node 9, Type 1, BuildingBlock: KOZSID_clean_sbu_0, # of connection points: 4
#     Node 10, Type 1, BuildingBlock: KOZSID_clean_sbu_0, # of connection points: 4
#     Node 11, Type 1, BuildingBlock: KOZSID_clean_sbu_0, # of connection points: 4
#     Node 12, Type 1, BuildingBlock: KOZSID_clean_sbu_0, # of connection points: 4
#     Node 13, Type 1, BuildingBlock: KOZSID_clean_sbu_0, # of connection points: 4
#     Edge 14, Type (0, 1), BuildingBlock: OJICUG_clean_linker_0, # of connection points: 2
#     Edge 15, Type (0, 1), BuildingBlock: OJICUG_clean_linker_0, # of connection points: 2
#     Edge 16, Type (0, 1), BuildingBlock: OJICUG_clean_linker_0, # of connection points: 2
#     Edge 17, Type (0, 1), BuildingBlock: OJICUG_clean_linker_0, # of connection points: 2
#     Edge 18, Type (0, 1), BuildingBlock: OJICUG_clean_linker_0, # of connection points: 2
#     Edge 19, Type (0, 1), BuildingBlock: OJICUG_clean_linker_0, # of connection points: 2
#     Edge 20, Type (0, 1), BuildingBlock: OJICUG_clean_linker_0, # of connection points: 2
#     Edge 21, Type (0, 1), BuildingBlock: OJICUG_clean_linker_0, # of connection points: 2
#     Edge 22, Type (0, 1), BuildingBlock: OJICUG_clean_linker_0, # of connection points: 2
#     Edge 23, Type (0, 1), BuildingBlock: OJICUG_clean_linker_0, # of connection points: 2
#     Edge 24, Type (0, 1), BuildingBlock: OJICUG_clean_linker_0, # of connection points: 2
#     Edge 25, Type (0, 1), BuildingBlock: OJICUG_clean_linker_0, # of connection points: 2
#     Edge 26, Type (0, 1), BuildingBlock: OJICUG_clean_linker_0, # of connection points: 2
#     Edge 27, Type (0, 1), BuildingBlock: OJICUG_clean_linker_0, # of connection points: 2
#     Edge 28, Type (0, 1), BuildingBlock: OJICUG_clean_linker_0, # of connection points: 2
#     Edge 29, Type (0, 1), BuildingBlock: OJICUG_clean_linker_0, # of connection points: 2
#     Edge 30, Type (0, 1), BuildingBlock: OJICUG_clean_linker_0, # of connection points: 2
#     Edge 31, Type (0, 1), BuildingBlock: OJICUG_clean_linker_0, # of connection points: 2
#     Edge 32, Type (0, 1), BuildingBlock: OJICUG_clean_linker_0, # of connection points: 2
#     Edge 33, Type (0, 1), BuildingBlock: OJICUG_clean_linker_0, # of connection points: 2
#     Edge 34, Type (0, 1), BuildingBlock: OJICUG_clean_linker_0, # of connection points: 2
#     Edge 35, Type (0, 1), BuildingBlock: OJICUG_clean_linker_0, # of connection points: 2
#     Edge 36, Type (0, 1), BuildingBlock: OJICUG_clean_linker_0, # of connection points: 2
#     Edge 37, Type (0, 1), BuildingBlock: OJICUG_clean_linker_0, # of connection points: 2
# Relax obj value: 0.000
# Max RMSD: 0.039
# Mean RMSD: 0.017
data_MOF--net-pto--node1-KOZSID_clean_sbu_0--node2-ESEHIV_clean_linker_0--edge1-OJICUG_clean_linker_0
_symmetry_space_group_name_H-M    P1
_symmetry_Int_Tables_number       1
_symmetry_cell_setting            triclinic
loop_
_symmetry_equiv_pos_as_xyz
'x, y, z'
_cell_length_a     27.073189
_cell_length_b     36.271938
_cell_length_c     31.739739
_cell_angle_alpha  86.462415
_cell_angle_beta   85.381997
_cell_angle_gamma 94.410706
loop_
_atom_site_label
_atom_site_type_symbol
_atom_site_fract_x
_atom_site_fract_y
_atom_site_fract_z
_atom_type_partial_charge
H0 H 0.2833 0.31085 0.26923 0.0
H1 H 0.3156 0.19964 0.30432 0.0
H2 H 0.21861 0.25638 0.38753 0.0
C3 C 0.27855 0.28691 0.29175 0.0
C4 C 0.24796 0.28784 0.32969 0.0
C5 C 0.30347 0.2554 0.28253 0.0
C6 C 0.29661 0.22407 0.31131 0.0
C7 C 0.26564 0.22404 0.34906 0.0
C8 C 0.24191 0.25617 0.35819 0.0
H9 H 0.26786 0.71967 0.79145 0.0
H10 H 0.29887 0.83671 0.76219 0.0
H11 H 0.20802 0.77254 0.68373 0.0
C12 C 0.26455 0.74413 0.77083 0.0
C13 C 0.23578 0.74154 0.73598 0.0
C14 C 0.28734 0.7783 0.78059 0.0
C15 C 0.28065 0.81037 0.75528 0.0
C16 C 0.25192 0.80862 0.72039 0.0
C17 C 0.23005 0.77403 0.71069 0.0
H18 H 0.73706 0.83455 0.30839 0.0
H19 H 0.84848 0.77915 0.37112 0.0
H20 H 0.764 0.72364 0.28089 0.0
C21 C 0.75742 0.8104 0.31367 0.0
C22 C 0.74877 0.77987 0.28939 0.0
C23 C 0.79233 0.8101 0.34428 0.0
C24 C 0.81937 0.77862 0.34969 0.0
C25 C 0.81017 0.74713 0.32663 0.0
C26 C 0.77357 0.74797 0.29755 0.0
H27 H 0.74252 0.22548 0.793 0.0
H28 H 0.85569 0.29054 0.7104 0.0
H29 H 0.78729 0.3371 0.8194 0.0
C30 C 0.76592 0.25087 0.78472 0.0
C31 C 0.76198 0.28049 0.81098 0.0
C32 C 0.79975 0.25382 0.7482 0.0
C33 C 0.8291 0.28757 0.738 0.0
C34 C 0.824 0.31792 0.76304 0.0
C35 C 0.79081 0.31394 0.79965 0.0
H36 H 0.72906 0.85069 0.77997 0.0
H37 H 0.75854 0.73857 0.81439 0.0
H38 H 0.82811 0.7937 0.69842 0.0
C39 C 0.74769 0.8261 0.77298 0.0
C40 C 0.77935 0.82608 0.73558 0.0
C41 C 0.74019 0.79472 0.80166 0.0
C42 C 0.7646 0.76302 0.7926 0.0
C43 C 0.79599 0.76226 0.75528 0.0
C44 C 0.80288 0.7938 0.72671 0.0
H45 H 0.76142 0.20868 0.31615 0.0
H46 H 0.79877 0.32413 0.28015 0.0
H47 H 0.86517 0.27228 0.38472 0.0
C48 C 0.78262 0.23454 0.32051 0.0
C49 C 0.81457 0.23641 0.35332 0.0
C50 C 0.77616 0.26621 0.29442 0.0
C51 C 0.8025 0.29991 0.30106 0.0
C52 C 0.83466 0.30249 0.33352 0.0
C53 C 0.84053 0.27055 0.35953 0.0
H54 H 0.19894 0.27609 0.71409 0.0
H55 H 0.30993 0.2227 0.77842 0.0
H56 H 0.27727 0.33246 0.80796 0.0
C57 C 0.22642 0.27716 0.73703 0.0
C58 C 0.23329 0.30846 0.76093 0.0
C59 C 0.25546 0.24694 0.7422 0.0
C60 C 0.2895 0.2469 0.77324 0.0
C61 C 0.29608 0.27714 0.79831 0.0
C62 C 0.26929 0.30821 0.79071 0.0
H63 H 0.20736 0.76175 0.3833 0.0
H64 H 0.26985 0.71723 0.27014 0.0
H65 H 0.31258 0.82949 0.29677 0.0
C66 C 0.23148 0.76508 0.35412 0.0
C67 C 0.25964 0.79897 0.34304 0.0
C68 C 0.23588 0.73514 0.32836 0.0
C69 C 0.26703 0.74002 0.29054 0.0
C70 C 0.29452 0.77396 0.27864 0.0
C71 C 0.29141 0.80315 0.30554 0.0
C72 C 0.10249 0.57346 0.39083 0.0
C73 C 0.11413 0.58416 0.43031 0.0
C74 C 0.08479 0.56141 0.45961 0.0
C75 C 0.05715 0.53817 0.43643 0.0
N76 N 0.06763 0.54426 0.39407 0.0
Co77 Co 0.03428 0.51842 0.34864 0.0
N78 N 0.98717 0.48784 0.39165 0.0
C79 C 0.98457 0.48934 0.43426 0.0
C80 C 0.94997 0.46381 0.45556 0.0
C81 C 0.92983 0.44436 0.42478 0.0
C82 C 0.95351 0.45922 0.3864 0.0
N83 N 0.0009 0.4926 0.30316 0.0
C84 C 0.96578 0.46359 0.30645 0.0
C85 C 0.95418 0.45284 0.26696 0.0
C86 C 0.98362 0.47546 0.23764 0.0
C87 C 0.01141 0.49862 0.26077 0.0
N88 N 0.08142 0.54899 0.30554 0.0
C89 C 0.08375 0.54765 0.26287 0.0
C90 C 0.11814 0.57322 0.24152 0.0
C91 C 0.13847 0.59254 0.27225 0.0
C92 C 0.1153 0.57746 0.31081 0.0
N93 N 0.08153 0.47902 0.35083 0.0
C94 C 0.14148 0.41881 0.3517 0.0
C95 C 0.13596 0.43937 0.3141 0.0
C96 C 0.10578 0.46882 0.31431 0.0
C97 C 0.11768 0.42935 0.38921 0.0
C98 C 0.08876 0.45981 0.38817 0.0
N99 N 0.98707 0.55783 0.34623 0.0
C100 C 0.95143 0.60616 0.30566 0.0
C101 C 0.92642 0.61811 0.34205 0.0
C102 C 0.93202 0.59861 0.38071 0.0
C103 C 0.96267 0.56915 0.38212 0.0
C104 C 0.98004 0.57592 0.30834 0.0
H105 H 0.96634 0.55617 0.41264 0.0
H106 H 0.99676 0.56817 0.27917 0.0
H107 H 0.10192 0.48229 0.28427 0.0
H108 H 0.07205 0.46695 0.41782 0.0
C109 C 0.01815 0.51279 0.45334 0.0
C110 C 0.12414 0.59276 0.35124 0.0
C111 C 0.94471 0.44397 0.34607 0.0
C112 C 0.0503 0.52407 0.24372 0.0
H113 H 0.14022 0.60671 0.43711 0.0
H114 H 0.08255 0.56258 0.49371 0.0
H115 H 0.94175 0.459 0.48949 0.0
H116 H 0.90191 0.42115 0.42999 0.0
H117 H 0.92821 0.43025 0.2601 0.0
H118 H 0.98584 0.47425 0.20356 0.0
H119 H 0.12605 0.5782 0.20758 0.0
H120 H 0.16602 0.61593 0.26666 0.0
H121 H 0.15356 0.43197 0.28426 0.0
H122 H 0.12148 0.41426 0.41915 0.0
H123 H 0.95005 0.62027 0.27481 0.0
H124 H 0.91295 0.60578 0.40998 0.0
C125 C 0.09682 0.58809 0.76387 0.0
C126 C 0.10725 0.603 0.80181 0.0
C127 C 0.06811 0.5915 0.83078 0.0
C128 C 0.03608 0.57016 0.8092 0.0
N129 N 0.05302 0.56679 0.7686 0.0
Co130 Co 0.01694 0.53934 0.72646 0.0
N131 N 0.96927 0.51336 0.77146 0.0
C132 C 0.96005 0.52373 0.81111 0.0
C133 C 0.92606 0.49954 0.83531 0.0
C134 C 0.91318 0.47228 0.80922 0.0
C135 C 0.94001 0.48155 0.77037 0.0
N136 N 0.98097 0.51142 0.68485 0.0
C137 C 0.9512 0.47948 0.69119 0.0
C138 C 0.93449 0.46837 0.65342 0.0
C139 C 0.95497 0.49432 0.62232 0.0
C140 C 0.98283 0.51973 0.64286 0.0
N141 N 0.06391 0.56579 0.68101 0.0
C142 C 0.05746 0.56778 0.63925 0.0
C143 C 0.0949 0.58896 0.61526 0.0
C144 C 0.12642 0.60181 0.64369 0.0
C145 C 0.10627 0.58778 0.68362 0.0
N146 N 0.06109 0.49931 0.73184 0.0
C147 C 0.11829 0.43797 0.7403 0.0
C148 C 0.11334 0.45575 0.70035 0.0
C149 C 0.08408 0.4858 0.6968 0.0
C150 C 0.09421 0.45243 0.77581 0.0
C151 C 0.0671 0.48336 0.771 0.0
N152 N 0.97243 0.57928 0.7215 0.0
C153 C 0.96069 0.64428 0.72276 0.0
C154 C 0.90928 0.63662 0.72513 0.0
C155 C 0.88974 0.59992 0.72364 0.0
C156 C 0.92207 0.57154 0.72184 0.0
C157 C 0.9915 0.61536 0.72059 0.0
H158 H 0.90627 0.54328 0.72221 0.0
H159 H 0.0307 0.62231 0.71974 0.0
H160 H 0.07971 0.49784 0.66557 0.0
H161 H 0.04997 0.4938 0.79914 0.0
C162 C 0.9918 0.5508 0.82677 0.0
C163 C 0.12455 0.60044 0.72305 0.0
C164 C 0.93637 0.46033 0.73277 0.0
C165 C 0.01839 0.54677 0.62344 0.0
H166 H 0.13874 0.62172 0.80749 0.0
H167 H 0.06349 0.59808 0.8636 0.0
H168 H 0.91441 0.50031 0.86865 0.0
H169 H 0.88769 0.44811 0.81812 0.0
H170 H 0.91039 0.44398 0.64887 0.0
H171 H 0.95199 0.49362 0.58857 0.0
H172 H 0.09893 0.59433 0.58117 0.0
H173 H 0.15952 0.62049 0.63611 0.0
H174 H 0.13179 0.4468 0.67172 0.0
H175 H 0.09509 0.43981 0.80746 0.0
H176 H 0.97697 0.67243 0.72375 0.0
H177 H 0.84992 0.59312 0.72555 0.0
C178 C 0.28736 0.96428 0.60304 0.0
C179 C 0.33252 0.95258 0.61408 0.0
C180 C 0.36878 0.9757 0.59167 0.0
C181 C 0.34378 1.00001 0.56831 0.0
N182 N 0.29374 0.99444 0.57513 0.0
Co183 Co 0.24342 0.02106 0.54459 0.0
N184 N 0.29677 0.05326 0.50932 0.0
C185 C 0.34627 0.05421 0.51299 0.0
C186 C 0.37369 0.08064 0.48629 0.0
C187 C 0.33961 0.09811 0.46472 0.0
C188 C 0.29319 0.08119 0.47959 0.0
N189 N 0.19316 0.04575 0.51194 0.0
C190 C 0.19948 0.073 0.48027 0.0
C191 C 0.15438 0.08171 0.466 0.0
C192 C 0.11825 0.05941 0.48978 0.0
C193 C 0.14324 0.03833 0.51698 0.0
N194 N 0.19013 0.99049 0.58176 0.0
C195 C 0.14062 0.99348 0.58257 0.0
C196 C 0.11318 0.96864 0.61129 0.0
C197 C 0.14721 0.94835 0.62961 0.0
C198 C 0.1936 0.96201 0.61086 0.0
N199 N 0.24216 0.06 0.5863 0.0
C200 C 0.24378 0.12006 0.63928 0.0
C201 C 0.20127 0.10938 0.61927 0.0
C202 C 0.20104 0.07932 0.59368 0.0
C203 C 0.28467 0.09896 0.63357 0.0
C204 C 0.28324 0.06961 0.60706 0.0
N205 N 0.24475 0.98237 0.50303 0.0
C206 C 0.20395 0.93049 0.47151 0.0
C207 C 0.24843 0.92339 0.44893 0.0
C208 C 0.29063 0.94732 0.45308 0.0
C209 C 0.28812 0.97609 0.48029 0.0
C210 C 0.2028 0.96013 0.49762 0.0
H211 H 0.32195 0.99265 0.48274 0.0
H212 H 0.16763 0.96414 0.51367 0.0
H213 H 0.16724 0.07275 0.57973 0.0
H214 H 0.31621 0.05548 0.60363 0.0
C215 C 0.36603 0.02859 0.5401 0.0
C216 C 0.23951 0.94546 0.61938 0.0
C217 C 0.24692 0.09298 0.46478 0.0
C218 C 0.12094 0.01508 0.55108 0.0
H219 H 0.33859 0.92945 0.63573 0.0
H220 H 0.4086 0.97463 0.59196 0.0
H221 H 0.41369 0.0864 0.4828 0.0
H222 H 0.34796 0.12082 0.44083 0.0
H223 H 0.14816 0.10284 0.44184 0.0
H224 H 0.07842 0.05964 0.48859 0.0
H225 H 0.07308 0.96434 0.6165 0.0
H226 H 0.13872 0.92519 0.6529 0.0
H227 H 0.16845 0.12459 0.62232 0.0
H228 H 0.31807 0.10497 0.64935 0.0
H229 H 0.1701 0.91288 0.46999 0.0
H230 H 0.32579 0.94403 0.43551 0.0
C231 C 0.4379 0.8194 0.09929 0.0
C232 C 0.42026 0.85281 0.11006 0.0
C233 C 0.4477 0.87996 0.08476 0.0
C234 C 0.4801 0.86164 0.05986 0.0
N235 N 0.47469 0.82438 0.06741 0.0
Co236 Co 0.51363 0.78717 0.03792 0.0
N237 N 0.55777 0.82731 0.00429 0.0
C238 C 0.55725 0.86426 0.00783 0.0
C239 C 0.59259 0.88499 0.98117 0.0
C240 C 0.61694 0.85983 0.95899 0.0
C241 C 0.59463 0.82506 0.97324 0.0
N242 N 0.55126 0.74994 0.00703 0.0
C243 C 0.58707 0.75503 0.97427 0.0
C244 C 0.60014 0.72147 0.95969 0.0
C245 C 0.57174 0.69426 0.98406 0.0
C246 C 0.54271 0.7126 0.01175 0.0
N247 N 0.47083 0.74702 0.07294 0.0
C248 C 0.4742 0.71004 0.07204 0.0
C249 C 0.44275 0.68937 0.10198 0.0
C250 C 0.4183 0.71462 0.12388 0.0
C251 C 0.43603 0.74943 0.10566 0.0
N252 N 0.46647 0.78677 0.99306 0.0
C253 C 0.4055 0.78511 0.92504 0.0
C254 C 0.41301 0.75269 0.94893 0.0
C255 C 0.44321 0.75414 0.98249 0.0
C256 C 0.42777 0.81858 0.9367 0.0
C257 C 0.45776 0.8188 0.97059 0.0
N258 N 0.56073 0.78744 0.08282 0.0
C259 C 0.61151 0.75441 0.12915 0.0
C260 C 0.62266 0.78634 0.15008 0.0
C261 C 0.60296 0.81902 0.1364 0.0
C262 C 0.57271 0.81905 0.10269 0.0
C263 C 0.58064 0.75553 0.09603 0.0
H264 H 0.55925 0.84493 0.09345 0.0
H265 H 0.57304 0.73005 0.08197 0.0
H266 H 0.44755 0.72837 0.99908 0.0
H267 H 0.4741 0.84515 0.97756 0.0
C268 C 0.51976 0.87871 0.03302 0.0
C269 C 0.42016 0.78394 0.12158 0.0
C270 C 0.60846 0.79095 0.95509 0.0
C271 C 0.50739 0.69558 0.04274 0.0
H272 H 0.39146 0.85716 0.13451 0.0
H273 H 0.44563 0.90959 0.08559 0.0
H274 H 0.5988 0.91489 0.97729 0.0
H275 H 0.64697 0.86637 0.9344 0.0
H276 H 0.62687 0.71697 0.93369 0.0
H277 H 0.57175 0.66464 0.98152 0.0
H278 H 0.43872 0.65952 0.1077 0.0
H279 H 0.3912 0.70802 0.15074 0.0
H280 H 0.39564 0.72614 0.94183 0.0
H281 H 0.42321 0.84449 0.91914 0.0
H282 H 0.62576 0.72838 0.13881 0.0
H283 H 0.61129 0.84458 0.15131 0.0
C284 C 0.85315 0.97887 0.60902 0.0
C285 C 0.89748 0.9694 0.62417 0.0
C286 C 0.93453 0.99195 0.60183 0.0
C287 C 0.91079 0.01389 0.57452 0.0
N288 N 0.86082 0.00684 0.57823 0.0
Co289 Co 0.81212 0.0326 0.54489 0.0
N290 N 0.86689 0.06173 0.50779 0.0
C291 C 0.91621 0.05835 0.50841 0.0
C292 C 0.94486 0.08165 0.47885 0.0
C293 C 0.91185 0.10119 0.45819 0.0
C294 C 0.86482 0.08872 0.47658 0.0
N295 N 0.76334 0.06014 0.51353 0.0
C296 C 0.77113 0.08868 0.48348 0.0
C297 C 0.72669 0.10154 0.47218 0.0
C298 C 0.68951 0.08071 0.49633 0.0
C299 C 0.71325 0.05651 0.52095 0.0
N300 N 0.75732 1.00155 0.57989 0.0
C301 C 0.70792 1.00237 0.57661 0.0
C302 C 0.67932 0.97619 0.60278 0.0
C303 C 0.71247 0.95696 0.6235 0.0
C304 C 0.75955 0.97269 0.60873 0.0
N305 N 0.81193 0.07173 0.58629 0.0
C306 C 0.81027 0.13006 0.64096 0.0
C307 C 0.76792 0.10622 0.63823 0.0
C308 C 0.76936 0.07768 0.61058 0.0
C309 C 0.85374 0.12391 0.61676 0.0
C310 C 0.85401 0.09444 0.59037 0.0
N311 N 0.8123 0.99355 0.50359 0.0
C312 C 0.76927 0.95546 0.45585 0.0
C313 C 0.81054 0.93514 0.44912 0.0
C314 C 0.85305 0.94487 0.46928 0.0
C315 C 0.85344 0.97436 0.49565 0.0
C316 C 0.77071 0.9841 0.48335 0.0
H317 H 0.88737 0.98088 0.5095 0.0
H318 H 0.73747 0.99783 0.48813 0.0
H319 H 0.73534 0.06115 0.60914 0.0
H320 H 0.88872 0.09085 0.57341 0.0
C321 C 0.93447 0.03695 0.54085 0.0
C322 C 0.80512 0.95901 0.62282 0.0
C323 C 0.81965 0.10484 0.46513 0.0
C324 C 0.6896 0.0289 0.54972 0.0
H325 H 0.90262 0.9476 0.64788 0.0
H326 H 0.97418 0.99115 0.60378 0.0
H327 H 0.98504 0.08516 0.47412 0.0
H328 H 0.92133 0.12296 0.43333 0.0
H329 H 0.72171 0.1238 0.44897 0.0
H330 H 0.6499 0.08289 0.49594 0.0
H331 H 0.63918 0.97158 0.60628 0.0
H332 H 0.7031 0.93383 0.64672 0.0
H333 H 0.73344 0.11017 0.65658 0.0
H334 H 0.88754 0.14162 0.61846 0.0
H335 H 0.73553 0.94863 0.44078 0.0
H336 H 0.88601 0.92997 0.46442 0.0
C337 C 0.46128 0.29691 0.11285 0.0
C338 C 0.44886 0.33019 0.12862 0.0
C339 C 0.4778 0.35766 0.10512 0.0
C340 C 0.50646 0.33973 0.07672 0.0
N341 N 0.49725 0.30242 0.08023 0.0
Co342 Co 0.53396 0.26571 0.04765 0.0
N343 N 0.57695 0.30627 0.01343 0.0
C344 C 0.57397 0.34319 0.0155 0.0
C345 C 0.60545 0.36434 0.98599 0.0
C346 C 0.62962 0.33949 0.96321 0.0
C347 C 0.61174 0.30442 0.98052 0.0
N348 N 0.57205 0.22897 0.01648 0.0
C349 C 0.60902 0.23438 0.98472 0.0
C350 C 0.62613 0.20109 0.9729 0.0
C351 C 0.59825 0.17363 0.99739 0.0
C352 C 0.56615 0.19163 0.02292 0.0
N353 N 0.48953 0.22521 0.08047 0.0
C354 C 0.48956 0.1884 0.07575 0.0
C355 C 0.45407 0.16734 0.10194 0.0
C356 C 0.43005 0.19213 0.12497 0.0
C357 C 0.45267 0.22702 0.11169 0.0
N358 N 0.48624 0.26702 0.00329 0.0
C359 C 0.42354 0.27015 0.93666 0.0
C360 C 0.4431 0.23708 0.94913 0.0
C361 C 0.47371 0.23604 0.98253 0.0
C362 C 0.43506 0.30143 0.9586 0.0
C363 C 0.46637 0.29933 0.99139 0.0
N364 N 0.58179 0.26445 0.09198 0.0
C365 C 0.62164 0.23068 0.14617 0.0
C366 C 0.64583 0.26342 0.15793 0.0
C367 C 0.63822 0.29654 0.13539 0.0
C368 C 0.60639 0.29644 0.10291 0.0
C369 C 0.59019 0.2318 0.11333 0.0
H370 H 0.60209 0.32267 0.08732 0.0
H371 H 0.57268 0.2059 0.10616 0.0
H372 H 0.48702 0.20989 0.99076 0.0
H373 H 0.47435 0.32435 0.00627 0.0
C374 C 0.54151 0.35715 0.04578 0.0
C375 C 0.43881 0.26081 0.13065 0.0
C376 C 0.62782 0.27024 0.96377 0.0
C377 C 0.52657 0.1743 0.04968 0.0
H378 H 0.42206 0.33429 0.15472 0.0
H379 H 0.47818 0.38719 0.10853 0.0
H380 H 0.60984 0.39426 0.98124 0.0
H381 H 0.65678 0.34654 0.93648 0.0
H382 H 0.65503 0.19703 0.94842 0.0
H383 H 0.60002 0.14403 0.99576 0.0
H384 H 0.44745 0.13744 0.10484 0.0
H385 H 0.39992 0.18525 0.1494 0.0
H386 H 0.43443 0.21197 0.93345 0.0
H387 H 0.42084 0.32771 0.94991 0.0
H388 H 0.62601 0.20429 0.16276 0.0
H389 H 0.65691 0.32261 0.14257 0.0
C390 C 0.17362 0.31899 0.35952 0.0
C391 C 0.22206 0.32176 0.33901 0.0
H392 H 0.1105 0.34772 0.38019 0.0
C393 C 0.24493 0.35729 0.32606 0.0
H394 H 0.15441 0.29222 0.36951 0.0
C395 C 0.21927 0.38889 0.33144 0.0
C396 C 0.17055 0.38587 0.35078 0.0
H397 H 0.28259 0.3608 0.31125 0.0
H398 H 0.23729 0.41575 0.31997 0.0
C399 C 0.14831 0.35075 0.36562 0.0
C400 C 0.23177 0.6717 0.73509 0.0
C401 C 0.20961 0.70523 0.72784 0.0
H402 H 0.2221 0.6121 0.73914 0.0
C403 C 0.16082 0.70361 0.71542 0.0
H404 H 0.26955 0.67184 0.744 0.0
C405 C 0.13432 0.6695 0.71194 0.0
C406 C 0.1558 0.63621 0.721 0.0
H407 H 0.14217 0.72863 0.71013 0.0
H408 H 0.09631 0.66916 0.70362 0.0
C409 C 0.20497 0.6375 0.73193 0.0
C410 C 0.85963 0.70395 0.36976 0.0
C411 C 0.83946 0.71382 0.33147 0.0
H412 H 0.90387 0.66749 0.40293 0.0
C413 C 0.84764 0.69141 0.29731 0.0
H414 H 0.85379 0.71987 0.39719 0.0
C415 C 0.87389 0.65998 0.30143 0.0
C416 C 0.89533 0.65058 0.33919 0.0
H417 H 0.83432 0.6981 0.26676 0.0
H418 H 0.87713 0.64317 0.27452 0.0
C419 C 0.8877 0.67313 0.37337 0.0
C420 C 0.82845 0.38705 0.75163 0.0
C421 C 0.85274 0.35415 0.75123 0.0
H422 H 0.83613 0.4465 0.74524 0.0
C423 C 0.90454 0.3564 0.74143 0.0
H424 H 0.7885 0.38612 0.75846 0.0
C425 C 0.93172 0.39101 0.73414 0.0
C426 C 0.9074 0.42371 0.73622 0.0
H427 H 0.92418 0.3315 0.74099 0.0
H428 H 0.9718 0.3923 0.72809 0.0
C429 C 0.8555 0.42149 0.74392 0.0
C430 C 0.25997 0.19357 0.42289 0.0
C431 C 0.25849 0.19047 0.37903 0.0
H432 H 0.2574 0.1648 0.48438 0.0
C433 C 0.25105 0.15496 0.36388 0.0
H434 H 0.26617 0.22044 0.43553 0.0
C435 C 0.24602 0.12329 0.39186 0.0
C436 C 0.24838 0.12659 0.43541 0.0
H437 H 0.24913 0.15165 0.33035 0.0
H438 H 0.24104 0.0962 0.3795 0.0
C439 C 0.2551 0.16187 0.45081 0.0
C440 C 0.31412 0.80936 0.84474 0.0
C441 C 0.31788 0.78042 0.81741 0.0
H442 H 0.33817 0.83327 0.90044 0.0
C443 C 0.35094 0.75334 0.82557 0.0
H444 H 0.28853 0.8304 0.83963 0.0
C445 C 0.37935 0.75498 0.86034 0.0
C446 C 0.37539 0.78374 0.88789 0.0
H447 H 0.35535 0.73105 0.80474 0.0
H448 H 0.40497 0.73393 0.86531 0.0
C449 C 0.34256 0.811 0.87958 0.0
C450 C 0.81093 0.83755 0.41312 0.0
C451 C 0.80024 0.84262 0.37051 0.0
H452 H 0.82311 0.86301 0.47114 0.0
C453 C 0.79525 0.87895 0.35376 0.0
H454 H 0.8143 0.81012 0.42752 0.0
C455 C 0.79879 0.90897 0.37926 0.0
C456 C 0.80879 0.90359 0.42174 0.0
H457 H 0.78849 0.88438 0.3209 0.0
H458 H 0.7939 0.93648 0.36574 0.0
C459 C 0.81565 0.86777 0.4383 0.0
C460 C 0.74427 0.28911 0.88842 0.0
C461 C 0.72784 0.27672 0.85038 0.0
H462 H 0.72546 0.29622 0.95428 0.0
C463 C 0.67858 0.26131 0.85022 0.0
H464 H 0.78219 0.30065 0.88965 0.0
C465 C 0.6462 0.25904 0.88713 0.0
C466 C 0.66262 0.27189 0.92484 0.0
H467 H 0.6648 0.25175 0.82136 0.0
H468 H 0.60817 0.24761 0.88619 0.0
C469 C 0.71202 0.28651 0.92535 0.0
C470 C 0.23553 0.87594 0.7138 0.0
C471 C 0.24513 0.8431 0.69426 0.0
H472 H 0.22575 0.93407 0.70513 0.0
C473 C 0.24997 0.84389 0.64974 0.0
H474 H 0.23103 0.87615 0.748 0.0
C475 C 0.24675 0.87701 0.6254 0.0
C476 C 0.23819 0.90975 0.64513 0.0
H477 H 0.25783 0.8192 0.63375 0.0
H478 H 0.25199 0.87729 0.59117 0.0
C479 C 0.2321 0.90896 0.68943 0.0
C480 C 0.7292 0.76577 0.21581 0.0
C481 C 0.71576 0.78165 0.25402 0.0
H482 H 0.71061 0.75504 0.15321 0.0
C483 C 0.67158 0.79973 0.25745 0.0
H484 H 0.76353 0.75244 0.21153 0.0
C485 C 0.6416 0.80171 0.22355 0.0
C486 C 0.65492 0.78536 0.1857 0.0
H487 H 0.65975 0.81193 0.28649 0.0
H488 H 0.60748 0.8154 0.22723 0.0
C489 C 0.69903 0.76742 0.18222 0.0
C490 C 0.81457 0.22792 0.67645 0.0
C491 C 0.80382 0.2219 0.72067 0.0
H492 H 0.82566 0.20349 0.61683 0.0
C493 C 0.79618 0.18501 0.73823 0.0
H494 H 0.8197 0.25569 0.66139 0.0
C495 C 0.79801 0.15521 0.71232 0.0
C496 C 0.80884 0.16152 0.66843 0.0
H497 H 0.78906 0.17894 0.77208 0.0
H498 H 0.79153 0.12717 0.72663 0.0
C499 C 0.81761 0.19805 0.65073 0.0
C500 C 0.38452 0.24188 0.24454 0.0
C501 C 0.33738 0.25555 0.24318 0.0
H502 H 0.45363 0.23319 0.20983 0.0
C503 C 0.3234 0.27014 0.20418 0.0
H504 H 0.39659 0.23082 0.27414 0.0
C505 C 0.35602 0.27136 0.16752 0.0
C506 C 0.40333 0.25834 0.16924 0.0
H507 H 0.28714 0.28046 0.20199 0.0
H508 H 0.34455 0.28278 0.13784 0.0
C509 C 0.41722 0.24335 0.20792 0.0
C510 C 0.84795 0.71242 0.77995 0.0
C511 C 0.82319 0.729 0.74739 0.0
H512 H 0.89461 0.67002 0.79799 0.0
C513 C 0.82514 0.71381 0.7076 0.0
H514 H 0.84756 0.72373 0.81076 0.0
C515 C 0.85163 0.68272 0.70054 0.0
C516 C 0.87695 0.66679 0.73301 0.0
H517 H 0.80616 0.72595 0.68205 0.0
H518 H 0.85337 0.67169 0.66955 0.0
C519 C 0.87482 0.68177 0.77272 0.0
C520 C 0.91289 0.34045 0.34715 0.0
C521 C 0.86229 0.3386 0.33957 0.0
H522 H 0.97864 0.37566 0.355 0.0
C523 C 0.83863 0.37178 0.33599 0.0
H524 H 0.93232 0.3155 0.34966 0.0
C525 C 0.86524 0.40599 0.33878 0.0
C526 C 0.91587 0.40764 0.34529 0.0
H527 H 0.79954 0.37131 0.33082 0.0
H528 H 0.84651 0.43121 0.33534 0.0
C529 C 0.93946 0.37474 0.34996 0.0
C530 C 0.18388 0.35063 0.71651 0.0
C531 C 0.20328 0.34134 0.7553 0.0
H532 H 0.14058 0.38643 0.68173 0.0
C533 C 0.19408 0.36419 0.78891 0.0
H534 H 0.19039 0.33444 0.6894 0.0
C535 C 0.1681 0.39569 0.78361 0.0
C536 C 0.14792 0.40475 0.74512 0.0
H537 H 0.20666 0.35792 0.81984 0.0
H538 H 0.16441 0.4129 0.81011 0.0
C539 C 0.15599 0.3814 0.71173 0.0
C540 C 0.23223 0.66588 0.33647 0.0
C541 C 0.208 0.69864 0.34009 0.0
H542 H 0.22435 0.60648 0.33788 0.0
C543 C 0.1566 0.69605 0.35179 0.0
H544 H 0.27193 0.66707 0.32805 0.0
C545 C 0.12953 0.66137 0.35732 0.0
C546 C 0.1536 0.62893 0.35154 0.0
H547 H 0.137 0.72083 0.35463 0.0
H548 H 0.08958 0.65991 0.36442 0.0
C549 C 0.20526 0.63131 0.34229 0.0
C550 C 0.79615 0.89514 0.72247 0.0
C551 C 0.7884 0.86005 0.70634 0.0
H552 H 0.80804 0.95402 0.70833 0.0
C553 C 0.78856 0.85779 0.66224 0.0
H554 H 0.79694 0.8978 0.75622 0.0
C555 C 0.79514 0.88996 0.63502 0.0
C556 C 0.80208 0.92483 0.6514 0.0
H557 H 0.7823 0.83124 0.64886 0.0
H558 H 0.79399 0.88773 0.60122 0.0
C559 C 0.80293 0.92724 0.69522 0.0
C560 C 0.74117 0.23536 0.23315 0.0
C561 C 0.74159 0.2645 0.26037 0.0
H562 H 0.71144 0.21249 0.17899 0.0
C563 C 0.70942 0.29261 0.25435 0.0
H564 H 0.76587 0.21348 0.23678 0.0
C565 C 0.67812 0.29198 0.22149 0.0
C566 C 0.67831 0.26329 0.19364 0.0
H567 H 0.70823 0.31508 0.27528 0.0
H568 H 0.65346 0.31392 0.21812 0.0
C569 C 0.70995 0.2348 0.20008 0.0
C570 C 0.20586 0.19459 0.71272 0.0
C571 C 0.25137 0.21538 0.71486 0.0
H572 H 0.16788 0.14747 0.68871 0.0
C573 C 0.29391 0.20526 0.69163 0.0
H574 H 0.17263 0.20175 0.73068 0.0
C575 C 0.29119 0.17482 0.66678 0.0
C576 C 0.24599 0.15315 0.66522 0.0
H577 H 0.32935 0.22114 0.69247 0.0
H578 H 0.32467 0.16858 0.64854 0.0
C579 C 0.20325 0.16359 0.68847 0.0
C580 C 0.30735 0.76612 0.20077 0.0
C581 C 0.32607 0.77856 0.23794 0.0
H582 H 0.32258 0.75859 0.13458 0.0
C583 C 0.37538 0.79424 0.23612 0.0
H584 H 0.26927 0.75441 0.20113 0.0
C585 C 0.4058 0.79636 0.19813 0.0
C586 C 0.38724 0.78308 0.16141 0.0
H587 H 0.3908 0.80389 0.26431 0.0
H588 H 0.44404 0.80779 0.1975 0.0
C589 C 0.33762 0.76855 0.16278 0.0
C590 C 0.81898 0.20542 0.4259 0.0
C591 C 0.81945 0.20292 0.38179 0.0
H592 H 0.81873 0.17598 0.4868 0.0
C593 C 0.82268 0.16795 0.36526 0.0
H594 H 0.81589 0.2318 0.4397 0.0
C595 C 0.82427 0.13617 0.39228 0.0
C596 C 0.82267 0.13881 0.43621 0.0
H597 H 0.82365 0.16514 0.33144 0.0
H598 H 0.82577 0.10943 0.379 0.0
C599 C 0.82044 0.17359 0.45286 0.0
C600 C 0.3163 0.29133 0.87187 0.0
C601 C 0.32964 0.27593 0.83333 0.0
H602 H 0.33532 0.30145 0.93457 0.0
C603 C 0.37441 0.25862 0.82917 0.0
H604 H 0.28164 0.30416 0.87667 0.0
C605 C 0.40473 0.25653 0.86277 0.0
C606 C 0.39128 0.27206 0.90109 0.0
H607 H 0.38634 0.24696 0.79982 0.0
H608 H 0.4391 0.24323 0.85857 0.0
C609 C 0.34689 0.28963 0.90521 0.0
C610 C 0.21206 0.84765 0.37619 0.0
C611 C 0.25627 0.83015 0.37065 0.0
H612 H 0.17531 0.89162 0.40349 0.0
C613 C 0.29775 0.84304 0.39084 0.0
H614 H 0.17976 0.83825 0.3605 0.0
C615 C 0.29502 0.87289 0.41653 0.0
C616 C 0.25101 0.89115 0.4218 0.0
H617 H 0.33215 0.82971 0.38709 0.0
H618 H 0.3274 0.88126 0.4326 0.0
C619 C 0.20957 0.87809 0.4011 0.0
C620 C 0.72212 0.78101 0.88009 0.0
C621 C 0.70702 0.79493 0.84124 0.0
H622 H 0.70275 0.76938 0.94679 0.0
C623 C 0.65976 0.8084 0.84035 0.0
H624 H 0.75857 0.77089 0.88181 0.0
C625 C 0.62789 0.80727 0.87742 0.0
C626 C 0.64289 0.79291 0.91599 0.0
H627 H 0.64702 0.81904 0.81084 0.0
H628 H 0.59131 0.81723 0.87598 0.0
C629 C 0.69042 0.78022 0.91719 0.0
loop_
_geom_bond_atom_site_label_1
_geom_bond_atom_site_label_2
_geom_bond_distance
_geom_bond_site_symmetry_2
_ccdc_geom_bond_type
H0 C3 0.931 . S
H1 C6 0.928 . S
H2 C8 0.930 . S
C3 H0 0.931 . S
C3 C4 1.413 . S
C3 C5 1.360 . S
C4 C3 1.413 . S
C4 C8 1.429 . S
C5 C3 1.360 . S
C5 C6 1.372 . S
C6 H1 0.928 . S
C6 C5 1.372 . S
C6 C7 1.404 . S
C7 C6 1.404 . S
C7 C8 1.391 . S
C8 H2 0.930 . S
C8 C4 1.429 . S
C8 C7 1.391 . S
H9 C12 0.931 . S
H10 C15 0.928 . S
H11 C17 0.930 . S
C12 H9 0.931 . S
C12 C13 1.413 . S
C12 C14 1.360 . S
C13 C12 1.413 . S
C13 C17 1.429 . S
C14 C12 1.360 . S
C14 C15 1.372 . S
C15 H10 0.928 . S
C15 C14 1.372 . S
C15 C16 1.404 . S
C16 C15 1.404 . S
C16 C17 1.391 . S
C17 H11 0.930 . S
C17 C13 1.429 . S
C17 C16 1.391 . S
H18 C21 0.931 . S
H19 C24 0.928 . S
H20 C26 0.930 . S
C21 H18 0.931 . S
C21 C22 1.413 . S
C21 C23 1.360 . S
C22 C21 1.413 . S
C22 C26 1.429 . S
C23 C21 1.360 . S
C23 C24 1.372 . S
C24 H19 0.928 . S
C24 C23 1.372 . S
C24 C25 1.404 . S
C25 C24 1.404 . S
C25 C26 1.391 . S
C26 H20 0.930 . S
C26 C22 1.429 . S
C26 C25 1.391 . S
H27 C30 0.931 . S
H28 C33 0.928 . S
H29 C35 0.930 . S
C30 H27 0.931 . S
C30 C31 1.413 . S
C30 C32 1.360 . S
C31 C30 1.413 . S
C31 C35 1.429 . S
C32 C30 1.360 . S
C32 C33 1.372 . S
C33 H28 0.928 . S
C33 C32 1.372 . S
C33 C34 1.404 . S
C34 C33 1.404 . S
C34 C35 1.391 . S
C35 H29 0.930 . S
C35 C31 1.429 . S
C35 C34 1.391 . S
H36 C39 0.931 . S
H37 C42 0.928 . S
H38 C44 0.930 . S
C39 H36 0.931 . S
C39 C40 1.413 . S
C39 C41 1.360 . S
C40 C39 1.413 . S
C40 C44 1.429 . S
C41 C39 1.360 . S
C41 C42 1.372 . S
C42 H37 0.928 . S
C42 C41 1.372 . S
C42 C43 1.404 . S
C43 C42 1.404 . S
C43 C44 1.391 . S
C44 H38 0.930 . S
C44 C40 1.429 . S
C44 C43 1.391 . S
H45 C48 0.931 . S
H46 C51 0.928 . S
H47 C53 0.930 . S
C48 H45 0.931 . S
C48 C49 1.413 . S
C48 C50 1.360 . S
C49 C48 1.413 . S
C49 C53 1.429 . S
C50 C48 1.360 . S
C50 C51 1.372 . S
C51 H46 0.928 . S
C51 C50 1.372 . S
C51 C52 1.404 . S
C52 C51 1.404 . S
C52 C53 1.391 . S
C53 H47 0.930 . S
C53 C49 1.429 . S
C53 C52 1.391 . S
H54 C57 0.931 . S
H55 C60 0.928 . S
H56 C62 0.930 . S
C57 H54 0.931 . S
C57 C58 1.413 . S
C57 C59 1.360 . S
C58 C57 1.413 . S
C58 C62 1.429 . S
C59 C57 1.360 . S
C59 C60 1.372 . S
C60 H55 0.928 . S
C60 C59 1.372 . S
C60 C61 1.404 . S
C61 C60 1.404 . S
C61 C62 1.391 . S
C62 H56 0.930 . S
C62 C58 1.429 . S
C62 C61 1.391 . S
H63 C66 0.931 . S
H64 C69 0.928 . S
H65 C71 0.930 . S
C66 H63 0.931 . S
C66 C67 1.413 . S
C66 C68 1.360 . S
C67 C66 1.413 . S
C67 C71 1.429 . S
C68 C66 1.360 . S
C68 C69 1.372 . S
C69 H64 0.928 . S
C69 C68 1.372 . S
C69 C70 1.404 . S
C70 C69 1.404 . S
C70 C71 1.391 . S
C71 H65 0.930 . S
C71 C67 1.429 . S
C71 C70 1.391 . S
C72 C73 1.443 . S
C72 N76 1.376 . S
C72 C110 1.389 . S
C73 C72 1.443 . S
C73 C74 1.340 . S
C73 H113 0.951 . S
C74 C73 1.340 . S
C74 C75 1.439 . S
C74 H114 0.950 . S
C75 C74 1.439 . S
C75 N76 1.374 . S
C75 C109 1.395 . S
N76 C72 1.376 . S
N76 C75 1.374 . S
N76 Co77 2.008 . S
Co77 N76 2.008 . S
Co77 N78 1.995 1_455 S
Co77 N83 2.008 . S
Co77 N88 1.995 . S
Co77 N93 2.282 . S
Co77 N99 2.282 1_455 S
N78 Co77 1.995 1_655 S
N78 C79 1.376 . S
N78 C82 1.383 . S
C79 N78 1.376 . S
C79 C80 1.446 . S
C79 C109 1.391 1_655 S
C80 C79 1.446 . S
C80 C81 1.339 . S
C80 H115 0.949 . S
C81 C80 1.339 . S
C81 C82 1.439 . S
C81 H116 0.950 . S
C82 N78 1.383 . S
C82 C81 1.439 . S
C82 C111 1.392 . S
N83 Co77 2.008 . S
N83 C84 1.376 1_455 S
N83 C87 1.374 . S
C84 N83 1.376 1_655 S
C84 C85 1.443 . S
C84 C111 1.389 . S
C85 C84 1.443 . S
C85 C86 1.340 . S
C85 H117 0.951 . S
C86 C85 1.340 . S
C86 C87 1.439 1_655 S
C86 H118 0.950 . S
C87 N83 1.374 . S
C87 C86 1.439 1_455 S
C87 C112 1.395 . S
N88 Co77 1.995 . S
N88 C89 1.376 . S
N88 C92 1.383 . S
C89 N88 1.376 . S
C89 C90 1.446 . S
C89 C112 1.391 . S
C90 C89 1.446 . S
C90 C91 1.339 . S
C90 H119 0.949 . S
C91 C90 1.339 . S
C91 C92 1.439 . S
C91 H120 0.950 . S
C92 N88 1.383 . S
C92 C91 1.439 . S
C92 C110 1.392 . S
N93 Co77 2.282 . S
N93 C96 1.332 . S
N93 C98 1.332 . S
C94 C95 1.386 . S
C94 C97 1.388 . S
C95 C94 1.386 . S
C95 C96 1.382 . S
C95 H121 0.950 . S
C96 N93 1.332 . S
C96 C95 1.382 . S
C96 H107 0.952 . S
C97 C94 1.388 . S
C97 C98 1.382 . S
C97 H122 0.950 . S
C98 N93 1.332 . S
C98 C97 1.382 . S
C98 H108 0.948 . S
N99 Co77 2.282 1_655 S
N99 C103 1.332 . S
N99 C104 1.332 . S
C100 C101 1.388 . S
C100 C104 1.382 . S
C100 H123 0.950 . S
C101 C100 1.388 . S
C101 C102 1.386 . S
C102 C101 1.386 . S
C102 C103 1.382 . S
C102 H124 0.950 . S
C103 N99 1.332 . S
C103 C102 1.382 . S
C103 H105 0.952 . S
C104 N99 1.332 . S
C104 C100 1.382 . S
C104 H106 0.948 . S
H105 C103 0.952 . S
H106 C104 0.948 . S
H107 C96 0.952 . S
H108 C98 0.948 . S
C109 C75 1.395 . S
C109 C79 1.391 1_455 S
C110 C72 1.389 . S
C110 C92 1.392 . S
C111 C82 1.392 . S
C111 C84 1.389 . S
C112 C87 1.395 . S
C112 C89 1.391 . S
H113 C73 0.951 . S
H114 C74 0.950 . S
H115 C80 0.949 . S
H116 C81 0.950 . S
H117 C85 0.951 . S
H118 C86 0.950 . S
H119 C90 0.949 . S
H120 C91 0.950 . S
H121 C95 0.950 . S
H122 C97 0.950 . S
H123 C100 0.950 . S
H124 C102 0.950 . S
C125 C126 1.443 . S
C125 N129 1.376 . S
C125 C163 1.389 . S
C126 C125 1.443 . S
C126 C127 1.340 . S
C126 H166 0.951 . S
C127 C126 1.340 . S
C127 C128 1.439 . S
C127 H167 0.950 . S
C128 C127 1.439 . S
C128 N129 1.374 . S
C128 C162 1.395 . S
N129 C125 1.376 . S
N129 C128 1.374 . S
N129 Co130 2.008 . S
Co130 N129 2.008 . S
Co130 N131 1.995 1_455 S
Co130 N136 2.008 1_455 S
Co130 N141 1.995 . S
Co130 N146 2.282 . S
Co130 N152 2.282 1_455 S
N131 Co130 1.995 1_655 S
N131 C132 1.376 . S
N131 C135 1.383 . S
C132 N131 1.376 . S
C132 C133 1.446 . S
C132 C162 1.391 1_655 S
C133 C132 1.446 . S
C133 C134 1.339 . S
C133 H168 0.949 . S
C134 C133 1.339 . S
C134 C135 1.439 . S
C134 H169 0.950 . S
C135 N131 1.383 . S
C135 C134 1.439 . S
C135 C164 1.392 . S
N136 Co130 2.008 1_655 S
N136 C137 1.376 . S
N136 C140 1.374 1_655 S
C137 N136 1.376 . S
C137 C138 1.443 . S
C137 C164 1.389 . S
C138 C137 1.443 . S
C138 C139 1.340 . S
C138 H170 0.951 . S
C139 C138 1.340 . S
C139 C140 1.439 1_655 S
C139 H171 0.950 . S
C140 N136 1.374 1_455 S
C140 C139 1.439 1_455 S
C140 C165 1.395 . S
N141 Co130 1.995 . S
N141 C142 1.376 . S
N141 C145 1.383 . S
C142 N141 1.376 . S
C142 C143 1.446 . S
C142 C165 1.391 . S
C143 C142 1.446 . S
C143 C144 1.339 . S
C143 H172 0.949 . S
C144 C143 1.339 . S
C144 C145 1.439 . S
C144 H173 0.950 . S
C145 N141 1.383 . S
C145 C144 1.439 . S
C145 C163 1.392 . S
N146 Co130 2.282 . S
N146 C149 1.332 . S
N146 C151 1.332 . S
C147 C148 1.386 . S
C147 C150 1.388 . S
C148 C147 1.386 . S
C148 C149 1.382 . S
C148 H174 0.950 . S
C149 N146 1.332 . S
C149 C148 1.382 . S
C149 H160 0.952 . S
C150 C147 1.388 . S
C150 C151 1.382 . S
C150 H175 0.950 . S
C151 N146 1.332 . S
C151 C150 1.382 . S
C151 H161 0.948 . S
N152 Co130 2.282 1_655 S
N152 C156 1.332 . S
N152 C157 1.332 . S
C153 C154 1.388 . S
C153 C157 1.382 . S
C153 H176 0.950 . S
C154 C153 1.388 . S
C154 C155 1.386 . S
C155 C154 1.386 . S
C155 C156 1.382 . S
C155 H177 0.950 . S
C156 N152 1.332 . S
C156 C155 1.382 . S
C156 H158 0.952 . S
C157 N152 1.332 . S
C157 C153 1.382 . S
C157 H159 0.948 . S
H158 C156 0.952 . S
H159 C157 0.948 . S
H160 C149 0.952 . S
H161 C151 0.948 . S
C162 C128 1.395 . S
C162 C132 1.391 1_455 S
C163 C125 1.389 . S
C163 C145 1.392 . S
C164 C135 1.392 . S
C164 C137 1.389 . S
C165 C140 1.395 . S
C165 C142 1.391 . S
H166 C126 0.951 . S
H167 C127 0.950 . S
H168 C133 0.949 . S
H169 C134 0.950 . S
H170 C138 0.951 . S
H171 C139 0.950 . S
H172 C143 0.949 . S
H173 C144 0.950 . S
H174 C148 0.950 . S
H175 C150 0.950 . S
H176 C153 0.950 . S
H177 C155 0.950 . S
C178 C179 1.443 . S
C178 N182 1.376 . S
C178 C216 1.389 . S
C179 C178 1.443 . S
C179 C180 1.340 . S
C179 H219 0.951 . S
C180 C179 1.340 . S
C180 C181 1.439 . S
C180 H220 0.950 . S
C181 C180 1.439 . S
C181 N182 1.374 . S
C181 C215 1.395 1_565 S
N182 C178 1.376 . S
N182 C181 1.374 . S
N182 Co183 2.008 1_565 S
Co183 N182 2.008 1_545 S
Co183 N184 1.995 . S
Co183 N189 2.008 . S
Co183 N194 1.995 1_545 S
Co183 N199 2.282 . S
Co183 N205 2.282 1_545 S
N184 Co183 1.995 . S
N184 C185 1.376 . S
N184 C188 1.383 . S
C185 N184 1.376 . S
C185 C186 1.446 . S
C185 C215 1.391 . S
C186 C185 1.446 . S
C186 C187 1.339 . S
C186 H221 0.949 . S
C187 C186 1.339 . S
C187 C188 1.439 . S
C187 H222 0.950 . S
C188 N184 1.383 . S
C188 C187 1.439 . S
C188 C217 1.392 . S
N189 Co183 2.008 . S
N189 C190 1.376 . S
N189 C193 1.374 . S
C190 N189 1.376 . S
C190 C191 1.443 . S
C190 C217 1.389 . S
C191 C190 1.443 . S
C191 C192 1.340 . S
C191 H223 0.951 . S
C192 C191 1.340 . S
C192 C193 1.439 . S
C192 H224 0.950 . S
C193 N189 1.374 . S
C193 C192 1.439 . S
C193 C218 1.395 . S
N194 Co183 1.995 1_565 S
N194 C195 1.376 . S
N194 C198 1.383 . S
C195 N194 1.376 . S
C195 C196 1.446 . S
C195 C218 1.391 1_565 S
C196 C195 1.446 . S
C196 C197 1.339 . S
C196 H225 0.949 . S
C197 C196 1.339 . S
C197 C198 1.439 . S
C197 H226 0.950 . S
C198 N194 1.383 . S
C198 C197 1.439 . S
C198 C216 1.392 . S
N199 Co183 2.282 . S
N199 C202 1.332 . S
N199 C204 1.332 . S
C200 C201 1.386 . S
C200 C203 1.388 . S
C201 C200 1.386 . S
C201 C202 1.382 . S
C201 H227 0.950 . S
C202 N199 1.332 . S
C202 C201 1.382 . S
C202 H213 0.952 . S
C203 C200 1.388 . S
C203 C204 1.382 . S
C203 H228 0.950 . S
C204 N199 1.332 . S
C204 C203 1.382 . S
C204 H214 0.948 . S
N205 Co183 2.282 1_565 S
N205 C209 1.332 . S
N205 C210 1.332 . S
C206 C207 1.388 . S
C206 C210 1.382 . S
C206 H229 0.950 . S
C207 C206 1.388 . S
C207 C208 1.386 . S
C208 C207 1.386 . S
C208 C209 1.382 . S
C208 H230 0.950 . S
C209 N205 1.332 . S
C209 C208 1.382 . S
C209 H211 0.952 . S
C210 N205 1.332 . S
C210 C206 1.382 . S
C210 H212 0.948 . S
H211 C209 0.952 . S
H212 C210 0.948 . S
H213 C202 0.952 . S
H214 C204 0.948 . S
C215 C181 1.395 1_545 S
C215 C185 1.391 . S
C216 C178 1.389 . S
C216 C198 1.392 . S
C217 C188 1.392 . S
C217 C190 1.389 . S
C218 C193 1.395 . S
C218 C195 1.391 1_545 S
H219 C179 0.951 . S
H220 C180 0.950 . S
H221 C186 0.949 . S
H222 C187 0.950 . S
H223 C191 0.951 . S
H224 C192 0.950 . S
H225 C196 0.949 . S
H226 C197 0.950 . S
H227 C201 0.950 . S
H228 C203 0.950 . S
H229 C206 0.950 . S
H230 C208 0.950 . S
C231 C232 1.443 . S
C231 N235 1.376 . S
C231 C269 1.389 . S
C232 C231 1.443 . S
C232 C233 1.340 . S
C232 H272 0.951 . S
C233 C232 1.340 . S
C233 C234 1.439 . S
C233 H273 0.950 . S
C234 C233 1.439 . S
C234 N235 1.374 . S
C234 C268 1.395 . S
N235 C231 1.376 . S
N235 C234 1.374 . S
N235 Co236 2.008 . S
Co236 N235 2.008 . S
Co236 N237 1.995 1_554 S
Co236 N242 2.008 1_554 S
Co236 N247 1.995 . S
Co236 N252 2.282 1_554 S
Co236 N258 2.282 . S
N237 Co236 1.995 1_556 S
N237 C238 1.377 . S
N237 C241 1.383 . S
C238 N237 1.377 . S
C238 C239 1.451 . S
C238 C268 1.386 1_556 S
C239 C238 1.451 . S
C239 C240 1.339 . S
C239 H274 0.949 . S
C240 C239 1.339 . S
C240 C241 1.439 . S
C240 H275 0.950 . S
C241 N237 1.383 . S
C241 C240 1.439 . S
C241 C270 1.392 . S
N242 Co236 2.008 1_556 S
N242 C243 1.376 . S
N242 C246 1.374 . S
C243 N242 1.376 . S
C243 C244 1.443 . S
C243 C270 1.389 . S
C244 C243 1.443 . S
C244 C245 1.340 . S
C244 H276 0.951 . S
C245 C244 1.340 . S
C245 C246 1.439 . S
C245 H277 0.950 . S
C246 N242 1.374 . S
C246 C245 1.439 . S
C246 C271 1.395 1_556 S
N247 Co236 1.995 . S
N247 C248 1.376 . S
N247 C251 1.383 . S
C248 N247 1.376 . S
C248 C249 1.446 . S
C248 C271 1.391 . S
C249 C248 1.446 . S
C249 C250 1.339 . S
C249 H278 0.949 . S
C250 C249 1.339 . S
C250 C251 1.439 . S
C250 H279 0.950 . S
C251 N247 1.383 . S
C251 C250 1.439 . S
C251 C269 1.392 . S
N252 Co236 2.282 1_556 S
N252 C255 1.332 . S
N252 C257 1.332 . S
C253 C254 1.386 . S
C253 C256 1.388 . S
C254 C253 1.386 . S
C254 C255 1.382 . S
C254 H280 0.950 . S
C255 N252 1.332 . S
C255 C254 1.382 . S
C255 H266 0.952 . S
C256 C253 1.388 . S
C256 C257 1.382 . S
C256 H281 0.950 . S
C257 N252 1.332 . S
C257 C256 1.382 . S
C257 H267 0.948 . S
N258 Co236 2.282 . S
N258 C262 1.332 . S
N258 C263 1.332 . S
C259 C260 1.388 . S
C259 C263 1.382 . S
C259 H282 0.950 . S
C260 C259 1.388 . S
C260 C261 1.386 . S
C261 C260 1.386 . S
C261 C262 1.382 . S
C261 H283 0.950 . S
C262 N258 1.332 . S
C262 C261 1.382 . S
C262 H264 0.952 . S
C263 N258 1.332 . S
C263 C259 1.382 . S
C263 H265 0.948 . S
H264 C262 0.952 . S
H265 C263 0.948 . S
H266 C255 0.952 . S
H267 C257 0.948 . S
C268 C234 1.395 . S
C268 C238 1.386 1_554 S
C269 C231 1.389 . S
C269 C251 1.392 . S
C270 C241 1.392 . S
C270 C243 1.389 . S
C271 C246 1.395 1_554 S
C271 C248 1.391 . S
H272 C232 0.951 . S
H273 C233 0.950 . S
H274 C239 0.949 . S
H275 C240 0.950 . S
H276 C244 0.951 . S
H277 C245 0.950 . S
H278 C249 0.949 . S
H279 C250 0.950 . S
H280 C254 0.950 . S
H281 C256 0.950 . S
H282 C259 0.950 . S
H283 C261 0.950 . S
C284 C285 1.443 . S
C284 N288 1.376 1_565 S
C284 C322 1.389 . S
C285 C284 1.443 . S
C285 C286 1.340 . S
C285 H325 0.951 . S
C286 C285 1.340 . S
C286 C287 1.439 1_565 S
C286 H326 0.950 . S
C287 C286 1.439 1_545 S
C287 N288 1.374 . S
C287 C321 1.395 . S
N288 C284 1.376 1_545 S
N288 C287 1.374 . S
N288 Co289 2.008 . S
Co289 N288 2.008 . S
Co289 N290 1.995 . S
Co289 N295 2.008 . S
Co289 N300 1.995 . S
Co289 N305 2.282 . S
Co289 N311 2.282 1_545 S
N290 Co289 1.995 . S
N290 C291 1.376 . S
N290 C294 1.383 . S
C291 N290 1.376 . S
C291 C292 1.446 . S
C291 C321 1.391 . S
C292 C291 1.446 . S
C292 C293 1.339 . S
C292 H327 0.949 . S
C293 C292 1.339 . S
C293 C294 1.439 . S
C293 H328 0.950 . S
C294 N290 1.383 . S
C294 C293 1.439 . S
C294 C323 1.392 . S
N295 Co289 2.008 . S
N295 C296 1.376 . S
N295 C299 1.374 . S
C296 N295 1.376 . S
C296 C297 1.443 . S
C296 C323 1.389 . S
C297 C296 1.443 . S
C297 C298 1.340 . S
C297 H329 0.951 . S
C298 C297 1.340 . S
C298 C299 1.439 . S
C298 H330 0.950 . S
C299 N295 1.374 . S
C299 C298 1.439 . S
C299 C324 1.395 . S
N300 Co289 1.995 . S
N300 C301 1.376 . S
N300 C304 1.383 1_545 S
C301 N300 1.376 . S
C301 C302 1.446 1_545 S
C301 C324 1.391 . S
C302 C301 1.446 1_565 S
C302 C303 1.339 . S
C302 H331 0.949 . S
C303 C302 1.339 . S
C303 C304 1.439 . S
C303 H332 0.950 . S
C304 N300 1.383 1_565 S
C304 C303 1.439 . S
C304 C322 1.392 . S
N305 Co289 2.282 . S
N305 C308 1.332 . S
N305 C310 1.332 . S
C306 C307 1.386 . S
C306 C309 1.388 . S
C307 C306 1.386 . S
C307 C308 1.382 . S
C307 H333 0.950 . S
C308 N305 1.332 . S
C308 C307 1.382 . S
C308 H319 0.952 . S
C309 C306 1.388 . S
C309 C310 1.382 . S
C309 H334 0.950 . S
C310 N305 1.332 . S
C310 C309 1.382 . S
C310 H320 0.948 . S
N311 Co289 2.282 1_565 S
N311 C315 1.332 . S
N311 C316 1.332 . S
C312 C313 1.388 . S
C312 C316 1.382 . S
C312 H335 0.950 . S
C313 C312 1.388 . S
C313 C314 1.386 . S
C314 C313 1.386 . S
C314 C315 1.382 . S
C314 H336 0.950 . S
C315 N311 1.332 . S
C315 C314 1.382 . S
C315 H317 0.952 . S
C316 N311 1.332 . S
C316 C312 1.382 . S
C316 H318 0.948 . S
H317 C315 0.952 . S
H318 C316 0.948 . S
H319 C308 0.952 . S
H320 C310 0.948 . S
C321 C287 1.395 . S
C321 C291 1.391 . S
C322 C284 1.389 . S
C322 C304 1.392 . S
C323 C294 1.392 . S
C323 C296 1.389 . S
C324 C299 1.395 . S
C324 C301 1.391 . S
H325 C285 0.951 . S
H326 C286 0.950 . S
H327 C292 0.949 . S
H328 C293 0.950 . S
H329 C297 0.951 . S
H330 C298 0.950 . S
H331 C302 0.949 . S
H332 C303 0.950 . S
H333 C307 0.950 . S
H334 C309 0.950 . S
H335 C312 0.950 . S
H336 C314 0.950 . S
C337 C338 1.443 . S
C337 N341 1.376 . S
C337 C375 1.389 . S
C338 C337 1.443 . S
C338 C339 1.340 . S
C338 H378 0.951 . S
C339 C338 1.340 . S
C339 C340 1.439 . S
C339 H379 0.950 . S
C340 C339 1.439 . S
C340 N341 1.374 . S
C340 C374 1.395 . S
N341 C337 1.376 . S
N341 C340 1.374 . S
N341 Co342 2.008 . S
Co342 N341 2.008 . S
Co342 N343 1.995 . S
Co342 N348 2.008 . S
Co342 N353 1.995 . S
Co342 N358 2.303 . S
Co342 N364 2.282 . S
N343 Co342 1.995 . S
N343 C344 1.376 . S
N343 C347 1.383 1_554 S
C344 N343 1.376 . S
C344 C345 1.446 1_554 S
C344 C374 1.391 . S
C345 C344 1.446 1_556 S
C345 C346 1.339 . S
C345 H380 0.949 . S
C346 C345 1.339 . S
C346 C347 1.439 . S
C346 H381 0.950 . S
C347 N343 1.383 1_556 S
C347 C346 1.439 . S
C347 C376 1.392 . S
N348 Co342 2.008 . S
N348 C349 1.376 1_554 S
N348 C352 1.374 . S
C349 N348 1.376 1_556 S
C349 C350 1.443 . S
C349 C376 1.389 . S
C350 C349 1.443 . S
C350 C351 1.340 . S
C350 H382 0.951 . S
C351 C350 1.340 . S
C351 C352 1.439 1_556 S
C351 H383 0.950 . S
C352 N348 1.374 . S
C352 C351 1.439 1_554 S
C352 C377 1.395 . S
N353 Co342 1.995 . S
N353 C354 1.376 . S
N353 C357 1.383 . S
C354 N353 1.376 . S
C354 C355 1.446 . S
C354 C377 1.391 . S
C355 C354 1.446 . S
C355 C356 1.339 . S
C355 H384 0.949 . S
C356 C355 1.339 . S
C356 C357 1.439 . S
C356 H385 0.950 . S
C357 N353 1.383 . S
C357 C356 1.439 . S
C357 C375 1.392 . S
N358 Co342 2.303 . S
N358 C361 1.323 1_554 S
N358 C363 1.317 1_554 S
C359 C360 1.386 . S
C359 C362 1.388 . S
C360 C359 1.386 . S
C360 C361 1.382 . S
C360 H386 0.950 . S
C361 N358 1.323 1_556 S
C361 C360 1.382 . S
C361 H372 0.952 1_556 S
C362 C359 1.388 . S
C362 C363 1.382 . S
C362 H387 0.950 . S
C363 N358 1.317 1_556 S
C363 C362 1.382 . S
C363 H373 0.948 . S
N364 Co342 2.282 . S
N364 C368 1.332 . S
N364 C369 1.332 . S
C365 C366 1.388 . S
C365 C369 1.382 . S
C365 H388 0.950 . S
C366 C365 1.388 . S
C366 C367 1.386 . S
C367 C366 1.386 . S
C367 C368 1.382 . S
C367 H389 0.950 . S
C368 N364 1.332 . S
C368 C367 1.382 . S
C368 H370 0.952 . S
C369 N364 1.332 . S
C369 C365 1.382 . S
C369 H371 0.948 . S
H370 C368 0.952 . S
H371 C369 0.948 . S
H372 C361 0.952 1_554 S
H373 C363 0.948 . S
C374 C340 1.395 . S
C374 C344 1.391 . S
C375 C337 1.389 . S
C375 C357 1.392 . S
C376 C347 1.392 . S
C376 C349 1.389 . S
C377 C352 1.395 . S
C377 C354 1.391 . S
H378 C338 0.951 . S
H379 C339 0.950 . S
H380 C345 0.949 . S
H381 C346 0.950 . S
H382 C350 0.951 . S
H383 C351 0.950 . S
H384 C355 0.949 . S
H385 C356 0.950 . S
H386 C360 0.950 . S
H387 C362 0.950 . S
H388 C365 0.950 . S
H389 C367 0.950 . S
C390 C391 1.387 . S
C390 H394 0.950 . S
C390 C399 1.390 . S
C391 C390 1.387 . S
C391 C393 1.387 . S
H392 C399 0.950 . S
C393 C391 1.387 . S
C393 C395 1.390 . S
C393 H397 0.950 . S
H394 C390 0.950 . S
C395 C393 1.390 . S
C395 C396 1.387 . S
C395 H398 0.950 . S
C396 C395 1.387 . S
C396 C399 1.387 . S
H397 C393 0.950 . S
H398 C395 0.950 . S
C399 C390 1.390 . S
C399 H392 0.950 . S
C399 C396 1.387 . S
C400 C401 1.387 . S
C400 H404 0.950 . S
C400 C409 1.390 . S
C401 C400 1.387 . S
C401 C403 1.387 . S
H402 C409 0.950 . S
C403 C401 1.387 . S
C403 C405 1.390 . S
C403 H407 0.950 . S
H404 C400 0.950 . S
C405 C403 1.390 . S
C405 C406 1.387 . S
C405 H408 0.950 . S
C406 C405 1.387 . S
C406 C409 1.387 . S
H407 C403 0.950 . S
H408 C405 0.950 . S
C409 C400 1.390 . S
C409 H402 0.950 . S
C409 C406 1.387 . S
C410 C411 1.387 . S
C410 H414 0.950 . S
C410 C419 1.390 . S
C411 C410 1.387 . S
C411 C413 1.387 . S
H412 C419 0.950 . S
C413 C411 1.387 . S
C413 C415 1.390 . S
C413 H417 0.950 . S
H414 C410 0.950 . S
C415 C413 1.390 . S
C415 C416 1.387 . S
C415 H418 0.950 . S
C416 C415 1.387 . S
C416 C419 1.387 . S
H417 C413 0.950 . S
H418 C415 0.950 . S
C419 C410 1.390 . S
C419 H412 0.950 . S
C419 C416 1.387 . S
C420 C421 1.387 . S
C420 H424 0.950 . S
C420 C429 1.390 . S
C421 C420 1.387 . S
C421 C423 1.387 . S
H422 C429 0.950 . S
C423 C421 1.387 . S
C423 C425 1.390 . S
C423 H427 0.950 . S
H424 C420 0.950 . S
C425 C423 1.390 . S
C425 C426 1.387 . S
C425 H428 0.950 . S
C426 C425 1.387 . S
C426 C429 1.387 . S
H427 C423 0.950 . S
H428 C425 0.950 . S
C429 C420 1.390 . S
C429 H422 0.950 . S
C429 C426 1.387 . S
C430 C431 1.387 . S
C430 H434 0.950 . S
C430 C439 1.390 . S
C431 C430 1.387 . S
C431 C433 1.387 . S
H432 C439 0.950 . S
C433 C431 1.387 . S
C433 C435 1.390 . S
C433 H437 0.950 . S
H434 C430 0.950 . S
C435 C433 1.390 . S
C435 C436 1.387 . S
C435 H438 0.950 . S
C436 C435 1.387 . S
C436 C439 1.387 . S
H437 C433 0.950 . S
H438 C435 0.950 . S
C439 C430 1.390 . S
C439 H432 0.950 . S
C439 C436 1.387 . S
C440 C441 1.387 . S
C440 H444 0.950 . S
C440 C449 1.390 . S
C441 C440 1.387 . S
C441 C443 1.387 . S
H442 C449 0.950 . S
C443 C441 1.387 . S
C443 C445 1.390 . S
C443 H447 0.950 . S
H444 C440 0.950 . S
C445 C443 1.390 . S
C445 C446 1.387 . S
C445 H448 0.950 . S
C446 C445 1.387 . S
C446 C449 1.387 . S
H447 C443 0.950 . S
H448 C445 0.950 . S
C449 C440 1.390 . S
C449 H442 0.950 . S
C449 C446 1.387 . S
C450 C451 1.387 . S
C450 H454 0.950 . S
C450 C459 1.390 . S
C451 C450 1.387 . S
C451 C453 1.387 . S
H452 C459 0.950 . S
C453 C451 1.387 . S
C453 C455 1.390 . S
C453 H457 0.950 . S
H454 C450 0.950 . S
C455 C453 1.390 . S
C455 C456 1.387 . S
C455 H458 0.950 . S
C456 C455 1.387 . S
C456 C459 1.387 . S
H457 C453 0.950 . S
H458 C455 0.950 . S
C459 C450 1.390 . S
C459 H452 0.950 . S
C459 C456 1.387 . S
C460 C461 1.387 . S
C460 H464 0.950 . S
C460 C469 1.390 . S
C461 C460 1.387 . S
C461 C463 1.387 . S
H462 C469 0.950 . S
C463 C461 1.387 . S
C463 C465 1.390 . S
C463 H467 0.950 . S
H464 C460 0.950 . S
C465 C463 1.390 . S
C465 C466 1.387 . S
C465 H468 0.950 . S
C466 C465 1.387 . S
C466 C469 1.387 . S
H467 C463 0.950 . S
H468 C465 0.950 . S
C469 C460 1.390 . S
C469 H462 0.950 . S
C469 C466 1.387 . S
C470 C471 1.387 . S
C470 H474 0.950 . S
C470 C479 1.390 . S
C471 C470 1.387 . S
C471 C473 1.387 . S
H472 C479 0.950 . S
C473 C471 1.387 . S
C473 C475 1.390 . S
C473 H477 0.950 . S
H474 C470 0.950 . S
C475 C473 1.390 . S
C475 C476 1.387 . S
C475 H478 0.950 . S
C476 C475 1.387 . S
C476 C479 1.387 . S
H477 C473 0.950 . S
H478 C475 0.950 . S
C479 C470 1.390 . S
C479 H472 0.950 . S
C479 C476 1.387 . S
C480 C481 1.387 . S
C480 H484 0.950 . S
C480 C489 1.390 . S
C481 C480 1.387 . S
C481 C483 1.387 . S
H482 C489 0.950 . S
C483 C481 1.387 . S
C483 C485 1.390 . S
C483 H487 0.950 . S
H484 C480 0.950 . S
C485 C483 1.390 . S
C485 C486 1.387 . S
C485 H488 0.950 . S
C486 C485 1.387 . S
C486 C489 1.387 . S
H487 C483 0.950 . S
H488 C485 0.950 . S
C489 C480 1.390 . S
C489 H482 0.950 . S
C489 C486 1.387 . S
C490 C491 1.387 . S
C490 H494 0.950 . S
C490 C499 1.390 . S
C491 C490 1.387 . S
C491 C493 1.387 . S
H492 C499 0.950 . S
C493 C491 1.387 . S
C493 C495 1.390 . S
C493 H497 0.950 . S
H494 C490 0.950 . S
C495 C493 1.390 . S
C495 C496 1.387 . S
C495 H498 0.950 . S
C496 C495 1.387 . S
C496 C499 1.387 . S
H497 C493 0.950 . S
H498 C495 0.950 . S
C499 C490 1.390 . S
C499 H492 0.950 . S
C499 C496 1.387 . S
C500 C501 1.387 . S
C500 H504 0.950 . S
C500 C509 1.390 . S
C501 C500 1.387 . S
C501 C503 1.387 . S
H502 C509 0.950 . S
C503 C501 1.387 . S
C503 C505 1.390 . S
C503 H507 0.950 . S
H504 C500 0.950 . S
C505 C503 1.390 . S
C505 C506 1.387 . S
C505 H508 0.950 . S
C506 C505 1.387 . S
C506 C509 1.387 . S
H507 C503 0.950 . S
H508 C505 0.950 . S
C509 C500 1.390 . S
C509 H502 0.950 . S
C509 C506 1.387 . S
C510 C511 1.387 . S
C510 H514 0.950 . S
C510 C519 1.390 . S
C511 C510 1.387 . S
C511 C513 1.387 . S
H512 C519 0.950 . S
C513 C511 1.387 . S
C513 C515 1.390 . S
C513 H517 0.950 . S
H514 C510 0.950 . S
C515 C513 1.390 . S
C515 C516 1.387 . S
C515 H518 0.950 . S
C516 C515 1.387 . S
C516 C519 1.387 . S
H517 C513 0.950 . S
H518 C515 0.950 . S
C519 C510 1.390 . S
C519 H512 0.950 . S
C519 C516 1.387 . S
C520 C521 1.387 . S
C520 H524 0.950 . S
C520 C529 1.390 . S
C521 C520 1.387 . S
C521 C523 1.387 . S
H522 C529 0.950 . S
C523 C521 1.387 . S
C523 C525 1.390 . S
C523 H527 0.950 . S
H524 C520 0.950 . S
C525 C523 1.390 . S
C525 C526 1.387 . S
C525 H528 0.950 . S
C526 C525 1.387 . S
C526 C529 1.387 . S
H527 C523 0.950 . S
H528 C525 0.950 . S
C529 C520 1.390 . S
C529 H522 0.950 . S
C529 C526 1.387 . S
C530 C531 1.387 . S
C530 H534 0.950 . S
C530 C539 1.390 . S
C531 C530 1.387 . S
C531 C533 1.387 . S
H532 C539 0.950 . S
C533 C531 1.387 . S
C533 C535 1.390 . S
C533 H537 0.950 . S
H534 C530 0.950 . S
C535 C533 1.390 . S
C535 C536 1.387 . S
C535 H538 0.950 . S
C536 C535 1.387 . S
C536 C539 1.387 . S
H537 C533 0.950 . S
H538 C535 0.950 . S
C539 C530 1.390 . S
C539 H532 0.950 . S
C539 C536 1.387 . S
C540 C541 1.387 . S
C540 H544 0.950 . S
C540 C549 1.390 . S
C541 C540 1.387 . S
C541 C543 1.387 . S
H542 C549 0.950 . S
C543 C541 1.387 . S
C543 C545 1.390 . S
C543 H547 0.950 . S
H544 C540 0.950 . S
C545 C543 1.390 . S
C545 C546 1.387 . S
C545 H548 0.950 . S
C546 C545 1.387 . S
C546 C549 1.387 . S
H547 C543 0.950 . S
H548 C545 0.950 . S
C549 C540 1.390 . S
C549 H542 0.950 . S
C549 C546 1.387 . S
C550 C551 1.387 . S
C550 H554 0.950 . S
C550 C559 1.390 . S
C551 C550 1.387 . S
C551 C553 1.387 . S
H552 C559 0.950 . S
C553 C551 1.387 . S
C553 C555 1.390 . S
C553 H557 0.950 . S
H554 C550 0.950 . S
C555 C553 1.390 . S
C555 C556 1.387 . S
C555 H558 0.950 . S
C556 C555 1.387 . S
C556 C559 1.387 . S
H557 C553 0.950 . S
H558 C555 0.950 . S
C559 C550 1.390 . S
C559 H552 0.950 . S
C559 C556 1.387 . S
C560 C561 1.387 . S
C560 H564 0.950 . S
C560 C569 1.390 . S
C561 C560 1.387 . S
C561 C563 1.387 . S
H562 C569 0.950 . S
C563 C561 1.387 . S
C563 C565 1.390 . S
C563 H567 0.950 . S
H564 C560 0.950 . S
C565 C563 1.390 . S
C565 C566 1.387 . S
C565 H568 0.950 . S
C566 C565 1.387 . S
C566 C569 1.387 . S
H567 C563 0.950 . S
H568 C565 0.950 . S
C569 C560 1.390 . S
C569 H562 0.950 . S
C569 C566 1.387 . S
C570 C571 1.387 . S
C570 H574 0.950 . S
C570 C579 1.390 . S
C571 C570 1.387 . S
C571 C573 1.387 . S
H572 C579 0.950 . S
C573 C571 1.387 . S
C573 C575 1.390 . S
C573 H577 0.950 . S
H574 C570 0.950 . S
C575 C573 1.390 . S
C575 C576 1.387 . S
C575 H578 0.950 . S
C576 C575 1.387 . S
C576 C579 1.387 . S
H577 C573 0.950 . S
H578 C575 0.950 . S
C579 C570 1.390 . S
C579 H572 0.950 . S
C579 C576 1.387 . S
C580 C581 1.387 . S
C580 H584 0.950 . S
C580 C589 1.390 . S
C581 C580 1.387 . S
C581 C583 1.387 . S
H582 C589 0.950 . S
C583 C581 1.387 . S
C583 C585 1.390 . S
C583 H587 0.950 . S
H584 C580 0.950 . S
C585 C583 1.390 . S
C585 C586 1.387 . S
C585 H588 0.950 . S
C586 C585 1.387 . S
C586 C589 1.387 . S
H587 C583 0.950 . S
H588 C585 0.950 . S
C589 C580 1.390 . S
C589 H582 0.950 . S
C589 C586 1.387 . S
C590 C591 1.387 . S
C590 H594 0.950 . S
C590 C599 1.390 . S
C591 C590 1.387 . S
C591 C593 1.387 . S
H592 C599 0.950 . S
C593 C591 1.387 . S
C593 C595 1.390 . S
C593 H597 0.950 . S
H594 C590 0.950 . S
C595 C593 1.390 . S
C595 C596 1.387 . S
C595 H598 0.950 . S
C596 C595 1.387 . S
C596 C599 1.387 . S
H597 C593 0.950 . S
H598 C595 0.950 . S
C599 C590 1.390 . S
C599 H592 0.950 . S
C599 C596 1.387 . S
C600 C601 1.387 . S
C600 H604 0.950 . S
C600 C609 1.390 . S
C601 C600 1.387 . S
C601 C603 1.387 . S
H602 C609 0.950 . S
C603 C601 1.387 . S
C603 C605 1.390 . S
C603 H607 0.950 . S
H604 C600 0.950 . S
C605 C603 1.390 . S
C605 C606 1.387 . S
C605 H608 0.950 . S
C606 C605 1.387 . S
C606 C609 1.387 . S
H607 C603 0.950 . S
H608 C605 0.950 . S
C609 C600 1.390 . S
C609 H602 0.950 . S
C609 C606 1.387 . S
C610 C611 1.387 . S
C610 H614 0.950 . S
C610 C619 1.390 . S
C611 C610 1.387 . S
C611 C613 1.387 . S
H612 C619 0.950 . S
C613 C611 1.387 . S
C613 C615 1.390 . S
C613 H617 0.950 . S
H614 C610 0.950 . S
C615 C613 1.390 . S
C615 C616 1.387 . S
C615 H618 0.950 . S
C616 C615 1.387 . S
C616 C619 1.387 . S
H617 C613 0.950 . S
H618 C615 0.950 . S
C619 C610 1.390 . S
C619 H612 0.950 . S
C619 C616 1.387 . S
C620 C621 1.387 . S
C620 H624 0.950 . S
C620 C629 1.390 . S
C621 C620 1.387 . S
C621 C623 1.387 . S
H622 C629 0.950 . S
C623 C621 1.387 . S
C623 C625 1.390 . S
C623 H627 0.950 . S
H624 C620 0.950 . S
C625 C623 1.390 . S
C625 C626 1.387 . S
C625 H628 0.950 . S
C626 C625 1.387 . S
C626 C629 1.387 . S
H627 C623 0.950 . S
H628 C625 0.950 . S
C629 C620 1.390 . S
C629 H622 0.950 . S
C629 C626 1.387 . S
C396 C94 1.545 . S
C391 C4 1.551 . S
C406 C163 1.535 . S
C401 C13 1.547 . S
C416 C101 1.539 . S
C411 C25 1.549 . S
C426 C164 1.537 . S
C421 C34 1.545 . S
C436 C217 1.544 . S
C431 C7 1.547 . S
C446 C253 1.519 . S
C441 C14 1.518 . S
C451 C23 1.533 . S
C456 C313 1.530 . S
C466 C376 1.520 . S
C461 C31 1.521 . S
C476 C216 1.534 . S
C471 C16 1.544 . S
C481 C22 1.521 . S
C486 C260 1.519 . S
C496 C306 1.532 . S
C491 C32 1.533 . S
C506 C375 1.522 . S
C501 C5 1.522 . S
C511 C43 1.552 . S
C516 C154 1.544 . S
C526 C111 1.535 . S
C521 C52 1.548 . S
C531 C58 1.552 . S
C536 C147 1.541 . S
C541 C68 1.546 . S
C546 C110 1.538 . S
C556 C322 1.539 . S
C551 C40 1.540 . S
C566 C366 1.515 . S
C561 C50 1.515 . S
C576 C200 1.547 . S
C571 C59 1.554 . S
C581 C70 1.512 . S
C586 C269 1.511 . S
C596 C323 1.531 . S
C591 C49 1.537 . S
C606 C359 1.512 . S
C601 C61 1.513 . S
C616 C207 1.548 . S
C611 C67 1.555 . S
C621 C41 1.517 . S
C626 C270 1.516 . S
