# Generated by pormake.
# Topology ssb, (4,4)-cn, num edge types: 1
# Building blocks:
#     Node 0, Type 0, BuildingBlock: NAHDIM_clean_linker_0, # of connection points: 4
#     Node 1, Type 0, BuildingBlock: NAHDIM_clean_linker_0, # of connection points: 4
#     Node 2, Type 0, BuildingBlock: NAHDIM_clean_linker_0, # of connection points: 4
#     Node 3, Type 0, BuildingBlock: NAHDIM_clean_linker_0, # of connection points: 4
#     Node 4, Type 0, BuildingBlock: NAHDIM_clean_linker_0, # of connection points: 4
#     Node 5, Type 0, BuildingBlock: NAHDIM_clean_linker_0, # of connection points: 4
#     Node 6, Type 0, BuildingBlock: NAHDIM_clean_linker_0, # of connection points: 4
#     Node 7, Type 0, BuildingBlock: NAHDIM_clean_linker_0, # of connection points: 4
#     Node 8, Type 1, BuildingBlock: KOZSID_clean_sbu_0, # of connection points: 4
#     Node 9, Type 1, BuildingBlock: KOZSID_clean_sbu_0, # of connection points: 4
#     Node 10, Type 1, BuildingBlock: KOZSID_clean_sbu_0, # of connection points: 4
#     Node 11, Type 1, BuildingBlock: KOZSID_clean_sbu_0, # of connection points: 4
#     Node 12, Type 1, BuildingBlock: KOZSID_clean_sbu_0, # of connection points: 4
#     Node 13, Type 1, BuildingBlock: KOZSID_clean_sbu_0, # of connection points: 4
#     Node 14, Type 1, BuildingBlock: KOZSID_clean_sbu_0, # of connection points: 4
#     Node 15, Type 1, BuildingBlock: KOZSID_clean_sbu_0, # of connection points: 4
#     Edge 16, Type (0, 1), BuildingBlock: CIFDUS_clean_linker_0, # of connection points: 2
#     Edge 17, Type (0, 1), BuildingBlock: CIFDUS_clean_linker_0, # of connection points: 2
#     Edge 18, Type (0, 1), BuildingBlock: CIFDUS_clean_linker_0, # of connection points: 2
#     Edge 19, Type (0, 1), BuildingBlock: CIFDUS_clean_linker_0, # of connection points: 2
#     Edge 20, Type (0, 1), BuildingBlock: CIFDUS_clean_linker_0, # of connection points: 2
#     Edge 21, Type (0, 1), BuildingBlock: CIFDUS_clean_linker_0, # of connection points: 2
#     Edge 22, Type (0, 1), BuildingBlock: CIFDUS_clean_linker_0, # of connection points: 2
#     Edge 23, Type (0, 1), BuildingBlock: CIFDUS_clean_linker_0, # of connection points: 2
#     Edge 24, Type (0, 1), BuildingBlock: CIFDUS_clean_linker_0, # of connection points: 2
#     Edge 25, Type (0, 1), BuildingBlock: CIFDUS_clean_linker_0, # of connection points: 2
#     Edge 26, Type (0, 1), BuildingBlock: CIFDUS_clean_linker_0, # of connection points: 2
#     Edge 27, Type (0, 1), BuildingBlock: CIFDUS_clean_linker_0, # of connection points: 2
#     Edge 28, Type (0, 1), BuildingBlock: CIFDUS_clean_linker_0, # of connection points: 2
#     Edge 29, Type (0, 1), BuildingBlock: CIFDUS_clean_linker_0, # of connection points: 2
#     Edge 30, Type (0, 1), BuildingBlock: CIFDUS_clean_linker_0, # of connection points: 2
#     Edge 31, Type (0, 1), BuildingBlock: CIFDUS_clean_linker_0, # of connection points: 2
#     Edge 32, Type (0, 1), BuildingBlock: CIFDUS_clean_linker_0, # of connection points: 2
#     Edge 33, Type (0, 1), BuildingBlock: CIFDUS_clean_linker_0, # of connection points: 2
#     Edge 34, Type (0, 1), BuildingBlock: CIFDUS_clean_linker_0, # of connection points: 2
#     Edge 35, Type (0, 1), BuildingBlock: CIFDUS_clean_linker_0, # of connection points: 2
#     Edge 36, Type (0, 1), BuildingBlock: CIFDUS_clean_linker_0, # of connection points: 2
#     Edge 37, Type (0, 1), BuildingBlock: CIFDUS_clean_linker_0, # of connection points: 2
#     Edge 38, Type (0, 1), BuildingBlock: CIFDUS_clean_linker_0, # of connection points: 2
#     Edge 39, Type (0, 1), BuildingBlock: CIFDUS_clean_linker_0, # of connection points: 2
#     Edge 40, Type (0, 1), BuildingBlock: CIFDUS_clean_linker_0, # of connection points: 2
#     Edge 41, Type (0, 1), BuildingBlock: CIFDUS_clean_linker_0, # of connection points: 2
#     Edge 42, Type (0, 1), BuildingBlock: CIFDUS_clean_linker_0, # of connection points: 2
#     Edge 43, Type (0, 1), BuildingBlock: CIFDUS_clean_linker_0, # of connection points: 2
#     Edge 44, Type (0, 1), BuildingBlock: CIFDUS_clean_linker_0, # of connection points: 2
#     Edge 45, Type (0, 1), BuildingBlock: CIFDUS_clean_linker_0, # of connection points: 2
#     Edge 46, Type (0, 1), BuildingBlock: CIFDUS_clean_linker_0, # of connection points: 2
#     Edge 47, Type (0, 1), BuildingBlock: CIFDUS_clean_linker_0, # of connection points: 2
# Relax obj value: 0.005
# Max RMSD: 0.053
# Mean RMSD: 0.033
data_MOF--net-ssb--node1-KOZSID_clean_sbu_0--node2-NAHDIM_clean_linker_0--edge1-CIFDUS_clean_linker_0
_symmetry_space_group_name_H-M    P1
_symmetry_Int_Tables_number       1
_symmetry_cell_setting            triclinic
loop_
_symmetry_equiv_pos_as_xyz
'x, y, z'
_cell_length_a     66.208454
_cell_length_b     66.136017
_cell_length_c     48.352583
_cell_angle_alpha  92.130828
_cell_angle_beta   94.369468
_cell_angle_gamma 89.999612
loop_
_atom_site_label
_atom_site_type_symbol
_atom_site_fract_x
_atom_site_fract_y
_atom_site_fract_z
_atom_type_partial_charge
C0 C 0.33561 0.15445 0.40735 0.0
C1 C 0.31355 0.15531 0.41509 0.0
C2 C 0.29718 0.17169 0.37424 0.0
C3 C 0.3052 0.19117 0.38057 0.0
C4 C 0.30244 0.20663 0.36154 0.0
C5 C 0.29138 0.20262 0.33574 0.0
C6 C 0.28273 0.18326 0.32965 0.0
C7 C 0.28569 0.16807 0.34907 0.0
C8 C 0.3118 0.22715 0.36872 0.0
C9 C 0.27076 0.17854 0.30237 0.0
C10 C 0.39415 0.19358 0.23798 0.0
C11 C 0.38276 0.20235 0.21238 0.0
C12 C 0.3587 0.22614 0.23064 0.0
C13 C 0.34022 0.21707 0.22087 0.0
C14 C 0.32271 0.2204 0.23497 0.0
C15 C 0.3237 0.23314 0.2592 0.0
C16 C 0.342 0.24334 0.26799 0.0
C17 C 0.35926 0.23985 0.25336 0.0
C18 C 0.30329 0.20974 0.22459 0.0
C19 C 0.34351 0.25722 0.29354 0.0
C20 C 0.24699 0.34334 0.21601 0.0
C21 C 0.23983 0.3244 0.20565 0.0
C22 C 0.23875 0.30811 0.2233 0.0
C23 C 0.24544 0.31079 0.25174 0.0
C24 C 0.25239 0.33005 0.26224 0.0
C25 C 0.25275 0.34619 0.24424 0.0
C26 C 0.23048 0.28806 0.21157 0.0
C27 C 0.25959 0.33357 0.29241 0.0
C28 C 0.18061 0.2656 0.42743 0.0
C29 C 0.16981 0.28313 0.41262 0.0
C30 C 0.18265 0.27965 0.36617 0.0
C31 C 0.17823 0.27182 0.33914 0.0
C32 C 0.19298 0.27123 0.31973 0.0
C33 C 0.21259 0.27897 0.32753 0.0
C34 C 0.21703 0.28751 0.35458 0.0
C35 C 0.2021 0.2876 0.37368 0.0
C36 C 0.18774 0.26207 0.29105 0.0
C37 C 0.23765 0.29634 0.36342 0.0
C38 C 0.29015 0.21826 0.31444 0.0
C39 C 0.30576 0.21888 0.29666 0.0
C40 C 0.30644 0.2338 0.27705 0.0
C41 C 0.29113 0.24869 0.27505 0.0
C42 C 0.29156 0.2642 0.256 0.0
C43 C 0.27657 0.27898 0.25458 0.0
C44 C 0.26038 0.27862 0.27182 0.0
C45 C 0.24508 0.29359 0.27061 0.0
C46 C 0.22944 0.29292 0.28844 0.0
C47 C 0.22867 0.27777 0.30772 0.0
C48 C 0.24366 0.26253 0.30901 0.0
C49 C 0.24322 0.24694 0.32799 0.0
C50 C 0.25839 0.2324 0.32977 0.0
C51 C 0.27448 0.23276 0.31246 0.0
C52 C 0.27504 0.2481 0.29277 0.0
C53 C 0.25961 0.26302 0.29108 0.0
C54 C 0.28203 0.36375 0.18651 0.0
C55 C 0.25998 0.35895 0.17655 0.0
O56 O 0.30037 0.15594 0.3914 0.0
O57 O 0.16782 0.27906 0.38418 0.0
O58 O 0.24829 0.35911 0.19915 0.0
O59 O 0.37619 0.22177 0.21878 0.0
H60 H 0.31139 0.16901 0.42859 0.0
H61 H 0.33964 0.16833 0.39679 0.0
H62 H 0.33797 0.1412 0.39317 0.0
H63 H 0.34606 0.1533 0.42632 0.0
H64 H 0.31387 0.19442 0.40007 0.0
H65 H 0.27941 0.15309 0.34441 0.0
H66 H 0.32348 0.23026 0.35412 0.0
H67 H 0.31898 0.22824 0.39025 0.0
H68 H 0.30006 0.23909 0.36633 0.0
H69 H 0.26431 0.163 0.30122 0.0
H70 H 0.28069 0.1801 0.28508 0.0
H71 H 0.25821 0.18956 0.29931 0.0
H72 H 0.36969 0.19212 0.20649 0.0
H73 H 0.40016 0.17832 0.23278 0.0
H74 H 0.38368 0.19208 0.25467 0.0
H75 H 0.40691 0.20358 0.24605 0.0
H76 H 0.33948 0.20726 0.20239 0.0
H77 H 0.37352 0.24709 0.26036 0.0
H78 H 0.29063 0.22075 0.22303 0.0
H79 H 0.29951 0.1983 0.23964 0.0
H80 H 0.30443 0.20198 0.20399 0.0
H81 H 0.35845 0.26495 0.2967 0.0
H82 H 0.34117 0.24836 0.31209 0.0
H83 H 0.33142 0.26884 0.29191 0.0
H84 H 0.25945 0.34369 0.16596 0.0
H85 H 0.23485 0.32247 0.18384 0.0
H86 H 0.25804 0.36099 0.25199 0.0
H87 H 0.2429 0.27679 0.21151 0.0
H88 H 0.22359 0.28915 0.19 0.0
H89 H 0.21889 0.28232 0.22478 0.0
H90 H 0.26675 0.34869 0.29654 0.0
H91 H 0.27068 0.32176 0.29901 0.0
H92 H 0.24651 0.33247 0.30535 0.0
H93 H 0.17869 0.29729 0.41719 0.0
H94 H 0.182 0.26875 0.45024 0.0
H95 H 0.1961 0.2636 0.42048 0.0
H96 H 0.17208 0.25124 0.42288 0.0
H97 H 0.1632 0.26581 0.33342 0.0
H98 H 0.2059 0.29386 0.39438 0.0
H99 H 0.1985 0.24969 0.28663 0.0
H100 H 0.18928 0.27373 0.2754 0.0
H101 H 0.17206 0.25593 0.28858 0.0
H102 H 0.23799 0.30447 0.38398 0.0
H103 H 0.24226 0.307 0.34783 0.0
H104 H 0.24902 0.28402 0.36466 0.0
H105 H 0.31773 0.20767 0.29831 0.0
H106 H 0.30362 0.26516 0.24217 0.0
H107 H 0.27783 0.29069 0.23975 0.0
H108 H 0.21795 0.30464 0.28774 0.0
H109 H 0.23118 0.24587 0.34182 0.0
H110 H 0.25736 0.22085 0.34491 0.0
H111 H 0.29166 0.36361 0.16866 0.0
H112 H 0.28796 0.35217 0.20107 0.0
H113 H 0.28318 0.37885 0.19741 0.0
C114 C 0.65365 0.1585 0.13553 0.0
C115 C 0.65167 0.17993 0.14806 0.0
C116 C 0.68016 0.20143 0.16358 0.0
C117 C 0.67131 0.21412 0.18311 0.0
C118 C 0.68327 0.2238 0.20492 0.0
C119 C 0.70442 0.22026 0.20752 0.0
C120 C 0.71336 0.20766 0.18745 0.0
C121 C 0.70111 0.19885 0.1653 0.0
C122 C 0.67324 0.23748 0.22542 0.0
C123 C 0.73573 0.20288 0.18979 0.0
C124 C 0.74265 0.1881 0.42045 0.0
C125 C 0.73427 0.17437 0.39601 0.0
C126 C 0.72146 0.19354 0.35619 0.0
C127 C 0.73287 0.18471 0.3356 0.0
C128 C 0.73538 0.19464 0.31093 0.0
C129 C 0.72599 0.21359 0.30657 0.0
C130 C 0.71382 0.22211 0.32678 0.0
C131 C 0.71164 0.21189 0.35132 0.0
C132 C 0.74806 0.1849 0.28949 0.0
C133 C 0.7032 0.24207 0.32248 0.0
C134 C 0.84337 0.28487 0.33015 0.0
C135 C 0.84262 0.26998 0.30854 0.0
C136 C 0.82586 0.26833 0.28908 0.0
C137 C 0.80961 0.28209 0.29082 0.0
C138 C 0.81041 0.29735 0.31214 0.0
C139 C 0.82729 0.29849 0.33161 0.0
C140 C 0.82546 0.25175 0.26671 0.0
C141 C 0.79334 0.31226 0.31448 0.0
C142 C 0.76242 0.31905 0.07572 0.0
C143 C 0.76678 0.33044 0.10366 0.0
C144 C 0.78242 0.31424 0.14451 0.0
C145 C 0.79387 0.29716 0.15125 0.0
C146 C 0.79302 0.28841 0.17712 0.0
C147 C 0.78072 0.29733 0.1969 0.0
C148 C 0.77005 0.31537 0.19082 0.0
C149 C 0.77101 0.32366 0.16465 0.0
C150 C 0.805 0.26946 0.1831 0.0
C151 C 0.75731 0.32559 0.21179 0.0
C152 C 0.71701 0.22848 0.23214 0.0
C153 C 0.7155 0.21911 0.25735 0.0
C154 C 0.72853 0.22429 0.28061 0.0
C155 C 0.74395 0.23885 0.27862 0.0
C156 C 0.75825 0.24341 0.301 0.0
C157 C 0.77392 0.2571 0.29835 0.0
C158 C 0.7756 0.26707 0.27343 0.0
C159 C 0.79192 0.28035 0.2701 0.0
C160 C 0.79282 0.29047 0.24535 0.0
C161 C 0.77817 0.28717 0.22328 0.0
C162 C 0.76216 0.27334 0.2258 0.0
C163 C 0.74765 0.26901 0.20358 0.0
C164 C 0.73259 0.25461 0.20577 0.0
C165 C 0.73145 0.24402 0.23028 0.0
C166 C 0.7453 0.24885 0.25339 0.0
C167 C 0.76089 0.26328 0.25099 0.0
C168 C 0.86929 0.25357 0.36525 0.0
C169 C 0.87558 0.27367 0.3534 0.0
O170 O 0.66875 0.19101 0.1434 0.0
O171 O 0.7827 0.3211 0.11843 0.0
O172 O 0.85905 0.2865 0.35007 0.0
O173 O 0.71929 0.18463 0.38068 0.0
H174 H 0.65063 0.17822 0.17079 0.0
H175 H 0.66711 0.151 0.14573 0.0
H176 H 0.65554 0.15882 0.11292 0.0
H177 H 0.64001 0.14938 0.13887 0.0
H178 H 0.65507 0.21638 0.18131 0.0
H179 H 0.70772 0.18906 0.14995 0.0
H180 H 0.67255 0.22968 0.24526 0.0
H181 H 0.65756 0.24152 0.21777 0.0
H182 H 0.68219 0.25159 0.22981 0.0
H183 H 0.73949 0.19005 0.17562 0.0
H184 H 0.74087 0.1991 0.21138 0.0
H185 H 0.74441 0.21632 0.18434 0.0
H186 H 0.74749 0.17107 0.38373 0.0
H187 H 0.75428 0.18008 0.4337 0.0
H188 H 0.75428 0.18008 0.4337 0.0
H189 H 0.73055 0.19405 0.43316 0.0
H190 H 0.73962 0.16996 0.33851 0.0
H191 H 0.70253 0.21838 0.36708 0.0
H192 H 0.73849 0.18175 0.26994 0.0
H193 H 0.75505 0.17051 0.29647 0.0
H194 H 0.76028 0.19544 0.28472 0.0
H195 H 0.69386 0.24643 0.33987 0.0
H196 H 0.69329 0.24119 0.30288 0.0
H197 H 0.7146 0.25413 0.32044 0.0
H198 H 0.88192 0.27066 0.33299 0.0
H199 H 0.85495 0.25942 0.3067 0.0
H200 H 0.82796 0.30999 0.34823 0.0
H201 H 0.812 0.24193 0.26806 0.0
H202 H 0.83925 0.24216 0.26829 0.0
H203 H 0.82416 0.25849 0.24599 0.0
H204 H 0.79625 0.32328 0.33224 0.0
H205 H 0.77904 0.304 0.31707 0.0
H206 H 0.7911 0.32068 0.29504 0.0
H207 H 0.7526 0.32946 0.11454 0.0
H208 H 0.74986 0.32643 0.06333 0.0
H209 H 0.75783 0.30324 0.07922 0.0
H210 H 0.77607 0.31859 0.06369 0.0
H211 H 0.80297 0.29027 0.13575 0.0
H212 H 0.76284 0.33746 0.15997 0.0
H213 H 0.79495 0.25749 0.18999 0.0
H214 H 0.81678 0.2728 0.20021 0.0
H215 H 0.81254 0.26352 0.16473 0.0
H216 H 0.75131 0.34039 0.2048 0.0
H217 H 0.76639 0.32799 0.23191 0.0
H218 H 0.74434 0.31564 0.21544 0.0
H219 H 0.70432 0.20726 0.25872 0.0
H220 H 0.75773 0.23615 0.32063 0.0
H221 H 0.7847 0.25976 0.31609 0.0
H222 H 0.80549 0.30047 0.24285 0.0
H223 H 0.74793 0.27646 0.18406 0.0
H224 H 0.72195 0.25173 0.18793 0.0
H225 H 0.88266 0.24353 0.36843 0.0
H226 H 0.85792 0.24547 0.35089 0.0
H227 H 0.86256 0.25627 0.38543 0.0
C228 C 0.6761 0.86288 0.36486 0.0
C229 C 0.69843 0.86401 0.37596 0.0
C230 C 0.71354 0.84269 0.34015 0.0
C231 C 0.70674 0.82397 0.34882 0.0
C232 C 0.7085 0.80629 0.33224 0.0
C233 C 0.71722 0.80734 0.30652 0.0
C234 C 0.7248 0.82598 0.29826 0.0
C235 C 0.72298 0.8434 0.31533 0.0
C236 C 0.70053 0.78656 0.34181 0.0
C237 C 0.73422 0.8276 0.27098 0.0
C238 C 0.59804 0.79837 0.22 0.0
C239 C 0.61073 0.79339 0.1954 0.0
C240 C 0.63855 0.77099 0.20811 0.0
C241 C 0.65483 0.7809 0.1975 0.0
C242 C 0.67453 0.7792 0.21009 0.0
C243 C 0.67793 0.76737 0.23379 0.0
C244 C 0.66173 0.7562 0.24327 0.0
C245 C 0.64222 0.75797 0.23001 0.0
C246 C 0.69153 0.79087 0.19896 0.0
C247 C 0.6648 0.74341 0.26842 0.0
C248 C 0.76142 0.66316 0.18847 0.0
C249 C 0.76703 0.68241 0.18039 0.0
C250 C 0.76748 0.69908 0.19924 0.0
C251 C 0.7621 0.69644 0.22665 0.0
C252 C 0.75687 0.67696 0.235 0.0
C253 C 0.75685 0.6605 0.21582 0.0
C254 C 0.77383 0.71951 0.18993 0.0
C255 C 0.7512 0.67359 0.26411 0.0
C256 C 0.84601 0.76316 0.39676 0.0
C257 C 0.85393 0.7428 0.38601 0.0
C258 C 0.83486 0.73929 0.34022 0.0
C259 C 0.8355 0.74403 0.31239 0.0
C260 C 0.81819 0.74231 0.29379 0.0
C261 C 0.79988 0.73512 0.30318 0.0
C262 C 0.79927 0.72961 0.33112 0.0
C263 C 0.81665 0.73207 0.34947 0.0
C264 C 0.81944 0.74837 0.26418 0.0
C265 C 0.78024 0.72114 0.34168 0.0
C266 C 0.71677 0.78934 0.28726 0.0
C267 C 0.69922 0.78606 0.26983 0.0
C268 C 0.69735 0.76942 0.25117 0.0
C269 C 0.7135 0.75552 0.24972 0.0
C270 C 0.71225 0.73868 0.23109 0.0
C271 C 0.72823 0.72503 0.23005 0.0
C272 C 0.74608 0.72775 0.24758 0.0
C273 C 0.76241 0.714 0.24671 0.0
C274 C 0.77967 0.71688 0.26494 0.0
C275 C 0.78134 0.7334 0.28386 0.0
C276 C 0.76542 0.74764 0.28451 0.0
C277 C 0.76684 0.76478 0.30268 0.0
C278 C 0.75093 0.77846 0.30364 0.0
C279 C 0.73307 0.77562 0.2863 0.0
C280 C 0.7314 0.75862 0.26748 0.0
C281 C 0.74765 0.74466 0.26651 0.0
C282 C 0.72864 0.64416 0.14442 0.0
C283 C 0.75161 0.64652 0.14371 0.0
O284 O 0.71099 0.86043 0.35463 0.0
O285 O 0.85211 0.74186 0.3572 0.0
O286 O 0.76065 0.64684 0.17055 0.0
O287 O 0.61915 0.7743 0.1982 0.0
H288 H 0.70142 0.85259 0.39207 0.0
H289 H 0.67218 0.84748 0.35623 0.0
H290 H 0.67295 0.87383 0.34819 0.0
H291 H 0.66611 0.86636 0.38187 0.0
H292 H 0.69976 0.82302 0.36823 0.0
H293 H 0.72837 0.85785 0.30894 0.0
H294 H 0.68725 0.78157 0.3278 0.0
H295 H 0.69584 0.78785 0.36338 0.0
H296 H 0.71228 0.77464 0.34068 0.0
H297 H 0.73988 0.84311 0.26789 0.0
H298 H 0.72287 0.82339 0.25362 0.0
H299 H 0.74702 0.81682 0.26999 0.0
H300 H 0.62273 0.80528 0.19651 0.0
H301 H 0.58964 0.81274 0.21681 0.0
H302 H 0.6082 0.80022 0.23931 0.0
H303 H 0.58719 0.786 0.22306 0.0
H304 H 0.65204 0.79037 0.17981 0.0
H305 H 0.62954 0.75012 0.23771 0.0
H306 H 0.70513 0.78114 0.1977 0.0
H307 H 0.69574 0.80391 0.21338 0.0
H308 H 0.68719 0.79671 0.1781 0.0
H309 H 0.65092 0.73483 0.27229 0.0
H310 H 0.66919 0.75325 0.28702 0.0
H311 H 0.67733 0.73254 0.26572 0.0
H312 H 0.75458 0.66091 0.13356 0.0
H313 H 0.77149 0.6844 0.1596 0.0
H314 H 0.75283 0.64551 0.22193 0.0
H315 H 0.76095 0.73021 0.19067 0.0
H316 H 0.77881 0.7188 0.16849 0.0
H317 H 0.78641 0.72572 0.20426 0.0
H318 H 0.74615 0.65781 0.26678 0.0
H319 H 0.73886 0.6841 0.26937 0.0
H320 H 0.76445 0.67694 0.27906 0.0
H321 H 0.84517 0.7303 0.39415 0.0
H322 H 0.84743 0.76407 0.41982 0.0
H323 H 0.82976 0.76492 0.38977 0.0
H324 H 0.85466 0.77584 0.38883 0.0
H325 H 0.84961 0.74948 0.30537 0.0
H326 H 0.81579 0.72814 0.37083 0.0
H327 H 0.807 0.75901 0.25827 0.0
H328 H 0.81753 0.73476 0.25008 0.0
H329 H 0.83415 0.75564 0.26091 0.0
H330 H 0.78312 0.71463 0.36246 0.0
H331 H 0.77356 0.70921 0.32699 0.0
H332 H 0.76887 0.73337 0.34327 0.0
H333 H 0.68675 0.79665 0.27085 0.0
H334 H 0.69887 0.73587 0.21716 0.0
H335 H 0.7264 0.71226 0.21539 0.0
H336 H 0.79201 0.70609 0.2644 0.0
H337 H 0.78025 0.7678 0.31644 0.0
H338 H 0.75279 0.79131 0.31817 0.0
H339 H 0.72493 0.63002 0.15472 0.0
H340 H 0.7212 0.64373 0.12302 0.0
H341 H 0.72242 0.65721 0.15613 0.0
C342 C 0.38148 0.81488 0.1852 0.0
C343 C 0.37558 0.79665 0.16573 0.0
C344 C 0.33962 0.79257 0.17394 0.0
C345 C 0.34272 0.78248 0.19905 0.0
C346 C 0.32654 0.77868 0.21524 0.0
C347 C 0.3069 0.78544 0.20655 0.0
C348 C 0.30363 0.7954 0.18121 0.0
C349 C 0.32003 0.79858 0.16505 0.0
C350 C 0.33049 0.76767 0.24191 0.0
C351 C 0.28292 0.80303 0.17148 0.0
C352 C 0.25998 0.89107 0.36725 0.0
C353 C 0.25445 0.87453 0.34643 0.0
C354 C 0.26877 0.8436 0.32696 0.0
C355 C 0.25572 0.8431 0.30258 0.0
C356 C 0.25728 0.82777 0.28207 0.0
C357 C 0.27179 0.81227 0.28632 0.0
C358 C 0.28484 0.81261 0.31091 0.0
C359 C 0.28323 0.82839 0.33085 0.0
C360 C 0.24339 0.82819 0.25582 0.0
C361 C 0.3005 0.79633 0.31609 0.0
C362 C 0.16778 0.73184 0.30444 0.0
C363 C 0.16456 0.73966 0.27779 0.0
C364 C 0.18001 0.73932 0.25948 0.0
C365 C 0.19888 0.73044 0.26758 0.0
C366 C 0.20175 0.72144 0.29368 0.0
C367 C 0.1862 0.72245 0.31187 0.0
C368 C 0.17633 0.74893 0.23172 0.0
C369 C 0.22146 0.71133 0.30269 0.0
C370 C 0.2656 0.67402 0.07752 0.0
C371 C 0.25775 0.66462 0.10315 0.0
C372 C 0.23642 0.6834 0.13415 0.0
C373 C 0.22375 0.70027 0.13404 0.0
C374 C 0.22127 0.71175 0.15853 0.0
C375 C 0.23151 0.70592 0.18374 0.0
C376 C 0.24305 0.68794 0.18436 0.0
C377 C 0.24535 0.6768 0.15953 0.0
C378 C 0.20849 0.73063 0.15725 0.0
C379 C 0.25366 0.68101 0.21106 0.0
C380 C 0.29008 0.78298 0.22478 0.0
C381 C 0.28847 0.79729 0.24649 0.0
C382 C 0.27331 0.79583 0.26488 0.0
C383 C 0.25936 0.77957 0.26179 0.0
C384 C 0.24411 0.77749 0.28019 0.0
C385 C 0.22995 0.76192 0.27633 0.0
C386 C 0.23063 0.74764 0.25411 0.0
C387 C 0.21601 0.732 0.24964 0.0
C388 C 0.21688 0.71834 0.22696 0.0
C389 C 0.23206 0.71986 0.20855 0.0
C390 C 0.24702 0.73517 0.21298 0.0
C391 C 0.26269 0.73691 0.19507 0.0
C392 C 0.277 0.75234 0.19914 0.0
C393 C 0.27604 0.76682 0.221 0.0
C394 C 0.26058 0.76516 0.23955 0.0
C395 C 0.24615 0.74922 0.23567 0.0
C396 C 0.1378 0.76603 0.32312 0.0
C397 C 0.13519 0.74289 0.32129 0.0
O398 O 0.35498 0.79702 0.1579 0.0
O399 O 0.23993 0.67413 0.10944 0.0
O400 O 0.15384 0.73332 0.32373 0.0
O401 O 0.26802 0.85855 0.34695 0.0
H402 H 0.37944 0.78253 0.17665 0.0
H403 H 0.37352 0.8142 0.20454 0.0
H404 H 0.37733 0.82926 0.17505 0.0
H405 H 0.39805 0.81486 0.191 0.0
H406 H 0.35764 0.77751 0.20639 0.0
H407 H 0.3177 0.80628 0.14567 0.0
H408 H 0.32836 0.77825 0.25981 0.0
H409 H 0.34608 0.76143 0.24427 0.0
H410 H 0.31948 0.75507 0.2427 0.0
H411 H 0.28306 0.81127 0.15188 0.0
H412 H 0.27708 0.81331 0.18771 0.0
H413 H 0.27221 0.79011 0.16808 0.0
H414 H 0.23833 0.86947 0.34535 0.0
H415 H 0.26611 0.91593 0.34278 0.0
H416 H 0.27158 0.88466 0.38282 0.0
H417 H 0.24744 0.89126 0.38175 0.0
H418 H 0.24437 0.8547 0.29926 0.0
H419 H 0.29325 0.8289 0.34966 0.0
H420 H 0.25219 0.8259 0.2373 0.0
H421 H 0.23496 0.84267 0.25403 0.0
H422 H 0.23222 0.81567 0.25561 0.0
H423 H 0.30801 0.7976 0.33743 0.0
H424 H 0.31225 0.7975 0.30104 0.0
H425 H 0.29337 0.78114 0.31282 0.0
H426 H 0.12712 0.73851 0.30092 0.0
H427 H 0.15022 0.74644 0.27123 0.0
H428 H 0.1885 0.71619 0.33226 0.0
H429 H 0.18831 0.7603 0.22906 0.0
H430 H 0.16134 0.75646 0.2293 0.0
H431 H 0.17708 0.73715 0.21489 0.0
H432 H 0.22035 0.70271 0.32181 0.0
H433 H 0.23348 0.72298 0.30681 0.0
H434 H 0.22619 0.70087 0.28588 0.0
H435 H 0.26997 0.66746 0.12 0.0
H436 H 0.27911 0.66569 0.07095 0.0
H437 H 0.27007 0.69 0.08259 0.0
H438 H 0.25377 0.67396 0.05996 0.0
H439 H 0.21654 0.70497 0.11445 0.0
H440 H 0.25437 0.66317 0.15999 0.0
H441 H 0.21822 0.7441 0.16258 0.0
H442 H 0.197 0.73016 0.17277 0.0
H443 H 0.20062 0.73248 0.13638 0.0
H444 H 0.26047 0.66576 0.2086 0.0
H445 H 0.24283 0.68068 0.22748 0.0
H446 H 0.26586 0.69194 0.2182 0.0
H447 H 0.29909 0.80984 0.24898 0.0
H448 H 0.24284 0.78799 0.29769 0.0
H449 H 0.21841 0.76131 0.29097 0.0
H450 H 0.20539 0.70665 0.22329 0.0
H451 H 0.26407 0.7264 0.17763 0.0
H452 H 0.28869 0.75293 0.1847 0.0
H453 H 0.12277 0.77351 0.3231 0.0
H454 H 0.14542 0.77144 0.30514 0.0
H455 H 0.14711 0.77091 0.34229 0.0
C456 C 0.15373 0.66776 0.64524 0.0
C457 C 0.14974 0.69055 0.6452 0.0
C458 C 0.18103 0.70881 0.65784 0.0
C459 C 0.17538 0.7226 0.67853 0.0
C460 C 0.18968 0.72994 0.6994 0.0
C461 C 0.20996 0.72311 0.69966 0.0
C462 C 0.21589 0.71006 0.67786 0.0
C463 C 0.20133 0.70328 0.65695 0.0
C464 C 0.18295 0.7444 0.72171 0.0
C465 C 0.2374 0.70261 0.67735 0.0
C466 C 0.22952 0.68101 0.90451 0.0
C467 C 0.23301 0.66457 0.88224 0.0
C468 C 0.22464 0.68026 0.83843 0.0
C469 C 0.24106 0.6763 0.82245 0.0
C470 C 0.245 0.68875 0.80054 0.0
C471 C 0.23248 0.70574 0.79507 0.0
C472 C 0.21601 0.7098 0.8115 0.0
C473 C 0.21209 0.69674 0.83266 0.0
C474 C 0.26226 0.68355 0.78292 0.0
C475 C 0.20228 0.72771 0.80644 0.0
C476 C 0.33651 0.79043 0.84791 0.0
C477 C 0.33942 0.77463 0.82855 0.0
C478 C 0.32609 0.77188 0.80468 0.0
C479 C 0.30922 0.78495 0.80058 0.0
C480 C 0.30656 0.80116 0.81995 0.0
C481 C 0.3205 0.8039 0.84314 0.0
C482 C 0.33001 0.75497 0.78397 0.0
C483 C 0.28884 0.81544 0.81642 0.0
C484 C 0.24398 0.86451 0.6385 0.0
C485 C 0.26434 0.87195 0.6525 0.0
C486 C 0.27806 0.84097 0.67366 0.0
C487 C 0.29203 0.82526 0.67119 0.0
C488 C 0.29292 0.80921 0.68951 0.0
C489 C 0.27955 0.80897 0.71095 0.0
C490 C 0.26546 0.82486 0.71372 0.0
C491 C 0.2648 0.84063 0.69506 0.0
C492 C 0.30812 0.79251 0.68597 0.0
C493 C 0.25111 0.82526 0.73657 0.0
C494 C 0.22426 0.72766 0.72427 0.0
C495 C 0.22315 0.71537 0.747 0.0
C496 C 0.23575 0.71863 0.77125 0.0
C497 C 0.25034 0.73434 0.77277 0.0
C498 C 0.26337 0.738 0.79676 0.0
C499 C 0.27781 0.75336 0.79794 0.0
C500 C 0.27959 0.76586 0.77533 0.0
C501 C 0.29426 0.7815 0.77631 0.0
C502 C 0.29448 0.79465 0.75433 0.0
C503 C 0.28055 0.79253 0.73116 0.0
C504 C 0.26672 0.77614 0.72898 0.0
C505 C 0.25329 0.77285 0.70526 0.0
C506 C 0.23948 0.75686 0.70352 0.0
C507 C 0.23841 0.74375 0.7256 0.0
C508 C 0.25168 0.74691 0.74982 0.0
C509 C 0.26611 0.76289 0.75129 0.0
C510 C 0.33606 0.78124 0.91186 0.0
C511 C 0.35243 0.77862 0.89111 0.0
O512 O 0.16712 0.7005 0.63872 0.0
O513 O 0.27789 0.85598 0.65503 0.0
O514 O 0.34911 0.79309 0.87121 0.0
O515 O 0.22019 0.66791 0.85886 0.0
H516 H 0.14559 0.69533 0.66636 0.0
H517 H 0.16625 0.66448 0.66105 0.0
H518 H 0.15811 0.66213 0.6246 0.0
H519 H 0.13998 0.65951 0.65047 0.0
H520 H 0.15975 0.72744 0.6785 0.0
H521 H 0.20554 0.69288 0.64052 0.0
H522 H 0.182 0.73618 0.74115 0.0
H523 H 0.16785 0.75101 0.71593 0.0
H524 H 0.19412 0.75686 0.72598 0.0
H525 H 0.23968 0.6929 0.6586 0.0
H526 H 0.24142 0.6938 0.69608 0.0
H527 H 0.24795 0.71569 0.67791 0.0
H528 H 0.2491 0.66541 0.8771 0.0
H529 H 0.21359 0.68059 0.91029 0.0
H530 H 0.23257 0.69616 0.89654 0.0
H531 H 0.23988 0.67889 0.92335 0.0
H532 H 0.25044 0.66319 0.82671 0.0
H533 H 0.19933 0.69948 0.84505 0.0
H534 H 0.27389 0.69568 0.78553 0.0
H535 H 0.2567 0.6826 0.76065 0.0
H536 H 0.26955 0.66897 0.78849 0.0
H537 H 0.19275 0.73091 0.82402 0.0
H538 H 0.19211 0.72447 0.78749 0.0
H539 H 0.21125 0.74146 0.80299 0.0
H540 H 0.35098 0.76311 0.8814 0.0
H541 H 0.35223 0.76461 0.832 0.0
H542 H 0.31861 0.81621 0.85814 0.0
H543 H 0.31884 0.74265 0.78559 0.0
H544 H 0.34545 0.74856 0.78763 0.0
H545 H 0.32815 0.76043 0.76248 0.0
H546 H 0.28738 0.82539 0.83518 0.0
H547 H 0.27451 0.80681 0.81182 0.0
H548 H 0.29086 0.82514 0.79859 0.0
H549 H 0.26198 0.87872 0.67341 0.0
H550 H 0.23319 0.87732 0.63624 0.0
H551 H 0.23713 0.85302 0.6511 0.0
H552 H 0.24605 0.85756 0.61762 0.0
H553 H 0.30222 0.82558 0.65471 0.0
H554 H 0.25388 0.85258 0.69749 0.0
H555 H 0.30028 0.77762 0.68436 0.0
H556 H 0.31908 0.79245 0.70453 0.0
H557 H 0.31663 0.79424 0.66726 0.0
H558 H 0.24191 0.8393 0.73699 0.0
H559 H 0.25974 0.82398 0.75704 0.0
H560 H 0.24068 0.81208 0.73365 0.0
H561 H 0.21206 0.70322 0.74595 0.0
H562 H 0.26264 0.72895 0.81486 0.0
H563 H 0.28747 0.7554 0.81693 0.0
H564 H 0.30524 0.80708 0.75565 0.0
H565 H 0.25341 0.78253 0.6877 0.0
H566 H 0.22954 0.75498 0.68476 0.0
H567 H 0.3387 0.79536 0.92483 0.0
H568 H 0.33567 0.7681 0.92541 0.0
H569 H 0.32086 0.78216 0.90054 0.0
C570 C 0.18729 0.38791 0.82623 0.0
C571 C 0.1992 0.38033 0.85224 0.0
C572 C 0.22294 0.35565 0.83553 0.0
C573 C 0.21649 0.33804 0.8476 0.0
C574 C 0.21913 0.31896 0.83475 0.0
C575 C 0.22855 0.31753 0.80945 0.0
C576 C 0.23653 0.33512 0.79847 0.0
C577 C 0.23377 0.35401 0.81187 0.0
C578 C 0.21091 0.30045 0.84739 0.0
C579 C 0.24693 0.33406 0.77178 0.0
C580 C 0.11485 0.28183 0.64139 0.0
C581 C 0.1358 0.28327 0.65459 0.0
C582 C 0.15382 0.28015 0.70031 0.0
C583 C 0.17332 0.28212 0.69107 0.0
C584 C 0.19056 0.28103 0.70968 0.0
C585 C 0.18828 0.27736 0.73794 0.0
C586 C 0.1687 0.27476 0.74711 0.0
C587 C 0.1517 0.27638 0.72817 0.0
C588 C 0.21119 0.28438 0.69923 0.0
C589 C 0.16568 0.27064 0.77701 0.0
C590 C 0.25417 0.15861 0.71984 0.0
C591 C 0.26028 0.17559 0.70609 0.0
C592 C 0.2642 0.1941 0.72066 0.0
C593 C 0.26153 0.19567 0.74946 0.0
C594 C 0.25582 0.17836 0.76344 0.0
C595 C 0.25252 0.15993 0.74844 0.0
C596 C 0.27108 0.21199 0.70527 0.0
C597 C 0.25293 0.1794 0.79411 0.0
C598 C 0.36281 0.28087 0.88425 0.0
C599 C 0.36519 0.25782 0.88363 0.0
C600 C 0.34403 0.24625 0.84248 0.0
C601 C 0.34158 0.25084 0.81448 0.0
C602 C 0.32293 0.24777 0.79908 0.0
C603 C 0.30649 0.23954 0.812 0.0
C604 C 0.3091 0.23406 0.84003 0.0
C605 C 0.32787 0.23742 0.855 0.0
C606 C 0.32071 0.25354 0.7691 0.0
C607 C 0.292 0.22471 0.85413 0.0
C608 C 0.22698 0.29839 0.79242 0.0
C609 C 0.20965 0.29582 0.7743 0.0
C610 C 0.20626 0.27803 0.75823 0.0
C611 C 0.22032 0.26201 0.76062 0.0
C612 C 0.21678 0.24342 0.74603 0.0
C613 C 0.23104 0.22798 0.74784 0.0
C614 C 0.24954 0.23069 0.7639 0.0
C615 C 0.26451 0.2154 0.76495 0.0
C616 C 0.2828 0.21873 0.78089 0.0
C617 C 0.28651 0.23686 0.79622 0.0
C618 C 0.27159 0.25217 0.79589 0.0
C619 C 0.27465 0.27044 0.81156 0.0
C620 C 0.25994 0.28551 0.81083 0.0
C621 C 0.24181 0.28303 0.79397 0.0
C622 C 0.2384 0.26472 0.77805 0.0
C623 C 0.25317 0.24916 0.77934 0.0
C624 C 0.217 0.129 0.69076 0.0
C625 C 0.23669 0.13837 0.68255 0.0
O626 O 0.21844 0.37435 0.84583 0.0
O627 O 0.36224 0.25019 0.85653 0.0
O628 O 0.25003 0.14072 0.70598 0.0
O629 O 0.13673 0.28203 0.68322 0.0
H630 H 0.19047 0.36731 0.85913 0.0
H631 H 0.18473 0.3752 0.81067 0.0
H632 H 0.19571 0.4 0.81663 0.0
H633 H 0.17229 0.39381 0.8315 0.0
H634 H 0.20902 0.33921 0.86675 0.0
H635 H 0.23907 0.36769 0.80306 0.0
H636 H 0.19771 0.29449 0.834 0.0
H637 H 0.206 0.30376 0.86856 0.0
H638 H 0.22258 0.28839 0.8485 0.0
H639 H 0.25414 0.34868 0.76751 0.0
H640 H 0.23567 0.32998 0.75426 0.0
H641 H 0.25868 0.32207 0.77262 0.0
H642 H 0.14507 0.29584 0.64738 0.0
H643 H 0.11204 0.29685 0.63155 0.0
H644 H 0.10434 0.28496 0.65833 0.0
H645 H 0.11465 0.25415 0.61801 0.0
H646 H 0.17519 0.28493 0.66952 0.0
H647 H 0.1366 0.27479 0.73507 0.0
H648 H 0.22006 0.27017 0.70052 0.0
H649 H 0.21965 0.29615 0.7124 0.0
H650 H 0.21021 0.28912 0.67737 0.0
H651 H 0.14993 0.26579 0.77985 0.0
H652 H 0.169 0.28462 0.78999 0.0
H653 H 0.17631 0.25874 0.78466 0.0
H654 H 0.23282 0.15334 0.67371 0.0
H655 H 0.26215 0.17427 0.68403 0.0
H656 H 0.24806 0.14659 0.75885 0.0
H657 H 0.25879 0.22339 0.70373 0.0
H658 H 0.27503 0.2076 0.68395 0.0
H659 H 0.28446 0.21929 0.71678 0.0
H660 H 0.24679 0.16506 0.80137 0.0
H661 H 0.24245 0.19193 0.79898 0.0
H662 H 0.26769 0.18265 0.8059 0.0
H663 H 0.35371 0.25171 0.89668 0.0
H664 H 0.36567 0.28718 0.90581 0.0
H665 H 0.34712 0.28488 0.87664 0.0
H666 H 0.37349 0.28792 0.87079 0.0
H667 H 0.35424 0.25731 0.80488 0.0
H668 H 0.32986 0.23279 0.87624 0.0
H669 H 0.30857 0.26504 0.76621 0.0
H670 H 0.31609 0.24009 0.75569 0.0
H671 H 0.33496 0.25976 0.76209 0.0
H672 H 0.29656 0.22089 0.8759 0.0
H673 H 0.28666 0.21072 0.84241 0.0
H674 H 0.27903 0.23536 0.85413 0.0
H675 H 0.19864 0.30797 0.77257 0.0
H676 H 0.20293 0.24063 0.73306 0.0
H677 H 0.22747 0.21398 0.73618 0.0
H678 H 0.29433 0.20706 0.78132 0.0
H679 H 0.28845 0.27327 0.82463 0.0
H680 H 0.26304 0.29925 0.8233 0.0
H681 H 0.21992 0.11394 0.6997 0.0
H682 H 0.20589 0.12725 0.6724 0.0
H683 H 0.21023 0.139 0.70654 0.0
C684 C 0.84401 0.34276 0.64742 0.0
C685 C 0.8491 0.32166 0.65779 0.0
C686 C 0.82198 0.30237 0.67566 0.0
C687 C 0.83246 0.2931 0.69806 0.0
C688 C 0.82208 0.28618 0.72015 0.0
C689 C 0.80084 0.28886 0.71989 0.0
C690 C 0.79022 0.2978 0.69689 0.0
C691 C 0.80095 0.30402 0.67477 0.0
C692 C 0.83384 0.27633 0.74397 0.0
C693 C 0.76766 0.30141 0.69597 0.0
C694 C 0.78544 0.38604 0.90258 0.0
C695 C 0.78077 0.36525 0.89085 0.0
C696 C 0.78841 0.34324 0.85193 0.0
C697 C 0.77122 0.34283 0.8331 0.0
C698 C 0.76803 0.32691 0.81325 0.0
C699 C 0.78216 0.31087 0.81264 0.0
C700 C 0.79934 0.31108 0.83198 0.0
C701 C 0.8024 0.32748 0.85114 0.0
C702 C 0.74996 0.32769 0.79227 0.0
C703 C 0.81475 0.29428 0.83193 0.0
C704 C 0.67372 0.23332 0.84153 0.0
C705 C 0.67399 0.24765 0.82076 0.0
C706 C 0.68917 0.24733 0.80204 0.0
C707 C 0.70477 0.23271 0.80449 0.0
C708 C 0.70452 0.21819 0.82522 0.0
C709 C 0.68886 0.21858 0.84329 0.0
C710 C 0.68847 0.26269 0.77962 0.0
C711 C 0.72088 0.20239 0.82843 0.0
C712 C 0.75838 0.1728 0.61587 0.0
C713 C 0.75066 0.15907 0.63766 0.0
C714 C 0.73183 0.17838 0.67094 0.0
C715 C 0.71947 0.1955 0.67046 0.0
C716 C 0.71909 0.20869 0.69383 0.0
C717 C 0.7312 0.20439 0.71829 0.0
C718 C 0.74263 0.18634 0.71949 0.0
C719 C 0.74273 0.17343 0.69581 0.0
C720 C 0.70641 0.22762 0.69208 0.0
C721 C 0.75523 0.18105 0.74552 0.0
C722 C 0.78991 0.2838 0.74445 0.0
C723 C 0.79157 0.2974 0.76729 0.0
C724 C 0.78009 0.29502 0.79003 0.0
C725 C 0.7662 0.27876 0.7899 0.0
C726 C 0.75388 0.27622 0.81196 0.0
C727 C 0.73927 0.26099 0.81065 0.0
C728 C 0.73674 0.24746 0.78748 0.0
C729 C 0.72116 0.2327 0.78513 0.0
C730 C 0.71982 0.21877 0.76255 0.0
C731 C 0.73331 0.21955 0.74174 0.0
C732 C 0.74825 0.23491 0.74295 0.0
C733 C 0.76141 0.23675 0.72164 0.0
C734 C 0.77531 0.25256 0.72229 0.0
C735 C 0.77673 0.267 0.7444 0.0
C736 C 0.76443 0.26479 0.76686 0.0
C737 C 0.74992 0.24893 0.76589 0.0
C738 C 0.65603 0.26629 0.88127 0.0
C739 C 0.6454 0.24831 0.86531 0.0
O740 O 0.83173 0.30984 0.65461 0.0
O741 O 0.73297 0.16703 0.64714 0.0
O742 O 0.65932 0.23318 0.86024 0.0
O743 O 0.79256 0.35944 0.86945 0.0
H744 H 0.85459 0.32355 0.68011 0.0
H745 H 0.83193 0.34962 0.65944 0.0
H746 H 0.83853 0.34191 0.62509 0.0
H747 H 0.85756 0.35275 0.6502 0.0
H748 H 0.84873 0.29126 0.69822 0.0
H749 H 0.79304 0.31099 0.65714 0.0
H750 H 0.83479 0.28692 0.76238 0.0
H751 H 0.84948 0.27233 0.73897 0.0
H752 H 0.82595 0.26243 0.74964 0.0
H753 H 0.76228 0.31106 0.6786 0.0
H754 H 0.76348 0.30876 0.71576 0.0
H755 H 0.75954 0.28671 0.69329 0.0
H756 H 0.77965 0.35328 0.90631 0.0
H757 H 0.75842 0.40227 0.89282 0.0
H758 H 0.80049 0.39049 0.89515 0.0
H759 H 0.79168 0.38376 0.92457 0.0
H760 H 0.76067 0.35529 0.83304 0.0
H761 H 0.81578 0.3281 0.86553 0.0
H762 H 0.7549 0.32579 0.77089 0.0
H763 H 0.74152 0.34215 0.79392 0.0
H764 H 0.73943 0.31509 0.79545 0.0
H765 H 0.82545 0.29507 0.85079 0.0
H766 H 0.82359 0.29536 0.81343 0.0
H767 H 0.80705 0.27932 0.83057 0.0
H768 H 0.63811 0.25343 0.84532 0.0
H769 H 0.66245 0.25916 0.81882 0.0
H770 H 0.68855 0.20753 0.85925 0.0
H771 H 0.70061 0.27411 0.78462 0.0
H772 H 0.67373 0.27073 0.77764 0.0
H773 H 0.69116 0.25528 0.75925 0.0
H774 H 0.7196 0.19343 0.8472 0.0
H775 H 0.73604 0.20971 0.8297 0.0
H776 H 0.71986 0.1919 0.80991 0.0
H777 H 0.76301 0.15881 0.65458 0.0
H778 H 0.77173 0.16591 0.60662 0.0
H779 H 0.76305 0.18764 0.62585 0.0
H780 H 0.7464 0.17563 0.59912 0.0
H781 H 0.71075 0.19892 0.65133 0.0
H782 H 0.75142 0.15958 0.69675 0.0
H783 H 0.71647 0.24111 0.69398 0.0
H784 H 0.69647 0.22858 0.70956 0.0
H785 H 0.69685 0.22813 0.67222 0.0
H786 H 0.76228 0.16586 0.74369 0.0
H787 H 0.74568 0.18142 0.76345 0.0
H788 H 0.76742 0.19249 0.75002 0.0
H789 H 0.80155 0.31041 0.76703 0.0
H790 H 0.75511 0.28628 0.8302 0.0
H791 H 0.72991 0.25999 0.82796 0.0
H792 H 0.70787 0.20747 0.76083 0.0
H793 H 0.76086 0.22622 0.70391 0.0
H794 H 0.78483 0.25343 0.70512 0.0
H795 H 0.66344 0.26141 0.90133 0.0
H796 H 0.64493 0.27842 0.88547 0.0
H797 H 0.66777 0.27276 0.86897 0.0
C798 C 0.82974 0.62848 0.82045 0.0
C799 C 0.81886 0.64012 0.84284 0.0
C800 C 0.79828 0.66621 0.82033 0.0
C801 C 0.8059 0.68376 0.83461 0.0
C802 C 0.8039 0.70269 0.82252 0.0
C803 C 0.79401 0.70405 0.79564 0.0
C804 C 0.78564 0.68646 0.78165 0.0
C805 C 0.78766 0.66775 0.79441 0.0
C806 C 0.81261 0.72122 0.83826 0.0
C807 C 0.77499 0.68737 0.75302 0.0
C808 C 0.90517 0.78071 0.70782 0.0
C809 C 0.89807 0.75988 0.69575 0.0
C810 C 0.86219 0.75676 0.70552 0.0
C811 C 0.84268 0.75384 0.69296 0.0
C812 C 0.82618 0.75039 0.70874 0.0
C813 C 0.82917 0.75078 0.73809 0.0
C814 C 0.8489 0.75391 0.75104 0.0
C815 C 0.86526 0.75651 0.73462 0.0
C816 C 0.80564 0.74616 0.69384 0.0
C817 C 0.85276 0.75453 0.78224 0.0
C818 C 0.75001 0.86096 0.72316 0.0
C819 C 0.74674 0.84347 0.7062 0.0
C820 C 0.74511 0.82448 0.71787 0.0
C821 C 0.74736 0.82302 0.74711 0.0
C822 C 0.75016 0.84079 0.76424 0.0
C823 C 0.75114 0.85963 0.75197 0.0
C824 C 0.74119 0.80602 0.69892 0.0
C825 C 0.75249 0.83984 0.79545 0.0
C826 C 0.63605 0.7233 0.82815 0.0
C827 C 0.64594 0.74387 0.83566 0.0
C828 C 0.66891 0.75928 0.80514 0.0
C829 C 0.67364 0.75754 0.77754 0.0
C830 C 0.69268 0.7634 0.76977 0.0
C831 C 0.70715 0.77168 0.79013 0.0
C832 C 0.70218 0.7742 0.818 0.0
C833 C 0.68308 0.76791 0.82527 0.0
C834 C 0.69737 0.76064 0.73979 0.0
C835 C 0.71706 0.78356 0.84 0.0
C836 C 0.79359 0.72367 0.78167 0.0
C837 C 0.81036 0.72863 0.76734 0.0
C838 C 0.81175 0.74732 0.75505 0.0
C839 C 0.79618 0.76176 0.7577 0.0
C840 C 0.79775 0.7813 0.74755 0.0
C841 C 0.78188 0.79501 0.74889 0.0
C842 C 0.76369 0.78958 0.75998 0.0
C843 C 0.74695 0.8029 0.75976 0.0
C844 C 0.72904 0.79687 0.77062 0.0
C845 C 0.72733 0.77786 0.78193 0.0
C846 C 0.74405 0.76451 0.78297 0.0
C847 C 0.74304 0.74547 0.79484 0.0
C848 C 0.75944 0.73226 0.79511 0.0
C849 C 0.77719 0.73731 0.78268 0.0
C850 C 0.77855 0.75647 0.77073 0.0
C851 C 0.76214 0.77026 0.77143 0.0
C852 C 0.78392 0.89608 0.71082 0.0
C853 C 0.76735 0.88341 0.69461 0.0
O854 O 0.80071 0.64765 0.83119 0.0
O855 O 0.65041 0.75282 0.81139 0.0
O856 O 0.75232 0.87922 0.71202 0.0
O857 O 0.87738 0.75994 0.68874 0.0
H858 H 0.82906 0.65264 0.85115 0.0
H859 H 0.8331 0.6388 0.80377 0.0
H860 H 0.82014 0.61583 0.8111 0.0
H861 H 0.84429 0.62227 0.82943 0.0
H862 H 0.81332 0.68273 0.85525 0.0
H863 H 0.78153 0.65412 0.78379 0.0
H864 H 0.82518 0.72739 0.82713 0.0
H865 H 0.81852 0.71789 0.85973 0.0
H866 H 0.80086 0.73315 0.83924 0.0
H867 H 0.7694 0.6723 0.74487 0.0
H868 H 0.7855 0.6934 0.73848 0.0
H869 H 0.76194 0.69788 0.75349 0.0
H870 H 0.90179 0.74833 0.71152 0.0
H871 H 0.92186 0.78076 0.71249 0.0
H872 H 0.89806 0.78448 0.72738 0.0
H873 H 0.90107 0.79277 0.69303 0.0
H874 H 0.84045 0.75394 0.67052 0.0
H875 H 0.88027 0.75854 0.74476 0.0
H876 H 0.79609 0.75989 0.69519 0.0
H877 H 0.79784 0.73369 0.70356 0.0
H878 H 0.80677 0.74203 0.67153 0.0
H879 H 0.86798 0.76075 0.78912 0.0
H880 H 0.85178 0.73896 0.78984 0.0
H881 H 0.84112 0.76386 0.79207 0.0
H882 H 0.77455 0.86912 0.68732 0.0
H883 H 0.74543 0.84476 0.68386 0.0
H884 H 0.75348 0.87335 0.76479 0.0
H885 H 0.75521 0.79684 0.69861 0.0
H886 H 0.73649 0.8101 0.6773 0.0
H887 H 0.72923 0.79642 0.70664 0.0
H888 H 0.75623 0.85483 0.8057 0.0
H889 H 0.76461 0.82895 0.80174 0.0
H890 H 0.73816 0.83431 0.80307 0.0
H891 H 0.66004 0.74091 0.84898 0.0
H892 H 0.63268 0.71548 0.84723 0.0
H893 H 0.64651 0.71363 0.81658 0.0
H894 H 0.62175 0.72514 0.8149 0.0
H895 H 0.66245 0.75114 0.76214 0.0
H896 H 0.67915 0.76999 0.84653 0.0
H897 H 0.71145 0.75167 0.73833 0.0
H898 H 0.70001 0.77564 0.73113 0.0
H899 H 0.6849 0.7529 0.72683 0.0
H900 H 0.71061 0.78523 0.86051 0.0
H901 H 0.72183 0.79868 0.83362 0.0
H902 H 0.73083 0.774 0.8422 0.0
H903 H 0.82247 0.7177 0.76562 0.0
H904 H 0.81125 0.78618 0.73837 0.0
H905 H 0.78392 0.80981 0.74064 0.0
H906 H 0.71607 0.80692 0.76964 0.0
H907 H 0.72958 0.74059 0.80413 0.0
H908 H 0.75785 0.71783 0.80461 0.0
H909 H 0.77763 0.91055 0.71879 0.0
H910 H 0.79627 0.89944 0.69733 0.0
H911 H 0.79048 0.88757 0.72872 0.0
C912 C 0.03524 0.30067 0.55963 0.0
C913 C 0.04273 0.31778 0.57443 0.0
C914 C 0.02968 0.3333 0.56758 0.0
C915 C 0.01499 0.32478 0.54912 0.0
N916 N 0.01807 0.30493 0.54409 0.0
Co917 Co 0.0011 0.28668 0.51879 0.0
N918 N 0.98926 0.30975 0.49823 0.0
C919 C 0.9893 0.3292 0.50756 0.0
C920 C 0.97964 0.34179 0.48889 0.0
C921 C 0.97291 0.32943 0.46665 0.0
C922 C 0.9788 0.3099 0.47308 0.0
N923 N 0.98408 0.26828 0.4937 0.0
C924 C 0.97408 0.27184 0.46895 0.0
C925 C 0.96326 0.25476 0.45877 0.0
C926 C 0.96653 0.2402 0.47803 0.0
C927 C 0.97909 0.2491 0.49885 0.0
N928 N 0.01291 0.26373 0.53955 0.0
C929 C 0.0051 0.24499 0.53993 0.0
C930 C 0.01755 0.23205 0.55479 0.0
C931 C 0.03416 0.24342 0.56433 0.0
C932 C 0.03075 0.26284 0.55501 0.0
N933 N 0.97943 0.28871 0.544 0.0
C934 C 0.94874 0.29439 0.58031 0.0
C935 C 0.96867 0.29023 0.59044 0.0
C936 C 0.98376 0.28752 0.57199 0.0
C937 C 0.94449 0.29507 0.55151 0.0
C938 C 0.95995 0.29205 0.53379 0.0
N939 N 0.02285 0.28476 0.49378 0.0
C940 C 0.04611 0.26449 0.46885 0.0
C941 C 0.05719 0.28181 0.46355 0.0
C942 C 0.05009 0.3007 0.4726 0.0
C943 C 0.03294 0.30184 0.48763 0.0
C944 C 0.02895 0.26631 0.48388 0.0
H945 H 0.0282 0.31653 0.495 0.0
H946 H 0.02101 0.25271 0.48832 0.0
H947 H 0.99903 0.28476 0.58042 0.0
H948 H 0.95615 0.29288 0.51181 0.0
C949 C 0.00096 0.33534 0.53192 0.0
C950 C 0.04408 0.28042 0.56154 0.0
C951 C 0.97254 0.2917 0.45624 0.0
C952 C 0.98884 0.23913 0.52116 0.0
H953 H 0.05624 0.31892 0.58849 0.0
H954 H 0.03134 0.34907 0.57414 0.0
H955 H 0.97811 0.35807 0.49085 0.0
H956 H 0.96436 0.3342 0.44807 0.0
H957 H 0.95361 0.25307 0.43973 0.0
H958 H 0.96084 0.22483 0.47665 0.0
H959 H 0.0155 0.21595 0.55688 0.0
H960 H 0.04729 0.23778 0.57624 0.0
H961 H 0.97266 0.2892 0.61248 0.0
H962 H 0.92945 0.29853 0.54259 0.0
H963 H 0.05105 0.24956 0.46239 0.0
H964 H 0.05787 0.31454 0.46847 0.0
C965 C 0.70605 0.04418 0.55055 0.0
C966 C 0.68907 0.05183 0.56245 0.0
C967 C 0.673 0.0404 0.55172 0.0
C968 C 0.68108 0.02637 0.53417 0.0
N969 N 0.70139 0.02797 0.53332 0.0
Co970 Co 0.7193 0.01047 0.51091 0.0
N971 N 0.69543 0.99497 0.49312 0.0
C972 C 0.67565 0.99858 0.49645 0.0
C973 C 0.66272 0.98533 0.48154 0.0
C974 C 0.67499 0.97231 0.46812 0.0
C975 C 0.69476 0.97836 0.47581 0.0
N976 N 0.73728 0.99243 0.48919 0.0
C977 C 0.73263 0.9757 0.47292 0.0
C978 C 0.74982 0.96671 0.46322 0.0
C979 C 0.76594 0.97807 0.47392 0.0
C980 C 0.75773 0.99319 0.4896 0.0
N981 N 0.74314 0.02645 0.52805 0.0
C982 C 0.76281 0.02388 0.52288 0.0
C983 C 0.77556 0.03816 0.53586 0.0
C984 C 0.76332 0.05085 0.5498 0.0
C985 C 0.7437 0.04344 0.54471 0.0
N986 N 0.72188 0.99116 0.54143 0.0
C987 C 0.72616 0.96272 0.58341 0.0
C988 C 0.74306 0.97057 0.57196 0.0
C989 C 0.74061 0.98469 0.55135 0.0
C990 C 0.70701 0.96956 0.57386 0.0
C991 C 0.70522 0.98361 0.55283 0.0
N992 N 0.71685 0.02994 0.48048 0.0
C993 C 0.73324 0.05004 0.44795 0.0
C994 C 0.71613 0.06223 0.44392 0.0
C995 C 0.69887 0.05712 0.45715 0.0
C996 C 0.69949 0.04088 0.475 0.0
C997 C 0.73323 0.03411 0.46597 0.0
H998 H 0.68593 0.03783 0.48471 0.0
H999 H 0.74698 0.02591 0.4685 0.0
H1000 H 0.75416 0.9901 0.54374 0.0
H1001 H 0.69023 0.98804 0.54598 0.0
C1002 C 0.66983 0.01295 0.51614 0.0
C1003 C 0.72598 0.05362 0.5549 0.0
C1004 C 0.71236 0.96725 0.46725 0.0
C1005 C 0.7688 0.0082 0.50519 0.0
H1006 H 0.6883 0.06476 0.57674 0.0
H1007 H 0.65721 0.04253 0.55546 0.0
H1008 H 0.64637 0.98471 0.48134 0.0
H1009 H 0.67001 0.95946 0.45483 0.0
H1010 H 0.75067 0.95313 0.45018 0.0
H1011 H 0.78179 0.9754 0.47106 0.0
H1012 H 0.79177 0.03948 0.53474 0.0
H1013 H 0.76832 0.06431 0.56176 0.0
H1014 H 0.75823 0.966 0.57912 0.0
H1015 H 0.69349 0.96385 0.58221 0.0
H1016 H 0.74707 0.05333 0.43836 0.0
H1017 H 0.68507 0.06582 0.45417 0.0
C1018 C 0.04356 0.7286 0.54122 0.0
C1019 C 0.05605 0.74513 0.54849 0.0
C1020 C 0.05066 0.75988 0.53017 0.0
C1021 C 0.03519 0.75162 0.51286 0.0
N1022 N 0.0304 0.73267 0.51936 0.0
Co1023 Co 0.00935 0.71518 0.49941 0.0
N1024 N 0.99592 0.73874 0.48172 0.0
C1025 C 0.00425 0.75707 0.47912 0.0
C1026 C 0.99095 0.77047 0.46662 0.0
C1027 C 0.97323 0.75985 0.4609 0.0
C1028 C 0.97679 0.74042 0.47006 0.0
N1029 N 0.98843 0.69776 0.47921 0.0
C1030 C 0.97005 0.70284 0.46746 0.0
C1031 C 0.96013 0.68601 0.45491 0.0
C1032 C 0.97287 0.66986 0.45914 0.0
C1033 C 0.9898 0.67772 0.47389 0.0
N1034 N 0.02272 0.69157 0.51696 0.0
C1035 C 0.02042 0.6721 0.50811 0.0
C1036 C 0.03189 0.65908 0.5242 0.0
C1037 C 0.04219 0.67115 0.54422 0.0
C1038 C 0.0364 0.69094 0.53917 0.0
N1039 N 0.99237 0.71851 0.53052 0.0
C1040 C 0.96814 0.72372 0.57516 0.0
C1041 C 0.97129 0.7044 0.5634 0.0
C1042 C 0.98334 0.70214 0.54096 0.0
C1043 C 0.97739 0.74032 0.56413 0.0
C1044 C 0.9895 0.73739 0.54199 0.0
N1045 N 0.02644 0.71203 0.4683 0.0
C1046 C 0.05956 0.70791 0.45166 0.0
C1047 C 0.05198 0.71224 0.42465 0.0
C1048 C 0.03105 0.71534 0.41981 0.0
C1049 C 0.01855 0.71491 0.44179 0.0
C1050 C 0.04664 0.70809 0.47313 0.0
H1051 H 0.00259 0.71765 0.43747 0.0
H1052 H 0.05319 0.70559 0.49379 0.0
H1053 H 0.98537 0.68716 0.53203 0.0
H1054 H 0.99659 0.75044 0.53418 0.0
C1055 C 0.02289 0.76208 0.49336 0.0
C1056 C 0.04583 0.70879 0.55382 0.0
C1057 C 0.96229 0.72357 0.46628 0.0
C1058 C 0.00533 0.66651 0.48731 0.0
H1059 H 0.06799 0.74633 0.56506 0.0
H1060 H 0.05687 0.77501 0.53006 0.0
H1061 H 0.99348 0.78634 0.46335 0.0
H1062 H 0.95933 0.76584 0.45127 0.0
H1063 H 0.9453 0.68549 0.4438 0.0
H1064 H 0.96977 0.65416 0.45317 0.0
H1065 H 0.03234 0.64274 0.5221 0.0
H1066 H 0.05301 0.666 0.56035 0.0
H1067 H 0.9643 0.69119 0.57126 0.0
H1068 H 0.97555 0.75548 0.57285 0.0
H1069 H 0.07547 0.70478 0.45645 0.0
H1070 H 0.02435 0.71887 0.39945 0.0
C1071 C 0.30716 0.97508 0.56041 0.0
C1072 C 0.32474 0.96726 0.57339 0.0
C1073 C 0.34056 0.97446 0.55988 0.0
C1074 C 0.33183 0.98632 0.53958 0.0
N1075 N 0.31151 0.98718 0.53965 0.0
Co1076 Co 0.29306 0.00239 0.51369 0.0
N1077 N 0.31563 0.01929 0.50268 0.0
C1078 C 0.3355 0.01498 0.50637 0.0
C1079 C 0.34758 0.02943 0.49629 0.0
C1080 C 0.33446 0.04364 0.48544 0.0
C1081 C 0.31505 0.03704 0.48958 0.0
N1082 N 0.27465 0.01745 0.48749 0.0
C1083 C 0.27748 0.03536 0.47568 0.0
C1084 C 0.26059 0.04048 0.45858 0.0
C1085 C 0.24692 0.02498 0.45938 0.0
C1086 C 0.25612 0.01138 0.47698 0.0
N1087 N 0.27045 0.98548 0.52461 0.0
C1088 C 0.25238 0.98275 0.51019 0.0
C1089 C 0.2399 0.96979 0.52246 0.0
C1090 C 0.25088 0.96385 0.54593 0.0
C1091 C 0.26953 0.97358 0.54665 0.0
N1092 N 0.28809 0.02217 0.54334 0.0
C1093 C 0.28055 0.0515 0.58438 0.0
C1094 C 0.26473 0.04344 0.56651 0.0
C1095 C 0.26878 0.02872 0.54634 0.0
C1096 C 0.30024 0.04438 0.58158 0.0
C1097 C 0.30371 0.0298 0.56076 0.0
N1098 N 0.29783 0.98262 0.48387 0.0
C1099 C 0.30032 0.97522 0.43521 0.0
C1100 C 0.29801 0.95462 0.43946 0.0
C1101 C 0.29684 0.94809 0.46641 0.0
C1102 C 0.29689 0.96235 0.48841 0.0
C1103 C 0.30036 0.989 0.45776 0.0
H1104 H 0.29521 0.95699 0.50887 0.0
H1105 H 0.30146 0.00487 0.4538 0.0
H1106 H 0.25624 0.02273 0.53303 0.0
H1107 H 0.31903 0.02482 0.55862 0.0
C1108 C 0.34219 0.99913 0.52308 0.0
C1109 C 0.28663 0.96944 0.56677 0.0
C1110 C 0.29646 0.04696 0.4786 0.0
C1111 C 0.2467 0.99475 0.48768 0.0
H1112 H 0.32599 0.95723 0.59062 0.0
H1113 H 0.35655 0.97187 0.56487 0.0
H1114 H 0.36396 0.02993 0.49746 0.0
H1115 H 0.3387 0.05719 0.47536 0.0
H1116 H 0.25839 0.05392 0.44663 0.0
H1117 H 0.2318 0.02414 0.44918 0.0
H1118 H 0.22449 0.96556 0.51559 0.0
H1119 H 0.24586 0.95326 0.56052 0.0
H1120 H 0.24924 0.04833 0.56829 0.0
H1121 H 0.31288 0.05029 0.59501 0.0
H1122 H 0.3012 0.98068 0.41448 0.0
H1123 H 0.29497 0.93219 0.47024 0.0
C1124 C 0.53133 0.81319 0.04497 0.0
C1125 C 0.53781 0.8317 0.057 0.0
C1126 C 0.53376 0.84592 0.03738 0.0
C1127 C 0.5249 0.83541 0.0146 0.0
N1128 N 0.52296 0.81553 0.01886 0.0
Co1129 Co 0.51044 0.79504 0.99196 0.0
N1130 N 0.49658 0.81609 0.96957 0.0
C1131 C 0.50145 0.83585 0.9701 0.0
C1132 C 0.48827 0.84681 0.95324 0.0
C1133 C 0.47432 0.83305 0.94147 0.0
C1134 C 0.4799 0.81434 0.95166 0.0
N1135 N 0.49783 0.77461 0.96518 0.0
C1136 C 0.48114 0.77632 0.94758 0.0
C1137 C 0.47728 0.75844 0.93219 0.0
C1138 C 0.49221 0.74509 0.94073 0.0
C1139 C 0.50431 0.75559 0.96073 0.0
N1140 N 0.52444 0.77386 0.01391 0.0
C1141 C 0.52832 0.7549 0.00463 0.0
C1142 C 0.53899 0.74381 0.02423 0.0
C1143 C 0.54213 0.75667 0.04709 0.0
C1144 C 0.53312 0.77496 0.04015 0.0
N1145 N 0.48721 0.79328 0.01427 0.0
C1146 C 0.45678 0.7902 0.05091 0.0
C1147 C 0.46508 0.77284 0.03882 0.0
C1148 C 0.48021 0.77471 0.02057 0.0
C1149 C 0.46329 0.80918 0.04312 0.0
C1150 C 0.47854 0.81039 0.02476 0.0
N1151 N 0.53389 0.79651 0.96985 0.0
C1152 C 0.54824 0.79111 0.92596 0.0
C1153 C 0.56776 0.78991 0.93939 0.0
C1154 C 0.56999 0.7941 0.96809 0.0
C1155 C 0.55295 0.79709 0.9829 0.0
C1156 C 0.53156 0.79475 0.94153 0.0
H1157 H 0.55524 0.79877 0.00515 0.0
H1158 H 0.51666 0.79493 0.9308 0.0
H1159 H 0.48667 0.76107 0.01216 0.0
H1160 H 0.48375 0.82515 0.01973 0.0
C1161 C 0.51518 0.84399 0.99108 0.0
C1162 C 0.5348 0.79353 0.05782 0.0
C1163 C 0.4696 0.79504 0.94396 0.0
C1164 C 0.5191 0.74726 0.97925 0.0
H1165 H 0.54484 0.83466 0.07769 0.0
H1166 H 0.53626 0.86208 0.03986 0.0
H1167 H 0.48799 0.86305 0.95117 0.0
H1168 H 0.46138 0.83661 0.92753 0.0
H1169 H 0.46501 0.75542 0.91648 0.0
H1170 H 0.4935 0.72937 0.93406 0.0
H1171 H 0.54346 0.7281 0.02243 0.0
H1172 H 0.5504 0.75308 0.06645 0.0
H1173 H 0.46021 0.75787 0.04387 0.0
H1174 H 0.45732 0.82299 0.05204 0.0
H1175 H 0.5456 0.7881 0.90382 0.0
H1176 H 0.58476 0.79417 0.97938 0.0
C1177 C 0.21124 0.5406 0.05578 0.0
C1178 C 0.19476 0.54912 0.06784 0.0
C1179 C 0.17863 0.53633 0.0609 0.0
C1180 C 0.18622 0.52079 0.0451 0.0
N1181 N 0.20606 0.52308 0.04191 0.0
Co1182 Co 0.22318 0.50504 0.02023 0.0
N1183 N 0.19923 0.49346 0.99824 0.0
C1184 C 0.17991 0.49461 0.00514 0.0
C1185 C 0.16653 0.48525 0.98567 0.0
C1186 C 0.17819 0.47756 0.96552 0.0
C1187 C 0.19817 0.48252 0.97396 0.0
N1188 N 0.24046 0.48676 0.99902 0.0
C1189 C 0.23598 0.47603 0.975 0.0
C1190 C 0.2524 0.46426 0.96811 0.0
C1191 C 0.26752 0.46773 0.98873 0.0
C1192 C 0.25957 0.48132 0.00706 0.0
N1193 N 0.24701 0.51685 0.04221 0.0
C1194 C 0.26554 0.5086 0.04564 0.0
C1195 C 0.27918 0.52121 0.06056 0.0
C1196 C 0.26848 0.53838 0.0668 0.0
C1197 C 0.24878 0.53517 0.05551 0.0
N1198 N 0.22123 0.48423 0.04758 0.0
C1199 C 0.2236 0.45366 0.0863 0.0
C1200 C 0.22625 0.47406 0.09486 0.0
C1201 C 0.22481 0.48908 0.07525 0.0
C1202 C 0.21855 0.44911 0.05806 0.0
C1203 C 0.21758 0.46453 0.03909 0.0
N1204 N 0.22537 0.52593 0.9931 0.0
C1205 C 0.24667 0.54695 0.96807 0.0
C1206 C 0.23047 0.56005 0.96168 0.0
C1207 C 0.2113 0.55483 0.9698 0.0
C1208 C 0.20904 0.53761 0.98525 0.0
C1209 C 0.24384 0.53013 0.98386 0.0
H1210 H 0.19427 0.53428 0.99193 0.0
H1211 H 0.25685 0.52098 0.98956 0.0
H1212 H 0.22737 0.50459 0.08238 0.0
H1213 H 0.21447 0.46038 0.01744 0.0
C1214 C 0.17473 0.50691 0.02782 0.0
C1215 C 0.2317 0.54912 0.058 0.0
C1216 C 0.21582 0.47491 0.96003 0.0
C1217 C 0.27042 0.49154 0.02942 0.0
H1218 H 0.19441 0.56321 0.07991 0.0
H1219 H 0.16302 0.5388 0.06532 0.0
H1220 H 0.15019 0.48458 0.98569 0.0
H1221 H 0.17263 0.469 0.94699 0.0
H1222 H 0.25326 0.45393 0.95035 0.0
H1223 H 0.28266 0.46148 0.98982 0.0
H1224 H 0.29527 0.51881 0.06483 0.0
H1225 H 0.27471 0.5517 0.07792 0.0
H1226 H 0.23026 0.47842 0.11638 0.0
H1227 H 0.21577 0.43369 0.05044 0.0
H1228 H 0.26164 0.54989 0.96154 0.0
H1229 H 0.19828 0.56442 0.96544 0.0
C1230 C 0.47453 0.24598 0.99203 0.0
C1231 C 0.46589 0.26515 0.99201 0.0
C1232 C 0.47507 0.27594 0.01421 0.0
C1233 C 0.48877 0.26287 0.02653 0.0
N1234 N 0.48902 0.24461 0.0132 0.0
Co1235 Co 0.50604 0.22125 0.02486 0.0
N1236 N 0.52447 0.23893 0.04937 0.0
C1237 C 0.5204 0.2577 0.05904 0.0
C1238 C 0.53626 0.26617 0.07547 0.0
C1239 C 0.55119 0.25177 0.07622 0.0
C1240 C 0.54352 0.23528 0.06018 0.0
N1241 N 0.52293 0.19798 0.03688 0.0
C1242 C 0.54206 0.19781 0.04878 0.0
C1243 C 0.54836 0.17817 0.05391 0.0
C1244 C 0.5325 0.16569 0.04485 0.0
C1245 C 0.51747 0.17835 0.03476 0.0
N1246 N 0.48772 0.20346 0.00031 0.0
C1247 C 0.48634 0.18318 0.0013 0.0
C1248 C 0.47221 0.1749 0.98191 0.0
C1249 C 0.46395 0.191 0.96813 0.0
C1250 C 0.47346 0.20828 0.98006 0.0
N1251 N 0.52312 0.22521 0.99431 0.0
C1252 C 0.54982 0.23112 0.95327 0.0
C1253 C 0.54346 0.21161 0.95888 0.0
C1254 C 0.52988 0.209 0.97926 0.0
C1255 C 0.54229 0.24759 0.96823 0.0
C1256 C 0.52911 0.24431 0.98876 0.0
N1257 N 0.48903 0.21744 0.05561 0.0
C1258 C 0.45603 0.217 0.07322 0.0
C1259 C 0.46474 0.2148 0.10023 0.0
C1260 C 0.48586 0.21347 0.10437 0.0
C1261 C 0.49771 0.21467 0.08179 0.0
C1262 C 0.46841 0.21833 0.05129 0.0
H1263 H 0.51393 0.21367 0.0856 0.0
H1264 H 0.46122 0.22047 0.03091 0.0
H1265 H 0.52512 0.19385 0.98315 0.0
H1266 H 0.5241 0.25726 0.00052 0.0
C1267 C 0.50326 0.26796 0.04828 0.0
C1268 C 0.46658 0.2289 0.97417 0.0
C1269 C 0.55407 0.21596 0.05698 0.0
C1270 C 0.50004 0.17231 0.01844 0.0
H1271 H 0.45379 0.27059 0.9779 0.0
H1272 H 0.47228 0.29153 0.02035 0.0
H1273 H 0.53721 0.28131 0.08479 0.0
H1274 H 0.56598 0.25323 0.08729 0.0
H1275 H 0.56289 0.17337 0.06317 0.0
H1276 H 0.53233 0.14932 0.04445 0.0
H1277 H 0.46855 0.15905 0.97799 0.0
H1278 H 0.45186 0.19017 0.95174 0.0
H1279 H 0.54888 0.19851 0.94756 0.0
H1280 H 0.54702 0.2629 0.96465 0.0
H1281 H 0.43977 0.21824 0.06912 0.0
H1282 H 0.49318 0.21149 0.1249 0.0
C1283 C 0.75932 0.53495 0.0532 0.0
C1284 C 0.74049 0.54238 0.05936 0.0
C1285 C 0.72654 0.53323 0.04079 0.0
C1286 C 0.73757 0.52071 0.02453 0.0
N1287 N 0.75775 0.52122 0.03167 0.0
Co1288 Co 0.77926 0.50493 0.01422 0.0
N1289 N 0.75874 0.4919 0.9866 0.0
C1290 C 0.73881 0.49632 0.98271 0.0
C1291 C 0.72863 0.48454 0.96228 0.0
C1292 C 0.74282 0.47152 0.95299 0.0
C1293 C 0.76086 0.47611 0.96849 0.0
N1294 N 0.80059 0.48793 0.99731 0.0
C1295 C 0.79839 0.47176 0.97924 0.0
C1296 C 0.81682 0.46275 0.97476 0.0
C1297 C 0.83121 0.47342 0.99098 0.0
C1298 C 0.82074 0.48819 0.00446 0.0
N1299 N 0.79987 0.51842 0.04141 0.0
C1300 C 0.82017 0.51566 0.04293 0.0
C1301 C 0.83047 0.52765 0.06303 0.0
C1302 C 0.81591 0.53891 0.07487 0.0
C1303 C 0.7975 0.53305 0.0613 0.0
N1304 N 0.77538 0.48306 0.04021 0.0
C1305 C 0.77067 0.44765 0.06964 0.0
C1306 C 0.78962 0.45694 0.06935 0.0
C1307 C 0.79161 0.47455 0.0547 0.0
C1308 C 0.75393 0.45721 0.05649 0.0
C1309 C 0.75659 0.47485 0.04221 0.0
N1310 N 0.78317 0.52673 0.98777 0.0
C1311 C 0.80499 0.54609 0.96059 0.0
C1312 C 0.78838 0.55624 0.94818 0.0
C1313 C 0.7692 0.55176 0.95644 0.0
C1314 C 0.76698 0.53719 0.97616 0.0
C1315 C 0.80207 0.53154 0.98015 0.0
H1316 H 0.75195 0.53467 0.98151 0.0
H1317 H 0.81535 0.52431 0.98859 0.0
H1318 H 0.80651 0.48064 0.05464 0.0
H1319 H 0.74332 0.48115 0.03204 0.0
C1320 C 0.72959 0.50934 0.00131 0.0
C1321 C 0.77826 0.54217 0.06754 0.0
C1322 C 0.77901 0.46383 0.9673 0.0
C1323 C 0.82905 0.50139 0.02558 0.0
H1324 H 0.7372 0.55357 0.0753 0.0
H1325 H 0.71035 0.53573 0.03897 0.0
H1326 H 0.71257 0.48458 0.95606 0.0
H1327 H 0.74003 0.45939 0.93752 0.0
H1328 H 0.81948 0.44947 0.96179 0.0
H1329 H 0.84726 0.47023 0.99357 0.0
H1330 H 0.84664 0.52819 0.06837 0.0
H1331 H 0.81852 0.55025 0.09148 0.0
H1332 H 0.80297 0.45042 0.07987 0.0
H1333 H 0.73891 0.45066 0.05603 0.0
H1334 H 0.82018 0.54899 0.9548 0.0
H1335 H 0.7559 0.55954 0.94783 0.0
H1336 H 0.13417 0.2629 0.397 0.0
H1337 H 0.15962 0.30955 0.45396 0.0
H1338 H 0.12715 0.31346 0.47436 0.0
H1339 H 0.09197 0.30294 0.47699 0.0
H1340 H 0.06602 0.25674 0.4196 0.0
H1341 H 0.0983 0.25324 0.39851 0.0
C1342 C 0.13248 0.27413 0.41357 0.0
C1343 C 0.14915 0.28625 0.42355 0.0
C1344 C 0.11376 0.27626 0.42527 0.0
C1345 C 0.1469 0.30034 0.44558 0.0
C1346 C 0.12838 0.30252 0.45732 0.0
C1347 C 0.09322 0.29234 0.45955 0.0
C1348 C 0.07653 0.28017 0.44987 0.0
C1349 C 0.11174 0.29052 0.4474 0.0
C1350 C 0.07866 0.26616 0.42768 0.0
C1351 C 0.09709 0.26422 0.4155 0.0
H1352 H 0.74188 0.13621 0.37643 0.0
H1353 H 0.70673 0.16829 0.43536 0.0
H1354 H 0.69648 0.13626 0.45371 0.0
H1355 H 0.70055 0.09937 0.45623 0.0
H1356 H 0.73439 0.06724 0.39568 0.0
H1357 H 0.74195 0.09905 0.37464 0.0
C1358 C 0.7319 0.13617 0.39321 0.0
C1359 C 0.72587 0.15462 0.40536 0.0
C1360 C 0.72587 0.1177 0.40343 0.0
C1361 C 0.71228 0.15433 0.42637 0.0
C1362 C 0.70631 0.136 0.43677 0.0
C1363 C 0.70913 0.09923 0.43799 0.0
C1364 C 0.71721 0.08094 0.42792 0.0
C1365 C 0.71346 0.11761 0.42596 0.0
C1366 C 0.72839 0.08114 0.40431 0.0
C1367 C 0.7327 0.09933 0.39221 0.0
H1368 H 0.86812 0.72916 0.43602 0.0
H1369 H 0.88889 0.75174 0.36054 0.0
H1370 H 0.92404 0.74765 0.37867 0.0
H1371 H 0.94897 0.7372 0.41587 0.0
H1372 H 0.92835 0.71627 0.49218 0.0
H1373 H 0.89301 0.71995 0.47386 0.0
C1374 C 0.88038 0.73305 0.42352 0.0
C1375 C 0.87587 0.74017 0.3967 0.0
C1376 C 0.90054 0.73103 0.43428 0.0
C1377 C 0.89189 0.74572 0.38096 0.0
C1378 C 0.912 0.74349 0.39137 0.0
C1379 C 0.93667 0.73379 0.42855 0.0
C1380 C 0.94104 0.7269 0.45547 0.0
C1381 C 0.9165 0.73612 0.41796 0.0
C1382 C 0.92515 0.72189 0.47154 0.0
C1383 C 0.90503 0.72395 0.46106 0.0
H1384 H 0.29834 0.88539 0.33217 0.0
H1385 H 0.22274 0.90463 0.32728 0.0
H1386 H 0.23204 0.93317 0.37329 0.0
H1387 H 0.2621 0.94739 0.41273 0.0
H1388 H 0.3256 0.93187 0.41533 0.0
H1389 H 0.32195 0.9081 0.37538 0.0
C1390 C 0.2862 0.89489 0.33889 0.0
C1391 C 0.25904 0.88942 0.328 0.0
C1392 C 0.28999 0.91224 0.3683 0.0
C1393 C 0.2382 0.90721 0.33559 0.0
C1394 C 0.24395 0.92408 0.36513 0.0
C1395 C 0.27405 0.93857 0.40405 0.0
C1396 C 0.29416 0.94038 0.41558 0.0
C1397 C 0.26926 0.92576 0.38139 0.0
C1398 C 0.31058 0.92951 0.40517 0.0
C1399 C 0.30872 0.91585 0.38221 0.0
H1400 H 0.11001 0.69567 0.65486 0.0
H1401 H 0.15023 0.69428 0.58874 0.0
H1402 H 0.12164 0.6999 0.55486 0.0
H1403 H 0.08508 0.70484 0.544 0.0
H1404 H 0.04466 0.70572 0.60965 0.0
H1405 H 0.07338 0.70061 0.64396 0.0
C1406 C 0.11249 0.69684 0.63306 0.0
C1407 C 0.13224 0.69507 0.62438 0.0
C1408 C 0.09595 0.69986 0.61371 0.0
C1409 C 0.13523 0.69607 0.59598 0.0
C1410 C 0.11889 0.69916 0.57662 0.0
C1411 C 0.08271 0.70396 0.56588 0.0
C1412 C 0.06304 0.70574 0.57461 0.0
C1413 C 0.09921 0.70105 0.58525 0.0
C1414 C 0.05982 0.70445 0.60277 0.0
C1415 C 0.07619 0.70155 0.62226 0.0
H1416 H 0.26303 0.1063 0.68944 0.0
H1417 H 0.22957 0.13995 0.62647 0.0
H1418 H 0.24086 0.11664 0.59042 0.0
H1419 H 0.25881 0.08576 0.57704 0.0
H1420 H 0.29269 0.05224 0.63965 0.0
H1421 H 0.28304 0.07667 0.67563 0.0
C1422 C 0.25855 0.10875 0.66779 0.0
C1423 C 0.24573 0.12503 0.66057 0.0
C1424 C 0.26512 0.09529 0.64717 0.0
C1425 C 0.23967 0.12771 0.63246 0.0
C1426 C 0.24604 0.11435 0.61188 0.0
C1427 C 0.26412 0.08389 0.59858 0.0
C1428 C 0.27627 0.06719 0.6058 0.0
C1429 C 0.25854 0.09796 0.61903 0.0
C1430 C 0.28336 0.06504 0.63365 0.0
C1431 C 0.27776 0.07893 0.6542 0.0
H1432 H 0.88963 0.32631 0.66877 0.0
H1433 H 0.84568 0.2973 0.60983 0.0
H1434 H 0.87276 0.28499 0.58211 0.0
H1435 H 0.90874 0.28382 0.57349 0.0
H1436 H 0.95244 0.31539 0.63038 0.0
H1437 H 0.92575 0.32483 0.66035 0.0
C1438 C 0.88607 0.31702 0.65006 0.0
C1439 C 0.86574 0.31235 0.64174 0.0
C1440 C 0.90167 0.31044 0.63385 0.0
C1441 C 0.86122 0.30074 0.61707 0.0
C1442 C 0.8767 0.2938 0.60111 0.0
C1443 C 0.91246 0.29286 0.59235 0.0
C1444 C 0.93264 0.29889 0.59952 0.0
C1445 C 0.89694 0.29879 0.60911 0.0
C1446 C 0.93715 0.31024 0.62443 0.0
C1447 C 0.92185 0.31583 0.6415 0.0
H1448 H 0.73791 0.91285 0.69213 0.0
H1449 H 0.77854 0.87975 0.64159 0.0
H1450 H 0.76819 0.90031 0.60209 0.0
H1451 H 0.74948 0.92918 0.58295 0.0
H1452 H 0.70905 0.96276 0.63315 0.0
H1453 H 0.717 0.94023 0.67159 0.0
C1454 C 0.74416 0.9099 0.67229 0.0
C1455 C 0.75879 0.89463 0.66966 0.0
C1456 C 0.73822 0.9219 0.64969 0.0
C1457 C 0.76708 0.89124 0.644 0.0
C1458 C 0.76123 0.90304 0.62146 0.0
C1459 C 0.74233 0.93147 0.60227 0.0
C1460 C 0.72889 0.9477 0.60538 0.0
C1461 C 0.74711 0.91863 0.62423 0.0
C1462 C 0.71942 0.95032 0.63029 0.0
C1463 C 0.72407 0.93754 0.6523 0.0
H1464 H 0.92586 0.7298 0.688 0.0
H1465 H 0.89423 0.77802 0.64553 0.0
H1466 H 0.91268 0.7708 0.60442 0.0
H1467 H 0.93849 0.75146 0.58103 0.0
H1468 H 0.96961 0.70266 0.62279 0.0
H1469 H 0.95043 0.70916 0.66353 0.0
C1470 C 0.92296 0.73864 0.66969 0.0
C1471 C 0.90885 0.75455 0.66991 0.0
C1472 C 0.93347 0.73426 0.646 0.0
C1473 C 0.90514 0.76581 0.64594 0.0
C1474 C 0.91565 0.76168 0.62243 0.0
C1475 C 0.94105 0.74226 0.59908 0.0
C1476 C 0.95553 0.72671 0.59904 0.0
C1477 C 0.92998 0.74607 0.62233 0.0
C1478 C 0.95847 0.71466 0.62232 0.0
C1479 C 0.9476 0.71844 0.64565 0.0
H1480 H 0.26079 0.9128 0.65999 0.0
H1481 H 0.28554 0.86756 0.60572 0.0
H1482 H 0.29587 0.89393 0.5755 0.0
H1483 H 0.29586 0.92973 0.56297 0.0
H1484 H 0.27024 0.97484 0.61633 0.0
H1485 H 0.26228 0.94873 0.64866 0.0
C1486 C 0.26878 0.90878 0.64181 0.0
C1487 C 0.27275 0.8883 0.6354 0.0
C1488 C 0.27439 0.92399 0.62437 0.0
C1489 C 0.28267 0.88324 0.61139 0.0
C1490 C 0.28846 0.89829 0.59404 0.0
C1491 C 0.28887 0.93377 0.58199 0.0
C1492 C 0.28384 0.95405 0.58769 0.0
C1493 C 0.28417 0.91868 0.60014 0.0
C1494 C 0.27441 0.95927 0.61192 0.0
C1495 C 0.26981 0.94437 0.63024 0.0
H1496 H 0.14575 0.28013 0.59437 0.0
H1497 H 0.12121 0.24282 0.67739 0.0
H1498 H 0.08014 0.2467 0.65284 0.0
H1499 H 0.05584 0.2643 0.6106 0.0
H1500 H 0.0772 0.2922 0.53873 0.0
H1501 H 0.11295 0.29003 0.5545 0.0
C1502 C 0.13377 0.27298 0.60453 0.0
C1503 C 0.13753 0.26439 0.64082 0.0
C1504 C 0.10769 0.27528 0.59186 0.0
C1505 C 0.11816 0.24937 0.65733 0.0
C1506 C 0.09268 0.25269 0.64257 0.0
C1507 C 0.06849 0.26913 0.59949 0.0
C1508 C 0.06518 0.27805 0.57353 0.0
C1509 C 0.08788 0.26607 0.61102 0.0
C1510 C 0.08107 0.28531 0.55844 0.0
C1511 C 0.1017 0.28413 0.56719 0.0
H1512 H 0.7272 0.1463 0.59081 0.0
H1513 H 0.7647 0.12378 0.65978 0.0
H1514 H 0.75958 0.08914 0.64119 0.0
H1515 H 0.74556 0.06531 0.60422 0.0
H1516 H 0.71015 0.08807 0.53373 0.0
H1517 H 0.71337 0.12261 0.55382 0.0
C1518 C 0.73445 0.13385 0.6016 0.0
C1519 C 0.7468 0.13767 0.62624 0.0
C1520 C 0.73183 0.11404 0.59046 0.0
C1521 C 0.75547 0.12126 0.64048 0.0
C1522 C 0.75254 0.10146 0.62989 0.0
C1523 C 0.73866 0.07793 0.59335 0.0
C1524 C 0.72783 0.07439 0.56755 0.0
C1525 C 0.74099 0.0977 0.60471 0.0
C1526 C 0.71865 0.09063 0.55361 0.0
C1527 C 0.72051 0.1103 0.56505 0.0
H1528 H 0.91633 0.27369 0.34855 0.0
H1529 H 0.87133 0.29463 0.40281 0.0
H1530 H 0.898 0.30512 0.43819 0.0
H1531 H 0.93378 0.30394 0.45587 0.0
H1532 H 0.97867 0.28174 0.40252 0.0
H1533 H 0.95247 0.27644 0.36424 0.0
C1534 C 0.91241 0.28103 0.36785 0.0
C1535 C 0.89191 0.2835 0.37301 0.0
C1536 C 0.92781 0.2867 0.38822 0.0
C1537 C 0.88701 0.29276 0.39828 0.0
C1538 C 0.90224 0.29865 0.41854 0.0
C1539 C 0.93782 0.29864 0.43551 0.0
C1540 C 0.95799 0.29344 0.43164 0.0
C1541 C 0.92264 0.29515 0.41403 0.0
C1542 C 0.96319 0.28607 0.40559 0.0
C1543 C 0.94822 0.28288 0.3839 0.0
H1544 H 0.6979 0.87561 0.43051 0.0
H1545 H 0.70753 0.89915 0.35056 0.0
H1546 H 0.71292 0.93305 0.37175 0.0
H1547 H 0.71442 0.95617 0.41312 0.0
H1548 H 0.7041 0.93281 0.49276 0.0
H1549 H 0.69939 0.89863 0.47175 0.0
C1550 C 0.70142 0.88815 0.41784 0.0
C1551 C 0.70284 0.8848 0.38917 0.0
C1552 C 0.70425 0.90761 0.4301 0.0
C1553 C 0.70685 0.90127 0.37279 0.0
C1554 C 0.70981 0.92066 0.38485 0.0
C1555 C 0.7112 0.94349 0.42571 0.0
C1556 C 0.70967 0.9467 0.45429 0.0
C1557 C 0.70851 0.92401 0.41346 0.0
C1558 C 0.70536 0.93043 0.47067 0.0
C1559 C 0.7027 0.91099 0.45868 0.0
H1560 H 0.09804 0.7243 0.31645 0.0
H1561 H 0.14446 0.74629 0.37764 0.0
H1562 H 0.12305 0.73844 0.41483 0.0
H1563 H 0.09049 0.72744 0.42959 0.0
H1564 H 0.04497 0.70279 0.36878 0.0
H1565 H 0.06667 0.70987 0.33175 0.0
C1566 C 0.10352 0.72722 0.33794 0.0
C1567 C 0.12265 0.73622 0.34426 0.0
C1568 C 0.09125 0.72239 0.35923 0.0
C1569 C 0.12965 0.73967 0.37224 0.0
C1570 C 0.11744 0.73517 0.39348 0.0
C1571 C 0.08539 0.72311 0.40837 0.0
C1572 C 0.06592 0.71473 0.40217 0.0
C1573 C 0.09811 0.72679 0.38719 0.0
C1574 C 0.05962 0.70968 0.3743 0.0
C1575 C 0.0721 0.71359 0.35305 0.0
H1576 H 0.30618 0.11659 0.39488 0.0
H1577 H 0.31185 0.15251 0.47133 0.0
H1578 H 0.30665 0.12236 0.49775 0.0
H1579 H 0.30122 0.08544 0.49915 0.0
H1580 H 0.29641 0.04957 0.42279 0.0
H1581 H 0.30044 0.07993 0.39618 0.0
C1582 C 0.30601 0.11781 0.41729 0.0
C1583 C 0.309 0.1368 0.4311 0.0
C1584 C 0.30321 0.10041 0.43232 0.0
C1585 C 0.30923 0.13812 0.46021 0.0
C1586 C 0.30635 0.12088 0.47532 0.0
C1587 C 0.30093 0.08444 0.47668 0.0
C1588 C 0.29824 0.06556 0.46275 0.0
C1589 C 0.3034 0.10193 0.46162 0.0
C1590 C 0.29818 0.06414 0.43371 0.0
C1591 C 0.30054 0.08143 0.41858 0.0
H1592 H 0.64201 0.74457 0.89093 0.0
H1593 H 0.61732 0.77153 0.81592 0.0
H1594 H 0.59222 0.78961 0.84187 0.0
H1595 H 0.57597 0.79609 0.88543 0.0
H1596 H 0.59897 0.76605 0.95922 0.0
H1597 H 0.62623 0.75145 0.93442 0.0
C1598 C 0.63134 0.7547 0.88041 0.0
C1599 C 0.63181 0.757 0.85172 0.0
C1600 C 0.61658 0.76454 0.89526 0.0
C1601 C 0.61757 0.76978 0.83812 0.0
C1602 C 0.60312 0.78003 0.85292 0.0
C1603 C 0.58688 0.78632 0.89612 0.0
C1604 C 0.58529 0.78239 0.92432 0.0
C1605 C 0.60225 0.77724 0.88143 0.0
C1606 C 0.59989 0.76988 0.93778 0.0
C1607 C 0.61545 0.76124 0.92351 0.0
H1608 H 0.25841 0.64336 0.91663 0.0
H1609 H 0.19883 0.63983 0.87392 0.0
H1610 H 0.1932 0.60707 0.89378 0.0
H1611 H 0.20511 0.5795 0.92373 0.0
H1612 H 0.26358 0.58489 0.96964 0.0
H1613 H 0.26975 0.61658 0.94782 0.0
C1614 C 0.24427 0.63531 0.91152 0.0
C1615 C 0.22933 0.64383 0.89332 0.0
C1616 C 0.2409 0.61675 0.92356 0.0
C1617 C 0.21083 0.63347 0.88737 0.0
C1618 C 0.20753 0.61476 0.89885 0.0
C1619 C 0.21914 0.58764 0.92916 0.0
C1620 C 0.23394 0.5795 0.94807 0.0
C1621 C 0.22244 0.60627 0.91707 0.0
C1622 C 0.2521 0.59035 0.9546 0.0
C1623 C 0.2556 0.60865 0.94233 0.0
H1624 H 0.37503 0.24008 0.93276 0.0
H1625 H 0.40198 0.2629 0.8617 0.0
H1626 H 0.43584 0.2553 0.88279 0.0
H1627 H 0.45785 0.24328 0.92262 0.0
H1628 H 0.43041 0.22056 0.99325 0.0
H1629 H 0.39663 0.2268 0.97116 0.0
C1630 C 0.38831 0.24324 0.92179 0.0
C1631 C 0.38604 0.25203 0.89575 0.0
C1632 C 0.40761 0.23882 0.934 0.0
C1633 C 0.4034 0.25611 0.8818 0.0
C1634 C 0.42272 0.25179 0.89384 0.0
C1635 C 0.44439 0.23955 0.93285 0.0
C1636 C 0.44638 0.23139 0.95927 0.0
C1637 C 0.42503 0.2433 0.92006 0.0
C1638 C 0.42902 0.22671 0.97273 0.0
C1639 C 0.40979 0.23034 0.96019 0.0
H1640 H 0.74682 0.36906 0.92916 0.0
H1641 H 0.77456 0.39116 0.83811 0.0
H1642 H 0.78768 0.42864 0.86677 0.0
H1643 H 0.78939 0.4508 0.91705 0.0
H1644 H 0.76366 0.43272 0.99183 0.0
H1645 H 0.75254 0.39955 0.97306 0.0
C1646 C 0.75353 0.38043 0.91717 0.0
C1647 C 0.76249 0.37452 0.88217 0.0
C1648 C 0.76332 0.4037 0.93314 0.0
C1649 C 0.77125 0.39441 0.85938 0.0
C1650 C 0.78032 0.41713 0.87776 0.0
C1651 C 0.78227 0.4391 0.92805 0.0
C1652 C 0.77699 0.4429 0.95541 0.0
C1653 C 0.77683 0.42108 0.91407 0.0
C1654 C 0.76713 0.42853 0.97082 0.0
C1655 C 0.7605 0.40947 0.96026 0.0
H1656 H 0.64369 0.19243 0.09493 0.0
H1657 H 0.6173 0.18971 0.17354 0.0
H1658 H 0.58535 0.20277 0.15282 0.0
H1659 H 0.56401 0.21203 0.11143 0.0
H1660 H 0.58946 0.21293 0.03221 0.0
H1661 H 0.62277 0.20361 0.05389 0.0
C1662 C 0.63098 0.19493 0.1075 0.0
C1663 C 0.63278 0.19006 0.13567 0.0
C1664 C 0.61252 0.20203 0.09529 0.0
C1665 C 0.61624 0.19333 0.15182 0.0
C1666 C 0.59798 0.20075 0.13998 0.0
C1667 C 0.57704 0.21057 0.09917 0.0
C1668 C 0.57463 0.21332 0.0705 0.0
C1669 C 0.59583 0.20475 0.11165 0.0
C1670 C 0.59127 0.21106 0.05443 0.0
C1671 C 0.61018 0.20564 0.06678 0.0
H1672 H 0.76245 0.60834 0.16 0.0
H1673 H 0.75818 0.64581 0.08867 0.0
H1674 H 0.76806 0.61724 0.05921 0.0
H1675 H 0.77534 0.58096 0.0531 0.0
H1676 H 0.77903 0.54321 0.12388 0.0
H1677 H 0.7724 0.57256 0.15447 0.0
C1678 C 0.76411 0.61032 0.13813 0.0
C1679 C 0.7599 0.62924 0.12659 0.0
C1680 C 0.76968 0.59379 0.12129 0.0
C1681 C 0.76163 0.63147 0.09807 0.0
C1682 C 0.76721 0.61515 0.08122 0.0
C1683 C 0.7751 0.57938 0.07533 0.0
C1684 C 0.77774 0.56023 0.0865 0.0
C1685 C 0.77096 0.59619 0.09252 0.0
C1686 C 0.77718 0.558 0.11514 0.0
C1687 C 0.77326 0.57471 0.13248 0.0
H1688 H 0.40861 0.77408 0.15544 0.0
H1689 H 0.37009 0.82048 0.12 0.0
H1690 H 0.39149 0.82239 0.08094 0.0
H1691 H 0.42186 0.81135 0.05765 0.0
H1692 H 0.4602 0.76512 0.0942 0.0
H1693 H 0.43802 0.76247 0.13183 0.0
C1694 C 0.40475 0.78443 0.13897 0.0
C1695 C 0.38765 0.7969 0.14038 0.0
C1696 C 0.41711 0.78548 0.1168 0.0
C1697 C 0.38303 0.81052 0.11914 0.0
C1698 C 0.3953 0.81166 0.09691 0.0
C1699 C 0.42531 0.80072 0.07388 0.0
C1700 C 0.4426 0.78839 0.07304 0.0
C1701 C 0.41249 0.79932 0.09564 0.0
C1702 C 0.44682 0.77456 0.0941 0.0
C1703 C 0.43422 0.77312 0.11574 0.0
H1704 H 0.2397 0.39484 0.1859 0.0
H1705 H 0.26401 0.35792 0.12096 0.0
H1706 H 0.25454 0.38355 0.08728 0.0
H1707 H 0.24095 0.41695 0.07686 0.0
H1708 H 0.21493 0.45333 0.14107 0.0
H1709 H 0.2236 0.42737 0.17452 0.0
C1710 C 0.24258 0.39223 0.16429 0.0
C1711 C 0.25223 0.3743 0.15582 0.0
C1712 C 0.23698 0.40699 0.14499 0.0
C1713 C 0.2563 0.37143 0.12785 0.0
C1714 C 0.25097 0.3861 0.10864 0.0
C1715 C 0.23671 0.4191 0.09798 0.0
C1716 C 0.22733 0.4372 0.10632 0.0
C1717 C 0.24144 0.40399 0.11702 0.0
C1718 C 0.22246 0.43976 0.13407 0.0
C1719 C 0.22731 0.42485 0.15322 0.0
H1720 H 0.41765 0.22412 0.20886 0.0
H1721 H 0.37773 0.18159 0.16218 0.0
H1722 H 0.39948 0.18164 0.12359 0.0
H1723 H 0.43002 0.19345 0.10328 0.0
H1724 H 0.4705 0.23529 0.15026 0.0
H1725 H 0.44861 0.23551 0.1888 0.0
C1726 C 0.41379 0.21483 0.19025 0.0
C1727 C 0.39615 0.20283 0.1884 0.0
C1728 C 0.42652 0.21468 0.16831 0.0
C1729 C 0.39123 0.19095 0.16411 0.0
C1730 C 0.40367 0.19094 0.14207 0.0
C1731 C 0.43398 0.20267 0.12193 0.0
C1732 C 0.45181 0.21435 0.12393 0.0
C1733 C 0.42137 0.2027 0.14397 0.0
C1734 C 0.45694 0.22601 0.14835 0.0
C1735 C 0.44438 0.22624 0.17031 0.0
H1736 H 0.7443 0.36401 0.11453 0.0
H1737 H 0.80091 0.34566 0.08292 0.0
H1738 H 0.80776 0.38057 0.07133 0.0
H1739 H 0.79628 0.4156 0.06675 0.0
H1740 H 0.73998 0.4342 0.09934 0.0
H1741 H 0.73436 0.39984 0.11395 0.0
C1742 C 0.75824 0.36774 0.1054 0.0
C1743 C 0.77201 0.35231 0.09938 0.0
C1744 C 0.76204 0.3878 0.09878 0.0
C1745 C 0.79005 0.35731 0.08762 0.0
C1746 C 0.79395 0.37723 0.08097 0.0
C1747 C 0.783 0.4123 0.07762 0.0
C1748 C 0.76849 0.42747 0.0817 0.0
C1749 C 0.77987 0.39253 0.086 0.0
C1750 C 0.75122 0.42275 0.09546 0.0
C1751 C 0.74802 0.40312 0.10392 0.0
H1752 H 0.5718 0.77944 0.17964 0.0
H1753 H 0.6231 0.80871 0.14799 0.0
H1754 H 0.60435 0.81131 0.10278 0.0
H1755 H 0.57322 0.80572 0.07241 0.0
H1756 H 0.52138 0.77808 0.10441 0.0
H1757 H 0.54038 0.77459 0.14962 0.0
C1758 C 0.57881 0.78668 0.16307 0.0
C1759 C 0.59867 0.79447 0.16753 0.0
C1760 C 0.56779 0.78851 0.13728 0.0
C1761 C 0.6077 0.80302 0.1453 0.0
C1762 C 0.597 0.80451 0.11945 0.0
C1763 C 0.56605 0.79926 0.08951 0.0
C1764 C 0.54588 0.79258 0.08557 0.0
C1765 C 0.57699 0.7975 0.1153 0.0
C1766 C 0.53682 0.78362 0.10738 0.0
C1767 C 0.5477 0.78157 0.13307 0.0
H1768 H 0.23524 0.64438 0.06057 0.0
H1769 H 0.27142 0.63437 0.13686 0.0
H1770 H 0.26575 0.59795 0.13059 0.0
H1771 H 0.25089 0.56887 0.103 0.0
H1772 H 0.21773 0.57862 0.02451 0.0
H1773 H 0.22173 0.61528 0.03197 0.0
C1774 C 0.24216 0.63423 0.07559 0.0
C1775 C 0.25412 0.64208 0.09885 0.0
C1776 C 0.23938 0.61328 0.07141 0.0
C1777 C 0.26237 0.62871 0.11861 0.0
C1778 C 0.25915 0.60789 0.11503 0.0
C1779 C 0.24504 0.57904 0.08725 0.0
C1780 C 0.2346 0.57119 0.06287 0.0
C1781 C 0.24787 0.59999 0.09138 0.0
C1782 C 0.2261 0.58446 0.04323 0.0
C1783 C 0.22837 0.60535 0.04751 0.0
H1784 H 0.38601 0.79689 0.87203 0.0
H1785 H 0.36796 0.76261 0.94051 0.0
H1786 H 0.40197 0.76541 0.96282 0.0
H1787 H 0.43708 0.77765 0.96335 0.0
H1788 H 0.456 0.80919 0.89339 0.0
H1789 H 0.42143 0.80758 0.87139 0.0
C1790 C 0.3893 0.7903 0.89206 0.0
C1791 C 0.37384 0.78055 0.90514 0.0
C1792 C 0.40915 0.7915 0.90462 0.0
C1793 C 0.37901 0.77115 0.93041 0.0
C1794 C 0.39862 0.77254 0.94318 0.0
C1795 C 0.4335 0.78425 0.94336 0.0
C1796 C 0.44874 0.79418 0.9304 0.0
C1797 C 0.41376 0.78279 0.93059 0.0
C1798 C 0.44424 0.80219 0.90418 0.0
C1799 C 0.42456 0.80108 0.89151 0.0
H1800 H 0.21541 0.41862 0.85173 0.0
H1801 H 0.18713 0.37788 0.9049 0.0
H1802 H 0.1893 0.40363 0.94251 0.0
H1803 H 0.19948 0.43763 0.96048 0.0
H1804 H 0.22663 0.47894 0.90732 0.0
H1805 H 0.22447 0.45319 0.86924 0.0
C1806 C 0.20952 0.41548 0.87145 0.0
C1807 C 0.20084 0.39646 0.87537 0.0
C1808 C 0.21051 0.43048 0.89285 0.0
C1809 C 0.1937 0.39246 0.90126 0.0
C1810 C 0.19491 0.40717 0.92277 0.0
C1811 C 0.20454 0.44103 0.94033 0.0
C1812 C 0.21279 0.46013 0.93626 0.0
C1813 C 0.20321 0.42623 0.91876 0.0
C1814 C 0.2199 0.46436 0.91051 0.0
C1815 C 0.21876 0.44964 0.88891 0.0
H1816 H 0.60644 0.26093 0.86404 0.0
H1817 H 0.64754 0.2191 0.90513 0.0
H1818 H 0.621 0.20889 0.93434 0.0
H1819 H 0.58659 0.21338 0.95003 0.0
H1820 H 0.54641 0.25679 0.91062 0.0
H1821 H 0.572 0.26479 0.87876 0.0
C1822 C 0.60945 0.24933 0.87908 0.0
C1823 C 0.62876 0.24044 0.88192 0.0
C1824 C 0.59431 0.24391 0.8962 0.0
C1825 C 0.63267 0.22584 0.90207 0.0
C1826 C 0.61754 0.22009 0.91888 0.0
C1827 C 0.5834 0.22435 0.93415 0.0
C1828 C 0.5647 0.23448 0.93255 0.0
C1829 C 0.59836 0.22918 0.91633 0.0
C1830 C 0.56077 0.24889 0.91224 0.0
C1831 C 0.57537 0.25346 0.89407 0.0
H1832 H 0.78874 0.61185 0.84464 0.0
H1833 H 0.84094 0.63695 0.8927 0.0
H1834 H 0.83613 0.61348 0.92956 0.0
H1835 H 0.81728 0.58555 0.94788 0.0
H1836 H 0.76525 0.56024 0.89952 0.0
H1837 H 0.76959 0.58425 0.86326 0.0
C1838 C 0.79888 0.61232 0.86336 0.0
C1839 C 0.81494 0.62636 0.86619 0.0
C1840 C 0.79606 0.59875 0.8844 0.0
C1841 C 0.82827 0.62651 0.89026 0.0
C1842 C 0.82557 0.61305 0.91128 0.0
C1843 C 0.80696 0.58523 0.92934 0.0
C1844 C 0.79097 0.57112 0.92643 0.0
C1845 C 0.80957 0.59905 0.90852 0.0
C1846 C 0.77754 0.5711 0.90244 0.0
C1847 C 0.78008 0.58475 0.88162 0.0
loop_
_geom_bond_atom_site_label_1
_geom_bond_atom_site_label_2
_geom_bond_distance
_geom_bond_site_symmetry_2
_ccdc_geom_bond_type
C0 C1 1.560 . S
C0 H61 0.959 . S
C0 H62 0.959 . S
C0 H63 0.960 . S
C1 C0 1.560 . S
C1 O56 1.426 . S
C1 H60 0.980 . S
C2 C3 1.407 . S
C2 C7 1.418 . S
C2 O56 1.334 . S
C3 C2 1.407 . S
C3 C4 1.360 . S
C3 H64 0.929 . S
C4 C3 1.360 . S
C4 C5 1.401 . S
C4 C8 1.527 . S
C5 C4 1.401 . S
C5 C6 1.405 . S
C5 C38 1.587 . S
C6 C5 1.405 . S
C6 C7 1.332 . S
C6 C9 1.496 . S
C7 C2 1.418 . S
C7 C6 1.332 . S
C7 H65 0.929 . S
C8 C4 1.527 . S
C8 H66 0.959 . S
C8 H67 0.961 . S
C8 H68 0.961 . S
C9 C6 1.496 . S
C9 H69 0.960 . S
C9 H70 0.960 . S
C9 H71 0.961 . S
C10 C11 1.517 . S
C10 H73 0.961 . S
C10 H74 0.960 . S
C10 H75 0.959 . S
C11 C10 1.517 . S
C11 O59 1.468 . S
C11 H72 0.980 . S
C12 C13 1.349 . S
C12 C17 1.367 . S
C12 O59 1.408 . S
C13 C12 1.349 . S
C13 C14 1.407 . S
C13 H76 0.930 . S
C14 C13 1.407 . S
C14 C15 1.449 . S
C14 C18 1.535 . S
C15 C14 1.449 . S
C15 C16 1.384 . S
C15 C40 1.553 . S
C16 C15 1.384 . S
C16 C17 1.364 . S
C16 C19 1.450 . S
C17 C12 1.367 . S
C17 C16 1.364 . S
C17 H77 0.931 . S
C18 C14 1.535 . S
C18 H78 0.959 . S
C18 H79 0.961 . S
C18 H80 0.959 . S
C19 C16 1.450 . S
C19 H81 0.960 . S
C19 H82 0.960 . S
C19 H83 0.960 . S
C20 C21 1.309 . S
C20 C25 1.304 . S
C20 O58 1.435 . S
C21 C20 1.309 . S
C21 C22 1.476 . S
C21 H85 0.930 . S
C22 C21 1.476 . S
C22 C23 1.400 . S
C22 C26 1.567 . S
C23 C22 1.400 . S
C23 C24 1.373 . S
C23 C45 1.432 . S
C24 C23 1.373 . S
C24 C25 1.339 . S
C24 C27 1.530 . S
C25 C20 1.304 . S
C25 C24 1.339 . S
C25 H86 0.930 . S
C26 C22 1.567 . S
C26 H87 0.961 . S
C26 H88 0.960 . S
C26 H89 0.958 . S
C27 C24 1.530 . S
C27 H90 0.961 . S
C27 H91 0.960 . S
C27 H92 0.960 . S
C28 C29 1.530 . S
C28 H94 0.961 . S
C28 H95 0.961 . S
C28 H96 0.959 . S
C29 C28 1.530 . S
C29 O57 1.412 . S
C29 H93 0.980 . S
C30 C31 1.288 . S
C30 C35 1.377 . S
C30 O57 1.393 . S
C31 C30 1.288 . S
C31 C32 1.369 . S
C31 H97 0.932 . S
C32 C31 1.369 . S
C32 C33 1.398 . S
C32 C36 1.527 . S
C33 C32 1.398 . S
C33 C34 1.380 . S
C33 C47 1.497 . S
C34 C33 1.380 . S
C34 C35 1.383 . S
C34 C37 1.603 . S
C35 C30 1.377 . S
C35 C34 1.383 . S
C35 H98 0.929 . S
C36 C32 1.527 . S
C36 H99 0.961 . S
C36 H100 0.959 . S
C36 H101 0.959 . S
C37 C34 1.603 . S
C37 H102 0.960 . S
C37 H103 0.962 . S
C37 H104 0.961 . S
C38 C5 1.587 . S
C38 C39 1.360 . S
C38 C51 1.412 . S
C39 C38 1.360 . S
C39 C40 1.365 . S
C39 H105 0.929 . S
C40 C15 1.553 . S
C40 C39 1.365 . S
C40 C41 1.404 . S
C41 C40 1.404 . S
C41 C42 1.395 . S
C41 C52 1.451 . S
C42 C41 1.395 . S
C42 C43 1.322 . S
C42 H106 0.930 . S
C43 C42 1.322 . S
C43 C44 1.459 . S
C43 H107 0.929 . S
C44 C43 1.459 . S
C44 C45 1.445 . S
C44 C53 1.395 . S
C45 C23 1.432 . S
C45 C44 1.445 . S
C45 C46 1.370 . S
C46 C45 1.370 . S
C46 C47 1.438 . S
C46 H108 0.930 . S
C47 C33 1.497 . S
C47 C46 1.438 . S
C47 C48 1.360 . S
C48 C47 1.360 . S
C48 C49 1.401 . S
C48 C53 1.446 . S
C49 C48 1.401 . S
C49 C50 1.347 . S
C49 H109 0.929 . S
C50 C49 1.347 . S
C50 C51 1.455 . S
C50 H110 0.930 . S
C51 C38 1.412 . S
C51 C50 1.455 . S
C51 C52 1.331 . S
C52 C41 1.451 . S
C52 C51 1.331 . S
C52 C53 1.497 . S
C53 C44 1.395 . S
C53 C48 1.446 . S
C53 C52 1.497 . S
C54 C55 1.582 . S
C54 H111 0.962 . S
C54 H112 0.959 . S
C54 H113 0.958 . S
C55 C54 1.582 . S
C55 O58 1.458 . S
C55 H84 0.980 . S
O56 C1 1.426 . S
O56 C2 1.334 . S
O57 C29 1.412 . S
O57 C30 1.393 . S
O58 C20 1.435 . S
O58 C55 1.458 . S
O59 C11 1.468 . S
O59 C12 1.408 . S
H60 C1 0.980 . S
H61 C0 0.959 . S
H62 C0 0.959 . S
H63 C0 0.960 . S
H64 C3 0.929 . S
H65 C7 0.929 . S
H66 C8 0.959 . S
H67 C8 0.961 . S
H68 C8 0.961 . S
H69 C9 0.960 . S
H70 C9 0.960 . S
H71 C9 0.961 . S
H72 C11 0.980 . S
H73 C10 0.961 . S
H74 C10 0.960 . S
H75 C10 0.959 . S
H76 C13 0.930 . S
H77 C17 0.931 . S
H78 C18 0.959 . S
H79 C18 0.961 . S
H80 C18 0.959 . S
H81 C19 0.960 . S
H82 C19 0.960 . S
H83 C19 0.960 . S
H84 C55 0.980 . S
H85 C21 0.930 . S
H86 C25 0.930 . S
H87 C26 0.961 . S
H88 C26 0.960 . S
H89 C26 0.958 . S
H90 C27 0.961 . S
H91 C27 0.960 . S
H92 C27 0.960 . S
H93 C29 0.980 . S
H94 C28 0.961 . S
H95 C28 0.961 . S
H96 C28 0.959 . S
H97 C31 0.932 . S
H98 C35 0.929 . S
H99 C36 0.961 . S
H100 C36 0.959 . S
H101 C36 0.959 . S
H102 C37 0.960 . S
H103 C37 0.962 . S
H104 C37 0.961 . S
H105 C39 0.929 . S
H106 C42 0.930 . S
H107 C43 0.929 . S
H108 C46 0.930 . S
H109 C49 0.929 . S
H110 C50 0.930 . S
H111 C54 0.962 . S
H112 C54 0.959 . S
H113 C54 0.958 . S
C114 C115 1.560 . S
C114 H175 0.959 . S
C114 H176 0.959 . S
C114 H177 0.960 . S
C115 C114 1.560 . S
C115 O170 1.426 . S
C115 H174 0.980 . S
C116 C117 1.407 . S
C116 C121 1.418 . S
C116 O170 1.334 . S
C117 C116 1.407 . S
C117 C118 1.360 . S
C117 H178 0.929 . S
C118 C117 1.360 . S
C118 C119 1.401 . S
C118 C122 1.527 . S
C119 C118 1.401 . S
C119 C120 1.405 . S
C119 C152 1.587 . S
C120 C119 1.405 . S
C120 C121 1.332 . S
C120 C123 1.496 . S
C121 C116 1.418 . S
C121 C120 1.332 . S
C121 H179 0.929 . S
C122 C118 1.527 . S
C122 H180 0.959 . S
C122 H181 0.961 . S
C122 H182 0.961 . S
C123 C120 1.496 . S
C123 H183 0.960 . S
C123 H184 0.960 . S
C123 H185 0.961 . S
C124 C125 1.517 . S
C124 H187 0.961 . S
C124 H188 0.960 . S
C124 H189 0.959 . S
C125 C124 1.517 . S
C125 O173 1.468 . S
C125 H186 0.980 . S
C126 C127 1.349 . S
C126 C131 1.367 . S
C126 O173 1.408 . S
C127 C126 1.349 . S
C127 C128 1.407 . S
C127 H190 0.930 . S
C128 C127 1.407 . S
C128 C129 1.449 . S
C128 C132 1.535 . S
C129 C128 1.449 . S
C129 C130 1.384 . S
C129 C154 1.553 . S
C130 C129 1.384 . S
C130 C131 1.364 . S
C130 C133 1.450 . S
C131 C126 1.367 . S
C131 C130 1.364 . S
C131 H191 0.931 . S
C132 C128 1.535 . S
C132 H192 0.959 . S
C132 H193 0.961 . S
C132 H194 0.959 . S
C133 C130 1.450 . S
C133 H195 0.960 . S
C133 H196 0.960 . S
C133 H197 0.960 . S
C134 C135 1.309 . S
C134 C139 1.304 . S
C134 O172 1.435 . S
C135 C134 1.309 . S
C135 C136 1.476 . S
C135 H199 0.930 . S
C136 C135 1.476 . S
C136 C137 1.400 . S
C136 C140 1.567 . S
C137 C136 1.400 . S
C137 C138 1.373 . S
C137 C159 1.432 . S
C138 C137 1.373 . S
C138 C139 1.339 . S
C138 C141 1.530 . S
C139 C134 1.304 . S
C139 C138 1.339 . S
C139 H200 0.930 . S
C140 C136 1.567 . S
C140 H201 0.961 . S
C140 H202 0.960 . S
C140 H203 0.958 . S
C141 C138 1.530 . S
C141 H204 0.961 . S
C141 H205 0.960 . S
C141 H206 0.960 . S
C142 C143 1.530 . S
C142 H208 0.961 . S
C142 H209 0.961 . S
C142 H210 0.959 . S
C143 C142 1.530 . S
C143 O171 1.412 . S
C143 H207 0.980 . S
C144 C145 1.288 . S
C144 C149 1.377 . S
C144 O171 1.393 . S
C145 C144 1.288 . S
C145 C146 1.369 . S
C145 H211 0.932 . S
C146 C145 1.369 . S
C146 C147 1.398 . S
C146 C150 1.527 . S
C147 C146 1.398 . S
C147 C148 1.380 . S
C147 C161 1.497 . S
C148 C147 1.380 . S
C148 C149 1.383 . S
C148 C151 1.603 . S
C149 C144 1.377 . S
C149 C148 1.383 . S
C149 H212 0.929 . S
C150 C146 1.527 . S
C150 H213 0.961 . S
C150 H214 0.959 . S
C150 H215 0.959 . S
C151 C148 1.603 . S
C151 H216 0.960 . S
C151 H217 0.962 . S
C151 H218 0.961 . S
C152 C119 1.587 . S
C152 C153 1.360 . S
C152 C165 1.412 . S
C153 C152 1.360 . S
C153 C154 1.365 . S
C153 H219 0.929 . S
C154 C129 1.553 . S
C154 C153 1.365 . S
C154 C155 1.404 . S
C155 C154 1.404 . S
C155 C156 1.395 . S
C155 C166 1.451 . S
C156 C155 1.395 . S
C156 C157 1.322 . S
C156 H220 0.930 . S
C157 C156 1.322 . S
C157 C158 1.459 . S
C157 H221 0.929 . S
C158 C157 1.459 . S
C158 C159 1.445 . S
C158 C167 1.395 . S
C159 C137 1.432 . S
C159 C158 1.445 . S
C159 C160 1.370 . S
C160 C159 1.370 . S
C160 C161 1.438 . S
C160 H222 0.930 . S
C161 C147 1.497 . S
C161 C160 1.438 . S
C161 C162 1.360 . S
C162 C161 1.360 . S
C162 C163 1.401 . S
C162 C167 1.446 . S
C163 C162 1.401 . S
C163 C164 1.347 . S
C163 H223 0.929 . S
C164 C163 1.347 . S
C164 C165 1.455 . S
C164 H224 0.930 . S
C165 C152 1.412 . S
C165 C164 1.455 . S
C165 C166 1.331 . S
C166 C155 1.451 . S
C166 C165 1.331 . S
C166 C167 1.497 . S
C167 C158 1.395 . S
C167 C162 1.446 . S
C167 C166 1.497 . S
C168 C169 1.582 . S
C168 H225 0.962 . S
C168 H226 0.959 . S
C168 H227 0.958 . S
C169 C168 1.582 . S
C169 O172 1.458 . S
C169 H198 0.980 . S
O170 C115 1.426 . S
O170 C116 1.334 . S
O171 C143 1.412 . S
O171 C144 1.393 . S
O172 C134 1.435 . S
O172 C169 1.458 . S
O173 C125 1.468 . S
O173 C126 1.408 . S
H174 C115 0.980 . S
H175 C114 0.959 . S
H176 C114 0.959 . S
H177 C114 0.960 . S
H178 C117 0.929 . S
H179 C121 0.929 . S
H180 C122 0.959 . S
H181 C122 0.961 . S
H182 C122 0.961 . S
H183 C123 0.960 . S
H184 C123 0.960 . S
H185 C123 0.961 . S
H186 C125 0.980 . S
H187 C124 0.961 . S
H188 C124 0.960 . S
H189 C124 0.959 . S
H190 C127 0.930 . S
H191 C131 0.931 . S
H192 C132 0.959 . S
H193 C132 0.961 . S
H194 C132 0.959 . S
H195 C133 0.960 . S
H196 C133 0.960 . S
H197 C133 0.960 . S
H198 C169 0.980 . S
H199 C135 0.930 . S
H200 C139 0.930 . S
H201 C140 0.961 . S
H202 C140 0.960 . S
H203 C140 0.958 . S
H204 C141 0.961 . S
H205 C141 0.960 . S
H206 C141 0.960 . S
H207 C143 0.980 . S
H208 C142 0.961 . S
H209 C142 0.961 . S
H210 C142 0.959 . S
H211 C145 0.932 . S
H212 C149 0.929 . S
H213 C150 0.961 . S
H214 C150 0.959 . S
H215 C150 0.959 . S
H216 C151 0.960 . S
H217 C151 0.962 . S
H218 C151 0.961 . S
H219 C153 0.929 . S
H220 C156 0.930 . S
H221 C157 0.929 . S
H222 C160 0.930 . S
H223 C163 0.929 . S
H224 C164 0.930 . S
H225 C168 0.962 . S
H226 C168 0.959 . S
H227 C168 0.958 . S
C228 C229 1.560 . S
C228 H289 0.959 . S
C228 H290 0.959 . S
C228 H291 0.960 . S
C229 C228 1.560 . S
C229 O284 1.426 . S
C229 H288 0.980 . S
C230 C231 1.407 . S
C230 C235 1.418 . S
C230 O284 1.334 . S
C231 C230 1.407 . S
C231 C232 1.360 . S
C231 H292 0.929 . S
C232 C231 1.360 . S
C232 C233 1.401 . S
C232 C236 1.527 . S
C233 C232 1.401 . S
C233 C234 1.405 . S
C233 C266 1.587 . S
C234 C233 1.405 . S
C234 C235 1.332 . S
C234 C237 1.496 . S
C235 C230 1.418 . S
C235 C234 1.332 . S
C235 H293 0.929 . S
C236 C232 1.527 . S
C236 H294 0.959 . S
C236 H295 0.961 . S
C236 H296 0.961 . S
C237 C234 1.496 . S
C237 H297 0.960 . S
C237 H298 0.960 . S
C237 H299 0.961 . S
C238 C239 1.517 . S
C238 H301 0.961 . S
C238 H302 0.960 . S
C238 H303 0.959 . S
C239 C238 1.517 . S
C239 O287 1.468 . S
C239 H300 0.980 . S
C240 C241 1.349 . S
C240 C245 1.367 . S
C240 O287 1.408 . S
C241 C240 1.349 . S
C241 C242 1.407 . S
C241 H304 0.930 . S
C242 C241 1.407 . S
C242 C243 1.449 . S
C242 C246 1.535 . S
C243 C242 1.449 . S
C243 C244 1.384 . S
C243 C268 1.553 . S
C244 C243 1.384 . S
C244 C245 1.364 . S
C244 C247 1.450 . S
C245 C240 1.367 . S
C245 C244 1.364 . S
C245 H305 0.931 . S
C246 C242 1.535 . S
C246 H306 0.959 . S
C246 H307 0.961 . S
C246 H308 0.959 . S
C247 C244 1.450 . S
C247 H309 0.960 . S
C247 H310 0.960 . S
C247 H311 0.960 . S
C248 C249 1.309 . S
C248 C253 1.304 . S
C248 O286 1.435 . S
C249 C248 1.309 . S
C249 C250 1.476 . S
C249 H313 0.930 . S
C250 C249 1.476 . S
C250 C251 1.400 . S
C250 C254 1.567 . S
C251 C250 1.400 . S
C251 C252 1.373 . S
C251 C273 1.432 . S
C252 C251 1.373 . S
C252 C253 1.339 . S
C252 C255 1.530 . S
C253 C248 1.304 . S
C253 C252 1.339 . S
C253 H314 0.930 . S
C254 C250 1.567 . S
C254 H315 0.961 . S
C254 H316 0.960 . S
C254 H317 0.958 . S
C255 C252 1.530 . S
C255 H318 0.961 . S
C255 H319 0.960 . S
C255 H320 0.960 . S
C256 C257 1.530 . S
C256 H322 0.961 . S
C256 H323 0.961 . S
C256 H324 0.959 . S
C257 C256 1.530 . S
C257 O285 1.412 . S
C257 H321 0.980 . S
C258 C259 1.288 . S
C258 C263 1.377 . S
C258 O285 1.393 . S
C259 C258 1.288 . S
C259 C260 1.369 . S
C259 H325 0.932 . S
C260 C259 1.369 . S
C260 C261 1.398 . S
C260 C264 1.527 . S
C261 C260 1.398 . S
C261 C262 1.380 . S
C261 C275 1.497 . S
C262 C261 1.380 . S
C262 C263 1.383 . S
C262 C265 1.603 . S
C263 C258 1.377 . S
C263 C262 1.383 . S
C263 H326 0.929 . S
C264 C260 1.527 . S
C264 H327 0.961 . S
C264 H328 0.959 . S
C264 H329 0.959 . S
C265 C262 1.603 . S
C265 H330 0.960 . S
C265 H331 0.962 . S
C265 H332 0.961 . S
C266 C233 1.587 . S
C266 C267 1.360 . S
C266 C279 1.412 . S
C267 C266 1.360 . S
C267 C268 1.365 . S
C267 H333 0.929 . S
C268 C243 1.553 . S
C268 C267 1.365 . S
C268 C269 1.404 . S
C269 C268 1.404 . S
C269 C270 1.395 . S
C269 C280 1.451 . S
C270 C269 1.395 . S
C270 C271 1.322 . S
C270 H334 0.930 . S
C271 C270 1.322 . S
C271 C272 1.459 . S
C271 H335 0.929 . S
C272 C271 1.459 . S
C272 C273 1.445 . S
C272 C281 1.395 . S
C273 C251 1.432 . S
C273 C272 1.445 . S
C273 C274 1.370 . S
C274 C273 1.370 . S
C274 C275 1.438 . S
C274 H336 0.930 . S
C275 C261 1.497 . S
C275 C274 1.438 . S
C275 C276 1.360 . S
C276 C275 1.360 . S
C276 C277 1.401 . S
C276 C281 1.446 . S
C277 C276 1.401 . S
C277 C278 1.347 . S
C277 H337 0.929 . S
C278 C277 1.347 . S
C278 C279 1.455 . S
C278 H338 0.930 . S
C279 C266 1.412 . S
C279 C278 1.455 . S
C279 C280 1.331 . S
C280 C269 1.451 . S
C280 C279 1.331 . S
C280 C281 1.497 . S
C281 C272 1.395 . S
C281 C276 1.446 . S
C281 C280 1.497 . S
C282 C283 1.582 . S
C282 H339 0.962 . S
C282 H340 0.959 . S
C282 H341 0.958 . S
C283 C282 1.582 . S
C283 O286 1.458 . S
C283 H312 0.980 . S
O284 C229 1.426 . S
O284 C230 1.334 . S
O285 C257 1.412 . S
O285 C258 1.393 . S
O286 C248 1.435 . S
O286 C283 1.458 . S
O287 C239 1.468 . S
O287 C240 1.408 . S
H288 C229 0.980 . S
H289 C228 0.959 . S
H290 C228 0.959 . S
H291 C228 0.960 . S
H292 C231 0.929 . S
H293 C235 0.929 . S
H294 C236 0.959 . S
H295 C236 0.961 . S
H296 C236 0.961 . S
H297 C237 0.960 . S
H298 C237 0.960 . S
H299 C237 0.961 . S
H300 C239 0.980 . S
H301 C238 0.961 . S
H302 C238 0.960 . S
H303 C238 0.959 . S
H304 C241 0.930 . S
H305 C245 0.931 . S
H306 C246 0.959 . S
H307 C246 0.961 . S
H308 C246 0.959 . S
H309 C247 0.960 . S
H310 C247 0.960 . S
H311 C247 0.960 . S
H312 C283 0.980 . S
H313 C249 0.930 . S
H314 C253 0.930 . S
H315 C254 0.961 . S
H316 C254 0.960 . S
H317 C254 0.958 . S
H318 C255 0.961 . S
H319 C255 0.960 . S
H320 C255 0.960 . S
H321 C257 0.980 . S
H322 C256 0.961 . S
H323 C256 0.961 . S
H324 C256 0.959 . S
H325 C259 0.932 . S
H326 C263 0.929 . S
H327 C264 0.961 . S
H328 C264 0.959 . S
H329 C264 0.959 . S
H330 C265 0.960 . S
H331 C265 0.962 . S
H332 C265 0.961 . S
H333 C267 0.929 . S
H334 C270 0.930 . S
H335 C271 0.929 . S
H336 C274 0.930 . S
H337 C277 0.929 . S
H338 C278 0.930 . S
H339 C282 0.962 . S
H340 C282 0.959 . S
H341 C282 0.958 . S
C342 C343 1.560 . S
C342 H403 0.959 . S
C342 H404 0.959 . S
C342 H405 0.960 . S
C343 C342 1.560 . S
C343 O398 1.426 . S
C343 H402 0.980 . S
C344 C345 1.407 . S
C344 C349 1.418 . S
C344 O398 1.334 . S
C345 C344 1.407 . S
C345 C346 1.360 . S
C345 H406 0.929 . S
C346 C345 1.360 . S
C346 C347 1.401 . S
C346 C350 1.527 . S
C347 C346 1.401 . S
C347 C348 1.405 . S
C347 C380 1.587 . S
C348 C347 1.405 . S
C348 C349 1.332 . S
C348 C351 1.496 . S
C349 C344 1.418 . S
C349 C348 1.332 . S
C349 H407 0.929 . S
C350 C346 1.527 . S
C350 H408 0.959 . S
C350 H409 0.961 . S
C350 H410 0.961 . S
C351 C348 1.496 . S
C351 H411 0.960 . S
C351 H412 0.960 . S
C351 H413 0.961 . S
C352 C353 1.517 . S
C352 H415 0.961 . S
C352 H416 0.960 . S
C352 H417 0.959 . S
C353 C352 1.517 . S
C353 O401 1.468 . S
C353 H414 0.980 . S
C354 C355 1.349 . S
C354 C359 1.367 . S
C354 O401 1.408 . S
C355 C354 1.349 . S
C355 C356 1.407 . S
C355 H418 0.930 . S
C356 C355 1.407 . S
C356 C357 1.449 . S
C356 C360 1.535 . S
C357 C356 1.449 . S
C357 C358 1.384 . S
C357 C382 1.553 . S
C358 C357 1.384 . S
C358 C359 1.364 . S
C358 C361 1.450 . S
C359 C354 1.367 . S
C359 C358 1.364 . S
C359 H419 0.931 . S
C360 C356 1.535 . S
C360 H420 0.959 . S
C360 H421 0.961 . S
C360 H422 0.959 . S
C361 C358 1.450 . S
C361 H423 0.960 . S
C361 H424 0.960 . S
C361 H425 0.960 . S
C362 C363 1.309 . S
C362 C367 1.304 . S
C362 O400 1.435 . S
C363 C362 1.309 . S
C363 C364 1.476 . S
C363 H427 0.930 . S
C364 C363 1.476 . S
C364 C365 1.400 . S
C364 C368 1.567 . S
C365 C364 1.400 . S
C365 C366 1.373 . S
C365 C387 1.432 . S
C366 C365 1.373 . S
C366 C367 1.339 . S
C366 C369 1.530 . S
C367 C362 1.304 . S
C367 C366 1.339 . S
C367 H428 0.930 . S
C368 C364 1.567 . S
C368 H429 0.961 . S
C368 H430 0.960 . S
C368 H431 0.958 . S
C369 C366 1.530 . S
C369 H432 0.961 . S
C369 H433 0.960 . S
C369 H434 0.960 . S
C370 C371 1.530 . S
C370 H436 0.961 . S
C370 H437 0.961 . S
C370 H438 0.959 . S
C371 C370 1.530 . S
C371 O399 1.412 . S
C371 H435 0.980 . S
C372 C373 1.288 . S
C372 C377 1.377 . S
C372 O399 1.393 . S
C373 C372 1.288 . S
C373 C374 1.369 . S
C373 H439 0.932 . S
C374 C373 1.369 . S
C374 C375 1.398 . S
C374 C378 1.527 . S
C375 C374 1.398 . S
C375 C376 1.380 . S
C375 C389 1.497 . S
C376 C375 1.380 . S
C376 C377 1.383 . S
C376 C379 1.603 . S
C377 C372 1.377 . S
C377 C376 1.383 . S
C377 H440 0.929 . S
C378 C374 1.527 . S
C378 H441 0.961 . S
C378 H442 0.959 . S
C378 H443 0.959 . S
C379 C376 1.603 . S
C379 H444 0.960 . S
C379 H445 0.962 . S
C379 H446 0.961 . S
C380 C347 1.587 . S
C380 C381 1.360 . S
C380 C393 1.412 . S
C381 C380 1.360 . S
C381 C382 1.365 . S
C381 H447 0.929 . S
C382 C357 1.553 . S
C382 C381 1.365 . S
C382 C383 1.404 . S
C383 C382 1.404 . S
C383 C384 1.395 . S
C383 C394 1.451 . S
C384 C383 1.395 . S
C384 C385 1.322 . S
C384 H448 0.930 . S
C385 C384 1.322 . S
C385 C386 1.459 . S
C385 H449 0.929 . S
C386 C385 1.459 . S
C386 C387 1.445 . S
C386 C395 1.395 . S
C387 C365 1.432 . S
C387 C386 1.445 . S
C387 C388 1.370 . S
C388 C387 1.370 . S
C388 C389 1.438 . S
C388 H450 0.930 . S
C389 C375 1.497 . S
C389 C388 1.438 . S
C389 C390 1.360 . S
C390 C389 1.360 . S
C390 C391 1.401 . S
C390 C395 1.446 . S
C391 C390 1.401 . S
C391 C392 1.347 . S
C391 H451 0.929 . S
C392 C391 1.347 . S
C392 C393 1.455 . S
C392 H452 0.930 . S
C393 C380 1.412 . S
C393 C392 1.455 . S
C393 C394 1.331 . S
C394 C383 1.451 . S
C394 C393 1.331 . S
C394 C395 1.497 . S
C395 C386 1.395 . S
C395 C390 1.446 . S
C395 C394 1.497 . S
C396 C397 1.582 . S
C396 H453 0.962 . S
C396 H454 0.959 . S
C396 H455 0.958 . S
C397 C396 1.582 . S
C397 O400 1.458 . S
C397 H426 0.980 . S
O398 C343 1.426 . S
O398 C344 1.334 . S
O399 C371 1.412 . S
O399 C372 1.393 . S
O400 C362 1.435 . S
O400 C397 1.458 . S
O401 C353 1.468 . S
O401 C354 1.408 . S
H402 C343 0.980 . S
H403 C342 0.959 . S
H404 C342 0.959 . S
H405 C342 0.960 . S
H406 C345 0.929 . S
H407 C349 0.929 . S
H408 C350 0.959 . S
H409 C350 0.961 . S
H410 C350 0.961 . S
H411 C351 0.960 . S
H412 C351 0.960 . S
H413 C351 0.961 . S
H414 C353 0.980 . S
H415 C352 0.961 . S
H416 C352 0.960 . S
H417 C352 0.959 . S
H418 C355 0.930 . S
H419 C359 0.931 . S
H420 C360 0.959 . S
H421 C360 0.961 . S
H422 C360 0.959 . S
H423 C361 0.960 . S
H424 C361 0.960 . S
H425 C361 0.960 . S
H426 C397 0.980 . S
H427 C363 0.930 . S
H428 C367 0.930 . S
H429 C368 0.961 . S
H430 C368 0.960 . S
H431 C368 0.958 . S
H432 C369 0.961 . S
H433 C369 0.960 . S
H434 C369 0.960 . S
H435 C371 0.980 . S
H436 C370 0.961 . S
H437 C370 0.961 . S
H438 C370 0.959 . S
H439 C373 0.932 . S
H440 C377 0.929 . S
H441 C378 0.961 . S
H442 C378 0.959 . S
H443 C378 0.959 . S
H444 C379 0.960 . S
H445 C379 0.962 . S
H446 C379 0.961 . S
H447 C381 0.929 . S
H448 C384 0.930 . S
H449 C385 0.929 . S
H450 C388 0.930 . S
H451 C391 0.929 . S
H452 C392 0.930 . S
H453 C396 0.962 . S
H454 C396 0.959 . S
H455 C396 0.958 . S
C456 C457 1.560 . S
C456 H517 0.959 . S
C456 H518 0.959 . S
C456 H519 0.960 . S
C457 C456 1.560 . S
C457 O512 1.426 . S
C457 H516 0.980 . S
C458 C459 1.407 . S
C458 C463 1.418 . S
C458 O512 1.334 . S
C459 C458 1.407 . S
C459 C460 1.360 . S
C459 H520 0.929 . S
C460 C459 1.360 . S
C460 C461 1.401 . S
C460 C464 1.527 . S
C461 C460 1.401 . S
C461 C462 1.405 . S
C461 C494 1.587 . S
C462 C461 1.405 . S
C462 C463 1.332 . S
C462 C465 1.496 . S
C463 C458 1.418 . S
C463 C462 1.332 . S
C463 H521 0.929 . S
C464 C460 1.527 . S
C464 H522 0.959 . S
C464 H523 0.961 . S
C464 H524 0.961 . S
C465 C462 1.496 . S
C465 H525 0.960 . S
C465 H526 0.960 . S
C465 H527 0.961 . S
C466 C467 1.517 . S
C466 H529 0.961 . S
C466 H530 0.960 . S
C466 H531 0.959 . S
C467 C466 1.517 . S
C467 O515 1.468 . S
C467 H528 0.980 . S
C468 C469 1.349 . S
C468 C473 1.367 . S
C468 O515 1.408 . S
C469 C468 1.349 . S
C469 C470 1.407 . S
C469 H532 0.930 . S
C470 C469 1.407 . S
C470 C471 1.449 . S
C470 C474 1.535 . S
C471 C470 1.449 . S
C471 C472 1.384 . S
C471 C496 1.553 . S
C472 C471 1.384 . S
C472 C473 1.364 . S
C472 C475 1.450 . S
C473 C468 1.367 . S
C473 C472 1.364 . S
C473 H533 0.931 . S
C474 C470 1.535 . S
C474 H534 0.959 . S
C474 H535 0.961 . S
C474 H536 0.959 . S
C475 C472 1.450 . S
C475 H537 0.960 . S
C475 H538 0.960 . S
C475 H539 0.960 . S
C476 C477 1.309 . S
C476 C481 1.304 . S
C476 O514 1.435 . S
C477 C476 1.309 . S
C477 C478 1.476 . S
C477 H541 0.930 . S
C478 C477 1.476 . S
C478 C479 1.400 . S
C478 C482 1.567 . S
C479 C478 1.400 . S
C479 C480 1.373 . S
C479 C501 1.432 . S
C480 C479 1.373 . S
C480 C481 1.339 . S
C480 C483 1.530 . S
C481 C476 1.304 . S
C481 C480 1.339 . S
C481 H542 0.930 . S
C482 C478 1.567 . S
C482 H543 0.961 . S
C482 H544 0.960 . S
C482 H545 0.958 . S
C483 C480 1.530 . S
C483 H546 0.961 . S
C483 H547 0.960 . S
C483 H548 0.960 . S
C484 C485 1.530 . S
C484 H550 0.961 . S
C484 H551 0.961 . S
C484 H552 0.959 . S
C485 C484 1.530 . S
C485 O513 1.412 . S
C485 H549 0.980 . S
C486 C487 1.288 . S
C486 C491 1.377 . S
C486 O513 1.393 . S
C487 C486 1.288 . S
C487 C488 1.369 . S
C487 H553 0.932 . S
C488 C487 1.369 . S
C488 C489 1.398 . S
C488 C492 1.527 . S
C489 C488 1.398 . S
C489 C490 1.380 . S
C489 C503 1.497 . S
C490 C489 1.380 . S
C490 C491 1.383 . S
C490 C493 1.603 . S
C491 C486 1.377 . S
C491 C490 1.383 . S
C491 H554 0.929 . S
C492 C488 1.527 . S
C492 H555 0.961 . S
C492 H556 0.959 . S
C492 H557 0.959 . S
C493 C490 1.603 . S
C493 H558 0.960 . S
C493 H559 0.962 . S
C493 H560 0.961 . S
C494 C461 1.587 . S
C494 C495 1.360 . S
C494 C507 1.412 . S
C495 C494 1.360 . S
C495 C496 1.365 . S
C495 H561 0.929 . S
C496 C471 1.553 . S
C496 C495 1.365 . S
C496 C497 1.404 . S
C497 C496 1.404 . S
C497 C498 1.395 . S
C497 C508 1.451 . S
C498 C497 1.395 . S
C498 C499 1.322 . S
C498 H562 0.930 . S
C499 C498 1.322 . S
C499 C500 1.459 . S
C499 H563 0.929 . S
C500 C499 1.459 . S
C500 C501 1.445 . S
C500 C509 1.395 . S
C501 C479 1.432 . S
C501 C500 1.445 . S
C501 C502 1.370 . S
C502 C501 1.370 . S
C502 C503 1.438 . S
C502 H564 0.930 . S
C503 C489 1.497 . S
C503 C502 1.438 . S
C503 C504 1.360 . S
C504 C503 1.360 . S
C504 C505 1.401 . S
C504 C509 1.446 . S
C505 C504 1.401 . S
C505 C506 1.347 . S
C505 H565 0.929 . S
C506 C505 1.347 . S
C506 C507 1.455 . S
C506 H566 0.930 . S
C507 C494 1.412 . S
C507 C506 1.455 . S
C507 C508 1.331 . S
C508 C497 1.451 . S
C508 C507 1.331 . S
C508 C509 1.497 . S
C509 C500 1.395 . S
C509 C504 1.446 . S
C509 C508 1.497 . S
C510 C511 1.582 . S
C510 H567 0.962 . S
C510 H568 0.959 . S
C510 H569 0.958 . S
C511 C510 1.582 . S
C511 O514 1.458 . S
C511 H540 0.980 . S
O512 C457 1.426 . S
O512 C458 1.334 . S
O513 C485 1.412 . S
O513 C486 1.393 . S
O514 C476 1.435 . S
O514 C511 1.458 . S
O515 C467 1.468 . S
O515 C468 1.408 . S
H516 C457 0.980 . S
H517 C456 0.959 . S
H518 C456 0.959 . S
H519 C456 0.960 . S
H520 C459 0.929 . S
H521 C463 0.929 . S
H522 C464 0.959 . S
H523 C464 0.961 . S
H524 C464 0.961 . S
H525 C465 0.960 . S
H526 C465 0.960 . S
H527 C465 0.961 . S
H528 C467 0.980 . S
H529 C466 0.961 . S
H530 C466 0.960 . S
H531 C466 0.959 . S
H532 C469 0.930 . S
H533 C473 0.931 . S
H534 C474 0.959 . S
H535 C474 0.961 . S
H536 C474 0.959 . S
H537 C475 0.960 . S
H538 C475 0.960 . S
H539 C475 0.960 . S
H540 C511 0.980 . S
H541 C477 0.930 . S
H542 C481 0.930 . S
H543 C482 0.961 . S
H544 C482 0.960 . S
H545 C482 0.958 . S
H546 C483 0.961 . S
H547 C483 0.960 . S
H548 C483 0.960 . S
H549 C485 0.980 . S
H550 C484 0.961 . S
H551 C484 0.961 . S
H552 C484 0.959 . S
H553 C487 0.932 . S
H554 C491 0.929 . S
H555 C492 0.961 . S
H556 C492 0.959 . S
H557 C492 0.959 . S
H558 C493 0.960 . S
H559 C493 0.962 . S
H560 C493 0.961 . S
H561 C495 0.929 . S
H562 C498 0.930 . S
H563 C499 0.929 . S
H564 C502 0.930 . S
H565 C505 0.929 . S
H566 C506 0.930 . S
H567 C510 0.962 . S
H568 C510 0.959 . S
H569 C510 0.958 . S
C570 C571 1.560 . S
C570 H631 0.959 . S
C570 H632 0.959 . S
C570 H633 0.960 . S
C571 C570 1.560 . S
C571 O626 1.426 . S
C571 H630 0.980 . S
C572 C573 1.407 . S
C572 C577 1.418 . S
C572 O626 1.334 . S
C573 C572 1.407 . S
C573 C574 1.360 . S
C573 H634 0.929 . S
C574 C573 1.360 . S
C574 C575 1.401 . S
C574 C578 1.527 . S
C575 C574 1.401 . S
C575 C576 1.405 . S
C575 C608 1.587 . S
C576 C575 1.405 . S
C576 C577 1.332 . S
C576 C579 1.496 . S
C577 C572 1.418 . S
C577 C576 1.332 . S
C577 H635 0.929 . S
C578 C574 1.527 . S
C578 H636 0.959 . S
C578 H637 0.961 . S
C578 H638 0.961 . S
C579 C576 1.496 . S
C579 H639 0.960 . S
C579 H640 0.960 . S
C579 H641 0.961 . S
C580 C581 1.517 . S
C580 H643 0.961 . S
C580 H644 0.960 . S
C580 H645 0.959 . S
C581 C580 1.517 . S
C581 O629 1.468 . S
C581 H642 0.980 . S
C582 C583 1.349 . S
C582 C587 1.367 . S
C582 O629 1.408 . S
C583 C582 1.349 . S
C583 C584 1.407 . S
C583 H646 0.930 . S
C584 C583 1.407 . S
C584 C585 1.449 . S
C584 C588 1.535 . S
C585 C584 1.449 . S
C585 C586 1.384 . S
C585 C610 1.553 . S
C586 C585 1.384 . S
C586 C587 1.364 . S
C586 C589 1.450 . S
C587 C582 1.367 . S
C587 C586 1.364 . S
C587 H647 0.931 . S
C588 C584 1.535 . S
C588 H648 0.959 . S
C588 H649 0.961 . S
C588 H650 0.959 . S
C589 C586 1.450 . S
C589 H651 0.960 . S
C589 H652 0.960 . S
C589 H653 0.960 . S
C590 C591 1.309 . S
C590 C595 1.304 . S
C590 O628 1.435 . S
C591 C590 1.309 . S
C591 C592 1.476 . S
C591 H655 0.930 . S
C592 C591 1.476 . S
C592 C593 1.400 . S
C592 C596 1.567 . S
C593 C592 1.400 . S
C593 C594 1.373 . S
C593 C615 1.432 . S
C594 C593 1.373 . S
C594 C595 1.339 . S
C594 C597 1.530 . S
C595 C590 1.304 . S
C595 C594 1.339 . S
C595 H656 0.930 . S
C596 C592 1.567 . S
C596 H657 0.961 . S
C596 H658 0.960 . S
C596 H659 0.958 . S
C597 C594 1.530 . S
C597 H660 0.961 . S
C597 H661 0.960 . S
C597 H662 0.960 . S
C598 C599 1.530 . S
C598 H664 0.961 . S
C598 H665 0.961 . S
C598 H666 0.959 . S
C599 C598 1.530 . S
C599 O627 1.412 . S
C599 H663 0.980 . S
C600 C601 1.288 . S
C600 C605 1.377 . S
C600 O627 1.393 . S
C601 C600 1.288 . S
C601 C602 1.369 . S
C601 H667 0.932 . S
C602 C601 1.369 . S
C602 C603 1.398 . S
C602 C606 1.527 . S
C603 C602 1.398 . S
C603 C604 1.380 . S
C603 C617 1.497 . S
C604 C603 1.380 . S
C604 C605 1.383 . S
C604 C607 1.603 . S
C605 C600 1.377 . S
C605 C604 1.383 . S
C605 H668 0.929 . S
C606 C602 1.527 . S
C606 H669 0.961 . S
C606 H670 0.959 . S
C606 H671 0.959 . S
C607 C604 1.603 . S
C607 H672 0.960 . S
C607 H673 0.962 . S
C607 H674 0.961 . S
C608 C575 1.587 . S
C608 C609 1.360 . S
C608 C621 1.412 . S
C609 C608 1.360 . S
C609 C610 1.365 . S
C609 H675 0.929 . S
C610 C585 1.553 . S
C610 C609 1.365 . S
C610 C611 1.404 . S
C611 C610 1.404 . S
C611 C612 1.395 . S
C611 C622 1.451 . S
C612 C611 1.395 . S
C612 C613 1.322 . S
C612 H676 0.930 . S
C613 C612 1.322 . S
C613 C614 1.459 . S
C613 H677 0.929 . S
C614 C613 1.459 . S
C614 C615 1.445 . S
C614 C623 1.395 . S
C615 C593 1.432 . S
C615 C614 1.445 . S
C615 C616 1.370 . S
C616 C615 1.370 . S
C616 C617 1.438 . S
C616 H678 0.930 . S
C617 C603 1.497 . S
C617 C616 1.438 . S
C617 C618 1.360 . S
C618 C617 1.360 . S
C618 C619 1.401 . S
C618 C623 1.446 . S
C619 C618 1.401 . S
C619 C620 1.347 . S
C619 H679 0.929 . S
C620 C619 1.347 . S
C620 C621 1.455 . S
C620 H680 0.930 . S
C621 C608 1.412 . S
C621 C620 1.455 . S
C621 C622 1.331 . S
C622 C611 1.451 . S
C622 C621 1.331 . S
C622 C623 1.497 . S
C623 C614 1.395 . S
C623 C618 1.446 . S
C623 C622 1.497 . S
C624 C625 1.582 . S
C624 H681 0.962 . S
C624 H682 0.959 . S
C624 H683 0.958 . S
C625 C624 1.582 . S
C625 O628 1.458 . S
C625 H654 0.980 . S
O626 C571 1.426 . S
O626 C572 1.334 . S
O627 C599 1.412 . S
O627 C600 1.393 . S
O628 C590 1.435 . S
O628 C625 1.458 . S
O629 C581 1.468 . S
O629 C582 1.408 . S
H630 C571 0.980 . S
H631 C570 0.959 . S
H632 C570 0.959 . S
H633 C570 0.960 . S
H634 C573 0.929 . S
H635 C577 0.929 . S
H636 C578 0.959 . S
H637 C578 0.961 . S
H638 C578 0.961 . S
H639 C579 0.960 . S
H640 C579 0.960 . S
H641 C579 0.961 . S
H642 C581 0.980 . S
H643 C580 0.961 . S
H644 C580 0.960 . S
H645 C580 0.959 . S
H646 C583 0.930 . S
H647 C587 0.931 . S
H648 C588 0.959 . S
H649 C588 0.961 . S
H650 C588 0.959 . S
H651 C589 0.960 . S
H652 C589 0.960 . S
H653 C589 0.960 . S
H654 C625 0.980 . S
H655 C591 0.930 . S
H656 C595 0.930 . S
H657 C596 0.961 . S
H658 C596 0.960 . S
H659 C596 0.958 . S
H660 C597 0.961 . S
H661 C597 0.960 . S
H662 C597 0.960 . S
H663 C599 0.980 . S
H664 C598 0.961 . S
H665 C598 0.961 . S
H666 C598 0.959 . S
H667 C601 0.932 . S
H668 C605 0.929 . S
H669 C606 0.961 . S
H670 C606 0.959 . S
H671 C606 0.959 . S
H672 C607 0.960 . S
H673 C607 0.962 . S
H674 C607 0.961 . S
H675 C609 0.929 . S
H676 C612 0.930 . S
H677 C613 0.929 . S
H678 C616 0.930 . S
H679 C619 0.929 . S
H680 C620 0.930 . S
H681 C624 0.962 . S
H682 C624 0.959 . S
H683 C624 0.958 . S
C684 C685 1.560 . S
C684 H745 0.959 . S
C684 H746 0.959 . S
C684 H747 0.960 . S
C685 C684 1.560 . S
C685 O740 1.426 . S
C685 H744 0.980 . S
C686 C687 1.407 . S
C686 C691 1.418 . S
C686 O740 1.334 . S
C687 C686 1.407 . S
C687 C688 1.360 . S
C687 H748 0.929 . S
C688 C687 1.360 . S
C688 C689 1.401 . S
C688 C692 1.527 . S
C689 C688 1.401 . S
C689 C690 1.405 . S
C689 C722 1.587 . S
C690 C689 1.405 . S
C690 C691 1.332 . S
C690 C693 1.496 . S
C691 C686 1.418 . S
C691 C690 1.332 . S
C691 H749 0.929 . S
C692 C688 1.527 . S
C692 H750 0.959 . S
C692 H751 0.961 . S
C692 H752 0.961 . S
C693 C690 1.496 . S
C693 H753 0.960 . S
C693 H754 0.960 . S
C693 H755 0.961 . S
C694 C695 1.517 . S
C694 H757 0.961 . S
C694 H758 0.960 . S
C694 H759 0.959 . S
C695 C694 1.517 . S
C695 O743 1.468 . S
C695 H756 0.980 . S
C696 C697 1.349 . S
C696 C701 1.367 . S
C696 O743 1.408 . S
C697 C696 1.349 . S
C697 C698 1.407 . S
C697 H760 0.930 . S
C698 C697 1.407 . S
C698 C699 1.449 . S
C698 C702 1.535 . S
C699 C698 1.449 . S
C699 C700 1.384 . S
C699 C724 1.553 . S
C700 C699 1.384 . S
C700 C701 1.364 . S
C700 C703 1.450 . S
C701 C696 1.367 . S
C701 C700 1.364 . S
C701 H761 0.931 . S
C702 C698 1.535 . S
C702 H762 0.959 . S
C702 H763 0.961 . S
C702 H764 0.959 . S
C703 C700 1.450 . S
C703 H765 0.960 . S
C703 H766 0.960 . S
C703 H767 0.960 . S
C704 C705 1.309 . S
C704 C709 1.304 . S
C704 O742 1.435 . S
C705 C704 1.309 . S
C705 C706 1.476 . S
C705 H769 0.930 . S
C706 C705 1.476 . S
C706 C707 1.400 . S
C706 C710 1.567 . S
C707 C706 1.400 . S
C707 C708 1.373 . S
C707 C729 1.432 . S
C708 C707 1.373 . S
C708 C709 1.339 . S
C708 C711 1.530 . S
C709 C704 1.304 . S
C709 C708 1.339 . S
C709 H770 0.930 . S
C710 C706 1.567 . S
C710 H771 0.961 . S
C710 H772 0.960 . S
C710 H773 0.958 . S
C711 C708 1.530 . S
C711 H774 0.961 . S
C711 H775 0.960 . S
C711 H776 0.960 . S
C712 C713 1.530 . S
C712 H778 0.961 . S
C712 H779 0.961 . S
C712 H780 0.959 . S
C713 C712 1.530 . S
C713 O741 1.412 . S
C713 H777 0.980 . S
C714 C715 1.288 . S
C714 C719 1.377 . S
C714 O741 1.393 . S
C715 C714 1.288 . S
C715 C716 1.369 . S
C715 H781 0.932 . S
C716 C715 1.369 . S
C716 C717 1.398 . S
C716 C720 1.527 . S
C717 C716 1.398 . S
C717 C718 1.380 . S
C717 C731 1.497 . S
C718 C717 1.380 . S
C718 C719 1.383 . S
C718 C721 1.603 . S
C719 C714 1.377 . S
C719 C718 1.383 . S
C719 H782 0.929 . S
C720 C716 1.527 . S
C720 H783 0.961 . S
C720 H784 0.959 . S
C720 H785 0.959 . S
C721 C718 1.603 . S
C721 H786 0.960 . S
C721 H787 0.962 . S
C721 H788 0.961 . S
C722 C689 1.587 . S
C722 C723 1.360 . S
C722 C735 1.412 . S
C723 C722 1.360 . S
C723 C724 1.365 . S
C723 H789 0.929 . S
C724 C699 1.553 . S
C724 C723 1.365 . S
C724 C725 1.404 . S
C725 C724 1.404 . S
C725 C726 1.395 . S
C725 C736 1.451 . S
C726 C725 1.395 . S
C726 C727 1.322 . S
C726 H790 0.930 . S
C727 C726 1.322 . S
C727 C728 1.459 . S
C727 H791 0.929 . S
C728 C727 1.459 . S
C728 C729 1.445 . S
C728 C737 1.395 . S
C729 C707 1.432 . S
C729 C728 1.445 . S
C729 C730 1.370 . S
C730 C729 1.370 . S
C730 C731 1.438 . S
C730 H792 0.930 . S
C731 C717 1.497 . S
C731 C730 1.438 . S
C731 C732 1.360 . S
C732 C731 1.360 . S
C732 C733 1.401 . S
C732 C737 1.446 . S
C733 C732 1.401 . S
C733 C734 1.347 . S
C733 H793 0.929 . S
C734 C733 1.347 . S
C734 C735 1.455 . S
C734 H794 0.930 . S
C735 C722 1.412 . S
C735 C734 1.455 . S
C735 C736 1.331 . S
C736 C725 1.451 . S
C736 C735 1.331 . S
C736 C737 1.497 . S
C737 C728 1.395 . S
C737 C732 1.446 . S
C737 C736 1.497 . S
C738 C739 1.582 . S
C738 H795 0.962 . S
C738 H796 0.959 . S
C738 H797 0.958 . S
C739 C738 1.582 . S
C739 O742 1.458 . S
C739 H768 0.980 . S
O740 C685 1.426 . S
O740 C686 1.334 . S
O741 C713 1.412 . S
O741 C714 1.393 . S
O742 C704 1.435 . S
O742 C739 1.458 . S
O743 C695 1.468 . S
O743 C696 1.408 . S
H744 C685 0.980 . S
H745 C684 0.959 . S
H746 C684 0.959 . S
H747 C684 0.960 . S
H748 C687 0.929 . S
H749 C691 0.929 . S
H750 C692 0.959 . S
H751 C692 0.961 . S
H752 C692 0.961 . S
H753 C693 0.960 . S
H754 C693 0.960 . S
H755 C693 0.961 . S
H756 C695 0.980 . S
H757 C694 0.961 . S
H758 C694 0.960 . S
H759 C694 0.959 . S
H760 C697 0.930 . S
H761 C701 0.931 . S
H762 C702 0.959 . S
H763 C702 0.961 . S
H764 C702 0.959 . S
H765 C703 0.960 . S
H766 C703 0.960 . S
H767 C703 0.960 . S
H768 C739 0.980 . S
H769 C705 0.930 . S
H770 C709 0.930 . S
H771 C710 0.961 . S
H772 C710 0.960 . S
H773 C710 0.958 . S
H774 C711 0.961 . S
H775 C711 0.960 . S
H776 C711 0.960 . S
H777 C713 0.980 . S
H778 C712 0.961 . S
H779 C712 0.961 . S
H780 C712 0.959 . S
H781 C715 0.932 . S
H782 C719 0.929 . S
H783 C720 0.961 . S
H784 C720 0.959 . S
H785 C720 0.959 . S
H786 C721 0.960 . S
H787 C721 0.962 . S
H788 C721 0.961 . S
H789 C723 0.929 . S
H790 C726 0.930 . S
H791 C727 0.929 . S
H792 C730 0.930 . S
H793 C733 0.929 . S
H794 C734 0.930 . S
H795 C738 0.962 . S
H796 C738 0.959 . S
H797 C738 0.958 . S
C798 C799 1.560 . S
C798 H859 0.959 . S
C798 H860 0.959 . S
C798 H861 0.960 . S
C799 C798 1.560 . S
C799 O854 1.426 . S
C799 H858 0.980 . S
C800 C801 1.407 . S
C800 C805 1.418 . S
C800 O854 1.334 . S
C801 C800 1.407 . S
C801 C802 1.360 . S
C801 H862 0.929 . S
C802 C801 1.360 . S
C802 C803 1.401 . S
C802 C806 1.527 . S
C803 C802 1.401 . S
C803 C804 1.405 . S
C803 C836 1.587 . S
C804 C803 1.405 . S
C804 C805 1.332 . S
C804 C807 1.496 . S
C805 C800 1.418 . S
C805 C804 1.332 . S
C805 H863 0.929 . S
C806 C802 1.527 . S
C806 H864 0.959 . S
C806 H865 0.961 . S
C806 H866 0.961 . S
C807 C804 1.496 . S
C807 H867 0.960 . S
C807 H868 0.960 . S
C807 H869 0.961 . S
C808 C809 1.517 . S
C808 H871 0.961 . S
C808 H872 0.960 . S
C808 H873 0.959 . S
C809 C808 1.517 . S
C809 O857 1.468 . S
C809 H870 0.980 . S
C810 C811 1.349 . S
C810 C815 1.367 . S
C810 O857 1.408 . S
C811 C810 1.349 . S
C811 C812 1.407 . S
C811 H874 0.930 . S
C812 C811 1.407 . S
C812 C813 1.449 . S
C812 C816 1.535 . S
C813 C812 1.449 . S
C813 C814 1.384 . S
C813 C838 1.553 . S
C814 C813 1.384 . S
C814 C815 1.364 . S
C814 C817 1.450 . S
C815 C810 1.367 . S
C815 C814 1.364 . S
C815 H875 0.931 . S
C816 C812 1.535 . S
C816 H876 0.959 . S
C816 H877 0.961 . S
C816 H878 0.959 . S
C817 C814 1.450 . S
C817 H879 0.960 . S
C817 H880 0.960 . S
C817 H881 0.960 . S
C818 C819 1.309 . S
C818 C823 1.304 . S
C818 O856 1.435 . S
C819 C818 1.309 . S
C819 C820 1.476 . S
C819 H883 0.930 . S
C820 C819 1.476 . S
C820 C821 1.400 . S
C820 C824 1.567 . S
C821 C820 1.400 . S
C821 C822 1.373 . S
C821 C843 1.432 . S
C822 C821 1.373 . S
C822 C823 1.339 . S
C822 C825 1.530 . S
C823 C818 1.304 . S
C823 C822 1.339 . S
C823 H884 0.930 . S
C824 C820 1.567 . S
C824 H885 0.961 . S
C824 H886 0.960 . S
C824 H887 0.958 . S
C825 C822 1.530 . S
C825 H888 0.961 . S
C825 H889 0.960 . S
C825 H890 0.960 . S
C826 C827 1.530 . S
C826 H892 0.961 . S
C826 H893 0.961 . S
C826 H894 0.959 . S
C827 C826 1.530 . S
C827 O855 1.412 . S
C827 H891 0.980 . S
C828 C829 1.288 . S
C828 C833 1.377 . S
C828 O855 1.393 . S
C829 C828 1.288 . S
C829 C830 1.369 . S
C829 H895 0.932 . S
C830 C829 1.369 . S
C830 C831 1.398 . S
C830 C834 1.527 . S
C831 C830 1.398 . S
C831 C832 1.380 . S
C831 C845 1.497 . S
C832 C831 1.380 . S
C832 C833 1.383 . S
C832 C835 1.603 . S
C833 C828 1.377 . S
C833 C832 1.383 . S
C833 H896 0.929 . S
C834 C830 1.527 . S
C834 H897 0.961 . S
C834 H898 0.959 . S
C834 H899 0.959 . S
C835 C832 1.603 . S
C835 H900 0.960 . S
C835 H901 0.962 . S
C835 H902 0.961 . S
C836 C803 1.587 . S
C836 C837 1.360 . S
C836 C849 1.412 . S
C837 C836 1.360 . S
C837 C838 1.365 . S
C837 H903 0.929 . S
C838 C813 1.553 . S
C838 C837 1.365 . S
C838 C839 1.404 . S
C839 C838 1.404 . S
C839 C840 1.395 . S
C839 C850 1.451 . S
C840 C839 1.395 . S
C840 C841 1.322 . S
C840 H904 0.930 . S
C841 C840 1.322 . S
C841 C842 1.459 . S
C841 H905 0.929 . S
C842 C841 1.459 . S
C842 C843 1.445 . S
C842 C851 1.395 . S
C843 C821 1.432 . S
C843 C842 1.445 . S
C843 C844 1.370 . S
C844 C843 1.370 . S
C844 C845 1.438 . S
C844 H906 0.930 . S
C845 C831 1.497 . S
C845 C844 1.438 . S
C845 C846 1.360 . S
C846 C845 1.360 . S
C846 C847 1.401 . S
C846 C851 1.446 . S
C847 C846 1.401 . S
C847 C848 1.347 . S
C847 H907 0.929 . S
C848 C847 1.347 . S
C848 C849 1.455 . S
C848 H908 0.930 . S
C849 C836 1.412 . S
C849 C848 1.455 . S
C849 C850 1.331 . S
C850 C839 1.451 . S
C850 C849 1.331 . S
C850 C851 1.497 . S
C851 C842 1.395 . S
C851 C846 1.446 . S
C851 C850 1.497 . S
C852 C853 1.582 . S
C852 H909 0.962 . S
C852 H910 0.959 . S
C852 H911 0.958 . S
C853 C852 1.582 . S
C853 O856 1.458 . S
C853 H882 0.980 . S
O854 C799 1.426 . S
O854 C800 1.334 . S
O855 C827 1.412 . S
O855 C828 1.393 . S
O856 C818 1.435 . S
O856 C853 1.458 . S
O857 C809 1.468 . S
O857 C810 1.408 . S
H858 C799 0.980 . S
H859 C798 0.959 . S
H860 C798 0.959 . S
H861 C798 0.960 . S
H862 C801 0.929 . S
H863 C805 0.929 . S
H864 C806 0.959 . S
H865 C806 0.961 . S
H866 C806 0.961 . S
H867 C807 0.960 . S
H868 C807 0.960 . S
H869 C807 0.961 . S
H870 C809 0.980 . S
H871 C808 0.961 . S
H872 C808 0.960 . S
H873 C808 0.959 . S
H874 C811 0.930 . S
H875 C815 0.931 . S
H876 C816 0.959 . S
H877 C816 0.961 . S
H878 C816 0.959 . S
H879 C817 0.960 . S
H880 C817 0.960 . S
H881 C817 0.960 . S
H882 C853 0.980 . S
H883 C819 0.930 . S
H884 C823 0.930 . S
H885 C824 0.961 . S
H886 C824 0.960 . S
H887 C824 0.958 . S
H888 C825 0.961 . S
H889 C825 0.960 . S
H890 C825 0.960 . S
H891 C827 0.980 . S
H892 C826 0.961 . S
H893 C826 0.961 . S
H894 C826 0.959 . S
H895 C829 0.932 . S
H896 C833 0.929 . S
H897 C834 0.961 . S
H898 C834 0.959 . S
H899 C834 0.959 . S
H900 C835 0.960 . S
H901 C835 0.962 . S
H902 C835 0.961 . S
H903 C837 0.929 . S
H904 C840 0.930 . S
H905 C841 0.929 . S
H906 C844 0.930 . S
H907 C847 0.929 . S
H908 C848 0.930 . S
H909 C852 0.962 . S
H910 C852 0.959 . S
H911 C852 0.958 . S
C912 C913 1.443 . S
C912 N916 1.376 . S
C912 C950 1.389 . S
C913 C912 1.443 . S
C913 C914 1.340 . S
C913 H953 0.951 . S
C914 C913 1.340 . S
C914 C915 1.439 . S
C914 H954 0.950 . S
C915 C914 1.439 . S
C915 N916 1.374 . S
C915 C949 1.395 . S
N916 C912 1.376 . S
N916 C915 1.374 . S
N916 Co917 2.008 . S
Co917 N916 2.008 . S
Co917 N918 1.995 1_455 S
Co917 N923 2.008 1_455 S
Co917 N928 1.995 . S
Co917 N933 2.282 1_455 S
Co917 N939 2.282 . S
N918 Co917 1.995 1_655 S
N918 C919 1.376 . S
N918 C922 1.383 . S
C919 N918 1.376 . S
C919 C920 1.446 . S
C919 C949 1.391 1_655 S
C920 C919 1.446 . S
C920 C921 1.339 . S
C920 H955 0.949 . S
C921 C920 1.339 . S
C921 C922 1.439 . S
C921 H956 0.950 . S
C922 N918 1.383 . S
C922 C921 1.439 . S
C922 C951 1.392 . S
N923 Co917 2.008 1_655 S
N923 C924 1.376 . S
N923 C927 1.374 . S
C924 N923 1.376 . S
C924 C925 1.443 . S
C924 C951 1.389 . S
C925 C924 1.443 . S
C925 C926 1.340 . S
C925 H957 0.951 . S
C926 C925 1.340 . S
C926 C927 1.439 . S
C926 H958 0.950 . S
C927 N923 1.374 . S
C927 C926 1.439 . S
C927 C952 1.395 1_655 S
N928 Co917 1.995 . S
N928 C929 1.376 . S
N928 C932 1.383 . S
C929 N928 1.376 . S
C929 C930 1.446 . S
C929 C952 1.391 . S
C930 C929 1.446 . S
C930 C931 1.339 . S
C930 H959 0.949 . S
C931 C930 1.339 . S
C931 C932 1.439 . S
C931 H960 0.950 . S
C932 N928 1.383 . S
C932 C931 1.439 . S
C932 C950 1.392 . S
N933 Co917 2.282 1_655 S
N933 C936 1.332 . S
N933 C938 1.332 . S
C934 C935 1.386 . S
C934 C937 1.388 . S
C935 C934 1.386 . S
C935 C936 1.382 . S
C935 H961 0.950 . S
C936 N933 1.332 . S
C936 C935 1.382 . S
C936 H947 0.952 . S
C937 C934 1.388 . S
C937 C938 1.382 . S
C937 H962 0.950 . S
C938 N933 1.332 . S
C938 C937 1.382 . S
C938 H948 0.948 . S
N939 Co917 2.282 . S
N939 C943 1.332 . S
N939 C944 1.332 . S
C940 C941 1.388 . S
C940 C944 1.382 . S
C940 H963 0.950 . S
C941 C940 1.388 . S
C941 C942 1.386 . S
C942 C941 1.386 . S
C942 C943 1.382 . S
C942 H964 0.950 . S
C943 N939 1.332 . S
C943 C942 1.382 . S
C943 H945 0.952 . S
C944 N939 1.332 . S
C944 C940 1.382 . S
C944 H946 0.948 . S
H945 C943 0.952 . S
H946 C944 0.948 . S
H947 C936 0.952 . S
H948 C938 0.948 . S
C949 C915 1.395 . S
C949 C919 1.391 1_455 S
C950 C912 1.389 . S
C950 C932 1.392 . S
C951 C922 1.392 . S
C951 C924 1.389 . S
C952 C927 1.395 1_455 S
C952 C929 1.391 . S
H953 C913 0.951 . S
H954 C914 0.950 . S
H955 C920 0.949 . S
H956 C921 0.950 . S
H957 C925 0.951 . S
H958 C926 0.950 . S
H959 C930 0.949 . S
H960 C931 0.950 . S
H961 C935 0.950 . S
H962 C937 0.950 . S
H963 C940 0.950 . S
H964 C942 0.950 . S
C965 C966 1.443 . S
C965 N969 1.376 . S
C965 C1003 1.389 . S
C966 C965 1.443 . S
C966 C967 1.340 . S
C966 H1006 0.951 . S
C967 C966 1.340 . S
C967 C968 1.439 . S
C967 H1007 0.950 . S
C968 C967 1.439 . S
C968 N969 1.374 . S
C968 C1002 1.395 . S
N969 C965 1.376 . S
N969 C968 1.374 . S
N969 Co970 2.008 . S
Co970 N969 2.008 . S
Co970 N971 1.995 1_545 S
Co970 N976 2.008 1_545 S
Co970 N981 1.995 . S
Co970 N986 2.282 1_545 S
Co970 N992 2.282 . S
N971 Co970 1.995 1_565 S
N971 C972 1.376 . S
N971 C975 1.383 . S
C972 N971 1.376 . S
C972 C973 1.446 . S
C972 C1002 1.391 1_565 S
C973 C972 1.446 . S
C973 C974 1.339 . S
C973 H1008 0.949 . S
C974 C973 1.339 . S
C974 C975 1.439 . S
C974 H1009 0.950 . S
C975 N971 1.383 . S
C975 C974 1.439 . S
C975 C1004 1.392 . S
N976 Co970 2.008 1_565 S
N976 C977 1.376 . S
N976 C980 1.374 . S
C977 N976 1.376 . S
C977 C978 1.443 . S
C977 C1004 1.389 . S
C978 C977 1.443 . S
C978 C979 1.340 . S
C978 H1010 0.951 . S
C979 C978 1.340 . S
C979 C980 1.439 . S
C979 H1011 0.950 . S
C980 N976 1.374 . S
C980 C979 1.439 . S
C980 C1005 1.395 1_565 S
N981 Co970 1.995 . S
N981 C982 1.376 . S
N981 C985 1.383 . S
C982 N981 1.376 . S
C982 C983 1.446 . S
C982 C1005 1.391 . S
C983 C982 1.446 . S
C983 C984 1.339 . S
C983 H1012 0.949 . S
C984 C983 1.339 . S
C984 C985 1.439 . S
C984 H1013 0.950 . S
C985 N981 1.383 . S
C985 C984 1.439 . S
C985 C1003 1.392 . S
N986 Co970 2.282 1_565 S
N986 C989 1.332 . S
N986 C991 1.332 . S
C987 C988 1.386 . S
C987 C990 1.388 . S
C988 C987 1.386 . S
C988 C989 1.382 . S
C988 H1014 0.950 . S
C989 N986 1.332 . S
C989 C988 1.382 . S
C989 H1000 0.952 . S
C990 C987 1.388 . S
C990 C991 1.382 . S
C990 H1015 0.950 . S
C991 N986 1.332 . S
C991 C990 1.382 . S
C991 H1001 0.948 . S
N992 Co970 2.282 . S
N992 C996 1.332 . S
N992 C997 1.332 . S
C993 C994 1.388 . S
C993 C997 1.382 . S
C993 H1016 0.950 . S
C994 C993 1.388 . S
C994 C995 1.386 . S
C995 C994 1.386 . S
C995 C996 1.382 . S
C995 H1017 0.950 . S
C996 N992 1.332 . S
C996 C995 1.382 . S
C996 H998 0.952 . S
C997 N992 1.332 . S
C997 C993 1.382 . S
C997 H999 0.948 . S
H998 C996 0.952 . S
H999 C997 0.948 . S
H1000 C989 0.952 . S
H1001 C991 0.948 . S
C1002 C968 1.395 . S
C1002 C972 1.391 1_545 S
C1003 C965 1.389 . S
C1003 C985 1.392 . S
C1004 C975 1.392 . S
C1004 C977 1.389 . S
C1005 C980 1.395 1_545 S
C1005 C982 1.391 . S
H1006 C966 0.951 . S
H1007 C967 0.950 . S
H1008 C973 0.949 . S
H1009 C974 0.950 . S
H1010 C978 0.951 . S
H1011 C979 0.950 . S
H1012 C983 0.949 . S
H1013 C984 0.950 . S
H1014 C988 0.950 . S
H1015 C990 0.950 . S
H1016 C993 0.950 . S
H1017 C995 0.950 . S
C1018 C1019 1.443 . S
C1018 N1022 1.376 . S
C1018 C1056 1.389 . S
C1019 C1018 1.443 . S
C1019 C1020 1.340 . S
C1019 H1059 0.951 . S
C1020 C1019 1.340 . S
C1020 C1021 1.439 . S
C1020 H1060 0.950 . S
C1021 C1020 1.439 . S
C1021 N1022 1.374 . S
C1021 C1055 1.395 . S
N1022 C1018 1.376 . S
N1022 C1021 1.374 . S
N1022 Co1023 2.008 . S
Co1023 N1022 2.008 . S
Co1023 N1024 1.995 1_455 S
Co1023 N1029 2.008 1_455 S
Co1023 N1034 1.995 . S
Co1023 N1039 2.282 1_455 S
Co1023 N1045 2.282 . S
N1024 Co1023 1.995 1_655 S
N1024 C1025 1.376 . S
N1024 C1028 1.383 . S
C1025 N1024 1.376 . S
C1025 C1026 1.446 . S
C1025 C1055 1.391 1_655 S
C1026 C1025 1.446 . S
C1026 C1027 1.339 . S
C1026 H1061 0.949 . S
C1027 C1026 1.339 . S
C1027 C1028 1.439 . S
C1027 H1062 0.950 . S
C1028 N1024 1.383 . S
C1028 C1027 1.439 . S
C1028 C1057 1.392 . S
N1029 Co1023 2.008 1_655 S
N1029 C1030 1.376 . S
N1029 C1033 1.374 . S
C1030 N1029 1.376 . S
C1030 C1031 1.443 . S
C1030 C1057 1.389 . S
C1031 C1030 1.443 . S
C1031 C1032 1.340 . S
C1031 H1063 0.951 . S
C1032 C1031 1.340 . S
C1032 C1033 1.439 . S
C1032 H1064 0.950 . S
C1033 N1029 1.374 . S
C1033 C1032 1.439 . S
C1033 C1058 1.378 1_655 S
N1034 Co1023 1.995 . S
N1034 C1035 1.376 . S
N1034 C1038 1.383 . S
C1035 N1034 1.376 . S
C1035 C1036 1.446 . S
C1035 C1058 1.410 . S
C1036 C1035 1.446 . S
C1036 C1037 1.339 . S
C1036 H1065 0.949 . S
C1037 C1036 1.339 . S
C1037 C1038 1.439 . S
C1037 H1066 0.950 . S
C1038 N1034 1.383 . S
C1038 C1037 1.439 . S
C1038 C1056 1.392 . S
N1039 Co1023 2.282 1_655 S
N1039 C1042 1.332 . S
N1039 C1044 1.332 . S
C1040 C1041 1.386 . S
C1040 C1043 1.388 . S
C1041 C1040 1.386 . S
C1041 C1042 1.382 . S
C1041 H1067 0.950 . S
C1042 N1039 1.332 . S
C1042 C1041 1.382 . S
C1042 H1053 0.952 . S
C1043 C1040 1.388 . S
C1043 C1044 1.382 . S
C1043 H1068 0.950 . S
C1044 N1039 1.332 . S
C1044 C1043 1.382 . S
C1044 H1054 0.948 . S
N1045 Co1023 2.282 . S
N1045 C1049 1.332 . S
N1045 C1050 1.332 . S
C1046 C1047 1.388 . S
C1046 C1050 1.382 . S
C1046 H1069 0.950 . S
C1047 C1046 1.388 . S
C1047 C1048 1.386 . S
C1048 C1047 1.386 . S
C1048 C1049 1.382 . S
C1048 H1070 0.950 . S
C1049 N1045 1.332 . S
C1049 C1048 1.382 . S
C1049 H1051 0.952 . S
C1050 N1045 1.332 . S
C1050 C1046 1.382 . S
C1050 H1052 0.948 . S
H1051 C1049 0.952 . S
H1052 C1050 0.948 . S
H1053 C1042 0.952 . S
H1054 C1044 0.948 . S
C1055 C1021 1.395 . S
C1055 C1025 1.391 1_455 S
C1056 C1018 1.389 . S
C1056 C1038 1.392 . S
C1057 C1028 1.392 . S
C1057 C1030 1.389 . S
C1058 C1033 1.378 1_455 S
C1058 C1035 1.410 . S
H1059 C1019 0.951 . S
H1060 C1020 0.950 . S
H1061 C1026 0.949 . S
H1062 C1027 0.950 . S
H1063 C1031 0.951 . S
H1064 C1032 0.950 . S
H1065 C1036 0.949 . S
H1066 C1037 0.950 . S
H1067 C1041 0.950 . S
H1068 C1043 0.950 . S
H1069 C1046 0.950 . S
H1070 C1048 0.950 . S
C1071 C1072 1.443 . S
C1071 N1075 1.376 . S
C1071 C1109 1.389 . S
C1072 C1071 1.443 . S
C1072 C1073 1.340 . S
C1072 H1112 0.951 . S
C1073 C1072 1.340 . S
C1073 C1074 1.439 . S
C1073 H1113 0.950 . S
C1074 C1073 1.439 . S
C1074 N1075 1.374 . S
C1074 C1108 1.395 1_565 S
N1075 C1071 1.376 . S
N1075 C1074 1.374 . S
N1075 Co1076 2.008 1_565 S
Co1076 N1075 2.008 1_545 S
Co1076 N1077 1.995 . S
Co1076 N1082 2.008 . S
Co1076 N1087 1.995 1_545 S
Co1076 N1092 2.282 . S
Co1076 N1098 2.282 1_545 S
N1077 Co1076 1.995 . S
N1077 C1078 1.376 . S
N1077 C1081 1.383 . S
C1078 N1077 1.376 . S
C1078 C1079 1.446 . S
C1078 C1108 1.391 . S
C1079 C1078 1.446 . S
C1079 C1080 1.339 . S
C1079 H1114 0.949 . S
C1080 C1079 1.339 . S
C1080 C1081 1.439 . S
C1080 H1115 0.950 . S
C1081 N1077 1.383 . S
C1081 C1080 1.439 . S
C1081 C1110 1.392 . S
N1082 Co1076 2.008 . S
N1082 C1083 1.376 . S
N1082 C1086 1.374 . S
C1083 N1082 1.376 . S
C1083 C1084 1.443 . S
C1083 C1110 1.389 . S
C1084 C1083 1.443 . S
C1084 C1085 1.340 . S
C1084 H1116 0.951 . S
C1085 C1084 1.340 . S
C1085 C1086 1.439 . S
C1085 H1117 0.950 . S
C1086 N1082 1.374 . S
C1086 C1085 1.439 . S
C1086 C1111 1.395 . S
N1087 Co1076 1.995 1_565 S
N1087 C1088 1.376 . S
N1087 C1091 1.383 . S
C1088 N1087 1.376 . S
C1088 C1089 1.446 . S
C1088 C1111 1.391 1_565 S
C1089 C1088 1.446 . S
C1089 C1090 1.339 . S
C1089 H1118 0.949 . S
C1090 C1089 1.339 . S
C1090 C1091 1.439 . S
C1090 H1119 0.950 . S
C1091 N1087 1.383 . S
C1091 C1090 1.439 . S
C1091 C1109 1.392 . S
N1092 Co1076 2.282 . S
N1092 C1095 1.332 . S
N1092 C1097 1.332 . S
C1093 C1094 1.386 . S
C1093 C1096 1.388 . S
C1094 C1093 1.386 . S
C1094 C1095 1.382 . S
C1094 H1120 0.950 . S
C1095 N1092 1.332 . S
C1095 C1094 1.382 . S
C1095 H1106 0.952 . S
C1096 C1093 1.388 . S
C1096 C1097 1.382 . S
C1096 H1121 0.950 . S
C1097 N1092 1.332 . S
C1097 C1096 1.382 . S
C1097 H1107 0.948 . S
N1098 Co1076 2.282 1_565 S
N1098 C1102 1.332 . S
N1098 C1103 1.332 . S
C1099 C1100 1.388 . S
C1099 C1103 1.382 . S
C1099 H1122 0.950 . S
C1100 C1099 1.388 . S
C1100 C1101 1.386 . S
C1101 C1100 1.386 . S
C1101 C1102 1.382 . S
C1101 H1123 0.950 . S
C1102 N1098 1.332 . S
C1102 C1101 1.382 . S
C1102 H1104 0.952 . S
C1103 N1098 1.332 . S
C1103 C1099 1.382 . S
C1103 H1105 0.948 . S
H1104 C1102 0.952 . S
H1105 C1103 0.948 . S
H1106 C1095 0.952 . S
H1107 C1097 0.948 . S
C1108 C1074 1.395 1_545 S
C1108 C1078 1.391 . S
C1109 C1071 1.389 . S
C1109 C1091 1.392 . S
C1110 C1081 1.392 . S
C1110 C1083 1.389 . S
C1111 C1086 1.395 . S
C1111 C1088 1.391 1_545 S
H1112 C1072 0.951 . S
H1113 C1073 0.950 . S
H1114 C1079 0.949 . S
H1115 C1080 0.950 . S
H1116 C1084 0.951 . S
H1117 C1085 0.950 . S
H1118 C1089 0.949 . S
H1119 C1090 0.950 . S
H1120 C1094 0.950 . S
H1121 C1096 0.950 . S
H1122 C1099 0.950 . S
H1123 C1101 0.950 . S
C1124 C1125 1.443 . S
C1124 N1128 1.376 . S
C1124 C1162 1.389 . S
C1125 C1124 1.443 . S
C1125 C1126 1.340 . S
C1125 H1165 0.951 . S
C1126 C1125 1.340 . S
C1126 C1127 1.439 . S
C1126 H1166 0.950 . S
C1127 C1126 1.439 . S
C1127 N1128 1.374 . S
C1127 C1161 1.372 1_554 S
N1128 C1124 1.376 . S
N1128 C1127 1.374 . S
N1128 Co1129 2.015 . S
Co1129 N1128 2.015 . S
Co1129 N1130 1.987 1_554 S
Co1129 N1135 2.002 1_554 S
Co1129 N1140 2.003 . S
Co1129 N1145 2.293 . S
Co1129 N1151 2.272 1_554 S
N1130 Co1129 1.987 1_556 S
N1130 C1131 1.376 . S
N1130 C1134 1.383 . S
C1131 N1130 1.376 . S
C1131 C1132 1.446 . S
C1131 C1161 1.413 . S
C1132 C1131 1.446 . S
C1132 C1133 1.339 . S
C1132 H1167 0.949 . S
C1133 C1132 1.339 . S
C1133 C1134 1.439 . S
C1133 H1168 0.950 . S
C1134 N1130 1.383 . S
C1134 C1133 1.439 . S
C1134 C1163 1.392 . S
N1135 Co1129 2.002 1_556 S
N1135 C1136 1.376 . S
N1135 C1139 1.374 . S
C1136 N1135 1.376 . S
C1136 C1137 1.443 . S
C1136 C1163 1.389 . S
C1137 C1136 1.443 . S
C1137 C1138 1.340 . S
C1137 H1169 0.951 . S
C1138 C1137 1.340 . S
C1138 C1139 1.439 . S
C1138 H1170 0.950 . S
C1139 N1135 1.374 . S
C1139 C1138 1.439 . S
C1139 C1164 1.395 1_556 S
N1140 Co1129 2.003 . S
N1140 C1141 1.376 . S
N1140 C1144 1.383 . S
C1141 N1140 1.376 . S
C1141 C1142 1.446 . S
C1141 C1164 1.391 . S
C1142 C1141 1.446 . S
C1142 C1143 1.339 . S
C1142 H1171 0.949 . S
C1143 C1142 1.339 . S
C1143 C1144 1.439 . S
C1143 H1172 0.950 . S
C1144 N1140 1.383 . S
C1144 C1143 1.439 . S
C1144 C1162 1.392 . S
N1145 Co1129 2.293 . S
N1145 C1148 1.332 . S
N1145 C1150 1.332 . S
C1146 C1147 1.386 . S
C1146 C1149 1.388 . S
C1147 C1146 1.386 . S
C1147 C1148 1.382 . S
C1147 H1173 0.950 . S
C1148 N1145 1.332 . S
C1148 C1147 1.382 . S
C1148 H1159 0.952 . S
C1149 C1146 1.388 . S
C1149 C1150 1.382 . S
C1149 H1174 0.950 . S
C1150 N1145 1.332 . S
C1150 C1149 1.382 . S
C1150 H1160 0.948 . S
N1151 Co1129 2.272 1_556 S
N1151 C1155 1.332 . S
N1151 C1156 1.332 . S
C1152 C1153 1.388 . S
C1152 C1156 1.382 . S
C1152 H1175 0.950 . S
C1153 C1152 1.388 . S
C1153 C1154 1.386 . S
C1154 C1153 1.386 . S
C1154 C1155 1.382 . S
C1154 H1176 0.950 . S
C1155 N1151 1.332 . S
C1155 C1154 1.382 . S
C1155 H1157 0.952 . S
C1156 N1151 1.332 . S
C1156 C1152 1.382 . S
C1156 H1158 0.948 . S
H1157 C1155 0.952 . S
H1158 C1156 0.948 . S
H1159 C1148 0.952 . S
H1160 C1150 0.948 . S
C1161 C1127 1.372 1_556 S
C1161 C1131 1.413 . S
C1162 C1124 1.389 . S
C1162 C1144 1.392 . S
C1163 C1134 1.392 . S
C1163 C1136 1.389 . S
C1164 C1139 1.395 1_554 S
C1164 C1141 1.391 . S
H1165 C1125 0.951 . S
H1166 C1126 0.950 . S
H1167 C1132 0.949 . S
H1168 C1133 0.950 . S
H1169 C1137 0.951 . S
H1170 C1138 0.950 . S
H1171 C1142 0.949 . S
H1172 C1143 0.950 . S
H1173 C1147 0.950 . S
H1174 C1149 0.950 . S
H1175 C1152 0.950 . S
H1176 C1154 0.950 . S
C1177 C1178 1.443 . S
C1177 N1181 1.376 . S
C1177 C1215 1.389 . S
C1178 C1177 1.443 . S
C1178 C1179 1.340 . S
C1178 H1218 0.951 . S
C1179 C1178 1.340 . S
C1179 C1180 1.439 . S
C1179 H1219 0.950 . S
C1180 C1179 1.439 . S
C1180 N1181 1.374 . S
C1180 C1214 1.395 . S
N1181 C1177 1.376 . S
N1181 C1180 1.374 . S
N1181 Co1182 2.008 . S
Co1182 N1181 2.008 . S
Co1182 N1183 1.995 1_554 S
Co1182 N1188 2.013 . S
Co1182 N1193 1.995 . S
Co1182 N1198 2.282 . S
Co1182 N1204 2.282 1_554 S
N1183 Co1182 1.995 1_556 S
N1183 C1184 1.376 . S
N1183 C1187 1.383 . S
C1184 N1183 1.376 . S
C1184 C1185 1.446 . S
C1184 C1214 1.391 1_556 S
C1185 C1184 1.446 . S
C1185 C1186 1.339 . S
C1185 H1220 0.949 . S
C1186 C1185 1.339 . S
C1186 C1187 1.439 . S
C1186 H1221 0.950 . S
C1187 N1183 1.383 . S
C1187 C1186 1.439 . S
C1187 C1216 1.392 . S
N1188 Co1182 2.013 . S
N1188 C1189 1.370 1_554 S
N1188 C1192 1.376 . S
C1189 N1188 1.370 1_556 S
C1189 C1190 1.443 . S
C1189 C1216 1.389 . S
C1190 C1189 1.443 . S
C1190 C1191 1.340 . S
C1190 H1222 0.951 . S
C1191 C1190 1.340 . S
C1191 C1192 1.439 1_556 S
C1191 H1223 0.950 . S
C1192 N1188 1.376 . S
C1192 C1191 1.439 1_554 S
C1192 C1217 1.395 . S
N1193 Co1182 1.995 . S
N1193 C1194 1.376 . S
N1193 C1197 1.383 . S
C1194 N1193 1.376 . S
C1194 C1195 1.446 . S
C1194 C1217 1.391 . S
C1195 C1194 1.446 . S
C1195 C1196 1.339 . S
C1195 H1224 0.949 . S
C1196 C1195 1.339 . S
C1196 C1197 1.439 . S
C1196 H1225 0.950 . S
C1197 N1193 1.383 . S
C1197 C1196 1.439 . S
C1197 C1215 1.392 . S
N1198 Co1182 2.282 . S
N1198 C1201 1.332 . S
N1198 C1203 1.332 . S
C1199 C1200 1.386 . S
C1199 C1202 1.388 . S
C1200 C1199 1.386 . S
C1200 C1201 1.382 . S
C1200 H1226 0.950 . S
C1201 N1198 1.332 . S
C1201 C1200 1.382 . S
C1201 H1212 0.952 . S
C1202 C1199 1.388 . S
C1202 C1203 1.382 . S
C1202 H1227 0.950 . S
C1203 N1198 1.332 . S
C1203 C1202 1.382 . S
C1203 H1213 0.948 . S
N1204 Co1182 2.282 1_556 S
N1204 C1208 1.332 . S
N1204 C1209 1.332 . S
C1205 C1206 1.388 . S
C1205 C1209 1.382 . S
C1205 H1228 0.950 . S
C1206 C1205 1.388 . S
C1206 C1207 1.386 . S
C1207 C1206 1.386 . S
C1207 C1208 1.382 . S
C1207 H1229 0.950 . S
C1208 N1204 1.332 . S
C1208 C1207 1.382 . S
C1208 H1210 0.952 . S
C1209 N1204 1.332 . S
C1209 C1205 1.382 . S
C1209 H1211 0.948 . S
H1210 C1208 0.952 . S
H1211 C1209 0.948 . S
H1212 C1201 0.952 . S
H1213 C1203 0.948 . S
C1214 C1180 1.395 . S
C1214 C1184 1.391 1_554 S
C1215 C1177 1.389 . S
C1215 C1197 1.392 . S
C1216 C1187 1.392 . S
C1216 C1189 1.389 . S
C1217 C1192 1.395 . S
C1217 C1194 1.391 . S
H1218 C1178 0.951 . S
H1219 C1179 0.950 . S
H1220 C1185 0.949 . S
H1221 C1186 0.950 . S
H1222 C1190 0.951 . S
H1223 C1191 0.950 . S
H1224 C1195 0.949 . S
H1225 C1196 0.950 . S
H1226 C1200 0.950 . S
H1227 C1202 0.950 . S
H1228 C1205 0.950 . S
H1229 C1207 0.950 . S
C1230 C1231 1.443 . S
C1230 N1234 1.372 1_556 S
C1230 C1268 1.389 . S
C1231 C1230 1.443 . S
C1231 C1232 1.340 . S
C1231 H1271 0.951 . S
C1232 C1231 1.340 . S
C1232 C1233 1.439 1_556 S
C1232 H1272 0.950 . S
C1233 C1232 1.439 1_554 S
C1233 N1234 1.375 . S
C1233 C1267 1.395 . S
N1234 C1230 1.372 1_554 S
N1234 C1233 1.375 . S
N1234 Co1235 2.011 . S
Co1235 N1234 2.011 . S
Co1235 N1236 1.995 . S
Co1235 N1241 2.008 . S
Co1235 N1246 1.995 1_554 S
Co1235 N1251 2.282 1_554 S
Co1235 N1257 2.282 . S
N1236 Co1235 1.995 . S
N1236 C1237 1.376 . S
N1236 C1240 1.383 . S
C1237 N1236 1.376 . S
C1237 C1238 1.446 . S
C1237 C1267 1.391 . S
C1238 C1237 1.446 . S
C1238 C1239 1.339 . S
C1238 H1273 0.949 . S
C1239 C1238 1.339 . S
C1239 C1240 1.439 . S
C1239 H1274 0.950 . S
C1240 N1236 1.383 . S
C1240 C1239 1.439 . S
C1240 C1269 1.392 . S
N1241 Co1235 2.008 . S
N1241 C1242 1.376 . S
N1241 C1245 1.374 . S
C1242 N1241 1.376 . S
C1242 C1243 1.443 . S
C1242 C1269 1.389 . S
C1243 C1242 1.443 . S
C1243 C1244 1.340 . S
C1243 H1275 0.951 . S
C1244 C1243 1.340 . S
C1244 C1245 1.439 . S
C1244 H1276 0.950 . S
C1245 N1241 1.374 . S
C1245 C1244 1.439 . S
C1245 C1270 1.395 . S
N1246 Co1235 1.995 1_556 S
N1246 C1247 1.376 . S
N1246 C1250 1.383 . S
C1247 N1246 1.376 . S
C1247 C1248 1.446 . S
C1247 C1270 1.391 1_556 S
C1248 C1247 1.446 . S
C1248 C1249 1.339 . S
C1248 H1277 0.949 . S
C1249 C1248 1.339 . S
C1249 C1250 1.439 . S
C1249 H1278 0.950 . S
C1250 N1246 1.383 . S
C1250 C1249 1.439 . S
C1250 C1268 1.392 . S
N1251 Co1235 2.282 1_556 S
N1251 C1254 1.332 . S
N1251 C1256 1.332 . S
C1252 C1253 1.386 . S
C1252 C1255 1.388 . S
C1253 C1252 1.386 . S
C1253 C1254 1.382 . S
C1253 H1279 0.950 . S
C1254 N1251 1.332 . S
C1254 C1253 1.382 . S
C1254 H1265 0.952 . S
C1255 C1252 1.388 . S
C1255 C1256 1.382 . S
C1255 H1280 0.950 . S
C1256 N1251 1.332 . S
C1256 C1255 1.382 . S
C1256 H1266 0.948 . S
N1257 Co1235 2.282 . S
N1257 C1261 1.332 . S
N1257 C1262 1.332 . S
C1258 C1259 1.388 . S
C1258 C1262 1.382 . S
C1258 H1281 0.950 . S
C1259 C1258 1.388 . S
C1259 C1260 1.386 . S
C1260 C1259 1.386 . S
C1260 C1261 1.382 . S
C1260 H1282 0.950 . S
C1261 N1257 1.332 . S
C1261 C1260 1.382 . S
C1261 H1263 0.952 . S
C1262 N1257 1.332 . S
C1262 C1258 1.382 . S
C1262 H1264 0.948 . S
H1263 C1261 0.952 . S
H1264 C1262 0.948 . S
H1265 C1254 0.952 . S
H1266 C1256 0.948 . S
C1267 C1233 1.395 . S
C1267 C1237 1.391 . S
C1268 C1230 1.389 . S
C1268 C1250 1.392 . S
C1269 C1240 1.392 . S
C1269 C1242 1.389 . S
C1270 C1245 1.395 . S
C1270 C1247 1.391 1_554 S
H1271 C1231 0.951 . S
H1272 C1232 0.950 . S
H1273 C1238 0.949 . S
H1274 C1239 0.950 . S
H1275 C1243 0.951 . S
H1276 C1244 0.950 . S
H1277 C1248 0.949 . S
H1278 C1249 0.950 . S
H1279 C1253 0.950 . S
H1280 C1255 0.950 . S
H1281 C1258 0.950 . S
H1282 C1260 0.950 . S
C1283 C1284 1.443 . S
C1283 N1287 1.376 . S
C1283 C1321 1.389 . S
C1284 C1283 1.443 . S
C1284 C1285 1.340 . S
C1284 H1324 0.951 . S
C1285 C1284 1.340 . S
C1285 C1286 1.439 . S
C1285 H1325 0.950 . S
C1286 C1285 1.439 . S
C1286 N1287 1.374 . S
C1286 C1320 1.395 . S
N1287 C1283 1.376 . S
N1287 C1286 1.374 . S
N1287 Co1288 2.008 . S
Co1288 N1287 2.008 . S
Co1288 N1289 1.995 1_554 S
Co1288 N1294 2.008 . S
Co1288 N1299 1.995 . S
Co1288 N1304 2.282 . S
Co1288 N1310 2.282 1_554 S
N1289 Co1288 1.995 1_556 S
N1289 C1290 1.376 . S
N1289 C1293 1.383 . S
C1290 N1289 1.376 . S
C1290 C1291 1.446 . S
C1290 C1320 1.391 1_556 S
C1291 C1290 1.446 . S
C1291 C1292 1.339 . S
C1291 H1326 0.949 . S
C1292 C1291 1.339 . S
C1292 C1293 1.439 . S
C1292 H1327 0.950 . S
C1293 N1289 1.383 . S
C1293 C1292 1.439 . S
C1293 C1322 1.392 . S
N1294 Co1288 2.008 . S
N1294 C1295 1.376 1_554 S
N1294 C1298 1.374 . S
C1295 N1294 1.376 1_556 S
C1295 C1296 1.443 . S
C1295 C1322 1.389 . S
C1296 C1295 1.443 . S
C1296 C1297 1.340 . S
C1296 H1328 0.951 . S
C1297 C1296 1.340 . S
C1297 C1298 1.439 1_556 S
C1297 H1329 0.950 . S
C1298 N1294 1.374 . S
C1298 C1297 1.439 1_554 S
C1298 C1323 1.395 . S
N1299 Co1288 1.995 . S
N1299 C1300 1.376 . S
N1299 C1303 1.383 . S
C1300 N1299 1.376 . S
C1300 C1301 1.446 . S
C1300 C1323 1.391 . S
C1301 C1300 1.446 . S
C1301 C1302 1.339 . S
C1301 H1330 0.949 . S
C1302 C1301 1.339 . S
C1302 C1303 1.439 . S
C1302 H1331 0.950 . S
C1303 N1299 1.383 . S
C1303 C1302 1.439 . S
C1303 C1321 1.392 . S
N1304 Co1288 2.282 . S
N1304 C1307 1.332 . S
N1304 C1309 1.332 . S
C1305 C1306 1.386 . S
C1305 C1308 1.388 . S
C1306 C1305 1.386 . S
C1306 C1307 1.382 . S
C1306 H1332 0.950 . S
C1307 N1304 1.332 . S
C1307 C1306 1.382 . S
C1307 H1318 0.952 . S
C1308 C1305 1.388 . S
C1308 C1309 1.382 . S
C1308 H1333 0.950 . S
C1309 N1304 1.332 . S
C1309 C1308 1.382 . S
C1309 H1319 0.948 . S
N1310 Co1288 2.282 1_556 S
N1310 C1314 1.332 . S
N1310 C1315 1.332 . S
C1311 C1312 1.388 . S
C1311 C1315 1.382 . S
C1311 H1334 0.950 . S
C1312 C1311 1.388 . S
C1312 C1313 1.386 . S
C1313 C1312 1.386 . S
C1313 C1314 1.382 . S
C1313 H1335 0.950 . S
C1314 N1310 1.332 . S
C1314 C1313 1.382 . S
C1314 H1316 0.952 . S
C1315 N1310 1.332 . S
C1315 C1311 1.382 . S
C1315 H1317 0.948 . S
H1316 C1314 0.952 . S
H1317 C1315 0.948 . S
H1318 C1307 0.952 . S
H1319 C1309 0.948 . S
C1320 C1286 1.395 . S
C1320 C1290 1.391 1_554 S
C1321 C1283 1.389 . S
C1321 C1303 1.392 . S
C1322 C1293 1.392 . S
C1322 C1295 1.389 . S
C1323 C1298 1.395 . S
C1323 C1300 1.391 . S
H1324 C1284 0.951 . S
H1325 C1285 0.950 . S
H1326 C1291 0.949 . S
H1327 C1292 0.950 . S
H1328 C1296 0.951 . S
H1329 C1297 0.950 . S
H1330 C1301 0.949 . S
H1331 C1302 0.950 . S
H1332 C1306 0.950 . S
H1333 C1308 0.950 . S
H1334 C1311 0.950 . S
H1335 C1313 0.950 . S
H1336 C1342 0.930 . S
H1337 C1345 0.930 . S
H1338 C1346 0.930 . S
H1339 C1347 0.930 . S
H1340 C1350 0.930 . S
H1341 C1351 0.930 . S
C1342 H1336 0.930 . S
C1342 C1343 1.355 . S
C1342 C1344 1.415 . S
C1343 C1342 1.355 . S
C1343 C1345 1.419 . S
C1344 C1342 1.415 . S
C1344 C1349 1.425 . S
C1344 C1351 1.409 . S
C1345 H1337 0.930 . S
C1345 C1343 1.419 . S
C1345 C1346 1.362 . S
C1346 H1338 0.930 . S
C1346 C1345 1.362 . S
C1346 C1349 1.409 . S
C1347 H1339 0.930 . S
C1347 C1348 1.355 . S
C1347 C1349 1.415 . S
C1348 C1347 1.355 . S
C1348 C1350 1.419 . S
C1349 C1344 1.425 . S
C1349 C1346 1.409 . S
C1349 C1347 1.415 . S
C1350 H1340 0.930 . S
C1350 C1348 1.419 . S
C1350 C1351 1.362 . S
C1351 H1341 0.930 . S
C1351 C1344 1.409 . S
C1351 C1350 1.362 . S
H1352 C1358 0.930 . S
H1353 C1361 0.930 . S
H1354 C1362 0.930 . S
H1355 C1363 0.930 . S
H1356 C1366 0.930 . S
H1357 C1367 0.930 . S
C1358 H1352 0.930 . S
C1358 C1359 1.355 . S
C1358 C1360 1.415 . S
C1359 C1358 1.355 . S
C1359 C1361 1.419 . S
C1360 C1358 1.415 . S
C1360 C1365 1.425 . S
C1360 C1367 1.409 . S
C1361 H1353 0.930 . S
C1361 C1359 1.419 . S
C1361 C1362 1.362 . S
C1362 H1354 0.930 . S
C1362 C1361 1.362 . S
C1362 C1365 1.409 . S
C1363 H1355 0.930 . S
C1363 C1364 1.355 . S
C1363 C1365 1.415 . S
C1364 C1363 1.355 . S
C1364 C1366 1.419 . S
C1365 C1360 1.425 . S
C1365 C1362 1.409 . S
C1365 C1363 1.415 . S
C1366 H1356 0.930 . S
C1366 C1364 1.419 . S
C1366 C1367 1.362 . S
C1367 H1357 0.930 . S
C1367 C1360 1.409 . S
C1367 C1366 1.362 . S
H1368 C1374 0.930 . S
H1369 C1377 0.930 . S
H1370 C1378 0.930 . S
H1371 C1379 0.930 . S
H1372 C1382 0.930 . S
H1373 C1383 0.930 . S
C1374 H1368 0.930 . S
C1374 C1375 1.355 . S
C1374 C1376 1.415 . S
C1375 C1374 1.355 . S
C1375 C1377 1.419 . S
C1376 C1374 1.415 . S
C1376 C1381 1.425 . S
C1376 C1383 1.409 . S
C1377 H1369 0.930 . S
C1377 C1375 1.419 . S
C1377 C1378 1.362 . S
C1378 H1370 0.930 . S
C1378 C1377 1.362 . S
C1378 C1381 1.409 . S
C1379 H1371 0.930 . S
C1379 C1380 1.355 . S
C1379 C1381 1.415 . S
C1380 C1379 1.355 . S
C1380 C1382 1.419 . S
C1381 C1376 1.425 . S
C1381 C1378 1.409 . S
C1381 C1379 1.415 . S
C1382 H1372 0.930 . S
C1382 C1380 1.419 . S
C1382 C1383 1.362 . S
C1383 H1373 0.930 . S
C1383 C1376 1.409 . S
C1383 C1382 1.362 . S
H1384 C1390 0.930 . S
H1385 C1393 0.930 . S
H1386 C1394 0.930 . S
H1387 C1395 0.930 . S
H1388 C1398 0.930 . S
H1389 C1399 0.930 . S
C1390 H1384 0.930 . S
C1390 C1391 1.355 . S
C1390 C1392 1.415 . S
C1391 C1390 1.355 . S
C1391 C1393 1.419 . S
C1392 C1390 1.415 . S
C1392 C1397 1.425 . S
C1392 C1399 1.409 . S
C1393 H1385 0.930 . S
C1393 C1391 1.419 . S
C1393 C1394 1.362 . S
C1394 H1386 0.930 . S
C1394 C1393 1.362 . S
C1394 C1397 1.409 . S
C1395 H1387 0.930 . S
C1395 C1396 1.355 . S
C1395 C1397 1.415 . S
C1396 C1395 1.355 . S
C1396 C1398 1.419 . S
C1397 C1392 1.425 . S
C1397 C1394 1.409 . S
C1397 C1395 1.415 . S
C1398 H1388 0.930 . S
C1398 C1396 1.419 . S
C1398 C1399 1.362 . S
C1399 H1389 0.930 . S
C1399 C1392 1.409 . S
C1399 C1398 1.362 . S
H1400 C1406 0.930 . S
H1401 C1409 0.930 . S
H1402 C1410 0.930 . S
H1403 C1411 0.930 . S
H1404 C1414 0.930 . S
H1405 C1415 0.930 . S
C1406 H1400 0.930 . S
C1406 C1407 1.355 . S
C1406 C1408 1.415 . S
C1407 C1406 1.355 . S
C1407 C1409 1.419 . S
C1408 C1406 1.415 . S
C1408 C1413 1.425 . S
C1408 C1415 1.409 . S
C1409 H1401 0.930 . S
C1409 C1407 1.419 . S
C1409 C1410 1.362 . S
C1410 H1402 0.930 . S
C1410 C1409 1.362 . S
C1410 C1413 1.409 . S
C1411 H1403 0.930 . S
C1411 C1412 1.355 . S
C1411 C1413 1.415 . S
C1412 C1411 1.355 . S
C1412 C1414 1.419 . S
C1413 C1408 1.425 . S
C1413 C1410 1.409 . S
C1413 C1411 1.415 . S
C1414 H1404 0.930 . S
C1414 C1412 1.419 . S
C1414 C1415 1.362 . S
C1415 H1405 0.930 . S
C1415 C1408 1.409 . S
C1415 C1414 1.362 . S
H1416 C1422 0.930 . S
H1417 C1425 0.930 . S
H1418 C1426 0.930 . S
H1419 C1427 0.930 . S
H1420 C1430 0.930 . S
H1421 C1431 0.930 . S
C1422 H1416 0.930 . S
C1422 C1423 1.355 . S
C1422 C1424 1.415 . S
C1423 C1422 1.355 . S
C1423 C1425 1.419 . S
C1424 C1422 1.415 . S
C1424 C1429 1.425 . S
C1424 C1431 1.409 . S
C1425 H1417 0.930 . S
C1425 C1423 1.419 . S
C1425 C1426 1.362 . S
C1426 H1418 0.930 . S
C1426 C1425 1.362 . S
C1426 C1429 1.409 . S
C1427 H1419 0.930 . S
C1427 C1428 1.355 . S
C1427 C1429 1.415 . S
C1428 C1427 1.355 . S
C1428 C1430 1.419 . S
C1429 C1424 1.425 . S
C1429 C1426 1.409 . S
C1429 C1427 1.415 . S
C1430 H1420 0.930 . S
C1430 C1428 1.419 . S
C1430 C1431 1.362 . S
C1431 H1421 0.930 . S
C1431 C1424 1.409 . S
C1431 C1430 1.362 . S
H1432 C1438 0.930 . S
H1433 C1441 0.930 . S
H1434 C1442 0.930 . S
H1435 C1443 0.930 . S
H1436 C1446 0.930 . S
H1437 C1447 0.930 . S
C1438 H1432 0.930 . S
C1438 C1439 1.355 . S
C1438 C1440 1.415 . S
C1439 C1438 1.355 . S
C1439 C1441 1.419 . S
C1440 C1438 1.415 . S
C1440 C1445 1.425 . S
C1440 C1447 1.409 . S
C1441 H1433 0.930 . S
C1441 C1439 1.419 . S
C1441 C1442 1.362 . S
C1442 H1434 0.930 . S
C1442 C1441 1.362 . S
C1442 C1445 1.409 . S
C1443 H1435 0.930 . S
C1443 C1444 1.355 . S
C1443 C1445 1.415 . S
C1444 C1443 1.355 . S
C1444 C1446 1.419 . S
C1445 C1440 1.425 . S
C1445 C1442 1.409 . S
C1445 C1443 1.415 . S
C1446 H1436 0.930 . S
C1446 C1444 1.419 . S
C1446 C1447 1.362 . S
C1447 H1437 0.930 . S
C1447 C1440 1.409 . S
C1447 C1446 1.362 . S
H1448 C1454 0.930 . S
H1449 C1457 0.930 . S
H1450 C1458 0.930 . S
H1451 C1459 0.930 . S
H1452 C1462 0.930 . S
H1453 C1463 0.930 . S
C1454 H1448 0.930 . S
C1454 C1455 1.355 . S
C1454 C1456 1.415 . S
C1455 C1454 1.355 . S
C1455 C1457 1.419 . S
C1456 C1454 1.415 . S
C1456 C1461 1.425 . S
C1456 C1463 1.409 . S
C1457 H1449 0.930 . S
C1457 C1455 1.419 . S
C1457 C1458 1.362 . S
C1458 H1450 0.930 . S
C1458 C1457 1.362 . S
C1458 C1461 1.409 . S
C1459 H1451 0.930 . S
C1459 C1460 1.355 . S
C1459 C1461 1.415 . S
C1460 C1459 1.355 . S
C1460 C1462 1.419 . S
C1461 C1456 1.425 . S
C1461 C1458 1.409 . S
C1461 C1459 1.415 . S
C1462 H1452 0.930 . S
C1462 C1460 1.419 . S
C1462 C1463 1.362 . S
C1463 H1453 0.930 . S
C1463 C1456 1.409 . S
C1463 C1462 1.362 . S
H1464 C1470 0.930 . S
H1465 C1473 0.930 . S
H1466 C1474 0.930 . S
H1467 C1475 0.930 . S
H1468 C1478 0.930 . S
H1469 C1479 0.930 . S
C1470 H1464 0.930 . S
C1470 C1471 1.355 . S
C1470 C1472 1.415 . S
C1471 C1470 1.355 . S
C1471 C1473 1.419 . S
C1472 C1470 1.415 . S
C1472 C1477 1.425 . S
C1472 C1479 1.409 . S
C1473 H1465 0.930 . S
C1473 C1471 1.419 . S
C1473 C1474 1.362 . S
C1474 H1466 0.930 . S
C1474 C1473 1.362 . S
C1474 C1477 1.409 . S
C1475 H1467 0.930 . S
C1475 C1476 1.355 . S
C1475 C1477 1.415 . S
C1476 C1475 1.355 . S
C1476 C1478 1.419 . S
C1477 C1472 1.425 . S
C1477 C1474 1.409 . S
C1477 C1475 1.415 . S
C1478 H1468 0.930 . S
C1478 C1476 1.419 . S
C1478 C1479 1.362 . S
C1479 H1469 0.930 . S
C1479 C1472 1.409 . S
C1479 C1478 1.362 . S
H1480 C1486 0.930 . S
H1481 C1489 0.930 . S
H1482 C1490 0.930 . S
H1483 C1491 0.930 . S
H1484 C1494 0.930 . S
H1485 C1495 0.930 . S
C1486 H1480 0.930 . S
C1486 C1487 1.355 . S
C1486 C1488 1.415 . S
C1487 C1486 1.355 . S
C1487 C1489 1.419 . S
C1488 C1486 1.415 . S
C1488 C1493 1.425 . S
C1488 C1495 1.409 . S
C1489 H1481 0.930 . S
C1489 C1487 1.419 . S
C1489 C1490 1.362 . S
C1490 H1482 0.930 . S
C1490 C1489 1.362 . S
C1490 C1493 1.409 . S
C1491 H1483 0.930 . S
C1491 C1492 1.355 . S
C1491 C1493 1.415 . S
C1492 C1491 1.355 . S
C1492 C1494 1.419 . S
C1493 C1488 1.425 . S
C1493 C1490 1.409 . S
C1493 C1491 1.415 . S
C1494 H1484 0.930 . S
C1494 C1492 1.419 . S
C1494 C1495 1.362 . S
C1495 H1485 0.930 . S
C1495 C1488 1.409 . S
C1495 C1494 1.362 . S
H1496 C1502 0.930 . S
H1497 C1505 0.930 . S
H1498 C1506 0.930 . S
H1499 C1507 0.930 . S
H1500 C1510 0.930 . S
H1501 C1511 0.930 . S
C1502 H1496 0.930 . S
C1502 C1503 1.355 . S
C1502 C1504 1.415 . S
C1503 C1502 1.355 . S
C1503 C1505 1.419 . S
C1504 C1502 1.415 . S
C1504 C1509 1.425 . S
C1504 C1511 1.409 . S
C1505 H1497 0.930 . S
C1505 C1503 1.419 . S
C1505 C1506 1.362 . S
C1506 H1498 0.930 . S
C1506 C1505 1.362 . S
C1506 C1509 1.409 . S
C1507 H1499 0.930 . S
C1507 C1508 1.355 . S
C1507 C1509 1.415 . S
C1508 C1507 1.355 . S
C1508 C1510 1.419 . S
C1509 C1504 1.425 . S
C1509 C1506 1.409 . S
C1509 C1507 1.415 . S
C1510 H1500 0.930 . S
C1510 C1508 1.419 . S
C1510 C1511 1.362 . S
C1511 H1501 0.930 . S
C1511 C1504 1.409 . S
C1511 C1510 1.362 . S
H1512 C1518 0.930 . S
H1513 C1521 0.930 . S
H1514 C1522 0.930 . S
H1515 C1523 0.930 . S
H1516 C1526 0.930 . S
H1517 C1527 0.930 . S
C1518 H1512 0.930 . S
C1518 C1519 1.355 . S
C1518 C1520 1.415 . S
C1519 C1518 1.355 . S
C1519 C1521 1.419 . S
C1520 C1518 1.415 . S
C1520 C1525 1.425 . S
C1520 C1527 1.409 . S
C1521 H1513 0.930 . S
C1521 C1519 1.419 . S
C1521 C1522 1.362 . S
C1522 H1514 0.930 . S
C1522 C1521 1.362 . S
C1522 C1525 1.409 . S
C1523 H1515 0.930 . S
C1523 C1524 1.355 . S
C1523 C1525 1.415 . S
C1524 C1523 1.355 . S
C1524 C1526 1.419 . S
C1525 C1520 1.425 . S
C1525 C1522 1.409 . S
C1525 C1523 1.415 . S
C1526 H1516 0.930 . S
C1526 C1524 1.419 . S
C1526 C1527 1.362 . S
C1527 H1517 0.930 . S
C1527 C1520 1.409 . S
C1527 C1526 1.362 . S
H1528 C1534 0.930 . S
H1529 C1537 0.930 . S
H1530 C1538 0.930 . S
H1531 C1539 0.930 . S
H1532 C1542 0.930 . S
H1533 C1543 0.930 . S
C1534 H1528 0.930 . S
C1534 C1535 1.355 . S
C1534 C1536 1.415 . S
C1535 C1534 1.355 . S
C1535 C1537 1.419 . S
C1536 C1534 1.415 . S
C1536 C1541 1.425 . S
C1536 C1543 1.409 . S
C1537 H1529 0.930 . S
C1537 C1535 1.419 . S
C1537 C1538 1.362 . S
C1538 H1530 0.930 . S
C1538 C1537 1.362 . S
C1538 C1541 1.409 . S
C1539 H1531 0.930 . S
C1539 C1540 1.355 . S
C1539 C1541 1.415 . S
C1540 C1539 1.355 . S
C1540 C1542 1.419 . S
C1541 C1536 1.425 . S
C1541 C1538 1.409 . S
C1541 C1539 1.415 . S
C1542 H1532 0.930 . S
C1542 C1540 1.419 . S
C1542 C1543 1.362 . S
C1543 H1533 0.930 . S
C1543 C1536 1.409 . S
C1543 C1542 1.362 . S
H1544 C1550 0.930 . S
H1545 C1553 0.930 . S
H1546 C1554 0.930 . S
H1547 C1555 0.930 . S
H1548 C1558 0.930 . S
H1549 C1559 0.930 . S
C1550 H1544 0.930 . S
C1550 C1551 1.355 . S
C1550 C1552 1.415 . S
C1551 C1550 1.355 . S
C1551 C1553 1.419 . S
C1552 C1550 1.415 . S
C1552 C1557 1.425 . S
C1552 C1559 1.409 . S
C1553 H1545 0.930 . S
C1553 C1551 1.419 . S
C1553 C1554 1.362 . S
C1554 H1546 0.930 . S
C1554 C1553 1.362 . S
C1554 C1557 1.409 . S
C1555 H1547 0.930 . S
C1555 C1556 1.355 . S
C1555 C1557 1.415 . S
C1556 C1555 1.355 . S
C1556 C1558 1.419 . S
C1557 C1552 1.425 . S
C1557 C1554 1.409 . S
C1557 C1555 1.415 . S
C1558 H1548 0.930 . S
C1558 C1556 1.419 . S
C1558 C1559 1.362 . S
C1559 H1549 0.930 . S
C1559 C1552 1.409 . S
C1559 C1558 1.362 . S
H1560 C1566 0.930 . S
H1561 C1569 0.930 . S
H1562 C1570 0.930 . S
H1563 C1571 0.930 . S
H1564 C1574 0.930 . S
H1565 C1575 0.930 . S
C1566 H1560 0.930 . S
C1566 C1567 1.355 . S
C1566 C1568 1.415 . S
C1567 C1566 1.355 . S
C1567 C1569 1.419 . S
C1568 C1566 1.415 . S
C1568 C1573 1.425 . S
C1568 C1575 1.409 . S
C1569 H1561 0.930 . S
C1569 C1567 1.419 . S
C1569 C1570 1.362 . S
C1570 H1562 0.930 . S
C1570 C1569 1.362 . S
C1570 C1573 1.409 . S
C1571 H1563 0.930 . S
C1571 C1572 1.355 . S
C1571 C1573 1.415 . S
C1572 C1571 1.355 . S
C1572 C1574 1.419 . S
C1573 C1568 1.425 . S
C1573 C1570 1.409 . S
C1573 C1571 1.415 . S
C1574 H1564 0.930 . S
C1574 C1572 1.419 . S
C1574 C1575 1.362 . S
C1575 H1565 0.930 . S
C1575 C1568 1.409 . S
C1575 C1574 1.362 . S
H1576 C1582 0.930 . S
H1577 C1585 0.930 . S
H1578 C1586 0.930 . S
H1579 C1587 0.930 . S
H1580 C1590 0.930 . S
H1581 C1591 0.930 . S
C1582 H1576 0.930 . S
C1582 C1583 1.355 . S
C1582 C1584 1.415 . S
C1583 C1582 1.355 . S
C1583 C1585 1.419 . S
C1584 C1582 1.415 . S
C1584 C1589 1.425 . S
C1584 C1591 1.409 . S
C1585 H1577 0.930 . S
C1585 C1583 1.419 . S
C1585 C1586 1.362 . S
C1586 H1578 0.930 . S
C1586 C1585 1.362 . S
C1586 C1589 1.409 . S
C1587 H1579 0.930 . S
C1587 C1588 1.355 . S
C1587 C1589 1.415 . S
C1588 C1587 1.355 . S
C1588 C1590 1.419 . S
C1589 C1584 1.425 . S
C1589 C1586 1.409 . S
C1589 C1587 1.415 . S
C1590 H1580 0.930 . S
C1590 C1588 1.419 . S
C1590 C1591 1.362 . S
C1591 H1581 0.930 . S
C1591 C1584 1.409 . S
C1591 C1590 1.362 . S
H1592 C1598 0.930 . S
H1593 C1601 0.930 . S
H1594 C1602 0.930 . S
H1595 C1603 0.930 . S
H1596 C1606 0.930 . S
H1597 C1607 0.930 . S
C1598 H1592 0.930 . S
C1598 C1599 1.355 . S
C1598 C1600 1.415 . S
C1599 C1598 1.355 . S
C1599 C1601 1.419 . S
C1600 C1598 1.415 . S
C1600 C1605 1.425 . S
C1600 C1607 1.409 . S
C1601 H1593 0.930 . S
C1601 C1599 1.419 . S
C1601 C1602 1.362 . S
C1602 H1594 0.930 . S
C1602 C1601 1.362 . S
C1602 C1605 1.409 . S
C1603 H1595 0.930 . S
C1603 C1604 1.355 . S
C1603 C1605 1.415 . S
C1604 C1603 1.355 . S
C1604 C1606 1.419 . S
C1605 C1600 1.425 . S
C1605 C1602 1.409 . S
C1605 C1603 1.415 . S
C1606 H1596 0.930 . S
C1606 C1604 1.419 . S
C1606 C1607 1.362 . S
C1607 H1597 0.930 . S
C1607 C1600 1.409 . S
C1607 C1606 1.362 . S
H1608 C1614 0.930 . S
H1609 C1617 0.930 . S
H1610 C1618 0.930 . S
H1611 C1619 0.930 . S
H1612 C1622 0.930 . S
H1613 C1623 0.930 . S
C1614 H1608 0.930 . S
C1614 C1615 1.355 . S
C1614 C1616 1.415 . S
C1615 C1614 1.355 . S
C1615 C1617 1.419 . S
C1616 C1614 1.415 . S
C1616 C1621 1.425 . S
C1616 C1623 1.409 . S
C1617 H1609 0.930 . S
C1617 C1615 1.419 . S
C1617 C1618 1.362 . S
C1618 H1610 0.930 . S
C1618 C1617 1.362 . S
C1618 C1621 1.409 . S
C1619 H1611 0.930 . S
C1619 C1620 1.355 . S
C1619 C1621 1.415 . S
C1620 C1619 1.355 . S
C1620 C1622 1.419 . S
C1621 C1616 1.425 . S
C1621 C1618 1.409 . S
C1621 C1619 1.415 . S
C1622 H1612 0.930 . S
C1622 C1620 1.419 . S
C1622 C1623 1.362 . S
C1623 H1613 0.930 . S
C1623 C1616 1.409 . S
C1623 C1622 1.362 . S
H1624 C1630 0.930 . S
H1625 C1633 0.930 . S
H1626 C1634 0.930 . S
H1627 C1635 0.930 . S
H1628 C1638 0.930 . S
H1629 C1639 0.930 . S
C1630 H1624 0.930 . S
C1630 C1631 1.355 . S
C1630 C1632 1.415 . S
C1631 C1630 1.355 . S
C1631 C1633 1.419 . S
C1632 C1630 1.415 . S
C1632 C1637 1.425 . S
C1632 C1639 1.409 . S
C1633 H1625 0.930 . S
C1633 C1631 1.419 . S
C1633 C1634 1.362 . S
C1634 H1626 0.930 . S
C1634 C1633 1.362 . S
C1634 C1637 1.409 . S
C1635 H1627 0.930 . S
C1635 C1636 1.355 . S
C1635 C1637 1.415 . S
C1636 C1635 1.355 . S
C1636 C1638 1.419 . S
C1637 C1632 1.425 . S
C1637 C1634 1.409 . S
C1637 C1635 1.415 . S
C1638 H1628 0.930 . S
C1638 C1636 1.419 . S
C1638 C1639 1.362 . S
C1639 H1629 0.930 . S
C1639 C1632 1.409 . S
C1639 C1638 1.362 . S
H1640 C1646 0.930 . S
H1641 C1649 0.930 . S
H1642 C1650 0.930 . S
H1643 C1651 0.930 . S
H1644 C1654 0.930 . S
H1645 C1655 0.930 . S
C1646 H1640 0.930 . S
C1646 C1647 1.355 . S
C1646 C1648 1.415 . S
C1647 C1646 1.355 . S
C1647 C1649 1.419 . S
C1648 C1646 1.415 . S
C1648 C1653 1.425 . S
C1648 C1655 1.409 . S
C1649 H1641 0.930 . S
C1649 C1647 1.419 . S
C1649 C1650 1.362 . S
C1650 H1642 0.930 . S
C1650 C1649 1.362 . S
C1650 C1653 1.409 . S
C1651 H1643 0.930 . S
C1651 C1652 1.355 . S
C1651 C1653 1.415 . S
C1652 C1651 1.355 . S
C1652 C1654 1.419 . S
C1653 C1648 1.425 . S
C1653 C1650 1.409 . S
C1653 C1651 1.415 . S
C1654 H1644 0.930 . S
C1654 C1652 1.419 . S
C1654 C1655 1.362 . S
C1655 H1645 0.930 . S
C1655 C1648 1.409 . S
C1655 C1654 1.362 . S
H1656 C1662 0.930 . S
H1657 C1665 0.930 . S
H1658 C1666 0.930 . S
H1659 C1667 0.930 . S
H1660 C1670 0.930 . S
H1661 C1671 0.930 . S
C1662 H1656 0.930 . S
C1662 C1663 1.355 . S
C1662 C1664 1.415 . S
C1663 C1662 1.355 . S
C1663 C1665 1.419 . S
C1664 C1662 1.415 . S
C1664 C1669 1.425 . S
C1664 C1671 1.409 . S
C1665 H1657 0.930 . S
C1665 C1663 1.419 . S
C1665 C1666 1.362 . S
C1666 H1658 0.930 . S
C1666 C1665 1.362 . S
C1666 C1669 1.409 . S
C1667 H1659 0.930 . S
C1667 C1668 1.355 . S
C1667 C1669 1.415 . S
C1668 C1667 1.355 . S
C1668 C1670 1.419 . S
C1669 C1664 1.425 . S
C1669 C1666 1.409 . S
C1669 C1667 1.415 . S
C1670 H1660 0.930 . S
C1670 C1668 1.419 . S
C1670 C1671 1.362 . S
C1671 H1661 0.930 . S
C1671 C1664 1.409 . S
C1671 C1670 1.362 . S
H1672 C1678 0.930 . S
H1673 C1681 0.930 . S
H1674 C1682 0.930 . S
H1675 C1683 0.930 . S
H1676 C1686 0.930 . S
H1677 C1687 0.930 . S
C1678 H1672 0.930 . S
C1678 C1679 1.355 . S
C1678 C1680 1.415 . S
C1679 C1678 1.355 . S
C1679 C1681 1.419 . S
C1680 C1678 1.415 . S
C1680 C1685 1.425 . S
C1680 C1687 1.409 . S
C1681 H1673 0.930 . S
C1681 C1679 1.419 . S
C1681 C1682 1.362 . S
C1682 H1674 0.930 . S
C1682 C1681 1.362 . S
C1682 C1685 1.409 . S
C1683 H1675 0.930 . S
C1683 C1684 1.355 . S
C1683 C1685 1.415 . S
C1684 C1683 1.355 . S
C1684 C1686 1.419 . S
C1685 C1680 1.425 . S
C1685 C1682 1.409 . S
C1685 C1683 1.415 . S
C1686 H1676 0.930 . S
C1686 C1684 1.419 . S
C1686 C1687 1.362 . S
C1687 H1677 0.930 . S
C1687 C1680 1.409 . S
C1687 C1686 1.362 . S
H1688 C1694 0.930 . S
H1689 C1697 0.930 . S
H1690 C1698 0.930 . S
H1691 C1699 0.930 . S
H1692 C1702 0.930 . S
H1693 C1703 0.930 . S
C1694 H1688 0.930 . S
C1694 C1695 1.355 . S
C1694 C1696 1.415 . S
C1695 C1694 1.355 . S
C1695 C1697 1.419 . S
C1696 C1694 1.415 . S
C1696 C1701 1.425 . S
C1696 C1703 1.409 . S
C1697 H1689 0.930 . S
C1697 C1695 1.419 . S
C1697 C1698 1.362 . S
C1698 H1690 0.930 . S
C1698 C1697 1.362 . S
C1698 C1701 1.409 . S
C1699 H1691 0.930 . S
C1699 C1700 1.355 . S
C1699 C1701 1.415 . S
C1700 C1699 1.355 . S
C1700 C1702 1.419 . S
C1701 C1696 1.425 . S
C1701 C1698 1.409 . S
C1701 C1699 1.415 . S
C1702 H1692 0.930 . S
C1702 C1700 1.419 . S
C1702 C1703 1.362 . S
C1703 H1693 0.930 . S
C1703 C1696 1.409 . S
C1703 C1702 1.362 . S
H1704 C1710 0.930 . S
H1705 C1713 0.930 . S
H1706 C1714 0.930 . S
H1707 C1715 0.930 . S
H1708 C1718 0.930 . S
H1709 C1719 0.930 . S
C1710 H1704 0.930 . S
C1710 C1711 1.355 . S
C1710 C1712 1.415 . S
C1711 C1710 1.355 . S
C1711 C1713 1.419 . S
C1712 C1710 1.415 . S
C1712 C1717 1.425 . S
C1712 C1719 1.409 . S
C1713 H1705 0.930 . S
C1713 C1711 1.419 . S
C1713 C1714 1.362 . S
C1714 H1706 0.930 . S
C1714 C1713 1.362 . S
C1714 C1717 1.409 . S
C1715 H1707 0.930 . S
C1715 C1716 1.355 . S
C1715 C1717 1.415 . S
C1716 C1715 1.355 . S
C1716 C1718 1.419 . S
C1717 C1712 1.425 . S
C1717 C1714 1.409 . S
C1717 C1715 1.415 . S
C1718 H1708 0.930 . S
C1718 C1716 1.419 . S
C1718 C1719 1.362 . S
C1719 H1709 0.930 . S
C1719 C1712 1.409 . S
C1719 C1718 1.362 . S
H1720 C1726 0.930 . S
H1721 C1729 0.930 . S
H1722 C1730 0.930 . S
H1723 C1731 0.930 . S
H1724 C1734 0.930 . S
H1725 C1735 0.930 . S
C1726 H1720 0.930 . S
C1726 C1727 1.355 . S
C1726 C1728 1.415 . S
C1727 C1726 1.355 . S
C1727 C1729 1.419 . S
C1728 C1726 1.415 . S
C1728 C1733 1.425 . S
C1728 C1735 1.409 . S
C1729 H1721 0.930 . S
C1729 C1727 1.419 . S
C1729 C1730 1.362 . S
C1730 H1722 0.930 . S
C1730 C1729 1.362 . S
C1730 C1733 1.409 . S
C1731 H1723 0.930 . S
C1731 C1732 1.355 . S
C1731 C1733 1.415 . S
C1732 C1731 1.355 . S
C1732 C1734 1.419 . S
C1733 C1728 1.425 . S
C1733 C1730 1.409 . S
C1733 C1731 1.415 . S
C1734 H1724 0.930 . S
C1734 C1732 1.419 . S
C1734 C1735 1.362 . S
C1735 H1725 0.930 . S
C1735 C1728 1.409 . S
C1735 C1734 1.362 . S
H1736 C1742 0.930 . S
H1737 C1745 0.930 . S
H1738 C1746 0.930 . S
H1739 C1747 0.930 . S
H1740 C1750 0.930 . S
H1741 C1751 0.930 . S
C1742 H1736 0.930 . S
C1742 C1743 1.355 . S
C1742 C1744 1.415 . S
C1743 C1742 1.355 . S
C1743 C1745 1.419 . S
C1744 C1742 1.415 . S
C1744 C1749 1.425 . S
C1744 C1751 1.409 . S
C1745 H1737 0.930 . S
C1745 C1743 1.419 . S
C1745 C1746 1.362 . S
C1746 H1738 0.930 . S
C1746 C1745 1.362 . S
C1746 C1749 1.409 . S
C1747 H1739 0.930 . S
C1747 C1748 1.355 . S
C1747 C1749 1.415 . S
C1748 C1747 1.355 . S
C1748 C1750 1.419 . S
C1749 C1744 1.425 . S
C1749 C1746 1.409 . S
C1749 C1747 1.415 . S
C1750 H1740 0.930 . S
C1750 C1748 1.419 . S
C1750 C1751 1.362 . S
C1751 H1741 0.930 . S
C1751 C1744 1.409 . S
C1751 C1750 1.362 . S
H1752 C1758 0.930 . S
H1753 C1761 0.930 . S
H1754 C1762 0.930 . S
H1755 C1763 0.930 . S
H1756 C1766 0.930 . S
H1757 C1767 0.930 . S
C1758 H1752 0.930 . S
C1758 C1759 1.355 . S
C1758 C1760 1.415 . S
C1759 C1758 1.355 . S
C1759 C1761 1.419 . S
C1760 C1758 1.415 . S
C1760 C1765 1.425 . S
C1760 C1767 1.409 . S
C1761 H1753 0.930 . S
C1761 C1759 1.419 . S
C1761 C1762 1.362 . S
C1762 H1754 0.930 . S
C1762 C1761 1.362 . S
C1762 C1765 1.409 . S
C1763 H1755 0.930 . S
C1763 C1764 1.355 . S
C1763 C1765 1.415 . S
C1764 C1763 1.355 . S
C1764 C1766 1.419 . S
C1765 C1760 1.425 . S
C1765 C1762 1.409 . S
C1765 C1763 1.415 . S
C1766 H1756 0.930 . S
C1766 C1764 1.419 . S
C1766 C1767 1.362 . S
C1767 H1757 0.930 . S
C1767 C1760 1.409 . S
C1767 C1766 1.362 . S
H1768 C1774 0.930 . S
H1769 C1777 0.930 . S
H1770 C1778 0.930 . S
H1771 C1779 0.930 . S
H1772 C1782 0.930 . S
H1773 C1783 0.930 . S
C1774 H1768 0.930 . S
C1774 C1775 1.355 . S
C1774 C1776 1.415 . S
C1775 C1774 1.355 . S
C1775 C1777 1.419 . S
C1776 C1774 1.415 . S
C1776 C1781 1.425 . S
C1776 C1783 1.409 . S
C1777 H1769 0.930 . S
C1777 C1775 1.419 . S
C1777 C1778 1.362 . S
C1778 H1770 0.930 . S
C1778 C1777 1.362 . S
C1778 C1781 1.409 . S
C1779 H1771 0.930 . S
C1779 C1780 1.355 . S
C1779 C1781 1.415 . S
C1780 C1779 1.355 . S
C1780 C1782 1.419 . S
C1781 C1776 1.425 . S
C1781 C1778 1.409 . S
C1781 C1779 1.415 . S
C1782 H1772 0.930 . S
C1782 C1780 1.419 . S
C1782 C1783 1.362 . S
C1783 H1773 0.930 . S
C1783 C1776 1.409 . S
C1783 C1782 1.362 . S
H1784 C1790 0.930 . S
H1785 C1793 0.930 . S
H1786 C1794 0.930 . S
H1787 C1795 0.930 . S
H1788 C1798 0.930 . S
H1789 C1799 0.930 . S
C1790 H1784 0.930 . S
C1790 C1791 1.355 . S
C1790 C1792 1.415 . S
C1791 C1790 1.355 . S
C1791 C1793 1.419 . S
C1792 C1790 1.415 . S
C1792 C1797 1.425 . S
C1792 C1799 1.409 . S
C1793 H1785 0.930 . S
C1793 C1791 1.419 . S
C1793 C1794 1.362 . S
C1794 H1786 0.930 . S
C1794 C1793 1.362 . S
C1794 C1797 1.409 . S
C1795 H1787 0.930 . S
C1795 C1796 1.355 . S
C1795 C1797 1.415 . S
C1796 C1795 1.355 . S
C1796 C1798 1.419 . S
C1797 C1792 1.425 . S
C1797 C1794 1.409 . S
C1797 C1795 1.415 . S
C1798 H1788 0.930 . S
C1798 C1796 1.419 . S
C1798 C1799 1.362 . S
C1799 H1789 0.930 . S
C1799 C1792 1.409 . S
C1799 C1798 1.362 . S
H1800 C1806 0.930 . S
H1801 C1809 0.930 . S
H1802 C1810 0.930 . S
H1803 C1811 0.930 . S
H1804 C1814 0.930 . S
H1805 C1815 0.930 . S
C1806 H1800 0.930 . S
C1806 C1807 1.355 . S
C1806 C1808 1.415 . S
C1807 C1806 1.355 . S
C1807 C1809 1.419 . S
C1808 C1806 1.415 . S
C1808 C1813 1.425 . S
C1808 C1815 1.409 . S
C1809 H1801 0.930 . S
C1809 C1807 1.419 . S
C1809 C1810 1.362 . S
C1810 H1802 0.930 . S
C1810 C1809 1.362 . S
C1810 C1813 1.409 . S
C1811 H1803 0.930 . S
C1811 C1812 1.355 . S
C1811 C1813 1.415 . S
C1812 C1811 1.355 . S
C1812 C1814 1.419 . S
C1813 C1808 1.425 . S
C1813 C1810 1.409 . S
C1813 C1811 1.415 . S
C1814 H1804 0.930 . S
C1814 C1812 1.419 . S
C1814 C1815 1.362 . S
C1815 H1805 0.930 . S
C1815 C1808 1.409 . S
C1815 C1814 1.362 . S
H1816 C1822 0.930 . S
H1817 C1825 0.930 . S
H1818 C1826 0.930 . S
H1819 C1827 0.930 . S
H1820 C1830 0.930 . S
H1821 C1831 0.930 . S
C1822 H1816 0.930 . S
C1822 C1823 1.355 . S
C1822 C1824 1.415 . S
C1823 C1822 1.355 . S
C1823 C1825 1.419 . S
C1824 C1822 1.415 . S
C1824 C1829 1.425 . S
C1824 C1831 1.409 . S
C1825 H1817 0.930 . S
C1825 C1823 1.419 . S
C1825 C1826 1.362 . S
C1826 H1818 0.930 . S
C1826 C1825 1.362 . S
C1826 C1829 1.409 . S
C1827 H1819 0.930 . S
C1827 C1828 1.355 . S
C1827 C1829 1.415 . S
C1828 C1827 1.355 . S
C1828 C1830 1.419 . S
C1829 C1824 1.425 . S
C1829 C1826 1.409 . S
C1829 C1827 1.415 . S
C1830 H1820 0.930 . S
C1830 C1828 1.419 . S
C1830 C1831 1.362 . S
C1831 H1821 0.930 . S
C1831 C1824 1.409 . S
C1831 C1830 1.362 . S
H1832 C1838 0.930 . S
H1833 C1841 0.930 . S
H1834 C1842 0.930 . S
H1835 C1843 0.930 . S
H1836 C1846 0.930 . S
H1837 C1847 0.930 . S
C1838 H1832 0.930 . S
C1838 C1839 1.355 . S
C1838 C1840 1.415 . S
C1839 C1838 1.355 . S
C1839 C1841 1.419 . S
C1840 C1838 1.415 . S
C1840 C1845 1.425 . S
C1840 C1847 1.409 . S
C1841 H1833 0.930 . S
C1841 C1839 1.419 . S
C1841 C1842 1.362 . S
C1842 H1834 0.930 . S
C1842 C1841 1.362 . S
C1842 C1845 1.409 . S
C1843 H1835 0.930 . S
C1843 C1844 1.355 . S
C1843 C1845 1.415 . S
C1844 C1843 1.355 . S
C1844 C1846 1.419 . S
C1845 C1840 1.425 . S
C1845 C1842 1.409 . S
C1845 C1843 1.415 . S
C1846 H1836 0.930 . S
C1846 C1844 1.419 . S
C1846 C1847 1.362 . S
C1847 H1837 0.930 . S
C1847 C1840 1.409 . S
C1847 C1846 1.362 . S
C1348 C941 1.445 . S
C1343 C29 1.259 . S
C1364 C994 1.470 . S
C1359 C125 0.667 . S
C1380 C1057 1.555 . S
C1375 C257 1.243 . S
C1396 C1100 1.448 . S
C1391 C353 0.861 . S
C1407 C457 1.164 . S
C1412 C1056 1.511 . S
C1428 C1093 1.518 . S
C1423 C625 1.227 . S
C1444 C934 1.431 . S
C1439 C685 1.068 . S
C1460 C987 1.396 . S
C1455 C853 1.031 . S
C1476 C1040 1.665 . S
C1471 C809 1.153 . S
C1492 C1109 1.759 . S
C1487 C485 1.449 . S
C1508 C950 1.756 . S
C1503 C581 1.055 . S
C1524 C1003 1.689 . S
C1519 C713 1.435 . S
C1540 C951 1.689 . S
C1535 C169 1.208 . S
C1556 C1004 1.737 . S
C1551 C229 1.272 . S
C1572 C1047 1.619 . S
C1567 C397 1.082 . S
C1588 C1110 1.641 . S
C1583 C1 1.356 . S
C1604 C1153 1.423 . S
C1599 C827 1.115 . S
C1615 C467 0.987 . S
C1620 C1206 1.835 . S
C1631 C599 1.238 . S
C1636 C1268 1.597 . S
C1647 C695 0.951 . S
C1652 C1322 1.807 . S
C1663 C115 1.177 . S
C1668 C1269 1.479 . S
C1679 C283 1.553 . S
C1684 C1321 1.918 . S
C1695 C343 1.042 . S
C1700 C1146 1.456 . S
C1716 C1199 1.722 . S
C1711 C55 1.463 . S
C1732 C1259 1.580 . S
C1727 C11 1.086 . S
C1743 C143 1.002 . S
C1748 C1305 1.308 . S
C1759 C239 1.196 . S
C1764 C1162 1.776 . S
C1775 C371 1.167 . S
C1780 C1215 1.292 . S
C1796 C1163 1.666 . S
C1791 C511 1.178 . S
C1812 C1216 1.358 . S
C1807 C571 1.119 . S
C1823 C739 1.205 . S
C1828 C1252 1.641 . S
C1844 C1312 1.199 . S
C1839 C799 1.024 . S
