# Generated by pormake.
# Topology zzz, (3,6)-cn, num edge types: 1
# Building blocks:
#     Node 0, Type 0, BuildingBlock: BETDIP_clean_linker_0, # of connection points: 3
#     Node 1, Type 0, BuildingBlock: BETDIP_clean_linker_0, # of connection points: 3
#     Node 2, Type 0, BuildingBlock: BETDIP_clean_linker_0, # of connection points: 3
#     Node 3, Type 0, BuildingBlock: BETDIP_clean_linker_0, # of connection points: 3
#     Node 4, Type 0, BuildingBlock: BETDIP_clean_linker_0, # of connection points: 3
#     Node 5, Type 0, BuildingBlock: BETDIP_clean_linker_0, # of connection points: 3
#     Node 6, Type 0, BuildingBlock: BETDIP_clean_linker_0, # of connection points: 3
#     Node 7, Type 0, BuildingBlock: BETDIP_clean_linker_0, # of connection points: 3
#     Node 8, Type 1, BuildingBlock: CUWYAW_clean_sbu_0, # of connection points: 6
#     Node 9, Type 1, BuildingBlock: CUWYAW_clean_sbu_0, # of connection points: 6
#     Node 10, Type 1, BuildingBlock: CUWYAW_clean_sbu_0, # of connection points: 6
#     Node 11, Type 1, BuildingBlock: CUWYAW_clean_sbu_0, # of connection points: 6
#     Edge 12, Type (0, 1), BuildingBlock: ZUJKAS_clean_linker_0, # of connection points: 2
#     Edge 13, Type (0, 1), BuildingBlock: ZUJKAS_clean_linker_0, # of connection points: 2
#     Edge 14, Type (0, 1), BuildingBlock: ZUJKAS_clean_linker_0, # of connection points: 2
#     Edge 15, Type (0, 1), BuildingBlock: ZUJKAS_clean_linker_0, # of connection points: 2
#     Edge 16, Type (0, 1), BuildingBlock: ZUJKAS_clean_linker_0, # of connection points: 2
#     Edge 17, Type (0, 1), BuildingBlock: ZUJKAS_clean_linker_0, # of connection points: 2
#     Edge 18, Type (0, 1), BuildingBlock: ZUJKAS_clean_linker_0, # of connection points: 2
#     Edge 19, Type (0, 1), BuildingBlock: ZUJKAS_clean_linker_0, # of connection points: 2
#     Edge 20, Type (0, 1), BuildingBlock: ZUJKAS_clean_linker_0, # of connection points: 2
#     Edge 21, Type (0, 1), BuildingBlock: ZUJKAS_clean_linker_0, # of connection points: 2
#     Edge 22, Type (0, 1), BuildingBlock: ZUJKAS_clean_linker_0, # of connection points: 2
#     Edge 23, Type (0, 1), BuildingBlock: ZUJKAS_clean_linker_0, # of connection points: 2
#     Edge 24, Type (0, 1), BuildingBlock: ZUJKAS_clean_linker_0, # of connection points: 2
#     Edge 25, Type (0, 1), BuildingBlock: ZUJKAS_clean_linker_0, # of connection points: 2
#     Edge 26, Type (0, 1), BuildingBlock: ZUJKAS_clean_linker_0, # of connection points: 2
#     Edge 27, Type (0, 1), BuildingBlock: ZUJKAS_clean_linker_0, # of connection points: 2
#     Edge 28, Type (0, 1), BuildingBlock: ZUJKAS_clean_linker_0, # of connection points: 2
#     Edge 29, Type (0, 1), BuildingBlock: ZUJKAS_clean_linker_0, # of connection points: 2
#     Edge 30, Type (0, 1), BuildingBlock: ZUJKAS_clean_linker_0, # of connection points: 2
#     Edge 31, Type (0, 1), BuildingBlock: ZUJKAS_clean_linker_0, # of connection points: 2
#     Edge 32, Type (0, 1), BuildingBlock: ZUJKAS_clean_linker_0, # of connection points: 2
#     Edge 33, Type (0, 1), BuildingBlock: ZUJKAS_clean_linker_0, # of connection points: 2
#     Edge 34, Type (0, 1), BuildingBlock: ZUJKAS_clean_linker_0, # of connection points: 2
#     Edge 35, Type (0, 1), BuildingBlock: ZUJKAS_clean_linker_0, # of connection points: 2
# Relax obj value: 0.213
# Max RMSD: 0.147
# Mean RMSD: 0.132
data_MOF--net-zzz--node1-CUWYAW_clean_sbu_0--node2-BETDIP_clean_linker_0--edge1-ZUJKAS_clean_linker_0
_symmetry_space_group_name_H-M    P1
_symmetry_Int_Tables_number       1
_symmetry_cell_setting            triclinic
loop_
_symmetry_equiv_pos_as_xyz
'x, y, z'
_cell_length_a     68.028512
_cell_length_b     68.079339
_cell_length_c     18.105556
_cell_angle_alpha  90.068142
_cell_angle_beta   90.040643
_cell_angle_gamma 90.019045
loop_
_atom_site_label
_atom_site_type_symbol
_atom_site_fract_x
_atom_site_fract_y
_atom_site_fract_z
_atom_type_partial_charge
H0 H 0.75142 0.50842 0.39826 0.0
H1 H 0.74059 0.52107 0.16817 0.0
H2 H 0.79975 0.5153 0.24667 0.0
H3 H 0.7171 0.54365 0.25076 0.0
C4 C 0.71054 0.5293 0.26033 0.0
C5 C 0.75686 0.5111 0.343 0.0
C6 C 0.77744 0.51122 0.32935 0.0
C7 C 0.7434 0.5148 0.28448 0.0
C8 C 0.75072 0.51847 0.21337 0.0
C9 C 0.77088 0.51844 0.19942 0.0
C10 C 0.78406 0.51475 0.25728 0.0
N11 N 0.72256 0.5148 0.29545 0.0
H12 H 1.00446 0.74973 0.39973 0.0
H13 H 1.00246 0.73648 0.16691 0.0
H14 H 0.01044 0.79602 0.23892 0.0
H15 H 0.97231 0.7162 0.24611 0.0
C16 C 0.98624 0.70903 0.2579 0.0
C17 C 1.00508 0.75455 0.34281 0.0
C18 C 1.00772 0.77479 0.32639 0.0
C19 C 1.00298 0.74063 0.28472 0.0
C20 C 1.00368 0.74709 0.2114 0.0
C21 C 1.00658 0.76688 0.19461 0.0
C22 C 1.00863 0.78058 0.25208 0.0
N23 N 1.00056 0.72009 0.29828 0.0
H24 H 0.76843 0.99833 0.40639 0.0
H25 H 0.78171 0.99007 0.17546 0.0
H26 H 0.72185 0.99721 0.24477 0.0
H27 H 0.80459 0.96418 0.26811 0.0
C28 C 0.81047 0.97897 0.27317 0.0
C29 C 0.76357 0.99692 0.34966 0.0
C30 C 0.74322 0.99779 0.33261 0.0
C31 C 0.77758 0.99389 0.2926 0.0
C32 C 0.77108 0.99196 0.21951 0.0
C33 C 0.75117 0.9935 0.20212 0.0
C34 C 0.73736 0.99635 0.25855 0.0
N35 N 0.79823 0.9935 0.30686 0.0
H36 H 0.5235 0.76396 0.3751 0.0
H37 H 0.49008 0.77997 0.18208 0.0
H38 H 0.48224 0.72316 0.28099 0.0
H39 H 0.5311 0.78749 0.16501 0.0
C40 C 0.5259 0.79878 0.20279 0.0
C41 C 0.51246 0.76042 0.33408 0.0
C42 C 0.50275 0.742 0.33623 0.0
C43 C 0.508 0.77409 0.27735 0.0
C44 C 0.49369 0.76933 0.2244 0.0
C45 C 0.4841 0.75113 0.22553 0.0
C46 C 0.48882 0.73766 0.28148 0.0
N47 N 0.51786 0.79256 0.27182 0.0
H48 H 0.26259 0.49469 0.0811 0.0
H49 H 0.27481 0.5291 0.27665 0.0
H50 H 0.21574 0.52417 0.19668 0.0
H51 H 0.30356 0.53577 0.17692 0.0
C52 C 0.30667 0.52048 0.18973 0.0
C53 C 0.25757 0.50402 0.12575 0.0
C54 C 0.23732 0.5087 0.13207 0.0
C55 C 0.27131 0.51153 0.17782 0.0
C56 C 0.26458 0.52362 0.23557 0.0
C57 C 0.24458 0.5278 0.24301 0.0
C58 C 0.2312 0.52047 0.19118 0.0
N59 N 0.29166 0.50631 0.17496 0.0
H60 H 0.02363 0.26139 0.08315 0.0
H61 H 0.99864 0.2704 0.29982 0.0
H62 H 1.00326 0.21218 0.2114 0.0
H63 H 0.98434 0.29752 0.21477 0.0
C64 C 0.9995 0.30261 0.21311 0.0
C65 C 0.01708 0.25555 0.13301 0.0
C66 C 0.01427 0.235 0.14065 0.0
C67 C 0.01118 0.26853 0.19043 0.0
C68 C 1.00275 0.2607 0.25491 0.0
C69 C 1.00017 0.24046 0.26313 0.0
C70 C 1.00583 0.22784 0.20584 0.0
N71 N 0.01399 0.28932 0.18516 0.0
H72 H 0.25692 0.0231 0.09031 0.0
H73 H 0.24166 0.97367 0.22831 0.0
H74 H 0.29669 0.97433 0.11317 0.0
H75 H 0.21032 0.98198 0.15235 0.0
C76 C 0.21049 0.99606 0.18076 0.0
C77 C 0.26028 0.00871 0.11238 0.0
C78 C 0.27837 0.99954 0.09472 0.0
C79 C 0.24646 0.99898 0.15825 0.0
C80 C 0.25149 0.98069 0.18931 0.0
C81 C 0.26948 0.97178 0.17271 0.0
C82 C 0.28251 0.98104 0.12425 0.0
N83 N 0.22792 1.00773 0.17582 0.0
H84 H 0.49565 0.25837 0.10112 0.0
H85 H 0.54508 0.24257 0.23858 0.0
H86 H 0.54516 0.29736 0.12209 0.0
H87 H 0.53587 0.21112 0.16164 0.0
C88 C 0.52197 0.21168 0.19122 0.0
C89 C 0.51016 0.26153 0.12278 0.0
C90 C 0.51961 0.2794 0.10443 0.0
C91 C 0.51975 0.24766 0.16875 0.0
C92 C 0.53818 0.25242 0.19939 0.0
C93 C 0.54736 0.27024 0.1823 0.0
C94 C 0.53825 0.28331 0.13355 0.0
N95 N 0.51068 0.22934 0.18698 0.0
C96 C 0.98308 0.02552 0.54206 0.0
Eu97 Eu 0.99922 0.01398 0.66403 0.0
C98 C 0.97022 0.04251 0.52836 0.0
C99 C 0.95516 0.04736 0.57837 0.0
C100 C 0.94574 0.06554 0.57413 0.0
C101 C 0.95133 0.07929 0.52029 0.0
C102 C 0.96558 0.07388 0.46761 0.0
C103 C 0.9749 0.05564 0.47159 0.0
C104 C 0.97699 0.01038 0.78822 0.0
C105 C 0.01494 0.04644 0.78096 0.0
C106 C 0.02764 0.98251 0.92507 0.0
Eu107 Eu 0.0213 0.99932 0.79956 0.0
C108 C 0.02288 0.96193 0.94247 0.0
C109 C 0.03831 0.94839 0.94968 0.0
C110 C 0.03491 0.9284 0.93866 0.0
C111 C 0.01595 0.92159 0.9212 0.0
C112 C 1.0002 0.93491 0.92147 0.0
C113 C 1.00363 0.9549 0.9322 0.0
C114 C 0.04882 1.00805 0.69406 0.0
C115 C 0.00986 0.96713 0.67422 0.0
O116 O 1.00119 0.02999 0.56022 0.0
O117 O 0.97573 0.01144 0.58289 0.0
O118 O 0.97585 0.02494 0.74263 0.0
O119 O 0.98978 0.99821 0.76605 0.0
O120 O 0.00955 0.04315 0.71165 0.0
O121 O 0.01848 0.03179 0.82725 0.0
O122 O 0.01281 0.99452 0.91456 0.0
O123 O 0.0412 0.98437 0.87445 0.0
O124 O 0.05286 1.00221 0.76034 0.0
O125 O 0.03041 0.00984 0.68784 0.0
O126 O 0.01535 0.97008 0.74341 0.0
O127 O 1.00459 0.98198 0.63127 0.0
H128 H 0.95129 0.03754 0.62308 0.0
H129 H 0.93465 0.06913 0.61484 0.0
H130 H 0.9705 0.08418 0.42601 0.0
H131 H 0.98659 0.05228 0.43299 0.0
H132 H 0.05329 0.95344 0.95719 0.0
H133 H 0.04736 0.9185 0.93906 0.0
H134 H 0.98534 0.93 0.91054 0.0
H135 H 0.99139 0.96493 0.92719 0.0
C136 C 0.4852 0.99129 0.5193 0.0
Eu137 Eu 0.50231 0.99856 0.6442 0.0
C138 C 0.46815 0.97902 0.49805 0.0
C139 C 0.46974 0.95845 0.49212 0.0
C140 C 0.45315 0.94697 0.47709 0.0
C141 C 0.43466 0.95583 0.46817 0.0
C142 C 0.43319 0.97639 0.47235 0.0
C143 C 0.44975 0.98785 0.48678 0.0
C144 C 0.50742 0.97092 0.75297 0.0
C145 C 0.47107 0.01116 0.77601 0.0
C146 C 0.5385 0.02975 0.89543 0.0
Eu147 Eu 0.51715 0.01971 0.78384 0.0
C148 C 0.55945 0.02482 0.90503 0.0
C149 C 0.57366 0.03967 0.89853 0.0
C150 C 0.59338 0.03486 0.88723 0.0
C151 C 0.59926 0.0151 0.88271 0.0
C152 C 0.58523 1.00028 0.894 0.0
C153 C 0.56554 1.00507 0.90498 0.0
C154 C 0.50424 0.04376 0.67406 0.0
C155 C 0.54913 1.00475 0.65882 0.0
O156 O 0.48122 1.00684 0.5596 0.0
O157 O 0.50108 0.98205 0.54132 0.0
O158 O 0.50142 0.96698 0.68672 0.0
O159 O 0.51047 0.98915 0.75702 0.0
O160 O 0.47392 1.00664 0.7054 0.0
O161 O 0.48592 0.01501 0.82096 0.0
O162 O 0.52605 0.01506 0.89818 0.0
O163 O 0.53487 0.04169 0.84048 0.0
O164 O 0.50088 0.0467 0.7439 0.0
O165 O 0.51444 0.02836 0.6658 0.0
O166 O 0.54576 0.01021 0.72792 0.0
O167 O 0.5345 1.00093 0.61278 0.0
H168 H 0.48373 0.95116 0.50013 0.0
H169 H 0.4547 0.93116 0.47384 0.0
H170 H 0.41921 0.98367 0.46389 0.0
H171 H 0.44808 1.00365 0.49012 0.0
H172 H 0.56934 0.05499 0.89756 0.0
H173 H 0.60386 0.04662 0.87869 0.0
H174 H 0.5894 0.98493 0.89282 0.0
H175 H 0.55501 0.99321 0.90951 0.0
C176 C 0.52633 0.48526 0.52417 0.0
Eu177 Eu 0.51949 0.5022 0.64954 0.0
C178 C 0.5388 0.46845 0.5022 0.0
C179 C 0.55945 0.46993 0.50087 0.0
C180 C 0.57101 0.45341 0.48586 0.0
C181 C 0.56215 0.43513 0.47259 0.0
C182 C 0.54153 0.43379 0.47202 0.0
C183 C 0.52999 0.45029 0.48629 0.0
C184 C 0.54636 0.50758 0.76194 0.0
C185 C 0.50775 0.47164 0.78419 0.0
C186 C 0.49042 0.53688 0.92032 0.0
Eu187 Eu 0.49847 0.51838 0.79963 0.0
C188 C 0.47752 0.55405 0.92685 0.0
C189 C 0.4661 0.55957 0.86569 0.0
C190 C 0.45577 0.5772 0.86588 0.0
C191 C 0.45683 0.58982 0.92701 0.0
C192 C 0.46765 0.5839 0.98962 0.0
C193 C 0.47798 0.56611 0.98942 0.0
C194 C 0.47159 0.51197 0.68785 0.0
C195 C 0.51026 0.54917 0.666 0.0
O196 O 0.51108 0.48096 0.5656 0.0
O197 O 0.53539 0.50135 0.54539 0.0
O198 O 0.55094 0.50179 0.69578 0.0
O199 O 0.52807 0.51038 0.76262 0.0
O200 O 0.51222 0.47416 0.71321 0.0
O201 O 0.50398 0.48653 0.8296 0.0
O202 O 0.50653 0.54013 0.88237 0.0
O203 O 0.48161 0.52046 0.90149 0.0
O204 O 0.46695 0.51724 0.75435 0.0
O205 O 0.48998 0.5101 0.68675 0.0
O206 O 0.50545 0.54648 0.7364 0.0
O207 O 0.51445 0.53435 0.62082 0.0
H208 H 0.56673 0.48373 0.51269 0.0
H209 H 0.58687 0.45484 0.48631 0.0
H210 H 0.53429 0.41996 0.46026 0.0
H211 H 0.51414 0.44875 0.48621 0.0
H212 H 0.4658 0.55064 0.81633 0.0
H213 H 0.44748 0.58128 0.81713 0.0
H214 H 0.46899 0.59347 0.03718 0.0
H215 H 0.48692 0.56219 0.03669 0.0
C216 C 0.03268 0.52313 0.52013 0.0
Eu217 Eu 0.01648 0.51698 0.64715 0.0
C218 C 0.04835 0.53679 0.49812 0.0
C219 C 0.05001 0.55535 0.53173 0.0
C220 C 0.06661 0.56698 0.51967 0.0
C221 C 0.08192 0.56022 0.47424 0.0
C222 C 0.07979 0.54195 0.4384 0.0
C223 C 0.06315 0.53037 0.45023 0.0
C224 C 0.01012 0.54526 0.75391 0.0
C225 C 0.04783 0.504 0.77989 0.0
C226 C 0.98301 0.49822 0.92772 0.0
Eu227 Eu 1.00059 0.49803 0.80187 0.0
C228 C 0.96711 0.51191 0.94587 0.0
C229 C 0.95188 0.50634 0.99331 0.0
C230 C 0.93441 0.51719 0.99473 0.0
C231 C 0.93201 0.53359 0.94817 0.0
C232 C 0.94781 0.53981 0.90452 0.0
C233 C 0.96513 0.529 0.90311 0.0
C234 C 1.00757 0.46959 0.6973 0.0
C235 C 0.9698 0.50978 0.66897 0.0
O236 O 0.03833 0.50903 0.56472 0.0
O237 O 0.01586 0.53108 0.53944 0.0
O238 O 0.01606 0.54915 0.68746 0.0
O239 O 1.00766 0.52697 0.75695 0.0
O240 O 0.04479 0.51048 0.71129 0.0
O241 O 0.03332 0.4988 0.82513 0.0
O242 O 1.00038 0.50622 0.91826 0.0
O243 O 0.97842 0.48579 0.87514 0.0
O244 O 1.00235 0.4658 0.76504 0.0
O245 O 0.0093 0.48796 0.69179 0.0
O246 O 0.97303 0.50849 0.74118 0.0
O247 O 0.98447 0.51035 0.62063 0.0
H248 H 0.03883 0.56058 0.56945 0.0
H249 H 0.06769 0.58104 0.54746 0.0
H250 H 0.09143 0.53609 0.4041 0.0
H251 H 0.06225 0.516 0.42462 0.0
H252 H 0.95297 0.49296 0.02541 0.0
H253 H 0.92235 0.51195 0.02837 0.0
H254 H 0.9464 0.55244 0.86851 0.0
H255 H 0.97643 0.5332 0.86429 0.0
H256 H 0.17591 0.97689 0.18293 0.0
H257 H 0.14741 0.98238 0.26207 0.0
H258 H 0.17668 0.03179 0.36302 0.0
H259 H 0.20531 0.02649 0.2821 0.0
H260 H 0.14635 0.97963 0.40888 0.0
H261 H 0.12204 0.05435 0.32834 0.0
H262 H 0.13918 0.04022 0.27377 0.0
H263 H 0.14741 0.05286 0.35535 0.0
C264 C 0.17619 0.98914 0.22117 0.0
C265 C 0.19287 1.00128 0.22592 0.0
C266 C 0.15986 0.99225 0.26663 0.0
C267 C 0.15965 1.00761 0.31848 0.0
C268 C 0.1762 0.02007 0.3226 0.0
H269 H 0.08821 1.00761 0.71355 0.0
H270 H 0.11409 0.00877 0.62064 0.0
C271 C 0.19263 0.01699 0.27652 0.0
C272 C 0.14269 0.00938 0.37111 0.0
H273 H 0.10653 0.04029 0.43388 0.0
C274 C 0.13766 0.99291 0.41393 0.0
C275 C 0.13105 0.02659 0.37757 0.0
C276 C 0.13502 0.04447 0.33088 0.0
C277 C 0.12169 0.99322 0.46331 0.0
C278 C 0.11043 0.01058 0.47157 0.0
C279 C 0.11517 0.02699 0.42795 0.0
C280 C 0.09436 0.01197 0.52782 0.0
C281 C 0.1169 0.97481 0.50604 0.0
C282 C 0.07448 0.01411 0.50726 0.0
C283 C 0.05946 0.01352 0.56094 0.0
C284 C 0.06411 0.01086 0.63602 0.0
C285 C 0.08405 0.00954 0.65626 0.0
C286 C 0.09893 0.01015 0.60305 0.0
H287 H 0.12339 0.96154 0.47986 0.0
H288 H 0.12302 0.97608 0.56268 0.0
H289 H 0.10076 0.97271 0.5106 0.0
H290 H 0.07056 0.01559 0.44955 0.0
H291 H 0.04426 0.01456 0.54355 0.0
H292 H 0.53861 0.17585 0.18539 0.0
H293 H 0.5324 0.14725 0.2631 0.0
H294 H 0.48746 0.17941 0.3798 0.0
H295 H 0.49328 0.20803 0.29979 0.0
H296 H 0.53777 0.14364 0.40591 0.0
H297 H 0.45919 0.12836 0.34812 0.0
H298 H 0.4735 0.14511 0.29279 0.0
H299 H 0.46372 0.15288 0.38039 0.0
C300 C 0.52715 0.17674 0.2268 0.0
C301 C 0.51635 0.19417 0.23597 0.0
C302 C 0.52365 0.16036 0.27153 0.0
C303 C 0.50931 0.16091 0.32729 0.0
C304 C 0.49829 0.1783 0.33622 0.0
H305 H 0.48451 0.07853 0.68675 0.0
H306 H 0.48486 0.1065 0.60148 0.0
C307 C 0.50167 0.19474 0.29063 0.0
C308 C 0.50698 0.14361 0.378 0.0
H309 H 0.47396 0.11002 0.4451 0.0
C310 C 0.5238 0.13628 0.41397 0.0
C311 C 0.48878 0.1339 0.38928 0.0
C312 C 0.47029 0.14032 0.35013 0.0
C313 C 0.52294 0.11974 0.4605 0.0
C314 C 0.5048 0.10999 0.47143 0.0
C315 C 0.4879 0.11741 0.43651 0.0
C316 C 0.50319 0.09227 0.51991 0.0
C317 C 0.54146 0.11298 0.49868 0.0
C318 C 0.51292 0.07467 0.50174 0.0
C319 C 0.51263 0.05857 0.55027 0.0
C320 C 0.50268 0.05977 0.61824 0.0
C321 C 0.49237 0.07714 0.635 0.0
C322 C 0.49254 0.09316 0.58624 0.0
H323 H 0.55317 0.12436 0.4972 0.0
H324 H 0.53845 0.10913 0.55718 0.0
H325 H 0.54711 0.09964 0.47055 0.0
H326 H 0.52103 0.07351 0.45048 0.0
H327 H 0.52069 0.04542 0.53557 0.0
H328 H 0.33814 0.54432 0.20057 0.0
H329 H 0.36818 0.53983 0.27238 0.0
H330 H 0.34785 0.48275 0.34183 0.0
H331 H 0.31785 0.48703 0.26747 0.0
H332 H 0.37116 0.53711 0.41508 0.0
H333 H 0.40425 0.46982 0.29643 0.0
H334 H 0.38444 0.48282 0.25162 0.0
H335 H 0.37939 0.4663 0.32677 0.0
C336 C 0.34023 0.53062 0.22994 0.0
C337 C 0.32564 0.516 0.22783 0.0
C338 C 0.35744 0.52808 0.27132 0.0
C339 C 0.36059 0.51087 0.31252 0.0
C340 C 0.34616 0.49599 0.30942 0.0
H341 H 0.43248 0.50791 0.70508 0.0
H342 H 0.40694 0.50643 0.61102 0.0
C343 C 0.32891 0.49847 0.26708 0.0
C344 C 0.37814 0.50953 0.3629 0.0
H345 H 0.418 0.48132 0.41031 0.0
C346 C 0.38141 0.52492 0.41335 0.0
C347 C 0.39184 0.49381 0.36079 0.0
C348 C 0.38997 0.47734 0.30551 0.0
C349 C 0.39755 0.52491 0.46204 0.0
C350 C 0.41077 0.50882 0.46222 0.0
C351 C 0.40785 0.4936 0.41079 0.0
C352 C 0.42693 0.50735 0.51835 0.0
C353 C 0.40034 0.5423 0.5128 0.0
C354 C 0.44697 0.50742 0.49816 0.0
C355 C 0.46185 0.50807 0.55264 0.0
C356 C 0.45687 0.50865 0.62805 0.0
C357 C 0.43688 0.50765 0.64758 0.0
C358 C 0.42217 0.50688 0.59369 0.0
H359 H 0.39276 0.55558 0.49145 0.0
H360 H 0.39401 0.53882 0.56771 0.0
H361 H 0.41617 0.54577 0.52025 0.0
H362 H 0.45107 0.5077 0.44039 0.0
H363 H 0.4771 0.50888 0.53582 0.0
H364 H 0.97329 0.32701 0.27587 0.0
H365 H 0.97899 0.35722 0.34479 0.0
H366 H 0.04127 0.35211 0.30502 0.0
H367 H 0.03556 0.32122 0.23684 0.0
H368 H 0.03469 0.36177 0.4458 0.0
H369 H 0.98993 0.41169 0.27558 0.0
H370 H 0.97548 0.39109 0.30445 0.0
H371 H 0.99639 0.38731 0.24492 0.0
C372 C 0.98822 0.3324 0.28091 0.0
C373 C 1.00393 0.32174 0.25023 0.0
C374 C 0.99145 0.34985 0.32004 0.0
C375 C 0.01052 0.35742 0.32901 0.0
C376 C 0.02636 0.34679 0.2984 0.0
H377 H 0.0175 0.47416 0.54965 0.0
H378 H 0.02124 0.44806 0.45615 0.0
C379 C 0.02311 0.32914 0.25919 0.0
C380 C 0.01367 0.37573 0.37405 0.0
H381 H 0.9957 0.4222 0.40159 0.0
C382 C 0.02637 0.37507 0.43529 0.0
C383 C 1.00325 0.39342 0.36017 0.0
C384 C 0.99068 0.396 0.29219 0.0
C385 C 0.02802 0.391 0.48491 0.0
C386 C 0.01626 0.40801 0.47456 0.0
C387 C 1.00448 0.40913 0.41088 0.0
C388 C 0.01501 0.42411 0.53132 0.0
C389 C 0.04238 0.38933 0.54811 0.0
C390 C 0.01003 0.41959 0.60467 0.0
C391 C 1.00808 0.43441 0.65784 0.0
C392 C 0.01076 0.4543 0.63938 0.0
C393 C 0.01558 0.45899 0.56592 0.0
C394 C 0.01763 0.44405 0.5124 0.0
H395 H 0.05486 0.37955 0.53352 0.0
H396 H 0.04833 0.4039 0.5643 0.0
H397 H 0.03482 0.38278 0.59647 0.0
H398 H 1.00725 0.40453 0.62078 0.0
H399 H 1.00412 0.43024 0.7136 0.0
H400 H 0.82729 0.01512 0.23823 0.0
H401 H 0.85658 0.02086 0.16105 0.0
H402 H 0.86513 0.95834 0.14128 0.0
H403 H 0.83587 0.95262 0.21631 0.0
H404 H 0.89587 0.01064 0.17282 0.0
H405 H 0.86408 0.97414 0.92696 0.0
H406 H 0.84949 0.98039 0.00672 0.0
H407 H 0.86429 0.95846 0.00647 0.0
C408 C 0.83552 1.00264 0.21782 0.0
C409 C 0.82919 0.98339 0.23318 0.0
C410 C 0.85226 1.00592 0.17349 0.0
C411 C 0.86292 0.99004 0.14349 0.0
C412 C 0.85697 0.97088 0.1616 0.0
H413 H 0.96484 0.9754 0.85011 0.0
H414 H 0.93825 0.9705 0.9405 0.0
C415 C 0.84028 0.96762 0.20523 0.0
C416 C 0.88014 0.99326 0.09293 0.0
H417 H 0.89833 0.98116 0.92227 0.0
C418 C 0.89632 1.00429 0.11788 0.0
C419 C 0.8809 0.98502 0.02091 0.0
C420 C 0.86369 0.97401 0.98831 0.0
C421 C 0.91327 1.00689 0.07385 0.0
C422 C 0.91409 0.99843 1.00229 0.0
C423 C 0.89789 0.98749 0.97726 0.0
C424 C 0.93123 1.00139 0.95132 0.0
C425 C 0.93035 0.01835 0.10501 0.0
C426 C 0.93625 0.02032 0.92688 0.0
C427 C 0.95144 0.0231 0.87557 0.0
C428 C 0.96211 1.00705 0.84737 0.0
C429 C 0.95727 0.98809 0.87221 0.0
C430 C 0.94192 0.98529 0.92336 0.0
H431 H 0.92971 0.01924 0.16624 0.0
H432 H 0.94457 0.01162 0.08872 0.0
H433 H 0.92994 0.03355 0.08297 0.0
H434 H 0.92805 0.03297 0.94601 0.0
H435 H 0.95466 0.03788 0.85704 0.0
H436 H 0.54371 0.81253 0.08058 0.0
H437 H 0.54115 0.84495 0.02393 0.0
H438 H 0.50383 0.86421 0.20216 0.0
H439 H 0.50636 0.83145 0.25945 0.0
H440 H 0.48869 0.8735 0.0632 0.0
H441 H 0.56626 0.8973 0.0782 0.0
H442 H 0.56377 0.87333 0.03796 0.0
H443 H 0.55677 0.87722 0.13273 0.0
C444 C 0.53521 0.82376 0.10853 0.0
C445 C 0.5254 0.81943 0.17489 0.0
C446 C 0.53383 0.84238 0.07615 0.0
C447 C 0.52257 0.85728 0.10908 0.0
C448 C 0.51278 0.85307 0.17587 0.0
H449 H 0.52157 0.97525 0.89591 0.0
H450 H 0.52468 0.94949 0.99097 0.0
C451 C 0.5143 0.83436 0.20882 0.0
C452 C 0.52012 0.87662 0.07046 0.0
H453 H 0.54611 0.91368 0.98765 0.0
C454 C 0.50124 0.88243 0.04779 0.0
C455 C 0.53638 0.88856 0.05075 0.0
C456 C 0.55691 0.88391 0.07683 0.0
C457 C 0.49833 0.89909 0.00284 0.0
C458 C 0.51475 0.91024 0.97887 0.0
C459 C 0.5335 0.9051 0.00503 0.0
C460 C 0.51285 0.92623 0.9224 0.0
C461 C 0.47765 0.90446 0.98055 0.0
C462 C 0.50552 0.92181 0.85182 0.0
C463 C 0.50387 0.9364 0.79776 0.0
C464 C 0.50953 0.95591 0.81243 0.0
C465 C 0.51703 0.96042 0.88289 0.0
C466 C 0.51881 0.94568 0.93722 0.0
H467 H 0.4667 0.89869 0.02054 0.0
H468 H 0.47585 0.92063 0.97632 0.0
H469 H 0.47438 0.8979 0.92577 0.0
H470 H 0.50122 0.90692 0.83809 0.0
H471 H 0.49812 0.93233 0.74407 0.0
H472 H 0.69014 0.5543 0.1747 0.0
H473 H 0.66004 0.54871 0.10504 0.0
H474 H 0.65697 0.4896 0.18964 0.0
H475 H 0.68787 0.49504 0.25815 0.0
H476 H 0.64861 0.4892 0.04823 0.0
H477 H 0.60431 0.54891 0.16774 0.0
H478 H 0.62672 0.55872 0.13133 0.0
H479 H 0.62752 0.54157 0.20719 0.0
C480 C 0.68298 0.54013 0.17927 0.0
C481 C 0.69138 0.52519 0.2226 0.0
C482 C 0.66556 0.537 0.1397 0.0
C483 C 0.65568 0.5189 0.14314 0.0
C484 C 0.66407 0.50381 0.1864 0.0
H485 H 0.53987 0.51188 0.9127 0.0
H486 H 0.56498 0.51298 0.01121 0.0
C487 C 0.68174 0.50692 0.2258 0.0
C488 C 0.63736 0.51565 0.09792 0.0
H489 H 0.59391 0.53737 0.04717 0.0
C490 C 0.63656 0.49962 0.04898 0.0
C491 C 0.62118 0.52885 0.09933 0.0
C492 C 0.61987 0.54532 0.15489 0.0
C493 C 0.62078 0.49707 0.99919 0.0
C494 C 0.60549 0.51127 0.99602 0.0
C495 C 0.60571 0.52666 0.04787 0.0
C496 C 0.58988 0.51095 0.93701 0.0
C497 C 0.6207 0.47904 0.95062 0.0
C498 C 0.5953 0.51005 0.86221 0.0
C499 C 0.58105 0.50928 0.80645 0.0
C500 C 0.56087 0.50981 0.82329 0.0
C501 C 0.55528 0.51147 0.89785 0.0
C502 C 0.56966 0.51204 0.95417 0.0
H503 H 0.6286 0.46667 0.97744 0.0
H504 H 0.60551 0.4742 0.93752 0.0
H505 H 0.62844 0.48239 0.8982 0.0
H506 H 0.61066 0.50994 0.84661 0.0
H507 H 0.58592 0.5082 0.74963 0.0
H508 H 0.02104 0.6874 0.24867 0.0
H509 H 0.02685 0.65765 0.17409 0.0
H510 H 0.9666 0.65897 0.10016 0.0
H511 H 0.96073 0.6882 0.17514 0.0
H512 H 0.97735 0.62192 0.13107 0.0
H513 H 0.03413 0.65612 0.95255 0.0
H514 H 0.03985 0.65628 0.04938 0.0
H515 H 0.01931 0.67028 0.0157 0.0
C516 C 0.00903 0.68122 0.21695 0.0
C517 C 0.99041 0.69022 0.21785 0.0
C518 C 0.01239 0.66428 0.17369 0.0
C519 C 0.99725 0.65608 0.13006 0.0
C520 C 0.97859 0.66486 0.13282 0.0
H521 H 1.00248 0.58403 0.73649 0.0
H522 H 0.99982 0.60961 0.83098 0.0
C523 C 0.97525 0.68165 0.17583 0.0
C524 C 1.00056 0.63864 0.08038 0.0
H525 H 0.02661 0.62289 0.92957 0.0
C526 C 0.98824 0.62211 0.08737 0.0
C527 C 0.01455 0.63882 0.02233 0.0
C528 C 0.02762 0.65636 0.0088 0.0
C529 C 0.98935 0.60604 0.03805 0.0
C530 C 1.00342 0.60619 0.98035 0.0
C531 C 0.0159 0.6226 0.97387 0.0
C532 C 1.00471 0.59012 0.92347 0.0
C533 C 0.97487 0.58939 0.04648 0.0
C534 C 1.00846 0.57044 0.94311 0.0
C535 C 0.00993 0.5557 0.88868 0.0
C536 C 1.00761 0.56025 0.81344 0.0
C537 C 1.0041 0.57994 0.79398 0.0
C538 C 1.00263 0.59463 0.84811 0.0
H539 H 0.96211 0.59364 0.08128 0.0
H540 H 0.96933 0.58443 0.99184 0.0
H541 H 0.9823 0.57678 0.07338 0.0
H542 H 0.01069 0.56652 1.00043 0.0
H543 H 0.01342 0.54088 0.90533 0.0
H544 H 0.96705 0.25278 0.336 0.0
H545 H 0.94959 0.23522 0.43447 0.0
H546 H 0.99544 0.19137 0.43685 0.0
H547 H 0.01312 0.20919 0.34203 0.0
H548 H 0.93388 0.20147 0.41675 0.0
H549 H 0.98371 0.19193 0.64961 0.0
H550 H 0.98786 0.21088 0.58156 0.0
H551 H 0.99811 0.18657 0.56956 0.0
C552 C 0.97368 0.23977 0.35976 0.0
C553 C 0.99128 0.23215 0.33086 0.0
C554 C 0.96369 0.22975 0.41586 0.0
C555 C 0.97127 0.21208 0.44407 0.0
C556 C 0.98948 0.20524 0.41807 0.0
H557 H 0.94205 0.10359 0.40522 0.0
H558 H 0.93889 0.13903 0.40988 0.0
C559 C 0.99945 0.21524 0.36265 0.0
C560 C 0.95898 0.19868 0.48915 0.0
H561 H 0.96641 0.16076 0.60772 0.0
C562 C 0.94062 0.193 0.4607 0.0
C563 C 0.96702 0.18809 0.54911 0.0
C564 C 0.98516 0.19494 0.58956 0.0
C565 C 0.93192 0.17521 0.48186 0.0
C566 C 0.94225 0.1626 0.53027 0.0
C567 C 0.95876 0.16994 0.5681 0.0
C568 C 0.93916 0.14101 0.52955 0.0
C569 C 0.91246 0.16954 0.44814 0.0
C570 C 0.94025 0.13004 0.59504 0.0
C571 C 0.94281 0.10967 0.59225 0.0
C572 C 0.94422 0.0999 0.52384 0.0
C573 C 0.94136 0.1107 0.45872 0.0
C574 C 0.93912 0.13103 0.46149 0.0
H575 H 0.90255 0.18249 0.44611 0.0
H576 H 0.91479 0.16462 0.39034 0.0
H577 H 0.90511 0.15764 0.47961 0.0
H578 H 0.94043 0.13735 0.64821 0.0
H579 H 0.94512 0.10187 0.64361 0.0
H580 H 0.27634 0.97015 0.31919 0.0
H581 H 0.30131 0.94949 0.37646 0.0
H582 H 0.3047 0.91446 0.17817 0.0
H583 H 0.28035 0.93589 0.11928 0.0
H584 H 0.31459 0.91165 0.40541 0.0
H585 H 0.35506 0.94592 0.17013 0.0
H586 H 0.32996 0.95219 0.19044 0.0
H587 H 0.3357 0.92913 0.14682 0.0
C588 C 0.28168 0.95745 0.28919 0.0
C589 C 0.27677 0.95474 0.21466 0.0
C590 C 0.296 0.94564 0.32189 0.0
C591 C 0.30536 0.9309 0.28052 0.0
C592 C 0.29803 0.92612 0.21024 0.0
H593 H 0.43066 0.92558 0.36953 0.0
H594 H 0.3999 0.91028 0.32874 0.0
C595 C 0.28401 0.93823 0.17687 0.0
C596 C 0.32517 0.92437 0.30403 0.0
H597 H 0.37341 0.93367 0.26667 0.0
C598 C 0.32751 0.91596 0.37429 0.0
C599 C 0.34207 0.93001 0.26333 0.0
C600 C 0.3407 0.93992 0.18877 0.0
C601 C 0.34617 0.91438 0.40707 0.0
C602 C 0.36279 0.92154 0.36873 0.0
C603 C 0.36064 0.92816 0.29592 0.0
C604 C 0.3816 0.92611 0.40632 0.0
C605 C 0.3478 0.90593 0.48374 0.0
C606 C 0.38158 0.93966 0.46481 0.0
C607 C 0.39906 0.94843 0.48792 0.0
C608 C 0.41689 0.94393 0.45263 0.0
C609 C 0.41713 0.92929 0.39781 0.0
C610 C 0.39959 0.92051 0.37458 0.0
H611 H 0.33648 0.89441 0.49278 0.0
H612 H 0.36257 0.89953 0.49385 0.0
H613 H 0.34518 0.91776 0.52482 0.0
H614 H 0.36789 0.9446 0.48901 0.0
H615 H 0.3985 0.95945 0.53106 0.0
H616 H 0.54885 0.27739 0.32853 0.0
H617 H 0.56963 0.3023 0.38557 0.0
H618 H 0.60514 0.30482 0.18846 0.0
H619 H 0.58351 0.28059 0.12959 0.0
H620 H 0.60704 0.31534 0.4164 0.0
H621 H 0.57491 0.35552 0.17607 0.0
H622 H 0.56817 0.33057 0.19645 0.0
H623 H 0.59164 0.33594 0.15533 0.0
C624 C 0.56166 0.28254 0.29875 0.0
C625 C 0.56445 0.27743 0.22447 0.0
C626 C 0.57355 0.29683 0.33132 0.0
C627 C 0.58846 0.30596 0.29012 0.0
C628 C 0.59331 0.29838 0.22031 0.0
H629 H 0.5935 0.4313 0.37902 0.0
H630 H 0.60927 0.40061 0.34004 0.0
C631 C 0.58111 0.28442 0.18697 0.0
C632 C 0.59514 0.32576 0.31332 0.0
H633 H 0.58639 0.37395 0.27374 0.0
C634 C 0.60306 0.3282 0.38442 0.0
C635 C 0.58994 0.3426 0.2715 0.0
C636 C 0.58059 0.34116 0.19586 0.0
C637 C 0.60441 0.3469 0.417 0.0
C638 C 0.59758 0.36344 0.37749 0.0
C639 C 0.59161 0.36121 0.30388 0.0
C640 C 0.59252 0.3822 0.41436 0.0
C641 C 0.61214 0.34863 0.49475 0.0
C642 C 0.57823 0.38209 0.47027 0.0
C643 C 0.56917 0.3995 0.49211 0.0
C644 C 0.57413 0.41737 0.45824 0.0
C645 C 0.58943 0.41772 0.40611 0.0
C646 C 0.59847 0.40023 0.38398 0.0
H647 H 0.62353 0.3373 0.50567 0.0
H648 H 0.61851 0.36339 0.50536 0.0
H649 H 0.59992 0.34616 0.53422 0.0
H650 H 0.57301 0.36837 0.49326 0.0
H651 H 0.5576 0.39887 0.53315 0.0
H652 H 0.25343 0.56571 0.28117 0.0
H653 H 0.23458 0.58657 0.36675 0.0
H654 H 0.19914 0.53638 0.42648 0.0
H655 H 0.21806 0.51584 0.34345 0.0
H656 H 0.1983 0.59476 0.34346 0.0
H657 H 0.19886 0.5632 0.61931 0.0
H658 H 0.21815 0.55768 0.55383 0.0
H659 H 0.19625 0.54264 0.55864 0.0
C660 C 0.24213 0.55912 0.31524 0.0
C661 C 0.23701 0.53929 0.30588 0.0
C662 C 0.23138 0.571 0.36393 0.0
C663 C 0.21557 0.56307 0.4041 0.0
C664 C 0.2116 0.54286 0.39837 0.0
H665 H 0.10516 0.56525 0.35272 0.0
H666 H 0.13905 0.57618 0.35084 0.0
C667 C 0.22225 0.5311 0.35004 0.0
C668 C 0.2005 0.57584 0.43883 0.0
H669 H 0.16456 0.56987 0.56699 0.0
C670 C 0.1913 0.58996 0.39412 0.0
C671 C 0.19166 0.57063 0.50667 0.0
C672 C 0.20199 0.55787 0.5625 0.0
C673 C 0.17198 0.59602 0.40865 0.0
C674 C 0.16159 0.58717 0.46749 0.0
C675 C 0.17209 0.57606 0.51967 0.0
C676 C 0.13984 0.58513 0.46593 0.0
C677 C 0.16247 0.61063 0.35737 0.0
C678 C 0.12872 0.58645 0.53105 0.0
C679 C 0.10937 0.57948 0.53276 0.0
C680 C 0.10079 0.57112 0.46924 0.0
C681 C 0.11143 0.57129 0.40287 0.0
C682 C 0.13078 0.57798 0.40143 0.0
H683 H 0.173 0.62257 0.34381 0.0
H684 H 0.15857 0.60325 0.30467 0.0
H685 H 0.14904 0.61722 0.38185 0.0
H686 H 0.13537 0.59175 0.58167 0.0
H687 H 0.10165 0.57946 0.58505 0.0
H688 H 0.98117 0.75704 0.08341 0.0
H689 H 0.97959 0.77146 0.95951 0.0
H690 H 0.03132 0.80588 0.0084 0.0
H691 H 0.03313 0.7913 0.1306 0.0
H692 H 0.97232 0.80905 0.94686 0.0
H693 H 0.04001 0.79692 0.79236 0.0
H694 H 0.03183 0.77994 0.86286 0.0
H695 H 0.04719 0.80071 0.88639 0.0
C696 C 0.99255 0.76721 0.0665 0.0
C697 C 1.00712 0.77334 0.11672 0.0
C698 C 0.99169 0.77533 0.99565 0.0
C699 C 1.00552 0.78948 0.97391 0.0
C700 C 0.02081 0.79456 0.02267 0.0
H701 H 0.0324 0.8891 0.98333 0.0
H702 H 0.02693 0.85493 0.95004 0.0
C703 C 0.02161 0.78655 0.09327 0.0
C704 C 1.00174 0.8025 0.91013 0.0
H705 H 0.0301 0.83308 0.80727 0.0
C706 C 0.98452 0.81384 0.91282 0.0
C707 C 0.0172 0.80837 0.86308 0.0
C708 C 0.03497 0.79561 0.8505 0.0
C709 C 0.98428 0.8329 0.88382 0.0
C710 C 1.00162 0.84038 0.85154 0.0
C711 C 0.01705 0.82748 0.83452 0.0
C712 C 1.00655 0.8613 0.86125 0.0
C713 C 0.96673 0.84586 0.89857 0.0
C714 C 0.99692 0.87619 0.82214 0.0
C715 C 1.00006 0.89587 0.84116 0.0
C716 C 0.01279 0.90083 0.89983 0.0
C717 C 0.02269 0.88581 0.9375 0.0
C718 C 0.01963 0.86628 0.91826 0.0
H719 H 0.95398 0.83741 0.91997 0.0
H720 H 0.97069 0.85729 0.93979 0.0
H721 H 0.96222 0.8534 0.84698 0.0
H722 H 0.98667 0.8726 0.7784 0.0
H723 H 0.99252 0.90717 0.81012 0.0
H724 H 0.75836 0.96462 0.10074 0.0
H725 H 0.74381 0.96166 0.97671 0.0
H726 H 0.71514 0.01766 0.00687 0.0
H727 H 0.72943 0.02051 0.12969 0.0
H728 H 0.70405 0.9597 0.96493 0.0
H729 H 0.72867 0.02013 0.78868 0.0
H730 H 0.74365 0.01056 0.86311 0.0
H731 H 0.72563 0.02947 0.8805 0.0
C732 C 0.74934 0.97646 0.07961 0.0
C733 C 0.74471 0.99267 0.1245 0.0
C734 C 0.7412 0.97483 0.00884 0.0
C735 C 0.72876 0.98962 0.98186 0.0
C736 C 0.72518 1.00634 0.02543 0.0
H737 H 0.63236 0.03244 0.93669 0.0
H738 H 0.66622 0.02207 0.91903 0.0
C739 C 0.73303 1.00782 0.09613 0.0
C740 C 0.71585 0.98617 0.91754 0.0
H741 H 0.69183 0.01541 0.79514 0.0
C742 C 0.70174 0.97128 0.92476 0.0
C743 C 0.71318 1.00085 0.86347 0.0
C744 C 0.72879 0.016 0.84802 0.0
C745 C 0.68328 0.9731 0.89109 0.0
C746 C 0.67928 0.99007 0.84863 0.0
C747 C 0.69477 1.00271 0.82958 0.0
C748 C 0.6591 0.99798 0.84539 0.0
C749 C 0.66742 0.95846 0.91023 0.0
C750 C 0.6439 0.98813 0.80854 0.0
C751 C 0.62441 0.99402 0.81894 0.0
C752 C 0.61992 0.00987 0.86616 0.0
C753 C 0.63531 0.0203 0.89965 0.0
C754 C 0.65469 0.01441 0.88933 0.0
H755 H 0.67309 0.94611 0.94418 0.0
H756 H 0.65546 0.96585 0.94135 0.0
H757 H 0.66102 0.95227 0.85886 0.0
H758 H 0.64703 0.97553 0.77396 0.0
H759 H 0.61284 0.98598 0.791 0.0
H760 H 0.45094 0.72837 0.23534 0.0
H761 H 0.43622 0.70983 0.13515 0.0
H762 H 0.46941 0.74356 0.97683 0.0
H763 H 0.48609 0.76056 0.07742 0.0
H764 H 0.41712 0.71033 0.00953 0.0
H765 H 0.49578 0.69249 0.95031 0.0
H766 H 0.48907 0.70765 0.02748 0.0
H767 H 0.48824 0.71734 0.93492 0.0
C768 C 0.45516 0.7319 0.17924 0.0
C769 C 0.47057 0.74512 0.16489 0.0
C770 C 0.44641 0.72152 0.12166 0.0
C771 C 0.45247 0.7246 0.04851 0.0
C772 C 0.46523 0.74028 0.03314 0.0
H773 H 0.45888 0.61503 0.81029 0.0
H774 H 0.45124 0.65003 0.81029 0.0
C775 C 0.47459 0.7502 0.091 0.0
C776 C 0.44851 0.70895 0.99342 0.0
H777 H 0.47229 0.67081 0.91013 0.0
C778 C 0.42915 0.70195 0.98595 0.0
C779 C 0.46418 0.69803 0.96179 0.0
C780 C 0.48548 0.70412 0.96913 0.0
C781 C 0.42531 0.68339 0.9553 0.0
C782 C 0.4412 0.67178 0.93083 0.0
C783 C 0.46016 0.67979 0.92951 0.0
C784 C 0.43965 0.65027 0.92145 0.0
C785 C 0.40449 0.67584 0.95368 0.0
C786 C 0.43508 0.63868 0.98323 0.0
C787 C 0.43951 0.61866 0.98362 0.0
C788 C 0.4486 0.60994 0.92223 0.0
C789 C 0.45171 0.62127 0.85829 0.0
C790 C 0.44731 0.64128 0.85801 0.0
H791 H 0.39386 0.68811 0.94771 0.0
H792 H 0.40226 0.66523 0.90779 0.0
H793 H 0.40127 0.66827 0.00658 0.0
H794 H 0.4296 0.64538 0.03345 0.0
H795 H 0.43676 0.61024 0.03327 0.0
H796 H 0.76028 0.54904 0.1102 0.0
H797 H 0.7778 0.56054 1.00013 0.0
H798 H 0.81656 0.51046 0.01474 0.0
H799 H 0.79884 0.49878 0.12229 0.0
H800 H 0.81347 0.57252 0.01317 0.0
H801 H 0.81653 0.5168 0.79743 0.0
H802 H 0.79689 0.51705 0.86478 0.0
H803 H 0.81938 0.50365 0.88216 0.0
C804 C 0.77205 0.54013 0.08782 0.0
C805 C 0.77848 0.5232 0.12514 0.0
C806 C 0.782 0.54669 0.02493 0.0
C807 C 0.79838 0.5363 0.99838 0.0
C808 C 0.80367 0.51852 0.03242 0.0
H809 H 0.90597 0.5441 0.05542 0.0
H810 H 0.87172 0.55336 0.03851 0.0
C811 C 0.79378 0.512 0.09496 0.0
C812 C 0.81282 0.54578 0.94871 0.0
H813 H 0.85011 0.52984 0.83939 0.0
C814 C 0.82105 0.56363 0.9724 0.0
C815 C 0.82241 0.53494 0.89273 0.0
C816 C 0.8131 0.51717 0.85741 0.0
C817 C 0.84031 0.56868 0.95295 0.0
C818 C 0.85146 0.55533 0.91042 0.0
C819 C 0.84186 0.5397 0.8748 0.0
C820 C 0.87305 0.5541 0.91878 0.0
C821 C 0.84917 0.58719 0.98437 0.0
C822 C 0.88526 0.55135 0.85728 0.0
C823 C 0.90484 0.54575 0.86705 0.0
C824 C 0.91243 0.54264 0.9385 0.0
C825 C 0.90047 0.54634 0.9999 0.0
C826 C 0.88096 0.55196 0.99013 0.0
H827 H 0.83819 0.59926 0.98394 0.0
H828 H 0.85342 0.58464 0.04278 0.0
H829 H 0.86236 0.5919 0.95287 0.0
H830 H 0.87939 0.55257 0.80183 0.0
H831 H 0.91367 0.54271 0.81861 0.0
H832 H 0.04051 0.20518 0.15319 0.0
H833 H 0.0419 0.17519 0.0788 0.0
H834 H 0.99972 0.1997 0.9271 0.0
H835 H 0.99827 0.22989 1.00216 0.0
H836 H 1.00664 0.15225 0.05728 0.0
H837 H 0.04131 0.17234 0.78974 0.0
H838 H 0.045 0.18665 0.87277 0.0
H839 H 0.02211 0.18811 0.82387 0.0
C840 C 0.03211 0.20451 0.10235 0.0
C841 C 0.01951 0.22009 0.08305 0.0
C842 C 0.03277 0.18724 0.06016 0.0
C843 C 0.02095 0.18504 0.99706 0.0
C844 C 0.00922 0.20105 0.97486 0.0
H845 H 1.00088 0.08045 0.71695 0.0
H846 H 1.00174 0.11394 0.76705 0.0
C847 C 1.0085 0.21841 0.01748 0.0
C848 C 0.01939 0.1653 0.96041 0.0
H849 H 0.02982 0.13977 0.80196 0.0
C850 C 0.01173 0.14955 1.00142 0.0
C851 C 0.0257 0.16172 0.88711 0.0
C852 C 0.03411 0.17801 0.84053 0.0
C853 C 0.01026 0.13045 0.9717 0.0
C854 C 0.0173 0.1266 0.89931 0.0
C855 C 0.02458 0.14248 0.85757 0.0
C856 C 0.01744 0.1062 0.86688 0.0
C857 C 1.00067 0.11471 0.01802 0.0
C858 C 0.02636 0.09051 0.90481 0.0
C859 C 0.02568 0.07128 0.87669 0.0
C860 C 0.01642 0.06716 0.80881 0.0
C861 C 1.00814 0.08297 0.76936 0.0
C862 C 1.00863 0.10222 0.79805 0.0
H863 H 0.99041 0.12115 0.05919 0.0
H864 H 0.99238 0.10411 0.9833 0.0
H865 H 0.01218 0.1066 0.04891 0.0
H866 H 0.03386 0.09309 0.95669 0.0
H867 H 0.03246 0.05962 0.90837 0.0
H868 H 0.30724 0.02392 0.14343 0.0
H869 H 0.33911 0.02959 0.08351 0.0
H870 H 0.31857 0.99918 0.8893 0.0
H871 H 0.28675 0.99352 0.94941 0.0
H872 H 0.36309 0.99798 0.04044 0.0
H873 H 0.34827 0.04621 0.80006 0.0
H874 H 0.33158 0.04425 0.87728 0.0
H875 H 0.3322 0.02537 0.80791 0.0
C876 C 0.30921 0.01934 0.08659 0.0
C877 C 0.29425 0.00884 0.05023 0.0
C878 C 0.32755 0.02232 0.05268 0.0
C879 C 0.33133 0.01497 0.98142 0.0
C880 C 0.31601 1.0054 0.94352 0.0
H881 H 0.43651 1.00042 0.70719 0.0
H882 H 0.40305 1.00146 0.75715 0.0
C883 C 0.29772 1.0023 0.97767 0.0
C884 C 0.3518 0.01527 0.95054 0.0
H885 H 0.37962 0.03084 0.80425 0.0
C886 C 0.36672 1.00533 0.9891 0.0
C887 C 0.35659 0.02457 0.88297 0.0
C888 C 0.34139 0.03585 0.83976 0.0
C889 C 0.38608 1.00414 0.96166 0.0
C890 C 0.391 0.01364 0.89441 0.0
C891 C 0.37603 0.02358 0.85577 0.0
C892 C 0.4115 0.01337 0.86342 0.0
C893 C 0.4009 0.99209 0.00404 0.0
C894 C 0.42758 0.02 0.90556 0.0
C895 C 0.44679 0.01925 0.87733 0.0
C896 C 0.4505 0.01212 0.80558 0.0
C897 C 0.43433 1.00594 0.76271 0.0
C898 C 0.41511 1.00657 0.79125 0.0
H899 H 0.39361 0.98108 0.04005 0.0
H900 H 0.41108 0.98427 0.9662 0.0
H901 H 0.40967 1.00196 0.04008 0.0
H902 H 0.42529 0.02585 0.9605 0.0
H903 H 0.45875 0.02437 0.91189 0.0
H904 H 0.49492 0.30806 0.1524 0.0
H905 H 0.48919 0.3399 0.09251 0.0
H906 H 0.5204 0.31976 0.89968 0.0
H907 H 0.52614 0.28799 0.95976 0.0
H908 H 0.52099 0.36409 0.05073 0.0
H909 H 0.47313 0.34903 0.80899 0.0
H910 H 0.47498 0.33242 0.88645 0.0
H911 H 0.494 0.33302 0.81773 0.0
C912 C 0.49969 0.31012 0.09585 0.0
C913 C 0.51043 0.2953 0.05985 0.0
C914 C 0.49666 0.32843 0.06197 0.0
C915 C 0.50421 0.3323 0.99114 0.0
C916 C 0.51404 0.31711 0.95357 0.0
H917 H 0.51884 0.43706 0.71656 0.0
H918 H 0.51786 0.40373 0.76718 0.0
C919 C 0.51719 0.29885 0.98769 0.0
C920 C 0.50385 0.35274 0.96039 0.0
H921 H 0.4884 0.38042 0.8136 0.0
C922 C 0.5137 0.36768 0.99919 0.0
C923 C 0.49461 0.35746 0.89258 0.0
C924 C 0.48343 0.34221 0.84911 0.0
C925 C 0.5149 0.38701 0.9717 0.0
C926 C 0.50548 0.39185 0.90417 0.0
C927 C 0.4956 0.37687 0.86534 0.0
C928 C 0.50579 0.4123 0.87297 0.0
C929 C 0.52687 0.40187 0.01431 0.0
C930 C 0.49908 0.4284 0.91469 0.0
C931 C 0.4998 0.44755 0.88611 0.0
C932 C 0.50697 0.45116 0.8144 0.0
C933 C 0.51327 0.43497 0.77202 0.0
C934 C 0.51268 0.41581 0.80093 0.0
H935 H 0.53784 0.39464 0.05072 0.0
H936 H 0.53474 0.41203 0.97662 0.0
H937 H 0.51693 0.41065 0.04997 0.0
H938 H 0.49315 0.42617 0.96953 0.0
H939 H 0.49457 0.45952 0.92029 0.0
H940 H 0.23353 0.51716 0.98406 0.0
H941 H 0.20345 0.51391 0.90924 0.0
H942 H 0.17506 0.48375 0.08923 0.0
H943 H 0.20508 0.4866 0.16281 0.0
H944 H 0.16375 0.4682 0.95847 0.0
H945 H 0.15684 0.54939 0.94528 0.0
H946 H 0.17902 0.53983 0.90546 0.0
H947 H 0.17477 0.53739 0.00306 0.0
C948 C 0.22109 0.50922 0.00647 0.0
C949 C 0.22177 0.50201 0.0792 0.0
C950 C 0.20373 0.5077 0.96424 0.0
C951 C 0.18663 0.49907 0.99408 0.0
C952 C 0.18785 0.49062 0.06472 0.0
H953 H 0.06105 0.48879 0.91183 0.0
H954 H 0.09478 0.48709 0.9581 0.0
C955 C 0.20512 0.49213 0.1067 0.0
C956 C 0.16718 0.49961 0.95445 0.0
H957 H 0.13208 0.53092 0.88636 0.0
C958 C 0.15691 0.48194 0.94246 0.0
C959 C 0.15801 0.5175 0.93352 0.0
C960 C 0.16759 0.53713 0.94796 0.0
C961 C 0.13795 0.48166 0.91061 0.0
C962 C 0.12868 0.49955 0.89089 0.0
C963 C 0.13909 0.51719 0.90131 0.0
C964 C 0.10801 0.50034 0.86163 0.0
C965 C 0.12807 0.46211 0.89783 0.0
C966 C 0.1039 0.50876 0.79238 0.0
C967 C 0.08451 0.50978 0.76557 0.0
C968 C 0.0686 0.50263 0.8077 0.0
C969 C 0.07279 0.49438 0.87736 0.0
C970 C 0.09218 0.49327 0.90388 0.0
H971 H 0.13891 0.44992 0.89576 0.0
H972 H 0.11778 0.45912 0.94399 0.0
H973 H 0.11953 0.46215 0.84554 0.0
H974 H 0.11576 0.51447 0.75874 0.0
H975 H 0.08199 0.51634 0.71193 0.0
H976 H 0.03982 0.79683 0.36176 0.0
H977 H 0.04074 0.82759 0.43207 0.0
H978 H 0.9791 0.82117 0.48207 0.0
H979 H 0.97846 0.78998 0.41377 0.0
H980 H 0.02361 0.86009 0.40129 0.0
H981 H 0.99707 0.83972 0.67912 0.0
H982 H 1.00422 0.82154 0.61175 0.0
H983 H 0.98009 0.83242 0.60852 0.0
C984 C 0.02666 0.8016 0.39031 0.0
C985 C 0.0092 0.79063 0.38379 0.0
C986 C 0.02711 0.81938 0.42991 0.0
C987 C 0.01005 0.82694 0.46366 0.0
C988 C 0.99268 0.81566 0.45886 0.0
H989 H 0.9955 0.95398 0.54052 0.0
H990 H 0.99516 0.92048 0.49171 0.0
C991 C 0.99229 0.79771 0.41977 0.0
C992 C 0.01018 0.84728 0.49755 0.0
H993 H 0.99705 0.874 0.65053 0.0
C994 C 0.0179 0.863 0.45612 0.0
C995 C 1.00302 0.85142 0.56961 0.0
C996 C 0.99583 0.83535 0.62015 0.0
C997 C 0.01845 0.88242 0.48364 0.0
C998 C 0.01041 0.88674 0.55419 0.0
C999 C 1.00299 0.87099 0.59622 0.0
C1000 C 0.00986 0.90734 0.58559 0.0
C1001 C 0.02823 0.898 0.43713 0.0
C1002 C 0.01737 0.91141 0.65654 0.0
C1003 C 0.01724 0.93065 0.68536 0.0
C1004 C 0.00963 0.9465 0.64408 0.0
C1005 C 1.00176 0.94234 0.57376 0.0
C1006 C 1.0017 0.92307 0.54535 0.0
H1007 H 0.03904 0.89148 0.39819 0.0
H1008 H 0.01691 0.90566 0.40374 0.0
H1009 H 0.03595 0.909 0.47191 0.0
H1010 H 0.02362 0.89971 0.68953 0.0
H1011 H 0.02331 0.93309 0.73994 0.0
H1012 H 0.72282 0.03086 0.36924 0.0
H1013 H 0.69161 0.03281 0.43673 0.0
H1014 H 0.69478 0.97069 0.48148 0.0
H1015 H 0.72628 0.96898 0.41587 0.0
H1016 H 0.65843 0.01666 0.40002 0.0
H1017 H 0.67612 0.98888 0.67877 0.0
H1018 H 0.69496 0.99575 0.61369 0.0
H1019 H 0.68348 0.97194 0.60822 0.0
C1020 C 0.71725 0.01782 0.3963 0.0
C1021 C 0.72736 0.9999 0.38925 0.0
C1022 C 0.69923 0.01886 0.43416 0.0
C1023 C 0.69066 1.00196 0.4655 0.0
C1024 C 0.7011 0.98412 0.46015 0.0
H1025 H 0.56312 0.98909 0.52856 0.0
H1026 H 0.59704 0.98823 0.48363 0.0
C1027 C 0.71922 0.98313 0.42269 0.0
C1028 C 0.67015 1.00271 0.49722 0.0
H1029 H 0.642 0.98973 0.64645 0.0
C1030 C 0.65496 0.01088 0.45426 0.0
C1031 C 0.66533 0.99544 0.56843 0.0
C1032 C 0.68087 0.9877 0.62026 0.0
C1033 C 0.63533 0.01169 0.47944 0.0
C1034 C 0.63034 1.00356 0.54911 0.0
C1035 C 0.64558 0.99575 0.59277 0.0
C1036 C 0.60953 1.00332 0.57798 0.0
C1037 C 0.62023 0.02172 0.43142 0.0
C1038 C 0.60501 0.01133 0.64765 0.0
C1039 C 0.58557 0.0115 0.67421 0.0
C1040 C 0.56999 1.00372 0.63179 0.0
C1041 C 0.57459 0.9954 0.56265 0.0
C1042 C 0.59407 0.99504 0.53651 0.0
H1043 H 0.6272 0.03231 0.39281 0.0
H1044 H 0.61247 0.01052 0.39773 0.0
H1045 H 0.60921 0.02971 0.46521 0.0
H1046 H 0.61651 0.0178 0.68121 0.0
H1047 H 0.58271 0.01808 0.72758 0.0
H1048 H 0.53737 0.72203 0.36105 0.0
H1049 H 0.54086 0.69024 0.4249 0.0
H1050 H 0.48044 0.69362 0.49496 0.0
H1051 H 0.47695 0.72516 0.43153 0.0
H1052 H 0.53285 0.67548 0.57644 0.0
H1053 H 0.48346 0.64313 0.3647 0.0
H1054 H 0.49507 0.66678 0.35314 0.0
H1055 H 0.47376 0.66438 0.41101 0.0
C1056 C 0.52509 0.71633 0.39246 0.0
C1057 C 0.50692 0.72623 0.39168 0.0
C1058 C 0.52701 0.69804 0.42835 0.0
C1059 C 0.51079 0.68925 0.46368 0.0
C1060 C 0.4931 0.69984 0.46729 0.0
H1061 H 0.50196 0.58373 0.73924 0.0
H1062 H 0.50295 0.61729 0.6913 0.0
C1063 C 0.49118 0.71802 0.43167 0.0
C1064 C 0.51171 0.66855 0.49199 0.0
H1065 H 0.49187 0.62278 0.46589 0.0
C1066 C 0.52394 0.66395 0.55215 0.0
C1067 C 0.5003 0.65332 0.45991 0.0
C1068 C 0.48752 0.65701 0.3932 0.0
C1069 C 0.52468 0.64476 0.58197 0.0
C1070 C 0.51275 0.62968 0.55137 0.0
C1071 C 0.5009 0.63424 0.49008 0.0
C1072 C 0.51241 0.60909 0.58141 0.0
C1073 C 0.53849 0.64076 0.64538 0.0
C1074 C 0.51685 0.59298 0.53557 0.0
C1075 C 0.51619 0.57364 0.56279 0.0
C1076 C 0.51092 0.5698 0.63667 0.0
C1077 C 0.50626 0.58597 0.68227 0.0
C1078 C 0.50695 0.6053 0.65498 0.0
H1079 H 0.55029 0.65201 0.64897 0.0
H1080 H 0.5301 0.64112 0.6979 0.0
H1081 H 0.54539 0.62605 0.63996 0.0
H1082 H 0.52096 0.59537 0.47849 0.0
H1083 H 0.51982 0.5617 0.52569 0.0
H1084 H 0.78722 0.5361 0.44319 0.0
H1085 H 0.81815 0.53613 0.51402 0.0
H1086 H 0.83467 0.48138 0.4118 0.0
H1087 H 0.80387 0.48136 0.34144 0.0
H1088 H 0.84556 0.48323 0.56238 0.0
H1089 H 0.87035 0.54957 0.4104 0.0
H1090 H 0.84744 0.5521 0.4589 0.0
H1091 H 0.84918 0.53543 0.38221 0.0
C1092 C 0.79713 0.52373 0.43798 0.0
C1093 C 0.79288 0.50856 0.38758 0.0
C1094 C 0.81501 0.5239 0.47756 0.0
C1095 C 0.82908 0.50893 0.46753 0.0
C1096 C 0.82423 0.49315 0.42072 0.0
H1097 H 0.95636 0.51041 0.52514 0.0
H1098 H 0.92233 0.51048 0.48095 0.0
C1099 C 0.80648 0.49305 0.3809 0.0
C1100 C 0.84925 0.51012 0.5017 0.0
H1101 H 0.89202 0.53683 0.49991 0.0
C1102 C 0.85565 0.49505 0.54912 0.0
C1103 C 0.86271 0.52531 0.48369 0.0
C1104 C 0.85723 0.54146 0.43056 0.0
C1105 C 0.87488 0.49479 0.5789 0.0
C1106 C 0.88827 0.51011 0.56152 0.0
C1107 C 0.88187 0.52514 0.51398 0.0
C1108 C 0.90914 0.51041 0.58964 0.0
C1109 C 0.88089 0.47773 0.62695 0.0
C1110 C 0.91338 0.5107 0.66578 0.0
C1111 C 0.93294 0.51064 0.69138 0.0
C1112 C 0.94891 0.51042 0.6416 0.0
C1113 C 0.9446 0.51053 0.56541 0.0
C1114 C 0.92505 0.51058 0.53991 0.0
H1115 H 0.87086 0.46497 0.6201 0.0
H1116 H 0.89611 0.47294 0.61413 0.0
H1117 H 0.8804 0.48233 0.68574 0.0
H1118 H 0.90154 0.51106 0.70569 0.0
H1119 H 0.93551 0.51076 0.75043 0.0
loop_
_geom_bond_atom_site_label_1
_geom_bond_atom_site_label_2
_geom_bond_distance
_geom_bond_site_symmetry_2
_ccdc_geom_bond_type
H0 C5 0.930 . S
H1 C8 0.930 . S
H2 C10 0.930 . S
H3 C4 1.016 . S
C4 H3 1.016 . S
C4 N11 1.286 . S
C5 H0 0.930 . S
C5 C6 1.397 . S
C5 C7 1.361 . S
C6 C5 1.397 . S
C6 C10 1.390 . S
C7 C5 1.361 . S
C7 C8 1.393 . S
C7 N11 1.413 . S
C8 H1 0.930 . S
C8 C7 1.393 . S
C8 C9 1.399 . S
C9 C8 1.399 . S
C9 C10 1.381 . S
C10 H2 0.930 . S
C10 C6 1.390 . S
C10 C9 1.381 . S
N11 C4 1.286 . S
N11 C7 1.413 . S
H12 C17 0.930 . S
H13 C20 0.930 . S
H14 C22 0.930 . S
H15 C16 1.029 . S
C16 H15 1.029 . S
C16 N23 1.268 1_655 S
C17 H12 0.930 . S
C17 C18 1.407 . S
C17 C19 1.361 . S
C18 C17 1.407 . S
C18 C22 1.385 1_455 S
C19 C17 1.361 . S
C19 C20 1.393 . S
C19 N23 1.413 . S
C20 H13 0.930 . S
C20 C19 1.393 . S
C20 C21 1.402 . S
C21 C20 1.402 . S
C21 C22 1.379 1_455 S
C22 H14 0.930 . S
C22 C18 1.385 1_655 S
C22 C21 1.379 1_655 S
N23 C16 1.268 1_455 S
N23 C19 1.413 . S
H24 C29 0.930 . S
H25 C32 0.930 . S
H26 C34 0.930 . S
H27 C28 1.029 . S
C28 H27 1.029 . S
C28 N35 1.268 1_565 S
C29 H24 0.930 . S
C29 C30 1.407 . S
C29 C31 1.361 . S
C30 C29 1.407 . S
C30 C34 1.385 1_545 S
C31 C29 1.361 . S
C31 C32 1.393 . S
C31 N35 1.413 . S
C32 H25 0.930 . S
C32 C31 1.393 . S
C32 C33 1.402 . S
C33 C32 1.402 . S
C33 C34 1.379 1_545 S
C34 H26 0.930 . S
C34 C30 1.385 1_565 S
C34 C33 1.379 1_565 S
N35 C28 1.268 1_545 S
N35 C31 1.413 . S
H36 C41 0.930 . S
H37 C44 0.930 . S
H38 C46 0.930 . S
H39 C40 1.016 . S
C40 H39 1.016 . S
C40 N47 1.286 . S
C41 H36 0.930 . S
C41 C42 1.397 . S
C41 C43 1.361 . S
C42 C41 1.397 . S
C42 C46 1.390 . S
C43 C41 1.361 . S
C43 C44 1.393 . S
C43 N47 1.413 . S
C44 H37 0.930 . S
C44 C43 1.393 . S
C44 C45 1.399 . S
C45 C44 1.399 . S
C45 C46 1.381 . S
C46 H38 0.930 . S
C46 C42 1.390 . S
C46 C45 1.381 . S
N47 C40 1.286 . S
N47 C43 1.413 . S
H48 C53 0.930 . S
H49 C56 0.930 . S
H50 C58 0.930 . S
H51 C52 1.016 . S
C52 H51 1.016 . S
C52 N59 1.286 . S
C53 H48 0.930 . S
C53 C54 1.397 . S
C53 C55 1.361 1_556 S
C54 C53 1.397 . S
C54 C58 1.390 1_556 S
C55 C53 1.361 1_554 S
C55 C56 1.393 . S
C55 N59 1.413 . S
C56 H49 0.930 . S
C56 C55 1.393 . S
C56 C57 1.399 . S
C57 C56 1.399 . S
C57 C58 1.381 . S
C58 H50 0.930 . S
C58 C54 1.390 1_554 S
C58 C57 1.381 . S
N59 C52 1.286 . S
N59 C55 1.413 . S
H60 C65 0.930 . S
H61 C68 0.930 . S
H62 C70 0.930 . S
H63 C64 1.025 . S
C64 H63 1.025 . S
C64 N71 1.274 1_655 S
C65 H60 0.930 . S
C65 C66 1.397 . S
C65 C67 1.361 1_556 S
C66 C65 1.397 . S
C66 C70 1.390 1_456 S
C67 C65 1.361 1_554 S
C67 C68 1.393 . S
C67 N71 1.413 . S
C68 H61 0.930 . S
C68 C67 1.393 . S
C68 C69 1.404 . S
C69 C68 1.404 . S
C69 C70 1.378 1_455 S
C70 H62 0.930 . S
C70 C66 1.390 1_654 S
C70 C69 1.378 1_655 S
N71 C64 1.274 1_455 S
N71 C67 1.413 . S
H72 C77 0.930 . S
H73 C80 0.930 . S
H74 C82 0.930 . S
H75 C76 1.025 . S
C76 H75 1.025 . S
C76 N83 1.274 1_565 S
C77 H72 0.930 . S
C77 C78 1.397 . S
C77 C79 1.361 1_556 S
C78 C77 1.397 . S
C78 C82 1.390 1_546 S
C79 C77 1.361 1_554 S
C79 C80 1.393 . S
C79 N83 1.413 . S
C80 H73 0.930 . S
C80 C79 1.393 . S
C80 C81 1.404 . S
C81 C80 1.404 . S
C81 C82 1.378 1_545 S
C82 H74 0.930 . S
C82 C78 1.390 1_564 S
C82 C81 1.378 1_565 S
N83 C76 1.274 1_545 S
N83 C79 1.413 . S
H84 C89 0.930 . S
H85 C92 0.930 . S
H86 C94 0.930 . S
H87 C88 1.016 . S
C88 H87 1.016 . S
C88 N95 1.286 . S
C89 H84 0.930 . S
C89 C90 1.397 . S
C89 C91 1.361 1_556 S
C90 C89 1.397 . S
C90 C94 1.390 1_556 S
C91 C89 1.361 1_554 S
C91 C92 1.393 . S
C91 N95 1.413 . S
C92 H85 0.930 . S
C92 C91 1.393 . S
C92 C93 1.399 . S
C93 C92 1.399 . S
C93 C94 1.381 . S
C94 H86 0.930 . S
C94 C90 1.390 1_554 S
C94 C93 1.381 . S
N95 C88 1.286 . S
N95 C91 1.413 . S
C96 Eu97 2.835 . S
C96 C98 1.500 . S
C96 O116 1.254 . S
C96 O117 1.260 . S
Eu97 C96 2.835 . S
Eu97 O116 2.471 . S
Eu97 O117 2.480 . S
Eu97 O118 2.430 . S
Eu97 O119 2.670 1_545 S
Eu97 O120 2.394 . S
Eu97 O125 2.355 1_655 S
Eu97 O127 2.374 1_545 S
C98 C96 1.500 . S
C98 C99 1.377 . S
C98 C103 1.414 . S
C99 C98 1.377 . S
C99 C100 1.395 . S
C99 H128 0.931 . S
C100 C99 1.395 . S
C100 C101 1.383 . S
C100 H129 0.931 . S
C101 C100 1.383 . S
C101 C102 1.394 . S
C102 C101 1.394 . S
C102 C103 1.381 . S
C102 H130 0.931 1_655 S
C103 C98 1.414 . S
C103 C102 1.381 . S
C103 H131 0.892 1_655 S
C104 O118 1.282 . S
C104 O119 1.254 1_545 S
C105 O120 1.251 1_455 S
C105 O121 1.251 . S
C106 Eu107 2.835 . S
C106 C108 1.500 . S
C106 O122 1.266 . S
C106 O123 1.260 . S
Eu107 C106 2.835 . S
Eu107 O119 2.355 1_455 S
Eu107 O121 2.374 1_565 S
Eu107 O122 2.477 . S
Eu107 O123 2.480 . S
Eu107 O124 2.430 . S
Eu107 O125 2.670 1_565 S
Eu107 O126 2.394 . S
C108 C106 1.500 . S
C108 C109 1.377 . S
C108 C113 1.425 . S
C109 C108 1.377 . S
C109 C110 1.395 . S
C109 H132 0.931 . S
C110 C109 1.395 . S
C110 C111 1.383 . S
C110 H133 0.931 . S
C111 C110 1.383 . S
C111 C112 1.394 . S
C112 C111 1.394 . S
C112 C113 1.383 . S
C112 H134 0.931 1_455 S
C113 C108 1.425 . S
C113 C112 1.383 . S
C113 H135 0.879 1_455 S
C114 O124 1.275 . S
C114 O125 1.259 1_565 S
C115 O126 1.251 1_655 S
C115 O127 1.251 . S
O116 C96 1.254 . S
O116 Eu97 2.471 . S
O117 C96 1.260 . S
O117 Eu97 2.480 . S
O118 Eu97 2.430 . S
O118 C104 1.282 . S
O119 Eu97 2.670 1_565 S
O119 C104 1.254 1_565 S
O119 Eu107 2.355 1_655 S
O120 Eu97 2.394 . S
O120 C105 1.251 1_655 S
O121 C105 1.251 . S
O121 Eu107 2.374 1_545 S
O122 C106 1.266 . S
O122 Eu107 2.477 . S
O123 C106 1.260 . S
O123 Eu107 2.480 . S
O124 Eu107 2.430 . S
O124 C114 1.275 . S
O125 Eu97 2.355 1_455 S
O125 Eu107 2.670 1_545 S
O125 C114 1.259 1_545 S
O126 Eu107 2.394 . S
O126 C115 1.251 1_455 S
O127 Eu97 2.374 1_565 S
O127 C115 1.251 . S
H128 C99 0.931 . S
H129 C100 0.931 . S
H130 C102 0.931 1_455 S
H131 C103 0.892 1_455 S
H132 C109 0.931 . S
H133 C110 0.931 . S
H134 C112 0.931 1_655 S
H135 C113 0.879 1_655 S
C136 Eu137 2.835 . S
C136 C138 1.500 . S
C136 O156 1.262 1_565 S
C136 O157 1.260 . S
Eu137 C136 2.835 . S
Eu137 O156 2.475 1_565 S
Eu137 O157 2.480 . S
Eu137 O158 2.430 . S
Eu137 O159 2.670 . S
Eu137 O160 2.394 . S
Eu137 O165 2.355 1_565 S
Eu137 O167 2.374 . S
C138 C136 1.500 . S
C138 C139 1.377 . S
C138 C143 1.407 . S
C139 C138 1.377 . S
C139 C140 1.395 . S
C139 H168 0.931 . S
C140 C139 1.395 . S
C140 C141 1.383 . S
C140 H169 0.931 . S
C141 C140 1.383 . S
C141 C142 1.394 . S
C142 C141 1.394 . S
C142 C143 1.380 . S
C142 H170 0.931 1_565 S
C143 C138 1.407 . S
C143 C142 1.380 . S
C143 H171 0.899 1_565 S
C144 O158 1.259 . S
C144 O159 1.270 . S
C145 O160 1.251 1_545 S
C145 O161 1.251 . S
C146 Eu147 2.835 . S
C146 C148 1.500 . S
C146 O162 1.262 . S
C146 O163 1.260 . S
Eu147 C146 2.835 . S
Eu147 O159 2.355 1_545 S
Eu147 O161 2.374 . S
Eu147 O162 2.475 . S
Eu147 O163 2.480 . S
Eu147 O164 2.430 . S
Eu147 O165 2.670 . S
Eu147 O166 2.394 . S
C148 C146 1.500 . S
C148 C149 1.377 . S
C148 C153 1.419 . S
C149 C148 1.377 . S
C149 C150 1.395 . S
C149 H172 0.931 . S
C150 C149 1.395 . S
C150 C151 1.383 . S
C150 H173 0.931 . S
C151 C150 1.383 . S
C151 C152 1.394 . S
C152 C151 1.394 . S
C152 C153 1.382 . S
C152 H174 0.931 1_545 S
C153 C148 1.419 . S
C153 C152 1.382 . S
C153 H175 0.887 1_545 S
C154 O164 1.259 . S
C154 O165 1.270 . S
C155 O166 1.251 1_565 S
C155 O167 1.251 . S
O156 C136 1.262 1_545 S
O156 Eu137 2.475 1_545 S
O157 C136 1.260 . S
O157 Eu137 2.480 . S
O158 Eu137 2.430 . S
O158 C144 1.259 . S
O159 Eu137 2.670 . S
O159 C144 1.270 . S
O159 Eu147 2.355 1_565 S
O160 Eu137 2.394 . S
O160 C145 1.251 1_565 S
O161 C145 1.251 . S
O161 Eu147 2.374 . S
O162 C146 1.262 . S
O162 Eu147 2.475 . S
O163 C146 1.260 . S
O163 Eu147 2.480 . S
O164 Eu147 2.430 . S
O164 C154 1.259 . S
O165 Eu137 2.355 1_545 S
O165 Eu147 2.670 . S
O165 C154 1.270 . S
O166 Eu147 2.394 . S
O166 C155 1.251 1_545 S
O167 Eu137 2.374 . S
O167 C155 1.251 . S
H168 C139 0.931 . S
H169 C140 0.931 . S
H170 C142 0.931 1_545 S
H171 C143 0.899 1_545 S
H172 C149 0.931 . S
H173 C150 0.931 . S
H174 C152 0.931 1_565 S
H175 C153 0.887 1_565 S
C176 Eu177 2.835 . S
C176 C178 1.500 . S
C176 O196 1.257 . S
C176 O197 1.260 . S
Eu177 C176 2.835 . S
Eu177 O196 2.473 . S
Eu177 O197 2.480 . S
Eu177 O198 2.430 . S
Eu177 O199 2.670 . S
Eu177 O200 2.394 . S
Eu177 O205 2.355 . S
Eu177 O207 2.374 . S
C178 C176 1.500 . S
C178 C179 1.377 . S
C178 C183 1.377 . S
C179 C178 1.377 . S
C179 C180 1.395 . S
C179 H208 0.931 . S
C180 C179 1.395 . S
C180 C181 1.383 . S
C180 H209 0.931 . S
C181 C180 1.383 . S
C181 C182 1.394 . S
C182 C181 1.394 . S
C182 C183 1.378 . S
C182 H210 0.931 . S
C183 C178 1.377 . S
C183 C182 1.378 . S
C183 H211 0.931 . S
C184 O198 1.259 . S
C184 O199 1.270 . S
C185 O200 1.251 . S
C185 O201 1.251 . S
C186 Eu187 2.835 . S
C186 C188 1.500 . S
C186 O202 1.257 . S
C186 O203 1.260 . S
Eu187 C186 2.835 . S
Eu187 O199 2.355 . S
Eu187 O201 2.374 . S
Eu187 O202 2.473 . S
Eu187 O203 2.480 . S
Eu187 O204 2.430 . S
Eu187 O205 2.670 . S
Eu187 O206 2.394 . S
C188 C186 1.500 . S
C188 C189 1.377 . S
C188 C193 1.377 . S
C189 C188 1.377 . S
C189 C190 1.395 . S
C189 H212 0.931 . S
C190 C189 1.395 . S
C190 C191 1.383 . S
C190 H213 0.931 . S
C191 C190 1.383 . S
C191 C192 1.394 . S
C192 C191 1.394 . S
C192 C193 1.378 . S
C192 H214 0.931 . S
C193 C188 1.377 . S
C193 C192 1.378 . S
C193 H215 0.931 . S
C194 O204 1.259 . S
C194 O205 1.270 . S
C195 O206 1.251 . S
C195 O207 1.251 . S
O196 C176 1.257 . S
O196 Eu177 2.473 . S
O197 C176 1.260 . S
O197 Eu177 2.480 . S
O198 Eu177 2.430 . S
O198 C184 1.259 . S
O199 Eu177 2.670 . S
O199 C184 1.270 . S
O199 Eu187 2.355 . S
O200 Eu177 2.394 . S
O200 C185 1.251 . S
O201 C185 1.251 . S
O201 Eu187 2.374 . S
O202 C186 1.257 . S
O202 Eu187 2.473 . S
O203 C186 1.260 . S
O203 Eu187 2.480 . S
O204 Eu187 2.430 . S
O204 C194 1.259 . S
O205 Eu177 2.355 . S
O205 Eu187 2.670 . S
O205 C194 1.270 . S
O206 Eu187 2.394 . S
O206 C195 1.251 . S
O207 Eu177 2.374 . S
O207 C195 1.251 . S
H208 C179 0.931 . S
H209 C180 0.931 . S
H210 C182 0.931 . S
H211 C183 0.931 . S
H212 C189 0.931 . S
H213 C190 0.931 . S
H214 C192 0.931 . S
H215 C193 0.931 . S
C216 Eu217 2.835 . S
C216 C218 1.500 . S
C216 O236 1.257 . S
C216 O237 1.260 . S
Eu217 C216 2.835 . S
Eu217 O236 2.473 . S
Eu217 O237 2.480 . S
Eu217 O238 2.430 . S
Eu217 O239 2.670 1_455 S
Eu217 O240 2.394 . S
Eu217 O245 2.355 . S
Eu217 O247 2.374 1_455 S
C218 C216 1.500 . S
C218 C219 1.377 . S
C218 C223 1.377 . S
C219 C218 1.377 . S
C219 C220 1.395 . S
C219 H248 0.931 . S
C220 C219 1.395 . S
C220 C221 1.383 . S
C220 H249 0.931 . S
C221 C220 1.383 . S
C221 C222 1.394 . S
C222 C221 1.394 . S
C222 C223 1.378 . S
C222 H250 0.931 . S
C223 C218 1.377 . S
C223 C222 1.378 . S
C223 H251 0.931 . S
C224 O238 1.277 . S
C224 O239 1.257 1_455 S
C225 O240 1.251 . S
C225 O241 1.251 . S
C226 Eu227 2.835 . S
C226 C228 1.500 . S
C226 O242 1.257 . S
C226 O243 1.260 . S
Eu227 C226 2.835 . S
Eu227 O239 2.355 . S
Eu227 O241 2.374 1_655 S
Eu227 O242 2.473 . S
Eu227 O243 2.480 . S
Eu227 O244 2.430 . S
Eu227 O245 2.670 1_655 S
Eu227 O246 2.394 . S
C228 C226 1.500 . S
C228 C229 1.377 . S
C228 C233 1.377 . S
C229 C228 1.377 . S
C229 C230 1.395 . S
C229 H252 0.931 . S
C230 C229 1.395 . S
C230 C231 1.383 . S
C230 H253 0.931 . S
C231 C230 1.383 . S
C231 C232 1.394 . S
C232 C231 1.394 . S
C232 C233 1.378 . S
C232 H254 0.931 . S
C233 C228 1.377 . S
C233 C232 1.378 . S
C233 H255 0.931 . S
C234 O244 1.270 . S
C234 O245 1.262 1_655 S
C235 O246 1.251 . S
C235 O247 1.251 . S
O236 C216 1.257 . S
O236 Eu217 2.473 . S
O237 C216 1.260 . S
O237 Eu217 2.480 . S
O238 Eu217 2.430 . S
O238 C224 1.277 . S
O239 Eu217 2.670 1_655 S
O239 C224 1.257 1_655 S
O239 Eu227 2.355 . S
O240 Eu217 2.394 . S
O240 C225 1.251 . S
O241 C225 1.251 . S
O241 Eu227 2.374 1_455 S
O242 C226 1.257 . S
O242 Eu227 2.473 . S
O243 C226 1.260 . S
O243 Eu227 2.480 . S
O244 Eu227 2.430 . S
O244 C234 1.270 . S
O245 Eu217 2.355 . S
O245 Eu227 2.670 1_455 S
O245 C234 1.262 1_455 S
O246 Eu227 2.394 . S
O246 C235 1.251 . S
O247 Eu217 2.374 1_655 S
O247 C235 1.251 . S
H248 C219 0.931 . S
H249 C220 0.931 . S
H250 C222 0.931 . S
H251 C223 0.931 . S
H252 C229 0.931 . S
H253 C230 0.931 . S
H254 C232 0.931 . S
H255 C233 0.931 . S
H256 C264 0.929 . S
H257 C266 0.930 . S
H258 C268 0.930 . S
H259 C271 0.929 . S
H260 C274 0.930 . S
H261 C276 0.960 . S
H262 C276 0.960 . S
H263 C276 0.960 . S
C264 H256 0.929 . S
C264 C265 1.374 1_565 S
C264 C266 1.384 . S
C265 C264 1.374 1_545 S
C265 C271 1.394 . S
C266 H257 0.930 . S
C266 C264 1.384 . S
C266 C267 1.380 . S
C267 C266 1.380 . S
C267 C268 1.391 1_565 S
C267 C272 1.489 . S
C268 H258 0.930 . S
C268 C267 1.391 1_545 S
C268 C271 1.386 . S
H269 C285 0.930 . S
H270 C286 0.931 . S
C271 H259 0.929 . S
C271 C265 1.394 . S
C271 C268 1.386 . S
C272 C267 1.489 . S
C272 C274 1.446 . S
C272 C275 1.355 1_565 S
H273 C279 0.930 . S
C274 H260 0.930 . S
C274 C272 1.446 . S
C274 C277 1.403 . S
C275 C272 1.355 1_545 S
C275 C276 1.524 . S
C275 C279 1.400 . S
C276 H261 0.960 . S
C276 H262 0.960 . S
C276 H263 0.960 . S
C276 C275 1.524 . S
C277 C274 1.403 . S
C277 C278 1.392 . S
C277 C281 1.495 . S
C278 C277 1.392 . S
C278 C279 1.385 1_565 S
C278 C280 1.478 . S
C279 H273 0.930 . S
C279 C275 1.400 . S
C279 C278 1.385 1_545 S
C280 C278 1.478 . S
C280 C282 1.381 . S
C280 C286 1.383 1_565 S
C281 C277 1.495 . S
C281 H287 0.959 . S
C281 H288 0.961 . S
C281 H289 0.960 . S
C282 C280 1.381 . S
C282 C283 1.394 . S
C282 H290 0.930 . S
C283 C282 1.394 . S
C283 C284 1.410 . S
C283 H291 0.929 . S
C284 C283 1.410 . S
C284 C285 1.355 1_565 S
C285 H269 0.930 . S
C285 C284 1.355 1_545 S
C285 C286 1.379 . S
C286 H270 0.931 . S
C286 C280 1.383 1_545 S
C286 C285 1.379 . S
H287 C281 0.959 . S
H288 C281 0.961 . S
H289 C281 0.960 . S
H290 C282 0.930 . S
H291 C283 0.929 . S
H292 C300 0.929 . S
H293 C302 0.930 . S
H294 C304 0.930 . S
H295 C307 0.929 . S
H296 C310 0.930 . S
H297 C312 0.960 . S
H298 C312 0.960 . S
H299 C312 0.960 . S
C300 H292 0.929 . S
C300 C301 1.377 . S
C300 C302 1.384 . S
C301 C300 1.377 . S
C301 C307 1.390 . S
C302 H293 0.930 . S
C302 C300 1.384 . S
C302 C303 1.372 . S
C303 C302 1.372 . S
C303 C304 1.400 . S
C303 C308 1.490 . S
C304 H294 0.930 . S
C304 C303 1.400 . S
C304 C307 1.386 . S
H305 C321 0.930 . S
H306 C322 0.931 . S
C307 H295 0.929 . S
C307 C301 1.390 . S
C307 C304 1.386 . S
C308 C303 1.490 . S
C308 C310 1.395 . S
C308 C311 1.403 . S
H309 C315 0.930 . S
C310 H296 0.930 . S
C310 C308 1.395 . S
C310 C313 1.403 . S
C311 C308 1.403 . S
C311 C312 1.524 . S
C311 C315 1.400 . S
C312 H297 0.960 . S
C312 H298 0.960 . S
C312 H299 0.960 . S
C312 C311 1.524 . S
C313 C310 1.403 . S
C313 C314 1.392 . S
C313 C317 1.495 . S
C314 C313 1.392 . S
C314 C315 1.385 . S
C314 C316 1.478 . S
C315 H309 0.930 . S
C315 C311 1.400 . S
C315 C314 1.385 . S
C316 C314 1.478 . S
C316 C318 1.381 . S
C316 C322 1.383 . S
C317 C313 1.495 . S
C317 H323 0.959 . S
C317 H324 0.961 . S
C317 H325 0.960 . S
C318 C316 1.381 . S
C318 C319 1.394 . S
C318 H326 0.930 . S
C319 C318 1.394 . S
C319 C320 1.383 . S
C319 H327 0.929 . S
C320 C319 1.383 . S
C320 C321 1.377 . S
C321 H305 0.930 . S
C321 C320 1.377 . S
C321 C322 1.379 . S
C322 H306 0.931 . S
C322 C316 1.383 . S
C322 C321 1.379 . S
H323 C317 0.959 . S
H324 C317 0.961 . S
H325 C317 0.960 . S
H326 C318 0.930 . S
H327 C319 0.929 . S
H328 C336 0.929 . S
H329 C338 0.930 . S
H330 C340 0.930 . S
H331 C343 0.929 . S
H332 C346 0.930 . S
H333 C348 0.960 . S
H334 C348 0.960 . S
H335 C348 0.960 . S
C336 H328 0.929 . S
C336 C337 1.377 . S
C336 C338 1.384 . S
C337 C336 1.377 . S
C337 C343 1.390 . S
C338 H329 0.930 . S
C338 C336 1.384 . S
C338 C339 1.372 . S
C339 C338 1.372 . S
C339 C340 1.400 . S
C339 C344 1.490 . S
C340 H330 0.930 . S
C340 C339 1.400 . S
C340 C343 1.386 . S
H341 C357 0.930 . S
H342 C358 0.931 . S
C343 H331 0.929 . S
C343 C337 1.390 . S
C343 C340 1.386 . S
C344 C339 1.490 . S
C344 C346 1.395 . S
C344 C347 1.403 . S
H345 C351 0.930 . S
C346 H332 0.930 . S
C346 C344 1.395 . S
C346 C349 1.403 . S
C347 C344 1.403 . S
C347 C348 1.524 . S
C347 C351 1.400 . S
C348 H333 0.960 . S
C348 H334 0.960 . S
C348 H335 0.960 . S
C348 C347 1.524 . S
C349 C346 1.403 . S
C349 C350 1.392 . S
C349 C353 1.495 . S
C350 C349 1.392 . S
C350 C351 1.385 . S
C350 C352 1.478 . S
C351 H345 0.930 . S
C351 C347 1.400 . S
C351 C350 1.385 . S
C352 C350 1.478 . S
C352 C354 1.381 . S
C352 C358 1.383 . S
C353 C349 1.495 . S
C353 H359 0.959 . S
C353 H360 0.961 . S
C353 H361 0.960 . S
C354 C352 1.381 . S
C354 C355 1.394 . S
C354 H362 0.930 . S
C355 C354 1.394 . S
C355 C356 1.383 . S
C355 H363 0.929 . S
C356 C355 1.383 . S
C356 C357 1.377 . S
C357 H341 0.930 . S
C357 C356 1.377 . S
C357 C358 1.379 . S
C358 H342 0.931 . S
C358 C352 1.383 . S
C358 C357 1.379 . S
H359 C353 0.959 . S
H360 C353 0.961 . S
H361 C353 0.960 . S
H362 C354 0.930 . S
H363 C355 0.929 . S
H364 C372 0.929 . S
H365 C374 0.930 . S
H366 C376 0.930 . S
H367 C379 0.929 . S
H368 C382 0.930 . S
H369 C384 0.960 . S
H370 C384 0.960 . S
H371 C384 0.960 . S
C372 H364 0.929 . S
C372 C373 1.380 . S
C372 C374 1.384 . S
C373 C372 1.380 . S
C373 C379 1.388 1_655 S
C374 H365 0.930 . S
C374 C372 1.384 . S
C374 C375 1.390 . S
C375 C374 1.390 . S
C375 C376 1.382 1_655 S
C375 C380 1.490 . S
C376 H366 0.930 . S
C376 C375 1.382 1_455 S
C376 C379 1.386 . S
H377 C393 0.930 . S
H378 C394 0.931 . S
C379 H367 0.929 . S
C379 C373 1.388 1_455 S
C379 C376 1.386 . S
C380 C375 1.490 . S
C380 C382 1.392 1_655 S
C380 C383 1.406 . S
H381 C387 0.930 . S
C382 H368 0.930 . S
C382 C380 1.392 1_455 S
C382 C385 1.403 . S
C383 C380 1.406 . S
C383 C384 1.524 . S
C383 C387 1.400 . S
C384 H369 0.960 . S
C384 H370 0.960 . S
C384 H371 0.960 . S
C384 C383 1.524 . S
C385 C382 1.403 . S
C385 C386 1.392 . S
C385 C389 1.495 . S
C386 C385 1.392 . S
C386 C387 1.385 1_455 S
C386 C388 1.478 . S
C387 H381 0.930 . S
C387 C383 1.400 . S
C387 C386 1.385 1_655 S
C388 C386 1.478 . S
C388 C390 1.381 1_455 S
C388 C394 1.383 . S
C389 C385 1.495 . S
C389 H395 0.959 . S
C389 H396 0.961 . S
C389 H397 0.960 . S
C390 C388 1.381 1_655 S
C390 C391 1.394 . S
C390 H398 0.930 . S
C391 C390 1.394 . S
C391 C392 1.383 1_655 S
C391 H399 0.929 . S
C392 C391 1.383 1_455 S
C392 C393 1.377 . S
C393 H377 0.930 . S
C393 C392 1.377 . S
C393 C394 1.379 . S
C394 H378 0.931 . S
C394 C388 1.383 . S
C394 C393 1.379 . S
H395 C389 0.959 . S
H396 C389 0.961 . S
H397 C389 0.960 . S
H398 C390 0.930 . S
H399 C391 0.929 . S
H400 C408 0.929 . S
H401 C410 0.930 . S
H402 C412 0.930 . S
H403 C415 0.929 . S
H404 C418 0.930 . S
H405 C420 0.960 1_556 S
H406 C420 0.960 . S
H407 C420 0.960 . S
C408 H400 0.929 . S
C408 C409 1.379 . S
C408 C410 1.384 . S
C409 C408 1.379 . S
C409 C415 1.388 1_545 S
C410 H401 0.930 . S
C410 C408 1.384 . S
C410 C411 1.414 . S
C411 C410 1.414 . S
C411 C412 1.358 1_545 S
C411 C416 1.492 . S
C412 H402 0.930 . S
C412 C411 1.358 1_565 S
C412 C415 1.386 . S
H413 C429 0.930 . S
H414 C430 0.931 . S
C415 H403 0.929 . S
C415 C409 1.388 1_565 S
C415 C412 1.386 . S
C416 C411 1.492 . S
C416 C418 1.395 . S
C416 C419 1.403 1_545 S
H417 C423 0.930 . S
C418 H404 0.930 . S
C418 C416 1.395 . S
C418 C421 1.403 . S
C419 C416 1.403 1_565 S
C419 C420 1.524 . S
C419 C423 1.400 1_554 S
C420 H405 0.960 1_554 S
C420 H406 0.960 . S
C420 H407 0.960 . S
C420 C419 1.524 . S
C421 C418 1.403 . S
C421 C422 1.392 . S
C421 C425 1.495 . S
C422 C421 1.392 . S
C422 C423 1.385 1_544 S
C422 C424 1.478 1_554 S
C423 H417 0.930 . S
C423 C419 1.400 1_556 S
C423 C422 1.385 1_566 S
C424 C422 1.478 1_556 S
C424 C426 1.381 . S
C424 C430 1.383 1_545 S
C425 C421 1.495 . S
C425 H431 0.959 . S
C425 H432 0.961 . S
C425 H433 0.960 . S
C426 C424 1.381 . S
C426 C427 1.394 . S
C426 H434 0.930 . S
C427 C426 1.394 . S
C427 C428 1.414 . S
C427 H435 0.929 . S
C428 C427 1.414 . S
C428 C429 1.349 1_545 S
C429 H413 0.930 . S
C429 C428 1.349 1_565 S
C429 C430 1.379 . S
C430 H414 0.931 . S
C430 C424 1.383 1_565 S
C430 C429 1.379 . S
H431 C425 0.959 . S
H432 C425 0.961 . S
H433 C425 0.960 . S
H434 C426 0.930 . S
H435 C427 0.929 . S
H436 C444 0.929 . S
H437 C446 0.930 . S
H438 C448 0.930 . S
H439 C451 0.929 . S
H440 C454 0.930 . S
H441 C456 0.960 . S
H442 C456 0.960 . S
H443 C456 0.960 . S
C444 H436 0.929 . S
C444 C445 1.377 . S
C444 C446 1.384 . S
C445 C444 1.377 . S
C445 C451 1.390 . S
C446 H437 0.930 . S
C446 C444 1.384 . S
C446 C447 1.372 . S
C447 C446 1.372 . S
C447 C448 1.400 . S
C447 C452 1.490 . S
C448 H438 0.930 . S
C448 C447 1.400 . S
C448 C451 1.386 . S
H449 C465 0.930 . S
H450 C466 0.931 . S
C451 H439 0.929 . S
C451 C445 1.390 . S
C451 C448 1.386 . S
C452 C447 1.490 . S
C452 C454 1.395 . S
C452 C455 1.403 . S
H453 C459 0.930 . S
C454 H440 0.930 . S
C454 C452 1.395 . S
C454 C457 1.403 1_554 S
C455 C452 1.403 . S
C455 C456 1.524 . S
C455 C459 1.400 . S
C456 H441 0.960 . S
C456 H442 0.960 . S
C456 H443 0.960 . S
C456 C455 1.524 . S
C457 C454 1.403 1_556 S
C457 C458 1.392 . S
C457 C461 1.495 . S
C458 C457 1.392 . S
C458 C459 1.385 1_556 S
C458 C460 1.478 . S
C459 H453 0.930 . S
C459 C455 1.400 . S
C459 C458 1.385 1_554 S
C460 C458 1.478 . S
C460 C462 1.381 . S
C460 C466 1.383 . S
C461 C457 1.495 . S
C461 H467 0.959 . S
C461 H468 0.961 . S
C461 H469 0.960 . S
C462 C460 1.381 . S
C462 C463 1.394 . S
C462 H470 0.930 . S
C463 C462 1.394 . S
C463 C464 1.383 . S
C463 H471 0.929 . S
C464 C463 1.383 . S
C464 C465 1.377 . S
C465 H449 0.930 . S
C465 C464 1.377 . S
C465 C466 1.379 . S
C466 H450 0.931 . S
C466 C460 1.383 . S
C466 C465 1.379 . S
H467 C461 0.959 . S
H468 C461 0.961 . S
H469 C461 0.960 . S
H470 C462 0.930 . S
H471 C463 0.929 . S
H472 C480 0.929 . S
H473 C482 0.930 . S
H474 C484 0.930 . S
H475 C487 0.929 . S
H476 C490 0.930 . S
H477 C492 0.960 . S
H478 C492 0.960 . S
H479 C492 0.960 . S
C480 H472 0.929 . S
C480 C481 1.377 . S
C480 C482 1.384 . S
C481 C480 1.377 . S
C481 C487 1.390 . S
C482 H473 0.930 . S
C482 C480 1.384 . S
C482 C483 1.372 . S
C483 C482 1.372 . S
C483 C484 1.400 . S
C483 C488 1.490 . S
C484 H474 0.930 . S
C484 C483 1.400 . S
C484 C487 1.386 . S
H485 C501 0.930 . S
H486 C502 0.931 . S
C487 H475 0.929 . S
C487 C481 1.390 . S
C487 C484 1.386 . S
C488 C483 1.490 . S
C488 C490 1.395 . S
C488 C491 1.403 . S
H489 C495 0.930 . S
C490 H476 0.930 . S
C490 C488 1.395 . S
C490 C493 1.403 1_554 S
C491 C488 1.403 . S
C491 C492 1.524 . S
C491 C495 1.400 . S
C492 H477 0.960 . S
C492 H478 0.960 . S
C492 H479 0.960 . S
C492 C491 1.524 . S
C493 C490 1.403 1_556 S
C493 C494 1.392 . S
C493 C497 1.495 . S
C494 C493 1.392 . S
C494 C495 1.385 1_556 S
C494 C496 1.478 . S
C495 H489 0.930 . S
C495 C491 1.400 . S
C495 C494 1.385 1_554 S
C496 C494 1.478 . S
C496 C498 1.381 . S
C496 C502 1.383 . S
C497 C493 1.495 . S
C497 H503 0.959 . S
C497 H504 0.961 . S
C497 H505 0.960 . S
C498 C496 1.381 . S
C498 C499 1.394 . S
C498 H506 0.930 . S
C499 C498 1.394 . S
C499 C500 1.383 . S
C499 H507 0.929 . S
C500 C499 1.383 . S
C500 C501 1.377 . S
C501 H485 0.930 . S
C501 C500 1.377 . S
C501 C502 1.379 . S
C502 H486 0.931 . S
C502 C496 1.383 . S
C502 C501 1.379 . S
H503 C497 0.959 . S
H504 C497 0.961 . S
H505 C497 0.960 . S
H506 C498 0.930 . S
H507 C499 0.929 . S
H508 C516 0.929 . S
H509 C518 0.930 . S
H510 C520 0.930 . S
H511 C523 0.929 . S
H512 C526 0.933 . S
H513 C528 0.960 . S
H514 C528 0.960 1_554 S
H515 C528 0.960 1_654 S
C516 H508 0.929 . S
C516 C517 1.379 . S
C516 C518 1.384 . S
C517 C516 1.379 . S
C517 C523 1.388 1_455 S
C518 H509 0.930 . S
C518 C516 1.384 . S
C518 C519 1.402 . S
C519 C518 1.402 . S
C519 C520 1.370 1_455 S
C519 C524 1.490 . S
C520 H510 0.930 . S
C520 C519 1.370 1_655 S
C520 C523 1.386 . S
H521 C537 0.930 . S
H522 C538 0.931 . S
C523 H511 0.929 . S
C523 C517 1.388 1_655 S
C523 C520 1.386 . S
C524 C519 1.490 . S
C524 C526 1.392 1_455 S
C524 C527 1.405 . S
H525 C531 0.930 . S
C526 H512 0.933 . S
C526 C524 1.392 1_655 S
C526 C529 1.405 . S
C527 C524 1.405 . S
C527 C528 1.524 1_554 S
C527 C531 1.400 1_554 S
C528 H513 0.960 . S
C528 H514 0.960 1_556 S
C528 H515 0.960 1_456 S
C528 C527 1.524 1_556 S
C529 C526 1.405 . S
C529 C530 1.393 . S
C529 C533 1.495 . S
C530 C529 1.393 . S
C530 C531 1.384 1_654 S
C530 C532 1.477 1_554 S
C531 H525 0.930 . S
C531 C527 1.400 1_556 S
C531 C530 1.384 1_456 S
C532 C530 1.477 1_556 S
C532 C534 1.343 1_655 S
C532 C538 1.421 . S
C533 C529 1.495 . S
C533 H539 0.959 . S
C533 H540 0.961 . S
C533 H541 0.960 1_655 S
C534 C532 1.343 1_455 S
C534 C535 1.394 . S
C534 H542 0.930 . S
C535 C534 1.394 . S
C535 C536 1.338 1_455 S
C535 H543 0.929 . S
C536 C535 1.338 1_655 S
C536 C537 1.423 . S
C537 H521 0.930 . S
C537 C536 1.423 . S
C537 C538 1.379 . S
C538 H522 0.931 . S
C538 C532 1.421 . S
C538 C537 1.379 . S
H539 C533 0.959 . S
H540 C533 0.961 . S
H541 C533 0.960 1_455 S
H542 C534 0.930 . S
H543 C535 0.929 . S
H544 C552 0.929 . S
H545 C554 0.930 . S
H546 C556 0.930 . S
H547 C559 0.929 . S
H548 C562 0.930 . S
H549 C564 0.960 . S
H550 C564 0.960 . S
H551 C564 0.960 . S
C552 H544 0.929 . S
C552 C553 1.377 1_655 S
C552 C554 1.384 . S
C553 C552 1.377 1_455 S
C553 C559 1.390 . S
C554 H545 0.930 . S
C554 C552 1.384 . S
C554 C555 1.372 . S
C555 C554 1.372 . S
C555 C556 1.400 1_655 S
C555 C560 1.490 . S
C556 H546 0.930 . S
C556 C555 1.400 1_455 S
C556 C559 1.386 . S
H557 C573 0.930 . S
H558 C574 0.931 . S
C559 H547 0.929 . S
C559 C553 1.390 . S
C559 C556 1.386 . S
C560 C555 1.490 . S
C560 C562 1.395 . S
C560 C563 1.403 1_655 S
H561 C567 0.972 . S
C562 H548 0.930 . S
C562 C560 1.395 . S
C562 C565 1.403 . S
C563 C560 1.403 1_455 S
C563 C564 1.524 . S
C563 C567 1.414 . S
C564 H549 0.960 . S
C564 H550 0.960 . S
C564 H551 0.960 . S
C564 C563 1.524 . S
C565 C562 1.403 . S
C565 C566 1.392 . S
C565 C569 1.495 . S
C566 C565 1.392 . S
C566 C567 1.334 1_655 S
C566 C568 1.478 . S
C567 H561 0.972 . S
C567 C563 1.414 . S
C567 C566 1.334 1_455 S
C568 C566 1.478 . S
C568 C570 1.381 . S
C568 C574 1.383 . S
C569 C565 1.495 . S
C569 H575 0.959 . S
C569 H576 0.961 . S
C569 H577 0.960 . S
C570 C568 1.381 . S
C570 C571 1.394 . S
C570 H578 0.930 . S
C571 C570 1.394 . S
C571 C572 1.383 . S
C571 H579 0.929 . S
C572 C571 1.383 . S
C572 C573 1.377 . S
C573 H557 0.930 . S
C573 C572 1.377 . S
C573 C574 1.379 . S
C574 H558 0.931 . S
C574 C568 1.383 . S
C574 C573 1.379 . S
H575 C569 0.959 . S
H576 C569 0.961 . S
H577 C569 0.960 . S
H578 C570 0.930 . S
H579 C571 0.929 . S
H580 C588 0.929 . S
H581 C590 0.930 . S
H582 C592 0.930 . S
H583 C595 0.929 . S
H584 C598 0.930 . S
H585 C600 0.962 . S
H586 C600 0.920 1_545 S
H587 C600 0.990 . S
C588 H580 0.929 . S
C588 C589 1.377 . S
C588 C590 1.384 . S
C589 C588 1.377 . S
C589 C595 1.390 1_545 S
C590 H581 0.930 . S
C590 C588 1.384 . S
C590 C591 1.372 1_545 S
C591 C590 1.372 1_565 S
C591 C592 1.400 . S
C591 C596 1.490 . S
C592 H582 0.930 . S
C592 C591 1.400 . S
C592 C595 1.386 . S
H593 C609 0.930 . S
H594 C610 0.931 . S
C595 H583 0.929 . S
C595 C589 1.390 1_565 S
C595 C592 1.386 . S
C596 C591 1.490 . S
C596 C598 1.395 . S
C596 C599 1.403 . S
H597 C603 0.930 . S
C598 H584 0.930 . S
C598 C596 1.395 . S
C598 C601 1.403 . S
C599 C596 1.403 . S
C599 C600 1.534 . S
C599 C603 1.400 . S
C600 H585 0.962 . S
C600 H586 0.920 1_565 S
C600 H587 0.990 . S
C600 C599 1.534 . S
C601 C598 1.403 . S
C601 C602 1.392 . S
C601 C605 1.495 . S
C602 C601 1.392 . S
C602 C603 1.385 . S
C602 C604 1.478 . S
C603 H597 0.930 . S
C603 C599 1.400 . S
C603 C602 1.385 . S
C604 C602 1.478 . S
C604 C606 1.381 . S
C604 C610 1.383 . S
C605 C601 1.495 . S
C605 H611 0.959 . S
C605 H612 0.961 . S
C605 H613 0.960 . S
C606 C604 1.381 . S
C606 C607 1.394 . S
C606 H614 0.930 1_565 S
C607 C606 1.394 . S
C607 C608 1.383 . S
C607 H615 0.929 1_565 S
C608 C607 1.383 . S
C608 C609 1.377 . S
C609 H593 0.930 . S
C609 C608 1.377 . S
C609 C610 1.379 . S
C610 H594 0.931 . S
C610 C604 1.383 . S
C610 C609 1.379 . S
H611 C605 0.959 . S
H612 C605 0.961 . S
H613 C605 0.960 . S
H614 C606 0.930 1_545 S
H615 C607 0.929 1_545 S
H616 C624 0.929 . S
H617 C626 0.930 . S
H618 C628 0.930 . S
H619 C631 0.929 . S
H620 C634 0.930 . S
H621 C636 0.960 . S
H622 C636 0.960 . S
H623 C636 0.960 . S
C624 H616 0.929 . S
C624 C625 1.377 . S
C624 C626 1.384 . S
C625 C624 1.377 . S
C625 C631 1.390 . S
C626 H617 0.930 . S
C626 C624 1.384 . S
C626 C627 1.372 . S
C627 C626 1.372 . S
C627 C628 1.400 . S
C627 C632 1.490 . S
C628 H618 0.930 . S
C628 C627 1.400 . S
C628 C631 1.386 . S
H629 C645 0.930 . S
H630 C646 0.931 . S
C631 H619 0.929 . S
C631 C625 1.390 . S
C631 C628 1.386 . S
C632 C627 1.490 . S
C632 C634 1.395 . S
C632 C635 1.403 . S
H633 C639 0.930 . S
C634 H620 0.930 . S
C634 C632 1.395 . S
C634 C637 1.403 . S
C635 C632 1.403 . S
C635 C636 1.524 . S
C635 C639 1.400 . S
C636 H621 0.960 . S
C636 H622 0.960 . S
C636 H623 0.960 . S
C636 C635 1.524 . S
C637 C634 1.403 . S
C637 C638 1.392 . S
C637 C641 1.495 . S
C638 C637 1.392 . S
C638 C639 1.385 . S
C638 C640 1.478 . S
C639 H633 0.930 . S
C639 C635 1.400 . S
C639 C638 1.385 . S
C640 C638 1.478 . S
C640 C642 1.381 . S
C640 C646 1.383 . S
C641 C637 1.495 . S
C641 H647 0.959 . S
C641 H648 0.961 . S
C641 H649 0.960 . S
C642 C640 1.381 . S
C642 C643 1.394 . S
C642 H650 0.930 . S
C643 C642 1.394 . S
C643 C644 1.383 . S
C643 H651 0.929 . S
C644 C643 1.383 . S
C644 C645 1.377 . S
C645 H629 0.930 . S
C645 C644 1.377 . S
C645 C646 1.379 . S
C646 H630 0.931 . S
C646 C640 1.383 . S
C646 C645 1.379 . S
H647 C641 0.959 . S
H648 C641 0.961 . S
H649 C641 0.960 . S
H650 C642 0.930 . S
H651 C643 0.929 . S
H652 C660 0.929 . S
H653 C662 0.930 . S
H654 C664 0.930 . S
H655 C667 0.929 . S
H656 C670 0.930 . S
H657 C672 0.960 . S
H658 C672 0.960 . S
H659 C672 0.960 . S
C660 H652 0.929 . S
C660 C661 1.377 . S
C660 C662 1.384 . S
C661 C660 1.377 . S
C661 C667 1.390 . S
C662 H653 0.930 . S
C662 C660 1.384 . S
C662 C663 1.372 . S
C663 C662 1.372 . S
C663 C664 1.400 . S
C663 C668 1.490 . S
C664 H654 0.930 . S
C664 C663 1.400 . S
C664 C667 1.386 . S
H665 C681 0.930 . S
H666 C682 0.931 . S
C667 H655 0.929 . S
C667 C661 1.390 . S
C667 C664 1.386 . S
C668 C663 1.490 . S
C668 C670 1.395 . S
C668 C671 1.403 . S
H669 C675 0.930 . S
C670 H656 0.930 . S
C670 C668 1.395 . S
C670 C673 1.403 . S
C671 C668 1.403 . S
C671 C672 1.524 . S
C671 C675 1.400 . S
C672 H657 0.960 . S
C672 H658 0.960 . S
C672 H659 0.960 . S
C672 C671 1.524 . S
C673 C670 1.403 . S
C673 C674 1.392 . S
C673 C677 1.495 . S
C674 C673 1.392 . S
C674 C675 1.385 . S
C674 C676 1.478 . S
C675 H669 0.930 . S
C675 C671 1.400 . S
C675 C674 1.385 . S
C676 C674 1.478 . S
C676 C678 1.381 . S
C676 C682 1.383 . S
C677 C673 1.495 . S
C677 H683 0.959 . S
C677 H684 0.961 . S
C677 H685 0.960 . S
C678 C676 1.381 . S
C678 C679 1.394 . S
C678 H686 0.930 . S
C679 C678 1.394 . S
C679 C680 1.383 . S
C679 H687 0.929 . S
C680 C679 1.383 . S
C680 C681 1.377 . S
C681 H665 0.930 . S
C681 C680 1.377 . S
C681 C682 1.379 . S
C682 H666 0.931 . S
C682 C676 1.383 . S
C682 C681 1.379 . S
H683 C677 0.959 . S
H684 C677 0.961 . S
H685 C677 0.960 . S
H686 C678 0.930 . S
H687 C679 0.929 . S
H688 C696 0.929 . S
H689 C698 0.930 . S
H690 C700 0.930 . S
H691 C703 0.929 . S
H692 C706 0.930 . S
H693 C708 0.960 . S
H694 C708 0.960 . S
H695 C708 0.960 . S
C696 H688 0.929 . S
C696 C697 1.377 . S
C696 C698 1.384 . S
C697 C696 1.377 . S
C697 C703 1.390 1_655 S
C698 H689 0.930 . S
C698 C696 1.384 . S
C698 C699 1.372 1_655 S
C699 C698 1.372 1_455 S
C699 C700 1.400 . S
C699 C704 1.490 . S
C700 H690 0.930 . S
C700 C699 1.400 . S
C700 C703 1.386 . S
H701 C717 0.930 . S
H702 C718 0.931 . S
C703 H691 0.929 . S
C703 C697 1.390 1_455 S
C703 C700 1.386 . S
C704 C699 1.490 . S
C704 C706 1.395 1_455 S
C704 C707 1.403 . S
H705 C711 0.930 . S
C706 H692 0.930 . S
C706 C704 1.395 1_655 S
C706 C709 1.403 . S
C707 C704 1.403 . S
C707 C708 1.524 . S
C707 C711 1.400 . S
C708 H693 0.960 . S
C708 H694 0.960 . S
C708 H695 0.960 . S
C708 C707 1.524 . S
C709 C706 1.403 . S
C709 C710 1.392 1_655 S
C709 C713 1.495 . S
C710 C709 1.392 1_455 S
C710 C711 1.385 . S
C710 C712 1.478 . S
C711 H705 0.930 . S
C711 C707 1.400 . S
C711 C710 1.385 . S
C712 C710 1.478 . S
C712 C714 1.381 1_554 S
C712 C718 1.383 . S
C713 C709 1.495 . S
C713 H719 0.959 . S
C713 H720 0.961 . S
C713 H721 0.960 . S
C714 C712 1.381 1_556 S
C714 C715 1.394 . S
C714 H722 0.930 1_455 S
C715 C714 1.394 . S
C715 C716 1.383 . S
C715 H723 0.929 1_455 S
C716 C715 1.383 . S
C716 C717 1.377 1_556 S
C717 H701 0.930 . S
C717 C716 1.377 1_554 S
C717 C718 1.379 . S
C718 H702 0.931 . S
C718 C712 1.383 . S
C718 C717 1.379 . S
H719 C713 0.959 . S
H720 C713 0.961 . S
H721 C713 0.960 . S
H722 C714 0.930 1_655 S
H723 C715 0.929 1_655 S
H724 C732 0.929 . S
H725 C734 0.930 . S
H726 C736 0.930 . S
H727 C739 0.929 . S
H728 C742 0.930 . S
H729 C744 0.960 . S
H730 C744 0.960 . S
H731 C744 0.960 . S
C732 H724 0.929 . S
C732 C733 1.416 . S
C732 C734 1.384 . S
C733 C732 1.416 . S
C733 C739 1.344 1_565 S
C734 H725 0.930 . S
C734 C732 1.384 . S
C734 C735 1.372 1_565 S
C735 C734 1.372 1_545 S
C735 C736 1.400 . S
C735 C740 1.490 . S
C736 H726 0.930 . S
C736 C735 1.400 . S
C736 C739 1.386 . S
H737 C753 0.930 . S
H738 C754 0.931 . S
C739 H727 0.929 . S
C739 C733 1.344 1_545 S
C739 C736 1.386 . S
C740 C735 1.490 . S
C740 C742 1.395 1_545 S
C740 C743 1.403 . S
H741 C747 0.930 . S
C742 H728 0.930 . S
C742 C740 1.395 1_565 S
C742 C745 1.403 . S
C743 C740 1.403 . S
C743 C744 1.524 . S
C743 C747 1.400 . S
C744 H729 0.960 . S
C744 H730 0.960 . S
C744 H731 0.960 . S
C744 C743 1.524 . S
C745 C742 1.403 . S
C745 C746 1.392 1_565 S
C745 C749 1.495 . S
C746 C745 1.392 1_545 S
C746 C747 1.385 . S
C746 C748 1.478 . S
C747 H741 0.930 . S
C747 C743 1.400 . S
C747 C746 1.385 . S
C748 C746 1.478 . S
C748 C750 1.391 . S
C748 C754 1.383 . S
C749 C745 1.495 . S
C749 H755 0.959 . S
C749 H756 0.961 . S
C749 H757 0.960 . S
C750 C748 1.391 . S
C750 C751 1.388 1_554 S
C750 H758 0.927 1_544 S
C751 C750 1.388 1_556 S
C751 C752 1.383 . S
C751 H759 0.929 1_545 S
C752 C751 1.383 . S
C752 C753 1.377 1_556 S
C753 H737 0.930 . S
C753 C752 1.377 1_554 S
C753 C754 1.379 . S
C754 H738 0.931 . S
C754 C748 1.383 . S
C754 C753 1.379 . S
H755 C749 0.959 . S
H756 C749 0.961 . S
H757 C749 0.960 . S
H758 C750 0.927 1_566 S
H759 C751 0.929 1_565 S
H760 C768 0.929 . S
H761 C770 0.930 . S
H762 C772 0.930 . S
H763 C775 0.929 . S
H764 C778 0.930 . S
H765 C780 0.960 . S
H766 C780 0.960 . S
H767 C780 0.960 . S
C768 H760 0.929 . S
C768 C769 1.377 . S
C768 C770 1.384 . S
C769 C768 1.377 . S
C769 C775 1.390 . S
C770 H761 0.930 . S
C770 C768 1.384 . S
C770 C771 1.372 . S
C771 C770 1.372 . S
C771 C772 1.400 . S
C771 C776 1.490 . S
C772 H762 0.930 . S
C772 C771 1.400 . S
C772 C775 1.386 . S
H773 C789 0.930 . S
H774 C790 0.931 . S
C775 H763 0.929 . S
C775 C769 1.390 . S
C775 C772 1.386 . S
C776 C771 1.490 . S
C776 C778 1.395 . S
C776 C779 1.403 . S
H777 C783 0.930 . S
C778 H764 0.930 . S
C778 C776 1.395 . S
C778 C781 1.403 . S
C779 C776 1.403 . S
C779 C780 1.524 . S
C779 C783 1.400 . S
C780 H765 0.960 . S
C780 H766 0.960 . S
C780 H767 0.960 . S
C780 C779 1.524 . S
C781 C778 1.403 . S
C781 C782 1.392 . S
C781 C785 1.495 . S
C782 C781 1.392 . S
C782 C783 1.385 . S
C782 C784 1.478 . S
C783 H777 0.930 . S
C783 C779 1.400 . S
C783 C782 1.385 . S
C784 C782 1.478 . S
C784 C786 1.381 . S
C784 C790 1.383 1_554 S
C785 C781 1.495 . S
C785 H791 0.959 . S
C785 H792 0.961 . S
C785 H793 0.960 . S
C786 C784 1.381 . S
C786 C787 1.394 . S
C786 H794 0.930 . S
C787 C786 1.394 . S
C787 C788 1.383 1_554 S
C787 H795 0.929 . S
C788 C787 1.383 1_556 S
C788 C789 1.377 . S
C789 H773 0.930 . S
C789 C788 1.377 . S
C789 C790 1.379 . S
C790 H774 0.931 . S
C790 C784 1.383 1_556 S
C790 C789 1.379 . S
H791 C785 0.959 . S
H792 C785 0.961 . S
H793 C785 0.960 . S
H794 C786 0.930 . S
H795 C787 0.929 . S
H796 C804 0.929 . S
H797 C806 0.930 . S
H798 C808 0.930 . S
H799 C811 0.929 . S
H800 C814 0.930 . S
H801 C816 0.960 . S
H802 C816 0.960 . S
H803 C816 0.960 . S
C804 H796 0.929 . S
C804 C805 1.377 . S
C804 C806 1.384 . S
C805 C804 1.377 . S
C805 C811 1.390 . S
C806 H797 0.930 . S
C806 C804 1.384 . S
C806 C807 1.372 . S
C807 C806 1.372 . S
C807 C808 1.400 . S
C807 C812 1.490 . S
C808 H798 0.930 . S
C808 C807 1.400 . S
C808 C811 1.386 . S
H809 C825 0.930 . S
H810 C826 0.931 . S
C811 H799 0.929 . S
C811 C805 1.390 . S
C811 C808 1.386 . S
C812 C807 1.490 . S
C812 C814 1.395 . S
C812 C815 1.403 . S
H813 C819 0.930 . S
C814 H800 0.930 . S
C814 C812 1.395 . S
C814 C817 1.403 . S
C815 C812 1.403 . S
C815 C816 1.524 . S
C815 C819 1.400 . S
C816 H801 0.960 . S
C816 H802 0.960 . S
C816 H803 0.960 . S
C816 C815 1.524 . S
C817 C814 1.403 . S
C817 C818 1.392 . S
C817 C821 1.495 . S
C818 C817 1.392 . S
C818 C819 1.385 . S
C818 C820 1.478 . S
C819 H813 0.930 . S
C819 C815 1.400 . S
C819 C818 1.385 . S
C820 C818 1.478 . S
C820 C822 1.381 . S
C820 C826 1.383 . S
C821 C817 1.495 . S
C821 H827 0.959 . S
C821 H828 0.961 . S
C821 H829 0.960 . S
C822 C820 1.381 . S
C822 C823 1.394 1_554 S
C822 H830 0.930 . S
C823 C822 1.394 1_556 S
C823 C824 1.383 . S
C823 H831 0.929 . S
C824 C823 1.383 . S
C824 C825 1.377 1_556 S
C825 H809 0.930 . S
C825 C824 1.377 1_554 S
C825 C826 1.379 . S
C826 H810 0.931 . S
C826 C820 1.383 . S
C826 C825 1.379 . S
H827 C821 0.959 . S
H828 C821 0.961 . S
H829 C821 0.960 . S
H830 C822 0.930 . S
H831 C823 0.929 . S
H832 C840 0.929 . S
H833 C842 0.930 . S
H834 C844 0.930 . S
H835 C847 0.929 . S
H836 C850 0.933 . S
H837 C852 0.960 . S
H838 C852 0.960 . S
H839 C852 0.925 1_655 S
C840 H832 0.929 . S
C840 C841 1.377 . S
C840 C842 1.384 . S
C841 C840 1.377 . S
C841 C847 1.390 1_455 S
C842 H833 0.930 . S
C842 C840 1.384 . S
C842 C843 1.372 . S
C843 C842 1.372 . S
C843 C844 1.400 1_455 S
C843 C848 1.490 . S
C844 H834 0.930 . S
C844 C843 1.400 1_655 S
C844 C847 1.386 . S
H845 C861 0.930 . S
H846 C862 0.931 . S
C847 H835 0.929 . S
C847 C841 1.390 1_655 S
C847 C844 1.386 . S
C848 C843 1.490 . S
C848 C850 1.395 . S
C848 C851 1.403 . S
H849 C855 0.930 . S
C850 H836 0.933 . S
C850 C848 1.395 . S
C850 C853 1.403 . S
C851 C848 1.403 . S
C851 C852 1.524 . S
C851 C855 1.400 . S
C852 H837 0.960 . S
C852 H838 0.960 . S
C852 H839 0.925 1_455 S
C852 C851 1.524 . S
C853 C850 1.403 . S
C853 C854 1.392 . S
C853 C857 1.494 1_455 S
C854 C853 1.392 . S
C854 C855 1.385 . S
C854 C856 1.478 . S
C855 H849 0.930 . S
C855 C851 1.400 . S
C855 C854 1.385 . S
C856 C854 1.478 . S
C856 C858 1.381 . S
C856 C862 1.383 1_455 S
C857 C853 1.494 1_655 S
C857 H863 0.961 1_556 S
C857 H864 0.974 . S
C857 H865 0.947 1_655 S
C858 C856 1.381 . S
C858 C859 1.394 . S
C858 H866 0.930 . S
C859 C858 1.394 . S
C859 C860 1.383 . S
C859 H867 0.929 . S
C860 C859 1.383 . S
C860 C861 1.377 1_455 S
C861 H845 0.930 . S
C861 C860 1.377 1_655 S
C861 C862 1.379 . S
C862 H846 0.931 . S
C862 C856 1.383 1_655 S
C862 C861 1.379 . S
H863 C857 0.961 1_554 S
H864 C857 0.974 . S
H865 C857 0.947 1_455 S
H866 C858 0.930 . S
H867 C859 0.929 . S
H868 C876 0.929 1_554 S
H869 C878 0.933 . S
H870 C880 0.933 . S
H871 C883 0.929 . S
H872 C886 0.930 . S
H873 C888 0.960 . S
H874 C888 0.960 . S
H875 C888 0.960 . S
C876 H868 0.929 1_556 S
C876 C877 1.377 . S
C876 C878 1.384 . S
C877 C876 1.377 . S
C877 C883 1.390 1_545 S
C878 H869 0.933 . S
C878 C876 1.384 . S
C878 C879 1.372 . S
C879 C878 1.372 . S
C879 C880 1.396 1_545 S
C879 C884 1.490 . S
C880 H870 0.933 . S
C880 C879 1.396 1_565 S
C880 C883 1.387 . S
H881 C897 0.928 . S
H882 C898 0.931 . S
C883 H871 0.929 . S
C883 C877 1.390 1_565 S
C883 C880 1.387 . S
C884 C879 1.490 . S
C884 C886 1.395 1_545 S
C884 C887 1.403 . S
H885 C891 0.930 . S
C886 H872 0.930 . S
C886 C884 1.395 1_565 S
C886 C889 1.403 . S
C887 C884 1.403 . S
C887 C888 1.524 . S
C887 C891 1.400 . S
C888 H873 0.960 . S
C888 H874 0.960 . S
C888 H875 0.960 . S
C888 C887 1.524 . S
C889 C886 1.403 . S
C889 C890 1.392 1_565 S
C889 C893 1.495 . S
C890 C889 1.392 1_545 S
C890 C891 1.385 . S
C890 C892 1.478 . S
C891 H885 0.930 . S
C891 C887 1.400 . S
C891 C890 1.385 . S
C892 C890 1.478 . S
C892 C894 1.381 . S
C892 C898 1.383 1_545 S
C893 C889 1.495 . S
C893 H899 0.959 . S
C893 H900 0.961 . S
C893 H901 0.960 . S
C894 C892 1.381 . S
C894 C895 1.394 . S
C894 H902 0.930 . S
C895 C894 1.394 . S
C895 C896 1.383 . S
C895 H903 0.929 . S
C896 C895 1.383 . S
C896 C897 1.379 1_545 S
C897 H881 0.928 . S
C897 C896 1.379 1_565 S
C897 C898 1.379 . S
C898 H882 0.931 . S
C898 C892 1.383 1_565 S
C898 C897 1.379 . S
H899 C893 0.959 . S
H900 C893 0.961 . S
H901 C893 0.960 . S
H902 C894 0.930 . S
H903 C895 0.929 . S
H904 C912 0.929 . S
H905 C914 0.930 . S
H906 C916 0.930 . S
H907 C919 0.929 . S
H908 C922 0.930 . S
H909 C924 0.960 . S
H910 C924 0.960 . S
H911 C924 0.960 . S
C912 H904 0.929 . S
C912 C913 1.377 . S
C912 C914 1.384 . S
C913 C912 1.377 . S
C913 C919 1.390 . S
C914 H905 0.930 . S
C914 C912 1.384 . S
C914 C915 1.372 . S
C915 C914 1.372 . S
C915 C916 1.400 . S
C915 C920 1.490 . S
C916 H906 0.930 . S
C916 C915 1.400 . S
C916 C919 1.386 . S
H917 C933 0.930 . S
H918 C934 0.931 . S
C919 H907 0.929 . S
C919 C913 1.390 . S
C919 C916 1.386 . S
C920 C915 1.490 . S
C920 C922 1.395 . S
C920 C923 1.403 . S
H921 C927 0.930 . S
C922 H908 0.930 . S
C922 C920 1.395 . S
C922 C925 1.403 . S
C923 C920 1.403 . S
C923 C924 1.524 . S
C923 C927 1.400 . S
C924 H909 0.960 . S
C924 H910 0.960 . S
C924 H911 0.960 . S
C924 C923 1.524 . S
C925 C922 1.403 . S
C925 C926 1.392 . S
C925 C929 1.495 . S
C926 C925 1.392 . S
C926 C927 1.385 . S
C926 C928 1.478 . S
C927 H921 0.930 . S
C927 C923 1.400 . S
C927 C926 1.385 . S
C928 C926 1.478 . S
C928 C930 1.381 . S
C928 C934 1.383 . S
C929 C925 1.495 . S
C929 H935 0.959 1_556 S
C929 H936 0.961 . S
C929 H937 0.960 . S
C930 C928 1.381 . S
C930 C931 1.394 . S
C930 H938 0.930 . S
C931 C930 1.394 . S
C931 C932 1.383 . S
C931 H939 0.929 . S
C932 C931 1.383 . S
C932 C933 1.377 . S
C933 H917 0.930 . S
C933 C932 1.377 . S
C933 C934 1.379 . S
C934 H918 0.931 . S
C934 C928 1.383 . S
C934 C933 1.379 . S
H935 C929 0.959 1_554 S
H936 C929 0.961 . S
H937 C929 0.960 . S
H938 C930 0.930 . S
H939 C931 0.929 . S
H940 C948 0.929 . S
H941 C950 0.930 . S
H942 C952 0.930 . S
H943 C955 0.929 1_554 S
H944 C958 0.930 . S
H945 C960 0.960 . S
H946 C960 0.960 . S
H947 C960 0.960 . S
C948 H940 0.929 . S
C948 C949 1.377 . S
C948 C950 1.384 . S
C949 C948 1.377 . S
C949 C955 1.390 . S
C950 H941 0.930 . S
C950 C948 1.384 . S
C950 C951 1.372 . S
C951 C950 1.372 . S
C951 C952 1.400 . S
C951 C956 1.490 . S
C952 H942 0.930 . S
C952 C951 1.400 . S
C952 C955 1.386 . S
H953 C969 0.930 . S
H954 C970 0.931 . S
C955 H943 0.929 1_556 S
C955 C949 1.390 . S
C955 C952 1.386 . S
C956 C951 1.490 . S
C956 C958 1.395 . S
C956 C959 1.403 . S
H957 C963 0.930 . S
C958 H944 0.930 . S
C958 C956 1.395 . S
C958 C961 1.403 . S
C959 C956 1.403 . S
C959 C960 1.524 . S
C959 C963 1.400 . S
C960 H945 0.960 . S
C960 H946 0.960 . S
C960 H947 0.960 . S
C960 C959 1.524 . S
C961 C958 1.403 . S
C961 C962 1.392 . S
C961 C965 1.495 . S
C962 C961 1.392 . S
C962 C963 1.385 . S
C962 C964 1.478 . S
C963 H957 0.930 . S
C963 C959 1.400 . S
C963 C962 1.385 . S
C964 C962 1.478 . S
C964 C966 1.381 . S
C964 C970 1.383 . S
C965 C961 1.495 . S
C965 H971 0.959 . S
C965 H972 0.961 . S
C965 H973 0.960 . S
C966 C964 1.381 . S
C966 C967 1.394 . S
C966 H974 0.930 . S
C967 C966 1.394 . S
C967 C968 1.383 . S
C967 H975 0.929 . S
C968 C967 1.383 . S
C968 C969 1.377 . S
C969 H953 0.930 . S
C969 C968 1.377 . S
C969 C970 1.379 . S
C970 H954 0.931 . S
C970 C964 1.383 . S
C970 C969 1.379 . S
H971 C965 0.959 . S
H972 C965 0.961 . S
H973 C965 0.960 . S
H974 C966 0.930 . S
H975 C967 0.929 . S
H976 C984 0.929 . S
H977 C986 0.930 . S
H978 C988 0.930 . S
H979 C991 0.929 . S
H980 C994 0.930 . S
H981 C996 0.960 . S
H982 C996 0.960 . S
H983 C996 0.960 . S
C984 H976 0.929 . S
C984 C985 1.349 1_455 S
C984 C986 1.384 . S
C985 C984 1.349 1_655 S
C985 C991 1.419 . S
C986 H977 0.930 . S
C986 C984 1.384 . S
C986 C987 1.372 1_455 S
C987 C986 1.372 1_655 S
C987 C988 1.400 . S
C987 C992 1.490 . S
C988 H978 0.930 . S
C988 C987 1.400 . S
C988 C991 1.386 . S
H989 C1005 0.930 . S
H990 C1006 0.931 . S
C991 H979 0.929 . S
C991 C985 1.419 . S
C991 C988 1.386 . S
C992 C987 1.490 . S
C992 C994 1.395 1_655 S
C992 C995 1.403 . S
H993 C999 0.930 . S
C994 H980 0.930 . S
C994 C992 1.395 1_455 S
C994 C997 1.403 . S
C995 C992 1.403 . S
C995 C996 1.524 . S
C995 C999 1.400 . S
C996 H981 0.960 . S
C996 H982 0.960 . S
C996 H983 0.960 . S
C996 C995 1.524 . S
C997 C994 1.403 . S
C997 C998 1.392 1_455 S
C997 C1001 1.495 . S
C998 C997 1.392 1_655 S
C998 C999 1.385 . S
C998 C1000 1.478 . S
C999 H993 0.930 . S
C999 C995 1.400 . S
C999 C998 1.385 . S
C1000 C998 1.478 . S
C1000 C1002 1.381 1_655 S
C1000 C1006 1.383 . S
C1001 C997 1.495 . S
C1001 H1007 0.959 . S
C1001 H1008 0.961 1_455 S
C1001 H1009 0.960 . S
C1002 C1000 1.381 1_455 S
C1002 C1003 1.394 . S
C1002 H1010 0.930 . S
C1003 C1002 1.394 . S
C1003 C1004 1.383 1_455 S
C1003 H1011 0.929 . S
C1004 C1003 1.383 1_655 S
C1004 C1005 1.377 . S
C1005 H989 0.930 . S
C1005 C1004 1.377 . S
C1005 C1006 1.379 . S
C1006 H990 0.931 . S
C1006 C1000 1.383 . S
C1006 C1005 1.379 . S
H1007 C1001 0.959 . S
H1008 C1001 0.961 1_655 S
H1009 C1001 0.960 . S
H1010 C1002 0.930 . S
H1011 C1003 0.929 . S
H1012 C1020 0.929 . S
H1013 C1022 0.930 . S
H1014 C1024 0.930 . S
H1015 C1027 0.929 . S
H1016 C1030 0.932 . S
H1017 C1032 0.960 . S
H1018 C1032 0.960 1_545 S
H1019 C1032 0.960 . S
C1020 H1012 0.929 . S
C1020 C1021 1.364 1_545 S
C1020 C1022 1.384 . S
C1021 C1020 1.364 1_565 S
C1021 C1027 1.403 . S
C1022 H1013 0.930 . S
C1022 C1020 1.384 . S
C1022 C1023 1.372 1_545 S
C1023 C1022 1.372 1_565 S
C1023 C1024 1.400 . S
C1023 C1028 1.490 . S
C1024 H1014 0.930 . S
C1024 C1023 1.400 . S
C1024 C1027 1.386 . S
H1025 C1041 0.930 . S
H1026 C1042 0.931 . S
C1027 H1015 0.929 . S
C1027 C1021 1.403 . S
C1027 C1024 1.386 . S
C1028 C1023 1.490 . S
C1028 C1030 1.395 . S
C1028 C1031 1.403 . S
H1029 C1035 0.930 . S
C1030 H1016 0.932 . S
C1030 C1028 1.395 . S
C1030 C1033 1.403 . S
C1031 C1028 1.403 . S
C1031 C1032 1.524 . S
C1031 C1035 1.400 . S
C1032 H1017 0.960 . S
C1032 H1018 0.960 1_565 S
C1032 H1019 0.960 . S
C1032 C1031 1.524 . S
C1033 C1030 1.403 . S
C1033 C1034 1.392 . S
C1033 C1037 1.495 . S
C1034 C1033 1.392 . S
C1034 C1035 1.385 . S
C1034 C1036 1.478 . S
C1035 H1029 0.930 . S
C1035 C1031 1.400 . S
C1035 C1034 1.385 . S
C1036 C1034 1.478 . S
C1036 C1038 1.381 1_565 S
C1036 C1042 1.383 . S
C1037 C1033 1.495 . S
C1037 H1043 0.959 . S
C1037 H1044 0.961 . S
C1037 H1045 0.960 1_565 S
C1038 C1036 1.381 1_545 S
C1038 C1039 1.394 . S
C1038 H1046 0.930 . S
C1039 C1038 1.394 . S
C1039 C1040 1.383 1_545 S
C1039 H1047 0.929 . S
C1040 C1039 1.383 1_565 S
C1040 C1041 1.377 . S
C1041 H1025 0.930 . S
C1041 C1040 1.377 . S
C1041 C1042 1.379 . S
C1042 H1026 0.931 . S
C1042 C1036 1.383 . S
C1042 C1041 1.379 . S
H1043 C1037 0.959 . S
H1044 C1037 0.961 . S
H1045 C1037 0.960 1_545 S
H1046 C1038 0.930 . S
H1047 C1039 0.929 . S
H1048 C1056 0.929 . S
H1049 C1058 0.930 . S
H1050 C1060 0.930 . S
H1051 C1063 0.929 . S
H1052 C1066 0.930 . S
H1053 C1068 0.960 . S
H1054 C1068 0.960 . S
H1055 C1068 0.960 . S
C1056 H1048 0.929 . S
C1056 C1057 1.377 . S
C1056 C1058 1.384 . S
C1057 C1056 1.377 . S
C1057 C1063 1.390 . S
C1058 H1049 0.930 . S
C1058 C1056 1.384 . S
C1058 C1059 1.372 . S
C1059 C1058 1.372 . S
C1059 C1060 1.400 . S
C1059 C1064 1.490 . S
C1060 H1050 0.930 . S
C1060 C1059 1.400 . S
C1060 C1063 1.386 . S
H1061 C1077 0.930 . S
H1062 C1078 0.931 . S
C1063 H1051 0.929 . S
C1063 C1057 1.390 . S
C1063 C1060 1.386 . S
C1064 C1059 1.490 . S
C1064 C1066 1.395 . S
C1064 C1067 1.403 . S
H1065 C1071 0.930 . S
C1066 H1052 0.930 . S
C1066 C1064 1.395 . S
C1066 C1069 1.403 . S
C1067 C1064 1.403 . S
C1067 C1068 1.524 . S
C1067 C1071 1.400 . S
C1068 H1053 0.960 . S
C1068 H1054 0.960 . S
C1068 H1055 0.960 . S
C1068 C1067 1.524 . S
C1069 C1066 1.403 . S
C1069 C1070 1.392 . S
C1069 C1073 1.495 . S
C1070 C1069 1.392 . S
C1070 C1071 1.385 . S
C1070 C1072 1.478 . S
C1071 H1065 0.930 . S
C1071 C1067 1.400 . S
C1071 C1070 1.385 . S
C1072 C1070 1.478 . S
C1072 C1074 1.381 . S
C1072 C1078 1.383 . S
C1073 C1069 1.495 . S
C1073 H1079 0.959 . S
C1073 H1080 0.961 . S
C1073 H1081 0.960 . S
C1074 C1072 1.381 . S
C1074 C1075 1.394 . S
C1074 H1082 0.930 . S
C1075 C1074 1.394 . S
C1075 C1076 1.383 . S
C1075 H1083 0.929 . S
C1076 C1075 1.383 . S
C1076 C1077 1.377 . S
C1077 H1061 0.930 . S
C1077 C1076 1.377 . S
C1077 C1078 1.379 . S
C1078 H1062 0.931 . S
C1078 C1072 1.383 . S
C1078 C1077 1.379 . S
H1079 C1073 0.959 . S
H1080 C1073 0.961 . S
H1081 C1073 0.960 . S
H1082 C1074 0.930 . S
H1083 C1075 0.929 . S
H1084 C1092 0.929 . S
H1085 C1094 0.930 . S
H1086 C1096 0.930 . S
H1087 C1099 0.929 . S
H1088 C1102 0.930 . S
H1089 C1104 0.960 . S
H1090 C1104 0.960 . S
H1091 C1104 0.960 . S
C1092 H1084 0.929 . S
C1092 C1093 1.377 . S
C1092 C1094 1.384 . S
C1093 C1092 1.377 . S
C1093 C1099 1.390 . S
C1094 H1085 0.930 . S
C1094 C1092 1.384 . S
C1094 C1095 1.372 . S
C1095 C1094 1.372 . S
C1095 C1096 1.400 . S
C1095 C1100 1.490 . S
C1096 H1086 0.930 . S
C1096 C1095 1.400 . S
C1096 C1099 1.386 . S
H1097 C1113 0.930 . S
H1098 C1114 0.931 . S
C1099 H1087 0.929 . S
C1099 C1093 1.390 . S
C1099 C1096 1.386 . S
C1100 C1095 1.490 . S
C1100 C1102 1.395 . S
C1100 C1103 1.403 . S
H1101 C1107 0.930 . S
C1102 H1088 0.930 . S
C1102 C1100 1.395 . S
C1102 C1105 1.403 . S
C1103 C1100 1.403 . S
C1103 C1104 1.524 . S
C1103 C1107 1.400 . S
C1104 H1089 0.960 . S
C1104 H1090 0.960 . S
C1104 H1091 0.960 . S
C1104 C1103 1.524 . S
C1105 C1102 1.403 . S
C1105 C1106 1.392 . S
C1105 C1109 1.495 . S
C1106 C1105 1.392 . S
C1106 C1107 1.385 . S
C1106 C1108 1.478 . S
C1107 H1101 0.930 . S
C1107 C1103 1.400 . S
C1107 C1106 1.385 . S
C1108 C1106 1.478 . S
C1108 C1110 1.381 . S
C1108 C1114 1.383 . S
C1109 C1105 1.495 . S
C1109 H1115 0.959 . S
C1109 H1116 0.961 . S
C1109 H1117 0.960 . S
C1110 C1108 1.381 . S
C1110 C1111 1.394 . S
C1110 H1118 0.930 . S
C1111 C1110 1.394 . S
C1111 C1112 1.383 . S
C1111 H1119 0.929 . S
C1112 C1111 1.383 . S
C1112 C1113 1.377 . S
C1113 H1097 0.930 . S
C1113 C1112 1.377 . S
C1113 C1114 1.379 . S
C1114 H1098 0.931 . S
C1114 C1108 1.383 . S
C1114 C1113 1.379 . S
H1115 C1109 0.959 . S
H1116 C1109 0.961 . S
H1117 C1109 0.960 . S
H1118 C1110 0.930 . S
H1119 C1111 0.929 . S
C265 C76 1.762 1_545 S
C284 C114 1.848 . S
C320 C154 1.855 . S
C301 C88 1.760 . S
C356 C194 1.853 . S
C337 C52 1.767 . S
C392 C234 1.852 1_455 S
C373 C64 1.758 . S
C428 C104 1.862 . S
C409 C28 1.755 1_545 S
C445 C40 1.759 . S
C464 C144 1.855 . S
C481 C4 1.759 . S
C500 C184 1.853 . S
C517 C16 1.756 1_455 S
C536 C224 1.868 1_655 S
C572 C101 0.361 . S
C553 C69 0.376 . S
C608 C141 0.307 . S
C589 C81 0.363 . S
C644 C181 0.300 . S
C625 C93 0.355 . S
C661 C57 0.372 . S
C680 C221 0.357 . S
C697 C21 0.379 1_655 S
C716 C111 0.260 . S
C752 C151 0.267 . S
C733 C33 0.373 1_565 S
C788 C191 0.364 . S
C769 C45 0.359 . S
C805 C9 0.385 . S
C824 C231 0.295 . S
C841 C66 1.908 . S
C860 C105 2.068 . S
C877 C78 1.894 . S
C896 C145 2.058 . S
C932 C185 2.066 . S
C913 C90 1.897 . S
C968 C225 2.086 . S
C949 C54 1.902 . S
C985 C18 1.912 1_655 S
C1004 C115 2.083 . S
C1040 C155 2.069 . S
C1021 C30 1.902 1_565 S
C1076 C195 2.069 . S
C1057 C42 1.892 . S
C1093 C6 1.907 . S
C1112 C235 2.074 . S
