# Generated by pormake.
# Topology zzz, (3,6)-cn, num edge types: 1
# Building blocks:
#     Node 0, Type 0, BuildingBlock: PAMTOO_clean_linker_0, # of connection points: 3
#     Node 1, Type 0, BuildingBlock: PAMTOO_clean_linker_0, # of connection points: 3
#     Node 2, Type 0, BuildingBlock: PAMTOO_clean_linker_0, # of connection points: 3
#     Node 3, Type 0, BuildingBlock: PAMTOO_clean_linker_0, # of connection points: 3
#     Node 4, Type 0, BuildingBlock: PAMTOO_clean_linker_0, # of connection points: 3
#     Node 5, Type 0, BuildingBlock: PAMTOO_clean_linker_0, # of connection points: 3
#     Node 6, Type 0, BuildingBlock: PAMTOO_clean_linker_0, # of connection points: 3
#     Node 7, Type 0, BuildingBlock: PAMTOO_clean_linker_0, # of connection points: 3
#     Node 8, Type 1, BuildingBlock: VOLQOD_clean_sbu_1, # of connection points: 6
#     Node 9, Type 1, BuildingBlock: VOLQOD_clean_sbu_1, # of connection points: 6
#     Node 10, Type 1, BuildingBlock: VOLQOD_clean_sbu_1, # of connection points: 6
#     Node 11, Type 1, BuildingBlock: VOLQOD_clean_sbu_1, # of connection points: 6
#     Edge 12, Type (0, 1), BuildingBlock: MIFKUJ_clean_linker_0, # of connection points: 2
#     Edge 13, Type (0, 1), BuildingBlock: MIFKUJ_clean_linker_0, # of connection points: 2
#     Edge 14, Type (0, 1), BuildingBlock: MIFKUJ_clean_linker_0, # of connection points: 2
#     Edge 15, Type (0, 1), BuildingBlock: MIFKUJ_clean_linker_0, # of connection points: 2
#     Edge 16, Type (0, 1), BuildingBlock: MIFKUJ_clean_linker_0, # of connection points: 2
#     Edge 17, Type (0, 1), BuildingBlock: MIFKUJ_clean_linker_0, # of connection points: 2
#     Edge 18, Type (0, 1), BuildingBlock: MIFKUJ_clean_linker_0, # of connection points: 2
#     Edge 19, Type (0, 1), BuildingBlock: MIFKUJ_clean_linker_0, # of connection points: 2
#     Edge 20, Type (0, 1), BuildingBlock: MIFKUJ_clean_linker_0, # of connection points: 2
#     Edge 21, Type (0, 1), BuildingBlock: MIFKUJ_clean_linker_0, # of connection points: 2
#     Edge 22, Type (0, 1), BuildingBlock: MIFKUJ_clean_linker_0, # of connection points: 2
#     Edge 23, Type (0, 1), BuildingBlock: MIFKUJ_clean_linker_0, # of connection points: 2
#     Edge 24, Type (0, 1), BuildingBlock: MIFKUJ_clean_linker_0, # of connection points: 2
#     Edge 25, Type (0, 1), BuildingBlock: MIFKUJ_clean_linker_0, # of connection points: 2
#     Edge 26, Type (0, 1), BuildingBlock: MIFKUJ_clean_linker_0, # of connection points: 2
#     Edge 27, Type (0, 1), BuildingBlock: MIFKUJ_clean_linker_0, # of connection points: 2
#     Edge 28, Type (0, 1), BuildingBlock: MIFKUJ_clean_linker_0, # of connection points: 2
#     Edge 29, Type (0, 1), BuildingBlock: MIFKUJ_clean_linker_0, # of connection points: 2
#     Edge 30, Type (0, 1), BuildingBlock: MIFKUJ_clean_linker_0, # of connection points: 2
#     Edge 31, Type (0, 1), BuildingBlock: MIFKUJ_clean_linker_0, # of connection points: 2
#     Edge 32, Type (0, 1), BuildingBlock: MIFKUJ_clean_linker_0, # of connection points: 2
#     Edge 33, Type (0, 1), BuildingBlock: MIFKUJ_clean_linker_0, # of connection points: 2
#     Edge 34, Type (0, 1), BuildingBlock: MIFKUJ_clean_linker_0, # of connection points: 2
#     Edge 35, Type (0, 1), BuildingBlock: MIFKUJ_clean_linker_0, # of connection points: 2
# Relax obj value: 0.201
# Max RMSD: 0.239
# Mean RMSD: 0.108
data_MOF--net-zzz--node1-VOLQOD_clean_sbu_1--node2-PAMTOO_clean_linker_0--edge1-MIFKUJ_clean_linker_0
_symmetry_space_group_name_H-M    P1
_symmetry_Int_Tables_number       1
_symmetry_cell_setting            triclinic
loop_
_symmetry_equiv_pos_as_xyz
'x, y, z'
_cell_length_a     65.932484
_cell_length_b     65.487065
_cell_length_c     22.311223
_cell_angle_alpha  90.19588
_cell_angle_beta   89.928453
_cell_angle_gamma 90.781944
loop_
_atom_site_label
_atom_site_type_symbol
_atom_site_fract_x
_atom_site_fract_y
_atom_site_fract_z
_atom_type_partial_charge
H0 H 0.81793 0.50277 0.17248 0.0
H1 H 0.76334 0.51044 0.0699 0.0
H2 H 0.76844 0.53682 0.24617 0.0
H3 H 0.72148 0.52919 0.21286 0.0
C4 C 0.72774 0.52086 0.17365 0.0
O5 O 0.74461 0.5314 0.15283 0.0
H6 H 0.73175 0.50533 0.18976 0.0
C7 C 0.80256 0.50836 0.16884 0.0
C8 C 0.79446 0.51985 0.216 0.0
C9 C 0.79162 0.50497 0.1158 0.0
C10 C 0.77204 0.5129 0.11053 0.0
C11 C 0.76362 0.52412 0.15786 0.0
C12 C 0.77495 0.52792 0.21012 0.0
H13 H 0.01437 0.81258 0.17936 0.0
H14 H 0.00521 0.7575 0.07736 0.0
H15 H 0.98407 0.76084 0.25962 0.0
H16 H 0.99473 0.71617 0.2263 0.0
C17 C 0.9988 0.72082 0.17989 0.0
O18 O 0.98721 0.73736 0.16403 0.0
H19 H 0.01528 0.72487 0.17997 0.0
C20 C 0.00922 0.7968 0.17708 0.0
C21 C 0.99935 0.78805 0.22664 0.0
C22 C 0.01142 0.78601 0.12323 0.0
C23 C 0.00377 0.76598 0.1189 0.0
C24 C 0.99421 0.75682 0.16838 0.0
C25 C 0.99174 0.76793 0.22193 0.0
H26 H 0.68972 0.99107 0.18306 0.0
H27 H 0.7424 0.99968 0.0716 0.0
H28 H 0.74882 0.9783 0.25301 0.0
H29 H 0.78614 0.00224 0.21477 0.0
C30 C 0.78166 0.0034 0.16691 0.0
O31 O 0.76821 0.98774 0.15328 0.0
H32 H 0.77441 0.01851 0.16048 0.0
C33 C 0.70601 0.9903 0.17659 0.0
C34 C 0.71813 0.9838 0.22398 0.0
C35 C 0.71444 0.9959 0.12134 0.0
C36 C 0.73559 0.99555 0.11415 0.0
C37 C 0.74798 0.98919 0.16165 0.0
C38 C 0.73925 0.98339 0.21673 0.0
H39 H 0.48839 0.69341 0.1547 0.0
H40 H 0.49838 0.74959 0.05985 0.0
H41 H 0.52228 0.74254 0.23762 0.0
H42 H 0.51742 0.78973 0.20947 0.0
C43 C 0.50944 0.78446 0.16829 0.0
O44 O 0.51901 0.76735 0.14634 0.0
H45 H 0.49345 0.78087 0.18138 0.0
C46 C 0.49408 0.70901 0.15433 0.0
C47 C 0.50525 0.7165 0.20335 0.0
C48 C 0.49151 0.72073 0.10255 0.0
C49 C 0.49991 0.74049 0.10003 0.0
C50 C 0.51071 0.7484 0.14921 0.0
C51 C 0.51356 0.73637 0.20045 0.0
H52 H 0.19282 0.52108 0.21343 0.0
H53 H 0.24535 0.5154 0.32608 0.0
H54 H 0.24576 0.49072 0.14719 0.0
H55 H 0.28009 0.52517 0.2376 0.0
C56 C 0.28389 0.50869 0.23389 0.0
O57 O 0.26713 0.49646 0.24586 0.0
H58 H 0.28888 0.50571 0.1871 0.0
C59 C 0.20846 0.51658 0.21956 0.0
C60 C 0.21825 0.50602 0.17339 0.0
C61 C 0.21795 0.5199 0.27499 0.0
C62 C 0.23781 0.51303 0.28346 0.0
C63 C 0.24798 0.50291 0.23704 0.0
C64 C 0.23808 0.49909 0.1823 0.0
H65 H 0.038 0.1837 0.22444 0.0
H66 H 0.02487 0.242 0.30413 0.0
H67 H 0.06372 0.23854 0.14925 0.0
H68 H 0.07449 0.27807 0.22324 0.0
C69 C 0.06355 0.27264 0.25776 0.0
O70 O 0.04737 0.26309 0.22924 0.0
H71 H 0.0716 0.26171 0.2873 0.0
C72 C 0.03978 0.20019 0.22527 0.0
C73 C 0.05214 0.20964 0.18218 0.0
C74 C 0.02952 0.21161 0.26874 0.0
C75 C 0.03246 0.23288 0.2705 0.0
C76 C 0.04487 0.24256 0.22765 0.0
C77 C 0.05439 0.23098 0.18272 0.0
H78 H 0.31682 0.01047 0.20076 0.0
H79 H 0.26109 0.0069 0.30087 0.0
H80 H 0.25986 0.01946 0.11156 0.0
H81 H 0.22073 0.0372 0.17607 0.0
C82 C 0.22729 0.03187 0.21901 0.0
O83 O 0.23767 0.014 0.20865 0.0
H84 H 0.23774 0.04417 0.23561 0.0
C85 C 0.30039 0.01124 0.20232 0.0
C86 C 0.28963 0.0151 0.14965 0.0
C87 C 0.29031 0.00853 0.25705 0.0
C88 C 0.26908 0.00917 0.2589 0.0
C89 C 0.25813 0.01325 0.20648 0.0
C90 C 0.2684 0.01634 0.15189 0.0
H91 H 0.47424 0.31179 0.20044 0.0
H92 H 0.49271 0.25501 0.27864 0.0
H93 H 0.47895 0.25813 0.09052 0.0
H94 H 0.47597 0.20934 0.14201 0.0
C95 C 0.47588 0.21846 0.18405 0.0
O96 O 0.49003 0.23413 0.17871 0.0
H97 H 0.46029 0.22462 0.18949 0.0
C98 C 0.47662 0.29548 0.19669 0.0
C99 C 0.47511 0.28621 0.14024 0.0
C100 C 0.48321 0.28453 0.24681 0.0
C101 C 0.48741 0.26368 0.24059 0.0
C102 C 0.48535 0.25406 0.18461 0.0
C103 C 0.4796 0.26541 0.13417 0.0
O104 O 0.05626 0.00552 0.66636 0.0
Zn105 Zn 0.03608 0.00287 0.73458 0.0
O106 O 0.00796 0.00221 0.70351 0.0
Zn107 Zn 0.99291 0.02485 0.73725 0.0
Zn108 Zn 0.00809 0.00406 0.61562 0.0
Zn109 Zn 0.99392 0.97711 0.72725 0.0
O110 O 0.96791 0.01575 0.78233 0.0
O111 O 0.96932 0.98195 0.7795 0.0
O112 O 0.0408 0.02728 0.79004 0.0
O113 O 0.01037 0.04134 0.79308 0.0
O114 O 0.98468 0.04413 0.673 0.0
O115 O 0.99355 0.02942 0.58729 0.0
O116 O 0.9964 0.97825 0.57732 0.0
O117 O 0.04238 0.97656 0.77872 0.0
O118 O 0.98552 0.9604 0.65571 0.0
O119 O 0.01301 0.95948 0.77175 0.0
C120 C 0.05426 0.0071 0.60975 0.0
C121 C 0.96072 0.99828 0.79649 0.0
C122 C 0.98565 0.04419 0.61607 0.0
C123 C 0.02889 0.04108 0.80898 0.0
C124 C 0.98796 0.96232 0.59941 0.0
C125 C 0.03137 0.96079 0.78868 0.0
O126 O 0.0368 0.00687 0.58536 0.0
O127 O 0.50248 0.05763 0.66187 0.0
Zn128 Zn 0.50184 0.03655 0.72853 0.0
O129 O 0.50428 0.00857 0.69539 0.0
Zn130 Zn 0.4813 0.99149 0.71993 0.0
Zn131 Zn 0.50588 0.00948 0.60769 0.0
Zn132 Zn 0.52847 0.99578 0.72589 0.0
O133 O 0.48947 0.9662 0.76499 0.0
O134 O 0.52301 0.96853 0.76456 0.0
O135 O 0.47495 0.03934 0.77283 0.0
O136 O 0.46227 0.00762 0.7707 0.0
O137 O 0.46488 0.98284 0.64875 0.0
O138 O 0.48145 0.99549 0.57022 0.0
O139 O 0.53236 0.99785 0.57641 0.0
O140 O 0.52499 0.04319 0.78646 0.0
O141 O 0.54905 0.99199 0.66088 0.0
O142 O 0.54116 0.01357 0.78774 0.0
C143 C 0.50372 0.05603 0.60499 0.0
C144 C 0.50673 0.95899 0.77825 0.0
C145 C 0.46641 0.98571 0.59258 0.0
C146 C 0.46124 0.02624 0.78656 0.0
C147 C 0.54842 0.99266 0.60393 0.0
C148 C 0.53891 0.03174 0.80641 0.0
O149 O 0.50508 0.03865 0.57964 0.0
O150 O 0.46182 0.50049 0.6628 0.0
Zn151 Zn 0.48571 0.50291 0.72087 0.0
O152 O 0.51198 0.50271 0.67685 0.0
Zn153 Zn 0.52854 0.47966 0.701 0.0
Zn154 Zn 0.50694 0.50131 0.59085 0.0
Zn155 Zn 0.52779 0.52733 0.6931 0.0
O156 O 0.55527 0.48821 0.73917 0.0
O157 O 0.55353 0.52197 0.73815 0.0
O158 O 0.48387 0.4786 0.77859 0.0
O159 O 0.51342 0.46352 0.76262 0.0
O160 O 0.53318 0.46029 0.63198 0.0
O161 O 0.51778 0.47537 0.55592 0.0
O162 O 0.5181 0.52596 0.54715 0.0
O163 O 0.48238 0.53013 0.76538 0.0
O164 O 0.53429 0.54322 0.61855 0.0
O165 O 0.51131 0.54604 0.74238 0.0
C166 C 0.46105 0.5 0.60567 0.0
C167 C 0.56268 0.50571 0.75246 0.0
C168 C 0.5276 0.46046 0.57734 0.0
C169 C 0.49637 0.46431 0.78924 0.0
C170 C 0.52877 0.54126 0.56421 0.0
C171 C 0.49405 0.54585 0.76782 0.0
O172 O 0.47717 0.50049 0.5743 0.0
O173 O 0.97754 0.52779 0.60971 0.0
Zn174 Zn 0.00209 0.52632 0.6653 0.0
O175 O 0.00497 0.49855 0.69913 0.0
Zn176 Zn 0.00208 0.4995 0.78668 0.0
Zn177 Zn 0.98466 0.48015 0.66428 0.0
Zn178 Zn 0.03134 0.4874 0.67988 0.0
O179 O 0.02759 0.49014 0.82942 0.0
O180 O 0.04711 0.48084 0.75334 0.0
O181 O 0.99803 0.54713 0.73181 0.0
O182 O 0.99714 0.52833 0.81447 0.0
O183 O 0.97756 0.48302 0.8126 0.0
O184 O 0.96562 0.46974 0.72775 0.0
O185 O 0.99673 0.45643 0.61866 0.0
O186 O 0.02776 0.53493 0.62082 0.0
O187 O 0.02979 0.46201 0.62854 0.0
O188 O 0.04785 0.50845 0.63749 0.0
C189 C 0.9653 0.51389 0.59116 0.0
C190 C 0.04419 0.48305 0.80929 0.0
C191 C 0.9644 0.47233 0.78422 0.0
C192 C 0.99612 0.54557 0.7885 0.0
C193 C 0.015 0.45142 0.60807 0.0
C194 C 0.04483 0.52615 0.61646 0.0
O195 O 0.96705 0.49544 0.60783 0.0
H196 H 0.19705 0.00287 0.21351 0.0
H197 H 0.16832 0.99795 0.28234 0.0
H198 H 0.19043 0.04794 0.39158 0.0
H199 H 0.21915 0.05285 0.32301 0.0
H200 H 0.16597 0.98935 0.40359 0.0
H201 H 0.14877 0.0746 0.43947 0.0
H202 H 0.15295 0.10745 0.38671 0.0
H203 H 0.15161 0.0762 0.21721 0.0
H204 H 0.14715 0.04322 0.26892 0.0
H205 H 0.09419 0.00271 0.64154 0.0
H206 H 0.12413 0.00627 0.5771 0.0
H207 H 0.0857 0.02014 0.4268 0.0
H208 H 0.05575 0.01664 0.49059 0.0
H209 H 0.11821 0.04636 0.43458 0.0
H210 H 0.10548 0.97382 0.4381 0.0
H211 H 0.10003 0.94034 0.48615 0.0
H212 H 0.15888 0.94477 0.56774 0.0
H213 H 0.16457 0.97844 0.52081 0.0
C214 C 0.19584 0.01263 0.25262 0.0
C215 C 0.21034 0.02814 0.26323 0.0
C216 C 0.17949 0.00981 0.29188 0.0
C217 C 0.17719 0.02264 0.34189 0.0
C218 C 0.19183 0.03796 0.35302 0.0
C219 C 0.20824 0.04072 0.31396 0.0
C220 C 0.15911 0.02046 0.38119 0.0
C221 C 0.15557 0.00183 0.41058 0.0
C222 C 0.14541 0.03667 0.38976 0.0
C223 C 0.14785 0.05644 0.35813 0.0
C224 C 0.14931 0.07476 0.39094 0.0
C225 C 0.15173 0.0934 0.36122 0.0
C226 C 0.15261 0.09391 0.29866 0.0
C227 C 0.151 0.07578 0.26567 0.0
C228 C 0.14856 0.05711 0.29517 0.0
C229 C 0.0921 0.00653 0.59479 0.0
C230 C 0.07254 0.00932 0.57125 0.0
C231 C 0.10923 0.00849 0.558 0.0
C232 C 0.10712 0.01335 0.49708 0.0
C233 C 0.08767 0.01639 0.47368 0.0
C234 C 0.07055 0.01429 0.51023 0.0
C235 C 0.12515 0.01531 0.45749 0.0
C236 C 0.1287 0.03392 0.42803 0.0
C237 C 0.13871 0.99901 0.4484 0.0
C238 C 0.13536 0.97874 0.47644 0.0
C239 C 0.11719 0.96773 0.46668 0.0
C240 C 0.11407 0.94871 0.49364 0.0
C241 C 0.12907 0.94046 0.53011 0.0
C242 C 0.14726 0.95119 0.53956 0.0
C243 C 0.15044 0.97024 0.51275 0.0
H244 H 0.12663 0.92572 0.55093 0.0
H245 H 0.1545 0.10835 0.27574 0.0
H246 H 0.45016 0.19187 0.23939 0.0
H247 H 0.45745 0.1672 0.31822 0.0
H248 H 0.51969 0.18838 0.32318 0.0
H249 H 0.5126 0.2126 0.24288 0.0
H250 H 0.51915 0.14907 0.32604 0.0
H251 H 0.48537 0.20008 0.43724 0.0
H252 H 0.4586 0.22468 0.46179 0.0
H253 H 0.41511 0.17557 0.47732 0.0
H254 H 0.44156 0.15068 0.452 0.0
H255 H 0.50393 0.09626 0.64094 0.0
H256 H 0.50257 0.12662 0.57733 0.0
H257 H 0.50019 0.08818 0.42001 0.0
H258 H 0.50204 0.05794 0.48275 0.0
H259 H 0.47504 0.1402 0.50465 0.0
H260 H 0.52276 0.11031 0.30269 0.0
H261 H 0.55241 0.08847 0.2852 0.0
H262 H 0.57325 0.10025 0.46439 0.0
H263 H 0.54391 0.12237 0.48273 0.0
C264 C 0.46533 0.19143 0.25793 0.0
C265 C 0.48062 0.20452 0.23595 0.0
C266 C 0.46948 0.17737 0.30312 0.0
C267 C 0.48904 0.17616 0.32767 0.0
C268 C 0.50444 0.18911 0.30538 0.0
C269 C 0.50032 0.20307 0.25971 0.0
C270 C 0.49352 0.16075 0.37464 0.0
C271 C 0.50955 0.14721 0.36522 0.0
C272 C 0.48141 0.15863 0.42684 0.0
C273 C 0.46543 0.17352 0.44229 0.0
C274 C 0.47007 0.19453 0.44548 0.0
C275 C 0.45496 0.20853 0.45959 0.0
C276 C 0.43516 0.20169 0.471 0.0
C277 C 0.43045 0.18084 0.46844 0.0
C278 C 0.4455 0.16678 0.45428 0.0
C279 C 0.50325 0.09428 0.59277 0.0
C280 C 0.50319 0.07462 0.56705 0.0
C281 C 0.50243 0.11166 0.55646 0.0
C282 C 0.50155 0.10974 0.49376 0.0
C283 C 0.50132 0.09013 0.46813 0.0
C284 C 0.50228 0.0728 0.50423 0.0
C285 C 0.5002 0.1281 0.45485 0.0
C286 C 0.48475 0.14219 0.46577 0.0
C287 C 0.51324 0.1311 0.40503 0.0
C288 C 0.53103 0.1179 0.39418 0.0
C289 C 0.53372 0.10832 0.33827 0.0
C290 C 0.55046 0.09587 0.32823 0.0
C291 C 0.56468 0.09296 0.37368 0.0
C292 C 0.56219 0.10248 0.42928 0.0
C293 C 0.54549 0.11495 0.43955 0.0
H294 H 0.57767 0.0834 0.36575 0.0
H295 H 0.42348 0.21255 0.48192 0.0
H296 H 0.28162 0.50645 0.35666 0.0
H297 H 0.30941 0.50194 0.42818 0.0
H298 H 0.3519 0.49841 0.28133 0.0
H299 H 0.32409 0.50239 0.20994 0.0
H300 H 0.36052 0.47064 0.36365 0.0
H301 H 0.34525 0.54274 0.36485 0.0
H302 H 0.32307 0.57249 0.37719 0.0
H303 H 0.31091 0.55522 0.55937 0.0
H304 H 0.33284 0.52521 0.54783 0.0
H305 H 0.4546 0.49829 0.48504 0.0
H306 H 0.42248 0.49687 0.43188 0.0
H307 H 0.39015 0.49771 0.59997 0.0
H308 H 0.42253 0.49942 0.65423 0.0
H309 H 0.3737 0.5237 0.51862 0.0
H310 H 0.39271 0.45375 0.52013 0.0
H311 H 0.41559 0.4246 0.50709 0.0
H312 H 0.42113 0.43794 0.31946 0.0
H313 H 0.39851 0.46737 0.3315 0.0
C314 C 0.29686 0.5044 0.3398 0.0
C315 C 0.30068 0.50445 0.2778 0.0
C316 C 0.31275 0.50199 0.38064 0.0
C317 C 0.3328 0.50001 0.36021 0.0
C318 C 0.33656 0.49982 0.29821 0.0
C319 C 0.32068 0.50211 0.25744 0.0
C320 C 0.35003 0.49866 0.40299 0.0
C321 C 0.36346 0.48231 0.39727 0.0
C322 C 0.35357 0.51353 0.44822 0.0
C323 C 0.34049 0.53162 0.45526 0.0
C324 C 0.33773 0.54522 0.40739 0.0
C325 C 0.32522 0.56213 0.41427 0.0
C326 C 0.31553 0.56571 0.46897 0.0
C327 C 0.31839 0.55241 0.51698 0.0
C328 C 0.33087 0.53546 0.51032 0.0
C329 C 0.44073 0.49812 0.51108 0.0
C330 C 0.44122 0.4989 0.57413 0.0
C331 C 0.42232 0.49719 0.48043 0.0
C332 C 0.40389 0.49684 0.51188 0.0
C333 C 0.40421 0.49783 0.5748 0.0
C334 C 0.42272 0.49877 0.60573 0.0
C335 C 0.38444 0.49595 0.47822 0.0
C336 C 0.37059 0.51185 0.48564 0.0
C337 C 0.38054 0.48069 0.43444 0.0
C338 C 0.39399 0.46286 0.42683 0.0
C339 C 0.3989 0.45055 0.47615 0.0
C340 C 0.41181 0.43396 0.46893 0.0
C341 C 0.41983 0.42944 0.41251 0.0
C342 C 0.41491 0.44146 0.36314 0.0
C343 C 0.40201 0.45808 0.37013 0.0
H344 H 0.42984 0.4166 0.40702 0.0
H345 H 0.30585 0.57881 0.4742 0.0
H346 H 0.02776 0.29482 0.25156 0.0
H347 H 0.01852 0.32473 0.31095 0.0
H348 H 0.0758 0.32222 0.40383 0.0
H349 H 0.0848 0.29188 0.34581 0.0
H350 H 0.04723 0.32983 0.48112 0.0
H351 H 0.0664 0.3574 0.29057 0.0
H352 H 0.06572 0.36121 0.18068 0.0
H353 H 0.00301 0.37789 0.18872 0.0
H354 H 0.00325 0.37392 0.29867 0.0
H355 H 0.05103 0.43159 0.59524 0.0
H356 H 0.0578 0.40099 0.53572 0.0
H357 H 0.99551 0.39908 0.47726 0.0
H358 H 0.98847 0.42956 0.53739 0.0
H359 H 0.02522 0.39373 0.38328 0.0
H360 H 0.00759 0.36693 0.57741 0.0
H361 H 0.01015 0.36432 0.68735 0.0
H362 H 0.07263 0.34741 0.67155 0.0
H363 H 0.07052 0.35022 0.56148 0.0
C364 C 0.03829 0.30047 0.28512 0.0
C365 C 0.05689 0.29072 0.29492 0.0
C366 C 0.03307 0.31772 0.3187 0.0
C367 C 0.04652 0.32589 0.36166 0.0
C368 C 0.0651 0.31619 0.37125 0.0
C369 C 0.07024 0.29887 0.33809 0.0
C370 C 0.04134 0.34452 0.39671 0.0
C371 C 0.04265 0.34384 0.45953 0.0
C372 C 0.035 0.36279 0.36888 0.0
C373 C 0.03478 0.36514 0.30278 0.0
C374 C 0.05242 0.36171 0.26886 0.0
C375 C 0.05212 0.36393 0.20657 0.0
C376 C 0.03432 0.36973 0.17772 0.0
C377 C 0.01678 0.37337 0.21112 0.0
C378 C 0.01699 0.37115 0.27343 0.0
C379 C 0.03874 0.42469 0.56979 0.0
C380 C 0.01916 0.43299 0.57138 0.0
C381 C 0.04264 0.40718 0.53587 0.0
C382 C 0.02713 0.39773 0.50238 0.0
C383 C 0.00768 0.40615 0.50288 0.0
C384 C 0.00367 0.42351 0.53748 0.0
C385 C 0.03124 0.37895 0.46724 0.0
C386 C 0.02974 0.37964 0.40458 0.0
C387 C 0.03767 0.36079 0.49509 0.0
C388 C 0.03895 0.35899 0.56124 0.0
C389 C 0.02193 0.36283 0.5974 0.0
C390 C 0.02329 0.36128 0.65974 0.0
C391 C 0.04156 0.35575 0.68643 0.0
C392 C 0.0585 0.35171 0.65081 0.0
C393 C 0.05722 0.35327 0.58845 0.0
H394 H 0.04258 0.35455 0.7347 0.0
H395 H 0.03412 0.37144 0.12949 0.0
H396 H 0.80956 0.97292 0.16603 0.0
H397 H 0.8398 0.9698 0.1026 0.0
H398 H 0.82581 0.02705 0.01775 0.0
H399 H 0.79532 0.02982 0.07988 0.0
H400 H 0.83689 1.00059 0.93636 0.0
H401 H 0.8636 0.02262 0.12648 0.0
H402 H 0.8693 0.02115 0.23558 0.0
H403 H 0.89694 0.9625 0.21611 0.0
H404 H 0.89116 0.96351 0.1069 0.0
H405 H 0.93289 0.02812 0.81526 0.0
H406 H 0.90228 0.02635 0.877 0.0
H407 H 0.91579 0.96424 0.92446 0.0
H408 H 0.94642 0.96574 0.86193 0.0
H409 H 0.90516 0.99033 0.02373 0.0
H410 H 0.87992 0.96995 0.83114 0.0
H411 H 0.87499 0.97283 0.72201 0.0
H412 H 0.84516 0.03012 0.74686 0.0
H413 H 0.8502 0.02774 0.85616 0.0
C414 C 0.81302 0.98478 0.13375 0.0
C415 C 0.80026 0.00166 0.12802 0.0
C416 C 0.83032 0.98307 0.09778 0.0
C417 C 0.83528 0.99834 0.0559 0.0
C418 C 0.82235 0.01509 0.04975 0.0
C419 C 0.80499 0.01672 0.0854 0.0
C420 C 0.85382 0.99687 0.0181 0.0
C421 C 0.85183 0.99857 0.95564 0.0
C422 C 0.8733 0.9937 0.04294 0.0
C423 C 0.87673 0.99304 0.10861 0.0
C424 C 0.87074 0.00933 0.14552 0.0
C425 C 0.87401 0.0086 0.20737 0.0
C426 C 0.88342 0.99172 0.23279 0.0
C427 C 0.88962 0.97555 0.19637 0.0
C428 C 0.88636 0.9762 0.1345 0.0
C429 C 0.92937 0.01405 0.83871 0.0
C430 C 0.94208 0.99705 0.83356 0.0
C431 C 0.91184 0.01306 0.87383 0.0
C432 C 0.90674 0.99514 0.905 0.0
C433 C 0.91947 0.9782 0.90062 0.0
C434 C 0.93689 0.97906 0.8647 0.0
C435 C 0.88816 0.99433 0.94245 0.0
C436 C 0.89017 0.99221 0.00468 0.0
C437 C 0.86872 0.99728 0.91752 0.0
C438 C 0.86561 0.99875 0.85182 0.0
C439 C 0.87248 0.98325 0.81331 0.0
C440 C 0.86963 0.98478 0.75142 0.0
C441 C 0.85981 0.00167 0.7275 0.0
C442 C 0.85278 0.01706 0.76545 0.0
C443 C 0.85562 0.01562 0.82738 0.0
H444 H 0.85761 0.00282 0.67957 0.0
H445 H 0.88595 0.99118 0.28067 0.0
H446 H 0.47757 0.80277 0.11152 0.0
H447 H 0.47882 0.83097 0.03989 0.0
H448 H 0.54422 0.83186 0.04924 0.0
H449 H 0.5429 0.80394 0.12244 0.0
H450 H 0.53072 0.86936 0.05438 0.0
H451 H 0.51867 0.81227 0.92616 0.0
H452 H 0.50174 0.78068 0.89081 0.0
H453 H 0.44615 0.81306 0.86705 0.0
H454 H 0.46266 0.84481 0.90318 0.0
H455 H 0.54082 0.93837 0.81113 0.0
H456 H 0.54276 0.90719 0.87046 0.0
H457 H 0.47747 0.90441 0.88158 0.0
H458 H 0.47534 0.9354 0.82134 0.0
H459 H 0.4933 0.8669 0.86159 0.0
H460 H 0.50612 0.92361 0.99765 0.0
H461 H 0.52432 0.955 0.02918 0.0
H462 H 0.58037 0.9224 0.0335 0.0
H463 H 0.56251 0.89086 0.00136 0.0
C464 C 0.49219 0.80896 0.09806 0.0
C465 C 0.51016 0.80123 0.12231 0.0
C466 C 0.49292 0.82498 0.05689 0.0
C467 C 0.51164 0.83339 0.03849 0.0
C468 C 0.52961 0.82561 0.06264 0.0
C469 C 0.52887 0.80966 0.10416 0.0
C470 C 0.51235 0.85067 0.9954 0.0
C471 C 0.52281 0.86866 0.0118 0.0
C472 C 0.50185 0.84993 0.94004 0.0
C473 C 0.49187 0.83089 0.91788 0.0
C474 C 0.5028 0.81263 0.91382 0.0
C475 C 0.49328 0.7947 0.89358 0.0
C476 C 0.47287 0.79485 0.87682 0.0
C477 C 0.46195 0.81296 0.88011 0.0
C478 C 0.47139 0.83094 0.90042 0.0
C479 C 0.52684 0.9311 0.82587 0.0
C480 C 0.50791 0.93951 0.81177 0.0
C481 C 0.528 0.91328 0.85995 0.0
C482 C 0.51027 0.90363 0.88119 0.0
C483 C 0.49135 0.91163 0.86575 0.0
C484 C 0.49016 0.9294 0.83146 0.0
C485 C 0.51139 0.88557 0.92109 0.0
C486 C 0.5013 0.86747 0.90405 0.0
C487 C 0.52239 0.88613 0.97555 0.0
C488 C 0.53301 0.90493 0.99665 0.0
C489 C 0.52234 0.92316 0.00515 0.0
C490 C 0.53259 0.94098 0.02312 0.0
C491 C 0.5535 0.94071 0.03318 0.0
C492 C 0.56418 0.92259 0.02563 0.0
C493 C 0.55399 0.90473 0.00764 0.0
H494 H 0.56142 0.95453 0.04691 0.0
H495 H 0.46553 0.78095 0.86116 0.0
H496 H 0.70342 0.55109 0.13195 0.0
H497 H 0.67672 0.54857 0.05572 0.0
H498 H 0.68989 0.48473 0.03047 0.0
H499 H 0.71694 0.48743 0.10557 0.0
H500 H 0.68308 0.50192 0.92577 0.0
H501 H 0.649 0.50043 0.11517 0.0
H502 H 0.63975 0.5123 0.21647 0.0
H503 H 0.61684 0.5679 0.14286 0.0
H504 H 0.62622 0.55649 0.04112 0.0
H505 H 0.58804 0.4749 0.78668 0.0
H506 H 0.61754 0.47756 0.853 0.0
H507 H 0.60929 0.5426 0.86729 0.0
H508 H 0.5799 0.54015 0.80119 0.0
H509 H 0.61354 0.5242 0.97706 0.0
H510 H 0.64762 0.5246 0.78629 0.0
H511 H 0.65609 0.51143 0.68581 0.0
H512 H 0.67808 0.45612 0.76376 0.0
H513 H 0.66947 0.46886 0.86472 0.0
C514 C 0.70059 0.53658 0.10986 0.0
C515 C 0.71191 0.51938 0.12519 0.0
C516 C 0.68531 0.5351 0.06659 0.0
C517 C 0.68099 0.51634 0.0382 0.0
C518 C 0.69283 0.49932 0.05201 0.0
C519 C 0.7082 0.50084 0.09504 0.0
C520 C 0.66395 0.51442 0.99479 0.0
C521 C 0.66782 0.50656 0.93728 0.0
C522 C 0.64407 0.52072 0.00939 0.0
C523 C 0.63851 0.52769 0.07057 0.0
C524 C 0.64216 0.51527 0.12062 0.0
C525 C 0.63686 0.5219 0.17811 0.0
C526 C 0.62777 0.54086 0.18611 0.0
C527 C 0.62392 0.55323 0.1366 0.0
C528 C 0.62921 0.54668 0.07901 0.0
C529 C 0.59262 0.4898 0.80342 0.0
C530 C 0.58154 0.5073 0.78859 0.0
C531 C 0.60951 0.4913 0.84122 0.0
C532 C 0.61563 0.51029 0.86498 0.0
C533 C 0.60482 0.52779 0.84952 0.0
C534 C 0.58804 0.52635 0.81148 0.0
C535 C 0.63272 0.51187 0.90807 0.0
C536 C 0.62882 0.5196 0.96561 0.0
C537 C 0.65249 0.50527 0.89367 0.0
C538 C 0.6577 0.4976 0.83302 0.0
C539 C 0.65409 0.50956 0.78198 0.0
C540 C 0.65895 0.50218 0.72494 0.0
C541 C 0.66757 0.48293 0.71839 0.0
C542 C 0.67138 0.47102 0.7689 0.0
C543 C 0.66653 0.47832 0.82604 0.0
H544 H 0.67133 0.47725 0.6742 0.0
H545 H 0.62366 0.54596 0.23064 0.0
H546 H 0.97804 0.68468 0.19831 0.0
H547 H 0.97456 0.65558 0.12946 0.0
H548 H 0.00832 0.68883 0.99483 0.0
H549 H 0.01171 0.71802 0.06371 0.0
H550 H 0.97559 0.66762 0.94687 0.0
H551 H 0.03172 0.65387 0.07952 0.0
H552 H 0.04802 0.64973 0.1781 0.0
H553 H 0.00569 0.60162 0.22181 0.0
H554 H 0.98898 0.60566 0.12374 0.0
H555 H 0.00553 0.5852 0.75957 0.0
H556 H 0.00306 0.61538 0.82383 0.0
H557 H 0.97713 0.57827 0.96471 0.0
H558 H 0.98031 0.54796 0.90147 0.0
H559 H 0.00442 0.60158 0.01055 0.0
H560 H 0.94882 0.6135 0.87893 0.0
H561 H 0.93137 0.61733 0.78201 0.0
H562 H 0.9704 0.66813 0.73805 0.0
H563 H 0.98828 0.66444 0.83439 0.0
C564 C 0.98459 0.68579 0.15388 0.0
C565 C 0.99536 0.70345 0.13639 0.0
C566 C 0.98264 0.66917 0.11465 0.0
C567 C 0.99143 0.66991 0.05727 0.0
C568 C 0.00146 0.68789 0.0389 0.0
C569 C 0.00345 0.7045 0.0782 0.0
C570 C 0.99091 0.65167 0.0174 0.0
C571 C 0.98206 0.65321 0.96043 0.0
C572 C 0.99886 0.63272 0.03576 0.0
C573 C 0.00899 0.63021 0.09455 0.0
C574 C 0.0258 0.64251 0.11033 0.0
C575 C 0.03513 0.64016 0.16608 0.0
C576 C 0.02786 0.62546 0.20625 0.0
C577 C 0.01129 0.61302 0.19068 0.0
C578 C 0.0019 0.61532 0.13501 0.0
C579 C 0.99912 0.58351 0.80405 0.0
C580 C 0.9932 0.56417 0.8255 0.0
C581 C 0.99761 0.60082 0.84072 0.0
C582 C 0.9897 0.59923 0.89912 0.0
C583 C 0.98336 0.57995 0.92001 0.0
C584 C 0.98516 0.56261 0.88375 0.0
C585 C 0.98904 0.61738 0.9396 0.0
C586 C 0.99777 0.61588 0.99681 0.0
C587 C 0.98076 0.63626 0.9216 0.0
C588 C 0.97001 0.63857 0.86368 0.0
C589 C 0.95378 0.6254 0.84841 0.0
C590 C 0.9438 0.62756 0.79361 0.0
C591 C 0.9498 0.64293 0.75384 0.0
C592 C 0.96578 0.65621 0.76887 0.0
C593 C 0.97583 0.65411 0.8236 0.0
H594 H 0.94206 0.64458 0.71143 0.0
H595 H 0.0351 0.62366 0.24939 0.0
H596 H 0.00188 0.18168 0.2434 0.0
H597 H 0.98588 0.15826 0.31341 0.0
H598 H 0.00958 0.19376 0.46171 0.0
H599 H 0.02693 0.21664 0.39084 0.0
H600 H 0.01881 0.15715 0.47868 0.0
H601 H 0.95619 0.1868 0.43254 0.0
H602 H 0.92892 0.20126 0.37105 0.0
H603 H 0.91977 0.14329 0.28405 0.0
H604 H 0.94719 0.12852 0.34434 0.0
H605 H 0.97604 0.08102 0.66539 0.0
H606 H 0.97454 0.1138 0.61435 0.0
H607 H 0.98149 0.08358 0.44384 0.0
H608 H 0.98348 0.05053 0.49455 0.0
H609 H 0.9524 0.12143 0.45508 0.0
H610 H 0.02186 0.09655 0.49046 0.0
H611 H 0.04792 0.08285 0.55802 0.0
H612 H 0.04157 0.1348 0.67421 0.0
H613 H 0.01522 0.14862 0.60765 0.0
C614 C 0.00348 0.18468 0.29096 0.0
C615 C 0.01603 0.20073 0.31167 0.0
C616 C 0.99401 0.17142 0.33115 0.0
C617 C 0.99634 0.17421 0.39317 0.0
C618 C 0.00756 0.19124 0.41407 0.0
C619 C 0.01735 0.20441 0.37361 0.0
C620 C 0.98963 0.15773 0.43476 0.0
C621 C 0.00403 0.1498 0.47445 0.0
C622 C 0.97043 0.14781 0.42933 0.0
C623 C 0.95384 0.15657 0.39292 0.0
C624 C 0.94846 0.17715 0.40004 0.0
C625 C 0.93296 0.1854 0.36541 0.0
C626 C 0.92263 0.17321 0.32364 0.0
C627 C 0.92777 0.15272 0.31647 0.0
C628 C 0.94327 0.14438 0.35097 0.0
C629 C 0.97673 0.08117 0.61689 0.0
C630 C 0.98019 0.06313 0.58407 0.0
C631 C 0.9758 0.09997 0.58789 0.0
C632 C 0.978 0.10103 0.52557 0.0
C633 C 0.97968 0.08296 0.49208 0.0
C634 C 0.98092 0.06412 0.52114 0.0
C635 C 0.98176 0.12096 0.49665 0.0
C636 C 0.96688 0.12932 0.45975 0.0
C637 C 1.00032 0.13157 0.50532 0.0
C638 C 0.01644 0.12348 0.54455 0.0
C639 C 0.02592 0.10495 0.53067 0.0
C640 C 0.04075 0.09718 0.56871 0.0
C641 C 0.04635 0.10792 0.62049 0.0
C642 C 0.03719 0.12649 0.63416 0.0
C643 C 0.02231 0.13429 0.59629 0.0
H644 H 0.05783 0.10188 0.64992 0.0
H645 H 0.91063 0.17963 0.29686 0.0
H646 H 0.31983 0.03316 0.30134 0.0
H647 H 0.34649 0.02345 0.37118 0.0
H648 H 0.31586 0.96588 0.40255 0.0
H649 H 0.289 0.97557 0.3319 0.0
H650 H 0.34118 0.99137 0.50872 0.0
H651 H 0.34439 0.95721 0.31207 0.0
H652 H 0.34009 0.9592 0.20241 0.0
H653 H 0.38511 0.0071 0.19399 0.0
H654 H 0.38937 0.00566 0.30382 0.0
H655 H 0.43577 0.9583 0.61598 0.0
H656 H 0.40316 0.95557 0.56429 0.0
H657 H 0.42389 0.99992 0.43445 0.0
H658 H 0.45669 0.00204 0.48426 0.0
H659 H 0.40043 0.97443 0.38103 0.0
H660 H 0.39647 0.01266 0.566 0.0
H661 H 0.39939 0.01814 0.67508 0.0
H662 H 0.35613 0.96976 0.70651 0.0
H663 H 0.35315 0.9638 0.59748 0.0
C664 C 0.31842 0.01875 0.32481 0.0
C665 C 0.30257 0.005 0.31113 0.0
C666 C 0.33359 0.01325 0.36468 0.0
C667 C 0.33313 0.99392 0.39135 0.0
C668 C 0.31632 0.9809 0.38242 0.0
C669 C 0.30104 0.98643 0.34226 0.0
C670 C 0.35188 0.98636 0.41894 0.0
C671 C 0.35403 0.98705 0.48128 0.0
C672 C 0.36869 0.98145 0.3825 0.0
C673 C 0.36713 0.98138 0.31613 0.0
C674 C 0.35334 0.96819 0.28682 0.0
C675 C 0.35089 0.96924 0.22466 0.0
C676 C 0.36229 0.98329 0.19126 0.0
C677 C 0.37629 0.99622 0.21992 0.0
C678 C 0.37874 0.99527 0.28211 0.0
C679 C 0.43353 0.96706 0.57547 0.0
C680 C 0.44872 0.98056 0.55454 0.0
C681 C 0.41483 0.9656 0.54626 0.0
C682 C 0.41084 0.97798 0.49652 0.0
C683 C 0.42653 0.99028 0.47296 0.0
C684 C 0.44534 0.99147 0.50147 0.0
C685 C 0.39004 0.97951 0.47156 0.0
C686 C 0.3875 0.97792 0.40923 0.0
C687 C 0.37301 0.98406 0.50814 0.0
C688 C 0.37481 0.98759 0.57366 0.0
C689 C 0.38771 0.00308 0.59619 0.0
C690 C 0.38936 0.00628 0.65799 0.0
C691 C 0.37804 0.99423 0.6977 0.0
C692 C 0.36495 0.97902 0.67568 0.0
C693 C 0.36328 0.97572 0.61389 0.0
H694 H 0.37937 0.99671 0.7455 0.0
H695 H 0.3603 0.98415 0.14318 0.0
H696 H 0.51835 0.28344 0.31123 0.0
H697 H 0.53052 0.30989 0.38109 0.0
H698 H 0.4724 0.33906 0.37294 0.0
H699 H 0.45997 0.31247 0.3046 0.0
H700 H 0.51672 0.35809 0.32233 0.0
H701 H 0.47482 0.33088 0.48864 0.0
H702 H 0.46534 0.30352 0.55948 0.0
H703 H 0.5268 0.30144 0.62248 0.0
H704 H 0.53667 0.3286 0.55125 0.0
H705 H 0.50844 0.45121 0.47241 0.0
H706 H 0.50642 0.41822 0.42295 0.0
H707 H 0.54951 0.39397 0.54868 0.0
H708 H 0.55088 0.42696 0.60055 0.0
H709 H 0.51956 0.36913 0.54214 0.0
H710 H 0.56014 0.40116 0.39257 0.0
H711 H 0.57139 0.42721 0.31978 0.0
H712 H 0.51594 0.41914 0.22127 0.0
H713 H 0.50419 0.39331 0.29396 0.0
C714 C 0.50787 0.29491 0.32669 0.0
C715 C 0.48828 0.29605 0.30214 0.0
C716 C 0.51488 0.31006 0.36625 0.0
C717 C 0.50233 0.32635 0.38179 0.0
C718 C 0.48222 0.32648 0.36161 0.0
C719 C 0.47517 0.31133 0.32258 0.0
C720 C 0.51099 0.34503 0.40905 0.0
C721 C 0.51734 0.36067 0.37038 0.0
C722 C 0.51248 0.34782 0.4715 0.0
C723 C 0.50654 0.3315 0.514 0.0
C724 C 0.48636 0.32439 0.517 0.0
C725 C 0.4809 0.30898 0.55739 0.0
C726 C 0.49548 0.30068 0.59528 0.0
C727 C 0.51553 0.30783 0.59299 0.0
C728 C 0.52106 0.32323 0.55264 0.0
C729 C 0.51789 0.43905 0.48888 0.0
C730 C 0.52978 0.44174 0.54065 0.0
C731 C 0.51679 0.42012 0.46021 0.0
C732 C 0.52797 0.40356 0.48155 0.0
C733 C 0.54071 0.40649 0.53137 0.0
C734 C 0.54156 0.42539 0.5608 0.0
C735 C 0.52467 0.38288 0.45536 0.0
C736 C 0.51938 0.3667 0.49403 0.0
C737 C 0.52433 0.37954 0.39255 0.0
C738 C 0.53124 0.39533 0.34905 0.0
C739 C 0.55026 0.40506 0.35571 0.0
C740 C 0.55674 0.41978 0.31438 0.0
C741 C 0.54438 0.42484 0.26596 0.0
C742 C 0.5255 0.41521 0.25878 0.0
C743 C 0.51894 0.40051 0.30002 0.0
H744 H 0.54944 0.43621 0.23396 0.0
H745 H 0.49122 0.28877 0.62654 0.0
H746 H 0.19387 0.55347 0.27344 0.0
H747 H 0.16755 0.56193 0.34632 0.0
H748 H 0.18815 0.51373 0.46168 0.0
H749 H 0.21427 0.50496 0.38835 0.0
H750 H 0.14904 0.5088 0.43142 0.0
H751 H 0.19069 0.56292 0.50818 0.0
H752 H 0.2127 0.59361 0.50349 0.0
H753 H 0.16395 0.62774 0.42754 0.0
H754 H 0.14171 0.59717 0.43096 0.0
H755 H 0.07906 0.53916 0.67084 0.0
H756 H 0.11148 0.54701 0.62166 0.0
H757 H 0.08245 0.54196 0.44903 0.0
H758 H 0.04982 0.53464 0.49838 0.0
H759 H 0.12741 0.5748 0.51917 0.0
H760 H 0.10946 0.50197 0.38816 0.0
H761 H 0.0874 0.47131 0.39595 0.0
H762 H 0.09102 0.47418 0.58798 0.0
H763 H 0.11341 0.50457 0.5812 0.0
C764 C 0.19311 0.54506 0.31514 0.0
C765 C 0.20594 0.52842 0.32504 0.0
C766 C 0.17816 0.54998 0.35688 0.0
C767 C 0.17586 0.5384 0.40927 0.0
C768 C 0.1897 0.52284 0.42144 0.0
C769 C 0.20469 0.51793 0.37975 0.0
C770 C 0.15731 0.54041 0.44615 0.0
C771 C 0.1445 0.52322 0.45104 0.0
C772 C 0.15126 0.55924 0.47143 0.0
C773 C 0.16457 0.57769 0.46942 0.0
C774 C 0.1847 0.57692 0.49002 0.0
C775 C 0.19721 0.59431 0.48768 0.0
C776 C 0.18974 0.6126 0.46512 0.0
C777 C 0.16972 0.61355 0.44498 0.0
C778 C 0.15714 0.59621 0.44719 0.0
C779 C 0.07948 0.54072 0.6225 0.0
C780 C 0.06211 0.5365 0.58806 0.0
C781 C 0.09794 0.54524 0.59456 0.0
C782 C 0.09927 0.54501 0.5319 0.0
C783 C 0.08158 0.54235 0.49752 0.0
C784 C 0.06302 0.53821 0.52556 0.0
C785 C 0.11933 0.54331 0.50318 0.0
C786 C 0.13223 0.56046 0.49974 0.0
C787 C 0.12569 0.5244 0.47964 0.0
C788 C 0.11286 0.50568 0.48413 0.0
C789 C 0.10561 0.49598 0.43199 0.0
C790 C 0.09306 0.47865 0.43624 0.0
C791 C 0.08773 0.47085 0.49243 0.0
C792 C 0.09508 0.48028 0.54449 0.0
C793 C 0.10769 0.49756 0.54046 0.0
H794 H 0.07796 0.45748 0.49563 0.0
H795 H 0.19945 0.62604 0.46335 0.0
H796 H 0.99436 0.79097 0.01331 0.0
H797 H 0.00415 0.81682 0.93907 0.0
H798 H 0.05722 0.83226 0.04364 0.0
H799 H 0.04755 0.8064 0.11742 0.0
H800 H 0.00467 0.85617 0.9729 0.0
H801 H 0.09277 0.85548 0.95335 0.0
H802 H 0.12019 0.83034 0.9462 0.0
H803 H 0.07838 0.78595 0.87357 0.0
H804 H 0.05079 0.81089 0.87944 0.0
H805 H 0.03688 0.95444 0.90753 0.0
H806 H 0.04077 0.92095 0.9551 0.0
H807 H 0.04705 0.8929 0.78095 0.0
H808 H 0.04311 0.92632 0.73358 0.0
H809 H 0.07013 0.87333 0.87378 0.0
H810 H 0.00232 0.89586 0.82879 0.0
H811 H 0.97464 0.92081 0.83118 0.0
H812 H 0.9743 0.9191 0.02357 0.0
H813 H 0.00227 0.89442 0.02229 0.0
C814 C 0.00854 0.7993 0.01899 0.0
C815 C 0.02016 0.79685 0.07105 0.0
C816 C 0.01404 0.81414 0.97688 0.0
C817 C 0.03135 0.82653 0.98603 0.0
C818 C 0.04392 0.82278 0.03534 0.0
C819 C 0.03836 0.80805 0.07754 0.0
C820 C 0.03448 0.84534 0.9503 0.0
C821 C 0.01894 0.85978 0.95082 0.0
C822 C 0.0531 0.8501 0.92156 0.0
C823 C 0.06966 0.83504 0.91734 0.0
C824 C 0.08944 0.84039 0.93559 0.0
C825 C 0.10502 0.82616 0.93181 0.0
C826 C 0.10102 0.80655 0.90961 0.0
C827 C 0.08145 0.80113 0.89099 0.0
C828 C 0.06582 0.8153 0.89464 0.0
C829 C 0.04002 0.94123 0.87983 0.0
C830 C 0.03991 0.94277 0.81725 0.0
C831 C 0.04214 0.92215 0.90684 0.0
C832 C 0.04401 0.90449 0.87136 0.0
C833 C 0.04575 0.90636 0.809 0.0
C834 C 0.04351 0.9254 0.78205 0.0
C835 C 0.04052 0.88409 0.898 0.0
C836 C 0.0559 0.86951 0.89573 0.0
C837 C 0.02165 0.87899 0.9246 0.0
C838 C 0.0045 0.89344 0.92545 0.0
C839 C 0.99642 0.9009 0.8716 0.0
C840 C 0.98068 0.91499 0.87275 0.0
C841 C 0.97274 0.92157 0.9275 0.0
C842 C 0.98049 0.91401 0.9812 0.0
C843 C 0.99628 0.89997 0.98029 0.0
H844 H 0.96056 0.93249 0.92831 0.0
H845 H 0.1131 0.79555 0.90674 0.0
H846 H 0.71645 0.02946 0.04731 0.0
H847 H 0.68923 0.0417 0.98181 0.0
H848 H 0.65332 0.98804 0.0249 0.0
H849 H 0.68072 0.97533 0.08584 0.0
H850 H 0.64543 0.9964 0.92046 0.0
H851 H 0.65032 0.03732 0.10144 0.0
H852 H 0.6672 0.06077 0.17302 0.0
H853 H 0.67423 0.10575 0.03464 0.0
H854 H 0.65757 0.08244 0.96207 0.0
H855 H 0.54566 0.01753 0.9174 0.0
H856 H 0.57821 0.01953 0.96935 0.0
H857 H 0.60012 0.06323 0.83959 0.0
H858 H 0.56721 0.06159 0.78816 0.0
H859 H 0.61797 0.06462 0.9702 0.0
H860 H 0.60451 0.01947 0.79681 0.0
H861 H 0.58154 0.99468 0.74732 0.0
H862 H 0.58651 0.95412 0.897 0.0
H863 H 0.60883 0.97905 0.94871 0.0
C864 C 0.70297 0.02006 0.04095 0.0
C865 C 0.70049 0.00164 0.0724 0.0
C866 C 0.68731 0.02718 0.00431 0.0
C867 C 0.66891 0.01611 -0.00035 0.0
C868 C 0.66721 0.99701 0.02771 0.0
C869 C 0.68288 0.98978 0.06301 0.0
C870 C 0.65074 0.02447 0.96926 0.0
C871 C 0.63959 0.01138 0.93131 0.0
C872 C 0.64296 0.04407 0.9828 0.0
C873 C 0.65297 0.05807 0.02623 0.0
C874 C 0.6556 0.05217 0.08623 0.0
C875 C 0.6651 0.06543 0.12697 0.0
C876 C 0.67185 0.08471 0.10833 0.0
C877 C 0.66905 0.09079 0.04896 0.0
C878 C 0.65958 0.07756 0.00801 0.0
C879 C 0.55701 0.02847 0.90216 0.0
C880 C 0.55406 0.03944 0.84912 0.0
C881 C 0.5756 0.02956 0.93168 0.0
C882 C 0.5916 0.04125 0.90756 0.0
C883 C 0.58789 0.05418 0.85886 0.0
C884 C 0.5691 0.05328 0.82964 0.0
C885 C 0.61264 0.03617 0.92412 0.0
C886 C 0.62423 0.04989 0.95858 0.0
C887 C 0.62049 0.01675 0.90981 0.0
C888 C 0.6083 0.00118 0.87667 0.0
C889 C 0.6007 0.00528 0.8192 0.0
C890 C 0.58778 0.99121 0.79075 0.0
C891 C 0.58269 0.97278 0.81869 0.0
C892 C 0.59051 0.96837 0.87527 0.0
C893 C 0.60327 0.98249 0.90424 0.0
H894 H 0.57265 0.96195 0.79653 0.0
H895 H 0.6792 0.09496 0.13993 0.0
H896 H 0.45394 0.70332 0.09359 0.0
H897 H 0.44393 0.67688 0.0212 0.0
H898 H 0.49947 0.6876 0.92303 0.0
H899 H 0.50917 0.71442 0.99436 0.0
H900 H 0.46968 0.67353 0.84899 0.0
H901 H 0.49907 0.65482 0.04046 0.0
H902 H 0.50035 0.65474 0.15102 0.0
H903 H 0.44114 0.62668 0.15757 0.0
H904 H 0.43948 0.62673 0.04696 0.0
H905 H 0.51451 0.58214 0.77114 0.0
H906 H 0.504 0.61412 0.81525 0.0
H907 H 0.44815 0.58584 0.87517 0.0
H908 H 0.45863 0.55321 0.83044 0.0
H909 H 0.46827 0.60864 0.96347 0.0
H910 H 0.44602 0.6193 0.76307 0.0
H911 H 0.44864 0.61928 0.65282 0.0
H912 H 0.49824 0.66232 0.66199 0.0
H913 H 0.49617 0.66236 0.77234 0.0
C914 C 0.4635 0.70065 0.05489 0.0
C915 C 0.48237 0.7107 0.04955 0.0
C916 C 0.45785 0.68548 0.01382 0.0
C917 C 0.47123 0.67989 0.96777 0.0
C918 C 0.48896 0.6916 0.9584 0.0
C919 C 0.49449 0.70697 0.99906 0.0
C920 C 0.46877 0.65996 0.93664 0.0
C921 C 0.46924 0.65932 0.87382 0.0
C922 C 0.46792 0.64142 0.96923 0.0
C923 C 0.46905 0.64098 0.0356 0.0
C924 C 0.4863 0.64869 0.06554 0.0
C925 C 0.4871 0.64864 0.12816 0.0
C926 C 0.4708 0.64079 0.1613 0.0
C927 C 0.45373 0.63282 0.13184 0.0
C928 C 0.45286 0.63282 0.0692 0.0
C929 C 0.49993 0.58254 0.79351 0.0
C930 C 0.48741 0.56499 0.79719 0.0
C931 C 0.49387 0.60099 0.81825 0.0
C932 C 0.47512 0.60248 0.84731 0.0
C933 C 0.46259 0.58502 0.85217 0.0
C934 C 0.46863 0.56641 0.82685 0.0
C935 C 0.46963 0.62214 0.87568 0.0
C936 C 0.46788 0.62277 0.93827 0.0
C937 C 0.46974 0.64063 0.84277 0.0
C938 C 0.47096 0.64078 0.77619 0.0
C939 C 0.45758 0.62867 0.74166 0.0
C940 C 0.45895 0.62867 0.67909 0.0
C941 C 0.4736 0.64078 0.65042 0.0
C942 C 0.48689 0.65295 0.68426 0.0
C943 C 0.48559 0.653 0.74684 0.0
H944 H 0.47466 0.64073 0.602 0.0
H945 H 0.47143 0.64083 0.20978 0.0
H946 H 0.79495 0.51809 0.0003 0.0
H947 H 0.8192 0.50594 0.92534 0.0
H948 H 0.8364 0.45725 0.04401 0.0
H949 H 0.81196 0.46909 0.11818 0.0
H950 H 0.8582 0.50788 0.94859 0.0
H951 H 0.85847 0.41884 0.96791 0.0
H952 H 0.83367 0.39041 0.97461 0.0
H953 H 0.78851 0.42729 0.89083 0.0
H954 H 0.8131 0.45584 0.88279 0.0
H955 H 0.95552 0.47578 0.90367 0.0
H956 H 0.92179 0.47441 0.9486 0.0
H957 H 0.89637 0.45418 0.7803 0.0
H958 H 0.93009 0.4552 0.73492 0.0
H959 H 0.87554 0.43801 0.88049 0.0
H960 H 0.89781 0.50269 0.80233 0.0
H961 H 0.92234 0.53111 0.7895 0.0
H962 H 0.91972 0.54399 0.97815 0.0
H963 H 0.89542 0.5154 0.99227 0.0
C964 C 0.80331 0.5043 0.00922 0.0
C965 C 0.80178 0.49463 0.06514 0.0
C966 C 0.81725 0.49745 0.9666 0.0
C967 C 0.82969 0.48075 0.97916 0.0
C968 C 0.82685 0.47002 0.03293 0.0
C969 C 0.81297 0.47687 0.07548 0.0
C970 C 0.84776 0.4766 0.94161 0.0
C971 C 0.86181 0.49263 0.93311 0.0
C972 C 0.85247 0.45674 0.92092 0.0
C973 C 0.83763 0.43955 0.92514 0.0
C974 C 0.84328 0.42086 0.95061 0.0
C975 C 0.82925 0.40472 0.95472 0.0
C976 C 0.80951 0.40706 0.9333 0.0
C977 C 0.80378 0.42553 0.90761 0.0
C978 C 0.81776 0.44171 0.90337 0.0
C979 C 0.9429 0.47042 0.87657 0.0
C980 C 0.94547 0.46605 0.81531 0.0
C981 C 0.92361 0.46968 0.90234 0.0
C982 C 0.90659 0.46468 0.86726 0.0
C983 C 0.90933 0.4582 0.80794 0.0
C984 C 0.92865 0.45886 0.7821 0.0
C985 C 0.88601 0.46912 0.88992 0.0
C986 C 0.87165 0.45324 0.89545 0.0
C987 C 0.88076 0.4892 0.90697 0.0
C988 C 0.8949 0.50681 0.89841 0.0
C989 C 0.90253 0.51152 0.84112 0.0
C990 C 0.91641 0.52766 0.83362 0.0
C991 C 0.92263 0.53932 0.883 0.0
C992 C 0.91491 0.53493 0.93995 0.0
C993 C 0.90107 0.51877 0.94772 0.0
H994 H 0.9334 0.55178 0.87713 0.0
H995 H 0.79867 0.39455 0.93653 0.0
H996 H 0.07812 0.17859 0.20031 0.0
H997 H 0.08398 0.15005 0.1318 0.0
H998 H 0.0517 0.18155 0.99262 0.0
H999 H 0.04587 0.21022 0.06138 0.0
H1000 H 0.05084 0.12916 0.0952 0.0
H1001 H 0.06613 0.16039 0.85515 0.0
H1002 H 0.08616 0.18777 0.80655 0.0
H1003 H 0.12758 0.18885 0.95491 0.0
H1004 H 0.10799 0.16128 0.00401 0.0
H1005 H 0.00668 0.06916 0.86988 0.0
H1006 H 0.01893 0.09775 0.93039 0.0
H1007 H 0.08071 0.08015 0.89715 0.0
H1008 H 0.06854 0.05125 0.83583 0.0
H1009 H 0.07384 0.12298 0.88422 0.0
H1010 H 0.06242 0.06991 0.02853 0.0
H1011 H 0.04294 0.04223 0.07766 0.0
H1012 H 0.99615 0.08442 0.12428 0.0
H1013 H 0.0152 0.11229 0.07467 0.0
C1014 C 0.07306 0.17977 0.15428 0.0
C1015 C 0.0615 0.19651 0.136 0.0
C1016 C 0.07632 0.16344 0.11529 0.0
C1017 C 0.06812 0.16357 0.05729 0.0
C1018 C 0.05831 0.18118 0.03702 0.0
C1019 C 0.05504 0.1976 0.07619 0.0
C1020 C 0.06657 0.14421 0.02265 0.0
C1021 C 0.0561 0.12778 0.04928 0.0
C1022 C 0.07351 0.14233 0.96288 0.0
C1023 C 0.08545 0.15886 0.93351 0.0
C1024 C 0.07955 0.1664 0.87732 0.0
C1025 C 0.09083 0.18197 0.84969 0.0
C1026 C 0.1081 0.19009 0.8777 0.0
C1027 C 0.11415 0.18261 0.93336 0.0
C1028 C 0.10294 0.16704 0.96117 0.0
C1029 C 0.02289 0.07124 0.87542 0.0
C1030 C 0.03663 0.05781 0.84815 0.0
C1031 C 0.02986 0.08763 0.9101 0.0
C1032 C 0.05071 0.09101 0.91845 0.0
C1033 C 0.06455 0.07778 0.89115 0.0
C1034 C 0.05756 0.0612 0.85657 0.0
C1035 C 0.05773 0.1083 0.95657 0.0
C1036 C 0.069 0.12433 0.93052 0.0
C1037 C 0.05162 0.10987 0.01715 0.0
C1038 C 0.0402 0.09317 0.04758 0.0
C1039 C 0.04792 0.07326 0.04893 0.0
C1040 C 0.03696 0.05754 0.07692 0.0
C1041 C 0.01831 0.06156 0.104 0.0
C1042 C 0.0106 0.08132 0.10328 0.0
C1043 C 0.02149 0.09709 0.07532 0.0
H1044 H 0.00984 0.04936 0.12562 0.0
H1045 H 0.1168 0.20214 0.85624 0.0
H1046 H 0.29168 0.04925 0.08017 0.0
H1047 H 0.31694 0.05662 0.00156 0.0
H1048 H 0.3397 0.99543 0.01775 0.0
H1049 H 0.31474 0.98819 0.09626 0.0
H1050 H 0.35822 0.05557 0.02232 0.0
H1051 H 0.35861 0.98061 0.87956 0.0
H1052 H 0.33417 0.95544 0.83852 0.0
H1053 H 0.28689 0.99979 0.84746 0.0
H1054 H 0.31112 0.02538 0.8874 0.0
H1055 H 0.45405 0.02707 0.90634 0.0
H1056 H 0.42104 0.03143 0.95542 0.0
H1057 H 0.39354 0.04281 0.78344 0.0
H1058 H 0.42658 0.03837 0.73465 0.0
H1059 H 0.37327 0.0141 0.84175 0.0
H1060 H 0.39725 0.08099 0.88835 0.0
H1061 H 0.4213 0.10728 0.92533 0.0
H1062 H 0.41846 0.08137 0.1017 0.0
H1063 H 0.39461 0.05473 0.06562 0.0
C1064 C 0.30167 0.03724 0.06534 0.0
C1065 C 0.30124 0.01813 0.09364 0.0
C1066 C 0.31616 0.04149 0.02095 0.0
C1067 C 0.33014 0.02655 0.0037 0.0
C1068 C 0.32891 0.00709 0.02974 0.0
C1069 C 0.31465 0.00295 0.07447 0.0
C1070 C 0.3474 0.03167 0.96351 0.0
C1071 C 0.36143 0.04667 0.98242 0.0
C1072 C 0.35142 0.02022 0.91105 0.0
C1073 C 0.33668 0.00488 0.88711 0.0
C1074 C 0.34302 0.98504 0.87259 0.0
C1075 C 0.3292 0.97069 0.84948 0.0
C1076 C 0.30897 0.97599 0.84059 0.0
C1077 C 0.30254 0.99568 0.85462 0.0
C1078 C 0.31632 0.01011 0.87759 0.0
C1079 C 0.44103 0.03113 0.87955 0.0
C1080 C 0.44272 0.03273 0.81714 0.0
C1081 C 0.4222 0.03361 0.90743 0.0
C1082 C 0.40482 0.03764 0.87316 0.0
C1083 C 0.40673 0.03984 0.8108 0.0
C1084 C 0.42556 0.03743 0.78303 0.0
C1085 C 0.38445 0.03746 0.90173 0.0
C1086 C 0.3699 0.02329 0.8809 0.0
C1087 C 0.37991 0.04976 0.95212 0.0
C1088 C 0.39422 0.06579 0.97414 0.0
C1089 C 0.40186 0.08081 0.93493 0.0
C1090 C 0.41544 0.09579 0.95575 0.0
C1091 C 0.42143 0.09598 0.0158 0.0
C1092 C 0.41381 0.08121 0.05519 0.0
C1093 C 0.40023 0.06618 0.03459 0.0
H1094 H 0.43195 0.10759 0.03183 0.0
H1095 H 0.29829 0.96485 0.82272 0.0
H1096 H 0.44196 0.30916 0.11659 0.0
H1097 H 0.44095 0.33878 0.04946 0.0
H1098 H 0.5007 0.3245 0.98448 0.0
H1099 H 0.50153 0.29459 0.05032 0.0
H1100 H 0.49246 0.36511 0.05258 0.0
H1101 H 0.47103 0.32171 0.88685 0.0
H1102 H 0.44815 0.29691 0.83698 0.0
H1103 H 0.39857 0.33826 0.85626 0.0
H1104 H 0.42112 0.36321 0.90709 0.0
H1105 H 0.52209 0.4373 0.83988 0.0
H1106 H 0.5137 0.40728 0.89899 0.0
H1107 H 0.45027 0.42241 0.89221 0.0
H1108 H 0.45861 0.45273 0.83173 0.0
H1109 H 0.45582 0.38254 0.866 0.0
H1110 H 0.47589 0.42707 0.02219 0.0
H1111 H 0.49636 0.45216 0.07925 0.0
H1112 H 0.54545 0.40988 0.08802 0.0
H1113 H 0.52544 0.38465 0.02995 0.0
C1114 C 0.45444 0.31184 0.08586 0.0
C1115 C 0.47174 0.29955 0.08798 0.0
C1116 C 0.4539 0.32878 0.04787 0.0
C1117 C 0.47077 0.33379 0.01228 0.0
C1118 C 0.48749 0.32075 0.01142 0.0
C1119 C 0.48789 0.30361 0.04857 0.0
C1120 C 0.47233 0.35409 0.98363 0.0
C1121 C 0.48469 0.36891 0.01132 0.0
C1122 C 0.46126 0.35922 0.93182 0.0
C1123 C 0.4477 0.34421 0.90151 0.0
C1124 C 0.4552 0.32542 0.88113 0.0
C1125 C 0.4423 0.31136 0.8525 0.0
C1126 C 0.4219 0.31597 0.84365 0.0
C1127 C 0.41436 0.33469 0.86326 0.0
C1128 C 0.4272 0.3488 0.89194 0.0
C1129 C 0.50634 0.43445 0.85132 0.0
C1130 C 0.49101 0.44745 0.8309 0.0
C1131 C 0.50157 0.41727 0.8855 0.0
C1132 C 0.48137 0.41263 0.90051 0.0
C1133 C 0.46598 0.42573 0.88124 0.0
C1134 C 0.47077 0.44311 0.84706 0.0
C1135 C 0.47663 0.39351 0.93373 0.0
C1136 C 0.46355 0.3789 0.90741 0.0
C1137 C 0.4868 0.38864 0.98763 0.0
C1138 C 0.49919 0.404 0.02113 0.0
C1139 C 0.49114 0.42319 0.03557 0.0
C1140 C 0.50266 0.43744 0.06824 0.0
C1141 C 0.52221 0.43264 0.08709 0.0
C1142 C 0.53031 0.41359 0.07326 0.0
C1143 C 0.51888 0.39931 0.04047 0.0
H1144 H 0.53107 0.44365 0.11261 0.0
H1145 H 0.41194 0.30508 0.82144 0.0
H1146 H 0.20156 0.53245 0.09477 0.0
H1147 H 0.1741 0.52472 0.02406 0.0
H1148 H 0.17947 0.46053 0.06278 0.0
H1149 H 0.20713 0.46827 0.13327 0.0
H1150 H 0.16632 0.5001 0.92372 0.0
H1151 H 0.13003 0.44394 0.09322 0.0
H1152 H 0.13117 0.43661 0.20162 0.0
H1153 H 0.14806 0.49899 0.23795 0.0
H1154 H 0.14662 0.50676 0.13001 0.0
H1155 H 0.07827 0.46116 0.78655 0.0
H1156 H 0.10953 0.46106 0.84492 0.0
H1157 H 0.08121 0.49789 0.98118 0.0
H1158 H 0.04964 0.49772 0.92351 0.0
H1159 H 0.1065 0.47124 0.03107 0.0
H1160 H 0.10942 0.51998 0.87097 0.0
H1161 H 0.1067 0.5311 0.76578 0.0
H1162 H 0.15456 0.49059 0.71584 0.0
H1163 H 0.15735 0.47899 0.82064 0.0
C1164 C 0.19739 0.51664 0.08624 0.0
C1165 C 0.20643 0.50092 0.11904 0.0
C1166 C 0.18171 0.51224 0.04601 0.0
C1167 C 0.1746 0.49209 0.03883 0.0
C1168 C 0.1847 0.47619 0.06799 0.0
C1169 C 0.20057 0.48058 0.10778 0.0
C1170 C 0.15511 0.48818 0.00742 0.0
C1171 C 0.15331 0.49355 0.94688 0.0
C1172 C 0.13795 0.48027 0.0383 0.0
C1173 C 0.13849 0.47584 0.10345 0.0
C1174 C 0.13392 0.45609 0.12439 0.0
C1175 C 0.1346 0.45187 0.18575 0.0
C1176 C 0.13975 0.4673 0.22662 0.0
C1177 C 0.14414 0.48703 0.20625 0.0
C1178 C 0.1434 0.49134 0.14498 0.0
C1179 C 0.07853 0.46891 0.82952 0.0
C1180 C 0.06153 0.47967 0.85006 0.0
C1181 C 0.09646 0.4689 0.86271 0.0
C1182 C 0.09787 0.47988 0.91667 0.0
C1183 C 0.0805 0.48941 0.93944 0.0
C1184 C 0.06245 0.48928 0.90646 0.0
C1185 C 0.11777 0.48274 0.94687 0.0
C1186 C 0.11961 0.47737 0.00741 0.0
C1187 C 0.1348 0.49119 0.91639 0.0
C1188 C 0.13346 0.49847 0.85356 0.0
C1189 C 0.11929 0.51336 0.8375 0.0
C1190 C 0.11773 0.51975 0.77795 0.0
C1191 C 0.13041 0.51152 0.73413 0.0
C1192 C 0.14473 0.49694 0.74983 0.0
C1193 C 0.14631 0.49046 0.8093 0.0
H1194 H 0.12917 0.51647 0.68805 0.0
H1195 H 0.1403 0.46399 0.27409 0.0
H1196 H 0.02732 0.8124 0.28227 0.0
H1197 H 0.02106 0.83908 0.35567 0.0
H1198 H 0.95844 0.81948 0.36877 0.0
H1199 H 0.9645 0.79321 0.29225 0.0
H1200 H 0.95949 0.85852 0.3548 0.0
H1201 H 0.99323 0.81469 0.48878 0.0
H1202 H 0.01949 0.79139 0.5254 0.0
H1203 H 0.06428 0.8394 0.51251 0.0
H1204 H 0.03836 0.86292 0.475 0.0
H1205 H 0.96385 0.92914 0.62518 0.0
H1206 H 0.96114 0.89714 0.56834 0.0
H1207 H 0.9998 0.92246 0.43086 0.0
H1208 H 0.00231 0.95467 0.48652 0.0
H1209 H 0.00603 0.87807 0.52054 0.0
H1210 H 0.97012 0.91752 0.35946 0.0
H1211 H 0.942 0.93979 0.32966 0.0
H1212 H 0.89903 0.89758 0.40696 0.0
H1213 H 0.927 0.87522 0.43789 0.0
C1214 C 0.01227 0.81354 0.30145 0.0
C1215 C 0.99636 0.80082 0.28105 0.0
C1216 C 0.00873 0.82872 0.34397 0.0
C1217 C 0.98928 0.8313 0.36834 0.0
C1218 C 0.97358 0.81783 0.35065 0.0
C1219 C 0.97709 0.80267 0.30744 0.0
C1220 C 0.98521 0.84925 0.40757 0.0
C1221 C 0.96952 0.86252 0.39165 0.0
C1222 C 0.99815 0.85464 0.45602 0.0
C1223 C 0.01383 0.84056 0.47874 0.0
C1224 C 0.0087 0.82025 0.49337 0.0
C1225 C 0.02353 0.80701 0.51435 0.0
C1226 C 0.04354 0.8139 0.52121 0.0
C1227 C 0.04876 0.83408 0.5072 0.0
C1228 C 0.034 0.84739 0.48617 0.0
C1229 C 0.97138 0.9281 0.58212 0.0
C1230 C 0.98331 0.94448 0.5604 0.0
C1231 C 0.9698 0.9098 0.54981 0.0
C1232 C 0.98018 0.90755 0.49543 0.0
C1233 C 0.99147 0.92406 0.47245 0.0
C1234 C 0.99285 0.94246 0.50429 0.0
C1235 C 0.98103 0.88736 0.46574 0.0
C1236 C 0.99599 0.87374 0.484 0.0
C1237 C 0.96731 0.88149 0.42024 0.0
C1238 C 0.95061 0.8949 0.40168 0.0
C1239 C 0.9547 0.91313 0.37069 0.0
C1240 C 0.93879 0.92573 0.35343 0.0
C1241 C 0.91874 0.92014 0.36662 0.0
C1242 C 0.91457 0.90192 0.39693 0.0
C1243 C 0.93043 0.88929 0.41431 0.0
H1244 H 0.90645 0.9299 0.35318 0.0
H1245 H 0.055 0.80362 0.53744 0.0
H1246 H 0.72005 0.00252 0.33327 0.0
H1247 H 0.69389 0.99975 0.41173 0.0
H1248 H 0.66529 0.95012 0.31497 0.0
H1249 H 0.69148 0.95255 0.23758 0.0
H1250 H 0.64638 0.99758 0.34207 0.0
H1251 H 0.67139 0.93109 0.41444 0.0
H1252 H 0.69822 0.90976 0.45745 0.0
H1253 H 0.70356 0.95069 0.60756 0.0
H1254 H 0.67694 0.97243 0.56484 0.0
H1255 H 0.55217 0.98144 0.48579 0.0
H1256 H 0.58364 0.97607 0.42974 0.0
H1257 H 0.61849 0.99028 0.5885 0.0
H1258 H 0.58727 0.99491 0.64473 0.0
H1259 H 0.63601 0.96086 0.53399 0.0
H1260 H 0.61063 0.02565 0.4731 0.0
H1261 H 0.58553 0.04984 0.43422 0.0
H1262 H 0.58312 0.01695 0.26751 0.0
H1263 H 0.60798 0.99238 0.30572 0.0
C1264 C 0.70881 0.99032 0.33067 0.0
C1265 C 0.70776 0.97765 0.27986 0.0
C1266 C 0.69382 0.98885 0.3751 0.0
C1267 C 0.67776 0.9747 0.36896 0.0
C1268 C 0.67772 0.96094 0.32079 0.0
C1269 C 0.69271 0.96229 0.27682 0.0
C1270 C 0.65921 0.97673 0.40547 0.0
C1271 C 0.64395 0.98943 0.3838 0.0
C1272 C 0.65647 0.96656 0.4605 0.0
C1273 C 0.67242 0.95352 0.48602 0.0
C1274 C 0.67848 0.93568 0.45619 0.0
C1275 C 0.69359 0.92347 0.48063 0.0
C1276 C 0.70265 0.92891 0.53509 0.0
C1277 C 0.69657 0.94653 0.56531 0.0
C1278 C 0.68147 0.95878 0.54102 0.0
C1279 C 0.56656 0.98327 0.50872 0.0
C1280 C 0.56721 0.98855 0.56977 0.0
C1281 C 0.58454 0.98029 0.47665 0.0
C1282 C 0.60351 0.98308 0.50465 0.0
C1283 C 0.60411 0.98797 0.56585 0.0
C1284 C 0.58619 0.99061 0.59804 0.0
C1285 C 0.62273 0.98147 0.47011 0.0
C1286 C 0.63825 0.96901 0.49221 0.0
C1287 C 0.62587 0.9922 0.41578 0.0
C1288 C 0.61101 0.00704 0.39252 0.0
C1289 C 0.60464 0.02349 0.4283 0.0
C1290 C 0.59047 0.03728 0.40636 0.0
C1291 C 0.58269 0.03489 0.3485 0.0
C1292 C 0.58913 0.01875 0.31236 0.0
C1293 C 0.60326 0.0049 0.33412 0.0
H1294 H 0.57169 0.04555 0.3316 0.0
H1295 H 0.71434 0.91944 0.55396 0.0
H1296 H 0.47889 0.68969 0.25713 0.0
H1297 H 0.48705 0.66243 0.32633 0.0
H1298 H 0.54891 0.6846 0.33621 0.0
H1299 H 0.54104 0.7114 0.26391 0.0
H1300 H 0.54925 0.64579 0.31724 0.0
H1301 H 0.51548 0.68703 0.45878 0.0
H1302 H 0.48903 0.70861 0.50325 0.0
H1303 H 0.44631 0.65864 0.49365 0.0
H1304 H 0.47239 0.63684 0.44821 0.0
H1305 H 0.55567 0.57327 0.57644 0.0
H1306 H 0.55629 0.60502 0.51847 0.0
H1307 H 0.50932 0.58088 0.40323 0.0
H1308 H 0.50885 0.54896 0.45969 0.0
H1309 H 0.50595 0.62302 0.48692 0.0
H1310 H 0.54134 0.58458 0.328 0.0
H1311 H 0.56985 0.5639 0.29162 0.0
H1312 H 0.612 0.61088 0.34657 0.0
H1313 H 0.5837 0.63171 0.38405 0.0
C1314 C 0.49421 0.68893 0.27444 0.0
C1315 C 0.50936 0.70264 0.25449 0.0
C1316 C 0.49881 0.67343 0.31467 0.0
C1317 C 0.51859 0.67149 0.33703 0.0
C1318 C 0.53354 0.68578 0.31962 0.0
C1319 C 0.52897 0.70124 0.27878 0.0
C1320 C 0.52385 0.65345 0.37393 0.0
C1321 C 0.53996 0.64109 0.35504 0.0
C1322 C 0.5118 0.64714 0.42336 0.0
C1323 C 0.49589 0.66033 0.44958 0.0
C1324 C 0.50039 0.68069 0.46555 0.0
C1325 C 0.48547 0.69296 0.49107 0.0
C1326 C 0.46599 0.68501 0.50116 0.0
C1327 C 0.46139 0.66479 0.48573 0.0
C1328 C 0.47625 0.65246 0.46014 0.0
C1329 C 0.54586 0.5745 0.53777 0.0
C1330 C 0.53216 0.5586 0.5228 0.0
C1331 C 0.54624 0.59263 0.50481 0.0
C1332 C 0.53285 0.59517 0.45681 0.0
C1333 C 0.51985 0.57905 0.44001 0.0
C1334 C 0.51967 0.56081 0.47223 0.0
C1335 C 0.53066 0.61535 0.4285 0.0
C1336 C 0.51525 0.62804 0.44946 0.0
C1337 C 0.54351 0.62211 0.38185 0.0
C1338 C 0.56045 0.60954 0.35962 0.0
C1339 C 0.5567 0.59037 0.33304 0.0
C1340 C 0.57281 0.57866 0.31201 0.0
C1341 C 0.59273 0.58604 0.31699 0.0
C1342 C 0.59657 0.60516 0.34287 0.0
C1343 C 0.5805 0.61693 0.36398 0.0
H1344 H 0.60519 0.57696 0.30061 0.0
H1345 H 0.45447 0.69452 0.52103 0.0
H1346 H 0.81289 0.4915 0.28425 0.0
H1347 H 0.83889 0.49729 0.36025 0.0
H1348 H 0.8314 0.5624 0.34393 0.0
H1349 H 0.80528 0.55654 0.26672 0.0
H1350 H 0.87095 0.55184 0.33479 0.0
H1351 H 0.81811 0.53907 0.4738 0.0
H1352 H 0.78818 0.52164 0.51718 0.0
H1353 H 0.8226 0.46705 0.54042 0.0
H1354 H 0.85267 0.48404 0.49636 0.0
H1355 H 0.95094 0.55199 0.56176 0.0
H1356 H 0.91946 0.55957 0.50773 0.0
H1357 H 0.9084 0.49509 0.48156 0.0
H1358 H 0.93943 0.48742 0.53498 0.0
H1359 H 0.8753 0.5142 0.52675 0.0
H1360 H 0.92531 0.52547 0.36833 0.0
H1361 H 0.95504 0.54267 0.32279 0.0
H1362 H 0.9254 0.60047 0.33707 0.0
H1363 H 0.89558 0.58362 0.38341 0.0
C1364 C 0.81646 0.50703 0.29789 0.0
C1365 C 0.8071 0.52358 0.26984 0.0
C1366 C 0.83127 0.51035 0.34146 0.0
C1367 C 0.83702 0.53029 0.35816 0.0
C1368 C 0.82713 0.5469 0.33188 0.0
C1369 C 0.81213 0.54355 0.28828 0.0
C1370 C 0.85458 0.53339 0.39901 0.0
C1371 C 0.87173 0.54407 0.37759 0.0
C1372 C 0.85568 0.52316 0.45462 0.0
C1373 C 0.83765 0.51285 0.48155 0.0
C1374 C 0.81928 0.52331 0.48782 0.0
C1375 C 0.80228 0.51351 0.51258 0.0
C1376 C 0.80348 0.49325 0.53151 0.0
C1377 C 0.82169 0.48276 0.52579 0.0
C1378 C 0.83873 0.49248 0.50103 0.0
C1379 C 0.94191 0.53947 0.54379 0.0
C1380 C 0.94768 0.51909 0.55306 0.0
C1381 C 0.92392 0.54382 0.51308 0.0
C1382 C 0.91151 0.52787 0.49107 0.0
C1383 C 0.91761 0.50763 0.49875 0.0
C1384 C 0.93545 0.50329 0.52918 0.0
C1385 C 0.89186 0.53176 0.46106 0.0
C1386 C 0.87432 0.52243 0.48475 0.0
C1387 C 0.89042 0.54325 0.4077 0.0
C1388 C 0.90836 0.55334 0.38007 0.0
C1389 C 0.92522 0.54188 0.36229 0.0
C1390 C 0.94206 0.55155 0.33621 0.0
C1391 C 0.94214 0.57266 0.32725 0.0
C1392 C 0.92535 0.58413 0.34419 0.0
C1393 C 0.90847 0.57453 0.37033 0.0
H1394 H 0.95519 0.58013 0.30702 0.0
H1395 H 0.7903 0.48568 0.55065 0.0
loop_
_geom_bond_atom_site_label_1
_geom_bond_atom_site_label_2
_geom_bond_distance
_geom_bond_site_symmetry_2
_ccdc_geom_bond_type
H0 C7 0.929 . S
H1 C10 0.930 . S
H2 C12 0.929 . S
H3 C4 0.969 . S
C4 H3 0.969 . S
C4 O5 1.550 1_556 S
C4 H6 0.973 . S
O5 C4 1.550 1_554 S
O5 C11 1.412 . S
H6 C4 0.973 . S
C7 H0 0.929 . S
C7 C8 1.400 . S
C7 C9 1.364 . S
C8 C7 1.400 . S
C8 C12 1.377 . S
C9 C7 1.364 . S
C9 C10 1.374 1_554 S
C10 H1 0.930 . S
C10 C9 1.374 1_556 S
C10 C11 1.383 1_556 S
C11 O5 1.412 . S
C11 C10 1.383 1_554 S
C11 C12 1.394 . S
C12 H2 0.929 . S
C12 C8 1.377 . S
C12 C11 1.394 . S
H13 C20 0.930 . S
H14 C23 0.929 . S
H15 C25 0.928 . S
H16 C17 0.969 . S
C17 H16 0.969 . S
C17 O18 1.550 1_455 S
C17 H19 0.973 1_455 S
O18 C17 1.550 1_655 S
O18 C24 1.411 1_655 S
H19 C17 0.973 1_655 S
C20 H13 0.930 . S
C20 C21 1.400 . S
C20 C22 1.364 . S
C21 C20 1.400 . S
C21 C25 1.377 1_455 S
C22 C20 1.364 . S
C22 C23 1.374 1_455 S
C23 H14 0.929 . S
C23 C22 1.374 1_655 S
C23 C24 1.383 1_655 S
C24 O18 1.411 1_455 S
C24 C23 1.383 1_455 S
C24 C25 1.394 1_455 S
C25 H15 0.928 . S
C25 C21 1.377 1_655 S
C25 C24 1.394 1_655 S
H26 C33 0.929 . S
H27 C36 0.929 . S
H28 C38 0.928 1_565 S
H29 C30 0.969 . S
C30 H29 0.969 . S
C30 O31 1.550 1_545 S
C30 H32 0.973 1_544 S
O31 C30 1.550 1_565 S
O31 C37 1.407 1_565 S
H32 C30 0.973 1_566 S
C33 H26 0.929 . S
C33 C34 1.400 . S
C33 C35 1.364 . S
C34 C33 1.400 . S
C34 C38 1.376 . S
C35 C33 1.364 . S
C35 C36 1.374 1_545 S
C36 H27 0.929 . S
C36 C35 1.374 1_565 S
C36 C37 1.383 1_565 S
C37 O31 1.407 1_545 S
C37 C36 1.383 1_545 S
C37 C38 1.394 . S
C38 H28 0.928 1_545 S
C38 C34 1.376 . S
C38 C37 1.394 . S
H39 C46 0.929 . S
H40 C49 0.930 1_556 S
H41 C51 0.929 . S
H42 C43 0.969 . S
C43 H42 0.969 . S
C43 O44 1.550 . S
C43 H45 0.973 1_554 S
O44 C43 1.550 . S
O44 C50 1.412 . S
H45 C43 0.973 1_556 S
C46 H39 0.929 . S
C46 C47 1.400 . S
C46 C48 1.364 . S
C47 C46 1.400 . S
C47 C51 1.377 . S
C48 C46 1.364 . S
C48 C49 1.374 . S
C49 H40 0.930 1_554 S
C49 C48 1.374 . S
C49 C50 1.383 . S
C50 O44 1.412 . S
C50 C49 1.383 . S
C50 C51 1.394 . S
C51 H41 0.929 . S
C51 C47 1.377 . S
C51 C50 1.394 . S
H52 C59 0.929 . S
H53 C62 0.930 . S
H54 C64 0.929 . S
H55 C56 0.969 . S
C56 H55 0.969 . S
C56 O57 1.550 . S
C56 H58 0.973 . S
O57 C56 1.550 . S
O57 C63 1.412 . S
H58 C56 0.973 . S
C59 H52 0.929 . S
C59 C60 1.400 . S
C59 C61 1.364 . S
C60 C59 1.400 . S
C60 C64 1.377 . S
C61 C59 1.364 . S
C61 C62 1.374 . S
C62 H53 0.930 . S
C62 C61 1.374 . S
C62 C63 1.383 . S
C63 O57 1.412 . S
C63 C62 1.383 . S
C63 C64 1.394 . S
C64 H54 0.929 . S
C64 C60 1.377 . S
C64 C63 1.394 . S
H65 C72 0.929 . S
H66 C75 0.930 . S
H67 C77 0.929 . S
H68 C69 0.969 . S
C69 H68 0.969 . S
C69 O70 1.550 . S
C69 H71 0.973 . S
O70 C69 1.550 . S
O70 C76 1.412 . S
H71 C69 0.973 . S
C72 H65 0.929 . S
C72 C73 1.400 . S
C72 C74 1.364 . S
C73 C72 1.400 . S
C73 C77 1.377 . S
C74 C72 1.364 . S
C74 C75 1.374 . S
C75 H66 0.930 . S
C75 C74 1.374 . S
C75 C76 1.383 . S
C76 O70 1.412 . S
C76 C75 1.383 . S
C76 C77 1.394 . S
C77 H67 0.929 . S
C77 C73 1.377 . S
C77 C76 1.394 . S
H78 C85 0.929 . S
H79 C88 0.930 . S
H80 C90 0.929 . S
H81 C82 0.969 . S
C82 H81 0.969 . S
C82 O83 1.550 . S
C82 H84 0.973 . S
O83 C82 1.550 . S
O83 C89 1.412 . S
H84 C82 0.973 . S
C85 H78 0.929 . S
C85 C86 1.400 . S
C85 C87 1.364 . S
C86 C85 1.400 . S
C86 C90 1.377 . S
C87 C85 1.364 . S
C87 C88 1.374 . S
C88 H79 0.930 . S
C88 C87 1.374 . S
C88 C89 1.383 . S
C89 O83 1.412 . S
C89 C88 1.383 . S
C89 C90 1.394 . S
C90 H80 0.929 . S
C90 C86 1.377 . S
C90 C89 1.394 . S
H91 C98 0.929 . S
H92 C101 0.930 . S
H93 C103 0.929 . S
H94 C95 0.969 . S
C95 H94 0.969 . S
C95 O96 1.550 . S
C95 H97 0.973 . S
O96 C95 1.550 . S
O96 C102 1.412 . S
H97 C95 0.973 . S
C98 H91 0.929 . S
C98 C99 1.400 . S
C98 C100 1.364 . S
C99 C98 1.400 . S
C99 C103 1.377 . S
C100 C98 1.364 . S
C100 C101 1.374 . S
C101 H92 0.930 . S
C101 C100 1.374 . S
C101 C102 1.383 . S
C102 O96 1.412 . S
C102 C101 1.383 . S
C102 C103 1.394 . S
C103 H93 0.929 . S
C103 C99 1.377 . S
C103 C102 1.394 . S
O104 Zn105 1.956 . S
O104 C120 1.225 1_545 S
Zn105 O104 1.956 . S
Zn105 O106 1.948 1_545 S
Zn105 O112 1.950 . S
Zn105 O117 1.887 1_545 S
O106 Zn105 1.948 1_565 S
O106 Zn107 1.903 1_465 S
O106 Zn108 1.952 . S
O106 Zn109 1.963 1_455 S
Zn107 O106 1.903 1_645 S
Zn107 O110 1.933 . S
Zn107 O113 1.941 1_655 S
Zn107 O114 1.965 1_655 S
Zn108 O106 1.952 . S
Zn108 O115 1.938 1_565 S
Zn108 O116 1.906 . S
Zn108 O126 1.953 . S
Zn109 O106 1.963 1_655 S
Zn109 O111 1.932 . S
Zn109 O118 1.977 . S
Zn109 O119 1.910 1_655 S
O110 Zn107 1.933 . S
O110 C121 1.226 . S
O111 Zn109 1.932 . S
O111 C121 1.307 1_565 S
O112 Zn105 1.950 . S
O112 C123 1.253 . S
O113 Zn107 1.941 1_455 S
O113 C123 1.283 . S
O114 Zn107 1.965 1_455 S
O114 C122 1.303 . S
O115 Zn108 1.938 1_545 S
O115 C122 1.247 . S
O116 Zn108 1.906 . S
O116 C124 1.304 1_455 S
O117 Zn105 1.887 1_565 S
O117 C125 1.311 . S
O118 Zn109 1.977 . S
O118 C124 1.272 . S
O119 Zn109 1.910 1_455 S
O119 C125 1.231 . S
C120 O104 1.225 1_565 S
C120 O126 1.298 . S
C121 O110 1.226 . S
C121 O111 1.307 1_545 S
C122 O114 1.303 . S
C122 O115 1.247 . S
C123 O112 1.253 . S
C123 O113 1.283 . S
C124 O116 1.304 1_655 S
C124 O118 1.272 . S
C125 O117 1.311 . S
C125 O119 1.231 . S
O126 Zn108 1.953 . S
O126 C120 1.298 . S
O127 Zn128 1.953 . S
O127 C143 1.225 . S
Zn128 O127 1.953 . S
Zn128 O129 1.949 . S
Zn128 O135 1.919 . S
Zn128 O140 1.924 . S
O129 Zn128 1.949 . S
O129 Zn130 1.923 1_545 S
O129 Zn131 1.950 . S
O129 Zn132 1.945 1_545 S
Zn130 O129 1.923 1_565 S
Zn130 O133 1.933 . S
Zn130 O136 1.941 . S
Zn130 O137 1.965 . S
Zn131 O129 1.950 . S
Zn131 O138 1.938 . S
Zn131 O139 1.906 . S
Zn131 O149 1.953 . S
Zn132 O129 1.945 1_565 S
Zn132 O134 1.932 . S
Zn132 O141 1.977 . S
Zn132 O142 1.910 1_565 S
O133 Zn130 1.933 . S
O133 C144 1.226 . S
O134 Zn132 1.932 . S
O134 C144 1.307 . S
O135 Zn128 1.919 . S
O135 C146 1.253 . S
O136 Zn130 1.941 . S
O136 C146 1.283 1_565 S
O137 Zn130 1.965 . S
O137 C145 1.303 1_565 S
O138 Zn131 1.938 . S
O138 C145 1.247 . S
O139 Zn131 1.906 . S
O139 C147 1.304 1_545 S
O140 Zn128 1.924 . S
O140 C148 1.311 . S
O141 Zn132 1.977 . S
O141 C147 1.272 . S
O142 Zn132 1.910 1_545 S
O142 C148 1.231 . S
C143 O127 1.225 . S
C143 O149 1.298 . S
C144 O133 1.226 . S
C144 O134 1.307 . S
C145 O137 1.303 1_545 S
C145 O138 1.247 . S
C146 O135 1.253 . S
C146 O136 1.283 1_545 S
C147 O139 1.304 1_565 S
C147 O141 1.272 . S
C148 O140 1.311 . S
C148 O142 1.231 . S
O149 Zn131 1.953 . S
O149 C143 1.298 . S
O150 Zn151 1.953 . S
O150 C166 1.225 . S
Zn151 O150 1.953 . S
Zn151 O152 1.949 . S
Zn151 O158 1.919 . S
Zn151 O163 1.924 . S
O152 Zn151 1.949 . S
O152 Zn153 1.923 . S
O152 Zn154 1.950 . S
O152 Zn155 1.945 . S
Zn153 O152 1.923 . S
Zn153 O156 1.933 . S
Zn153 O159 1.941 . S
Zn153 O160 1.965 . S
Zn154 O152 1.950 . S
Zn154 O161 1.938 . S
Zn154 O162 1.906 . S
Zn154 O172 1.953 . S
Zn155 O152 1.945 . S
Zn155 O157 1.932 . S
Zn155 O164 1.977 . S
Zn155 O165 1.910 . S
O156 Zn153 1.933 . S
O156 C167 1.226 . S
O157 Zn155 1.932 . S
O157 C167 1.307 . S
O158 Zn151 1.919 . S
O158 C169 1.253 . S
O159 Zn153 1.941 . S
O159 C169 1.283 . S
O160 Zn153 1.965 . S
O160 C168 1.303 . S
O161 Zn154 1.938 . S
O161 C168 1.247 . S
O162 Zn154 1.906 . S
O162 C170 1.304 . S
O163 Zn151 1.924 . S
O163 C171 1.311 . S
O164 Zn155 1.977 . S
O164 C170 1.272 . S
O165 Zn155 1.910 . S
O165 C171 1.231 . S
C166 O150 1.225 . S
C166 O172 1.298 . S
C167 O156 1.226 . S
C167 O157 1.307 . S
C168 O160 1.303 . S
C168 O161 1.247 . S
C169 O158 1.253 . S
C169 O159 1.283 . S
C170 O162 1.304 . S
C170 O164 1.272 . S
C171 O163 1.311 . S
C171 O165 1.231 . S
O172 Zn154 1.953 . S
O172 C166 1.298 . S
O173 Zn174 1.926 1_655 S
O173 C189 1.225 . S
Zn174 O173 1.926 1_455 S
Zn174 O175 1.949 . S
Zn174 O181 1.919 . S
Zn174 O186 1.953 . S
O175 Zn174 1.949 . S
O175 Zn176 1.918 1_455 S
O175 Zn177 1.929 1_455 S
O175 Zn178 1.973 . S
Zn176 O175 1.918 1_655 S
Zn176 O179 1.933 1_655 S
Zn176 O182 1.941 . S
Zn176 O183 1.965 . S
Zn177 O175 1.929 1_655 S
Zn177 O184 1.938 . S
Zn177 O185 1.906 . S
Zn177 O195 1.953 . S
Zn178 O175 1.973 . S
Zn178 O180 1.932 . S
Zn178 O187 1.977 . S
Zn178 O188 1.910 . S
O179 Zn176 1.933 1_455 S
O179 C190 1.226 . S
O180 Zn178 1.932 . S
O180 C190 1.307 . S
O181 Zn174 1.919 . S
O181 C192 1.252 . S
O182 Zn176 1.941 . S
O182 C192 1.284 1_655 S
O183 Zn176 1.965 . S
O183 C191 1.303 . S
O184 Zn177 1.938 . S
O184 C191 1.247 . S
O185 Zn177 1.906 . S
O185 C193 1.304 1_655 S
O186 Zn174 1.953 . S
O186 C194 1.311 . S
O187 Zn178 1.977 . S
O187 C193 1.272 . S
O188 Zn178 1.910 . S
O188 C194 1.231 . S
C189 O173 1.225 . S
C189 O195 1.298 . S
C190 O179 1.226 . S
C190 O180 1.307 . S
C191 O183 1.303 . S
C191 O184 1.247 . S
C192 O181 1.252 . S
C192 O182 1.284 1_455 S
C193 O185 1.304 1_455 S
C193 O187 1.272 . S
C194 O186 1.311 . S
C194 O188 1.231 . S
O195 Zn177 1.953 . S
O195 C189 1.298 . S
H196 C214 0.951 . S
H197 C216 0.951 . S
H198 C218 0.949 . S
H199 C219 0.936 1_565 S
H200 C221 0.950 . S
H201 C224 0.950 . S
H202 C225 0.950 . S
H203 C227 0.950 . S
H204 C228 0.950 . S
H205 C229 0.951 . S
H206 C231 0.951 . S
H207 C233 0.950 . S
H208 C234 0.950 . S
H209 C236 0.950 . S
H210 C239 0.950 . S
H211 C240 0.950 . S
H212 C242 0.950 . S
H213 C243 0.950 . S
C214 H196 0.951 . S
C214 C215 1.366 . S
C214 C216 1.388 . S
C215 C214 1.366 . S
C215 C219 1.402 . S
C216 H197 0.951 . S
C216 C214 1.388 . S
C216 C217 1.366 . S
C217 C216 1.366 . S
C217 C218 1.415 1_545 S
C217 C220 1.499 . S
C218 H198 0.949 . S
C218 C217 1.415 1_565 S
C218 C219 1.373 1_565 S
C219 H199 0.936 1_545 S
C219 C215 1.402 . S
C219 C218 1.373 1_545 S
C220 C217 1.499 . S
C220 C221 1.373 1_545 S
C220 C222 1.389 . S
C221 H200 0.950 . S
C221 C220 1.373 1_565 S
C221 C237 1.377 . S
C222 C220 1.389 . S
C222 C223 1.524 . S
C222 C236 1.377 . S
C223 C222 1.524 . S
C223 C224 1.397 . S
C223 C228 1.363 . S
C224 H201 0.950 . S
C224 C223 1.397 . S
C224 C225 1.334 . S
C225 H202 0.950 . S
C225 C224 1.334 . S
C225 C226 1.287 . S
C226 C225 1.287 . S
C226 C227 1.524 . S
C226 H245 0.913 . S
C227 H203 0.950 . S
C227 C226 1.524 . S
C227 C228 1.415 . S
C228 H204 0.950 . S
C228 C223 1.363 . S
C228 C227 1.415 . S
C229 H205 0.951 . S
C229 C230 1.366 . S
C229 C231 1.388 . S
C230 C229 1.366 . S
C230 C234 1.385 1_565 S
C231 H206 0.951 . S
C231 C229 1.388 . S
C231 C232 1.364 . S
C232 C231 1.364 . S
C232 C233 1.416 1_565 S
C232 C235 1.499 1_565 S
C233 H207 0.950 . S
C233 C232 1.416 1_545 S
C233 C234 1.374 . S
C234 H208 0.950 . S
C234 C230 1.385 1_545 S
C234 C233 1.374 . S
C235 C232 1.499 1_545 S
C235 C236 1.373 . S
C235 C237 1.389 1_545 S
C236 H209 0.950 . S
C236 C222 1.377 . S
C236 C235 1.373 . S
C237 C221 1.377 . S
C237 C235 1.389 1_565 S
C237 C238 1.524 . S
C238 C237 1.524 . S
C238 C239 1.397 . S
C238 C243 1.363 . S
C239 H210 0.950 . S
C239 C238 1.397 . S
C239 C240 1.334 . S
C240 H211 0.950 . S
C240 C239 1.334 . S
C240 C241 1.287 . S
C241 C240 1.287 . S
C241 C242 1.524 . S
C241 H244 0.999 . S
C242 H212 0.950 . S
C242 C241 1.524 . S
C242 C243 1.415 . S
C243 H213 0.950 . S
C243 C238 1.363 . S
C243 C242 1.415 . S
H244 C241 0.999 . S
H245 C226 0.913 . S
H246 C264 0.951 . S
H247 C266 0.951 . S
H248 C268 0.950 . S
H249 C269 0.950 . S
H250 C271 0.950 . S
H251 C274 0.950 . S
H252 C275 0.950 . S
H253 C277 0.950 . S
H254 C278 0.950 . S
H255 C279 0.951 . S
H256 C281 0.951 . S
H257 C283 0.950 . S
H258 C284 0.950 . S
H259 C286 0.950 . S
H260 C289 0.950 . S
H261 C290 0.950 . S
H262 C292 0.950 . S
H263 C293 0.950 . S
C264 H246 0.951 . S
C264 C265 1.366 . S
C264 C266 1.388 . S
C265 C264 1.366 . S
C265 C269 1.385 . S
C266 H247 0.951 . S
C266 C264 1.388 . S
C266 C267 1.366 . S
C267 C266 1.366 . S
C267 C268 1.414 . S
C267 C270 1.499 . S
C268 H248 0.950 . S
C268 C267 1.414 . S
C268 C269 1.374 . S
C269 H249 0.950 . S
C269 C265 1.385 . S
C269 C268 1.374 . S
C270 C267 1.499 . S
C270 C271 1.373 . S
C270 C272 1.389 . S
C271 H250 0.950 . S
C271 C270 1.373 . S
C271 C287 1.377 . S
C272 C270 1.389 . S
C272 C273 1.524 . S
C272 C286 1.377 . S
C273 C272 1.524 . S
C273 C274 1.397 . S
C273 C278 1.363 . S
C274 H251 0.950 . S
C274 C273 1.397 . S
C274 C275 1.334 . S
C275 H252 0.950 . S
C275 C274 1.334 . S
C275 C276 1.287 . S
C276 C275 1.287 . S
C276 C277 1.524 . S
C276 H295 0.913 . S
C277 H253 0.950 . S
C277 C276 1.524 . S
C277 C278 1.415 . S
C278 H254 0.950 . S
C278 C273 1.363 . S
C278 C277 1.415 . S
C279 H255 0.951 . S
C279 C280 1.366 . S
C279 C281 1.388 . S
C280 C279 1.366 . S
C280 C284 1.385 . S
C281 H256 0.951 . S
C281 C279 1.388 . S
C281 C282 1.366 . S
C282 C281 1.366 . S
C282 C283 1.414 . S
C282 C285 1.499 . S
C283 H257 0.950 . S
C283 C282 1.414 . S
C283 C284 1.374 . S
C284 H258 0.950 . S
C284 C280 1.385 . S
C284 C283 1.374 . S
C285 C282 1.499 . S
C285 C286 1.373 . S
C285 C287 1.389 . S
C286 H259 0.950 . S
C286 C272 1.377 . S
C286 C285 1.373 . S
C287 C271 1.377 . S
C287 C285 1.389 . S
C287 C288 1.524 . S
C288 C287 1.524 . S
C288 C289 1.397 . S
C288 C293 1.363 . S
C289 H260 0.950 . S
C289 C288 1.397 . S
C289 C290 1.334 . S
C290 H261 0.950 . S
C290 C289 1.334 . S
C290 C291 1.287 . S
C291 C290 1.287 . S
C291 C292 1.524 . S
C291 H294 0.999 . S
C292 H262 0.950 . S
C292 C291 1.524 . S
C292 C293 1.415 . S
C293 H263 0.950 . S
C293 C288 1.363 . S
C293 C292 1.415 . S
H294 C291 0.999 . S
H295 C276 0.913 . S
H296 C314 0.951 . S
H297 C316 0.951 . S
H298 C318 0.950 . S
H299 C319 0.950 . S
H300 C321 0.950 . S
H301 C324 0.950 . S
H302 C325 0.950 . S
H303 C327 0.950 . S
H304 C328 0.950 . S
H305 C329 0.951 . S
H306 C331 0.951 . S
H307 C333 0.950 . S
H308 C334 0.950 . S
H309 C336 0.950 . S
H310 C339 0.950 . S
H311 C340 0.950 . S
H312 C342 0.950 . S
H313 C343 0.950 . S
C314 H296 0.951 . S
C314 C315 1.366 . S
C314 C316 1.388 . S
C315 C314 1.366 . S
C315 C319 1.385 . S
C316 H297 0.951 . S
C316 C314 1.388 . S
C316 C317 1.366 . S
C317 C316 1.366 . S
C317 C318 1.414 . S
C317 C320 1.499 . S
C318 H298 0.950 . S
C318 C317 1.414 . S
C318 C319 1.374 . S
C319 H299 0.950 . S
C319 C315 1.385 . S
C319 C318 1.374 . S
C320 C317 1.499 . S
C320 C321 1.373 . S
C320 C322 1.389 . S
C321 H300 0.950 . S
C321 C320 1.373 . S
C321 C337 1.377 . S
C322 C320 1.389 . S
C322 C323 1.524 . S
C322 C336 1.377 . S
C323 C322 1.524 . S
C323 C324 1.397 . S
C323 C328 1.363 . S
C324 H301 0.950 . S
C324 C323 1.397 . S
C324 C325 1.334 . S
C325 H302 0.950 . S
C325 C324 1.334 . S
C325 C326 1.287 . S
C326 C325 1.287 . S
C326 C327 1.524 . S
C326 H345 0.913 . S
C327 H303 0.950 . S
C327 C326 1.524 . S
C327 C328 1.415 . S
C328 H304 0.950 . S
C328 C323 1.363 . S
C328 C327 1.415 . S
C329 H305 0.951 . S
C329 C330 1.366 . S
C329 C331 1.388 . S
C330 C329 1.366 . S
C330 C334 1.385 . S
C331 H306 0.951 . S
C331 C329 1.388 . S
C331 C332 1.366 . S
C332 C331 1.366 . S
C332 C333 1.414 . S
C332 C335 1.499 . S
C333 H307 0.950 . S
C333 C332 1.414 . S
C333 C334 1.374 . S
C334 H308 0.950 . S
C334 C330 1.385 . S
C334 C333 1.374 . S
C335 C332 1.499 . S
C335 C336 1.373 . S
C335 C337 1.389 . S
C336 H309 0.950 . S
C336 C322 1.377 . S
C336 C335 1.373 . S
C337 C321 1.377 . S
C337 C335 1.389 . S
C337 C338 1.524 . S
C338 C337 1.524 . S
C338 C339 1.397 . S
C338 C343 1.363 . S
C339 H310 0.950 . S
C339 C338 1.397 . S
C339 C340 1.334 . S
C340 H311 0.950 . S
C340 C339 1.334 . S
C340 C341 1.287 . S
C341 C340 1.287 . S
C341 C342 1.524 . S
C341 H344 0.999 . S
C342 H312 0.950 . S
C342 C341 1.524 . S
C342 C343 1.415 . S
C343 H313 0.950 . S
C343 C338 1.363 . S
C343 C342 1.415 . S
H344 C341 0.999 . S
H345 C326 0.913 . S
H346 C364 0.951 . S
H347 C366 0.951 . S
H348 C368 0.950 . S
H349 C369 0.950 . S
H350 C371 0.950 . S
H351 C374 0.950 . S
H352 C375 0.950 . S
H353 C377 0.950 . S
H354 C378 0.950 . S
H355 C379 0.951 . S
H356 C381 0.951 . S
H357 C383 0.950 1_655 S
H358 C384 0.928 1_655 S
H359 C386 0.950 . S
H360 C389 0.950 . S
H361 C390 0.950 . S
H362 C392 0.950 . S
H363 C393 0.950 . S
C364 H346 0.951 . S
C364 C365 1.366 . S
C364 C366 1.388 . S
C365 C364 1.366 . S
C365 C369 1.385 . S
C366 H347 0.951 . S
C366 C364 1.388 . S
C366 C367 1.366 . S
C367 C366 1.366 . S
C367 C368 1.414 . S
C367 C370 1.499 . S
C368 H348 0.950 . S
C368 C367 1.414 . S
C368 C369 1.374 . S
C369 H349 0.950 . S
C369 C365 1.385 . S
C369 C368 1.374 . S
C370 C367 1.499 . S
C370 C371 1.373 . S
C370 C372 1.389 . S
C371 H350 0.950 . S
C371 C370 1.373 . S
C371 C387 1.377 . S
C372 C370 1.389 . S
C372 C373 1.524 . S
C372 C386 1.377 . S
C373 C372 1.524 . S
C373 C374 1.397 . S
C373 C378 1.363 . S
C374 H351 0.950 . S
C374 C373 1.397 . S
C374 C375 1.334 . S
C375 H352 0.950 . S
C375 C374 1.334 . S
C375 C376 1.287 . S
C376 C375 1.287 . S
C376 C377 1.524 . S
C376 H395 0.913 . S
C377 H353 0.950 . S
C377 C376 1.524 . S
C377 C378 1.415 . S
C378 H354 0.950 . S
C378 C373 1.363 . S
C378 C377 1.415 . S
C379 H355 0.951 . S
C379 C380 1.366 . S
C379 C381 1.388 . S
C380 C379 1.366 . S
C380 C384 1.402 . S
C381 H356 0.951 . S
C381 C379 1.388 . S
C381 C382 1.366 . S
C382 C381 1.366 . S
C382 C383 1.414 . S
C382 C385 1.499 . S
C383 H357 0.950 1_455 S
C383 C382 1.414 . S
C383 C384 1.380 . S
C384 H358 0.928 1_455 S
C384 C380 1.402 . S
C384 C383 1.380 . S
C385 C382 1.499 . S
C385 C386 1.373 . S
C385 C387 1.389 . S
C386 H359 0.950 . S
C386 C372 1.377 . S
C386 C385 1.373 . S
C387 C371 1.377 . S
C387 C385 1.389 . S
C387 C388 1.524 . S
C388 C387 1.524 . S
C388 C389 1.397 1_455 S
C388 C393 1.363 . S
C389 H360 0.950 . S
C389 C388 1.397 1_655 S
C389 C390 1.334 . S
C390 H361 0.950 . S
C390 C389 1.334 . S
C390 C391 1.287 . S
C391 C390 1.287 . S
C391 C392 1.524 1_655 S
C391 H394 0.999 . S
C392 H362 0.950 . S
C392 C391 1.524 1_455 S
C392 C393 1.415 . S
C393 H363 0.950 . S
C393 C388 1.363 . S
C393 C392 1.415 . S
H394 C391 0.999 . S
H395 C376 0.913 . S
H396 C414 0.951 . S
H397 C416 0.951 . S
H398 C418 0.950 . S
H399 C419 0.950 . S
H400 C421 0.950 . S
H401 C424 0.950 1_556 S
H402 C425 0.950 . S
H403 C427 0.950 . S
H404 C428 0.950 . S
H405 C429 0.951 . S
H406 C431 0.951 . S
H407 C433 0.950 . S
H408 C434 0.950 . S
H409 C436 0.950 . S
H410 C439 0.950 . S
H411 C440 0.950 . S
H412 C442 0.950 . S
H413 C443 0.950 . S
C414 H396 0.951 . S
C414 C415 1.372 . S
C414 C416 1.388 . S
C415 C414 1.372 . S
C415 C419 1.378 1_564 S
C416 H397 0.951 . S
C416 C414 1.388 . S
C416 C417 1.366 1_564 S
C417 C416 1.366 1_546 S
C417 C418 1.414 . S
C417 C420 1.499 . S
C418 H398 0.950 . S
C418 C417 1.414 . S
C418 C419 1.374 . S
C419 H399 0.950 . S
C419 C415 1.378 1_546 S
C419 C418 1.374 . S
C420 C417 1.499 . S
C420 C421 1.373 1_545 S
C420 C422 1.389 . S
C421 H400 0.950 . S
C421 C420 1.373 1_565 S
C421 C437 1.377 . S
C422 C420 1.389 . S
C422 C423 1.524 1_556 S
C422 C436 1.377 . S
C423 C422 1.524 1_554 S
C423 C424 1.397 . S
C423 C428 1.363 . S
C424 H401 0.950 1_554 S
C424 C423 1.397 . S
C424 C425 1.334 . S
C425 H402 0.950 . S
C425 C424 1.334 . S
C425 C426 1.287 . S
C426 C425 1.287 . S
C426 C427 1.524 . S
C426 H445 0.913 . S
C427 H403 0.950 . S
C427 C426 1.524 . S
C427 C428 1.415 . S
C428 H404 0.950 . S
C428 C423 1.363 . S
C428 C427 1.415 . S
C429 H405 0.951 . S
C429 C430 1.366 . S
C429 C431 1.388 . S
C430 C429 1.366 . S
C430 C434 1.385 1_545 S
C431 H406 0.951 . S
C431 C429 1.388 . S
C431 C432 1.367 . S
C432 C431 1.367 . S
C432 C433 1.412 1_545 S
C432 C435 1.498 1_545 S
C433 H407 0.950 . S
C433 C432 1.412 1_565 S
C433 C434 1.374 . S
C434 H408 0.950 . S
C434 C430 1.385 1_565 S
C434 C433 1.374 . S
C435 C432 1.498 1_565 S
C435 C436 1.365 1_565 S
C435 C437 1.397 . S
C436 H409 0.950 . S
C436 C422 1.377 . S
C436 C435 1.365 1_545 S
C437 C421 1.377 . S
C437 C435 1.397 . S
C437 C438 1.524 . S
C438 C437 1.524 . S
C438 C439 1.397 . S
C438 C443 1.363 . S
C439 H410 0.950 . S
C439 C438 1.397 . S
C439 C440 1.334 . S
C440 H411 0.950 . S
C440 C439 1.334 . S
C440 C441 1.287 . S
C441 C440 1.287 . S
C441 C442 1.524 . S
C441 H444 0.999 . S
C442 H412 0.950 . S
C442 C441 1.524 . S
C442 C443 1.415 . S
C443 H413 0.950 . S
C443 C438 1.363 . S
C443 C442 1.415 . S
H444 C441 0.999 . S
H445 C426 0.913 . S
H446 C464 0.951 . S
H447 C466 0.951 . S
H448 C468 0.950 . S
H449 C469 0.950 . S
H450 C471 0.950 . S
H451 C474 0.950 . S
H452 C475 0.950 . S
H453 C477 0.950 . S
H454 C478 0.950 . S
H455 C479 0.951 . S
H456 C481 0.951 . S
H457 C483 0.950 . S
H458 C484 0.950 . S
H459 C486 0.950 . S
H460 C489 0.950 . S
H461 C490 0.950 . S
H462 C492 0.950 . S
H463 C493 0.950 . S
C464 H446 0.951 . S
C464 C465 1.366 . S
C464 C466 1.388 . S
C465 C464 1.366 . S
C465 C469 1.385 1_556 S
C466 H447 0.951 . S
C466 C464 1.388 . S
C466 C467 1.366 . S
C467 C466 1.366 . S
C467 C468 1.414 . S
C467 C470 1.499 . S
C468 H448 0.950 . S
C468 C467 1.414 . S
C468 C469 1.374 1_556 S
C469 H449 0.950 . S
C469 C465 1.385 1_554 S
C469 C468 1.374 1_554 S
C470 C467 1.499 . S
C470 C471 1.373 . S
C470 C472 1.389 . S
C471 H450 0.950 . S
C471 C470 1.373 . S
C471 C487 1.377 . S
C472 C470 1.389 . S
C472 C473 1.524 . S
C472 C486 1.377 . S
C473 C472 1.524 . S
C473 C474 1.397 . S
C473 C478 1.363 . S
C474 H451 0.950 . S
C474 C473 1.397 . S
C474 C475 1.334 . S
C475 H452 0.950 . S
C475 C474 1.334 . S
C475 C476 1.287 . S
C476 C475 1.287 . S
C476 C477 1.524 . S
C476 H495 0.913 . S
C477 H453 0.950 . S
C477 C476 1.524 . S
C477 C478 1.415 . S
C478 H454 0.950 . S
C478 C473 1.363 . S
C478 C477 1.415 . S
C479 H455 0.951 . S
C479 C480 1.366 . S
C479 C481 1.388 . S
C480 C479 1.366 . S
C480 C484 1.385 . S
C481 H456 0.951 . S
C481 C479 1.388 . S
C481 C482 1.366 . S
C482 C481 1.366 . S
C482 C483 1.414 . S
C482 C485 1.499 . S
C483 H457 0.950 . S
C483 C482 1.414 . S
C483 C484 1.374 . S
C484 H458 0.950 . S
C484 C480 1.385 . S
C484 C483 1.374 . S
C485 C482 1.499 . S
C485 C486 1.373 . S
C485 C487 1.389 . S
C486 H459 0.950 . S
C486 C472 1.377 . S
C486 C485 1.373 . S
C487 C471 1.377 . S
C487 C485 1.389 . S
C487 C488 1.524 . S
C488 C487 1.524 . S
C488 C489 1.397 . S
C488 C493 1.363 . S
C489 H460 0.950 . S
C489 C488 1.397 . S
C489 C490 1.334 . S
C490 H461 0.950 . S
C490 C489 1.334 . S
C490 C491 1.287 1_556 S
C491 C490 1.287 1_554 S
C491 C492 1.524 . S
C491 H494 0.999 . S
C492 H462 0.950 . S
C492 C491 1.524 . S
C492 C493 1.415 1_554 S
C493 H463 0.950 . S
C493 C488 1.363 . S
C493 C492 1.415 1_556 S
H494 C491 0.999 . S
H495 C476 0.913 . S
H496 C514 0.951 1_554 S
H497 C516 0.951 . S
H498 C518 0.950 . S
H499 C519 0.950 . S
H500 C521 0.950 . S
H501 C524 0.950 1_556 S
H502 C525 0.950 . S
H503 C527 0.950 . S
H504 C528 0.950 1_556 S
H505 C529 0.951 . S
H506 C531 0.951 . S
H507 C533 0.950 . S
H508 C534 0.950 . S
H509 C536 0.950 . S
H510 C539 0.950 . S
H511 C540 0.950 . S
H512 C542 0.950 . S
H513 C543 0.950 . S
C514 H496 0.951 1_556 S
C514 C515 1.366 . S
C514 C516 1.388 . S
C515 C514 1.366 . S
C515 C519 1.385 . S
C516 H497 0.951 . S
C516 C514 1.388 . S
C516 C517 1.366 . S
C517 C516 1.366 . S
C517 C518 1.414 . S
C517 C520 1.499 . S
C518 H498 0.950 . S
C518 C517 1.414 . S
C518 C519 1.374 . S
C519 H499 0.950 . S
C519 C515 1.385 . S
C519 C518 1.374 . S
C520 C517 1.499 . S
C520 C521 1.373 . S
C520 C522 1.389 . S
C521 H500 0.950 . S
C521 C520 1.373 . S
C521 C537 1.377 . S
C522 C520 1.389 . S
C522 C523 1.524 . S
C522 C536 1.377 . S
C523 C522 1.524 . S
C523 C524 1.397 1_556 S
C523 C528 1.363 1_556 S
C524 H501 0.950 1_554 S
C524 C523 1.397 1_554 S
C524 C525 1.334 . S
C525 H502 0.950 . S
C525 C524 1.334 . S
C525 C526 1.287 . S
C526 C525 1.287 . S
C526 C527 1.524 . S
C526 H545 0.913 . S
C527 H503 0.950 . S
C527 C526 1.524 . S
C527 C528 1.415 . S
C528 H504 0.950 1_554 S
C528 C523 1.363 1_554 S
C528 C527 1.415 . S
C529 H505 0.951 . S
C529 C530 1.366 . S
C529 C531 1.388 . S
C530 C529 1.366 . S
C530 C534 1.385 . S
C531 H506 0.951 . S
C531 C529 1.388 . S
C531 C532 1.366 . S
C532 C531 1.366 . S
C532 C533 1.414 . S
C532 C535 1.499 . S
C533 H507 0.950 . S
C533 C532 1.414 . S
C533 C534 1.374 . S
C534 H508 0.950 . S
C534 C530 1.385 . S
C534 C533 1.374 . S
C535 C532 1.499 . S
C535 C536 1.373 . S
C535 C537 1.389 . S
C536 H509 0.950 . S
C536 C522 1.377 . S
C536 C535 1.373 . S
C537 C521 1.377 . S
C537 C535 1.389 . S
C537 C538 1.524 . S
C538 C537 1.524 . S
C538 C539 1.397 . S
C538 C543 1.363 . S
C539 H510 0.950 . S
C539 C538 1.397 . S
C539 C540 1.334 . S
C540 H511 0.950 . S
C540 C539 1.334 . S
C540 C541 1.287 . S
C541 C540 1.287 . S
C541 C542 1.524 . S
C541 H544 0.999 . S
C542 H512 0.950 . S
C542 C541 1.524 . S
C542 C543 1.415 . S
C543 H513 0.950 . S
C543 C538 1.363 . S
C543 C542 1.415 . S
H544 C541 0.999 . S
H545 C526 0.913 . S
H546 C564 0.951 . S
H547 C566 0.951 . S
H548 C568 0.950 . S
H549 C569 0.950 . S
H550 C571 0.950 . S
H551 C574 0.950 . S
H552 C575 0.960 . S
H553 C577 0.950 . S
H554 C578 0.950 . S
H555 C579 0.951 . S
H556 C581 0.951 . S
H557 C583 0.950 . S
H558 C584 0.950 . S
H559 C586 0.950 . S
H560 C589 0.950 . S
H561 C590 0.950 1_655 S
H562 C592 0.950 . S
H563 C593 0.950 . S
C564 H546 0.951 . S
C564 C565 1.366 . S
C564 C566 1.388 . S
C565 C564 1.366 . S
C565 C569 1.385 1_655 S
C566 H547 0.951 . S
C566 C564 1.388 . S
C566 C567 1.351 1_654 S
C567 C566 1.351 1_456 S
C567 C568 1.427 . S
C567 C570 1.500 . S
C568 H548 0.950 . S
C568 C567 1.427 . S
C568 C569 1.374 1_556 S
C569 H549 0.950 . S
C569 C565 1.385 1_455 S
C569 C568 1.374 1_554 S
C570 C567 1.500 . S
C570 C571 1.373 . S
C570 C572 1.389 1_455 S
C571 H550 0.950 . S
C571 C570 1.373 . S
C571 C587 1.377 . S
C572 C570 1.389 1_655 S
C572 C573 1.524 1_556 S
C572 C586 1.377 . S
C573 C572 1.524 1_554 S
C573 C574 1.397 1_655 S
C573 C578 1.363 . S
C574 H551 0.950 . S
C574 C573 1.397 1_455 S
C574 C575 1.336 . S
C575 H552 0.960 . S
C575 C574 1.336 . S
C575 C576 1.275 1_455 S
C576 C575 1.275 1_655 S
C576 C577 1.524 . S
C576 H595 0.913 . S
C577 H553 0.950 . S
C577 C576 1.524 . S
C577 C578 1.415 . S
C578 H554 0.950 . S
C578 C573 1.363 . S
C578 C577 1.415 . S
C579 H555 0.951 . S
C579 C580 1.366 . S
C579 C581 1.388 . S
C580 C579 1.366 . S
C580 C584 1.385 1_455 S
C581 H556 0.951 . S
C581 C579 1.388 . S
C581 C582 1.366 . S
C582 C581 1.366 . S
C582 C583 1.414 1_455 S
C582 C585 1.502 . S
C583 H557 0.950 . S
C583 C582 1.414 1_655 S
C583 C584 1.374 . S
C584 H558 0.950 . S
C584 C580 1.385 1_655 S
C584 C583 1.374 . S
C585 C582 1.502 . S
C585 C586 1.361 1_455 S
C585 C587 1.403 . S
C586 H559 0.950 . S
C586 C572 1.377 . S
C586 C585 1.361 1_655 S
C587 C571 1.377 . S
C587 C585 1.403 . S
C587 C588 1.524 . S
C588 C587 1.524 . S
C588 C589 1.397 1_455 S
C588 C593 1.363 . S
C589 H560 0.950 . S
C589 C588 1.397 1_655 S
C589 C590 1.334 1_655 S
C590 H561 0.950 1_455 S
C590 C589 1.334 1_455 S
C590 C591 1.287 . S
C591 C590 1.287 . S
C591 C592 1.524 . S
C591 H594 0.999 . S
C592 H562 0.950 . S
C592 C591 1.524 . S
C592 C593 1.415 . S
C593 H563 0.950 . S
C593 C588 1.363 . S
C593 C592 1.415 . S
H594 C591 0.999 . S
H595 C576 0.913 . S
H596 C614 0.951 . S
H597 C616 0.951 . S
H598 C618 0.950 . S
H599 C619 0.950 . S
H600 C621 0.950 . S
H601 C624 0.950 . S
H602 C625 0.950 . S
H603 C627 0.950 . S
H604 C628 0.950 1_455 S
H605 C629 0.951 . S
H606 C631 0.951 . S
H607 C633 0.950 . S
H608 C634 0.950 . S
H609 C636 0.950 . S
H610 C639 0.950 . S
H611 C640 0.950 . S
H612 C642 0.950 . S
H613 C643 0.950 . S
C614 H596 0.951 . S
C614 C615 1.366 . S
C614 C616 1.388 . S
C615 C614 1.366 . S
C615 C619 1.385 . S
C616 H597 0.951 . S
C616 C614 1.388 . S
C616 C617 1.366 . S
C617 C616 1.366 . S
C617 C618 1.414 . S
C617 C620 1.499 . S
C618 H598 0.950 . S
C618 C617 1.414 . S
C618 C619 1.374 . S
C619 H599 0.950 . S
C619 C615 1.385 . S
C619 C618 1.374 . S
C620 C617 1.499 . S
C620 C621 1.373 . S
C620 C622 1.389 . S
C621 H600 0.950 . S
C621 C620 1.373 . S
C621 C637 1.377 . S
C622 C620 1.389 . S
C622 C623 1.524 . S
C622 C636 1.377 . S
C623 C622 1.524 . S
C623 C624 1.397 1_455 S
C623 C628 1.363 1_455 S
C624 H601 0.950 . S
C624 C623 1.397 1_655 S
C624 C625 1.334 . S
C625 H602 0.950 . S
C625 C624 1.334 . S
C625 C626 1.287 . S
C626 C625 1.287 . S
C626 C627 1.524 . S
C626 H645 0.913 . S
C627 H603 0.950 . S
C627 C626 1.524 . S
C627 C628 1.415 . S
C628 H604 0.950 1_655 S
C628 C623 1.363 1_655 S
C628 C627 1.415 . S
C629 H605 0.951 . S
C629 C630 1.366 . S
C629 C631 1.388 . S
C630 C629 1.366 . S
C630 C634 1.385 . S
C631 H606 0.951 . S
C631 C629 1.388 . S
C631 C632 1.366 . S
C632 C631 1.366 . S
C632 C633 1.414 . S
C632 C635 1.499 . S
C633 H607 0.950 . S
C633 C632 1.414 . S
C633 C634 1.374 . S
C634 H608 0.950 . S
C634 C630 1.385 . S
C634 C633 1.374 . S
C635 C632 1.499 . S
C635 C636 1.373 . S
C635 C637 1.389 . S
C636 H609 0.950 . S
C636 C622 1.377 . S
C636 C635 1.373 . S
C637 C621 1.377 . S
C637 C635 1.389 . S
C637 C638 1.524 . S
C638 C637 1.524 . S
C638 C639 1.397 . S
C638 C643 1.363 . S
C639 H610 0.950 . S
C639 C638 1.397 . S
C639 C640 1.334 . S
C640 H611 0.950 . S
C640 C639 1.334 . S
C640 C641 1.287 . S
C641 C640 1.287 . S
C641 C642 1.524 . S
C641 H644 0.999 . S
C642 H612 0.950 . S
C642 C641 1.524 . S
C642 C643 1.415 . S
C643 H613 0.950 . S
C643 C638 1.363 . S
C643 C642 1.415 . S
H644 C641 0.999 . S
H645 C626 0.913 . S
H646 C664 0.951 . S
H647 C666 0.951 . S
H648 C668 0.950 . S
H649 C669 0.950 . S
H650 C671 0.956 . S
H651 C674 0.950 1_565 S
H652 C675 0.950 . S
H653 C677 0.950 . S
H654 C678 0.950 . S
H655 C679 0.951 . S
H656 C681 0.951 . S
H657 C683 0.950 . S
H658 C684 0.950 . S
H659 C686 0.950 . S
H660 C689 0.950 . S
H661 C690 0.950 . S
H662 C692 0.950 . S
H663 C693 0.950 . S
C664 H646 0.951 . S
C664 C665 1.366 . S
C664 C666 1.388 . S
C665 C664 1.366 . S
C665 C669 1.385 1_545 S
C666 H647 0.951 . S
C666 C664 1.388 . S
C666 C667 1.366 . S
C667 C666 1.366 . S
C667 C668 1.414 1_545 S
C667 C670 1.499 . S
C668 H648 0.950 . S
C668 C667 1.414 1_565 S
C668 C669 1.374 . S
C669 H649 0.950 . S
C669 C665 1.385 1_565 S
C669 C668 1.374 . S
C670 C667 1.499 . S
C670 C671 1.368 1_545 S
C670 C672 1.389 . S
C671 H650 0.956 . S
C671 C670 1.368 1_565 S
C671 C687 1.376 1_565 S
C672 C670 1.389 . S
C672 C673 1.524 . S
C672 C686 1.377 . S
C673 C672 1.524 . S
C673 C674 1.397 . S
C673 C678 1.363 . S
C674 H651 0.950 1_545 S
C674 C673 1.397 . S
C674 C675 1.334 . S
C675 H652 0.950 . S
C675 C674 1.334 . S
C675 C676 1.287 . S
C676 C675 1.287 . S
C676 C677 1.524 . S
C676 H695 0.913 . S
C677 H653 0.950 . S
C677 C676 1.524 . S
C677 C678 1.415 . S
C678 H654 0.950 . S
C678 C673 1.363 . S
C678 C677 1.415 . S
C679 H655 0.951 . S
C679 C680 1.366 1_565 S
C679 C681 1.388 . S
C680 C679 1.366 1_545 S
C680 C684 1.385 . S
C681 H656 0.951 . S
C681 C679 1.388 . S
C681 C682 1.366 1_565 S
C682 C681 1.366 1_545 S
C682 C683 1.414 . S
C682 C685 1.499 . S
C683 H657 0.950 . S
C683 C682 1.414 . S
C683 C684 1.374 . S
C684 H658 0.950 . S
C684 C680 1.385 . S
C684 C683 1.374 . S
C685 C682 1.499 . S
C685 C686 1.373 . S
C685 C687 1.397 . S
C686 H659 0.950 . S
C686 C672 1.377 . S
C686 C685 1.373 . S
C687 C671 1.376 1_545 S
C687 C685 1.397 . S
C687 C688 1.518 1_545 S
C688 C687 1.518 1_565 S
C688 C689 1.397 1_565 S
C688 C693 1.363 . S
C689 H660 0.950 . S
C689 C688 1.397 1_545 S
C689 C690 1.334 . S
C690 H661 0.950 . S
C690 C689 1.334 . S
C690 C691 1.287 1_545 S
C691 C690 1.287 1_565 S
C691 C692 1.524 . S
C691 H694 0.999 . S
C692 H662 0.950 . S
C692 C691 1.524 . S
C692 C693 1.415 . S
C693 H663 0.950 . S
C693 C688 1.363 . S
C693 C692 1.415 . S
H694 C691 0.999 . S
H695 C676 0.913 . S
H696 C714 0.951 . S
H697 C716 0.951 . S
H698 C718 0.950 . S
H699 C719 0.950 . S
H700 C721 0.950 . S
H701 C724 0.950 . S
H702 C725 0.950 . S
H703 C727 0.950 . S
H704 C728 0.950 . S
H705 C729 0.951 . S
H706 C731 0.951 . S
H707 C733 0.950 . S
H708 C734 0.950 . S
H709 C736 0.950 . S
H710 C739 0.950 . S
H711 C740 0.950 . S
H712 C742 0.950 . S
H713 C743 0.950 . S
C714 H696 0.951 . S
C714 C715 1.366 . S
C714 C716 1.388 . S
C715 C714 1.366 . S
C715 C719 1.385 . S
C716 H697 0.951 . S
C716 C714 1.388 . S
C716 C717 1.366 . S
C717 C716 1.366 . S
C717 C718 1.414 . S
C717 C720 1.499 . S
C718 H698 0.950 . S
C718 C717 1.414 . S
C718 C719 1.374 . S
C719 H699 0.950 . S
C719 C715 1.385 . S
C719 C718 1.374 . S
C720 C717 1.499 . S
C720 C721 1.373 . S
C720 C722 1.389 . S
C721 H700 0.950 . S
C721 C720 1.373 . S
C721 C737 1.377 . S
C722 C720 1.389 . S
C722 C723 1.524 . S
C722 C736 1.377 . S
C723 C722 1.524 . S
C723 C724 1.397 . S
C723 C728 1.363 . S
C724 H701 0.950 . S
C724 C723 1.397 . S
C724 C725 1.334 . S
C725 H702 0.950 . S
C725 C724 1.334 . S
C725 C726 1.287 . S
C726 C725 1.287 . S
C726 C727 1.524 . S
C726 H745 0.913 . S
C727 H703 0.950 . S
C727 C726 1.524 . S
C727 C728 1.415 . S
C728 H704 0.950 . S
C728 C723 1.363 . S
C728 C727 1.415 . S
C729 H705 0.951 . S
C729 C730 1.366 . S
C729 C731 1.388 . S
C730 C729 1.366 . S
C730 C734 1.385 . S
C731 H706 0.951 . S
C731 C729 1.388 . S
C731 C732 1.366 . S
C732 C731 1.366 . S
C732 C733 1.414 . S
C732 C735 1.499 . S
C733 H707 0.950 . S
C733 C732 1.414 . S
C733 C734 1.374 . S
C734 H708 0.950 . S
C734 C730 1.385 . S
C734 C733 1.374 . S
C735 C732 1.499 . S
C735 C736 1.373 . S
C735 C737 1.389 . S
C736 H709 0.950 . S
C736 C722 1.377 . S
C736 C735 1.373 . S
C737 C721 1.377 . S
C737 C735 1.389 . S
C737 C738 1.524 . S
C738 C737 1.524 . S
C738 C739 1.397 . S
C738 C743 1.363 . S
C739 H710 0.950 . S
C739 C738 1.397 . S
C739 C740 1.334 . S
C740 H711 0.950 . S
C740 C739 1.334 . S
C740 C741 1.287 . S
C741 C740 1.287 . S
C741 C742 1.524 . S
C741 H744 0.999 . S
C742 H712 0.950 . S
C742 C741 1.524 . S
C742 C743 1.415 . S
C743 H713 0.950 . S
C743 C738 1.363 . S
C743 C742 1.415 . S
H744 C741 0.999 . S
H745 C726 0.913 . S
H746 C764 0.951 . S
H747 C766 0.951 . S
H748 C768 0.950 . S
H749 C769 0.950 . S
H750 C771 0.950 . S
H751 C774 0.950 . S
H752 C775 0.950 . S
H753 C777 0.950 . S
H754 C778 0.950 . S
H755 C779 0.951 . S
H756 C781 0.951 . S
H757 C783 0.950 . S
H758 C784 0.950 . S
H759 C786 0.950 . S
H760 C789 0.950 . S
H761 C790 0.950 . S
H762 C792 0.950 . S
H763 C793 0.950 . S
C764 H746 0.951 . S
C764 C765 1.366 . S
C764 C766 1.388 . S
C765 C764 1.366 . S
C765 C769 1.385 . S
C766 H747 0.951 . S
C766 C764 1.388 . S
C766 C767 1.366 . S
C767 C766 1.366 . S
C767 C768 1.414 . S
C767 C770 1.499 . S
C768 H748 0.950 . S
C768 C767 1.414 . S
C768 C769 1.374 . S
C769 H749 0.950 . S
C769 C765 1.385 . S
C769 C768 1.374 . S
C770 C767 1.499 . S
C770 C771 1.373 . S
C770 C772 1.389 . S
C771 H750 0.950 . S
C771 C770 1.373 . S
C771 C787 1.377 . S
C772 C770 1.389 . S
C772 C773 1.524 . S
C772 C786 1.377 . S
C773 C772 1.524 . S
C773 C774 1.397 . S
C773 C778 1.363 . S
C774 H751 0.950 . S
C774 C773 1.397 . S
C774 C775 1.334 . S
C775 H752 0.950 . S
C775 C774 1.334 . S
C775 C776 1.287 . S
C776 C775 1.287 . S
C776 C777 1.524 . S
C776 H795 0.913 . S
C777 H753 0.950 . S
C777 C776 1.524 . S
C777 C778 1.415 . S
C778 H754 0.950 . S
C778 C773 1.363 . S
C778 C777 1.415 . S
C779 H755 0.951 . S
C779 C780 1.366 . S
C779 C781 1.388 . S
C780 C779 1.366 . S
C780 C784 1.385 . S
C781 H756 0.951 . S
C781 C779 1.388 . S
C781 C782 1.366 . S
C782 C781 1.366 . S
C782 C783 1.414 . S
C782 C785 1.499 . S
C783 H757 0.950 . S
C783 C782 1.414 . S
C783 C784 1.374 . S
C784 H758 0.950 . S
C784 C780 1.385 . S
C784 C783 1.374 . S
C785 C782 1.499 . S
C785 C786 1.373 . S
C785 C787 1.389 . S
C786 H759 0.950 . S
C786 C772 1.377 . S
C786 C785 1.373 . S
C787 C771 1.377 . S
C787 C785 1.389 . S
C787 C788 1.524 . S
C788 C787 1.524 . S
C788 C789 1.397 . S
C788 C793 1.363 . S
C789 H760 0.950 . S
C789 C788 1.397 . S
C789 C790 1.334 . S
C790 H761 0.950 . S
C790 C789 1.334 . S
C790 C791 1.287 . S
C791 C790 1.287 . S
C791 C792 1.524 . S
C791 H794 0.999 . S
C792 H762 0.950 . S
C792 C791 1.524 . S
C792 C793 1.415 . S
C793 H763 0.950 . S
C793 C788 1.363 . S
C793 C792 1.415 . S
H794 C791 0.999 . S
H795 C776 0.913 . S
H796 C814 0.951 1_556 S
H797 C816 0.947 1_655 S
H798 C818 0.950 . S
H799 C819 0.950 . S
H800 C821 0.928 1_655 S
H801 C824 0.950 . S
H802 C825 0.950 . S
H803 C827 0.950 . S
H804 C828 0.950 . S
H805 C829 0.951 . S
H806 C831 0.951 . S
H807 C833 0.950 . S
H808 C834 0.950 . S
H809 C836 0.950 . S
H810 C839 0.950 . S
H811 C840 0.950 . S
H812 C842 0.950 . S
H813 C843 0.950 . S
C814 H796 0.951 1_554 S
C814 C815 1.370 . S
C814 C816 1.384 1_654 S
C815 C814 1.370 . S
C815 C819 1.377 1_655 S
C816 H797 0.947 1_455 S
C816 C814 1.384 1_456 S
C816 C817 1.374 1_556 S
C817 C816 1.374 1_554 S
C817 C818 1.414 . S
C817 C820 1.499 1_554 S
C818 H798 0.950 . S
C818 C817 1.414 . S
C818 C819 1.374 . S
C819 H799 0.950 . S
C819 C815 1.377 1_455 S
C819 C818 1.374 . S
C820 C817 1.499 1_556 S
C820 C821 1.373 1_556 S
C820 C822 1.389 . S
C821 H800 0.928 1_455 S
C821 C820 1.373 1_554 S
C821 C837 1.377 1_554 S
C822 C820 1.389 . S
C822 C823 1.524 . S
C822 C836 1.377 . S
C823 C822 1.524 . S
C823 C824 1.397 . S
C823 C828 1.363 . S
C824 H801 0.950 . S
C824 C823 1.397 . S
C824 C825 1.334 . S
C825 H802 0.950 . S
C825 C824 1.334 . S
C825 C826 1.287 . S
C826 C825 1.287 . S
C826 C827 1.524 . S
C826 H845 0.913 . S
C827 H803 0.950 . S
C827 C826 1.524 . S
C827 C828 1.415 . S
C828 H804 0.950 . S
C828 C823 1.363 . S
C828 C827 1.415 . S
C829 H805 0.951 . S
C829 C830 1.366 . S
C829 C831 1.388 . S
C830 C829 1.366 . S
C830 C834 1.385 . S
C831 H806 0.951 . S
C831 C829 1.388 . S
C831 C832 1.366 . S
C832 C831 1.366 . S
C832 C833 1.414 . S
C832 C835 1.499 . S
C833 H807 0.950 . S
C833 C832 1.414 . S
C833 C834 1.374 . S
C834 H808 0.950 . S
C834 C830 1.385 . S
C834 C833 1.374 . S
C835 C832 1.499 . S
C835 C836 1.373 . S
C835 C837 1.389 . S
C836 H809 0.950 . S
C836 C822 1.377 . S
C836 C835 1.373 . S
C837 C821 1.377 1_556 S
C837 C835 1.389 . S
C837 C838 1.524 1_456 S
C838 C837 1.524 1_654 S
C838 C839 1.397 1_554 S
C838 C843 1.363 1_655 S
C839 H810 0.950 . S
C839 C838 1.397 1_556 S
C839 C840 1.334 . S
C840 H811 0.950 . S
C840 C839 1.334 . S
C840 C841 1.287 1_556 S
C841 C840 1.287 1_554 S
C841 C842 1.524 . S
C841 H844 0.999 . S
C842 H812 0.950 . S
C842 C841 1.524 . S
C842 C843 1.415 1_655 S
C843 H813 0.950 . S
C843 C838 1.363 1_455 S
C843 C842 1.415 1_455 S
H844 C841 0.999 . S
H845 C826 0.913 . S
H846 C864 0.944 1_565 S
H847 C866 0.951 . S
H848 C868 0.950 . S
H849 C869 0.952 . S
H850 C871 0.981 . S
H851 C874 0.950 . S
H852 C875 0.950 . S
H853 C877 0.950 . S
H854 C878 0.950 . S
H855 C879 0.951 . S
H856 C881 0.951 . S
H857 C883 0.950 . S
H858 C884 0.950 . S
H859 C886 0.950 . S
H860 C889 0.950 . S
H861 C890 0.950 . S
H862 C892 0.950 . S
H863 C893 0.950 1_554 S
C864 H846 0.944 1_545 S
C864 C865 1.361 1_546 S
C864 C866 1.398 . S
C865 C864 1.361 1_564 S
C865 C869 1.380 1_565 S
C866 H847 0.951 . S
C866 C864 1.398 . S
C866 C867 1.366 . S
C867 C866 1.366 . S
C867 C868 1.414 1_556 S
C867 C870 1.499 . S
C868 H848 0.950 . S
C868 C867 1.414 1_554 S
C868 C869 1.374 . S
C869 H849 0.952 . S
C869 C865 1.380 1_545 S
C869 C868 1.374 . S
C870 C867 1.499 . S
C870 C871 1.349 1_545 S
C870 C872 1.389 . S
C871 H850 0.981 . S
C871 C870 1.349 1_565 S
C871 C887 1.372 1_565 S
C872 C870 1.389 . S
C872 C873 1.524 . S
C872 C886 1.377 . S
C873 C872 1.524 . S
C873 C874 1.397 . S
C873 C878 1.363 . S
C874 H851 0.950 . S
C874 C873 1.397 . S
C874 C875 1.334 . S
C875 H852 0.950 . S
C875 C874 1.334 . S
C875 C876 1.287 . S
C876 C875 1.287 . S
C876 C877 1.524 . S
C876 H895 0.913 . S
C877 H853 0.950 . S
C877 C876 1.524 . S
C877 C878 1.415 . S
C878 H854 0.950 . S
C878 C873 1.363 . S
C878 C877 1.415 . S
C879 H855 0.951 . S
C879 C880 1.366 . S
C879 C881 1.388 . S
C880 C879 1.366 . S
C880 C884 1.385 . S
C881 H856 0.951 . S
C881 C879 1.388 . S
C881 C882 1.366 . S
C882 C881 1.366 . S
C882 C883 1.414 . S
C882 C885 1.499 . S
C883 H857 0.950 . S
C883 C882 1.414 . S
C883 C884 1.374 . S
C884 H858 0.950 . S
C884 C880 1.385 . S
C884 C883 1.374 . S
C885 C882 1.499 . S
C885 C886 1.373 . S
C885 C887 1.389 . S
C886 H859 0.950 . S
C886 C872 1.377 . S
C886 C885 1.373 . S
C887 C871 1.372 1_545 S
C887 C885 1.389 . S
C887 C888 1.524 1_545 S
C888 C887 1.524 1_565 S
C888 C889 1.397 . S
C888 C893 1.363 . S
C889 H860 0.950 . S
C889 C888 1.397 . S
C889 C890 1.334 . S
C890 H861 0.950 . S
C890 C889 1.334 . S
C890 C891 1.287 . S
C891 C890 1.287 . S
C891 C892 1.524 1_556 S
C891 H894 0.999 . S
C892 H862 0.950 . S
C892 C891 1.524 1_554 S
C892 C893 1.415 1_554 S
C893 H863 0.950 1_556 S
C893 C888 1.363 . S
C893 C892 1.415 1_556 S
H894 C891 0.999 . S
H895 C876 0.913 . S
H896 C914 0.951 . S
H897 C916 0.951 . S
H898 C918 0.950 . S
H899 C919 0.950 . S
H900 C921 0.950 . S
H901 C924 0.950 . S
H902 C925 0.950 . S
H903 C927 0.950 . S
H904 C928 0.950 . S
H905 C929 0.951 . S
H906 C931 0.951 . S
H907 C933 0.950 . S
H908 C934 0.950 . S
H909 C936 0.950 . S
H910 C939 0.950 . S
H911 C940 0.950 . S
H912 C942 0.950 . S
H913 C943 0.950 . S
C914 H896 0.951 . S
C914 C915 1.366 1_556 S
C914 C916 1.388 . S
C915 C914 1.366 1_554 S
C915 C919 1.385 . S
C916 H897 0.951 . S
C916 C914 1.388 . S
C916 C917 1.366 . S
C917 C916 1.366 . S
C917 C918 1.414 . S
C917 C920 1.499 . S
C918 H898 0.950 . S
C918 C917 1.414 . S
C918 C919 1.374 1_556 S
C919 H899 0.950 . S
C919 C915 1.385 . S
C919 C918 1.374 1_554 S
C920 C917 1.499 . S
C920 C921 1.373 . S
C920 C922 1.389 . S
C921 H900 0.950 . S
C921 C920 1.373 . S
C921 C937 1.377 . S
C922 C920 1.389 . S
C922 C923 1.524 . S
C922 C936 1.377 . S
C923 C922 1.524 . S
C923 C924 1.397 1_556 S
C923 C928 1.363 . S
C924 H901 0.950 . S
C924 C923 1.397 1_554 S
C924 C925 1.334 . S
C925 H902 0.950 . S
C925 C924 1.334 . S
C925 C926 1.287 . S
C926 C925 1.287 . S
C926 C927 1.524 1_554 S
C926 H945 0.913 . S
C927 H903 0.950 . S
C927 C926 1.524 1_556 S
C927 C928 1.415 . S
C928 H904 0.950 . S
C928 C923 1.363 . S
C928 C927 1.415 . S
C929 H905 0.951 . S
C929 C930 1.366 . S
C929 C931 1.388 . S
C930 C929 1.366 . S
C930 C934 1.385 . S
C931 H906 0.951 . S
C931 C929 1.388 . S
C931 C932 1.366 . S
C932 C931 1.366 . S
C932 C933 1.414 . S
C932 C935 1.499 . S
C933 H907 0.950 . S
C933 C932 1.414 . S
C933 C934 1.374 . S
C934 H908 0.950 . S
C934 C930 1.385 . S
C934 C933 1.374 . S
C935 C932 1.499 . S
C935 C936 1.373 . S
C935 C937 1.389 . S
C936 H909 0.950 . S
C936 C922 1.377 . S
C936 C935 1.373 . S
C937 C921 1.377 . S
C937 C935 1.389 . S
C937 C938 1.524 . S
C938 C937 1.524 . S
C938 C939 1.397 . S
C938 C943 1.363 . S
C939 H910 0.950 . S
C939 C938 1.397 . S
C939 C940 1.334 . S
C940 H911 0.950 . S
C940 C939 1.334 . S
C940 C941 1.287 . S
C941 C940 1.287 . S
C941 C942 1.524 . S
C941 H944 0.999 . S
C942 H912 0.950 . S
C942 C941 1.524 . S
C942 C943 1.415 . S
C943 H913 0.950 . S
C943 C938 1.363 . S
C943 C942 1.415 . S
H944 C941 0.999 . S
H945 C926 0.913 . S
H946 C964 0.951 . S
H947 C966 0.951 . S
H948 C968 0.950 1_554 S
H949 C969 0.950 . S
H950 C971 0.950 . S
H951 C974 0.950 . S
H952 C975 0.950 . S
H953 C977 0.950 . S
H954 C978 0.950 . S
H955 C979 0.951 . S
H956 C981 0.951 . S
H957 C983 0.950 . S
H958 C984 0.950 . S
H959 C986 0.950 . S
H960 C989 0.950 . S
H961 C990 0.950 . S
H962 C992 0.950 . S
H963 C993 0.950 1_554 S
C964 H946 0.951 . S
C964 C965 1.366 . S
C964 C966 1.388 . S
C965 C964 1.366 . S
C965 C969 1.385 1_556 S
C966 H947 0.951 . S
C966 C964 1.388 . S
C966 C967 1.366 . S
C967 C966 1.366 . S
C967 C968 1.414 . S
C967 C970 1.499 . S
C968 H948 0.950 1_556 S
C968 C967 1.414 . S
C968 C969 1.374 1_556 S
C969 H949 0.950 . S
C969 C965 1.385 1_554 S
C969 C968 1.374 1_554 S
C970 C967 1.499 . S
C970 C971 1.373 . S
C970 C972 1.389 . S
C971 H950 0.950 . S
C971 C970 1.373 . S
C971 C987 1.377 . S
C972 C970 1.389 . S
C972 C973 1.524 . S
C972 C986 1.377 . S
C973 C972 1.524 . S
C973 C974 1.397 . S
C973 C978 1.363 . S
C974 H951 0.950 . S
C974 C973 1.397 . S
C974 C975 1.334 . S
C975 H952 0.950 . S
C975 C974 1.334 . S
C975 C976 1.287 . S
C976 C975 1.287 . S
C976 C977 1.524 . S
C976 H995 0.913 . S
C977 H953 0.950 . S
C977 C976 1.524 . S
C977 C978 1.415 . S
C978 H954 0.950 . S
C978 C973 1.363 . S
C978 C977 1.415 . S
C979 H955 0.951 . S
C979 C980 1.366 . S
C979 C981 1.388 . S
C980 C979 1.366 . S
C980 C984 1.385 . S
C981 H956 0.951 . S
C981 C979 1.388 . S
C981 C982 1.366 . S
C982 C981 1.366 . S
C982 C983 1.414 . S
C982 C985 1.499 . S
C983 H957 0.950 . S
C983 C982 1.414 . S
C983 C984 1.374 . S
C984 H958 0.950 . S
C984 C980 1.385 . S
C984 C983 1.374 . S
C985 C982 1.499 . S
C985 C986 1.373 . S
C985 C987 1.389 . S
C986 H959 0.950 . S
C986 C972 1.377 . S
C986 C985 1.373 . S
C987 C971 1.377 . S
C987 C985 1.389 . S
C987 C988 1.524 . S
C988 C987 1.524 . S
C988 C989 1.397 . S
C988 C993 1.363 . S
C989 H960 0.950 . S
C989 C988 1.397 . S
C989 C990 1.334 . S
C990 H961 0.950 . S
C990 C989 1.334 . S
C990 C991 1.287 . S
C991 C990 1.287 . S
C991 C992 1.524 1_556 S
C991 H994 0.999 . S
C992 H962 0.950 . S
C992 C991 1.524 1_554 S
C992 C993 1.415 1_554 S
C993 H963 0.950 1_556 S
C993 C988 1.363 . S
C993 C992 1.415 1_556 S
H994 C991 0.999 . S
H995 C976 0.913 . S
H996 C1014 0.951 . S
H997 C1016 0.951 . S
H998 C1018 0.950 . S
H999 C1019 0.950 . S
H1000 C1021 0.950 . S
H1001 C1024 0.950 . S
H1002 C1025 0.950 . S
H1003 C1027 0.952 . S
H1004 C1028 0.950 . S
H1005 C1029 0.951 1_655 S
H1006 C1031 0.951 1_655 S
H1007 C1033 0.950 . S
H1008 C1034 0.950 . S
H1009 C1036 0.950 1_556 S
H1010 C1039 0.950 . S
H1011 C1040 0.942 1_455 S
H1012 C1042 0.950 . S
H1013 C1043 0.950 . S
C1014 H996 0.951 . S
C1014 C1015 1.366 . S
C1014 C1016 1.388 . S
C1015 C1014 1.366 . S
C1015 C1019 1.385 . S
C1016 H997 0.951 . S
C1016 C1014 1.388 . S
C1016 C1017 1.366 . S
C1017 C1016 1.366 . S
C1017 C1018 1.414 . S
C1017 C1020 1.499 . S
C1018 H998 0.950 . S
C1018 C1017 1.414 . S
C1018 C1019 1.374 . S
C1019 H999 0.950 . S
C1019 C1015 1.385 . S
C1019 C1018 1.374 . S
C1020 C1017 1.499 . S
C1020 C1021 1.373 . S
C1020 C1022 1.389 . S
C1021 H1000 0.950 . S
C1021 C1020 1.373 . S
C1021 C1037 1.377 . S
C1022 C1020 1.389 . S
C1022 C1023 1.524 . S
C1022 C1036 1.377 . S
C1023 C1022 1.524 . S
C1023 C1024 1.397 . S
C1023 C1028 1.363 . S
C1024 H1001 0.950 . S
C1024 C1023 1.397 . S
C1024 C1025 1.334 . S
C1025 H1002 0.950 . S
C1025 C1024 1.334 . S
C1025 C1026 1.287 1_554 S
C1026 C1025 1.287 1_556 S
C1026 C1027 1.525 . S
C1026 H1045 0.913 . S
C1027 H1003 0.952 . S
C1027 C1026 1.525 . S
C1027 C1028 1.411 1_556 S
C1028 H1004 0.950 . S
C1028 C1023 1.363 . S
C1028 C1027 1.411 1_554 S
C1029 H1005 0.951 1_455 S
C1029 C1030 1.366 . S
C1029 C1031 1.388 . S
C1030 C1029 1.366 . S
C1030 C1034 1.385 . S
C1031 H1006 0.951 1_455 S
C1031 C1029 1.388 . S
C1031 C1032 1.366 . S
C1032 C1031 1.366 . S
C1032 C1033 1.414 . S
C1032 C1035 1.499 1_556 S
C1033 H1007 0.950 . S
C1033 C1032 1.414 . S
C1033 C1034 1.374 . S
C1034 H1008 0.950 . S
C1034 C1030 1.385 . S
C1034 C1033 1.374 . S
C1035 C1032 1.499 1_554 S
C1035 C1036 1.373 . S
C1035 C1037 1.389 . S
C1036 H1009 0.950 1_554 S
C1036 C1022 1.377 . S
C1036 C1035 1.373 . S
C1037 C1021 1.377 . S
C1037 C1035 1.389 . S
C1037 C1038 1.535 . S
C1038 C1037 1.535 . S
C1038 C1039 1.403 . S
C1038 C1043 1.348 1_455 S
C1039 H1010 0.950 . S
C1039 C1038 1.403 . S
C1039 C1040 1.334 1_455 S
C1040 H1011 0.942 1_655 S
C1040 C1039 1.334 1_655 S
C1040 C1041 1.287 . S
C1041 C1040 1.287 . S
C1041 C1042 1.524 . S
C1041 H1044 0.999 . S
C1042 H1012 0.950 . S
C1042 C1041 1.524 . S
C1042 C1043 1.415 . S
C1043 H1013 0.950 . S
C1043 C1038 1.348 1_655 S
C1043 C1042 1.415 . S
H1044 C1041 0.999 . S
H1045 C1026 0.913 . S
H1046 C1064 0.951 . S
H1047 C1066 0.951 . S
H1048 C1068 0.950 . S
H1049 C1069 0.950 . S
H1050 C1071 0.950 . S
H1051 C1074 0.950 . S
H1052 C1075 0.950 . S
H1053 C1077 0.950 . S
H1054 C1078 0.950 . S
H1055 C1079 0.951 . S
H1056 C1081 0.951 1_554 S
H1057 C1083 0.950 . S
H1058 C1084 0.950 . S
H1059 C1086 0.950 . S
H1060 C1089 0.950 1_556 S
H1061 C1090 0.950 1_556 S
H1062 C1092 0.950 . S
H1063 C1093 0.950 . S
C1064 H1046 0.951 . S
C1064 C1065 1.366 . S
C1064 C1066 1.388 . S
C1065 C1064 1.366 . S
C1065 C1069 1.385 . S
C1066 H1047 0.951 . S
C1066 C1064 1.388 . S
C1066 C1067 1.366 . S
C1067 C1066 1.366 . S
C1067 C1068 1.414 . S
C1067 C1070 1.499 . S
C1068 H1048 0.950 . S
C1068 C1067 1.414 . S
C1068 C1069 1.374 . S
C1069 H1049 0.950 . S
C1069 C1065 1.385 . S
C1069 C1068 1.374 . S
C1070 C1067 1.499 . S
C1070 C1071 1.373 . S
C1070 C1072 1.389 1_545 S
C1071 H1050 0.950 . S
C1071 C1070 1.373 . S
C1071 C1087 1.377 . S
C1072 C1070 1.389 1_565 S
C1072 C1073 1.524 . S
C1072 C1086 1.377 1_554 S
C1073 C1072 1.524 . S
C1073 C1074 1.397 . S
C1073 C1078 1.363 1_554 S
C1074 H1051 0.950 . S
C1074 C1073 1.397 . S
C1074 C1075 1.334 . S
C1075 H1052 0.950 . S
C1075 C1074 1.334 . S
C1075 C1076 1.287 1_554 S
C1076 C1075 1.287 1_556 S
C1076 C1077 1.524 . S
C1076 H1095 0.913 . S
C1077 H1053 0.950 . S
C1077 C1076 1.524 . S
C1077 C1078 1.415 . S
C1078 H1054 0.950 . S
C1078 C1073 1.363 1_556 S
C1078 C1077 1.415 . S
C1079 H1055 0.951 . S
C1079 C1080 1.366 . S
C1079 C1081 1.388 . S
C1080 C1079 1.366 . S
C1080 C1084 1.385 . S
C1081 H1056 0.951 1_556 S
C1081 C1079 1.388 . S
C1081 C1082 1.366 . S
C1082 C1081 1.366 . S
C1082 C1083 1.414 . S
C1082 C1085 1.499 . S
C1083 H1057 0.950 . S
C1083 C1082 1.414 . S
C1083 C1084 1.374 . S
C1084 H1058 0.950 . S
C1084 C1080 1.385 . S
C1084 C1083 1.374 . S
C1085 C1082 1.499 . S
C1085 C1086 1.373 1_545 S
C1085 C1087 1.389 1_556 S
C1086 H1059 0.950 . S
C1086 C1072 1.377 1_556 S
C1086 C1085 1.373 1_565 S
C1087 C1071 1.377 . S
C1087 C1085 1.389 1_554 S
C1087 C1088 1.524 . S
C1088 C1087 1.524 . S
C1088 C1089 1.397 . S
C1088 C1093 1.363 . S
C1089 H1060 0.950 1_554 S
C1089 C1088 1.397 . S
C1089 C1090 1.334 . S
C1090 H1061 0.950 1_554 S
C1090 C1089 1.334 . S
C1090 C1091 1.287 . S
C1091 C1090 1.287 . S
C1091 C1092 1.524 . S
C1091 H1094 0.999 . S
C1092 H1062 0.950 . S
C1092 C1091 1.524 . S
C1092 C1093 1.415 . S
C1093 H1063 0.950 . S
C1093 C1088 1.363 . S
C1093 C1092 1.415 . S
H1094 C1091 0.999 . S
H1095 C1076 0.913 . S
H1096 C1114 0.951 . S
H1097 C1116 0.951 . S
H1098 C1118 0.950 . S
H1099 C1119 0.950 . S
H1100 C1121 0.950 . S
H1101 C1124 0.950 . S
H1102 C1125 0.950 . S
H1103 C1127 0.950 . S
H1104 C1128 0.950 . S
H1105 C1129 0.951 . S
H1106 C1131 0.951 . S
H1107 C1133 0.950 . S
H1108 C1134 0.950 . S
H1109 C1136 0.950 . S
H1110 C1139 0.950 . S
H1111 C1140 0.950 . S
H1112 C1142 0.950 . S
H1113 C1143 0.950 . S
C1114 H1096 0.951 . S
C1114 C1115 1.366 . S
C1114 C1116 1.388 . S
C1115 C1114 1.366 . S
C1115 C1119 1.385 . S
C1116 H1097 0.951 . S
C1116 C1114 1.388 . S
C1116 C1117 1.366 . S
C1117 C1116 1.366 . S
C1117 C1118 1.414 . S
C1117 C1120 1.499 . S
C1118 H1098 0.950 . S
C1118 C1117 1.414 . S
C1118 C1119 1.374 . S
C1119 H1099 0.950 . S
C1119 C1115 1.385 . S
C1119 C1118 1.374 . S
C1120 C1117 1.499 . S
C1120 C1121 1.373 . S
C1120 C1122 1.389 1_554 S
C1121 H1100 0.950 . S
C1121 C1120 1.373 . S
C1121 C1137 1.377 . S
C1122 C1120 1.389 1_556 S
C1122 C1123 1.524 . S
C1122 C1136 1.377 . S
C1123 C1122 1.524 . S
C1123 C1124 1.397 . S
C1123 C1128 1.363 . S
C1124 H1101 0.950 . S
C1124 C1123 1.397 . S
C1124 C1125 1.334 . S
C1125 H1102 0.950 . S
C1125 C1124 1.334 . S
C1125 C1126 1.287 . S
C1126 C1125 1.287 . S
C1126 C1127 1.524 . S
C1126 H1145 0.913 . S
C1127 H1103 0.950 . S
C1127 C1126 1.524 . S
C1127 C1128 1.415 . S
C1128 H1104 0.950 . S
C1128 C1123 1.363 . S
C1128 C1127 1.415 . S
C1129 H1105 0.951 . S
C1129 C1130 1.366 . S
C1129 C1131 1.388 . S
C1130 C1129 1.366 . S
C1130 C1134 1.385 . S
C1131 H1106 0.951 . S
C1131 C1129 1.388 . S
C1131 C1132 1.366 . S
C1132 C1131 1.366 . S
C1132 C1133 1.414 . S
C1132 C1135 1.499 . S
C1133 H1107 0.950 . S
C1133 C1132 1.414 . S
C1133 C1134 1.374 . S
C1134 H1108 0.950 . S
C1134 C1130 1.385 . S
C1134 C1133 1.374 . S
C1135 C1132 1.499 . S
C1135 C1136 1.373 . S
C1135 C1137 1.389 1_556 S
C1136 H1109 0.950 . S
C1136 C1122 1.377 . S
C1136 C1135 1.373 . S
C1137 C1121 1.377 . S
C1137 C1135 1.389 1_554 S
C1137 C1138 1.524 . S
C1138 C1137 1.524 . S
C1138 C1139 1.397 . S
C1138 C1143 1.363 . S
C1139 H1110 0.950 . S
C1139 C1138 1.397 . S
C1139 C1140 1.334 . S
C1140 H1111 0.950 . S
C1140 C1139 1.334 . S
C1140 C1141 1.287 . S
C1141 C1140 1.287 . S
C1141 C1142 1.524 . S
C1141 H1144 0.999 . S
C1142 H1112 0.950 . S
C1142 C1141 1.524 . S
C1142 C1143 1.415 . S
C1143 H1113 0.950 . S
C1143 C1138 1.363 . S
C1143 C1142 1.415 . S
H1144 C1141 0.999 . S
H1145 C1126 0.913 . S
H1146 C1164 0.951 . S
H1147 C1166 0.951 . S
H1148 C1168 0.950 . S
H1149 C1169 0.950 . S
H1150 C1171 0.950 . S
H1151 C1174 0.950 . S
H1152 C1175 0.950 . S
H1153 C1177 0.950 . S
H1154 C1178 0.950 . S
H1155 C1179 0.951 . S
H1156 C1181 0.951 . S
H1157 C1183 0.950 . S
H1158 C1184 0.950 . S
H1159 C1186 0.950 . S
H1160 C1189 0.950 . S
H1161 C1190 0.950 . S
H1162 C1192 0.950 . S
H1163 C1193 0.950 . S
C1164 H1146 0.951 . S
C1164 C1165 1.366 . S
C1164 C1166 1.388 . S
C1165 C1164 1.366 . S
C1165 C1169 1.385 . S
C1166 H1147 0.951 . S
C1166 C1164 1.388 . S
C1166 C1167 1.366 . S
C1167 C1166 1.366 . S
C1167 C1168 1.414 . S
C1167 C1170 1.499 . S
C1168 H1148 0.950 . S
C1168 C1167 1.414 . S
C1168 C1169 1.374 . S
C1169 H1149 0.950 . S
C1169 C1165 1.385 . S
C1169 C1168 1.374 . S
C1170 C1167 1.499 . S
C1170 C1171 1.373 1_554 S
C1170 C1172 1.389 . S
C1171 H1150 0.950 . S
C1171 C1170 1.373 1_556 S
C1171 C1187 1.377 . S
C1172 C1170 1.389 . S
C1172 C1173 1.524 . S
C1172 C1186 1.377 . S
C1173 C1172 1.524 . S
C1173 C1174 1.397 . S
C1173 C1178 1.363 . S
C1174 H1151 0.950 . S
C1174 C1173 1.397 . S
C1174 C1175 1.334 . S
C1175 H1152 0.950 . S
C1175 C1174 1.334 . S
C1175 C1176 1.287 . S
C1176 C1175 1.287 . S
C1176 C1177 1.524 . S
C1176 H1195 0.913 . S
C1177 H1153 0.950 . S
C1177 C1176 1.524 . S
C1177 C1178 1.415 . S
C1178 H1154 0.950 . S
C1178 C1173 1.363 . S
C1178 C1177 1.415 . S
C1179 H1155 0.951 . S
C1179 C1180 1.366 . S
C1179 C1181 1.388 . S
C1180 C1179 1.366 . S
C1180 C1184 1.385 . S
C1181 H1156 0.951 . S
C1181 C1179 1.388 . S
C1181 C1182 1.366 . S
C1182 C1181 1.366 . S
C1182 C1183 1.414 . S
C1182 C1185 1.499 . S
C1183 H1157 0.950 . S
C1183 C1182 1.414 . S
C1183 C1184 1.374 . S
C1184 H1158 0.950 . S
C1184 C1180 1.385 . S
C1184 C1183 1.374 . S
C1185 C1182 1.499 . S
C1185 C1186 1.373 1_556 S
C1185 C1187 1.389 . S
C1186 H1159 0.950 . S
C1186 C1172 1.377 . S
C1186 C1185 1.373 1_554 S
C1187 C1171 1.377 . S
C1187 C1185 1.389 . S
C1187 C1188 1.524 . S
C1188 C1187 1.524 . S
C1188 C1189 1.397 . S
C1188 C1193 1.363 . S
C1189 H1160 0.950 . S
C1189 C1188 1.397 . S
C1189 C1190 1.334 . S
C1190 H1161 0.950 . S
C1190 C1189 1.334 . S
C1190 C1191 1.287 . S
C1191 C1190 1.287 . S
C1191 C1192 1.524 . S
C1191 H1194 0.999 . S
C1192 H1162 0.950 . S
C1192 C1191 1.524 . S
C1192 C1193 1.415 . S
C1193 H1163 0.950 . S
C1193 C1188 1.363 . S
C1193 C1192 1.415 . S
H1194 C1191 0.999 . S
H1195 C1176 0.913 . S
H1196 C1214 0.951 . S
H1197 C1216 0.951 . S
H1198 C1218 0.950 . S
H1199 C1219 0.950 . S
H1200 C1221 0.950 . S
H1201 C1224 0.950 . S
H1202 C1225 0.950 . S
H1203 C1227 0.950 . S
H1204 C1228 0.950 . S
H1205 C1229 0.951 . S
H1206 C1231 0.951 . S
H1207 C1233 0.950 . S
H1208 C1234 0.950 . S
H1209 C1236 0.950 . S
H1210 C1239 0.950 . S
H1211 C1240 0.950 . S
H1212 C1242 0.950 . S
H1213 C1243 0.950 . S
C1214 H1196 0.951 . S
C1214 C1215 1.367 . S
C1214 C1216 1.388 . S
C1215 C1214 1.367 . S
C1215 C1219 1.384 1_655 S
C1216 H1197 0.951 . S
C1216 C1214 1.388 . S
C1216 C1217 1.366 . S
C1217 C1216 1.366 . S
C1217 C1218 1.414 1_655 S
C1217 C1220 1.499 . S
C1218 H1198 0.950 . S
C1218 C1217 1.414 1_455 S
C1218 C1219 1.374 . S
C1219 H1199 0.950 . S
C1219 C1215 1.384 1_455 S
C1219 C1218 1.374 . S
C1220 C1217 1.499 . S
C1220 C1221 1.373 . S
C1220 C1222 1.389 1_655 S
C1221 H1200 0.950 . S
C1221 C1220 1.373 . S
C1221 C1237 1.377 . S
C1222 C1220 1.389 1_455 S
C1222 C1223 1.524 . S
C1222 C1236 1.377 . S
C1223 C1222 1.524 . S
C1223 C1224 1.397 . S
C1223 C1228 1.363 . S
C1224 H1201 0.950 . S
C1224 C1223 1.397 . S
C1224 C1225 1.334 . S
C1225 H1202 0.950 . S
C1225 C1224 1.334 . S
C1225 C1226 1.287 . S
C1226 C1225 1.287 . S
C1226 C1227 1.524 . S
C1226 H1245 0.913 . S
C1227 H1203 0.950 . S
C1227 C1226 1.524 . S
C1227 C1228 1.415 . S
C1228 H1204 0.950 . S
C1228 C1223 1.363 . S
C1228 C1227 1.415 . S
C1229 H1205 0.951 . S
C1229 C1230 1.366 . S
C1229 C1231 1.388 . S
C1230 C1229 1.366 . S
C1230 C1234 1.385 . S
C1231 H1206 0.951 . S
C1231 C1229 1.388 . S
C1231 C1232 1.366 . S
C1232 C1231 1.366 . S
C1232 C1233 1.414 . S
C1232 C1235 1.499 . S
C1233 H1207 0.950 . S
C1233 C1232 1.414 . S
C1233 C1234 1.374 . S
C1234 H1208 0.950 . S
C1234 C1230 1.385 . S
C1234 C1233 1.374 . S
C1235 C1232 1.499 . S
C1235 C1236 1.373 1_655 S
C1235 C1237 1.389 . S
C1236 H1209 0.950 . S
C1236 C1222 1.377 . S
C1236 C1235 1.373 1_455 S
C1237 C1221 1.377 . S
C1237 C1235 1.389 . S
C1237 C1238 1.524 . S
C1238 C1237 1.524 . S
C1238 C1239 1.397 . S
C1238 C1243 1.363 . S
C1239 H1210 0.950 . S
C1239 C1238 1.397 . S
C1239 C1240 1.334 . S
C1240 H1211 0.950 . S
C1240 C1239 1.334 . S
C1240 C1241 1.287 . S
C1241 C1240 1.287 . S
C1241 C1242 1.524 . S
C1241 H1244 0.999 . S
C1242 H1212 0.950 . S
C1242 C1241 1.524 . S
C1242 C1243 1.415 . S
C1243 H1213 0.950 . S
C1243 C1238 1.363 . S
C1243 C1242 1.415 . S
H1244 C1241 0.999 . S
H1245 C1226 0.913 . S
H1246 C1264 0.951 . S
H1247 C1266 0.951 . S
H1248 C1268 0.950 . S
H1249 C1269 0.950 . S
H1250 C1271 0.938 1_545 S
H1251 C1274 0.950 . S
H1252 C1275 0.950 . S
H1253 C1277 0.950 . S
H1254 C1278 0.950 . S
H1255 C1279 0.951 . S
H1256 C1281 0.951 . S
H1257 C1283 0.950 1_545 S
H1258 C1284 0.956 . S
H1259 C1286 0.950 . S
H1260 C1289 0.950 . S
H1261 C1290 0.950 . S
H1262 C1292 0.950 . S
H1263 C1293 0.950 1_565 S
C1264 H1246 0.951 . S
C1264 C1265 1.353 1_545 S
C1264 C1266 1.388 . S
C1265 C1264 1.353 1_565 S
C1265 C1269 1.402 . S
C1266 H1247 0.951 . S
C1266 C1264 1.388 . S
C1266 C1267 1.366 1_545 S
C1267 C1266 1.366 1_565 S
C1267 C1268 1.414 . S
C1267 C1270 1.499 . S
C1268 H1248 0.950 . S
C1268 C1267 1.414 . S
C1268 C1269 1.374 . S
C1269 H1249 0.950 . S
C1269 C1265 1.402 . S
C1269 C1268 1.374 . S
C1270 C1267 1.499 . S
C1270 C1271 1.387 . S
C1270 C1272 1.389 . S
C1271 H1250 0.938 1_565 S
C1271 C1270 1.387 . S
C1271 C1287 1.377 . S
C1272 C1270 1.389 . S
C1272 C1273 1.524 . S
C1272 C1286 1.377 . S
C1273 C1272 1.524 . S
C1273 C1274 1.397 . S
C1273 C1278 1.363 . S
C1274 H1251 0.950 . S
C1274 C1273 1.397 . S
C1274 C1275 1.334 . S
C1275 H1252 0.950 . S
C1275 C1274 1.334 . S
C1275 C1276 1.287 . S
C1276 C1275 1.287 . S
C1276 C1277 1.524 . S
C1276 H1295 0.913 . S
C1277 H1253 0.950 . S
C1277 C1276 1.524 . S
C1277 C1278 1.415 . S
C1278 H1254 0.950 . S
C1278 C1273 1.363 . S
C1278 C1277 1.415 . S
C1279 H1255 0.951 . S
C1279 C1280 1.366 . S
C1279 C1281 1.388 . S
C1280 C1279 1.366 . S
C1280 C1284 1.385 . S
C1281 H1256 0.951 . S
C1281 C1279 1.388 . S
C1281 C1282 1.366 . S
C1282 C1281 1.366 . S
C1282 C1283 1.414 . S
C1282 C1285 1.499 . S
C1283 H1257 0.950 1_565 S
C1283 C1282 1.414 . S
C1283 C1284 1.374 . S
C1284 H1258 0.956 . S
C1284 C1280 1.385 . S
C1284 C1283 1.374 . S
C1285 C1282 1.499 . S
C1285 C1286 1.373 . S
C1285 C1287 1.408 . S
C1286 H1259 0.950 . S
C1286 C1272 1.377 . S
C1286 C1285 1.373 . S
C1287 C1271 1.377 . S
C1287 C1285 1.408 . S
C1287 C1288 1.503 1_565 S
C1288 C1287 1.503 1_545 S
C1288 C1289 1.397 . S
C1288 C1293 1.363 . S
C1289 H1260 0.950 . S
C1289 C1288 1.397 . S
C1289 C1290 1.334 . S
C1290 H1261 0.950 . S
C1290 C1289 1.334 . S
C1290 C1291 1.287 . S
C1291 C1290 1.287 . S
C1291 C1292 1.524 . S
C1291 H1294 0.999 . S
C1292 H1262 0.950 . S
C1292 C1291 1.524 . S
C1292 C1293 1.415 . S
C1293 H1263 0.950 1_545 S
C1293 C1288 1.363 . S
C1293 C1292 1.415 . S
H1294 C1291 0.999 . S
H1295 C1276 0.913 . S
H1296 C1314 0.951 . S
H1297 C1316 0.951 . S
H1298 C1318 0.950 . S
H1299 C1319 0.950 . S
H1300 C1321 0.950 . S
H1301 C1324 0.950 . S
H1302 C1325 0.950 . S
H1303 C1327 0.950 . S
H1304 C1328 0.950 . S
H1305 C1329 0.951 . S
H1306 C1331 0.951 . S
H1307 C1333 0.950 . S
H1308 C1334 0.950 . S
H1309 C1336 0.950 . S
H1310 C1339 0.950 . S
H1311 C1340 0.950 . S
H1312 C1342 0.950 . S
H1313 C1343 0.950 . S
C1314 H1296 0.951 . S
C1314 C1315 1.366 . S
C1314 C1316 1.388 . S
C1315 C1314 1.366 . S
C1315 C1319 1.385 . S
C1316 H1297 0.951 . S
C1316 C1314 1.388 . S
C1316 C1317 1.366 . S
C1317 C1316 1.366 . S
C1317 C1318 1.414 . S
C1317 C1320 1.499 . S
C1318 H1298 0.950 . S
C1318 C1317 1.414 . S
C1318 C1319 1.374 . S
C1319 H1299 0.950 . S
C1319 C1315 1.385 . S
C1319 C1318 1.374 . S
C1320 C1317 1.499 . S
C1320 C1321 1.373 . S
C1320 C1322 1.389 . S
C1321 H1300 0.950 . S
C1321 C1320 1.373 . S
C1321 C1337 1.377 . S
C1322 C1320 1.389 . S
C1322 C1323 1.524 . S
C1322 C1336 1.377 . S
C1323 C1322 1.524 . S
C1323 C1324 1.397 . S
C1323 C1328 1.363 . S
C1324 H1301 0.950 . S
C1324 C1323 1.397 . S
C1324 C1325 1.334 . S
C1325 H1302 0.950 . S
C1325 C1324 1.334 . S
C1325 C1326 1.287 . S
C1326 C1325 1.287 . S
C1326 C1327 1.524 . S
C1326 H1345 0.913 . S
C1327 H1303 0.950 . S
C1327 C1326 1.524 . S
C1327 C1328 1.415 . S
C1328 H1304 0.950 . S
C1328 C1323 1.363 . S
C1328 C1327 1.415 . S
C1329 H1305 0.951 . S
C1329 C1330 1.366 . S
C1329 C1331 1.388 . S
C1330 C1329 1.366 . S
C1330 C1334 1.385 . S
C1331 H1306 0.951 . S
C1331 C1329 1.388 . S
C1331 C1332 1.366 . S
C1332 C1331 1.366 . S
C1332 C1333 1.414 . S
C1332 C1335 1.499 . S
C1333 H1307 0.950 . S
C1333 C1332 1.414 . S
C1333 C1334 1.374 . S
C1334 H1308 0.950 . S
C1334 C1330 1.385 . S
C1334 C1333 1.374 . S
C1335 C1332 1.499 . S
C1335 C1336 1.373 . S
C1335 C1337 1.389 . S
C1336 H1309 0.950 . S
C1336 C1322 1.377 . S
C1336 C1335 1.373 . S
C1337 C1321 1.377 . S
C1337 C1335 1.389 . S
C1337 C1338 1.524 . S
C1338 C1337 1.524 . S
C1338 C1339 1.397 . S
C1338 C1343 1.363 . S
C1339 H1310 0.950 . S
C1339 C1338 1.397 . S
C1339 C1340 1.334 . S
C1340 H1311 0.950 . S
C1340 C1339 1.334 . S
C1340 C1341 1.287 . S
C1341 C1340 1.287 . S
C1341 C1342 1.524 . S
C1341 H1344 0.999 . S
C1342 H1312 0.950 . S
C1342 C1341 1.524 . S
C1342 C1343 1.415 . S
C1343 H1313 0.950 . S
C1343 C1338 1.363 . S
C1343 C1342 1.415 . S
H1344 C1341 0.999 . S
H1345 C1326 0.913 . S
H1346 C1364 0.951 . S
H1347 C1366 0.951 . S
H1348 C1368 0.950 . S
H1349 C1369 0.950 . S
H1350 C1371 0.950 . S
H1351 C1374 0.950 . S
H1352 C1375 0.950 . S
H1353 C1377 0.950 . S
H1354 C1378 0.950 . S
H1355 C1379 0.951 . S
H1356 C1381 0.951 . S
H1357 C1383 0.950 . S
H1358 C1384 0.950 . S
H1359 C1386 0.950 . S
H1360 C1389 0.950 . S
H1361 C1390 0.950 . S
H1362 C1392 0.950 . S
H1363 C1393 0.950 . S
C1364 H1346 0.951 . S
C1364 C1365 1.366 . S
C1364 C1366 1.388 . S
C1365 C1364 1.366 . S
C1365 C1369 1.385 . S
C1366 H1347 0.951 . S
C1366 C1364 1.388 . S
C1366 C1367 1.366 . S
C1367 C1366 1.366 . S
C1367 C1368 1.414 . S
C1367 C1370 1.499 . S
C1368 H1348 0.950 . S
C1368 C1367 1.414 . S
C1368 C1369 1.374 . S
C1369 H1349 0.950 . S
C1369 C1365 1.385 . S
C1369 C1368 1.374 . S
C1370 C1367 1.499 . S
C1370 C1371 1.373 . S
C1370 C1372 1.389 . S
C1371 H1350 0.950 . S
C1371 C1370 1.373 . S
C1371 C1387 1.377 . S
C1372 C1370 1.389 . S
C1372 C1373 1.524 . S
C1372 C1386 1.377 . S
C1373 C1372 1.524 . S
C1373 C1374 1.397 . S
C1373 C1378 1.363 . S
C1374 H1351 0.950 . S
C1374 C1373 1.397 . S
C1374 C1375 1.334 . S
C1375 H1352 0.950 . S
C1375 C1374 1.334 . S
C1375 C1376 1.287 . S
C1376 C1375 1.287 . S
C1376 C1377 1.524 . S
C1376 H1395 0.913 . S
C1377 H1353 0.950 . S
C1377 C1376 1.524 . S
C1377 C1378 1.415 . S
C1378 H1354 0.950 . S
C1378 C1373 1.363 . S
C1378 C1377 1.415 . S
C1379 H1355 0.951 . S
C1379 C1380 1.366 . S
C1379 C1381 1.388 . S
C1380 C1379 1.366 . S
C1380 C1384 1.385 . S
C1381 H1356 0.951 . S
C1381 C1379 1.388 . S
C1381 C1382 1.366 . S
C1382 C1381 1.366 . S
C1382 C1383 1.414 . S
C1382 C1385 1.499 . S
C1383 H1357 0.950 . S
C1383 C1382 1.414 . S
C1383 C1384 1.374 . S
C1384 H1358 0.950 . S
C1384 C1380 1.385 . S
C1384 C1383 1.374 . S
C1385 C1382 1.499 . S
C1385 C1386 1.373 . S
C1385 C1387 1.389 . S
C1386 H1359 0.950 . S
C1386 C1372 1.377 . S
C1386 C1385 1.373 . S
C1387 C1371 1.377 . S
C1387 C1385 1.389 . S
C1387 C1388 1.524 . S
C1388 C1387 1.524 . S
C1388 C1389 1.397 . S
C1388 C1393 1.363 . S
C1389 H1360 0.950 . S
C1389 C1388 1.397 . S
C1389 C1390 1.334 . S
C1390 H1361 0.950 . S
C1390 C1389 1.334 . S
C1390 C1391 1.287 . S
C1391 C1390 1.287 . S
C1391 C1392 1.524 . S
C1391 H1394 0.999 . S
C1392 H1362 0.950 . S
C1392 C1391 1.524 . S
C1392 C1393 1.415 . S
C1393 H1363 0.950 . S
C1393 C1388 1.363 . S
C1393 C1392 1.415 . S
H1394 C1391 0.999 . S
H1395 C1376 0.913 . S
C215 C82 1.459 . S
C230 C120 1.563 . S
C280 C143 1.611 . S
C265 C95 1.512 . S
C330 C166 1.640 . S
C315 C56 1.531 . S
C380 C193 1.496 . S
C365 C69 1.480 . S
C430 C121 1.563 . S
C415 C30 1.456 1_565 S
C465 C43 1.376 1_556 S
C480 C144 1.484 . S
C515 C4 1.360 . S
C530 C167 1.461 . S
C565 C17 1.479 1_655 S
C580 C192 1.584 . S
C630 C122 0.140 . S
C615 C74 0.380 . S
C680 C145 0.193 . S
C665 C87 0.317 . S
C730 C168 0.207 . S
C715 C100 0.318 . S
C765 C61 0.361 . S
C780 C194 0.468 . S
C815 C22 0.411 1_655 S
C830 C125 0.509 . S
C880 C148 0.515 . S
C865 C35 0.402 1_565 S
C930 C171 0.508 . S
C915 C48 0.382 . S
C965 C9 0.315 1_556 S
C980 C191 0.161 . S
C1015 C73 1.580 . S
C1030 C123 1.562 . S
C1065 C86 1.524 . S
C1080 C146 1.525 . S
C1130 C169 1.541 . S
C1115 C99 1.541 . S
C1180 C190 1.321 . S
C1165 C60 1.285 . S
C1215 C21 1.566 1_655 S
C1230 C124 1.519 . S
C1280 C147 1.468 . S
C1265 C34 1.521 1_565 S
C1330 C170 1.452 . S
C1315 C47 1.503 . S
C1365 C8 1.725 . S
C1380 C189 1.767 . S
