# Generated by pormake.
# Topology pyr, (3,6)-cn, num edge types: 1
# Building blocks:
#     Node 0, Type 0, BuildingBlock: VETTIZ_charged_linker_0, # of connection points: 3
#     Node 1, Type 0, BuildingBlock: VETTIZ_charged_linker_0, # of connection points: 3
#     Node 2, Type 0, BuildingBlock: VETTIZ_charged_linker_0, # of connection points: 3
#     Node 3, Type 0, BuildingBlock: VETTIZ_charged_linker_0, # of connection points: 3
#     Node 4, Type 0, BuildingBlock: VETTIZ_charged_linker_0, # of connection points: 3
#     Node 5, Type 0, BuildingBlock: VETTIZ_charged_linker_0, # of connection points: 3
#     Node 6, Type 0, BuildingBlock: VETTIZ_charged_linker_0, # of connection points: 3
#     Node 7, Type 0, BuildingBlock: VETTIZ_charged_linker_0, # of connection points: 3
#     Node 8, Type 1, BuildingBlock: VOLQOD_clean_sbu_1, # of connection points: 6
#     Node 9, Type 1, BuildingBlock: VOLQOD_clean_sbu_1, # of connection points: 6
#     Node 10, Type 1, BuildingBlock: VOLQOD_clean_sbu_1, # of connection points: 6
#     Node 11, Type 1, BuildingBlock: VOLQOD_clean_sbu_1, # of connection points: 6
#     Edge 12, Type (0, 1), BuildingBlock: TEMPAE_clean_linker_10, # of connection points: 2
#     Edge 13, Type (0, 1), BuildingBlock: TEMPAE_clean_linker_10, # of connection points: 2
#     Edge 14, Type (0, 1), BuildingBlock: TEMPAE_clean_linker_10, # of connection points: 2
#     Edge 15, Type (0, 1), BuildingBlock: TEMPAE_clean_linker_10, # of connection points: 2
#     Edge 16, Type (0, 1), BuildingBlock: TEMPAE_clean_linker_10, # of connection points: 2
#     Edge 17, Type (0, 1), BuildingBlock: TEMPAE_clean_linker_10, # of connection points: 2
#     Edge 18, Type (0, 1), BuildingBlock: TEMPAE_clean_linker_10, # of connection points: 2
#     Edge 19, Type (0, 1), BuildingBlock: TEMPAE_clean_linker_10, # of connection points: 2
#     Edge 20, Type (0, 1), BuildingBlock: TEMPAE_clean_linker_10, # of connection points: 2
#     Edge 21, Type (0, 1), BuildingBlock: TEMPAE_clean_linker_10, # of connection points: 2
#     Edge 22, Type (0, 1), BuildingBlock: TEMPAE_clean_linker_10, # of connection points: 2
#     Edge 23, Type (0, 1), BuildingBlock: TEMPAE_clean_linker_10, # of connection points: 2
#     Edge 24, Type (0, 1), BuildingBlock: TEMPAE_clean_linker_10, # of connection points: 2
#     Edge 25, Type (0, 1), BuildingBlock: TEMPAE_clean_linker_10, # of connection points: 2
#     Edge 26, Type (0, 1), BuildingBlock: TEMPAE_clean_linker_10, # of connection points: 2
#     Edge 27, Type (0, 1), BuildingBlock: TEMPAE_clean_linker_10, # of connection points: 2
#     Edge 28, Type (0, 1), BuildingBlock: TEMPAE_clean_linker_10, # of connection points: 2
#     Edge 29, Type (0, 1), BuildingBlock: TEMPAE_clean_linker_10, # of connection points: 2
#     Edge 30, Type (0, 1), BuildingBlock: TEMPAE_clean_linker_10, # of connection points: 2
#     Edge 31, Type (0, 1), BuildingBlock: TEMPAE_clean_linker_10, # of connection points: 2
#     Edge 32, Type (0, 1), BuildingBlock: TEMPAE_clean_linker_10, # of connection points: 2
#     Edge 33, Type (0, 1), BuildingBlock: TEMPAE_clean_linker_10, # of connection points: 2
#     Edge 34, Type (0, 1), BuildingBlock: TEMPAE_clean_linker_10, # of connection points: 2
#     Edge 35, Type (0, 1), BuildingBlock: TEMPAE_clean_linker_10, # of connection points: 2
# Relax obj value: 0.035
# Max RMSD: 0.119
# Mean RMSD: 0.042
data_MOF--net-pry--node1-VOLQOD_clean_sbu_1--node2-VETTIZ_charged_linker_0--edge1-TEMPAE_clean_linker_10
_symmetry_space_group_name_H-M    P1
_symmetry_Int_Tables_number       1
_symmetry_cell_setting            triclinic
loop_
_symmetry_equiv_pos_as_xyz
'x, y, z'
_cell_length_a     45.602695
_cell_length_b     45.595708
_cell_length_c     45.834235
_cell_angle_alpha  90.048192
_cell_angle_beta   90.016629
_cell_angle_gamma 90.068776
loop_
_atom_site_label
_atom_site_type_symbol
_atom_site_fract_x
_atom_site_fract_y
_atom_site_fract_z
_atom_type_partial_charge
C0 C 0.09798 0.0822 0.21972 0.0
C1 C 0.07597 0.09528 0.23689 0.0
C2 C 0.06387 0.1222 0.22755 0.0
C3 C 0.09573 0.12249 0.18521 0.0
C4 C 0.10775 0.09631 0.19443 0.0
C5 C 0.1327 0.0865 0.17537 0.0
H6 H 0.22202 0.11178 0.06033 0.0
C7 C 0.11111 0.13147 0.15826 0.0
C8 C 0.13287 0.11051 0.15248 0.0
H9 H 0.22908 0.04426 0.12594 0.0
H10 H 0.18398 0.06069 0.1482 0.0
H11 H 0.20489 0.16298 0.10517 0.0
H12 H 0.15208 0.10715 0.05053 0.0
H13 H 0.13431 0.14127 0.05171 0.0
H14 H 0.17065 0.1387 0.03619 0.0
H15 H 0.20492 0.16484 0.06602 0.0
H16 H 0.17862 0.18483 0.08736 0.0
C17 C 0.16117 0.08646 0.19403 0.0
C18 C 0.12464 0.05634 0.16204 0.0
C19 C 0.08183 0.22521 0.1058 0.0
C20 C 0.09117 0.23813 0.07957 0.0
C21 C 0.11241 0.22376 0.06247 0.0
C22 C 0.12482 0.19727 0.07175 0.0
C23 C 0.11584 0.18496 0.09839 0.0
C24 C 0.09419 0.19853 0.11459 0.0
C25 C 0.08633 0.18139 0.14153 0.0
C26 C 0.10727 0.15564 0.13909 0.0
C27 C 0.12481 0.15812 0.11402 0.0
C28 C 0.09307 0.20071 0.16855 0.0
C29 C 0.05387 0.17169 0.13885 0.0
C30 C 0.21347 0.1004 0.07926 0.0
C31 C 0.22883 0.07675 0.0915 0.0
C32 C 0.21749 0.0626 0.11633 0.0
C33 C 0.19144 0.07228 0.12926 0.0
C34 C 0.17687 0.09673 0.11757 0.0
C35 C 0.18777 0.11025 0.09284 0.0
C36 C 0.17008 0.13675 0.08437 0.0
C37 C 0.14724 0.13727 0.10851 0.0
C38 C 0.15125 0.11366 0.1277 0.0
C39 C 0.19053 0.1639 0.08556 0.0
C40 C 0.15613 0.13097 0.05406 0.0
H41 H 0.06352 0.15623 0.19605 0.0
H42 H 0.10776 0.06149 0.22587 0.0
H43 H 0.10144 0.05621 0.15454 0.0
H44 H 0.13785 0.05085 0.14261 0.0
H45 H 0.12721 0.03855 0.17838 0.0
H46 H 0.15935 0.10127 0.21326 0.0
H47 H 0.1662 0.06417 0.20237 0.0
H48 H 0.18038 0.09491 0.18189 0.0
H49 H 0.06519 0.23561 0.11912 0.0
H50 H 0.11992 0.23342 0.04221 0.0
H51 H 0.14118 0.18759 0.05799 0.0
H52 H 0.11307 0.21421 0.16491 0.0
H53 H 0.07466 0.21592 0.17326 0.0
H54 H 0.0979 0.18774 0.1883 0.0
H55 H 0.04839 0.16595 0.11588 0.0
H56 H 0.04884 0.15171 0.15148 0.0
H57 H 0.03882 0.18952 0.14578 0.0
H58 H 0.04744 0.13333 0.24049 0.0
C59 C 0.07347 0.13572 0.20178 0.0
C60 C 0.30031 0.90966 0.58604 0.0
C61 C 0.28258 0.93097 0.59961 0.0
C62 C 0.29183 0.94288 0.62654 0.0
C63 C 0.33517 0.91226 0.62599 0.0
C64 C 0.32619 0.90045 0.59971 0.0
C65 C 0.34639 0.87657 0.58927 0.0
H66 H 0.4605 0.78615 0.61732 0.0
C67 C 0.36253 0.8974 0.63478 0.0
C68 C 0.36921 0.87636 0.61343 0.0
H69 H 0.40269 0.78544 0.54263 0.0
H70 H 0.37892 0.82946 0.55999 0.0
H71 H 0.47288 0.85441 0.61501 0.0
H72 H 0.41225 0.80387 0.66641 0.0
H73 H 0.43112 0.82863 0.68936 0.0
H74 H 0.45146 0.80148 0.66951 0.0
H75 H 0.48408 0.83692 0.6482 0.0
H76 H 0.46882 0.87349 0.64804 0.0
C77 C 0.35972 0.88609 0.55967 0.0
C78 C 0.3286 0.8476 0.5881 0.0
C79 C 0.41282 0.9265 0.72934 0.0
C80 C 0.4388 0.9172 0.74293 0.0
C81 C 0.45598 0.8954 0.72946 0.0
C82 C 0.44712 0.88263 0.70305 0.0
C83 C 0.42087 0.89187 0.68989 0.0
C84 C 0.40446 0.91379 0.70281 0.0
C85 C 0.3778 0.9216 0.68519 0.0
C86 C 0.38096 0.90083 0.6595 0.0
C87 C 0.40595 0.88317 0.6626 0.0
C88 C 0.38062 0.95413 0.6758 0.0
C89 C 0.35024 0.9146 0.70376 0.0
C90 C 0.44269 0.79557 0.6048 0.0
C91 C 0.43313 0.78224 0.57884 0.0
C92 C 0.41039 0.7954 0.5627 0.0
C93 C 0.39647 0.82078 0.57295 0.0
C94 C 0.40539 0.83314 0.59962 0.0
C95 C 0.4287 0.82103 0.61465 0.0
C96 C 0.436 0.83792 0.64192 0.0
C97 C 0.41226 0.86124 0.64152 0.0
C98 C 0.39424 0.85815 0.61685 0.0
C99 C 0.46709 0.8513 0.63839 0.0
C100 C 0.43274 0.81701 0.66833 0.0
H101 H 0.3236 0.94362 0.66018 0.0
H102 H 0.29415 0.90009 0.56529 0.0
H103 H 0.31285 0.84633 0.60661 0.0
H104 H 0.34232 0.82783 0.59031 0.0
H105 H 0.31576 0.846 0.56756 0.0
H106 H 0.36357 0.91019 0.55918 0.0
H107 H 0.34481 0.88058 0.5413 0.0
H108 H 0.38146 0.87625 0.55555 0.0
H109 H 0.39939 0.94348 0.73906 0.0
H110 H 0.47602 0.88784 0.73968 0.0
H111 H 0.4609 0.86587 0.69404 0.0
H112 H 0.40377 0.95961 0.67037 0.0
H113 H 0.37352 0.96909 0.69357 0.0
H114 H 0.36811 0.95929 0.65583 0.0
H115 H 0.35419 0.89559 0.71846 0.0
H116 H 0.33117 0.90797 0.69041 0.0
H117 H 0.34401 0.93357 0.71765 0.0
H118 H 0.27846 0.95875 0.638 0.0
C119 C 0.31801 0.9338 0.63964 0.0
C120 C 0.60254 0.3001 0.94059 0.0
C121 C 0.58123 0.28241 0.9271 0.0
C122 C 0.56846 0.29176 0.90072 0.0
C123 C 0.59881 0.3354 0.9011 0.0
C124 C 0.61117 0.32631 0.92711 0.0
C125 C 0.63503 0.34671 0.93734 0.0
H126 H 0.72542 0.46048 0.90741 0.0
C127 C 0.61337 0.36295 0.89227 0.0
C128 C 0.63465 0.36973 0.91338 0.0
H129 H 0.72689 0.40371 0.98272 0.0
H130 H 0.68218 0.38005 0.96646 0.0
H131 H 0.65774 0.47387 0.91123 0.0
H132 H 0.70617 0.41228 0.85913 0.0
H133 H 0.68136 0.43148 0.83658 0.0
H134 H 0.70905 0.45147 0.85603 0.0
H135 H 0.6737 0.48441 0.87708 0.0
H136 H 0.63714 0.46918 0.87918 0.0
C137 C 0.62589 0.35968 0.96721 0.0
C138 C 0.66416 0.32925 0.93787 0.0
C139 C 0.58472 0.41217 0.797 0.0
C140 C 0.59399 0.43816 0.78337 0.0
C141 C 0.61521 0.45586 0.79712 0.0
C142 C 0.62762 0.44741 0.82378 0.0
C143 C 0.61859 0.42105 0.83691 0.0
C144 C 0.59702 0.40426 0.82384 0.0
C145 C 0.5892 0.3777 0.84166 0.0
C146 C 0.60974 0.38127 0.8675 0.0
C147 C 0.62726 0.40638 0.86429 0.0
C148 C 0.55658 0.38031 0.85078 0.0
C149 C 0.59652 0.35004 0.82337 0.0
C150 C 0.71597 0.44296 0.92032 0.0
C151 C 0.72971 0.4335 0.94604 0.0
C152 C 0.7166 0.41118 0.96276 0.0
C153 C 0.69084 0.39737 0.95315 0.0
C154 C 0.67809 0.40606 0.92658 0.0
C155 C 0.69014 0.42916 0.91116 0.0
C156 C 0.67285 0.43643 0.88419 0.0
C157 C 0.64938 0.41281 0.88511 0.0
C158 C 0.65275 0.39487 0.90979 0.0
C159 C 0.65975 0.46761 0.88784 0.0
C160 C 0.6933 0.43293 0.85744 0.0
H161 H 0.56654 0.32403 0.86762 0.0
H162 H 0.61297 0.2932 0.96068 0.0
H163 H 0.66554 0.31416 0.91882 0.0
H164 H 0.6838 0.34325 0.93621 0.0
H165 H 0.66586 0.31574 0.95796 0.0
H166 H 0.60175 0.36306 0.96823 0.0
H167 H 0.63203 0.34478 0.98537 0.0
H168 H 0.63544 0.3816 0.97125 0.0
H169 H 0.56812 0.3984 0.78703 0.0
H170 H 0.62264 0.47595 0.78688 0.0
H171 H 0.64402 0.46153 0.83296 0.0
H172 H 0.55061 0.40357 0.85511 0.0
H173 H 0.54183 0.37204 0.83333 0.0
H174 H 0.55159 0.36872 0.87134 0.0
H175 H 0.61636 0.35371 0.80971 0.0
H176 H 0.60195 0.33078 0.8369 0.0
H177 H 0.57817 0.34429 0.80848 0.0
H178 H 0.55188 0.27848 0.89009 0.0
C179 C 0.577 0.31821 0.88776 0.0
C180 C 0.94153 0.70723 0.42682 0.0
C181 C 0.93007 0.71977 0.45247 0.0
C182 C 0.90699 0.70523 0.46703 0.0
C183 C 0.90532 0.66823 0.42908 0.0
C184 C 0.92895 0.68155 0.41563 0.0
C185 C 0.93788 0.666 0.38808 0.0
H186 H 0.90689 0.56541 0.28412 0.0
C187 C 0.89573 0.64351 0.41051 0.0
C188 C 0.91489 0.64194 0.38657 0.0
H189 H 0.98202 0.62305 0.28891 0.0
H190 H 0.96557 0.6412 0.33574 0.0
H191 H 0.91026 0.54477 0.35176 0.0
H192 H 0.86019 0.61043 0.3066 0.0
H193 H 0.83667 0.59508 0.33271 0.0
H194 H 0.85151 0.57212 0.30424 0.0
H195 H 0.88035 0.53589 0.32786 0.0
H196 H 0.87454 0.54359 0.36604 0.0
C197 C 0.96917 0.65347 0.39243 0.0
C198 C 0.93507 0.68786 0.36238 0.0
C199 C 0.80141 0.58898 0.43446 0.0
C200 C 0.78495 0.56805 0.41901 0.0
C201 C 0.79582 0.55691 0.3925 0.0
C202 C 0.82264 0.56672 0.38129 0.0
C203 C 0.83857 0.58824 0.39654 0.0
C204 C 0.82795 0.59896 0.4227 0.0
C205 C 0.84704 0.62293 0.43497 0.0
C206 C 0.87106 0.62451 0.41207 0.0
C207 C 0.86596 0.6041 0.38969 0.0
C208 C 0.85902 0.61265 0.46488 0.0
C209 C 0.82856 0.65144 0.4362 0.0
C210 C 0.91974 0.58197 0.2953 0.0
C211 C 0.94559 0.59306 0.28284 0.0
C212 C 0.96205 0.61419 0.29821 0.0
C213 C 0.9524 0.62475 0.32529 0.0
C214 C 0.92607 0.614 0.33715 0.0
C215 C 0.91056 0.59253 0.32245 0.0
C216 C 0.88363 0.58297 0.33875 0.0
C217 C 0.88544 0.60233 0.36563 0.0
C218 C 0.91006 0.62077 0.36435 0.0
C219 C 0.88705 0.55005 0.34644 0.0
C220 C 0.85646 0.59023 0.3197 0.0
H221 H 0.87682 0.66984 0.46738 0.0
H222 H 0.95917 0.71776 0.41498 0.0
H223 H 0.91432 0.70055 0.36414 0.0
H224 H 0.93423 0.67707 0.34087 0.0
H225 H 0.95355 0.70376 0.36235 0.0
H226 H 0.9738 0.64902 0.41585 0.0
H227 H 0.98614 0.66904 0.38451 0.0
H228 H 0.97218 0.63203 0.3815 0.0
H229 H 0.79323 0.59819 0.45468 0.0
H230 H 0.78341 0.54069 0.38037 0.0
H231 H 0.82965 0.55752 0.36091 0.0
H232 H 0.86367 0.5887 0.46462 0.0
H233 H 0.84293 0.61686 0.48257 0.0
H234 H 0.88014 0.62307 0.47061 0.0
H235 H 0.81347 0.65282 0.41717 0.0
H236 H 0.8419 0.67158 0.43498 0.0
H237 H 0.81496 0.6522 0.45629 0.0
H238 H 0.8982 0.71395 0.4872 0.0
C239 C 0.89462 0.67956 0.45552 0.0
C240 C 0.93912 0.82641 0.95575 0.0
C241 C 0.95983 0.81012 0.93975 0.0
C242 C 0.97154 0.82238 0.91399 0.0
C243 C 0.93988 0.86471 0.91906 0.0
C244 C 0.92921 0.8533 0.94486 0.0
C245 C 0.90489 0.87165 0.95747 0.0
H246 H 0.80174 0.97457 0.93499 0.0
C247 C 0.92286 0.89135 0.91215 0.0
C248 C 0.90226 0.89553 0.93454 0.0
H249 H 0.81415 0.92059 0.01169 0.0
H250 H 0.85937 0.90204 0.99167 0.0
H251 H 0.82072 0.92946 0.88771 0.0
H252 H 0.87029 0.99557 0.93316 0.0
H253 H 0.88402 0.99451 0.8974 0.0
H254 H 0.84618 0.00449 0.90355 0.0
H255 H 0.81601 0.96804 0.88147 0.0
H256 H 0.84317 0.94718 0.862 0.0
C257 C 0.877 0.85226 0.95911 0.0
C258 C 0.91517 0.88402 0.98727 0.0
C259 C 0.93988 0.94365 0.81584 0.0
C260 C 0.92486 0.96633 0.80151 0.0
C261 C 0.9012 0.98017 0.81562 0.0
C262 C 0.89233 0.97126 0.84351 0.0
C263 C 0.90702 0.94796 0.85727 0.0
C264 C 0.93051 0.93473 0.84352 0.0
C265 C 0.94253 0.90937 0.86071 0.0
C266 C 0.92288 0.91008 0.88743 0.0
C267 C 0.90208 0.93263 0.88522 0.0
C268 C 0.93831 0.88096 0.84244 0.0
C269 C 0.9748 0.91631 0.86862 0.0
C270 C 0.81432 0.95916 0.94786 0.0
C271 C 0.80377 0.94857 0.97474 0.0
C272 C 0.82114 0.92847 0.99052 0.0
C273 C 0.84747 0.91776 0.97892 0.0
C274 C 0.85662 0.92717 0.95121 0.0
C275 C 0.84079 0.94845 0.93674 0.0
C276 C 0.85471 0.95703 0.90826 0.0
C277 C 0.88087 0.93651 0.90752 0.0
C278 C 0.88152 0.91864 0.93244 0.0
C279 C 0.83261 0.95034 0.88341 0.0
C280 C 0.86419 0.98962 0.9104 0.0
H281 H 0.97122 0.85746 0.88374 0.0
H282 H 0.93006 0.81801 0.97592 0.0
H283 H 0.9394 0.88689 0.98784 0.0
H284 H 0.90627 0.90615 0.9917 0.0
H285 H 0.90908 0.8691 0.00543 0.0
H286 H 0.87437 0.83924 0.93872 0.0
H287 H 0.87836 0.83661 0.97763 0.0
H288 H 0.85656 0.86487 0.96132 0.0
H289 H 0.9578 0.93227 0.80523 0.0
H290 H 0.88942 0.99776 0.80492 0.0
H291 H 0.87398 0.98245 0.853 0.0
H292 H 0.92007 0.88321 0.82646 0.0
H293 H 0.95843 0.87547 0.82993 0.0
H294 H 0.93196 0.86188 0.85592 0.0
H295 H 0.97713 0.93957 0.87562 0.0
H296 H 0.98298 0.90311 0.8871 0.0
H297 H 0.98943 0.91286 0.84955 0.0
H298 H 0.9873 0.81038 0.90098 0.0
C299 C 0.96188 0.84964 0.90374 0.0
C300 C 0.6993 0.08284 0.45522 0.0
C301 C 0.71607 0.06162 0.44061 0.0
C302 C 0.70414 0.04703 0.41628 0.0
C303 C 0.65955 0.07551 0.4207 0.0
C304 C 0.67125 0.08962 0.44476 0.0
C305 C 0.65145 0.11343 0.45605 0.0
H306 H 0.52782 0.19341 0.43987 0.0
C307 C 0.63051 0.08844 0.41471 0.0
C308 C 0.62554 0.11059 0.43539 0.0
H309 H 0.6011 0.20924 0.49794 0.0
H310 H 0.62297 0.16372 0.48315 0.0
H311 H 0.52338 0.12218 0.44808 0.0
H312 H 0.56794 0.17819 0.38681 0.0
H313 H 0.55162 0.14958 0.367 0.0
H314 H 0.52879 0.17412 0.38757 0.0
H315 H 0.50425 0.14061 0.41921 0.0
H316 H 0.52096 0.10511 0.41376 0.0
C317 C 0.64278 0.1058 0.48778 0.0
C318 C 0.66754 0.1433 0.45268 0.0
C319 C 0.57371 0.05701 0.32478 0.0
C320 C 0.54668 0.06586 0.31289 0.0
C321 C 0.52854 0.0847 0.32933 0.0
C322 C 0.53791 0.09587 0.35625 0.0
C323 C 0.56582 0.08834 0.36683 0.0
C324 C 0.58271 0.06834 0.3517 0.0
C325 C 0.61137 0.06219 0.3667 0.0
C326 C 0.60935 0.08267 0.39273 0.0
C327 C 0.58283 0.09827 0.39243 0.0
C328 C 0.61153 0.02953 0.37606 0.0
C329 C 0.63657 0.07097 0.34571 0.0
C330 C 0.54859 0.1872 0.44946 0.0
C331 C 0.56269 0.2054 0.46999 0.0
C332 C 0.58939 0.19579 0.48234 0.0
C333 C 0.6024 0.16946 0.47337 0.0
C334 C 0.58904 0.15274 0.45132 0.0
C335 C 0.56236 0.16147 0.44005 0.0
C336 C 0.55247 0.14231 0.41519 0.0
C337 C 0.57788 0.12092 0.41312 0.0
C338 C 0.59913 0.12703 0.43446 0.0
C339 C 0.52364 0.1268 0.42424 0.0
C340 C 0.54981 0.16185 0.38762 0.0
H341 H 0.66808 0.04194 0.38764 0.0
H342 H 0.70829 0.0947 0.47368 0.0
H343 H 0.68483 0.14235 0.43558 0.0
H344 H 0.65276 0.16106 0.44537 0.0
H345 H 0.67832 0.15 0.47338 0.0
H346 H 0.63694 0.08218 0.48962 0.0
H347 H 0.66124 0.11016 0.50301 0.0
H348 H 0.62332 0.11798 0.49539 0.0
H349 H 0.58828 0.04264 0.31281 0.0
H350 H 0.50728 0.09127 0.32109 0.0
H351 H 0.52341 0.1106 0.36741 0.0
H352 H 0.58904 0.02186 0.38164 0.0
H353 H 0.61988 0.01525 0.35827 0.0
H354 H 0.62452 0.02563 0.39605 0.0
H355 H 0.63073 0.09101 0.33316 0.0
H356 H 0.6571 0.07669 0.35713 0.0
H357 H 0.64116 0.05321 0.32976 0.0
H358 H 0.71684 0.03058 0.40482 0.0
C359 C 0.67586 0.05366 0.40641 0.0
C360 C 0.45001 0.57131 0.20339 0.0
C361 C 0.43961 0.54442 0.21442 0.0
C362 C 0.41942 0.52814 0.19754 0.0
C363 C 0.41836 0.5666 0.16108 0.0
C364 C 0.43938 0.58175 0.17672 0.0
C365 C 0.44805 0.61 0.16218 0.0
H366 H 0.42705 0.70805 0.05365 0.0
C367 C 0.41045 0.58447 0.13538 0.0
C368 C 0.42819 0.60967 0.13561 0.0
H369 H 0.48785 0.71359 0.12602 0.0
H370 H 0.47282 0.66576 0.14237 0.0
H371 H 0.3761 0.68887 0.08992 0.0
H372 H 0.43565 0.63723 0.03889 0.0
H373 H 0.39973 0.62466 0.0319 0.0
H374 H 0.40918 0.6622 0.02395 0.0
H375 H 0.37014 0.68292 0.05174 0.0
H376 H 0.3556 0.65828 0.07897 0.0
C377 C 0.44061 0.63562 0.18317 0.0
C378 C 0.48086 0.6079 0.15366 0.0
C379 C 0.32094 0.55763 0.07494 0.0
C380 C 0.30573 0.57254 0.0527 0.0
C381 C 0.31857 0.59785 0.0404 0.0
C382 C 0.34526 0.60879 0.05088 0.0
C383 C 0.35918 0.59466 0.0743 0.0
C384 C 0.34731 0.56922 0.0856 0.0
C385 C 0.36462 0.55782 0.11117 0.0
C386 C 0.38825 0.5812 0.11386 0.0
C387 C 0.38492 0.60264 0.09215 0.0
C388 C 0.34408 0.55721 0.13808 0.0
C389 C 0.3776 0.52756 0.10283 0.0
C390 C 0.43718 0.69907 0.07305 0.0
C391 C 0.45876 0.71484 0.08845 0.0
C392 C 0.47153 0.7019 0.11337 0.0
C393 C 0.46256 0.67415 0.12305 0.0
C394 C 0.44028 0.65919 0.10793 0.0
C395 C 0.42811 0.67164 0.0833 0.0
C396 C 0.40355 0.65345 0.07093 0.0
C397 C 0.40347 0.62766 0.09183 0.0
C398 C 0.425 0.63113 0.11344 0.0
C399 C 0.37482 0.67168 0.07271 0.0
C400 C 0.4122 0.64392 0.03967 0.0
H401 H 0.39313 0.52588 0.15941 0.0
H402 H 0.46538 0.58459 0.21564 0.0
H403 H 0.48681 0.58507 0.14744 0.0
H404 H 0.48642 0.62123 0.13432 0.0
H405 H 0.49523 0.61446 0.17213 0.0
H406 H 0.41988 0.63114 0.19517 0.0
H407 H 0.45824 0.63882 0.19959 0.0
H408 H 0.43673 0.65657 0.17177 0.0
H409 H 0.31209 0.53782 0.08454 0.0
H410 H 0.30739 0.61007 0.02348 0.0
H411 H 0.35353 0.62841 0.04096 0.0
H412 H 0.33081 0.57765 0.1392 0.0
H413 H 0.32866 0.53837 0.1369 0.0
H414 H 0.35587 0.55608 0.15902 0.0
H415 H 0.38174 0.52603 0.07895 0.0
H416 H 0.39924 0.52362 0.11301 0.0
H417 H 0.36243 0.50947 0.1088 0.0
H418 H 0.41159 0.507 0.20498 0.0
C419 C 0.40878 0.53907 0.17098 0.0
C420 C 0.06194 0.31187 0.58698 0.0
C421 C 0.07699 0.29412 0.56697 0.0
C422 C 0.10276 0.3046 0.55376 0.0
C423 C 0.09912 0.34964 0.58157 0.0
C424 C 0.07356 0.33939 0.5942 0.0
C425 C 0.06209 0.35988 0.61726 0.0
H426 H 0.08802 0.47451 0.70651 0.0
C427 C 0.10643 0.37805 0.59524 0.0
C428 C 0.08485 0.38423 0.61618 0.0
H429 H 0.01383 0.41523 0.70716 0.0
H430 H 0.03081 0.39303 0.66254 0.0
H431 H 0.08296 0.48843 0.63805 0.0
H432 H 0.13748 0.42924 0.68691 0.0
H433 H 0.15945 0.44919 0.66218 0.0
H434 H 0.13925 0.46853 0.68965 0.0
H435 H 0.11633 0.5006 0.65484 0.0
H436 H 0.11587 0.48544 0.61837 0.0
C437 C 0.03141 0.3708 0.60772 0.0
C438 C 0.06247 0.34324 0.64676 0.0
C439 C 0.20078 0.42999 0.56723 0.0
C440 C 0.21416 0.45615 0.57668 0.0
C441 C 0.19936 0.4738 0.59727 0.0
C442 C 0.17231 0.46504 0.60892 0.0
C443 C 0.15981 0.43836 0.59993 0.0
C444 C 0.17367 0.42172 0.57889 0.0
C445 C 0.15684 0.39437 0.57142 0.0
C446 C 0.13054 0.39737 0.59147 0.0
C447 C 0.13267 0.42288 0.60848 0.0
C448 C 0.14791 0.39608 0.53884 0.0
C449 C 0.17612 0.36752 0.5794 0.0
C450 C 0.07511 0.45708 0.69688 0.0
C451 C 0.04992 0.44616 0.71095 0.0
C452 C 0.03381 0.42348 0.69738 0.0
C453 C 0.04367 0.41062 0.67141 0.0
C454 C 0.06997 0.42043 0.65881 0.0
C455 C 0.08458 0.44406 0.67087 0.0
C456 C 0.11145 0.45235 0.65368 0.0
C457 C 0.11139 0.42872 0.63031 0.0
C458 C 0.08728 0.40984 0.6337 0.0
C459 C 0.10668 0.48336 0.64064 0.0
C460 C 0.13845 0.4499 0.67404 0.0
H461 H 0.13367 0.33905 0.55016 0.0
H462 H 0.0423 0.30393 0.59769 0.0
H463 H 0.08251 0.32947 0.64865 0.0
H464 H 0.06314 0.35781 0.66592 0.0
H465 H 0.04315 0.32851 0.64874 0.0
H466 H 0.03001 0.37278 0.58356 0.0
H467 H 0.01393 0.3554 0.61482 0.0
H468 H 0.0264 0.39301 0.61602 0.0
H469 H 0.21153 0.41565 0.55173 0.0
H470 H 0.20878 0.49437 0.60453 0.0
H471 H 0.1624 0.47916 0.62481 0.0
H472 H 0.142 0.41893 0.53271 0.0
H473 H 0.1662 0.38904 0.52446 0.0
H474 H 0.12823 0.38292 0.5337 0.0
H475 H 0.19061 0.37245 0.59833 0.0
H476 H 0.16315 0.34832 0.58646 0.0
H477 H 0.19041 0.36104 0.56087 0.0
H478 H 0.11458 0.29101 0.53833 0.0
C479 C 0.11378 0.3324 0.56073 0.0
O480 O 0.99537 0.07408 0.53761 0.0
Zn481 Zn 0.97797 0.03354 0.53577 0.0
O482 O 0.00311 0.00633 0.51411 0.0
Zn483 Zn 0.98227 0.99061 0.48014 0.0
Zn484 Zn 0.03801 0.0272 0.50087 0.0
Zn485 Zn 0.01444 0.97394 0.53958 0.0
O486 O 0.98199 0.94648 0.48035 0.0
O487 O 0.00175 0.93493 0.52307 0.0
O488 O 0.93796 0.03602 0.51726 0.0
O489 O 0.94016 0.00384 0.48082 0.0
O490 O 0.00018 0.00465 0.44215 0.0
O491 O 0.03872 0.03027 0.45739 0.0
O492 O 0.07507 0.00752 0.51485 0.0
O493 O 0.97252 0.0203 0.57731 0.0
O494 O 0.05825 0.97278 0.54448 0.0
O495 O 0.9966 0.97807 0.57948 0.0
C496 C 0.0196 0.08462 0.52866 0.0
C497 C 0.98974 0.92741 0.49911 0.0
C498 C 0.02252 0.02061 0.43693 0.0
C499 C 0.92595 0.02229 0.49618 0.0
C500 C 0.07946 0.98671 0.53287 0.0
C501 C 0.98089 0.99778 0.59142 0.0
O502 O 0.03809 0.0689 0.51497 0.0
O503 O 0.50508 0.06969 0.99097 0.0
Zn504 Zn 0.48777 0.02917 0.99431 0.0
O505 O 0.51109 0.00471 0.02069 0.0
Zn506 Zn 0.52839 0.97219 0.99901 0.0
Zn507 Zn 0.54238 0.02814 0.03837 0.0
Zn508 Zn 0.48579 0.98897 0.05122 0.0
O509 O 0.51751 0.93319 0.01657 0.0
O510 O 0.4876 0.945 0.0529 0.0
O511 O 0.4858 0.0112 0.95389 0.0
O512 O 0.51376 0.97157 0.95786 0.0
O513 O 0.57248 0.97494 0.99856 0.0
O514 O 0.58205 0.01079 0.03001 0.0
O515 O 0.53759 0.03081 0.08203 0.0
O516 O 0.44623 0.03336 0.00894 0.0
O517 O 0.49794 0.00389 0.0906 0.0
O518 O 0.44391 0.00126 0.04533 0.0
C519 C 0.52682 0.08235 0.00309 0.0
C520 C 0.50113 0.92586 0.03783 0.0
C521 C 0.59064 0.99057 0.01288 0.0
C522 C 0.49712 0.98815 0.94291 0.0
C523 C 0.51884 0.02005 0.09963 0.0
C524 C 0.43176 0.01992 0.02859 0.0
O525 O 0.54282 0.06906 0.02163 0.0
O526 O 0.536 0.5096 0.56709 0.0
Zn527 Zn 0.53034 0.52508 0.52629 0.0
O528 O 0.504 0.49942 0.50419 0.0
Zn529 Zn 0.52603 0.48018 0.47299 0.0
Zn530 Zn 0.48722 0.46954 0.52984 0.0
Zn531 Zn 0.47237 0.52292 0.48764 0.0
O532 O 0.50802 0.4889 0.43365 0.0
O533 O 0.47349 0.52176 0.44377 0.0
O534 O 0.56997 0.5277 0.50725 0.0
O535 O 0.56778 0.4946 0.47174 0.0
O536 O 0.52722 0.43645 0.47862 0.0
O537 O 0.49773 0.42879 0.51643 0.0
O538 O 0.44326 0.47205 0.53124 0.0
O539 O 0.51436 0.56626 0.5292 0.0
O540 O 0.43281 0.50843 0.50083 0.0
O541 O 0.47482 0.5648 0.501 0.0
C542 C 0.52301 0.4898 0.58186 0.0
C543 C 0.48807 0.50663 0.42545 0.0
C544 C 0.51444 0.41917 0.49635 0.0
C545 C 0.58186 0.51385 0.48624 0.0
C546 C 0.42469 0.48839 0.5184 0.0
C547 C 0.49225 0.57877 0.51768 0.0
O548 O 0.50308 0.47376 0.57064 0.0
O549 O 0.98983 0.5111 0.06733 0.0
Zn550 Zn 0.99065 0.49372 0.02679 0.0
O551 O 0.01333 0.51855 0.00018 0.0
Zn552 Zn 0.98752 0.53389 0.96963 0.0
Zn553 Zn 0.03052 0.55139 0.02164 0.0
Zn554 Zn 0.04475 0.49526 0.98271 0.0
O555 O 0.00032 0.51951 0.93009 0.0
O556 O 0.04059 0.49362 0.93896 0.0
O557 O 0.94894 0.48955 0.01298 0.0
O558 O 0.94583 0.52024 0.97547 0.0
O559 O 0.98797 0.57816 0.96863 0.0
O560 O 0.01775 0.59004 0.00509 0.0
O561 O 0.0747 0.55031 0.02046 0.0
O562 O 0.00767 0.45307 0.02964 0.0
O563 O 0.08441 0.51183 0.9924 0.0
O564 O 0.04481 0.45403 0.99838 0.0
C565 C 0.00148 0.5339 0.07852 0.0
C566 C 0.02179 0.50405 0.92122 0.0
C567 C 0.00096 0.59737 0.98416 0.0
C568 C 0.9341 0.50196 0.99296 0.0
C569 C 0.09296 0.53344 0.00781 0.0
C570 C 0.0291 0.44051 0.01698 0.0
O571 O 0.01754 0.55099 0.06346 0.0
C572 C 0.03754 0.0842 0.27485 0.0
C573 C 0.06658 0.08157 0.26496 0.0
C574 C 0.02899 0.07301 0.30209 0.0
C575 C 0.04974 0.05805 0.31954 0.0
C576 C 0.07872 0.05421 0.30924 0.0
C577 C 0.0869 0.06641 0.28238 0.0
C578 C 0.99803 0.07809 0.31262 0.0
C579 C 0.10137 0.03794 0.32699 0.0
C580 C 0.04147 0.05748 0.40177 0.0
C581 C 0.02902 0.02982 0.40675 0.0
C582 C 0.04757 0.06717 0.37343 0.0
C583 C 0.04188 0.04837 0.3495 0.0
C584 C 0.02945 0.02029 0.35437 0.0
C585 C 0.02271 0.01151 0.383 0.0
C586 C 0.06009 0.09755 0.36912 0.0
C587 C 0.02386 0.99937 0.32945 0.0
H588 H 0.02142 0.09526 0.26143 0.0
H589 H 0.10954 0.06465 0.27547 0.0
H590 H 0.98753 0.05694 0.31842 0.0
H591 H 0.99845 0.09175 0.33267 0.0
H592 H 0.98427 0.08928 0.29602 0.0
H593 H 0.1219 0.03405 0.31454 0.0
H594 H 0.10685 0.05074 0.34685 0.0
H595 H 0.09251 0.01648 0.33426 0.0
H596 H 0.04599 0.07185 0.4201 0.0
H597 H 0.01317 0.99008 0.38687 0.0
H598 H 0.04619 0.11013 0.3537 0.0
H599 H 0.0823 0.09606 0.3594 0.0
H600 H 0.06168 0.11001 0.38991 0.0
H601 H 0.00902 0.00958 0.31322 0.0
H602 H 0.01396 0.9784 0.33689 0.0
H603 H 0.04479 0.99448 0.3181 0.0
C604 C 0.47619 0.94021 0.77569 0.0
C605 C 0.44761 0.92976 0.77139 0.0
C606 C 0.48488 0.95163 0.8028 0.0
C607 C 0.46463 0.95205 0.82622 0.0
C608 C 0.43566 0.94169 0.82187 0.0
C609 C 0.42744 0.93088 0.79441 0.0
C610 C 0.5158 0.96291 0.8065 0.0
C611 C 0.4136 0.94129 0.84643 0.0
C612 C 0.4944 0.95053 0.90342 0.0
C613 C 0.48986 0.97954 0.91259 0.0
C614 C 0.48644 0.94139 0.87531 0.0
C615 C 0.47408 0.96187 0.85568 0.0
C616 C 0.47004 0.99136 0.86452 0.0
C617 C 0.47774 -0.0002 0.89301 0.0
C618 C 0.49067 0.90964 0.86685 0.0
C619 C 0.45737 0.01389 0.84398 0.0
H620 H 0.49168 0.9396 0.75777 0.0
H621 H 0.4054 0.92256 0.79112 0.0
H622 H 0.51545 0.98564 0.81515 0.0
H623 H 0.52767 0.9492 0.82262 0.0
H624 H 0.52826 0.96272 0.78568 0.0
H625 H 0.39177 0.9332 0.83924 0.0
H626 H 0.42161 0.92696 0.86429 0.0
H627 H 0.41097 0.96363 0.85564 0.0
H628 H 0.50357 0.93466 0.91847 0.0
H629 H 0.47433 0.02228 0.8999 0.0
H630 H 0.50482 0.90808 0.84724 0.0
H631 H 0.4692 0.89967 0.86117 0.0
H632 H 0.50078 0.89654 0.88463 0.0
H633 H 0.47036 0.0146 0.82353 0.0
H634 H 0.457 0.03621 0.85372 0.0
H635 H 0.43464 0.00767 0.83795 0.0
C636 C 0.57017 0.47433 0.75003 0.0
C637 C 0.58215 0.44642 0.75452 0.0
C638 C 0.55927 0.48248 0.72257 0.0
C639 C 0.56107 0.46245 0.69901 0.0
C640 C 0.57327 0.43426 0.70349 0.0
C641 C 0.58339 0.42648 0.73131 0.0
C642 C 0.54584 0.51249 0.71876 0.0
C643 C 0.57609 0.4125 0.67879 0.0
C644 C 0.51292 0.47063 0.63195 0.0
C645 C 0.53209 0.48442 0.61235 0.0
C646 C 0.52177 0.46417 0.66056 0.0
C647 C 0.55068 0.47105 0.66951 0.0
C648 C 0.57004 0.48521 0.6499 0.0
C649 C 0.56039 0.49203 0.62164 0.0
C650 C 0.50031 0.44964 0.68107 0.0
C651 C 0.60122 0.49238 0.65847 0.0
H652 H 0.56907 0.48963 0.76811 0.0
H653 H 0.59292 0.40499 0.73482 0.0
H654 H 0.55864 0.52529 0.7026 0.0
H655 H 0.5232 0.51037 0.7101 0.0
H656 H 0.54507 0.52502 0.73954 0.0
H657 H 0.58633 0.39159 0.68589 0.0
H658 H 0.55417 0.40758 0.66949 0.0
H659 H 0.58958 0.42207 0.66103 0.0
H660 H 0.49094 0.46491 0.62493 0.0
H661 H 0.57537 0.50249 0.6065 0.0
H662 H 0.49857 0.46246 0.70159 0.0
H663 H 0.5083 0.42746 0.68698 0.0
H664 H 0.47809 0.44748 0.67134 0.0
H665 H 0.60144 0.50644 0.67822 0.0
H666 H 0.61335 0.50381 0.6408 0.0
H667 H 0.61309 0.47188 0.66399 0.0
C668 C 0.93462 0.58344 0.23042 0.0
C669 C 0.9548 0.58326 0.25347 0.0
C670 C 0.94296 0.57479 0.20227 0.0
C671 C 0.97208 0.56532 0.19721 0.0
C672 C 0.99246 0.56473 0.22052 0.0
C673 C 0.98363 0.57398 0.24838 0.0
C674 C 0.92073 0.5762 0.17788 0.0
C675 C 0.02356 0.55436 0.216 0.0
C676 C 0.98404 0.52028 0.12853 0.0
C677 C 0.99537 0.54139 0.10935 0.0
C678 C 0.97717 0.52755 0.1575 0.0
C679 C 0.98125 0.55672 0.16731 0.0
C680 C 0.99297 0.57804 0.14815 0.0
C681 C 0.00011 0.57006 0.11947 0.0
C682 C 0.96514 0.50413 0.17748 0.0
C683 C 0.99721 0.60948 0.15769 0.0
H684 H 0.9124 0.59092 0.23432 0.0
H685 H 0.99914 0.57364 0.2663 0.0
H686 H 0.92868 0.59114 0.16049 0.0
H687 H 0.91792 0.5542 0.1679 0.0
H688 H 0.89899 0.58406 0.1855 0.0
H689 H 0.0364 0.55432 0.2366 0.0
H690 H 0.02351 0.53184 0.2068 0.0
H691 H 0.03483 0.56873 0.20001 0.0
H692 H 0.98052 0.49804 0.12091 0.0
H693 H 0.00871 0.58655 0.10474 0.0
H694 H 0.94239 0.50976 0.18397 0.0
H695 H 0.97841 0.50299 0.19774 0.0
H696 H 0.96495 0.48214 0.16704 0.0
H697 H 0.97575 0.61915 0.16379 0.0
H698 H 0.00722 0.62322 0.14032 0.0
H699 H 0.01144 0.61042 0.17729 0.0
C700 C 0.28239 0.06959 0.09795 0.0
C701 C 0.25771 0.06816 0.07985 0.0
C702 C 0.31018 0.0619 0.08746 0.0
C703 C 0.31317 0.05188 0.05836 0.0
C704 C 0.28821 0.05025 0.04001 0.0
C705 C 0.26073 0.05883 0.05091 0.0
C706 C 0.33635 0.06457 0.10751 0.0
C707 C 0.29048 0.03906 0.0091 0.0
C708 C 0.38998 0.05523 0.02666 0.0
C709 C 0.40055 0.02716 0.03328 0.0
C710 C 0.36123 0.06339 0.03395 0.0
C711 C 0.34248 0.04272 0.04752 0.0
C712 C 0.3526 0.01388 0.05284 0.0
C713 C 0.38165 0.00656 0.04601 0.0
C714 C 0.35144 0.09454 0.02851 0.0
C715 C 0.33304 0.99102 0.06664 0.0
H716 H 0.27994 0.07715 0.12026 0.0
H717 H 0.24149 0.05773 0.03704 0.0
H718 H 0.3463 0.04267 0.11104 0.0
H719 H 0.35334 0.07869 0.09735 0.0
H720 H 0.33043 0.07398 0.12908 0.0
H721 H 0.26897 0.0391 0.99771 0.0
H722 H 0.3061 0.05273 0.99649 0.0
H723 H 0.2992 0.01634 0.00915 0.0
H724 H 0.40459 0.07127 0.01697 0.0
H725 H 0.38969 0.98473 0.05089 0.0
H726 H 0.34749 0.10568 0.04968 0.0
H727 H 0.33045 0.09477 0.01629 0.0
H728 H 0.36796 0.10736 0.01608 0.0
H729 H 0.32838 0.99717 0.0896 0.0
H730 H 0.34318 0.96888 0.06646 0.0
H731 H 0.31171 0.98992 0.05502 0.0
C732 C 0.23624 0.91936 0.57213 0.0
C733 C 0.25402 0.93995 0.58657 0.0
C734 C 0.20855 0.92714 0.56127 0.0
C735 C 0.19803 0.956 0.56556 0.0
C736 C 0.21598 0.97704 0.5796 0.0
C737 C 0.24388 0.96887 0.58956 0.0
C738 C 0.19024 0.90423 0.5459 0.0
C739 C 0.20535 0.00794 0.58495 0.0
C740 C 0.13311 0.98404 0.52169 0.0
C741 C 0.1098 0.97878 0.54094 0.0
C742 C 0.16195 0.9763 0.52919 0.0
C743 C 0.16761 0.96374 0.55686 0.0
C744 C 0.14417 0.9587 0.57648 0.0
C745 C 0.11551 0.96594 0.56813 0.0
C746 C 0.1863 0.98132 0.50744 0.0
C747 C 0.1494 0.94595 0.60645 0.0
H748 H 0.24352 0.89686 0.57001 0.0
H749 H 0.25764 0.98517 0.60003 0.0
H750 H 0.17074 0.89884 0.55934 0.0
H751 H 0.18217 0.91283 0.52473 0.0
H752 H 0.20268 0.8837 0.54182 0.0
H753 H 0.22227 0.02186 0.5956 0.0
H754 H 0.19886 0.01835 0.56407 0.0
H755 H 0.18561 0.00744 0.59909 0.0
H756 H 0.12873 0.99376 0.50056 0.0
H757 H 0.09757 0.96206 0.58318 0.0
H758 H 0.19763 0.96031 0.50276 0.0
H759 H 0.20286 0.99653 0.51671 0.0
H760 H 0.17812 0.99062 0.48657 0.0
H761 H 0.15938 0.92386 0.6045 0.0
H762 H 0.12886 0.94404 0.61934 0.0
H763 H 0.16509 0.95993 0.61869 0.0
C764 C 0.78197 0.44364 0.93442 0.0
C765 C 0.75868 0.44546 0.95423 0.0
C766 C 0.81001 0.45371 0.94193 0.0
C767 C 0.81466 0.46655 0.9697 0.0
C768 C 0.791 0.469 0.98959 0.0
C769 C 0.76329 0.45802 0.98174 0.0
C770 C 0.83478 0.45008 0.92036 0.0
C771 C 0.79498 0.48319 0.01909 0.0
C772 C 0.89289 0.46623 0.9979 0.0
C773 C 0.90294 0.49389 0.98901 0.0
C774 C 0.86401 0.45725 0.99224 0.0
C775 C 0.84452 0.47669 0.97799 0.0
C776 C 0.8542 0.5051 0.97005 0.0
C777 C 0.88344 0.51323 0.9753 0.0
C778 C 0.85472 0.42654 0.00045 0.0
C779 C 0.83385 0.52668 0.95544 0.0
H780 H 0.77834 0.43364 0.91324 0.0
H781 H 0.74514 0.4595 0.99694 0.0
H782 H 0.84432 0.47178 0.9149 0.0
H783 H 0.85252 0.4367 0.93021 0.0
H784 H 0.82753 0.43933 0.89982 0.0
H785 H 0.77407 0.48464 0.03143 0.0
H786 H 0.81095 0.47047 0.03222 0.0
H787 H 0.80409 0.50561 0.01646 0.0
H788 H 0.90794 0.45113 0.00834 0.0
H789 H 0.89105 0.53473 0.96862 0.0
H790 H 0.84898 0.41403 0.98046 0.0
H791 H 0.83485 0.4272 0.01437 0.0
H792 H 0.87221 0.41449 0.01229 0.0
H793 H 0.82781 0.51853 0.93343 0.0
H794 H 0.84396 0.54873 0.9531 0.0
H795 H 0.81326 0.52883 0.96816 0.0
C796 C 0.75231 0.54784 0.4579 0.0
C797 C 0.75577 0.55896 0.42964 0.0
C798 C 0.72457 0.53933 0.46814 0.0
C799 C 0.69975 0.54277 0.44987 0.0
C800 C 0.70319 0.55425 0.42138 0.0
C801 C 0.73125 0.56191 0.4115 0.0
C802 C 0.72181 0.52659 0.49841 0.0
C803 C 0.67719 0.55883 0.40148 0.0
C804 C 0.62957 0.50002 0.46323 0.0
C805 C 0.61244 0.52074 0.47805 0.0
C806 C 0.6584 0.50658 0.45472 0.0
C807 C 0.67005 0.53477 0.46057 0.0
C808 C 0.6529 0.55573 0.47566 0.0
C809 C 0.6244 0.54833 0.48452 0.0
C810 C 0.67627 0.48346 0.43924 0.0
C811 C 0.66436 0.58622 0.48174 0.0
H812 H 0.7714 0.54547 0.47181 0.0
H813 H 0.73399 0.57083 0.38974 0.0
H814 H 0.70745 0.54071 0.51198 0.0
H815 H 0.71135 0.50463 0.49728 0.0
H816 H 0.74338 0.52444 0.50945 0.0
H817 H 0.68359 0.5684 0.38013 0.0
H818 H 0.66591 0.53764 0.39747 0.0
H819 H 0.66111 0.57366 0.41207 0.0
H820 H 0.62049 0.47857 0.45842 0.0
H821 H 0.61116 0.56448 0.49582 0.0
H822 H 0.69748 0.48021 0.45065 0.0
H823 H 0.68135 0.4908 0.41673 0.0
H824 H 0.66466 0.46206 0.43801 0.0
H825 H 0.68504 0.58504 0.49442 0.0
H826 H 0.64838 0.59981 0.49406 0.0
H827 H 0.66946 0.59742 0.46086 0.0
C828 C 0.08021 0.29074 0.08977 0.0
C829 C 0.07954 0.26697 0.07041 0.0
C830 C 0.07099 0.31869 0.08091 0.0
C831 C 0.06037 0.32277 0.05215 0.0
C832 C 0.05888 0.2986 0.03277 0.0
C833 C 0.06879 0.27101 0.04206 0.0
C834 C 0.07339 0.34401 0.10204 0.0
C835 C 0.04716 0.30198 0.00215 0.0
C836 C 0.01577 0.39168 0.03817 0.0
C837 C 0.0366 0.40995 0.02485 0.0
C838 C 0.02299 0.36297 0.04656 0.0
C839 C 0.05187 0.35255 0.04207 0.0
C840 C 0.07294 0.37086 0.02853 0.0
C841 C 0.06497 0.39923 0.01983 0.0
C842 C -0.0002 0.34387 0.06042 0.0
C843 C 0.1041 0.36071 0.02381 0.0
H844 H 0.0888 0.28763 0.11161 0.0
H845 H 0.06808 0.25252 0.02718 0.0
H846 H 0.08847 0.36088 0.09311 0.0
H847 H 0.05168 0.35456 0.10495 0.0
H848 H 0.08165 0.33705 0.12376 0.0
H849 H 0.04587 0.28069 0.99041 0.0
H850 H 0.02498 0.31194 0.00272 0.0
H851 H 0.06151 0.317 0.98955 0.0
H852 H 0.99376 0.39978 0.04193 0.0
H853 H 0.08123 0.41331 0.00974 0.0
H854 H 0.00632 0.33825 0.08305 0.0
H855 H 0.9977 0.32296 0.04819 0.0
H856 H 0.97802 0.35475 0.06106 0.0
H857 H 0.1143 0.35518 0.04509 0.0
H858 H 0.1178 0.37761 0.01289 0.0
H859 H 0.10432 0.34051 0.01032 0.0
C860 C 0.56462 0.25143 0.96902 0.0
C861 C 0.57312 0.25368 0.93973 0.0
C862 C 0.55653 0.22424 0.98098 0.0
C863 C 0.5576 0.19874 0.96334 0.0
C864 C 0.5666 0.20092 0.93385 0.0
C865 C 0.574 0.22842 0.92234 0.0
C866 C 0.54655 0.22284 0.01235 0.0
C867 C 0.56855 0.17417 0.91449 0.0
C868 C 0.56273 0.12363 0.99871 0.0
C869 C 0.53421 0.1128 0.99465 0.0
C870 C 0.57055 0.15178 0.98904 0.0
C871 C 0.54919 0.16971 0.97551 0.0
C872 C 0.52011 0.15928 0.97228 0.0
C873 C 0.51304 0.13084 0.98162 0.0
C874 C 0.6019 0.16194 0.99242 0.0
C875 C 0.4966 0.17797 0.95845 0.0
H876 H 0.5638 0.27104 0.98238 0.0
H877 H 0.58092 0.23016 0.89978 0.0
H878 H 0.52399 0.21375 0.01345 0.0
H879 H 0.56095 0.20788 0.02492 0.0
H880 H 0.54671 0.24472 0.02304 0.0
H881 H 0.57672 0.17953 0.89229 0.0
H882 H 0.58344 0.15773 0.92442 0.0
H883 H 0.54665 0.16377 0.91242 0.0
H884 H 0.57923 0.10975 0.00863 0.0
H885 H 0.4909 0.12269 0.97866 0.0
H886 H 0.60266 0.18312 0.00431 0.0
H887 H 0.61171 0.16568 0.97058 0.0
H888 H 0.61561 0.14576 0.00433 0.0
H889 H 0.49545 0.1996 0.9695 0.0
H890 H 0.47463 0.16746 0.95947 0.0
H891 H 0.50209 0.18209 0.93524 0.0
C892 C 0.92081 0.76985 0.47301 0.0
C893 C 0.94079 0.74881 0.4628 0.0
C894 C 0.93006 0.7982 0.48053 0.0
C895 C 0.95998 0.80587 0.47747 0.0
C896 C 0.98042 0.78459 0.46793 0.0
C897 C 0.9706 0.75627 0.46084 0.0
C898 C 0.90761 0.82024 0.49081 0.0
C899 C 0.01249 0.792 0.46435 0.0
C900 C 0.9751 0.88677 0.46537 0.0
C901 C 0.98379 0.89597 0.49328 0.0
C902 C 0.96806 0.85735 0.45979 0.0
C903 C 0.96946 0.83664 0.48273 0.0
C904 C 0.97869 0.84562 0.51084 0.0
C905 C 0.98589 0.87517 0.51575 0.0
C906 C 0.95859 0.84853 0.42943 0.0
C907 C 0.98019 0.8242 0.53589 0.0
H908 H 0.89768 0.76451 0.47417 0.0
H909 H 0.98626 0.74004 0.45341 0.0
H910 H 0.91474 0.83033 0.51168 0.0
H911 H 0.9056 0.83814 0.47456 0.0
H912 H 0.88564 0.81021 0.49403 0.0
H913 H 0.0258 0.77258 0.45816 0.0
H914 H 0.01509 0.809 0.44723 0.0
H915 H 0.02138 0.80127 0.48492 0.0
H916 H 0.97362 0.90262 0.44782 0.0
H917 H 0.99251 0.88208 0.53741 0.0
H918 H 0.93561 0.84056 0.42991 0.0
H919 H 0.97241 0.83023 0.42137 0.0
H920 H 0.96007 0.86699 0.41369 0.0
H921 H 0.95794 0.81556 0.54062 0.0
H922 H 0.98908 0.83438 0.55607 0.0
H923 H 0.99414 0.8052 0.52996 0.0
C924 C 0.44649 0.73032 0.5893 0.0
C925 C 0.44545 0.75371 0.56953 0.0
C926 C 0.45579 0.70241 0.58041 0.0
C927 C 0.46473 0.69796 0.55116 0.0
C928 C 0.4647 0.72179 0.53136 0.0
C929 C 0.45474 0.74936 0.54072 0.0
C930 C 0.45499 0.67745 0.60205 0.0
C931 C 0.47461 0.718 0.50016 0.0
C932 C 0.50772 0.6282 0.5361 0.0
C933 C 0.48582 0.60977 0.52481 0.0
C934 C 0.50141 0.65731 0.54395 0.0
C935 C 0.47241 0.66797 0.54098 0.0
C936 C 0.45031 0.64954 0.52934 0.0
C937 C 0.45735 0.62077 0.52114 0.0
C938 C 0.52565 0.67652 0.55576 0.0
C939 C 0.41901 0.65993 0.5263 0.0
H940 H 0.43898 0.73362 0.61151 0.0
H941 H 0.45411 0.76755 0.5255 0.0
H942 H 0.43923 0.66049 0.59453 0.0
H943 H 0.47683 0.66689 0.6035 0.0
H944 H 0.4484 0.6848 0.62422 0.0
H945 H 0.4755 0.73918 0.48822 0.0
H946 H 0.49665 0.70773 0.49952 0.0
H947 H 0.45934 0.70309 0.48851 0.0
H948 H 0.52981 0.61989 0.53879 0.0
H949 H 0.44027 0.6066 0.5126 0.0
H950 H 0.5209 0.68248 0.57874 0.0
H951 H 0.52687 0.69725 0.54315 0.0
H952 H 0.54737 0.66556 0.5549 0.0
H953 H 0.41016 0.66588 0.54806 0.0
H954 H 0.40453 0.64299 0.51646 0.0
H955 H 0.41815 0.67991 0.51255 0.0
C956 C 0.91119 0.97471 0.74951 0.0
C957 C 0.93279 0.9742 0.77124 0.0
C958 C 0.91862 0.97972 0.72025 0.0
C959 C 0.9483 0.98478 0.7127 0.0
C960 C 0.97007 0.98525 0.73473 0.0
C961 C 0.96208 0.97966 0.76375 0.0
C962 C 0.89486 0.97859 0.69731 0.0
C963 C 0.00186 0.99111 0.72757 0.0
C964 C 0.97301 0.96686 0.63571 0.0
C965 C 0.97242 0.99452 0.6224 0.0
C966 C 0.965 0.96338 0.66504 0.0
C967 C 0.95673 0.98827 0.68159 0.0
C968 C 0.95635 0.0163 0.66837 0.0
C969 C 0.96393 0.01906 0.63882 0.0
C970 C 0.96519 0.93305 0.67826 0.0
C971 C 0.94813 0.04338 0.68549 0.0
H972 H 0.88859 0.97015 0.75529 0.0
H973 H 0.97873 0.97944 0.78065 0.0
H974 H 0.89477 0.99917 0.68443 0.0
H975 H 0.8993 0.96034 0.6819 0.0
H976 H 0.87273 0.97535 0.70691 0.0
H977 H 0.01572 0.99268 0.74745 0.0
H978 H 0.01051 0.97325 0.71358 0.0
H979 H 0.00393 0.01185 0.71508 0.0
H980 H 0.97938 0.94779 0.62308 0.0
H981 H 0.96365 0.04054 0.62871 0.0
H982 H 0.94309 0.92763 0.68686 0.0
H983 H 0.98067 0.93233 0.69692 0.0
H984 H 0.97165 0.91592 0.66227 0.0
H985 H 0.92547 0.04121 0.694 0.0
H986 H 0.94948 0.06365 0.67212 0.0
H987 H 0.96289 0.04581 0.7046 0.0
C988 C 0.54535 0.02932 0.27188 0.0
C989 C 0.53865 0.05735 0.28261 0.0
C990 C 0.54089 0.02222 0.24241 0.0
C991 C 0.52915 0.04358 0.22332 0.0
C992 C 0.52122 0.07149 0.23424 0.0
C993 C 0.52622 0.0781 0.2637 0.0
C994 C 0.54963 0.99222 0.23152 0.0
C995 C 0.5084 0.09476 0.21458 0.0
C996 C 0.54709 0.03873 0.14264 0.0
C997 C 0.52144 0.02615 0.13127 0.0
C998 C 0.54996 0.04424 0.17262 0.0
C999 C 0.5265 0.03728 0.19163 0.0
C1000 C 0.50051 0.02471 0.18032 0.0
C1001 C 0.49834 0.01915 0.15029 0.0
C1002 C 0.57814 0.05746 0.18396 0.0
C1003 C 0.47493 0.01732 0.19991 0.0
H1004 H 0.55453 0.01301 0.28643 0.0
H1005 H 0.52139 0.09997 0.27162 0.0
H1006 H 0.53089 0.98155 0.2203 0.0
H1007 H 0.56758 0.99438 0.21531 0.0
H1008 H 0.5572 0.97767 0.24943 0.0
H1009 H 0.50133 0.11451 0.2269 0.0
H1010 H 0.52495 0.10152 0.19816 0.0
H1011 H 0.48926 0.08588 0.2025 0.0
H1012 H 0.5651 0.04405 0.12815 0.0
H1013 H 0.47838 0.00953 0.14169 0.0
H1014 H 0.58796 0.04284 0.20065 0.0
H1015 H 0.57355 0.07877 0.1947 0.0
H1016 H 0.59449 0.06109 0.16636 0.0
H1017 H 0.48192 0.00164 0.21704 0.0
H1018 H 0.45628 0.00755 0.18768 0.0
H1019 H 0.46715 0.03741 0.21116 0.0
C1020 C 0.42806 0.52084 0.26258 0.0
C1021 C 0.44853 0.53436 0.24405 0.0
C1022 C 0.43525 0.51376 0.29148 0.0
C1023 C 0.46339 0.52092 0.30239 0.0
C1024 C 0.48448 0.53369 0.28364 0.0
C1025 C 0.47691 0.53994 0.25463 0.0
C1026 C 0.41231 0.49967 0.31068 0.0
C1027 C 0.51465 0.54189 0.29454 0.0
C1028 C 0.46859 0.53578 0.38366 0.0
C1029 C 0.48189 0.51008 0.39394 0.0
C1030 C 0.46284 0.53968 0.35387 0.0
C1031 C 0.47 0.51707 0.33392 0.0
C1032 C 0.48319 0.49094 0.34416 0.0
C1033 C 0.48928 0.48789 0.37406 0.0
C1034 C 0.44923 0.5681 0.34372 0.0
C1035 C 0.49055 0.46613 0.32361 0.0
H1036 H 0.40596 0.51674 0.25489 0.0
H1037 H 0.49313 0.54975 0.24037 0.0
H1038 H 0.42159 0.48031 0.32205 0.0
H1039 H 0.40521 0.51547 0.32768 0.0
H1040 H 0.3927 0.49261 0.29811 0.0
H1041 H 0.52901 0.55025 0.27682 0.0
H1042 H 0.51273 0.55912 0.31155 0.0
H1043 H 0.5254 0.52268 0.30479 0.0
H1044 H 0.46306 0.55312 0.39889 0.0
H1045 H 0.4994 0.4679 0.38192 0.0
H1046 H 0.42777 0.56367 0.33321 0.0
H1047 H 0.46349 0.57861 0.32713 0.0
H1048 H 0.44579 0.58382 0.36193 0.0
H1049 H 0.47039 0.45855 0.31232 0.0
H1050 H 0.50058 0.44718 0.33508 0.0
H1051 H 0.50597 0.47386 0.30655 0.0
C1052 C 0.0321 0.43676 0.76181 0.0
C1053 C 0.04188 0.45674 0.74063 0.0
C1054 C 0.02703 0.44564 0.79065 0.0
C1055 C 0.03233 0.47513 0.79872 0.0
C1056 C 0.04143 0.49563 0.77737 0.0
C1057 C 0.04588 0.48623 0.74854 0.0
C1058 C 0.017 0.42319 0.81273 0.0
C1059 C 0.04744 0.52724 0.78522 0.0
C1060 C 0.00084 0.50167 0.87075 0.0
C1061 C 0.02473 0.49773 0.88966 0.0
C1062 C 0.00305 0.49473 0.84099 0.0
C1063 C 0.02991 0.48401 0.82983 0.0
C1064 C 0.05429 0.48063 0.84865 0.0
C1065 C 0.05135 0.48733 0.87838 0.0
C1066 C 0.97648 0.49821 0.82164 0.0
C1067 C 0.08342 0.46961 0.83746 0.0
H1068 H 0.02941 0.41383 0.75617 0.0
H1069 H 0.05295 0.50195 0.73226 0.0
H1070 H 0.03453 0.41959 0.82912 0.0
H1071 H 0.99741 0.43129 0.8246 0.0
H1072 H 0.01154 0.40179 0.80246 0.0
H1073 H 0.053 0.54073 0.76581 0.0
H1074 H 0.02808 0.537 0.79615 0.0
H1075 H 0.06599 0.52838 0.80086 0.0
H1076 H 0.98016 0.5096 0.87932 0.0
H1077 H 0.06997 0.48446 0.89279 0.0
H1078 H 0.96991 0.47652 0.81278 0.0
H1079 H 0.98178 0.51248 0.80277 0.0
H1080 H 0.95751 0.50778 0.83349 0.0
H1081 H 0.08092 0.44693 0.82902 0.0
H1082 H 0.1006 0.46959 0.85465 0.0
H1083 H 0.09102 0.48346 0.81906 0.0
C1084 C 0.76251 0.98486 0.97953 0.0
C1085 C 0.77391 0.95681 0.98507 0.0
C1086 C 0.73314 0.99156 0.98569 0.0
C1087 C 0.71489 0.96993 0.99837 0.0
C1088 C 0.72664 0.94217 0.00558 0.0
C1089 C 0.75587 0.93582 0.99855 0.0
C1090 C 0.72131 0.02134 0.97744 0.0
C1091 C 0.708 0.91871 0.01964 0.0
C1092 C 0.6422 0.99357 0.03128 0.0
C1093 C 0.62242 0.98535 0.0093 0.0
C1094 C 0.6724 0.98851 0.02817 0.0
C1095 C 0.68304 0.97556 0.00219 0.0
C1096 C 0.66319 0.96758 0.97977 0.0
C1097 C 0.63308 0.97227 0.98374 0.0
C1098 C 0.69285 0.99667 0.0528 0.0
C1099 C 0.67377 0.95421 0.95151 0.0
H1100 H 0.77638 0.00147 0.96975 0.0
H1101 H 0.76416 0.91395 0.00259 0.0
H1102 H 0.70435 0.01881 0.96025 0.0
H1103 H 0.71061 0.03184 0.99649 0.0
H1104 H 0.73872 0.03623 0.96916 0.0
H1105 H 0.7212 0.89955 0.02678 0.0
H1106 H 0.69622 0.92773 0.03883 0.0
H1107 H 0.69119 0.91096 0.0039 0.0
H1108 H 0.63402 0.00352 0.05116 0.0
H1109 H 0.61789 0.96612 0.96659 0.0
H1110 H 0.70952 0.01258 0.04503 0.0
H1111 H 0.7048 0.97691 0.06039 0.0
H1112 H 0.68105 0.00644 0.07164 0.0
H1113 H 0.69004 0.96894 0.94103 0.0
H1114 H 0.65558 0.95017 0.93588 0.0
H1115 H 0.68495 0.93309 0.95592 0.0
C1116 C 0.76947 0.05987 0.42984 0.0
C1117 C 0.74653 0.05573 0.44969 0.0
C1118 C 0.79863 0.05482 0.43807 0.0
C1119 C 0.80481 0.04471 0.46662 0.0
C1120 C 0.7816 0.04025 0.48668 0.0
C1121 C 0.75267 0.04621 0.47806 0.0
C1122 C 0.82282 0.06047 0.41628 0.0
C1123 C 0.7873 0.02885 0.51707 0.0
C1124 C 0.87776 0.00596 0.47606 0.0
C1125 C 0.8948 0.02782 0.48935 0.0
C1126 C 0.84818 0.01089 0.46931 0.0
C1127 C 0.8356 0.03862 0.4753 0.0
C1128 C 0.85271 0.06079 0.48869 0.0
C1129 C 0.88204 0.05499 0.49591 0.0
C1130 C 0.83043 0.98648 0.45568 0.0
C1131 C 0.84023 0.09085 0.49477 0.0
H1132 H 0.76457 0.06752 0.40798 0.0
H1133 H 0.73477 0.04295 0.49329 0.0
H1134 H 0.83885 0.07632 0.42546 0.0
H1135 H 0.83485 0.03984 0.41173 0.0
H1136 H 0.81436 0.0693 0.39533 0.0
H1137 H 0.76678 0.02611 0.52983 0.0
H1138 H 0.79865 0.00737 0.51586 0.0
H1139 H 0.80199 0.04411 0.529 0.0
H1140 H 0.8875 0.98482 0.47124 0.0
H1141 H 0.89521 0.07199 0.50604 0.0
H1142 H 0.82324 0.99299 0.43349 0.0
H1143 H 0.81036 0.98237 0.46875 0.0
H1144 H 0.84302 0.96571 0.45399 0.0
H1145 H 0.83296 0.1011 0.47405 0.0
H1146 H 0.85641 0.10561 0.50544 0.0
H1147 H 0.82068 0.08903 0.50904 0.0
C1148 C 0.25575 0.55336 0.06526 0.0
C1149 C 0.27559 0.56338 0.04405 0.0
C1150 C 0.22653 0.54703 0.05811 0.0
C1151 C 0.21667 0.55135 0.02916 0.0
C1152 C 0.23663 0.56083 0.00748 0.0
C1153 C 0.26591 0.56646 0.01513 0.0
C1154 C 0.20599 0.53655 0.08177 0.0
C1155 C 0.22683 0.5659 0.97643 0.0
C1156 C 0.14478 0.51559 0.00709 0.0
C1157 C 0.12476 0.53845 0.01183 0.0
C1158 C 0.17485 0.51954 0.01231 0.0
C1159 C 0.18516 0.54716 0.022 0.0
C1160 C 0.16517 0.57056 0.02603 0.0
C1161 C 0.13516 0.56584 0.02115 0.0
C1162 C 0.19544 0.49395 0.00828 0.0
C1163 C 0.17543 0.60048 0.03587 0.0
H1164 H 0.26272 0.55139 0.08777 0.0
H1165 H 0.28114 0.57369 0.99847 0.0
H1166 H 0.18892 0.55338 0.08584 0.0
H1167 H 0.19459 0.51622 0.07474 0.0
H1168 H 0.21761 0.53211 0.1026 0.0
H1169 H 0.24528 0.57232 0.96194 0.0
H1170 H 0.21644 0.54579 0.96751 0.0
H1171 H 0.21006 0.58351 0.9759 0.0
H1172 H 0.13686 0.4943 4e-05 0.0
H1173 H 0.11983 0.58366 0.02462 0.0
H1174 H 0.20572 0.48828 0.02948 0.0
H1175 H 0.21339 0.49993 0.99308 0.0
H1176 H 0.18407 0.47419 -0.00035 0.0
H1177 H 0.18504 0.59896 0.05806 0.0
H1178 H 0.15733 0.61676 0.03635 0.0
H1179 H 0.19289 0.60867 0.0211 0.0
C1180 C 0.25239 0.4583 0.53727 0.0
C1181 C 0.24398 0.46414 0.56617 0.0
C1182 C 0.28127 0.46318 0.52788 0.0
C1183 C 0.30212 0.47463 0.54772 0.0
C1184 C 0.29353 0.4817 0.57655 0.0
C1185 C 0.26465 0.47614 0.58549 0.0
C1186 C 0.28968 0.4552 0.49702 0.0
C1187 C 0.31509 0.49428 0.59824 0.0
C1188 C 0.38291 0.45827 0.53704 0.0
C1189 C 0.3931 0.48447 0.52463 0.0
C1190 C 0.35321 0.45457 0.544 0.0
C1191 C 0.3333 0.4778 0.53888 0.0
C1192 C 0.34337 0.50422 0.52613 0.0
C1193 C 0.37314 0.50715 0.51893 0.0
C1194 C 0.34318 0.42588 0.55713 0.0
C1195 C 0.32285 0.52961 0.52075 0.0
H1196 H 0.23646 0.44956 0.52201 0.0
H1197 H 0.25858 0.48035 0.60796 0.0
H1198 H 0.29974 0.47433 0.48591 0.0
H1199 H 0.30634 0.43748 0.49736 0.0
H1200 H 0.27059 0.44762 0.48396 0.0
H1201 H 0.30439 0.50074 0.61904 0.0
H1202 H 0.3323 0.47782 0.60313 0.0
H1203 H 0.3262 0.51378 0.58888 0.0
H1204 H 0.39818 0.44058 0.54128 0.0
H1205 H 0.38091 0.52752 0.50949 0.0
H1206 H 0.32508 0.41644 0.54393 0.0
H1207 H 0.3345 0.42971 0.57942 0.0
H1208 H 0.36117 0.40954 0.55848 0.0
H1209 H 0.3042 0.52249 0.50691 0.0
H1210 H 0.33399 0.54837 0.50996 0.0
H1211 H 0.31355 0.53728 0.54178 0.0
C1212 C 0.94571 0.76093 0.95978 0.0
C1213 C 0.96744 0.77962 0.94852 0.0
C1214 C 0.95189 0.73161 0.96655 0.0
C1215 C 0.98034 0.72043 0.96138 0.0
C1216 C 0.00249 0.73914 0.95032 0.0
C1217 C 0.99585 0.76857 0.94427 0.0
C1218 C 0.92778 0.71243 0.97868 0.0
C1219 C 0.03303 0.7279 0.94431 0.0
C1220 C 0.00222 0.64996 -0.00039 0.0
C1221 C 0.99628 0.62888 0.97807 0.0
C1222 C 0.99727 0.67986 0.99445 0.0
C1223 C 0.98662 0.68895 0.96691 0.0
C1224 C 0.9811 0.66785 0.94488 0.0
C1225 C 0.98573 0.63803 0.95082 0.0
C1226 C 0.00287 0.70167 0.01864 0.0
C1227 C 0.97016 0.67678 0.91508 0.0
H1228 H 0.92354 0.76894 0.96261 0.0
H1229 H 0.0129 0.78289 0.93601 0.0
H1230 H 0.92262 0.69461 0.96299 0.0
H1231 H 0.9351 0.70191 0.99924 0.0
H1232 H 0.90737 0.72494 0.98311 0.0
H1233 H 0.04785 0.74535 0.93599 0.0
H1234 H 0.04268 0.71859 0.96449 0.0
H1235 H 0.03207 0.70996 0.92796 0.0
H1236 H 0.01021 0.64302 0.02079 0.0
H1237 H 0.98132 0.62187 0.93401 0.0
H1238 H 0.98221 0.71321 0.02422 0.0
H1239 H 0.01878 0.71854 0.01132 0.0
H1240 H 0.01155 0.69107 0.03868 0.0
H1241 H 0.94838 0.68739 0.91706 0.0
H1242 H 0.96818 0.65782 0.89997 0.0
H1243 H 0.98529 0.69312 0.90529 0.0
C1244 C 0.49564 0.75549 0.08233 0.0
C1245 C 0.46674 0.74522 0.0795 0.0
C1246 C 0.50296 0.78456 0.0753 0.0
C1247 C 0.48097 0.80365 0.06467 0.0
C1248 C 0.45195 0.79327 0.06108 0.0
C1249 C 0.44513 0.76434 0.06885 0.0
C1250 C 0.53408 0.795 0.07974 0.0
C1251 C 0.42795 0.81288 0.04949 0.0
C1252 C 0.48819 0.88608 0.07297 0.0
C1253 C 0.49737 0.89448 0.04501 0.0
C1254 C 0.48371 0.85647 0.07992 0.0
C1255 C 0.48793 0.83481 0.05819 0.0
C1256 C 0.49747 0.8431 0.02999 0.0
C1257 C 0.50237 0.87285 0.02381 0.0
C1258 C 0.47407 0.84842 0.11041 0.0
C1259 C 0.50166 0.82065 0.00611 0.0
H1260 H 0.51261 0.74083 0.09009 0.0
H1261 H 0.4226 0.75695 0.06714 0.0
H1262 H 0.54314 0.80348 0.05893 0.0
H1263 H 0.5344 0.81339 0.09562 0.0
H1264 H 0.54867 0.77733 0.08791 0.0
H1265 H 0.40697 0.8009 0.04624 0.0
H1266 H 0.42406 0.83122 0.06491 0.0
H1267 H 0.4347 0.82265 0.02836 0.0
H1268 H 0.48458 0.90269 0.08952 0.0
H1269 H 0.50933 0.87925 0.00211 0.0
H1270 H 0.48906 0.83172 0.11972 0.0
H1271 H 0.45182 0.83858 0.10972 0.0
H1272 H 0.47357 0.86769 0.12524 0.0
H1273 H 0.51716 0.8034 0.01333 0.0
H1274 H 0.51011 0.83058 0.98564 0.0
H1275 H 0.48044 0.80971 0.00133 0.0
C1276 C 0.0843 0.24045 0.57129 0.0
C1277 C 0.06717 0.26387 0.56149 0.0
C1278 C 0.07547 0.21141 0.56647 0.0
C1279 C 0.04925 0.20582 0.55085 0.0
C1280 C 0.03192 0.22954 0.54082 0.0
C1281 C 0.04095 0.25842 0.54662 0.0
C1282 C 0.09421 0.18672 0.57804 0.0
C1283 C 0.00418 0.22441 0.52356 0.0
C1284 C 0.04486 0.13108 0.51481 0.0
C1285 C 0.02639 0.11583 0.53397 0.0
C1286 C 0.05172 0.16068 0.51957 0.0
C1287 C 0.04044 0.1751 0.54451 0.0
C1288 C 0.02174 0.15982 0.56392 0.0
C1289 C 0.01461 0.13042 0.5582 0.0
C1290 C 0.0712 0.17644 0.49802 0.0
C1291 C 0.00987 0.1743 0.5911 0.0
H1292 H 0.10449 0.24493 0.583 0.0
H1293 H 0.02786 0.27675 0.53908 0.0
H1294 H 0.08083 0.17204 0.59204 0.0
H1295 H 0.10264 0.17332 0.55967 0.0
H1296 H 0.11317 0.19485 0.59097 0.0
H1297 H 0.99325 0.24524 0.51732 0.0
H1298 H 0.00931 0.2119 0.50342 0.0
H1299 H 0.98856 0.21101 0.53645 0.0
H1300 H 0.05373 0.11993 0.49587 0.0
H1301 H 0.00043 0.11861 0.57312 0.0
H1302 H 0.09195 0.18307 0.50881 0.0
H1303 H 0.06032 0.19676 0.4903 0.0
H1304 H 0.07661 0.16262 0.4788 0.0
H1305 H 0.02831 0.18123 0.60534 0.0
H1306 H 0.99527 0.1595 0.60374 0.0
H1307 H 0.99742 0.19434 0.58527 0.0
C1308 C 0.53797 0.25188 0.45396 0.0
C1309 C 0.55127 0.23542 0.47625 0.0
C1310 C 0.52953 0.28107 0.45849 0.0
C1311 C 0.53531 0.29457 0.48567 0.0
C1312 C 0.548 0.27803 0.50853 0.0
C1313 C 0.55544 0.24855 0.50368 0.0
C1314 C 0.51548 0.2978 0.43373 0.0
C1315 C 0.5549 0.29182 0.5377 0.0
C1316 C 0.54627 0.37695 0.48265 0.0
C1317 C 0.51968 0.3873 0.49397 0.0
C1318 C 0.55189 0.3468 0.4806 0.0
C1319 C 0.53005 0.32652 0.48934 0.0
C1320 C 0.50306 0.33683 0.50061 0.0
C1321 C 0.49835 0.36716 0.50317 0.0
C1322 C 0.5812 0.33666 0.46905 0.0
C1323 C 0.47898 0.31587 0.50937 0.0
H1324 H 0.5351 0.24243 0.43247 0.0
H1325 H 0.5651 0.23599 0.52127 0.0
H1326 H 0.49551 0.30933 0.44145 0.0
H1327 H 0.53092 0.31472 0.42556 0.0
H1328 H 0.50936 0.28326 0.41524 0.0
H1329 H 0.5634 0.27562 0.55369 0.0
H1330 H 0.57159 0.30931 0.53479 0.0
H1331 H 0.53504 0.30232 0.54695 0.0
H1332 H 0.56293 0.39248 0.47581 0.0
H1333 H 0.4777 0.37514 0.51179 0.0
H1334 H 0.57805 0.32424 0.44847 0.0
H1335 H 0.59171 0.32162 0.48493 0.0
H1336 H 0.59637 0.35524 0.46472 0.0
H1337 H 0.47222 0.30256 0.49022 0.0
H1338 H 0.45941 0.32742 0.51806 0.0
H1339 H 0.48708 0.30042 0.5262 0.0
loop_
_geom_bond_atom_site_label_1
_geom_bond_atom_site_label_2
_geom_bond_distance
_geom_bond_site_symmetry_2
_ccdc_geom_bond_type
C0 C1 1.391 . S
C0 C4 1.391 . S
C0 H42 0.948 . S
C1 C0 1.391 . S
C1 C2 1.391 . S
C2 C1 1.391 . S
C2 H58 0.947 . S
C2 C59 1.392 . S
C3 C4 1.391 . S
C3 C7 1.397 . S
C3 C59 1.419 . S
C4 C0 1.391 . S
C4 C3 1.391 . S
C4 C5 1.399 . S
C5 C4 1.399 . S
C5 C8 1.396 . S
C5 C17 1.453 . S
C5 C18 1.684 . S
H6 C30 0.948 . S
C7 C3 1.397 . S
C7 C8 1.394 . S
C7 C26 1.723 . S
C8 C5 1.396 . S
C8 C7 1.394 . S
C8 C38 1.723 . S
H9 C32 0.947 . S
H10 C33 0.948 . S
H11 C39 0.982 . S
H12 C40 0.979 . S
H13 C40 0.980 . S
H14 C40 0.983 . S
H15 C39 0.979 . S
H16 C39 0.977 . S
C17 C5 1.453 . S
C17 H46 0.982 . S
C17 H47 0.979 . S
C17 H48 0.977 . S
C18 C5 1.684 . S
C18 H43 0.979 . S
C18 H44 0.980 . S
C18 H45 0.983 . S
C19 C20 1.391 . S
C19 C24 1.391 . S
C19 H49 0.948 . S
C20 C19 1.391 . S
C20 C21 1.391 . S
C21 C20 1.391 . S
C21 C22 1.392 . S
C21 H50 0.947 . S
C22 C21 1.392 . S
C22 C23 1.419 . S
C22 H51 0.948 . S
C23 C22 1.419 . S
C23 C24 1.391 . S
C23 C27 1.397 . S
C24 C19 1.391 . S
C24 C23 1.391 . S
C24 C25 1.399 . S
C25 C24 1.399 . S
C25 C26 1.396 . S
C25 C28 1.453 . S
C25 C29 1.684 . S
C26 C7 1.723 . S
C26 C25 1.396 . S
C26 C27 1.394 . S
C27 C23 1.397 . S
C27 C26 1.394 . S
C27 C37 1.723 . S
C28 C25 1.453 . S
C28 H52 0.982 . S
C28 H53 0.979 . S
C28 H54 0.977 . S
C29 C25 1.684 . S
C29 H55 0.979 . S
C29 H56 0.980 . S
C29 H57 0.983 . S
C30 H6 0.948 . S
C30 C31 1.391 . S
C30 C35 1.391 . S
C31 C30 1.391 . S
C31 C32 1.391 . S
C32 H9 0.947 . S
C32 C31 1.391 . S
C32 C33 1.392 . S
C33 H10 0.948 . S
C33 C32 1.392 . S
C33 C34 1.419 . S
C34 C33 1.419 . S
C34 C35 1.391 . S
C34 C38 1.397 . S
C35 C30 1.391 . S
C35 C34 1.391 . S
C35 C36 1.399 . S
C36 C35 1.399 . S
C36 C37 1.396 . S
C36 C39 1.453 . S
C36 C40 1.684 . S
C37 C27 1.723 . S
C37 C36 1.396 . S
C37 C38 1.394 . S
C38 C8 1.723 . S
C38 C34 1.397 . S
C38 C37 1.394 . S
C39 H11 0.982 . S
C39 H15 0.979 . S
C39 H16 0.977 . S
C39 C36 1.453 . S
C40 H12 0.979 . S
C40 H13 0.980 . S
C40 H14 0.983 . S
C40 C36 1.684 . S
H41 C59 0.948 . S
H42 C0 0.948 . S
H43 C18 0.979 . S
H44 C18 0.980 . S
H45 C18 0.983 . S
H46 C17 0.982 . S
H47 C17 0.979 . S
H48 C17 0.977 . S
H49 C19 0.948 . S
H50 C21 0.947 . S
H51 C22 0.948 . S
H52 C28 0.982 . S
H53 C28 0.979 . S
H54 C28 0.977 . S
H55 C29 0.979 . S
H56 C29 0.980 . S
H57 C29 0.983 . S
H58 C2 0.947 . S
C59 C2 1.392 . S
C59 C3 1.419 . S
C59 H41 0.948 . S
C60 C61 1.391 . S
C60 C64 1.391 . S
C60 H102 0.948 . S
C61 C60 1.391 . S
C61 C62 1.391 . S
C62 C61 1.391 . S
C62 H118 0.947 . S
C62 C119 1.392 . S
C63 C64 1.391 . S
C63 C67 1.397 . S
C63 C119 1.419 . S
C64 C60 1.391 . S
C64 C63 1.391 . S
C64 C65 1.399 . S
C65 C64 1.399 . S
C65 C68 1.396 . S
C65 C77 1.453 . S
C65 C78 1.684 . S
H66 C90 0.948 . S
C67 C63 1.397 . S
C67 C68 1.394 . S
C67 C86 1.723 . S
C68 C65 1.396 . S
C68 C67 1.394 . S
C68 C98 1.723 . S
H69 C92 0.947 . S
H70 C93 0.948 . S
H71 C99 0.982 . S
H72 C100 0.979 . S
H73 C100 0.980 . S
H74 C100 0.983 . S
H75 C99 0.979 . S
H76 C99 0.977 . S
C77 C65 1.453 . S
C77 H106 0.982 . S
C77 H107 0.979 . S
C77 H108 0.977 . S
C78 C65 1.684 . S
C78 H103 0.979 . S
C78 H104 0.980 . S
C78 H105 0.983 . S
C79 C80 1.391 . S
C79 C84 1.391 . S
C79 H109 0.948 . S
C80 C79 1.391 . S
C80 C81 1.391 . S
C81 C80 1.391 . S
C81 C82 1.392 . S
C81 H110 0.947 . S
C82 C81 1.392 . S
C82 C83 1.419 . S
C82 H111 0.948 . S
C83 C82 1.419 . S
C83 C84 1.391 . S
C83 C87 1.397 . S
C84 C79 1.391 . S
C84 C83 1.391 . S
C84 C85 1.399 . S
C85 C84 1.399 . S
C85 C86 1.396 . S
C85 C88 1.453 . S
C85 C89 1.684 . S
C86 C67 1.723 . S
C86 C85 1.396 . S
C86 C87 1.394 . S
C87 C83 1.397 . S
C87 C86 1.394 . S
C87 C97 1.723 . S
C88 C85 1.453 . S
C88 H112 0.982 . S
C88 H113 0.979 . S
C88 H114 0.977 . S
C89 C85 1.684 . S
C89 H115 0.979 . S
C89 H116 0.980 . S
C89 H117 0.983 . S
C90 H66 0.948 . S
C90 C91 1.391 . S
C90 C95 1.391 . S
C91 C90 1.391 . S
C91 C92 1.391 . S
C92 H69 0.947 . S
C92 C91 1.391 . S
C92 C93 1.392 . S
C93 H70 0.948 . S
C93 C92 1.392 . S
C93 C94 1.419 . S
C94 C93 1.419 . S
C94 C95 1.391 . S
C94 C98 1.397 . S
C95 C90 1.391 . S
C95 C94 1.391 . S
C95 C96 1.399 . S
C96 C95 1.399 . S
C96 C97 1.396 . S
C96 C99 1.453 . S
C96 C100 1.684 . S
C97 C87 1.723 . S
C97 C96 1.396 . S
C97 C98 1.394 . S
C98 C68 1.723 . S
C98 C94 1.397 . S
C98 C97 1.394 . S
C99 H71 0.982 . S
C99 H75 0.979 . S
C99 H76 0.977 . S
C99 C96 1.453 . S
C100 H72 0.979 . S
C100 H73 0.980 . S
C100 H74 0.983 . S
C100 C96 1.684 . S
H101 C119 0.948 . S
H102 C60 0.948 . S
H103 C78 0.979 . S
H104 C78 0.980 . S
H105 C78 0.983 . S
H106 C77 0.982 . S
H107 C77 0.979 . S
H108 C77 0.977 . S
H109 C79 0.948 . S
H110 C81 0.947 . S
H111 C82 0.948 . S
H112 C88 0.982 . S
H113 C88 0.979 . S
H114 C88 0.977 . S
H115 C89 0.979 . S
H116 C89 0.980 . S
H117 C89 0.983 . S
H118 C62 0.947 . S
C119 C62 1.392 . S
C119 C63 1.419 . S
C119 H101 0.948 . S
C120 C121 1.391 . S
C120 C124 1.391 . S
C120 H162 0.948 . S
C121 C120 1.391 . S
C121 C122 1.391 . S
C122 C121 1.391 . S
C122 H178 0.947 . S
C122 C179 1.392 . S
C123 C124 1.391 . S
C123 C127 1.397 . S
C123 C179 1.419 . S
C124 C120 1.391 . S
C124 C123 1.391 . S
C124 C125 1.399 . S
C125 C124 1.399 . S
C125 C128 1.396 . S
C125 C137 1.453 . S
C125 C138 1.684 . S
H126 C150 0.948 . S
C127 C123 1.397 . S
C127 C128 1.394 . S
C127 C146 1.723 . S
C128 C125 1.396 . S
C128 C127 1.394 . S
C128 C158 1.723 . S
H129 C152 0.947 . S
H130 C153 0.948 . S
H131 C159 0.982 . S
H132 C160 0.979 . S
H133 C160 0.980 . S
H134 C160 0.983 . S
H135 C159 0.979 . S
H136 C159 0.977 . S
C137 C125 1.453 . S
C137 H166 0.982 . S
C137 H167 0.979 . S
C137 H168 0.977 . S
C138 C125 1.684 . S
C138 H163 0.979 . S
C138 H164 0.980 . S
C138 H165 0.983 . S
C139 C140 1.391 . S
C139 C144 1.391 . S
C139 H169 0.948 . S
C140 C139 1.391 . S
C140 C141 1.391 . S
C141 C140 1.391 . S
C141 C142 1.392 . S
C141 H170 0.947 . S
C142 C141 1.392 . S
C142 C143 1.419 . S
C142 H171 0.948 . S
C143 C142 1.419 . S
C143 C144 1.391 . S
C143 C147 1.397 . S
C144 C139 1.391 . S
C144 C143 1.391 . S
C144 C145 1.399 . S
C145 C144 1.399 . S
C145 C146 1.396 . S
C145 C148 1.453 . S
C145 C149 1.684 . S
C146 C127 1.723 . S
C146 C145 1.396 . S
C146 C147 1.394 . S
C147 C143 1.397 . S
C147 C146 1.394 . S
C147 C157 1.723 . S
C148 C145 1.453 . S
C148 H172 0.982 . S
C148 H173 0.979 . S
C148 H174 0.977 . S
C149 C145 1.684 . S
C149 H175 0.979 . S
C149 H176 0.980 . S
C149 H177 0.983 . S
C150 H126 0.948 . S
C150 C151 1.391 . S
C150 C155 1.391 . S
C151 C150 1.391 . S
C151 C152 1.391 . S
C152 H129 0.947 . S
C152 C151 1.391 . S
C152 C153 1.392 . S
C153 H130 0.948 . S
C153 C152 1.392 . S
C153 C154 1.419 . S
C154 C153 1.419 . S
C154 C155 1.391 . S
C154 C158 1.397 . S
C155 C150 1.391 . S
C155 C154 1.391 . S
C155 C156 1.399 . S
C156 C155 1.399 . S
C156 C157 1.396 . S
C156 C159 1.453 . S
C156 C160 1.684 . S
C157 C147 1.723 . S
C157 C156 1.396 . S
C157 C158 1.394 . S
C158 C128 1.723 . S
C158 C154 1.397 . S
C158 C157 1.394 . S
C159 H131 0.982 . S
C159 H135 0.979 . S
C159 H136 0.977 . S
C159 C156 1.453 . S
C160 H132 0.979 . S
C160 H133 0.980 . S
C160 H134 0.983 . S
C160 C156 1.684 . S
H161 C179 0.948 . S
H162 C120 0.948 . S
H163 C138 0.979 . S
H164 C138 0.980 . S
H165 C138 0.983 . S
H166 C137 0.982 . S
H167 C137 0.979 . S
H168 C137 0.977 . S
H169 C139 0.948 . S
H170 C141 0.947 . S
H171 C142 0.948 . S
H172 C148 0.982 . S
H173 C148 0.979 . S
H174 C148 0.977 . S
H175 C149 0.979 . S
H176 C149 0.980 . S
H177 C149 0.983 . S
H178 C122 0.947 . S
C179 C122 1.392 . S
C179 C123 1.419 . S
C179 H161 0.948 . S
C180 C181 1.391 . S
C180 C184 1.391 . S
C180 H222 0.948 . S
C181 C180 1.391 . S
C181 C182 1.391 . S
C182 C181 1.391 . S
C182 H238 0.947 . S
C182 C239 1.392 . S
C183 C184 1.391 . S
C183 C187 1.397 . S
C183 C239 1.419 . S
C184 C180 1.391 . S
C184 C183 1.391 . S
C184 C185 1.399 . S
C185 C184 1.399 . S
C185 C188 1.396 . S
C185 C197 1.453 . S
C185 C198 1.684 . S
H186 C210 0.948 . S
C187 C183 1.397 . S
C187 C188 1.394 . S
C187 C206 1.723 . S
C188 C185 1.396 . S
C188 C187 1.394 . S
C188 C218 1.723 . S
H189 C212 0.947 . S
H190 C213 0.948 . S
H191 C219 0.982 . S
H192 C220 0.979 . S
H193 C220 0.980 . S
H194 C220 0.983 . S
H195 C219 0.979 . S
H196 C219 0.977 . S
C197 C185 1.453 . S
C197 H226 0.982 . S
C197 H227 0.979 . S
C197 H228 0.977 . S
C198 C185 1.684 . S
C198 H223 0.979 . S
C198 H224 0.980 . S
C198 H225 0.983 . S
C199 C200 1.391 . S
C199 C204 1.391 . S
C199 H229 0.948 . S
C200 C199 1.391 . S
C200 C201 1.391 . S
C201 C200 1.391 . S
C201 C202 1.392 . S
C201 H230 0.947 . S
C202 C201 1.392 . S
C202 C203 1.419 . S
C202 H231 0.948 . S
C203 C202 1.419 . S
C203 C204 1.391 . S
C203 C207 1.397 . S
C204 C199 1.391 . S
C204 C203 1.391 . S
C204 C205 1.399 . S
C205 C204 1.399 . S
C205 C206 1.396 . S
C205 C208 1.453 . S
C205 C209 1.684 . S
C206 C187 1.723 . S
C206 C205 1.396 . S
C206 C207 1.394 . S
C207 C203 1.397 . S
C207 C206 1.394 . S
C207 C217 1.723 . S
C208 C205 1.453 . S
C208 H232 0.982 . S
C208 H233 0.979 . S
C208 H234 0.977 . S
C209 C205 1.684 . S
C209 H235 0.979 . S
C209 H236 0.980 . S
C209 H237 0.983 . S
C210 H186 0.948 . S
C210 C211 1.391 . S
C210 C215 1.391 . S
C211 C210 1.391 . S
C211 C212 1.391 . S
C212 H189 0.947 . S
C212 C211 1.391 . S
C212 C213 1.392 . S
C213 H190 0.948 . S
C213 C212 1.392 . S
C213 C214 1.419 . S
C214 C213 1.419 . S
C214 C215 1.391 . S
C214 C218 1.397 . S
C215 C210 1.391 . S
C215 C214 1.391 . S
C215 C216 1.399 . S
C216 C215 1.399 . S
C216 C217 1.396 . S
C216 C219 1.453 . S
C216 C220 1.684 . S
C217 C207 1.723 . S
C217 C216 1.396 . S
C217 C218 1.394 . S
C218 C188 1.723 . S
C218 C214 1.397 . S
C218 C217 1.394 . S
C219 H191 0.982 . S
C219 H195 0.979 . S
C219 H196 0.977 . S
C219 C216 1.453 . S
C220 H192 0.979 . S
C220 H193 0.980 . S
C220 H194 0.983 . S
C220 C216 1.684 . S
H221 C239 0.948 . S
H222 C180 0.948 . S
H223 C198 0.979 . S
H224 C198 0.980 . S
H225 C198 0.983 . S
H226 C197 0.982 . S
H227 C197 0.979 . S
H228 C197 0.977 . S
H229 C199 0.948 . S
H230 C201 0.947 . S
H231 C202 0.948 . S
H232 C208 0.982 . S
H233 C208 0.979 . S
H234 C208 0.977 . S
H235 C209 0.979 . S
H236 C209 0.980 . S
H237 C209 0.983 . S
H238 C182 0.947 . S
C239 C182 1.392 . S
C239 C183 1.419 . S
C239 H221 0.948 . S
C240 C241 1.391 . S
C240 C244 1.391 . S
C240 H282 0.948 . S
C241 C240 1.391 . S
C241 C242 1.391 . S
C242 C241 1.391 . S
C242 H298 0.947 . S
C242 C299 1.392 . S
C243 C244 1.391 . S
C243 C247 1.397 . S
C243 C299 1.419 . S
C244 C240 1.391 . S
C244 C243 1.391 . S
C244 C245 1.399 . S
C245 C244 1.399 . S
C245 C248 1.396 . S
C245 C257 1.453 . S
C245 C258 1.684 . S
H246 C270 0.948 1_545 S
C247 C243 1.397 . S
C247 C248 1.394 . S
C247 C266 1.723 . S
C248 C245 1.396 . S
C248 C247 1.394 . S
C248 C278 1.723 . S
H249 C272 0.966 . S
H250 C273 0.948 . S
H251 C279 0.982 . S
H252 C280 0.979 . S
H253 C280 0.980 . S
H254 C280 0.983 . S
H255 C279 0.979 . S
H256 C279 0.977 . S
C257 C245 1.453 . S
C257 H286 0.982 . S
C257 H287 0.979 . S
C257 H288 0.977 . S
C258 C245 1.684 . S
C258 H283 0.979 1_556 S
C258 H284 0.980 1_556 S
C258 H285 0.983 1_556 S
C259 C260 1.391 . S
C259 C264 1.391 . S
C259 H289 0.948 . S
C260 C259 1.391 . S
C260 C261 1.391 . S
C261 C260 1.391 . S
C261 C262 1.392 . S
C261 H290 0.947 1_565 S
C262 C261 1.392 . S
C262 C263 1.419 . S
C262 H291 0.948 . S
C263 C262 1.419 . S
C263 C264 1.391 . S
C263 C267 1.397 . S
C264 C259 1.391 . S
C264 C263 1.391 . S
C264 C265 1.399 . S
C265 C264 1.399 . S
C265 C266 1.396 . S
C265 C268 1.453 . S
C265 C269 1.684 . S
C266 C247 1.723 . S
C266 C265 1.396 . S
C266 C267 1.394 . S
C267 C263 1.397 . S
C267 C266 1.394 . S
C267 C277 1.723 . S
C268 C265 1.453 . S
C268 H292 0.982 . S
C268 H293 0.979 . S
C268 H294 0.977 . S
C269 C265 1.684 . S
C269 H295 0.979 . S
C269 H296 0.980 . S
C269 H297 0.998 . S
C270 H246 0.948 1_565 S
C270 C271 1.391 . S
C270 C275 1.391 . S
C271 C270 1.391 . S
C271 C272 1.391 . S
C272 H249 0.966 . S
C272 C271 1.391 . S
C272 C273 1.392 . S
C273 H250 0.948 . S
C273 C272 1.392 . S
C273 C274 1.419 . S
C274 C273 1.419 . S
C274 C275 1.391 . S
C274 C278 1.397 . S
C275 C270 1.391 . S
C275 C274 1.391 . S
C275 C276 1.399 . S
C276 C275 1.399 . S
C276 C277 1.396 . S
C276 C279 1.453 . S
C276 C280 1.684 1_565 S
C277 C267 1.723 . S
C277 C276 1.396 . S
C277 C278 1.394 . S
C278 C248 1.723 . S
C278 C274 1.397 . S
C278 C277 1.394 . S
C279 H251 0.982 . S
C279 H255 0.979 . S
C279 H256 0.977 . S
C279 C276 1.453 . S
C280 H252 0.979 . S
C280 H253 0.980 . S
C280 H254 0.983 . S
C280 C276 1.684 1_545 S
H281 C299 0.948 . S
H282 C240 0.948 . S
H283 C258 0.979 1_554 S
H284 C258 0.980 1_554 S
H285 C258 0.983 1_554 S
H286 C257 0.982 . S
H287 C257 0.979 . S
H288 C257 0.977 . S
H289 C259 0.948 . S
H290 C261 0.947 1_545 S
H291 C262 0.948 . S
H292 C268 0.982 . S
H293 C268 0.979 . S
H294 C268 0.977 . S
H295 C269 0.979 . S
H296 C269 0.980 . S
H297 C269 0.998 . S
H298 C242 0.947 . S
C299 C242 1.392 . S
C299 C243 1.419 . S
C299 H281 0.948 . S
C300 C301 1.391 . S
C300 C304 1.391 . S
C300 H342 0.948 . S
C301 C300 1.391 . S
C301 C302 1.391 . S
C302 C301 1.391 . S
C302 H358 0.947 . S
C302 C359 1.392 . S
C303 C304 1.391 . S
C303 C307 1.397 . S
C303 C359 1.419 . S
C304 C300 1.391 . S
C304 C303 1.391 . S
C304 C305 1.399 . S
C305 C304 1.399 . S
C305 C308 1.396 . S
C305 C317 1.453 . S
C305 C318 1.684 . S
H306 C330 0.948 . S
C307 C303 1.397 . S
C307 C308 1.394 . S
C307 C326 1.723 . S
C308 C305 1.396 . S
C308 C307 1.394 . S
C308 C338 1.723 . S
H309 C332 0.947 . S
H310 C333 0.948 . S
H311 C339 0.982 . S
H312 C340 0.979 . S
H313 C340 0.980 . S
H314 C340 0.983 . S
H315 C339 0.979 . S
H316 C339 0.977 . S
C317 C305 1.453 . S
C317 H346 0.982 . S
C317 H347 0.979 . S
C317 H348 0.977 . S
C318 C305 1.684 . S
C318 H343 0.979 . S
C318 H344 0.980 . S
C318 H345 0.983 . S
C319 C320 1.391 . S
C319 C324 1.391 . S
C319 H349 0.948 . S
C320 C319 1.391 . S
C320 C321 1.391 . S
C321 C320 1.391 . S
C321 C322 1.392 . S
C321 H350 0.947 . S
C322 C321 1.392 . S
C322 C323 1.419 . S
C322 H351 0.948 . S
C323 C322 1.419 . S
C323 C324 1.391 . S
C323 C327 1.397 . S
C324 C319 1.391 . S
C324 C323 1.391 . S
C324 C325 1.399 . S
C325 C324 1.399 . S
C325 C326 1.396 . S
C325 C328 1.453 . S
C325 C329 1.684 . S
C326 C307 1.723 . S
C326 C325 1.396 . S
C326 C327 1.394 . S
C327 C323 1.397 . S
C327 C326 1.394 . S
C327 C337 1.723 . S
C328 C325 1.453 . S
C328 H352 0.982 . S
C328 H353 0.979 1_545 S
C328 H354 0.977 . S
C329 C325 1.684 . S
C329 H355 0.979 . S
C329 H356 0.980 . S
C329 H357 0.983 . S
C330 H306 0.948 . S
C330 C331 1.391 . S
C330 C335 1.391 . S
C331 C330 1.391 . S
C331 C332 1.391 . S
C332 H309 0.947 . S
C332 C331 1.391 . S
C332 C333 1.392 . S
C333 H310 0.948 . S
C333 C332 1.392 . S
C333 C334 1.419 . S
C334 C333 1.419 . S
C334 C335 1.391 . S
C334 C338 1.397 . S
C335 C330 1.391 . S
C335 C334 1.391 . S
C335 C336 1.399 . S
C336 C335 1.399 . S
C336 C337 1.396 . S
C336 C339 1.453 . S
C336 C340 1.684 . S
C337 C327 1.723 . S
C337 C336 1.396 . S
C337 C338 1.394 . S
C338 C308 1.723 . S
C338 C334 1.397 . S
C338 C337 1.394 . S
C339 H311 0.982 . S
C339 H315 0.979 . S
C339 H316 0.977 . S
C339 C336 1.453 . S
C340 H312 0.979 . S
C340 H313 0.980 . S
C340 H314 0.983 . S
C340 C336 1.684 . S
H341 C359 0.948 . S
H342 C300 0.948 . S
H343 C318 0.979 . S
H344 C318 0.980 . S
H345 C318 0.983 . S
H346 C317 0.982 . S
H347 C317 0.979 . S
H348 C317 0.977 . S
H349 C319 0.948 . S
H350 C321 0.947 . S
H351 C322 0.948 . S
H352 C328 0.982 . S
H353 C328 0.979 1_565 S
H354 C328 0.977 . S
H355 C329 0.979 . S
H356 C329 0.980 . S
H357 C329 0.983 . S
H358 C302 0.947 . S
C359 C302 1.392 . S
C359 C303 1.419 . S
C359 H341 0.948 . S
C360 C361 1.391 . S
C360 C364 1.391 . S
C360 H402 0.948 . S
C361 C360 1.391 . S
C361 C362 1.391 . S
C362 C361 1.391 . S
C362 H418 0.947 . S
C362 C419 1.392 . S
C363 C364 1.391 . S
C363 C367 1.397 . S
C363 C419 1.419 . S
C364 C360 1.391 . S
C364 C363 1.391 . S
C364 C365 1.399 . S
C365 C364 1.399 . S
C365 C368 1.396 . S
C365 C377 1.453 . S
C365 C378 1.684 . S
H366 C390 0.948 . S
C367 C363 1.397 . S
C367 C368 1.394 . S
C367 C386 1.723 . S
C368 C365 1.396 . S
C368 C367 1.394 . S
C368 C398 1.723 . S
H369 C392 0.947 . S
H370 C393 0.948 . S
H371 C399 0.982 . S
H372 C400 0.979 . S
H373 C400 0.980 . S
H374 C400 0.983 . S
H375 C399 0.979 . S
H376 C399 0.977 . S
C377 C365 1.453 . S
C377 H406 0.982 . S
C377 H407 0.979 . S
C377 H408 0.977 . S
C378 C365 1.684 . S
C378 H403 0.979 . S
C378 H404 0.980 . S
C378 H405 0.983 . S
C379 C380 1.391 . S
C379 C384 1.391 . S
C379 H409 0.948 . S
C380 C379 1.391 . S
C380 C381 1.391 . S
C381 C380 1.391 . S
C381 C382 1.392 . S
C381 H410 0.947 . S
C382 C381 1.392 . S
C382 C383 1.419 . S
C382 H411 0.948 . S
C383 C382 1.419 . S
C383 C384 1.391 . S
C383 C387 1.397 . S
C384 C379 1.391 . S
C384 C383 1.391 . S
C384 C385 1.399 . S
C385 C384 1.399 . S
C385 C386 1.396 . S
C385 C388 1.453 . S
C385 C389 1.684 . S
C386 C367 1.723 . S
C386 C385 1.396 . S
C386 C387 1.394 . S
C387 C383 1.397 . S
C387 C386 1.394 . S
C387 C397 1.723 . S
C388 C385 1.453 . S
C388 H412 0.982 . S
C388 H413 0.979 . S
C388 H414 0.977 . S
C389 C385 1.684 . S
C389 H415 0.979 . S
C389 H416 0.980 . S
C389 H417 0.983 . S
C390 H366 0.948 . S
C390 C391 1.391 . S
C390 C395 1.391 . S
C391 C390 1.391 . S
C391 C392 1.391 . S
C392 H369 0.947 . S
C392 C391 1.391 . S
C392 C393 1.392 . S
C393 H370 0.948 . S
C393 C392 1.392 . S
C393 C394 1.419 . S
C394 C393 1.419 . S
C394 C395 1.391 . S
C394 C398 1.397 . S
C395 C390 1.391 . S
C395 C394 1.391 . S
C395 C396 1.399 . S
C396 C395 1.399 . S
C396 C397 1.396 . S
C396 C399 1.453 . S
C396 C400 1.684 . S
C397 C387 1.723 . S
C397 C396 1.396 . S
C397 C398 1.394 . S
C398 C368 1.723 . S
C398 C394 1.397 . S
C398 C397 1.394 . S
C399 H371 0.982 . S
C399 H375 0.979 . S
C399 H376 0.977 . S
C399 C396 1.453 . S
C400 H372 0.979 . S
C400 H373 0.980 . S
C400 H374 0.983 . S
C400 C396 1.684 . S
H401 C419 0.948 . S
H402 C360 0.948 . S
H403 C378 0.979 . S
H404 C378 0.980 . S
H405 C378 0.983 . S
H406 C377 0.982 . S
H407 C377 0.979 . S
H408 C377 0.977 . S
H409 C379 0.948 . S
H410 C381 0.947 . S
H411 C382 0.948 . S
H412 C388 0.982 . S
H413 C388 0.979 . S
H414 C388 0.977 . S
H415 C389 0.979 . S
H416 C389 0.980 . S
H417 C389 0.983 . S
H418 C362 0.947 . S
C419 C362 1.392 . S
C419 C363 1.419 . S
C419 H401 0.948 . S
C420 C421 1.391 . S
C420 C424 1.391 . S
C420 H462 0.948 . S
C421 C420 1.391 . S
C421 C422 1.391 . S
C422 C421 1.391 . S
C422 H478 0.947 . S
C422 C479 1.392 . S
C423 C424 1.391 . S
C423 C427 1.397 . S
C423 C479 1.419 . S
C424 C420 1.391 . S
C424 C423 1.391 . S
C424 C425 1.399 . S
C425 C424 1.399 . S
C425 C428 1.396 . S
C425 C437 1.453 . S
C425 C438 1.684 . S
H426 C450 0.948 . S
C427 C423 1.397 . S
C427 C428 1.394 . S
C427 C446 1.723 . S
C428 C425 1.396 . S
C428 C427 1.394 . S
C428 C458 1.723 . S
H429 C452 0.947 . S
H430 C453 0.948 . S
H431 C459 0.982 . S
H432 C460 0.979 . S
H433 C460 0.980 . S
H434 C460 0.983 . S
H435 C459 0.979 . S
H436 C459 0.977 . S
C437 C425 1.453 . S
C437 H466 0.982 . S
C437 H467 0.979 . S
C437 H468 0.977 . S
C438 C425 1.684 . S
C438 H463 0.979 . S
C438 H464 0.980 . S
C438 H465 0.983 . S
C439 C440 1.391 . S
C439 C444 1.391 . S
C439 H469 0.948 . S
C440 C439 1.391 . S
C440 C441 1.391 . S
C441 C440 1.391 . S
C441 C442 1.392 . S
C441 H470 0.947 . S
C442 C441 1.392 . S
C442 C443 1.419 . S
C442 H471 0.948 . S
C443 C442 1.419 . S
C443 C444 1.391 . S
C443 C447 1.397 . S
C444 C439 1.391 . S
C444 C443 1.391 . S
C444 C445 1.399 . S
C445 C444 1.399 . S
C445 C446 1.396 . S
C445 C448 1.453 . S
C445 C449 1.684 . S
C446 C427 1.723 . S
C446 C445 1.396 . S
C446 C447 1.394 . S
C447 C443 1.397 . S
C447 C446 1.394 . S
C447 C457 1.723 . S
C448 C445 1.453 . S
C448 H472 0.982 . S
C448 H473 0.979 . S
C448 H474 0.977 . S
C449 C445 1.684 . S
C449 H475 0.979 . S
C449 H476 0.980 . S
C449 H477 0.983 . S
C450 H426 0.948 . S
C450 C451 1.391 . S
C450 C455 1.391 . S
C451 C450 1.391 . S
C451 C452 1.391 . S
C452 H429 0.947 . S
C452 C451 1.391 . S
C452 C453 1.392 . S
C453 H430 0.948 . S
C453 C452 1.392 . S
C453 C454 1.419 . S
C454 C453 1.419 . S
C454 C455 1.391 . S
C454 C458 1.397 . S
C455 C450 1.391 . S
C455 C454 1.391 . S
C455 C456 1.399 . S
C456 C455 1.399 . S
C456 C457 1.396 . S
C456 C459 1.453 . S
C456 C460 1.684 . S
C457 C447 1.723 . S
C457 C456 1.396 . S
C457 C458 1.394 . S
C458 C428 1.723 . S
C458 C454 1.397 . S
C458 C457 1.394 . S
C459 H431 0.982 . S
C459 H435 0.979 . S
C459 H436 0.977 . S
C459 C456 1.453 . S
C460 H432 0.979 . S
C460 H433 0.980 . S
C460 H434 0.983 . S
C460 C456 1.684 . S
H461 C479 0.948 . S
H462 C420 0.948 . S
H463 C438 0.979 . S
H464 C438 0.980 . S
H465 C438 0.983 . S
H466 C437 0.982 . S
H467 C437 0.979 . S
H468 C437 0.977 . S
H469 C439 0.948 . S
H470 C441 0.947 . S
H471 C442 0.948 . S
H472 C448 0.982 . S
H473 C448 0.979 . S
H474 C448 0.977 . S
H475 C449 0.979 . S
H476 C449 0.980 . S
H477 C449 0.983 . S
H478 C422 0.947 . S
C479 C422 1.392 . S
C479 C423 1.419 . S
C479 H461 0.948 . S
O480 Zn481 1.953 . S
O480 C496 1.225 1_655 S
Zn481 O480 1.953 . S
Zn481 O482 1.949 1_655 S
Zn481 O488 1.919 . S
Zn481 O493 1.924 . S
O482 Zn481 1.949 1_455 S
O482 Zn483 1.923 1_445 S
O482 Zn484 1.950 . S
O482 Zn485 1.945 1_545 S
Zn483 O482 1.923 1_665 S
Zn483 O486 1.933 . S
Zn483 O489 1.941 1_565 S
Zn483 O490 1.965 1_665 S
Zn484 O482 1.950 . S
Zn484 O491 1.938 . S
Zn484 O492 1.906 1_545 S
Zn484 O502 1.953 . S
Zn485 O482 1.945 1_565 S
Zn485 O487 1.932 1_455 S
Zn485 O494 1.977 . S
Zn485 O495 1.910 1_455 S
O486 Zn483 1.933 . S
O486 C497 1.226 . S
O487 Zn485 1.932 1_655 S
O487 C497 1.307 . S
O488 Zn481 1.919 . S
O488 C499 1.253 . S
O489 Zn483 1.941 1_545 S
O489 C499 1.283 . S
O490 Zn483 1.965 1_445 S
O490 C498 1.303 . S
O491 Zn484 1.938 . S
O491 C498 1.247 . S
O492 Zn484 1.906 1_565 S
O492 C500 1.304 . S
O493 Zn481 1.924 . S
O493 C501 1.311 1_545 S
O494 Zn485 1.977 . S
O494 C500 1.272 . S
O495 Zn485 1.910 1_655 S
O495 C501 1.231 . S
C496 O480 1.225 1_455 S
C496 O502 1.298 . S
C497 O486 1.226 . S
C497 O487 1.307 . S
C498 O490 1.303 . S
C498 O491 1.247 . S
C499 O488 1.253 . S
C499 O489 1.283 . S
C500 O492 1.304 . S
C500 O494 1.272 . S
C501 O493 1.311 1_565 S
C501 O495 1.231 . S
O502 Zn484 1.953 . S
O502 C496 1.298 . S
O503 Zn504 1.953 . S
O503 C519 1.225 . S
Zn504 O503 1.953 . S
Zn504 O505 1.949 1_556 S
Zn504 O511 1.919 . S
Zn504 O516 1.924 1_556 S
O505 Zn504 1.949 1_554 S
O505 Zn506 1.923 1_545 S
O505 Zn507 1.950 . S
O505 Zn508 1.945 1_545 S
Zn506 O505 1.923 1_565 S
Zn506 O509 1.933 . S
Zn506 O512 1.941 1_554 S
Zn506 O513 1.965 1_554 S
Zn507 O505 1.950 . S
Zn507 O514 1.938 . S
Zn507 O515 1.906 . S
Zn507 O525 1.953 . S
Zn508 O505 1.945 1_565 S
Zn508 O510 1.932 . S
Zn508 O517 1.977 1_565 S
Zn508 O518 1.910 1_565 S
O509 Zn506 1.933 . S
O509 C520 1.226 . S
O510 Zn508 1.932 . S
O510 C520 1.307 . S
O511 Zn504 1.919 . S
O511 C522 1.253 1_545 S
O512 Zn506 1.941 1_556 S
O512 C522 1.283 . S
O513 Zn506 1.965 1_556 S
O513 C521 1.305 . S
O514 Zn507 1.938 . S
O514 C521 1.226 1_544 S
O515 Zn507 1.906 . S
O515 C523 1.304 . S
O516 Zn504 1.924 1_554 S
O516 C524 1.311 . S
O517 Zn508 1.977 1_545 S
O517 C523 1.272 . S
O518 Zn508 1.910 1_545 S
O518 C524 1.231 . S
C519 O503 1.225 . S
C519 O525 1.298 1_556 S
C520 O509 1.226 . S
C520 O510 1.307 . S
C521 O513 1.305 . S
C521 O514 1.226 1_566 S
C522 O511 1.253 1_565 S
C522 O512 1.283 . S
C523 O515 1.304 . S
C523 O517 1.272 . S
C524 O516 1.311 . S
C524 O518 1.231 . S
O525 Zn507 1.953 . S
O525 C519 1.298 1_554 S
O526 Zn527 1.953 . S
O526 C542 1.225 . S
Zn527 O526 1.953 . S
Zn527 O528 1.949 . S
Zn527 O534 1.919 . S
Zn527 O539 1.924 . S
O528 Zn527 1.949 . S
O528 Zn529 1.923 . S
O528 Zn530 1.950 . S
O528 Zn531 1.945 . S
Zn529 O528 1.923 . S
Zn529 O532 1.933 . S
Zn529 O535 1.941 . S
Zn529 O536 1.965 . S
Zn530 O528 1.950 . S
Zn530 O537 1.938 . S
Zn530 O538 1.906 . S
Zn530 O548 1.953 . S
Zn531 O528 1.945 . S
Zn531 O533 1.932 . S
Zn531 O540 1.977 . S
Zn531 O541 1.910 . S
O532 Zn529 1.933 . S
O532 C543 1.226 . S
O533 Zn531 1.932 . S
O533 C543 1.307 . S
O534 Zn527 1.919 . S
O534 C545 1.253 . S
O535 Zn529 1.941 . S
O535 C545 1.283 . S
O536 Zn529 1.965 . S
O536 C544 1.303 . S
O537 Zn530 1.938 . S
O537 C544 1.247 . S
O538 Zn530 1.906 . S
O538 C546 1.304 . S
O539 Zn527 1.924 . S
O539 C547 1.311 . S
O540 Zn531 1.977 . S
O540 C546 1.272 . S
O541 Zn531 1.910 . S
O541 C547 1.231 . S
C542 O526 1.225 . S
C542 O548 1.298 . S
C543 O532 1.226 . S
C543 O533 1.307 . S
C544 O536 1.303 . S
C544 O537 1.247 . S
C545 O534 1.253 . S
C545 O535 1.283 . S
C546 O538 1.304 . S
C546 O540 1.272 . S
C547 O539 1.311 . S
C547 O541 1.231 . S
O548 Zn530 1.953 . S
O548 C542 1.298 . S
O549 Zn550 1.953 . S
O549 C565 1.225 . S
Zn550 O549 1.953 . S
Zn550 O551 1.949 1_655 S
Zn550 O557 1.919 . S
Zn550 O562 1.924 . S
O551 Zn550 1.949 1_455 S
O551 Zn552 1.923 1_454 S
O551 Zn553 1.950 . S
O551 Zn554 1.945 1_554 S
Zn552 O551 1.923 1_656 S
Zn552 O555 1.933 1_655 S
Zn552 O558 1.941 . S
Zn552 O559 1.965 . S
Zn553 O551 1.950 . S
Zn553 O560 1.938 . S
Zn553 O561 1.906 . S
Zn553 O571 1.953 . S
Zn554 O551 1.945 1_556 S
Zn554 O556 1.932 . S
Zn554 O563 1.977 1_556 S
Zn554 O564 1.910 1_556 S
O555 Zn552 1.933 1_455 S
O555 C566 1.226 . S
O556 Zn554 1.932 . S
O556 C566 1.307 . S
O557 Zn550 1.919 . S
O557 C568 1.253 1_554 S
O558 Zn552 1.941 . S
O558 C568 1.283 . S
O559 Zn552 1.965 . S
O559 C567 1.303 . S
O560 Zn553 1.938 . S
O560 C567 1.247 1_454 S
O561 Zn553 1.906 . S
O561 C569 1.304 . S
O562 Zn550 1.924 . S
O562 C570 1.311 1_655 S
O563 Zn554 1.977 1_554 S
O563 C569 1.272 . S
O564 Zn554 1.910 1_554 S
O564 C570 1.231 . S
C565 O549 1.225 . S
C565 O571 1.298 1_655 S
C566 O555 1.226 . S
C566 O556 1.307 . S
C567 O559 1.303 . S
C567 O560 1.247 1_656 S
C568 O557 1.253 1_556 S
C568 O558 1.283 . S
C569 O561 1.304 . S
C569 O563 1.272 . S
C570 O562 1.311 1_455 S
C570 O564 1.231 . S
O571 Zn553 1.953 . S
O571 C565 1.298 1_455 S
C572 C573 1.391 . S
C572 C574 1.394 . S
C572 H588 0.931 . S
C573 C572 1.391 . S
C573 C577 1.376 . S
C574 C572 1.394 . S
C574 C575 1.369 . S
C574 C578 1.531 . S
C575 C574 1.369 . S
C575 C576 1.410 . S
C575 C583 1.503 . S
C576 C575 1.410 . S
C576 C577 1.392 . S
C576 C579 1.511 . S
C577 C573 1.376 . S
C577 C576 1.392 . S
C577 H589 0.929 . S
C578 C574 1.531 . S
C578 H590 0.960 . S
C578 H591 0.962 . S
C578 H592 0.960 1_455 S
C579 C576 1.511 . S
C579 H593 0.961 . S
C579 H594 0.961 . S
C579 H595 0.961 . S
C580 C581 1.370 . S
C580 C582 1.363 . S
C580 H596 0.931 . S
C581 C580 1.370 . S
C581 C585 1.408 . S
C582 C580 1.363 . S
C582 C583 1.370 . S
C582 C586 1.524 . S
C583 C575 1.503 . S
C583 C582 1.370 . S
C583 C584 1.403 . S
C584 C583 1.403 . S
C584 C585 1.404 . S
C584 C587 1.539 . S
C585 C581 1.408 . S
C585 C584 1.404 . S
C585 H597 0.930 . S
C586 C582 1.524 . S
C586 H598 0.956 . S
C586 H599 0.961 . S
C586 H600 0.961 . S
C587 C584 1.539 . S
C587 H601 0.958 . S
C587 H602 0.961 1_545 S
C587 H603 0.960 . S
H588 C572 0.931 . S
H589 C577 0.929 . S
H590 C578 0.960 . S
H591 C578 0.962 . S
H592 C578 0.960 1_655 S
H593 C579 0.961 . S
H594 C579 0.961 . S
H595 C579 0.961 . S
H596 C580 0.931 . S
H597 C585 0.930 . S
H598 C586 0.956 . S
H599 C586 0.961 . S
H600 C586 0.961 . S
H601 C587 0.958 . S
H602 C587 0.961 1_565 S
H603 C587 0.960 . S
C604 C605 1.391 . S
C604 C606 1.394 . S
C604 H620 0.931 . S
C605 C604 1.391 . S
C605 C609 1.376 . S
C606 C604 1.394 . S
C606 C607 1.369 . S
C606 C610 1.531 . S
C607 C606 1.369 . S
C607 C608 1.410 . S
C607 C615 1.503 . S
C608 C607 1.410 . S
C608 C609 1.392 . S
C608 C611 1.511 . S
C609 C605 1.376 . S
C609 C608 1.392 . S
C609 H621 0.929 . S
C610 C606 1.531 . S
C610 H622 0.960 . S
C610 H623 0.962 . S
C610 H624 0.960 . S
C611 C608 1.511 . S
C611 H625 0.961 . S
C611 H626 0.961 . S
C611 H627 0.961 . S
C612 C613 1.370 . S
C612 C614 1.363 . S
C612 H628 0.931 . S
C613 C612 1.370 . S
C613 C617 1.408 . S
C614 C612 1.363 . S
C614 C615 1.370 . S
C614 C618 1.524 . S
C615 C607 1.503 . S
C615 C614 1.370 . S
C615 C616 1.403 . S
C616 C615 1.403 . S
C616 C617 1.404 . S
C616 C619 1.539 . S
C617 C613 1.408 . S
C617 C616 1.404 . S
C617 H629 0.930 1_565 S
C618 C614 1.524 . S
C618 H630 0.956 . S
C618 H631 0.961 . S
C618 H632 0.961 . S
C619 C616 1.539 . S
C619 H633 0.958 1_565 S
C619 H634 0.961 1_565 S
C619 H635 0.960 . S
H620 C604 0.931 . S
H621 C609 0.929 . S
H622 C610 0.960 . S
H623 C610 0.962 . S
H624 C610 0.960 . S
H625 C611 0.961 . S
H626 C611 0.961 . S
H627 C611 0.961 . S
H628 C612 0.931 . S
H629 C617 0.930 1_545 S
H630 C618 0.956 . S
H631 C618 0.961 . S
H632 C618 0.961 . S
H633 C619 0.958 1_545 S
H634 C619 0.961 1_545 S
H635 C619 0.960 . S
C636 C637 1.391 . S
C636 C638 1.394 . S
C636 H652 0.931 . S
C637 C636 1.391 . S
C637 C641 1.376 . S
C638 C636 1.394 . S
C638 C639 1.369 . S
C638 C642 1.531 . S
C639 C638 1.369 . S
C639 C640 1.410 . S
C639 C647 1.503 . S
C640 C639 1.410 . S
C640 C641 1.392 . S
C640 C643 1.511 . S
C641 C637 1.376 . S
C641 C640 1.392 . S
C641 H653 0.929 . S
C642 C638 1.531 . S
C642 H654 0.960 . S
C642 H655 0.962 . S
C642 H656 0.960 . S
C643 C640 1.511 . S
C643 H657 0.961 . S
C643 H658 0.961 . S
C643 H659 0.961 . S
C644 C645 1.370 . S
C644 C646 1.363 . S
C644 H660 0.931 . S
C645 C644 1.370 . S
C645 C649 1.408 . S
C646 C644 1.363 . S
C646 C647 1.370 . S
C646 C650 1.524 . S
C647 C639 1.503 . S
C647 C646 1.370 . S
C647 C648 1.403 . S
C648 C647 1.403 . S
C648 C649 1.404 . S
C648 C651 1.539 . S
C649 C645 1.408 . S
C649 C648 1.404 . S
C649 H661 0.930 . S
C650 C646 1.524 . S
C650 H662 0.956 . S
C650 H663 0.961 . S
C650 H664 0.961 . S
C651 C648 1.539 . S
C651 H665 0.958 . S
C651 H666 0.961 . S
C651 H667 0.960 . S
H652 C636 0.931 . S
H653 C641 0.929 . S
H654 C642 0.960 . S
H655 C642 0.962 . S
H656 C642 0.960 . S
H657 C643 0.961 . S
H658 C643 0.961 . S
H659 C643 0.961 . S
H660 C644 0.931 . S
H661 C649 0.930 . S
H662 C650 0.956 . S
H663 C650 0.961 . S
H664 C650 0.961 . S
H665 C651 0.958 . S
H666 C651 0.961 . S
H667 C651 0.960 . S
C668 C669 1.391 . S
C668 C670 1.394 . S
C668 H684 0.931 . S
C669 C668 1.391 . S
C669 C673 1.376 . S
C670 C668 1.394 . S
C670 C671 1.369 . S
C670 C674 1.531 . S
C671 C670 1.369 . S
C671 C672 1.410 . S
C671 C679 1.503 . S
C672 C671 1.410 . S
C672 C673 1.392 . S
C672 C675 1.511 1_655 S
C673 C669 1.376 . S
C673 C672 1.392 . S
C673 H685 0.929 . S
C674 C670 1.531 . S
C674 H686 0.960 . S
C674 H687 0.962 . S
C674 H688 0.960 . S
C675 C672 1.511 1_455 S
C675 H689 0.961 . S
C675 H690 0.961 . S
C675 H691 0.961 . S
C676 C677 1.370 . S
C676 C678 1.363 . S
C676 H692 0.931 . S
C677 C676 1.370 . S
C677 C681 1.408 . S
C678 C676 1.363 . S
C678 C679 1.370 . S
C678 C682 1.524 . S
C679 C671 1.503 . S
C679 C678 1.370 . S
C679 C680 1.403 . S
C680 C679 1.403 . S
C680 C681 1.404 . S
C680 C683 1.539 . S
C681 C677 1.408 . S
C681 C680 1.404 . S
C681 H693 0.930 . S
C682 C678 1.524 . S
C682 H694 0.956 . S
C682 H695 0.961 . S
C682 H696 0.961 . S
C683 C680 1.539 . S
C683 H697 0.958 . S
C683 H698 0.961 1_655 S
C683 H699 0.960 . S
H684 C668 0.931 . S
H685 C673 0.929 . S
H686 C674 0.960 . S
H687 C674 0.962 . S
H688 C674 0.960 . S
H689 C675 0.961 . S
H690 C675 0.961 . S
H691 C675 0.961 . S
H692 C676 0.931 . S
H693 C681 0.930 . S
H694 C682 0.956 . S
H695 C682 0.961 . S
H696 C682 0.961 . S
H697 C683 0.958 . S
H698 C683 0.961 1_455 S
H699 C683 0.960 . S
C700 C701 1.391 . S
C700 C702 1.394 . S
C700 H716 0.931 . S
C701 C700 1.391 . S
C701 C705 1.376 . S
C702 C700 1.394 . S
C702 C703 1.369 . S
C702 C706 1.531 . S
C703 C702 1.369 . S
C703 C704 1.410 . S
C703 C711 1.503 . S
C704 C703 1.410 . S
C704 C705 1.392 . S
C704 C707 1.511 . S
C705 C701 1.376 . S
C705 C704 1.392 . S
C705 H717 0.929 . S
C706 C702 1.531 . S
C706 H718 0.960 . S
C706 H719 0.962 . S
C706 H720 0.960 . S
C707 C704 1.511 . S
C707 H721 0.961 . S
C707 H722 0.961 . S
C707 H723 0.961 . S
C708 C709 1.370 . S
C708 C710 1.363 . S
C708 H724 0.931 . S
C709 C708 1.370 . S
C709 C713 1.408 . S
C710 C708 1.363 . S
C710 C711 1.370 . S
C710 C714 1.524 . S
C711 C703 1.503 . S
C711 C710 1.370 . S
C711 C712 1.403 . S
C712 C711 1.403 . S
C712 C713 1.404 . S
C712 C715 1.539 . S
C713 C709 1.408 . S
C713 C712 1.404 . S
C713 H725 0.930 . S
C714 C710 1.524 . S
C714 H726 0.956 . S
C714 H727 0.961 . S
C714 H728 0.961 . S
C715 C712 1.539 . S
C715 H729 0.958 . S
C715 H730 0.961 . S
C715 H731 0.960 . S
H716 C700 0.931 . S
H717 C705 0.929 . S
H718 C706 0.960 . S
H719 C706 0.962 . S
H720 C706 0.960 . S
H721 C707 0.961 . S
H722 C707 0.961 . S
H723 C707 0.961 . S
H724 C708 0.931 . S
H725 C713 0.930 . S
H726 C714 0.956 . S
H727 C714 0.961 . S
H728 C714 0.961 . S
H729 C715 0.958 . S
H730 C715 0.961 . S
H731 C715 0.960 . S
C732 C733 1.391 . S
C732 C734 1.394 . S
C732 H748 0.931 . S
C733 C732 1.391 . S
C733 C737 1.376 . S
C734 C732 1.394 . S
C734 C735 1.369 . S
C734 C738 1.531 . S
C735 C734 1.369 . S
C735 C736 1.410 . S
C735 C743 1.503 . S
C736 C735 1.410 . S
C736 C737 1.392 . S
C736 C739 1.511 . S
C737 C733 1.376 . S
C737 C736 1.392 . S
C737 H749 0.929 . S
C738 C734 1.531 . S
C738 H750 0.960 . S
C738 H751 0.962 . S
C738 H752 0.960 . S
C739 C736 1.511 . S
C739 H753 0.961 . S
C739 H754 0.961 . S
C739 H755 0.961 . S
C740 C741 1.370 . S
C740 C742 1.363 . S
C740 H756 0.931 . S
C741 C740 1.370 . S
C741 C745 1.408 . S
C742 C740 1.363 . S
C742 C743 1.370 . S
C742 C746 1.524 . S
C743 C735 1.503 . S
C743 C742 1.370 . S
C743 C744 1.403 . S
C744 C743 1.403 . S
C744 C745 1.404 . S
C744 C747 1.539 . S
C745 C741 1.408 . S
C745 C744 1.404 . S
C745 H757 0.930 . S
C746 C742 1.524 . S
C746 H758 0.956 . S
C746 H759 0.961 . S
C746 H760 0.961 . S
C747 C744 1.539 . S
C747 H761 0.958 . S
C747 H762 0.961 . S
C747 H763 0.960 . S
H748 C732 0.931 . S
H749 C737 0.929 . S
H750 C738 0.960 . S
H751 C738 0.962 . S
H752 C738 0.960 . S
H753 C739 0.961 . S
H754 C739 0.961 . S
H755 C739 0.961 . S
H756 C740 0.931 . S
H757 C745 0.930 . S
H758 C746 0.956 . S
H759 C746 0.961 . S
H760 C746 0.961 . S
H761 C747 0.958 . S
H762 C747 0.961 . S
H763 C747 0.960 . S
C764 C765 1.391 . S
C764 C766 1.394 . S
C764 H780 0.931 . S
C765 C764 1.391 . S
C765 C769 1.376 . S
C766 C764 1.394 . S
C766 C767 1.369 . S
C766 C770 1.531 . S
C767 C766 1.369 . S
C767 C768 1.410 . S
C767 C775 1.503 . S
C768 C767 1.410 . S
C768 C769 1.392 . S
C768 C771 1.511 . S
C769 C765 1.376 . S
C769 C768 1.392 . S
C769 H781 0.929 . S
C770 C766 1.531 . S
C770 H782 0.960 . S
C770 H783 0.962 . S
C770 H784 0.960 . S
C771 C768 1.511 . S
C771 H785 0.961 1_556 S
C771 H786 0.961 . S
C771 H787 0.961 . S
C772 C773 1.370 . S
C772 C774 1.363 . S
C772 H788 0.931 . S
C773 C772 1.370 . S
C773 C777 1.408 . S
C774 C772 1.363 . S
C774 C775 1.370 . S
C774 C778 1.524 . S
C775 C767 1.503 . S
C775 C774 1.370 . S
C775 C776 1.403 . S
C776 C775 1.403 . S
C776 C777 1.404 . S
C776 C779 1.539 . S
C777 C773 1.408 . S
C777 C776 1.404 . S
C777 H789 0.930 . S
C778 C774 1.524 . S
C778 H790 0.956 . S
C778 H791 0.961 . S
C778 H792 0.961 . S
C779 C776 1.539 . S
C779 H793 0.958 . S
C779 H794 0.961 . S
C779 H795 0.960 . S
H780 C764 0.931 . S
H781 C769 0.929 . S
H782 C770 0.960 . S
H783 C770 0.962 . S
H784 C770 0.960 . S
H785 C771 0.961 1_554 S
H786 C771 0.961 . S
H787 C771 0.961 . S
H788 C772 0.931 . S
H789 C777 0.930 . S
H790 C778 0.956 . S
H791 C778 0.961 . S
H792 C778 0.961 . S
H793 C779 0.958 . S
H794 C779 0.961 . S
H795 C779 0.960 . S
C796 C797 1.391 . S
C796 C798 1.394 . S
C796 H812 0.931 . S
C797 C796 1.391 . S
C797 C801 1.376 . S
C798 C796 1.394 . S
C798 C799 1.369 . S
C798 C802 1.531 . S
C799 C798 1.369 . S
C799 C800 1.410 . S
C799 C807 1.503 . S
C800 C799 1.410 . S
C800 C801 1.392 . S
C800 C803 1.511 . S
C801 C797 1.376 . S
C801 C800 1.392 . S
C801 H813 0.929 . S
C802 C798 1.531 . S
C802 H814 0.960 . S
C802 H815 0.962 . S
C802 H816 0.960 . S
C803 C800 1.511 . S
C803 H817 0.961 . S
C803 H818 0.961 . S
C803 H819 0.961 . S
C804 C805 1.370 . S
C804 C806 1.363 . S
C804 H820 0.931 . S
C805 C804 1.370 . S
C805 C809 1.408 . S
C806 C804 1.363 . S
C806 C807 1.370 . S
C806 C810 1.524 . S
C807 C799 1.503 . S
C807 C806 1.370 . S
C807 C808 1.403 . S
C808 C807 1.403 . S
C808 C809 1.404 . S
C808 C811 1.539 . S
C809 C805 1.408 . S
C809 C808 1.404 . S
C809 H821 0.930 . S
C810 C806 1.524 . S
C810 H822 0.956 . S
C810 H823 0.961 . S
C810 H824 0.961 . S
C811 C808 1.539 . S
C811 H825 0.958 . S
C811 H826 0.961 . S
C811 H827 0.960 . S
H812 C796 0.931 . S
H813 C801 0.929 . S
H814 C802 0.960 . S
H815 C802 0.962 . S
H816 C802 0.960 . S
H817 C803 0.961 . S
H818 C803 0.961 . S
H819 C803 0.961 . S
H820 C804 0.931 . S
H821 C809 0.930 . S
H822 C810 0.956 . S
H823 C810 0.961 . S
H824 C810 0.961 . S
H825 C811 0.958 . S
H826 C811 0.961 . S
H827 C811 0.960 . S
C828 C829 1.391 . S
C828 C830 1.394 . S
C828 H844 0.931 . S
C829 C828 1.391 . S
C829 C833 1.376 . S
C830 C828 1.394 . S
C830 C831 1.369 . S
C830 C834 1.531 . S
C831 C830 1.369 . S
C831 C832 1.410 . S
C831 C839 1.503 . S
C832 C831 1.410 . S
C832 C833 1.392 . S
C832 C835 1.511 . S
C833 C829 1.376 . S
C833 C832 1.392 . S
C833 H845 0.929 . S
C834 C830 1.531 . S
C834 H846 0.960 . S
C834 H847 0.962 . S
C834 H848 0.960 . S
C835 C832 1.511 . S
C835 H849 0.961 . S
C835 H850 0.961 . S
C835 H851 0.961 . S
C836 C837 1.370 . S
C836 C838 1.363 . S
C836 H852 0.931 . S
C837 C836 1.370 . S
C837 C841 1.408 . S
C838 C836 1.363 . S
C838 C839 1.370 . S
C838 C842 1.524 . S
C839 C831 1.503 . S
C839 C838 1.370 . S
C839 C840 1.403 . S
C840 C839 1.403 . S
C840 C841 1.404 . S
C840 C843 1.539 . S
C841 C837 1.408 . S
C841 C840 1.404 . S
C841 H853 0.930 . S
C842 C838 1.524 . S
C842 H854 0.956 . S
C842 H855 0.961 . S
C842 H856 0.961 . S
C843 C840 1.539 . S
C843 H857 0.958 . S
C843 H858 0.961 1_554 S
C843 H859 0.960 . S
H844 C828 0.931 . S
H845 C833 0.929 . S
H846 C834 0.960 . S
H847 C834 0.962 . S
H848 C834 0.960 . S
H849 C835 0.961 . S
H850 C835 0.961 . S
H851 C835 0.961 . S
H852 C836 0.931 . S
H853 C841 0.930 . S
H854 C842 0.956 . S
H855 C842 0.961 . S
H856 C842 0.961 . S
H857 C843 0.958 . S
H858 C843 0.961 1_556 S
H859 C843 0.960 . S
C860 C861 1.391 . S
C860 C862 1.394 . S
C860 H876 0.931 . S
C861 C860 1.391 . S
C861 C865 1.376 . S
C862 C860 1.394 . S
C862 C863 1.369 . S
C862 C866 1.531 1_556 S
C863 C862 1.369 . S
C863 C864 1.410 . S
C863 C871 1.503 . S
C864 C863 1.410 . S
C864 C865 1.392 . S
C864 C867 1.511 . S
C865 C861 1.376 . S
C865 C864 1.392 . S
C865 H877 0.929 . S
C866 C862 1.531 1_554 S
C866 H878 0.960 . S
C866 H879 0.962 . S
C866 H880 0.960 . S
C867 C864 1.511 . S
C867 H881 0.961 . S
C867 H882 0.961 . S
C867 H883 0.961 . S
C868 C869 1.370 . S
C868 C870 1.363 . S
C868 H884 0.931 . S
C869 C868 1.370 . S
C869 C873 1.408 . S
C870 C868 1.363 . S
C870 C871 1.370 . S
C870 C874 1.524 . S
C871 C863 1.503 . S
C871 C870 1.370 . S
C871 C872 1.403 . S
C872 C871 1.403 . S
C872 C873 1.404 . S
C872 C875 1.539 . S
C873 C869 1.408 . S
C873 C872 1.404 . S
C873 H885 0.930 . S
C874 C870 1.524 . S
C874 H886 0.956 . S
C874 H887 0.961 . S
C874 H888 0.961 . S
C875 C872 1.539 . S
C875 H889 0.958 1_556 S
C875 H890 0.961 . S
C875 H891 0.960 . S
H876 C860 0.931 . S
H877 C865 0.929 . S
H878 C866 0.960 . S
H879 C866 0.962 . S
H880 C866 0.960 . S
H881 C867 0.961 . S
H882 C867 0.961 . S
H883 C867 0.961 . S
H884 C868 0.931 . S
H885 C873 0.930 . S
H886 C874 0.956 . S
H887 C874 0.961 . S
H888 C874 0.961 . S
H889 C875 0.958 1_554 S
H890 C875 0.961 . S
H891 C875 0.960 . S
C892 C893 1.391 . S
C892 C894 1.394 . S
C892 H908 0.931 . S
C893 C892 1.391 . S
C893 C897 1.376 . S
C894 C892 1.394 . S
C894 C895 1.369 . S
C894 C898 1.531 . S
C895 C894 1.369 . S
C895 C896 1.410 . S
C895 C903 1.503 . S
C896 C895 1.410 . S
C896 C897 1.392 . S
C896 C899 1.511 1_655 S
C897 C893 1.376 . S
C897 C896 1.392 . S
C897 H909 0.929 . S
C898 C894 1.531 . S
C898 H910 0.960 . S
C898 H911 0.962 . S
C898 H912 0.960 . S
C899 C896 1.511 1_455 S
C899 H913 0.961 . S
C899 H914 0.961 . S
C899 H915 0.961 . S
C900 C901 1.370 . S
C900 C902 1.363 . S
C900 H916 0.931 . S
C901 C900 1.370 . S
C901 C905 1.408 . S
C902 C900 1.363 . S
C902 C903 1.370 . S
C902 C906 1.524 . S
C903 C895 1.503 . S
C903 C902 1.370 . S
C903 C904 1.403 . S
C904 C903 1.403 . S
C904 C905 1.404 . S
C904 C907 1.539 . S
C905 C901 1.408 . S
C905 C904 1.404 . S
C905 H917 0.930 . S
C906 C902 1.524 . S
C906 H918 0.956 . S
C906 H919 0.961 . S
C906 H920 0.961 . S
C907 C904 1.539 . S
C907 H921 0.958 . S
C907 H922 0.961 . S
C907 H923 0.960 . S
H908 C892 0.931 . S
H909 C897 0.929 . S
H910 C898 0.960 . S
H911 C898 0.962 . S
H912 C898 0.960 . S
H913 C899 0.961 . S
H914 C899 0.961 . S
H915 C899 0.961 . S
H916 C900 0.931 . S
H917 C905 0.930 . S
H918 C906 0.956 . S
H919 C906 0.961 . S
H920 C906 0.961 . S
H921 C907 0.958 . S
H922 C907 0.961 . S
H923 C907 0.960 . S
C924 C925 1.391 . S
C924 C926 1.394 . S
C924 H940 0.931 . S
C925 C924 1.391 . S
C925 C929 1.376 . S
C926 C924 1.394 . S
C926 C927 1.369 . S
C926 C930 1.531 . S
C927 C926 1.369 . S
C927 C928 1.410 . S
C927 C935 1.503 . S
C928 C927 1.410 . S
C928 C929 1.392 . S
C928 C931 1.511 . S
C929 C925 1.376 . S
C929 C928 1.392 . S
C929 H941 0.929 . S
C930 C926 1.531 . S
C930 H942 0.960 . S
C930 H943 0.962 . S
C930 H944 0.960 . S
C931 C928 1.511 . S
C931 H945 0.961 . S
C931 H946 0.961 . S
C931 H947 0.961 . S
C932 C933 1.370 . S
C932 C934 1.363 . S
C932 H948 0.931 . S
C933 C932 1.370 . S
C933 C937 1.408 . S
C934 C932 1.363 . S
C934 C935 1.370 . S
C934 C938 1.524 . S
C935 C927 1.503 . S
C935 C934 1.370 . S
C935 C936 1.403 . S
C936 C935 1.403 . S
C936 C937 1.404 . S
C936 C939 1.539 . S
C937 C933 1.408 . S
C937 C936 1.404 . S
C937 H949 0.930 . S
C938 C934 1.524 . S
C938 H950 0.956 . S
C938 H951 0.961 . S
C938 H952 0.961 . S
C939 C936 1.539 . S
C939 H953 0.958 . S
C939 H954 0.961 . S
C939 H955 0.960 . S
H940 C924 0.931 . S
H941 C929 0.929 . S
H942 C930 0.960 . S
H943 C930 0.962 . S
H944 C930 0.960 . S
H945 C931 0.961 . S
H946 C931 0.961 . S
H947 C931 0.961 . S
H948 C932 0.931 . S
H949 C937 0.930 . S
H950 C938 0.956 . S
H951 C938 0.961 . S
H952 C938 0.961 . S
H953 C939 0.958 . S
H954 C939 0.961 . S
H955 C939 0.960 . S
C956 C957 1.391 1_545 S
C956 C958 1.394 . S
C956 H972 0.931 . S
C957 C956 1.391 1_565 S
C957 C961 1.376 . S
C958 C956 1.394 . S
C958 C959 1.369 1_545 S
C958 C962 1.531 . S
C959 C958 1.369 1_565 S
C959 C960 1.410 . S
C959 C967 1.503 . S
C960 C959 1.410 . S
C960 C961 1.392 . S
C960 C963 1.511 1_655 S
C961 C957 1.376 . S
C961 C960 1.392 . S
C961 H973 0.901 1_655 S
C962 C958 1.531 . S
C962 H974 0.960 . S
C962 H975 0.962 . S
C962 H976 0.960 . S
C963 C960 1.511 1_455 S
C963 H977 0.961 . S
C963 H978 0.961 . S
C963 H979 0.961 . S
C964 C965 1.383 . S
C964 C966 1.363 . S
C964 H980 0.931 . S
C965 C964 1.383 . S
C965 C969 1.395 1_565 S
C966 C964 1.363 . S
C966 C967 1.370 . S
C966 C970 1.524 . S
C967 C959 1.503 . S
C967 C966 1.370 . S
C967 C968 1.403 1_565 S
C968 C967 1.403 1_545 S
C968 C969 1.404 . S
C968 C971 1.539 . S
C969 C965 1.395 1_545 S
C969 C968 1.404 . S
C969 H981 0.930 . S
C970 C966 1.524 . S
C970 H982 0.956 . S
C970 H983 0.961 . S
C970 H984 0.961 . S
C971 C968 1.539 . S
C971 H985 0.958 . S
C971 H986 0.961 1_655 S
C971 H987 0.960 1_655 S
H972 C956 0.931 . S
H973 C961 0.901 1_455 S
H974 C962 0.960 . S
H975 C962 0.962 . S
H976 C962 0.960 . S
H977 C963 0.961 . S
H978 C963 0.961 . S
H979 C963 0.961 . S
H980 C964 0.931 . S
H981 C969 0.930 . S
H982 C970 0.956 . S
H983 C970 0.961 . S
H984 C970 0.961 . S
H985 C971 0.958 . S
H986 C971 0.961 1_455 S
H987 C971 0.960 1_455 S
C988 C989 1.391 . S
C988 C990 1.396 . S
C988 H1004 0.931 1_545 S
C989 C988 1.391 . S
C989 C993 1.376 . S
C990 C988 1.396 . S
C990 C991 1.379 . S
C990 C994 1.518 1_545 S
C991 C990 1.379 . S
C991 C992 1.410 . S
C991 C999 1.503 . S
C992 C991 1.410 . S
C992 C993 1.392 . S
C992 C995 1.511 . S
C993 C989 1.376 . S
C993 C992 1.392 . S
C993 H1005 0.929 . S
C994 C990 1.518 1_565 S
C994 H1006 0.960 . S
C994 H1007 0.962 . S
C994 H1008 0.960 . S
C995 C992 1.511 . S
C995 H1009 0.961 . S
C995 H1010 0.961 . S
C995 H1011 0.961 . S
C996 C997 1.370 . S
C996 C998 1.363 . S
C996 H1012 0.931 . S
C997 C996 1.370 . S
C997 C1001 1.408 1_545 S
C998 C996 1.363 . S
C998 C999 1.370 . S
C998 C1002 1.524 . S
C999 C991 1.503 . S
C999 C998 1.370 . S
C999 C1000 1.404 . S
C1000 C999 1.404 . S
C1000 C1001 1.404 1_545 S
C1000 C1003 1.538 1_545 S
C1001 C997 1.408 1_565 S
C1001 C1000 1.404 1_565 S
C1001 H1013 0.930 . S
C1002 C998 1.524 . S
C1002 H1014 0.956 . S
C1002 H1015 0.961 . S
C1002 H1016 0.961 . S
C1003 C1000 1.538 1_565 S
C1003 H1017 0.958 . S
C1003 H1018 0.961 . S
C1003 H1019 0.960 . S
H1004 C988 0.931 1_565 S
H1005 C993 0.929 . S
H1006 C994 0.960 . S
H1007 C994 0.962 . S
H1008 C994 0.960 . S
H1009 C995 0.961 . S
H1010 C995 0.961 . S
H1011 C995 0.961 . S
H1012 C996 0.931 . S
H1013 C1001 0.930 . S
H1014 C1002 0.956 . S
H1015 C1002 0.961 . S
H1016 C1002 0.961 . S
H1017 C1003 0.958 . S
H1018 C1003 0.961 . S
H1019 C1003 0.960 . S
C1020 C1021 1.391 . S
C1020 C1022 1.394 . S
C1020 H1036 0.931 . S
C1021 C1020 1.391 . S
C1021 C1025 1.376 . S
C1022 C1020 1.394 . S
C1022 C1023 1.369 . S
C1022 C1026 1.531 . S
C1023 C1022 1.369 . S
C1023 C1024 1.410 . S
C1023 C1031 1.503 . S
C1024 C1023 1.410 . S
C1024 C1025 1.392 . S
C1024 C1027 1.511 . S
C1025 C1021 1.376 . S
C1025 C1024 1.392 . S
C1025 H1037 0.929 . S
C1026 C1022 1.531 . S
C1026 H1038 0.960 . S
C1026 H1039 0.962 . S
C1026 H1040 0.960 . S
C1027 C1024 1.511 . S
C1027 H1041 0.961 . S
C1027 H1042 0.961 . S
C1027 H1043 0.961 . S
C1028 C1029 1.370 . S
C1028 C1030 1.363 . S
C1028 H1044 0.931 . S
C1029 C1028 1.370 . S
C1029 C1033 1.408 . S
C1030 C1028 1.363 . S
C1030 C1031 1.370 . S
C1030 C1034 1.524 . S
C1031 C1023 1.503 . S
C1031 C1030 1.370 . S
C1031 C1032 1.403 . S
C1032 C1031 1.403 . S
C1032 C1033 1.404 . S
C1032 C1035 1.539 . S
C1033 C1029 1.408 . S
C1033 C1032 1.404 . S
C1033 H1045 0.930 . S
C1034 C1030 1.524 . S
C1034 H1046 0.956 . S
C1034 H1047 0.961 . S
C1034 H1048 0.961 . S
C1035 C1032 1.539 . S
C1035 H1049 0.958 . S
C1035 H1050 0.961 . S
C1035 H1051 0.960 . S
H1036 C1020 0.931 . S
H1037 C1025 0.929 . S
H1038 C1026 0.960 . S
H1039 C1026 0.962 . S
H1040 C1026 0.960 . S
H1041 C1027 0.961 . S
H1042 C1027 0.961 . S
H1043 C1027 0.961 . S
H1044 C1028 0.931 . S
H1045 C1033 0.930 . S
H1046 C1034 0.956 . S
H1047 C1034 0.961 . S
H1048 C1034 0.961 . S
H1049 C1035 0.958 . S
H1050 C1035 0.961 . S
H1051 C1035 0.960 . S
C1052 C1053 1.391 . S
C1052 C1054 1.394 . S
C1052 H1068 0.931 . S
C1053 C1052 1.391 . S
C1053 C1057 1.376 . S
C1054 C1052 1.394 . S
C1054 C1055 1.369 . S
C1054 C1058 1.531 . S
C1055 C1054 1.369 . S
C1055 C1056 1.410 . S
C1055 C1063 1.503 . S
C1056 C1055 1.410 . S
C1056 C1057 1.392 . S
C1056 C1059 1.511 . S
C1057 C1053 1.376 . S
C1057 C1056 1.392 . S
C1057 H1069 0.929 . S
C1058 C1054 1.531 . S
C1058 H1070 0.960 . S
C1058 H1071 0.962 . S
C1058 H1072 0.960 . S
C1059 C1056 1.511 . S
C1059 H1073 0.961 . S
C1059 H1074 0.961 . S
C1059 H1075 0.961 . S
C1060 C1061 1.370 . S
C1060 C1062 1.363 . S
C1060 H1076 0.931 . S
C1061 C1060 1.370 . S
C1061 C1065 1.408 . S
C1062 C1060 1.363 . S
C1062 C1063 1.370 . S
C1062 C1066 1.524 . S
C1063 C1055 1.503 . S
C1063 C1062 1.370 . S
C1063 C1064 1.403 . S
C1064 C1063 1.403 . S
C1064 C1065 1.404 . S
C1064 C1067 1.539 . S
C1065 C1061 1.408 . S
C1065 C1064 1.404 . S
C1065 H1077 0.930 . S
C1066 C1062 1.524 . S
C1066 H1078 0.956 . S
C1066 H1079 0.961 1_455 S
C1066 H1080 0.961 1_455 S
C1067 C1064 1.539 . S
C1067 H1081 0.958 . S
C1067 H1082 0.961 . S
C1067 H1083 0.960 . S
H1068 C1052 0.931 . S
H1069 C1057 0.929 . S
H1070 C1058 0.960 . S
H1071 C1058 0.962 . S
H1072 C1058 0.960 . S
H1073 C1059 0.961 . S
H1074 C1059 0.961 . S
H1075 C1059 0.961 . S
H1076 C1060 0.931 . S
H1077 C1065 0.930 . S
H1078 C1066 0.956 . S
H1079 C1066 0.961 1_655 S
H1080 C1066 0.961 1_655 S
H1081 C1067 0.958 . S
H1082 C1067 0.961 . S
H1083 C1067 0.960 . S
C1084 C1085 1.391 1_545 S
C1084 C1086 1.394 . S
C1084 H1100 0.931 . S
C1085 C1084 1.391 1_565 S
C1085 C1089 1.376 . S
C1086 C1084 1.394 . S
C1086 C1087 1.369 1_545 S
C1086 C1090 1.531 . S
C1087 C1086 1.369 1_565 S
C1087 C1088 1.410 . S
C1087 C1095 1.503 . S
C1088 C1087 1.410 . S
C1088 C1089 1.392 . S
C1088 C1091 1.511 . S
C1089 C1085 1.376 . S
C1089 C1088 1.392 . S
C1089 H1101 0.929 . S
C1090 C1086 1.531 . S
C1090 H1102 0.960 . S
C1090 H1103 0.962 . S
C1090 H1104 0.960 . S
C1091 C1088 1.511 . S
C1091 H1105 0.961 . S
C1091 H1106 0.961 . S
C1091 H1107 0.961 . S
C1092 C1093 1.370 1_554 S
C1092 C1094 1.363 . S
C1092 H1108 0.931 . S
C1093 C1092 1.370 1_556 S
C1093 C1097 1.408 . S
C1094 C1092 1.363 . S
C1094 C1095 1.370 1_554 S
C1094 C1098 1.524 . S
C1095 C1087 1.503 . S
C1095 C1094 1.370 1_556 S
C1095 C1096 1.403 . S
C1096 C1095 1.403 . S
C1096 C1097 1.404 . S
C1096 C1099 1.539 . S
C1097 C1093 1.408 . S
C1097 C1096 1.404 . S
C1097 H1109 0.930 . S
C1098 C1094 1.524 . S
C1098 H1110 0.956 1_565 S
C1098 H1111 0.961 . S
C1098 H1112 0.961 . S
C1099 C1096 1.539 . S
C1099 H1113 0.958 1_565 S
C1099 H1114 0.961 . S
C1099 H1115 0.960 . S
H1100 C1084 0.931 . S
H1101 C1089 0.929 . S
H1102 C1090 0.960 . S
H1103 C1090 0.962 . S
H1104 C1090 0.960 . S
H1105 C1091 0.961 . S
H1106 C1091 0.961 . S
H1107 C1091 0.961 . S
H1108 C1092 0.931 . S
H1109 C1097 0.930 . S
H1110 C1098 0.956 1_545 S
H1111 C1098 0.961 . S
H1112 C1098 0.961 . S
H1113 C1099 0.958 1_545 S
H1114 C1099 0.961 . S
H1115 C1099 0.960 . S
C1116 C1117 1.391 . S
C1116 C1118 1.394 . S
C1116 H1132 0.931 . S
C1117 C1116 1.391 . S
C1117 C1121 1.376 . S
C1118 C1116 1.394 . S
C1118 C1119 1.369 . S
C1118 C1122 1.531 . S
C1119 C1118 1.369 . S
C1119 C1120 1.410 . S
C1119 C1127 1.503 . S
C1120 C1119 1.410 . S
C1120 C1121 1.392 . S
C1120 C1123 1.511 . S
C1121 C1117 1.376 . S
C1121 C1120 1.392 . S
C1121 H1133 0.929 . S
C1122 C1118 1.531 . S
C1122 H1134 0.960 . S
C1122 H1135 0.962 . S
C1122 H1136 0.960 . S
C1123 C1120 1.511 . S
C1123 H1137 0.961 . S
C1123 H1138 0.961 . S
C1123 H1139 0.961 . S
C1124 C1125 1.349 1_565 S
C1124 C1126 1.360 1_565 S
C1124 H1140 0.956 . S
C1125 C1124 1.349 1_545 S
C1125 C1129 1.408 . S
C1126 C1124 1.360 1_545 S
C1126 C1127 1.370 . S
C1126 C1130 1.524 1_545 S
C1127 C1119 1.503 . S
C1127 C1126 1.370 . S
C1127 C1128 1.403 . S
C1128 C1127 1.403 . S
C1128 C1129 1.404 . S
C1128 C1131 1.539 . S
C1129 C1125 1.408 . S
C1129 C1128 1.404 . S
C1129 H1141 0.930 . S
C1130 C1126 1.524 1_565 S
C1130 H1142 0.956 . S
C1130 H1143 0.961 . S
C1130 H1144 0.961 . S
C1131 C1128 1.539 . S
C1131 H1145 0.958 . S
C1131 H1146 0.961 . S
C1131 H1147 0.960 . S
H1132 C1116 0.931 . S
H1133 C1121 0.929 . S
H1134 C1122 0.960 . S
H1135 C1122 0.962 . S
H1136 C1122 0.960 . S
H1137 C1123 0.961 . S
H1138 C1123 0.961 . S
H1139 C1123 0.961 . S
H1140 C1124 0.956 . S
H1141 C1129 0.930 . S
H1142 C1130 0.956 . S
H1143 C1130 0.961 . S
H1144 C1130 0.961 . S
H1145 C1131 0.958 . S
H1146 C1131 0.961 . S
H1147 C1131 0.960 . S
C1148 C1149 1.391 . S
C1148 C1150 1.394 . S
C1148 H1164 0.931 . S
C1149 C1148 1.391 . S
C1149 C1153 1.376 . S
C1150 C1148 1.394 . S
C1150 C1151 1.369 . S
C1150 C1154 1.531 . S
C1151 C1150 1.369 . S
C1151 C1152 1.410 . S
C1151 C1159 1.503 . S
C1152 C1151 1.410 . S
C1152 C1153 1.392 . S
C1152 C1155 1.511 1_554 S
C1153 C1149 1.376 . S
C1153 C1152 1.392 . S
C1153 H1165 0.929 . S
C1154 C1150 1.531 . S
C1154 H1166 0.960 . S
C1154 H1167 0.962 . S
C1154 H1168 0.960 . S
C1155 C1152 1.511 1_556 S
C1155 H1169 0.961 . S
C1155 H1170 0.961 . S
C1155 H1171 0.961 . S
C1156 C1157 1.370 . S
C1156 C1158 1.363 . S
C1156 H1172 0.931 . S
C1157 C1156 1.370 . S
C1157 C1161 1.408 . S
C1158 C1156 1.363 . S
C1158 C1159 1.370 . S
C1158 C1162 1.524 . S
C1159 C1151 1.503 . S
C1159 C1158 1.370 . S
C1159 C1160 1.403 . S
C1160 C1159 1.403 . S
C1160 C1161 1.404 . S
C1160 C1163 1.539 . S
C1161 C1157 1.408 . S
C1161 C1160 1.404 . S
C1161 H1173 0.930 . S
C1162 C1158 1.524 . S
C1162 H1174 0.956 . S
C1162 H1175 0.949 1_554 S
C1162 H1176 0.980 . S
C1163 C1160 1.539 . S
C1163 H1177 0.958 . S
C1163 H1178 0.961 . S
C1163 H1179 0.960 . S
H1164 C1148 0.931 . S
H1165 C1153 0.929 . S
H1166 C1154 0.960 . S
H1167 C1154 0.962 . S
H1168 C1154 0.960 . S
H1169 C1155 0.961 . S
H1170 C1155 0.961 . S
H1171 C1155 0.961 . S
H1172 C1156 0.931 . S
H1173 C1161 0.930 . S
H1174 C1162 0.956 . S
H1175 C1162 0.949 1_556 S
H1176 C1162 0.980 . S
H1177 C1163 0.958 . S
H1178 C1163 0.961 . S
H1179 C1163 0.960 . S
C1180 C1181 1.391 . S
C1180 C1182 1.394 . S
C1180 H1196 0.931 . S
C1181 C1180 1.391 . S
C1181 C1185 1.376 . S
C1182 C1180 1.394 . S
C1182 C1183 1.369 . S
C1182 C1186 1.531 . S
C1183 C1182 1.369 . S
C1183 C1184 1.410 . S
C1183 C1191 1.503 . S
C1184 C1183 1.410 . S
C1184 C1185 1.392 . S
C1184 C1187 1.511 . S
C1185 C1181 1.376 . S
C1185 C1184 1.392 . S
C1185 H1197 0.929 . S
C1186 C1182 1.531 . S
C1186 H1198 0.960 . S
C1186 H1199 0.962 . S
C1186 H1200 0.960 . S
C1187 C1184 1.511 . S
C1187 H1201 0.961 . S
C1187 H1202 0.961 . S
C1187 H1203 0.961 . S
C1188 C1189 1.370 . S
C1188 C1190 1.363 . S
C1188 H1204 0.931 . S
C1189 C1188 1.370 . S
C1189 C1193 1.408 . S
C1190 C1188 1.363 . S
C1190 C1191 1.370 . S
C1190 C1194 1.524 . S
C1191 C1183 1.503 . S
C1191 C1190 1.370 . S
C1191 C1192 1.403 . S
C1192 C1191 1.403 . S
C1192 C1193 1.404 . S
C1192 C1195 1.539 . S
C1193 C1189 1.408 . S
C1193 C1192 1.404 . S
C1193 H1205 0.930 . S
C1194 C1190 1.524 . S
C1194 H1206 0.956 . S
C1194 H1207 0.961 . S
C1194 H1208 0.961 . S
C1195 C1192 1.539 . S
C1195 H1209 0.958 . S
C1195 H1210 0.961 . S
C1195 H1211 0.960 . S
H1196 C1180 0.931 . S
H1197 C1185 0.929 . S
H1198 C1186 0.960 . S
H1199 C1186 0.962 . S
H1200 C1186 0.960 . S
H1201 C1187 0.961 . S
H1202 C1187 0.961 . S
H1203 C1187 0.961 . S
H1204 C1188 0.931 . S
H1205 C1193 0.930 . S
H1206 C1194 0.956 . S
H1207 C1194 0.961 . S
H1208 C1194 0.961 . S
H1209 C1195 0.958 . S
H1210 C1195 0.961 . S
H1211 C1195 0.960 . S
C1212 C1213 1.391 . S
C1212 C1214 1.394 . S
C1212 H1228 0.931 . S
C1213 C1212 1.391 . S
C1213 C1217 1.376 . S
C1214 C1212 1.394 . S
C1214 C1215 1.369 . S
C1214 C1218 1.531 . S
C1215 C1214 1.369 . S
C1215 C1216 1.410 . S
C1215 C1223 1.503 . S
C1216 C1215 1.410 . S
C1216 C1217 1.392 . S
C1216 C1219 1.511 1_656 S
C1217 C1213 1.376 . S
C1217 C1216 1.392 . S
C1217 H1229 0.927 1_556 S
C1218 C1214 1.531 . S
C1218 H1230 0.960 . S
C1218 H1231 0.962 . S
C1218 H1232 0.960 . S
C1219 C1216 1.511 1_454 S
C1219 H1233 0.961 . S
C1219 H1234 0.961 . S
C1219 H1235 0.961 . S
C1220 C1221 1.370 1_554 S
C1220 C1222 1.363 1_554 S
C1220 H1236 0.931 . S
C1221 C1220 1.370 1_556 S
C1221 C1225 1.408 . S
C1222 C1220 1.363 1_556 S
C1222 C1223 1.370 . S
C1222 C1226 1.524 1_556 S
C1223 C1215 1.503 . S
C1223 C1222 1.370 . S
C1223 C1224 1.403 . S
C1224 C1223 1.403 . S
C1224 C1225 1.404 . S
C1224 C1227 1.539 1_655 S
C1225 C1221 1.408 . S
C1225 C1224 1.404 . S
C1225 H1237 0.930 1_655 S
C1226 C1222 1.524 1_554 S
C1226 H1238 0.956 . S
C1226 H1239 0.961 . S
C1226 H1240 0.961 . S
C1227 C1224 1.539 1_455 S
C1227 H1241 0.958 . S
C1227 H1242 0.961 . S
C1227 H1243 0.960 . S
H1228 C1212 0.931 . S
H1229 C1217 0.927 1_554 S
H1230 C1218 0.960 . S
H1231 C1218 0.962 . S
H1232 C1218 0.960 . S
H1233 C1219 0.961 . S
H1234 C1219 0.961 . S
H1235 C1219 0.961 . S
H1236 C1220 0.931 . S
H1237 C1225 0.930 1_455 S
H1238 C1226 0.956 . S
H1239 C1226 0.961 . S
H1240 C1226 0.961 . S
H1241 C1227 0.958 . S
H1242 C1227 0.961 . S
H1243 C1227 0.960 . S
C1244 C1245 1.391 . S
C1244 C1246 1.394 . S
C1244 H1260 0.931 . S
C1245 C1244 1.391 . S
C1245 C1249 1.376 . S
C1246 C1244 1.394 . S
C1246 C1247 1.369 . S
C1246 C1250 1.531 . S
C1247 C1246 1.369 . S
C1247 C1248 1.410 . S
C1247 C1255 1.503 . S
C1248 C1247 1.410 . S
C1248 C1249 1.392 . S
C1248 C1251 1.511 . S
C1249 C1245 1.376 . S
C1249 C1248 1.392 . S
C1249 H1261 0.929 . S
C1250 C1246 1.531 . S
C1250 H1262 0.960 . S
C1250 H1263 0.962 . S
C1250 H1264 0.960 . S
C1251 C1248 1.511 . S
C1251 H1265 0.961 . S
C1251 H1266 0.961 . S
C1251 H1267 0.961 . S
C1252 C1253 1.370 . S
C1252 C1254 1.363 . S
C1252 H1268 0.931 . S
C1253 C1252 1.370 . S
C1253 C1257 1.408 . S
C1254 C1252 1.363 . S
C1254 C1255 1.370 . S
C1254 C1258 1.524 . S
C1255 C1247 1.503 . S
C1255 C1254 1.370 . S
C1255 C1256 1.403 . S
C1256 C1255 1.403 . S
C1256 C1257 1.404 . S
C1256 C1259 1.539 1_554 S
C1257 C1253 1.408 . S
C1257 C1256 1.404 . S
C1257 H1269 0.964 . S
C1258 C1254 1.524 . S
C1258 H1270 0.956 . S
C1258 H1271 0.961 . S
C1258 H1272 0.961 . S
C1259 C1256 1.539 1_556 S
C1259 H1273 0.958 . S
C1259 H1274 0.961 . S
C1259 H1275 0.960 . S
H1260 C1244 0.931 . S
H1261 C1249 0.929 . S
H1262 C1250 0.960 . S
H1263 C1250 0.962 . S
H1264 C1250 0.960 . S
H1265 C1251 0.961 . S
H1266 C1251 0.961 . S
H1267 C1251 0.961 . S
H1268 C1252 0.931 . S
H1269 C1257 0.964 . S
H1270 C1258 0.956 . S
H1271 C1258 0.961 . S
H1272 C1258 0.961 . S
H1273 C1259 0.958 . S
H1274 C1259 0.961 . S
H1275 C1259 0.960 . S
C1276 C1277 1.391 . S
C1276 C1278 1.394 . S
C1276 H1292 0.931 . S
C1277 C1276 1.391 . S
C1277 C1281 1.376 . S
C1278 C1276 1.394 . S
C1278 C1279 1.369 . S
C1278 C1282 1.531 . S
C1279 C1278 1.369 . S
C1279 C1280 1.410 . S
C1279 C1287 1.503 . S
C1280 C1279 1.410 . S
C1280 C1281 1.392 . S
C1280 C1283 1.511 1_455 S
C1281 C1277 1.376 . S
C1281 C1280 1.392 . S
C1281 H1293 0.929 . S
C1282 C1278 1.531 . S
C1282 H1294 0.960 . S
C1282 H1295 0.962 . S
C1282 H1296 0.960 . S
C1283 C1280 1.511 1_655 S
C1283 H1297 0.961 . S
C1283 H1298 0.961 . S
C1283 H1299 0.961 . S
C1284 C1285 1.370 . S
C1284 C1286 1.363 . S
C1284 H1300 0.931 . S
C1285 C1284 1.370 . S
C1285 C1289 1.408 . S
C1286 C1284 1.363 . S
C1286 C1287 1.370 . S
C1286 C1290 1.524 . S
C1287 C1279 1.503 . S
C1287 C1286 1.370 . S
C1287 C1288 1.403 . S
C1288 C1287 1.403 . S
C1288 C1289 1.404 . S
C1288 C1291 1.539 . S
C1289 C1285 1.408 . S
C1289 C1288 1.404 . S
C1289 H1301 0.930 . S
C1290 C1286 1.524 . S
C1290 H1302 0.956 . S
C1290 H1303 0.961 . S
C1290 H1304 0.961 . S
C1291 C1288 1.539 . S
C1291 H1305 0.958 . S
C1291 H1306 0.961 . S
C1291 H1307 0.960 . S
H1292 C1276 0.931 . S
H1293 C1281 0.929 . S
H1294 C1282 0.960 . S
H1295 C1282 0.962 . S
H1296 C1282 0.960 . S
H1297 C1283 0.961 . S
H1298 C1283 0.961 . S
H1299 C1283 0.961 . S
H1300 C1284 0.931 . S
H1301 C1289 0.930 . S
H1302 C1290 0.956 . S
H1303 C1290 0.961 . S
H1304 C1290 0.961 . S
H1305 C1291 0.958 . S
H1306 C1291 0.961 . S
H1307 C1291 0.960 . S
C1308 C1309 1.391 . S
C1308 C1310 1.394 . S
C1308 H1324 0.931 . S
C1309 C1308 1.391 . S
C1309 C1313 1.376 . S
C1310 C1308 1.394 . S
C1310 C1311 1.369 . S
C1310 C1314 1.531 . S
C1311 C1310 1.369 . S
C1311 C1312 1.410 . S
C1311 C1319 1.503 . S
C1312 C1311 1.410 . S
C1312 C1313 1.392 . S
C1312 C1315 1.511 . S
C1313 C1309 1.376 . S
C1313 C1312 1.392 . S
C1313 H1325 0.929 . S
C1314 C1310 1.531 . S
C1314 H1326 0.960 . S
C1314 H1327 0.962 . S
C1314 H1328 0.960 . S
C1315 C1312 1.511 . S
C1315 H1329 0.961 . S
C1315 H1330 0.961 . S
C1315 H1331 0.961 . S
C1316 C1317 1.370 . S
C1316 C1318 1.363 . S
C1316 H1332 0.931 . S
C1317 C1316 1.370 . S
C1317 C1321 1.408 . S
C1318 C1316 1.363 . S
C1318 C1319 1.370 . S
C1318 C1322 1.524 . S
C1319 C1311 1.503 . S
C1319 C1318 1.370 . S
C1319 C1320 1.403 . S
C1320 C1319 1.403 . S
C1320 C1321 1.404 . S
C1320 C1323 1.539 . S
C1321 C1317 1.408 . S
C1321 C1320 1.404 . S
C1321 H1333 0.930 . S
C1322 C1318 1.524 . S
C1322 H1334 0.956 . S
C1322 H1335 0.961 . S
C1322 H1336 0.961 . S
C1323 C1320 1.539 . S
C1323 H1337 0.958 . S
C1323 H1338 0.961 . S
C1323 H1339 0.960 . S
H1324 C1308 0.931 . S
H1325 C1313 0.929 . S
H1326 C1314 0.960 . S
H1327 C1314 0.962 . S
H1328 C1314 0.960 . S
H1329 C1315 0.961 . S
H1330 C1315 0.961 . S
H1331 C1315 0.961 . S
H1332 C1316 0.931 . S
H1333 C1321 0.930 . S
H1334 C1322 0.956 . S
H1335 C1322 0.961 . S
H1336 C1322 0.961 . S
H1337 C1323 0.958 . S
H1338 C1323 0.961 . S
H1339 C1323 0.960 . S
C573 C1 1.600 . S
C581 C498 1.575 . S
C605 C80 1.582 . S
C613 C522 1.568 . S
C645 C542 1.447 . S
C637 C140 1.349 . S
C669 C211 1.367 . S
C677 C565 1.463 . S
C709 C524 1.653 . S
C701 C31 1.677 . S
C741 C500 1.644 . S
C733 C61 1.638 . S
C773 C568 1.582 . S
C765 C151 1.599 . S
C805 C545 1.587 . S
C797 C200 1.542 . S
C829 C20 1.366 . S
C837 C570 1.347 . S
C869 C519 1.657 . S
C861 C121 1.604 . S
C893 C181 1.599 . S
C901 C497 1.649 . S
C925 C91 1.322 . S
C933 C547 1.355 . S
C965 C501 1.715 . S
C957 C260 1.696 . S
C989 C320 1.610 . S
C997 C523 1.659 . S
C1021 C361 1.804 . S
C1029 C543 1.824 . S
C1053 C451 1.750 . S
C1061 C566 1.831 . S
C1085 C271 1.614 . S
C1093 C521 1.622 . S
C1125 C499 1.633 . S
C1117 C301 1.527 . S
C1157 C569 1.525 . S
C1149 C380 1.508 . S
C1189 C546 1.544 . S
C1181 C440 1.526 . S
C1213 C241 1.918 . S
C1221 C567 1.895 . S
C1253 C520 1.610 . S
C1245 C391 1.612 . S
C1285 C496 1.629 . S
C1277 C421 1.524 . S
C1309 C331 1.852 . S
C1317 C544 1.873 . S
