# Generated by pormake.
# Topology pyr, (3,6)-cn, num edge types: 1
# Building blocks:
#     Node 0, Type 0, BuildingBlock: BELTOD_clean_linker_0, # of connection points: 3
#     Node 1, Type 0, BuildingBlock: BELTOD_clean_linker_0, # of connection points: 3
#     Node 2, Type 0, BuildingBlock: BELTOD_clean_linker_0, # of connection points: 3
#     Node 3, Type 0, BuildingBlock: BELTOD_clean_linker_0, # of connection points: 3
#     Node 4, Type 0, BuildingBlock: BELTOD_clean_linker_0, # of connection points: 3
#     Node 5, Type 0, BuildingBlock: BELTOD_clean_linker_0, # of connection points: 3
#     Node 6, Type 0, BuildingBlock: BELTOD_clean_linker_0, # of connection points: 3
#     Node 7, Type 0, BuildingBlock: BELTOD_clean_linker_0, # of connection points: 3
#     Node 8, Type 1, BuildingBlock: CIFDUS_clean_sbu_1, # of connection points: 6
#     Node 9, Type 1, BuildingBlock: CIFDUS_clean_sbu_1, # of connection points: 6
#     Node 10, Type 1, BuildingBlock: CIFDUS_clean_sbu_1, # of connection points: 6
#     Node 11, Type 1, BuildingBlock: CIFDUS_clean_sbu_1, # of connection points: 6
#     Edge 12, Type (0, 1), BuildingBlock: UVAHIK_clean_linker_0, # of connection points: 2
#     Edge 13, Type (0, 1), BuildingBlock: UVAHIK_clean_linker_0, # of connection points: 2
#     Edge 14, Type (0, 1), BuildingBlock: UVAHIK_clean_linker_0, # of connection points: 2
#     Edge 15, Type (0, 1), BuildingBlock: UVAHIK_clean_linker_0, # of connection points: 2
#     Edge 16, Type (0, 1), BuildingBlock: UVAHIK_clean_linker_0, # of connection points: 2
#     Edge 17, Type (0, 1), BuildingBlock: UVAHIK_clean_linker_0, # of connection points: 2
#     Edge 18, Type (0, 1), BuildingBlock: UVAHIK_clean_linker_0, # of connection points: 2
#     Edge 19, Type (0, 1), BuildingBlock: UVAHIK_clean_linker_0, # of connection points: 2
#     Edge 20, Type (0, 1), BuildingBlock: UVAHIK_clean_linker_0, # of connection points: 2
#     Edge 21, Type (0, 1), BuildingBlock: UVAHIK_clean_linker_0, # of connection points: 2
#     Edge 22, Type (0, 1), BuildingBlock: UVAHIK_clean_linker_0, # of connection points: 2
#     Edge 23, Type (0, 1), BuildingBlock: UVAHIK_clean_linker_0, # of connection points: 2
#     Edge 24, Type (0, 1), BuildingBlock: UVAHIK_clean_linker_0, # of connection points: 2
#     Edge 25, Type (0, 1), BuildingBlock: UVAHIK_clean_linker_0, # of connection points: 2
#     Edge 26, Type (0, 1), BuildingBlock: UVAHIK_clean_linker_0, # of connection points: 2
#     Edge 27, Type (0, 1), BuildingBlock: UVAHIK_clean_linker_0, # of connection points: 2
#     Edge 28, Type (0, 1), BuildingBlock: UVAHIK_clean_linker_0, # of connection points: 2
#     Edge 29, Type (0, 1), BuildingBlock: UVAHIK_clean_linker_0, # of connection points: 2
#     Edge 30, Type (0, 1), BuildingBlock: UVAHIK_clean_linker_0, # of connection points: 2
#     Edge 31, Type (0, 1), BuildingBlock: UVAHIK_clean_linker_0, # of connection points: 2
#     Edge 32, Type (0, 1), BuildingBlock: UVAHIK_clean_linker_0, # of connection points: 2
#     Edge 33, Type (0, 1), BuildingBlock: UVAHIK_clean_linker_0, # of connection points: 2
#     Edge 34, Type (0, 1), BuildingBlock: UVAHIK_clean_linker_0, # of connection points: 2
#     Edge 35, Type (0, 1), BuildingBlock: UVAHIK_clean_linker_0, # of connection points: 2
# Relax obj value: 0.036
# Max RMSD: 0.109
# Mean RMSD: 0.051
data_MOF--net-pry--node1-CIFDUS_clean_sbu_1--node2-BELTOD_clean_linker_0--edge1-UVAHIK_clean_linker_0
_symmetry_space_group_name_H-M    P1
_symmetry_Int_Tables_number       1
_symmetry_cell_setting            triclinic
loop_
_symmetry_equiv_pos_as_xyz
'x, y, z'
_cell_length_a     53.329328
_cell_length_b     51.800569
_cell_length_c     50.890622
_cell_angle_alpha  92.124038
_cell_angle_beta   91.50948
_cell_angle_gamma 93.834122
loop_
_atom_site_label
_atom_site_type_symbol
_atom_site_fract_x
_atom_site_fract_y
_atom_site_fract_z
_atom_type_partial_charge
P0 P 0.15913 0.1612 0.15369 0.0
H1 H 0.20509 0.1793 0.12902 0.0
H2 H 0.23815 0.15711 0.10732 0.0
H3 H 0.19362 0.08449 0.11067 0.0
H4 H 0.16077 0.10699 0.13315 0.0
H5 H 0.13479 0.20657 0.17183 0.0
H6 H 0.11328 0.23997 0.14935 0.0
H7 H 0.11986 0.19814 0.07517 0.0
H8 H 0.14181 0.16461 0.09795 0.0
H9 H 0.17392 0.12335 0.19048 0.0
H10 H 0.10446 0.15184 0.16221 0.0
O11 O 0.17744 0.17963 0.17503 0.0
H12 H 0.15146 0.09981 0.22413 0.0
H13 H 0.08156 0.12774 0.19559 0.0
C14 C 0.18059 0.14481 0.13296 0.0
C15 C 0.20226 0.15866 0.12473 0.0
C16 C 0.22117 0.14588 0.11219 0.0
C17 C 0.21877 0.11886 0.10733 0.0
C18 C 0.19638 0.1052 0.11451 0.0
C19 C 0.17744 0.11808 0.12717 0.0
C20 C 0.14031 0.18336 0.13653 0.0
C21 C 0.13152 0.20445 0.15074 0.0
C22 C 0.11926 0.22357 0.13787 0.0
C23 C 0.11519 0.22187 0.11044 0.0
C24 C 0.12277 0.19996 0.09632 0.0
C25 C 0.13536 0.18085 0.10928 0.0
C26 C 0.14094 0.13933 0.1738 0.0
C27 C 0.15367 0.12393 0.19105 0.0
C28 C 0.14072 0.11037 0.2103 0.0
C29 C 0.11462 0.11191 0.21279 0.0
C30 C 0.10169 0.1264 0.19455 0.0
C31 C 0.11475 0.14005 0.17527 0.0
P32 P 0.38761 0.90056 0.60195 0.0
H33 H 0.43444 0.92012 0.62847 0.0
H34 H 0.4457 0.93176 0.67441 0.0
H35 H 0.36991 0.9088 0.69635 0.0
H36 H 0.35873 0.89756 0.65021 0.0
H37 H 0.40523 0.87571 0.55424 0.0
H38 H 0.41477 0.83122 0.54298 0.0
H39 H 0.39442 0.80867 0.62093 0.0
H40 H 0.38511 0.8533 0.6321 0.0
H41 H 0.35697 0.94392 0.61231 0.0
H42 H 0.34651 0.86726 0.57586 0.0
O43 O 0.40466 0.92056 0.5834 0.0
H44 H 0.31283 0.95111 0.60218 0.0
H45 H 0.30257 0.87448 0.56553 0.0
C46 C 0.39562 0.90865 0.63592 0.0
C47 C 0.42023 0.91773 0.64317 0.0
C48 C 0.42668 0.92415 0.66948 0.0
C49 C 0.40865 0.92134 0.68904 0.0
C50 C 0.3841 0.91163 0.68171 0.0
C51 C 0.37769 0.90518 0.65536 0.0
C52 C 0.39505 0.86787 0.59417 0.0
C53 C 0.403 0.86122 0.56895 0.0
C54 C 0.40821 0.83575 0.56247 0.0
C55 C 0.40542 0.81647 0.5811 0.0
C56 C 0.3971 0.82319 0.60629 0.0
C57 C 0.39178 0.84867 0.6127 0.0
C58 C 0.35495 0.90502 0.59508 0.0
C59 C 0.34514 0.92861 0.60229 0.0
C60 C 0.31998 0.93267 0.59655 0.0
C61 C 0.30436 0.91332 0.5831 0.0
C62 C 0.31429 0.88975 0.57577 0.0
C63 C 0.33939 0.8856 0.58178 0.0
P64 P 0.64483 0.36334 0.84523 0.0
H65 H 0.6949 0.3542 0.86485 0.0
H66 H 0.72671 0.38154 0.89034 0.0
H67 H 0.67502 0.44181 0.89767 0.0
H68 H 0.64295 0.41435 0.87207 0.0
H69 H 0.60999 0.3208 0.82754 0.0
H70 H 0.58875 0.28541 0.85083 0.0
H71 H 0.61487 0.3216 0.92511 0.0
H72 H 0.63619 0.35714 0.90182 0.0
H73 H 0.66215 0.39908 0.8069 0.0
H74 H 0.59131 0.37499 0.84044 0.0
O75 O 0.66115 0.34541 0.8248 0.0
H76 H 0.64072 0.42613 0.77676 0.0
H77 H 0.56949 0.40234 0.81011 0.0
C78 C 0.66684 0.38248 0.86627 0.0
C79 C 0.69031 0.3732 0.87203 0.0
C80 C 0.70841 0.38875 0.88651 0.0
C81 C 0.70311 0.41362 0.89557 0.0
C82 C 0.67933 0.42265 0.89065 0.0
C83 C 0.66115 0.40703 0.87611 0.0
C84 C 0.62478 0.34138 0.86295 0.0
C85 C 0.61058 0.32151 0.84885 0.0
C86 C 0.59844 0.30141 0.8621 0.0
C87 C 0.60023 0.30107 0.8896 0.0
C88 C 0.61313 0.32176 0.90386 0.0
C89 C 0.62535 0.34193 0.89056 0.0
C90 C 0.62823 0.38474 0.82541 0.0
C91 C 0.64195 0.39994 0.80796 0.0
C92 C 0.62969 0.41566 0.79099 0.0
C93 C 0.60341 0.41643 0.79116 0.0
C94 C 0.58975 0.402 0.80955 0.0
C95 C 0.60216 0.3863 0.82673 0.0
P96 P 0.86211 0.6257 0.37726 0.0
H97 H 0.88991 0.67296 0.36289 0.0
H98 H 0.91069 0.70901 0.38947 0.0
H99 H 0.90178 0.66492 0.45922 0.0
H100 H 0.88118 0.62856 0.43251 0.0
H101 H 0.84184 0.59132 0.33501 0.0
H102 H 0.86114 0.5676 0.2997 0.0
H103 H 0.9346 0.58855 0.3351 0.0
H104 H 0.91489 0.61259 0.37065 0.0
H105 H 0.83173 0.64603 0.4181 0.0
H106 H 0.84235 0.57099 0.38204 0.0
O107 O 0.8451 0.64353 0.35785 0.0
H108 H 0.79578 0.6277 0.44123 0.0
H109 H 0.80556 0.55268 0.40443 0.0
C110 C 0.88356 0.64833 0.3958 0.0
C111 C 0.89304 0.6707 0.38377 0.0
C112 C 0.90488 0.69126 0.39892 0.0
C113 C 0.90759 0.68962 0.42627 0.0
C114 C 0.89984 0.66649 0.43811 0.0
C115 C 0.88807 0.6458 0.42287 0.0
C116 C 0.87692 0.60373 0.35537 0.0
C117 C 0.86206 0.59022 0.33561 0.0
C118 C 0.87315 0.57651 0.31546 0.0
C119 C 0.89945 0.57622 0.31451 0.0
C120 C 0.9143 0.58861 0.3352 0.0
C121 C 0.90307 0.60227 0.35555 0.0
C122 C 0.83974 0.60997 0.39832 0.0
C123 C 0.82662 0.62548 0.41554 0.0
C124 C 0.80589 0.61503 0.42852 0.0
C125 C 0.79755 0.58888 0.42421 0.0
C126 C 0.81156 0.57291 0.40811 0.0
C127 C 0.83253 0.58343 0.39519 0.0
P128 P 0.8814 0.89322 0.90514 0.0
H129 H 0.85925 0.91212 0.9533 0.0
H130 H 0.81745 0.92494 0.96384 0.0
H131 H 0.79095 0.90174 0.88492 0.0
H132 H 0.83333 0.88955 0.87436 0.0
H133 H 0.9289 0.8718 0.91831 0.0
H134 H 0.94055 0.82877 0.92966 0.0
H135 H 0.86262 0.80023 0.92161 0.0
H136 H 0.85107 0.84372 0.9105 0.0
H137 H 0.87568 0.93803 0.87306 0.0
H138 H 0.90324 0.86207 0.86269 0.0
O139 O 0.90051 0.91413 0.92319 0.0
H140 H 0.88757 0.94805 0.82837 0.0
H141 H 0.91627 0.87222 0.81863 0.0
C142 C 0.84954 0.90021 0.91295 0.0
C143 C 0.84445 0.90969 0.93826 0.0
C144 C 0.82037 0.91687 0.94432 0.0
C145 C 0.80063 0.91449 0.92525 0.0
C146 C 0.8057 0.90427 0.90001 0.0
C147 C 0.8299 0.89711 0.89396 0.0
C148 C 0.88908 0.86109 0.91396 0.0
C149 C 0.91427 0.85634 0.91914 0.0
C150 C 0.92094 0.8316 0.9254 0.0
C151 C 0.90255 0.81092 0.92656 0.0
C152 C 0.87724 0.81574 0.92122 0.0
C153 C 0.87059 0.84059 0.9148 0.0
C154 C 0.88819 0.8992 0.87118 0.0
C155 C 0.88416 0.92343 0.86108 0.0
C156 C 0.89132 0.92925 0.83556 0.0
C157 C 0.90301 0.911 0.81961 0.0
C158 C 0.90694 0.88667 0.82993 0.0
C159 C 0.89957 0.88083 0.85537 0.0
P160 P 0.66189 0.16408 0.37714 0.0
H161 H 0.67636 0.21239 0.40597 0.0
H162 H 0.65193 0.24322 0.42996 0.0
H163 H 0.58673 0.18889 0.42309 0.0
H164 H 0.6113 0.15823 0.39881 0.0
H165 H 0.70897 0.1462 0.35946 0.0
H166 H 0.74076 0.12114 0.37976 0.0
H167 H 0.69575 0.1134 0.44877 0.0
H168 H 0.66382 0.13897 0.4282 0.0
H169 H 0.62304 0.17819 0.34086 0.0
H170 H 0.65322 0.10761 0.3661 0.0
O171 O 0.67771 0.18465 0.35809 0.0
H172 H 0.59802 0.15357 0.30621 0.0
H173 H 0.62803 0.08298 0.33141 0.0
C174 C 0.64545 0.18337 0.40014 0.0
C175 C 0.65694 0.20692 0.41011 0.0
C176 C 0.64297 0.22448 0.42393 0.0
C177 C 0.61728 0.21864 0.42807 0.0
C178 C 0.60635 0.19412 0.41973 0.0
C179 C 0.6204 0.17655 0.40595 0.0
C180 C 0.68442 0.14492 0.39262 0.0
C181 C 0.7059 0.13914 0.37896 0.0
C182 C 0.72393 0.12455 0.39047 0.0
C183 C 0.72072 0.11529 0.41585 0.0
C184 C 0.69877 0.12052 0.42928 0.0
C185 C 0.68061 0.13512 0.41762 0.0
C186 C 0.64015 0.14478 0.35577 0.0
C187 C 0.62381 0.15735 0.33934 0.0
C188 C 0.60947 0.14332 0.31971 0.0
C189 C 0.61115 0.11651 0.31644 0.0
C190 C 0.62629 0.10363 0.33393 0.0
C191 C 0.64079 0.11774 0.35355 0.0
P192 P 0.38637 0.63536 0.12704 0.0
H193 H 0.35971 0.62823 0.07651 0.0
H194 H 0.3155 0.61717 0.06398 0.0
H195 H 0.29699 0.61555 0.14601 0.0
H196 H 0.34111 0.62699 0.15846 0.0
H197 H 0.42729 0.66223 0.09953 0.0
H198 H 0.43692 0.70792 0.09069 0.0
H199 H 0.37272 0.72856 0.13479 0.0
H200 H 0.36265 0.68259 0.14307 0.0
H201 H 0.38654 0.5857 0.1514 0.0
H202 H 0.40013 0.6661 0.17607 0.0
O203 O 0.40338 0.61745 0.10728 0.0
H204 H 0.39385 0.57308 0.19667 0.0
H205 H 0.4077 0.65366 0.22118 0.0
C206 C 0.35374 0.62788 0.11835 0.0
C207 C 0.34612 0.62554 0.09178 0.0
C208 C 0.3209 0.61936 0.08465 0.0
C209 C 0.30294 0.61536 0.10405 0.0
C210 C 0.31056 0.61821 0.1307 0.0
C211 C 0.33576 0.6247 0.13781 0.0
C212 C 0.39413 0.66906 0.12175 0.0
C213 C 0.41524 0.67652 0.1073 0.0
C214 C 0.42077 0.70257 0.10229 0.0
C215 C 0.40554 0.72156 0.11212 0.0
C216 C 0.38478 0.71418 0.12719 0.0
C217 C 0.37899 0.68802 0.1318 0.0
C218 C 0.39293 0.62677 0.16033 0.0
C219 C 0.3913 0.60061 0.16654 0.0
C220 C 0.39553 0.59343 0.19238 0.0
C221 C 0.40136 0.61238 0.21251 0.0
C222 C 0.40294 0.63863 0.20617 0.0
C223 C 0.39875 0.64577 0.18029 0.0
P224 P 0.13218 0.37491 0.63951 0.0
H225 H 0.14763 0.33016 0.61004 0.0
H226 H 0.12436 0.29474 0.58506 0.0
H227 H 0.05562 0.33319 0.59493 0.0
H228 H 0.07918 0.36888 0.61967 0.0
H229 H 0.18081 0.39893 0.65665 0.0
H230 H 0.21388 0.42326 0.63418 0.0
H231 H 0.16683 0.42065 0.56352 0.0
H232 H 0.13372 0.39571 0.58628 0.0
H233 H 0.08836 0.36018 0.66972 0.0
H234 H 0.1341 0.43013 0.65636 0.0
O235 O 0.1482 0.35741 0.66018 0.0
H236 H 0.06896 0.38207 0.70661 0.0
H237 H 0.11515 0.45168 0.69377 0.0
C238 C 0.11508 0.35185 0.61717 0.0
C239 C 0.12762 0.33119 0.60645 0.0
C240 C 0.11429 0.31098 0.59211 0.0
C241 C 0.08808 0.31101 0.58827 0.0
C242 C 0.07573 0.33243 0.59794 0.0
C243 C 0.08919 0.35285 0.61207 0.0
C244 C 0.15511 0.39502 0.62292 0.0
C245 C 0.17753 0.40369 0.63635 0.0
C246 C 0.19634 0.41789 0.62354 0.0
C247 C 0.19305 0.42386 0.59699 0.0
C248 C 0.17005 0.41607 0.58387 0.0
C249 C 0.15113 0.40185 0.59683 0.0
C250 C 0.11245 0.39355 0.65997 0.0
C251 C 0.09342 0.38054 0.6739 0.0
C252 C 0.08234 0.39302 0.69498 0.0
C253 C 0.09046 0.41853 0.70267 0.0
C254 C 0.10834 0.43212 0.68778 0.0
C255 C 0.11922 0.41972 0.66647 0.0
O256 O 0.97153 0.02157 0.50532 0.0
Mn257 Mn 0.00403 0.00153 0.51056 0.0
O258 O 0.95436 0.00766 0.46641 0.0
Mn259 Mn 0.9791 0.98551 0.45964 0.0
O260 O 0.03701 0.9821 0.51718 0.0
O261 O 0.01823 0.03265 0.53226 0.0
Mn262 Mn 0.03136 0.02323 0.56207 0.0
O263 O 0.98726 0.98494 0.54407 0.0
O264 O 0.05638 0.00197 0.55322 0.0
O265 O 0.0218 0.01932 0.47826 0.0
O266 O 0.00586 0.99885 0.44172 0.0
O267 O 0.0362 0.05878 0.56258 0.0
O268 O 0.00489 0.00769 0.57933 0.0
C269 C 0.97967 0.94893 0.47401 0.0
C270 C 0.95443 0.02182 0.48721 0.0
C271 C 0.05534 0.98506 0.53432 0.0
C272 C 0.02449 0.05631 0.53995 0.0
C273 C 0.98874 0.99085 0.56901 0.0
C274 C 0.02174 0.01481 0.45325 0.0
O275 O 0.98911 0.9693 0.48819 0.0
O276 O 0.96933 0.95274 0.45124 0.0
O277 O 0.49492 0.0103 0.96654 0.0
Mn278 Mn 0.50396 0.01197 0.0069 0.0
O279 O 0.50671 0.97119 0.95219 0.0
Mn280 Mn 0.51614 0.95839 0.98416 0.0
O281 O 0.51408 0.01344 0.04752 0.0
O282 O 0.50999 0.05091 0.00669 0.0
Mn283 Mn 0.49542 0.06437 0.03449 0.0
O284 O 0.46538 0.01434 0.01447 0.0
O285 O 0.51809 0.05594 0.05984 0.0
O286 O 0.5429 0.00908 0.9988 0.0
O287 O 0.54885 0.96661 0.99494 0.0
O288 O 0.49743 0.08947 0.01003 0.0
O289 O 0.46296 0.05096 0.03871 0.0
C290 C 0.48832 0.95051 0.01251 0.0
C291 C 0.49794 0.99308 0.94818 0.0
C292 C 0.5219 0.03231 0.06365 0.0
C293 C 0.50589 0.07183 0.99469 0.0
C294 C 0.45288 0.03029 0.02791 0.0
C295 C 0.5574 0.99004 0.99726 0.0
O296 O 0.49769 0.97337 0.00754 0.0
O297 O 0.49729 0.93192 0.99876 0.0
O298 O 0.53171 0.51843 0.50545 0.0
Mn299 Mn 0.49326 0.50729 0.50511 0.0
O300 O 0.54465 0.51023 0.4643 0.0
Mn301 Mn 0.5142 0.49586 0.45036 0.0
O302 O 0.45467 0.49548 0.50505 0.0
O303 O 0.49656 0.50282 0.54369 0.0
Mn304 Mn 0.47192 0.51553 0.56087 0.0
O305 O 0.48519 0.54618 0.51142 0.0
O306 O 0.44375 0.4964 0.54765 0.0
O307 O 0.5012 0.46824 0.49952 0.0
O308 O 0.50723 0.46138 0.45637 0.0
O309 O 0.49273 0.50245 0.58591 0.0
O310 O 0.4743 0.55027 0.55391 0.0
C311 C 0.48385 0.51941 0.44312 0.0
C312 C 0.54878 0.5182 0.48811 0.0
C313 C 0.43898 0.49072 0.52338 0.0
C314 C 0.50584 0.49642 0.56584 0.0
C315 C 0.47918 0.5598 0.53172 0.0
C316 C 0.50418 0.45316 0.47935 0.0
O317 O 0.49054 0.51225 0.46615 0.0
O318 O 0.49723 0.51128 0.42405 0.0
O319 O 0.96216 0.4902 0.00159 0.0
Mn320 Mn -0.00139 0.5064 0.00684 0.0
O321 O 0.94735 0.50899 0.96632 0.0
Mn322 Mn 0.97818 0.52016 0.95359 0.0
O323 O 0.03558 0.52234 0.01422 0.0
O324 O 0.9915 0.50727 0.04619 0.0
Mn325 Mn 0.01599 0.49092 0.06071 0.0
O326 O 0.01118 0.46817 0.00693 0.0
O327 O 0.04533 0.51041 0.05524 0.0
O328 O 0.98676 0.54537 0.00485 0.0
O329 O 0.98666 0.55415 0.96175 0.0
O330 O 0.99746 0.49965 0.08837 0.0
O331 O 0.0142 0.4571 0.04884 0.0
C332 C 0.00422 0.49147 0.94629 0.0
C333 C 0.94419 0.49513 0.98603 0.0
C334 C 0.05053 0.52252 0.03455 0.0
C335 C 0.98416 0.50991 0.07035 0.0
C336 C 0.0145 0.45134 0.02451 0.0
C337 C 0.98636 0.56155 0.98586 0.0
O338 O 0.00501 0.50626 0.96752 0.0
O339 O 0.98857 0.49802 0.92829 0.0
C340 C 0.08369 0.11383 0.24934 0.0
C341 C 0.10168 0.10031 0.2357 0.0
C342 C 0.07417 0.10481 0.27296 0.0
C343 C 0.06975 0.04759 0.31536 0.0
H344 H 0.06644 0.09948 0.37187 0.0
C345 C 0.05582 0.0167 0.42129 0.0
C346 C 0.03839 0.0298 0.43599 0.0
C347 C 0.06494 0.02679 0.39801 0.0
C348 C 0.06704 0.08473 0.3563 0.0
H349 H 0.12229 0.06559 0.23543 0.0
H350 H 0.10619 0.05021 0.27675 0.0
H351 H 0.07672 0.1128 0.32779 0.0
H352 H 0.01744 0.06405 0.43854 0.0
H353 H 0.03327 0.08185 0.39787 0.0
H354 H 0.05999 0.01951 0.34376 0.0
C355 C 0.09936 0.0678 0.26922 0.0
C356 C 0.07284 0.09238 0.33093 0.0
C357 C 0.10883 0.07679 0.2456 0.0
C358 C 0.03148 0.05401 0.42795 0.0
C359 C 0.04039 0.06403 0.40446 0.0
C360 C 0.0639 0.03994 0.34069 0.0
C361 C 0.08239 0.08203 0.28358 0.0
C362 C 0.07452 0.0739 0.31016 0.0
C363 C 0.05643 0.04999 0.38861 0.0
C364 C 0.06274 0.05837 0.36162 0.0
H365 H 0.07777 0.13206 0.24247 0.0
H366 H 0.06075 0.116 0.28319 0.0
H367 H 0.07041 0.03284 0.29979 0.0
H368 H 0.061 0.99772 0.42683 0.0
H369 H 0.07776 0.01575 0.38673 0.0
C370 C 0.39897 0.94261 0.73245 0.0
C371 C 0.41543 0.92895 0.71687 0.0
C372 C 0.40602 0.95103 0.75817 0.0
C373 C 0.45209 0.9408 0.81205 0.0
H374 H 0.43869 0.01063 0.83534 0.0
C375 C 0.5048 0.98853 0.90061 0.0
C376 C 0.48972 0.99704 0.92094 0.0
C377 C 0.49464 0.98354 0.87534 0.0
C378 C 0.44237 0.99106 0.82911 0.0
H379 H 0.45181 0.91258 0.71645 0.0
H380 H 0.46437 0.92778 0.76091 0.0
H381 H 0.42206 0.99325 0.79247 0.0
H382 H 0.45293 0.00928 0.93053 0.0
H383 H 0.43501 0.00078 0.88578 0.0
H384 H 0.47289 0.93881 0.84831 0.0
C385 C 0.44589 0.93181 0.75343 0.0
C386 C 0.43277 0.98102 0.80468 0.0
C387 C 0.43883 0.92337 0.72779 0.0
C388 C 0.46496 0.00301 0.91504 0.0
C389 C 0.45469 0.99795 0.88957 0.0
C390 C 0.46182 0.95088 0.83625 0.0
C391 C 0.42968 0.94595 0.76887 0.0
C392 C 0.43791 0.95592 0.79569 0.0
C393 C 0.46917 0.98692 0.86992 0.0
C394 C 0.45747 0.97626 0.84479 0.0
H395 H 0.38087 0.94737 0.72455 0.0
H396 H 0.39298 0.9616 0.76964 0.0
H397 H 0.45586 0.92118 0.80608 0.0
H398 H 0.52399 0.98386 0.90474 0.0
H399 H 0.50633 0.97558 0.86038 0.0
C400 C 0.57105 0.41557 0.75492 0.0
C401 C 0.59059 0.42927 0.76966 0.0
C402 C 0.56387 0.4239 0.73027 0.0
C403 C 0.56958 0.47693 0.68418 0.0
H404 H 0.57083 0.4207 0.63172 0.0
C405 C 0.55001 0.49921 0.57938 0.0
C406 C 0.52905 0.48361 0.56975 0.0
C407 C 0.56498 0.49068 0.5998 0.0
C408 C 0.57047 0.43661 0.64608 0.0
H409 H 0.61564 0.46406 0.77187 0.0
H410 H 0.6031 0.47859 0.72869 0.0
H411 H 0.57623 0.41198 0.67819 0.0
H412 H 0.5102 0.44541 0.56949 0.0
H413 H 0.53608 0.43034 0.60482 0.0
H414 H 0.5629 0.50145 0.65237 0.0
C415 C 0.59359 0.46129 0.73601 0.0
C416 C 0.57332 0.43159 0.6727 0.0
C417 C 0.60081 0.45294 0.76066 0.0
C418 C 0.52634 0.45772 0.57674 0.0
C419 C 0.5411 0.44921 0.59729 0.0
C420 C 0.5665 0.48193 0.65758 0.0
C421 C 0.57605 0.44606 0.72006 0.0
C422 C 0.57257 0.45163 0.69199 0.0
C423 C 0.55896 0.46653 0.61063 0.0
C424 C 0.56662 0.46177 0.6382 0.0
H425 H 0.5628 0.39729 0.76136 0.0
H426 H 0.54982 0.41219 0.71855 0.0
H427 H 0.56893 0.49271 0.69867 0.0
H428 H 0.55243 0.5193 0.57415 0.0
H429 H 0.57929 0.50412 0.60904 0.0
C430 C 0.93024 0.58099 0.27845 0.0
C431 C 0.9109 0.56614 0.29022 0.0
C432 C 0.93719 0.57491 0.25279 0.0
C433 C 0.90941 0.54288 0.19188 0.0
H434 H 0.97665 0.55536 0.16606 0.0
C435 C 0.94278 0.51069 0.08918 0.0
C436 C 0.96348 0.52493 0.07918 0.0
C437 C 0.93235 0.51873 0.11281 0.0
C438 C 0.95765 0.55228 0.17288 0.0
H439 H 0.88552 0.53172 0.28531 0.0
H440 H 0.89791 0.52088 0.24062 0.0
H441 H 0.96975 0.55943 0.21307 0.0
H442 H 0.98654 0.56084 0.08325 0.0
H443 H 0.96775 0.57552 0.12385 0.0
H444 H 0.89747 0.53524 0.15161 0.0
C445 C 0.90713 0.53772 0.25091 0.0
C446 C 0.95374 0.55443 0.19989 0.0
C447 C 0.90014 0.54384 0.27656 0.0
C448 C 0.97043 0.5496 0.09041 0.0
C449 C 0.96013 0.55765 0.11409 0.0
C450 C 0.91336 0.5406 0.16484 0.0
C451 C 0.92501 0.5538 0.23833 0.0
C452 C 0.92955 0.54988 0.20975 0.0
C453 C 0.94237 0.54131 0.12653 0.0
C454 C 0.9375 0.54546 0.15499 0.0
H455 H 0.93878 0.59842 0.2883 0.0
H456 H 0.951 0.58778 0.24377 0.0
H457 H 0.89044 0.53966 0.19871 0.0
H458 H 0.93729 0.49143 0.08108 0.0
H459 H 0.91853 0.50577 0.1217 0.0
C460 C 0.24645 0.08105 0.10521 0.0
C461 C 0.24009 0.10515 0.09599 0.0
C462 C 0.26782 0.06938 0.09624 0.0
C463 C 0.32888 0.08657 0.06561 0.0
H464 H 0.33159 0.01244 0.05334 0.0
C465 C 0.41228 0.04612 0.01446 0.0
C466 C 0.42517 0.02792 0.02832 0.0
C467 C 0.38806 0.05197 0.02128 0.0
C468 C 0.3311 0.03315 0.05686 0.0
H469 H 0.2507 0.13501 0.06883 0.0
H470 H 0.28768 0.11482 0.05328 0.0
H471 H 0.29246 0.03012 0.06795 0.0
H472 H 0.4224 0.00062 0.05943 0.0
H473 H 0.37922 0.0101 0.07078 0.0
H474 H 0.36727 0.0897 0.05425 0.0
C475 C 0.27654 0.10515 0.06795 0.0
C476 C 0.30873 0.04331 0.06529 0.0
C477 C 0.25523 0.11677 0.07687 0.0
C478 C 0.41259 0.01419 0.04793 0.0
C479 C 0.38802 0.01984 0.0546 0.0
C480 C 0.35103 0.07647 0.05702 0.0
C481 C 0.28344 0.08152 0.07783 0.0
C482 C 0.30725 0.07023 0.06949 0.0
C483 C 0.37601 0.03969 0.04211 0.0
C484 C 0.35237 0.04971 0.05222 0.0
H485 H 0.23546 0.0716 0.12013 0.0
H486 H 0.27256 0.05129 0.10445 0.0
H487 H 0.3288 0.10728 0.06937 0.0
H488 H 0.42179 0.05744 0.99974 0.0
H489 H 0.37923 0.06716 0.01113 0.0
C490 C 0.2621 0.92712 0.5957 0.0
C491 C 0.27788 0.91787 0.5764 0.0
C492 C 0.23716 0.9316 0.58932 0.0
C493 C 0.18696 0.91846 0.53658 0.0
H494 H 0.1568 0.97436 0.57425 0.0
C495 C 0.09185 0.96661 0.51184 0.0
C496 C 0.07642 0.96813 0.5337 0.0
C497 C 0.11576 0.95696 0.51456 0.0
C498 C 0.16503 0.95868 0.56358 0.0
H499 H 0.28023 0.9063 0.53528 0.0
H500 H 0.23709 0.91517 0.52374 0.0
H501 H 0.20024 0.96594 0.58422 0.0
H502 H 0.07269 0.95908 0.57469 0.0
H503 H 0.1141 0.94227 0.57932 0.0
H504 H 0.15152 0.91213 0.51533 0.0
C505 C 0.24351 0.91817 0.54404 0.0
C506 C 0.18988 0.95363 0.56946 0.0
C507 C 0.26832 0.91321 0.55057 0.0
C508 C 0.08428 0.95804 0.55755 0.0
C509 C 0.10798 0.94859 0.56027 0.0
C510 C 0.16215 0.92391 0.53034 0.0
C511 C 0.22755 0.92747 0.56331 0.0
C512 C 0.20116 0.93321 0.55633 0.0
C513 C 0.12431 0.94894 0.53916 0.0
C514 C 0.15093 0.94383 0.54408 0.0
H515 H 0.26897 0.93056 0.61584 0.0
H516 H 0.22541 0.93812 0.60492 0.0
H517 H 0.19476 0.90236 0.52625 0.0
H518 H 0.08632 0.97469 0.49341 0.0
H519 H 0.12817 0.95744 0.49805 0.0
C520 C 0.74151 0.44308 0.8951 0.0
C521 C 0.72305 0.42991 0.90953 0.0
C522 C 0.76377 0.45324 0.90761 0.0
C523 C 0.79681 0.46675 0.97227 0.0
H524 H 0.85427 0.44597 0.9335 0.0
C525 C 0.90014 0.50137 0.99623 0.0
C526 C 0.91868 0.48437 0.99012 0.0
C527 C 0.8748 0.49353 0.99196 0.0
C528 C 0.8384 0.45153 0.94477 0.0
H529 H 0.71212 0.41815 0.94812 0.0
H530 H 0.75119 0.43579 0.97021 0.0
H531 H 0.81238 0.43872 0.91371 0.0
H532 H 0.92588 0.44559 0.97657 0.0
H533 H 0.88136 0.43159 0.96925 0.0
H534 H 0.82311 0.47935 0.00347 0.0
C535 C 0.74849 0.43863 0.94938 0.0
C536 C 0.81443 0.44789 0.9332 0.0
C537 C 0.72618 0.42853 0.93683 0.0
C538 C 0.91171 0.4588 0.98175 0.0
C539 C 0.88634 0.45097 0.97728 0.0
C540 C 0.8209 0.47048 0.98387 0.0
C541 C 0.76794 0.45005 0.93468 0.0
C542 C 0.79338 0.45552 0.94676 0.0
C543 C 0.86776 0.4687 0.98112 0.0
C544 C 0.84192 0.46285 0.97021 0.0
H545 H 0.73933 0.44414 0.87394 0.0
H546 H 0.77826 0.46239 0.89589 0.0
H547 H 0.7809 0.47281 0.98317 0.0
H548 H 0.90534 0.52131 0.00239 0.0
H549 H 0.86096 0.50765 0.99499 0.0
C550 C 0.77029 0.55523 0.44678 0.0
C551 C 0.77318 0.57924 0.43481 0.0
C552 C 0.74729 0.54719 0.45763 0.0
C553 C 0.69035 0.57406 0.48371 0.0
H554 H 0.65792 0.5057 0.469 0.0
C555 C 0.58408 0.55168 0.4897 0.0
C556 C 0.57483 0.52668 0.49547 0.0
C557 C 0.60997 0.55767 0.48888 0.0
C558 C 0.66694 0.52469 0.47386 0.0
H559 H 0.75385 0.61273 0.4232 0.0
H560 H 0.71407 0.59884 0.4421 0.0
H561 H 0.70013 0.51601 0.45327 0.0
H562 H 0.58481 0.4886 0.5062 0.0
H563 H 0.63026 0.49915 0.50542 0.0
H564 H 0.65713 0.58302 0.50382 0.0
C565 C 0.72965 0.58656 0.44384 0.0
C566 C 0.69109 0.53059 0.46472 0.0
C567 C 0.75246 0.59452 0.43303 0.0
C568 C 0.5917 0.50816 0.50211 0.0
C569 C 0.61763 0.51411 0.50128 0.0
C570 C 0.66633 0.56814 0.49296 0.0
C571 C 0.72692 0.56306 0.45667 0.0
C572 C 0.70272 0.55557 0.46894 0.0
C573 C 0.62704 0.53864 0.49361 0.0
C574 C 0.65403 0.54361 0.48755 0.0
H575 H 0.78593 0.54302 0.44833 0.0
H576 H 0.74564 0.52891 0.46733 0.0
H577 H 0.69909 0.59335 0.48769 0.0
H578 H 0.5713 0.56602 0.48398 0.0
H579 H 0.61646 0.57666 0.48261 0.0
C580 C 0.0843 0.23975 0.07843 0.0
C581 C 0.10443 0.24378 0.09684 0.0
C582 C 0.07371 0.26087 0.06684 0.0
C583 C 0.07152 0.33285 0.07642 0.0
H584 H 0.04409 0.32906 0.00491 0.0
C585 C 0.0504 0.42418 0.02351 0.0
C586 C 0.02468 0.42622 0.01803 0.0
C587 C 0.05965 0.40027 0.02882 0.0
C588 C 0.05162 0.33027 0.02492 0.0
H589 H 0.13002 0.27295 0.11651 0.0
H590 H 0.11249 0.3094 0.09578 0.0
H591 H 0.06134 0.29073 0.02353 0.0
H592 H 0.98868 0.40465 0.01231 0.0
H593 H 0.00524 0.36223 0.02012 0.0
H594 H 0.06263 0.37258 0.07741 0.0
C595 C 0.10396 0.29021 0.09095 0.0
C596 C 0.06139 0.30831 0.03572 0.0
C597 C 0.11421 0.26924 0.10277 0.0
C598 C 0.00871 0.40349 0.01567 0.0
C599 C 0.01813 0.37932 0.02045 0.0
C600 C 0.06224 0.35477 0.06549 0.0
C601 C 0.08325 0.28648 0.07311 0.0
C602 C 0.07176 0.30936 0.06158 0.0
C603 C 0.04345 0.37775 0.02835 0.0
C604 C 0.05241 0.35382 0.03959 0.0
H605 H 0.07633 0.22034 0.07355 0.0
H606 H 0.05768 0.25709 0.05342 0.0
H607 H 0.07846 0.33442 0.09663 0.0
H608 H 0.06294 0.44149 0.02626 0.0
H609 H 0.07922 0.3996 0.03488 0.0
C610 C 0.56824 0.27377 0.91322 0.0
C611 C 0.59216 0.27719 0.90258 0.0
C612 C 0.55988 0.24958 0.92235 0.0
C613 C 0.56914 0.18098 0.91042 0.0
H614 H 0.53821 0.17009 0.97755 0.0
C615 C 0.50907 0.09142 0.95162 0.0
C616 C 0.52135 0.08158 0.97344 0.0
C617 C 0.51968 0.11316 0.9394 0.0
C618 C 0.54679 0.17301 0.95872 0.0
H619 H 0.62648 0.25904 0.8938 0.0
H620 H 0.612 0.21684 0.90977 0.0
H621 H 0.55179 0.21422 0.96544 0.0
H622 H 0.55515 0.08512 0.99817 0.0
H623 H 0.57349 0.12326 0.97705 0.0
H624 H 0.56386 0.13976 0.90369 0.0
C625 C 0.5996 0.23255 0.91089 0.0
C626 C 0.5544 0.19814 0.95178 0.0
C627 C 0.60794 0.25663 0.90196 0.0
C628 C 0.54567 0.09185 0.98086 0.0
C629 C 0.55594 0.11397 0.96918 0.0
C630 C 0.56119 0.15592 0.91721 0.0
C631 C 0.57531 0.2286 0.92061 0.0
C632 C 0.56597 0.20229 0.9277 0.0
C633 C 0.54243 0.12541 0.94924 0.0
C634 C 0.55026 0.15178 0.94151 0.0
H635 H 0.55581 0.28948 0.91364 0.0
H636 H 0.54106 0.24699 0.92976 0.0
H637 H 0.57774 0.18373 0.89159 0.0
H638 H 0.49006 0.08424 0.94602 0.0
H639 H 0.50904 0.12179 0.92398 0.0
C640 C 0.89707 0.73008 0.44988 0.0
C641 C 0.91534 0.71325 0.44234 0.0
C642 C 0.90416 0.75442 0.4615 0.0
C643 C 0.95754 0.79605 0.49212 0.0
H644 H 0.9256 0.85088 0.45695 0.0
C645 C 0.97095 0.91265 0.50491 0.0
C646 C 0.98072 0.92173 0.48133 0.0
C647 C 0.96402 0.88607 0.50703 0.0
C648 C 0.93432 0.83577 0.46735 0.0
H649 H 0.95515 0.70786 0.44174 0.0
H650 H 0.96779 0.75059 0.46223 0.0
H651 H 0.9102 0.80598 0.44796 0.0
H652 H 0.99271 0.91024 0.44249 0.0
H653 H 0.98065 0.8645 0.44623 0.0
H654 H 0.98245 0.8263 0.51048 0.0
C655 C 0.94795 0.74493 0.45944 0.0
C656 C 0.92551 0.81005 0.46226 0.0
C657 C 0.9408 0.72056 0.44765 0.0
C658 C 0.98541 0.90374 0.46098 0.0
C659 C 0.97837 0.87758 0.463 0.0
C660 C 0.96625 0.82196 0.49739 0.0
C661 C 0.92972 0.76244 0.4658 0.0
C662 C 0.93735 0.78979 0.47409 0.0
C663 C 0.96677 0.86864 0.48557 0.0
C664 C 0.95501 0.84193 0.48458 0.0
H665 H 0.87731 0.72477 0.4458 0.0
H666 H 0.88965 0.76731 0.46639 0.0
H667 H 0.96697 0.78088 0.50164 0.0
H668 H 0.96674 0.92618 0.52067 0.0
H669 H 0.95501 0.87947 0.52462 0.0
C670 C 0.40409 0.77777 0.5498 0.0
C671 C 0.41155 0.78956 0.57435 0.0
C672 C 0.41064 0.75273 0.54312 0.0
C673 C 0.4327 0.69361 0.57247 0.0
H674 H 0.4561 0.67841 0.50236 0.0
C675 C 0.48521 0.6039 0.5518 0.0
C676 C 0.47671 0.5878 0.53017 0.0
C677 C 0.47771 0.62903 0.5545 0.0
C678 C 0.44938 0.68234 0.5219 0.0
H679 H 0.43176 0.78443 0.61109 0.0
H680 H 0.4434 0.74092 0.59941 0.0
H681 H 0.44088 0.72096 0.51309 0.0
H682 H 0.45503 0.58565 0.49349 0.0
H683 H 0.44175 0.63015 0.49819 0.0
H684 H 0.44157 0.65526 0.58146 0.0
C685 C 0.43208 0.75076 0.58547 0.0
C686 C 0.44059 0.70664 0.52807 0.0
C687 C 0.42545 0.77572 0.59218 0.0
C688 C 0.46203 0.59787 0.51019 0.0
C689 C 0.45434 0.6232 0.51298 0.0
C690 C 0.44157 0.66948 0.56637 0.0
C691 C 0.42485 0.73899 0.56082 0.0
C692 C 0.43254 0.71268 0.55357 0.0
C693 C 0.46133 0.63858 0.53573 0.0
C694 C 0.45044 0.66374 0.54119 0.0
H695 H 0.39305 0.78784 0.53581 0.0
H696 H 0.40442 0.74408 0.52417 0.0
H697 H 0.42605 0.69735 0.59209 0.0
H698 H 0.49665 0.59655 0.5674 0.0
H699 H 0.48393 0.64066 0.57188 0.0
C700 C 0.91025 0.8981 0.7721 0.0
C701 C 0.91116 0.91733 0.79247 0.0
C702 C 0.91789 0.90397 0.74675 0.0
C703 C 0.95259 0.95578 0.70939 0.0
H704 H 0.9196 0.91901 0.64881 0.0
C705 C 0.9605 0.99454 0.60634 0.0
C706 C 0.97159 0.97838 0.58783 0.0
C707 C 0.95133 0.98481 0.62967 0.0
C708 C 0.92906 0.92926 0.66557 0.0
H709 H 0.9214 0.95798 0.80173 0.0
H710 H 0.93313 0.96851 0.75754 0.0
H711 H 0.90775 0.90736 0.69312 0.0
H712 H 0.98044 0.93898 0.57851 0.0
H713 H 0.96343 0.92155 0.61938 0.0
H714 H 0.97296 0.97846 0.68162 0.0
C715 C 0.92719 0.94861 0.76117 0.0
C716 C 0.92243 0.92255 0.69107 0.0
C717 C 0.91994 0.94265 0.78662 0.0
C718 C 0.97147 0.95173 0.59216 0.0
C719 C 0.96202 0.94186 0.61564 0.0
C720 C 0.9588 0.96278 0.68398 0.0
C721 C 0.92633 0.92937 0.74077 0.0
C722 C 0.93395 0.93585 0.71344 0.0
C723 C 0.95287 0.95861 0.63505 0.0
C724 C 0.94698 0.94977 0.66181 0.0
H725 H 0.90333 0.87844 0.77556 0.0
H726 H 0.91729 0.88841 0.73191 0.0
H727 H 0.96253 0.96606 0.72584 0.0
H728 H 0.96058 0.0152 0.6036 0.0
H729 H 0.94409 0.99807 0.64412 0.0
C730 C 0.57977 0.08544 0.29209 0.0
C731 C 0.60082 0.1032 0.29213 0.0
C732 C 0.56992 0.074 0.26827 0.0
C733 C 0.56957 0.08521 0.19715 0.0
H734 H 0.55159 0.01158 0.18746 0.0
C735 C 0.55773 0.04121 0.09452 0.0
C736 C 0.53456 0.02755 0.08869 0.0
C737 C 0.56592 0.046 0.12053 0.0
C738 C 0.55641 0.03218 0.19001 0.0
H739 H 0.6287 0.12242 0.26817 0.0
H740 H 0.61204 0.10222 0.22684 0.0
H741 H 0.56412 0.0299 0.23147 0.0
H742 H 0.50266 0.00634 0.10493 0.0
H743 H 0.51718 0.01454 0.15089 0.0
H744 H 0.5623 0.08766 0.15594 0.0
C745 C 0.60261 0.09751 0.24482 0.0
C746 C 0.56344 0.04267 0.21514 0.0
C747 C 0.61225 0.10896 0.26841 0.0
C748 C 0.52084 0.0165 0.10908 0.0
C749 C 0.52903 0.0214 0.1353 0.0
C750 C 0.56272 0.07478 0.17222 0.0
C751 C 0.58113 0.08021 0.24437 0.0
C752 C 0.57073 0.0692 0.21876 0.0
C753 C 0.55094 0.03743 0.14119 0.0
C754 C 0.55672 0.04808 0.16824 0.0
H755 H 0.57075 0.08085 0.31032 0.0
H756 H 0.5533 0.06081 0.26847 0.0
H757 H 0.57438 0.10584 0.19945 0.0
H758 H 0.56843 0.05013 0.07904 0.0
H759 H 0.58315 0.05797 0.12453 0.0
C760 C 0.39591 0.61868 0.26114 0.0
C761 C 0.40584 0.60481 0.24 0.0
C762 C 0.40046 0.6118 0.28704 0.0
C763 C 0.4457 0.5797 0.32753 0.0
H764 H 0.39276 0.57428 0.3784 0.0
C765 C 0.44184 0.52454 0.42464 0.0
C766 C 0.46363 0.53618 0.43733 0.0
C767 C 0.42934 0.53757 0.40518 0.0
C768 C 0.40767 0.57606 0.3644 0.0
H769 H 0.42835 0.57283 0.2295 0.0
H770 H 0.43621 0.56076 0.27474 0.0
H771 H 0.38281 0.58619 0.33314 0.0
H772 H 0.4876 0.57143 0.44241 0.0
H773 H 0.46572 0.59431 0.40849 0.0
H774 H 0.4705 0.56943 0.35859 0.0
C775 C 0.42496 0.57701 0.27123 0.0
C776 C 0.40205 0.58282 0.3386 0.0
C777 C 0.42028 0.58378 0.24533 0.0
C778 C 0.47056 0.56227 0.43318 0.0
C779 C 0.45827 0.57521 0.41355 0.0
C780 C 0.45136 0.57343 0.35332 0.0
C781 C 0.4152 0.59103 0.29236 0.0
C782 C 0.421 0.58444 0.31986 0.0
C783 C 0.43869 0.56227 0.39825 0.0
C784 C 0.43241 0.57149 0.37193 0.0
H785 H 0.38449 0.6348 0.25765 0.0
H786 H 0.39286 0.62305 0.30295 0.0
H787 H 0.4607 0.58095 0.31359 0.0
H788 H 0.43655 0.50423 0.42712 0.0
H789 H 0.41439 0.52717 0.39349 0.0
C790 C 0.10165 0.42374 0.74996 0.0
C791 C 0.08493 0.42834 0.72925 0.0
C792 C 0.09614 0.43057 0.77579 0.0
C793 C 0.05941 0.47219 0.81715 0.0
H794 H 0.06802 0.41988 0.86876 0.0
C795 C 0.04525 0.49548 0.92612 0.0
C796 C 0.0261 0.47907 0.93621 0.0
C797 C 0.0571 0.48821 0.90305 0.0
C798 C 0.06568 0.43471 0.85462 0.0
H799 H 0.04963 0.44404 0.71871 0.0
H800 H 0.03995 0.45659 0.76437 0.0
H801 H 0.07688 0.41045 0.82266 0.0
H802 H 0.00693 0.44097 0.93253 0.0
H803 H 0.0287 0.42755 0.89329 0.0
H804 H 0.04785 0.49633 0.84909 0.0
C805 C 0.05734 0.44764 0.76053 0.0
C806 C 0.07078 0.42937 0.82825 0.0
C807 C 0.06279 0.44049 0.73454 0.0
C808 C 0.02196 0.45377 0.92543 0.0
C809 C 0.03413 0.44629 0.90264 0.0
C810 C 0.05457 0.47765 0.84361 0.0
C811 C 0.07381 0.44227 0.78145 0.0
C812 C 0.06771 0.44803 0.80924 0.0
C813 C 0.05047 0.46413 0.89023 0.0
C814 C 0.05765 0.45895 0.86262 0.0
H815 H 0.11879 0.41428 0.74617 0.0
H816 H 0.10933 0.42653 0.79142 0.0
H817 H 0.05694 0.48694 0.80294 0.0
H818 H 0.04843 0.51528 0.93374 0.0
H819 H 0.06998 0.50218 0.89415 0.0
C820 C 0.76543 0.91964 0.95691 0.0
C821 C 0.77515 0.92317 0.93174 0.0
C822 C 0.74243 0.92923 0.96369 0.0
C823 C 0.68326 0.95291 0.93605 0.0
H824 H 0.67897 0.98437 0.00599 0.0
C825 C 0.59352 0.00119 0.96893 0.0
C826 C 0.58476 0.99411 0.99361 0.0
C827 C 0.61781 0.99573 0.96134 0.0
C828 C 0.67974 0.97554 0.98643 0.0
H829 H 0.76763 0.93927 0.8938 0.0
H830 H 0.72742 0.95578 0.90558 0.0
H831 H 0.71821 0.96716 0.99235 0.0
H832 H 0.5947 0.97638 0.02989 0.0
H833 H 0.63726 0.9678 0.01727 0.0
H834 H 0.64465 0.9611 0.93026 0.0
C835 C 0.73762 0.94546 0.92007 0.0
C836 C 0.70228 0.96556 0.97861 0.0
C837 C 0.76073 0.93592 0.91329 0.0
C838 C 0.60126 0.98287 0.01112 0.0
C839 C 0.6256 0.97771 0.00371 0.0
C840 C 0.66067 0.96292 0.94388 0.0
C841 C 0.72833 0.9426 0.94552 0.0
C842 C 0.70434 0.95386 0.9534 0.0
C843 C 0.63393 0.9832 0.97835 0.0
C844 C 0.65853 0.97421 0.96928 0.0
H845 H 0.77559 0.9094 0.97149 0.0
H846 H 0.73564 0.92606 0.98326 0.0
H847 H 0.68399 0.94382 0.9166 0.0
H848 H 0.5809 0.009 0.95469 0.0
H849 H 0.62362 0.00045 0.94176 0.0
C850 C 0.75 0.10924 0.45408 0.0
C851 C 0.74115 0.10173 0.42851 0.0
C852 C 0.77211 0.09987 0.46423 0.0
C853 C 0.83043 0.07454 0.4398 0.0
H854 H 0.84475 0.06365 0.51349 0.0
C855 C 0.93051 0.05832 0.47332 0.0
C856 C 0.93317 0.03797 0.4903 0.0
C857 C 0.9072 0.06863 0.4698 0.0
C858 C 0.84104 0.06652 0.49282 0.0
H859 H 0.74708 0.07672 0.39448 0.0
H860 H 0.78529 0.05991 0.41233 0.0
H861 H 0.80225 0.07253 0.49911 0.0
H862 H 0.9144 0.01304 0.51784 0.0
H863 H 0.87339 0.03055 0.51138 0.0
H864 H 0.8687 0.06756 0.43314 0.0
C865 C 0.77572 0.07372 0.42425 0.0
C866 C 0.81671 0.0718 0.48461 0.0
C867 C 0.75376 0.08322 0.41406 0.0
C868 C 0.91274 0.02915 0.50506 0.0
C869 C 0.88926 0.03916 0.50124 0.0
C870 C 0.8546 0.06908 0.44793 0.0
C871 C 0.7857 0.08269 0.44905 0.0
C872 C 0.81113 0.07589 0.45797 0.0
C873 C 0.88597 0.05822 0.48265 0.0
C874 C 0.86031 0.06514 0.47456 0.0
H875 H 0.74071 0.12357 0.46562 0.0
H876 H 0.77926 0.10727 0.48335 0.0
H877 H 0.82702 0.07805 0.41921 0.0
H878 H 0.94607 0.06512 0.46153 0.0
H879 H 0.90555 0.08381 0.45591 0.0
C880 C 0.26403 0.58603 0.10726 0.0
C881 C 0.27645 0.60769 0.09641 0.0
C882 C 0.23941 0.57802 0.09913 0.0
C883 C 0.19207 0.5855 0.04519 0.0
H884 H 0.1462 0.55621 0.09565 0.0
C885 C 0.09309 0.53532 0.01742 0.0
C886 C 0.07442 0.53843 0.03593 0.0
C887 C 0.11774 0.5457 0.02301 0.0
C888 C 0.15866 0.56462 0.08132 0.0
H889 H 0.2728 0.63846 0.0692 0.0
H890 H 0.22947 0.62518 0.05568 0.0
H891 H 0.18871 0.57074 0.10986 0.0
H892 H 0.06597 0.55622 0.07357 0.0
H893 H 0.10834 0.57499 0.08283 0.0
H894 H 0.16149 0.58008 0.01688 0.0
C895 C 0.23893 0.61376 0.06979 0.0
C896 C 0.18324 0.5726 0.08941 0.0
C897 C 0.26368 0.62151 0.07765 0.0
C898 C 0.08016 0.55353 0.05903 0.0
C899 C 0.1045 0.56399 0.06448 0.0
C900 C 0.16734 0.57768 0.03714 0.0
C901 C 0.22653 0.59176 0.08023 0.0
C902 C 0.2003 0.58319 0.07149 0.0
C903 C 0.12384 0.55932 0.0471 0.0
C904 C 0.1503 0.56731 0.05516 0.0
H905 H 0.2736 0.57489 0.12156 0.0
H906 H 0.23071 0.56075 0.10732 0.0
H907 H 0.20477 0.59315 0.03071 0.0
H908 H 0.08908 0.52346 0.99963 0.0
H909 H 0.13224 0.5418 0.00919 0.0
C910 C 0.22054 0.42657 0.55774 0.0
C911 C 0.21446 0.43621 0.58281 0.0
C912 C 0.24314 0.43486 0.54639 0.0
C913 C 0.30662 0.45848 0.56803 0.0
H914 H 0.3182 0.46607 0.49366 0.0
C915 C 0.40558 0.45721 0.53148 0.0
C916 C 0.41369 0.47875 0.51727 0.0
C917 C 0.38003 0.45101 0.53446 0.0
C918 C 0.31518 0.46404 0.51447 0.0
H919 H 0.22621 0.46394 0.61445 0.0
H920 H 0.26561 0.4784 0.59465 0.0
H921 H 0.27499 0.46102 0.50919 0.0
H922 H 0.40176 0.50943 0.49315 0.0
H923 H 0.35665 0.49847 0.4982 0.0
H924 H 0.34653 0.46148 0.57351 0.0
C925 C 0.25317 0.46399 0.58404 0.0
C926 C 0.29052 0.46108 0.52335 0.0
C927 C 0.2306 0.45571 0.59538 0.0
C928 C 0.39586 0.49247 0.50384 0.0
C929 C 0.37011 0.48631 0.50693 0.0
C930 C 0.33112 0.46125 0.55918 0.0
C931 C 0.26013 0.45295 0.55987 0.0
C932 C 0.286 0.45812 0.55024 0.0
C933 C 0.36207 0.46642 0.52351 0.0
C934 C 0.33572 0.46372 0.53229 0.0
H935 H 0.20862 0.41142 0.5476 0.0
H936 H 0.24799 0.42589 0.52781 0.0
H937 H 0.30388 0.45592 0.58881 0.0
H938 H 0.41906 0.44648 0.54214 0.0
H939 H 0.37438 0.4352 0.54685 0.0
C940 C 0.93197 0.77486 0.92345 0.0
C941 C 0.90995 0.78458 0.93339 0.0
C942 C 0.93965 0.75075 0.93074 0.0
C943 C 0.93219 0.70252 0.98276 0.0
H944 H 0.96336 0.65825 0.93193 0.0
C945 C 0.96002 0.59686 0.00213 0.0
C946 C 0.982 0.58927 0.99026 0.0
C947 C 0.95124 0.62141 0.99766 0.0
C948 C 0.95498 0.67049 0.9465 0.0
H949 H 0.87858 0.77613 0.95866 0.0
H950 H 0.89177 0.73386 0.97108 0.0
H951 H 0.9471 0.69851 0.91808 0.0
H952 H 0.01273 0.60186 0.96581 0.0
H953 H 0.99808 0.64462 0.95881 0.0
H954 H 0.94005 0.67423 0.01114 0.0
C955 C 0.9033 0.7451 0.95786 0.0
C956 C 0.94561 0.69365 0.93852 0.0
C957 C 0.89556 0.76924 0.95048 0.0
C958 C 0.99593 0.60732 0.97553 0.0
C959 C 0.98724 0.63167 0.9711 0.0
C960 C 0.94154 0.67925 0.99075 0.0
C961 C 0.92555 0.73558 0.94822 0.0
C962 C 0.93434 0.71019 0.95657 0.0
C963 C 0.96425 0.63868 0.98114 0.0
C964 C 0.95339 0.6631 0.97281 0.0
H965 H 0.94337 0.78594 0.90998 0.0
H966 H 0.957 0.74426 0.92305 0.0
H967 H 0.92387 0.71484 0.9973 0.0
H968 H 0.94854 0.5831 0.01293 0.0
H969 H 0.93345 0.62616 0.00569 0.0
C970 C 0.41072 0.75556 0.07911 0.0
C971 C 0.41075 0.74886 0.10552 0.0
C972 C 0.41583 0.78122 0.0725 0.0
C973 C 0.42086 0.84924 0.10017 0.0
H974 H 0.45563 0.86101 0.03531 0.0
C975 C 0.47537 0.94113 0.05729 0.0
C976 C 0.46839 0.94438 0.03092 0.0
C977 C 0.46306 0.92156 0.0714 0.0
C978 C 0.44575 0.85795 0.0534 0.0
H979 H 0.41617 0.76333 0.14582 0.0
H980 H 0.42632 0.80826 0.13433 0.0
H981 H 0.44762 0.81707 0.04946 0.0
H982 H 0.44101 0.93294 -0.00015 0.0
H983 H 0.41939 0.89912 0.02448 0.0
H984 H 0.42034 0.89075 0.1043 0.0
C985 C 0.4216 0.7939 0.11868 0.0
C986 C 0.44099 0.83276 0.06148 0.0
C987 C 0.41595 0.7682 0.1253 0.0
C988 C 0.4465 0.93096 0.02031 0.0
C989 C 0.4343 0.91141 0.03428 0.0
C990 C 0.4261 0.87465 0.09225 0.0
C991 C 0.42168 0.80075 0.09214 0.0
C992 C 0.42802 0.82794 0.08469 0.0
C993 C 0.44371 0.90535 0.05913 0.0
C994 C 0.43813 0.87905 0.06853 0.0
H995 H 0.40646 0.74094 0.06357 0.0
H996 H 0.41499 0.78571 0.0519 0.0
H997 H 0.41075 0.84633 0.1181 0.0
H998 H 0.49245 0.95101 0.06568 0.0
H999 H 0.47065 0.9171 0.09054 0.0
C1000 C 0.05203 0.27716 0.5872 0.0
C1001 C 0.07374 0.28798 0.57568 0.0
C1002 C 0.03998 0.25397 0.57693 0.0
C1003 C 0.04113 0.2049 0.51967 0.0
H1004 H 0.01054 0.15953 0.57036 0.0
C1005 C 0.03783 0.09349 0.51378 0.0
C1006 C 0.01837 0.07959 0.52624 0.0
C1007 C 0.03794 0.12045 0.51251 0.0
C1008 C 0.01855 0.17206 0.55573 0.0
H1009 H 0.0992 0.28357 0.54366 0.0
H1010 H 0.07921 0.24285 0.52643 0.0
H1011 H 0.02425 0.20344 0.58384 0.0
H1012 H 0.98266 0.08235 0.5449 0.0
H1013 H 0.98247 0.12937 0.54224 0.0
H1014 H 0.03704 0.17228 0.49224 0.0
C1015 C 0.07083 0.25222 0.54305 0.0
C1016 C 0.02646 0.19755 0.56347 0.0
C1017 C 0.08265 0.27554 0.55316 0.0
C1018 C 0.99763 0.09261 0.5347 0.0
C1019 C 0.99776 0.11959 0.53359 0.0
C1020 C 0.03371 0.17915 0.51212 0.0
C1021 C 0.04951 0.2407 0.55501 0.0
C1022 C 0.03843 0.21434 0.54577 0.0
C1023 C 0.01869 0.13394 0.524 0.0
C1024 C 0.02275 0.16229 0.53021 0.0
H1025 H 0.0448 0.28616 0.60474 0.0
H1026 H 0.02335 0.24642 0.58654 0.0
H1027 H 0.04942 0.21715 0.50502 0.0
H1028 H 0.05432 0.08393 0.50774 0.0
H1029 H 0.05439 0.13085 0.50507 0.0
C1030 C 0.57816 0.24268 0.42639 0.0
C1031 C 0.60154 0.23898 0.43857 0.0
C1032 C 0.56453 0.26363 0.43405 0.0
C1033 C 0.55785 0.31345 0.48669 0.0
H1034 H 0.53269 0.35287 0.42958 0.0
C1035 C 0.52573 0.41776 0.5003 0.0
C1036 C 0.50746 0.42554 0.4825 0.0
C1037 C 0.53431 0.39285 0.49784 0.0
C1038 C 0.53908 0.34186 0.44585 0.0
H1039 H 0.62845 0.25373 0.46907 0.0
H1040 H 0.60467 0.29053 0.48233 0.0
H1041 H 0.55322 0.31341 0.41972 0.0
H1042 H 0.48225 0.4132 0.44976 0.0
H1043 H 0.496 0.36934 0.44641 0.0
H1044 H 0.54378 0.34207 0.51284 0.0
C1045 C 0.59686 0.27711 0.46695 0.0
C1046 C 0.55096 0.31924 0.44014 0.0
C1047 C 0.61057 0.25618 0.45922 0.0
C1048 C 0.49635 0.40752 0.46373 0.0
C1049 C 0.50453 0.38256 0.46158 0.0
C1050 C 0.54576 0.33605 0.49244 0.0
C1051 C 0.57394 0.28132 0.45409 0.0
C1052 C 0.56055 0.30482 0.46048 0.0
C1053 C 0.52445 0.3753 0.47776 0.0
C1054 C 0.53626 0.35056 0.47207 0.0
H1055 H 0.57082 0.23 0.41019 0.0
H1056 H 0.54678 0.26623 0.42396 0.0
H1057 H 0.56494 0.30261 0.50277 0.0
H1058 H 0.53486 0.43156 0.51463 0.0
H1059 H 0.54978 0.38802 0.51054 0.0
loop_
_geom_bond_atom_site_label_1
_geom_bond_atom_site_label_2
_geom_bond_distance
_geom_bond_site_symmetry_2
_ccdc_geom_bond_type
P0 O11 1.490 . S
P0 C14 1.812 . S
P0 C20 1.803 . S
P0 C26 1.819 . S
H1 C15 0.941 . S
H2 C16 0.939 . S
H3 C18 0.940 . S
H4 C19 0.940 . S
H5 C21 0.939 . S
H6 C22 0.942 . S
H7 C24 0.940 . S
H8 C25 0.939 . S
H9 C27 0.941 . S
H10 C31 0.939 . S
O11 P0 1.490 . S
H12 C28 0.939 . S
H13 C30 0.940 . S
C14 P0 1.812 . S
C14 C15 1.389 . S
C14 C19 1.391 . S
C15 H1 0.941 . S
C15 C14 1.389 . S
C15 C16 1.397 . S
C16 H2 0.939 . S
C16 C15 1.397 . S
C16 C17 1.378 . S
C17 C16 1.378 . S
C17 C18 1.378 . S
C18 H3 0.940 . S
C18 C17 1.378 . S
C18 C19 1.396 . S
C19 H4 0.940 . S
C19 C14 1.391 . S
C19 C18 1.396 . S
C20 P0 1.803 . S
C20 C21 1.378 . S
C20 C25 1.400 . S
C21 H5 0.939 . S
C21 C20 1.378 . S
C21 C22 1.361 . S
C22 H6 0.942 . S
C22 C21 1.361 . S
C22 C23 1.369 . S
C23 C22 1.369 . S
C23 C24 1.404 . S
C24 H7 0.940 . S
C24 C23 1.404 . S
C24 C25 1.389 . S
C25 H8 0.939 . S
C25 C20 1.400 . S
C25 C24 1.389 . S
C26 P0 1.819 . S
C26 C27 1.391 . S
C26 C31 1.391 . S
C27 H9 0.941 . S
C27 C26 1.391 . S
C27 C28 1.396 . S
C28 H12 0.939 . S
C28 C27 1.396 . S
C28 C29 1.397 . S
C29 C28 1.397 . S
C29 C30 1.385 . S
C30 H13 0.940 . S
C30 C29 1.385 . S
C30 C31 1.388 . S
C31 H10 0.939 . S
C31 C26 1.391 . S
C31 C30 1.388 . S
P32 O43 1.490 . S
P32 C46 1.812 . S
P32 C52 1.803 . S
P32 C58 1.819 . S
H33 C47 0.941 . S
H34 C48 0.939 . S
H35 C50 0.940 . S
H36 C51 0.940 . S
H37 C53 0.939 . S
H38 C54 0.942 . S
H39 C56 0.940 . S
H40 C57 0.939 . S
H41 C59 0.941 . S
H42 C63 0.939 . S
O43 P32 1.490 . S
H44 C60 0.939 . S
H45 C62 0.940 . S
C46 P32 1.812 . S
C46 C47 1.389 . S
C46 C51 1.391 . S
C47 H33 0.941 . S
C47 C46 1.389 . S
C47 C48 1.397 . S
C48 H34 0.939 . S
C48 C47 1.397 . S
C48 C49 1.378 . S
C49 C48 1.378 . S
C49 C50 1.378 . S
C50 H35 0.940 . S
C50 C49 1.378 . S
C50 C51 1.396 . S
C51 H36 0.940 . S
C51 C46 1.391 . S
C51 C50 1.396 . S
C52 P32 1.803 . S
C52 C53 1.378 . S
C52 C57 1.400 . S
C53 H37 0.939 . S
C53 C52 1.378 . S
C53 C54 1.361 . S
C54 H38 0.942 . S
C54 C53 1.361 . S
C54 C55 1.369 . S
C55 C54 1.369 . S
C55 C56 1.404 . S
C56 H39 0.940 . S
C56 C55 1.404 . S
C56 C57 1.389 . S
C57 H40 0.939 . S
C57 C52 1.400 . S
C57 C56 1.389 . S
C58 P32 1.819 . S
C58 C59 1.391 . S
C58 C63 1.391 . S
C59 H41 0.941 . S
C59 C58 1.391 . S
C59 C60 1.396 . S
C60 H44 0.939 . S
C60 C59 1.396 . S
C60 C61 1.397 . S
C61 C60 1.397 . S
C61 C62 1.385 . S
C62 H45 0.940 . S
C62 C61 1.385 . S
C62 C63 1.388 . S
C63 H42 0.939 . S
C63 C58 1.391 . S
C63 C62 1.388 . S
P64 O75 1.490 . S
P64 C78 1.812 . S
P64 C84 1.803 . S
P64 C90 1.819 . S
H65 C79 0.941 . S
H66 C80 0.939 . S
H67 C82 0.940 . S
H68 C83 0.940 . S
H69 C85 0.939 . S
H70 C86 0.942 . S
H71 C88 0.940 . S
H72 C89 0.939 . S
H73 C91 0.941 . S
H74 C95 0.939 . S
O75 P64 1.490 . S
H76 C92 0.939 . S
H77 C94 0.940 . S
C78 P64 1.812 . S
C78 C79 1.389 . S
C78 C83 1.391 . S
C79 H65 0.941 . S
C79 C78 1.389 . S
C79 C80 1.397 . S
C80 H66 0.939 . S
C80 C79 1.397 . S
C80 C81 1.378 . S
C81 C80 1.378 . S
C81 C82 1.378 . S
C82 H67 0.940 . S
C82 C81 1.378 . S
C82 C83 1.396 . S
C83 H68 0.940 . S
C83 C78 1.391 . S
C83 C82 1.396 . S
C84 P64 1.803 . S
C84 C85 1.378 . S
C84 C89 1.400 . S
C85 H69 0.939 . S
C85 C84 1.378 . S
C85 C86 1.361 . S
C86 H70 0.942 . S
C86 C85 1.361 . S
C86 C87 1.369 . S
C87 C86 1.369 . S
C87 C88 1.404 . S
C88 H71 0.940 . S
C88 C87 1.404 . S
C88 C89 1.389 . S
C89 H72 0.939 . S
C89 C84 1.400 . S
C89 C88 1.389 . S
C90 P64 1.819 . S
C90 C91 1.391 . S
C90 C95 1.391 . S
C91 H73 0.941 . S
C91 C90 1.391 . S
C91 C92 1.396 . S
C92 H76 0.939 . S
C92 C91 1.396 . S
C92 C93 1.397 . S
C93 C92 1.397 . S
C93 C94 1.385 . S
C94 H77 0.940 . S
C94 C93 1.385 . S
C94 C95 1.388 . S
C95 H74 0.939 . S
C95 C90 1.391 . S
C95 C94 1.388 . S
P96 O107 1.490 . S
P96 C110 1.812 . S
P96 C116 1.803 . S
P96 C122 1.819 . S
H97 C111 0.941 . S
H98 C112 0.939 . S
H99 C114 0.940 . S
H100 C115 0.940 . S
H101 C117 0.939 . S
H102 C118 0.942 . S
H103 C120 0.940 . S
H104 C121 0.939 . S
H105 C123 0.941 . S
H106 C127 0.939 . S
O107 P96 1.490 . S
H108 C124 0.939 . S
H109 C126 0.940 . S
C110 P96 1.812 . S
C110 C111 1.389 . S
C110 C115 1.391 . S
C111 H97 0.941 . S
C111 C110 1.389 . S
C111 C112 1.397 . S
C112 H98 0.939 . S
C112 C111 1.397 . S
C112 C113 1.378 . S
C113 C112 1.378 . S
C113 C114 1.378 . S
C114 H99 0.940 . S
C114 C113 1.378 . S
C114 C115 1.396 . S
C115 H100 0.940 . S
C115 C110 1.391 . S
C115 C114 1.396 . S
C116 P96 1.803 . S
C116 C117 1.378 . S
C116 C121 1.400 . S
C117 H101 0.939 . S
C117 C116 1.378 . S
C117 C118 1.361 . S
C118 H102 0.942 . S
C118 C117 1.361 . S
C118 C119 1.369 . S
C119 C118 1.369 . S
C119 C120 1.404 . S
C120 H103 0.940 . S
C120 C119 1.404 . S
C120 C121 1.389 . S
C121 H104 0.939 . S
C121 C116 1.400 . S
C121 C120 1.389 . S
C122 P96 1.819 . S
C122 C123 1.391 . S
C122 C127 1.391 . S
C123 H105 0.941 . S
C123 C122 1.391 . S
C123 C124 1.396 . S
C124 H108 0.939 . S
C124 C123 1.396 . S
C124 C125 1.397 . S
C125 C124 1.397 . S
C125 C126 1.385 . S
C126 H109 0.940 . S
C126 C125 1.385 . S
C126 C127 1.388 . S
C127 H106 0.939 . S
C127 C122 1.391 . S
C127 C126 1.388 . S
P128 O139 1.490 . S
P128 C142 1.812 . S
P128 C148 1.803 . S
P128 C154 1.819 . S
H129 C143 0.941 . S
H130 C144 0.939 . S
H131 C146 0.940 . S
H132 C147 0.940 . S
H133 C149 0.939 . S
H134 C150 0.942 . S
H135 C152 0.940 . S
H136 C153 0.939 . S
H137 C155 0.941 . S
H138 C159 0.939 . S
O139 P128 1.490 . S
H140 C156 0.939 . S
H141 C158 0.940 . S
C142 P128 1.812 . S
C142 C143 1.389 . S
C142 C147 1.391 . S
C143 H129 0.941 . S
C143 C142 1.389 . S
C143 C144 1.397 . S
C144 H130 0.939 . S
C144 C143 1.397 . S
C144 C145 1.378 . S
C145 C144 1.378 . S
C145 C146 1.378 . S
C146 H131 0.940 . S
C146 C145 1.378 . S
C146 C147 1.396 . S
C147 H132 0.940 . S
C147 C142 1.391 . S
C147 C146 1.396 . S
C148 P128 1.803 . S
C148 C149 1.378 . S
C148 C153 1.400 . S
C149 H133 0.939 . S
C149 C148 1.378 . S
C149 C150 1.361 . S
C150 H134 0.942 . S
C150 C149 1.361 . S
C150 C151 1.369 . S
C151 C150 1.369 . S
C151 C152 1.404 . S
C152 H135 0.940 . S
C152 C151 1.404 . S
C152 C153 1.389 . S
C153 H136 0.939 . S
C153 C148 1.400 . S
C153 C152 1.389 . S
C154 P128 1.819 . S
C154 C155 1.391 . S
C154 C159 1.391 . S
C155 H137 0.941 . S
C155 C154 1.391 . S
C155 C156 1.396 . S
C156 H140 0.939 . S
C156 C155 1.396 . S
C156 C157 1.397 . S
C157 C156 1.397 . S
C157 C158 1.385 . S
C158 H141 0.940 . S
C158 C157 1.385 . S
C158 C159 1.388 . S
C159 H138 0.939 . S
C159 C154 1.391 . S
C159 C158 1.388 . S
P160 O171 1.490 . S
P160 C174 1.812 . S
P160 C180 1.803 . S
P160 C186 1.819 . S
H161 C175 0.941 . S
H162 C176 0.939 . S
H163 C178 0.940 . S
H164 C179 0.940 . S
H165 C181 0.939 . S
H166 C182 0.942 . S
H167 C184 0.940 . S
H168 C185 0.939 . S
H169 C187 0.941 . S
H170 C191 0.939 . S
O171 P160 1.490 . S
H172 C188 0.939 . S
H173 C190 0.940 . S
C174 P160 1.812 . S
C174 C175 1.389 . S
C174 C179 1.391 . S
C175 H161 0.941 . S
C175 C174 1.389 . S
C175 C176 1.397 . S
C176 H162 0.939 . S
C176 C175 1.397 . S
C176 C177 1.378 . S
C177 C176 1.378 . S
C177 C178 1.378 . S
C178 H163 0.940 . S
C178 C177 1.378 . S
C178 C179 1.396 . S
C179 H164 0.940 . S
C179 C174 1.391 . S
C179 C178 1.396 . S
C180 P160 1.803 . S
C180 C181 1.378 . S
C180 C185 1.400 . S
C181 H165 0.939 . S
C181 C180 1.378 . S
C181 C182 1.361 . S
C182 H166 0.942 . S
C182 C181 1.361 . S
C182 C183 1.369 . S
C183 C182 1.369 . S
C183 C184 1.404 . S
C184 H167 0.940 . S
C184 C183 1.404 . S
C184 C185 1.389 . S
C185 H168 0.939 . S
C185 C180 1.400 . S
C185 C184 1.389 . S
C186 P160 1.819 . S
C186 C187 1.391 . S
C186 C191 1.391 . S
C187 H169 0.941 . S
C187 C186 1.391 . S
C187 C188 1.396 . S
C188 H172 0.939 . S
C188 C187 1.396 . S
C188 C189 1.397 . S
C189 C188 1.397 . S
C189 C190 1.385 . S
C190 H173 0.940 . S
C190 C189 1.385 . S
C190 C191 1.388 . S
C191 H170 0.939 . S
C191 C186 1.391 . S
C191 C190 1.388 . S
P192 O203 1.490 . S
P192 C206 1.812 . S
P192 C212 1.803 . S
P192 C218 1.819 . S
H193 C207 0.941 . S
H194 C208 0.939 . S
H195 C210 0.940 . S
H196 C211 0.940 . S
H197 C213 0.939 . S
H198 C214 0.942 . S
H199 C216 0.940 . S
H200 C217 0.939 . S
H201 C219 0.941 . S
H202 C223 0.939 . S
O203 P192 1.490 . S
H204 C220 0.939 . S
H205 C222 0.940 . S
C206 P192 1.812 . S
C206 C207 1.389 . S
C206 C211 1.391 . S
C207 H193 0.941 . S
C207 C206 1.389 . S
C207 C208 1.397 . S
C208 H194 0.939 . S
C208 C207 1.397 . S
C208 C209 1.378 . S
C209 C208 1.378 . S
C209 C210 1.378 . S
C210 H195 0.940 . S
C210 C209 1.378 . S
C210 C211 1.396 . S
C211 H196 0.940 . S
C211 C206 1.391 . S
C211 C210 1.396 . S
C212 P192 1.803 . S
C212 C213 1.378 . S
C212 C217 1.400 . S
C213 H197 0.939 . S
C213 C212 1.378 . S
C213 C214 1.361 . S
C214 H198 0.942 . S
C214 C213 1.361 . S
C214 C215 1.369 . S
C215 C214 1.369 . S
C215 C216 1.404 . S
C216 H199 0.940 . S
C216 C215 1.404 . S
C216 C217 1.389 . S
C217 H200 0.939 . S
C217 C212 1.400 . S
C217 C216 1.389 . S
C218 P192 1.819 . S
C218 C219 1.391 . S
C218 C223 1.391 . S
C219 H201 0.941 . S
C219 C218 1.391 . S
C219 C220 1.396 . S
C220 H204 0.939 . S
C220 C219 1.396 . S
C220 C221 1.397 . S
C221 C220 1.397 . S
C221 C222 1.385 . S
C222 H205 0.940 . S
C222 C221 1.385 . S
C222 C223 1.388 . S
C223 H202 0.939 . S
C223 C218 1.391 . S
C223 C222 1.388 . S
P224 O235 1.490 . S
P224 C238 1.812 . S
P224 C244 1.803 . S
P224 C250 1.819 . S
H225 C239 0.941 . S
H226 C240 0.939 . S
H227 C242 0.940 . S
H228 C243 0.940 . S
H229 C245 0.939 . S
H230 C246 0.942 . S
H231 C248 0.940 . S
H232 C249 0.939 . S
H233 C251 0.941 . S
H234 C255 0.939 . S
O235 P224 1.490 . S
H236 C252 0.939 . S
H237 C254 0.940 . S
C238 P224 1.812 . S
C238 C239 1.389 . S
C238 C243 1.391 . S
C239 H225 0.941 . S
C239 C238 1.389 . S
C239 C240 1.397 . S
C240 H226 0.939 . S
C240 C239 1.397 . S
C240 C241 1.378 . S
C241 C240 1.378 . S
C241 C242 1.378 . S
C242 H227 0.940 . S
C242 C241 1.378 . S
C242 C243 1.396 . S
C243 H228 0.940 . S
C243 C238 1.391 . S
C243 C242 1.396 . S
C244 P224 1.803 . S
C244 C245 1.378 . S
C244 C249 1.400 . S
C245 H229 0.939 . S
C245 C244 1.378 . S
C245 C246 1.361 . S
C246 H230 0.942 . S
C246 C245 1.361 . S
C246 C247 1.369 . S
C247 C246 1.369 . S
C247 C248 1.404 . S
C248 H231 0.940 . S
C248 C247 1.404 . S
C248 C249 1.389 . S
C249 H232 0.939 . S
C249 C244 1.400 . S
C249 C248 1.389 . S
C250 P224 1.819 . S
C250 C251 1.391 . S
C250 C255 1.391 . S
C251 H233 0.941 . S
C251 C250 1.391 . S
C251 C252 1.396 . S
C252 H236 0.939 . S
C252 C251 1.396 . S
C252 C253 1.397 . S
C253 C252 1.397 . S
C253 C254 1.385 . S
C254 H237 0.940 . S
C254 C253 1.385 . S
C254 C255 1.388 . S
C255 H234 0.939 . S
C255 C250 1.391 . S
C255 C254 1.388 . S
O256 Mn257 2.163 1_655 S
O256 C270 1.244 . S
Mn257 O256 2.163 1_455 S
Mn257 O260 2.160 1_545 S
Mn257 O261 2.221 . S
Mn257 O263 2.163 1_445 S
Mn257 O265 2.160 . S
Mn257 O275 2.221 1_445 S
O258 Mn259 2.087 1_545 S
O258 C270 1.256 . S
Mn259 O258 2.087 1_565 S
Mn259 O266 2.089 1_565 S
Mn259 O275 2.290 . S
Mn259 O276 2.251 . S
O260 Mn257 2.160 1_565 S
O260 C271 1.239 . S
O261 Mn257 2.221 . S
O261 Mn262 2.290 . S
O261 C272 1.278 . S
Mn262 O261 2.290 . S
Mn262 O264 2.089 1_545 S
Mn262 O267 2.251 . S
Mn262 O268 2.087 . S
O263 Mn257 2.163 1_665 S
O263 C273 1.244 . S
O264 Mn262 2.089 1_565 S
O264 C271 1.256 . S
O265 Mn257 2.160 . S
O265 C274 1.239 . S
O266 Mn259 2.089 1_545 S
O266 C274 1.256 1_655 S
O267 Mn262 2.251 . S
O267 C272 1.241 . S
O268 Mn262 2.087 . S
O268 C273 1.256 1_445 S
C269 O275 1.278 . S
C269 O276 1.241 . S
C270 O256 1.244 . S
C270 O258 1.256 . S
C271 O260 1.239 . S
C271 O264 1.256 . S
C272 O261 1.278 . S
C272 O267 1.241 . S
C273 O263 1.244 . S
C273 O268 1.256 1_665 S
C274 O265 1.239 . S
C274 O266 1.256 1_455 S
O275 Mn257 2.221 1_665 S
O275 Mn259 2.290 . S
O275 C269 1.278 . S
O276 Mn259 2.251 . S
O276 C269 1.241 . S
O277 Mn278 2.163 1_556 S
O277 C291 1.244 1_545 S
Mn278 O277 2.163 1_554 S
Mn278 O281 2.160 . S
Mn278 O282 2.221 . S
Mn278 O284 2.163 . S
Mn278 O286 2.164 . S
Mn278 O296 2.221 1_545 S
O279 Mn280 2.087 . S
O279 C291 1.256 . S
Mn280 O279 2.087 . S
Mn280 O287 2.089 . S
Mn280 O296 2.290 1_556 S
Mn280 O297 2.251 1_556 S
O281 Mn278 2.160 . S
O281 C292 1.239 . S
O282 Mn278 2.221 . S
O282 Mn283 2.290 . S
O282 C293 1.278 1_554 S
Mn283 O282 2.290 . S
Mn283 O285 2.089 . S
Mn283 O288 2.251 1_554 S
Mn283 O289 2.087 . S
O284 Mn278 2.163 . S
O284 C294 1.244 . S
O285 Mn283 2.089 . S
O285 C292 1.256 . S
O286 Mn278 2.164 . S
O286 C295 1.229 1_544 S
O287 Mn280 2.089 . S
O287 C295 1.256 . S
O288 Mn283 2.251 1_556 S
O288 C293 1.241 . S
O289 Mn283 2.087 . S
O289 C294 1.256 . S
C290 O296 1.278 . S
C290 O297 1.241 . S
C291 O277 1.244 1_565 S
C291 O279 1.256 . S
C292 O281 1.239 . S
C292 O285 1.256 . S
C293 O282 1.278 1_556 S
C293 O288 1.241 . S
C294 O284 1.244 . S
C294 O289 1.256 . S
C295 O286 1.229 1_566 S
C295 O287 1.256 . S
O296 Mn278 2.221 1_565 S
O296 Mn280 2.290 1_554 S
O296 C290 1.278 . S
O297 Mn280 2.251 1_554 S
O297 C290 1.241 . S
O298 Mn299 2.163 . S
O298 C312 1.244 . S
Mn299 O298 2.163 . S
Mn299 O302 2.160 . S
Mn299 O303 2.221 . S
Mn299 O305 2.163 . S
Mn299 O307 2.160 . S
Mn299 O317 2.221 . S
O300 Mn301 2.087 . S
O300 C312 1.256 . S
Mn301 O300 2.087 . S
Mn301 O308 2.089 . S
Mn301 O317 2.290 . S
Mn301 O318 2.251 . S
O302 Mn299 2.160 . S
O302 C313 1.239 . S
O303 Mn299 2.221 . S
O303 Mn304 2.290 . S
O303 C314 1.278 . S
Mn304 O303 2.290 . S
Mn304 O306 2.089 . S
Mn304 O309 2.251 . S
Mn304 O310 2.087 . S
O305 Mn299 2.163 . S
O305 C315 1.244 . S
O306 Mn304 2.089 . S
O306 C313 1.256 . S
O307 Mn299 2.160 . S
O307 C316 1.239 . S
O308 Mn301 2.089 . S
O308 C316 1.256 . S
O309 Mn304 2.251 . S
O309 C314 1.241 . S
O310 Mn304 2.087 . S
O310 C315 1.256 . S
C311 O317 1.278 . S
C311 O318 1.241 . S
C312 O298 1.244 . S
C312 O300 1.256 . S
C313 O302 1.239 . S
C313 O306 1.256 . S
C314 O303 1.278 . S
C314 O309 1.241 . S
C315 O305 1.244 . S
C315 O310 1.256 . S
C316 O307 1.239 . S
C316 O308 1.256 . S
O317 Mn299 2.221 . S
O317 Mn301 2.290 . S
O317 C311 1.278 . S
O318 Mn301 2.251 . S
O318 C311 1.241 . S
O319 Mn320 2.163 1_655 S
O319 C333 1.244 1_554 S
Mn320 O319 2.163 1_455 S
Mn320 O323 2.160 . S
Mn320 O324 2.221 1_455 S
Mn320 O326 2.163 . S
Mn320 O328 2.154 1_454 S
Mn320 O338 2.221 1_554 S
O321 Mn322 2.087 . S
O321 C333 1.256 . S
Mn322 O321 2.087 . S
Mn322 O329 2.089 . S
Mn322 O338 2.290 1_655 S
Mn322 O339 2.251 . S
O323 Mn320 2.160 . S
O323 C334 1.239 . S
O324 Mn320 2.221 1_655 S
O324 Mn325 2.290 1_655 S
O324 C335 1.278 . S
Mn325 O324 2.290 1_455 S
Mn325 O327 2.089 . S
Mn325 O330 2.251 1_455 S
Mn325 O331 2.087 . S
O326 Mn320 2.163 . S
O326 C336 1.244 . S
O327 Mn325 2.089 . S
O327 C334 1.256 . S
O328 Mn320 2.154 1_656 S
O328 C337 1.258 . S
O329 Mn322 2.089 . S
O329 C337 1.256 . S
O330 Mn325 2.251 1_655 S
O330 C335 1.241 . S
O331 Mn325 2.087 . S
O331 C336 1.256 . S
C332 O338 1.278 . S
C332 O339 1.241 1_455 S
C333 O319 1.244 1_556 S
C333 O321 1.256 . S
C334 O323 1.239 . S
C334 O327 1.256 . S
C335 O324 1.278 . S
C335 O330 1.241 . S
C336 O326 1.244 . S
C336 O331 1.256 . S
C337 O328 1.258 . S
C337 O329 1.256 . S
O338 Mn320 2.221 1_556 S
O338 Mn322 2.290 1_455 S
O338 C332 1.278 . S
O339 Mn322 2.251 . S
O339 C332 1.241 1_655 S
C340 C341 1.349 . S
C340 C342 1.327 . S
C340 H365 0.950 . S
C341 C340 1.349 . S
C341 C357 1.349 . S
C342 C340 1.327 . S
C342 C361 1.429 . S
C342 H366 0.950 . S
C343 C360 1.574 . S
C343 C362 1.368 . S
C343 H367 0.949 . S
H344 C348 0.949 . S
C345 C346 1.349 . S
C345 C347 1.327 . S
C345 H368 0.977 . S
C346 C345 1.349 . S
C346 C358 1.349 . S
C347 C345 1.327 . S
C347 C363 1.429 . S
C347 H369 0.950 . S
C348 H344 0.949 . S
C348 C356 1.574 . S
C348 C364 1.368 . S
H349 C357 0.950 . S
H350 C355 0.950 . S
H351 C356 0.949 . S
H352 C358 0.950 . S
H353 C359 0.950 . S
H354 C360 0.949 . S
C355 H350 0.950 . S
C355 C357 1.327 . S
C355 C361 1.429 . S
C356 C348 1.574 . S
C356 H351 0.949 . S
C356 C362 1.368 . S
C357 C341 1.349 . S
C357 H349 0.950 . S
C357 C355 1.327 . S
C358 C346 1.349 . S
C358 H352 0.950 . S
C358 C359 1.327 . S
C359 H353 0.950 . S
C359 C358 1.327 . S
C359 C363 1.429 . S
C360 C343 1.574 . S
C360 H354 0.949 . S
C360 C364 1.368 . S
C361 C342 1.429 . S
C361 C355 1.429 . S
C361 C362 1.523 . S
C362 C343 1.368 . S
C362 C356 1.368 . S
C362 C361 1.523 . S
C363 C347 1.429 . S
C363 C359 1.429 . S
C363 C364 1.523 . S
C364 C348 1.368 . S
C364 C360 1.368 . S
C364 C363 1.523 . S
H365 C340 0.950 . S
H366 C342 0.950 . S
H367 C343 0.949 . S
H368 C345 0.977 . S
H369 C347 0.950 . S
C370 C371 1.349 . S
C370 C372 1.327 . S
C370 H395 0.950 . S
C371 C370 1.349 . S
C371 C387 1.349 . S
C372 C370 1.327 . S
C372 C391 1.429 . S
C372 H396 0.950 . S
C373 C390 1.574 . S
C373 C392 1.368 . S
C373 H397 0.949 . S
H374 C378 0.949 . S
C375 C376 1.349 . S
C375 C377 1.327 . S
C375 H398 0.950 . S
C376 C375 1.349 . S
C376 C388 1.349 1_565 S
C377 C375 1.327 . S
C377 C393 1.429 . S
C377 H399 0.950 . S
C378 H374 0.949 . S
C378 C386 1.574 . S
C378 C394 1.368 . S
H379 C387 0.950 . S
H380 C385 0.950 . S
H381 C386 0.949 . S
H382 C388 0.950 . S
H383 C389 0.950 1_545 S
H384 C390 0.949 . S
C385 H380 0.950 . S
C385 C387 1.327 . S
C385 C391 1.429 . S
C386 C378 1.574 . S
C386 H381 0.949 . S
C386 C392 1.368 . S
C387 C371 1.349 . S
C387 H379 0.950 . S
C387 C385 1.327 . S
C388 C376 1.349 1_545 S
C388 H382 0.950 . S
C388 C389 1.327 1_545 S
C389 H383 0.950 1_565 S
C389 C388 1.327 1_565 S
C389 C393 1.429 . S
C390 C373 1.574 . S
C390 H384 0.949 . S
C390 C394 1.368 . S
C391 C372 1.429 . S
C391 C385 1.429 . S
C391 C392 1.523 . S
C392 C373 1.368 . S
C392 C386 1.368 . S
C392 C391 1.523 . S
C393 C377 1.429 . S
C393 C389 1.429 . S
C393 C394 1.523 . S
C394 C378 1.368 . S
C394 C390 1.368 . S
C394 C393 1.523 . S
H395 C370 0.950 . S
H396 C372 0.950 . S
H397 C373 0.949 . S
H398 C375 0.950 . S
H399 C377 0.950 . S
C400 C401 1.349 . S
C400 C402 1.327 . S
C400 H425 0.950 . S
C401 C400 1.349 . S
C401 C417 1.349 . S
C402 C400 1.327 . S
C402 C421 1.429 . S
C402 H426 0.950 . S
C403 C420 1.574 . S
C403 C422 1.368 . S
C403 H427 0.949 . S
H404 C408 0.949 . S
C405 C406 1.349 . S
C405 C407 1.327 . S
C405 H428 0.950 . S
C406 C405 1.349 . S
C406 C418 1.349 . S
C407 C405 1.327 . S
C407 C423 1.429 . S
C407 H429 0.950 . S
C408 H404 0.949 . S
C408 C416 1.574 . S
C408 C424 1.368 . S
H409 C417 0.950 . S
H410 C415 0.950 . S
H411 C416 0.949 . S
H412 C418 0.950 . S
H413 C419 0.950 . S
H414 C420 0.949 . S
C415 H410 0.950 . S
C415 C417 1.327 . S
C415 C421 1.429 . S
C416 C408 1.574 . S
C416 H411 0.949 . S
C416 C422 1.368 . S
C417 C401 1.349 . S
C417 H409 0.950 . S
C417 C415 1.327 . S
C418 C406 1.349 . S
C418 H412 0.950 . S
C418 C419 1.327 . S
C419 H413 0.950 . S
C419 C418 1.327 . S
C419 C423 1.429 . S
C420 C403 1.574 . S
C420 H414 0.949 . S
C420 C424 1.368 . S
C421 C402 1.429 . S
C421 C415 1.429 . S
C421 C422 1.523 . S
C422 C403 1.368 . S
C422 C416 1.368 . S
C422 C421 1.523 . S
C423 C407 1.429 . S
C423 C419 1.429 . S
C423 C424 1.523 . S
C424 C408 1.368 . S
C424 C420 1.368 . S
C424 C423 1.523 . S
H425 C400 0.950 . S
H426 C402 0.950 . S
H427 C403 0.949 . S
H428 C405 0.950 . S
H429 C407 0.950 . S
C430 C431 1.349 . S
C430 C432 1.327 . S
C430 H455 0.950 . S
C431 C430 1.349 . S
C431 C447 1.349 . S
C432 C430 1.327 . S
C432 C451 1.429 . S
C432 H456 0.950 . S
C433 C450 1.574 . S
C433 C452 1.368 . S
C433 H457 0.949 . S
H434 C438 0.949 . S
C435 C436 1.349 . S
C435 C437 1.327 . S
C435 H458 0.950 . S
C436 C435 1.349 . S
C436 C448 1.349 . S
C437 C435 1.327 . S
C437 C453 1.429 . S
C437 H459 0.950 . S
C438 H434 0.949 . S
C438 C446 1.574 . S
C438 C454 1.368 . S
H439 C447 0.950 . S
H440 C445 0.950 . S
H441 C446 0.949 . S
H442 C448 0.950 . S
H443 C449 0.950 . S
H444 C450 0.949 . S
C445 H440 0.950 . S
C445 C447 1.327 . S
C445 C451 1.429 . S
C446 C438 1.574 . S
C446 H441 0.949 . S
C446 C452 1.368 . S
C447 C431 1.349 . S
C447 H439 0.950 . S
C447 C445 1.327 . S
C448 C436 1.349 . S
C448 H442 0.950 . S
C448 C449 1.327 . S
C449 H443 0.950 . S
C449 C448 1.327 . S
C449 C453 1.429 . S
C450 C433 1.574 . S
C450 H444 0.949 . S
C450 C454 1.368 . S
C451 C432 1.429 . S
C451 C445 1.429 . S
C451 C452 1.523 . S
C452 C433 1.368 . S
C452 C446 1.368 . S
C452 C451 1.523 . S
C453 C437 1.429 . S
C453 C449 1.429 . S
C453 C454 1.523 . S
C454 C438 1.368 . S
C454 C450 1.368 . S
C454 C453 1.523 . S
H455 C430 0.950 . S
H456 C432 0.950 . S
H457 C433 0.949 . S
H458 C435 0.950 . S
H459 C437 0.950 . S
C460 C461 1.349 . S
C460 C462 1.327 . S
C460 H485 0.950 . S
C461 C460 1.349 . S
C461 C477 1.349 . S
C462 C460 1.327 . S
C462 C481 1.429 . S
C462 H486 0.950 . S
C463 C480 1.574 . S
C463 C482 1.368 . S
C463 H487 0.949 . S
H464 C468 0.949 . S
C465 C466 1.349 . S
C465 C467 1.327 . S
C465 H488 0.950 . S
C466 C465 1.349 . S
C466 C478 1.349 . S
C467 C465 1.327 . S
C467 C483 1.429 . S
C467 H489 0.950 . S
C468 H464 0.949 . S
C468 C476 1.574 . S
C468 C484 1.368 . S
H469 C477 0.950 . S
H470 C475 0.950 . S
H471 C476 0.949 . S
H472 C478 0.950 . S
H473 C479 0.950 . S
H474 C480 0.949 . S
C475 H470 0.950 . S
C475 C477 1.327 . S
C475 C481 1.429 . S
C476 C468 1.574 . S
C476 H471 0.949 . S
C476 C482 1.368 . S
C477 C461 1.349 . S
C477 H469 0.950 . S
C477 C475 1.327 . S
C478 C466 1.349 . S
C478 H472 0.950 . S
C478 C479 1.327 . S
C479 H473 0.950 . S
C479 C478 1.327 . S
C479 C483 1.429 . S
C480 C463 1.574 . S
C480 H474 0.949 . S
C480 C484 1.368 . S
C481 C462 1.429 . S
C481 C475 1.429 . S
C481 C482 1.523 . S
C482 C463 1.368 . S
C482 C476 1.368 . S
C482 C481 1.523 . S
C483 C467 1.429 . S
C483 C479 1.429 . S
C483 C484 1.523 . S
C484 C468 1.368 . S
C484 C480 1.368 . S
C484 C483 1.523 . S
H485 C460 0.950 . S
H486 C462 0.950 . S
H487 C463 0.949 . S
H488 C465 0.950 . S
H489 C467 0.950 . S
C490 C491 1.349 . S
C490 C492 1.327 . S
C490 H515 0.950 . S
C491 C490 1.349 . S
C491 C507 1.349 . S
C492 C490 1.327 . S
C492 C511 1.429 . S
C492 H516 0.950 . S
C493 C510 1.574 . S
C493 C512 1.368 . S
C493 H517 0.949 . S
H494 C498 0.949 . S
C495 C496 1.349 . S
C495 C497 1.327 . S
C495 H518 0.950 . S
C496 C495 1.349 . S
C496 C508 1.349 . S
C497 C495 1.327 . S
C497 C513 1.429 . S
C497 H519 0.950 . S
C498 H494 0.949 . S
C498 C506 1.574 . S
C498 C514 1.368 . S
H499 C507 0.950 . S
H500 C505 0.950 . S
H501 C506 0.949 . S
H502 C508 0.950 . S
H503 C509 0.950 . S
H504 C510 0.949 . S
C505 H500 0.950 . S
C505 C507 1.327 . S
C505 C511 1.429 . S
C506 C498 1.574 . S
C506 H501 0.949 . S
C506 C512 1.368 . S
C507 C491 1.349 . S
C507 H499 0.950 . S
C507 C505 1.327 . S
C508 C496 1.349 . S
C508 H502 0.950 . S
C508 C509 1.327 . S
C509 H503 0.950 . S
C509 C508 1.327 . S
C509 C513 1.429 . S
C510 C493 1.574 . S
C510 H504 0.949 . S
C510 C514 1.368 . S
C511 C492 1.429 . S
C511 C505 1.429 . S
C511 C512 1.523 . S
C512 C493 1.368 . S
C512 C506 1.368 . S
C512 C511 1.523 . S
C513 C497 1.429 . S
C513 C509 1.429 . S
C513 C514 1.523 . S
C514 C498 1.368 . S
C514 C510 1.368 . S
C514 C513 1.523 . S
H515 C490 0.950 . S
H516 C492 0.950 . S
H517 C493 0.949 . S
H518 C495 0.950 . S
H519 C497 0.950 . S
C520 C521 1.349 . S
C520 C522 1.327 . S
C520 H545 0.950 . S
C521 C520 1.349 . S
C521 C537 1.349 . S
C522 C520 1.327 . S
C522 C541 1.429 . S
C522 H546 0.950 . S
C523 C540 1.574 . S
C523 C542 1.368 . S
C523 H547 0.949 . S
H524 C528 0.949 . S
C525 C526 1.338 1_554 S
C525 C527 1.321 1_554 S
C525 H548 0.968 . S
C526 C525 1.338 1_556 S
C526 C538 1.349 . S
C527 C525 1.321 1_556 S
C527 C543 1.429 . S
C527 H549 0.950 1_556 S
C528 H524 0.949 . S
C528 C536 1.574 . S
C528 C544 1.368 . S
H529 C537 0.950 . S
H530 C535 0.950 . S
H531 C536 0.949 . S
H532 C538 0.950 . S
H533 C539 0.950 . S
H534 C540 0.949 . S
C535 H530 0.950 . S
C535 C537 1.327 . S
C535 C541 1.429 . S
C536 C528 1.574 . S
C536 H531 0.949 . S
C536 C542 1.368 . S
C537 C521 1.349 . S
C537 H529 0.950 . S
C537 C535 1.327 . S
C538 C526 1.349 . S
C538 H532 0.950 . S
C538 C539 1.327 . S
C539 H533 0.950 . S
C539 C538 1.327 . S
C539 C543 1.429 . S
C540 C523 1.574 . S
C540 H534 0.949 . S
C540 C544 1.368 . S
C541 C522 1.429 . S
C541 C535 1.429 . S
C541 C542 1.523 . S
C542 C523 1.368 . S
C542 C536 1.368 . S
C542 C541 1.523 . S
C543 C527 1.429 . S
C543 C539 1.429 . S
C543 C544 1.523 . S
C544 C528 1.368 . S
C544 C540 1.368 . S
C544 C543 1.523 . S
H545 C520 0.950 . S
H546 C522 0.950 . S
H547 C523 0.949 . S
H548 C525 0.968 . S
H549 C527 0.950 1_554 S
C550 C551 1.349 . S
C550 C552 1.327 . S
C550 H575 0.950 . S
C551 C550 1.349 . S
C551 C567 1.349 . S
C552 C550 1.327 . S
C552 C571 1.429 . S
C552 H576 0.950 . S
C553 C570 1.574 . S
C553 C572 1.368 . S
C553 H577 0.949 . S
H554 C558 0.949 . S
C555 C556 1.349 . S
C555 C557 1.327 . S
C555 H578 0.950 . S
C556 C555 1.349 . S
C556 C568 1.349 . S
C557 C555 1.327 . S
C557 C573 1.429 . S
C557 H579 0.950 . S
C558 H554 0.949 . S
C558 C566 1.574 . S
C558 C574 1.368 . S
H559 C567 0.950 . S
H560 C565 0.950 . S
H561 C566 0.949 . S
H562 C568 0.950 . S
H563 C569 0.950 . S
H564 C570 0.949 . S
C565 H560 0.950 . S
C565 C567 1.327 . S
C565 C571 1.429 . S
C566 C558 1.574 . S
C566 H561 0.949 . S
C566 C572 1.368 . S
C567 C551 1.349 . S
C567 H559 0.950 . S
C567 C565 1.327 . S
C568 C556 1.349 . S
C568 H562 0.950 . S
C568 C569 1.327 . S
C569 H563 0.950 . S
C569 C568 1.327 . S
C569 C573 1.429 . S
C570 C553 1.574 . S
C570 H564 0.949 . S
C570 C574 1.368 . S
C571 C552 1.429 . S
C571 C565 1.429 . S
C571 C572 1.523 . S
C572 C553 1.368 . S
C572 C566 1.368 . S
C572 C571 1.523 . S
C573 C557 1.429 . S
C573 C569 1.429 . S
C573 C574 1.523 . S
C574 C558 1.368 . S
C574 C570 1.368 . S
C574 C573 1.523 . S
H575 C550 0.950 . S
H576 C552 0.950 . S
H577 C553 0.949 . S
H578 C555 0.950 . S
H579 C557 0.950 . S
C580 C581 1.349 . S
C580 C582 1.327 . S
C580 H605 0.950 . S
C581 C580 1.349 . S
C581 C597 1.349 . S
C582 C580 1.327 . S
C582 C601 1.429 . S
C582 H606 0.950 . S
C583 C600 1.574 . S
C583 C602 1.368 . S
C583 H607 0.949 . S
H584 C588 0.949 . S
C585 C586 1.349 . S
C585 C587 1.327 . S
C585 H608 0.950 . S
C586 C585 1.349 . S
C586 C598 1.349 . S
C587 C585 1.327 . S
C587 C603 1.429 . S
C587 H609 0.950 . S
C588 H584 0.949 . S
C588 C596 1.574 . S
C588 C604 1.368 . S
H589 C597 0.950 . S
H590 C595 0.950 . S
H591 C596 0.949 . S
H592 C598 0.950 . S
H593 C599 0.950 . S
H594 C600 0.949 . S
C595 H590 0.950 . S
C595 C597 1.327 . S
C595 C601 1.429 . S
C596 C588 1.574 . S
C596 H591 0.949 . S
C596 C602 1.368 . S
C597 C581 1.349 . S
C597 H589 0.950 . S
C597 C595 1.327 . S
C598 C586 1.349 . S
C598 H592 0.950 . S
C598 C599 1.327 . S
C599 H593 0.950 . S
C599 C598 1.327 . S
C599 C603 1.429 . S
C600 C583 1.574 . S
C600 H594 0.949 . S
C600 C604 1.368 . S
C601 C582 1.429 . S
C601 C595 1.429 . S
C601 C602 1.523 . S
C602 C583 1.368 . S
C602 C596 1.368 . S
C602 C601 1.523 . S
C603 C587 1.429 . S
C603 C599 1.429 . S
C603 C604 1.523 . S
C604 C588 1.368 . S
C604 C600 1.368 . S
C604 C603 1.523 . S
H605 C580 0.950 . S
H606 C582 0.950 . S
H607 C583 0.949 . S
H608 C585 0.950 . S
H609 C587 0.950 . S
C610 C611 1.349 . S
C610 C612 1.327 . S
C610 H635 0.950 . S
C611 C610 1.349 . S
C611 C627 1.349 . S
C612 C610 1.327 . S
C612 C631 1.429 . S
C612 H636 0.950 . S
C613 C630 1.574 . S
C613 C632 1.368 . S
C613 H637 0.949 . S
H614 C618 0.949 . S
C615 C616 1.349 . S
C615 C617 1.327 . S
C615 H638 0.950 . S
C616 C615 1.349 . S
C616 C628 1.349 . S
C617 C615 1.327 . S
C617 C633 1.429 . S
C617 H639 0.950 . S
C618 H614 0.949 . S
C618 C626 1.574 . S
C618 C634 1.368 . S
H619 C627 0.950 . S
H620 C625 0.950 . S
H621 C626 0.949 . S
H622 C628 0.950 . S
H623 C629 0.950 . S
H624 C630 0.949 . S
C625 H620 0.950 . S
C625 C627 1.327 . S
C625 C631 1.429 . S
C626 C618 1.574 . S
C626 H621 0.949 . S
C626 C632 1.368 . S
C627 C611 1.349 . S
C627 H619 0.950 . S
C627 C625 1.327 . S
C628 C616 1.349 . S
C628 H622 0.950 . S
C628 C629 1.327 . S
C629 H623 0.950 . S
C629 C628 1.327 . S
C629 C633 1.429 . S
C630 C613 1.574 . S
C630 H624 0.949 . S
C630 C634 1.368 . S
C631 C612 1.429 . S
C631 C625 1.429 . S
C631 C632 1.523 . S
C632 C613 1.368 . S
C632 C626 1.368 . S
C632 C631 1.523 . S
C633 C617 1.429 . S
C633 C629 1.429 . S
C633 C634 1.523 . S
C634 C618 1.368 . S
C634 C630 1.368 . S
C634 C633 1.523 . S
H635 C610 0.950 . S
H636 C612 0.950 . S
H637 C613 0.949 . S
H638 C615 0.950 . S
H639 C617 0.950 . S
C640 C641 1.349 . S
C640 C642 1.327 . S
C640 H665 0.950 . S
C641 C640 1.349 . S
C641 C657 1.349 . S
C642 C640 1.327 . S
C642 C661 1.429 . S
C642 H666 0.950 . S
C643 C660 1.574 . S
C643 C662 1.368 . S
C643 H667 0.949 . S
H644 C648 0.949 . S
C645 C646 1.349 . S
C645 C647 1.327 . S
C645 H668 0.950 . S
C646 C645 1.349 . S
C646 C658 1.349 . S
C647 C645 1.327 . S
C647 C663 1.429 . S
C647 H669 0.950 . S
C648 H644 0.949 . S
C648 C656 1.574 . S
C648 C664 1.368 . S
H649 C657 0.950 . S
H650 C655 0.950 . S
H651 C656 0.949 . S
H652 C658 0.950 . S
H653 C659 0.950 . S
H654 C660 0.949 . S
C655 H650 0.950 . S
C655 C657 1.327 . S
C655 C661 1.429 . S
C656 C648 1.574 . S
C656 H651 0.949 . S
C656 C662 1.368 . S
C657 C641 1.349 . S
C657 H649 0.950 . S
C657 C655 1.327 . S
C658 C646 1.349 . S
C658 H652 0.950 . S
C658 C659 1.327 . S
C659 H653 0.950 . S
C659 C658 1.327 . S
C659 C663 1.429 . S
C660 C643 1.574 . S
C660 H654 0.949 . S
C660 C664 1.368 . S
C661 C642 1.429 . S
C661 C655 1.429 . S
C661 C662 1.523 . S
C662 C643 1.368 . S
C662 C656 1.368 . S
C662 C661 1.523 . S
C663 C647 1.429 . S
C663 C659 1.429 . S
C663 C664 1.523 . S
C664 C648 1.368 . S
C664 C660 1.368 . S
C664 C663 1.523 . S
H665 C640 0.950 . S
H666 C642 0.950 . S
H667 C643 0.949 . S
H668 C645 0.950 . S
H669 C647 0.950 . S
C670 C671 1.349 . S
C670 C672 1.327 . S
C670 H695 0.950 . S
C671 C670 1.349 . S
C671 C687 1.349 . S
C672 C670 1.327 . S
C672 C691 1.429 . S
C672 H696 0.950 . S
C673 C690 1.574 . S
C673 C692 1.368 . S
C673 H697 0.949 . S
H674 C678 0.949 . S
C675 C676 1.349 . S
C675 C677 1.327 . S
C675 H698 0.950 . S
C676 C675 1.349 . S
C676 C688 1.349 . S
C677 C675 1.327 . S
C677 C693 1.429 . S
C677 H699 0.950 . S
C678 H674 0.949 . S
C678 C686 1.574 . S
C678 C694 1.368 . S
H679 C687 0.950 . S
H680 C685 0.950 . S
H681 C686 0.949 . S
H682 C688 0.950 . S
H683 C689 0.950 . S
H684 C690 0.949 . S
C685 H680 0.950 . S
C685 C687 1.327 . S
C685 C691 1.429 . S
C686 C678 1.574 . S
C686 H681 0.949 . S
C686 C692 1.368 . S
C687 C671 1.349 . S
C687 H679 0.950 . S
C687 C685 1.327 . S
C688 C676 1.349 . S
C688 H682 0.950 . S
C688 C689 1.327 . S
C689 H683 0.950 . S
C689 C688 1.327 . S
C689 C693 1.429 . S
C690 C673 1.574 . S
C690 H684 0.949 . S
C690 C694 1.368 . S
C691 C672 1.429 . S
C691 C685 1.429 . S
C691 C692 1.523 . S
C692 C673 1.368 . S
C692 C686 1.368 . S
C692 C691 1.523 . S
C693 C677 1.429 . S
C693 C689 1.429 . S
C693 C694 1.523 . S
C694 C678 1.368 . S
C694 C690 1.368 . S
C694 C693 1.523 . S
H695 C670 0.950 . S
H696 C672 0.950 . S
H697 C673 0.949 . S
H698 C675 0.950 . S
H699 C677 0.950 . S
C700 C701 1.349 . S
C700 C702 1.327 . S
C700 H725 0.950 . S
C701 C700 1.349 . S
C701 C717 1.349 . S
C702 C700 1.327 . S
C702 C721 1.429 . S
C702 H726 0.950 . S
C703 C720 1.574 . S
C703 C722 1.368 . S
C703 H727 0.949 . S
H704 C708 0.949 . S
C705 C706 1.349 . S
C705 C707 1.327 . S
C705 H728 0.950 1_565 S
C706 C705 1.349 . S
C706 C718 1.349 . S
C707 C705 1.327 . S
C707 C723 1.429 . S
C707 H729 0.951 . S
C708 H704 0.949 . S
C708 C716 1.574 . S
C708 C724 1.368 . S
H709 C717 0.950 . S
H710 C715 0.950 . S
H711 C716 0.949 . S
H712 C718 0.950 . S
H713 C719 0.950 . S
H714 C720 0.949 . S
C715 H710 0.950 . S
C715 C717 1.327 . S
C715 C721 1.429 . S
C716 C708 1.574 . S
C716 H711 0.949 . S
C716 C722 1.368 . S
C717 C701 1.349 . S
C717 H709 0.950 . S
C717 C715 1.327 . S
C718 C706 1.349 . S
C718 H712 0.950 . S
C718 C719 1.327 . S
C719 H713 0.950 . S
C719 C718 1.327 . S
C719 C723 1.429 . S
C720 C703 1.574 . S
C720 H714 0.949 . S
C720 C724 1.368 . S
C721 C702 1.429 . S
C721 C715 1.429 . S
C721 C722 1.523 . S
C722 C703 1.368 . S
C722 C716 1.368 . S
C722 C721 1.523 . S
C723 C707 1.429 . S
C723 C719 1.429 . S
C723 C724 1.523 . S
C724 C708 1.368 . S
C724 C720 1.368 . S
C724 C723 1.523 . S
H725 C700 0.950 . S
H726 C702 0.950 . S
H727 C703 0.949 . S
H728 C705 0.950 1_545 S
H729 C707 0.951 . S
C730 C731 1.349 . S
C730 C732 1.327 . S
C730 H755 0.950 . S
C731 C730 1.349 . S
C731 C747 1.349 . S
C732 C730 1.327 . S
C732 C751 1.429 . S
C732 H756 0.950 . S
C733 C750 1.574 . S
C733 C752 1.368 . S
C733 H757 0.949 . S
H734 C738 0.949 . S
C735 C736 1.349 . S
C735 C737 1.327 . S
C735 H758 0.950 . S
C736 C735 1.349 . S
C736 C748 1.349 . S
C737 C735 1.327 . S
C737 C753 1.429 . S
C737 H759 0.950 . S
C738 H734 0.949 . S
C738 C746 1.574 . S
C738 C754 1.368 . S
H739 C747 0.950 . S
H740 C745 0.950 . S
H741 C746 0.949 . S
H742 C748 0.950 . S
H743 C749 0.950 . S
H744 C750 0.949 . S
C745 H740 0.950 . S
C745 C747 1.327 . S
C745 C751 1.429 . S
C746 C738 1.574 . S
C746 H741 0.949 . S
C746 C752 1.368 . S
C747 C731 1.349 . S
C747 H739 0.950 . S
C747 C745 1.327 . S
C748 C736 1.349 . S
C748 H742 0.950 . S
C748 C749 1.327 . S
C749 H743 0.950 . S
C749 C748 1.327 . S
C749 C753 1.429 . S
C750 C733 1.574 . S
C750 H744 0.949 . S
C750 C754 1.368 . S
C751 C732 1.429 . S
C751 C745 1.429 . S
C751 C752 1.523 . S
C752 C733 1.368 . S
C752 C746 1.368 . S
C752 C751 1.523 . S
C753 C737 1.429 . S
C753 C749 1.429 . S
C753 C754 1.523 . S
C754 C738 1.368 . S
C754 C750 1.368 . S
C754 C753 1.523 . S
H755 C730 0.950 . S
H756 C732 0.950 . S
H757 C733 0.949 . S
H758 C735 0.950 . S
H759 C737 0.950 . S
C760 C761 1.349 . S
C760 C762 1.327 . S
C760 H785 0.950 . S
C761 C760 1.349 . S
C761 C777 1.349 . S
C762 C760 1.327 . S
C762 C781 1.429 . S
C762 H786 0.950 . S
C763 C780 1.574 . S
C763 C782 1.368 . S
C763 H787 0.949 . S
H764 C768 0.949 . S
C765 C766 1.349 . S
C765 C767 1.327 . S
C765 H788 0.950 . S
C766 C765 1.349 . S
C766 C778 1.349 . S
C767 C765 1.327 . S
C767 C783 1.429 . S
C767 H789 0.950 . S
C768 H764 0.949 . S
C768 C776 1.574 . S
C768 C784 1.368 . S
H769 C777 0.950 . S
H770 C775 0.950 . S
H771 C776 0.949 . S
H772 C778 0.950 . S
H773 C779 0.950 . S
H774 C780 0.949 . S
C775 H770 0.950 . S
C775 C777 1.327 . S
C775 C781 1.429 . S
C776 C768 1.574 . S
C776 H771 0.949 . S
C776 C782 1.368 . S
C777 C761 1.349 . S
C777 H769 0.950 . S
C777 C775 1.327 . S
C778 C766 1.349 . S
C778 H772 0.950 . S
C778 C779 1.327 . S
C779 H773 0.950 . S
C779 C778 1.327 . S
C779 C783 1.429 . S
C780 C763 1.574 . S
C780 H774 0.949 . S
C780 C784 1.368 . S
C781 C762 1.429 . S
C781 C775 1.429 . S
C781 C782 1.523 . S
C782 C763 1.368 . S
C782 C776 1.368 . S
C782 C781 1.523 . S
C783 C767 1.429 . S
C783 C779 1.429 . S
C783 C784 1.523 . S
C784 C768 1.368 . S
C784 C780 1.368 . S
C784 C783 1.523 . S
H785 C760 0.950 . S
H786 C762 0.950 . S
H787 C763 0.949 . S
H788 C765 0.950 . S
H789 C767 0.950 . S
C790 C791 1.349 . S
C790 C792 1.327 . S
C790 H815 0.950 . S
C791 C790 1.349 . S
C791 C807 1.349 . S
C792 C790 1.327 . S
C792 C811 1.429 . S
C792 H816 0.950 . S
C793 C810 1.574 . S
C793 C812 1.368 . S
C793 H817 0.949 . S
H794 C798 0.949 . S
C795 C796 1.349 . S
C795 C797 1.327 . S
C795 H818 0.950 . S
C796 C795 1.349 . S
C796 C808 1.349 . S
C797 C795 1.327 . S
C797 C813 1.429 . S
C797 H819 0.950 . S
C798 H794 0.949 . S
C798 C806 1.574 . S
C798 C814 1.368 . S
H799 C807 0.950 . S
H800 C805 0.950 . S
H801 C806 0.949 . S
H802 C808 0.950 . S
H803 C809 0.950 . S
H804 C810 0.949 . S
C805 H800 0.950 . S
C805 C807 1.327 . S
C805 C811 1.429 . S
C806 C798 1.574 . S
C806 H801 0.949 . S
C806 C812 1.368 . S
C807 C791 1.349 . S
C807 H799 0.950 . S
C807 C805 1.327 . S
C808 C796 1.349 . S
C808 H802 0.950 . S
C808 C809 1.327 . S
C809 H803 0.950 . S
C809 C808 1.327 . S
C809 C813 1.429 . S
C810 C793 1.574 . S
C810 H804 0.949 . S
C810 C814 1.368 . S
C811 C792 1.429 . S
C811 C805 1.429 . S
C811 C812 1.523 . S
C812 C793 1.368 . S
C812 C806 1.368 . S
C812 C811 1.523 . S
C813 C797 1.429 . S
C813 C809 1.429 . S
C813 C814 1.523 . S
C814 C798 1.368 . S
C814 C810 1.368 . S
C814 C813 1.523 . S
H815 C790 0.950 . S
H816 C792 0.950 . S
H817 C793 0.949 . S
H818 C795 0.950 . S
H819 C797 0.950 . S
C820 C821 1.349 . S
C820 C822 1.327 . S
C820 H845 0.950 . S
C821 C820 1.349 . S
C821 C837 1.349 . S
C822 C820 1.327 . S
C822 C841 1.429 . S
C822 H846 0.950 . S
C823 C840 1.574 . S
C823 C842 1.368 . S
C823 H847 0.949 . S
H824 C828 0.949 . S
C825 C826 1.349 . S
C825 C827 1.327 . S
C825 H848 0.950 . S
C826 C825 1.349 . S
C826 C838 1.349 . S
C827 C825 1.327 . S
C827 C843 1.429 . S
C827 H849 0.950 . S
C828 H824 0.949 . S
C828 C836 1.574 . S
C828 C844 1.368 . S
H829 C837 0.950 . S
H830 C835 0.950 . S
H831 C836 0.949 . S
H832 C838 0.950 1_554 S
H833 C839 0.950 1_554 S
H834 C840 0.949 . S
C835 H830 0.950 . S
C835 C837 1.327 . S
C835 C841 1.429 . S
C836 C828 1.574 . S
C836 H831 0.949 . S
C836 C842 1.368 . S
C837 C821 1.349 . S
C837 H829 0.950 . S
C837 C835 1.327 . S
C838 C826 1.349 . S
C838 H832 0.950 1_556 S
C838 C839 1.327 . S
C839 H833 0.950 1_556 S
C839 C838 1.327 . S
C839 C843 1.429 . S
C840 C823 1.574 . S
C840 H834 0.949 . S
C840 C844 1.368 . S
C841 C822 1.429 . S
C841 C835 1.429 . S
C841 C842 1.523 . S
C842 C823 1.368 . S
C842 C836 1.368 . S
C842 C841 1.523 . S
C843 C827 1.429 . S
C843 C839 1.429 . S
C843 C844 1.523 . S
C844 C828 1.368 . S
C844 C840 1.368 . S
C844 C843 1.523 . S
H845 C820 0.950 . S
H846 C822 0.950 . S
H847 C823 0.949 . S
H848 C825 0.950 . S
H849 C827 0.950 . S
C850 C851 1.349 . S
C850 C852 1.327 . S
C850 H875 0.950 . S
C851 C850 1.349 . S
C851 C867 1.349 . S
C852 C850 1.327 . S
C852 C871 1.429 . S
C852 H876 0.950 . S
C853 C870 1.574 . S
C853 C872 1.368 . S
C853 H877 0.949 . S
H854 C858 0.949 . S
C855 C856 1.349 . S
C855 C857 1.327 . S
C855 H878 0.950 . S
C856 C855 1.349 . S
C856 C868 1.349 . S
C857 C855 1.327 . S
C857 C873 1.429 . S
C857 H879 0.950 . S
C858 H854 0.949 . S
C858 C866 1.574 . S
C858 C874 1.368 . S
H859 C867 0.950 . S
H860 C865 0.950 . S
H861 C866 0.949 . S
H862 C868 0.950 . S
H863 C869 0.950 . S
H864 C870 0.949 . S
C865 H860 0.950 . S
C865 C867 1.327 . S
C865 C871 1.429 . S
C866 C858 1.574 . S
C866 H861 0.949 . S
C866 C872 1.368 . S
C867 C851 1.349 . S
C867 H859 0.950 . S
C867 C865 1.327 . S
C868 C856 1.349 . S
C868 H862 0.950 . S
C868 C869 1.327 . S
C869 H863 0.950 . S
C869 C868 1.327 . S
C869 C873 1.429 . S
C870 C853 1.574 . S
C870 H864 0.949 . S
C870 C874 1.368 . S
C871 C852 1.429 . S
C871 C865 1.429 . S
C871 C872 1.523 . S
C872 C853 1.368 . S
C872 C866 1.368 . S
C872 C871 1.523 . S
C873 C857 1.429 . S
C873 C869 1.429 . S
C873 C874 1.523 . S
C874 C858 1.368 . S
C874 C870 1.368 . S
C874 C873 1.523 . S
H875 C850 0.950 . S
H876 C852 0.950 . S
H877 C853 0.949 . S
H878 C855 0.950 . S
H879 C857 0.950 . S
C880 C881 1.349 . S
C880 C882 1.327 . S
C880 H905 0.950 . S
C881 C880 1.349 . S
C881 C897 1.349 . S
C882 C880 1.327 . S
C882 C901 1.429 . S
C882 H906 0.950 . S
C883 C900 1.574 . S
C883 C902 1.368 . S
C883 H907 0.949 . S
H884 C888 0.949 . S
C885 C886 1.349 . S
C885 C887 1.327 . S
C885 H908 0.950 1_554 S
C886 C885 1.349 . S
C886 C898 1.349 . S
C887 C885 1.327 . S
C887 C903 1.429 . S
C887 H909 0.950 . S
C888 H884 0.949 . S
C888 C896 1.574 . S
C888 C904 1.368 . S
H889 C897 0.950 . S
H890 C895 0.950 . S
H891 C896 0.949 . S
H892 C898 0.950 . S
H893 C899 0.950 . S
H894 C900 0.949 . S
C895 H890 0.950 . S
C895 C897 1.327 . S
C895 C901 1.429 . S
C896 C888 1.574 . S
C896 H891 0.949 . S
C896 C902 1.368 . S
C897 C881 1.349 . S
C897 H889 0.950 . S
C897 C895 1.327 . S
C898 C886 1.349 . S
C898 H892 0.950 . S
C898 C899 1.327 . S
C899 H893 0.950 . S
C899 C898 1.327 . S
C899 C903 1.429 . S
C900 C883 1.574 . S
C900 H894 0.949 . S
C900 C904 1.368 . S
C901 C882 1.429 . S
C901 C895 1.429 . S
C901 C902 1.523 . S
C902 C883 1.368 . S
C902 C896 1.368 . S
C902 C901 1.523 . S
C903 C887 1.429 . S
C903 C899 1.429 . S
C903 C904 1.523 . S
C904 C888 1.368 . S
C904 C900 1.368 . S
C904 C903 1.523 . S
H905 C880 0.950 . S
H906 C882 0.950 . S
H907 C883 0.949 . S
H908 C885 0.950 1_556 S
H909 C887 0.950 . S
C910 C911 1.349 . S
C910 C912 1.327 . S
C910 H935 0.950 . S
C911 C910 1.349 . S
C911 C927 1.349 . S
C912 C910 1.327 . S
C912 C931 1.429 . S
C912 H936 0.950 . S
C913 C930 1.574 . S
C913 C932 1.368 . S
C913 H937 0.949 . S
H914 C918 0.949 . S
C915 C916 1.349 . S
C915 C917 1.327 . S
C915 H938 0.950 . S
C916 C915 1.349 . S
C916 C928 1.349 . S
C917 C915 1.327 . S
C917 C933 1.429 . S
C917 H939 0.950 . S
C918 H914 0.949 . S
C918 C926 1.574 . S
C918 C934 1.368 . S
H919 C927 0.950 . S
H920 C925 0.950 . S
H921 C926 0.949 . S
H922 C928 0.950 . S
H923 C929 0.950 . S
H924 C930 0.949 . S
C925 H920 0.950 . S
C925 C927 1.327 . S
C925 C931 1.429 . S
C926 C918 1.574 . S
C926 H921 0.949 . S
C926 C932 1.368 . S
C927 C911 1.349 . S
C927 H919 0.950 . S
C927 C925 1.327 . S
C928 C916 1.349 . S
C928 H922 0.950 . S
C928 C929 1.327 . S
C929 H923 0.950 . S
C929 C928 1.327 . S
C929 C933 1.429 . S
C930 C913 1.574 . S
C930 H924 0.949 . S
C930 C934 1.368 . S
C931 C912 1.429 . S
C931 C925 1.429 . S
C931 C932 1.523 . S
C932 C913 1.368 . S
C932 C926 1.368 . S
C932 C931 1.523 . S
C933 C917 1.429 . S
C933 C929 1.429 . S
C933 C934 1.523 . S
C934 C918 1.368 . S
C934 C930 1.368 . S
C934 C933 1.523 . S
H935 C910 0.950 . S
H936 C912 0.950 . S
H937 C913 0.949 . S
H938 C915 0.950 . S
H939 C917 0.950 . S
C940 C941 1.349 . S
C940 C942 1.327 . S
C940 H965 0.950 . S
C941 C940 1.349 . S
C941 C957 1.349 . S
C942 C940 1.327 . S
C942 C961 1.429 . S
C942 H966 0.950 . S
C943 C960 1.574 . S
C943 C962 1.368 . S
C943 H967 0.949 . S
H944 C948 0.949 . S
C945 C946 1.349 . S
C945 C947 1.327 . S
C945 H968 0.950 1_556 S
C946 C945 1.349 . S
C946 C958 1.349 . S
C947 C945 1.327 . S
C947 C963 1.429 . S
C947 H969 0.950 1_556 S
C948 H944 0.949 . S
C948 C956 1.574 . S
C948 C964 1.368 . S
H949 C957 0.950 . S
H950 C955 0.950 . S
H951 C956 0.949 . S
H952 C958 0.950 . S
H953 C959 0.950 . S
H954 C960 0.949 . S
C955 H950 0.950 . S
C955 C957 1.327 . S
C955 C961 1.429 . S
C956 C948 1.574 . S
C956 H951 0.949 . S
C956 C962 1.368 . S
C957 C941 1.349 . S
C957 H949 0.950 . S
C957 C955 1.327 . S
C958 C946 1.349 . S
C958 H952 0.950 . S
C958 C959 1.327 . S
C959 H953 0.950 . S
C959 C958 1.327 . S
C959 C963 1.429 . S
C960 C943 1.574 . S
C960 H954 0.949 . S
C960 C964 1.368 . S
C961 C942 1.429 . S
C961 C955 1.429 . S
C961 C962 1.523 . S
C962 C943 1.368 . S
C962 C956 1.368 . S
C962 C961 1.523 . S
C963 C947 1.429 . S
C963 C959 1.429 . S
C963 C964 1.523 . S
C964 C948 1.368 . S
C964 C960 1.368 . S
C964 C963 1.523 . S
H965 C940 0.950 . S
H966 C942 0.950 . S
H967 C943 0.949 . S
H968 C945 0.950 1_554 S
H969 C947 0.950 1_554 S
C970 C971 1.349 . S
C970 C972 1.327 . S
C970 H995 0.950 . S
C971 C970 1.349 . S
C971 C987 1.349 . S
C972 C970 1.327 . S
C972 C991 1.429 . S
C972 H996 0.950 . S
C973 C990 1.574 . S
C973 C992 1.368 . S
C973 H997 0.949 . S
H974 C978 0.949 . S
C975 C976 1.349 . S
C975 C977 1.327 . S
C975 H998 0.950 . S
C976 C975 1.349 . S
C976 C988 1.349 . S
C977 C975 1.327 . S
C977 C993 1.429 . S
C977 H999 0.950 . S
C978 H974 0.949 . S
C978 C986 1.574 . S
C978 C994 1.368 . S
H979 C987 0.950 . S
H980 C985 0.950 . S
H981 C986 0.949 . S
H982 C988 0.950 . S
H983 C989 0.950 . S
H984 C990 0.949 . S
C985 H980 0.950 . S
C985 C987 1.327 . S
C985 C991 1.429 . S
C986 C978 1.574 . S
C986 H981 0.949 . S
C986 C992 1.368 . S
C987 C971 1.349 . S
C987 H979 0.950 . S
C987 C985 1.327 . S
C988 C976 1.349 . S
C988 H982 0.950 . S
C988 C989 1.327 . S
C989 H983 0.950 . S
C989 C988 1.327 . S
C989 C993 1.429 . S
C990 C973 1.574 . S
C990 H984 0.949 . S
C990 C994 1.368 . S
C991 C972 1.429 . S
C991 C985 1.429 . S
C991 C992 1.523 . S
C992 C973 1.368 . S
C992 C986 1.368 . S
C992 C991 1.523 . S
C993 C977 1.429 . S
C993 C989 1.429 . S
C993 C994 1.523 . S
C994 C978 1.368 . S
C994 C990 1.368 . S
C994 C993 1.523 . S
H995 C970 0.950 . S
H996 C972 0.950 . S
H997 C973 0.949 . S
H998 C975 0.950 . S
H999 C977 0.950 . S
C1000 C1001 1.349 . S
C1000 C1002 1.327 . S
C1000 H1025 0.950 . S
C1001 C1000 1.349 . S
C1001 C1017 1.349 . S
C1002 C1000 1.327 . S
C1002 C1021 1.429 . S
C1002 H1026 0.950 . S
C1003 C1020 1.574 . S
C1003 C1022 1.368 . S
C1003 H1027 0.949 . S
H1004 C1008 0.949 . S
C1005 C1006 1.349 . S
C1005 C1007 1.327 . S
C1005 H1028 0.950 . S
C1006 C1005 1.349 . S
C1006 C1018 1.349 . S
C1007 C1005 1.327 . S
C1007 C1023 1.429 . S
C1007 H1029 0.950 . S
C1008 H1004 0.949 . S
C1008 C1016 1.574 . S
C1008 C1024 1.368 . S
H1009 C1017 0.950 . S
H1010 C1015 0.950 . S
H1011 C1016 0.949 . S
H1012 C1018 0.950 1_655 S
H1013 C1019 0.950 . S
H1014 C1020 0.949 . S
C1015 H1010 0.950 . S
C1015 C1017 1.327 . S
C1015 C1021 1.429 . S
C1016 C1008 1.574 . S
C1016 H1011 0.949 . S
C1016 C1022 1.368 . S
C1017 C1001 1.349 . S
C1017 H1009 0.950 . S
C1017 C1015 1.327 . S
C1018 C1006 1.349 . S
C1018 H1012 0.950 1_455 S
C1018 C1019 1.327 . S
C1019 H1013 0.950 . S
C1019 C1018 1.327 . S
C1019 C1023 1.429 . S
C1020 C1003 1.574 . S
C1020 H1014 0.949 . S
C1020 C1024 1.368 . S
C1021 C1002 1.429 . S
C1021 C1015 1.429 . S
C1021 C1022 1.523 . S
C1022 C1003 1.368 . S
C1022 C1016 1.368 . S
C1022 C1021 1.523 . S
C1023 C1007 1.429 . S
C1023 C1019 1.429 . S
C1023 C1024 1.523 . S
C1024 C1008 1.368 . S
C1024 C1020 1.368 . S
C1024 C1023 1.523 . S
H1025 C1000 0.950 . S
H1026 C1002 0.950 . S
H1027 C1003 0.949 . S
H1028 C1005 0.950 . S
H1029 C1007 0.950 . S
C1030 C1031 1.349 . S
C1030 C1032 1.327 . S
C1030 H1055 0.950 . S
C1031 C1030 1.349 . S
C1031 C1047 1.349 . S
C1032 C1030 1.327 . S
C1032 C1051 1.429 . S
C1032 H1056 0.950 . S
C1033 C1050 1.574 . S
C1033 C1052 1.368 . S
C1033 H1057 0.949 . S
H1034 C1038 0.949 . S
C1035 C1036 1.349 . S
C1035 C1037 1.327 . S
C1035 H1058 0.950 . S
C1036 C1035 1.349 . S
C1036 C1048 1.349 . S
C1037 C1035 1.327 . S
C1037 C1053 1.429 . S
C1037 H1059 0.950 . S
C1038 H1034 0.949 . S
C1038 C1046 1.574 . S
C1038 C1054 1.368 . S
H1039 C1047 0.950 . S
H1040 C1045 0.950 . S
H1041 C1046 0.949 . S
H1042 C1048 0.950 . S
H1043 C1049 0.950 . S
H1044 C1050 0.949 . S
C1045 H1040 0.950 . S
C1045 C1047 1.327 . S
C1045 C1051 1.429 . S
C1046 C1038 1.574 . S
C1046 H1041 0.949 . S
C1046 C1052 1.368 . S
C1047 C1031 1.349 . S
C1047 H1039 0.950 . S
C1047 C1045 1.327 . S
C1048 C1036 1.349 . S
C1048 H1042 0.950 . S
C1048 C1049 1.327 . S
C1049 H1043 0.950 . S
C1049 C1048 1.327 . S
C1049 C1053 1.429 . S
C1050 C1033 1.574 . S
C1050 H1044 0.949 . S
C1050 C1054 1.368 . S
C1051 C1032 1.429 . S
C1051 C1045 1.429 . S
C1051 C1052 1.523 . S
C1052 C1033 1.368 . S
C1052 C1046 1.368 . S
C1052 C1051 1.523 . S
C1053 C1037 1.429 . S
C1053 C1049 1.429 . S
C1053 C1054 1.523 . S
C1054 C1038 1.368 . S
C1054 C1050 1.368 . S
C1054 C1053 1.523 . S
H1055 C1030 0.950 . S
H1056 C1032 0.950 . S
H1057 C1033 0.949 . S
H1058 C1035 0.950 . S
H1059 C1037 0.950 . S
C341 C29 1.621 . S
C346 C274 1.644 . S
C371 C49 1.466 . S
C376 C291 1.414 . S
C406 C314 1.205 . S
C401 C93 1.371 . S
C431 C119 1.672 . S
C436 C335 1.457 . S
C466 C294 1.770 . S
C461 C17 1.758 . S
C496 C271 1.713 . S
C491 C61 1.771 . S
C526 C333 1.249 . S
C521 C81 1.259 . S
C556 C312 1.424 . S
C551 C125 1.391 . S
C581 C23 1.703 . S
C586 C336 1.708 . S
C616 C293 1.309 . S
C611 C87 1.519 . S
C641 C113 1.630 . S
C646 C269 1.515 . S
C671 C55 1.503 . S
C676 C315 1.478 . S
C706 C273 1.591 . S
C701 C157 1.643 . S
C731 C189 1.237 . S
C736 C292 1.249 . S
C761 C221 1.489 . S
C766 C311 1.276 . S
C791 C253 1.636 . S
C796 C332 1.428 . S
C821 C145 1.836 . S
C826 C295 1.793 . S
C856 C270 1.716 . S
C851 C183 1.708 . S
C886 C334 1.166 . S
C881 C209 1.207 . S
C916 C313 1.503 . S
C911 C247 1.484 . S
C941 C151 1.567 . S
C946 C337 1.529 . S
C976 C290 1.219 . S
C971 C215 1.452 . S
C1006 C272 1.279 . S
C1001 C241 1.380 . S
C1031 C177 1.419 . S
C1036 C316 1.439 . S
