# Generated by pormake.
# Topology zzz, (3,6)-cn, num edge types: 1
# Building blocks:
#     Node 0, Type 0, BuildingBlock: QEWDON_clean_linker_0, # of connection points: 3
#     Node 1, Type 0, BuildingBlock: QEWDON_clean_linker_0, # of connection points: 3
#     Node 2, Type 0, BuildingBlock: QEWDON_clean_linker_0, # of connection points: 3
#     Node 3, Type 0, BuildingBlock: QEWDON_clean_linker_0, # of connection points: 3
#     Node 4, Type 0, BuildingBlock: QEWDON_clean_linker_0, # of connection points: 3
#     Node 5, Type 0, BuildingBlock: QEWDON_clean_linker_0, # of connection points: 3
#     Node 6, Type 0, BuildingBlock: QEWDON_clean_linker_0, # of connection points: 3
#     Node 7, Type 0, BuildingBlock: QEWDON_clean_linker_0, # of connection points: 3
#     Node 8, Type 1, BuildingBlock: KUMBOL_clean_sbu_1, # of connection points: 6
#     Node 9, Type 1, BuildingBlock: KUMBOL_clean_sbu_1, # of connection points: 6
#     Node 10, Type 1, BuildingBlock: KUMBOL_clean_sbu_1, # of connection points: 6
#     Node 11, Type 1, BuildingBlock: KUMBOL_clean_sbu_1, # of connection points: 6
#     Edge 12, Type (0, 1), BuildingBlock: KIFKEQ_clean_linker_1, # of connection points: 2
#     Edge 13, Type (0, 1), BuildingBlock: KIFKEQ_clean_linker_1, # of connection points: 2
#     Edge 14, Type (0, 1), BuildingBlock: KIFKEQ_clean_linker_1, # of connection points: 2
#     Edge 15, Type (0, 1), BuildingBlock: KIFKEQ_clean_linker_1, # of connection points: 2
#     Edge 16, Type (0, 1), BuildingBlock: KIFKEQ_clean_linker_1, # of connection points: 2
#     Edge 17, Type (0, 1), BuildingBlock: KIFKEQ_clean_linker_1, # of connection points: 2
#     Edge 18, Type (0, 1), BuildingBlock: KIFKEQ_clean_linker_1, # of connection points: 2
#     Edge 19, Type (0, 1), BuildingBlock: KIFKEQ_clean_linker_1, # of connection points: 2
#     Edge 20, Type (0, 1), BuildingBlock: KIFKEQ_clean_linker_1, # of connection points: 2
#     Edge 21, Type (0, 1), BuildingBlock: KIFKEQ_clean_linker_1, # of connection points: 2
#     Edge 22, Type (0, 1), BuildingBlock: KIFKEQ_clean_linker_1, # of connection points: 2
#     Edge 23, Type (0, 1), BuildingBlock: KIFKEQ_clean_linker_1, # of connection points: 2
#     Edge 24, Type (0, 1), BuildingBlock: KIFKEQ_clean_linker_1, # of connection points: 2
#     Edge 25, Type (0, 1), BuildingBlock: KIFKEQ_clean_linker_1, # of connection points: 2
#     Edge 26, Type (0, 1), BuildingBlock: KIFKEQ_clean_linker_1, # of connection points: 2
#     Edge 27, Type (0, 1), BuildingBlock: KIFKEQ_clean_linker_1, # of connection points: 2
#     Edge 28, Type (0, 1), BuildingBlock: KIFKEQ_clean_linker_1, # of connection points: 2
#     Edge 29, Type (0, 1), BuildingBlock: KIFKEQ_clean_linker_1, # of connection points: 2
#     Edge 30, Type (0, 1), BuildingBlock: KIFKEQ_clean_linker_1, # of connection points: 2
#     Edge 31, Type (0, 1), BuildingBlock: KIFKEQ_clean_linker_1, # of connection points: 2
#     Edge 32, Type (0, 1), BuildingBlock: KIFKEQ_clean_linker_1, # of connection points: 2
#     Edge 33, Type (0, 1), BuildingBlock: KIFKEQ_clean_linker_1, # of connection points: 2
#     Edge 34, Type (0, 1), BuildingBlock: KIFKEQ_clean_linker_1, # of connection points: 2
#     Edge 35, Type (0, 1), BuildingBlock: KIFKEQ_clean_linker_1, # of connection points: 2
# Relax obj value: 0.113
# Max RMSD: 0.096
# Mean RMSD: 0.038
data_MOF--net-zzz--node1-KUMBOL_clean_sbu_1--node2-QEWDON_clean_linker_0--edge1-KIFKEQ_clean_linker_1
_symmetry_space_group_name_H-M    P1
_symmetry_Int_Tables_number       1
_symmetry_cell_setting            triclinic
loop_
_symmetry_equiv_pos_as_xyz
'x, y, z'
_cell_length_a     54.816097
_cell_length_b     54.78909
_cell_length_c     15.700944
_cell_angle_alpha  90.235274
_cell_angle_beta   89.988063
_cell_angle_gamma 90.616767
loop_
_atom_site_label
_atom_site_type_symbol
_atom_site_fract_x
_atom_site_fract_y
_atom_site_fract_z
_atom_type_partial_charge
H0 H 0.76273 0.5726 0.16233 0.0
C1 C 0.77609 0.56631 0.20758 0.0
C2 C 0.8002 0.57449 0.19762 0.0
C3 C 0.7695 0.54962 0.27172 0.0
H4 H 0.83668 0.5738 0.24966 0.0
C5 C 0.81788 0.56792 0.25795 0.0
C6 C 0.8125 0.55198 0.32472 0.0
C7 C 0.78827 0.54232 0.33048 0.0
C8 C 0.74314 0.54032 0.27555 0.0
H9 H 0.78437 0.52914 0.37981 0.0
C10 C 0.72684 0.54058 0.20344 0.0
C11 C 0.70206 0.53263 0.21021 0.0
C12 C 0.73361 0.53186 0.35336 0.0
H13 H 0.74457 0.53189 0.41057 0.0
C14 C 0.70945 0.52379 0.35991 0.0
H15 H 0.73323 0.54631 0.1415 0.0
C16 C 0.69391 0.52413 0.28961 0.0
H17 H 0.67519 0.51802 0.29782 0.0
H18 H 0.70258 0.51744 0.42065 0.0
H19 H 0.98977 0.77307 0.12319 0.0
C20 C 0.99346 0.78513 0.17627 0.0
C21 C 0.98948 0.81004 0.16383 0.0
C22 C 1.00226 0.77609 0.2542 0.0
H23 H 0.98966 0.84576 0.22139 0.0
C24 C 0.99248 0.82643 0.23178 0.0
C25 C 1.0007 0.81874 0.31145 0.0
C26 C 1.0062 0.79354 0.32207 0.0
C27 C 1.00689 0.74868 0.26272 0.0
H28 H 1.01343 0.78791 0.38279 0.0
C29 C 1.00905 0.73246 0.19059 0.0
C30 C 1.01246 0.70691 0.20079 0.0
C31 C 1.00838 0.73811 0.34419 0.0
H32 H 1.00613 0.74888 0.40135 0.0
C33 C 1.01225 0.71313 0.35422 0.0
H34 H 1.00866 0.73928 0.12623 0.0
C35 C 1.01431 0.69774 0.28368 0.0
H36 H 1.01696 0.6784 0.29403 0.0
H37 H 1.01335 0.70554 0.41764 0.0
H38 H 0.77907 0.99229 0.14207 0.0
C39 C 0.76802 0.99699 0.19665 0.0
C40 C 0.74286 0.99261 0.19167 0.0
C41 C 0.77863 1.00703 0.27116 0.0
H42 H 0.70822 0.99477 0.25523 0.0
C43 C 0.72777 0.99784 0.26099 0.0
C44 C 0.73697 1.0083 0.33543 0.0
C45 C 0.7625 1.0131 0.34048 0.0
C46 C 0.80627 1.01043 0.27636 0.0
H47 H 0.76944 0.02185 0.39749 0.0
C48 C 0.82181 1.01223 0.2027 0.0
C49 C 0.84764 1.01464 0.21075 0.0
C50 C 0.81765 1.01084 0.35684 0.0
H51 H 0.80723 1.00859 0.41477 0.0
C52 C 0.84289 1.01347 0.36474 0.0
H53 H 0.81413 1.01232 0.13931 0.0
C54 C 0.85768 1.01543 0.2929 0.0
H55 H 0.87723 1.01722 0.30165 0.0
H56 H 0.85113 1.01373 0.42741 0.0
H57 H 0.56202 0.78775 0.14072 0.0
C58 C 0.55665 0.77512 0.19022 0.0
C59 C 0.56182 0.75043 0.17777 0.0
C60 C 0.54497 0.78348 0.26434 0.0
H61 H 0.56015 0.7143 0.2313 0.0
C62 C 0.55647 0.73348 0.24202 0.0
C63 C 0.54525 0.74056 0.31815 0.0
C64 C 0.53921 0.7657 0.32894 0.0
C65 C 0.54023 0.8108 0.27333 0.0
H66 H 0.52995 0.7711 0.38671 0.0
C67 C 0.53861 0.82697 0.20137 0.0
C68 C 0.5377 0.8528 0.2119 0.0
C69 C 0.53933 0.8214 0.355 0.0
H70 H 0.54088 0.81038 0.41167 0.0
C71 C 0.53745 0.84663 0.36554 0.0
H72 H 0.53861 0.8198 0.13712 0.0
C73 C 0.53698 0.86213 0.29527 0.0
H74 H 0.53601 0.88164 0.30627 0.0
H75 H 0.53694 0.85432 0.42913 0.0
H76 H 0.27953 0.49286 0.20733 0.0
C77 C 0.26728 0.49773 0.15642 0.0
C78 C 0.24224 0.49454 0.17062 0.0
C79 C 0.27633 0.5073 0.07947 0.0
H80 H 0.2062 0.49734 0.11722 0.0
C81 C 0.2256 0.49938 0.10521 0.0
C82 C 0.23331 0.50822 0.02611 0.0
C83 C 0.25881 0.51246 0.01352 0.0
C84 C 0.30384 0.5116 0.07033 0.0
H85 H 0.2646 0.52033 0.95374 0.0
C86 C 0.32014 0.51386 0.14216 0.0
C87 C 0.3458 0.51705 0.13138 0.0
C88 C 0.31435 0.5127 0.98861 0.0
H89 H 0.30338 0.51039 0.93192 0.0
C90 C 0.33944 0.5162 0.97792 0.0
H91 H 0.31321 0.51377 0.20656 0.0
C92 C 0.35494 0.51839 0.04806 0.0
H93 H 0.37433 0.52077 0.037 0.0
H94 H 0.34702 0.51695 0.91429 0.0
H95 H 0.06512 0.29154 0.17602 0.0
C96 C 0.05862 0.27792 0.13141 0.0
C97 C 0.06553 0.25377 0.14575 0.0
C98 C 0.04326 0.28422 0.06325 0.0
H99 H 0.06375 0.21667 0.09969 0.0
C100 C 0.05876 0.23544 0.08746 0.0
C101 C 0.04432 0.24051 0.01642 0.0
C102 C 0.03625 0.26493 1.00504 0.0
C103 C 0.03467 0.31065 0.05531 0.0
H104 H 0.02403 0.26835 0.95259 0.0
C105 C 0.03622 0.32826 0.12387 0.0
C106 C 0.02894 0.35304 0.11345 0.0
C107 C 0.0252 0.31881 0.97729 0.0
H108 H 0.02419 0.30703 0.92209 0.0
C109 C 1.01701 0.34262 0.96777 0.0
H110 H 0.04312 0.32308 0.18537 0.0
C111 C 0.01867 0.3594 0.03449 0.0
H112 H 1.01162 0.37748 0.02353 0.0
H113 H 1.00942 0.34825 0.90738 0.0
H114 H 0.26289 0.06491 0.17555 0.0
C115 C 0.27615 0.05792 0.13102 0.0
C116 C 0.29963 0.06818 0.13292 0.0
C117 C 0.27006 0.03902 0.07318 0.0
H118 H 0.33582 0.06764 0.07978 0.0
C119 C 0.31746 0.06008 0.07583 0.0
C120 C 0.3128 0.04116 0.01827 0.0
C121 C 0.28901 0.03051 0.01706 0.0
C122 C 0.24401 0.02891 0.07103 0.0
H123 H 0.28574 1.01534 0.97421 0.0
C124 C 0.22705 0.03144 0.14053 0.0
C125 C 0.2022 0.02373 0.13288 0.0
C126 C 0.2353 1.01769 0.99594 0.0
H127 H 0.24672 1.01587 0.94023 0.0
C128 C 0.21133 1.00917 0.98961 0.0
H129 H 0.23275 0.03967 0.2 0.0
C130 C 0.19501 1.01217 0.0567 0.0
H131 H 0.17653 1.00536 0.04861 0.0
H132 H 0.20519 1.0005 0.93124 0.0
H133 H 0.48993 0.27233 0.21564 0.0
C134 C 0.49488 0.28506 0.16607 0.0
C135 C 0.48792 0.30939 0.1769 0.0
C136 C 0.50827 0.27739 0.09452 0.0
H137 H 0.4872 0.34522 0.12072 0.0
C138 C 0.49238 0.32633 0.11179 0.0
C139 C 0.50498 0.31985 0.03768 0.0
C140 C 0.51349 0.2954 0.03007 0.0
C141 C 0.51622 0.25073 0.08887 0.0
H142 H 0.52411 0.29076 0.97443 0.0
C143 C 0.5174 0.23481 0.16173 0.0
C144 C 0.52402 0.20982 0.15367 0.0
C145 C 0.52193 0.24052 0.00898 0.0
H146 H 0.52068 0.25108 0.9512 0.0
C147 C 0.52883 0.21616 1.00116 0.0
H148 H 0.51381 0.24158 0.22515 0.0
C149 C 0.52991 0.20104 0.07225 0.0
H150 H 0.53498 0.18215 0.06318 0.0
H151 H 0.53311 0.20881 0.93887 0.0
C152 C 0.06855 0.06321 0.86568 0.0
C153 C 0.04367 0.0689 0.99179 0.0
C154 C 0.04856 0.05637 0.91503 0.0
C155 C 0.05848 0.08882 0.01617 0.0
C156 C 0.08399 0.08261 0.89157 0.0
C157 C 0.07863 0.09561 0.96636 0.0
N158 N 0.07278 0.051 0.79165 0.0
C159 C 0.09318 0.05576 0.74433 0.0
C160 C 0.10439 0.08834 0.84141 0.0
C161 C 0.10914 0.07469 0.76799 0.0
Gd162 Gd 1.00109 0.04208 0.58137 0.0
Gd163 Gd 0.0456 1.01908 0.75846 0.0
N164 N 0.03459 0.03689 0.89004 0.0
C165 C 0.02449 0.06059 0.04316 0.0
C166 C 1.01734 0.02748 0.94394 0.0
C167 C 1.01158 0.03953 0.01988 0.0
H168 H 1.00833 1.01034 0.93024 0.0
H169 H 0.99749 0.03226 0.06124 0.0
H170 H 0.03052 0.02256 0.40872 0.0
H171 H 0.09686 0.04515 0.6877 0.0
H172 H 0.02208 0.99793 0.27947 0.0
H173 H 0.02014 0.06973 0.10252 0.0
H174 H 0.05483 0.09878 0.07449 0.0
H175 H 0.94645 0.05373 0.6686 0.0
H176 H 0.11669 0.10311 0.85924 0.0
H177 H 0.12505 0.07875 0.72957 0.0
H178 H 0.93675 0.97789 0.30088 0.0
H179 H 0.0901 0.11076 0.98674 0.0
H180 H 0.89205 1.01252 0.53362 0.0
H181 H 0.9036 0.04047 0.65143 0.0
N182 N 0.95949 0.03173 0.5667 0.0
C183 C 0.95336 1.0172 0.49968 0.0
C184 C 0.94185 0.04068 0.61934 0.0
C185 C 0.911 1.0178 0.54221 0.0
C186 C 0.91745 0.03355 0.60884 0.0
C187 C 0.92896 1.00977 0.48561 0.0
H188 H 0.9046 0.98917 0.40284 0.0
N189 N 0.99447 1.0189 0.45715 0.0
C190 C 0.97137 1.01084 0.44245 0.0
C191 C 0.98423 0.99187 0.31095 0.0
C192 C 0.96563 0.99689 0.36936 0.0
C193 C 1.01243 1.01516 0.39833 0.0
C194 C 1.00769 1.00128 0.32509 0.0
O195 O 0.04397 0.05934 0.71526 0.0
O196 O 1.0036 0.06412 0.70306 0.0
O197 O 0.01872 0.07165 0.51442 0.0
O198 O 0.97919 0.07037 0.52306 0.0
O199 O 1.00555 1.00768 0.7796 0.0
O200 O 0.98612 0.0397 0.71633 0.0
O201 O 1.01005 1.00163 0.56683 0.0
O202 O 0.02571 0.98709 0.69419 0.0
O203 O 0.05818 0.99708 0.86419 0.0
O204 O 0.08008 1.00019 0.75044 0.0
O205 O 0.04194 0.04446 0.5501 0.0
O206 O 0.06066 1.01412 0.62576 0.0
C207 C 0.02471 0.07312 0.72648 0.0
C208 C 0.98606 0.02142 0.77048 0.0
C209 C 0.99936 0.10882 0.53938 0.0
C210 C 0.02151 0.14772 0.54782 0.0
C211 C 0.98336 0.14193 0.6251 0.0
C212 C 0.98124 0.11813 0.59333 0.0
C213 C 1.00319 0.15675 0.60202 0.0
C214 C 0.01966 0.12339 0.51955 0.0
C215 C 0.99846 0.08364 0.50606 0.0
C216 C 0.94151 0.98877 0.35635 0.0
C217 C 0.92321 0.99517 0.41444 0.0
H218 H 0.98058 0.98119 0.25404 0.0
C219 C 1.01672 0.98355 0.61685 0.0
C220 C 0.06025 0.02935 0.56153 0.0
C221 C 0.07915 0.96217 0.8162 0.0
C222 C 0.06047 0.92157 0.81286 0.0
C223 C 0.104 0.92675 0.78729 0.0
C224 C 0.10192 0.95194 0.79847 0.0
C225 C 0.08345 0.9116 0.79458 0.0
C226 C 0.05849 0.94697 0.82233 0.0
C227 C 0.07679 0.98878 0.82187 0.0
H228 H 0.96936 0.14905 0.66668 0.0
H229 H 0.96563 0.10706 0.61158 0.0
H230 H 1.00363 0.17544 0.62449 0.0
H231 H 0.03402 0.11559 0.48101 0.0
H232 H 0.12163 0.91892 0.77371 0.0
H233 H 0.11801 0.96346 0.79234 0.0
H234 H 0.08571 0.89206 0.78844 0.0
H235 H 0.04076 0.95493 0.83375 0.0
C236 C 0.53534 0.95657 0.52115 0.0
C237 C 0.5069 0.92636 0.57627 0.0
C238 C 0.51443 0.95089 0.56642 0.0
C239 C 0.52152 0.90759 0.54379 0.0
C240 C 0.54942 0.93783 0.48451 0.0
C241 C 0.54278 0.91332 0.49811 0.0
N242 N 0.5407 0.98044 0.50671 0.0
C243 C 0.55858 0.98674 0.45001 0.0
C244 C 0.56906 0.94432 0.43205 0.0
C245 C 0.5734 0.96889 0.41358 0.0
Gd246 Gd 0.5365 0.05045 0.76575 0.0
Gd247 Gd 0.51546 1.00927 0.57412 0.0
N248 N 0.50057 0.96944 0.59601 0.0
C249 C 0.48451 0.9215 0.61611 0.0
C250 C 0.4781 0.9649 0.63051 0.0
C251 C 0.46992 0.94088 0.64239 0.0
H252 H 0.4667 0.97984 0.65028 0.0
H253 H 0.45234 0.93734 0.67147 0.0
H254 H 0.59766 0.05824 0.73106 0.0
H255 H 0.56125 1.00554 0.43157 0.0
H256 H 0.62505 0.0898 0.67385 0.0
H257 H 0.47808 0.90291 0.62493 0.0
H258 H 0.51618 0.88862 0.55147 0.0
H259 H 0.48413 0.07813 0.8094 0.0
H260 H 0.5803 0.93049 0.40263 0.0
H261 H 0.58786 0.97407 0.37007 0.0
H262 H 0.57443 0.16003 0.64645 0.0
H263 H 0.55348 0.89869 0.47108 0.0
H264 H 0.49178 0.15364 0.74382 0.0
H265 H 0.46673 0.11951 0.80024 0.0
N266 N 0.51822 0.08873 0.75596 0.0
C267 C 0.53276 0.10742 0.72894 0.0
C268 C 0.49506 0.0929 0.78395 0.0
C269 C 0.49948 0.13555 0.74771 0.0
C270 C 0.48524 0.11631 0.77931 0.0
C271 C 0.52359 0.13129 0.72254 0.0
H272 H 0.53185 0.16847 0.68485 0.0
N273 N 0.56554 0.07959 0.71883 0.0
C274 C 0.55686 0.10257 0.70759 0.0
C275 C 0.59683 0.11665 0.66346 0.0
C276 C 0.57226 0.12165 0.67888 0.0
C277 C 0.58997 0.07533 0.71146 0.0
C278 C 0.60581 0.09351 0.68138 0.0
O279 O 0.51619 0.99019 0.70401 0.0
O280 O 0.54649 1.01036 0.77802 0.0
O281 O 0.55757 0.06711 0.8675 0.0
O282 O 0.52414 0.04781 0.89711 0.0
O283 O 0.48381 0.02363 0.65503 0.0
O284 O 0.49889 0.03406 0.78818 0.0
O285 O 0.51557 0.06563 0.65049 0.0
O286 O 0.534 0.04528 0.54469 0.0
O287 O 0.48556 0.02864 0.51642 0.0
O288 O 0.50404 0.99963 0.44503 0.0
O289 O 0.56751 0.0278 0.70787 0.0
O290 O 0.55457 0.02412 0.56937 0.0
C291 C 0.53209 0.99114 0.76713 0.0
C292 C 0.48059 0.0287 0.73669 0.0
C293 C 0.55642 0.04477 0.99431 0.0
C294 C 0.58955 1.01815 0.03803 0.0
C295 C 0.56036 0.03341 0.14236 0.0
C296 C 0.54812 0.04598 0.07849 0.0
C297 C 0.58103 0.01977 0.12269 0.0
C298 C 0.57682 0.03061 0.97419 0.0
C299 C 0.54377 0.05819 0.92729 0.0
C300 C 0.5629 0.14524 0.66912 0.0
C301 C 0.53867 0.15008 0.69128 0.0
H302 H 0.60923 0.13079 0.64124 0.0
C303 C 0.52475 0.06566 0.57304 0.0
C304 C 0.57224 0.02413 0.6263 0.0
C305 C 0.47126 0.02097 0.37261 0.0
C306 C 0.43866 0.04455 0.30818 0.0
C307 C 0.45855 1.01231 0.22759 0.0
C308 C 0.47353 1.00739 0.2971 0.0
C309 C 0.44117 0.03069 0.23296 0.0
C310 C 0.45393 0.0396 0.37754 0.0
C311 C 0.48746 1.01647 0.44526 0.0
H312 H 0.55405 0.03454 0.20759 0.0
H313 H 0.53229 0.05672 0.09477 0.0
H314 H 0.5906 1.01109 0.17445 0.0
H315 H 0.58253 0.02917 0.90832 0.0
H316 H 0.46029 1.00173 0.16956 0.0
H317 H 0.48692 0.99307 0.29161 0.0
H318 H 0.42934 0.03363 0.1788 0.0
H319 H 0.45241 0.05041 0.43524 0.0
C320 C 0.46 0.50797 0.84565 0.0
C321 C 0.47819 0.48922 0.96991 0.0
C322 C 0.48009 0.50456 0.89815 0.0
C323 C 0.45597 0.47732 0.98778 0.0
C324 C 0.43763 0.49609 0.86364 0.0
C325 C 0.43575 0.48076 0.93485 0.0
N326 N 0.46243 0.52265 0.77644 0.0
C327 C 0.44298 0.52682 0.72433 0.0
C328 C 0.41779 0.49993 0.80942 0.0
C329 C 0.42047 0.51544 0.73967 0.0
Gd330 Gd 0.54607 0.51891 0.58331 0.0
Gd331 Gd 0.50096 0.54099 0.75666 0.0
N332 N 0.50158 0.51585 0.87808 0.0
C333 C 0.4987 0.48626 0.02166 0.0
C334 C 0.52125 0.5139 0.93081 0.0
C335 C 0.52024 0.49885 1.00243 0.0
H336 H 0.53762 0.52427 0.91973 0.0
H337 H 0.53602 0.49721 0.04337 0.0
H338 H 0.5075 0.5269 0.41619 0.0
H339 H 0.44453 0.53946 0.67216 0.0
H340 H 0.50384 0.55375 0.2927 0.0
H341 H 0.49798 0.47463 0.07728 0.0
H342 H 0.45422 0.46544 0.04249 0.0
H343 H 0.60188 0.52961 0.6638 0.0
H344 H 0.40031 0.49116 0.8212 0.0
H345 H 0.40514 0.51881 0.69808 0.0
H346 H 0.5789 0.59933 0.29071 0.0
H347 H 0.41872 0.47148 0.94957 0.0
H348 H 0.6377 0.58283 0.50792 0.0
H349 H 0.63779 0.55554 0.63301 0.0
N350 N 0.58122 0.54272 0.55929 0.0
C351 C 0.58102 0.5571 0.48887 0.0
C352 C 0.60137 0.54183 0.61023 0.0
C353 C 0.6218 0.57158 0.52143 0.0
C354 C 0.62188 0.55629 0.59232 0.0
C355 C 0.60125 0.57212 0.46859 0.0
H356 H 0.61557 0.59911 0.38077 0.0
N357 N 0.54083 0.54276 0.45996 0.0
C358 C 0.56015 0.55735 0.43845 0.0
C359 C 0.53844 0.57163 0.31457 0.0
C360 C 0.55929 0.57244 0.36587 0.0
C361 C 0.52133 0.54058 0.40627 0.0
C362 C 0.51956 0.55533 0.33414 0.0
O363 O 0.50111 0.49938 0.73668 0.0
O364 O 0.53983 0.49139 0.68999 0.0
O365 O 0.544 0.49215 0.48163 0.0
O366 O 0.57764 0.49697 0.55151 0.0
O367 O 0.54199 0.54683 0.78616 0.0
O368 O 0.5611 0.51548 0.71649 0.0
O369 O 0.54658 0.56006 0.61536 0.0
O370 O 0.50661 0.56651 0.64416 0.0
O371 O 0.50841 0.56905 0.85066 0.0
O372 O 0.47211 0.5652 0.79811 0.0
O373 O 0.50519 0.51043 0.55969 0.0
O374 O 0.48678 0.54322 0.62166 0.0
C375 C 0.51944 0.48421 0.72701 0.0
C376 C 0.56084 0.53211 0.77696 0.0
C377 C 0.56474 0.45662 0.5246 0.0
C378 C 0.5422 0.41836 0.54602 0.0
C379 C 0.58569 0.42085 0.57676 0.0
C380 C 0.58623 0.44524 0.55119 0.0
C381 C 0.56391 0.40739 0.57358 0.0
C382 C 0.54274 0.44324 0.52477 0.0
C383 C 0.56496 0.48274 0.50169 0.0
C384 C 0.57932 0.58756 0.34597 0.0
C385 C 0.60025 0.58738 0.39709 0.0
H386 H 0.53709 0.58291 0.25829 0.0
C387 C 0.52776 0.57482 0.61699 0.0
C388 C 0.48636 0.52523 0.56616 0.0
C389 C 0.48807 0.60517 0.81128 0.0
C390 C 0.51109 0.6432 0.79112 0.0
C391 C 0.46818 0.64062 0.75175 0.0
C392 C 0.46709 0.61645 0.77948 0.0
C393 C 0.48992 0.65404 0.7583 0.0
C394 C 0.5101 0.61844 0.81389 0.0
C395 C 0.48736 0.57938 0.83856 0.0
H396 H 0.60232 0.41219 0.59725 0.0
H397 H 0.60337 0.45526 0.55294 0.0
H398 H 0.56437 0.38818 0.58927 0.0
H399 H 0.52593 0.45208 0.5069 0.0
H400 H 0.45194 0.6492 0.72729 0.0
H401 H 0.4499 0.60657 0.7756 0.0
H402 H 0.48973 0.67315 0.74119 0.0
H403 H 0.5265 0.6096 0.83571 0.0
C404 C 0.04792 0.46854 0.82757 0.0
C405 C 0.0626 0.48551 0.96151 0.0
C406 C 0.0484 0.48733 0.88698 0.0
C407 C 0.07713 0.46487 0.9738 0.0
C408 C 0.06165 0.44729 0.84171 0.0
C409 C 0.07668 0.44582 0.91398 0.0
N410 N 0.0328 0.47032 0.75916 0.0
C411 C 0.02885 0.45052 0.70752 0.0
C412 C 0.05916 0.42777 0.78461 0.0
C413 C 0.04235 0.42923 0.71817 0.0
Gd414 Gd 0.03938 0.55077 0.57391 0.0
Gd415 Gd 1.01188 0.50758 0.74613 0.0
N416 N 0.03431 0.50715 0.8731 0.0
C417 C 0.0613 0.50422 0.02236 0.0
C418 C 0.03194 0.52483 0.93401 0.0
C419 C 0.04565 0.52381 0.009 0.0
H420 H 0.01967 0.53984 0.92418 0.0
H421 H 0.04414 0.53811 0.05643 0.0
H422 H 0.0629 0.5164 0.41399 0.0
H423 H 1.01499 0.45071 0.6588 0.0
H424 H 0.05279 0.50586 0.26545 0.0
H425 H 0.07187 0.50346 0.08058 0.0
H426 H 0.08833 0.46322 0.03029 0.0
H427 H 1.01071 0.60243 0.61593 0.0
H428 H 0.06937 0.41113 0.79327 0.0
H429 H 0.03949 0.41382 0.67584 0.0
H430 H 0.98696 0.55911 0.19561 0.0
H431 H 0.08749 0.42972 0.92545 0.0
H432 H 0.96619 0.62046 0.40098 0.0
H433 H 0.98142 0.63012 0.54585 0.0
N434 N 1.0112 0.57731 0.51256 0.0
C435 C 1.00439 0.57256 0.43106 0.0
C436 C 1.00403 0.59822 0.55269 0.0
C437 C 0.97897 0.60833 0.43143 0.0
C438 C 0.98754 0.61387 0.5132 0.0
C439 C 0.98766 0.58766 0.38877 0.0
H440 H 0.96784 0.59338 0.27122 0.0
N441 N 0.03318 0.54086 0.42896 0.0
C442 C 1.01541 0.55344 0.38843 0.0
C443 C 0.02268 0.5307 0.25881 0.0
C444 C 1.00962 0.54867 0.30234 0.0
C445 C 0.04731 0.5248 0.38452 0.0
C446 C 0.04191 0.51905 0.29964 0.0
O447 O 0.0498 0.52481 0.76755 0.0
O448 O 0.06598 0.52428 0.63472 0.0
O449 O 0.06642 0.56793 0.49179 0.0
O450 O 0.06103 0.58138 0.61986 0.0
O451 O 1.00419 0.54806 0.7706 0.0
O452 O 0.03655 0.56752 0.706 0.0
O453 O 0.99753 0.55057 0.59433 0.0
O454 O 0.98963 0.5108 0.6248 0.0
O455 O 0.9786 0.51738 0.80868 0.0
O456 O 0.98976 0.47901 0.80784 0.0
O457 O 0.0475 0.51011 0.55488 0.0
O458 O 1.01344 0.49167 0.61137 0.0
C459 C 0.06899 0.52294 0.71763 0.0
C460 C 0.01908 0.56704 0.76339 0.0
C461 C 0.10092 0.58185 0.56906 0.0
C462 C 0.13956 0.56018 0.56981 0.0
C463 C 0.13757 0.60224 0.6199 0.0
C464 C 0.11263 0.60266 0.60206 0.0
C465 C 0.15105 0.58126 0.60317 0.0
C466 C 0.11424 0.5605 0.55582 0.0
C467 C 0.07461 0.58219 0.5522 0.0
C468 C 0.99179 0.56266 0.26147 0.0
C469 C 0.9809 0.58219 0.3045 0.0
H470 H 0.01872 0.52641 0.19278 0.0
C471 C 0.98241 0.53164 0.59307 0.0
C472 C 0.03166 0.49184 0.55665 0.0
C473 C 0.95113 0.48912 0.87689 0.0
C474 C 0.9119 0.50243 0.93 0.0
C475 C 0.92656 0.46202 0.96455 0.0
C476 C 0.94778 0.46654 0.91741 0.0
C477 C 0.90876 0.48002 0.97183 0.0
C478 C 0.9329 0.50674 0.88212 0.0
C479 C 0.97355 0.49498 0.83023 0.0
H480 H 0.14659 0.6184 0.64501 0.0
H481 H 0.10248 0.61918 0.61422 0.0
H482 H 0.17057 0.58194 0.61346 0.0
H483 H 0.10484 0.54422 0.5332 0.0
H484 H 0.92408 0.44471 0.99655 0.0
H485 H 0.96162 0.45262 0.9137 0.0
H486 H 0.89267 0.47655 0.01019 0.0
H487 H 0.93532 0.52429 0.85128 0.0
H488 H 0.2051 1.01738 0.30887 0.0
H489 H 0.15517 0.03917 0.11188 0.0
H490 H 0.17207 0.02014 0.41407 0.0
H491 H 0.12227 0.04097 0.21478 0.0
H492 H 0.06875 0.05987 0.4245 0.0
H493 H 0.10366 0.0609 0.32818 0.0
H494 H 0.13578 1.00088 0.464 0.0
H495 H 0.10117 1.00036 0.56164 0.0
C496 C 0.1872 0.02296 0.28789 0.0
C497 C 0.18302 0.02781 0.20104 0.0
C498 C 0.16803 0.02425 0.34823 0.0
C499 C 0.14404 0.03063 0.32396 0.0
C500 C 0.14024 0.03623 0.23747 0.0
C501 C 0.15926 0.03492 0.17762 0.0
C502 C 0.08323 0.04688 0.43411 0.0
C503 C 0.08179 0.02997 0.50136 0.0
C504 C 0.10339 0.04736 0.37817 0.0
C505 C 0.12292 0.03089 0.38693 0.0
C506 C 0.12153 1.01414 0.45489 0.0
C507 C 0.1014 1.0137 0.51092 0.0
H508 H 0.48768 0.19734 0.26908 0.0
H509 H 0.56203 0.18117 0.20361 0.0
H510 H 0.48734 0.16358 0.3711 0.0
H511 H 0.56239 0.14841 0.30761 0.0
H512 H 0.55114 0.07418 0.42758 0.0
H513 H 0.55077 0.10931 0.33393 0.0
H514 H 0.49739 0.14371 0.49611 0.0
H515 H 0.49657 0.10738 0.58615 0.0
C516 C 0.5042 0.187 0.27807 0.0
C517 C 0.52488 0.19216 0.22764 0.0
C518 C 0.50407 0.16743 0.3369 0.0
C519 C 0.52472 0.15243 0.34811 0.0
C520 C 0.54573 0.15858 0.3002 0.0
C521 C 0.54571 0.1778 0.24082 0.0
C522 C 0.53923 0.08918 0.44342 0.0
C523 C 0.52426 0.08789 0.51623 0.0
C524 C 0.53922 0.10976 0.38976 0.0
C525 C 0.52437 0.13018 0.40669 0.0
C526 C 0.50912 0.12869 0.47933 0.0
C527 C 0.50892 0.10787 0.53246 0.0
H528 H 0.37867 0.55386 0.16477 0.0
H529 H 0.35488 0.48406 0.26081 0.0
H530 H 0.41161 0.55519 0.26969 0.0
H531 H 0.38827 0.48512 0.36592 0.0
H532 H 0.46973 0.48537 0.47115 0.0
H533 H 0.43472 0.48324 0.37305 0.0
H534 H 0.41971 0.55901 0.42371 0.0
H535 H 0.45427 0.56106 0.52137 0.0
C536 C 0.38024 0.53891 0.20929 0.0
C537 C 0.36375 0.51901 0.20456 0.0
C538 C 0.39925 0.53963 0.26972 0.0
C539 C 0.40294 0.52024 0.32699 0.0
C540 C 0.3863 0.50036 0.32288 0.0
C541 C 0.36689 0.49987 0.2632 0.0
C542 C 0.45893 0.50156 0.46149 0.0
C543 C 0.46501 0.52336 0.50506 0.0
C544 C 0.43867 0.50031 0.40545 0.0
C545 C 0.4241 0.52096 0.3897 0.0
C546 C 0.43038 0.54272 0.43304 0.0
C547 C 0.45028 0.54385 0.4898 0.0
H548 H 0.02812 0.34896 0.29194 0.0
H549 H 0.03715 0.40276 0.09343 0.0
H550 H 0.03045 0.38177 0.39899 0.0
H551 H 0.03766 0.43504 0.19957 0.0
H552 H 1.00331 0.48496 0.41553 0.0
H553 H 1.00421 0.45132 0.31159 0.0
H554 H 0.06292 0.41821 0.4507 0.0
H555 H 0.0628 0.45268 0.55233 0.0
C556 C 0.03065 0.36755 0.27037 0.0
C557 C 0.03183 0.37271 0.18225 0.0
C558 C 0.03185 0.38647 0.33222 0.0
C559 C 0.03385 0.41122 0.30817 0.0
C560 C 0.03563 0.41633 0.22077 0.0
C561 C 0.03505 0.39755 0.15942 0.0
C562 C 1.01657 0.47062 0.42343 0.0
C563 C 0.03309 0.47164 0.49194 0.0
C564 C 1.01707 0.45128 0.36394 0.0
C565 C 0.03353 0.43182 0.37266 0.0
C566 C 0.04988 0.4327 0.44206 0.0
C567 C 0.0499 0.45252 0.5001 0.0
H568 H 0.88079 0.05089 0.17731 0.0
H569 H 0.85505 0.98183 0.07862 0.0
H570 H 0.91338 0.05165 0.0714 0.0
H571 H 0.88799 0.98242 0.97172 0.0
H572 H 0.96869 0.9812 0.86089 0.0
H573 H 0.93398 0.97936 0.96047 0.0
H574 H 0.9212 0.05598 0.91982 0.0
H575 H 0.9556 0.05781 0.82217 0.0
C576 C 0.88182 0.03602 0.13176 0.0
C577 C 0.86494 1.01649 0.13609 0.0
C578 C 0.90063 0.03641 0.07078 0.0
C579 C 0.90362 1.01707 0.01227 0.0
C580 C 0.88653 0.99759 0.01578 0.0
C581 C 0.86737 0.99739 0.07635 0.0
C582 C 0.95843 0.99762 0.87323 0.0
C583 C 0.96503 0.01959 0.83239 0.0
C584 C 0.93836 0.99655 0.92999 0.0
C585 C 0.9245 1.01753 0.9488 0.0
C586 C 0.93131 0.03943 0.90807 0.0
C587 C 0.95107 0.04042 0.85101 0.0
H588 H 0.56915 0.89131 0.18896 0.0
H589 H 0.50765 0.85565 0.0696 0.0
H590 H 0.5688 0.92295 0.08111 0.0
H591 H 0.50618 0.88813 0.96302 0.0
H592 H 0.51655 0.94316 0.74634 0.0
H593 H 0.51896 0.90926 0.84558 0.0
H594 H 0.55222 0.95755 0.03163 0.0
H595 H 0.55057 0.99076 0.93013 0.0
C596 C 0.55545 0.89022 0.13932 0.0
C597 C 0.53848 0.8707 0.13851 0.0
C598 C 0.55499 0.90874 0.07732 0.0
C599 C 0.53717 0.90894 0.01225 0.0
C600 C 0.52046 0.88898 0.01046 0.0
C601 C 0.52123 0.87015 0.07204 0.0
C602 C 0.52449 0.94653 0.80811 0.0
C603 C 0.53362 0.96997 0.82881 0.0
C604 C 0.52576 0.92692 0.86621 0.0
C605 C 0.53593 0.92997 0.94846 0.0
C606 C 0.54482 0.95364 0.96915 0.0
C607 C 0.54382 0.97306 0.91048 0.0
H608 H 0.68891 0.57088 0.10445 0.0
H609 H 0.67311 0.49501 0.15252 0.0
H610 H 0.65539 0.57183 0.99994 0.0
H611 H 0.63997 0.49581 0.04897 0.0
H612 H 0.59626 0.49782 0.80163 0.0
H613 H 0.63097 0.49868 0.89829 0.0
H614 H 0.60952 0.5696 0.98976 0.0
H615 H 0.57443 0.56873 0.892 0.0
C616 C 0.67863 0.55428 0.09169 0.0
C617 C 0.68403 0.53281 0.13692 0.0
C618 C 0.65912 0.55488 0.03241 0.0
C619 C 0.64463 0.53391 0.01526 0.0
C620 C 0.65061 0.51234 0.05901 0.0
C621 C 0.66974 0.51186 0.11886 0.0
C622 C 0.5988 0.51371 0.84205 0.0
C623 C 0.58222 0.53321 0.83821 0.0
C624 C 0.61883 0.51414 0.89827 0.0
C625 C 0.62337 0.53418 0.95289 0.0
C626 C 0.60696 0.55389 0.94858 0.0
C627 C 0.58663 0.55333 0.89272 0.0
H628 H 0.05033 0.67702 0.1585 0.0
H629 H 0.97752 0.69521 0.08001 0.0
H630 H 0.05132 0.64414 0.0525 0.0
H631 H 0.97821 0.66183 0.97441 0.0
H632 H 0.98108 0.57999 0.87153 0.0
H633 H 0.97923 0.61484 0.97059 0.0
H634 H 0.05172 0.63702 0.89491 0.0
H635 H 0.05346 0.60271 0.79578 0.0
C636 C 0.03464 0.67424 0.11753 0.0
C637 C 1.01401 0.68914 0.12717 0.0
C638 C 0.03515 0.65527 0.05668 0.0
C639 C 1.01482 0.65004 1.00437 0.0
C640 C 0.99419 0.66507 0.01359 0.0
C641 C 0.99388 0.68445 0.07347 0.0
C642 C 0.9966 0.59234 0.87574 0.0
C643 C 1.0174 0.58831 0.82482 0.0
C644 C 0.99549 0.61247 0.9324 0.0
C645 C 1.01533 0.62897 0.94137 0.0
C646 C 0.03611 0.62479 0.89071 0.0
C647 C 0.03704 0.60502 0.83319 0.0
H648 H 0.05027 0.26844 0.30219 0.0
H649 H 0.10332 0.22265 0.17836 0.0
H650 H 0.05379 0.24464 0.4308 0.0
H651 H 0.10716 0.19887 0.30871 0.0
H652 H 0.04395 0.18813 0.62273 0.0
H653 H 0.06946 0.21868 0.55086 0.0
H654 H 0.06945 0.17382 0.32401 0.0
H655 H 0.04317 0.1449 0.39105 0.0
C656 C 0.06378 0.25416 0.30395 0.0
C657 C 0.07577 0.24669 0.22927 0.0
C658 C 0.06593 0.24055 0.37833 0.0
C659 C 0.07999 0.21927 0.3785 0.0
C660 C 0.09567 0.21484 0.30931 0.0
C661 C 0.09335 0.22831 0.23453 0.0
C662 C 0.04963 0.1847 0.55782 0.0
C663 C 0.04103 0.164 0.51291 0.0
C664 C 0.0646 0.20202 0.51731 0.0
C665 C 0.07162 0.19863 0.43199 0.0
C666 C 0.06496 0.17685 0.3904 0.0
C667 C 0.04964 0.16004 0.42959 0.0
H668 H 0.30074 0.05569 0.2985 0.0
H669 H 0.31875 0.11457 0.12804 0.0
H670 H 0.33627 0.06508 0.38296 0.0
H671 H 0.35396 0.12522 0.21568 0.0
H672 H 0.42393 0.07698 0.18756 0.0
H673 H 0.38618 0.09908 0.18564 0.0
H674 H 0.37226 0.07814 0.44687 0.0
H675 H 0.40952 0.05448 0.44624 0.0
C676 C 0.31131 0.0719 0.28286 0.0
C677 C 0.30793 0.08359 0.20464 0.0
C678 C 0.33197 0.07736 0.33142 0.0
C679 C 0.34912 0.09473 0.30198 0.0
C680 C 0.34186 0.11072 0.23697 0.0
C681 C 0.32147 0.10489 0.18726 0.0
C682 C 0.41297 0.07733 0.24496 0.0
C683 C 0.41919 0.06308 0.31551 0.0
C684 C 0.39141 0.09054 0.24483 0.0
C685 C 0.37555 0.0899 0.31558 0.0
C686 C 0.38361 0.07849 0.39043 0.0
C687 C 0.4051 0.06497 0.39013 0.0
H688 H 0.50739 0.29774 0.33017 0.0
H689 H 0.451 0.34122 0.21592 0.0
H690 H 0.50628 0.3228 0.45634 0.0
H691 H 0.44931 0.36627 0.34474 0.0
H692 H 0.51006 0.42416 0.41518 0.0
H693 H 0.48182 0.39468 0.36039 0.0
H694 H 0.49552 0.34773 0.57548 0.0
H695 H 0.52399 0.37826 0.633 0.0
C696 C 0.49378 0.3119 0.33374 0.0
C697 C 0.48 0.31819 0.26183 0.0
C698 C 0.493 0.32631 0.40695 0.0
C699 C 0.47848 0.34731 0.40925 0.0
C700 C 0.46139 0.35075 0.34353 0.0
C701 C 0.46239 0.33649 0.26964 0.0
C702 C 0.50637 0.40822 0.45378 0.0
C703 C 0.52007 0.40332 0.52734 0.0
C704 C 0.48984 0.3911 0.42203 0.0
C705 C 0.48684 0.36837 0.46206 0.0
C706 C 0.49793 0.36481 0.54187 0.0
C707 C 0.51445 0.38217 0.57431 0.0
H708 H 0.25698 0.51717 0.31602 0.0
H709 H 0.20623 0.46265 0.22175 0.0
H710 H 0.23295 0.52159 0.44407 0.0
H711 H 0.18219 0.46664 0.35199 0.0
H712 H 0.18168 0.54139 0.6395 0.0
H713 H 0.20951 0.51278 0.57124 0.0
H714 H 0.15787 0.5026 0.3658 0.0
H715 H 0.13081 0.53105 0.43136 0.0
C716 C 0.24133 0.50519 0.32464 0.0
C717 C 0.23297 0.49017 0.25784 0.0
C718 C 0.22753 0.50763 0.39866 0.0
C719 C 0.20517 0.49506 0.40692 0.0
C720 C 0.199 0.47708 0.34616 0.0
C721 C 0.21269 0.47482 0.27161 0.0
C722 C 0.17618 0.53276 0.58029 0.0
C723 C 0.15417 0.53905 0.54022 0.0
C724 C 0.192 0.51614 0.54182 0.0
C725 C 0.18608 0.50557 0.46261 0.0
C726 C 0.163 0.51001 0.42735 0.0
C727 C 0.14736 0.52661 0.46528 0.0
H728 H 1.01558 0.79827 0.0233 0.0
H729 H 0.95691 0.84427 0.1086 0.0
H730 H 0.02207 0.82433 0.90173 0.0
H731 H 0.96288 0.8703 0.9843 0.0
H732 H 0.04663 0.87933 0.72941 0.0
H733 H 1.01687 0.84904 0.7789 0.0
H734 H 0.99682 0.89752 0.98484 0.0
H735 H 0.026 0.92731 0.93578 0.0
C736 C 1.00317 0.81327 0.01356 0.0
C737 C 0.98633 0.81979 0.07681 0.0
C738 C 1.00682 0.82827 0.9432 0.0
C739 C 0.99362 0.85002 0.935 0.0
C740 C 0.97391 0.85412 0.99054 0.0
C741 C 0.97046 0.83924 0.06162 0.0
C742 C 0.03541 0.88363 0.7841 0.0
C743 C 0.03911 0.90547 0.82985 0.0
C744 C 0.01826 0.86637 0.81209 0.0
C745 C 1.00472 0.87059 0.88677 0.0
C746 C 1.00663 0.89357 0.92664 0.0
C747 C 0.02364 0.91075 0.89865 0.0
H748 H 0.73471 0.02223 0.0594 0.0
H749 H 0.72189 0.94898 0.14825 0.0
H750 H 0.69735 0.02055 0.97871 0.0
H751 H 0.685 0.94618 0.06189 0.0
H752 H 0.6079 0.97715 0.11423 0.0
H753 H 0.64916 0.96269 0.10635 0.0
H754 H 0.66395 1.01219 0.89801 0.0
H755 H 0.62354 0.02876 0.91316 0.0
C756 C 0.7247 1.00507 0.05644 0.0
C757 C 0.7307 0.98598 0.11126 0.0
C758 C 0.70301 1.00402 0.01017 0.0
C759 C 0.68722 0.98362 0.01731 0.0
C760 C 0.69601 0.96266 0.0584 0.0
C761 C 0.71743 0.964 0.10654 0.0
C762 C 0.61994 0.9851 0.06697 0.0
C763 C 0.61255 1.00502 0.01762 0.0
C764 C 0.64366 0.9763 0.06067 0.0
C765 C 0.66049 0.98679 1.0032 0.0
C766 C 0.65193 1.00429 0.94543 0.0
C767 C 0.62843 1.01362 0.95352 0.0
H768 H 0.54237 0.76237 0.02502 0.0
H769 H 0.59852 0.71859 0.13903 0.0
H770 H 0.54449 0.73823 0.89628 0.0
H771 H 0.6014 0.69467 1.00785 0.0
H772 H 0.53013 0.68403 0.7098 0.0
H773 H 0.55732 0.71454 0.77452 0.0
H774 H 0.5689 0.66625 0.98745 0.0
H775 H 0.54164 0.63701 0.92677 0.0
C776 C 0.55609 0.74832 0.02088 0.0
C777 C 0.56961 0.74167 0.0929 0.0
C778 C 0.5575 0.73452 0.94636 0.0
C779 C 0.57244 0.71384 0.94294 0.0
C780 C 0.58911 0.71001 0.00971 0.0
C781 C 0.5874 0.72358 0.08492 0.0
C782 C 0.53888 0.67983 0.76973 0.0
C783 C 0.53286 0.65833 0.8142 0.0
C784 C 0.55471 0.69719 0.8062 0.0
C785 C 0.56486 0.69315 0.88721 0.0
C786 C 0.56161 0.67016 0.92494 0.0
C787 C 0.54565 0.65313 0.88954 0.0
H788 H 0.78596 0.55992 0.03866 0.0
H789 H 0.83388 0.61124 0.16675 0.0
H790 H 0.81587 0.55466 0.92787 0.0
H791 H 0.86424 0.60534 0.0557 0.0
H792 H 0.88522 0.52574 0.80879 0.0
H793 H 0.85662 0.55957 0.83165 0.0
H794 H 0.87342 0.55848 0.10057 0.0
H795 H 0.90106 0.52466 0.07787 0.0
C796 C 0.80213 0.57145 0.04052 0.0
C797 C 0.80852 0.58451 0.11474 0.0
C798 C 0.81937 0.56845 0.97616 0.0
C799 C 0.84288 0.5783 0.98708 0.0
C800 C 0.84643 0.59684 0.04803 0.0
C801 C 0.82909 0.60004 0.1121 0.0
C802 C 0.8827 0.53299 0.87245 0.0
C803 C 0.89467 0.52246 0.9422 0.0
C804 C 0.86678 0.55248 0.88512 0.0
C805 C 0.86339 0.56205 0.96725 0.0
C806 C 0.87626 0.552 0.03606 0.0
C807 C 0.89161 0.53229 0.02369 0.0
H808 H 0.06111 0.22804 0.85598 0.0
H809 H 1.01303 0.20298 0.05451 0.0
H810 H 0.05589 0.18883 0.78112 0.0
H811 H 1.00787 0.16388 0.9813 0.0
H812 H 0.98927 0.09962 0.80729 0.0
H813 H 0.99172 0.14081 0.86682 0.0
H814 H 0.0668 0.14659 0.7858 0.0
H815 H 0.06393 0.10549 0.72408 0.0
C816 C 0.04882 0.21444 0.88242 0.0
C817 C 0.03698 0.2191 0.9604 0.0
C818 C 0.04611 0.19165 0.84017 0.0
C819 C 0.03142 0.17266 0.87436 0.0
C820 C 0.01903 0.17779 0.95122 0.0
C821 C 0.02189 0.20042 0.99349 0.0
C822 C 1.00633 0.10966 0.80193 0.0
C823 C 0.02652 0.09881 0.76181 0.0
C824 C 1.00783 0.13342 0.83686 0.0
C825 C 0.02957 0.14748 0.83267 0.0
C826 C 0.04963 0.13677 0.79051 0.0
C827 C 0.04811 0.11291 0.75581 0.0
H828 H 0.35222 1.01588 0.07353 0.0
H829 H 0.32325 0.04947 0.84852 0.0
H830 H 0.39163 1.01114 1.00339 0.0
H831 H 0.36296 0.04521 0.77766 0.0
H832 H 0.43618 0.02143 0.65422 0.0
H833 H 0.39503 0.02106 0.71532 0.0
H834 H 0.42558 0.03531 0.96416 0.0
H835 H 0.46641 0.0353 0.90366 0.0
C836 C 0.35406 0.02158 1.00783 0.0
C837 C 0.33421 0.03248 0.96622 0.0
C838 C 0.37694 1.01932 0.96779 0.0
C839 C 0.38105 0.02809 0.88449 0.0
C840 C 0.36079 0.03799 0.84131 0.0
C841 C 0.33781 0.04028 0.88171 0.0
C842 C 0.43417 0.0244 0.72208 0.0
C843 C 0.45501 0.02832 0.77347 0.0
C844 C 0.41039 0.02432 0.75733 0.0
C845 C 0.40651 0.02798 0.84547 0.0
C846 C 0.42743 0.0319 0.89651 0.0
C847 C 0.45109 0.03209 0.86134 0.0
H848 H 0.5473 0.34573 1.00092 0.0
H849 H 0.47137 0.34093 0.93356 0.0
H850 H 0.55112 0.38414 0.92207 0.0
H851 H 0.47506 0.37864 0.8522 0.0
H852 H 0.4796 0.46049 0.79887 0.0
H853 H 0.47738 0.4205 0.86502 0.0
H854 H 0.55269 0.40807 0.79846 0.0
H855 H 0.55517 0.44888 0.73676 0.0
C856 C 0.53161 0.35239 0.96656 0.0
C857 C 0.50914 0.33976 0.97242 0.0
C858 C 0.5337 0.37467 0.92134 0.0
C859 C 0.51335 0.38526 0.88047 0.0
C860 C 0.49117 0.37188 0.88371 0.0
C861 C 0.48908 0.34979 0.9293 0.0
C862 C 0.49584 0.44947 0.79916 0.0
C863 C 0.51769 0.45858 0.7634 0.0
C864 C 0.49449 0.42605 0.83628 0.0
C865 C 0.51485 0.41038 0.83823 0.0
C866 C 0.5366 0.41933 0.80054 0.0
C867 C 0.53799 0.4429 0.76412 0.0
H868 H 0.21837 0.48195 0.8842 0.0
H869 H 0.20139 0.54615 0.03015 0.0
H870 H 0.17977 0.48572 0.80625 0.0
H871 H 0.16322 0.55047 0.95186 0.0
H872 H 0.08378 0.53612 0.8789 0.0
H873 H 0.12402 0.53372 0.94343 0.0
H874 H 0.15278 0.50457 0.70872 0.0
H875 H 0.11211 0.50685 0.64439 0.0
C876 C 0.20685 0.49744 0.89745 0.0
C877 C 0.21348 0.51407 0.96241 0.0
C878 C 0.18443 0.49955 0.85305 0.0
C879 C 0.16765 0.51824 0.8727 0.0
C880 C 0.17498 0.53544 0.93526 0.0
C881 C 0.19728 0.53329 0.97942 0.0
C882 C 0.0986 0.52912 0.84078 0.0
C883 C 0.09432 0.52165 0.75604 0.0
C884 C 0.12203 0.52802 0.87771 0.0
C885 C 0.14237 0.51933 0.83168 0.0
C886 C 0.13799 0.51155 0.74694 0.0
C887 C 0.11449 0.51291 0.70963 0.0
H888 H 0.04285 0.83812 0.38414 0.0
H889 H 0.96478 0.8454 0.38557 0.0
H890 H 0.04692 0.8767 0.46381 0.0
H891 H 0.96855 0.88341 0.46605 0.0
H892 H 0.98268 0.96502 0.50461 0.0
H893 H 0.97957 0.92439 0.44237 0.0
H894 H 0.04191 0.90193 0.58931 0.0
H895 H 0.04536 0.94326 0.64928 0.0
C896 C 0.0265 0.84745 0.40421 0.0
C897 C 1.00344 0.83825 0.3794 0.0
C898 C 0.02879 0.86981 0.44955 0.0
C899 C 1.0081 0.88385 0.47094 0.0
C900 C 0.98506 0.87381 0.44964 0.0
C901 C 0.98281 0.85161 0.40453 0.0
C902 C 0.99582 0.95155 0.52361 0.0
C903 C 1.0142 0.95774 0.58274 0.0
C904 C 0.99386 0.92787 0.48854 0.0
C905 C 1.01029 0.90924 0.51076 0.0
C906 C 0.0288 0.91545 0.56999 0.0
C907 C 0.03062 0.93921 0.60557 0.0
H908 H 0.72052 0.98073 0.47012 0.0
H909 H 0.70915 0.0492 0.34387 0.0
H910 H 0.68205 0.98572 0.54818 0.0
H911 H 0.67088 0.05445 0.42164 0.0
H912 H 0.58963 0.03832 0.47051 0.0
H913 H 0.63086 0.03642 0.41412 0.0
H914 H 0.65616 1.00738 0.65299 0.0
H915 H 0.61429 1.00899 0.70943 0.0
C916 C 0.71035 0.9974 0.46186 0.0
C917 C 0.71846 1.01491 0.40241 0.0
C918 C 0.68806 1.00019 0.50611 0.0
C919 C 0.67285 0.02038 0.4911 0.0
C920 C 0.68166 0.03844 0.43457 0.0
C921 C 0.70396 0.0357 0.39094 0.0
C922 C 0.60385 0.03133 0.51126 0.0
C923 C 0.59827 0.02348 0.5945 0.0
C924 C 0.62778 0.03055 0.47904 0.0
C925 C 0.64729 0.02182 0.52849 0.0
C926 C 0.6418 1.01407 0.61225 0.0
C927 C 0.61772 1.01509 0.64495 0.0
H928 H 0.50477 0.71074 0.32739 0.0
H929 H 0.57464 0.72298 0.44529 0.0
H930 H 0.50028 0.6721 0.4037 0.0
H931 H 0.57016 0.68464 0.52389 0.0
H932 H 0.56916 0.6015 0.57257 0.0
H933 H 0.57206 0.6421 0.50983 0.0
H934 H 0.49382 0.64885 0.52713 0.0
H935 H 0.49099 0.60773 0.58563 0.0
C936 C 0.51879 0.70564 0.37234 0.0
C937 C 0.53972 0.72056 0.38182 0.0
C938 C 0.51633 0.68322 0.41617 0.0
C939 C 0.53488 0.67458 0.47067 0.0
C940 C 0.5555 0.69003 0.48204 0.0
C941 C 0.55792 0.71244 0.43808 0.0
C942 C 0.55251 0.61142 0.56187 0.0
C943 C 0.52981 0.60066 0.58271 0.0
C944 C 0.55417 0.63514 0.52685 0.0
C945 C 0.53318 0.64934 0.51196 0.0
C946 C 0.51051 0.63874 0.53516 0.0
C947 C 0.50887 0.61497 0.56968 0.0
H948 H 0.8343 0.58041 0.44697 0.0
H949 H 0.84042 0.51027 0.32548 0.0
H950 H 0.87397 0.57504 0.51469 0.0
H951 H 0.88062 0.50491 0.3909 0.0
H952 H 0.94859 0.49492 0.56019 0.0
H953 H 0.90695 0.49806 0.50624 0.0
H954 H 0.91572 0.57632 0.49099 0.0
H955 H 0.95679 0.57305 0.54876 0.0
C956 C 0.84384 0.56344 0.43664 0.0
C957 C 0.83355 0.54547 0.38266 0.0
C958 C 0.86705 0.56051 0.47421 0.0
C959 C 0.88129 0.5396 0.45839 0.0
C960 C 0.87054 0.52121 0.40641 0.0
C961 C 0.8472 0.52414 0.36905 0.0
C962 C 0.94167 0.51286 0.54556 0.0
C963 C 0.95662 0.53373 0.55837 0.0
C964 C 0.91759 0.51468 0.51371 0.0
C965 C 0.90728 0.53749 0.49336 0.0
C966 C 0.92233 0.55834 0.50647 0.0
C967 C 0.94635 0.55648 0.53857 0.0
loop_
_geom_bond_atom_site_label_1
_geom_bond_atom_site_label_2
_geom_bond_distance
_geom_bond_site_symmetry_2
_ccdc_geom_bond_type
H0 C1 0.949 . S
C1 H0 0.949 . S
C1 C2 1.395 . S
C1 C3 1.391 . S
C2 C1 1.395 . S
C2 C5 1.390 . S
C3 C1 1.391 . S
C3 C7 1.387 . S
C3 C8 1.491 . S
H4 C5 0.950 . S
C5 C2 1.390 . S
C5 H4 0.950 . S
C5 C6 1.378 . S
C6 C5 1.378 . S
C6 C7 1.409 . S
C7 C3 1.387 . S
C7 C6 1.409 . S
C7 H9 0.951 . S
C8 C3 1.491 . S
C8 C10 1.382 . S
C8 C12 1.404 . S
H9 C7 0.951 . S
C10 C8 1.382 . S
C10 C11 1.390 . S
C10 H15 0.949 . S
C11 C10 1.390 . S
C11 C16 1.399 . S
C12 C8 1.404 . S
C12 H13 0.950 . S
C12 C14 1.375 . S
H13 C12 0.950 . S
C14 C12 1.375 . S
C14 C16 1.382 . S
C14 H18 0.950 . S
H15 C10 0.949 . S
C16 C11 1.399 . S
C16 C14 1.382 . S
C16 H17 0.952 . S
H17 C16 0.952 . S
H18 C14 0.950 . S
H19 C20 0.949 . S
C20 H19 0.949 . S
C20 C21 1.395 . S
C20 C22 1.391 . S
C21 C20 1.395 . S
C21 C24 1.390 . S
C22 C20 1.391 . S
C22 C26 1.387 . S
C22 C27 1.491 . S
H23 C24 0.950 . S
C24 C21 1.390 . S
C24 H23 0.950 . S
C24 C25 1.378 . S
C25 C24 1.378 . S
C25 C26 1.409 . S
C26 C22 1.387 . S
C26 C25 1.409 . S
C26 H28 0.951 . S
C27 C22 1.491 . S
C27 C29 1.382 . S
C27 C31 1.404 . S
H28 C26 0.951 . S
C29 C27 1.382 . S
C29 C30 1.390 . S
C29 H34 0.949 . S
C30 C29 1.390 . S
C30 C35 1.399 . S
C31 C27 1.404 . S
C31 H32 0.950 . S
C31 C33 1.375 . S
H32 C31 0.950 . S
C33 C31 1.375 . S
C33 C35 1.382 . S
C33 H37 0.950 . S
H34 C29 0.949 . S
C35 C30 1.399 . S
C35 C33 1.382 . S
C35 H36 0.952 . S
H36 C35 0.952 . S
H37 C33 0.950 . S
H38 C39 0.949 . S
C39 H38 0.949 . S
C39 C40 1.395 . S
C39 C41 1.391 . S
C40 C39 1.395 . S
C40 C43 1.390 . S
C41 C39 1.391 . S
C41 C45 1.387 . S
C41 C46 1.491 . S
H42 C43 0.950 . S
C43 C40 1.390 . S
C43 H42 0.950 . S
C43 C44 1.378 . S
C44 C43 1.378 . S
C44 C45 1.409 . S
C45 C41 1.387 . S
C45 C44 1.409 . S
C45 H47 0.951 . S
C46 C41 1.491 . S
C46 C48 1.382 . S
C46 C50 1.404 . S
H47 C45 0.951 . S
C48 C46 1.382 . S
C48 C49 1.390 . S
C48 H53 0.949 . S
C49 C48 1.390 . S
C49 C54 1.399 . S
C50 C46 1.404 . S
C50 H51 0.950 . S
C50 C52 1.375 . S
H51 C50 0.950 . S
C52 C50 1.375 . S
C52 C54 1.382 . S
C52 H56 0.950 . S
H53 C48 0.949 . S
C54 C49 1.399 . S
C54 C52 1.382 . S
C54 H55 0.952 . S
H55 C54 0.952 . S
H56 C52 0.950 . S
H57 C58 0.949 . S
C58 H57 0.949 . S
C58 C59 1.395 . S
C58 C60 1.391 . S
C59 C58 1.395 . S
C59 C62 1.390 . S
C60 C58 1.391 . S
C60 C64 1.387 . S
C60 C65 1.491 . S
H61 C62 0.950 . S
C62 C59 1.390 . S
C62 H61 0.950 . S
C62 C63 1.378 . S
C63 C62 1.378 . S
C63 C64 1.409 . S
C64 C60 1.387 . S
C64 C63 1.409 . S
C64 H66 0.951 . S
C65 C60 1.491 . S
C65 C67 1.382 . S
C65 C69 1.404 . S
H66 C64 0.951 . S
C67 C65 1.382 . S
C67 C68 1.390 . S
C67 H72 0.949 . S
C68 C67 1.390 . S
C68 C73 1.399 . S
C69 C65 1.404 . S
C69 H70 0.950 . S
C69 C71 1.375 . S
H70 C69 0.950 . S
C71 C69 1.375 . S
C71 C73 1.382 . S
C71 H75 0.950 . S
H72 C67 0.949 . S
C73 C68 1.399 . S
C73 C71 1.382 . S
C73 H74 0.952 . S
H74 C73 0.952 . S
H75 C71 0.950 . S
H76 C77 0.949 . S
C77 H76 0.949 . S
C77 C78 1.395 . S
C77 C79 1.391 . S
C78 C77 1.395 . S
C78 C81 1.390 1_554 S
C79 C77 1.391 . S
C79 C83 1.387 1_554 S
C79 C84 1.491 . S
H80 C81 0.950 . S
C81 C78 1.390 1_556 S
C81 H80 0.950 . S
C81 C82 1.378 . S
C82 C81 1.378 . S
C82 C83 1.409 . S
C83 C79 1.387 1_556 S
C83 C82 1.409 . S
C83 H85 0.951 . S
C84 C79 1.491 . S
C84 C86 1.382 . S
C84 C88 1.404 1_554 S
H85 C83 0.951 . S
C86 C84 1.382 . S
C86 C87 1.390 . S
C86 H91 0.949 . S
C87 C86 1.390 . S
C87 C92 1.399 . S
C88 C84 1.404 1_556 S
C88 H89 0.950 . S
C88 C90 1.375 . S
H89 C88 0.950 . S
C90 C88 1.375 . S
C90 C92 1.382 1_556 S
C90 H94 0.950 . S
H91 C86 0.949 . S
C92 C87 1.399 . S
C92 C90 1.382 1_554 S
C92 H93 0.952 . S
H93 C92 0.952 . S
H94 C90 0.950 . S
H95 C96 0.949 . S
C96 H95 0.949 . S
C96 C97 1.395 . S
C96 C98 1.391 . S
C97 C96 1.395 . S
C97 C100 1.390 1_554 S
C98 C96 1.391 . S
C98 C102 1.387 1_554 S
C98 C103 1.491 . S
H99 C100 0.950 . S
C100 C97 1.390 1_556 S
C100 H99 0.950 . S
C100 C101 1.378 . S
C101 C100 1.378 . S
C101 C102 1.409 . S
C102 C98 1.387 1_556 S
C102 C101 1.409 . S
C102 H104 0.951 . S
C103 C98 1.491 . S
C103 C105 1.382 . S
C103 C107 1.404 1_554 S
H104 C102 0.951 . S
C105 C103 1.382 . S
C105 C106 1.390 . S
C105 H110 0.949 . S
C106 C105 1.390 . S
C106 C111 1.399 . S
C107 C103 1.404 1_556 S
C107 H108 0.964 . S
C107 C109 1.375 . S
H108 C107 0.964 . S
C109 C107 1.375 . S
C109 C111 1.382 1_556 S
C109 H113 0.950 1_455 S
H110 C105 0.949 . S
C111 C106 1.399 . S
C111 C109 1.382 1_554 S
C111 H112 0.952 . S
H112 C111 0.952 . S
H113 C109 0.950 1_655 S
H114 C115 0.949 . S
C115 H114 0.949 . S
C115 C116 1.395 . S
C115 C117 1.391 . S
C116 C115 1.395 . S
C116 C119 1.390 1_554 S
C117 C115 1.391 . S
C117 C121 1.387 1_554 S
C117 C122 1.491 . S
H118 C119 0.950 . S
C119 C116 1.390 1_556 S
C119 H118 0.950 . S
C119 C120 1.378 . S
C120 C119 1.378 . S
C120 C121 1.409 . S
C121 C117 1.387 1_556 S
C121 C120 1.409 . S
C121 H123 0.951 . S
C122 C117 1.491 . S
C122 C124 1.382 . S
C122 C126 1.404 1_554 S
H123 C121 0.951 . S
C124 C122 1.382 . S
C124 C125 1.390 . S
C124 H129 0.949 . S
C125 C124 1.390 . S
C125 C130 1.399 . S
C126 C122 1.404 1_556 S
C126 H127 0.950 . S
C126 C128 1.375 . S
H127 C126 0.950 . S
C128 C126 1.375 . S
C128 C130 1.382 1_556 S
C128 H132 0.950 1_545 S
H129 C124 0.949 . S
C130 C125 1.399 . S
C130 C128 1.382 1_554 S
C130 H131 0.952 . S
H131 C130 0.952 . S
H132 C128 0.950 1_565 S
H133 C134 0.949 . S
C134 H133 0.949 . S
C134 C135 1.395 . S
C134 C136 1.391 . S
C135 C134 1.395 . S
C135 C138 1.390 1_554 S
C136 C134 1.391 . S
C136 C140 1.387 1_554 S
C136 C141 1.491 . S
H137 C138 0.950 . S
C138 C135 1.390 1_556 S
C138 H137 0.950 . S
C138 C139 1.378 . S
C139 C138 1.378 . S
C139 C140 1.409 . S
C140 C136 1.387 1_556 S
C140 C139 1.409 . S
C140 H142 0.951 . S
C141 C136 1.491 . S
C141 C143 1.382 . S
C141 C145 1.404 1_554 S
H142 C140 0.951 . S
C143 C141 1.382 . S
C143 C144 1.390 . S
C143 H148 0.949 . S
C144 C143 1.390 . S
C144 C149 1.399 . S
C145 C141 1.404 1_556 S
C145 H146 0.950 . S
C145 C147 1.375 . S
H146 C145 0.950 . S
C147 C145 1.375 . S
C147 C149 1.382 1_556 S
C147 H151 0.950 . S
H148 C143 0.949 . S
C149 C144 1.399 . S
C149 C147 1.382 1_554 S
C149 H150 0.952 . S
H150 C149 0.952 . S
H151 C147 0.950 . S
C152 C154 1.422 . S
C152 C156 1.415 . S
C152 N158 1.369 . S
C153 C154 1.421 1_554 S
C153 C155 1.417 . S
C153 C165 1.422 . S
C154 C152 1.422 . S
C154 C153 1.421 1_556 S
C154 N164 1.359 . S
C155 C153 1.417 . S
C155 C157 1.329 . S
C155 H174 0.930 . S
C156 C152 1.415 . S
C156 C157 1.437 1_556 S
C156 C160 1.413 . S
C157 C155 1.329 . S
C157 C156 1.437 1_554 S
C157 H179 0.929 . S
N158 C152 1.369 . S
N158 C159 1.338 . S
N158 Gd163 2.622 1_545 S
C159 N158 1.338 . S
C159 C161 1.378 . S
C159 H171 0.929 1_545 S
C160 C156 1.413 . S
C160 C161 1.348 . S
C160 H176 0.931 . S
C161 C159 1.378 . S
C161 C160 1.348 . S
C161 H177 0.930 . S
Gd162 N182 2.622 . S
Gd162 N189 2.570 . S
Gd162 O196 2.353 1_655 S
Gd162 O197 2.468 1_655 S
Gd162 O198 2.427 . S
Gd162 O200 2.388 . S
Gd162 O201 2.386 1_545 S
Gd162 O205 2.307 1_655 S
Gd162 C215 2.805 . S
Gd163 N158 2.622 1_565 S
Gd163 N164 2.570 1_565 S
Gd163 O195 2.386 1_565 S
Gd163 O199 2.307 1_465 S
Gd163 O202 2.353 . S
Gd163 O203 2.468 . S
Gd163 O204 2.427 . S
Gd163 O206 2.393 . S
Gd163 C227 2.805 . S
N164 C154 1.359 . S
N164 Gd163 2.570 1_545 S
N164 C166 1.343 . S
C165 C153 1.422 . S
C165 C167 1.321 . S
C165 H173 0.931 . S
C166 N164 1.343 . S
C166 C167 1.390 1_556 S
C166 H168 0.931 1_455 S
C167 C165 1.321 . S
C167 C166 1.390 1_554 S
C167 H169 0.930 1_455 S
H168 C166 0.931 1_655 S
H169 C167 0.930 1_655 S
H170 C193 0.931 . S
H171 C159 0.929 1_565 S
H172 C194 0.930 . S
H173 C165 0.931 . S
H174 C155 0.930 . S
H175 C184 0.929 . S
H176 C160 0.931 . S
H177 C161 0.930 . S
H178 C216 0.930 . S
H179 C157 0.929 . S
H180 C185 0.931 . S
H181 C186 0.930 . S
N182 Gd162 2.622 . S
N182 C183 1.369 . S
N182 C184 1.338 . S
C183 N182 1.369 . S
C183 C187 1.415 1_545 S
C183 C190 1.422 . S
C184 H175 0.929 . S
C184 N182 1.338 . S
C184 C186 1.378 . S
C185 H180 0.931 . S
C185 C186 1.348 1_565 S
C185 C187 1.413 . S
C186 H181 0.930 . S
C186 C184 1.378 . S
C186 C185 1.348 1_545 S
C187 C183 1.415 1_565 S
C187 C185 1.413 . S
C187 C217 1.437 . S
H188 C217 0.929 . S
N189 Gd162 2.570 . S
N189 C190 1.359 . S
N189 C193 1.343 1_655 S
C190 C183 1.422 . S
C190 N189 1.359 . S
C190 C192 1.421 1_545 S
C191 C192 1.422 . S
C191 C194 1.321 1_655 S
C191 H218 0.931 . S
C192 C190 1.421 1_565 S
C192 C191 1.422 . S
C192 C216 1.417 . S
C193 H170 0.931 . S
C193 N189 1.343 1_455 S
C193 C194 1.390 1_545 S
C194 H172 0.930 . S
C194 C191 1.321 1_455 S
C194 C193 1.390 1_565 S
O195 Gd163 2.386 1_545 S
O195 C207 1.265 . S
O196 Gd162 2.353 1_455 S
O196 C207 1.242 . S
O197 Gd162 2.468 1_455 S
O197 C215 1.263 1_455 S
O198 Gd162 2.427 . S
O198 C215 1.252 . S
O199 Gd163 2.307 1_645 S
O199 C208 1.261 . S
O200 Gd162 2.388 . S
O200 C208 1.252 . S
O201 Gd162 2.386 1_565 S
O201 C219 1.265 . S
O202 Gd163 2.353 . S
O202 C219 1.242 1_455 S
O203 Gd163 2.468 . S
O203 C227 1.263 . S
O204 Gd163 2.427 . S
O204 C227 1.252 . S
O205 Gd162 2.307 1_455 S
O205 C220 1.261 . S
O206 Gd163 2.393 . S
O206 C220 1.228 1_565 S
C207 O195 1.265 . S
C207 O196 1.242 . S
C208 O199 1.261 . S
C208 O200 1.252 . S
C209 C212 1.394 . S
C209 C214 1.370 1_655 S
C209 C215 1.500 . S
C210 C213 1.383 . S
C210 C214 1.395 1_655 S
C211 C212 1.396 . S
C211 C213 1.365 . S
C211 H228 0.929 . S
C212 C209 1.394 . S
C212 C211 1.396 . S
C212 H229 0.930 . S
C213 C210 1.383 . S
C213 C211 1.365 . S
C213 H230 0.931 . S
C214 C209 1.370 1_455 S
C214 C210 1.395 1_455 S
C214 H231 0.930 . S
C215 Gd162 2.805 . S
C215 O197 1.263 1_655 S
C215 O198 1.252 . S
C215 C209 1.500 . S
C216 H178 0.930 . S
C216 C192 1.417 . S
C216 C217 1.329 . S
C217 C187 1.437 . S
C217 H188 0.929 . S
C217 C216 1.329 . S
H218 C191 0.931 . S
C219 O201 1.265 . S
C219 O202 1.242 1_655 S
C220 O205 1.261 . S
C220 O206 1.228 1_545 S
C221 C224 1.394 . S
C221 C226 1.370 . S
C221 C227 1.500 . S
C222 C225 1.383 . S
C222 C226 1.395 . S
C223 C224 1.396 . S
C223 C225 1.365 . S
C223 H232 0.929 . S
C224 C221 1.394 . S
C224 C223 1.396 . S
C224 H233 0.930 . S
C225 C222 1.383 . S
C225 C223 1.365 . S
C225 H234 0.931 . S
C226 C221 1.370 . S
C226 C222 1.395 . S
C226 H235 0.896 1_455 S
C227 Gd163 2.805 . S
C227 O203 1.263 . S
C227 O204 1.252 . S
C227 C221 1.500 . S
H228 C211 0.929 . S
H229 C212 0.930 . S
H230 C213 0.931 . S
H231 C214 0.930 . S
H232 C223 0.929 . S
H233 C224 0.930 . S
H234 C225 0.931 . S
H235 C226 0.896 1_655 S
C236 C238 1.422 . S
C236 C240 1.415 . S
C236 N242 1.369 . S
C237 C238 1.421 . S
C237 C239 1.417 . S
C237 C249 1.422 . S
C238 C236 1.422 . S
C238 C237 1.421 . S
C238 N248 1.359 . S
C239 C237 1.417 . S
C239 C241 1.329 . S
C239 H258 0.930 . S
C240 C236 1.415 . S
C240 C241 1.437 . S
C240 C244 1.413 . S
C241 C239 1.329 . S
C241 C240 1.437 . S
C241 H263 0.929 . S
N242 C236 1.369 . S
N242 C243 1.338 . S
N242 Gd247 2.622 . S
C243 N242 1.338 . S
C243 C245 1.378 . S
C243 H255 0.929 . S
C244 C240 1.413 . S
C244 C245 1.348 . S
C244 H260 0.931 . S
C245 C243 1.378 . S
C245 C244 1.348 . S
C245 H261 0.930 . S
Gd246 N266 2.622 . S
Gd246 N273 2.570 . S
Gd246 O280 2.353 1_545 S
Gd246 O281 2.468 . S
Gd246 O282 2.427 . S
Gd246 O284 2.388 . S
Gd246 O285 2.386 . S
Gd246 O289 2.307 . S
Gd246 C299 2.805 . S
Gd247 N242 2.622 . S
Gd247 N248 2.570 . S
Gd247 O279 2.386 . S
Gd247 O283 2.307 1_565 S
Gd247 O286 2.353 1_565 S
Gd247 O287 2.470 . S
Gd247 O288 2.427 . S
Gd247 O290 2.388 . S
Gd247 C311 2.805 . S
N248 C238 1.359 . S
N248 Gd247 2.570 . S
N248 C250 1.343 . S
C249 C237 1.422 . S
C249 C251 1.321 . S
C249 H257 0.931 . S
C250 N248 1.343 . S
C250 C251 1.390 . S
C250 H252 0.931 . S
C251 C249 1.321 . S
C251 C250 1.390 . S
C251 H253 0.930 . S
H252 C250 0.931 . S
H253 C251 0.930 . S
H254 C277 0.931 . S
H255 C243 0.929 . S
H256 C278 0.930 . S
H257 C249 0.931 . S
H258 C239 0.930 . S
H259 C268 0.929 . S
H260 C244 0.931 . S
H261 C245 0.930 . S
H262 C300 0.930 . S
H263 C241 0.929 . S
H264 C269 0.931 . S
H265 C270 0.930 . S
N266 Gd246 2.622 . S
N266 C267 1.369 . S
N266 C268 1.338 . S
C267 N266 1.369 . S
C267 C271 1.415 . S
C267 C274 1.422 . S
C268 H259 0.929 . S
C268 N266 1.338 . S
C268 C270 1.378 . S
C269 H264 0.931 . S
C269 C270 1.348 . S
C269 C271 1.413 . S
C270 H265 0.930 . S
C270 C268 1.378 . S
C270 C269 1.348 . S
C271 C267 1.415 . S
C271 C269 1.413 . S
C271 C301 1.437 . S
H272 C301 0.929 . S
N273 Gd246 2.570 . S
N273 C274 1.359 . S
N273 C277 1.343 . S
C274 C267 1.422 . S
C274 N273 1.359 . S
C274 C276 1.421 . S
C275 C276 1.422 . S
C275 C278 1.321 . S
C275 H302 0.931 . S
C276 C274 1.421 . S
C276 C275 1.422 . S
C276 C300 1.417 . S
C277 H254 0.931 . S
C277 N273 1.343 . S
C277 C278 1.390 . S
C278 H256 0.930 . S
C278 C275 1.321 . S
C278 C277 1.390 . S
O279 Gd247 2.386 . S
O279 C291 1.265 . S
O280 Gd246 2.353 1_565 S
O280 C291 1.242 . S
O281 Gd246 2.468 . S
O281 C299 1.263 . S
O282 Gd246 2.427 . S
O282 C299 1.252 . S
O283 Gd247 2.307 1_545 S
O283 C292 1.261 . S
O284 Gd246 2.388 . S
O284 C292 1.252 . S
O285 Gd246 2.386 . S
O285 C303 1.265 . S
O286 Gd247 2.353 1_545 S
O286 C303 1.242 . S
O287 Gd247 2.470 . S
O287 C311 1.265 . S
O288 Gd247 2.427 . S
O288 C311 1.252 . S
O289 Gd246 2.307 . S
O289 C304 1.261 . S
O290 Gd247 2.388 . S
O290 C304 1.252 1_565 S
C291 O279 1.265 . S
C291 O280 1.242 . S
C292 O283 1.261 . S
C292 O284 1.252 . S
C293 C296 1.394 1_556 S
C293 C298 1.370 . S
C293 C299 1.500 . S
C294 C297 1.383 . S
C294 C298 1.395 1_554 S
C295 C296 1.396 . S
C295 C297 1.365 . S
C295 H312 0.929 . S
C296 C293 1.394 1_554 S
C296 C295 1.396 . S
C296 H313 0.930 . S
C297 C294 1.383 . S
C297 C295 1.365 . S
C297 H314 0.931 . S
C298 C293 1.370 . S
C298 C294 1.395 1_556 S
C298 H315 0.930 . S
C299 Gd246 2.805 . S
C299 O281 1.263 . S
C299 O282 1.252 . S
C299 C293 1.500 . S
C300 H262 0.930 . S
C300 C276 1.417 . S
C300 C301 1.329 . S
C301 C271 1.437 . S
C301 H272 0.929 . S
C301 C300 1.329 . S
H302 C275 0.931 . S
C303 O285 1.265 . S
C303 O286 1.242 . S
C304 O289 1.261 . S
C304 O290 1.252 1_545 S
C305 C308 1.390 1_545 S
C305 C310 1.376 . S
C305 C311 1.498 1_545 S
C306 C309 1.383 . S
C306 C310 1.395 . S
C307 C308 1.396 . S
C307 C309 1.365 1_565 S
C307 H316 0.929 . S
C308 C305 1.390 1_565 S
C308 C307 1.396 . S
C308 H317 0.930 . S
C309 C306 1.383 . S
C309 C307 1.365 1_545 S
C309 H318 0.931 . S
C310 C305 1.376 . S
C310 C306 1.395 . S
C310 H319 0.930 . S
C311 Gd247 2.805 . S
C311 O287 1.265 . S
C311 O288 1.252 . S
C311 C305 1.498 1_565 S
H312 C295 0.929 . S
H313 C296 0.930 . S
H314 C297 0.931 . S
H315 C298 0.930 . S
H316 C307 0.929 . S
H317 C308 0.930 . S
H318 C309 0.931 . S
H319 C310 0.930 . S
C320 C322 1.422 . S
C320 C324 1.415 . S
C320 N326 1.369 . S
C321 C322 1.421 1_554 S
C321 C323 1.417 . S
C321 C333 1.422 . S
C322 C320 1.422 . S
C322 C321 1.421 1_556 S
C322 N332 1.359 . S
C323 C321 1.417 . S
C323 C325 1.329 . S
C323 H342 0.930 . S
C324 C320 1.415 . S
C324 C325 1.437 1_556 S
C324 C328 1.413 . S
C325 C323 1.329 . S
C325 C324 1.437 1_554 S
C325 H347 0.929 . S
N326 C320 1.369 . S
N326 C327 1.338 . S
N326 Gd331 2.622 . S
C327 N326 1.338 . S
C327 C329 1.378 . S
C327 H339 0.929 . S
C328 C324 1.413 . S
C328 C329 1.348 . S
C328 H344 0.931 . S
C329 C327 1.378 . S
C329 C328 1.348 . S
C329 H345 0.930 . S
Gd330 N350 2.622 . S
Gd330 N357 2.570 . S
Gd330 O364 2.353 . S
Gd330 O365 2.468 . S
Gd330 O366 2.427 . S
Gd330 O368 2.388 . S
Gd330 O369 2.386 . S
Gd330 O373 2.307 . S
Gd330 C383 2.805 . S
Gd331 N326 2.622 . S
Gd331 N332 2.570 . S
Gd331 O363 2.386 . S
Gd331 O367 2.307 . S
Gd331 O370 2.353 . S
Gd331 O371 2.468 . S
Gd331 O372 2.427 . S
Gd331 O374 2.388 . S
Gd331 C395 2.805 . S
N332 C322 1.359 . S
N332 Gd331 2.570 . S
N332 C334 1.343 . S
C333 C321 1.422 . S
C333 C335 1.321 . S
C333 H341 0.931 . S
C334 N332 1.343 . S
C334 C335 1.390 1_556 S
C334 H336 0.931 . S
C335 C333 1.321 . S
C335 C334 1.390 1_554 S
C335 H337 0.930 . S
H336 C334 0.931 . S
H337 C335 0.930 . S
H338 C361 0.931 . S
H339 C327 0.929 . S
H340 C362 0.930 . S
H341 C333 0.931 . S
H342 C323 0.930 . S
H343 C352 0.929 . S
H344 C328 0.931 . S
H345 C329 0.930 . S
H346 C384 0.930 . S
H347 C325 0.929 . S
H348 C353 0.931 . S
H349 C354 0.930 . S
N350 Gd330 2.622 . S
N350 C351 1.369 . S
N350 C352 1.338 . S
C351 N350 1.369 . S
C351 C355 1.415 . S
C351 C358 1.422 . S
C352 H343 0.929 . S
C352 N350 1.338 . S
C352 C354 1.378 . S
C353 H348 0.931 . S
C353 C354 1.348 . S
C353 C355 1.413 . S
C354 H349 0.930 . S
C354 C352 1.378 . S
C354 C353 1.348 . S
C355 C351 1.415 . S
C355 C353 1.413 . S
C355 C385 1.437 . S
H356 C385 0.929 . S
N357 Gd330 2.570 . S
N357 C358 1.359 . S
N357 C361 1.343 . S
C358 C351 1.422 . S
C358 N357 1.359 . S
C358 C360 1.421 . S
C359 C360 1.422 . S
C359 C362 1.321 . S
C359 H386 0.931 . S
C360 C358 1.421 . S
C360 C359 1.422 . S
C360 C384 1.417 . S
C361 H338 0.931 . S
C361 N357 1.343 . S
C361 C362 1.390 . S
C362 H340 0.930 . S
C362 C359 1.321 . S
C362 C361 1.390 . S
O363 Gd331 2.386 . S
O363 C375 1.265 . S
O364 Gd330 2.353 . S
O364 C375 1.242 . S
O365 Gd330 2.468 . S
O365 C383 1.263 . S
O366 Gd330 2.427 . S
O366 C383 1.252 . S
O367 Gd331 2.307 . S
O367 C376 1.261 . S
O368 Gd330 2.388 . S
O368 C376 1.252 . S
O369 Gd330 2.386 . S
O369 C387 1.265 . S
O370 Gd331 2.353 . S
O370 C387 1.242 . S
O371 Gd331 2.468 . S
O371 C395 1.263 . S
O372 Gd331 2.427 . S
O372 C395 1.252 . S
O373 Gd330 2.307 . S
O373 C388 1.261 . S
O374 Gd331 2.388 . S
O374 C388 1.252 . S
C375 O363 1.265 . S
C375 O364 1.242 . S
C376 O367 1.261 . S
C376 O368 1.252 . S
C377 C380 1.394 . S
C377 C382 1.370 . S
C377 C383 1.500 . S
C378 C381 1.383 . S
C378 C382 1.395 . S
C379 C380 1.396 . S
C379 C381 1.365 . S
C379 H396 0.929 . S
C380 C377 1.394 . S
C380 C379 1.396 . S
C380 H397 0.930 . S
C381 C378 1.383 . S
C381 C379 1.365 . S
C381 H398 0.931 . S
C382 C377 1.370 . S
C382 C378 1.395 . S
C382 H399 0.930 . S
C383 Gd330 2.805 . S
C383 O365 1.263 . S
C383 O366 1.252 . S
C383 C377 1.500 . S
C384 H346 0.930 . S
C384 C360 1.417 . S
C384 C385 1.329 . S
C385 C355 1.437 . S
C385 H356 0.929 . S
C385 C384 1.329 . S
H386 C359 0.931 . S
C387 O369 1.265 . S
C387 O370 1.242 . S
C388 O373 1.261 . S
C388 O374 1.252 . S
C389 C392 1.394 . S
C389 C394 1.370 . S
C389 C395 1.500 . S
C390 C393 1.383 . S
C390 C394 1.395 . S
C391 C392 1.396 . S
C391 C393 1.365 . S
C391 H400 0.929 . S
C392 C389 1.394 . S
C392 C391 1.396 . S
C392 H401 0.930 . S
C393 C390 1.383 . S
C393 C391 1.365 . S
C393 H402 0.935 . S
C394 C389 1.370 . S
C394 C390 1.395 . S
C394 H403 0.930 . S
C395 Gd331 2.805 . S
C395 O371 1.263 . S
C395 O372 1.252 . S
C395 C389 1.500 . S
H396 C379 0.929 . S
H397 C380 0.930 . S
H398 C381 0.931 . S
H399 C382 0.930 . S
H400 C391 0.929 . S
H401 C392 0.930 . S
H402 C393 0.935 . S
H403 C394 0.930 . S
C404 C406 1.422 . S
C404 C408 1.415 . S
C404 N410 1.369 . S
C405 C406 1.421 1_554 S
C405 C407 1.417 . S
C405 C417 1.422 . S
C406 C404 1.422 . S
C406 C405 1.421 1_556 S
C406 N416 1.359 . S
C407 C405 1.417 . S
C407 C409 1.329 . S
C407 H426 0.930 . S
C408 C404 1.415 . S
C408 C409 1.437 1_556 S
C408 C412 1.413 . S
C409 C407 1.329 . S
C409 C408 1.437 1_554 S
C409 H431 0.929 . S
N410 C404 1.369 . S
N410 C411 1.338 1_455 S
N410 Gd415 2.622 1_455 S
C411 N410 1.338 1_655 S
C411 C413 1.378 1_655 S
C411 H423 0.929 . S
C412 C408 1.413 . S
C412 C413 1.348 . S
C412 H428 0.931 . S
C413 C411 1.378 1_455 S
C413 C412 1.348 . S
C413 H429 0.930 . S
Gd414 N434 2.622 . S
Gd414 N441 2.570 . S
Gd414 O448 2.353 . S
Gd414 O449 2.468 . S
Gd414 O450 2.427 . S
Gd414 O452 2.388 . S
Gd414 O453 2.386 1_455 S
Gd414 O457 2.307 . S
Gd414 C467 2.805 . S
Gd415 N410 2.622 1_655 S
Gd415 N416 2.570 1_655 S
Gd415 O447 2.386 1_655 S
Gd415 O451 2.307 1_655 S
Gd415 O454 2.353 . S
Gd415 O455 2.468 . S
Gd415 O456 2.427 . S
Gd415 O458 2.388 . S
Gd415 C479 2.805 . S
N416 C406 1.359 . S
N416 Gd415 2.570 1_455 S
N416 C418 1.343 . S
C417 C405 1.422 . S
C417 C419 1.321 . S
C417 H425 0.931 . S
C418 N416 1.343 . S
C418 C419 1.390 1_556 S
C418 H420 0.931 . S
C419 C417 1.321 . S
C419 C418 1.390 1_554 S
C419 H421 0.930 . S
H420 C418 0.931 . S
H421 C419 0.930 . S
H422 C445 0.931 . S
H423 C411 0.929 . S
H424 C446 0.930 . S
H425 C417 0.931 . S
H426 C407 0.930 . S
H427 C436 0.929 . S
H428 C412 0.931 . S
H429 C413 0.930 . S
H430 C468 0.930 . S
H431 C409 0.929 . S
H432 C437 0.931 . S
H433 C438 0.930 . S
N434 Gd414 2.622 . S
N434 C435 1.369 . S
N434 C436 1.338 . S
C435 N434 1.369 . S
C435 C439 1.415 1_455 S
C435 C442 1.423 . S
C436 H427 0.929 . S
C436 N434 1.338 . S
C436 C438 1.378 . S
C437 H432 0.931 . S
C437 C438 1.348 1_655 S
C437 C439 1.413 . S
C438 H433 0.930 . S
C438 C436 1.378 . S
C438 C437 1.348 1_455 S
C439 C435 1.415 1_655 S
C439 C437 1.413 . S
C439 C469 1.437 . S
H440 C469 0.929 . S
N441 Gd414 2.570 . S
N441 C442 1.360 . S
N441 C445 1.343 . S
C442 C435 1.423 . S
C442 N441 1.360 . S
C442 C444 1.419 1_455 S
C443 C444 1.422 . S
C443 C446 1.321 . S
C443 H470 0.931 . S
C444 C442 1.419 1_655 S
C444 C443 1.422 . S
C444 C468 1.417 . S
C445 H422 0.931 . S
C445 N441 1.343 . S
C445 C446 1.390 1_455 S
C446 H424 0.930 . S
C446 C443 1.321 . S
C446 C445 1.390 1_655 S
O447 Gd415 2.386 1_455 S
O447 C459 1.265 . S
O448 Gd414 2.353 . S
O448 C459 1.242 . S
O449 Gd414 2.468 . S
O449 C467 1.263 . S
O450 Gd414 2.427 . S
O450 C467 1.252 . S
O451 Gd415 2.307 1_455 S
O451 C460 1.261 . S
O452 Gd414 2.388 . S
O452 C460 1.252 . S
O453 Gd414 2.386 1_655 S
O453 C471 1.265 . S
O454 Gd415 2.353 . S
O454 C471 1.242 . S
O455 Gd415 2.468 . S
O455 C479 1.263 . S
O456 Gd415 2.427 . S
O456 C479 1.252 . S
O457 Gd414 2.307 . S
O457 C472 1.261 . S
O458 Gd415 2.388 . S
O458 C472 1.252 1_655 S
C459 O447 1.265 . S
C459 O448 1.242 . S
C460 O451 1.261 . S
C460 O452 1.252 . S
C461 C464 1.394 . S
C461 C466 1.370 . S
C461 C467 1.500 . S
C462 C465 1.383 . S
C462 C466 1.395 . S
C463 C464 1.396 . S
C463 C465 1.365 . S
C463 H480 0.929 . S
C464 C461 1.394 . S
C464 C463 1.396 . S
C464 H481 0.930 . S
C465 C462 1.383 . S
C465 C463 1.365 . S
C465 H482 0.931 . S
C466 C461 1.370 . S
C466 C462 1.395 . S
C466 H483 0.930 . S
C467 Gd414 2.805 . S
C467 O449 1.263 . S
C467 O450 1.252 . S
C467 C461 1.500 . S
C468 H430 0.930 . S
C468 C444 1.417 . S
C468 C469 1.329 . S
C469 C439 1.437 . S
C469 H440 0.929 . S
C469 C468 1.329 . S
H470 C443 0.931 . S
C471 O453 1.265 . S
C471 O454 1.242 . S
C472 O457 1.261 . S
C472 O458 1.252 1_455 S
C473 C476 1.394 . S
C473 C478 1.370 . S
C473 C479 1.500 . S
C474 C477 1.383 . S
C474 C478 1.395 . S
C475 C476 1.396 . S
C475 C477 1.365 . S
C475 H484 0.929 . S
C476 C473 1.394 . S
C476 C475 1.396 . S
C476 H485 0.930 . S
C477 C474 1.383 . S
C477 C475 1.365 . S
C477 H486 0.931 . S
C478 C473 1.370 . S
C478 C474 1.395 . S
C478 H487 0.930 . S
C479 Gd415 2.805 . S
C479 O455 1.263 . S
C479 O456 1.252 . S
C479 C473 1.500 . S
H480 C463 0.929 . S
H481 C464 0.930 . S
H482 C465 0.931 . S
H483 C466 0.930 . S
H484 C475 0.929 . S
H485 C476 0.930 . S
H486 C477 0.931 . S
H487 C478 0.930 . S
H488 C496 0.950 . S
H489 C501 0.950 . S
H490 C498 0.950 . S
H491 C500 0.950 . S
H492 C502 0.950 . S
H493 C504 0.950 . S
H494 C506 0.950 . S
H495 C507 0.950 . S
C496 H488 0.950 . S
C496 C497 1.386 . S
C496 C498 1.391 . S
C497 C496 1.386 . S
C497 C501 1.393 . S
C498 H490 0.950 . S
C498 C496 1.391 . S
C498 C499 1.400 . S
C499 C498 1.400 . S
C499 C500 1.398 . S
C499 C505 1.491 . S
C500 H491 0.950 . S
C500 C499 1.398 . S
C500 C501 1.391 . S
C501 H489 0.950 . S
C501 C497 1.393 . S
C501 C500 1.391 . S
C502 H492 0.950 . S
C502 C503 1.386 . S
C502 C504 1.391 . S
C503 C502 1.386 . S
C503 C507 1.393 . S
C504 H493 0.950 . S
C504 C502 1.391 . S
C504 C505 1.400 . S
C505 C499 1.491 . S
C505 C504 1.400 . S
C505 C506 1.398 . S
C506 H494 0.950 . S
C506 C505 1.398 . S
C506 C507 1.391 . S
C507 H495 0.950 . S
C507 C503 1.393 . S
C507 C506 1.391 . S
H508 C516 0.950 . S
H509 C521 0.950 . S
H510 C518 0.950 . S
H511 C520 0.950 . S
H512 C522 0.950 . S
H513 C524 0.950 . S
H514 C526 0.950 . S
H515 C527 0.950 . S
C516 H508 0.950 . S
C516 C517 1.386 . S
C516 C518 1.391 . S
C517 C516 1.386 . S
C517 C521 1.393 . S
C518 H510 0.950 . S
C518 C516 1.391 . S
C518 C519 1.400 . S
C519 C518 1.400 . S
C519 C520 1.398 . S
C519 C525 1.491 . S
C520 H511 0.950 . S
C520 C519 1.398 . S
C520 C521 1.391 . S
C521 H509 0.950 . S
C521 C517 1.393 . S
C521 C520 1.391 . S
C522 H512 0.950 . S
C522 C523 1.386 . S
C522 C524 1.391 . S
C523 C522 1.386 . S
C523 C527 1.393 . S
C524 H513 0.950 . S
C524 C522 1.391 . S
C524 C525 1.400 . S
C525 C519 1.491 . S
C525 C524 1.400 . S
C525 C526 1.398 . S
C526 H514 0.950 . S
C526 C525 1.398 . S
C526 C527 1.391 . S
C527 H515 0.950 . S
C527 C523 1.393 . S
C527 C526 1.391 . S
H528 C536 0.950 . S
H529 C541 0.950 . S
H530 C538 0.950 . S
H531 C540 0.950 . S
H532 C542 0.950 . S
H533 C544 0.950 . S
H534 C546 0.950 . S
H535 C547 0.950 . S
C536 H528 0.950 . S
C536 C537 1.386 . S
C536 C538 1.391 . S
C537 C536 1.386 . S
C537 C541 1.393 . S
C538 H530 0.950 . S
C538 C536 1.391 . S
C538 C539 1.400 . S
C539 C538 1.400 . S
C539 C540 1.398 . S
C539 C545 1.491 . S
C540 H531 0.950 . S
C540 C539 1.398 . S
C540 C541 1.391 . S
C541 H529 0.950 . S
C541 C537 1.393 . S
C541 C540 1.391 . S
C542 H532 0.950 . S
C542 C543 1.386 . S
C542 C544 1.391 . S
C543 C542 1.386 . S
C543 C547 1.393 . S
C544 H533 0.950 . S
C544 C542 1.391 . S
C544 C545 1.400 . S
C545 C539 1.491 . S
C545 C544 1.400 . S
C545 C546 1.398 . S
C546 H534 0.950 . S
C546 C545 1.398 . S
C546 C547 1.391 . S
C547 H535 0.950 . S
C547 C543 1.393 . S
C547 C546 1.391 . S
H548 C556 0.950 . S
H549 C561 0.950 . S
H550 C558 0.950 . S
H551 C560 0.950 . S
H552 C562 0.951 . S
H553 C564 0.950 . S
H554 C566 0.950 . S
H555 C567 0.950 . S
C556 H548 0.950 . S
C556 C557 1.386 . S
C556 C558 1.391 . S
C557 C556 1.386 . S
C557 C561 1.393 . S
C558 H550 0.950 . S
C558 C556 1.391 . S
C558 C559 1.400 . S
C559 C558 1.400 . S
C559 C560 1.398 . S
C559 C565 1.491 . S
C560 H551 0.950 . S
C560 C559 1.398 . S
C560 C561 1.391 . S
C561 H549 0.950 . S
C561 C557 1.393 . S
C561 C560 1.391 . S
C562 H552 0.951 . S
C562 C563 1.386 . S
C562 C564 1.391 . S
C563 C562 1.386 . S
C563 C567 1.393 . S
C564 H553 0.950 . S
C564 C562 1.391 . S
C564 C565 1.400 . S
C565 C559 1.491 . S
C565 C564 1.400 . S
C565 C566 1.398 . S
C566 H554 0.950 . S
C566 C565 1.398 . S
C566 C567 1.391 . S
C567 H555 0.950 . S
C567 C563 1.393 . S
C567 C566 1.391 . S
H568 C576 0.950 . S
H569 C581 0.950 . S
H570 C578 0.951 . S
H571 C580 0.950 . S
H572 C582 0.950 . S
H573 C584 0.950 . S
H574 C586 0.950 . S
H575 C587 0.950 . S
C576 H568 0.950 . S
C576 C577 1.386 1_545 S
C576 C578 1.391 . S
C577 C576 1.386 1_565 S
C577 C581 1.393 . S
C578 H570 0.951 . S
C578 C576 1.391 . S
C578 C579 1.400 1_545 S
C579 C578 1.400 1_565 S
C579 C580 1.398 . S
C579 C585 1.491 1_554 S
C580 H571 0.950 . S
C580 C579 1.398 . S
C580 C581 1.391 . S
C581 H569 0.950 . S
C581 C577 1.393 . S
C581 C580 1.391 . S
C582 H572 0.950 . S
C582 C583 1.384 1_565 S
C582 C584 1.391 . S
C583 C582 1.384 1_545 S
C583 C587 1.394 . S
C584 H573 0.950 . S
C584 C582 1.391 . S
C584 C585 1.400 . S
C585 C579 1.491 1_556 S
C585 C584 1.400 . S
C585 C586 1.398 1_565 S
C586 H574 0.950 . S
C586 C585 1.398 1_545 S
C586 C587 1.391 . S
C587 H575 0.950 . S
C587 C583 1.394 . S
C587 C586 1.391 . S
H588 C596 0.950 . S
H589 C601 0.950 . S
H590 C598 0.950 . S
H591 C600 0.951 . S
H592 C602 0.950 . S
H593 C604 0.950 . S
H594 C606 0.950 . S
H595 C607 0.950 . S
C596 H588 0.950 . S
C596 C597 1.386 . S
C596 C598 1.391 . S
C597 C596 1.386 . S
C597 C601 1.393 . S
C598 H590 0.950 . S
C598 C596 1.391 . S
C598 C599 1.400 . S
C599 C598 1.400 . S
C599 C600 1.398 . S
C599 C605 1.491 1_554 S
C600 H591 0.951 . S
C600 C599 1.398 . S
C600 C601 1.391 . S
C601 H589 0.950 . S
C601 C597 1.393 . S
C601 C600 1.391 . S
C602 H592 0.950 . S
C602 C603 1.386 . S
C602 C604 1.391 . S
C603 C602 1.386 . S
C603 C607 1.393 . S
C604 H593 0.950 . S
C604 C602 1.391 . S
C604 C605 1.400 . S
C605 C599 1.491 1_556 S
C605 C604 1.400 . S
C605 C606 1.398 . S
C606 H594 0.950 . S
C606 C605 1.398 . S
C606 C607 1.391 . S
C607 H595 0.950 . S
C607 C603 1.393 . S
C607 C606 1.391 . S
H608 C616 0.950 . S
H609 C621 0.950 . S
H610 C618 0.950 . S
H611 C620 0.950 1_556 S
H612 C622 0.950 . S
H613 C624 0.950 . S
H614 C626 0.950 1_554 S
H615 C627 0.950 . S
C616 H608 0.950 . S
C616 C617 1.386 . S
C616 C618 1.391 . S
C617 C616 1.386 . S
C617 C621 1.393 . S
C618 H610 0.950 . S
C618 C616 1.391 . S
C618 C619 1.400 . S
C619 C618 1.400 . S
C619 C620 1.398 . S
C619 C625 1.491 1_554 S
C620 H611 0.950 1_554 S
C620 C619 1.398 . S
C620 C621 1.391 . S
C621 H609 0.950 . S
C621 C617 1.393 . S
C621 C620 1.391 . S
C622 H612 0.950 . S
C622 C623 1.386 . S
C622 C624 1.391 . S
C623 C622 1.386 . S
C623 C627 1.393 . S
C624 H613 0.950 . S
C624 C622 1.391 . S
C624 C625 1.400 . S
C625 C619 1.491 1_556 S
C625 C624 1.400 . S
C625 C626 1.398 . S
C626 H614 0.950 1_556 S
C626 C625 1.398 . S
C626 C627 1.391 . S
C627 H615 0.950 . S
C627 C623 1.393 . S
C627 C626 1.391 . S
H628 C636 0.950 1_455 S
H629 C641 0.950 . S
H630 C638 0.950 1_455 S
H631 C640 0.950 1_556 S
H632 C642 0.950 . S
H633 C644 0.950 . S
H634 C646 0.950 1_554 S
H635 C647 0.950 . S
C636 H628 0.950 1_655 S
C636 C637 1.386 . S
C636 C638 1.391 . S
C637 C636 1.386 . S
C637 C641 1.393 . S
C638 H630 0.950 1_655 S
C638 C636 1.391 . S
C638 C639 1.400 . S
C639 C638 1.400 . S
C639 C640 1.398 . S
C639 C645 1.491 1_554 S
C640 H631 0.950 1_554 S
C640 C639 1.398 . S
C640 C641 1.391 . S
C641 H629 0.950 . S
C641 C637 1.393 . S
C641 C640 1.391 . S
C642 H632 0.950 . S
C642 C643 1.415 . S
C642 C644 1.391 . S
C643 C642 1.415 . S
C643 C647 1.371 1_655 S
C644 H633 0.950 . S
C644 C642 1.391 . S
C644 C645 1.400 . S
C645 C639 1.491 1_556 S
C645 C644 1.400 . S
C645 C646 1.398 1_655 S
C646 H634 0.950 1_556 S
C646 C645 1.398 1_455 S
C646 C647 1.391 . S
C647 H635 0.950 . S
C647 C643 1.371 1_455 S
C647 C646 1.391 . S
H648 C656 0.950 . S
H649 C661 0.950 . S
H650 C658 0.952 1_655 S
H651 C660 0.950 . S
H652 C662 0.950 . S
H653 C664 0.950 . S
H654 C666 0.953 1_655 S
H655 C667 0.950 . S
C656 H648 0.950 . S
C656 C657 1.386 . S
C656 C658 1.391 . S
C657 C656 1.386 . S
C657 C661 1.393 . S
C658 H650 0.952 1_455 S
C658 C656 1.391 . S
C658 C659 1.400 . S
C659 C658 1.400 . S
C659 C660 1.398 . S
C659 C665 1.491 . S
C660 H651 0.950 . S
C660 C659 1.398 . S
C660 C661 1.391 . S
C661 H649 0.950 . S
C661 C657 1.393 . S
C661 C660 1.391 . S
C662 H652 0.950 . S
C662 C663 1.386 . S
C662 C664 1.391 . S
C663 C662 1.386 . S
C663 C667 1.393 1_455 S
C664 H653 0.950 . S
C664 C662 1.391 . S
C664 C665 1.400 . S
C665 C659 1.491 . S
C665 C664 1.400 . S
C665 C666 1.395 . S
C666 H654 0.953 1_455 S
C666 C665 1.395 . S
C666 C667 1.392 1_455 S
C667 H655 0.950 . S
C667 C663 1.393 1_655 S
C667 C666 1.392 1_655 S
H668 C676 0.950 . S
H669 C681 0.950 . S
H670 C678 0.950 1_565 S
H671 C680 0.950 . S
H672 C682 0.950 . S
H673 C684 0.950 . S
H674 C686 0.950 1_565 S
H675 C687 0.950 . S
C676 H668 0.950 . S
C676 C677 1.386 . S
C676 C678 1.391 . S
C677 C676 1.386 . S
C677 C681 1.393 . S
C678 H670 0.950 1_545 S
C678 C676 1.391 . S
C678 C679 1.400 . S
C679 C678 1.400 . S
C679 C680 1.398 . S
C679 C685 1.491 . S
C680 H671 0.950 . S
C680 C679 1.398 . S
C680 C681 1.391 . S
C681 H669 0.950 . S
C681 C677 1.393 . S
C681 C680 1.391 . S
C682 H672 0.950 . S
C682 C683 1.386 . S
C682 C684 1.391 . S
C683 C682 1.386 . S
C683 C687 1.393 1_545 S
C684 H673 0.950 . S
C684 C682 1.391 . S
C684 C685 1.400 . S
C685 C679 1.491 . S
C685 C684 1.400 . S
C685 C686 1.398 . S
C686 H674 0.950 1_545 S
C686 C685 1.398 . S
C686 C687 1.391 1_545 S
C687 H675 0.950 . S
C687 C683 1.393 1_565 S
C687 C686 1.391 1_565 S
H688 C696 0.950 . S
H689 C701 0.950 . S
H690 C698 0.950 . S
H691 C700 0.950 . S
H692 C702 0.950 . S
H693 C704 0.950 . S
H694 C706 0.950 . S
H695 C707 0.950 . S
C696 H688 0.950 . S
C696 C697 1.386 . S
C696 C698 1.391 . S
C697 C696 1.386 . S
C697 C701 1.393 . S
C698 H690 0.950 . S
C698 C696 1.391 . S
C698 C699 1.400 . S
C699 C698 1.400 . S
C699 C700 1.398 . S
C699 C705 1.491 . S
C700 H691 0.950 . S
C700 C699 1.398 . S
C700 C701 1.391 . S
C701 H689 0.950 . S
C701 C697 1.393 . S
C701 C700 1.391 . S
C702 H692 0.950 . S
C702 C703 1.386 . S
C702 C704 1.391 . S
C703 C702 1.386 . S
C703 C707 1.393 . S
C704 H693 0.950 . S
C704 C702 1.391 . S
C704 C705 1.400 . S
C705 C699 1.491 . S
C705 C704 1.400 . S
C705 C706 1.398 . S
C706 H694 0.950 . S
C706 C705 1.398 . S
C706 C707 1.391 . S
C707 H695 0.950 . S
C707 C703 1.393 . S
C707 C706 1.391 . S
H708 C716 0.950 . S
H709 C721 0.950 . S
H710 C718 0.950 . S
H711 C720 0.950 . S
H712 C722 0.950 . S
H713 C724 0.950 . S
H714 C726 0.950 . S
H715 C727 0.950 . S
C716 H708 0.950 . S
C716 C717 1.386 . S
C716 C718 1.391 . S
C717 C716 1.386 . S
C717 C721 1.393 . S
C718 H710 0.950 . S
C718 C716 1.391 . S
C718 C719 1.400 . S
C719 C718 1.400 . S
C719 C720 1.398 . S
C719 C725 1.491 . S
C720 H711 0.950 . S
C720 C719 1.398 . S
C720 C721 1.391 . S
C721 H709 0.950 . S
C721 C717 1.393 . S
C721 C720 1.391 . S
C722 H712 0.950 . S
C722 C723 1.386 . S
C722 C724 1.391 . S
C723 C722 1.386 . S
C723 C727 1.393 . S
C724 H713 0.950 . S
C724 C722 1.391 . S
C724 C725 1.400 . S
C725 C719 1.491 . S
C725 C724 1.400 . S
C725 C726 1.398 . S
C726 H714 0.950 . S
C726 C725 1.398 . S
C726 C727 1.391 . S
C727 H715 0.950 . S
C727 C723 1.393 . S
C727 C726 1.391 . S
H728 C736 0.950 . S
H729 C741 0.950 . S
H730 C738 0.950 1_455 S
H731 C740 0.950 . S
H732 C742 0.950 . S
H733 C744 0.950 . S
H734 C746 0.950 . S
H735 C747 0.950 . S
C736 H728 0.950 . S
C736 C737 1.386 . S
C736 C738 1.391 . S
C737 C736 1.386 . S
C737 C741 1.393 . S
C738 H730 0.950 1_655 S
C738 C736 1.391 . S
C738 C739 1.400 . S
C739 C738 1.400 . S
C739 C740 1.398 . S
C739 C745 1.491 . S
C740 H731 0.950 . S
C740 C739 1.398 . S
C740 C741 1.391 . S
C741 H729 0.950 . S
C741 C737 1.393 . S
C741 C740 1.391 . S
C742 H732 0.950 . S
C742 C743 1.386 1_655 S
C742 C744 1.391 . S
C743 C742 1.386 1_455 S
C743 C747 1.393 1_556 S
C744 H733 0.950 . S
C744 C742 1.391 . S
C744 C745 1.400 1_556 S
C745 C739 1.491 . S
C745 C744 1.400 1_554 S
C745 C746 1.398 1_655 S
C746 H734 0.950 . S
C746 C745 1.398 1_455 S
C746 C747 1.391 . S
C747 H735 0.950 . S
C747 C743 1.393 1_554 S
C747 C746 1.391 . S
H748 C756 0.975 . S
H749 C761 0.950 . S
H750 C758 0.950 . S
H751 C760 0.950 . S
H752 C762 0.950 . S
H753 C764 0.950 . S
H754 C766 0.950 . S
H755 C767 0.950 1_556 S
C756 H748 0.975 . S
C756 C757 1.351 1_545 S
C756 C758 1.401 . S
C757 C756 1.351 1_565 S
C757 C761 1.393 . S
C758 H750 0.950 . S
C758 C756 1.401 . S
C758 C759 1.400 1_545 S
C759 C758 1.400 1_565 S
C759 C760 1.398 . S
C759 C765 1.491 . S
C760 H751 0.950 . S
C760 C759 1.398 . S
C760 C761 1.391 . S
C761 H749 0.950 . S
C761 C757 1.393 . S
C761 C760 1.391 . S
C762 H752 0.950 . S
C762 C763 1.384 1_564 S
C762 C764 1.391 . S
C763 C762 1.384 1_546 S
C763 C767 1.393 1_556 S
C764 H753 0.950 . S
C764 C762 1.391 . S
C764 C765 1.400 . S
C765 C759 1.491 . S
C765 C764 1.400 . S
C765 C766 1.398 1_565 S
C766 H754 0.950 . S
C766 C765 1.398 1_545 S
C766 C767 1.391 . S
C767 H755 0.950 1_554 S
C767 C763 1.393 1_554 S
C767 C766 1.391 . S
H768 C776 0.950 . S
H769 C781 0.950 . S
H770 C778 0.950 . S
H771 C780 0.950 . S
H772 C782 0.950 . S
H773 C784 0.950 1_556 S
H774 C786 0.950 . S
H775 C787 0.950 . S
C776 H768 0.950 . S
C776 C777 1.386 . S
C776 C778 1.391 . S
C777 C776 1.386 . S
C777 C781 1.393 . S
C778 H770 0.950 . S
C778 C776 1.391 . S
C778 C779 1.400 . S
C779 C778 1.400 . S
C779 C780 1.398 . S
C779 C785 1.491 . S
C780 H771 0.950 . S
C780 C779 1.398 . S
C780 C781 1.391 . S
C781 H769 0.950 . S
C781 C777 1.393 . S
C781 C780 1.391 . S
C782 H772 0.950 . S
C782 C783 1.386 . S
C782 C784 1.391 1_556 S
C783 C782 1.386 . S
C783 C787 1.393 1_556 S
C784 H773 0.950 1_554 S
C784 C782 1.391 1_554 S
C784 C785 1.400 . S
C785 C779 1.491 . S
C785 C784 1.400 . S
C785 C786 1.398 . S
C786 H774 0.950 . S
C786 C785 1.398 . S
C786 C787 1.391 . S
C787 H775 0.950 . S
C787 C783 1.393 1_554 S
C787 C786 1.391 . S
H788 C796 0.950 . S
H789 C801 0.950 . S
H790 C798 0.950 . S
H791 C800 0.950 . S
H792 C802 0.950 . S
H793 C804 0.950 1_556 S
H794 C806 0.950 . S
H795 C807 0.950 . S
C796 H788 0.950 . S
C796 C797 1.386 . S
C796 C798 1.391 . S
C797 C796 1.386 . S
C797 C801 1.393 . S
C798 H790 0.950 . S
C798 C796 1.391 . S
C798 C799 1.400 . S
C799 C798 1.400 . S
C799 C800 1.398 . S
C799 C805 1.491 . S
C800 H791 0.950 . S
C800 C799 1.398 . S
C800 C801 1.391 . S
C801 H789 0.950 . S
C801 C797 1.393 . S
C801 C800 1.391 . S
C802 H792 0.950 . S
C802 C803 1.386 . S
C802 C804 1.391 1_556 S
C803 C802 1.386 . S
C803 C807 1.393 1_556 S
C804 H793 0.950 1_554 S
C804 C802 1.391 1_554 S
C804 C805 1.400 . S
C805 C799 1.491 . S
C805 C804 1.400 . S
C805 C806 1.398 . S
C806 H794 0.950 . S
C806 C805 1.398 . S
C806 C807 1.391 . S
C807 H795 0.950 . S
C807 C803 1.393 1_554 S
C807 C806 1.391 . S
H808 C816 0.950 . S
H809 C821 0.950 1_655 S
H810 C818 0.950 . S
H811 C820 0.950 1_655 S
H812 C822 0.920 1_655 S
H813 C824 0.950 1_655 S
H814 C826 0.950 . S
H815 C827 0.950 . S
C816 H808 0.950 . S
C816 C817 1.386 . S
C816 C818 1.391 . S
C817 C816 1.386 . S
C817 C821 1.393 . S
C818 H810 0.950 . S
C818 C816 1.391 . S
C818 C819 1.400 . S
C819 C818 1.400 . S
C819 C820 1.398 . S
C819 C825 1.491 . S
C820 H811 0.950 1_455 S
C820 C819 1.398 . S
C820 C821 1.391 . S
C821 H809 0.950 1_455 S
C821 C817 1.393 . S
C821 C820 1.391 . S
C822 H812 0.920 1_455 S
C822 C823 1.412 . S
C822 C824 1.395 . S
C823 C822 1.412 . S
C823 C827 1.393 . S
C824 H813 0.950 1_455 S
C824 C822 1.395 . S
C824 C825 1.400 . S
C825 C819 1.491 . S
C825 C824 1.400 . S
C825 C826 1.398 . S
C826 H814 0.950 . S
C826 C825 1.398 . S
C826 C827 1.391 . S
C827 H815 0.950 . S
C827 C823 1.393 . S
C827 C826 1.391 . S
H828 C836 0.950 . S
H829 C841 0.950 . S
H830 C838 0.950 . S
H831 C840 0.950 . S
H832 C842 0.950 . S
H833 C844 0.950 . S
H834 C846 0.950 . S
H835 C847 0.950 . S
C836 H828 0.950 . S
C836 C837 1.386 . S
C836 C838 1.391 . S
C837 C836 1.386 . S
C837 C841 1.393 . S
C838 H830 0.950 . S
C838 C836 1.391 . S
C838 C839 1.400 . S
C839 C838 1.400 . S
C839 C840 1.398 . S
C839 C845 1.491 . S
C840 H831 0.950 . S
C840 C839 1.398 . S
C840 C841 1.391 . S
C841 H829 0.950 . S
C841 C837 1.393 . S
C841 C840 1.391 . S
C842 H832 0.950 . S
C842 C843 1.386 . S
C842 C844 1.391 . S
C843 C842 1.386 . S
C843 C847 1.393 . S
C844 H833 0.950 . S
C844 C842 1.391 . S
C844 C845 1.400 . S
C845 C839 1.491 . S
C845 C844 1.400 . S
C845 C846 1.398 . S
C846 H834 0.950 . S
C846 C845 1.398 . S
C846 C847 1.391 . S
C847 H835 0.950 . S
C847 C843 1.393 . S
C847 C846 1.391 . S
H848 C856 0.950 . S
H849 C861 0.950 . S
H850 C858 0.950 . S
H851 C860 0.950 . S
H852 C862 0.950 . S
H853 C864 0.950 . S
H854 C866 0.950 . S
H855 C867 0.950 . S
C856 H848 0.950 . S
C856 C857 1.386 . S
C856 C858 1.391 . S
C857 C856 1.386 . S
C857 C861 1.393 . S
C858 H850 0.950 . S
C858 C856 1.391 . S
C858 C859 1.400 . S
C859 C858 1.400 . S
C859 C860 1.398 . S
C859 C865 1.491 . S
C860 H851 0.950 . S
C860 C859 1.398 . S
C860 C861 1.391 . S
C861 H849 0.950 . S
C861 C857 1.393 . S
C861 C860 1.391 . S
C862 H852 0.950 . S
C862 C863 1.386 . S
C862 C864 1.391 . S
C863 C862 1.386 . S
C863 C867 1.393 . S
C864 H853 0.950 . S
C864 C862 1.391 . S
C864 C865 1.400 . S
C865 C859 1.491 . S
C865 C864 1.400 . S
C865 C866 1.398 . S
C866 H854 0.950 . S
C866 C865 1.398 . S
C866 C867 1.391 . S
C867 H855 0.950 . S
C867 C863 1.393 . S
C867 C866 1.391 . S
H868 C876 0.950 . S
H869 C881 0.950 . S
H870 C878 0.950 . S
H871 C880 0.950 . S
H872 C882 0.950 . S
H873 C884 0.950 . S
H874 C886 0.950 . S
H875 C887 0.950 . S
C876 H868 0.950 . S
C876 C877 1.386 . S
C876 C878 1.391 . S
C877 C876 1.386 . S
C877 C881 1.393 . S
C878 H870 0.950 . S
C878 C876 1.391 . S
C878 C879 1.400 . S
C879 C878 1.400 . S
C879 C880 1.398 . S
C879 C885 1.491 . S
C880 H871 0.950 . S
C880 C879 1.398 . S
C880 C881 1.391 . S
C881 H869 0.950 . S
C881 C877 1.393 . S
C881 C880 1.391 . S
C882 H872 0.950 . S
C882 C883 1.386 . S
C882 C884 1.391 . S
C883 C882 1.386 . S
C883 C887 1.393 . S
C884 H873 0.950 . S
C884 C882 1.391 . S
C884 C885 1.400 . S
C885 C879 1.491 . S
C885 C884 1.400 . S
C885 C886 1.398 . S
C886 H874 0.950 . S
C886 C885 1.398 . S
C886 C887 1.391 . S
C887 H875 0.950 . S
C887 C883 1.393 . S
C887 C886 1.391 . S
H888 C896 0.950 . S
H889 C901 0.950 . S
H890 C898 0.950 . S
H891 C900 0.950 . S
H892 C902 0.950 . S
H893 C904 0.950 . S
H894 C906 0.950 . S
H895 C907 0.950 . S
C896 H888 0.950 . S
C896 C897 1.386 1_455 S
C896 C898 1.391 . S
C897 C896 1.386 1_655 S
C897 C901 1.393 . S
C898 H890 0.950 . S
C898 C896 1.391 . S
C898 C899 1.400 1_455 S
C899 C898 1.400 1_655 S
C899 C900 1.398 . S
C899 C905 1.491 . S
C900 H891 0.950 . S
C900 C899 1.398 . S
C900 C901 1.391 . S
C901 H889 0.950 . S
C901 C897 1.393 . S
C901 C900 1.391 . S
C902 H892 0.950 . S
C902 C903 1.386 . S
C902 C904 1.391 . S
C903 C902 1.386 . S
C903 C907 1.393 1_655 S
C904 H893 0.950 . S
C904 C902 1.391 . S
C904 C905 1.400 . S
C905 C899 1.491 . S
C905 C904 1.400 . S
C905 C906 1.398 1_655 S
C906 H894 0.950 . S
C906 C905 1.398 1_455 S
C906 C907 1.391 . S
C907 H895 0.950 . S
C907 C903 1.393 1_455 S
C907 C906 1.391 . S
H908 C916 0.950 . S
H909 C921 0.950 . S
H910 C918 0.950 . S
H911 C920 0.950 . S
H912 C922 0.950 . S
H913 C924 0.950 . S
H914 C926 0.950 . S
H915 C927 0.950 . S
C916 H908 0.950 . S
C916 C917 1.386 . S
C916 C918 1.391 . S
C917 C916 1.386 . S
C917 C921 1.393 1_565 S
C918 H910 0.950 . S
C918 C916 1.391 . S
C918 C919 1.400 . S
C919 C918 1.400 . S
C919 C920 1.398 1_565 S
C919 C925 1.491 . S
C920 H911 0.950 . S
C920 C919 1.398 1_545 S
C920 C921 1.391 . S
C921 H909 0.950 . S
C921 C917 1.393 1_545 S
C921 C920 1.391 . S
C922 H912 0.950 . S
C922 C923 1.386 1_545 S
C922 C924 1.391 . S
C923 C922 1.386 1_565 S
C923 C927 1.393 . S
C924 H913 0.950 . S
C924 C922 1.391 . S
C924 C925 1.400 1_545 S
C925 C919 1.491 . S
C925 C924 1.400 1_565 S
C925 C926 1.398 . S
C926 H914 0.950 . S
C926 C925 1.398 . S
C926 C927 1.391 . S
C927 H915 0.950 . S
C927 C923 1.393 . S
C927 C926 1.391 . S
H928 C936 0.950 . S
H929 C941 0.950 . S
H930 C938 0.950 . S
H931 C940 0.950 . S
H932 C942 0.950 . S
H933 C944 0.950 . S
H934 C946 0.950 . S
H935 C947 0.950 . S
C936 H928 0.950 . S
C936 C937 1.386 . S
C936 C938 1.391 . S
C937 C936 1.386 . S
C937 C941 1.393 . S
C938 H930 0.950 . S
C938 C936 1.391 . S
C938 C939 1.400 . S
C939 C938 1.400 . S
C939 C940 1.398 . S
C939 C945 1.491 . S
C940 H931 0.950 . S
C940 C939 1.398 . S
C940 C941 1.391 . S
C941 H929 0.950 . S
C941 C937 1.393 . S
C941 C940 1.391 . S
C942 H932 0.950 . S
C942 C943 1.386 . S
C942 C944 1.391 . S
C943 C942 1.386 . S
C943 C947 1.393 . S
C944 H933 0.950 . S
C944 C942 1.391 . S
C944 C945 1.400 . S
C945 C939 1.491 . S
C945 C944 1.400 . S
C945 C946 1.398 . S
C946 H934 0.950 . S
C946 C945 1.398 . S
C946 C947 1.391 . S
C947 H935 0.950 . S
C947 C943 1.393 . S
C947 C946 1.391 . S
H948 C956 0.950 . S
H949 C961 0.950 . S
H950 C958 0.950 . S
H951 C960 0.950 . S
H952 C962 0.950 . S
H953 C964 0.950 . S
H954 C966 0.950 . S
H955 C967 0.950 . S
C956 H948 0.950 . S
C956 C957 1.386 . S
C956 C958 1.391 . S
C957 C956 1.386 . S
C957 C961 1.393 . S
C958 H950 0.950 . S
C958 C956 1.391 . S
C958 C959 1.400 . S
C959 C958 1.400 . S
C959 C960 1.398 . S
C959 C965 1.491 . S
C960 H951 0.950 . S
C960 C959 1.398 . S
C960 C961 1.391 . S
C961 H949 0.950 . S
C961 C957 1.393 . S
C961 C960 1.391 . S
C962 H952 0.950 . S
C962 C963 1.386 . S
C962 C964 1.391 . S
C963 C962 1.386 . S
C963 C967 1.393 . S
C964 H953 0.950 . S
C964 C962 1.391 . S
C964 C965 1.400 . S
C965 C959 1.491 . S
C965 C964 1.400 . S
C965 C966 1.398 . S
C966 H954 0.950 . S
C966 C965 1.398 . S
C966 C967 1.391 . S
C967 H955 0.950 . S
C967 C963 1.393 . S
C967 C966 1.391 . S
C497 C125 1.962 . S
C503 C220 2.010 . S
C523 C303 2.036 . S
C517 C144 1.958 . S
C543 C388 2.006 . S
C537 C87 1.949 . S
C563 C472 1.995 . S
C557 C106 1.945 . S
C583 C208 2.022 . S
C577 C49 2.016 . S
C597 C68 2.017 . S
C603 C291 2.031 . S
C617 C11 2.001 . S
C623 C376 2.002 . S
C637 C30 1.987 . S
C643 C460 1.984 1_655 S
C663 C210 0.639 1_455 S
C657 C97 0.650 . S
C683 C306 0.685 . S
C677 C116 0.609 . S
C703 C378 0.700 . S
C697 C135 0.641 . S
C717 C78 0.653 . S
C723 C462 0.624 . S
C737 C21 0.665 . S
C743 C222 0.708 . S
C763 C294 0.616 1_556 S
C757 C40 0.665 . S
C783 C390 0.704 . S
C777 C59 0.673 . S
C797 C2 0.656 . S
C803 C474 0.690 . S
C817 C101 1.927 . S
C823 C207 2.099 . S
C837 C120 1.948 . S
C843 C292 2.125 . S
C863 C375 2.129 . S
C857 C139 1.969 . S
C883 C459 2.131 . S
C877 C82 1.967 . S
C897 C25 1.930 . S
C903 C219 2.100 . S
C923 C304 2.125 1_565 S
C917 C44 1.957 . S
C943 C387 2.122 . S
C937 C63 1.952 . S
C957 C6 1.982 . S
C963 C471 2.135 . S
