# Generated by pormake.
# Topology pyr, (3,6)-cn, num edge types: 1
# Building blocks:
#     Node 0, Type 0, BuildingBlock: BETDAH_clean_linker_0, # of connection points: 3
#     Node 1, Type 0, BuildingBlock: BETDAH_clean_linker_0, # of connection points: 3
#     Node 2, Type 0, BuildingBlock: BETDAH_clean_linker_0, # of connection points: 3
#     Node 3, Type 0, BuildingBlock: BETDAH_clean_linker_0, # of connection points: 3
#     Node 4, Type 0, BuildingBlock: BETDAH_clean_linker_0, # of connection points: 3
#     Node 5, Type 0, BuildingBlock: BETDAH_clean_linker_0, # of connection points: 3
#     Node 6, Type 0, BuildingBlock: BETDAH_clean_linker_0, # of connection points: 3
#     Node 7, Type 0, BuildingBlock: BETDAH_clean_linker_0, # of connection points: 3
#     Node 8, Type 1, BuildingBlock: VOLQOD_clean_sbu_1, # of connection points: 6
#     Node 9, Type 1, BuildingBlock: VOLQOD_clean_sbu_1, # of connection points: 6
#     Node 10, Type 1, BuildingBlock: VOLQOD_clean_sbu_1, # of connection points: 6
#     Node 11, Type 1, BuildingBlock: VOLQOD_clean_sbu_1, # of connection points: 6
#     Edge 12, Type (0, 1), BuildingBlock: XIVTED_clean_linker_0, # of connection points: 2
#     Edge 13, Type (0, 1), BuildingBlock: XIVTED_clean_linker_0, # of connection points: 2
#     Edge 14, Type (0, 1), BuildingBlock: XIVTED_clean_linker_0, # of connection points: 2
#     Edge 15, Type (0, 1), BuildingBlock: XIVTED_clean_linker_0, # of connection points: 2
#     Edge 16, Type (0, 1), BuildingBlock: XIVTED_clean_linker_0, # of connection points: 2
#     Edge 17, Type (0, 1), BuildingBlock: XIVTED_clean_linker_0, # of connection points: 2
#     Edge 18, Type (0, 1), BuildingBlock: XIVTED_clean_linker_0, # of connection points: 2
#     Edge 19, Type (0, 1), BuildingBlock: XIVTED_clean_linker_0, # of connection points: 2
#     Edge 20, Type (0, 1), BuildingBlock: XIVTED_clean_linker_0, # of connection points: 2
#     Edge 21, Type (0, 1), BuildingBlock: XIVTED_clean_linker_0, # of connection points: 2
#     Edge 22, Type (0, 1), BuildingBlock: XIVTED_clean_linker_0, # of connection points: 2
#     Edge 23, Type (0, 1), BuildingBlock: XIVTED_clean_linker_0, # of connection points: 2
#     Edge 24, Type (0, 1), BuildingBlock: XIVTED_clean_linker_0, # of connection points: 2
#     Edge 25, Type (0, 1), BuildingBlock: XIVTED_clean_linker_0, # of connection points: 2
#     Edge 26, Type (0, 1), BuildingBlock: XIVTED_clean_linker_0, # of connection points: 2
#     Edge 27, Type (0, 1), BuildingBlock: XIVTED_clean_linker_0, # of connection points: 2
#     Edge 28, Type (0, 1), BuildingBlock: XIVTED_clean_linker_0, # of connection points: 2
#     Edge 29, Type (0, 1), BuildingBlock: XIVTED_clean_linker_0, # of connection points: 2
#     Edge 30, Type (0, 1), BuildingBlock: XIVTED_clean_linker_0, # of connection points: 2
#     Edge 31, Type (0, 1), BuildingBlock: XIVTED_clean_linker_0, # of connection points: 2
#     Edge 32, Type (0, 1), BuildingBlock: XIVTED_clean_linker_0, # of connection points: 2
#     Edge 33, Type (0, 1), BuildingBlock: XIVTED_clean_linker_0, # of connection points: 2
#     Edge 34, Type (0, 1), BuildingBlock: XIVTED_clean_linker_0, # of connection points: 2
#     Edge 35, Type (0, 1), BuildingBlock: XIVTED_clean_linker_0, # of connection points: 2
# Relax obj value: 0.105
# Max RMSD: 0.189
# Mean RMSD: 0.148
data_MOF--net-pry--node1-VOLQOD_clean_sbu_1--node2-BETDAH_clean_linker_0--edge1-XIVTED_clean_linker_0
_symmetry_space_group_name_H-M    P1
_symmetry_Int_Tables_number       1
_symmetry_cell_setting            triclinic
loop_
_symmetry_equiv_pos_as_xyz
'x, y, z'
_cell_length_a     36.186026
_cell_length_b     36.721567
_cell_length_c     38.22434
_cell_angle_alpha  90.540303
_cell_angle_beta   90.665111
_cell_angle_gamma 95.934309
loop_
_atom_site_label
_atom_site_type_symbol
_atom_site_fract_x
_atom_site_fract_y
_atom_site_fract_z
_atom_type_partial_charge
H0 H 0.17762 0.11864 0.20141 0.0
H1 H 0.15045 0.16247 0.1014 0.0
H2 H 0.06757 0.14861 0.1804 0.0
C3 C 0.15782 0.12978 0.18419 0.0
C4 C 0.12154 0.13299 0.19598 0.0
C5 C 0.16856 0.13954 0.14995 0.0
C6 C 0.14292 0.15467 0.12784 0.0
C7 C 0.10688 0.1586 0.1393 0.0
C8 C 0.09614 0.14715 0.17287 0.0
N9 N 0.07988 0.16983 0.11579 0.0
C10 C 0.0786 0.2062 0.10653 0.0
H11 H 0.45279 0.86206 0.72021 0.0
H12 H 0.40646 0.96329 0.69913 0.0
H13 H 0.42092 0.88875 0.61523 0.0
C14 C 0.4412 0.8803 0.70199 0.0
C15 C 0.43845 0.87074 0.66614 0.0
C16 C 0.42955 0.91352 0.7145 0.0
C17 C 0.41456 0.9371 0.69053 0.0
C18 C 0.41198 0.92804 0.65486 0.0
C19 C 0.42384 0.8952 0.64289 0.0
N20 N 0.40033 0.95305 0.63016 0.0
C21 C 0.36445 0.9632 0.62928 0.0
H22 H 0.63135 0.38419 0.98459 0.0
H23 H 0.60602 0.48554 0.93878 0.0
H24 H 0.52024 0.39697 0.94931 0.0
C25 C 0.6118 0.40062 0.97227 0.0
C26 C 0.57489 0.38551 0.96695 0.0
C27 C 0.62384 0.43639 0.96173 0.0
C28 C 0.59758 0.45804 0.94764 0.0
C29 C 0.56015 0.44402 0.94431 0.0
C30 C 0.54889 0.40789 0.95378 0.0
N31 N 0.53388 0.46557 0.92971 0.0
C32 C 0.5347 0.47333 0.89432 0.0
H33 H 0.86982 0.67261 0.47229 0.0
H34 H 0.96259 0.65466 0.4073 0.0
H35 H 0.88007 0.56544 0.4289 0.0
C36 C 0.88483 0.65413 0.45696 0.0
C37 C 0.87026 0.61745 0.45228 0.0
C38 C 0.91818 0.6677 0.4411 0.0
C39 C 0.93675 0.64452 0.41959 0.0
C40 C 0.92295 0.6076 0.41548 0.0
C41 C 0.89016 0.59411 0.43211 0.0
N42 N 0.94262 0.58327 0.39591 0.0
C43 C 0.94714 0.58701 0.3601 0.0
H44 H 0.94358 0.88687 0.86353 0.0
H45 H 0.90602 0.91572 0.96565 0.0
H46 H 0.9106 0.99454 0.88361 0.0
C47 C 0.93256 0.90646 0.88089 0.0
C48 C 0.92738 0.94164 0.86861 0.0
C49 C 0.92498 0.89667 0.91581 0.0
C50 C 0.91205 0.92264 0.93867 0.0
C51 C 0.90729 0.9579 0.92689 0.0
C52 C 0.91506 0.96729 0.89218 0.0
N53 N 0.8965 0.98492 0.95014 0.0
C54 C 0.86146 0.98234 0.96484 0.0
H55 H 0.66388 0.08992 0.38284 0.0
H56 H 0.64928 0.12209 0.49007 0.0
H57 H 0.5667 0.14048 0.41287 0.0
C58 C 0.6482 0.10263 0.40268 0.0
C59 C 0.61402 0.11525 0.39345 0.0
C60 C 0.6616 0.10505 0.43742 0.0
C61 C 0.63966 0.11955 0.46314 0.0
C62 C 0.6058 0.1325 0.45437 0.0
C63 C 0.59306 0.13059 0.4195 0.0
N64 N 0.58461 0.14637 0.48141 0.0
C65 C 0.56799 0.17863 0.47841 0.0
H66 H 0.3562 0.68702 0.11039 0.0
H67 H 0.35955 0.57158 0.1267 0.0
H68 H 0.44829 0.64858 0.16591 0.0
C69 C 0.36977 0.66458 0.1212 0.0
C70 C 0.404 0.67203 0.13867 0.0
C71 C 0.35334 0.62853 0.11672 0.0
C72 C 0.37203 0.59961 0.1294 0.0
C73 C 0.40577 0.60675 0.14771 0.0
C74 C 0.42194 0.64302 0.15214 0.0
N75 N 0.42243 0.57711 0.16238 0.0
C76 C 0.43635 0.57884 0.19638 0.0
H77 H 0.14415 0.3914 0.58231 0.0
H78 H 0.11773 0.4966 0.61912 0.0
H79 H 0.0305 0.40963 0.6017 0.0
C80 C 0.1237 0.40933 0.59022 0.0
C81 C 0.08596 0.39586 0.59077 0.0
C82 C 0.13548 0.44566 0.60004 0.0
C83 C 0.10906 0.46864 0.61096 0.0
C84 C 0.07129 0.45543 0.61167 0.0
C85 C 0.05979 0.41937 0.60118 0.0
N86 N 0.04463 0.47802 0.62357 0.0
C87 C 0.04446 0.48901 0.65837 0.0
O88 O 0.00228 0.1079 0.56042 0.0
Zn89 Zn 0.98127 0.05502 0.55634 0.0
O90 O 0.01334 0.02758 0.52719 0.0
Zn91 Zn 0.98711 0.01137 0.48379 0.0
Zn92 Zn 0.05902 0.05812 0.51531 0.0
Zn93 Zn 0.02614 0.98537 0.55345 0.0
O94 O 0.98431 0.95623 0.47806 0.0
O95 O 0.0107 0.93887 0.52707 0.0
O96 O 0.92999 0.05416 0.53455 0.0
O97 O 0.935 0.02587 0.48344 0.0
O98 O 0.01258 0.03441 0.44163 0.0
O99 O 0.06626 0.06095 0.46285 0.0
O100 O 0.10438 0.03969 0.53788 0.0
O101 O 0.97541 0.03411 0.60507 0.0
O102 O 0.08115 0.98824 0.56306 0.0
O103 O 0.00149 0.9822 0.60038 0.0
C104 C 0.03183 0.12563 0.54919 0.0
C105 C 0.99471 0.93123 0.49769 0.0
C106 C 0.04435 0.05199 0.43716 0.0
C107 C 0.91606 0.04227 0.50534 0.0
C108 C 0.10867 0.01132 0.55586 0.0
C109 C 0.98369 0.00409 0.61797 0.0
O110 O 0.05562 0.10983 0.53192 0.0
O111 O 0.49243 0.10086 0.01339 0.0
Zn112 Zn 0.4706 0.04926 0.02306 0.0
O113 O 0.50334 0.02589 0.05551 0.0
Zn114 Zn 0.51927 0.9822 0.03319 0.0
Zn115 Zn 0.54774 0.05893 0.06773 0.0
Zn116 Zn 0.47598 0.01281 0.09825 0.0
O117 O 0.50324 0.93764 0.06136 0.0
O118 O 0.47035 0.95803 0.10482 0.0
O119 O 0.46348 0.02134 0.97684 0.0
O120 O 0.49756 0.97506 0.98455 0.0
O121 O 0.57492 0.9851 0.0284 0.0
O122 O 0.59488 0.039 0.05204 0.0
O123 O 0.55238 0.06813 0.11993 0.0
O124 O 0.42043 0.05436 0.04427 0.0
O125 O 0.50277 0.03536 0.14092 0.0
O126 O 0.42555 0.03174 0.09756 0.0
C127 C 0.52194 0.12002 0.02379 0.0
C128 C 0.48373 0.93194 0.08866 0.0
C129 C 0.60131 0.00931 0.0369 0.0
C130 C 0.47628 0.9924 0.96555 0.0
C131 C 0.53241 0.05679 0.14564 0.0
C132 C 0.40715 0.04729 0.07446 0.0
O133 O 0.54521 0.10721 0.04435 0.0
O134 O 0.54411 0.53995 0.62295 0.0
Zn135 Zn 0.54282 0.5623 0.57499 0.0
O136 O 0.50721 0.53298 0.54401 0.0
Zn137 Zn 0.53329 0.5142 0.50472 0.0
Zn138 Zn 0.48363 0.49102 0.56937 0.0
Zn139 Zn 0.4695 0.56342 0.52633 0.0
O140 O 0.5147 0.53216 0.45937 0.0
O141 O 0.47047 0.56708 0.47336 0.0
O142 O 0.59516 0.56646 0.55529 0.0
O143 O 0.58726 0.53105 0.50785 0.0
O144 O 0.52828 0.45927 0.50224 0.0
O145 O 0.49344 0.44248 0.54774 0.0
O146 O 0.4286 0.49291 0.57066 0.0
O147 O 0.52669 0.61285 0.5826 0.0
O148 O 0.41794 0.54236 0.54066 0.0
O149 O 0.47772 0.61448 0.54714 0.0
C150 C 0.52579 0.51238 0.63676 0.0
C151 C 0.49016 0.55284 0.45052 0.0
C152 C 0.51173 0.43438 0.521 0.0
C153 C 0.60816 0.55161 0.52841 0.0
C154 C 0.4063 0.51441 0.5585 0.0
C155 C 0.50076 0.6297 0.56963 0.0
O156 O 0.5018 0.49175 0.61917 0.0
O157 O 0.96234 0.53467 0.08679 0.0
Zn158 Zn 0.96504 0.51351 0.03828 0.0
O159 O 0.99467 0.54762 0.00817 0.0
Zn160 Zn 0.96373 0.56219 0.96983 0.0
Zn161 Zn 0.01312 0.59197 0.03487 0.0
Zn162 Zn 0.03592 0.52278 0.98931 0.0
O163 O 0.98313 0.54704 0.92361 0.0
O164 O 0.03404 0.52055 0.93622 0.0
O165 O 0.91261 0.50301 0.01975 0.0
O166 O 0.91106 0.53994 0.97414 0.0
O167 O 0.96235 0.61651 0.96839 0.0
O168 O 0.99643 0.63846 0.01386 0.0
O169 O 0.0689 0.59673 0.03634 0.0
O170 O 0.9874 0.46566 0.04305 0.0
O171 O 0.08469 0.54979 0.00467 0.0
O172 O 0.03605 0.47116 0.00802 0.0
C173 C 0.97585 0.56434 0.10169 0.0
C174 C 0.01111 0.53132 0.91395 0.0
C175 C 0.97618 0.64341 0.98716 0.0
C176 C 0.89506 0.51646 0.99473 0.0
C177 C 0.09351 0.57829 0.02343 0.0
C178 C 0.01534 0.45262 0.02961 0.0
O179 O 0.99585 0.58878 0.08499 0.0
H180 H 0.1463 0.07672 0.23474 0.0
H181 H -0.00046 0.07194 0.38438 0.0
H182 H 0.06987 0.15975 0.23961 0.0
H183 H 0.11392 0.05836 0.409 0.0
H184 H 0.01828 0.09241 0.3256 0.0
H185 H 0.12862 0.05824 0.29376 0.0
C186 C 0.12615 0.09148 0.24806 0.0
C187 C 0.11006 0.12043 0.23181 0.0
C188 C 0.03915 0.08489 0.34395 0.0
C189 C 0.08847 0.09771 0.29907 0.0
C190 C 0.02854 0.07302 0.3773 0.0
C191 C 0.05528 0.06347 0.40149 0.0
C192 C 0.07655 0.08612 0.33445 0.0
C193 C 0.09252 0.06563 0.39112 0.0
C194 C 0.11589 0.08054 0.28174 0.0
C195 C 0.08283 0.13705 0.25047 0.0
N196 N 0.10204 0.07634 0.35816 0.0
N197 N 0.07269 0.12526 0.28296 0.0
H198 H 0.38351 0.95034 0.75612 0.0
H199 H 0.50782 0.93927 0.9292 0.0
H200 H 0.48714 0.9016 0.7592 0.0
H201 H 0.42505 0.01533 0.9189 0.0
H202 H 0.49517 0.9192 0.86888 0.0
H203 H 0.3935 0.96908 0.81741 0.0
C204 C 0.40839 0.94361 0.76953 0.0
C205 C 0.43447 0.92422 0.75221 0.0
C206 C 0.47973 0.94026 0.8798 0.0
C207 C 0.44565 0.94511 0.8227 0.0
C208 C 0.48682 0.95168 0.91435 0.0
C209 C 0.46756 0.97918 0.92925 0.0
C210 C 0.45291 0.95612 0.85987 0.0
C211 C 0.44071 0.99419 0.90852 0.0
C212 C 0.41395 0.9542 0.8046 0.0
C213 C 0.46583 0.91581 0.77137 0.0
N214 N 0.43413 0.98242 0.8749 0.0
N215 N 0.47046 0.92623 0.80548 0.0
H216 H 0.49598 0.43046 0.84672 0.0
H217 H 0.57062 0.55262 0.68466 0.0
H218 H 0.57378 0.52695 0.85801 0.0
H219 H 0.49203 0.45606 0.67505 0.0
H220 H 0.57464 0.54248 0.74766 0.0
H221 H 0.49609 0.43841 0.78318 0.0
C222 C 0.51303 0.45336 0.83559 0.0
C223 C 0.53471 0.47826 0.8571 0.0
C224 C 0.55666 0.52344 0.7317 0.0
C225 C 0.53526 0.48759 0.78488 0.0
C226 C 0.5544 0.52915 0.6957 0.0
C227 C 0.5308 0.50526 0.67448 0.0
C228 C 0.53515 0.49365 0.74659 0.0
C229 C 0.51048 0.47532 0.69031 0.0
C230 C 0.5132 0.4579 0.79943 0.0
C231 C 0.55657 0.50738 0.84191 0.0
N232 N 0.51302 0.47048 0.72538 0.0
N233 N 0.55626 0.51136 0.80657 0.0
H234 H 0.98972 0.63465 0.31971 0.0
H235 H 0.9305 0.52084 0.14444 0.0
H236 H 0.91066 0.53858 0.31586 0.0
H237 H 0.00579 0.6201 0.14524 0.0
H238 H 0.9218 0.52831 0.20705 0.0
H239 H 0.99513 0.63134 0.25563 0.0
C240 C 0.97343 0.61302 0.30519 0.0
C241 C 0.94979 0.58679 0.32257 0.0
C242 C 0.94013 0.54858 0.19357 0.0
C243 C 0.95574 0.58263 0.24998 0.0
C244 C 0.94514 0.54432 0.15773 0.0
C245 C 0.96906 0.56979 0.13946 0.0
C246 C 0.95927 0.57847 0.21153 0.0
C247 C 0.98712 0.59974 0.15821 0.0
C248 C 0.97646 0.61109 0.26877 0.0
C249 C 0.9292 0.55923 0.30307 0.0
N250 N 0.982 0.60315 0.19325 0.0
N251 N 0.93272 0.55777 0.26778 0.0
H252 H 0.23578 0.14551 0.18515 0.0
H253 H 0.35239 0.06782 0.03062 0.0
H254 H 0.18561 0.11336 0.08498 0.0
H255 H 0.38007 0.05717 0.13995 0.0
H256 H 0.29491 0.09311 0.04752 0.0
H257 H 0.29347 0.12299 0.16604 0.0
C258 C 0.23682 0.13383 0.1591 0.0
C259 C 0.20541 0.13091 0.13689 0.0
C260 C 0.31357 0.08507 0.06772 0.0
C261 C 0.27184 0.10562 0.11467 0.0
C262 C 0.34633 0.07062 0.05814 0.0
C263 C 0.37104 0.06019 0.08391 0.0
C264 C 0.30587 0.08979 0.1033 0.0
C265 C 0.36177 0.06454 0.11917 0.0
C266 C 0.26984 0.12103 0.14823 0.0
C267 C 0.20903 0.11647 0.10301 0.0
N268 N 0.33011 0.07925 0.12781 0.0
N269 N 0.24159 0.10426 0.09297 0.0
H270 H 0.34521 0.0258 0.60157 0.0
H271 H 0.12852 0.95358 0.59427 0.0
H272 H 0.30002 0.92207 0.64272 0.0
H273 H 0.17449 0.05484 0.54787 0.0
H274 H 0.19039 0.94353 0.6156 0.0
H275 H 0.28217 0.03927 0.58571 0.0
C276 C 0.32179 0.00615 0.60765 0.0
C277 C 0.32735 0.97297 0.62353 0.0
C278 C 0.18696 0.96799 0.60081 0.0
C279 C 0.25557 0.98767 0.60513 0.0
C280 C 0.15158 0.97376 0.58854 0.0
C281 C 0.1462 0.00507 0.56904 0.0
C282 C 0.21733 0.99368 0.59361 0.0
C283 C 0.17725 0.03024 0.56263 0.0
C284 C 0.28592 0.01369 0.59848 0.0
C285 C 0.29652 0.94807 0.63064 0.0
N286 N 0.21146 0.02396 0.57482 0.0
N287 N 0.26185 0.95586 0.62125 0.0
H288 H 0.65559 0.50664 0.97672 0.0
H289 H 0.85731 0.45068 0.01077 0.0
H290 H 0.68411 0.3977 0.95297 0.0
H291 H 0.8422 0.55628 0.96735 0.0
H292 H 0.79086 0.43203 1.00147 0.0
H293 H 0.72196 0.52716 0.9836 0.0
C294 C 0.67559 0.48705 0.97276 0.0
C295 C 0.66395 0.45017 0.96473 0.0
C296 C 0.80222 0.45926 0.994 0.0
C297 C 0.73954 0.47337 0.97364 0.0
C298 C 0.83996 0.46994 0.99943 0.0
C299 C 0.85514 0.50496 0.98963 0.0
C300 C 0.77948 0.4841 0.97955 0.0
C301 C 0.83152 0.5289 0.97495 0.0
C302 C 0.71338 0.4988 0.97688 0.0
C303 C 0.6914 0.42608 0.96031 0.0
N304 N 0.79466 0.51815 0.97061 0.0
N305 N 0.72782 0.43799 0.96525 0.0
H306 H 0.84154 0.63407 0.51627 0.0
H307 H 0.64442 0.5219 0.47475 0.0
H308 H 0.81489 0.57101 0.42173 0.0
H309 H 0.66316 0.59668 0.5626 0.0
H310 H 0.70915 0.53478 0.45895 0.0
H311 H 0.7787 0.6161 0.53725 0.0
C312 C 0.82256 0.61639 0.49994 0.0
C313 C 0.83353 0.60422 0.46703 0.0
C314 C 0.69924 0.54837 0.48174 0.0
C315 C 0.76176 0.5833 0.49111 0.0
C316 C 0.66215 0.54103 0.49085 0.0
C317 C 0.64811 0.55847 0.51996 0.0
C318 C 0.72278 0.5734 0.50177 0.0
C319 C 0.6727 0.58275 0.53986 0.0
C320 C 0.78675 0.60606 0.51203 0.0
C321 C 0.80794 0.58078 0.44739 0.0
N322 N 0.70887 0.58964 0.5303 0.0
N323 N 0.77328 0.57126 0.45966 0.0
H324 H 0.11629 0.24919 0.0586 0.0
H325 H 0.97906 0.40646 0.07685 0.0
H326 H 0.02581 0.24567 0.13108 0.0
H327 H 0.07303 0.41483 0.00772 0.0
H328 H 0.99574 0.34724 0.09627 0.0
H329 H 0.1015 0.30987 0.03934 0.0
C330 C 0.09353 0.26147 0.0706 0.0
C331 C 0.07227 0.24288 0.09648 0.0
C332 C 0.01275 0.36196 0.07683 0.0
C333 C 0.05488 0.31158 0.07452 0.0
C334 C 0.00316 0.39584 0.06561 0.0
C335 C 0.02462 0.41583 0.04052 0.0
C336 C 0.04406 0.34766 0.06292 0.0
C337 C 0.0556 0.40047 0.02706 0.0
C338 C 0.085 0.29594 0.05958 0.0
C339 C 0.04289 0.25946 0.11113 0.0
N340 N 0.06438 0.36734 0.03842 0.0
N341 N 0.03498 0.29284 0.0999 0.0
H342 H 0.50941 0.35129 0.99303 0.0
H343 H 0.58889 0.16067 0.01864 0.0
H344 H 0.6167 0.32898 0.95453 0.0
H345 H 0.47118 0.16663 0.00425 0.0
H346 H 0.60032 0.22512 0.00286 0.0
H347 H 0.49487 0.28569 0.00418 0.0
C348 C 0.52982 0.33274 0.98678 0.0
C349 C 0.56461 0.3459 0.97336 0.0
C350 C 0.57201 0.21224 0.00297 0.0
C351 C 0.54835 0.27129 0.98661 0.0
C352 C 0.56547 0.17556 0.01207 0.0
C353 C 0.52906 0.15837 0.01266 0.0
C354 C 0.5419 0.23207 0.99511 0.0
C355 C 0.49969 0.17889 0.00385 0.0
C356 C 0.52151 0.29539 0.99321 0.0
C357 C 0.59001 0.32046 0.96595 0.0
N358 N 0.50671 0.21491 0.99575 0.0
N359 N 0.58152 0.28451 0.973 0.0
H360 H 0.9321 0.69985 0.50461 0.0
H361 H 0.9704 0.90262 0.43362 0.0
H362 H 0.93916 0.72186 0.39417 0.0
H363 H 0.00143 0.87101 0.5376 0.0
H364 H 0.95533 0.8377 0.41824 0.0
H365 H 0.95392 0.76382 0.51717 0.0
C366 C 0.93844 0.71828 0.48302 0.0
C367 C 0.93379 0.70581 0.44836 0.0
C368 C 0.96573 0.84511 0.4443 0.0
C369 C 0.95844 0.77904 0.46242 0.0
C370 C 0.97418 0.8821 0.45315 0.0
C371 C 0.98702 0.89231 0.48702 0.0
C372 C 0.96967 0.81832 0.46965 0.0
C373 C 0.99158 0.86453 0.5112 0.0
C374 C 0.951 0.7547 0.49016 0.0
C375 C 0.94257 0.73058 0.42125 0.0
N376 N 0.98261 0.8289 0.50213 0.0
N377 N 0.95414 0.76627 0.42884 0.0
H378 H 0.43653 0.80397 0.69949 0.0
H379 H 0.47318 0.68556 0.53417 0.0
H380 H 0.46897 0.85643 0.60211 0.0
H381 H 0.51553 0.65766 0.63533 0.0
H382 H 0.46089 0.74544 0.55802 0.0
H383 H 0.45562 0.74669 0.67628 0.0
C384 C 0.44791 0.80381 0.67344 0.0
C385 C 0.45084 0.83553 0.65284 0.0
C386 C 0.47312 0.72622 0.57482 0.0
C387 C 0.47138 0.76934 0.6258 0.0
C388 C 0.48004 0.69213 0.56132 0.0
C389 C 0.49555 0.66678 0.5828 0.0
C390 C 0.48068 0.73446 0.61028 0.0
C391 C 0.50387 0.6766 0.61783 0.0
C392 C 0.45857 0.77092 0.66019 0.0
C393 C 0.46506 0.8328 0.61884 0.0
N394 N 0.49583 0.70951 0.63066 0.0
N395 N 0.47433 0.80025 0.60627 0.0
H396 H 0.95582 0.00825 0.84205 0.0
H397 H 0.97679 0.93633 0.64764 0.0
H398 H 0.9162 0.89785 0.80971 0.0
H399 H 0.96717 0.05012 0.67122 0.0
H400 H 0.96183 0.92123 0.70839 0.0
H401 H 0.96703 0.02381 0.78087 0.0
C402 C 0.94916 0.98728 0.82223 0.0
C403 C 0.93491 0.95158 0.83137 0.0
C404 C 0.96283 0.94947 0.7002 0.0
C405 C 0.94876 0.96922 0.76118 0.0
C406 C 0.9715 0.95814 0.66559 0.0
C407 C 0.97325 0.99456 0.65434 0.0
C408 C 0.95658 0.97747 0.72396 0.0
C409 C 0.96596 0.02167 0.67873 0.0
C410 C 0.95578 0.99623 0.78727 0.0
C411 C 0.92783 0.92552 0.80426 0.0
N412 N 0.95828 0.01263 0.71251 0.0
N413 N 0.93503 0.9348 0.77049 0.0
H414 H 0.54363 0.09098 0.37043 0.0
H415 H 0.59706 0.09679 0.16746 0.0
H416 H 0.6526 0.12951 0.33298 0.0
H417 H 0.4938 0.04365 0.20632 0.0
H418 H 0.61571 0.11447 0.22742 0.0
H419 H 0.52254 0.07961 0.30988 0.0
C420 C 0.56299 0.09747 0.34945 0.0
C421 C 0.59999 0.11103 0.35679 0.0
C422 C 0.58894 0.09901 0.2228 0.0
C423 C 0.57617 0.09772 0.28743 0.0
C424 C 0.57824 0.08891 0.18854 0.0
C425 C 0.54386 0.0685 0.18176 0.0
C426 C 0.56506 0.08881 0.25055 0.0
C427 C 0.52065 0.05918 0.21023 0.0
C428 C 0.55102 0.09071 0.31489 0.0
C429 C 0.62398 0.11855 0.32854 0.0
N430 N 0.53169 0.06936 0.24332 0.0
N431 N 0.61169 0.11171 0.29515 0.0
H432 H 0.40529 0.61423 0.24853 0.0
H433 H 0.52861 0.52832 0.39546 0.0
H434 H 0.49089 0.54446 0.22624 0.0
H435 H 0.43895 0.59317 0.41944 0.0
H436 H 0.51804 0.53794 0.33345 0.0
H437 H 0.42018 0.61108 0.31121 0.0
C438 C 0.42749 0.59856 0.25702 0.0
C439 C 0.44706 0.5796 0.23271 0.0
C440 C 0.50071 0.55018 0.35222 0.0
C441 C 0.46401 0.57552 0.30376 0.0
C442 C 0.5067 0.54469 0.38774 0.0
C443 C 0.48447 0.55978 0.41283 0.0
C444 C 0.47223 0.5709 0.34147 0.0
C445 C 0.45667 0.58089 0.40107 0.0
C446 C 0.43591 0.59667 0.29265 0.0
C447 C 0.47538 0.55949 0.2445 0.0
N448 N 0.45124 0.58571 0.36621 0.0
N449 N 0.48297 0.55785 0.27931 0.0
H450 H 0.09012 0.46998 0.70986 0.0
H451 H 0.96919 0.55303 0.85951 0.0
H452 H 0.99391 0.52683 0.68963 0.0
H453 H 0.06658 0.49797 0.88164 0.0
H454 H 0.979 0.54471 0.79723 0.0
H455 H 0.08355 0.48134 0.77287 0.0
C456 C 0.06783 0.48515 0.71886 0.0
C457 C 0.04255 0.49771 0.69502 0.0
C458 C 0.99829 0.53445 0.81564 0.0
C459 C 0.03454 0.51045 0.76643 0.0
C460 C 0.99268 0.53914 0.85133 0.0
C461 C 0.01704 0.52609 0.876 0.0
C462 C 0.02847 0.5165 0.8043 0.0
C463 C 0.04703 0.50842 0.86362 0.0
C464 C 0.064 0.49154 0.75468 0.0
C465 C 0.01398 0.51693 0.70749 0.0
N466 N 0.05186 0.50408 0.82863 0.0
N467 N 0.01065 0.52266 0.74243 0.0
H468 H 0.83983 0.03351 0.00863 0.0
H469 H 0.62588 0.95095 1.00189 0.0
H470 H 0.80027 0.93502 0.95189 0.0
H471 H 0.66536 0.05348 0.05255 0.0
H472 H 0.68981 0.94229 0.98671 0.0
H473 H 0.77647 0.03881 0.02865 0.0
C474 C 0.81767 0.01282 1.00075 0.0
C475 C 0.82485 0.98376 0.97884 0.0
C476 C 0.68449 0.96663 1.00124 0.0
C477 C 0.75253 0.98966 1.00112 0.0
C478 C 0.64795 0.97161 0.00995 0.0
C479 C 0.6401 0.0031 0.02845 0.0
C480 C 0.71349 0.99326 0.0111 0.0
C481 C 0.66996 0.02885 0.03818 0.0
C482 C 0.78156 0.01588 0.01202 0.0
C483 C 0.79553 0.95773 0.96897 0.0
N484 N 0.70526 0.02339 0.02933 0.0
N485 N 0.7605 0.96133 0.98011 0.0
H486 H 0.72498 0.11025 0.39786 0.0
H487 H 0.86003 0.05725 0.54924 0.0
H488 H 0.68341 0.07297 0.49832 0.0
H489 H 0.88452 0.04258 0.44005 0.0
H490 H 0.79712 0.07024 0.53255 0.0
H491 H 0.78579 0.09219 0.41408 0.0
C492 C 0.72834 0.09793 0.42317 0.0
C493 C 0.69867 0.09318 0.44668 0.0
C494 C 0.81627 0.06395 0.51233 0.0
C495 C 0.76887 0.07351 0.46573 0.0
C496 C 0.85217 0.0567 0.52179 0.0
C497 C 0.87754 0.04882 0.49598 0.0
C498 C 0.80599 0.06409 0.47681 0.0
C499 C 0.86582 0.04835 0.46081 0.0
C500 C 0.76323 0.08784 0.43245 0.0
C501 C 0.70541 0.0779 0.4795 0.0
N502 N 0.83101 0.05625 0.45223 0.0
N503 N 0.73984 0.0689 0.48814 0.0
H504 H 0.32805 0.57444 0.06939 0.0
H505 H 0.12328 0.63828 0.06091 0.0
H506 H 0.2935 0.66679 0.12657 0.0
H507 H 0.15376 0.54185 0.00738 0.0
H508 H 0.18735 0.65178 0.08096 0.0
H509 H 0.2657 0.56385 0.04316 0.0
C510 C 0.30736 0.59243 0.07645 0.0
C511 C 0.31602 0.6216 0.10012 0.0
C512 C 0.18011 0.62776 0.06467 0.0
C513 C 0.24494 0.60991 0.07005 0.0
C514 C 0.14348 0.62006 0.05313 0.0
C515 C 0.13299 0.5887 0.03266 0.0
C516 C 0.20655 0.60389 0.05583 0.0
C517 C 0.16054 0.56625 0.02325 0.0
C518 C 0.27189 0.58652 0.06132 0.0
C519 C 0.28828 0.64432 0.10803 0.0
N520 N 0.19603 0.57415 0.03514 0.0
N521 N 0.25405 0.63795 0.0931 0.0
H522 H 0.19402 0.41226 0.62518 0.0
H523 H 0.34883 0.55372 0.53853 0.0
H524 H 0.16777 0.50912 0.57121 0.0
H525 H 0.3722 0.45773 0.59586 0.0
H526 H 0.2828 0.53983 0.55174 0.0
H527 H 0.25994 0.43086 0.61695 0.0
C528 C 0.20224 0.43759 0.61171 0.0
C529 C 0.17547 0.45903 0.59856 0.0
C530 C 0.30247 0.52193 0.56147 0.0
C531 C 0.25098 0.48053 0.58885 0.0
C532 C 0.34015 0.52977 0.55387 0.0
C533 C 0.36617 0.50678 0.56594 0.0
C534 C 0.29077 0.49088 0.58125 0.0
C535 C 0.35327 0.47621 0.58583 0.0
C536 C 0.23988 0.44825 0.60703 0.0
C537 C 0.1876 0.49188 0.5818 0.0
N538 N 0.31657 0.46916 0.59275 0.0
N539 N 0.22454 0.5015 0.57712 0.0
H540 H 0.95759 0.87773 0.97747 0.0
H541 H 0.93703 0.66354 0.93021 0.0
H542 H 0.90682 0.83091 0.88237 0.0
H543 H 0.99687 0.70886 0.02168 0.0
H544 H 0.92365 0.72473 0.91407 0.0
H545 H 0.96963 0.81628 0.99603 0.0
C546 C 0.94871 0.85451 0.96062 0.0
C547 C 0.93126 0.85951 0.92824 0.0
C548 C 0.93972 0.72141 0.93768 0.0
C549 C 0.94522 0.7892 0.94919 0.0
C550 C 0.94741 0.68635 0.94699 0.0
C551 C 0.9682 0.68089 0.9774 0.0
C552 C 0.95279 0.75153 0.9589 0.0
C553 C 0.98081 0.71171 0.99798 0.0
C554 C 0.95582 0.81948 0.97113 0.0
C555 C 0.92078 0.82846 0.90732 0.0
N556 N 0.97289 0.74572 0.98836 0.0
N557 N 0.92791 0.79473 0.91814 0.0
H558 H 0.37271 0.73101 0.16408 0.0
H559 H 0.51792 0.87193 0.06941 0.0
H560 H 0.47307 0.6998 0.11799 0.0
H561 H 0.43328 0.90573 0.13772 0.0
H562 H 0.50354 0.80907 0.08892 0.0
H563 H 0.39624 0.79545 0.15784 0.0
C564 C 0.40004 0.73788 0.15322 0.0
C565 C 0.42096 0.71029 0.14129 0.0
C566 C 0.48835 0.83028 0.0999 0.0
C567 C 0.44774 0.78369 0.13341 0.0
C568 C 0.49637 0.86617 0.08861 0.0
C569 C 0.47646 0.89411 0.10165 0.0
C570 C 0.45988 0.8221 0.12409 0.0
C571 C 0.44917 0.88506 0.1268 0.0
C572 C 0.41346 0.77458 0.14962 0.0
C573 C 0.45621 0.72039 0.12753 0.0
N574 N 0.44139 0.84974 0.13691 0.0
N575 N 0.46828 0.75637 0.12341 0.0
H576 H 0.1112 0.35506 0.53743 0.0
H577 H 0.99212 0.16856 0.59075 0.0
H578 H 0.03482 0.34776 0.62361 0.0
H579 H 0.08562 0.17413 0.52107 0.0
H580 H 0.00258 0.23498 0.5991 0.0
H581 H 0.09675 0.28955 0.52657 0.0
C582 C 0.09134 0.33968 0.55406 0.0
C583 C 0.0745 0.35689 0.58172 0.0
C584 C 0.02078 0.2216 0.58202 0.0
C585 C 0.05758 0.28183 0.56923 0.0
C586 C 0.01486 0.18369 0.57723 0.0
C587 C 0.03812 0.16567 0.55525 0.0
C588 C 0.04996 0.24166 0.5645 0.0
C589 C 0.06709 0.18675 0.53839 0.0
C590 C 0.08305 0.30228 0.5478 0.0
C591 C 0.04831 0.3357 0.60188 0.0
N592 N 0.07212 0.22359 0.54332 0.0
N593 N 0.04078 0.29921 0.59535 0.0
H594 H 0.58435 0.23535 0.43489 0.0
H595 H 0.48255 0.37297 0.55568 0.0
H596 H 0.5207 0.20164 0.52563 0.0
H597 H 0.5482 0.40688 0.4658 0.0
H598 H 0.49133 0.3093 0.54203 0.0
H599 H 0.56623 0.29756 0.44233 0.0
C600 C 0.56604 0.2411 0.45603 0.0
C601 C 0.55374 0.21378 0.47963 0.0
C602 C 0.50363 0.33067 0.52518 0.0
C603 C 0.53345 0.28446 0.48879 0.0
C604 C 0.49864 0.36707 0.53297 0.0
C605 C 0.5149 0.39545 0.51204 0.0
C606 C 0.52509 0.3225 0.49628 0.0
C607 C 0.53532 0.38602 0.48286 0.0
C608 C 0.55583 0.27651 0.46041 0.0
C609 C 0.53047 0.22224 0.50685 0.0
N610 N 0.53999 0.35042 0.47598 0.0
N611 N 0.52122 0.25697 0.51086 0.0
loop_
_geom_bond_atom_site_label_1
_geom_bond_atom_site_label_2
_geom_bond_distance
_geom_bond_site_symmetry_2
_ccdc_geom_bond_type
H0 C3 0.929 . S
H1 C6 0.929 . S
H2 C8 0.930 . S
C3 H0 0.929 . S
C3 C4 1.398 . S
C3 C5 1.396 . S
C4 C3 1.398 . S
C4 C8 1.407 . S
C5 C3 1.396 . S
C5 C6 1.394 . S
C6 H1 0.929 . S
C6 C5 1.394 . S
C6 C7 1.382 . S
C7 C6 1.382 . S
C7 C8 1.392 . S
C7 N9 1.420 . S
C8 H2 0.930 . S
C8 C4 1.407 . S
C8 C7 1.392 . S
N9 C7 1.420 . S
N9 C10 1.244 . S
C10 N9 1.244 . S
H11 C14 0.929 . S
H12 C17 0.929 . S
H13 C19 0.930 . S
C14 H11 0.929 . S
C14 C15 1.398 . S
C14 C16 1.396 . S
C15 C14 1.398 . S
C15 C19 1.407 . S
C16 C14 1.396 . S
C16 C17 1.394 . S
C17 H12 0.929 . S
C17 C16 1.394 . S
C17 C18 1.382 . S
C18 C17 1.382 . S
C18 C19 1.392 . S
C18 N20 1.420 . S
C19 H13 0.930 . S
C19 C15 1.407 . S
C19 C18 1.392 . S
N20 C18 1.420 . S
N20 C21 1.244 . S
C21 N20 1.244 . S
H22 C25 0.929 . S
H23 C28 0.929 . S
H24 C30 0.930 . S
C25 H22 0.929 . S
C25 C26 1.398 . S
C25 C27 1.396 . S
C26 C25 1.398 . S
C26 C30 1.407 . S
C27 C25 1.396 . S
C27 C28 1.394 . S
C28 H23 0.929 . S
C28 C27 1.394 . S
C28 C29 1.382 . S
C29 C28 1.382 . S
C29 C30 1.392 . S
C29 N31 1.420 . S
C30 H24 0.930 . S
C30 C26 1.407 . S
C30 C29 1.392 . S
N31 C29 1.420 . S
N31 C32 1.244 . S
C32 N31 1.244 . S
H33 C36 0.929 . S
H34 C39 0.929 . S
H35 C41 0.930 . S
C36 H33 0.929 . S
C36 C37 1.398 . S
C36 C38 1.396 . S
C37 C36 1.398 . S
C37 C41 1.407 . S
C38 C36 1.396 . S
C38 C39 1.394 . S
C39 H34 0.929 . S
C39 C38 1.394 . S
C39 C40 1.382 . S
C40 C39 1.382 . S
C40 C41 1.392 . S
C40 N42 1.420 . S
C41 H35 0.930 . S
C41 C37 1.407 . S
C41 C40 1.392 . S
N42 C40 1.420 . S
N42 C43 1.244 . S
C43 N42 1.244 . S
H44 C47 0.929 . S
H45 C50 0.929 . S
H46 C52 0.930 1_545 S
C47 H44 0.929 . S
C47 C48 1.398 . S
C47 C49 1.396 . S
C48 C47 1.398 . S
C48 C52 1.407 . S
C49 C47 1.396 . S
C49 C50 1.394 . S
C50 H45 0.929 . S
C50 C49 1.394 . S
C50 C51 1.382 . S
C51 C50 1.382 . S
C51 C52 1.392 . S
C51 N53 1.420 1_565 S
C52 H46 0.930 1_565 S
C52 C48 1.407 . S
C52 C51 1.392 . S
N53 C51 1.420 1_545 S
N53 C54 1.244 1_545 S
C54 N53 1.244 1_565 S
H55 C58 0.929 . S
H56 C61 0.929 . S
H57 C63 0.930 . S
C58 H55 0.929 . S
C58 C59 1.398 . S
C58 C60 1.396 . S
C59 C58 1.398 . S
C59 C63 1.407 . S
C60 C58 1.396 . S
C60 C61 1.394 . S
C61 H56 0.929 . S
C61 C60 1.394 . S
C61 C62 1.382 . S
C62 C61 1.382 . S
C62 C63 1.392 . S
C62 N64 1.420 . S
C63 H57 0.930 . S
C63 C59 1.407 . S
C63 C62 1.392 . S
N64 C62 1.420 . S
N64 C65 1.244 . S
C65 N64 1.244 . S
H66 C69 0.929 . S
H67 C72 0.929 . S
H68 C74 0.930 . S
C69 H66 0.929 . S
C69 C70 1.398 . S
C69 C71 1.396 . S
C70 C69 1.398 . S
C70 C74 1.407 . S
C71 C69 1.396 . S
C71 C72 1.394 . S
C72 H67 0.929 . S
C72 C71 1.394 . S
C72 C73 1.382 . S
C73 C72 1.382 . S
C73 C74 1.392 . S
C73 N75 1.420 . S
C74 H68 0.930 . S
C74 C70 1.407 . S
C74 C73 1.392 . S
N75 C73 1.420 . S
N75 C76 1.244 . S
C76 N75 1.244 . S
H77 C80 0.929 . S
H78 C83 0.929 . S
H79 C85 0.930 . S
C80 H77 0.929 . S
C80 C81 1.398 . S
C80 C82 1.396 . S
C81 C80 1.398 . S
C81 C85 1.407 . S
C82 C80 1.396 . S
C82 C83 1.394 . S
C83 H78 0.929 . S
C83 C82 1.394 . S
C83 C84 1.382 . S
C84 C83 1.382 . S
C84 C85 1.392 . S
C84 N86 1.420 . S
C85 H79 0.930 . S
C85 C81 1.407 . S
C85 C84 1.392 . S
N86 C84 1.420 . S
N86 C87 1.244 . S
C87 N86 1.244 . S
O88 Zn89 1.953 . S
O88 C104 1.225 1_655 S
Zn89 O88 1.953 . S
Zn89 O90 1.949 1_655 S
Zn89 O96 1.919 . S
Zn89 O101 1.924 . S
O90 Zn89 1.949 1_455 S
O90 Zn91 1.923 1_455 S
O90 Zn92 1.950 . S
O90 Zn93 1.945 1_545 S
Zn91 O90 1.923 1_655 S
Zn91 O94 1.933 1_545 S
Zn91 O97 1.941 . S
Zn91 O98 1.965 1_655 S
Zn92 O90 1.950 . S
Zn92 O99 1.938 . S
Zn92 O100 1.906 . S
Zn92 O110 1.953 . S
Zn93 O90 1.945 1_565 S
Zn93 O95 1.932 1_455 S
Zn93 O102 1.977 . S
Zn93 O103 1.910 1_455 S
O94 Zn91 1.933 1_565 S
O94 C105 1.226 . S
O95 Zn93 1.932 1_655 S
O95 C105 1.307 . S
O96 Zn89 1.919 . S
O96 C107 1.253 . S
O97 Zn91 1.941 . S
O97 C107 1.283 . S
O98 Zn91 1.965 1_455 S
O98 C106 1.303 . S
O99 Zn92 1.938 . S
O99 C106 1.247 . S
O100 Zn92 1.906 . S
O100 C108 1.304 1_545 S
O101 Zn89 1.924 . S
O101 C109 1.311 . S
O102 Zn93 1.977 . S
O102 C108 1.272 . S
O103 Zn93 1.910 1_655 S
O103 C109 1.231 1_565 S
C104 O88 1.225 1_455 S
C104 O110 1.298 . S
C105 O94 1.226 . S
C105 O95 1.307 . S
C106 O98 1.303 . S
C106 O99 1.247 . S
C107 O96 1.253 . S
C107 O97 1.283 . S
C108 O100 1.304 1_565 S
C108 O102 1.272 . S
C109 O101 1.311 . S
C109 O103 1.231 1_545 S
O110 Zn92 1.953 . S
O110 C104 1.298 . S
O111 Zn112 1.953 . S
O111 C127 1.225 . S
Zn112 O111 1.953 . S
Zn112 O113 1.949 . S
Zn112 O119 1.919 1_554 S
Zn112 O124 1.924 . S
O113 Zn112 1.949 . S
O113 Zn114 1.923 1_545 S
O113 Zn115 1.950 . S
O113 Zn116 1.945 . S
Zn114 O113 1.923 1_565 S
Zn114 O117 1.933 . S
Zn114 O120 1.941 1_554 S
Zn114 O121 1.965 . S
Zn115 O113 1.950 . S
Zn115 O122 1.938 . S
Zn115 O123 1.906 . S
Zn115 O133 1.953 . S
Zn116 O113 1.945 . S
Zn116 O118 1.932 1_545 S
Zn116 O125 1.977 . S
Zn116 O126 1.910 . S
O117 Zn114 1.933 . S
O117 C128 1.226 . S
O118 Zn116 1.932 1_565 S
O118 C128 1.307 . S
O119 Zn112 1.919 1_556 S
O119 C130 1.253 1_545 S
O120 Zn114 1.941 1_556 S
O120 C130 1.283 . S
O121 Zn114 1.965 . S
O121 C129 1.303 1_565 S
O122 Zn115 1.938 . S
O122 C129 1.247 . S
O123 Zn115 1.906 . S
O123 C131 1.304 . S
O124 Zn112 1.924 . S
O124 C132 1.311 . S
O125 Zn116 1.977 . S
O125 C131 1.272 . S
O126 Zn116 1.910 . S
O126 C132 1.231 . S
C127 O111 1.225 . S
C127 O133 1.298 . S
C128 O117 1.226 . S
C128 O118 1.307 . S
C129 O121 1.303 1_545 S
C129 O122 1.247 . S
C130 O119 1.253 1_565 S
C130 O120 1.283 . S
C131 O123 1.304 . S
C131 O125 1.272 . S
C132 O124 1.311 . S
C132 O126 1.231 . S
O133 Zn115 1.953 . S
O133 C127 1.298 . S
O134 Zn135 1.953 . S
O134 C150 1.225 . S
Zn135 O134 1.953 . S
Zn135 O136 1.949 . S
Zn135 O142 1.919 . S
Zn135 O147 1.924 . S
O136 Zn135 1.949 . S
O136 Zn137 1.923 . S
O136 Zn138 1.950 . S
O136 Zn139 1.945 . S
Zn137 O136 1.923 . S
Zn137 O140 1.933 . S
Zn137 O143 1.941 . S
Zn137 O144 1.965 . S
Zn138 O136 1.950 . S
Zn138 O145 1.938 . S
Zn138 O146 1.906 . S
Zn138 O156 1.953 . S
Zn139 O136 1.945 . S
Zn139 O141 1.932 . S
Zn139 O148 1.977 . S
Zn139 O149 1.910 . S
O140 Zn137 1.933 . S
O140 C151 1.226 . S
O141 Zn139 1.932 . S
O141 C151 1.307 . S
O142 Zn135 1.919 . S
O142 C153 1.253 . S
O143 Zn137 1.941 . S
O143 C153 1.283 . S
O144 Zn137 1.965 . S
O144 C152 1.303 . S
O145 Zn138 1.938 . S
O145 C152 1.247 . S
O146 Zn138 1.906 . S
O146 C154 1.304 . S
O147 Zn135 1.924 . S
O147 C155 1.311 . S
O148 Zn139 1.977 . S
O148 C154 1.272 . S
O149 Zn139 1.910 . S
O149 C155 1.231 . S
C150 O134 1.225 . S
C150 O156 1.298 . S
C151 O140 1.226 . S
C151 O141 1.307 . S
C152 O144 1.303 . S
C152 O145 1.247 . S
C153 O142 1.253 . S
C153 O143 1.283 . S
C154 O146 1.304 . S
C154 O148 1.272 . S
C155 O147 1.311 . S
C155 O149 1.231 . S
O156 Zn138 1.953 . S
O156 C150 1.298 . S
O157 Zn158 1.953 . S
O157 C173 1.225 . S
Zn158 O157 1.953 . S
Zn158 O159 1.949 1_655 S
Zn158 O165 1.919 . S
Zn158 O170 1.924 . S
O159 Zn158 1.949 1_455 S
O159 Zn160 1.923 1_454 S
O159 Zn161 1.950 . S
O159 Zn162 1.945 1_554 S
Zn160 O159 1.923 1_656 S
Zn160 O163 1.933 1_655 S
Zn160 O166 1.941 . S
Zn160 O167 1.965 . S
Zn161 O159 1.950 . S
Zn161 O168 1.938 . S
Zn161 O169 1.906 . S
Zn161 O179 1.953 . S
Zn162 O159 1.945 1_556 S
Zn162 O164 1.932 . S
Zn162 O171 1.977 1_556 S
Zn162 O172 1.910 1_556 S
O163 Zn160 1.933 1_455 S
O163 C174 1.226 . S
O164 Zn162 1.932 . S
O164 C174 1.307 . S
O165 Zn158 1.919 . S
O165 C176 1.253 1_554 S
O166 Zn160 1.941 . S
O166 C176 1.283 . S
O167 Zn160 1.965 . S
O167 C175 1.303 . S
O168 Zn161 1.938 . S
O168 C175 1.232 1_454 S
O169 Zn161 1.906 . S
O169 C177 1.304 . S
O170 Zn158 1.924 . S
O170 C178 1.311 1_655 S
O171 Zn162 1.977 1_554 S
O171 C177 1.272 . S
O172 Zn162 1.910 1_554 S
O172 C178 1.231 . S
C173 O157 1.225 . S
C173 O179 1.298 1_655 S
C174 O163 1.226 . S
C174 O164 1.307 . S
C175 O167 1.303 . S
C175 O168 1.232 1_656 S
C176 O165 1.253 1_556 S
C176 O166 1.283 . S
C177 O169 1.304 . S
C177 O171 1.272 . S
C178 O170 1.311 1_455 S
C178 O172 1.231 . S
O179 Zn161 1.953 . S
O179 C173 1.298 1_455 S
H180 C186 0.930 . S
H181 C190 0.930 . S
H182 C195 0.929 . S
H183 C193 0.929 . S
H184 C188 0.929 . S
H185 C194 0.929 . S
C186 H180 0.930 . S
C186 C187 1.367 . S
C186 C194 1.378 . S
C187 C186 1.367 . S
C187 C195 1.433 . S
C188 H184 0.929 . S
C188 C190 1.378 . S
C188 C192 1.350 . S
C189 C192 1.463 . S
C189 C194 1.350 . S
C189 N197 1.427 . S
C190 H181 0.930 . S
C190 C188 1.378 . S
C190 C191 1.367 . S
C191 C190 1.367 . S
C191 C193 1.433 . S
C192 C188 1.350 . S
C192 C189 1.463 . S
C192 N196 1.427 . S
C193 H183 0.929 . S
C193 C191 1.433 . S
C193 N196 1.384 . S
C194 H185 0.929 . S
C194 C186 1.378 . S
C194 C189 1.350 . S
C195 H182 0.929 . S
C195 C187 1.433 . S
C195 N197 1.384 . S
N196 C192 1.427 . S
N196 C193 1.384 . S
N197 C189 1.427 . S
N197 C195 1.384 . S
H198 C204 0.930 . S
H199 C208 0.930 . S
H200 C213 0.929 . S
H201 C211 0.929 1_545 S
H202 C206 0.929 . S
H203 C212 0.929 . S
C204 H198 0.930 . S
C204 C205 1.367 . S
C204 C212 1.378 . S
C205 C204 1.367 . S
C205 C213 1.433 . S
C206 H202 0.929 . S
C206 C208 1.378 . S
C206 C210 1.350 . S
C207 C210 1.463 . S
C207 C212 1.350 . S
C207 N215 1.427 . S
C208 H199 0.930 . S
C208 C206 1.378 . S
C208 C209 1.367 . S
C209 C208 1.367 . S
C209 C211 1.433 . S
C210 C206 1.350 . S
C210 C207 1.463 . S
C210 N214 1.427 . S
C211 H201 0.929 1_565 S
C211 C209 1.433 . S
C211 N214 1.384 . S
C212 H203 0.929 . S
C212 C204 1.378 . S
C212 C207 1.350 . S
C213 H200 0.929 . S
C213 C205 1.433 . S
C213 N215 1.384 . S
N214 C210 1.427 . S
N214 C211 1.384 . S
N215 C207 1.427 . S
N215 C213 1.384 . S
H216 C222 0.930 . S
H217 C226 0.930 . S
H218 C231 0.929 . S
H219 C229 0.929 . S
H220 C224 0.929 . S
H221 C230 0.929 . S
C222 H216 0.930 . S
C222 C223 1.367 . S
C222 C230 1.378 . S
C223 C222 1.367 . S
C223 C231 1.433 . S
C224 H220 0.929 . S
C224 C226 1.378 . S
C224 C228 1.350 . S
C225 C228 1.463 . S
C225 C230 1.350 . S
C225 N233 1.427 . S
C226 H217 0.930 . S
C226 C224 1.378 . S
C226 C227 1.367 . S
C227 C226 1.367 . S
C227 C229 1.433 . S
C228 C224 1.350 . S
C228 C225 1.463 . S
C228 N232 1.427 . S
C229 H219 0.929 . S
C229 C227 1.433 . S
C229 N232 1.384 . S
C230 H221 0.929 . S
C230 C222 1.378 . S
C230 C225 1.350 . S
C231 H218 0.929 . S
C231 C223 1.433 . S
C231 N233 1.384 . S
N232 C228 1.427 . S
N232 C229 1.384 . S
N233 C225 1.427 . S
N233 C231 1.384 . S
H234 C240 0.930 . S
H235 C244 0.930 . S
H236 C249 0.929 . S
H237 C247 0.929 . S
H238 C242 0.929 . S
H239 C248 0.929 . S
C240 H234 0.930 . S
C240 C241 1.367 . S
C240 C248 1.378 . S
C241 C240 1.367 . S
C241 C249 1.433 . S
C242 H238 0.929 . S
C242 C244 1.378 . S
C242 C246 1.350 . S
C243 C246 1.463 . S
C243 C248 1.350 . S
C243 N251 1.427 . S
C244 H235 0.930 . S
C244 C242 1.378 . S
C244 C245 1.367 . S
C245 C244 1.367 . S
C245 C247 1.433 . S
C246 C242 1.350 . S
C246 C243 1.463 . S
C246 N250 1.427 . S
C247 H237 0.929 . S
C247 C245 1.433 . S
C247 N250 1.384 . S
C248 H239 0.929 . S
C248 C240 1.378 . S
C248 C243 1.350 . S
C249 H236 0.929 . S
C249 C241 1.433 . S
C249 N251 1.384 . S
N250 C246 1.427 . S
N250 C247 1.384 . S
N251 C243 1.427 . S
N251 C249 1.384 . S
H252 C258 0.930 . S
H253 C262 0.930 . S
H254 C267 0.929 . S
H255 C265 0.929 . S
H256 C260 0.929 . S
H257 C266 0.929 . S
C258 H252 0.930 . S
C258 C259 1.367 . S
C258 C266 1.378 . S
C259 C258 1.367 . S
C259 C267 1.433 . S
C260 H256 0.929 . S
C260 C262 1.378 . S
C260 C264 1.350 . S
C261 C264 1.463 . S
C261 C266 1.350 . S
C261 N269 1.427 . S
C262 H253 0.930 . S
C262 C260 1.378 . S
C262 C263 1.367 . S
C263 C262 1.367 . S
C263 C265 1.433 . S
C264 C260 1.350 . S
C264 C261 1.463 . S
C264 N268 1.427 . S
C265 H255 0.929 . S
C265 C263 1.433 . S
C265 N268 1.384 . S
C266 H257 0.929 . S
C266 C258 1.378 . S
C266 C261 1.350 . S
C267 H254 0.929 . S
C267 C259 1.433 . S
C267 N269 1.384 . S
N268 C264 1.427 . S
N268 C265 1.384 . S
N269 C261 1.427 . S
N269 C267 1.384 . S
H270 C276 0.930 . S
H271 C280 0.930 . S
H272 C285 0.929 . S
H273 C283 0.929 1_545 S
H274 C278 0.929 . S
H275 C284 0.929 . S
C276 H270 0.930 . S
C276 C277 1.367 . S
C276 C284 1.378 . S
C277 C276 1.367 . S
C277 C285 1.433 . S
C278 H274 0.929 . S
C278 C280 1.378 . S
C278 C282 1.350 . S
C279 C282 1.463 . S
C279 C284 1.350 . S
C279 N287 1.427 . S
C280 H271 0.930 . S
C280 C278 1.378 . S
C280 C281 1.367 . S
C281 C280 1.367 . S
C281 C283 1.433 . S
C282 C278 1.350 . S
C282 C279 1.463 . S
C282 N286 1.427 . S
C283 H273 0.929 1_565 S
C283 C281 1.433 . S
C283 N286 1.384 . S
C284 H275 0.929 . S
C284 C276 1.378 . S
C284 C279 1.350 . S
C285 H272 0.929 . S
C285 C277 1.433 . S
C285 N287 1.384 . S
N286 C282 1.427 . S
N286 C283 1.384 . S
N287 C279 1.427 . S
N287 C285 1.384 . S
H288 C294 0.930 . S
H289 C298 0.930 . S
H290 C303 0.929 . S
H291 C301 0.929 . S
H292 C296 0.929 . S
H293 C302 0.929 . S
C294 H288 0.930 . S
C294 C295 1.367 . S
C294 C302 1.378 . S
C295 C294 1.367 . S
C295 C303 1.433 . S
C296 H292 0.929 . S
C296 C298 1.378 . S
C296 C300 1.350 . S
C297 C300 1.463 . S
C297 C302 1.350 . S
C297 N305 1.427 . S
C298 H289 0.930 . S
C298 C296 1.378 . S
C298 C299 1.367 . S
C299 C298 1.367 . S
C299 C301 1.433 . S
C300 C296 1.350 . S
C300 C297 1.463 . S
C300 N304 1.427 . S
C301 H291 0.929 . S
C301 C299 1.433 . S
C301 N304 1.384 . S
C302 H293 0.929 . S
C302 C294 1.378 . S
C302 C297 1.350 . S
C303 H290 0.929 . S
C303 C295 1.433 . S
C303 N305 1.384 . S
N304 C300 1.427 . S
N304 C301 1.384 . S
N305 C297 1.427 . S
N305 C303 1.384 . S
H306 C312 0.930 . S
H307 C316 0.930 . S
H308 C321 0.929 . S
H309 C319 0.929 . S
H310 C314 0.929 . S
H311 C320 0.929 . S
C312 H306 0.930 . S
C312 C313 1.367 . S
C312 C320 1.378 . S
C313 C312 1.367 . S
C313 C321 1.433 . S
C314 H310 0.929 . S
C314 C316 1.378 . S
C314 C318 1.350 . S
C315 C318 1.463 . S
C315 C320 1.350 . S
C315 N323 1.427 . S
C316 H307 0.930 . S
C316 C314 1.378 . S
C316 C317 1.367 . S
C317 C316 1.367 . S
C317 C319 1.433 . S
C318 C314 1.350 . S
C318 C315 1.463 . S
C318 N322 1.427 . S
C319 H309 0.929 . S
C319 C317 1.433 . S
C319 N322 1.384 . S
C320 H311 0.929 . S
C320 C312 1.378 . S
C320 C315 1.350 . S
C321 H308 0.929 . S
C321 C313 1.433 . S
C321 N323 1.384 . S
N322 C318 1.427 . S
N322 C319 1.384 . S
N323 C315 1.427 . S
N323 C321 1.384 . S
H324 C330 0.930 . S
H325 C334 0.930 . S
H326 C339 0.929 . S
H327 C337 0.929 . S
H328 C332 0.929 . S
H329 C338 0.929 . S
C330 H324 0.930 . S
C330 C331 1.367 . S
C330 C338 1.378 . S
C331 C330 1.367 . S
C331 C339 1.433 . S
C332 H328 0.929 . S
C332 C334 1.378 . S
C332 C336 1.350 . S
C333 C336 1.463 . S
C333 C338 1.350 . S
C333 N341 1.427 . S
C334 H325 0.930 . S
C334 C332 1.378 . S
C334 C335 1.367 . S
C335 C334 1.367 . S
C335 C337 1.433 . S
C336 C332 1.350 . S
C336 C333 1.463 . S
C336 N340 1.427 . S
C337 H327 0.929 . S
C337 C335 1.433 . S
C337 N340 1.384 . S
C338 H329 0.929 . S
C338 C330 1.378 . S
C338 C333 1.350 . S
C339 H326 0.929 . S
C339 C331 1.433 . S
C339 N341 1.384 . S
N340 C336 1.427 . S
N340 C337 1.384 . S
N341 C333 1.427 . S
N341 C339 1.384 . S
H342 C348 0.930 . S
H343 C352 0.930 . S
H344 C357 0.929 . S
H345 C355 0.929 . S
H346 C350 0.929 . S
H347 C356 0.929 . S
C348 H342 0.930 . S
C348 C349 1.367 . S
C348 C356 1.378 . S
C349 C348 1.367 . S
C349 C357 1.433 . S
C350 H346 0.929 . S
C350 C352 1.378 . S
C350 C354 1.350 1_554 S
C351 C354 1.463 . S
C351 C356 1.350 . S
C351 N359 1.427 . S
C352 H343 0.930 . S
C352 C350 1.378 . S
C352 C353 1.367 . S
C353 C352 1.367 . S
C353 C355 1.433 1_554 S
C354 C350 1.350 1_556 S
C354 C351 1.463 . S
C354 N358 1.427 . S
C355 H345 0.929 . S
C355 C353 1.433 1_556 S
C355 N358 1.384 . S
C356 H347 0.929 . S
C356 C348 1.378 . S
C356 C351 1.350 . S
C357 H344 0.929 . S
C357 C349 1.433 . S
C357 N359 1.384 . S
N358 C354 1.427 . S
N358 C355 1.384 . S
N359 C351 1.427 . S
N359 C357 1.384 . S
H360 C366 0.930 . S
H361 C370 0.929 . S
H362 C375 0.929 . S
H363 C373 0.929 . S
H364 C368 0.929 . S
H365 C374 0.929 . S
C366 H360 0.930 . S
C366 C367 1.367 . S
C366 C374 1.378 . S
C367 C366 1.367 . S
C367 C375 1.433 . S
C368 H364 0.929 . S
C368 C370 1.378 . S
C368 C372 1.350 . S
C369 C372 1.463 . S
C369 C374 1.350 . S
C369 N377 1.427 . S
C370 H361 0.929 . S
C370 C368 1.378 . S
C370 C371 1.367 . S
C371 C370 1.367 . S
C371 C373 1.433 . S
C372 C368 1.350 . S
C372 C369 1.463 . S
C372 N376 1.427 . S
C373 H363 0.929 . S
C373 C371 1.433 . S
C373 N376 1.384 . S
C374 H365 0.929 . S
C374 C366 1.378 . S
C374 C369 1.350 . S
C375 H362 0.929 . S
C375 C367 1.433 . S
C375 N377 1.384 . S
N376 C372 1.427 . S
N376 C373 1.384 . S
N377 C369 1.427 . S
N377 C375 1.384 . S
H378 C384 0.930 . S
H379 C388 0.930 . S
H380 C393 0.929 . S
H381 C391 0.929 . S
H382 C386 0.929 . S
H383 C392 0.929 . S
C384 H378 0.930 . S
C384 C385 1.367 . S
C384 C392 1.378 . S
C385 C384 1.367 . S
C385 C393 1.433 . S
C386 H382 0.929 . S
C386 C388 1.378 . S
C386 C390 1.350 . S
C387 C390 1.463 . S
C387 C392 1.350 . S
C387 N395 1.427 . S
C388 H379 0.930 . S
C388 C386 1.378 . S
C388 C389 1.367 . S
C389 C388 1.367 . S
C389 C391 1.433 . S
C390 C386 1.350 . S
C390 C387 1.463 . S
C390 N394 1.427 . S
C391 H381 0.929 . S
C391 C389 1.433 . S
C391 N394 1.384 . S
C392 H383 0.929 . S
C392 C384 1.378 . S
C392 C387 1.350 . S
C393 H380 0.929 . S
C393 C385 1.433 . S
C393 N395 1.384 . S
N394 C390 1.427 . S
N394 C391 1.384 . S
N395 C387 1.427 . S
N395 C393 1.384 . S
H396 C402 0.930 1_455 S
H397 C406 0.930 . S
H398 C411 0.929 . S
H399 C409 0.939 . S
H400 C404 0.929 . S
H401 C410 0.929 1_455 S
C402 H396 0.930 1_655 S
C402 C403 1.367 1_545 S
C402 C410 1.378 . S
C403 C402 1.367 1_565 S
C403 C411 1.433 . S
C404 H400 0.929 . S
C404 C406 1.378 . S
C404 C408 1.358 . S
C405 C408 1.465 . S
C405 C410 1.350 1_565 S
C405 N413 1.427 . S
C406 H397 0.930 . S
C406 C404 1.378 . S
C406 C407 1.367 1_565 S
C407 C406 1.367 1_545 S
C407 C409 1.424 1_655 S
C408 C404 1.358 . S
C408 C405 1.465 . S
C408 N412 1.416 1_565 S
C409 H399 0.939 . S
C409 C407 1.424 1_455 S
C409 N412 1.382 1_455 S
C410 H401 0.929 1_655 S
C410 C402 1.378 . S
C410 C405 1.350 1_545 S
C411 H398 0.929 . S
C411 C403 1.433 . S
C411 N413 1.384 . S
N412 C408 1.416 1_545 S
N412 C409 1.382 1_655 S
N413 C405 1.427 . S
N413 C411 1.384 . S
H414 C420 0.930 . S
H415 C424 0.930 . S
H416 C429 0.929 . S
H417 C427 0.929 . S
H418 C422 0.929 . S
H419 C428 0.929 . S
C420 H414 0.930 . S
C420 C421 1.367 . S
C420 C428 1.378 . S
C421 C420 1.367 . S
C421 C429 1.433 . S
C422 H418 0.929 . S
C422 C424 1.378 . S
C422 C426 1.350 . S
C423 C426 1.463 . S
C423 C428 1.350 . S
C423 N431 1.427 . S
C424 H415 0.930 . S
C424 C422 1.378 . S
C424 C425 1.367 . S
C425 C424 1.367 . S
C425 C427 1.433 . S
C426 C422 1.350 . S
C426 C423 1.463 . S
C426 N430 1.427 . S
C427 H417 0.929 . S
C427 C425 1.433 . S
C427 N430 1.384 . S
C428 H419 0.929 . S
C428 C420 1.378 . S
C428 C423 1.350 . S
C429 H416 0.929 . S
C429 C421 1.433 . S
C429 N431 1.384 . S
N430 C426 1.427 . S
N430 C427 1.384 . S
N431 C423 1.427 . S
N431 C429 1.384 . S
H432 C438 0.930 . S
H433 C442 0.930 . S
H434 C447 0.929 . S
H435 C445 0.929 . S
H436 C440 0.929 . S
H437 C446 0.929 . S
C438 H432 0.930 . S
C438 C439 1.367 . S
C438 C446 1.378 . S
C439 C438 1.367 . S
C439 C447 1.433 . S
C440 H436 0.929 . S
C440 C442 1.378 . S
C440 C444 1.350 . S
C441 C444 1.463 . S
C441 C446 1.350 . S
C441 N449 1.427 . S
C442 H433 0.930 . S
C442 C440 1.378 . S
C442 C443 1.367 . S
C443 C442 1.367 . S
C443 C445 1.433 . S
C444 C440 1.350 . S
C444 C441 1.463 . S
C444 N448 1.427 . S
C445 H435 0.929 . S
C445 C443 1.433 . S
C445 N448 1.384 . S
C446 H437 0.929 . S
C446 C438 1.378 . S
C446 C441 1.350 . S
C447 H434 0.929 . S
C447 C439 1.433 . S
C447 N449 1.384 . S
N448 C444 1.427 . S
N448 C445 1.384 . S
N449 C441 1.427 . S
N449 C447 1.384 . S
H450 C456 0.930 . S
H451 C460 0.915 1_655 S
H452 C465 0.929 . S
H453 C463 0.929 . S
H454 C458 0.929 . S
H455 C464 0.929 . S
C456 H450 0.930 . S
C456 C457 1.367 . S
C456 C464 1.378 . S
C457 C456 1.367 . S
C457 C465 1.433 . S
C458 H454 0.929 . S
C458 C460 1.378 . S
C458 C462 1.350 . S
C459 C462 1.463 . S
C459 C464 1.350 . S
C459 N467 1.427 . S
C460 H451 0.915 1_455 S
C460 C458 1.378 . S
C460 C461 1.367 . S
C461 C460 1.367 . S
C461 C463 1.433 . S
C462 C458 1.350 . S
C462 C459 1.463 . S
C462 N466 1.427 . S
C463 H453 0.929 . S
C463 C461 1.433 . S
C463 N466 1.384 . S
C464 H455 0.929 . S
C464 C456 1.378 . S
C464 C459 1.350 . S
C465 H452 0.929 . S
C465 C457 1.433 . S
C465 N467 1.384 . S
N466 C462 1.427 . S
N466 C463 1.384 . S
N467 C459 1.427 . S
N467 C465 1.384 . S
H468 C474 0.930 . S
H469 C478 0.930 . S
H470 C483 0.934 . S
H471 C481 0.929 . S
H472 C476 0.929 . S
H473 C482 0.929 . S
C474 H468 0.930 . S
C474 C475 1.367 1_545 S
C474 C482 1.378 . S
C475 C474 1.367 1_565 S
C475 C483 1.426 1_556 S
C476 H472 0.929 . S
C476 C478 1.378 . S
C476 C480 1.372 1_565 S
C477 C480 1.454 1_556 S
C477 C482 1.350 . S
C477 N485 1.427 1_546 S
C478 H469 0.930 . S
C478 C476 1.378 . S
C478 C479 1.367 1_565 S
C479 C478 1.367 1_545 S
C479 C481 1.433 1_554 S
C480 C476 1.372 1_545 S
C480 C477 1.454 1_554 S
C480 N484 1.413 1_554 S
C481 H471 0.929 . S
C481 C479 1.433 1_556 S
C481 N484 1.384 . S
C482 H473 0.929 . S
C482 C474 1.378 . S
C482 C477 1.350 . S
C483 H470 0.934 . S
C483 C475 1.426 1_554 S
C483 N485 1.386 . S
N484 C480 1.413 1_556 S
N484 C481 1.384 . S
N485 C477 1.427 1_564 S
N485 C483 1.386 . S
H486 C492 0.930 . S
H487 C496 0.930 . S
H488 C501 0.929 . S
H489 C499 0.929 . S
H490 C494 0.929 . S
H491 C500 0.929 . S
C492 H486 0.930 . S
C492 C493 1.367 . S
C492 C500 1.378 . S
C493 C492 1.367 . S
C493 C501 1.433 . S
C494 H490 0.929 . S
C494 C496 1.378 . S
C494 C498 1.350 . S
C495 C498 1.463 . S
C495 C500 1.350 . S
C495 N503 1.427 . S
C496 H487 0.930 . S
C496 C494 1.378 . S
C496 C497 1.367 . S
C497 C496 1.367 . S
C497 C499 1.433 . S
C498 C494 1.350 . S
C498 C495 1.463 . S
C498 N502 1.427 . S
C499 H489 0.929 . S
C499 C497 1.433 . S
C499 N502 1.384 . S
C500 H491 0.929 . S
C500 C492 1.378 . S
C500 C495 1.350 . S
C501 H488 0.929 . S
C501 C493 1.433 . S
C501 N503 1.384 . S
N502 C498 1.427 . S
N502 C499 1.384 . S
N503 C495 1.427 . S
N503 C501 1.384 . S
H504 C510 0.930 . S
H505 C514 0.930 . S
H506 C519 0.929 . S
H507 C517 0.929 . S
H508 C512 0.929 . S
H509 C518 0.929 . S
C510 H504 0.930 . S
C510 C511 1.367 . S
C510 C518 1.378 . S
C511 C510 1.367 . S
C511 C519 1.433 . S
C512 H508 0.929 . S
C512 C514 1.378 . S
C512 C516 1.350 . S
C513 C516 1.463 . S
C513 C518 1.350 . S
C513 N521 1.427 . S
C514 H505 0.930 . S
C514 C512 1.378 . S
C514 C515 1.367 . S
C515 C514 1.367 . S
C515 C517 1.433 . S
C516 C512 1.350 . S
C516 C513 1.463 . S
C516 N520 1.427 . S
C517 H507 0.929 . S
C517 C515 1.433 . S
C517 N520 1.384 . S
C518 H509 0.929 . S
C518 C510 1.378 . S
C518 C513 1.350 . S
C519 H506 0.929 . S
C519 C511 1.433 . S
C519 N521 1.384 . S
N520 C516 1.427 . S
N520 C517 1.384 . S
N521 C513 1.427 . S
N521 C519 1.384 . S
H522 C528 0.930 . S
H523 C532 0.930 . S
H524 C537 0.929 . S
H525 C535 0.929 . S
H526 C530 0.929 . S
H527 C536 0.929 . S
C528 H522 0.930 . S
C528 C529 1.367 . S
C528 C536 1.378 . S
C529 C528 1.367 . S
C529 C537 1.433 . S
C530 H526 0.929 . S
C530 C532 1.378 . S
C530 C534 1.350 . S
C531 C534 1.463 . S
C531 C536 1.350 . S
C531 N539 1.427 . S
C532 H523 0.930 . S
C532 C530 1.378 . S
C532 C533 1.367 . S
C533 C532 1.367 . S
C533 C535 1.433 . S
C534 C530 1.350 . S
C534 C531 1.463 . S
C534 N538 1.427 . S
C535 H525 0.929 . S
C535 C533 1.433 . S
C535 N538 1.384 . S
C536 H527 0.929 . S
C536 C528 1.378 . S
C536 C531 1.350 . S
C537 H524 0.929 . S
C537 C529 1.433 . S
C537 N539 1.384 . S
N538 C534 1.427 . S
N538 C535 1.384 . S
N539 C531 1.427 . S
N539 C537 1.384 . S
H540 C546 0.930 . S
H541 C550 0.930 . S
H542 C555 0.929 . S
H543 C553 0.929 . S
H544 C548 0.929 . S
H545 C554 0.946 . S
C546 H540 0.930 . S
C546 C547 1.367 . S
C546 C554 1.378 . S
C547 C546 1.367 . S
C547 C555 1.433 . S
C548 H544 0.929 . S
C548 C550 1.378 . S
C548 C552 1.350 . S
C549 C552 1.463 . S
C549 C554 1.350 . S
C549 N557 1.427 . S
C550 H541 0.930 . S
C550 C548 1.378 . S
C550 C551 1.367 . S
C551 C550 1.367 . S
C551 C553 1.433 1_656 S
C552 C548 1.350 . S
C552 C549 1.463 . S
C552 N556 1.427 . S
C553 H543 0.929 . S
C553 C551 1.433 1_454 S
C553 N556 1.384 1_454 S
C554 H545 0.946 . S
C554 C546 1.378 . S
C554 C549 1.350 . S
C555 H542 0.929 . S
C555 C547 1.433 . S
C555 N557 1.384 . S
N556 C552 1.427 . S
N556 C553 1.384 1_656 S
N557 C549 1.427 . S
N557 C555 1.384 . S
H558 C564 0.930 . S
H559 C568 0.930 . S
H560 C573 0.929 . S
H561 C571 0.929 . S
H562 C566 0.929 . S
H563 C572 0.929 . S
C564 H558 0.930 . S
C564 C565 1.367 . S
C564 C572 1.378 . S
C565 C564 1.367 . S
C565 C573 1.433 . S
C566 H562 0.929 . S
C566 C568 1.378 . S
C566 C570 1.350 . S
C567 C570 1.463 . S
C567 C572 1.350 . S
C567 N575 1.427 . S
C568 H559 0.930 . S
C568 C566 1.378 . S
C568 C569 1.367 . S
C569 C568 1.367 . S
C569 C571 1.433 . S
C570 C566 1.350 . S
C570 C567 1.463 . S
C570 N574 1.427 . S
C571 H561 0.929 . S
C571 C569 1.433 . S
C571 N574 1.384 . S
C572 H563 0.929 . S
C572 C564 1.378 . S
C572 C567 1.350 . S
C573 H560 0.929 . S
C573 C565 1.433 . S
C573 N575 1.384 . S
N574 C570 1.427 . S
N574 C571 1.384 . S
N575 C567 1.427 . S
N575 C573 1.384 . S
H576 C582 0.930 . S
H577 C586 0.930 . S
H578 C591 0.929 . S
H579 C589 0.929 . S
H580 C584 0.929 . S
H581 C590 0.929 . S
C582 H576 0.930 . S
C582 C583 1.367 . S
C582 C590 1.378 . S
C583 C582 1.367 . S
C583 C591 1.433 . S
C584 H580 0.929 . S
C584 C586 1.378 . S
C584 C588 1.350 . S
C585 C588 1.463 . S
C585 C590 1.350 . S
C585 N593 1.427 . S
C586 H577 0.930 . S
C586 C584 1.378 . S
C586 C587 1.367 . S
C587 C586 1.367 . S
C587 C589 1.433 . S
C588 C584 1.350 . S
C588 C585 1.463 . S
C588 N592 1.427 . S
C589 H579 0.929 . S
C589 C587 1.433 . S
C589 N592 1.384 . S
C590 H581 0.929 . S
C590 C582 1.378 . S
C590 C585 1.350 . S
C591 H578 0.929 . S
C591 C583 1.433 . S
C591 N593 1.384 . S
N592 C588 1.427 . S
N592 C589 1.384 . S
N593 C585 1.427 . S
N593 C591 1.384 . S
H594 C600 0.930 . S
H595 C604 0.930 . S
H596 C609 0.929 . S
H597 C607 0.929 . S
H598 C602 0.929 . S
H599 C608 0.929 . S
C600 H594 0.930 . S
C600 C601 1.367 . S
C600 C608 1.378 . S
C601 C600 1.367 . S
C601 C609 1.433 . S
C602 H598 0.929 . S
C602 C604 1.378 . S
C602 C606 1.350 . S
C603 C606 1.463 . S
C603 C608 1.350 . S
C603 N611 1.427 . S
C604 H595 0.930 . S
C604 C602 1.378 . S
C604 C605 1.367 . S
C605 C604 1.367 . S
C605 C607 1.433 . S
C606 C602 1.350 . S
C606 C603 1.463 . S
C606 N610 1.427 . S
C607 H597 0.929 . S
C607 C605 1.433 . S
C607 N610 1.384 . S
C608 H599 0.929 . S
C608 C600 1.378 . S
C608 C603 1.350 . S
C609 H596 0.929 . S
C609 C601 1.433 . S
C609 N611 1.384 . S
N610 C606 1.427 . S
N610 C607 1.384 . S
N611 C603 1.427 . S
N611 C609 1.384 . S
C187 C4 1.764 . S
C191 C106 1.736 . S
C205 C16 1.917 . S
C209 C130 1.865 . S
C227 C150 1.043 . S
C223 C32 1.039 . S
C241 C43 1.293 . S
C245 C173 1.316 . S
C263 C132 2.084 . S
C259 C5 2.105 . S
C281 C108 1.435 . S
C277 C21 1.484 . S
C299 C176 1.454 . S
C295 C27 1.496 . S
C317 C153 1.411 . S
C313 C37 1.441 . S
C331 C10 1.478 . S
C335 C178 1.444 . S
C353 C127 1.697 . S
C349 C26 1.680 . S
C367 C38 1.363 . S
C371 C105 1.373 . S
C385 C15 1.593 . S
C389 C155 1.549 . S
C407 C109 1.904 . S
C403 C48 1.905 . S
C421 C59 1.669 . S
C425 C131 1.680 . S
C439 C76 1.563 . S
C443 C151 1.592 . S
C457 C87 1.392 . S
C461 C174 1.428 . S
C475 C54 1.388 . S
C479 C129 1.382 . S
C497 C107 1.888 . S
C493 C60 1.883 . S
C515 C177 1.361 . S
C511 C71 1.414 . S
C533 C154 1.334 . S
C529 C82 1.348 . S
C547 C49 2.041 . S
C551 C175 2.028 . S
C569 C128 1.252 . S
C565 C70 1.240 . S
C587 C104 1.595 . S
C583 C81 1.582 . S
C601 C65 1.735 . S
C605 C152 1.720 . S
