# Generated by pormake.
# Topology sqc, (4,8)-cn, num edge types: 1
# Building blocks:
#     Node 0, Type 0, BuildingBlock: KUFVIS_clean_linker_0, # of connection points: 4
#     Node 1, Type 0, BuildingBlock: KUFVIS_clean_linker_0, # of connection points: 4
#     Node 2, Type 0, BuildingBlock: KUFVIS_clean_linker_0, # of connection points: 4
#     Node 3, Type 0, BuildingBlock: KUFVIS_clean_linker_0, # of connection points: 4
#     Node 4, Type 0, BuildingBlock: KUFVIS_clean_linker_0, # of connection points: 4
#     Node 5, Type 0, BuildingBlock: KUFVIS_clean_linker_0, # of connection points: 4
#     Node 6, Type 0, BuildingBlock: KUFVIS_clean_linker_0, # of connection points: 4
#     Node 7, Type 0, BuildingBlock: KUFVIS_clean_linker_0, # of connection points: 4
#     Node 8, Type 1, BuildingBlock: TAGTUT_clean_sbu_3, # of connection points: 8
#     Node 9, Type 1, BuildingBlock: TAGTUT_clean_sbu_3, # of connection points: 8
#     Node 10, Type 1, BuildingBlock: TAGTUT_clean_sbu_3, # of connection points: 8
#     Node 11, Type 1, BuildingBlock: TAGTUT_clean_sbu_3, # of connection points: 8
#     Edge 12, Type (0, 1), BuildingBlock: AJUNOK_clean_linker_0, # of connection points: 2
#     Edge 13, Type (0, 1), BuildingBlock: AJUNOK_clean_linker_0, # of connection points: 2
#     Edge 14, Type (0, 1), BuildingBlock: AJUNOK_clean_linker_0, # of connection points: 2
#     Edge 15, Type (0, 1), BuildingBlock: AJUNOK_clean_linker_0, # of connection points: 2
#     Edge 16, Type (0, 1), BuildingBlock: AJUNOK_clean_linker_0, # of connection points: 2
#     Edge 17, Type (0, 1), BuildingBlock: AJUNOK_clean_linker_0, # of connection points: 2
#     Edge 18, Type (0, 1), BuildingBlock: AJUNOK_clean_linker_0, # of connection points: 2
#     Edge 19, Type (0, 1), BuildingBlock: AJUNOK_clean_linker_0, # of connection points: 2
#     Edge 20, Type (0, 1), BuildingBlock: AJUNOK_clean_linker_0, # of connection points: 2
#     Edge 21, Type (0, 1), BuildingBlock: AJUNOK_clean_linker_0, # of connection points: 2
#     Edge 22, Type (0, 1), BuildingBlock: AJUNOK_clean_linker_0, # of connection points: 2
#     Edge 23, Type (0, 1), BuildingBlock: AJUNOK_clean_linker_0, # of connection points: 2
#     Edge 24, Type (0, 1), BuildingBlock: AJUNOK_clean_linker_0, # of connection points: 2
#     Edge 25, Type (0, 1), BuildingBlock: AJUNOK_clean_linker_0, # of connection points: 2
#     Edge 26, Type (0, 1), BuildingBlock: AJUNOK_clean_linker_0, # of connection points: 2
#     Edge 27, Type (0, 1), BuildingBlock: AJUNOK_clean_linker_0, # of connection points: 2
#     Edge 28, Type (0, 1), BuildingBlock: AJUNOK_clean_linker_0, # of connection points: 2
#     Edge 29, Type (0, 1), BuildingBlock: AJUNOK_clean_linker_0, # of connection points: 2
#     Edge 30, Type (0, 1), BuildingBlock: AJUNOK_clean_linker_0, # of connection points: 2
#     Edge 31, Type (0, 1), BuildingBlock: AJUNOK_clean_linker_0, # of connection points: 2
#     Edge 32, Type (0, 1), BuildingBlock: AJUNOK_clean_linker_0, # of connection points: 2
#     Edge 33, Type (0, 1), BuildingBlock: AJUNOK_clean_linker_0, # of connection points: 2
#     Edge 34, Type (0, 1), BuildingBlock: AJUNOK_clean_linker_0, # of connection points: 2
#     Edge 35, Type (0, 1), BuildingBlock: AJUNOK_clean_linker_0, # of connection points: 2
#     Edge 36, Type (0, 1), BuildingBlock: AJUNOK_clean_linker_0, # of connection points: 2
#     Edge 37, Type (0, 1), BuildingBlock: AJUNOK_clean_linker_0, # of connection points: 2
#     Edge 38, Type (0, 1), BuildingBlock: AJUNOK_clean_linker_0, # of connection points: 2
#     Edge 39, Type (0, 1), BuildingBlock: AJUNOK_clean_linker_0, # of connection points: 2
#     Edge 40, Type (0, 1), BuildingBlock: AJUNOK_clean_linker_0, # of connection points: 2
#     Edge 41, Type (0, 1), BuildingBlock: AJUNOK_clean_linker_0, # of connection points: 2
#     Edge 42, Type (0, 1), BuildingBlock: AJUNOK_clean_linker_0, # of connection points: 2
#     Edge 43, Type (0, 1), BuildingBlock: AJUNOK_clean_linker_0, # of connection points: 2
# Relax obj value: 0.173
# Max RMSD: 0.268
# Mean RMSD: 0.220
data_MOF--net-sqc--node1-TAGTUT_clean_sbu_3--node2-KUFVIS_clean_linker_0--edge1-AJUNOK_clean_linker_0
_symmetry_space_group_name_H-M    P1
_symmetry_Int_Tables_number       1
_symmetry_cell_setting            triclinic
loop_
_symmetry_equiv_pos_as_xyz
'x, y, z'
_cell_length_a     18.503303
_cell_length_b     18.434434
_cell_length_c     55.347378
_cell_angle_alpha  90.351617
_cell_angle_beta   90.034206
_cell_angle_gamma 90.385172
loop_
_atom_site_label
_atom_site_type_symbol
_atom_site_fract_x
_atom_site_fract_y
_atom_site_fract_z
_atom_type_partial_charge
H0 H 0.79917 0.03284 0.47334 0.0
H1 H 0.99759 0.08299 0.50889 0.0
H2 H 0.99641 0.98226 0.43757 0.0
H3 H 0.10791 0.96473 0.44051 0.0
H4 H 0.30589 0.03718 0.4716 0.0
H5 H 0.1099 0.09813 0.50606 0.0
C6 C 0.85781 0.03356 0.47317 0.0
C7 C 0.89416 1.0041 0.45353 0.0
C8 C 0.89491 0.06322 0.49271 0.0
C9 C 0.97118 0.06154 0.493 0.0
C10 C 0.0113 0.03308 0.47312 0.0
C11 C 0.97045 1.00486 0.45328 0.0
C12 C 0.0942 0.033 0.47298 0.0
C13 C 0.13413 0.99588 0.45457 0.0
C14 C 0.21022 0.99897 0.45394 0.0
C15 C 0.24717 0.03598 0.472 0.0
C16 C 0.21146 0.06922 0.49103 0.0
C17 C 0.13529 0.06978 0.49129 0.0
H18 H 0.29737 0.95686 0.70281 0.0
H19 H 0.31025 0.78656 0.75487 0.0
H20 H 0.34773 0.74326 0.67875 0.0
H21 H 0.42466 0.66584 0.69231 0.0
H22 H 0.39038 0.46985 0.73111 0.0
H23 H 0.28698 0.665 0.7555 0.0
C24 C 0.3027 0.89957 0.70678 0.0
C25 C 0.32213 0.85197 0.68831 0.0
C26 C 0.29571 0.8762 0.73055 0.0
C27 C 0.31187 0.8034 0.73618 0.0
C28 C 0.33201 0.75369 0.71775 0.0
C29 C 0.33468 0.77909 0.69364 0.0
C30 C 0.35267 0.67652 0.72323 0.0
C31 C 0.39933 0.63888 0.70743 0.0
C32 C 0.41166 0.56466 0.71006 0.0
C33 C 0.38307 0.52804 0.72987 0.0
C34 C 0.33982 0.56409 0.7468 0.0
C35 C 0.32367 0.63824 0.74317 0.0
H36 H 0.93703 0.98421 -0.02173 0.0
H37 H 0.72969 0.92409 0.00497 0.0
H38 H 0.75096 0.02756 0.93531 0.0
H39 H 0.64199 1.0091 0.92984 0.0
H40 H 0.44146 0.036 0.96572 0.0
H41 H 0.62295 0.96224 0.00634 0.0
C42 C 0.87906 0.98136 -0.02455 0.0
C43 C 0.84853 1.00909 0.95437 0.0
C44 C 0.83566 0.95071 -0.0067 0.0
C45 C 0.7606 0.94928 -0.00925 0.0
C46 C 0.72734 0.9799 0.97026 0.0
C47 C 0.77302 1.00716 0.95182 0.0
C48 C 0.64637 0.98785 0.96868 0.0
C49 C 0.61303 1.0076 0.94673 0.0
C50 C 0.54028 0.02612 0.94599 0.0
C51 C 0.49779 0.02045 0.96664 0.0
C52 C 0.52662 0.99273 -0.01195 0.0
C53 C 0.60133 0.97943 -0.01075 0.0
H54 H 0.42413 0.55967 0.21449 0.0
H55 H 0.41325 0.37516 0.26017 0.0
H56 H 0.30355 0.37321 0.19111 0.0
H57 H 0.32166 0.25393 0.1917 0.0
H58 H 0.3047 0.07505 0.24025 0.0
H59 H 0.35193 0.2844 0.26903 0.0
C60 C 0.40623 0.5043 0.21757 0.0
C61 C 0.36202 0.47057 0.20051 0.0
C62 C 0.41951 0.47203 0.23982 0.0
C63 C 0.39966 0.3994 0.24319 0.0
C64 C 0.36013 0.36031 0.22541 0.0
C65 C 0.33949 0.39812 0.2042 0.0
C66 C 0.33908 0.28191 0.22963 0.0
C67 C 0.32173 0.23467 0.21012 0.0
C68 C 0.30825 0.16045 0.21414 0.0
C69 C 0.31223 0.13284 0.23745 0.0
C70 C 0.33025 0.17746 0.25692 0.0
C71 C 0.34107 0.25177 0.25319 0.0
H72 H 0.81763 0.44297 0.21355 0.0
H73 H 0.8309 0.26166 0.26137 0.0
H74 H 0.87717 0.23645 0.18498 0.0
H75 H 0.95143 0.15408 0.19677 0.0
H76 H 0.911 0.9506 0.23076 0.0
H77 H 0.80555 0.14107 0.25774 0.0
C78 C 0.82612 0.38536 0.21619 0.0
C79 C 0.85077 0.34277 0.19703 0.0
C80 C 0.81721 0.35621 0.2392 0.0
C81 C 0.8346 0.28277 0.24321 0.0
C82 C 0.85747 0.23778 0.22379 0.0
C83 C 0.8627 0.26882 0.20058 0.0
C84 C 0.87686 0.1593 0.22724 0.0
C85 C 0.92447 0.12435 0.21097 0.0
C86 C 0.93549 0.04934 0.21193 0.0
C87 C 0.90426 1.00903 0.2305 0.0
C88 C 0.85798 0.042 0.24713 0.0
C89 C 0.84411 0.11696 0.24544 0.0
H90 H 0.91104 0.06116 0.71143 0.0
H91 H 0.91714 0.8833 0.76021 0.0
H92 H 0.78873 0.86934 0.69509 0.0
H93 H 0.81024 0.7506 0.69699 0.0
H94 H 0.80334 0.58104 0.74934 0.0
H95 H 0.85575 0.79549 0.77268 0.0
C96 C 0.8965 1.00563 0.71576 0.0
C97 C 0.84917 0.96797 0.70059 0.0
C98 C 0.9164 0.97723 0.7381 0.0
C99 C 0.8987 0.90492 0.74333 0.0
C100 C 0.85467 0.86277 0.72762 0.0
C101 C 0.82782 0.8967 0.70655 0.0
C102 C 0.83521 0.78531 0.73382 0.0
C103 C 0.81409 0.73461 0.71571 0.0
C104 C 0.80153 0.66125 0.72146 0.0
C105 C 0.81059 0.63808 0.74517 0.0
C106 C 0.83286 0.6862 0.76325 0.0
C107 C 0.84212 0.75972 0.75784 0.0
H108 H 0.8107 0.49301 -0.0163 0.0
H109 H 0.61836 0.39005 0.9568 0.0
H110 H 0.60933 0.54801 0.01546 0.0
H111 H 0.50311 0.50902 0.02201 0.0
H112 H 0.30644 0.45911 -0.01447 0.0
H113 H 0.50645 0.41831 0.94941 0.0
C114 C 0.75256 0.48493 -0.01564 0.0
C115 C 0.71327 0.52232 0.00167 0.0
C116 C 0.71893 0.43799 0.96802 0.0
C117 C 0.64309 0.42874 0.96905 0.0
C118 C 0.60041 0.46858 -0.01417 0.0
C119 C 0.63761 0.51567 0.00225 0.0
C120 C 0.51828 0.46174 -0.01394 0.0
C121 C 0.47739 0.48654 0.00612 0.0
C122 C 0.40141 0.48631 0.00563 0.0
C123 C 0.36501 0.45615 -0.01391 0.0
C124 C 0.40256 0.43058 0.96603 0.0
C125 C 0.47894 0.43459 0.96576 0.0
H126 H 0.4318 0.52002 0.47699 0.0
H127 H 0.23411 0.46245 0.51216 0.0
H128 H 0.23176 0.5904 0.4467 0.0
H129 H 0.12724 0.53667 0.4413 0.0
H130 H 0.93005 0.52724 0.48143 0.0
H131 H 0.13163 0.51721 0.51917 0.0
C132 C 0.37323 0.52199 0.47773 0.0
C133 C 0.33491 0.55707 0.45957 0.0
C134 C 0.33645 0.48934 0.49682 0.0
C135 C 0.26099 0.49061 0.49759 0.0
C136 C 0.22132 0.52651 0.47953 0.0
C137 C 0.25959 0.56064 0.46065 0.0
C138 C 0.14069 0.52742 0.48017 0.0
C139 C 0.10056 0.53429 0.45867 0.0
C140 C 0.02506 0.53672 0.45915 0.0
C141 C 0.98866 0.52749 0.4811 0.0
C142 C 0.02736 0.51805 0.5026 0.0
C143 C 0.10298 0.52046 0.50217 0.0
C144 C 0.22201 0.64207 0.12809 0.0
C145 C 0.95697 0.5402 0.12594 0.0
C146 C 0.93383 0.65216 0.06137 0.0
Mg147 Mg 0.2837 0.7973 0.10728 0.0
Mg148 Mg 0.17844 0.9304 0.0885 0.0
O149 O 0.19685 0.83096 0.08953 0.0
Mg150 Mg 0.12569 0.75924 0.10093 0.0
O151 O 0.05774 0.6833 0.11205 0.0
Mg152 Mg 0.0902 0.60254 0.09032 0.0
Mg153 Mg 0.95841 0.70365 0.11223 0.0
C154 C 0.0295 0.87438 0.06853 0.0
O155 O 0.07992 0.83534 0.13022 0.0
O156 O 0.34873 0.87655 0.08222 0.0
O157 O 0.96145 0.80623 0.13187 0.0
O158 O 0.2733 0.88996 0.13654 0.0
O159 O 0.26982 0.95645 0.06667 0.0
O160 O 0.19401 0.97206 0.12365 0.0
O161 O 0.16898 0.68236 0.07114 0.0
O162 O 0.28529 0.71193 0.07861 0.0
C163 C 0.23743 0.6742 0.06743 0.0
C164 C 0.33293 0.9287 0.06784 0.0
O165 O 0.04324 0.80939 0.07513 0.0
O166 O 0.01434 0.53056 0.11327 0.0
O167 O 0.07105 0.92846 0.07332 0.0
O168 O 0.99131 0.61443 0.06408 0.0
O169 O 0.92679 0.60234 0.1283 0.0
O170 O 0.91611 0.7012 0.07645 0.0
O171 O 0.2103 0.71122 0.1271 0.0
O172 O 0.18218 0.59587 0.11681 0.0
C173 C 0.23811 0.94927 0.13948 0.0
C174 C 0.01548 0.84665 0.13781 0.0
C175 C 0.73088 0.85675 0.37951 0.0
C176 C 0.83427 0.60351 0.37974 0.0
C177 C 0.73598 0.57274 0.31023 0.0
Mg178 Mg 0.57983 0.92025 0.35941 0.0
Mg179 Mg 0.44357 0.81828 0.34217 0.0
O180 O 0.54281 0.83601 0.34014 0.0
Mg181 Mg 0.61438 0.7614 0.34998 0.0
O182 O 0.69076 0.69294 0.35966 0.0
Mg183 Mg 0.77449 0.73048 0.34055 0.0
Mg184 Mg 0.67682 0.59283 0.36135 0.0
C185 C 0.49263 0.67324 0.31682 0.0
O186 O 0.54066 0.71034 0.37852 0.0
O187 O 0.49894 0.99089 0.33785 0.0
O188 O 0.57152 0.59191 0.37862 0.0
O189 O 0.48691 0.90999 0.38851 0.0
O190 O 0.40795 0.91755 0.32592 0.0
O191 O 0.4096 0.82127 0.37857 0.0
O192 O 0.69222 0.80769 0.32097 0.0
O193 O 0.6634 0.92385 0.32948 0.0
C194 C 0.69982 0.87658 0.3176 0.0
C195 C 0.43833 0.98018 0.327 0.0
O196 O 0.55901 0.68188 0.32319 0.0
O197 O 0.84536 0.657 0.36531 0.0
O198 O 0.44203 0.7165 0.32322 0.0
O199 O 0.76808 0.63438 0.31235 0.0
O200 O 0.77258 0.57205 0.38155 0.0
O201 O 0.69397 0.5481 0.32643 0.0
O202 O 0.66279 0.84279 0.37747 0.0
O203 O 0.77865 0.8203 0.36814 0.0
C204 C 0.42978 0.87192 0.39276 0.0
C205 C 0.53023 0.64438 0.38497 0.0
C206 C 0.69742 0.1454 0.63218 0.0
C207 C 0.43259 0.0511 0.62058 0.0
C208 C 0.42755 0.17635 0.55848 0.0
Mg209 Mg 0.77197 0.29881 0.61453 0.0
Mg210 Mg 0.6759 0.43895 0.59589 0.0
O211 O 0.69149 0.33898 0.59483 0.0
Mg212 Mg 0.61463 0.2694 0.60338 0.0
O213 O 0.54144 0.19478 0.6118 0.0
Mg214 Mg 0.57597 0.11587 0.58987 0.0
Mg215 Mg 0.44272 0.21664 0.61076 0.0
C216 C 0.53263 0.39201 0.56971 0.0
O217 O 0.5641 0.34418 0.63217 0.0
O218 O 0.8454 0.37935 0.59289 0.0
O219 O 0.44506 0.31662 0.63152 0.0
O220 O 0.75836 0.38857 0.64483 0.0
O221 O 0.77504 0.46857 0.57873 0.0
O222 O 0.68085 0.47274 0.63231 0.0
O223 O 0.66234 0.19512 0.57393 0.0
O224 O 0.77823 0.21582 0.5846 0.0
C225 C 0.7307 0.18251 0.5718 0.0
C226 C 0.83635 0.43702 0.58026 0.0
O227 O 0.54134 0.32578 0.57594 0.0
O228 O 0.49236 0.04222 0.60917 0.0
O229 O 0.5742 0.44378 0.57683 0.0
O230 O 0.4843 0.13736 0.56136 0.0
O231 O 0.40456 0.11379 0.62404 0.0
O232 O 0.40726 0.22158 0.57447 0.0
O233 O 0.68998 0.21502 0.63106 0.0
O234 O 0.65958 0.10147 0.61924 0.0
C235 C 0.72291 0.44748 0.64833 0.0
C236 C 0.49861 0.35591 0.63863 0.0
C237 C 0.23353 0.35204 0.88232 0.0
C238 C 0.35489 0.11409 0.86969 0.0
C239 C 0.24102 0.09611 0.80274 0.0
Mg240 Mg 0.07909 0.41889 0.86528 0.0
Mg241 Mg 0.94518 0.32579 0.84018 0.0
O242 O 0.04349 0.33865 0.84407 0.0
Mg243 Mg 0.11773 0.26362 0.84997 0.0
O244 O 0.19966 0.19787 0.85582 0.0
Mg245 Mg 0.27778 0.24682 0.83675 0.0
Mg246 Mg 0.19527 0.09755 0.85557 0.0
C247 C 0.99838 0.18506 0.81263 0.0
O248 O 0.04885 0.19451 0.87727 0.0
O249 O 0.99811 0.49629 0.84594 0.0
O250 O 0.09622 0.08211 0.87509 0.0
O251 O 0.98733 0.39502 0.8943 0.0
O252 O 0.91738 0.42811 0.82542 0.0
O253 O 0.90207 0.3296 0.875 0.0
O254 O 0.1894 0.32494 0.82194 0.0
O255 O 0.15979 0.43662 0.83509 0.0
C256 C 0.19511 0.39471 0.8209 0.0
C257 C 0.94389 0.48977 0.83157 0.0
O258 O 0.06371 0.1917 0.82036 0.0
O259 O 0.35904 0.17203 0.85695 0.0
O260 O 0.94719 0.22764 0.81904 0.0
O261 O 0.26977 0.15939 0.80531 0.0
O262 O 0.29615 0.07808 0.87227 0.0
O263 O 0.20659 0.06465 0.81955 0.0
O264 O 0.16547 0.3369 0.88033 0.0
O265 O 0.28071 0.32515 0.86802 0.0
C266 C 0.92526 0.36289 0.89367 0.0
C267 C 0.04845 0.12658 0.88283 0.0
C268 C 0.30856 1.00748 0.42368 0.0
C269 C 0.25592 0.96425 0.43516 0.0
C270 C 0.36684 0.97664 0.41139 0.0
C271 C 0.37429 0.901 0.40945 0.0
H272 H 0.3064 0.06608 0.42522 0.0
H273 H 0.40548 0.01271 0.40286 0.0
S274 S 0.24842 0.76336 0.43478 0.0
N275 N 0.21386 0.84185 0.44337 0.0
N276 N 0.32126 0.78328 0.41879 0.0
C277 C 0.32024 0.85688 0.41989 0.0
C278 C 0.26147 0.88858 0.43298 0.0
C279 C 0.41354 0.87976 0.65694 0.0
C280 C 0.34136 0.88356 0.6647 0.0
C281 C 0.44157 0.93099 0.64081 0.0
C282 C 0.39828 0.98774 0.63217 0.0
H283 H 0.45036 0.84174 0.6652 0.0
H284 H 0.49888 0.92977 0.63684 0.0
S285 S 0.20151 1.00949 0.64239 0.0
N286 N 0.22396 0.939 0.659 0.0
N287 N 0.27663 0.03604 0.62885 0.0
C288 C 0.32406 0.9866 0.63754 0.0
C289 C 0.2955 0.93403 0.65372 0.0
C290 C 0.46827 0.99684 0.90959 0.0
C291 C 0.5066 0.04841 0.92327 0.0
C292 C 0.42388 0.01837 0.89056 0.0
C293 C 0.41648 0.09214 0.88471 0.0
H294 H 0.46955 0.94004 0.91451 0.0
H295 H 0.39183 0.97739 0.88129 0.0
S296 S 0.51081 0.24717 0.91431 0.0
N297 N 0.53919 0.17503 0.92904 0.0
N298 N 0.45534 0.21625 0.89315 0.0
C299 C 0.45869 0.14373 0.89727 0.0
C300 C 0.50376 0.12162 0.91672 0.0
C301 C 0.22942 0.11367 0.18095 0.0
C302 C 0.29357 0.10871 0.19425 0.0
C303 C 0.21035 0.05975 0.16414 0.0
C304 C 0.25499 0.99904 0.15991 0.0
H305 H 0.19307 0.15869 0.18393 0.0
H306 H 0.16035 0.06622 0.15421 0.0
S307 S 0.42932 0.96198 0.19057 0.0
N308 N 0.40177 0.03925 0.20253 0.0
N309 N 0.36655 0.93793 0.17081 0.0
C310 C 0.31918 0.99347 0.17339 0.0
C311 C 0.33843 0.04843 0.1905 0.0
C312 C 0.31248 0.0527 0.51982 0.0
C313 C 0.25818 0.09826 0.51072 0.0
C314 C 0.36927 0.07991 0.53383 0.0
C315 C 0.37324 0.15368 0.5402 0.0
H316 H 0.31249 0.99542 0.51526 0.0
H317 H 0.40925 0.04197 0.54029 0.0
S318 S 0.24117 0.29514 0.52287 0.0
N319 N 0.21053 0.22053 0.50957 0.0
N320 N 0.31471 0.2714 0.53775 0.0
C321 C 0.31737 0.19958 0.53224 0.0
C322 C 0.2603 0.17194 0.5172 0.0
C323 C 0.32429 0.94024 0.76941 0.0
C324 C 0.27894 0.93181 0.74922 0.0
C325 C 0.31468 0.99788 0.78568 0.0
C326 C 0.26 0.04946 0.78223 0.0
H327 H 0.36807 0.90268 0.77248 0.0
H328 H 0.34903 1.00102 0.80153 0.0
S329 S 0.1264 0.05194 0.73254 0.0
N330 N 0.17617 0.9797 0.72695 0.0
N331 N 0.1596 0.08863 0.75754 0.0
C332 C 0.21452 0.04219 0.76218 0.0
C333 C 0.22364 0.98319 0.74568 0.0
C334 C 0.49805 0.99136 0.03274 0.0
C335 C 0.47776 0.9754 0.00867 0.0
C336 C 0.45162 0.97567 0.05218 0.0
C337 C 0.38297 0.94531 0.04802 0.0
H338 H 0.54965 0.01695 0.0366 0.0
H339 H 0.46884 0.98856 0.07042 0.0
S340 S 0.30574 0.88732 -0.01083 0.0
N341 N 0.38623 0.92055 -0.01753 0.0
N342 N 0.29774 0.89673 0.01871 0.0
C343 C 0.36228 0.92847 0.02427 0.0
C344 C 0.40994 0.94213 0.00466 0.0
C345 C 0.4216 0.14734 0.28811 0.0
C346 C 0.34975 0.14245 0.27996 0.0
C347 C 0.44882 0.09738 0.30473 0.0
C348 C 0.40508 0.04073 0.31362 0.0
H349 H 0.45862 0.1861 0.28009 0.0
H350 H 0.50576 0.10015 0.30924 0.0
S351 S 0.20916 0.01457 0.30161 0.0
N352 N 0.23259 0.08437 0.28471 0.0
N353 N 0.28331 0.99027 0.316 0.0
C354 C 0.33132 0.03985 0.30736 0.0
C355 C 0.30372 0.09088 0.29054 0.0
C356 C 0.86275 0.06998 0.53667 0.0
C357 C 0.85128 0.09342 0.5129 0.0
C358 C 0.81833 0.09398 0.55558 0.0
C359 C 0.76019 0.14123 0.55134 0.0
H360 H 0.90633 0.03298 0.54068 0.0
H361 H 0.83116 0.07766 0.57387 0.0
S362 S 0.70888 0.22079 0.49261 0.0
N363 N 0.77877 0.16875 0.48631 0.0
N364 N 0.6944 0.21173 0.52188 0.0
C365 C 0.74716 0.16389 0.52765 0.0
C366 C 0.79309 0.14073 0.50846 0.0
C367 C 0.85402 0.94914 0.28015 0.0
C368 C 0.81736 0.99546 0.26415 0.0
C369 C 0.81577 0.90508 0.29648 0.0
C370 C 0.73995 0.90537 0.29687 0.0
H371 H 0.91256 0.94882 0.28055 0.0
H372 H 0.84547 0.87366 0.30961 0.0
S373 S 0.6189 1.01 0.2568 0.0
N374 N 0.70127 0.03377 0.24836 0.0
N375 N 0.62963 0.95123 0.27889 0.0
C376 C 0.70299 0.94853 0.28012 0.0
C377 C 0.74161 0.99358 0.26378 0.0
C378 C 0.91003 0.8589 0.01393 0.0
C379 C 0.8706 0.9235 0.01516 0.0
C380 C 0.95746 0.84011 0.0325 0.0
C381 C 0.96806 0.88663 0.05241 0.0
H382 H 0.9069 0.82473 -0.00205 0.0
H383 H 0.98974 0.79164 0.03042 0.0
S384 S 0.87223 0.05862 0.06486 0.0
N385 N 0.83997 0.03078 0.03852 0.0
N386 N 0.93104 0.99663 0.0733 0.0
C387 C 0.92593 0.94939 0.05442 0.0
C388 C 0.87661 0.96764 0.03575 0.0
C389 C 0.90893 0.0967 0.75898 0.0
C390 C 0.94204 0.02822 0.75726 0.0
C391 C 0.92843 0.14652 0.77679 0.0
C392 C 0.98086 0.12989 0.79414 0.0
H393 H 0.86622 0.11207 0.74667 0.0
H394 H 0.9018 0.19871 0.77695 0.0
S395 S 0.07868 0.95592 0.79974 0.0
N396 N 0.02865 0.94547 0.77524 0.0
N397 N 0.06124 0.03823 0.81009 0.0
C398 C 0.01296 0.06105 0.79338 0.0
C399 C 0.99416 1.01027 0.77474 0.0
C400 C 0.79133 0.92479 0.4399 0.0
C401 C 0.84975 0.97106 0.43389 0.0
C402 C 0.7467 0.89408 0.42209 0.0
C403 C 0.75945 0.90774 0.39761 0.0
H404 H 0.78122 0.91048 0.45856 0.0
H405 H 0.70538 0.85544 0.42742 0.0
S406 S 0.90065 0.02874 0.37215 0.0
N407 N 0.91369 0.03324 0.40165 0.0
N408 N 0.83157 0.97276 0.36805 0.0
C409 C 0.8158 0.95562 0.39132 0.0
C410 C 0.86076 0.98765 0.40946 0.0
C411 C 0.02679 0.96599 0.19351 0.0
C412 C 0.96552 1.00997 0.19096 0.0
C413 C 0.0459 0.91619 0.17534 0.0
C414 C 1.00274 0.90744 0.15458 0.0
H415 H 0.05813 0.96801 0.21004 0.0
H416 H 0.09196 0.88129 0.17823 0.0
S417 S 0.84114 0.01434 0.13847 0.0
N418 N 0.86576 0.0461 0.16523 0.0
N419 N 0.90027 0.95083 0.13152 0.0
C420 C 0.94368 0.95363 0.15133 0.0
C421 C 0.92539 1.0054 0.16945 0.0
C422 C 0.96274 1.00587 0.93014 0.0
C423 C 0.89644 0.03967 0.93522 0.0
C424 C 0.01072 0.03441 0.91315 0.0
C425 C 0.99427 0.09745 0.90006 0.0
H426 H 0.97806 0.95665 0.93936 0.0
H427 H 0.06165 1.00685 0.91049 0.0
S428 S 0.82368 0.2011 0.90396 0.0
N429 N 0.81559 0.13852 0.9249 0.0
N430 N 0.90335 0.18775 0.89132 0.0
C431 C 0.92689 0.12995 0.90406 0.0
C432 C 0.87855 0.10205 0.92193 0.0
C433 C 0.73709 0.02026 0.68342 0.0
C434 C 0.81207 1.01044 0.6817 0.0
C435 C 0.70144 0.06932 0.66844 0.0
C436 C 0.73944 0.1108 0.65132 0.0
H437 H 0.70591 0.99083 0.69677 0.0
H438 H 0.64317 0.07349 0.66979 0.0
S439 S 0.93569 0.10339 0.63893 0.0
N440 N 0.92323 0.04546 0.66126 0.0
N441 N 0.85525 0.13709 0.63275 0.0
C442 C 0.81424 0.10163 0.64931 0.0
C443 C 0.85079 0.0516 0.6646 0.0
C444 C 0.83463 0.37849 0.95504 0.0
C445 C 0.76521 0.40479 0.949 0.0
C446 C 0.88713 0.36516 0.93726 0.0
C447 C 0.87123 0.3757 0.91281 0.0
H448 H 0.84956 0.37137 0.9738 0.0
H449 H 0.94023 0.34688 0.94265 0.0
S450 S 0.69709 0.43894 0.88717 0.0
N451 N 0.68353 0.43807 0.91663 0.0
N452 N 0.78056 0.41027 0.88319 0.0
C453 C 0.80098 0.39803 0.90642 0.0
C454 C 0.74818 0.41271 0.92449 0.0
C455 C 0.82759 0.43086 0.16398 0.0
C456 C 0.87309 0.37903 0.17446 0.0
C457 C 0.85418 0.4801 0.14701 0.0
C458 C 0.92709 0.47893 0.13984 0.0
H459 H 0.77221 0.4362 0.17006 0.0
H460 H 0.81818 0.52153 0.14033 0.0
S461 S 0.06626 0.34831 0.15994 0.0
N462 N 0.99276 0.32526 0.17502 0.0
N463 N 0.04258 0.41701 0.14272 0.0
C464 C 0.97156 0.42337 0.14862 0.0
C465 C 0.94454 0.37349 0.16604 0.0
C466 C 0.92668 0.50296 0.43034 0.0
C467 C 0.98373 0.54973 0.43674 0.0
C468 C 0.88161 0.51857 0.4108 0.0
C469 C 0.89141 0.58199 0.39703 0.0
H470 H 0.91572 0.45482 0.4409 0.0
H471 H 0.83701 0.4818 0.40708 0.0
S472 S 0.03673 0.71982 0.40582 0.0
N473 N 0.05072 0.65972 0.42729 0.0
N474 N 0.96591 0.68969 0.3905 0.0
C475 C 0.95085 0.62737 0.40255 0.0
C476 C 0.99695 0.61114 0.42246 0.0
C477 C 0.71798 0.61208 0.68979 0.0
C478 C 0.78249 0.60622 0.70288 0.0
C479 C 0.69673 0.5577 0.6734 0.0
C480 C 0.73957 0.49561 0.66929 0.0
H481 H 0.68344 0.65871 0.69239 0.0
H482 H 0.64699 0.56544 0.66343 0.0
S483 S 0.91313 0.45463 0.69987 0.0
N484 N 0.88842 0.53348 0.71137 0.0
N485 N 0.84905 0.43138 0.68049 0.0
C486 C 0.80349 0.48851 0.68284 0.0
C487 C 0.82494 0.54391 0.69955 0.0
C488 C 0.78285 0.6323 0.01495 0.0
C489 C 0.75582 0.56243 0.02001 0.0
C490 C 0.84071 0.66214 0.02834 0.0
C491 C 0.87507 0.62156 0.04638 0.0
H492 H 0.76118 0.66261 -9e-05 0.0
H493 H 0.86004 0.71596 0.02406 0.0
S494 S 0.82114 0.43854 0.06757 0.0
N495 N 0.76451 0.45589 0.04529 0.0
N496 N 0.87411 0.51069 0.06991 0.0
C497 C 0.8468 0.5528 0.05205 0.0
C498 C 0.78704 0.52351 0.03897 0.0
C499 C 0.72973 0.44573 0.25627 0.0
C500 C 0.79448 0.40646 0.25875 0.0
C501 C 0.71187 0.5018 0.27244 0.0
C502 C 0.75879 0.52124 0.29135 0.0
H503 H 0.69307 0.43345 0.2415 0.0
H504 H 0.66117 0.53001 0.27018 0.0
S505 S 0.93462 0.4364 0.30563 0.0
N506 N 0.90546 0.39161 0.28154 0.0
N507 N 0.87184 0.49694 0.31196 0.0
C508 C 0.82345 0.4826 0.29405 0.0
C509 C 0.84129 0.4251 0.27777 0.0
C510 C 0.9317 0.54831 0.53264 0.0
C511 C 0.98806 0.50276 0.52527 0.0
C512 C 0.88638 0.52908 0.5518 0.0
C513 C 0.89512 0.46304 0.56417 0.0
H514 H 0.92099 0.59799 0.52294 0.0
H515 H 0.84195 0.56484 0.55613 0.0
S516 S 0.03941 0.32772 0.55286 0.0
N517 N 0.05411 0.39163 0.53265 0.0
N518 N 0.96882 0.35479 0.56868 0.0
C519 C 0.95445 0.41918 0.55791 0.0
C520 C 1.00085 0.43914 0.53841 0.0
C521 C 0.81092 0.60554 0.79835 0.0
C522 C 0.85634 0.65542 0.78656 0.0
C523 C 0.83905 0.55561 0.8147 0.0
C524 C 0.91334 0.55449 0.82001 0.0
H525 H 0.75449 0.60092 0.79327 0.0
H526 H 0.80321 0.51448 0.82199 0.0
S527 S 0.05301 0.68096 0.79675 0.0
N528 N 0.97753 0.7063 0.78338 0.0
N529 N 0.03025 0.61305 0.8146 0.0
C530 C 0.95793 0.6091 0.81042 0.0
C531 C 0.92935 0.65967 0.79356 0.0
C532 C 0.30268 0.50455 0.03626 0.0
C533 C 0.35923 0.53294 0.02202 0.0
C534 C 0.25754 0.5508 0.04974 0.0
C535 C 0.2667 0.6264 0.04862 0.0
H536 H 0.2942 0.44644 0.03722 0.0
H537 H 0.21784 0.52743 0.06185 0.0
S538 S 0.40137 0.72689 0.01181 0.0
N539 N 0.41818 0.64061 0.00628 0.0
N540 N 0.33271 0.72733 0.03083 0.0
C541 C 0.32057 0.6549 0.03338 0.0
C542 C 0.36713 0.60825 0.02031 0.0
C543 C 0.2306 0.52748 0.77065 0.0
C544 C 0.30512 0.52089 0.76639 0.0
C545 C 0.19551 0.48382 0.78767 0.0
C546 C 0.23312 0.43106 0.8009 0.0
H547 H 0.19876 0.56596 0.76054 0.0
H548 H 0.13819 0.49179 0.79065 0.0
S549 S 0.42914 0.39445 0.7978 0.0
N550 N 0.41617 0.45935 0.77782 0.0
N551 N 0.34887 0.37614 0.8094 0.0
C552 C 0.30734 0.42344 0.79691 0.0
C553 C 0.34362 0.46868 0.77978 0.0
C554 C 0.38425 0.49439 0.53857 0.0
C555 C 0.37802 0.45695 0.51652 0.0
C556 C 0.43285 0.47132 0.55625 0.0
C557 C 0.47528 0.40937 0.55249 0.0
H558 H 0.35393 0.54367 0.54167 0.0
H559 H 0.43859 0.50305 0.5727 0.0
S560 S 0.4747 0.29025 0.4983 0.0
N561 N 0.41529 0.35402 0.49209 0.0
N562 N 0.50551 0.30906 0.52568 0.0
C563 C 0.46675 0.36946 0.53098 0.0
C564 C 0.41838 0.39383 0.51281 0.0
C565 C 0.40718 0.58808 0.2622 0.0
C566 C 0.44041 0.5197 0.26041 0.0
C567 C 0.42422 0.63628 0.28072 0.0
C568 C 0.47401 0.61786 0.29868 0.0
H569 H 0.36703 0.60499 0.24918 0.0
H570 H 0.39867 0.68902 0.2807 0.0
S571 S 0.56522 0.44092 0.30558 0.0
N572 N 0.5207 0.43335 0.2798 0.0
N573 N 0.54836 0.52337 0.31593 0.0
C574 C 0.50455 0.54838 0.29823 0.0
C575 C 0.48844 0.49924 0.27887 0.0
C576 C 0.37007 0.44389 0.9224 0.0
C577 C 0.35902 0.40906 0.94459 0.0
C578 C 0.32388 0.43058 0.90275 0.0
C579 C 0.26444 0.38275 0.90465 0.0
H580 H 0.4144 0.48199 0.92025 0.0
H581 H 0.33635 0.45573 0.88559 0.0
S582 S 0.21353 0.27608 0.95857 0.0
N583 N 0.28522 0.32341 0.96721 0.0
N584 N 0.19812 0.29931 0.93027 0.0
C585 C 0.25206 0.34858 0.92683 0.0
C586 C 0.29957 0.36128 0.94675 0.0
C587 C 0.50329 0.47807 0.6937 0.0
C588 C 0.44246 0.52195 0.68999 0.0
C589 C 0.5243 0.42697 0.67621 0.0
C590 C 0.48359 0.41703 0.65497 0.0
H591 H 0.53302 0.48154 0.71054 0.0
H592 H 0.57004 0.39237 0.67993 0.0
S593 S 0.32409 0.52285 0.63594 0.0
N594 N 0.34557 0.55625 0.66278 0.0
N595 N 0.38397 0.45897 0.63024 0.0
C596 C 0.42495 0.46293 0.65061 0.0
C597 C 0.40461 0.5158 0.66808 0.0
C598 C 0.41719 0.64881 0.44145 0.0
C599 C 0.37449 0.58608 0.43879 0.0
C600 C 0.46441 0.67041 0.42305 0.0
C601 C 0.47153 0.62846 0.40191 0.0
H602 H 0.41567 0.67987 0.45812 0.0
H603 H 0.49844 0.71774 0.42597 0.0
S604 S 0.36722 0.46297 0.38576 0.0
N605 N 0.33778 0.48555 0.41295 0.0
N606 N 0.42856 0.52473 0.37859 0.0
C607 C 0.42689 0.56738 0.39869 0.0
C608 C 0.37775 0.54645 0.41715 0.0
C609 C 0.29975 0.58359 0.18727 0.0
C610 C 0.33231 0.51683 0.18108 0.0
C611 C 0.27091 0.62931 0.16962 0.0
C612 C 0.27346 0.60972 0.14515 0.0
H613 H 0.29435 0.59947 0.20606 0.0
H614 H 0.24197 0.67739 0.1753 0.0
S615 S 0.36013 0.44564 0.11918 0.0
N616 N 0.37107 0.43712 0.14866 0.0
N617 N 0.31655 0.52264 0.11532 0.0
C618 C 0.30947 0.54525 0.13862 0.0
C619 C 0.33855 0.49865 0.15661 0.0
loop_
_geom_bond_atom_site_label_1
_geom_bond_atom_site_label_2
_geom_bond_distance
_geom_bond_site_symmetry_2
_ccdc_geom_bond_type
H0 C6 0.930 . S
H1 C9 0.931 . S
H2 C11 0.931 . S
H3 C13 0.930 . S
H4 C15 0.930 . S
H5 C17 0.931 . S
C6 H0 0.930 . S
C6 C7 1.380 1_545 S
C6 C8 1.394 . S
C7 C6 1.380 1_565 S
C7 C11 1.382 . S
C8 C6 1.394 . S
C8 C9 1.400 . S
C9 H1 0.931 . S
C9 C8 1.400 . S
C9 C10 1.375 1_545 S
C10 C9 1.375 1_565 S
C10 C11 1.415 . S
C10 C12 1.501 1_655 S
C11 H2 0.931 . S
C11 C7 1.382 . S
C11 C10 1.415 . S
C12 C10 1.501 1_455 S
C12 C13 1.384 . S
C12 C17 1.408 1_565 S
C13 H3 0.930 . S
C13 C12 1.384 . S
C13 C14 1.389 . S
C14 C13 1.389 . S
C14 C15 1.405 . S
C15 H4 0.930 . S
C15 C14 1.405 . S
C15 C16 1.364 1_565 S
C16 C15 1.364 1_545 S
C16 C17 1.400 . S
C17 H5 0.931 . S
C17 C12 1.408 1_545 S
C17 C16 1.400 . S
H18 C24 0.930 . S
H19 C27 0.931 . S
H20 C29 0.931 . S
H21 C31 0.930 . S
H22 C33 0.930 . S
H23 C35 0.931 . S
C24 H18 0.930 . S
C24 C25 1.380 . S
C24 C26 1.394 . S
C25 C24 1.380 . S
C25 C29 1.382 . S
C26 C24 1.394 . S
C26 C27 1.400 . S
C27 H19 0.931 . S
C27 C26 1.400 . S
C27 C28 1.375 . S
C28 C27 1.375 . S
C28 C29 1.415 . S
C28 C30 1.501 . S
C29 H20 0.931 . S
C29 C25 1.382 . S
C29 C28 1.415 . S
C30 C28 1.501 . S
C30 C31 1.384 . S
C30 C35 1.408 . S
C31 H21 0.930 . S
C31 C30 1.384 . S
C31 C32 1.389 . S
C32 C31 1.389 . S
C32 C33 1.405 . S
C33 H22 0.930 . S
C33 C32 1.405 . S
C33 C34 1.364 . S
C34 C33 1.364 . S
C34 C35 1.400 . S
C35 H23 0.931 . S
C35 C30 1.408 . S
C35 C34 1.400 . S
H36 C42 0.931 . S
H37 C45 0.931 . S
H38 C47 0.931 . S
H39 C49 0.930 . S
H40 C51 0.930 . S
H41 C53 0.931 . S
C42 H36 0.931 . S
C42 C43 1.381 1_564 S
C42 C44 1.394 . S
C43 C42 1.381 1_546 S
C43 C47 1.382 . S
C44 C42 1.394 . S
C44 C45 1.400 . S
C45 H37 0.931 . S
C45 C44 1.400 . S
C45 C46 1.375 1_565 S
C46 C45 1.375 1_545 S
C46 C47 1.415 1_554 S
C46 C48 1.501 . S
C47 H38 0.931 . S
C47 C43 1.382 . S
C47 C46 1.415 1_556 S
C48 C46 1.501 . S
C48 C49 1.384 1_554 S
C48 C53 1.408 1_545 S
C49 H39 0.930 . S
C49 C48 1.384 1_556 S
C49 C50 1.389 . S
C50 C49 1.389 . S
C50 C51 1.405 1_556 S
C51 H40 0.930 . S
C51 C50 1.405 1_554 S
C51 C52 1.364 1_545 S
C52 C51 1.364 1_565 S
C52 C53 1.400 . S
C53 H41 0.931 . S
C53 C48 1.408 1_565 S
C53 C52 1.400 . S
H54 C60 0.930 . S
H55 C63 0.931 . S
H56 C65 0.931 . S
H57 C67 0.930 . S
H58 C69 0.930 . S
H59 C71 0.931 . S
C60 H54 0.930 . S
C60 C61 1.380 . S
C60 C62 1.394 . S
C61 C60 1.380 . S
C61 C65 1.382 . S
C62 C60 1.394 . S
C62 C63 1.400 . S
C63 H55 0.931 . S
C63 C62 1.400 . S
C63 C64 1.375 . S
C64 C63 1.375 . S
C64 C65 1.415 . S
C64 C66 1.501 . S
C65 H56 0.931 . S
C65 C61 1.382 . S
C65 C64 1.415 . S
C66 C64 1.501 . S
C66 C67 1.384 . S
C66 C71 1.408 . S
C67 H57 0.930 . S
C67 C66 1.384 . S
C67 C68 1.389 . S
C68 C67 1.389 . S
C68 C69 1.405 . S
C69 H58 0.930 . S
C69 C68 1.405 . S
C69 C70 1.364 . S
C70 C69 1.364 . S
C70 C71 1.400 . S
C71 H59 0.931 . S
C71 C66 1.408 . S
C71 C70 1.400 . S
H72 C78 0.930 . S
H73 C81 0.931 . S
H74 C83 0.931 . S
H75 C85 0.930 . S
H76 C87 0.930 . S
H77 C89 0.931 . S
C78 H72 0.930 . S
C78 C79 1.380 . S
C78 C80 1.394 . S
C79 C78 1.380 . S
C79 C83 1.382 . S
C80 C78 1.394 . S
C80 C81 1.400 . S
C81 H73 0.931 . S
C81 C80 1.400 . S
C81 C82 1.375 . S
C82 C81 1.375 . S
C82 C83 1.415 . S
C82 C84 1.501 . S
C83 H74 0.931 . S
C83 C79 1.382 . S
C83 C82 1.415 . S
C84 C82 1.501 . S
C84 C85 1.384 . S
C84 C89 1.408 . S
C85 H75 0.930 . S
C85 C84 1.384 . S
C85 C86 1.389 . S
C86 C85 1.389 . S
C86 C87 1.405 1_545 S
C87 H76 0.930 . S
C87 C86 1.405 1_565 S
C87 C88 1.364 1_565 S
C88 C87 1.364 1_545 S
C88 C89 1.400 . S
C89 H77 0.931 . S
C89 C84 1.408 . S
C89 C88 1.400 . S
H90 C96 0.930 . S
H91 C99 0.931 . S
H92 C101 0.931 . S
H93 C103 0.930 . S
H94 C105 0.930 . S
H95 C107 0.931 . S
C96 H90 0.930 . S
C96 C97 1.380 1_545 S
C96 C98 1.394 1_545 S
C97 C96 1.380 1_565 S
C97 C101 1.382 . S
C98 C96 1.394 1_565 S
C98 C99 1.400 . S
C99 H91 0.931 . S
C99 C98 1.400 . S
C99 C100 1.375 . S
C100 C99 1.375 . S
C100 C101 1.415 . S
C100 C102 1.501 . S
C101 H92 0.931 . S
C101 C97 1.382 . S
C101 C100 1.415 . S
C102 C100 1.501 . S
C102 C103 1.384 . S
C102 C107 1.408 . S
C103 H93 0.930 . S
C103 C102 1.384 . S
C103 C104 1.389 . S
C104 C103 1.389 . S
C104 C105 1.405 . S
C105 H94 0.930 . S
C105 C104 1.405 . S
C105 C106 1.364 . S
C106 C105 1.364 . S
C106 C107 1.400 . S
C107 H95 0.931 . S
C107 C102 1.408 . S
C107 C106 1.400 . S
H108 C114 0.932 . S
H109 C117 0.931 . S
H110 C119 0.931 . S
H111 C121 0.930 . S
H112 C123 0.930 . S
H113 C125 0.931 . S
C114 H108 0.932 . S
C114 C115 1.380 . S
C114 C116 1.394 1_554 S
C115 C114 1.380 . S
C115 C119 1.382 . S
C116 C114 1.394 1_556 S
C116 C117 1.400 . S
C117 H109 0.931 . S
C117 C116 1.400 . S
C117 C118 1.375 1_556 S
C118 C117 1.375 1_554 S
C118 C119 1.415 . S
C118 C120 1.501 . S
C119 H110 0.931 . S
C119 C115 1.382 . S
C119 C118 1.415 . S
C120 C118 1.501 . S
C120 C121 1.384 . S
C120 C125 1.408 1_554 S
C121 H111 0.930 . S
C121 C120 1.384 . S
C121 C122 1.389 . S
C122 C121 1.389 . S
C122 C123 1.405 . S
C123 H112 0.930 . S
C123 C122 1.405 . S
C123 C124 1.364 1_554 S
C124 C123 1.364 1_556 S
C124 C125 1.400 . S
C125 H113 0.931 . S
C125 C120 1.408 1_556 S
C125 C124 1.400 . S
H126 C132 0.930 . S
H127 C135 0.931 . S
H128 C137 0.931 . S
H129 C139 0.930 . S
H130 C141 0.914 1_655 S
H131 C143 0.931 . S
C132 H126 0.930 . S
C132 C133 1.380 . S
C132 C134 1.394 . S
C133 C132 1.380 . S
C133 C137 1.382 . S
C134 C132 1.394 . S
C134 C135 1.400 . S
C135 H127 0.931 . S
C135 C134 1.400 . S
C135 C136 1.375 . S
C136 C135 1.375 . S
C136 C137 1.415 . S
C136 C138 1.501 . S
C137 H128 0.931 . S
C137 C133 1.382 . S
C137 C136 1.415 . S
C138 C136 1.501 . S
C138 C139 1.384 . S
C138 C143 1.408 . S
C139 H129 0.930 . S
C139 C138 1.384 . S
C139 C140 1.389 . S
C140 C139 1.389 . S
C140 C141 1.413 . S
C141 H130 0.914 1_455 S
C141 C140 1.413 . S
C141 C142 1.372 . S
C142 C141 1.372 . S
C142 C143 1.400 . S
C143 H131 0.931 . S
C143 C138 1.408 . S
C143 C142 1.400 . S
C144 O171 1.312 . S
C144 O172 1.208 . S
C145 O166 1.331 1_655 S
C145 O169 1.244 . S
C146 O168 1.264 1_655 S
C146 O170 1.273 . S
Mg147 O149 1.936 . S
Mg147 O156 2.081 . S
Mg147 O158 2.023 . S
Mg147 O162 2.031 . S
Mg147 O171 2.291 . S
Mg148 O149 1.963 . S
Mg148 O159 1.942 . S
Mg148 O160 1.955 . S
Mg148 O167 1.986 . S
O149 Mg147 1.936 . S
O149 Mg148 1.963 . S
O149 Mg150 1.915 . S
Mg150 O149 1.915 . S
Mg150 O151 1.915 . S
Mg150 O155 2.013 . S
Mg150 O161 2.114 . S
Mg150 O165 2.013 . S
Mg150 O171 2.114 . S
O151 Mg150 1.915 . S
O151 Mg152 1.936 . S
O151 Mg153 1.963 1_455 S
Mg152 O151 1.936 . S
Mg152 O161 2.291 . S
Mg152 O166 2.081 . S
Mg152 O168 2.023 . S
Mg152 O172 2.031 . S
Mg153 O151 1.963 1_655 S
Mg153 O157 1.986 . S
Mg153 O169 1.942 . S
Mg153 O170 1.955 . S
C154 O165 1.191 . S
C154 O167 1.307 . S
O155 Mg150 2.013 . S
O155 C174 1.191 . S
O156 Mg147 2.081 . S
O156 C164 1.331 . S
O157 Mg153 1.986 . S
O157 C174 1.307 1_655 S
O158 Mg147 2.023 . S
O158 C173 1.264 . S
O159 Mg148 1.942 . S
O159 C164 1.244 . S
O160 Mg148 1.955 . S
O160 C173 1.273 . S
O161 Mg150 2.114 . S
O161 Mg152 2.291 . S
O161 C163 1.312 . S
O162 Mg147 2.031 . S
O162 C163 1.208 . S
C163 O161 1.312 . S
C163 O162 1.208 . S
C164 O156 1.331 . S
C164 O159 1.244 . S
O165 Mg150 2.013 . S
O165 C154 1.191 . S
O166 C145 1.331 1_455 S
O166 Mg152 2.081 . S
O167 Mg148 1.986 . S
O167 C154 1.307 . S
O168 C146 1.264 1_455 S
O168 Mg152 2.023 . S
O169 C145 1.244 . S
O169 Mg153 1.942 . S
O170 C146 1.273 . S
O170 Mg153 1.955 . S
O171 C144 1.312 . S
O171 Mg147 2.291 . S
O171 Mg150 2.114 . S
O172 C144 1.208 . S
O172 Mg152 2.031 . S
C173 O158 1.264 . S
C173 O160 1.273 . S
C174 O155 1.191 . S
C174 O157 1.307 1_455 S
C175 O202 1.312 . S
C175 O203 1.208 . S
C176 O197 1.331 . S
C176 O200 1.244 . S
C177 O199 1.264 . S
C177 O201 1.273 . S
Mg178 O180 1.936 . S
Mg178 O187 2.081 . S
Mg178 O189 2.023 . S
Mg178 O193 2.031 . S
Mg178 O202 2.291 . S
Mg179 O180 1.963 . S
Mg179 O190 1.942 . S
Mg179 O191 1.955 . S
Mg179 O198 1.986 . S
O180 Mg178 1.936 . S
O180 Mg179 1.963 . S
O180 Mg181 1.915 . S
Mg181 O180 1.915 . S
Mg181 O182 1.915 . S
Mg181 O186 2.013 . S
Mg181 O192 2.114 . S
Mg181 O196 2.013 . S
Mg181 O202 2.114 . S
O182 Mg181 1.915 . S
O182 Mg183 1.936 . S
O182 Mg184 1.963 . S
Mg183 O182 1.936 . S
Mg183 O192 2.291 . S
Mg183 O197 2.081 . S
Mg183 O199 2.023 . S
Mg183 O203 2.031 . S
Mg184 O182 1.963 . S
Mg184 O188 1.986 . S
Mg184 O200 1.942 . S
Mg184 O201 1.955 . S
C185 O196 1.191 . S
C185 O198 1.307 . S
O186 Mg181 2.013 . S
O186 C205 1.191 . S
O187 Mg178 2.081 . S
O187 C195 1.331 . S
O188 Mg184 1.986 . S
O188 C205 1.307 . S
O189 Mg178 2.023 . S
O189 C204 1.264 . S
O190 Mg179 1.942 . S
O190 C195 1.244 . S
O191 Mg179 1.955 . S
O191 C204 1.273 . S
O192 Mg181 2.114 . S
O192 Mg183 2.291 . S
O192 C194 1.312 . S
O193 Mg178 2.031 . S
O193 C194 1.208 . S
C194 O192 1.312 . S
C194 O193 1.208 . S
C195 O187 1.331 . S
C195 O190 1.244 . S
O196 Mg181 2.013 . S
O196 C185 1.191 . S
O197 C176 1.331 . S
O197 Mg183 2.081 . S
O198 Mg179 1.986 . S
O198 C185 1.307 . S
O199 C177 1.264 . S
O199 Mg183 2.023 . S
O200 C176 1.244 . S
O200 Mg184 1.942 . S
O201 C177 1.273 . S
O201 Mg184 1.955 . S
O202 C175 1.312 . S
O202 Mg178 2.291 . S
O202 Mg181 2.114 . S
O203 C175 1.208 . S
O203 Mg183 2.031 . S
C204 O189 1.264 . S
C204 O191 1.273 . S
C205 O186 1.191 . S
C205 O188 1.307 . S
C206 O233 1.312 . S
C206 O234 1.208 . S
C207 O228 1.331 . S
C207 O231 1.244 . S
C208 O230 1.264 . S
C208 O232 1.273 . S
Mg209 O211 1.936 . S
Mg209 O218 2.081 . S
Mg209 O220 2.023 . S
Mg209 O224 2.031 . S
Mg209 O233 2.291 . S
Mg210 O211 1.963 . S
Mg210 O221 1.942 . S
Mg210 O222 1.955 . S
Mg210 O229 1.986 . S
O211 Mg209 1.936 . S
O211 Mg210 1.963 . S
O211 Mg212 1.915 . S
Mg212 O211 1.915 . S
Mg212 O213 1.915 . S
Mg212 O217 2.013 . S
Mg212 O223 2.114 . S
Mg212 O227 2.013 . S
Mg212 O233 2.114 . S
O213 Mg212 1.915 . S
O213 Mg214 1.936 . S
O213 Mg215 1.963 . S
Mg214 O213 1.936 . S
Mg214 O223 2.291 . S
Mg214 O228 2.081 . S
Mg214 O230 2.023 . S
Mg214 O234 2.031 . S
Mg215 O213 1.963 . S
Mg215 O219 1.986 . S
Mg215 O231 1.942 . S
Mg215 O232 1.955 . S
C216 O227 1.191 . S
C216 O229 1.307 . S
O217 Mg212 2.013 . S
O217 C236 1.191 . S
O218 Mg209 2.081 . S
O218 C226 1.331 . S
O219 Mg215 1.986 . S
O219 C236 1.307 . S
O220 Mg209 2.023 . S
O220 C235 1.264 . S
O221 Mg210 1.942 . S
O221 C226 1.244 . S
O222 Mg210 1.955 . S
O222 C235 1.273 . S
O223 Mg212 2.114 . S
O223 Mg214 2.291 . S
O223 C225 1.312 . S
O224 Mg209 2.031 . S
O224 C225 1.208 . S
C225 O223 1.312 . S
C225 O224 1.208 . S
C226 O218 1.331 . S
C226 O221 1.244 . S
O227 Mg212 2.013 . S
O227 C216 1.191 . S
O228 C207 1.331 . S
O228 Mg214 2.081 . S
O229 Mg210 1.986 . S
O229 C216 1.307 . S
O230 C208 1.264 . S
O230 Mg214 2.023 . S
O231 C207 1.244 . S
O231 Mg215 1.942 . S
O232 C208 1.273 . S
O232 Mg215 1.955 . S
O233 C206 1.312 . S
O233 Mg209 2.291 . S
O233 Mg212 2.114 . S
O234 C206 1.208 . S
O234 Mg214 2.031 . S
C235 O220 1.264 . S
C235 O222 1.273 . S
C236 O217 1.191 . S
C236 O219 1.307 . S
C237 O264 1.312 . S
C237 O265 1.208 . S
C238 O259 1.331 . S
C238 O262 1.244 . S
C239 O261 1.264 . S
C239 O263 1.273 . S
Mg240 O242 1.936 . S
Mg240 O249 2.081 . S
Mg240 O251 2.023 . S
Mg240 O255 2.031 . S
Mg240 O264 2.291 . S
Mg241 O242 1.963 1_655 S
Mg241 O252 1.942 . S
Mg241 O253 1.955 . S
Mg241 O260 1.986 . S
O242 Mg240 1.936 . S
O242 Mg241 1.963 1_455 S
O242 Mg243 1.915 . S
Mg243 O242 1.915 . S
Mg243 O244 1.915 . S
Mg243 O248 2.013 . S
Mg243 O254 2.114 . S
Mg243 O258 2.013 . S
Mg243 O264 2.114 . S
O244 Mg243 1.915 . S
O244 Mg245 1.936 . S
O244 Mg246 1.963 . S
Mg245 O244 1.936 . S
Mg245 O254 2.291 . S
Mg245 O259 2.081 . S
Mg245 O261 2.023 . S
Mg245 O265 2.031 . S
Mg246 O244 1.963 . S
Mg246 O250 1.986 . S
Mg246 O262 1.942 . S
Mg246 O263 1.955 . S
C247 O258 1.191 . S
C247 O260 1.307 1_455 S
O248 Mg243 2.013 . S
O248 C267 1.191 . S
O249 Mg240 2.081 . S
O249 C257 1.331 1_455 S
O250 Mg246 1.986 . S
O250 C267 1.307 . S
O251 Mg240 2.023 . S
O251 C266 1.264 1_455 S
O252 Mg241 1.942 . S
O252 C257 1.244 . S
O253 Mg241 1.955 . S
O253 C266 1.273 . S
O254 Mg243 2.114 . S
O254 Mg245 2.291 . S
O254 C256 1.312 . S
O255 Mg240 2.031 . S
O255 C256 1.208 . S
C256 O254 1.312 . S
C256 O255 1.208 . S
C257 O249 1.331 1_655 S
C257 O252 1.244 . S
O258 Mg243 2.013 . S
O258 C247 1.191 . S
O259 C238 1.331 . S
O259 Mg245 2.081 . S
O260 Mg241 1.986 . S
O260 C247 1.307 1_655 S
O261 C239 1.264 . S
O261 Mg245 2.023 . S
O262 C238 1.244 . S
O262 Mg246 1.942 . S
O263 C239 1.273 . S
O263 Mg246 1.955 . S
O264 C237 1.312 . S
O264 Mg240 2.291 . S
O264 Mg243 2.114 . S
O265 C237 1.208 . S
O265 Mg245 2.031 . S
C266 O251 1.264 1_655 S
C266 O253 1.273 . S
C267 O248 1.191 . S
C267 O250 1.307 . S
C268 C269 1.369 . S
C268 C270 1.419 . S
C268 H272 0.930 . S
C269 C268 1.369 . S
C269 C278 1.429 . S
C270 C268 1.419 . S
C270 C271 1.363 . S
C270 H273 0.929 . S
C271 C270 1.363 . S
C271 C277 1.428 . S
H272 C268 0.930 . S
H273 C270 0.929 . S
S274 N275 1.613 . S
S274 N276 1.610 . S
N275 S274 1.613 . S
N275 C278 1.350 . S
N276 S274 1.610 . S
N276 C277 1.351 . S
C277 C271 1.428 . S
C277 N276 1.351 . S
C277 C278 1.434 . S
C278 C269 1.429 . S
C278 N275 1.350 . S
C278 C277 1.434 . S
C279 C280 1.369 . S
C279 C281 1.419 . S
C279 H283 0.930 . S
C280 C279 1.369 . S
C280 C289 1.429 . S
C281 C279 1.419 . S
C281 C282 1.363 1_565 S
C281 H284 0.929 1_565 S
C282 C281 1.363 1_545 S
C282 C288 1.428 1_545 S
H283 C279 0.930 . S
H284 C281 0.929 1_545 S
S285 N286 1.613 . S
S285 N287 1.610 . S
N286 S285 1.613 . S
N286 C289 1.350 . S
N287 S285 1.610 . S
N287 C288 1.351 . S
C288 C282 1.428 1_565 S
C288 N287 1.351 . S
C288 C289 1.434 . S
C289 C280 1.429 . S
C289 N286 1.350 . S
C289 C288 1.434 . S
C290 C291 1.369 . S
C290 C292 1.419 . S
C290 H294 0.930 1_545 S
C291 C290 1.369 . S
C291 C300 1.429 . S
C292 C290 1.419 . S
C292 C293 1.363 . S
C292 H295 0.929 . S
C293 C292 1.363 . S
C293 C299 1.428 . S
H294 C290 0.930 1_565 S
H295 C292 0.929 . S
S296 N297 1.613 . S
S296 N298 1.610 . S
N297 S296 1.613 . S
N297 C300 1.350 . S
N298 S296 1.610 . S
N298 C299 1.351 . S
C299 C293 1.428 . S
C299 N298 1.351 . S
C299 C300 1.434 . S
C300 C291 1.429 . S
C300 N297 1.350 . S
C300 C299 1.434 . S
C301 C302 1.369 . S
C301 C303 1.419 1_545 S
C301 H305 0.930 . S
C302 C301 1.369 . S
C302 C311 1.429 . S
C303 C301 1.419 1_565 S
C303 C304 1.363 . S
C303 H306 0.929 . S
C304 C303 1.363 . S
C304 C310 1.428 1_565 S
H305 C301 0.930 . S
H306 C303 0.929 . S
S307 N308 1.613 . S
S307 N309 1.610 . S
N308 S307 1.613 . S
N308 C311 1.350 . S
N309 S307 1.610 . S
N309 C310 1.351 . S
C310 C304 1.428 1_545 S
C310 N309 1.351 . S
C310 C311 1.434 . S
C311 C302 1.429 . S
C311 N308 1.350 . S
C311 C310 1.434 . S
C312 C313 1.369 . S
C312 C314 1.419 . S
C312 H316 0.930 . S
C313 C312 1.369 . S
C313 C322 1.429 . S
C314 C312 1.419 . S
C314 C315 1.363 . S
C314 H317 0.929 . S
C315 C314 1.363 . S
C315 C321 1.428 . S
H316 C312 0.930 . S
H317 C314 0.929 . S
S318 N319 1.613 . S
S318 N320 1.610 . S
N319 S318 1.613 . S
N319 C322 1.350 . S
N320 S318 1.610 . S
N320 C321 1.351 . S
C321 C315 1.428 . S
C321 N320 1.351 . S
C321 C322 1.434 . S
C322 C313 1.429 . S
C322 N319 1.350 . S
C322 C321 1.434 . S
C323 C324 1.369 . S
C323 C325 1.419 . S
C323 H327 0.930 . S
C324 C323 1.369 . S
C324 C333 1.429 . S
C325 C323 1.419 . S
C325 C326 1.363 1_565 S
C325 H328 0.929 . S
C326 C325 1.363 1_545 S
C326 C332 1.428 . S
H327 C323 0.930 . S
H328 C325 0.929 . S
S329 N330 1.613 1_545 S
S329 N331 1.610 . S
N330 S329 1.613 1_565 S
N330 C333 1.350 . S
N331 S329 1.610 . S
N331 C332 1.351 . S
C332 C326 1.428 . S
C332 N331 1.351 . S
C332 C333 1.434 1_545 S
C333 C324 1.429 . S
C333 N330 1.350 . S
C333 C332 1.434 1_565 S
C334 C335 1.369 . S
C334 C336 1.419 . S
C334 H338 0.930 . S
C335 C334 1.369 . S
C335 C344 1.429 . S
C336 C334 1.419 . S
C336 C337 1.363 . S
C336 H339 0.929 . S
C337 C336 1.363 . S
C337 C343 1.428 . S
H338 C334 0.930 . S
H339 C336 0.929 . S
S340 N341 1.613 . S
S340 N342 1.610 . S
N341 S340 1.613 . S
N341 C344 1.350 . S
N342 S340 1.610 . S
N342 C343 1.351 . S
C343 C337 1.428 . S
C343 N342 1.351 . S
C343 C344 1.434 . S
C344 C335 1.429 . S
C344 N341 1.350 . S
C344 C343 1.434 . S
C345 C346 1.369 . S
C345 C347 1.419 . S
C345 H349 0.930 . S
C346 C345 1.369 . S
C346 C355 1.429 . S
C347 C345 1.419 . S
C347 C348 1.363 1_545 S
C347 H350 0.929 . S
C348 C347 1.363 1_565 S
C348 C354 1.428 1_565 S
H349 C345 0.930 . S
H350 C347 0.929 . S
S351 N352 1.613 . S
S351 N353 1.610 1_545 S
N352 S351 1.613 . S
N352 C355 1.350 . S
N353 S351 1.610 1_565 S
N353 C354 1.351 1_565 S
C354 C348 1.428 1_545 S
C354 N353 1.351 1_545 S
C354 C355 1.434 . S
C355 C346 1.429 . S
C355 N352 1.350 . S
C355 C354 1.434 . S
C356 C357 1.369 . S
C356 C358 1.419 . S
C356 H360 0.930 . S
C357 C356 1.369 . S
C357 C366 1.429 . S
C358 C356 1.419 . S
C358 C359 1.363 . S
C358 H361 0.929 . S
C359 C358 1.363 . S
C359 C365 1.428 . S
H360 C356 0.930 . S
H361 C358 0.929 . S
S362 N363 1.613 . S
S362 N364 1.610 . S
N363 S362 1.613 . S
N363 C366 1.350 . S
N364 S362 1.610 . S
N364 C365 1.351 . S
C365 C359 1.428 . S
C365 N364 1.351 . S
C365 C366 1.434 . S
C366 C357 1.429 . S
C366 N363 1.350 . S
C366 C365 1.434 . S
C367 C368 1.369 . S
C367 C369 1.419 . S
C367 H371 0.930 . S
C368 C367 1.369 . S
C368 C377 1.429 . S
C369 C367 1.419 . S
C369 C370 1.363 . S
C369 H372 0.929 . S
C370 C369 1.363 . S
C370 C376 1.428 . S
H371 C367 0.930 . S
H372 C369 0.929 . S
S373 N374 1.613 . S
S373 N375 1.610 1_545 S
N374 S373 1.613 . S
N374 C377 1.350 1_545 S
N375 S373 1.610 1_565 S
N375 C376 1.351 . S
C376 C370 1.428 . S
C376 N375 1.351 . S
C376 C377 1.434 . S
C377 C368 1.429 . S
C377 N374 1.350 1_565 S
C377 C376 1.434 . S
C378 C379 1.369 . S
C378 C380 1.419 1_655 S
C378 H382 0.930 . S
C379 C378 1.369 . S
C379 C388 1.429 . S
C380 C378 1.419 1_455 S
C380 C381 1.363 1_455 S
C380 H383 0.929 . S
C381 C380 1.363 1_655 S
C381 C387 1.428 . S
H382 C378 0.930 . S
H383 C380 0.929 . S
S384 N385 1.613 . S
S384 N386 1.610 . S
N385 S384 1.613 . S
N385 C388 1.350 . S
N386 S384 1.610 . S
N386 C387 1.351 . S
C387 C381 1.428 . S
C387 N386 1.351 . S
C387 C388 1.434 . S
C388 C379 1.429 . S
C388 N385 1.350 . S
C388 C387 1.434 . S
C389 C390 1.369 . S
C389 C391 1.419 . S
C389 H393 0.930 . S
C390 C389 1.369 . S
C390 C399 1.429 . S
C391 C389 1.419 . S
C391 C392 1.363 . S
C391 H394 0.929 . S
C392 C391 1.363 . S
C392 C398 1.428 1_655 S
H393 C389 0.930 . S
H394 C391 0.929 . S
S395 N396 1.613 . S
S395 N397 1.610 1_565 S
N396 S395 1.613 . S
N396 C399 1.350 1_465 S
N397 S395 1.610 1_545 S
N397 C398 1.351 . S
C398 C392 1.428 1_455 S
C398 N397 1.351 . S
C398 C399 1.434 1_455 S
C399 C390 1.429 . S
C399 N396 1.350 1_645 S
C399 C398 1.434 1_655 S
C400 C401 1.369 . S
C400 C402 1.419 . S
C400 H404 0.930 . S
C401 C400 1.369 . S
C401 C410 1.429 . S
C402 C400 1.419 . S
C402 C403 1.363 . S
C402 H405 0.929 . S
C403 C402 1.363 . S
C403 C409 1.428 . S
H404 C400 0.930 . S
H405 C402 0.929 . S
S406 N407 1.613 . S
S406 N408 1.610 . S
N407 S406 1.613 . S
N407 C410 1.350 . S
N408 S406 1.610 . S
N408 C409 1.351 . S
C409 C403 1.428 . S
C409 N408 1.351 . S
C409 C410 1.434 . S
C410 C401 1.429 . S
C410 N407 1.350 . S
C410 C409 1.434 . S
C411 C412 1.369 . S
C411 C413 1.419 . S
C411 H415 0.930 . S
C412 C411 1.369 . S
C412 C421 1.429 . S
C413 C411 1.419 . S
C413 C414 1.363 . S
C413 H416 0.929 1_655 S
C414 C413 1.363 . S
C414 C420 1.428 . S
H415 C411 0.930 . S
H416 C413 0.929 1_455 S
S417 N418 1.613 . S
S417 N419 1.610 1_545 S
N418 S417 1.613 . S
N418 C421 1.350 1_545 S
N419 S417 1.610 1_565 S
N419 C420 1.351 . S
C420 C414 1.428 . S
C420 N419 1.351 . S
C420 C421 1.434 . S
C421 C412 1.429 . S
C421 N418 1.350 1_565 S
C421 C420 1.434 . S
C422 C423 1.369 . S
C422 C424 1.419 . S
C422 H426 0.930 1_545 S
C423 C422 1.369 . S
C423 C432 1.429 . S
C424 C422 1.419 . S
C424 C425 1.363 . S
C424 H427 0.929 1_655 S
C425 C424 1.363 . S
C425 C431 1.428 . S
H426 C422 0.930 1_565 S
H427 C424 0.929 1_455 S
S428 N429 1.613 . S
S428 N430 1.610 . S
N429 S428 1.613 . S
N429 C432 1.350 . S
N430 S428 1.610 . S
N430 C431 1.351 . S
C431 C425 1.428 . S
C431 N430 1.351 . S
C431 C432 1.434 . S
C432 C423 1.429 . S
C432 N429 1.350 . S
C432 C431 1.434 . S
C433 C434 1.369 . S
C433 C435 1.419 . S
C433 H437 0.930 . S
C434 C433 1.369 . S
C434 C443 1.429 . S
C435 C433 1.419 . S
C435 C436 1.363 . S
C435 H438 0.929 . S
C436 C435 1.363 . S
C436 C442 1.428 . S
H437 C433 0.930 . S
H438 C435 0.929 . S
S439 N440 1.613 . S
S439 N441 1.610 . S
N440 S439 1.613 . S
N440 C443 1.350 . S
N441 S439 1.610 . S
N441 C442 1.351 . S
C442 C436 1.428 . S
C442 N441 1.351 . S
C442 C443 1.434 . S
C443 C434 1.429 . S
C443 N440 1.350 . S
C443 C442 1.434 . S
C444 C445 1.369 . S
C444 C446 1.419 . S
C444 H448 0.930 . S
C445 C444 1.369 . S
C445 C454 1.429 . S
C446 C444 1.419 . S
C446 C447 1.363 . S
C446 H449 0.929 . S
C447 C446 1.363 . S
C447 C453 1.428 . S
H448 C444 0.930 . S
H449 C446 0.929 . S
S450 N451 1.613 . S
S450 N452 1.610 . S
N451 S450 1.613 . S
N451 C454 1.350 . S
N452 S450 1.610 . S
N452 C453 1.351 . S
C453 C447 1.428 . S
C453 N452 1.351 . S
C453 C454 1.434 . S
C454 C445 1.429 . S
C454 N451 1.350 . S
C454 C453 1.434 . S
C455 C456 1.369 . S
C455 C457 1.419 . S
C455 H459 0.930 . S
C456 C455 1.369 . S
C456 C465 1.429 . S
C457 C455 1.419 . S
C457 C458 1.363 . S
C457 H460 0.929 . S
C458 C457 1.363 . S
C458 C464 1.428 . S
H459 C455 0.930 . S
H460 C457 0.929 . S
S461 N462 1.613 . S
S461 N463 1.610 . S
N462 S461 1.613 . S
N462 C465 1.350 . S
N463 S461 1.610 . S
N463 C464 1.351 . S
C464 C458 1.428 . S
C464 N463 1.351 . S
C464 C465 1.434 . S
C465 C456 1.429 . S
C465 N462 1.350 . S
C465 C464 1.434 . S
C466 C467 1.369 . S
C466 C468 1.419 . S
C466 H470 0.930 1_655 S
C467 C466 1.369 . S
C467 C476 1.429 . S
C468 C466 1.419 . S
C468 C469 1.363 . S
C468 H471 0.929 . S
C469 C468 1.363 . S
C469 C475 1.428 . S
H470 C466 0.930 1_455 S
H471 C468 0.929 . S
S472 N473 1.613 . S
S472 N474 1.610 . S
N473 S472 1.613 . S
N473 C476 1.350 . S
N474 S472 1.610 . S
N474 C475 1.351 . S
C475 C469 1.428 . S
C475 N474 1.351 . S
C475 C476 1.434 . S
C476 C467 1.429 . S
C476 N473 1.350 . S
C476 C475 1.434 . S
C477 C478 1.369 . S
C477 C479 1.419 . S
C477 H481 0.930 . S
C478 C477 1.369 . S
C478 C487 1.429 . S
C479 C477 1.419 . S
C479 C480 1.363 . S
C479 H482 0.929 . S
C480 C479 1.363 . S
C480 C486 1.428 . S
H481 C477 0.930 . S
H482 C479 0.929 . S
S483 N484 1.613 . S
S483 N485 1.610 . S
N484 S483 1.613 . S
N484 C487 1.350 . S
N485 S483 1.610 . S
N485 C486 1.351 . S
C486 C480 1.428 . S
C486 N485 1.351 . S
C486 C487 1.434 . S
C487 C478 1.429 . S
C487 N484 1.350 . S
C487 C486 1.434 . S
C488 C489 1.369 . S
C488 C490 1.419 . S
C488 H492 0.930 . S
C489 C488 1.369 . S
C489 C498 1.429 . S
C490 C488 1.419 . S
C490 C491 1.363 . S
C490 H493 0.929 . S
C491 C490 1.363 . S
C491 C497 1.428 . S
H492 C488 0.930 . S
H493 C490 0.929 . S
S494 N495 1.613 . S
S494 N496 1.610 . S
N495 S494 1.613 . S
N495 C498 1.350 . S
N496 S494 1.610 . S
N496 C497 1.351 . S
C497 C491 1.428 . S
C497 N496 1.351 . S
C497 C498 1.434 . S
C498 C489 1.429 . S
C498 N495 1.350 . S
C498 C497 1.434 . S
C499 C500 1.369 . S
C499 C501 1.419 . S
C499 H503 0.930 . S
C500 C499 1.369 . S
C500 C509 1.429 . S
C501 C499 1.419 . S
C501 C502 1.363 . S
C501 H504 0.929 . S
C502 C501 1.363 . S
C502 C508 1.428 . S
H503 C499 0.930 . S
H504 C501 0.929 . S
S505 N506 1.613 . S
S505 N507 1.610 . S
N506 S505 1.613 . S
N506 C509 1.350 . S
N507 S505 1.610 . S
N507 C508 1.351 . S
C508 C502 1.428 . S
C508 N507 1.351 . S
C508 C509 1.434 . S
C509 C500 1.429 . S
C509 N506 1.350 . S
C509 C508 1.434 . S
C510 C511 1.369 . S
C510 C512 1.419 . S
C510 H514 0.930 1_655 S
C511 C510 1.369 . S
C511 C520 1.429 . S
C512 C510 1.419 . S
C512 C513 1.363 . S
C512 H515 0.929 . S
C513 C512 1.363 . S
C513 C519 1.428 . S
H514 C510 0.930 1_455 S
H515 C512 0.929 . S
S516 N517 1.613 . S
S516 N518 1.610 . S
N517 S516 1.613 . S
N517 C520 1.350 . S
N518 S516 1.610 . S
N518 C519 1.351 . S
C519 C513 1.428 . S
C519 N518 1.351 . S
C519 C520 1.434 . S
C520 C511 1.429 . S
C520 N517 1.350 . S
C520 C519 1.434 . S
C521 C522 1.369 . S
C521 C523 1.419 . S
C521 H525 0.930 . S
C522 C521 1.369 . S
C522 C531 1.429 . S
C523 C521 1.419 . S
C523 C524 1.363 . S
C523 H526 0.929 . S
C524 C523 1.363 . S
C524 C530 1.428 . S
H525 C521 0.930 . S
H526 C523 0.929 . S
S527 N528 1.613 . S
S527 N529 1.610 . S
N528 S527 1.613 . S
N528 C531 1.350 1_455 S
N529 S527 1.610 . S
N529 C530 1.351 1_455 S
C530 C524 1.428 . S
C530 N529 1.351 1_655 S
C530 C531 1.434 . S
C531 C522 1.429 . S
C531 N528 1.350 1_655 S
C531 C530 1.434 . S
C532 C533 1.369 . S
C532 C534 1.419 . S
C532 H536 0.930 . S
C533 C532 1.369 . S
C533 C542 1.429 . S
C534 C532 1.419 . S
C534 C535 1.363 . S
C534 H537 0.929 . S
C535 C534 1.363 . S
C535 C541 1.428 . S
H536 C532 0.930 . S
H537 C534 0.929 . S
S538 N539 1.613 . S
S538 N540 1.610 . S
N539 S538 1.613 . S
N539 C542 1.350 . S
N540 S538 1.610 . S
N540 C541 1.351 . S
C541 C535 1.428 . S
C541 N540 1.351 . S
C541 C542 1.434 . S
C542 C533 1.429 . S
C542 N539 1.350 . S
C542 C541 1.434 . S
C543 C544 1.369 . S
C543 C545 1.419 . S
C543 H547 0.930 . S
C544 C543 1.369 . S
C544 C553 1.429 . S
C545 C543 1.419 . S
C545 C546 1.363 . S
C545 H548 0.929 . S
C546 C545 1.363 . S
C546 C552 1.428 . S
H547 C543 0.930 . S
H548 C545 0.929 . S
S549 N550 1.613 . S
S549 N551 1.610 . S
N550 S549 1.613 . S
N550 C553 1.350 . S
N551 S549 1.610 . S
N551 C552 1.351 . S
C552 C546 1.428 . S
C552 N551 1.351 . S
C552 C553 1.434 . S
C553 C544 1.429 . S
C553 N550 1.350 . S
C553 C552 1.434 . S
C554 C555 1.369 . S
C554 C556 1.419 . S
C554 H558 0.930 . S
C555 C554 1.369 . S
C555 C564 1.429 . S
C556 C554 1.419 . S
C556 C557 1.363 . S
C556 H559 0.929 . S
C557 C556 1.363 . S
C557 C563 1.428 . S
H558 C554 0.930 . S
H559 C556 0.929 . S
S560 N561 1.613 . S
S560 N562 1.610 . S
N561 S560 1.613 . S
N561 C564 1.350 . S
N562 S560 1.610 . S
N562 C563 1.351 . S
C563 C557 1.428 . S
C563 N562 1.351 . S
C563 C564 1.434 . S
C564 C555 1.429 . S
C564 N561 1.350 . S
C564 C563 1.434 . S
C565 C566 1.369 . S
C565 C567 1.419 . S
C565 H569 0.930 . S
C566 C565 1.369 . S
C566 C575 1.429 . S
C567 C565 1.419 . S
C567 C568 1.363 . S
C567 H570 0.929 . S
C568 C567 1.363 . S
C568 C574 1.428 . S
H569 C565 0.930 . S
H570 C567 0.929 . S
S571 N572 1.613 . S
S571 N573 1.610 . S
N572 S571 1.613 . S
N572 C575 1.350 . S
N573 S571 1.610 . S
N573 C574 1.351 . S
C574 C568 1.428 . S
C574 N573 1.351 . S
C574 C575 1.434 . S
C575 C566 1.429 . S
C575 N572 1.350 . S
C575 C574 1.434 . S
C576 C577 1.369 . S
C576 C578 1.419 . S
C576 H580 0.930 . S
C577 C576 1.369 . S
C577 C586 1.429 . S
C578 C576 1.419 . S
C578 C579 1.363 . S
C578 H581 0.929 . S
C579 C578 1.363 . S
C579 C585 1.428 . S
H580 C576 0.930 . S
H581 C578 0.929 . S
S582 N583 1.613 . S
S582 N584 1.610 . S
N583 S582 1.613 . S
N583 C586 1.350 . S
N584 S582 1.610 . S
N584 C585 1.351 . S
C585 C579 1.428 . S
C585 N584 1.351 . S
C585 C586 1.434 . S
C586 C577 1.429 . S
C586 N583 1.350 . S
C586 C585 1.434 . S
C587 C588 1.369 . S
C587 C589 1.419 . S
C587 H591 0.930 . S
C588 C587 1.369 . S
C588 C597 1.429 . S
C589 C587 1.419 . S
C589 C590 1.363 . S
C589 H592 0.929 . S
C590 C589 1.363 . S
C590 C596 1.428 . S
H591 C587 0.930 . S
H592 C589 0.929 . S
S593 N594 1.613 . S
S593 N595 1.610 . S
N594 S593 1.613 . S
N594 C597 1.350 . S
N595 S593 1.610 . S
N595 C596 1.351 . S
C596 C590 1.428 . S
C596 N595 1.351 . S
C596 C597 1.434 . S
C597 C588 1.429 . S
C597 N594 1.350 . S
C597 C596 1.434 . S
C598 C599 1.369 . S
C598 C600 1.419 . S
C598 H602 0.930 . S
C599 C598 1.369 . S
C599 C608 1.429 . S
C600 C598 1.419 . S
C600 C601 1.363 . S
C600 H603 0.929 . S
C601 C600 1.363 . S
C601 C607 1.428 . S
H602 C598 0.930 . S
H603 C600 0.929 . S
S604 N605 1.613 . S
S604 N606 1.610 . S
N605 S604 1.613 . S
N605 C608 1.350 . S
N606 S604 1.610 . S
N606 C607 1.351 . S
C607 C601 1.428 . S
C607 N606 1.351 . S
C607 C608 1.434 . S
C608 C599 1.429 . S
C608 N605 1.350 . S
C608 C607 1.434 . S
C609 C610 1.369 . S
C609 C611 1.419 . S
C609 H613 0.930 . S
C610 C609 1.369 . S
C610 C619 1.429 . S
C611 C609 1.419 . S
C611 C612 1.363 . S
C611 H614 0.929 . S
C612 C611 1.363 . S
C612 C618 1.428 . S
H613 C609 0.930 . S
H614 C611 0.929 . S
S615 N616 1.613 . S
S615 N617 1.610 . S
N616 S615 1.613 . S
N616 C619 1.350 . S
N617 S615 1.610 . S
N617 C618 1.351 . S
C618 C612 1.428 . S
C618 N617 1.351 . S
C618 C619 1.434 . S
C619 C610 1.429 . S
C619 N616 1.350 . S
C619 C618 1.434 . S
C271 C204 1.745 . S
C269 C14 1.763 . S
C280 C25 1.670 . S
C282 C207 1.694 . S
C291 C50 1.668 . S
C293 C238 1.676 . S
C304 C173 1.729 . S
C302 C68 1.741 . S
C315 C208 1.751 . S
C313 C16 1.740 . S
C326 C239 1.730 . S
C324 C26 1.732 . S
C337 C164 1.681 . S
C335 C52 1.645 . S
C348 C195 1.694 . S
C346 C70 1.660 . S
C357 C8 1.469 . S
C359 C225 1.379 . S
C368 C88 1.452 1_565 S
C370 C194 1.357 . S
C379 C44 1.385 . S
C381 C154 1.358 1_655 S
C392 C247 1.381 1_655 S
C390 C98 1.404 1_545 S
C403 C175 1.379 . S
C401 C7 1.477 . S
C412 C86 1.412 1_565 S
C414 C174 1.385 1_655 S
C423 C43 1.388 . S
C425 C267 1.367 1_655 S
C436 C206 1.364 . S
C434 C97 1.456 1_545 S
C445 C116 1.755 . S
C447 C266 1.739 . S
C456 C79 1.666 . S
C458 C145 1.698 . S
C467 C140 1.660 1_655 S
C469 C176 1.681 . S
C478 C104 1.738 . S
C480 C235 1.733 . S
C491 C146 1.750 . S
C489 C115 1.748 . S
C500 C80 1.735 . S
C502 C177 1.725 . S
C511 C142 1.642 1_655 S
C513 C226 1.681 . S
C524 C257 1.695 . S
C522 C106 1.665 . S
C533 C122 1.477 . S
C535 C163 1.376 . S
C544 C34 1.447 . S
C546 C256 1.368 . S
C555 C134 1.381 . S
C557 C216 1.361 . S
C568 C185 1.380 . S
C566 C62 1.405 . S
C579 C237 1.389 . S
C577 C124 1.469 . S
C590 C236 1.388 . S
C588 C32 1.409 . S
C601 C205 1.364 . S
C599 C133 1.388 . S
C612 C144 1.368 . S
C610 C61 1.454 . S
