# Generated by pormake.
# Topology anh, (6,3)-cn, num edge types: 1
# Building blocks:
#     Node 0, Type 0, BuildingBlock: BETDIP_clean_sbu_0, # of connection points: 6
#     Node 1, Type 0, BuildingBlock: BETDIP_clean_sbu_0, # of connection points: 6
#     Node 2, Type 0, BuildingBlock: BETDIP_clean_sbu_0, # of connection points: 6
#     Node 3, Type 1, BuildingBlock: MIDCAF_clean_linker_0, # of connection points: 3
#     Node 4, Type 1, BuildingBlock: MIDCAF_clean_linker_0, # of connection points: 3
#     Node 5, Type 1, BuildingBlock: MIDCAF_clean_linker_0, # of connection points: 3
#     Node 6, Type 1, BuildingBlock: MIDCAF_clean_linker_0, # of connection points: 3
#     Node 7, Type 1, BuildingBlock: MIDCAF_clean_linker_0, # of connection points: 3
#     Node 8, Type 1, BuildingBlock: MIDCAF_clean_linker_0, # of connection points: 3
#     Edge 9, Type (0, 1), BuildingBlock: EZIPEK_clean_linker_0, # of connection points: 2
#     Edge 10, Type (0, 1), BuildingBlock: EZIPEK_clean_linker_0, # of connection points: 2
#     Edge 11, Type (0, 1), BuildingBlock: EZIPEK_clean_linker_0, # of connection points: 2
#     Edge 12, Type (0, 1), BuildingBlock: EZIPEK_clean_linker_0, # of connection points: 2
#     Edge 13, Type (0, 1), BuildingBlock: EZIPEK_clean_linker_0, # of connection points: 2
#     Edge 14, Type (0, 1), BuildingBlock: EZIPEK_clean_linker_0, # of connection points: 2
#     Edge 15, Type (0, 1), BuildingBlock: EZIPEK_clean_linker_0, # of connection points: 2
#     Edge 16, Type (0, 1), BuildingBlock: EZIPEK_clean_linker_0, # of connection points: 2
#     Edge 17, Type (0, 1), BuildingBlock: EZIPEK_clean_linker_0, # of connection points: 2
#     Edge 18, Type (0, 1), BuildingBlock: EZIPEK_clean_linker_0, # of connection points: 2
#     Edge 19, Type (0, 1), BuildingBlock: EZIPEK_clean_linker_0, # of connection points: 2
#     Edge 20, Type (0, 1), BuildingBlock: EZIPEK_clean_linker_0, # of connection points: 2
#     Edge 21, Type (0, 1), BuildingBlock: EZIPEK_clean_linker_0, # of connection points: 2
#     Edge 22, Type (0, 1), BuildingBlock: EZIPEK_clean_linker_0, # of connection points: 2
#     Edge 23, Type (0, 1), BuildingBlock: EZIPEK_clean_linker_0, # of connection points: 2
#     Edge 24, Type (0, 1), BuildingBlock: EZIPEK_clean_linker_0, # of connection points: 2
#     Edge 25, Type (0, 1), BuildingBlock: EZIPEK_clean_linker_0, # of connection points: 2
#     Edge 26, Type (0, 1), BuildingBlock: EZIPEK_clean_linker_0, # of connection points: 2
# Relax obj value: 0.309
# Max RMSD: 0.192
# Mean RMSD: 0.164
data_MOF--net-anh--node1-BETDIP_clean_sbu_0--node2-MIDCAF_clean_linker_0--edge1-EZIPEK_clean_linker_0
_symmetry_space_group_name_H-M    P1
_symmetry_Int_Tables_number       1
_symmetry_cell_setting            triclinic
loop_
_symmetry_equiv_pos_as_xyz
'x, y, z'
_cell_length_a     28.335834
_cell_length_b     28.299038
_cell_length_c     51.751905
_cell_angle_alpha  90.23138
_cell_angle_beta   89.715178
_cell_angle_gamma 119.76111
loop_
_atom_site_label
_atom_site_type_symbol
_atom_site_fract_x
_atom_site_fract_y
_atom_site_fract_z
_atom_type_partial_charge
Tb0 Tb 0.16274 0.62279 0.16328 0.0
Tb1 Tb 1.10575 0.50297 0.16589 0.0
C2 C 0.19543 0.72099 0.173 0.0
C3 C 0.23696 0.77882 0.17062 0.0
C4 C 0.26384 0.80742 0.19303 0.0
C5 C 0.29152 0.86414 0.19326 0.0
C6 C 0.29247 0.89299 0.17115 0.0
C7 C 0.26929 0.8649 0.14814 0.0
C8 C 0.24151 0.80802 0.14788 0.0
C9 C 0.15705 0.57603 0.11886 0.0
C10 C 0.2357 0.56388 0.16086 0.0
C11 C 1.04436 0.40295 0.15858 0.0
C12 C 0.98627 0.37259 0.15185 0.0
C13 C 0.96629 0.38928 0.13103 0.0
C14 C 0.91249 0.37838 0.13133 0.0
C15 C 0.87907 0.3516 0.15254 0.0
C16 C 0.8962 0.3271 0.1709 0.0
C17 C 0.9496 0.3372 0.17043 0.0
C18 C 0.14221 0.55262 0.21132 0.0
C19 C 1.03188 0.56034 0.1601 0.0
O20 O 0.20456 0.6895 0.18828 0.0
O21 O 0.16756 0.69582 0.15238 0.0
O22 O 1.12091 0.55971 0.1361 0.0
O23 O 0.19693 0.62354 0.12513 0.0
O24 O 0.23476 0.60994 0.16595 0.0
O25 O 0.18876 0.51786 0.15822 0.0
O26 O 1.07835 0.4355 0.14096 0.0
O27 O 1.05363 0.42624 0.1813 0.0
O28 O 1.12035 0.56565 0.19358 0.0
O29 O 0.14279 0.50933 0.20367 0.0
O30 O 1.03312 0.51412 0.16278 0.0
O31 O 1.07808 0.60759 0.16 0.0
H32 H 0.26036 0.78601 0.21088 0.0
H33 H 0.30952 0.88549 0.21113 0.0
H34 H 0.27004 0.88687 0.13091 0.0
H35 H 0.2208 0.78712 0.13036 0.0
H36 H 0.99338 0.41561 0.11609 0.0
H37 H 0.8988 0.39582 0.11663 0.0
H38 H 0.87048 0.3058 0.18727 0.0
H39 H 0.96396 0.32329 0.18647 0.0
Tb40 Tb 0.6385 1.06852 0.49001 0.0
Tb41 Tb 0.58089 0.12459 0.50226 0.0
C42 C 0.67917 1.0075 0.49191 0.0
C43 C 0.73044 1.01046 0.49951 0.0
C44 C 0.75761 1.03695 0.52233 0.0
C45 C 0.80162 1.03204 0.53103 0.0
C46 C 0.81898 1.00103 0.51688 0.0
C47 C 0.79418 0.97773 0.49326 0.0
C48 C 0.7501 0.98238 0.48465 0.0
C49 C 0.60657 0.10005 0.44855 0.0
C50 C 0.50666 0.99584 0.49442 0.0
C51 C 0.55212 0.19543 0.50248 0.0
C52 C 0.58479 0.25332 0.50925 0.0
C53 C 0.58378 0.29266 0.49317 0.0
C54 C 0.62373 0.34745 0.49554 0.0
C55 C 0.66515 0.36313 0.5139 0.0
C56 C 0.66469 0.32431 0.53075 0.0
C57 C 0.62494 0.26973 0.52839 0.0
C58 C 0.61227 0.09472 0.54446 0.0
C59 C 0.71254 0.19521 0.49161 0.0
O60 O 0.64974 1.01144 0.51051 0.0
O61 O 0.68068 1.03464 0.47126 0.0
O62 O 0.58005 1.08056 0.46905 0.0
O63 O 0.65207 0.10007 0.45058 0.0
O64 O 0.55412 0.9969 0.49325 0.0
O65 O 0.50673 1.04295 0.49624 0.0
O66 O 0.57012 0.18232 0.48204 0.0
O67 O 0.54033 0.16028 0.52118 0.0
O68 O 0.63981 0.11368 0.52387 0.0
O69 O 0.56664 0.09412 0.54156 0.0
O70 O 0.66522 0.19425 0.49413 0.0
O71 O 0.71299 0.14867 0.4922 0.0
H72 H 0.74334 1.05924 0.53401 0.0
H73 H 0.82013 1.04978 0.54942 0.0
H74 H 0.80689 0.95326 0.48229 0.0
H75 H 0.72975 0.96188 0.46697 0.0
H76 H 0.55385 0.28061 0.47794 0.0
H77 H 0.62354 0.37723 0.48253 0.0
H78 H 0.69618 0.3361 0.54517 0.0
H79 H 0.62734 0.24005 0.54066 0.0
Tb80 Tb 0.64186 0.5952 0.81732 0.0
Tb81 Tb 0.75239 0.64963 0.83544 0.0
C82 C 0.5413 0.54669 0.80941 0.0
C83 C 0.48814 0.5356 0.81909 0.0
C84 C 0.44587 0.51992 0.80121 0.0
C85 C 0.39184 0.4917 0.80949 0.0
C86 C 0.37998 0.47869 0.83569 0.0
C87 C 0.4221 0.49894 0.85385 0.0
C88 C 0.47608 0.52761 0.84561 0.0
C89 C 0.71575 0.61778 0.78045 0.0
C90 C 0.6968 0.72357 0.82525 0.0
C91 C 0.85223 0.69888 0.84352 0.0
C92 C 0.88299 0.67504 0.85504 0.0
C93 C 0.92559 0.67527 0.84092 0.0
C94 C 0.94257 0.63778 0.8467 0.0
C95 C 0.91656 0.59956 0.86645 0.0
C96 C 0.87763 0.6026 0.88201 0.0
C97 C 0.86114 0.64026 0.87646 0.0
C98 C 0.68071 0.59717 0.87324 0.0
C99 C 0.69681 0.52221 0.82454 0.0
O100 O 0.5662 0.52759 0.82351 0.0
O101 O 0.57448 0.59425 0.79933 0.0
O102 O 0.71853 0.64689 0.79918 0.0
O103 O 0.66735 0.57682 0.78 0.0
O104 O 0.65065 0.67725 0.82129 0.0
O105 O 0.74215 0.72241 0.83074 0.0
O106 O 0.83095 0.67752 0.82108 0.0
O107 O 0.81764 0.70373 0.85872 0.0
O108 O 0.67561 0.62454 0.85523 0.0
O109 O 0.72656 0.59883 0.86981 0.0
O110 O 0.74341 0.56921 0.82427 0.0
O111 O 0.65091 0.52356 0.82658 0.0
H112 H 0.45451 0.52542 0.78067 0.0
H113 H 0.3595 0.47647 0.79534 0.0
H114 H 0.41326 0.48948 0.87417 0.0
H115 H 0.50817 0.53936 0.85971 0.0
H116 H 0.94254 0.70126 0.82417 0.0
H117 H 0.97308 0.63602 0.83469 0.0
H118 H 0.85772 0.57367 0.89751 0.0
H119 H 0.82823 0.63898 0.88773 0.0
C120 C 0.36846 0.10638 0.23276 0.0
C121 C 0.37465 0.11033 0.20585 0.0
C122 C 0.40609 0.16142 0.19436 0.0
C123 C 0.43674 0.20711 0.20985 0.0
H124 H 0.58164 0.35322 0.20335 0.0
H125 H 0.65645 0.37617 0.17284 0.0
H126 H 0.7514 0.36237 0.23411 0.0
H127 H 0.67852 0.34152 0.26474 0.0
H128 H 0.62521 0.31 0.32175 0.0
H129 H 0.6428 0.27079 0.36021 0.0
H130 H 0.48411 0.1287 0.35336 0.0
H131 H 0.46551 0.16737 0.31542 0.0
H132 H 0.39655 0.14652 0.26901 0.0
H133 H 0.34358 1.06714 0.24184 0.0
H134 H 0.4106 0.16504 0.17355 0.0
H135 H 0.46438 0.24517 0.20045 0.0
N136 N 0.52594 0.28336 0.24007 0.0
N137 N 0.57894 0.30111 0.27723 0.0
N138 N 0.48786 0.23196 0.27743 0.0
C139 C 0.57427 0.31279 0.25225 0.0
C140 C 0.53575 0.26116 0.29009 0.0
C141 C 0.4824 0.24297 0.25245 0.0
C142 C 0.6236 0.34419 0.23635 0.0
C143 C 0.61921 0.35695 0.21049 0.0
C144 C 0.66161 0.36967 0.193 0.0
C145 C 0.70818 0.36863 0.20114 0.0
C146 C 0.71503 0.36199 0.22743 0.0
C147 C 0.67335 0.35047 0.24497 0.0
C148 C 0.54398 0.24181 0.31536 0.0
C149 C 0.59373 0.27071 0.3286 0.0
C150 C 0.60408 0.24834 0.35045 0.0
C151 C 0.56512 0.19652 0.35917 0.0
C152 C 0.51487 0.16848 0.34662 0.0
C153 C 0.50423 0.19096 0.32503 0.0
C154 C 0.43634 0.2019 0.23695 0.0
C155 C 0.39882 0.15194 0.24824 0.0
C156 C 0.87707 0.56297 0.55829 0.0
C157 C 0.8535 0.56838 0.53558 0.0
C158 C 0.87233 0.62011 0.52484 0.0
C159 C 0.91042 0.66647 0.53819 0.0
H160 H 0.9948 0.83443 0.53816 0.0
H161 H 0.9698 0.89893 0.52081 0.0
H162 H 0.95579 0.9481 0.59804 0.0
H163 H 0.98082 0.88395 0.61577 0.0
H164 H 0.96722 0.80638 0.66424 0.0
H165 H 0.91496 0.78123 0.70475 0.0
H166 H 0.83467 0.61238 0.68199 0.0
H167 H 0.88752 0.63628 0.64234 0.0
H168 H 0.92932 0.6038 0.59017 0.0
H169 H 0.86304 0.52317 0.56671 0.0
H170 H 0.85443 0.62477 0.50728 0.0
H171 H 0.92083 0.70607 0.53056 0.0
N172 N 0.97108 0.75943 0.5719 0.0
N173 N 0.97172 0.78941 0.61429 0.0
N174 N 0.94469 0.6981 0.60628 0.0
C175 C 0.98122 0.80061 0.58862 0.0
C176 C 0.95372 0.73825 0.62331 0.0
C177 C 0.95338 0.70814 0.58061 0.0
C178 C 0.98766 0.85238 0.5784 0.0
C179 C 0.98866 0.86045 0.55152 0.0
C180 C 0.97474 0.89762 0.54149 0.0
C181 C 0.96014 0.92733 0.55821 0.0
C182 C 0.96689 0.92527 0.58491 0.0
C183 C 0.98092 0.88821 0.59498 0.0
C184 C 0.9313 0.72349 0.64986 0.0
C185 C 0.9394 0.76378 0.66816 0.0
C186 C 0.90946 0.74958 0.69123 0.0
C187 C 0.87024 0.69511 0.69603 0.0
C188 C 0.86437 0.65469 0.67851 0.0
C189 C 0.89495 0.66859 0.65583 0.0
C190 C 0.92948 0.6614 0.56254 0.0
C191 C 0.91491 0.60913 0.57165 0.0
C192 C 0.90028 0.38488 0.91686 0.0
C193 C 0.92277 0.40582 0.89249 0.0
C194 C 0.95007 0.38362 0.87892 0.0
C195 C 0.95926 0.34462 0.89055 0.0
H196 H 1.03964 0.26475 0.87896 0.0
H197 H 1.11945 0.30121 0.8508 0.0
H198 H 0.22338 0.34341 0.91741 0.0
H199 H 0.14442 0.3067 0.9458 0.0
H200 H 0.12753 0.40263 0.97448 0.0
H201 H 0.16368 0.47024 0.00905 0.0
H202 H 1.0118 0.38282 0.0505 0.0
H203 H 0.97393 0.31681 0.0147 0.0
H204 H 0.89758 0.33537 0.94863 0.0
H205 H 0.87893 0.4016 0.92753 0.0
H206 H 0.96767 0.39935 0.86009 0.0
H207 H 0.9842 0.3316 0.88024 0.0
N208 N 1.00221 0.28918 0.91905 0.0
N209 N 1.05506 0.30344 0.95584 0.0
N210 N 0.98424 0.32347 0.95675 0.0
C211 C 1.04343 0.28661 0.93092 0.0
C212 C 1.02508 0.32089 0.96902 0.0
C213 C 0.97241 0.30758 0.93169 0.0
C214 C 1.08576 0.28492 0.91471 0.0
C215 C 1.07922 0.27963 0.88768 0.0
C216 C 1.12471 0.30051 0.87149 0.0
C217 C 0.17687 0.32639 0.88225 0.0
C218 C 0.18316 0.32432 0.90895 0.0
C219 C 0.1378 0.30309 0.92512 0.0
C220 C 1.0483 0.35419 0.99228 0.0
C221 C 1.10222 0.3972 0.99123 0.0
C222 C 1.12282 0.43599 0.01085 0.0
C223 C 1.09061 0.4313 0.0324 0.0
C224 C 1.03734 0.38691 0.03405 0.0
C225 C 1.01589 0.34917 0.0138 0.0
C226 C 0.94324 0.32896 0.91637 0.0
C227 C 0.91077 0.3469 0.92883 0.0
C228 C 0.30333 0.75569 0.45216 0.0
C229 C 0.30233 0.78349 0.47455 0.0
C230 C 0.25333 0.75864 0.48918 0.0
C231 C 0.20691 0.70874 0.48116 0.0
H232 H 1.05089 0.49435 0.49263 0.0
H233 H 0.96771 0.41002 0.50606 0.0
H234 H 0.88415 0.4205 0.43907 0.0
H235 H 0.96589 0.50335 0.4257 0.0
H236 H 1.03673 0.56401 0.37079 0.0
H237 H 1.04283 0.55983 0.32354 0.0
H238 H 0.20983 0.59831 0.33007 0.0
H239 H 0.20481 0.606 0.37715 0.0
H240 H 0.2613 0.68805 0.42653 0.0
H241 H 0.33975 0.7727 0.44035 0.0
H242 H 0.25051 0.77846 0.50658 0.0
H243 H 0.16991 0.69238 0.4925 0.0
N244 N 1.11189 0.59437 0.45925 0.0
N245 N 1.07215 0.55171 0.41951 0.0
N246 N 0.15905 0.62831 0.41979 0.0
C247 C 1.06856 0.55285 0.44578 0.0
C248 C 1.11695 0.58856 0.40643 0.0
C249 C 0.15772 0.63303 0.44598 0.0
C250 C 1.01624 0.50704 0.45797 0.0
C251 C 1.0145 0.4796 0.48108 0.0
C252 C 0.96656 0.43068 0.48871 0.0
C253 C 0.91834 0.4075 0.47368 0.0
C254 C 0.9198 0.43625 0.45125 0.0
C255 C 0.96727 0.4844 0.44361 0.0
C256 C 1.12027 0.58531 0.37774 0.0
C257 C 1.07482 0.57189 0.36211 0.0
C258 C 1.07833 0.56959 0.33507 0.0
C259 C 0.12678 0.57855 0.323 0.0
C260 C 0.17205 0.59145 0.33871 0.0
C261 C 0.16912 0.59573 0.36566 0.0
C262 C 0.20772 0.68187 0.45816 0.0
C263 C 0.25757 0.70647 0.44424 0.0
C264 C 0.73053 0.31404 0.78505 0.0
C265 C 0.70108 0.31427 0.807 0.0
C266 C 0.67311 0.26464 0.82092 0.0
C267 C 0.67384 0.21665 0.81277 0.0
H268 H 0.7211 1.05765 0.82634 0.0
H269 H 0.7244 0.97591 0.84097 0.0
H270 H 0.65854 0.89764 0.76817 0.0
H271 H 0.65435 0.97685 0.75373 0.0
H272 H 0.67538 1.03661 0.70475 0.0
H273 H 0.66317 1.03046 0.6579 0.0
H274 H 0.67429 0.18781 0.65711 0.0
H275 H 0.68661 0.19465 0.70418 0.0
H276 H 0.75275 0.26867 0.75927 0.0
H277 H 0.7523 0.35073 0.77364 0.0
H278 H 0.64936 0.26255 0.83777 0.0
H279 H 0.65021 0.17927 0.82347 0.0
N280 N 0.69426 0.12078 0.7905 0.0
N281 N 0.68564 1.07653 0.75059 0.0
N282 N 0.69232 0.16212 0.75108 0.0
C283 C 0.68927 1.07611 0.77681 0.0
C284 C 0.687 0.11859 0.73749 0.0
C285 C 0.69586 0.16447 0.77741 0.0
C286 C 0.68769 1.02544 0.7886 0.0
C287 C 0.70658 1.02287 0.81355 0.0
C288 C 0.70867 0.97578 0.82194 0.0
C289 C 0.69189 0.92956 0.80573 0.0
C290 C 0.67199 0.93188 0.78125 0.0
C291 C 0.66979 0.97821 0.77297 0.0
C292 C 0.6818 0.11611 0.70857 0.0
C293 C 0.67562 1.07027 0.69476 0.0
C294 C 0.66875 1.06663 0.66784 0.0
C295 C 0.66789 0.10866 0.6539 0.0
C296 C 0.67502 0.15494 0.66742 0.0
C297 C 0.6819 0.15866 0.69441 0.0
C298 C 0.70189 0.21625 0.79014 0.0
C299 C 0.73073 0.26641 0.77681 0.0
C300 C 0.82576 0.58754 0.11319 0.0
C301 C 0.82749 0.56773 0.13784 0.0
C302 C 0.78106 0.55198 0.15382 0.0
C303 C 0.73465 0.555 0.14513 0.0
H304 H 0.56436 0.57082 0.16074 0.0
H305 H 0.48106 0.56958 0.17693 0.0
H306 H 0.4319 0.57261 0.09879 0.0
H307 H 0.51254 0.57379 0.08271 0.0
H308 H 0.56124 0.56696 0.03521 0.0
H309 H 0.56323 0.57117 0.98787 0.0
H310 H 0.72433 0.59182 0.98757 0.0
H311 H 0.72289 0.58735 0.03488 0.0
H312 H 0.78197 0.60582 0.08524 0.0
H313 H 0.86006 0.60034 0.1002 0.0
H314 H 0.78027 0.53654 0.17299 0.0
H315 H 0.69983 0.54128 0.15783 0.0
N316 N 0.63936 0.57191 0.12137 0.0
N317 N 0.59948 0.57384 0.08165 0.0
N318 N 0.68217 0.57477 0.08153 0.0
C319 C 0.59703 0.5725 0.10798 0.0
C320 C 0.64115 0.57492 0.06821 0.0
C321 C 0.68279 0.57322 0.10788 0.0
C322 C 0.54692 0.57228 0.12014 0.0
C323 C 0.53607 0.57143 0.14695 0.0
C324 C 0.48806 0.57097 0.15629 0.0
C325 C 0.4491 0.57143 0.13921 0.0
C326 C 0.46034 0.57257 0.11269 0.0
C327 C 0.50753 0.57307 0.10347 0.0
C328 C 0.64196 0.57683 0.03917 0.0
C329 C 0.5972 0.57229 0.02519 0.0
C330 C 0.59812 0.57457 0.99803 0.0
C331 C 0.64386 0.5817 0.98409 0.0
C332 C 0.68852 0.58616 0.99787 0.0
C333 C 0.68757 0.58359 0.02501 0.0
C334 C 0.73276 0.57378 0.12002 0.0
C335 C 0.78006 0.59053 0.10458 0.0
C336 C 0.29423 0.52123 0.14307 0.0
C337 C 0.29052 0.56345 0.15728 0.0
C338 C 0.39237 0.61096 0.16052 0.0
C339 C 0.39492 0.56735 0.148 0.0
N340 N 0.34486 0.47375 0.13494 0.0
N341 N 0.33924 0.63791 0.18735 0.0
C342 C 0.34472 0.52037 0.14179 0.0
C343 C 0.3406 0.60539 0.16815 0.0
N344 N 0.25108 0.48281 0.12928 0.0
N345 N 0.43941 0.65856 0.16491 0.0
H346 H 0.30329 0.63132 0.19604 0.0
H347 H 0.37382 0.66603 0.1973 0.0
H348 H 0.47756 0.66388 0.16014 0.0
H349 H 0.44001 0.69383 0.17131 0.0
H350 H 0.25423 0.45558 0.11677 0.0
H351 H 0.21407 0.4813 0.12714 0.0
H352 H 0.3095 0.43612 0.13328 0.0
H353 H 0.38041 0.47138 0.13386 0.0
C354 C 0.7991 0.25843 0.46531 0.0
C355 C 0.76611 0.24958 0.48773 0.0
C356 C 0.83304 0.34464 0.50156 0.0
C357 C 0.86744 0.35201 0.47985 0.0
N358 N 0.88752 0.30952 0.44439 0.0
N359 N 0.75791 0.28278 0.52942 0.0
C360 C 0.85149 0.30694 0.46275 0.0
C361 C 0.78488 0.29249 0.5064 0.0
N362 N 0.77934 0.22156 0.44556 0.0
N363 N 0.84535 0.38808 0.51728 0.0
H364 H 0.7229 0.24606 0.53358 0.0
H365 H 0.77247 0.30918 0.54515 0.0
H366 H 0.88034 0.42578 0.5149 0.0
H367 H 0.81914 0.38807 0.53146 0.0
H368 H 0.79794 0.22834 0.4275 0.0
H369 H 0.74148 0.18644 0.44628 0.0
H370 H 0.8814 0.27628 0.43321 0.0
H371 H 0.92618 0.34331 0.44215 0.0
C372 C 0.73541 0.81877 0.80441 0.0
C373 C 0.69817 0.7784 0.82197 0.0
C374 C 0.65711 0.8377 0.82961 0.0
C375 C 0.69637 0.87923 0.81324 0.0
N376 N 0.77954 0.91253 0.7891 0.0
N377 N 0.63033 0.75576 0.85507 0.0
C378 C 0.73746 0.87055 0.80194 0.0
C379 C 0.66089 0.78977 0.83557 0.0
N380 N 0.76707 0.80672 0.7888 0.0
N381 N 0.61484 0.84311 0.8389 0.0
H382 H 0.63277 0.7215 0.86036 0.0
H383 H 0.60656 0.76416 0.8676 0.0
H384 H 0.61146 0.87764 0.83556 0.0
H385 H 0.58127 0.812 0.84829 0.0
H386 H 0.78995 0.83121 0.77346 0.0
H387 H 0.76679 0.76982 0.78951 0.0
H388 H 0.81405 0.91155 0.78288 0.0
H389 H 0.78237 0.95047 0.78681 0.0
C390 C 0.94194 0.52912 0.13513 0.0
C391 C 0.97748 0.5596 0.15577 0.0
C392 C 0.91482 0.59628 0.16507 0.0
C393 C 0.87736 0.56243 0.1457 0.0
N394 N 0.85124 0.487 0.11661 0.0
N395 N 0.99053 0.6146 0.19354 0.0
C396 C 0.88995 0.52614 0.13206 0.0
C397 C 0.96175 0.59108 0.17158 0.0
N398 N 0.95883 0.50498 0.11736 0.0
N399 N 0.90685 0.63512 0.17675 0.0
H400 H 1.0239 0.61099 0.19915 0.0
H401 H 0.97831 0.63312 0.20741 0.0
H402 H 0.87343 0.63991 0.17277 0.0
H403 H 0.93541 0.66524 0.18877 0.0
H404 H 0.93866 0.48903 0.09997 0.0
H405 H 0.99546 0.50502 0.11889 0.0
H406 H 0.85535 0.4556 0.10834 0.0
H407 H 0.81271 0.48261 0.11427 0.0
C408 C 0.41943 0.93381 0.4684 0.0
C409 C 0.4532 0.94133 0.49019 0.0
C410 C 0.38856 0.84406 0.50183 0.0
C411 C 0.35233 0.83891 0.48152 0.0
N412 N 0.33019 0.88408 0.44841 0.0
N413 N 0.46691 0.90234 0.5287 0.0
C414 C 0.36694 0.88552 0.46583 0.0
C415 C 0.43673 0.89591 0.50715 0.0
N416 N 0.43942 0.97076 0.44877 0.0
N417 N 0.37826 0.79863 0.51542 0.0
H418 H 0.50351 0.93769 0.53231 0.0
H419 H 0.45436 0.87411 0.54365 0.0
H420 H 0.34362 0.76088 0.51244 0.0
H421 H 0.40556 0.79722 0.52833 0.0
H422 H 0.41935 0.9656 0.43129 0.0
H423 H 0.47936 1.00272 0.44857 0.0
H424 H 0.33573 0.91826 0.43833 0.0
H425 H 0.2918 0.84999 0.44594 0.0
C426 C 0.72439 0.451 0.83858 0.0
C427 C 0.69544 0.46701 0.82135 0.0
C428 C 0.66446 0.37928 0.79751 0.0
C429 C 0.6965 0.36526 0.81343 0.0
N430 N 0.74991 0.38352 0.85184 0.0
N431 N 0.64136 0.44643 0.78264 0.0
C432 C 0.72447 0.4001 0.83476 0.0
C433 C 0.66598 0.43071 0.80057 0.0
N434 N 0.75214 0.48481 0.85868 0.0
N435 N 0.62989 0.34171 0.78006 0.0
H436 H 0.63859 0.48146 0.78441 0.0
H437 H 0.62688 0.42689 0.76499 0.0
H438 H 0.62722 0.30394 0.77728 0.0
H439 H 0.60005 0.34534 0.77009 0.0
H440 H 0.77792 0.47949 0.87102 0.0
H441 H 0.7502 0.51977 0.863 0.0
H442 H 0.76801 0.40345 0.86895 0.0
H443 H 0.75137 0.3477 0.84935 0.0
C444 C 0.91329 1.01871 0.52726 0.0
C445 C 0.85604 0.9846 0.52872 0.0
C446 C 0.86759 0.91328 0.54936 0.0
C447 C 0.9249 0.94818 0.54853 0.0
N448 N 1.00284 1.0344 0.53727 0.0
N449 N 0.77822 0.90397 0.54554 0.0
C450 C 0.94779 1.00098 0.53782 0.0
C451 C 0.83306 0.93314 0.54105 0.0
N452 N 0.9363 1.06858 0.51587 0.0
N453 N 0.84616 0.8603 0.55709 0.0
H454 H 0.75121 0.91666 0.53952 0.0
H455 H 0.75975 0.86943 0.55714 0.0
H456 H 0.86959 0.84402 0.56397 0.0
H457 H 0.80544 0.83098 0.55486 0.0
H458 H 0.91415 0.08502 0.50756 0.0
H459 H 0.91415 0.08502 0.50756 0.0
H460 H 1.0211 1.07352 0.52945 0.0
H461 H 1.02984 1.02306 0.54485 0.0
C462 C 0.89701 0.50582 0.85428 0.0
C463 C 0.9261 0.55312 0.86989 0.0
C464 C 0.96051 0.50612 0.89677 0.0
C465 C 0.92603 0.45696 0.88337 0.0
N466 N 0.86908 0.41039 0.84693 0.0
N467 N 0.98471 0.59954 0.90587 0.0
C468 C 0.89684 0.45703 0.86119 0.0
C469 C 0.95811 0.55376 0.89093 0.0
N470 N 0.86734 0.50714 0.83376 0.0
N471 N 0.99741 0.5077 0.91423 0.0
H472 H 0.98673 0.63632 0.90116 0.0
H473 H 1.0025 0.60057 0.92356 0.0
H474 H 1.00162 0.47402 0.91856 0.0
H475 H 1.0275 0.54335 0.9227 0.0
H476 H 0.84279 0.474 0.82212 0.0
H477 H 0.8662 0.54196 0.8283 0.0
H478 H 0.85104 0.40797 0.82917 0.0
H479 H 0.86487 0.37316 0.85255 0.0
C480 C 0.37048 0.98759 0.17374 0.0
C481 C 0.31363 0.95226 0.17327 0.0
C482 C 0.29869 1.02755 0.18549 0.0
C483 C 0.35492 1.05977 0.19056 0.0
N484 N 0.44523 1.0708 0.19068 0.0
N485 N 0.22241 0.93685 0.17885 0.0
C486 C 0.39134 1.04034 0.18454 0.0
C487 C 0.27726 0.97195 0.17872 0.0
N488 N 0.40428 0.97031 0.16401 0.0
N489 N 0.26606 1.05029 0.18731 0.0
H490 H 0.20507 0.89607 0.17345 0.0
H491 H 0.19412 0.94721 0.18569 0.0
H492 H 0.28111 0.09104 0.19234 0.0
H493 H 0.22549 1.0305 0.18165 0.0
H494 H 0.44595 0.99574 0.16154 0.0
H495 H 0.38972 0.93153 0.15612 0.0
H496 H 0.4723 1.05602 0.18972 0.0
H497 H 0.46255 0.10993 0.19841 0.0
C498 C 0.70705 0.45539 0.53408 0.0
C499 C 0.71018 0.42009 0.51554 0.0
C500 C 0.80565 0.48693 0.50641 0.0
C501 C 0.80309 0.52078 0.52596 0.0
N502 N 0.74995 0.54487 0.55393 0.0
N503 N 0.75787 0.40331 0.48125 0.0
C504 C 0.75316 0.50739 0.53833 0.0
C505 C 0.75806 0.43655 0.50058 0.0
N506 N 0.66061 0.43804 0.54839 0.0
N507 N 0.85398 0.50269 0.49404 0.0
H508 H 0.72393 0.3658 0.47695 0.0
H509 H 0.79011 0.41307 0.46867 0.0
H510 H 0.88893 0.53983 0.49771 0.0
H511 H 0.8604 0.47934 0.48046 0.0
H512 H 0.65768 0.45853 0.56451 0.0
H513 H 0.62511 0.40128 0.54489 0.0
H514 H 0.71375 0.54008 0.56149 0.0
H515 H 0.78313 0.58321 0.55776 0.0
C516 C 0.30794 0.38242 0.84363 0.0
C517 C 0.32425 0.43871 0.84397 0.0
C518 C 0.23801 0.41867 0.86402 0.0
C519 C 0.22463 0.36335 0.86648 0.0
N520 N 0.2455 0.2916 0.85956 0.0
N521 N 0.30724 0.51179 0.85462 0.0
C522 C 0.25896 0.34479 0.85627 0.0
C523 C 0.28966 0.45719 0.85395 0.0
N524 N 0.33938 0.36515 0.83117 0.0
N525 N 0.20119 0.43418 0.87133 0.0
H526 H 0.34392 0.54085 0.84636 0.0
H527 H 0.28718 0.52887 0.86443 0.0
H528 H 0.16368 0.40765 0.8797 0.0
H529 H 0.20585 0.47235 0.86755 0.0
H530 H 0.32729 0.32443 0.82784 0.0
H531 H 0.37649 0.39168 0.82245 0.0
H532 H 0.27151 0.2765 0.85541 0.0
H533 H 0.2087 0.2626 0.86774 0.0
C534 C 0.84608 0.40781 0.17517 0.0
C535 C 0.83432 0.36184 0.15954 0.0
C536 C 0.73711 0.32459 0.16692 0.0
C537 C 0.74902 0.37073 0.18252 0.0
N538 N 0.81222 0.46235 0.19561 0.0
N539 N 0.76999 0.2842 0.13514 0.0
C540 C 0.80278 0.41463 0.18443 0.0
C541 C 0.78012 0.32299 0.15343 0.0
N542 N 0.89831 0.44303 0.18258 0.0
N543 N 0.68576 0.28061 0.16652 0.0
H544 H 0.80111 0.28192 0.12536 0.0
H545 H 0.73129 0.25772 0.12805 0.0
H546 H 0.65298 0.27954 0.17623 0.0
H547 H 0.6763 0.24355 0.15801 0.0
H548 H 0.90839 0.47291 0.19665 0.0
H549 H 0.93165 0.44035 0.17592 0.0
H550 H 0.85018 0.49746 0.19586 0.0
H551 H 0.78082 0.46814 0.20259 0.0
C552 C 1.10124 0.54133 0.07861 0.0
C553 C 0.14787 0.55134 0.09285 0.0
C554 C 0.16007 0.48728 0.06616 0.0
C555 C 1.11187 0.47471 0.05247 0.0
N556 N 1.04719 0.50241 0.03994 0.0
N557 N 0.23421 0.55449 0.09193 0.0
C558 C 1.08549 0.50563 0.05695 0.0
C559 C 0.18157 0.53118 0.08391 0.0
N560 N 1.07314 0.56713 0.0855 0.0
N561 N 0.18366 0.45554 0.06343 0.0
H562 H 0.25124 0.58735 0.10468 0.0
H563 H 0.26209 0.54474 0.08386 0.0
H564 H 0.16747 0.4208 0.05185 0.0
H565 H 0.21641 0.4608 0.07459 0.0
H566 H 1.03602 0.55833 0.07753 0.0
H567 H 1.08681 0.59713 0.09979 0.0
H568 H 1.02935 0.52683 0.04092 0.0
H569 H 1.03666 0.47863 0.02324 0.0
C570 C 0.54897 0.13374 0.42531 0.0
C571 C 0.58772 0.11556 0.42448 0.0
C572 C 0.60854 0.1465 0.37924 0.0
C573 C 0.57562 0.17107 0.3818 0.0
N574 N 0.52197 0.1963 0.40863 0.0
N575 N 0.63469 0.08352 0.39682 0.0
C576 C 0.54791 0.16686 0.40517 0.0
C577 C 0.61254 0.11641 0.40035 0.0
N578 N 0.50952 0.11566 0.4438 0.0
N579 N 0.63637 0.15243 0.35671 0.0
H580 H 0.63084 1.05482 0.41047 0.0
H581 H 0.65019 1.07887 0.37934 0.0
H582 H 0.63197 0.17139 0.3404 0.0
H583 H 0.66642 0.14176 0.35456 0.0
H584 H 0.47661 0.12248 0.44317 0.0
H585 H 0.50578 0.08898 0.45821 0.0
H586 H 0.50685 0.19994 0.42648 0.0
H587 H 0.52043 0.22152 0.3944 0.0
C588 C 0.7892 0.61585 0.75432 0.0
C589 C 0.75364 0.63693 0.75818 0.0
C590 C 0.79305 0.69571 0.72035 0.0
C591 C 0.83311 0.67946 0.71871 0.0
N592 N 0.87633 0.63315 0.73787 0.0
N593 N 0.72411 0.70054 0.74634 0.0
C594 C 0.8334 0.6424 0.73693 0.0
C595 C 0.75662 0.67838 0.74177 0.0
N596 N 0.77945 0.56901 0.76633 0.0
N597 N 0.78753 0.72483 0.70073 0.0
H598 H 0.69404 0.68615 0.76059 0.0
H599 H 0.72921 0.73534 0.73702 0.0
H600 H 0.81224 0.73715 0.68434 0.0
H601 H 0.75537 0.73265 0.69956 0.0
H602 H 0.80177 0.54951 0.76263 0.0
H603 H 0.74462 0.54598 0.77729 0.0
H604 H 0.88089 0.61035 0.7524 0.0
H605 H 0.91009 0.65291 0.72572 0.0
C606 C 0.68646 0.12813 0.58009 0.0
C607 C 0.63232 0.09225 0.57128 0.0
C608 C 0.60275 1.06735 0.61661 0.0
C609 C 0.65635 0.10256 0.62538 0.0
N610 N 0.7515 0.15742 0.61547 0.0
N611 N 0.54503 1.01447 0.58129 0.0
C612 C 0.69886 0.13029 0.60708 0.0
C613 C 0.5925 1.05785 0.58966 0.0
N614 N 0.72603 0.16136 0.56314 0.0
N615 N 0.56088 1.04427 0.63401 0.0
H616 H 0.53691 1.0048 0.5618 0.0
H617 H 0.51679 0.9847 0.59358 0.0
H618 H 0.56641 1.04997 0.65392 0.0
H619 H 0.52013 1.02347 0.62859 0.0
H620 H 0.76279 0.19452 0.56889 0.0
H621 H 0.72244 0.15678 0.54326 0.0
H622 H 0.785 0.17313 0.60313 0.0
H623 H 0.76188 0.1604 0.63496 0.0
C624 C 0.68272 0.64222 0.91603 0.0
C625 C 0.66092 0.59442 0.90042 0.0
C626 C 0.62442 0.53797 0.93956 0.0
C627 C 0.64584 0.58574 0.95508 0.0
N628 N 0.68428 0.68291 0.95771 0.0
N629 N 0.60189 0.49785 0.89651 0.0
C630 C 0.67133 0.63771 0.94313 0.0
C631 C 0.62872 0.54261 0.91201 0.0
N632 N 0.71693 0.69186 0.90532 0.0
N633 N 0.60172 0.48817 0.95125 0.0
H634 H 0.60416 0.50032 0.87638 0.0
H635 H 0.57376 0.45939 0.90331 0.0
H636 H 0.59665 0.48322 0.97122 0.0
H637 H 0.59091 0.45207 0.94142 0.0
H638 H 0.73983 0.72703 0.91615 0.0
H639 H 0.72536 0.69768 0.88563 0.0
H640 H 0.69729 0.72127 0.94986 0.0
H641 H 0.67754 0.68127 0.97761 0.0
C642 C 1.0921 0.52126 0.25386 0.0
C643 C 0.13658 0.56172 0.23948 0.0
C644 C 0.16959 0.61714 0.27903 0.0
C645 C 0.12975 0.57319 0.29406 0.0
N646 N 1.06075 0.4781 0.2955 0.0
N647 N 0.22343 0.6441 0.23966 0.0
C648 C 1.09298 0.52376 0.28138 0.0
C649 C 0.17698 0.60861 0.25243 0.0
N650 N 1.04823 0.4809 0.2413 0.0
N651 N 0.19909 0.66764 0.28983 0.0
H652 H 0.23066 0.63821 0.22047 0.0
H653 H 0.25664 0.67619 0.24879 0.0
H654 H 0.19337 0.67616 0.30884 0.0
H655 H 0.22498 0.70212 0.27914 0.0
H656 H 1.01257 0.45334 0.25079 0.0
H657 H 1.04512 0.47881 0.22122 0.0
H658 H 1.03718 0.43986 0.28713 0.0
H659 H 1.06209 0.47702 0.3156 0.0
loop_
_geom_bond_atom_site_label_1
_geom_bond_atom_site_label_2
_geom_bond_distance
_geom_bond_site_symmetry_2
_ccdc_geom_bond_type
Tb0 C2 2.809 . S
Tb0 O20 2.484 . S
Tb0 O21 2.440 . S
Tb0 O22 2.658 . S
Tb0 O23 2.409 . S
Tb0 O24 2.378 . S
Tb0 O28 2.325 . S
Tb0 O31 2.341 1_455 S
Tb1 C11 2.809 . S
Tb1 O22 2.325 1_655 S
Tb1 O25 2.341 1_655 S
Tb1 O26 2.484 . S
Tb1 O27 2.440 . S
Tb1 O28 2.658 1_655 S
Tb1 O29 2.408 . S
Tb1 O30 2.378 . S
C2 Tb0 2.809 . S
C2 C3 1.514 . S
C2 O20 1.248 . S
C2 O21 1.266 . S
C3 C2 1.514 . S
C3 C4 1.359 . S
C3 C8 1.348 . S
C4 C3 1.359 . S
C4 C5 1.380 . S
C4 H32 0.929 . S
C5 C4 1.380 . S
C5 C6 1.347 . S
C5 H33 0.931 . S
C6 C5 1.347 . S
C6 C7 1.369 . S
C7 C6 1.369 . S
C7 C8 1.408 . S
C7 H34 0.930 . S
C8 C3 1.348 . S
C8 C7 1.408 . S
C8 H35 0.930 . S
C9 O22 1.281 . S
C9 O23 1.254 . S
C10 O24 1.236 . S
C10 O25 1.266 . S
C11 Tb1 2.809 . S
C11 C12 1.514 . S
C11 O26 1.248 . S
C11 O27 1.266 . S
C12 C11 1.514 . S
C12 C13 1.359 . S
C12 C17 1.348 . S
C13 C12 1.359 . S
C13 C14 1.380 . S
C13 H36 0.929 . S
C14 C13 1.380 . S
C14 C15 1.347 . S
C14 H37 0.931 . S
C15 C14 1.347 . S
C15 C16 1.369 . S
C16 C15 1.369 . S
C16 C17 1.408 . S
C16 H38 0.930 . S
C17 C12 1.348 . S
C17 C16 1.408 . S
C17 H39 0.930 . S
C18 O28 1.281 . S
C18 O29 1.252 1_455 S
C19 O30 1.236 . S
C19 O31 1.266 . S
O20 Tb0 2.484 . S
O20 C2 1.248 . S
O21 Tb0 2.440 . S
O21 C2 1.266 . S
O22 Tb0 2.658 . S
O22 Tb1 2.325 1_455 S
O22 C9 1.281 . S
O23 Tb0 2.409 . S
O23 C9 1.254 . S
O24 Tb0 2.378 . S
O24 C10 1.236 . S
O25 Tb1 2.341 1_455 S
O25 C10 1.266 . S
O26 Tb1 2.484 . S
O26 C11 1.248 . S
O27 Tb1 2.440 . S
O27 C11 1.266 . S
O28 Tb0 2.325 . S
O28 Tb1 2.658 1_455 S
O28 C18 1.281 . S
O29 Tb1 2.408 . S
O29 C18 1.252 1_655 S
O30 Tb1 2.378 . S
O30 C19 1.236 . S
O31 Tb0 2.341 1_655 S
O31 C19 1.266 . S
H32 C4 0.929 . S
H33 C5 0.931 . S
H34 C7 0.930 . S
H35 C8 0.930 . S
H36 C13 0.929 . S
H37 C14 0.931 . S
H38 C16 0.930 . S
H39 C17 0.930 . S
Tb40 C42 2.809 . S
Tb40 O60 2.484 . S
Tb40 O61 2.440 . S
Tb40 O62 2.658 1_565 S
Tb40 O63 2.409 1_565 S
Tb40 O64 2.378 . S
Tb40 O68 2.325 1_565 S
Tb40 O71 2.341 1_565 S
Tb41 C51 2.809 . S
Tb41 O62 2.325 . S
Tb41 O65 2.341 1_545 S
Tb41 O66 2.484 . S
Tb41 O67 2.440 . S
Tb41 O68 2.658 . S
Tb41 O69 2.409 . S
Tb41 O70 2.378 . S
C42 Tb40 2.809 . S
C42 C43 1.514 . S
C42 O60 1.248 . S
C42 O61 1.266 . S
C43 C42 1.514 . S
C43 C44 1.359 . S
C43 C48 1.348 . S
C44 C43 1.359 . S
C44 C45 1.380 . S
C44 H72 0.929 . S
C45 C44 1.380 . S
C45 C46 1.347 . S
C45 H73 0.931 . S
C46 C45 1.347 . S
C46 C47 1.369 . S
C47 C46 1.369 . S
C47 C48 1.408 . S
C47 H74 0.930 . S
C48 C43 1.348 . S
C48 C47 1.408 . S
C48 H75 0.930 . S
C49 O62 1.281 . S
C49 O63 1.254 . S
C50 O64 1.236 . S
C50 O65 1.266 . S
C51 Tb41 2.809 . S
C51 C52 1.514 . S
C51 O66 1.248 . S
C51 O67 1.266 . S
C52 C51 1.514 . S
C52 C53 1.359 . S
C52 C57 1.348 . S
C53 C52 1.359 . S
C53 C54 1.380 . S
C53 H76 0.929 . S
C54 C53 1.380 . S
C54 C55 1.347 . S
C54 H77 0.931 . S
C55 C54 1.347 . S
C55 C56 1.369 . S
C56 C55 1.369 . S
C56 C57 1.408 . S
C56 H78 0.930 . S
C57 C52 1.348 . S
C57 C56 1.408 . S
C57 H79 0.930 . S
C58 O68 1.281 . S
C58 O69 1.254 . S
C59 O70 1.236 . S
C59 O71 1.266 . S
O60 Tb40 2.484 . S
O60 C42 1.248 . S
O61 Tb40 2.440 . S
O61 C42 1.266 . S
O62 Tb40 2.658 1_545 S
O62 Tb41 2.325 . S
O62 C49 1.281 . S
O63 Tb40 2.409 1_545 S
O63 C49 1.254 . S
O64 Tb40 2.378 . S
O64 C50 1.236 . S
O65 Tb41 2.341 1_565 S
O65 C50 1.266 . S
O66 Tb41 2.484 . S
O66 C51 1.248 . S
O67 Tb41 2.440 . S
O67 C51 1.266 . S
O68 Tb40 2.325 1_545 S
O68 Tb41 2.658 . S
O68 C58 1.281 . S
O69 Tb41 2.409 . S
O69 C58 1.254 . S
O70 Tb41 2.378 . S
O70 C59 1.236 . S
O71 Tb40 2.341 1_545 S
O71 C59 1.266 . S
H72 C44 0.929 . S
H73 C45 0.931 . S
H74 C47 0.930 . S
H75 C48 0.930 . S
H76 C53 0.929 . S
H77 C54 0.931 . S
H78 C56 0.930 . S
H79 C57 0.930 . S
Tb80 C82 2.809 . S
Tb80 O100 2.484 . S
Tb80 O101 2.440 . S
Tb80 O102 2.658 . S
Tb80 O103 2.409 . S
Tb80 O104 2.378 . S
Tb80 O108 2.325 . S
Tb80 O111 2.341 . S
Tb81 C91 2.809 . S
Tb81 O102 2.325 . S
Tb81 O105 2.341 . S
Tb81 O106 2.484 . S
Tb81 O107 2.440 . S
Tb81 O108 2.658 . S
Tb81 O109 2.409 . S
Tb81 O110 2.378 . S
C82 Tb80 2.809 . S
C82 C83 1.514 . S
C82 O100 1.248 . S
C82 O101 1.266 . S
C83 C82 1.514 . S
C83 C84 1.359 . S
C83 C88 1.348 . S
C84 C83 1.359 . S
C84 C85 1.380 . S
C84 H112 0.929 . S
C85 C84 1.380 . S
C85 C86 1.347 . S
C85 H113 0.931 . S
C86 C85 1.347 . S
C86 C87 1.369 . S
C87 C86 1.369 . S
C87 C88 1.408 . S
C87 H114 0.930 . S
C88 C83 1.348 . S
C88 C87 1.408 . S
C88 H115 0.930 . S
C89 O102 1.281 . S
C89 O103 1.254 . S
C90 O104 1.236 . S
C90 O105 1.266 . S
C91 Tb81 2.809 . S
C91 C92 1.514 . S
C91 O106 1.248 . S
C91 O107 1.266 . S
C92 C91 1.514 . S
C92 C93 1.359 . S
C92 C97 1.348 . S
C93 C92 1.359 . S
C93 C94 1.380 . S
C93 H116 0.929 . S
C94 C93 1.380 . S
C94 C95 1.347 . S
C94 H117 0.931 . S
C95 C94 1.347 . S
C95 C96 1.369 . S
C96 C95 1.369 . S
C96 C97 1.408 . S
C96 H118 0.930 . S
C97 C92 1.348 . S
C97 C96 1.408 . S
C97 H119 0.930 . S
C98 O108 1.281 . S
C98 O109 1.254 . S
C99 O110 1.236 . S
C99 O111 1.266 . S
O100 Tb80 2.484 . S
O100 C82 1.248 . S
O101 Tb80 2.440 . S
O101 C82 1.266 . S
O102 Tb80 2.658 . S
O102 Tb81 2.325 . S
O102 C89 1.281 . S
O103 Tb80 2.409 . S
O103 C89 1.254 . S
O104 Tb80 2.378 . S
O104 C90 1.236 . S
O105 Tb81 2.341 . S
O105 C90 1.266 . S
O106 Tb81 2.484 . S
O106 C91 1.248 . S
O107 Tb81 2.440 . S
O107 C91 1.266 . S
O108 Tb80 2.325 . S
O108 Tb81 2.658 . S
O108 C98 1.281 . S
O109 Tb81 2.409 . S
O109 C98 1.254 . S
O110 Tb81 2.378 . S
O110 C99 1.236 . S
O111 Tb80 2.341 . S
O111 C99 1.266 . S
H112 C84 0.929 . S
H113 C85 0.931 . S
H114 C87 0.930 . S
H115 C88 0.930 . S
H116 C93 0.929 . S
H117 C94 0.931 . S
H118 C96 0.930 . S
H119 C97 0.930 . S
C120 C121 1.384 . S
C120 H133 0.947 . S
C120 C155 1.382 . S
C121 C120 1.384 . S
C121 C122 1.378 . S
C122 C121 1.378 . S
C122 C123 1.378 . S
C122 H134 0.952 . S
C123 C122 1.378 . S
C123 H135 0.950 . S
C123 C154 1.383 . S
H124 C143 0.947 . S
H125 C144 0.946 . S
H126 C146 0.953 . S
H127 C147 0.945 . S
H128 C149 0.952 . S
H129 C150 0.949 . S
H130 C152 0.950 1_565 S
H131 C153 0.948 . S
H132 C155 0.951 . S
H133 C120 0.947 . S
H134 C122 0.952 . S
H135 C123 0.950 . S
N136 C139 1.382 . S
N136 C141 1.363 . S
N137 C139 1.371 . S
N137 C140 1.372 . S
N138 C140 1.361 . S
N138 C141 1.377 . S
C139 N136 1.382 . S
C139 N137 1.371 . S
C139 C142 1.480 . S
C140 N137 1.372 . S
C140 N138 1.361 . S
C140 C148 1.457 . S
C141 N136 1.363 . S
C141 N138 1.377 . S
C141 C154 1.479 1_545 S
C142 C139 1.480 . S
C142 C143 1.383 . S
C142 C147 1.385 . S
C143 H124 0.947 . S
C143 C142 1.383 . S
C143 C144 1.388 . S
C144 H125 0.946 . S
C144 C143 1.388 . S
C144 C145 1.384 . S
C145 C144 1.384 . S
C145 C146 1.377 . S
C146 H126 0.953 . S
C146 C145 1.377 . S
C146 C147 1.369 . S
C147 H127 0.945 . S
C147 C142 1.385 . S
C147 C146 1.369 . S
C148 C140 1.457 . S
C148 C149 1.372 . S
C148 C153 1.364 1_545 S
C149 H128 0.952 . S
C149 C148 1.372 . S
C149 C150 1.389 . S
C150 H129 0.949 . S
C150 C149 1.389 . S
C150 C151 1.387 . S
C151 C150 1.387 . S
C151 C152 1.372 . S
C152 H130 0.950 1_545 S
C152 C151 1.372 . S
C152 C153 1.379 1_545 S
C153 H131 0.948 . S
C153 C148 1.364 1_565 S
C153 C152 1.379 1_565 S
C154 C123 1.383 . S
C154 C141 1.479 1_565 S
C154 C155 1.398 . S
C155 C120 1.382 . S
C155 H132 0.951 . S
C155 C154 1.398 . S
C156 C157 1.384 . S
C156 H169 0.947 . S
C156 C191 1.382 . S
C157 C156 1.384 . S
C157 C158 1.378 . S
C158 C157 1.378 . S
C158 C159 1.378 . S
C158 H170 0.952 . S
C159 C158 1.378 . S
C159 H171 0.950 . S
C159 C190 1.383 . S
H160 C179 0.947 . S
H161 C180 0.946 . S
H162 C182 0.953 . S
H163 C183 0.945 . S
H164 C185 0.952 . S
H165 C186 0.949 . S
H166 C188 0.950 . S
H167 C189 0.948 . S
H168 C191 0.951 . S
H169 C156 0.947 . S
H170 C158 0.952 . S
H171 C159 0.950 . S
N172 C175 1.382 . S
N172 C177 1.363 . S
N173 C175 1.371 . S
N173 C176 1.372 . S
N174 C176 1.361 . S
N174 C177 1.377 . S
C175 N172 1.382 . S
C175 N173 1.371 . S
C175 C178 1.480 . S
C176 N173 1.372 . S
C176 N174 1.361 . S
C176 C184 1.457 . S
C177 N172 1.363 . S
C177 N174 1.377 . S
C177 C190 1.479 . S
C178 C175 1.480 . S
C178 C179 1.383 . S
C178 C183 1.385 . S
C179 H160 0.947 . S
C179 C178 1.383 . S
C179 C180 1.388 . S
C180 H161 0.946 . S
C180 C179 1.388 . S
C180 C181 1.384 . S
C181 C180 1.384 . S
C181 C182 1.377 . S
C182 H162 0.953 . S
C182 C181 1.377 . S
C182 C183 1.369 . S
C183 H163 0.945 . S
C183 C178 1.385 . S
C183 C182 1.369 . S
C184 C176 1.457 . S
C184 C185 1.372 . S
C184 C189 1.364 . S
C185 H164 0.952 . S
C185 C184 1.372 . S
C185 C186 1.389 . S
C186 H165 0.949 . S
C186 C185 1.389 . S
C186 C187 1.387 . S
C187 C186 1.387 . S
C187 C188 1.372 . S
C188 H166 0.950 . S
C188 C187 1.372 . S
C188 C189 1.379 . S
C189 H167 0.948 . S
C189 C184 1.364 . S
C189 C188 1.379 . S
C190 C159 1.383 . S
C190 C177 1.479 . S
C190 C191 1.398 . S
C191 C156 1.382 . S
C191 H168 0.951 . S
C191 C190 1.398 . S
C192 C193 1.384 . S
C192 H205 0.947 . S
C192 C227 1.382 . S
C193 C192 1.384 . S
C193 C194 1.378 . S
C194 C193 1.378 . S
C194 C195 1.378 . S
C194 H206 0.952 . S
C195 C194 1.378 . S
C195 H207 0.950 . S
C195 C226 1.383 . S
H196 C215 0.947 . S
H197 C216 0.946 . S
H198 C218 0.953 . S
H199 C219 0.945 . S
H200 C221 0.952 . S
H201 C222 0.949 . S
H202 C224 0.950 . S
H203 C225 0.948 . S
H204 C227 0.951 . S
H205 C192 0.947 . S
H206 C194 0.952 . S
H207 C195 0.950 . S
N208 C211 1.382 1_655 S
N208 C213 1.363 . S
N209 C211 1.371 . S
N209 C212 1.376 . S
N210 C212 1.356 1_655 S
N210 C213 1.377 . S
C211 N208 1.382 1_455 S
C211 N209 1.371 . S
C211 C214 1.480 . S
C212 N209 1.376 . S
C212 N210 1.356 1_455 S
C212 C220 1.457 1_455 S
C213 N208 1.363 . S
C213 N210 1.377 . S
C213 C226 1.479 . S
C214 C211 1.480 . S
C214 C215 1.383 . S
C214 C219 1.385 . S
C215 H196 0.947 . S
C215 C214 1.383 . S
C215 C216 1.388 . S
C216 H197 0.946 . S
C216 C215 1.388 . S
C216 C217 1.384 . S
C217 C216 1.384 . S
C217 C218 1.377 . S
C218 H198 0.953 . S
C218 C217 1.377 . S
C218 C219 1.369 . S
C219 H199 0.945 . S
C219 C214 1.385 . S
C219 C218 1.369 . S
C220 C212 1.457 1_655 S
C220 C221 1.368 1_655 S
C220 C225 1.368 . S
C221 H200 0.952 . S
C221 C220 1.368 1_455 S
C221 C222 1.389 1_556 S
C222 H201 0.949 . S
C222 C221 1.389 1_554 S
C222 C223 1.387 . S
C223 C222 1.387 . S
C223 C224 1.372 1_455 S
C224 H202 0.950 . S
C224 C223 1.372 1_655 S
C224 C225 1.379 1_554 S
C225 H203 0.948 . S
C225 C220 1.368 . S
C225 C224 1.379 1_556 S
C226 C195 1.383 . S
C226 C213 1.479 . S
C226 C227 1.398 . S
C227 C192 1.382 . S
C227 H204 0.951 . S
C227 C226 1.398 . S
C228 C229 1.384 . S
C228 H241 0.947 . S
C228 C263 1.382 . S
C229 C228 1.384 . S
C229 C230 1.378 . S
C230 C229 1.378 . S
C230 C231 1.378 . S
C230 H242 0.952 . S
C231 C230 1.378 . S
C231 H243 0.950 . S
C231 C262 1.383 . S
H232 C251 0.947 1_455 S
H233 C252 0.946 . S
H234 C254 0.953 . S
H235 C255 0.945 . S
H236 C257 0.952 1_655 S
H237 C258 0.949 1_655 S
H238 C260 0.950 . S
H239 C261 0.948 . S
H240 C263 0.951 . S
H241 C228 0.947 . S
H242 C230 0.952 . S
H243 C231 0.950 . S
N244 C247 1.382 . S
N244 C249 1.363 . S
N245 C247 1.371 . S
N245 C248 1.372 . S
N246 C248 1.361 . S
N246 C249 1.377 . S
C247 N244 1.382 . S
C247 N245 1.371 . S
C247 C250 1.480 1_455 S
C248 N245 1.372 . S
C248 N246 1.361 . S
C248 C256 1.457 . S
C249 N244 1.363 . S
C249 N246 1.377 . S
C249 C262 1.479 . S
C250 C247 1.480 1_655 S
C250 C251 1.383 . S
C250 C255 1.385 . S
C251 H232 0.947 1_655 S
C251 C250 1.383 . S
C251 C252 1.388 . S
C252 H233 0.946 . S
C252 C251 1.388 . S
C252 C253 1.384 . S
C253 C252 1.384 . S
C253 C254 1.377 . S
C254 H234 0.953 . S
C254 C253 1.377 . S
C254 C255 1.369 . S
C255 H235 0.945 . S
C255 C250 1.385 . S
C255 C254 1.369 . S
C256 C248 1.457 . S
C256 C257 1.372 . S
C256 C261 1.364 . S
C257 H236 0.952 1_455 S
C257 C256 1.372 . S
C257 C258 1.389 . S
C258 H237 0.949 1_455 S
C258 C257 1.389 . S
C258 C259 1.387 . S
C259 C258 1.387 . S
C259 C260 1.372 . S
C260 H238 0.950 . S
C260 C259 1.372 . S
C260 C261 1.379 . S
C261 H239 0.948 . S
C261 C256 1.364 . S
C261 C260 1.379 . S
C262 C231 1.383 . S
C262 C249 1.479 . S
C262 C263 1.398 . S
C263 C228 1.382 . S
C263 H240 0.951 . S
C263 C262 1.398 . S
C264 C265 1.384 . S
C264 H277 0.947 . S
C264 C299 1.382 . S
C265 C264 1.384 . S
C265 C266 1.378 . S
C266 C265 1.378 . S
C266 C267 1.378 . S
C266 H278 0.952 . S
C267 C266 1.378 . S
C267 H279 0.950 . S
C267 C298 1.383 . S
H268 C287 0.947 . S
H269 C288 0.946 . S
H270 C290 0.953 . S
H271 C291 0.945 . S
H272 C293 0.952 . S
H273 C294 0.949 . S
H274 C296 0.950 . S
H275 C297 0.948 . S
H276 C299 0.951 . S
H277 C264 0.947 . S
H278 C266 0.952 . S
H279 C267 0.950 . S
N280 C283 1.382 1_545 S
N280 C285 1.363 . S
N281 C283 1.371 . S
N281 C284 1.372 1_565 S
N282 C284 1.361 . S
N282 C285 1.377 . S
C283 N280 1.382 1_565 S
C283 N281 1.371 . S
C283 C286 1.480 . S
C284 N281 1.372 1_545 S
C284 N282 1.361 . S
C284 C292 1.457 . S
C285 N280 1.363 . S
C285 N282 1.377 . S
C285 C298 1.479 . S
C286 C283 1.480 . S
C286 C287 1.383 . S
C286 C291 1.385 . S
C287 H268 0.947 . S
C287 C286 1.383 . S
C287 C288 1.388 . S
C288 H269 0.946 . S
C288 C287 1.388 . S
C288 C289 1.384 . S
C289 C288 1.384 . S
C289 C290 1.377 . S
C290 H270 0.953 . S
C290 C289 1.377 . S
C290 C291 1.369 . S
C291 H271 0.945 . S
C291 C286 1.385 . S
C291 C290 1.369 . S
C292 C284 1.457 . S
C292 C293 1.372 1_545 S
C292 C297 1.364 . S
C293 H272 0.952 . S
C293 C292 1.372 1_565 S
C293 C294 1.389 . S
C294 H273 0.949 . S
C294 C293 1.389 . S
C294 C295 1.387 1_565 S
C295 C294 1.387 1_545 S
C295 C296 1.372 . S
C296 H274 0.950 . S
C296 C295 1.372 . S
C296 C297 1.379 . S
C297 H275 0.948 . S
C297 C292 1.364 . S
C297 C296 1.379 . S
C298 C267 1.383 . S
C298 C285 1.479 . S
C298 C299 1.398 . S
C299 C264 1.382 . S
C299 H276 0.951 . S
C299 C298 1.398 . S
C300 C301 1.384 . S
C300 H313 0.947 . S
C300 C335 1.382 . S
C301 C300 1.384 . S
C301 C302 1.378 . S
C302 C301 1.378 . S
C302 C303 1.378 . S
C302 H314 0.952 . S
C303 C302 1.378 . S
C303 H315 0.950 . S
C303 C334 1.383 . S
H304 C323 0.947 . S
H305 C324 0.946 . S
H306 C326 0.953 . S
H307 C327 0.945 . S
H308 C329 0.952 . S
H309 C330 0.949 . S
H310 C332 0.950 . S
H311 C333 0.948 . S
H312 C335 0.951 . S
H313 C300 0.947 . S
H314 C302 0.952 . S
H315 C303 0.950 . S
N316 C319 1.382 . S
N316 C321 1.363 . S
N317 C319 1.371 . S
N317 C320 1.372 . S
N318 C320 1.361 . S
N318 C321 1.377 . S
C319 N316 1.382 . S
C319 N317 1.371 . S
C319 C322 1.480 . S
C320 N317 1.372 . S
C320 N318 1.361 . S
C320 C328 1.457 . S
C321 N316 1.363 . S
C321 N318 1.377 . S
C321 C334 1.479 . S
C322 C319 1.480 . S
C322 C323 1.383 . S
C322 C327 1.385 . S
C323 H304 0.947 . S
C323 C322 1.383 . S
C323 C324 1.388 . S
C324 H305 0.946 . S
C324 C323 1.388 . S
C324 C325 1.384 . S
C325 C324 1.384 . S
C325 C326 1.377 . S
C326 H306 0.953 . S
C326 C325 1.377 . S
C326 C327 1.369 . S
C327 H307 0.945 . S
C327 C322 1.385 . S
C327 C326 1.369 . S
C328 C320 1.457 . S
C328 C329 1.372 . S
C328 C333 1.364 . S
C329 H308 0.952 . S
C329 C328 1.372 . S
C329 C330 1.389 . S
C330 H309 0.949 . S
C330 C329 1.389 . S
C330 C331 1.399 . S
C331 C330 1.399 . S
C331 C332 1.386 . S
C332 H310 0.950 . S
C332 C331 1.386 . S
C332 C333 1.379 . S
C333 H311 0.948 . S
C333 C328 1.364 . S
C333 C332 1.379 . S
C334 C303 1.383 . S
C334 C321 1.479 . S
C334 C335 1.398 . S
C335 C300 1.382 . S
C335 H312 0.951 . S
C335 C334 1.398 . S
C336 C337 1.363 . S
C336 C342 1.379 . S
C336 N344 1.356 . S
C337 C336 1.363 . S
C337 C343 1.363 . S
C338 C339 1.363 . S
C338 C343 1.379 . S
C338 N345 1.356 . S
C339 C338 1.363 . S
C339 C342 1.363 . S
N340 C342 1.356 . S
N340 H352 0.984 . S
N340 H353 0.985 . S
N341 C343 1.356 . S
N341 H346 0.984 . S
N341 H347 0.985 . S
C342 C336 1.379 . S
C342 C339 1.363 . S
C342 N340 1.356 . S
C343 C337 1.363 . S
C343 C338 1.379 . S
C343 N341 1.356 . S
N344 C336 1.356 . S
N344 H350 0.984 . S
N344 H351 0.984 . S
N345 C338 1.356 . S
N345 H348 0.984 . S
N345 H349 0.985 . S
H346 N341 0.984 . S
H347 N341 0.985 . S
H348 N345 0.984 . S
H349 N345 0.985 . S
H350 N344 0.984 . S
H351 N344 0.984 . S
H352 N340 0.984 . S
H353 N340 0.985 . S
C354 C355 1.363 . S
C354 C360 1.379 . S
C354 N362 1.356 . S
C355 C354 1.363 . S
C355 C361 1.363 . S
C356 C357 1.363 . S
C356 C361 1.379 . S
C356 N363 1.356 . S
C357 C356 1.363 . S
C357 C360 1.363 . S
N358 C360 1.356 . S
N358 H370 0.984 . S
N358 H371 0.985 . S
N359 C361 1.356 . S
N359 H364 0.984 . S
N359 H365 0.985 . S
C360 C354 1.379 . S
C360 C357 1.363 . S
C360 N358 1.356 . S
C361 C355 1.363 . S
C361 C356 1.379 . S
C361 N359 1.356 . S
N362 C354 1.356 . S
N362 H368 0.984 . S
N362 H369 0.984 . S
N363 C356 1.356 . S
N363 H366 0.984 . S
N363 H367 0.985 . S
H364 N359 0.984 . S
H365 N359 0.985 . S
H366 N363 0.984 . S
H367 N363 0.985 . S
H368 N362 0.984 . S
H369 N362 0.984 . S
H370 N358 0.984 . S
H371 N358 0.985 . S
C372 C373 1.363 . S
C372 C378 1.379 . S
C372 N380 1.356 . S
C373 C372 1.363 . S
C373 C379 1.363 . S
C374 C375 1.363 . S
C374 C379 1.379 . S
C374 N381 1.356 . S
C375 C374 1.363 . S
C375 C378 1.363 . S
N376 C378 1.356 . S
N376 H388 0.984 . S
N376 H389 0.985 . S
N377 C379 1.356 . S
N377 H382 0.984 . S
N377 H383 0.985 . S
C378 C372 1.379 . S
C378 C375 1.363 . S
C378 N376 1.356 . S
C379 C373 1.363 . S
C379 C374 1.379 . S
C379 N377 1.356 . S
N380 C372 1.356 . S
N380 H386 0.984 . S
N380 H387 0.984 . S
N381 C374 1.356 . S
N381 H384 0.984 . S
N381 H385 0.985 . S
H382 N377 0.984 . S
H383 N377 0.985 . S
H384 N381 0.984 . S
H385 N381 0.985 . S
H386 N380 0.984 . S
H387 N380 0.984 . S
H388 N376 0.984 . S
H389 N376 0.985 . S
C390 C391 1.363 . S
C390 C396 1.379 . S
C390 N398 1.356 . S
C391 C390 1.363 . S
C391 C397 1.363 . S
C392 C393 1.363 . S
C392 C397 1.379 . S
C392 N399 1.356 . S
C393 C392 1.363 . S
C393 C396 1.363 . S
N394 C396 1.356 . S
N394 H406 0.984 . S
N394 H407 0.985 . S
N395 C397 1.356 . S
N395 H400 0.984 . S
N395 H401 0.985 . S
C396 C390 1.379 . S
C396 C393 1.363 . S
C396 N394 1.356 . S
C397 C391 1.363 . S
C397 C392 1.379 . S
C397 N395 1.356 . S
N398 C390 1.356 . S
N398 H404 0.984 . S
N398 H405 0.984 . S
N399 C392 1.356 . S
N399 H402 0.984 . S
N399 H403 0.985 . S
H400 N395 0.984 . S
H401 N395 0.985 . S
H402 N399 0.984 . S
H403 N399 0.985 . S
H404 N398 0.984 . S
H405 N398 0.984 . S
H406 N394 0.984 . S
H407 N394 0.985 . S
C408 C409 1.363 . S
C408 C414 1.379 . S
C408 N416 1.356 . S
C409 C408 1.363 . S
C409 C415 1.363 . S
C410 C411 1.363 . S
C410 C415 1.379 . S
C410 N417 1.356 . S
C411 C410 1.363 . S
C411 C414 1.363 . S
N412 C414 1.356 . S
N412 H424 0.984 . S
N412 H425 0.985 . S
N413 C415 1.356 . S
N413 H418 0.984 . S
N413 H419 0.985 . S
C414 C408 1.379 . S
C414 C411 1.363 . S
C414 N412 1.356 . S
C415 C409 1.363 . S
C415 C410 1.379 . S
C415 N413 1.356 . S
N416 C408 1.356 . S
N416 H422 0.984 . S
N416 H423 0.984 . S
N417 C410 1.356 . S
N417 H420 0.984 . S
N417 H421 0.985 . S
H418 N413 0.984 . S
H419 N413 0.985 . S
H420 N417 0.984 . S
H421 N417 0.985 . S
H422 N416 0.984 . S
H423 N416 0.984 . S
H424 N412 0.984 . S
H425 N412 0.985 . S
C426 C427 1.363 . S
C426 C432 1.379 . S
C426 N434 1.356 . S
C427 C426 1.363 . S
C427 C433 1.363 . S
C428 C429 1.363 . S
C428 C433 1.379 . S
C428 N435 1.356 . S
C429 C428 1.363 . S
C429 C432 1.363 . S
N430 C432 1.356 . S
N430 H442 0.984 . S
N430 H443 0.985 . S
N431 C433 1.356 . S
N431 H436 0.984 . S
N431 H437 0.985 . S
C432 C426 1.379 . S
C432 C429 1.363 . S
C432 N430 1.356 . S
C433 C427 1.363 . S
C433 C428 1.379 . S
C433 N431 1.356 . S
N434 C426 1.356 . S
N434 H440 0.984 . S
N434 H441 0.984 . S
N435 C428 1.356 . S
N435 H438 0.984 . S
N435 H439 0.985 . S
H436 N431 0.984 . S
H437 N431 0.985 . S
H438 N435 0.984 . S
H439 N435 0.985 . S
H440 N434 0.984 . S
H441 N434 0.984 . S
H442 N430 0.984 . S
H443 N430 0.985 . S
C444 C445 1.363 . S
C444 C450 1.379 . S
C444 N452 1.356 . S
C445 C444 1.363 . S
C445 C451 1.363 . S
C446 C447 1.363 . S
C446 C451 1.379 . S
C446 N453 1.356 . S
C447 C446 1.363 . S
C447 C450 1.363 . S
N448 C450 1.356 . S
N448 H460 0.984 . S
N448 H461 0.985 . S
N449 C451 1.356 . S
N449 H454 0.984 . S
N449 H455 0.985 . S
C450 C444 1.379 . S
C450 C447 1.363 . S
C450 N448 1.356 . S
C451 C445 1.363 . S
C451 C446 1.379 . S
C451 N449 1.356 . S
N452 C444 1.356 . S
N452 H458 0.984 . S
N452 H459 0.984 . S
N453 C446 1.356 . S
N453 H456 0.984 . S
N453 H457 0.985 . S
H454 N449 0.984 . S
H455 N449 0.985 . S
H456 N453 0.984 . S
H457 N453 0.985 . S
H458 N452 0.984 . S
H459 N452 0.984 . S
H460 N448 0.984 . S
H461 N448 0.985 . S
C462 C463 1.363 . S
C462 C468 1.379 . S
C462 N470 1.356 . S
C463 C462 1.363 . S
C463 C469 1.363 . S
C464 C465 1.363 . S
C464 C469 1.379 . S
C464 N471 1.356 . S
C465 C464 1.363 . S
C465 C468 1.363 . S
N466 C468 1.356 . S
N466 H478 0.984 . S
N466 H479 0.985 . S
N467 C469 1.356 . S
N467 H472 0.984 . S
N467 H473 0.985 . S
C468 C462 1.379 . S
C468 C465 1.363 . S
C468 N466 1.356 . S
C469 C463 1.363 . S
C469 C464 1.379 . S
C469 N467 1.356 . S
N470 C462 1.356 . S
N470 H476 0.984 . S
N470 H477 0.984 . S
N471 C464 1.356 . S
N471 H474 0.984 . S
N471 H475 0.985 . S
H472 N467 0.984 . S
H473 N467 0.985 . S
H474 N471 0.984 . S
H475 N471 0.985 . S
H476 N470 0.984 . S
H477 N470 0.984 . S
H478 N466 0.984 . S
H479 N466 0.985 . S
C480 C481 1.363 . S
C480 C486 1.379 . S
C480 N488 1.356 . S
C481 C480 1.363 . S
C481 C487 1.363 . S
C482 C483 1.363 . S
C482 C487 1.379 . S
C482 N489 1.356 . S
C483 C482 1.363 . S
C483 C486 1.363 . S
N484 C486 1.356 . S
N484 H496 0.984 . S
N484 H497 0.985 . S
N485 C487 1.356 . S
N485 H490 0.984 . S
N485 H491 0.985 . S
C486 C480 1.379 . S
C486 C483 1.363 . S
C486 N484 1.356 . S
C487 C481 1.363 . S
C487 C482 1.379 . S
C487 N485 1.356 . S
N488 C480 1.356 . S
N488 H494 0.984 . S
N488 H495 0.984 . S
N489 C482 1.356 . S
N489 H492 0.984 . S
N489 H493 0.985 . S
H490 N485 0.984 . S
H491 N485 0.985 . S
H492 N489 0.984 . S
H493 N489 0.985 . S
H494 N488 0.984 . S
H495 N488 0.984 . S
H496 N484 0.984 . S
H497 N484 0.985 . S
C498 C499 1.363 . S
C498 C504 1.379 . S
C498 N506 1.356 . S
C499 C498 1.363 . S
C499 C505 1.363 . S
C500 C501 1.363 . S
C500 C505 1.379 . S
C500 N507 1.356 . S
C501 C500 1.363 . S
C501 C504 1.363 . S
N502 C504 1.356 . S
N502 H514 0.984 . S
N502 H515 0.985 . S
N503 C505 1.356 . S
N503 H508 0.984 . S
N503 H509 0.985 . S
C504 C498 1.379 . S
C504 C501 1.363 . S
C504 N502 1.356 . S
C505 C499 1.363 . S
C505 C500 1.379 . S
C505 N503 1.356 . S
N506 C498 1.356 . S
N506 H512 0.984 . S
N506 H513 0.984 . S
N507 C500 1.356 . S
N507 H510 0.984 . S
N507 H511 0.985 . S
H508 N503 0.984 . S
H509 N503 0.985 . S
H510 N507 0.984 . S
H511 N507 0.985 . S
H512 N506 0.984 . S
H513 N506 0.984 . S
H514 N502 0.984 . S
H515 N502 0.985 . S
C516 C517 1.363 . S
C516 C522 1.379 . S
C516 N524 1.356 . S
C517 C516 1.363 . S
C517 C523 1.363 . S
C518 C519 1.363 . S
C518 C523 1.379 . S
C518 N525 1.356 . S
C519 C518 1.363 . S
C519 C522 1.363 . S
N520 C522 1.356 . S
N520 H532 0.984 . S
N520 H533 0.985 . S
N521 C523 1.356 . S
N521 H526 0.984 . S
N521 H527 0.985 . S
C522 C516 1.379 . S
C522 C519 1.363 . S
C522 N520 1.356 . S
C523 C517 1.363 . S
C523 C518 1.379 . S
C523 N521 1.356 . S
N524 C516 1.356 . S
N524 H530 0.984 . S
N524 H531 0.984 . S
N525 C518 1.356 . S
N525 H528 0.984 . S
N525 H529 0.985 . S
H526 N521 0.984 . S
H527 N521 0.985 . S
H528 N525 0.984 . S
H529 N525 0.985 . S
H530 N524 0.984 . S
H531 N524 0.984 . S
H532 N520 0.984 . S
H533 N520 0.985 . S
C534 C535 1.363 . S
C534 C540 1.379 . S
C534 N542 1.356 . S
C535 C534 1.363 . S
C535 C541 1.363 . S
C536 C537 1.363 . S
C536 C541 1.379 . S
C536 N543 1.356 . S
C537 C536 1.363 . S
C537 C540 1.363 . S
N538 C540 1.356 . S
N538 H550 0.984 . S
N538 H551 0.985 . S
N539 C541 1.356 . S
N539 H544 0.984 . S
N539 H545 0.985 . S
C540 C534 1.379 . S
C540 C537 1.363 . S
C540 N538 1.356 . S
C541 C535 1.363 . S
C541 C536 1.379 . S
C541 N539 1.356 . S
N542 C534 1.356 . S
N542 H548 0.984 . S
N542 H549 0.984 . S
N543 C536 1.356 . S
N543 H546 0.984 . S
N543 H547 0.985 . S
H544 N539 0.984 . S
H545 N539 0.985 . S
H546 N543 0.984 . S
H547 N543 0.985 . S
H548 N542 0.984 . S
H549 N542 0.984 . S
H550 N538 0.984 . S
H551 N538 0.985 . S
C552 C553 1.363 . S
C552 C558 1.380 1_455 S
C552 N560 1.356 1_455 S
C553 C552 1.363 . S
C553 C559 1.363 . S
C554 C555 1.363 . S
C554 C559 1.379 . S
C554 N561 1.356 . S
C555 C554 1.363 . S
C555 C558 1.354 1_455 S
N556 C558 1.362 . S
N556 H568 0.984 . S
N556 H569 0.985 . S
N557 C559 1.356 . S
N557 H562 0.984 . S
N557 H563 0.985 . S
C558 C552 1.380 1_655 S
C558 C555 1.354 1_655 S
C558 N556 1.362 . S
C559 C553 1.363 . S
C559 C554 1.379 . S
C559 N557 1.356 . S
N560 C552 1.356 1_655 S
N560 H566 0.984 . S
N560 H567 0.984 1_655 S
N561 C554 1.356 . S
N561 H564 0.984 . S
N561 H565 0.985 . S
H562 N557 0.984 . S
H563 N557 0.985 . S
H564 N561 0.984 . S
H565 N561 0.985 . S
H566 N560 0.984 . S
H567 N560 0.984 1_455 S
H568 N556 0.984 . S
H569 N556 0.985 . S
C570 C571 1.363 . S
C570 C576 1.379 . S
C570 N578 1.356 . S
C571 C570 1.363 . S
C571 C577 1.363 . S
C572 C573 1.363 . S
C572 C577 1.379 . S
C572 N579 1.356 1_545 S
C573 C572 1.363 . S
C573 C576 1.363 . S
N574 C576 1.356 . S
N574 H586 0.984 . S
N574 H587 0.985 . S
N575 C577 1.356 1_565 S
N575 H580 0.984 . S
N575 H581 0.985 . S
C576 C570 1.379 . S
C576 C573 1.363 . S
C576 N574 1.356 . S
C577 C571 1.363 . S
C577 C572 1.379 . S
C577 N575 1.356 1_545 S
N578 C570 1.356 . S
N578 H584 0.984 . S
N578 H585 0.984 . S
N579 C572 1.356 1_565 S
N579 H582 0.984 . S
N579 H583 0.985 . S
H580 N575 0.984 . S
H581 N575 0.985 . S
H582 N579 0.984 . S
H583 N579 0.985 . S
H584 N578 0.984 . S
H585 N578 0.984 . S
H586 N574 0.984 . S
H587 N574 0.985 . S
C588 C589 1.363 . S
C588 C594 1.379 . S
C588 N596 1.356 . S
C589 C588 1.363 . S
C589 C595 1.363 . S
C590 C591 1.363 . S
C590 C595 1.379 . S
C590 N597 1.356 . S
C591 C590 1.363 . S
C591 C594 1.363 . S
N592 C594 1.356 . S
N592 H604 0.984 . S
N592 H605 0.985 . S
N593 C595 1.356 . S
N593 H598 0.984 . S
N593 H599 0.985 . S
C594 C588 1.379 . S
C594 C591 1.363 . S
C594 N592 1.356 . S
C595 C589 1.363 . S
C595 C590 1.379 . S
C595 N593 1.356 . S
N596 C588 1.356 . S
N596 H602 0.984 . S
N596 H603 0.984 . S
N597 C590 1.356 . S
N597 H600 0.984 . S
N597 H601 0.985 . S
H598 N593 0.984 . S
H599 N593 0.985 . S
H600 N597 0.984 . S
H601 N597 0.985 . S
H602 N596 0.984 . S
H603 N596 0.984 . S
H604 N592 0.984 . S
H605 N592 0.985 . S
C606 C607 1.363 . S
C606 C612 1.379 . S
C606 N614 1.356 . S
C607 C606 1.363 . S
C607 C613 1.363 1_545 S
C608 C609 1.363 1_565 S
C608 C613 1.379 . S
C608 N615 1.356 . S
C609 C608 1.363 1_545 S
C609 C612 1.363 . S
N610 C612 1.356 . S
N610 H622 0.984 . S
N610 H623 0.985 . S
N611 C613 1.356 . S
N611 H616 0.984 . S
N611 H617 0.985 . S
C612 C606 1.379 . S
C612 C609 1.363 . S
C612 N610 1.356 . S
C613 C607 1.363 1_565 S
C613 C608 1.379 . S
C613 N611 1.356 . S
N614 C606 1.356 . S
N614 H620 0.984 . S
N614 H621 0.984 . S
N615 C608 1.356 . S
N615 H618 0.984 . S
N615 H619 0.985 . S
H616 N611 0.984 . S
H617 N611 0.985 . S
H618 N615 0.984 . S
H619 N615 0.985 . S
H620 N614 0.984 . S
H621 N614 0.984 . S
H622 N610 0.984 . S
H623 N610 0.985 . S
C624 C625 1.363 . S
C624 C630 1.379 . S
C624 N632 1.356 . S
C625 C624 1.363 . S
C625 C631 1.363 . S
C626 C627 1.363 . S
C626 C631 1.379 . S
C626 N633 1.356 . S
C627 C626 1.363 . S
C627 C630 1.363 . S
N628 C630 1.356 . S
N628 H640 0.984 . S
N628 H641 0.985 . S
N629 C631 1.356 . S
N629 H634 0.984 . S
N629 H635 0.985 . S
C630 C624 1.379 . S
C630 C627 1.363 . S
C630 N628 1.356 . S
C631 C625 1.363 . S
C631 C626 1.379 . S
C631 N629 1.356 . S
N632 C624 1.356 . S
N632 H638 0.984 . S
N632 H639 0.984 . S
N633 C626 1.356 . S
N633 H636 0.984 . S
N633 H637 0.985 . S
H634 N629 0.984 . S
H635 N629 0.985 . S
H636 N633 0.984 . S
H637 N633 0.985 . S
H638 N632 0.984 . S
H639 N632 0.984 . S
H640 N628 0.984 . S
H641 N628 0.985 . S
C642 C643 1.363 1_655 S
C642 C648 1.379 . S
C642 N650 1.356 . S
C643 C642 1.363 1_455 S
C643 C649 1.363 . S
C644 C645 1.363 . S
C644 C649 1.379 . S
C644 N651 1.356 . S
C645 C644 1.363 . S
C645 C648 1.363 1_455 S
N646 C648 1.356 . S
N646 H658 0.984 . S
N646 H659 0.985 . S
N647 C649 1.356 . S
N647 H652 0.984 . S
N647 H653 0.985 . S
C648 C642 1.379 . S
C648 C645 1.363 1_655 S
C648 N646 1.356 . S
C649 C643 1.363 . S
C649 C644 1.379 . S
C649 N647 1.356 . S
N650 C642 1.356 . S
N650 H656 0.984 . S
N650 H657 0.984 . S
N651 C644 1.356 . S
N651 H654 0.984 . S
N651 H655 0.985 . S
H652 N647 0.984 . S
H653 N647 0.985 . S
H654 N651 0.984 . S
H655 N651 0.985 . S
H656 N650 0.984 . S
H657 N650 0.984 . S
H658 N646 0.984 . S
H659 N646 0.985 . S
C337 C10 3.118 . S
C339 C325 3.023 . S
C355 C59 3.172 . S
C357 C253 3.079 . S
C373 C90 3.117 . S
C375 C289 3.022 . S
C391 C19 3.170 . S
C393 C301 3.121 . S
C411 C229 3.061 . S
C409 C50 3.115 . S
C429 C265 3.121 . S
C427 C99 3.170 . S
C445 C46 0.664 . S
C447 C181 0.628 . S
C463 C95 0.621 . S
C465 C193 0.542 . S
C481 C6 0.659 . S
C483 C121 0.641 . S
C501 C157 0.542 . S
C499 C55 0.621 . S
C519 C217 0.626 . S
C517 C86 0.663 . S
C535 C15 0.621 . S
C537 C145 0.541 . S
C555 C223 1.034 . S
C553 C9 1.025 . S
C571 C49 1.022 . S
C573 C151 1.021 . S
C589 C89 1.024 . S
C591 C187 1.034 . S
C609 C295 1.808 . S
C607 C58 1.726 . S
C627 C331 1.780 1_556 S
C625 C98 1.726 . S
C643 C18 1.727 . S
C645 C259 1.813 . S
