# Generated by pormake.
# Topology csq, (4,8)-cn, num edge types: 1
# Building blocks:
#     Node 0, Type 0, BuildingBlock: AZAVOO_clean_linker_0, # of connection points: 4
#     Node 1, Type 0, BuildingBlock: AZAVOO_clean_linker_0, # of connection points: 4
#     Node 2, Type 0, BuildingBlock: AZAVOO_clean_linker_0, # of connection points: 4
#     Node 3, Type 0, BuildingBlock: AZAVOO_clean_linker_0, # of connection points: 4
#     Node 4, Type 0, BuildingBlock: AZAVOO_clean_linker_0, # of connection points: 4
#     Node 5, Type 0, BuildingBlock: AZAVOO_clean_linker_0, # of connection points: 4
#     Node 6, Type 1, BuildingBlock: TAGTUT_clean_sbu_3, # of connection points: 8
#     Node 7, Type 1, BuildingBlock: TAGTUT_clean_sbu_3, # of connection points: 8
#     Node 8, Type 1, BuildingBlock: TAGTUT_clean_sbu_3, # of connection points: 8
#     Edge 9, Type (0, 1), BuildingBlock: MIFKUJ_clean_linker_0, # of connection points: 2
#     Edge 10, Type (0, 1), BuildingBlock: MIFKUJ_clean_linker_0, # of connection points: 2
#     Edge 11, Type (0, 1), BuildingBlock: MIFKUJ_clean_linker_0, # of connection points: 2
#     Edge 12, Type (0, 1), BuildingBlock: MIFKUJ_clean_linker_0, # of connection points: 2
#     Edge 13, Type (0, 1), BuildingBlock: MIFKUJ_clean_linker_0, # of connection points: 2
#     Edge 14, Type (0, 1), BuildingBlock: MIFKUJ_clean_linker_0, # of connection points: 2
#     Edge 15, Type (0, 1), BuildingBlock: MIFKUJ_clean_linker_0, # of connection points: 2
#     Edge 16, Type (0, 1), BuildingBlock: MIFKUJ_clean_linker_0, # of connection points: 2
#     Edge 17, Type (0, 1), BuildingBlock: MIFKUJ_clean_linker_0, # of connection points: 2
#     Edge 18, Type (0, 1), BuildingBlock: MIFKUJ_clean_linker_0, # of connection points: 2
#     Edge 19, Type (0, 1), BuildingBlock: MIFKUJ_clean_linker_0, # of connection points: 2
#     Edge 20, Type (0, 1), BuildingBlock: MIFKUJ_clean_linker_0, # of connection points: 2
#     Edge 21, Type (0, 1), BuildingBlock: MIFKUJ_clean_linker_0, # of connection points: 2
#     Edge 22, Type (0, 1), BuildingBlock: MIFKUJ_clean_linker_0, # of connection points: 2
#     Edge 23, Type (0, 1), BuildingBlock: MIFKUJ_clean_linker_0, # of connection points: 2
#     Edge 24, Type (0, 1), BuildingBlock: MIFKUJ_clean_linker_0, # of connection points: 2
#     Edge 25, Type (0, 1), BuildingBlock: MIFKUJ_clean_linker_0, # of connection points: 2
#     Edge 26, Type (0, 1), BuildingBlock: MIFKUJ_clean_linker_0, # of connection points: 2
#     Edge 27, Type (0, 1), BuildingBlock: MIFKUJ_clean_linker_0, # of connection points: 2
#     Edge 28, Type (0, 1), BuildingBlock: MIFKUJ_clean_linker_0, # of connection points: 2
#     Edge 29, Type (0, 1), BuildingBlock: MIFKUJ_clean_linker_0, # of connection points: 2
#     Edge 30, Type (0, 1), BuildingBlock: MIFKUJ_clean_linker_0, # of connection points: 2
#     Edge 31, Type (0, 1), BuildingBlock: MIFKUJ_clean_linker_0, # of connection points: 2
#     Edge 32, Type (0, 1), BuildingBlock: MIFKUJ_clean_linker_0, # of connection points: 2
# Relax obj value: 0.128
# Max RMSD: 0.242
# Mean RMSD: 0.203
data_MOF--net-csq--node1-TAGTUT_clean_sbu_3--node2-AZAVOO_clean_linker_0--edge1-MIFKUJ_clean_linker_0
_symmetry_space_group_name_H-M    P1
_symmetry_Int_Tables_number       1
_symmetry_cell_setting            triclinic
loop_
_symmetry_equiv_pos_as_xyz
'x, y, z'
_cell_length_a     70.945604
_cell_length_b     70.20957
_cell_length_c     28.611117
_cell_angle_alpha  92.263033
_cell_angle_beta   92.286229
_cell_angle_gamma 119.9234
loop_
_atom_site_label
_atom_site_type_symbol
_atom_site_fract_x
_atom_site_fract_y
_atom_site_fract_z
_atom_type_partial_charge
H0 H 0.16385 0.40049 0.42993 0.0
H1 H 0.36202 0.46059 0.16923 0.0
H2 H 0.16808 0.41441 0.19486 0.0
H3 H 0.14329 0.4252 0.22663 0.0
H4 H 0.18309 0.49073 0.17978 0.0
H5 H 0.20915 0.48043 0.15402 0.0
H6 H 0.19683 0.39801 0.24701 0.0
H7 H 0.18109 0.39252 0.32327 0.0
H8 H 0.20265 0.46204 0.34047 0.0
H9 H 0.21855 0.46735 0.26437 0.0
H10 H 0.23905 0.39691 0.20385 0.0
H11 H 0.26767 0.39475 0.2501 0.0
H12 H 0.28595 0.45715 0.3234 0.0
H13 H 0.25792 0.45951 0.27626 0.0
H14 H 0.25494 0.40913 0.11253 0.0
H15 H 0.29 0.41046 0.10875 0.0
H16 H 0.32179 0.47367 0.1877 0.0
H17 H 0.28668 0.47225 0.19061 0.0
H18 H 0.2378 0.42125 0.04001 0.0
H19 H 0.2683 0.43218 0.99006 0.0
H20 H 0.29893 0.4985 0.05408 0.0
H21 H 0.26856 0.48726 0.10432 0.0
H22 H 0.18286 0.41151 0.07666 0.0
H23 H 0.15997 0.41245 0.01172 0.0
H24 H 0.2034 0.48256 0.00796 0.0
H25 H 0.22646 0.48142 0.07308 0.0
O26 O 0.17032 0.40308 0.4 0.0
O27 O 0.1823 0.43903 0.40779 0.0
O28 O 0.33119 0.42805 0.12605 0.0
O29 O 0.34804 0.45988 0.1692 0.0
C30 C 0.20882 0.44205 0.16539 0.0
C31 C 0.21793 0.4362 0.20341 0.0
C32 C 0.23639 0.43401 0.19733 0.0
C33 C 0.24695 0.43957 0.1551 0.0
C34 C 0.23802 0.44544 0.11727 0.0
C35 C 0.21833 0.44549 0.1216 0.0
C36 C 0.19076 0.4467 0.17296 0.0
C37 C 0.17136 0.43107 0.19129 0.0
C38 C 0.157 0.4373 0.20905 0.0
C39 C 0.16124 0.45914 0.20712 0.0
C40 C 0.17955 0.47404 0.18397 0.0
C41 C 0.19431 0.46802 0.16797 0.0
C42 C 0.20873 0.43304 0.2501 0.0
C43 C 0.19822 0.41204 0.26742 0.0
C44 C 0.18919 0.40895 0.31092 0.0
C45 C 0.19057 0.42683 0.33793 0.0
C46 C 0.20129 0.44791 0.32056 0.0
C47 C 0.21035 0.45099 0.2771 0.0
C48 C 0.24667 0.42849 0.23644 0.0
C49 C 0.24862 0.4096 0.2314 0.0
C50 C 0.26501 0.40845 0.25747 0.0
C51 C 0.27914 0.42594 0.28963 0.0
C52 C 0.27519 0.4434 0.29892 0.0
C53 C 0.25909 0.44473 0.27224 0.0
C54 C 0.26834 0.44063 0.15163 0.0
C55 C 0.26954 0.42332 0.12857 0.0
C56 C 0.28957 0.42411 0.1266 0.0
C57 C 0.30871 0.44219 0.14793 0.0
C58 C 0.30739 0.45953 0.17087 0.0
C59 C 0.28738 0.45877 0.1726 0.0
C60 C 0.25092 0.45347 0.07564 0.0
C61 C 0.25058 0.43836 0.0416 0.0
C62 C 0.26816 0.44463 0.01339 0.0
C63 C 0.28629 0.46612 0.01886 0.0
C64 C 0.28545 0.48172 0.04973 0.0
C65 C 0.2679 0.47544 0.07782 0.0
C66 C 0.20619 0.4464 0.07951 0.0
C67 C 0.18762 0.42701 0.06128 0.0
C68 C 0.17466 0.42755 0.02411 0.0
C69 C 0.17996 0.44757 0.0049 0.0
C70 C 0.19896 0.46694 0.02236 0.0
C71 C 0.21213 0.46632 0.05927 0.0
C72 C 0.18085 0.42344 0.38401 0.0
C73 C 0.32995 0.44289 0.14688 0.0
H74 H 0.82486 0.26665 0.39659 0.0
H75 H 0.67339 0.08519 0.05064 0.0
H76 H 0.79984 0.2782 0.15114 0.0
H77 H 0.82857 0.30687 0.20476 0.0
H78 H 0.87311 0.28539 0.16261 0.0
H79 H 0.84405 0.25638 0.10914 0.0
H80 H 0.77558 0.24275 0.21437 0.0
H81 H 0.79127 0.25368 0.29534 0.0
H82 H 0.83996 0.23619 0.26274 0.0
H83 H 0.82402 0.22523 0.18197 0.0
H84 H 0.73435 0.20501 0.15968 0.0
H85 H 0.70895 0.17788 0.2097 0.0
H86 H 0.75262 0.15209 0.22913 0.0
H87 H 0.77766 0.17902 0.17704 0.0
H88 H 0.72184 0.19493 0.0598 0.0
H89 H 0.68849 0.1588 0.05005 0.0
H90 H 0.72713 0.12716 0.06546 0.0
H91 H 0.76023 0.16328 0.07532 0.0
H92 H 0.75535 0.23998 0.00463 0.0
H93 H 0.73153 0.22738 0.93264 0.0
H94 H 0.74383 0.17321 0.91293 0.0
H95 H 0.76867 0.18686 0.98293 0.0
H96 H 0.796 0.2795 0.05819 0.0
H97 H 0.81503 0.30735 0.00253 0.0
H98 H 0.83202 0.26343 0.92975 0.0
H99 H 0.81373 0.23606 0.98702 0.0
O100 O 0.81855 0.26166 0.36481 0.0
O101 O 0.84278 0.25175 0.34668 0.0
O102 O 0.6672 0.11681 0.05696 0.0
O103 O 0.68631 0.09964 0.05194 0.0
C104 C 0.80095 0.24379 0.10918 0.0
C105 C 0.79021 0.22821 0.14256 0.0
C106 C 0.7711 0.20835 0.12883 0.0
C107 C 0.76324 0.2033 0.08133 0.0
C108 C 0.77381 0.21885 0.04771 0.0
C109 C 0.79271 0.23928 0.06175 0.0
C110 C 0.81992 0.26529 0.12623 0.0
C111 C 0.81607 0.28032 0.15181 0.0
C112 C 0.83236 0.29644 0.18283 0.0
C113 C 0.85281 0.29795 0.18819 0.0
C114 C 0.85741 0.28445 0.15894 0.0
C115 C 0.84095 0.26808 0.12814 0.0
C116 C 0.79866 0.23318 0.1925 0.0
C117 C 0.78947 0.24105 0.22502 0.0
C118 C 0.79853 0.24737 0.27114 0.0
C119 C 0.81691 0.24586 0.28549 0.0
C120 C 0.82582 0.23757 0.25286 0.0
C121 C 0.81673 0.23125 0.20677 0.0
C122 C 0.75769 0.19381 0.16466 0.0
C123 C 0.73854 0.19368 0.17529 0.0
C124 C 0.72413 0.17824 0.20417 0.0
C125 C 0.72873 0.16278 0.22346 0.0
C126 C 0.74848 0.16361 0.21433 0.0
C127 C 0.76288 0.17905 0.18503 0.0
C128 C 0.74341 0.18168 0.06803 0.0
C129 C 0.72306 0.18016 0.06011 0.0
C130 C 0.70406 0.15953 0.05499 0.0
C131 C 0.70516 0.14011 0.05748 0.0
C132 C 0.72569 0.14176 0.06348 0.0
C133 C 0.74463 0.16236 0.0689 0.0
C134 C 0.76361 0.21423 0.99921 0.0
C135 C 0.75352 0.22589 0.98369 0.0
C136 C 0.73964 0.21845 0.94286 0.0
C137 C 0.73532 0.19898 0.91725 0.0
C138 C 0.74681 0.18835 0.9312 0.0
C139 C 0.76096 0.19604 0.97152 0.0
C140 C 0.80375 0.25589 0.02706 0.0
C141 C 0.80403 0.27601 0.0305 0.0
C142 C 0.81468 0.29179 0.99825 0.0
C143 C 0.82511 0.28767 0.96162 0.0
C144 C 0.82447 0.2673 0.95791 0.0
C145 C 0.81391 0.25157 0.99038 0.0
C146 C 0.82689 0.25319 0.33413 0.0
C147 C 0.68503 0.11821 0.05526 0.0
H148 H 0.60956 0.84803 0.79528 0.0
H149 H 0.54198 0.63971 0.05035 0.0
H150 H 0.58864 0.8371 0.04339 0.0
H151 H 0.58372 0.86387 0.99995 0.0
H152 H 0.51425 0.81895 0.98635 0.0
H153 H 0.51928 0.79235 0.03005 0.0
H154 H 0.60381 0.81047 0.97661 0.0
H155 H 0.61279 0.82886 0.90311 0.0
H156 H 0.54421 0.80374 0.86777 0.0
H157 H 0.53548 0.78525 0.94106 0.0
H158 H 0.60028 0.76212 0.9948 0.0
H159 H 0.60651 0.74584 0.92379 0.0
H160 H 0.54414 0.73243 0.86151 0.0
H161 H 0.53758 0.74733 0.93335 0.0
H162 H 0.59064 0.74854 0.09675 0.0
H163 H 0.59054 0.71385 0.1038 0.0
H164 H 0.52876 0.67929 0.02192 0.0
H165 H 0.52901 0.71409 0.01553 0.0
H166 H 0.57893 0.76791 0.17101 0.0
H167 H 0.57077 0.7407 0.2294 0.0
H168 H 0.50546 0.70126 0.16442 0.0
H169 H 0.51413 0.72815 0.10545 0.0
H170 H 0.58002 0.82178 0.13771 0.0
H171 H 0.57249 0.83845 0.20586 0.0
H172 H 0.50726 0.78245 0.20235 0.0
H173 H 0.5148 0.76602 0.13348 0.0
O174 O 0.60563 0.84099 0.82458 0.0
O175 O 0.57007 0.82606 0.80631 0.0
O176 O 0.57422 0.67222 0.08997 0.0
O177 O 0.54252 0.65369 0.04782 0.0
C178 C 0.55774 0.79382 0.04716 0.0
C179 C 0.56373 0.78528 0.00857 0.0
C180 C 0.56445 0.7657 0.0115 0.0
C181 C 0.55952 0.75468 0.05321 0.0
C182 C 0.5536 0.76312 0.09215 0.0
C183 C 0.55289 0.78288 0.08936 0.0
C184 C 0.55432 0.81276 0.03989 0.0
C185 C 0.57227 0.83353 0.03321 0.0
C186 C 0.56945 0.8487 0.00793 0.0
C187 C 0.54865 0.84323 0.98888 0.0
C188 C 0.53049 0.82341 -0.0 0.0
C189 C 0.5333 0.80836 0.02569 0.0
C190 C 0.56904 0.79672 0.96425 0.0
C191 C 0.59078 0.80903 0.95294 0.0
C192 C 0.59585 0.81951 0.911 0.0
C193 C 0.57921 0.81776 0.87958 0.0
C194 C 0.55741 0.80542 0.89118 0.0
C195 C 0.55238 0.79494 0.93309 0.0
C196 C 0.56846 0.75579 0.96912 0.0
C197 C 0.58796 0.75548 0.96583 0.0
C198 C 0.5916 0.74648 0.92504 0.0
C199 C 0.57582 0.73784 0.88693 0.0
C200 C 0.55649 0.73861 0.89038 0.0
C201 C 0.55275 0.74723 0.93127 0.0
C202 C 0.55982 0.73376 0.05571 0.0
C203 C 0.57713 0.73345 0.08033 0.0
C204 C 0.57702 0.71362 0.08429 0.0
C205 C 0.55961 0.69378 0.06348 0.0
C206 C 0.5424 0.69425 0.0384 0.0
C207 C 0.54252 0.71409 0.03456 0.0
C208 C 0.54707 0.7501 0.13425 0.0
C209 C 0.56267 0.75372 0.17038 0.0
C210 C 0.55796 0.73807 0.20361 0.0
C211 C 0.53752 0.71856 0.20131 0.0
C212 C 0.52151 0.7158 0.16674 0.0
C213 C 0.52629 0.73134 0.13344 0.0
C214 C 0.54802 0.79263 0.13078 0.0
C215 C 0.56408 0.81314 0.15156 0.0
C216 C 0.55975 0.82263 0.19041 0.0
C217 C 0.5393 0.81171 0.20943 0.0
C218 C 0.52325 0.79109 0.18877 0.0
C219 C 0.52753 0.7817 0.1495 0.0
C220 C 0.58461 0.82853 0.83464 0.0
C221 C 0.55931 0.67264 0.06798 0.0
H222 H 0.81827 0.64894 0.37542 0.0
H223 H 0.93084 0.59693 0.95316 0.0
H224 H 0.76778 0.55937 0.13015 0.0
H225 H 0.73698 0.55415 0.17413 0.0
H226 H 0.75855 0.62349 0.17028 0.0
H227 H 0.78943 0.62854 0.12582 0.0
H228 H 0.80499 0.59086 0.21013 0.0
H229 H 0.80722 0.60949 0.28592 0.0
H230 H 0.84488 0.67256 0.22723 0.0
H231 H 0.84229 0.65369 0.15138 0.0
H232 H 0.85003 0.59927 0.19405 0.0
H233 H 0.88646 0.61018 0.22732 0.0
H234 H 0.91472 0.65575 0.11951 0.0
H235 H 0.87801 0.64549 0.08751 0.0
H236 H 0.85323 0.57263 0.10241 0.0
H237 H 0.88311 0.56814 0.07485 0.0
H238 H 0.89437 0.61523 0.97113 0.0
H239 H 0.86469 0.61981 0.9996 0.0
H240 H 0.81008 0.54481 0.03819 0.0
H241 H 0.8225 0.52872 0.97811 0.0
H242 H 0.83645 0.58298 0.89245 0.0
H243 H 0.82362 0.59873 0.95257 0.0
H244 H 0.76941 0.54302 0.03916 0.0
H245 H 0.73384 0.52749 0.99531 0.0
H246 H 0.74771 0.59334 0.96891 0.0
H247 H 0.78273 0.60855 0.01378 0.0
O248 O 0.81768 0.64193 0.34522 0.0
O249 O 0.83726 0.67394 0.31357 0.0
O250 O 0.91382 0.57579 0.0214 0.0
O251 O 0.91934 0.59882 0.96552 0.0
C252 C 0.80091 0.59748 0.1032 0.0
C253 C 0.82141 0.60958 0.12887 0.0
C254 C 0.84 0.61036 0.11085 0.0
C255 C 0.83792 0.59827 0.06843 0.0
C256 C 0.81758 0.58651 0.04241 0.0
C257 C 0.79924 0.58668 0.05906 0.0
C258 C 0.78085 0.59432 0.12466 0.0
C259 C 0.7656 0.57335 0.13782 0.0
C260 C 0.748 0.57041 0.16304 0.0
C261 C 0.74535 0.58842 0.17588 0.0
C262 C 0.7603 0.60934 0.1614 0.0
C263 C 0.77785 0.61223 0.1358 0.0
C264 C 0.82334 0.62093 0.17522 0.0
C265 C 0.81365 0.6087 0.21369 0.0
C266 C 0.81499 0.61939 0.25696 0.0
C267 C 0.82619 0.64252 0.26262 0.0
C268 C 0.83611 0.65472 0.22405 0.0
C269 C 0.8347 0.644 0.18074 0.0
C270 C 0.86137 0.62154 0.13831 0.0
C271 C 0.86401 0.61243 0.17903 0.0
C272 C 0.88485 0.6186 0.19781 0.0
C273 C 0.90332 0.63367 0.17563 0.0
C274 C 0.90069 0.64406 0.13706 0.0
C275 C 0.87981 0.63827 0.11895 0.0
C276 C 0.85676 0.59644 0.0528 0.0
C277 C 0.8623 0.58207 0.07398 0.0
C278 C 0.87931 0.5795 0.05808 0.0
C279 C 0.89105 0.59124 0.02058 0.0
C280 C 0.88562 0.60588 0.99993 0.0
C281 C 0.86868 0.60852 0.01607 0.0
C282 C 0.81596 0.57293 0.99973 0.0
C283 C 0.81472 0.5526 0.00538 0.0
C284 C 0.82223 0.54367 0.9714 0.0
C285 C 0.83101 0.55489 0.93112 0.0
C286 C 0.8298 0.57392 0.92308 0.0
C287 C 0.82227 0.58287 0.95721 0.0
C288 C 0.77858 0.57688 0.02945 0.0
C289 C 0.76476 0.554 0.02344 0.0
C290 C 0.74449 0.54519 0.99841 0.0
C291 C 0.73783 0.55918 0.97897 0.0
C292 C 0.75208 0.5821 0.98427 0.0
C293 C 0.77219 0.59083 0.00945 0.0
C294 C 0.82744 0.65382 0.30856 0.0
C295 C 0.90876 0.58812 0.00273 0.0
H296 H 0.26653 0.85635 0.38536 0.0
H297 H 0.09939 0.65872 0.0716 0.0
H298 H 0.24349 0.85639 0.13729 0.0
H299 H 0.27899 0.88466 0.17284 0.0
H300 H 0.30641 0.84411 0.13138 0.0
H301 H 0.27125 0.81684 0.09334 0.0
H302 H 0.21119 0.82227 0.21059 0.0
H303 H 0.22987 0.83822 0.28795 0.0
H304 H 0.27644 0.81729 0.25943 0.0
H305 H 0.25737 0.80107 0.18263 0.0
H306 H 0.16372 0.77304 0.16975 0.0
H307 H 0.14705 0.75149 0.23717 0.0
H308 H 0.20208 0.74166 0.25897 0.0
H309 H 0.21817 0.76227 0.19037 0.0
H310 H 0.15193 0.768 0.06532 0.0
H311 H 0.1181 0.73251 0.05322 0.0
H312 H 0.15395 0.69905 0.08388 0.0
H313 H 0.18775 0.73464 0.09479 0.0
H314 H 0.17507 0.79789 0.00273 0.0
H315 H 0.15221 0.77796 0.93093 0.0
H316 H 0.18467 0.73991 0.92112 0.0
H317 H 0.20694 0.75941 0.99327 0.0
H318 H 0.22775 0.84839 0.04448 0.0
H319 H 0.25051 0.87436 0.98844 0.0
H320 H 0.2648 0.82567 0.93009 0.0
H321 H 0.24245 0.79994 0.98713 0.0
O322 O 0.25909 0.8495 0.3551 0.0
O323 O 0.283 0.83899 0.33799 0.0
O324 O 0.09578 0.69029 0.04792 0.0
O325 O 0.11264 0.67291 0.0743 0.0
C326 C 0.23282 0.81509 0.10457 0.0
C327 C 0.22263 0.80255 0.14275 0.0
C328 C 0.20258 0.7827 0.13509 0.0
C329 C 0.19274 0.77543 0.08908 0.0
C330 C 0.20278 0.7883 0.05099 0.0
C331 C 0.22275 0.80826 0.05881 0.0
C332 C 0.25488 0.8346 0.11313 0.0
C333 C 0.25745 0.85416 0.13418 0.0
C334 C 0.27768 0.87009 0.15514 0.0
C335 C 0.29547 0.8664 0.15635 0.0
C336 C 0.29321 0.84766 0.13114 0.0
C337 C 0.27309 0.83198 0.1093 0.0
C338 C 0.23299 0.81063 0.19102 0.0
C339 C 0.22528 0.82095 0.22139 0.0
C340 C 0.23605 0.83013 0.26543 0.0
C341 C 0.25473 0.82915 0.27977 0.0
C342 C 0.26215 0.8184 0.24946 0.0
C343 C 0.2513 0.80914 0.20557 0.0
C344 C 0.19222 0.76933 0.17531 0.0
C345 C 0.17205 0.76603 0.18878 0.0
C346 C 0.16261 0.75383 0.22724 0.0
C347 C 0.17344 0.74517 0.2533 0.0
C348 C 0.19359 0.74845 0.23973 0.0
C349 C 0.20277 0.76021 0.20069 0.0
C350 C 0.17229 0.75387 0.08063 0.0
C351 C 0.15248 0.75298 0.06876 0.0
C352 C 0.13318 0.73269 0.06208 0.0
C353 C 0.13332 0.71295 0.06779 0.0
C354 C 0.15325 0.71394 0.07943 0.0
C355 C 0.17257 0.73423 0.08566 0.0
C356 C 0.19262 0.78006 0.00294 0.0
C357 C 0.17764 0.7857 0.98421 0.0
C358 C 0.16461 0.77432 0.94345 0.0
C359 C 0.16683 0.75755 0.92053 0.0
C360 C 0.18292 0.75304 0.93771 0.0
C361 C 0.1956 0.76409 0.97887 0.0
C362 C 0.23341 0.82227 0.01977 0.0
C363 C 0.23551 0.84321 0.01908 0.0
C364 C 0.24854 0.85802 0.98726 0.0
C365 C 0.25945 0.85201 0.95516 0.0
C366 C 0.2564 0.83061 0.95423 0.0
C367 C 0.2436 0.8159 0.98661 0.0
C368 C 0.2665 0.83945 0.326 0.0
C369 C 0.11276 0.69142 0.06255 0.0
H370 H 0.49412 0.29901 0.88606 0.0
H371 H 0.43568 0.09535 0.20969 0.0
H372 H 0.48048 0.2853 0.14328 0.0
H373 H 0.48449 0.31459 0.09451 0.0
H374 H 0.41844 0.27277 0.03526 0.0
H375 H 0.41422 0.24424 0.08662 0.0
H376 H 0.49269 0.26324 0.0679 0.0
H377 H 0.50009 0.28145 0.99412 0.0
H378 H 0.43246 0.23952 0.94504 0.0
H379 H 0.42531 0.22156 0.0191 0.0
H380 H 0.49632 0.21915 0.10908 0.0
H381 H 0.5131 0.20848 0.04778 0.0
H382 H 0.45262 0.17914 0.96168 0.0
H383 H 0.43578 0.18941 0.02368 0.0
H384 H 0.4853 0.20428 0.19577 0.0
H385 H 0.48607 0.17186 0.2217 0.0
H386 H 0.42159 0.12995 0.15448 0.0
H387 H 0.421 0.16257 0.12912 0.0
H388 H 0.47608 0.23067 0.2592 0.0
H389 H 0.47628 0.20894 0.3234 0.0
H390 H 0.40945 0.15974 0.28203 0.0
H391 H 0.40981 0.18134 0.21675 0.0
H392 H 0.47535 0.27228 0.22377 0.0
H393 H 0.47084 0.29299 0.28848 0.0
H394 H 0.40192 0.24528 0.28228 0.0
H395 H 0.4066 0.22498 0.21603 0.0
O396 O 0.49107 0.29097 0.91406 0.0
O397 O 0.45642 0.26823 0.88941 0.0
O398 O 0.4696 0.1306 0.23078 0.0
O399 O 0.43612 0.1084 0.19846 0.0
C400 C 0.44794 0.24268 0.1308 0.0
C401 C 0.45355 0.23203 0.09555 0.0
C402 C 0.45579 0.21376 0.10563 0.0
C403 C 0.45148 0.20543 0.15028 0.0
C404 C 0.44585 0.21598 0.18573 0.0
C405 C 0.44452 0.23492 0.17631 0.0
C406 C 0.44702 0.26261 0.11876 0.0
C407 C 0.46643 0.283 0.12203 0.0
C408 C 0.46888 0.29952 0.09296 0.0
C409 C 0.45208 0.2958 0.05946 0.0
C410 C 0.43179 0.27633 0.06037 0.0
C411 C 0.42924 0.25998 0.09016 0.0
C412 C 0.45849 0.24113 0.0487 0.0
C413 C 0.4796 0.25783 0.04085 0.0
C414 C 0.48373 0.26826 0.9988 0.0
C415 C 0.46683 0.26204 0.9638 0.0
C416 C 0.44583 0.24475 0.9713 0.0
C417 C 0.44172 0.23439 0.01341 0.0
C418 C 0.46484 0.20496 0.07076 0.0
C419 C 0.48659 0.21002 0.07736 0.0
C420 C 0.49616 0.20406 0.04234 0.0
C421 C 0.48419 0.19325 0.99995 0.0
C422 C 0.46226 0.18778 0.99383 0.0
C423 C 0.4526 0.19347 0.02918 0.0
C424 C 0.4531 0.18572 0.16057 0.0
C425 C 0.47149 0.18806 0.18617 0.0
C426 C 0.47184 0.16952 0.20108 0.0
C427 C 0.45383 0.14831 0.19037 0.0
C428 C 0.4357 0.14603 0.16345 0.0
C429 C 0.43537 0.16461 0.14862 0.0
C430 C 0.44297 0.20756 0.23325 0.0
C431 C 0.46118 0.21569 0.26531 0.0
C432 C 0.46126 0.20312 0.30195 0.0
C433 C 0.44301 0.18228 0.30737 0.0
C434 C 0.42397 0.17542 0.27819 0.0
C435 C 0.42398 0.18793 0.24135 0.0
C436 C 0.44125 0.2474 0.21482 0.0
C437 C 0.45924 0.26646 0.23602 0.0
C438 C 0.45665 0.27806 0.27347 0.0
C439 C 0.43602 0.27069 0.29086 0.0
C440 C 0.41797 0.25147 0.26949 0.0
C441 C 0.4206 0.23986 0.23179 0.0
C442 C 0.47105 0.27382 0.92008 0.0
C443 C 0.45376 0.12863 0.20774 0.0
C444 C 0.04135 0.49943 0.54682 0.0
C445 C 0.02542 0.46935 0.71544 0.0
C446 C 0.96224 0.46129 0.68354 0.0
Mg447 Mg 0.02375 0.52768 0.49386 0.0
Mg448 Mg 0.0046 0.55514 0.55089 0.0
O449 O 0.00231 0.52773 0.53796 0.0
Mg450 Mg 0.00866 0.51398 0.59154 0.0
O451 O 0.01544 0.49905 0.64149 0.0
Mg452 Mg 0.0016 0.46847 0.61037 0.0
Mg453 Mg 0.00755 0.50136 0.70225 0.0
C454 C 0.97397 0.5288 0.63032 0.0
O455 O 0.03003 0.54689 0.63567 0.0
O456 O 0.00886 0.54122 0.4389 0.0
O457 O 0.02184 0.53698 0.70955 0.0
O458 O 0.05011 0.56359 0.51465 0.0
O459 O 0.99536 0.55876 0.48151 0.0
O460 O 0.0382 0.58014 0.56342 0.0
O461 O 0.98759 0.48053 0.5508 0.0
O462 O 0.99771 0.49162 0.47874 0.0
C463 C 0.98705 0.47633 0.50637 0.0
C464 C 0.99912 0.55251 0.44204 0.0
O465 O 0.98024 0.51444 0.62878 0.0
O466 O 0.01836 0.46099 0.67319 0.0
O467 O 0.98207 0.54573 0.60584 0.0
O468 O 0.97034 0.45529 0.65086 0.0
O469 O 0.02326 0.48517 0.73316 0.0
O470 O 0.97325 0.48004 0.70598 0.0
O471 O 0.03648 0.51468 0.55229 0.0
O472 O 0.03184 0.48185 0.56888 0.0
C473 C 0.05339 0.58033 0.54065 0.0
C474 C 0.03082 0.55171 0.67985 0.0
C475 C 0.49342 0.03072 0.51732 0.0
C476 C 0.54869 0.00605 0.45351 0.0
C477 C 0.51073 0.94907 0.52791 0.0
Mg478 Mg 0.46822 0.01748 0.61253 0.0
Mg479 Mg 0.48909 0.00734 0.7059 0.0
O480 O 0.47991 0.99959 0.64225 0.0
Mg481 Mg 0.50141 0.00256 0.59574 0.0
O482 O 0.52117 0.00551 0.54547 0.0
Mg483 Mg 0.49897 0.988 0.49215 0.0
Mg484 Mg 0.54158 0.9966 0.55909 0.0
C485 C 0.5096 0.97702 0.68194 0.0
O486 O 0.53236 0.02875 0.64008 0.0
O487 O 0.44221 0.00421 0.66824 0.0
O488 O 0.55714 0.019 0.62105 0.0
O489 O 0.49043 0.04885 0.65997 0.0
O490 O 0.45739 0.99697 0.73074 0.0
O491 O 0.50839 0.04226 0.71658 0.0
O492 O 0.47272 0.97743 0.54611 0.0
O493 O 0.44794 0.987 0.56266 0.0
C494 C 0.45372 0.97515 0.5388 0.0
C495 C 0.44127 0.99725 0.70951 0.0
O496 O 0.50701 0.97742 0.63712 0.0
O497 O 0.52866 0.00096 0.44559 0.0
O498 O 0.50521 0.98821 0.7117 0.0
O499 O 0.50144 0.95683 0.50195 0.0
O500 O 0.55661 0.0052 0.49392 0.0
O501 O 0.5257 0.96134 0.5593 0.0
O502 O 0.49524 0.02771 0.56073 0.0
O503 O 0.49557 0.01882 0.48513 0.0
C504 C 0.50467 0.05557 0.69457 0.0
C505 C 0.55158 0.03112 0.64489 0.0
C506 C 0.53138 0.55327 0.67387 0.0
C507 C 0.46444 0.49224 0.75889 0.0
C508 C 0.48972 0.45044 0.71462 0.0
Mg509 Mg 0.55323 0.54804 0.58133 0.0
Mg510 Mg 0.52412 0.50817 0.5012 0.0
O511 O 0.53562 0.51537 0.56414 0.0
Mg512 Mg 0.51409 0.50671 0.61388 0.0
O513 O 0.49411 0.50003 0.6658 0.0
Mg514 Mg 0.51457 0.50658 0.72239 0.0
Mg515 Mg 0.46863 0.47269 0.66309 0.0
C516 C 0.49636 0.46192 0.54674 0.0
O517 O 0.48606 0.50195 0.56249 0.0
O518 O 0.57638 0.54885 0.52422 0.0
O519 O 0.45736 0.47329 0.59254 0.0
O520 O 0.53564 0.55776 0.52592 0.0
O521 O 0.55532 0.52036 0.47182 0.0
O522 O 0.51177 0.52939 0.47848 0.0
O523 O 0.54006 0.50981 0.66847 0.0
O524 O 0.56906 0.53798 0.63966 0.0
C525 C 0.56061 0.52372 0.67051 0.0
C526 C 0.57383 0.537 0.48632 0.0
O527 O 0.5013 0.47059 0.58907 0.0
O528 O 0.48535 0.50251 0.76745 0.0
O529 O 0.50188 0.47318 0.51024 0.0
O530 O 0.50378 0.46981 0.73164 0.0
O531 O 0.45515 0.48037 0.72081 0.0
O532 O 0.47516 0.44737 0.68295 0.0
O533 O 0.52764 0.54292 0.6337 0.0
O534 O 0.52619 0.54292 0.71146 0.0
C535 C 0.52081 0.5497 0.49245 0.0
C536 C 0.46596 0.48654 0.56007 0.0
H537 H 0.17436 0.5007 0.24716 0.0
H538 H 0.15399 0.51236 0.29452 0.0
H539 H 0.09838 0.4466 0.27876 0.0
H540 H 0.11771 0.43532 0.22634 0.0
H541 H 0.08359 0.47238 0.28434 0.0
H542 H 0.13844 0.46766 0.3769 0.0
H543 H 0.17549 0.47529 0.4006 0.0
H544 H 0.19686 0.54403 0.42524 0.0
H545 H 0.16 0.53686 0.40088 0.0
H546 H 0.0414 0.46403 0.50554 0.0
H547 H 0.06223 0.4629 0.44137 0.0
H548 H 0.09279 0.53335 0.43587 0.0
H549 H 0.0714 0.53472 0.50058 0.0
H550 H 0.12107 0.51053 0.43815 0.0
H551 H 0.05988 0.50953 0.3546 0.0
H552 H 0.02053 0.49593 0.34113 0.0
H553 H 0.00869 0.43041 0.31003 0.0
H554 H 0.04792 0.44348 0.32451 0.0
C555 C 0.15756 0.48874 0.25202 0.0
C556 C 0.14795 0.46682 0.23279 0.0
C557 C 0.146 0.49543 0.28021 0.0
C558 C 0.12485 0.48023 0.2918 0.0
C559 C 0.11478 0.45866 0.27097 0.0
C560 C 0.12608 0.45211 0.24145 0.0
C561 C 0.11373 0.48645 0.32748 0.0
C562 C 0.09186 0.48071 0.31789 0.0
C563 C 0.12439 0.49741 0.37153 0.0
C564 C 0.14654 0.50177 0.38651 0.0
C565 C 0.15108 0.48443 0.38706 0.0
C566 C 0.17204 0.48866 0.40063 0.0
C567 C 0.18853 0.51014 0.4143 0.0
C568 C 0.18408 0.52741 0.41454 0.0
C569 C 0.16316 0.52328 0.40084 0.0
C570 C 0.05261 0.47942 0.49114 0.0
C571 C 0.05486 0.49955 0.50854 0.0
C572 C 0.06443 0.47866 0.45421 0.0
C573 C 0.07894 0.49799 0.43391 0.0
C574 C 0.08158 0.51825 0.45125 0.0
C575 C 0.06939 0.51901 0.48805 0.0
C576 C 0.0912 0.49646 0.3947 0.0
C577 C 0.11315 0.5028 0.40394 0.0
C578 C 0.08039 0.4853 0.35119 0.0
C579 C 0.05687 0.47751 0.34077 0.0
C580 C 0.04889 0.4922 0.34513 0.0
C581 C 0.02659 0.48457 0.33738 0.0
C582 C 0.01212 0.4623 0.32484 0.0
C583 C 0.01992 0.44763 0.31987 0.0
C584 C 0.0422 0.45515 0.32777 0.0
H585 H 0.99487 0.45642 0.31894 0.0
H586 H 0.20475 0.51338 0.42481 0.0
H587 H 0.7024 0.16609 0.28675 0.0
H588 H 0.67175 0.13615 0.32169 0.0
H589 H 0.68734 0.08948 0.25756 0.0
H590 H 0.71721 0.11924 0.21985 0.0
H591 H 0.64611 0.07416 0.24409 0.0
H592 H 0.69637 0.1051 0.37824 0.0
H593 H 0.72235 0.13326 0.43802 0.0
H594 H 0.67237 0.14614 0.48201 0.0
H595 H 0.64619 0.11836 0.42189 0.0
H596 H 0.58525 0.00357 0.44302 0.0
H597 H 0.61525 0.02623 0.39518 0.0
H598 H 0.57798 0.05374 0.33604 0.0
H599 H 0.5475 0.03054 0.38281 0.0
H600 H 0.63031 0.07616 0.41094 0.0
H601 H 0.58487 0.05029 0.25342 0.0
H602 H 0.55996 0.01897 0.19798 0.0
H603 H 0.60347 0.99312 0.20681 0.0
H604 H 0.62846 0.02419 0.26279 0.0
C605 C 0.69933 0.14946 0.28005 0.0
C606 C 0.71219 0.14506 0.25023 0.0
C607 C 0.68193 0.13236 0.30055 0.0
C608 C 0.67732 0.11055 0.29259 0.0
C609 C 0.69059 0.10618 0.26419 0.0
C610 C 0.70784 0.12326 0.24313 0.0
C611 C 0.65791 0.09226 0.31174 0.0
C612 C 0.64284 0.07463 0.28071 0.0
C613 C 0.65349 0.0927 0.35952 0.0
C614 C 0.66936 0.10979 0.39511 0.0
C615 C 0.69098 0.11412 0.40026 0.0
C616 C 0.70573 0.12999 0.43429 0.0
C617 C 0.69903 0.14153 0.46369 0.0
C618 C 0.67756 0.13723 0.45913 0.0
C619 C 0.66275 0.12142 0.42506 0.0
C620 C 0.58311 0.01381 0.41849 0.0
C621 C 0.5641 0.01539 0.41667 0.0
C622 C 0.60024 0.02671 0.39121 0.0
C623 C 0.59868 0.04145 0.36197 0.0
C624 C 0.57922 0.04205 0.35768 0.0
C625 C 0.56187 0.02885 0.38448 0.0
C626 C 0.61861 0.05876 0.34308 0.0
C627 C 0.63377 0.07601 0.37436 0.0
C628 C 0.62326 0.05787 0.29598 0.0
C629 C 0.60831 0.03931 0.26257 0.0
C630 C 0.58897 0.03779 0.24385 0.0
C631 C 0.57488 0.02013 0.21227 0.0
C632 C 0.58009 0.00402 0.199 0.0
C633 C 0.59943 0.00557 0.21721 0.0
C634 C 0.61354 0.02318 0.24885 0.0
H635 H 0.56918 0.99038 0.17452 0.0
H636 H 0.71047 0.15377 0.49009 0.0
H637 H 0.55064 0.72203 0.29468 0.0
H638 H 0.54492 0.69226 0.34438 0.0
H639 H 0.50919 0.64444 0.22885 0.0
H640 H 0.51522 0.67403 0.17866 0.0
H641 H 0.48874 0.6316 0.31054 0.0
H642 H 0.56026 0.65761 0.25835 0.0
H643 H 0.59813 0.68527 0.24479 0.0
H644 H 0.61254 0.70159 0.39299 0.0
H645 H 0.57463 0.67424 0.4074 0.0
H646 H 0.49629 0.54176 0.40897 0.0
H647 H 0.4948 0.56932 0.36126 0.0
H648 H 0.53317 0.61999 0.47038 0.0
H649 H 0.53483 0.59281 0.51787 0.0
H650 H 0.55174 0.63051 0.38909 0.0
H651 H 0.47912 0.61181 0.43817 0.0
H652 H 0.44019 0.58787 0.45123 0.0
H653 H 0.4286 0.55812 0.31123 0.0
H654 H 0.46735 0.58255 0.29687 0.0
C655 C 0.54167 0.70521 0.27971 0.0
C656 C 0.53335 0.70051 0.2326 0.0
C657 C 0.53836 0.68818 0.30823 0.0
C658 C 0.52672 0.6661 0.29027 0.0
C659 C 0.51811 0.66133 0.24356 0.0
C660 C 0.52149 0.67832 0.21497 0.0
C661 C 0.52376 0.648 0.32 0.0
C662 C 0.50254 0.63121 0.3272 0.0
C663 C 0.5417 0.64761 0.34243 0.0
C664 C 0.56454 0.66403 0.33391 0.0
C665 C 0.57145 0.66722 0.28803 0.0
C666 C 0.59293 0.68282 0.28019 0.0
C667 C 0.60772 0.69522 0.31799 0.0
C668 C 0.60106 0.692 0.36373 0.0
C669 C 0.57958 0.67644 0.37176 0.0
C670 C 0.504 0.55869 0.42322 0.0
C671 C 0.51601 0.56507 0.46698 0.0
C672 C 0.50306 0.57445 0.39595 0.0
C673 C 0.51403 0.59683 0.41202 0.0
C674 C 0.52474 0.6029 0.45697 0.0
C675 C 0.52566 0.58725 0.48414 0.0
C676 C 0.51668 0.61428 0.38042 0.0
C677 C 0.53792 0.63089 0.37248 0.0
C678 C 0.49881 0.61451 0.35734 0.0
C679 C 0.47606 0.59872 0.36672 0.0
C680 C 0.46827 0.60001 0.41038 0.0
C681 C 0.44622 0.58655 0.41781 0.0
C682 C 0.43194 0.57142 0.38214 0.0
C683 C 0.43967 0.56984 0.33883 0.0
C684 C 0.46163 0.5836 0.3309 0.0
H685 H 0.4149 0.56089 0.38811 0.0
H686 H 0.62434 0.70729 0.31186 0.0
H687 H 0.92402 0.64277 0.26256 0.0
H688 H 0.95347 0.63607 0.28641 0.0
H689 H 0.95925 0.62086 0.14186 0.0
H690 H 0.92955 0.62745 0.11794 0.0
H691 H 0.95099 0.5874 0.19327 0.0
H692 H 0.00453 0.66204 0.20521 0.0
H693 H 0.02184 0.70211 0.22314 0.0
H694 H 0.01534 0.69225 0.37005 0.0
H695 H 0.99768 0.65211 0.35309 0.0
H696 H 0.0106 0.55055 0.35151 0.0
H697 H 0.00554 0.56916 0.28493 0.0
H698 H 0.97131 0.59198 0.37105 0.0
H699 H 0.97573 0.57341 0.43653 0.0
H700 H 0.00837 0.62584 0.3225 0.0
H701 H 0.94205 0.55155 0.29981 0.0
H702 H 0.92431 0.51139 0.28205 0.0
H703 H 0.95647 0.52194 0.15367 0.0
H704 H 0.9746 0.5622 0.17105 0.0
C705 C 0.93214 0.6388 0.23581 0.0
C706 C 0.92458 0.6356 0.18856 0.0
C707 C 0.94908 0.63511 0.24934 0.0
C708 C 0.95868 0.62807 0.21585 0.0
C709 C 0.9522 0.62644 0.16819 0.0
C710 C 0.93533 0.63032 0.15458 0.0
C711 C 0.97211 0.61855 0.23206 0.0
C712 C 0.96414 0.59607 0.22029 0.0
C713 C 0.98935 0.6298 0.26708 0.0
C714 C 0.99975 0.65398 0.27777 0.0
C715 C 0.00664 0.66838 0.24133 0.0
C716 C 0.01654 0.69113 0.25134 0.0
C717 C 0.01967 0.69971 0.29769 0.0
C718 C 0.01289 0.68557 0.33415 0.0
C719 C 0.00299 0.66281 0.32436 0.0
C720 C 0.0017 0.55925 0.35591 0.0
C721 C 0.99375 0.56066 0.39951 0.0
C722 C 0.999 0.56997 0.31804 0.0
C723 C 0.98848 0.58226 0.32369 0.0
C724 C 0.97984 0.5829 0.36644 0.0
C725 C 0.9823 0.57212 0.40378 0.0
C726 C 0.98599 0.59467 0.28592 0.0
C727 C 0.99607 0.61762 0.29368 0.0
C728 C 0.97074 0.58393 0.24726 0.0
C729 C 0.9599 0.55981 0.23703 0.0
C730 C 0.94549 0.54528 0.26804 0.0
C731 C 0.93534 0.52252 0.258 0.0
C732 C 0.93933 0.51412 0.21685 0.0
C733 C 0.95345 0.52847 0.1856 0.0
C734 C 0.96367 0.55125 0.19553 0.0
H735 H 0.93144 0.49649 0.20912 0.0
H736 H 0.02738 0.71733 0.30537 0.0
H737 H 0.3383 0.8782 0.14436 0.0
H738 H 0.3693 0.89694 0.2028 0.0
H739 H 0.32831 0.9051 0.29919 0.0
H740 H 0.29707 0.88531 0.24289 0.0
H741 H 0.3719 0.94442 0.28568 0.0
H742 H 0.33509 0.86685 0.31853 0.0
H743 H 0.32066 0.82752 0.29601 0.0
H744 H 0.3846 0.84117 0.26325 0.0
H745 H 0.39933 0.88071 0.28478 0.0
H746 H 0.41243 0.96633 0.51614 0.0
H747 H 0.39039 0.94899 0.44351 0.0
H748 H 0.43992 0.93636 0.39344 0.0
H749 H 0.46229 0.95366 0.46696 0.0
H750 H 0.39826 0.90128 0.37206 0.0
H751 H 0.43625 0.97798 0.34845 0.0
H752 H 0.4508 0.01787 0.3631 0.0
H753 H 0.38595 0.00671 0.37424 0.0
H754 H 0.37098 0.96676 0.35958 0.0
C755 C 0.33583 0.88392 0.178 0.0
C756 C 0.3151 0.88027 0.18863 0.0
C757 C 0.35359 0.8947 0.21117 0.0
C758 C 0.35096 0.9023 0.25508 0.0
C759 C 0.33061 0.89944 0.26523 0.0
C760 C 0.3128 0.88832 0.23264 0.0
C761 C 0.36912 0.91272 0.29153 0.0
C762 C 0.3777 0.93506 0.30467 0.0
C763 C 0.37705 0.90052 0.315 0.0
C764 C 0.36825 0.87676 0.30262 0.0
C765 C 0.34603 0.8615 0.30605 0.0
C766 C 0.3378 0.83917 0.29356 0.0
C767 C 0.35169 0.83186 0.27805 0.0
C768 C 0.37385 0.84687 0.27515 0.0
C769 C 0.38215 0.86924 0.28749 0.0
C770 C 0.41871 0.95977 0.49 0.0
C771 C 0.43937 0.96177 0.49719 0.0
C772 C 0.40609 0.94996 0.44828 0.0
C773 C 0.41379 0.94196 0.41258 0.0
C774 C 0.43384 0.94274 0.42039 0.0
C775 C 0.44658 0.95261 0.46242 0.0
C776 C 0.40063 0.93297 0.36739 0.0
C777 C 0.3929 0.91086 0.35254 0.0
C778 C 0.39354 0.94543 0.34202 0.0
C779 C 0.40252 0.96935 0.35331 0.0
C780 C 0.42512 0.984 0.35472 0.0
C781 C 0.43344 0.00664 0.36303 0.0
C782 C 0.41935 0.01482 0.37033 0.0
C783 C 0.39688 0.00037 0.36911 0.0
C784 C 0.38846 0.97773 0.36059 0.0
H785 H 0.42581 0.03235 0.37646 0.0
H786 H 0.3453 0.81455 0.26842 0.0
H787 H 0.46327 0.29013 0.36967 0.0
H788 H 0.46258 0.31589 0.42793 0.0
H789 H 0.40208 0.30535 0.36165 0.0
H790 H 0.40333 0.28032 0.30149 0.0
H791 H 0.42848 0.34646 0.37204 0.0
H792 H 0.40604 0.2907 0.47649 0.0
H793 H 0.40425 0.26026 0.51982 0.0
H794 H 0.46836 0.30347 0.58445 0.0
H795 H 0.47079 0.33407 0.54079 0.0
H796 H 0.45308 0.43859 0.52333 0.0
H797 H 0.43163 0.39939 0.49721 0.0
H798 H 0.48856 0.39303 0.52309 0.0
H799 H 0.50966 0.43198 0.55118 0.0
H800 H 0.45188 0.3557 0.54107 0.0
H801 H 0.47492 0.40751 0.41426 0.0
H802 H 0.47423 0.43772 0.37432 0.0
H803 H 0.40439 0.39963 0.35582 0.0
H804 H 0.40468 0.36933 0.39612 0.0
C805 C 0.44972 0.29316 0.36761 0.0
C806 C 0.43356 0.28346 0.33044 0.0
C807 C 0.44913 0.30764 0.40153 0.0
C808 C 0.43217 0.31249 0.39959 0.0
C809 C 0.41532 0.30185 0.364 0.0
C810 C 0.41599 0.28744 0.32975 0.0
C811 C 0.43389 0.33088 0.43057 0.0
C812 C 0.43299 0.34812 0.40928 0.0
C813 C 0.43974 0.3332 0.47928 0.0
C814 C 0.43863 0.31471 0.50502 0.0
C815 C 0.41987 0.29369 0.49952 0.0
C816 C 0.41873 0.27639 0.52423 0.0
C817 C 0.43619 0.27992 0.55481 0.0
C818 C 0.45485 0.30075 0.56072 0.0
C819 C 0.45611 0.31809 0.536 0.0
C820 C 0.46072 0.42855 0.52465 0.0
C821 C 0.48288 0.43801 0.53897 0.0
C822 C 0.44854 0.40626 0.5096 0.0
C823 C 0.45861 0.3934 0.50728 0.0
C824 C 0.48046 0.40263 0.52455 0.0
C825 C 0.49253 0.42483 0.54038 0.0
C826 C 0.44761 0.37136 0.48175 0.0
C827 C 0.44675 0.35355 0.50409 0.0
C828 C 0.43982 0.36833 0.43415 0.0
C829 C 0.43981 0.38628 0.40854 0.0
C830 C 0.45943 0.40562 0.4017 0.0
C831 C 0.45911 0.42276 0.37906 0.0
C832 C 0.43928 0.42063 0.36264 0.0
C833 C 0.41974 0.40129 0.36859 0.0
C834 C 0.41997 0.38413 0.39131 0.0
H835 H 0.43905 0.43393 0.34526 0.0
H836 H 0.43525 0.26652 0.57397 0.0
H837 H 0.52688 0.82935 0.90276 0.0
H838 H 0.52296 0.85162 0.84351 0.0
H839 H 0.56125 0.91017 0.93523 0.0
H840 H 0.56532 0.88791 0.99462 0.0
H841 H 0.52257 0.90617 0.89936 0.0
H842 H 0.58287 0.90166 0.8419 0.0
H843 H 0.6038 0.88504 0.81145 0.0
H844 H 0.55569 0.85214 0.69654 0.0
H845 H 0.53428 0.8683 0.72668 0.0
H846 H 0.5385 0.98877 0.75627 0.0
H847 H 0.54724 0.96499 0.80075 0.0
H848 H 0.50821 0.91071 0.69905 0.0
H849 H 0.49974 0.9349 0.65332 0.0
H850 H 0.54558 0.91057 0.73668 0.0
H851 H 0.48529 0.91495 0.79371 0.0
H852 H 0.46592 0.93398 0.82015 0.0
H853 H 0.51413 0.96723 0.93478 0.0
H854 H 0.53398 0.94865 0.9086 0.0
C855 C 0.53437 0.84697 0.91036 0.0
C856 C 0.54616 0.8569 0.95355 0.0
C857 C 0.53233 0.85969 0.87627 0.0
C858 C 0.54191 0.88257 0.88482 0.0
C859 C 0.55377 0.89254 0.92787 0.0
C860 C 0.55607 0.87985 0.96175 0.0
C861 C 0.53848 0.89592 0.85009 0.0
C862 C 0.52785 0.90731 0.86398 0.0
C863 C 0.54467 0.8968 0.80337 0.0
C864 C 0.55685 0.88602 0.78685 0.0
C865 C 0.57657 0.89061 0.81056 0.0
C866 C 0.58859 0.88138 0.79319 0.0
C867 C 0.58112 0.86763 0.75197 0.0
C868 C 0.56148 0.86285 0.72837 0.0
C869 C 0.54939 0.87203 0.7456 0.0
C870 C 0.53212 0.97188 0.74281 0.0
C871 C 0.51815 0.96353 0.70184 0.0
C872 C 0.53709 0.95829 0.76833 0.0
C873 C 0.52787 0.93594 0.75397 0.0
C874 C 0.51531 0.92789 0.71097 0.0
C875 C 0.51052 0.94168 0.68487 0.0
C876 C 0.52997 0.92095 0.78628 0.0
C877 C 0.5402 0.90923 0.77198 0.0
C878 C 0.5233 0.91958 0.83264 0.0
C879 C 0.5112 0.93052 0.84899 0.0
C880 C 0.49183 0.92642 0.8244 0.0
C881 C 0.48076 0.93712 0.83935 0.0
C882 C 0.48881 0.95183 0.87908 0.0
C883 C 0.50792 0.95583 0.90401 0.0
C884 C 0.51907 0.9452 0.88916 0.0
H885 H 0.48022 0.96011 0.89058 0.0
H886 H 0.59052 0.86064 0.73833 0.0
H887 H 0.70993 0.5754 0.98234 0.0
H888 H 0.6759 0.56265 0.93538 0.0
H889 H 0.68173 0.50911 0.87245 0.0
H890 H 0.71655 0.52254 0.91762 0.0
H891 H 0.6726 0.52865 0.80767 0.0
H892 H 0.64228 0.5005 0.95203 0.0
H893 H 0.63852 0.50205 0.03719 0.0
H894 H 0.62035 0.55153 0.02312 0.0
H895 H 0.6243 0.55053 0.93794 0.0
H896 H 0.55209 0.49211 0.73347 0.0
H897 H 0.5782 0.49156 0.79184 0.0
H898 H 0.628 0.55497 0.75238 0.0
H899 H 0.60243 0.55563 0.69435 0.0
H900 H 0.6048 0.52087 0.86902 0.0
H901 H 0.67386 0.55385 0.74139 0.0
H902 H 0.67774 0.55272 0.65617 0.0
H903 H 0.61765 0.49103 0.63771 0.0
H904 H 0.61355 0.49162 0.72286 0.0
C905 C 0.70404 0.56094 0.95842 0.0
C906 C 0.71611 0.55013 0.95341 0.0
C907 C 0.68436 0.55345 0.93211 0.0
C908 C 0.67606 0.53472 0.90082 0.0
C909 C 0.68776 0.52353 0.89658 0.0
C910 C 0.70759 0.53114 0.92266 0.0
C911 C 0.65617 0.52805 0.86984 0.0
C912 C 0.65769 0.52665 0.82121 0.0
C913 C 0.63658 0.52519 0.88743 0.0
C914 C 0.63368 0.52549 0.93854 0.0
C915 C 0.63757 0.51178 0.96709 0.0
C916 C 0.6354 0.51256 0.01539 0.0
C917 C 0.62923 0.5269 0.03556 0.0
C918 C 0.62513 0.54043 0.00744 0.0
C919 C 0.62728 0.53972 0.95912 0.0
C920 C 0.56856 0.50599 0.7376 0.0
C921 C 0.57528 0.52374 0.70875 0.0
C922 C 0.58341 0.50566 0.77094 0.0
C923 C 0.6051 0.52305 0.77568 0.0
C924 C 0.61145 0.5412 0.74858 0.0
C925 C 0.59677 0.54152 0.71536 0.0
C926 C 0.62166 0.52221 0.80727 0.0
C927 C 0.61954 0.52232 0.85578 0.0
C928 C 0.64068 0.5237 0.78969 0.0
C929 C 0.64337 0.52284 0.73854 0.0
C930 C 0.66157 0.53995 0.71921 0.0
C931 C 0.66378 0.53943 0.67089 0.0
C932 C 0.64794 0.52184 0.64154 0.0
C933 C 0.62989 0.50467 0.66047 0.0
C934 C 0.6276 0.5051 0.70875 0.0
H935 H 0.64966 0.52149 0.60415 0.0
H936 H 0.62762 0.52751 0.07296 0.0
H937 H 0.12297 0.73493 0.92463 0.0
H938 H 0.09678 0.70333 0.87272 0.0
H939 H 0.14766 0.71394 0.78174 0.0
H940 H 0.17411 0.74539 0.8342 0.0
H941 H 0.09882 0.69649 0.73882 0.0
H942 H 0.1457 0.68444 0.85109 0.0
H943 H 0.16195 0.68836 0.9312 0.0
H944 H 0.09802 0.65278 0.98209 0.0
H945 H 0.08144 0.64939 0.90261 0.0
H946 H 0.064 0.58699 0.64122 0.0
H947 H 0.08375 0.62541 0.67302 0.0
H948 H 0.04381 0.60741 0.79132 0.0
H949 H 0.02378 0.56918 0.75933 0.0
H950 H 0.08594 0.62998 0.81888 0.0
H951 H 0.03813 0.63582 0.70939 0.0
H952 H 0.01892 0.63356 0.63405 0.0
H953 H 0.07923 0.68128 0.58138 0.0
H954 H 0.0991 0.68291 0.65546 0.0
C955 C 0.12838 0.73106 0.8926 0.0
C956 C 0.15052 0.74248 0.88334 0.0
C957 C 0.11343 0.71303 0.86304 0.0
C958 C 0.12036 0.70639 0.82358 0.0
C959 C 0.14203 0.719 0.81188 0.0
C960 C 0.15711 0.73682 0.84191 0.0
C961 C 0.10624 0.68422 0.80032 0.0
C962 C 0.09616 0.68186 0.75567 0.0
C963 C 0.10232 0.66531 0.82349 0.0
C964 C 0.11235 0.66693 0.87105 0.0
C965 C 0.13513 0.67771 0.87949 0.0
C966 C 0.1444 0.67985 0.92481 0.0
C967 C 0.13104 0.67094 0.96182 0.0
C968 C 0.10838 0.65982 0.95353 0.0
C969 C 0.09903 0.65782 0.90837 0.0
C970 C 0.05909 0.59134 0.67336 0.0
C971 C 0.04229 0.5751 0.69762 0.0
C972 C 0.07043 0.61327 0.69159 0.0
C973 C 0.06518 0.61926 0.73444 0.0
C974 C 0.04814 0.60312 0.75825 0.0
C975 C 0.03679 0.58127 0.74001 0.0
C976 C 0.07849 0.64192 0.75649 0.0
C977 C 0.08853 0.64444 0.80133 0.0
C978 C 0.08198 0.66085 0.73353 0.0
C979 C 0.07022 0.6592 0.68797 0.0
C980 C 0.04744 0.64545 0.68144 0.0
C981 C 0.03641 0.64427 0.63887 0.0
C982 C 0.04788 0.65713 0.60279 0.0
C983 C 0.0704 0.67118 0.60922 0.0
C984 C 0.08159 0.67212 0.6514 0.0
H985 H 0.0393 0.6563 0.56996 0.0
H986 H 0.13825 0.67256 0.99685 0.0
H987 H 0.48376 0.20152 0.90783 0.0
H988 H 0.49815 0.18944 0.84389 0.0
H989 H 0.52187 0.16011 0.94289 0.0
H990 H 0.50801 0.17267 0.00697 0.0
H991 H 0.54939 0.17695 0.87347 0.0
H992 H 0.47126 0.13026 0.88607 0.0
H993 H 0.43342 0.12277 0.88721 0.0
H994 H 0.43719 0.14613 0.74949 0.0
H995 H 0.47519 0.15403 0.74785 0.0
H996 H 0.52843 0.07413 0.77792 0.0
H997 H 0.53668 0.10927 0.81602 0.0
H998 H 0.51337 0.12518 0.69018 0.0
H999 H 0.50443 0.08967 0.65221 0.0
H1000 H 0.49029 0.12359 0.75913 0.0
H1001 H 0.56569 0.1576 0.74057 0.0
H1002 H 0.6024 0.16202 0.74179 0.0
H1003 H 0.60431 0.16092 0.89176 0.0
H1004 H 0.56725 0.15545 0.89143 0.0
C1005 C 0.49227 0.1927 0.91586 0.0
C1006 C 0.49452 0.18768 0.96206 0.0
C1007 C 0.50058 0.18594 0.87945 0.0
C1008 C 0.51081 0.17362 0.8886 0.0
C1009 C 0.5141 0.16966 0.93509 0.0
C1010 C 0.50607 0.1767 0.97159 0.0
C1011 C 0.51559 0.16246 0.84973 0.0
C1012 C 0.53658 0.16524 0.84829 0.0
C1013 C 0.49895 0.14776 0.81612 0.0
C1014 C 0.47613 0.14302 0.81711 0.0
C1015 C 0.46406 0.13396 0.85621 0.0
C1016 C 0.44259 0.12962 0.85692 0.0
C1017 C 0.43293 0.13405 0.81851 0.0
C1018 C 0.44471 0.14277 0.77926 0.0
C1019 C 0.46622 0.14719 0.77843 0.0
C1020 C 0.52565 0.08536 0.75782 0.0
C1021 C 0.51512 0.07884 0.7126 0.0
C1022 C 0.5306 0.10561 0.77955 0.0
C1023 C 0.52547 0.11981 0.75609 0.0
C1024 C 0.51731 0.11439 0.70903 0.0
C1025 C 0.51212 0.09404 0.68746 0.0
C1026 C 0.52405 0.13736 0.78344 0.0
C1027 C 0.50351 0.13576 0.78298 0.0
C1028 C 0.5411 0.15282 0.81551 0.0
C1029 C 0.56349 0.15599 0.81591 0.0
C1030 C 0.57377 0.15799 0.77381 0.0
C1031 C 0.59468 0.16065 0.77433 0.0
C1032 C 0.60566 0.16167 0.81679 0.0
C1033 C 0.59576 0.16002 0.85883 0.0
C1034 C 0.57476 0.15709 0.85848 0.0
H1035 H 0.62186 0.16377 0.81713 0.0
H1036 H 0.4163 0.13066 0.81911 0.0
H1037 H 0.32802 0.48925 0.05844 0.0
H1038 H 0.36162 0.49646 0.02334 0.0
H1039 H 0.32464 0.46186 0.89414 0.0
H1040 H 0.29094 0.45471 0.92897 0.0
H1041 H 0.35301 0.44868 0.92037 0.0
H1042 H 0.35557 0.51837 0.90609 0.0
H1043 H 0.35574 0.55189 0.93596 0.0
H1044 H 0.41338 0.57045 0.02455 0.0
H1045 H 0.41337 0.53686 0.99564 0.0
H1046 H 0.42192 0.48008 0.74194 0.0
H1047 H 0.39623 0.47856 0.79684 0.0
H1048 H 0.44707 0.50597 0.90843 0.0
H1049 H 0.47349 0.50752 0.85283 0.0
H1050 H 0.4161 0.52336 0.90505 0.0
H1051 H 0.41581 0.45551 0.91147 0.0
H1052 H 0.41578 0.42245 0.87895 0.0
H1053 H 0.35387 0.40054 0.80464 0.0
H1054 H 0.35369 0.43366 0.83609 0.0
C1055 C 0.32707 0.48355 0.02221 0.0
C1056 C 0.30679 0.47159 0.99629 0.0
C1057 C 0.34631 0.48761 0.00229 0.0
C1058 C 0.3457 0.47985 0.95599 0.0
C1059 C 0.32551 0.46798 0.92998 0.0
C1060 C 0.30625 0.46389 0.94989 0.0
C1061 C 0.36596 0.48349 0.9348 0.0
C1062 C 0.36674 0.46502 0.9169 0.0
C1063 C 0.38428 0.50477 0.93187 0.0
C1064 C 0.38432 0.52498 0.94913 0.0
C1065 C 0.36817 0.5295 0.93224 0.0
C1066 C 0.36826 0.54853 0.94893 0.0
C1067 C 0.38452 0.56326 0.98225 0.0
C1068 C 0.40077 0.55901 0.99882 0.0
C1069 C 0.40074 0.53999 0.98227 0.0
C1070 C 0.42789 0.48589 0.77806 0.0
C1071 C 0.44982 0.49361 0.79303 0.0
C1072 C 0.41308 0.48503 0.80943 0.0
C1073 C 0.41965 0.49181 0.85677 0.0
C1074 C 0.44169 0.50055 0.87194 0.0
C1075 C 0.45673 0.50141 0.84022 0.0
C1076 C 0.40277 0.48858 0.88959 0.0
C1077 C 0.40256 0.50703 0.90956 0.0
C1078 C 0.38493 0.46728 0.8946 0.0
C1079 C 0.3848 0.44715 0.87599 0.0
C1080 C 0.40225 0.44372 0.88795 0.0
C1081 C 0.40227 0.42495 0.86973 0.0
C1082 C 0.38485 0.40941 0.83971 0.0
C1083 C 0.36735 0.41259 0.82792 0.0
C1084 C 0.36727 0.43134 0.84599 0.0
H1085 H 0.38489 0.3949 0.82563 0.0
H1086 H 0.38456 0.57798 0.99512 0.0
H1087 H 0.81302 0.3154 0.92259 0.0
H1088 H 0.83333 0.34452 0.87035 0.0
H1089 H 0.88374 0.32718 0.87074 0.0
H1090 H 0.86405 0.29875 0.92476 0.0
H1091 H 0.9016 0.36968 0.88141 0.0
H1092 H 0.84665 0.31349 0.77548 0.0
H1093 H 0.80936 0.28576 0.74534 0.0
H1094 H 0.7925 0.33637 0.73514 0.0
H1095 H 0.82963 0.36438 0.76585 0.0
H1096 H 0.93463 0.41901 0.64747 0.0
H1097 H 0.90717 0.38901 0.68942 0.0
H1098 H 0.91588 0.43523 0.80359 0.0
H1099 H 0.94332 0.46538 0.76205 0.0
H1100 H 0.86852 0.37734 0.73227 0.0
H1101 H 0.92412 0.41373 0.90391 0.0
H1102 H 0.96305 0.43837 0.92852 0.0
H1103 H 0.9811 0.42193 0.79801 0.0
H1104 H 0.94234 0.39693 0.77298 0.0
C1105 C 0.82851 0.31787 0.91185 0.0
C1106 C 0.8369 0.30472 0.92798 0.0
C1107 C 0.83998 0.33437 0.88151 0.0
C1108 C 0.85998 0.33792 0.8662 0.0
C1109 C 0.86833 0.32473 0.882 0.0
C1110 C 0.85693 0.30832 0.91254 0.0
C1111 C 0.87253 0.35579 0.83488 0.0
C1112 C 0.89429 0.37133 0.84891 0.0
C1113 C 0.8632 0.35778 0.79193 0.0
C1114 C 0.84086 0.341 0.77341 0.0
C1115 C 0.83494 0.31868 0.76717 0.0
C1116 C 0.81384 0.30292 0.74992 0.0
C1117 C 0.79855 0.30929 0.73845 0.0
C1118 C 0.80435 0.33146 0.7441 0.0
C1119 C 0.82543 0.34728 0.76139 0.0
C1120 C 0.93027 0.42294 0.68088 0.0
C1121 C 0.94156 0.44456 0.70184 0.0
C1122 C 0.91453 0.40574 0.70477 0.0
C1123 C 0.90991 0.40988 0.75001 0.0
C1124 C 0.9195 0.43169 0.76897 0.0
C1125 C 0.93515 0.44892 0.74503 0.0
C1126 C 0.89729 0.39133 0.7795 0.0
C1127 C 0.87564 0.3757 0.76506 0.0
C1128 C 0.9069 0.38883 0.8214 0.0
C1129 C 0.9303 0.4037 0.83634 0.0
C1130 C 0.9364 0.41535 0.88053 0.0
C1131 C 0.95844 0.42936 0.89455 0.0
C1132 C 0.97452 0.43179 0.86475 0.0
C1133 C 0.96862 0.42012 0.82096 0.0
C1134 C 0.94662 0.40605 0.80682 0.0
H1135 H 0.99156 0.44268 0.87562 0.0
H1136 H 0.78223 0.29707 0.72509 0.0
H1137 H 0.83104 0.55321 0.83502 0.0
H1138 H 0.85403 0.54489 0.78651 0.0
H1139 H 0.88288 0.5338 0.91053 0.0
H1140 H 0.86051 0.54278 0.95919 0.0
H1141 H 0.91356 0.55786 0.85503 0.0
H1142 H 0.8458 0.49059 0.83539 0.0
H1143 H 0.80618 0.46662 0.81831 0.0
H1144 H 0.81199 0.48759 0.67804 0.0
H1145 H 0.85162 0.51194 0.69449 0.0
H1146 H 0.96802 0.51442 0.71903 0.0
H1147 H 0.94167 0.51405 0.7728 0.0
H1148 H 0.91555 0.5376 0.66546 0.0
H1149 H 0.94179 0.53807 0.61197 0.0
H1150 H 0.8832 0.50375 0.71704 0.0
H1151 H 0.95129 0.57319 0.74126 0.0
H1152 H 0.99105 0.59553 0.75903 0.0
H1153 H 0.98431 0.56846 0.89339 0.0
H1154 H 0.94453 0.54559 0.87598 0.0
C1155 C 0.84222 0.54892 0.85188 0.0
C1156 C 0.8437 0.54835 0.90089 0.0
C1157 C 0.85526 0.54402 0.82414 0.0
C1158 C 0.86999 0.53839 0.84479 0.0
C1159 C 0.87155 0.53792 0.89373 0.0
C1160 C 0.85854 0.54281 0.92146 0.0
C1161 C 0.88415 0.53357 0.81543 0.0
C1162 C 0.90685 0.54574 0.82538 0.0
C1163 C 0.8755 0.51789 0.77644 0.0
C1164 C 0.85167 0.50324 0.76632 0.0
C1165 C 0.83861 0.49022 0.80101 0.0
C1166 C 0.81615 0.47654 0.79142 0.0
C1167 C 0.80657 0.47562 0.74715 0.0
C1168 C 0.81943 0.48834 0.71234 0.0
C1169 C 0.8419 0.50207 0.72175 0.0
C1170 C 0.95629 0.51897 0.70668 0.0
C1171 C 0.95683 0.52616 0.66137 0.0
C1172 C 0.94139 0.51893 0.73745 0.0
C1173 C 0.92673 0.52587 0.72306 0.0
C1174 C 0.92667 0.53213 0.67716 0.0
C1175 C 0.94172 0.53249 0.64677 0.0
C1176 C 0.91244 0.52821 0.75642 0.0
C1177 C 0.88978 0.51563 0.74712 0.0
C1178 C 0.92111 0.54335 0.79621 0.0
C1179 C 0.94496 0.55747 0.80708 0.0
C1180 C 0.9583 0.57185 0.77443 0.0
C1181 C 0.98084 0.58463 0.78444 0.0
C1182 C 0.9902 0.58336 0.82725 0.0
C1183 C 0.97704 0.56938 0.86019 0.0
C1184 C 0.9545 0.5565 0.85027 0.0
H1185 H 0.00765 0.59326 0.83496 0.0
H1186 H 0.78918 0.46501 0.73979 0.0
H1187 H 0.29237 0.89309 0.98322 0.0
H1188 H 0.32017 0.91981 0.93606 0.0
H1189 H 0.29009 0.87522 0.81282 0.0
H1190 H 0.26266 0.84802 0.86068 0.0
H1191 H 0.3311 0.89092 0.81358 0.0
H1192 H 0.28769 0.92445 0.83265 0.0
H1193 H 0.26727 0.9389 0.87462 0.0
H1194 H 0.32612 0.98682 0.95309 0.0
H1195 H 0.34686 0.97246 0.91207 0.0
H1196 H 0.40035 0.97468 0.66635 0.0
H1197 H 0.3662 0.95223 0.70361 0.0
H1198 H 0.40075 0.97438 0.83986 0.0
H1199 H 0.43505 0.9963 0.80292 0.0
H1200 H 0.35501 0.97063 0.82432 0.0
H1201 H 0.39602 0.93164 0.81083 0.0
H1202 H 0.41578 0.91743 0.76545 0.0
H1203 H 0.35906 0.87985 0.67092 0.0
H1204 H 0.33909 0.89414 0.71544 0.0
C1205 C 0.29153 0.88914 0.94593 0.0
C1206 C 0.27531 0.86859 0.92545 0.0
C1207 C 0.30737 0.90446 0.9189 0.0
C1208 C 0.30703 0.89978 0.87057 0.0
C1209 C 0.29067 0.87928 0.84997 0.0
C1210 C 0.27502 0.86376 0.87724 0.0
C1211 C 0.32455 0.91575 0.84237 0.0
C1212 C 0.33594 0.90824 0.8153 0.0
C1213 C 0.33119 0.9385 0.84481 0.0
C1214 C 0.31881 0.94726 0.86948 0.0
C1215 C 0.29626 0.93797 0.85908 0.0
C1216 C 0.28463 0.94616 0.88267 0.0
C1217 C 0.29538 0.96374 0.91656 0.0
C1218 C 0.31781 0.9732 0.92685 0.0
C1219 C 0.32952 0.96506 0.90339 0.0
C1220 C 0.40057 0.97517 0.70427 0.0
C1221 C 0.42033 0.98714 0.7318 0.0
C1222 C 0.38109 0.96232 0.72542 0.0
C1223 C 0.38107 0.96169 0.77435 0.0
C1224 C 0.40051 0.97478 0.80203 0.0
C1225 C 0.42005 0.9872 0.78091 0.0
C1226 C 0.36136 0.94565 0.79649 0.0
C1227 C 0.34974 0.9532 0.82232 0.0
C1228 C 0.35427 0.92292 0.7925 0.0
C1229 C 0.36618 0.91417 0.76605 0.0
C1230 C 0.38785 0.92052 0.78009 0.0
C1231 C 0.39907 0.91242 0.7546 0.0
C1232 C 0.38871 0.89781 0.71522 0.0
C1233 C 0.36708 0.89121 0.70136 0.0
C1234 C 0.3558 0.8993 0.72672 0.0
H1235 H 0.39741 0.89155 0.69552 0.0
H1236 H 0.28635 0.97005 0.93479 0.0
H1237 H 0.48984 0.31802 0.0145 0.0
H1238 H 0.4971 0.34206 0.95028 0.0
H1239 H 0.43142 0.3304 0.94852 0.0
H1240 H 0.4242 0.30716 0.01476 0.0
H1241 H 0.45141 0.32688 0.85376 0.0
H1242 H 0.46186 0.37414 0.99441 0.0
H1243 H 0.47819 0.39018 0.07402 0.0
H1244 H 0.5423 0.41693 0.02431 0.0
H1245 H 0.52631 0.40074 0.94451 0.0
H1246 H 0.45352 0.41019 0.71921 0.0
H1247 H 0.44875 0.3817 0.77101 0.0
H1248 H 0.51743 0.41832 0.81425 0.0
H1249 H 0.52195 0.44765 0.76438 0.0
H1250 H 0.49763 0.4077 0.88678 0.0
H1251 H 0.49019 0.36535 0.74683 0.0
H1252 H 0.47679 0.34858 0.66638 0.0
H1253 H 0.41165 0.31162 0.71031 0.0
H1254 H 0.42458 0.32839 0.79091 0.0
C1255 C 0.477 0.32088 0.00141 0.0
C1256 C 0.4565 0.31086 0.02072 0.0
C1257 C 0.48112 0.33438 0.9641 0.0
C1258 C 0.46478 0.33792 0.94467 0.0
C1259 C 0.44419 0.32769 0.96292 0.0
C1260 C 0.44012 0.31443 0.00083 0.0
C1261 C 0.46963 0.35318 0.90678 0.0
C1262 C 0.4613 0.34459 0.86074 0.0
C1263 C 0.48332 0.37613 0.91585 0.0
C1264 C 0.4929 0.38603 0.96368 0.0
C1265 C 0.47943 0.38327 0.00057 0.0
C1266 C 0.48863 0.39242 0.0457 0.0
C1267 C 0.51127 0.40451 0.05425 0.0
C1268 C 0.52476 0.40753 0.01765 0.0
C1269 C 0.51565 0.39838 0.97248 0.0
C1270 C 0.46774 0.41195 0.73882 0.0
C1271 C 0.48812 0.43121 0.73774 0.0
C1272 C 0.46501 0.39552 0.76844 0.0
C1273 C 0.48274 0.39762 0.79657 0.0
C1274 C 0.50342 0.41628 0.79324 0.0
C1275 C 0.50605 0.43299 0.76447 0.0
C1276 C 0.47925 0.38164 0.83283 0.0
C1277 C 0.48786 0.39004 0.87898 0.0
C1278 C 0.46624 0.35847 0.82341 0.0
C1279 C 0.45835 0.34828 0.77493 0.0
C1280 C 0.47298 0.35377 0.7393 0.0
C1281 C 0.46547 0.34424 0.69366 0.0
C1282 C 0.44338 0.32908 0.68322 0.0
C1283 C 0.42876 0.32338 0.71844 0.0
C1284 C 0.43617 0.33287 0.76413 0.0
H1285 H 0.43761 0.32173 0.64786 0.0
H1286 H 0.51836 0.41159 0.08921 0.0
H1287 H 0.1605 0.4204 0.92564 0.0
H1288 H 0.13196 0.4192 0.87215 0.0
H1289 H 0.1359 0.47465 0.95198 0.0
H1290 H 0.16435 0.47591 0.00548 0.0
H1291 H 0.09302 0.43801 0.9351 0.0
H1292 H 0.1573 0.48283 0.85112 0.0
H1293 H 0.1905 0.49021 0.8124 0.0
H1294 H 0.15272 0.43367 0.71631 0.0
H1295 H 0.11931 0.42578 0.75493 0.0
H1296 H 0.04356 0.48415 0.80445 0.0
H1297 H 0.06698 0.47454 0.84917 0.0
H1298 H 0.0588 0.42732 0.73755 0.0
H1299 H 0.03562 0.43739 0.69137 0.0
H1300 H 0.10052 0.4522 0.76642 0.0
H1301 H 0.03537 0.4104 0.84162 0.0
H1302 H 0.00179 0.40303 0.87857 0.0
H1303 H 0.0398 0.45168 0.99036 0.0
H1304 H 0.07362 0.45969 0.95364 0.0
C1305 C 0.15538 0.43244 0.93139 0.0
C1306 C 0.16463 0.4483 0.96951 0.0
C1307 C 0.13915 0.43175 0.9009 0.0
C1308 C 0.13184 0.44679 0.90836 0.0
C1309 C 0.14133 0.46287 0.94585 0.0
C1310 C 0.1577 0.46372 0.97602 0.0
C1311 C 0.11392 0.44555 0.87791 0.0
C1312 C 0.09463 0.44121 0.89826 0.0
C1313 C 0.11579 0.44878 0.82951 0.0
C1314 C 0.13586 0.45356 0.80628 0.0
C1315 C 0.1561 0.47185 0.82203 0.0
C1316 C 0.17495 0.47616 0.80004 0.0
C1317 C 0.17373 0.46238 0.76202 0.0
C1318 C 0.15365 0.4443 0.74582 0.0
C1319 C 0.13475 0.43991 0.76773 0.0
C1320 C 0.04647 0.47153 0.78935 0.0
C1321 C 0.03773 0.46159 0.74415 0.0
C1322 C 0.0598 0.46595 0.81523 0.0
C1323 C 0.06441 0.44999 0.79699 0.0
C1324 C 0.05537 0.43963 0.75231 0.0
C1325 C 0.04208 0.44535 0.72608 0.0
C1326 C 0.07979 0.4454 0.82391 0.0
C1327 C 0.09862 0.44854 0.803 0.0
C1328 C 0.07738 0.44083 0.87175 0.0
C1329 C 0.05708 0.43571 0.8947 0.0
C1330 C 0.03659 0.41961 0.87397 0.0
C1331 C 0.0175 0.41532 0.89488 0.0
C1332 C 0.01866 0.42688 0.93678 0.0
C1333 C 0.03893 0.44273 0.95792 0.0
C1334 C 0.05807 0.44713 0.93709 0.0
H1335 H 0.00386 0.42356 0.95285 0.0
H1336 H 0.18834 0.46574 0.74503 0.0
H1337 H 0.69618 0.19818 0.91398 0.0
H1338 H 0.66416 0.17534 0.86115 0.0
H1339 H 0.70018 0.15102 0.78573 0.0
H1340 H 0.73284 0.17511 0.83619 0.0
H1341 H 0.67137 0.15236 0.72743 0.0
H1342 H 0.67137 0.12703 0.88055 0.0
H1343 H 0.67341 0.13032 0.96664 0.0
H1344 H 0.61413 0.13288 0.96331 0.0
H1345 H 0.61204 0.13006 0.87684 0.0
H1346 H 0.5939 0.04146 0.66215 0.0
H1347 H 0.62351 0.07461 0.70335 0.0
H1348 H 0.57867 0.09686 0.73722 0.0
H1349 H 0.54888 0.06394 0.69457 0.0
H1350 H 0.60906 0.0996 0.81394 0.0
H1351 H 0.6084 0.12092 0.65702 0.0
H1352 H 0.6079 0.1169 0.57091 0.0
H1353 H 0.669 0.11807 0.58244 0.0
H1354 H 0.66967 0.12167 0.66871 0.0
C1355 C 0.69766 0.18868 0.88512 0.0
C1356 C 0.71713 0.18826 0.88003 0.0
C1357 C 0.67917 0.17538 0.8552 0.0
C1358 C 0.67956 0.16096 0.82039 0.0
C1359 C 0.69939 0.16181 0.81272 0.0
C1360 C 0.71801 0.17542 0.84207 0.0
C1361 C 0.65904 0.14335 0.7955 0.0
C1362 C 0.65778 0.14081 0.74637 0.0
C1363 C 0.64114 0.12836 0.8202 0.0
C1364 C 0.64189 0.12903 0.87219 0.0
C1365 C 0.65888 0.12853 0.89813 0.0
C1366 C 0.66002 0.13025 0.94707 0.0
C1367 C 0.64398 0.13197 0.97057 0.0
C1368 C 0.62665 0.13174 0.9451 0.0
C1369 C 0.62552 0.13017 0.89611 0.0
C1370 C 0.59016 0.05324 0.67855 0.0
C1371 C 0.56885 0.0499 0.67511 0.0
C1372 C 0.60719 0.07226 0.70188 0.0
C1373 C 0.60328 0.08824 0.72266 0.0
C1374 C 0.58197 0.08469 0.72111 0.0
C1375 C 0.56493 0.06576 0.69709 0.0
C1376 C 0.62163 0.10854 0.74621 0.0
C1377 C 0.6225 0.11146 0.79507 0.0
C1378 C 0.63932 0.12354 0.72136 0.0
C1379 C 0.63898 0.12138 0.66942 0.0
C1380 C 0.62162 0.1201 0.64125 0.0
C1381 C 0.62133 0.11793 0.59239 0.0
C1382 C 0.63838 0.11718 0.57122 0.0
C1383 C 0.65579 0.11863 0.59889 0.0
C1384 C 0.65614 0.12075 0.64778 0.0
H1385 H 0.63813 0.11551 0.53339 0.0
H1386 H 0.64492 0.13339 0.00849 0.0
H1387 H 0.61325 0.74966 0.84128 0.0
H1388 H 0.61773 0.72895 0.77561 0.0
H1389 H 0.54934 0.68035 0.77298 0.0
H1390 H 0.54489 0.70034 0.83827 0.0
H1391 H 0.6122 0.68893 0.77627 0.0
H1392 H 0.52728 0.6582 0.67163 0.0
H1393 H 0.50647 0.67496 0.6406 0.0
H1394 H 0.56512 0.73789 0.64465 0.0
H1395 H 0.58641 0.72149 0.67497 0.0
H1396 H 0.54598 0.57992 0.75421 0.0
H1397 H 0.56609 0.61978 0.76223 0.0
H1398 H 0.56581 0.62214 0.6117 0.0
H1399 H 0.54502 0.58181 0.60331 0.0
H1400 H 0.55463 0.64947 0.64761 0.0
H1401 H 0.61501 0.64178 0.67464 0.0
H1402 H 0.63704 0.62576 0.70253 0.0
H1403 H 0.63113 0.64227 0.84519 0.0
H1404 H 0.60873 0.65803 0.81835 0.0
C1405 C 0.59917 0.73463 0.82633 0.0
C1406 C 0.57868 0.7267 0.84491 0.0
C1407 C 0.60173 0.72298 0.78858 0.0
C1408 C 0.58378 0.7034 0.76863 0.0
C1409 C 0.5633 0.69581 0.7866 0.0
C1410 C 0.56077 0.70728 0.82421 0.0
C1411 C 0.58634 0.68879 0.73395 0.0
C1412 C 0.60001 0.68057 0.74736 0.0
C1413 C 0.57134 0.67872 0.69441 0.0
C1414 C 0.55851 0.68854 0.67548 0.0
C1415 C 0.53583 0.67556 0.66542 0.0
C1416 C 0.52391 0.68502 0.64809 0.0
C1417 C 0.53446 0.70746 0.64062 0.0
C1418 C 0.55696 0.7205 0.65047 0.0
C1419 C 0.56896 0.71113 0.66779 0.0
C1420 C 0.55026 0.58879 0.72265 0.0
C1421 C 0.54387 0.57761 0.67804 0.0
C1422 C 0.56208 0.61167 0.72732 0.0
C1423 C 0.56801 0.62398 0.68757 0.0
C1424 C 0.56171 0.61295 0.64284 0.0
C1425 C 0.54979 0.58991 0.63812 0.0
C1426 C 0.57858 0.64825 0.69408 0.0
C1427 C 0.56754 0.65836 0.67498 0.0
C1428 C 0.5964 0.66034 0.72753 0.0
C1429 C 0.61023 0.65124 0.74433 0.0
C1430 C 0.61835 0.64197 0.71198 0.0
C1431 C 0.6309 0.6329 0.72762 0.0
C1432 C 0.63552 0.63304 0.77559 0.0
C1433 C 0.62761 0.64225 0.80802 0.0
C1434 C 0.61503 0.65133 0.79259 0.0
H1435 H 0.64521 0.62598 0.78763 0.0
H1436 H 0.5252 0.71475 0.62724 0.0
H1437 H 0.46476 0.19157 0.39464 0.0
H1438 H 0.47183 0.16677 0.44043 0.0
H1439 H 0.43257 0.11315 0.33772 0.0
H1440 H 0.42604 0.13782 0.29095 0.0
H1441 H 0.42605 0.10073 0.43163 0.0
H1442 H 0.48388 0.13826 0.32945 0.0
H1443 H 0.51291 0.17095 0.29544 0.0
H1444 H 0.54713 0.19474 0.43113 0.0
H1445 H 0.51805 0.16232 0.46609 0.0
H1446 H 0.47362 0.03122 0.43452 0.0
H1447 H 0.46353 0.05827 0.41084 0.0
H1448 H 0.48987 0.09479 0.54449 0.0
H1449 H 0.49955 0.06739 0.569 0.0
H1450 H 0.50293 0.11764 0.44576 0.0
H1451 H 0.44567 0.07611 0.54552 0.0
H1452 H 0.4163 0.04245 0.57564 0.0
H1453 H 0.38019 0.02546 0.442 0.0
H1454 H 0.40981 0.05858 0.41033 0.0
C1455 C 0.45751 0.17448 0.38188 0.0
C1456 C 0.44483 0.16678 0.33898 0.0
C1457 C 0.46148 0.16031 0.40825 0.0
C1458 C 0.45276 0.13814 0.3924 0.0
C1459 C 0.43928 0.13014 0.35082 0.0
C1460 C 0.43547 0.14431 0.32423 0.0
C1461 C 0.45908 0.1237 0.41689 0.0
C1462 C 0.44283 0.10439 0.43473 0.0
C1463 C 0.48104 0.12866 0.4214 0.0
C1464 C 0.49867 0.14803 0.40047 0.0
C1465 C 0.4975 0.15056 0.3521 0.0
C1466 C 0.51397 0.16903 0.33264 0.0
C1467 C 0.53182 0.18496 0.36114 0.0
C1468 C 0.53326 0.18241 0.40912 0.0
C1469 C 0.51679 0.164 0.42878 0.0
C1470 C 0.47715 0.04493 0.45895 0.0
C1471 C 0.48729 0.04714 0.50362 0.0
C1472 C 0.4713 0.06029 0.44546 0.0
C1473 C 0.47577 0.07833 0.47608 0.0
C1474 C 0.48617 0.08085 0.52052 0.0
C1475 C 0.49162 0.06518 0.53448 0.0
C1476 C 0.4699 0.09469 0.46053 0.0
C1477 C 0.48621 0.11423 0.44371 0.0
C1478 C 0.44797 0.08982 0.45669 0.0
C1479 C 0.43021 0.06968 0.47528 0.0
C1480 C 0.43171 0.06498 0.52218 0.0
C1481 C 0.41498 0.046 0.53957 0.0
C1482 C 0.39648 0.03171 0.51059 0.0
C1483 C 0.39465 0.03643 0.46421 0.0
C1484 C 0.41143 0.05529 0.44651 0.0
H1485 H 0.3835 0.01707 0.52415 0.0
H1486 H 0.54457 0.19924 0.34602 0.0
H1487 H 0.30851 0.42158 0.23882 0.0
H1488 H 0.3464 0.4335 0.26415 0.0
H1489 H 0.33485 0.44807 0.40459 0.0
H1490 H 0.29716 0.43651 0.37924 0.0
H1491 H 0.36972 0.48301 0.37038 0.0
H1492 H 0.34009 0.40327 0.37538 0.0
H1493 H 0.32303 0.36515 0.3405 0.0
H1494 H 0.37411 0.38496 0.24591 0.0
H1495 H 0.39131 0.42328 0.2799 0.0
H1496 H 0.42332 0.47345 0.55755 0.0
H1497 H 0.39846 0.46471 0.4887 0.0
H1498 H 0.45127 0.48192 0.39876 0.0
H1499 H 0.4765 0.49054 0.46844 0.0
H1500 H 0.4054 0.4377 0.37764 0.0
H1501 H 0.44004 0.51609 0.39642 0.0
H1502 H 0.45737 0.54988 0.44907 0.0
H1503 H 0.39603 0.53087 0.50712 0.0
H1504 H 0.37848 0.49653 0.45618 0.0
C1505 C 0.31395 0.42676 0.27537 0.0
C1506 C 0.30002 0.42821 0.30721 0.0
C1507 C 0.33559 0.43368 0.28965 0.0
C1508 C 0.34342 0.4419 0.33602 0.0
C1509 C 0.32913 0.44204 0.36843 0.0
C1510 C 0.30762 0.43532 0.35413 0.0
C1511 C 0.36669 0.45154 0.35117 0.0
C1512 C 0.37769 0.47325 0.37122 0.0
C1513 C 0.37738 0.43909 0.35049 0.0
C1514 C 0.36675 0.41618 0.32957 0.0
C1515 C 0.34752 0.39954 0.34674 0.0
C1516 C 0.33787 0.37789 0.32724 0.0
C1517 C 0.34742 0.37266 0.29085 0.0
C1518 C 0.36667 0.38906 0.27394 0.0
C1519 C 0.37636 0.41074 0.29327 0.0
C1520 C 0.42969 0.47548 0.52317 0.0
C1521 C 0.45184 0.48309 0.51812 0.0
C1522 C 0.4155 0.47038 0.48398 0.0
C1523 C 0.42317 0.47277 0.43902 0.0
C1524 C 0.44522 0.48007 0.43342 0.0
C1525 C 0.45959 0.48535 0.47304 0.0
C1526 C 0.40762 0.4685 0.3991 0.0
C1527 C 0.39799 0.44791 0.3742 0.0
C1528 C 0.39807 0.4819 0.39552 0.0
C1529 C 0.40793 0.50367 0.42239 0.0
C1530 C 0.43022 0.5191 0.42037 0.0
C1531 C 0.44014 0.53826 0.45026 0.0
C1532 C 0.42783 0.54242 0.48168 0.0
C1533 C 0.40554 0.52757 0.48285 0.0
C1534 C 0.3956 0.50824 0.45347 0.0
H1535 H 0.43555 0.55721 0.50495 0.0
H1536 H 0.33995 0.35588 0.27587 0.0
H1537 H 0.84471 0.29583 0.27986 0.0
H1538 H 0.86877 0.31988 0.34613 0.0
H1539 H 0.91919 0.35546 0.25218 0.0
H1540 H 0.8953 0.33064 0.1859 0.0
H1541 H 0.93671 0.35244 0.33413 0.0
H1542 H 0.88366 0.37307 0.28511 0.0
H1543 H 0.84649 0.36645 0.2671 0.0
H1544 H 0.83056 0.34908 0.40821 0.0
H1545 H 0.86758 0.35533 0.42685 0.0
H1546 H 0.99321 0.46157 0.42276 0.0
H1547 H 0.97145 0.42543 0.38268 0.0
H1548 H 0.93221 0.40263 0.50161 0.0
H1549 H 0.95399 0.43946 0.54226 0.0
H1550 H 0.90773 0.39388 0.42072 0.0
H1551 H 0.96536 0.38202 0.47192 0.0
H1552 H 0.00375 0.39192 0.48685 0.0
H1553 H 0.0125 0.39558 0.33922 0.0
H1554 H 0.97428 0.38607 0.32338 0.0
C1555 C 0.86103 0.30867 0.27356 0.0
C1556 C 0.86813 0.31174 0.22791 0.0
C1557 C 0.87474 0.32237 0.31135 0.0
C1558 C 0.89561 0.33977 0.30398 0.0
C1559 C 0.90312 0.34218 0.25864 0.0
C1560 C 0.88949 0.32814 0.22083 0.0
C1561 C 0.90886 0.3565 0.34264 0.0
C1562 C 0.93043 0.36155 0.35308 0.0
C1563 C 0.90045 0.36797 0.36824 0.0
C1564 C 0.87828 0.36442 0.35721 0.0
C1565 C 0.87217 0.36771 0.31219 0.0
C1566 C 0.85115 0.36403 0.30188 0.0
C1567 C 0.83615 0.35728 0.33645 0.0
C1568 C 0.84218 0.35426 0.38145 0.0
C1569 C 0.86318 0.35788 0.39191 0.0
C1570 C 0.98008 0.44889 0.4408 0.0
C1571 C 0.97508 0.45347 0.48546 0.0
C1572 C 0.9678 0.42809 0.41795 0.0
C1573 C 0.95035 0.41124 0.43931 0.0
C1574 C 0.94572 0.41543 0.48467 0.0
C1575 C 0.95814 0.4364 0.50782 0.0
C1576 C 0.93577 0.39024 0.41156 0.0
C1577 C 0.9139 0.38439 0.40291 0.0
C1578 C 0.94403 0.37829 0.38729 0.0
C1579 C 0.9669 0.38335 0.39648 0.0
C1580 C 0.97548 0.385 0.44262 0.0
C1581 C 0.99722 0.39056 0.45125 0.0
C1582 C 0.01056 0.39439 0.41401 0.0
C1583 C 0.00214 0.39256 0.36803 0.0
C1584 C 0.98041 0.38704 0.3592 0.0
H1585 H 0.02741 0.39876 0.42078 0.0
H1586 H 0.81988 0.35444 0.3284 0.0
H1587 H 0.52 0.79291 0.28918 0.0
H1588 H 0.5129 0.81064 0.3564 0.0
H1589 H 0.54063 0.87158 0.28753 0.0
H1590 H 0.54813 0.85409 0.2211 0.0
H1591 H 0.5548 0.88022 0.37427 0.0
H1592 H 0.48446 0.83645 0.29163 0.0
H1593 H 0.45284 0.80232 0.25584 0.0
H1594 H 0.44149 0.77409 0.38945 0.0
H1595 H 0.47324 0.80799 0.42591 0.0
H1596 H 0.48098 0.91905 0.46136 0.0
H1597 H 0.48283 0.8888 0.42203 0.0
H1598 H 0.53335 0.89761 0.52436 0.0
H1599 H 0.53215 0.9286 0.56328 0.0
H1600 H 0.48068 0.85075 0.4307 0.0
H1601 H 0.57382 0.8975 0.46727 0.0
H1602 H 0.60372 0.93505 0.49187 0.0
H1603 H 0.56674 0.96237 0.43169 0.0
H1604 H 0.53682 0.92505 0.40633 0.0
C1605 C 0.52448 0.81007 0.28847 0.0
C1606 C 0.53465 0.82215 0.25001 0.0
C1607 C 0.52043 0.82018 0.32684 0.0
C1608 C 0.52613 0.84244 0.32699 0.0
C1609 C 0.53624 0.85445 0.28848 0.0
C1610 C 0.54051 0.84445 0.25049 0.0
C1611 C 0.52156 0.85344 0.36683 0.0
C1612 C 0.53863 0.87359 0.38693 0.0
C1613 C 0.50043 0.845 0.38316 0.0
C1614 C 0.48137 0.82462 0.36135 0.0
C1615 C 0.47532 0.82289 0.31328 0.0
C1616 C 0.45736 0.80361 0.2929 0.0
C1617 C 0.44521 0.78602 0.32032 0.0
C1618 C 0.45095 0.78771 0.36823 0.0
C1619 C 0.46892 0.80695 0.38878 0.0
C1620 C 0.49211 0.91424 0.47644 0.0
C1621 C 0.50693 0.92675 0.51461 0.0
C1622 C 0.49304 0.89678 0.45394 0.0
C1623 C 0.50869 0.89136 0.46937 0.0
C1624 C 0.5215 0.90187 0.51119 0.0
C1625 C 0.52073 0.91955 0.53354 0.0
C1626 C 0.51385 0.87761 0.43749 0.0
C1627 C 0.49696 0.85699 0.41892 0.0
C1628 C 0.53495 0.88601 0.42102 0.0
C1629 C 0.55302 0.90851 0.43551 0.0
C1630 C 0.57213 0.91155 0.45924 0.0
C1631 C 0.58908 0.93279 0.47331 0.0
C1632 C 0.58711 0.9511 0.46352 0.0
C1633 C 0.56824 0.94821 0.43942 0.0
C1634 C 0.55129 0.92702 0.42521 0.0
H1635 H 0.60022 0.96752 0.4745 0.0
H1636 H 0.4313 0.7711 0.30448 0.0
H1637 H 0.70293 0.55481 0.16965 0.0
H1638 H 0.6747 0.54836 0.22331 0.0
H1639 H 0.71927 0.60879 0.30417 0.0
H1640 H 0.74785 0.61501 0.25136 0.0
H1641 H 0.69817 0.57546 0.36023 0.0
H1642 H 0.67787 0.60526 0.2325 0.0
H1643 H 0.66897 0.60801 0.14975 0.0
H1644 H 0.61427 0.54221 0.1441 0.0
H1645 H 0.62306 0.53891 0.22661 0.0
H1646 H 0.61513 0.57317 0.49854 0.0
H1647 H 0.64494 0.58399 0.4466 0.0
H1648 H 0.60475 0.52566 0.35556 0.0
H1649 H 0.5749 0.51487 0.4066 0.0
H1650 H 0.62459 0.5608 0.30563 0.0
H1651 H 0.64574 0.52956 0.42947 0.0
H1652 H 0.65428 0.52547 0.51157 0.0
H1653 H 0.70681 0.59253 0.52387 0.0
H1654 H 0.69838 0.5971 0.44194 0.0
C1655 C 0.70673 0.56674 0.19884 0.0
C1656 C 0.72764 0.58543 0.20619 0.0
C1657 C 0.69052 0.56312 0.22929 0.0
C1658 C 0.6948 0.57819 0.26758 0.0
C1659 C 0.71559 0.59698 0.2748 0.0
C1660 C 0.73183 0.60062 0.24431 0.0
C1661 C 0.67773 0.57394 0.30075 0.0
C1662 C 0.6822 0.57264 0.34843 0.0
C1663 C 0.65672 0.56975 0.2852 0.0
C1664 C 0.65125 0.57178 0.23568 0.0
C1665 C 0.66404 0.59132 0.21353 0.0
C1666 C 0.659 0.59298 0.16666 0.0
C1667 C 0.64111 0.57527 0.14163 0.0
C1668 C 0.62816 0.55589 0.16349 0.0
C1669 C 0.63315 0.55413 0.21033 0.0
C1670 C 0.61267 0.56256 0.46765 0.0
C1671 C 0.59256 0.54313 0.45687 0.0
C1672 C 0.62975 0.56877 0.438 0.0
C1673 C 0.62711 0.5556 0.39721 0.0
C1674 C 0.60715 0.53614 0.38667 0.0
C1675 C 0.5901 0.52995 0.41613 0.0
C1676 C 0.64495 0.56208 0.365 0.0
C1677 C 0.64062 0.56381 0.31749 0.0
C1678 C 0.66602 0.56651 0.38064 0.0
C1679 C 0.67127 0.56375 0.42974 0.0
C1680 C 0.65901 0.54348 0.44979 0.0
C1681 C 0.66384 0.54107 0.49627 0.0
C1682 C 0.68102 0.55875 0.52298 0.0
C1683 C 0.69347 0.57886 0.50317 0.0
C1684 C 0.68869 0.58137 0.4567 0.0
H1685 H 0.68473 0.55685 0.55898 0.0
H1686 H 0.63725 0.57658 0.10535 0.0
H1687 H 0.13312 0.7093 0.2563 0.0
H1688 H 0.11763 0.68704 0.32294 0.0
H1689 H 0.17612 0.7307 0.40965 0.0
H1690 H 0.19203 0.75232 0.34208 0.0
H1691 H 0.16523 0.69157 0.42667 0.0
H1692 H 0.12522 0.72955 0.42022 0.0
H1693 H 0.10278 0.74348 0.3837 0.0
H1694 H 0.05167 0.6772 0.34569 0.0
H1695 H 0.07385 0.66287 0.38158 0.0
H1696 H 0.06458 0.62134 0.57963 0.0
H1697 H 0.09231 0.65646 0.55251 0.0
H1698 H 0.11506 0.6223 0.46345 0.0
H1699 H 0.08816 0.58739 0.49117 0.0
H1700 H 0.08895 0.66469 0.46603 0.0
H1701 H 0.16456 0.65517 0.4296 0.0
H1702 H 0.18726 0.64257 0.47019 0.0
H1703 H 0.16844 0.65548 0.60324 0.0
H1704 H 0.14589 0.66847 0.56357 0.0
C1705 C 0.14254 0.71419 0.28975 0.0
C1706 C 0.16368 0.73248 0.2943 0.0
C1707 C 0.13366 0.70158 0.32793 0.0
C1708 C 0.14551 0.70742 0.37177 0.0
C1709 C 0.16662 0.72587 0.37633 0.0
C1710 C 0.17568 0.73822 0.33783 0.0
C1711 C 0.13624 0.69356 0.41195 0.0
C1712 C 0.14862 0.68586 0.43561 0.0
C1713 C 0.11477 0.68657 0.42473 0.0
C1714 C 0.10127 0.69514 0.40348 0.0
C1715 C 0.10923 0.71795 0.40392 0.0
C1716 C 0.09654 0.72592 0.38336 0.0
C1717 C 0.07581 0.71124 0.3624 0.0
C1718 C 0.0677 0.68856 0.36204 0.0
C1719 C 0.08031 0.6805 0.38258 0.0
C1720 C 0.07602 0.62135 0.55562 0.0
C1721 C 0.07377 0.60147 0.53663 0.0
C1722 C 0.09177 0.64145 0.54005 0.0
C1723 C 0.1055 0.64201 0.5055 0.0
C1724 C 0.10479 0.6224 0.49037 0.0
C1725 C 0.08922 0.60234 0.50612 0.0
C1726 C 0.11763 0.662 0.47925 0.0
C1727 C 0.10576 0.67081 0.458 0.0
C1728 C 0.13964 0.67026 0.46936 0.0
C1729 C 0.15343 0.66272 0.49351 0.0
C1730 C 0.16537 0.65548 0.46753 0.0
C1731 C 0.17819 0.64822 0.49039 0.0
C1732 C 0.17926 0.64819 0.53925 0.0
C1733 C 0.16755 0.65546 0.56538 0.0
C1734 C 0.15472 0.66274 0.54271 0.0
H1735 H 0.18919 0.64255 0.55686 0.0
H1736 H 0.06604 0.71746 0.34645 0.0
loop_
_geom_bond_atom_site_label_1
_geom_bond_atom_site_label_2
_geom_bond_distance
_geom_bond_site_symmetry_2
_ccdc_geom_bond_type
H0 O26 0.856 . S
H1 O29 0.854 . S
H2 C37 0.930 . S
H3 C38 0.930 . S
H4 C40 0.930 . S
H5 C41 0.930 . S
H6 C43 0.931 . S
H7 C44 0.930 . S
H8 C46 0.930 . S
H9 C47 0.929 . S
H10 C49 0.930 . S
H11 C50 0.931 . S
H12 C52 0.930 . S
H13 C53 0.929 . S
H14 C55 0.931 . S
H15 C56 0.930 . S
H16 C58 0.930 . S
H17 C59 0.932 . S
H18 C61 0.930 . S
H19 C62 0.929 . S
H20 C64 0.931 . S
H21 C65 0.930 . S
H22 C67 0.929 . S
H23 C68 0.931 . S
H24 C70 0.930 . S
H25 C71 0.929 . S
O26 H0 0.856 . S
O26 C72 1.300 . S
O27 C72 1.209 . S
O28 C73 1.199 . S
O29 H1 0.854 . S
O29 C73 1.297 . S
C30 C31 1.404 . S
C30 C35 1.397 . S
C30 C36 1.492 . S
C31 C30 1.404 . S
C31 C32 1.396 . S
C31 C42 1.492 . S
C32 C31 1.396 . S
C32 C33 1.397 . S
C32 C48 1.509 . S
C33 C32 1.397 . S
C33 C34 1.412 . S
C33 C54 1.485 . S
C34 C33 1.412 . S
C34 C35 1.388 . S
C34 C60 1.490 . S
C35 C30 1.397 . S
C35 C34 1.388 . S
C35 C66 1.519 . S
C36 C30 1.492 . S
C36 C37 1.363 . S
C36 C41 1.390 . S
C37 H2 0.930 . S
C37 C36 1.363 . S
C37 C38 1.372 . S
C38 H3 0.930 . S
C38 C37 1.372 . S
C38 C39 1.383 . S
C39 C38 1.383 . S
C39 C40 1.395 . S
C40 H4 0.930 . S
C40 C39 1.395 . S
C40 C41 1.362 . S
C41 H5 0.930 . S
C41 C36 1.390 . S
C41 C40 1.362 . S
C42 C31 1.492 . S
C42 C43 1.377 . S
C42 C47 1.397 . S
C43 H6 0.931 . S
C43 C42 1.377 . S
C43 C44 1.376 . S
C44 H7 0.930 . S
C44 C43 1.376 . S
C44 C45 1.376 . S
C45 C44 1.376 . S
C45 C46 1.378 . S
C45 C72 1.486 . S
C46 H8 0.930 . S
C46 C45 1.378 . S
C46 C47 1.376 . S
C47 H9 0.929 . S
C47 C42 1.397 . S
C47 C46 1.376 . S
C48 C32 1.509 . S
C48 C49 1.391 . S
C48 C53 1.386 . S
C49 H10 0.930 . S
C49 C48 1.391 . S
C49 C50 1.375 . S
C50 H11 0.931 . S
C50 C49 1.375 . S
C50 C51 1.375 . S
C51 C50 1.375 . S
C51 C52 1.361 . S
C52 H12 0.930 . S
C52 C51 1.361 . S
C52 C53 1.399 . S
C53 H13 0.929 . S
C53 C48 1.386 . S
C53 C52 1.399 . S
C54 C33 1.485 . S
C54 C55 1.394 . S
C54 C59 1.360 . S
C55 H14 0.931 . S
C55 C54 1.394 . S
C55 C56 1.372 . S
C56 H15 0.930 . S
C56 C55 1.372 . S
C56 C57 1.397 . S
C57 C56 1.397 . S
C57 C58 1.390 . S
C57 C73 1.476 . S
C58 H16 0.930 . S
C58 C57 1.390 . S
C58 C59 1.366 . S
C59 H17 0.932 . S
C59 C54 1.360 . S
C59 C58 1.366 . S
C60 C34 1.490 . S
C60 C61 1.380 . S
C60 C65 1.386 . S
C61 H18 0.930 . S
C61 C60 1.380 . S
C61 C62 1.381 . S
C62 H19 0.929 . S
C62 C61 1.381 . S
C62 C63 1.371 . S
C63 C62 1.371 . S
C63 C64 1.380 . S
C64 H20 0.931 . S
C64 C63 1.380 . S
C64 C65 1.387 . S
C65 H21 0.930 . S
C65 C60 1.386 . S
C65 C64 1.387 . S
C66 C35 1.519 . S
C66 C67 1.377 . S
C66 C71 1.361 . S
C67 H22 0.929 . S
C67 C66 1.377 . S
C67 C68 1.386 . S
C68 H23 0.931 . S
C68 C67 1.386 . S
C68 C69 1.363 . S
C69 C68 1.363 . S
C69 C70 1.385 . S
C70 H24 0.930 . S
C70 C69 1.385 . S
C70 C71 1.396 . S
C71 H25 0.929 . S
C71 C66 1.361 . S
C71 C70 1.396 . S
C72 O26 1.300 . S
C72 O27 1.209 . S
C72 C45 1.486 . S
C73 O28 1.199 . S
C73 O29 1.297 . S
C73 C57 1.476 . S
H74 O100 0.856 . S
H75 O103 0.854 . S
H76 C111 0.930 . S
H77 C112 0.930 . S
H78 C114 0.930 . S
H79 C115 0.930 . S
H80 C117 0.931 . S
H81 C118 0.930 . S
H82 C120 0.930 . S
H83 C121 0.929 . S
H84 C123 0.930 . S
H85 C124 0.931 . S
H86 C126 0.930 . S
H87 C127 0.929 . S
H88 C129 0.931 . S
H89 C130 0.930 . S
H90 C132 0.930 . S
H91 C133 0.932 . S
H92 C135 0.928 1_554 S
H93 C136 0.929 . S
H94 C138 0.931 . S
H95 C139 0.930 1_554 S
H96 C141 0.929 . S
H97 C142 0.931 . S
H98 C144 0.930 . S
H99 C145 0.929 . S
O100 H74 0.856 . S
O100 C146 1.300 . S
O101 C146 1.209 . S
O102 C147 1.199 . S
O103 H75 0.854 . S
O103 C147 1.297 . S
C104 C105 1.404 . S
C104 C109 1.397 . S
C104 C110 1.492 . S
C105 C104 1.404 . S
C105 C106 1.396 . S
C105 C116 1.492 . S
C106 C105 1.396 . S
C106 C107 1.397 . S
C106 C122 1.509 . S
C107 C106 1.397 . S
C107 C108 1.412 . S
C107 C128 1.485 . S
C108 C107 1.412 . S
C108 C109 1.388 . S
C108 C134 1.490 . S
C109 C104 1.397 . S
C109 C108 1.388 . S
C109 C140 1.519 . S
C110 C104 1.492 . S
C110 C111 1.363 . S
C110 C115 1.390 . S
C111 H76 0.930 . S
C111 C110 1.363 . S
C111 C112 1.372 . S
C112 H77 0.930 . S
C112 C111 1.372 . S
C112 C113 1.383 . S
C113 C112 1.383 . S
C113 C114 1.395 . S
C114 H78 0.930 . S
C114 C113 1.395 . S
C114 C115 1.362 . S
C115 H79 0.930 . S
C115 C110 1.390 . S
C115 C114 1.362 . S
C116 C105 1.492 . S
C116 C117 1.377 . S
C116 C121 1.397 . S
C117 H80 0.931 . S
C117 C116 1.377 . S
C117 C118 1.376 . S
C118 H81 0.930 . S
C118 C117 1.376 . S
C118 C119 1.376 . S
C119 C118 1.376 . S
C119 C120 1.378 . S
C119 C146 1.486 . S
C120 H82 0.930 . S
C120 C119 1.378 . S
C120 C121 1.376 . S
C121 H83 0.929 . S
C121 C116 1.397 . S
C121 C120 1.376 . S
C122 C106 1.509 . S
C122 C123 1.391 . S
C122 C127 1.386 . S
C123 H84 0.930 . S
C123 C122 1.391 . S
C123 C124 1.375 . S
C124 H85 0.931 . S
C124 C123 1.375 . S
C124 C125 1.375 . S
C125 C124 1.375 . S
C125 C126 1.361 . S
C126 H86 0.930 . S
C126 C125 1.361 . S
C126 C127 1.399 . S
C127 H87 0.929 . S
C127 C122 1.386 . S
C127 C126 1.399 . S
C128 C107 1.485 . S
C128 C129 1.394 . S
C128 C133 1.360 . S
C129 H88 0.931 . S
C129 C128 1.394 . S
C129 C130 1.372 . S
C130 H89 0.930 . S
C130 C129 1.372 . S
C130 C131 1.397 . S
C131 C130 1.397 . S
C131 C132 1.390 . S
C131 C147 1.476 . S
C132 H90 0.930 . S
C132 C131 1.390 . S
C132 C133 1.366 . S
C133 H91 0.932 . S
C133 C128 1.360 . S
C133 C132 1.366 . S
C134 C108 1.490 . S
C134 C135 1.378 1_554 S
C134 C139 1.386 1_554 S
C135 H92 0.928 1_556 S
C135 C134 1.378 1_556 S
C135 C136 1.385 . S
C136 H93 0.929 . S
C136 C135 1.385 . S
C136 C137 1.371 . S
C137 C136 1.371 . S
C137 C138 1.380 . S
C138 H94 0.931 . S
C138 C137 1.380 . S
C138 C139 1.387 . S
C139 H95 0.930 1_556 S
C139 C134 1.386 1_556 S
C139 C138 1.387 . S
C140 C109 1.519 . S
C140 C141 1.377 . S
C140 C145 1.361 . S
C141 H96 0.929 . S
C141 C140 1.377 . S
C141 C142 1.386 . S
C142 H97 0.931 . S
C142 C141 1.386 . S
C142 C143 1.363 1_554 S
C143 C142 1.363 1_556 S
C143 C144 1.385 . S
C144 H98 0.930 . S
C144 C143 1.385 . S
C144 C145 1.396 1_556 S
C145 H99 0.929 . S
C145 C140 1.361 . S
C145 C144 1.396 1_554 S
C146 O100 1.300 . S
C146 O101 1.209 . S
C146 C119 1.486 . S
C147 O102 1.199 . S
C147 O103 1.297 . S
C147 C131 1.476 . S
H148 O174 0.856 . S
H149 O177 0.854 . S
H150 C185 0.930 . S
H151 C186 0.930 . S
H152 C188 0.930 . S
H153 C189 0.930 . S
H154 C191 0.931 . S
H155 C192 0.930 . S
H156 C194 0.930 . S
H157 C195 0.929 . S
H158 C197 0.930 . S
H159 C198 0.931 . S
H160 C200 0.930 . S
H161 C201 0.929 . S
H162 C203 0.931 . S
H163 C204 0.930 . S
H164 C206 0.930 . S
H165 C207 0.932 1_556 S
H166 C209 0.930 . S
H167 C210 0.929 . S
H168 C212 0.931 . S
H169 C213 0.930 . S
H170 C215 0.929 . S
H171 C216 0.931 . S
H172 C218 0.930 . S
H173 C219 0.929 . S
O174 H148 0.856 . S
O174 C220 1.300 . S
O175 C220 1.209 . S
O176 C221 1.199 . S
O177 H149 0.854 . S
O177 C221 1.297 . S
C178 C179 1.404 . S
C178 C183 1.397 1_556 S
C178 C184 1.492 . S
C179 C178 1.404 . S
C179 C180 1.396 . S
C179 C190 1.492 . S
C180 C179 1.396 . S
C180 C181 1.397 1_556 S
C180 C196 1.509 . S
C181 C180 1.397 1_554 S
C181 C182 1.412 . S
C181 C202 1.485 . S
C182 C181 1.412 . S
C182 C183 1.388 . S
C182 C208 1.490 . S
C183 C178 1.397 1_554 S
C183 C182 1.388 . S
C183 C214 1.519 . S
C184 C178 1.492 . S
C184 C185 1.363 . S
C184 C189 1.390 . S
C185 H150 0.930 . S
C185 C184 1.363 . S
C185 C186 1.372 . S
C186 H151 0.930 . S
C186 C185 1.372 . S
C186 C187 1.383 . S
C187 C186 1.383 . S
C187 C188 1.395 . S
C188 H152 0.930 . S
C188 C187 1.395 . S
C188 C189 1.362 . S
C189 H153 0.930 . S
C189 C184 1.390 . S
C189 C188 1.362 . S
C190 C179 1.492 . S
C190 C191 1.377 . S
C190 C195 1.397 . S
C191 H154 0.931 . S
C191 C190 1.377 . S
C191 C192 1.376 . S
C192 H155 0.930 . S
C192 C191 1.376 . S
C192 C193 1.376 . S
C193 C192 1.376 . S
C193 C194 1.378 . S
C193 C220 1.486 . S
C194 H156 0.930 . S
C194 C193 1.378 . S
C194 C195 1.376 . S
C195 H157 0.929 . S
C195 C190 1.397 . S
C195 C194 1.376 . S
C196 C180 1.509 . S
C196 C197 1.391 . S
C196 C201 1.386 . S
C197 H158 0.930 . S
C197 C196 1.391 . S
C197 C198 1.375 . S
C198 H159 0.931 . S
C198 C197 1.375 . S
C198 C199 1.375 . S
C199 C198 1.375 . S
C199 C200 1.361 . S
C200 H160 0.930 . S
C200 C199 1.361 . S
C200 C201 1.399 . S
C201 H161 0.929 . S
C201 C196 1.386 . S
C201 C200 1.399 . S
C202 C181 1.485 . S
C202 C203 1.394 . S
C202 C207 1.360 . S
C203 H162 0.931 . S
C203 C202 1.394 . S
C203 C204 1.372 . S
C204 H163 0.930 . S
C204 C203 1.372 . S
C204 C205 1.397 . S
C205 C204 1.397 . S
C205 C206 1.390 . S
C205 C221 1.476 . S
C206 H164 0.930 . S
C206 C205 1.390 . S
C206 C207 1.366 . S
C207 H165 0.932 1_554 S
C207 C202 1.360 . S
C207 C206 1.366 . S
C208 C182 1.490 . S
C208 C209 1.380 . S
C208 C213 1.386 . S
C209 H166 0.930 . S
C209 C208 1.380 . S
C209 C210 1.381 . S
C210 H167 0.929 . S
C210 C209 1.381 . S
C210 C211 1.371 . S
C211 C210 1.371 . S
C211 C212 1.380 . S
C212 H168 0.931 . S
C212 C211 1.380 . S
C212 C213 1.387 . S
C213 H169 0.930 . S
C213 C208 1.386 . S
C213 C212 1.387 . S
C214 C183 1.519 . S
C214 C215 1.377 . S
C214 C219 1.361 . S
C215 H170 0.929 . S
C215 C214 1.377 . S
C215 C216 1.386 . S
C216 H171 0.931 . S
C216 C215 1.386 . S
C216 C217 1.363 . S
C217 C216 1.363 . S
C217 C218 1.385 . S
C218 H172 0.930 . S
C218 C217 1.385 . S
C218 C219 1.396 . S
C219 H173 0.929 . S
C219 C214 1.361 . S
C219 C218 1.396 . S
C220 O174 1.300 . S
C220 O175 1.209 . S
C220 C193 1.486 . S
C221 O176 1.199 . S
C221 O177 1.297 . S
C221 C205 1.476 . S
H222 O248 0.856 . S
H223 O251 0.854 . S
H224 C259 0.930 . S
H225 C260 0.930 . S
H226 C262 0.930 . S
H227 C263 0.930 . S
H228 C265 0.931 . S
H229 C266 0.930 . S
H230 C268 0.930 . S
H231 C269 0.929 . S
H232 C271 0.930 . S
H233 C272 0.931 . S
H234 C274 0.930 . S
H235 C275 0.929 . S
H236 C277 0.931 . S
H237 C278 0.939 . S
H238 C280 0.930 . S
H239 C281 0.932 . S
H240 C283 0.930 . S
H241 C284 0.929 . S
H242 C286 0.931 . S
H243 C287 0.930 . S
H244 C289 0.929 . S
H245 C290 0.931 . S
H246 C292 0.930 . S
H247 C293 0.929 . S
O248 H222 0.856 . S
O248 C294 1.300 . S
O249 C294 1.209 . S
O250 C295 1.199 . S
O251 H223 0.854 . S
O251 C295 1.297 1_554 S
C252 C253 1.404 . S
C252 C257 1.397 . S
C252 C258 1.492 . S
C253 C252 1.404 . S
C253 C254 1.396 . S
C253 C264 1.492 . S
C254 C253 1.396 . S
C254 C255 1.397 . S
C254 C270 1.509 . S
C255 C254 1.397 . S
C255 C256 1.412 . S
C255 C276 1.485 . S
C256 C255 1.412 . S
C256 C257 1.388 . S
C256 C282 1.490 1_554 S
C257 C252 1.397 . S
C257 C256 1.388 . S
C257 C288 1.519 1_554 S
C258 C252 1.492 . S
C258 C259 1.363 . S
C258 C263 1.390 . S
C259 H224 0.930 . S
C259 C258 1.363 . S
C259 C260 1.372 . S
C260 H225 0.930 . S
C260 C259 1.372 . S
C260 C261 1.383 . S
C261 C260 1.383 . S
C261 C262 1.395 . S
C262 H226 0.930 . S
C262 C261 1.395 . S
C262 C263 1.362 . S
C263 H227 0.930 . S
C263 C258 1.390 . S
C263 C262 1.362 . S
C264 C253 1.492 . S
C264 C265 1.377 . S
C264 C269 1.397 . S
C265 H228 0.931 . S
C265 C264 1.377 . S
C265 C266 1.376 . S
C266 H229 0.930 . S
C266 C265 1.376 . S
C266 C267 1.376 . S
C267 C266 1.376 . S
C267 C268 1.378 . S
C267 C294 1.486 . S
C268 H230 0.930 . S
C268 C267 1.378 . S
C268 C269 1.376 . S
C269 H231 0.929 . S
C269 C264 1.397 . S
C269 C268 1.376 . S
C270 C254 1.509 . S
C270 C271 1.391 . S
C270 C275 1.386 . S
C271 H232 0.930 . S
C271 C270 1.391 . S
C271 C272 1.375 . S
C272 H233 0.931 . S
C272 C271 1.375 . S
C272 C273 1.375 . S
C273 C272 1.375 . S
C273 C274 1.361 . S
C274 H234 0.930 . S
C274 C273 1.361 . S
C274 C275 1.399 . S
C275 H235 0.929 . S
C275 C270 1.386 . S
C275 C274 1.399 . S
C276 C255 1.485 . S
C276 C277 1.394 . S
C276 C281 1.360 . S
C277 H236 0.931 . S
C277 C276 1.394 . S
C277 C278 1.366 1_554 S
C278 H237 0.939 . S
C278 C277 1.366 1_556 S
C278 C279 1.393 1_556 S
C279 C278 1.393 1_554 S
C279 C280 1.390 . S
C279 C295 1.476 1_554 S
C280 H238 0.930 . S
C280 C279 1.390 . S
C280 C281 1.366 . S
C281 H239 0.932 . S
C281 C276 1.360 . S
C281 C280 1.366 . S
C282 C256 1.490 1_556 S
C282 C283 1.380 . S
C282 C287 1.386 . S
C283 H240 0.930 . S
C283 C282 1.380 . S
C283 C284 1.381 . S
C284 H241 0.929 . S
C284 C283 1.381 . S
C284 C285 1.371 . S
C285 C284 1.371 . S
C285 C286 1.380 . S
C286 H242 0.931 . S
C286 C285 1.380 . S
C286 C287 1.387 . S
C287 H243 0.930 . S
C287 C282 1.386 . S
C287 C286 1.387 . S
C288 C257 1.519 1_556 S
C288 C289 1.377 . S
C288 C293 1.361 . S
C289 H244 0.929 . S
C289 C288 1.377 . S
C289 C290 1.386 . S
C290 H245 0.931 . S
C290 C289 1.386 . S
C290 C291 1.363 . S
C291 C290 1.363 . S
C291 C292 1.385 . S
C292 H246 0.930 . S
C292 C291 1.385 . S
C292 C293 1.396 . S
C293 H247 0.929 . S
C293 C288 1.361 . S
C293 C292 1.396 . S
C294 O248 1.300 . S
C294 O249 1.209 . S
C294 C267 1.486 . S
C295 O250 1.199 . S
C295 O251 1.297 1_556 S
C295 C279 1.476 1_556 S
H296 O322 0.856 . S
H297 O325 0.854 . S
H298 C333 0.930 . S
H299 C334 0.930 . S
H300 C336 0.930 . S
H301 C337 0.930 . S
H302 C339 0.931 . S
H303 C340 0.930 . S
H304 C342 0.930 . S
H305 C343 0.929 . S
H306 C345 0.930 . S
H307 C346 0.931 . S
H308 C348 0.930 . S
H309 C349 0.929 . S
H310 C351 0.931 . S
H311 C352 0.930 . S
H312 C354 0.930 . S
H313 C355 0.932 . S
H314 C357 0.930 . S
H315 C358 0.929 . S
H316 C360 0.931 . S
H317 C361 0.930 . S
H318 C363 0.929 . S
H319 C364 0.931 . S
H320 C366 0.930 1_556 S
H321 C367 0.929 . S
O322 H296 0.856 . S
O322 C368 1.300 . S
O323 C368 1.209 . S
O324 C369 1.199 . S
O325 H297 0.854 . S
O325 C369 1.297 . S
C326 C327 1.404 . S
C326 C331 1.397 . S
C326 C332 1.492 . S
C327 C326 1.404 . S
C327 C328 1.396 . S
C327 C338 1.492 . S
C328 C327 1.396 . S
C328 C329 1.397 . S
C328 C344 1.509 . S
C329 C328 1.397 . S
C329 C330 1.412 . S
C329 C350 1.485 . S
C330 C329 1.412 . S
C330 C331 1.388 . S
C330 C356 1.490 . S
C331 C326 1.397 . S
C331 C330 1.388 . S
C331 C362 1.519 . S
C332 C326 1.492 . S
C332 C333 1.363 . S
C332 C337 1.390 . S
C333 H298 0.930 . S
C333 C332 1.363 . S
C333 C334 1.372 . S
C334 H299 0.930 . S
C334 C333 1.372 . S
C334 C335 1.383 . S
C335 C334 1.383 . S
C335 C336 1.395 . S
C336 H300 0.930 . S
C336 C335 1.395 . S
C336 C337 1.362 . S
C337 H301 0.930 . S
C337 C332 1.390 . S
C337 C336 1.362 . S
C338 C327 1.492 . S
C338 C339 1.377 . S
C338 C343 1.397 . S
C339 H302 0.931 . S
C339 C338 1.377 . S
C339 C340 1.376 . S
C340 H303 0.930 . S
C340 C339 1.376 . S
C340 C341 1.376 . S
C341 C340 1.376 . S
C341 C342 1.378 . S
C341 C368 1.486 . S
C342 H304 0.930 . S
C342 C341 1.378 . S
C342 C343 1.376 . S
C343 H305 0.929 . S
C343 C338 1.397 . S
C343 C342 1.376 . S
C344 C328 1.509 . S
C344 C345 1.391 . S
C344 C349 1.386 . S
C345 H306 0.930 . S
C345 C344 1.391 . S
C345 C346 1.375 . S
C346 H307 0.931 . S
C346 C345 1.375 . S
C346 C347 1.375 . S
C347 C346 1.375 . S
C347 C348 1.361 . S
C348 H308 0.930 . S
C348 C347 1.361 . S
C348 C349 1.399 . S
C349 H309 0.929 . S
C349 C344 1.386 . S
C349 C348 1.399 . S
C350 C329 1.485 . S
C350 C351 1.394 . S
C350 C355 1.360 . S
C351 H310 0.931 . S
C351 C350 1.394 . S
C351 C352 1.372 . S
C352 H311 0.930 . S
C352 C351 1.372 . S
C352 C353 1.397 . S
C353 C352 1.397 . S
C353 C354 1.390 . S
C353 C369 1.476 . S
C354 H312 0.930 . S
C354 C353 1.390 . S
C354 C355 1.366 . S
C355 H313 0.932 . S
C355 C350 1.360 . S
C355 C354 1.366 . S
C356 C330 1.490 . S
C356 C357 1.380 . S
C356 C361 1.386 . S
C357 H314 0.930 . S
C357 C356 1.380 . S
C357 C358 1.381 1_554 S
C358 H315 0.929 . S
C358 C357 1.381 1_556 S
C358 C359 1.371 . S
C359 C358 1.371 . S
C359 C360 1.380 . S
C360 H316 0.931 . S
C360 C359 1.380 . S
C360 C361 1.387 1_556 S
C361 H317 0.930 . S
C361 C356 1.386 . S
C361 C360 1.387 1_554 S
C362 C331 1.519 . S
C362 C363 1.377 . S
C362 C367 1.361 . S
C363 H318 0.929 . S
C363 C362 1.377 . S
C363 C364 1.386 . S
C364 H319 0.931 . S
C364 C363 1.386 . S
C364 C365 1.374 . S
C365 C364 1.374 . S
C365 C366 1.390 . S
C366 H320 0.930 1_554 S
C366 C365 1.390 . S
C366 C367 1.396 . S
C367 H321 0.929 . S
C367 C362 1.361 . S
C367 C366 1.396 . S
C368 O322 1.300 . S
C368 O323 1.209 . S
C368 C341 1.486 . S
C369 O324 1.199 . S
C369 O325 1.297 . S
C369 C353 1.476 . S
H370 O396 0.856 . S
H371 O399 0.854 . S
H372 C407 0.930 . S
H373 C408 0.930 . S
H374 C410 0.930 . S
H375 C411 0.930 . S
H376 C413 0.931 1_554 S
H377 C414 0.930 . S
H378 C416 0.930 . S
H379 C417 0.929 . S
H380 C419 0.930 . S
H381 C420 0.931 . S
H382 C422 0.930 . S
H383 C423 0.929 . S
H384 C425 0.931 . S
H385 C426 0.930 . S
H386 C428 0.930 . S
H387 C429 0.932 . S
H388 C431 0.930 . S
H389 C432 0.929 . S
H390 C434 0.931 . S
H391 C435 0.930 . S
H392 C437 0.929 . S
H393 C438 0.931 . S
H394 C440 0.930 . S
H395 C441 0.929 . S
O396 H370 0.856 . S
O396 C442 1.300 . S
O397 C442 1.209 . S
O398 C443 1.199 . S
O399 H371 0.854 . S
O399 C443 1.297 . S
C400 C401 1.404 . S
C400 C405 1.397 . S
C400 C406 1.492 . S
C401 C400 1.404 . S
C401 C402 1.396 . S
C401 C412 1.492 . S
C402 C401 1.396 . S
C402 C403 1.397 . S
C402 C418 1.509 . S
C403 C402 1.397 . S
C403 C404 1.412 . S
C403 C424 1.485 . S
C404 C403 1.412 . S
C404 C405 1.388 . S
C404 C430 1.490 . S
C405 C400 1.397 . S
C405 C404 1.388 . S
C405 C436 1.519 . S
C406 C400 1.492 . S
C406 C407 1.363 . S
C406 C411 1.390 . S
C407 H372 0.930 . S
C407 C406 1.363 . S
C407 C408 1.372 . S
C408 H373 0.930 . S
C408 C407 1.372 . S
C408 C409 1.383 . S
C409 C408 1.383 . S
C409 C410 1.395 . S
C410 H374 0.930 . S
C410 C409 1.395 . S
C410 C411 1.362 . S
C411 H375 0.930 . S
C411 C406 1.390 . S
C411 C410 1.362 . S
C412 C401 1.492 . S
C412 C413 1.377 1_554 S
C412 C417 1.397 . S
C413 H376 0.931 1_556 S
C413 C412 1.377 1_556 S
C413 C414 1.376 . S
C414 H377 0.930 . S
C414 C413 1.376 . S
C414 C415 1.376 . S
C415 C414 1.376 . S
C415 C416 1.378 . S
C415 C442 1.486 . S
C416 H378 0.930 . S
C416 C415 1.378 . S
C416 C417 1.376 1_556 S
C417 H379 0.929 . S
C417 C412 1.397 . S
C417 C416 1.376 1_554 S
C418 C402 1.509 . S
C418 C419 1.391 . S
C418 C423 1.386 . S
C419 H380 0.930 . S
C419 C418 1.391 . S
C419 C420 1.375 1_554 S
C420 H381 0.931 . S
C420 C419 1.375 1_556 S
C420 C421 1.375 . S
C421 C420 1.375 . S
C421 C422 1.361 . S
C422 H382 0.930 . S
C422 C421 1.361 . S
C422 C423 1.399 1_556 S
C423 H383 0.929 . S
C423 C418 1.386 . S
C423 C422 1.399 1_554 S
C424 C403 1.485 . S
C424 C425 1.394 . S
C424 C429 1.360 . S
C425 H384 0.931 . S
C425 C424 1.394 . S
C425 C426 1.372 . S
C426 H385 0.930 . S
C426 C425 1.372 . S
C426 C427 1.397 . S
C427 C426 1.397 . S
C427 C428 1.390 . S
C427 C443 1.476 . S
C428 H386 0.930 . S
C428 C427 1.390 . S
C428 C429 1.366 . S
C429 H387 0.932 . S
C429 C424 1.360 . S
C429 C428 1.366 . S
C430 C404 1.490 . S
C430 C431 1.380 . S
C430 C435 1.386 . S
C431 H388 0.930 . S
C431 C430 1.380 . S
C431 C432 1.381 . S
C432 H389 0.929 . S
C432 C431 1.381 . S
C432 C433 1.371 . S
C433 C432 1.371 . S
C433 C434 1.380 . S
C434 H390 0.931 . S
C434 C433 1.380 . S
C434 C435 1.387 . S
C435 H391 0.930 . S
C435 C430 1.386 . S
C435 C434 1.387 . S
C436 C405 1.519 . S
C436 C437 1.377 . S
C436 C441 1.361 . S
C437 H392 0.929 . S
C437 C436 1.377 . S
C437 C438 1.386 . S
C438 H393 0.931 . S
C438 C437 1.386 . S
C438 C439 1.363 . S
C439 C438 1.363 . S
C439 C440 1.385 . S
C440 H394 0.930 . S
C440 C439 1.385 . S
C440 C441 1.396 . S
C441 H395 0.929 . S
C441 C436 1.361 . S
C441 C440 1.396 . S
C442 O396 1.300 . S
C442 O397 1.209 . S
C442 C415 1.486 . S
C443 O398 1.199 . S
C443 O399 1.297 . S
C443 C427 1.476 . S
C444 O471 1.312 . S
C444 O472 1.208 . S
C445 O466 1.331 . S
C445 O469 1.244 . S
C446 O468 1.264 . S
C446 O470 1.273 . S
Mg447 O449 1.936 . S
Mg447 O456 2.081 1_455 S
Mg447 O458 2.023 . S
Mg447 O462 2.031 1_455 S
Mg447 O471 2.291 . S
Mg448 O449 1.963 . S
Mg448 O459 1.942 1_455 S
Mg448 O460 1.955 . S
Mg448 O467 1.986 1_455 S
O449 Mg447 1.936 . S
O449 Mg448 1.963 . S
O449 Mg450 1.915 . S
Mg450 O449 1.915 . S
Mg450 O451 1.915 . S
Mg450 O455 2.013 . S
Mg450 O461 2.114 1_455 S
Mg450 O465 2.013 1_455 S
Mg450 O471 2.114 . S
O451 Mg450 1.915 . S
O451 Mg452 1.936 . S
O451 Mg453 1.963 . S
Mg452 O451 1.936 . S
Mg452 O461 2.291 1_455 S
Mg452 O466 2.081 . S
Mg452 O468 2.023 1_455 S
Mg452 O472 2.031 . S
Mg453 O451 1.963 . S
Mg453 O457 1.986 . S
Mg453 O469 1.942 . S
Mg453 O470 1.955 1_455 S
C454 O465 1.191 . S
C454 O467 1.307 . S
O455 Mg450 2.013 . S
O455 C474 1.191 . S
O456 Mg447 2.081 1_655 S
O456 C464 1.331 . S
O457 Mg453 1.986 . S
O457 C474 1.307 . S
O458 Mg447 2.023 . S
O458 C473 1.264 . S
O459 Mg448 1.942 1_655 S
O459 C464 1.244 . S
O460 Mg448 1.955 . S
O460 C473 1.273 . S
O461 Mg450 2.114 1_655 S
O461 Mg452 2.291 1_655 S
O461 C463 1.312 . S
O462 Mg447 2.031 1_655 S
O462 C463 1.208 . S
C463 O461 1.312 . S
C463 O462 1.208 . S
C464 O456 1.331 . S
C464 O459 1.244 . S
O465 Mg450 2.013 1_655 S
O465 C454 1.191 . S
O466 C445 1.331 . S
O466 Mg452 2.081 . S
O467 Mg448 1.986 1_655 S
O467 C454 1.307 . S
O468 C446 1.264 . S
O468 Mg452 2.023 1_655 S
O469 C445 1.244 . S
O469 Mg453 1.942 . S
O470 C446 1.273 . S
O470 Mg453 1.955 1_655 S
O471 C444 1.312 . S
O471 Mg447 2.291 . S
O471 Mg450 2.114 . S
O472 C444 1.208 . S
O472 Mg452 2.031 . S
C473 O458 1.264 . S
C473 O460 1.273 . S
C474 O455 1.191 . S
C474 O457 1.307 . S
C475 O502 1.312 . S
C475 O503 1.208 . S
C476 O497 1.331 . S
C476 O500 1.244 . S
C477 O499 1.264 . S
C477 O501 1.273 . S
Mg478 O480 1.936 . S
Mg478 O487 2.081 1_545 S
Mg478 O489 2.023 . S
Mg478 O493 2.031 1_545 S
Mg478 O502 2.291 . S
Mg479 O480 1.963 . S
Mg479 O490 1.942 1_545 S
Mg479 O491 1.955 . S
Mg479 O498 1.986 1_545 S
O480 Mg478 1.936 . S
O480 Mg479 1.963 . S
O480 Mg481 1.915 . S
Mg481 O480 1.915 . S
Mg481 O482 1.915 . S
Mg481 O486 2.013 . S
Mg481 O492 2.114 1_545 S
Mg481 O496 2.013 1_545 S
Mg481 O502 2.114 . S
O482 Mg481 1.915 . S
O482 Mg483 1.936 . S
O482 Mg484 1.963 . S
Mg483 O482 1.936 . S
Mg483 O492 2.291 1_545 S
Mg483 O497 2.081 . S
Mg483 O499 2.023 1_545 S
Mg483 O503 2.031 . S
Mg484 O482 1.963 . S
Mg484 O488 1.986 . S
Mg484 O500 1.942 . S
Mg484 O501 1.955 1_545 S
C485 O496 1.191 . S
C485 O498 1.307 . S
O486 Mg481 2.013 . S
O486 C505 1.191 . S
O487 Mg478 2.081 1_565 S
O487 C495 1.331 . S
O488 Mg484 1.986 . S
O488 C505 1.307 . S
O489 Mg478 2.023 . S
O489 C504 1.264 . S
O490 Mg479 1.942 1_565 S
O490 C495 1.244 . S
O491 Mg479 1.955 . S
O491 C504 1.273 . S
O492 Mg481 2.114 1_565 S
O492 Mg483 2.291 1_565 S
O492 C494 1.312 . S
O493 Mg478 2.031 1_565 S
O493 C494 1.208 . S
C494 O492 1.312 . S
C494 O493 1.208 . S
C495 O487 1.331 . S
C495 O490 1.244 . S
O496 Mg481 2.013 1_565 S
O496 C485 1.191 . S
O497 C476 1.331 . S
O497 Mg483 2.081 . S
O498 Mg479 1.986 1_565 S
O498 C485 1.307 . S
O499 C477 1.264 . S
O499 Mg483 2.023 1_565 S
O500 C476 1.244 . S
O500 Mg484 1.942 . S
O501 C477 1.273 . S
O501 Mg484 1.955 1_565 S
O502 C475 1.312 . S
O502 Mg478 2.291 . S
O502 Mg481 2.114 . S
O503 C475 1.208 . S
O503 Mg483 2.031 . S
C504 O489 1.264 . S
C504 O491 1.273 . S
C505 O486 1.191 . S
C505 O488 1.307 . S
C506 O533 1.312 . S
C506 O534 1.208 . S
C507 O528 1.331 . S
C507 O531 1.244 . S
C508 O530 1.264 . S
C508 O532 1.273 . S
Mg509 O511 1.936 . S
Mg509 O518 2.081 . S
Mg509 O520 2.023 . S
Mg509 O524 2.031 . S
Mg509 O533 2.291 . S
Mg510 O511 1.963 . S
Mg510 O521 1.942 . S
Mg510 O522 1.955 . S
Mg510 O529 1.986 . S
O511 Mg509 1.936 . S
O511 Mg510 1.963 . S
O511 Mg512 1.915 . S
Mg512 O511 1.915 . S
Mg512 O513 1.915 . S
Mg512 O517 2.013 . S
Mg512 O523 2.114 . S
Mg512 O527 2.013 . S
Mg512 O533 2.114 . S
O513 Mg512 1.915 . S
O513 Mg514 1.936 . S
O513 Mg515 1.963 . S
Mg514 O513 1.936 . S
Mg514 O523 2.291 . S
Mg514 O528 2.081 . S
Mg514 O530 2.023 . S
Mg514 O534 2.031 . S
Mg515 O513 1.963 . S
Mg515 O519 1.986 . S
Mg515 O531 1.942 . S
Mg515 O532 1.955 . S
C516 O527 1.191 . S
C516 O529 1.307 . S
O517 Mg512 2.013 . S
O517 C536 1.191 . S
O518 Mg509 2.081 . S
O518 C526 1.331 . S
O519 Mg515 1.986 . S
O519 C536 1.307 . S
O520 Mg509 2.023 . S
O520 C535 1.264 . S
O521 Mg510 1.942 . S
O521 C526 1.244 . S
O522 Mg510 1.955 . S
O522 C535 1.273 . S
O523 Mg512 2.114 . S
O523 Mg514 2.291 . S
O523 C525 1.312 . S
O524 Mg509 2.031 . S
O524 C525 1.208 . S
C525 O523 1.312 . S
C525 O524 1.208 . S
C526 O518 1.331 . S
C526 O521 1.244 . S
O527 Mg512 2.013 . S
O527 C516 1.191 . S
O528 C507 1.331 . S
O528 Mg514 2.081 . S
O529 Mg510 1.986 . S
O529 C516 1.307 . S
O530 C508 1.264 . S
O530 Mg514 2.023 . S
O531 C507 1.244 . S
O531 Mg515 1.942 . S
O532 C508 1.273 . S
O532 Mg515 1.955 . S
O533 C506 1.312 . S
O533 Mg509 2.291 . S
O533 Mg512 2.114 . S
O534 C506 1.208 . S
O534 Mg514 2.031 . S
C535 O520 1.264 . S
C535 O522 1.273 . S
C536 O517 1.191 . S
C536 O519 1.307 . S
H537 C555 0.951 . S
H538 C557 0.951 . S
H539 C559 0.950 . S
H540 C560 0.950 . S
H541 C562 0.950 . S
H542 C565 0.950 . S
H543 C566 0.950 . S
H544 C568 0.950 . S
H545 C569 0.950 . S
H546 C570 0.951 . S
H547 C572 0.951 . S
H548 C574 0.950 . S
H549 C575 0.950 . S
H550 C577 0.950 . S
H551 C580 0.950 . S
H552 C581 0.950 . S
H553 C583 0.950 . S
H554 C584 0.950 . S
C555 H537 0.951 . S
C555 C556 1.366 . S
C555 C557 1.388 . S
C556 C555 1.366 . S
C556 C560 1.385 . S
C557 H538 0.951 . S
C557 C555 1.388 . S
C557 C558 1.366 . S
C558 C557 1.366 . S
C558 C559 1.414 . S
C558 C561 1.499 . S
C559 H539 0.950 . S
C559 C558 1.414 . S
C559 C560 1.374 . S
C560 H540 0.950 . S
C560 C556 1.385 . S
C560 C559 1.374 . S
C561 C558 1.499 . S
C561 C562 1.373 . S
C561 C563 1.389 . S
C562 H541 0.950 . S
C562 C561 1.373 . S
C562 C578 1.377 . S
C563 C561 1.389 . S
C563 C564 1.524 . S
C563 C577 1.377 . S
C564 C563 1.524 . S
C564 C565 1.397 . S
C564 C569 1.363 . S
C565 H542 0.950 . S
C565 C564 1.397 . S
C565 C566 1.334 . S
C566 H543 0.950 . S
C566 C565 1.334 . S
C566 C567 1.287 . S
C567 C566 1.287 . S
C567 C568 1.524 . S
C567 H586 0.913 . S
C568 H544 0.950 . S
C568 C567 1.524 . S
C568 C569 1.415 . S
C569 H545 0.950 . S
C569 C564 1.363 . S
C569 C568 1.415 . S
C570 H546 0.951 . S
C570 C571 1.366 . S
C570 C572 1.388 . S
C571 C570 1.366 . S
C571 C575 1.385 . S
C572 H547 0.951 . S
C572 C570 1.388 . S
C572 C573 1.366 . S
C573 C572 1.366 . S
C573 C574 1.414 . S
C573 C576 1.499 . S
C574 H548 0.950 . S
C574 C573 1.414 . S
C574 C575 1.374 . S
C575 H549 0.950 . S
C575 C571 1.385 . S
C575 C574 1.374 . S
C576 C573 1.499 . S
C576 C577 1.373 . S
C576 C578 1.389 . S
C577 H550 0.950 . S
C577 C563 1.377 . S
C577 C576 1.373 . S
C578 C562 1.377 . S
C578 C576 1.389 . S
C578 C579 1.524 . S
C579 C578 1.524 . S
C579 C580 1.397 . S
C579 C584 1.363 . S
C580 H551 0.950 . S
C580 C579 1.397 . S
C580 C581 1.334 . S
C581 H552 0.950 . S
C581 C580 1.334 . S
C581 C582 1.287 . S
C582 C581 1.287 . S
C582 C583 1.524 . S
C582 H585 0.999 . S
C583 H553 0.950 . S
C583 C582 1.524 . S
C583 C584 1.415 . S
C584 H554 0.950 . S
C584 C579 1.363 . S
C584 C583 1.415 . S
H585 C582 0.999 . S
H586 C567 0.913 . S
H587 C605 0.951 . S
H588 C607 0.951 . S
H589 C609 0.950 . S
H590 C610 0.950 . S
H591 C612 0.950 . S
H592 C615 0.950 . S
H593 C616 0.950 . S
H594 C618 0.950 . S
H595 C619 0.950 . S
H596 C620 0.951 . S
H597 C622 0.951 . S
H598 C624 0.950 . S
H599 C625 0.950 . S
H600 C627 0.950 . S
H601 C630 0.950 . S
H602 C631 0.950 . S
H603 C633 0.950 . S
H604 C634 0.950 . S
C605 H587 0.951 . S
C605 C606 1.366 . S
C605 C607 1.388 . S
C606 C605 1.366 . S
C606 C610 1.385 . S
C607 H588 0.951 . S
C607 C605 1.388 . S
C607 C608 1.366 . S
C608 C607 1.366 . S
C608 C609 1.414 . S
C608 C611 1.499 . S
C609 H589 0.950 . S
C609 C608 1.414 . S
C609 C610 1.374 . S
C610 H590 0.950 . S
C610 C606 1.385 . S
C610 C609 1.374 . S
C611 C608 1.499 . S
C611 C612 1.373 . S
C611 C613 1.389 . S
C612 H591 0.950 . S
C612 C611 1.373 . S
C612 C628 1.377 . S
C613 C611 1.389 . S
C613 C614 1.524 . S
C613 C627 1.377 . S
C614 C613 1.524 . S
C614 C615 1.397 . S
C614 C619 1.363 . S
C615 H592 0.950 . S
C615 C614 1.397 . S
C615 C616 1.334 . S
C616 H593 0.950 . S
C616 C615 1.334 . S
C616 C617 1.287 . S
C617 C616 1.287 . S
C617 C618 1.524 . S
C617 H636 0.913 . S
C618 H594 0.950 . S
C618 C617 1.524 . S
C618 C619 1.415 . S
C619 H595 0.950 . S
C619 C614 1.363 . S
C619 C618 1.415 . S
C620 H596 0.951 . S
C620 C621 1.366 . S
C620 C622 1.388 . S
C621 C620 1.366 . S
C621 C625 1.385 . S
C622 H597 0.951 . S
C622 C620 1.388 . S
C622 C623 1.366 . S
C623 C622 1.366 . S
C623 C624 1.414 . S
C623 C626 1.499 . S
C624 H598 0.950 . S
C624 C623 1.414 . S
C624 C625 1.374 . S
C625 H599 0.950 . S
C625 C621 1.385 . S
C625 C624 1.374 . S
C626 C623 1.499 . S
C626 C627 1.373 . S
C626 C628 1.389 . S
C627 H600 0.950 . S
C627 C613 1.377 . S
C627 C626 1.373 . S
C628 C612 1.377 . S
C628 C626 1.389 . S
C628 C629 1.524 . S
C629 C628 1.524 . S
C629 C630 1.397 . S
C629 C634 1.363 . S
C630 H601 0.950 . S
C630 C629 1.397 . S
C630 C631 1.334 . S
C631 H602 0.950 . S
C631 C630 1.334 . S
C631 C632 1.287 . S
C632 C631 1.287 . S
C632 C633 1.524 . S
C632 H635 0.999 . S
C633 H603 0.950 . S
C633 C632 1.524 . S
C633 C634 1.415 . S
C634 H604 0.950 . S
C634 C629 1.363 . S
C634 C633 1.415 . S
H635 C632 0.999 . S
H636 C617 0.913 . S
H637 C655 0.951 . S
H638 C657 0.951 . S
H639 C659 0.950 . S
H640 C660 0.950 . S
H641 C662 0.950 . S
H642 C665 0.950 . S
H643 C666 0.950 . S
H644 C668 0.950 . S
H645 C669 0.950 . S
H646 C670 0.951 . S
H647 C672 0.951 . S
H648 C674 0.950 . S
H649 C675 0.950 . S
H650 C677 0.950 . S
H651 C680 0.950 . S
H652 C681 0.950 . S
H653 C683 0.950 . S
H654 C684 0.950 . S
C655 H637 0.951 . S
C655 C656 1.366 . S
C655 C657 1.388 . S
C656 C655 1.366 . S
C656 C660 1.385 . S
C657 H638 0.951 . S
C657 C655 1.388 . S
C657 C658 1.366 . S
C658 C657 1.366 . S
C658 C659 1.414 . S
C658 C661 1.499 . S
C659 H639 0.950 . S
C659 C658 1.414 . S
C659 C660 1.374 . S
C660 H640 0.950 . S
C660 C656 1.385 . S
C660 C659 1.374 . S
C661 C658 1.499 . S
C661 C662 1.373 . S
C661 C663 1.389 . S
C662 H641 0.950 . S
C662 C661 1.373 . S
C662 C678 1.377 . S
C663 C661 1.389 . S
C663 C664 1.524 . S
C663 C677 1.377 . S
C664 C663 1.524 . S
C664 C665 1.397 . S
C664 C669 1.363 . S
C665 H642 0.950 . S
C665 C664 1.397 . S
C665 C666 1.334 . S
C666 H643 0.950 . S
C666 C665 1.334 . S
C666 C667 1.287 . S
C667 C666 1.287 . S
C667 C668 1.524 . S
C667 H686 0.913 . S
C668 H644 0.950 . S
C668 C667 1.524 . S
C668 C669 1.415 . S
C669 H645 0.950 . S
C669 C664 1.363 . S
C669 C668 1.415 . S
C670 H646 0.951 . S
C670 C671 1.366 . S
C670 C672 1.388 . S
C671 C670 1.366 . S
C671 C675 1.385 . S
C672 H647 0.951 . S
C672 C670 1.388 . S
C672 C673 1.366 . S
C673 C672 1.366 . S
C673 C674 1.414 . S
C673 C676 1.499 . S
C674 H648 0.950 . S
C674 C673 1.414 . S
C674 C675 1.374 . S
C675 H649 0.950 . S
C675 C671 1.385 . S
C675 C674 1.374 . S
C676 C673 1.499 . S
C676 C677 1.373 . S
C676 C678 1.389 . S
C677 H650 0.950 . S
C677 C663 1.377 . S
C677 C676 1.373 . S
C678 C662 1.377 . S
C678 C676 1.389 . S
C678 C679 1.524 . S
C679 C678 1.524 . S
C679 C680 1.397 . S
C679 C684 1.363 . S
C680 H651 0.950 . S
C680 C679 1.397 . S
C680 C681 1.334 . S
C681 H652 0.950 . S
C681 C680 1.334 . S
C681 C682 1.287 . S
C682 C681 1.287 . S
C682 C683 1.524 . S
C682 H685 0.999 . S
C683 H653 0.950 . S
C683 C682 1.524 . S
C683 C684 1.415 . S
C684 H654 0.950 . S
C684 C679 1.363 . S
C684 C683 1.415 . S
H685 C682 0.999 . S
H686 C667 0.913 . S
H687 C705 0.951 . S
H688 C707 0.951 . S
H689 C709 0.950 . S
H690 C710 0.950 . S
H691 C712 0.950 . S
H692 C715 0.950 . S
H693 C716 0.950 . S
H694 C718 0.950 . S
H695 C719 0.950 . S
H696 C720 0.951 . S
H697 C722 0.951 . S
H698 C724 0.950 . S
H699 C725 0.950 . S
H700 C727 0.950 . S
H701 C730 0.950 . S
H702 C731 0.950 . S
H703 C733 0.950 . S
H704 C734 0.950 . S
C705 H687 0.951 . S
C705 C706 1.366 . S
C705 C707 1.388 . S
C706 C705 1.366 . S
C706 C710 1.385 . S
C707 H688 0.951 . S
C707 C705 1.388 . S
C707 C708 1.366 . S
C708 C707 1.366 . S
C708 C709 1.414 . S
C708 C711 1.499 . S
C709 H689 0.950 . S
C709 C708 1.414 . S
C709 C710 1.374 . S
C710 H690 0.950 . S
C710 C706 1.385 . S
C710 C709 1.374 . S
C711 C708 1.499 . S
C711 C712 1.373 . S
C711 C713 1.389 . S
C712 H691 0.950 . S
C712 C711 1.373 . S
C712 C728 1.377 . S
C713 C711 1.389 . S
C713 C714 1.524 . S
C713 C727 1.377 . S
C714 C713 1.524 . S
C714 C715 1.397 . S
C714 C719 1.363 . S
C715 H692 0.950 . S
C715 C714 1.397 . S
C715 C716 1.334 . S
C716 H693 0.950 . S
C716 C715 1.334 . S
C716 C717 1.287 . S
C717 C716 1.287 . S
C717 C718 1.524 . S
C717 H736 0.913 . S
C718 H694 0.950 . S
C718 C717 1.524 . S
C718 C719 1.415 . S
C719 H695 0.950 . S
C719 C714 1.363 . S
C719 C718 1.415 . S
C720 H696 0.951 . S
C720 C721 1.366 . S
C720 C722 1.388 . S
C721 C720 1.366 . S
C721 C725 1.385 . S
C722 H697 0.951 . S
C722 C720 1.388 . S
C722 C723 1.366 . S
C723 C722 1.366 . S
C723 C724 1.414 . S
C723 C726 1.499 . S
C724 H698 0.950 . S
C724 C723 1.414 . S
C724 C725 1.374 . S
C725 H699 0.950 . S
C725 C721 1.385 . S
C725 C724 1.374 . S
C726 C723 1.499 . S
C726 C727 1.373 . S
C726 C728 1.389 . S
C727 H700 0.950 . S
C727 C713 1.377 . S
C727 C726 1.373 . S
C728 C712 1.377 . S
C728 C726 1.389 . S
C728 C729 1.524 . S
C729 C728 1.524 . S
C729 C730 1.397 . S
C729 C734 1.363 . S
C730 H701 0.950 . S
C730 C729 1.397 . S
C730 C731 1.334 . S
C731 H702 0.950 . S
C731 C730 1.334 . S
C731 C732 1.287 . S
C732 C731 1.287 . S
C732 C733 1.524 . S
C732 H735 0.999 . S
C733 H703 0.950 . S
C733 C732 1.524 . S
C733 C734 1.415 . S
C734 H704 0.950 . S
C734 C729 1.363 . S
C734 C733 1.415 . S
H735 C732 0.999 . S
H736 C717 0.913 . S
H737 C755 0.951 . S
H738 C757 0.951 . S
H739 C759 0.950 . S
H740 C760 0.950 . S
H741 C762 0.950 . S
H742 C765 0.950 . S
H743 C766 0.950 . S
H744 C768 0.950 . S
H745 C769 0.950 . S
H746 C770 0.951 . S
H747 C772 0.951 . S
H748 C774 0.950 . S
H749 C775 0.950 . S
H750 C777 0.950 . S
H751 C780 0.950 . S
H752 C781 0.950 . S
H753 C783 0.950 . S
H754 C784 0.950 . S
C755 H737 0.951 . S
C755 C756 1.366 . S
C755 C757 1.388 . S
C756 C755 1.366 . S
C756 C760 1.385 . S
C757 H738 0.951 . S
C757 C755 1.388 . S
C757 C758 1.366 . S
C758 C757 1.366 . S
C758 C759 1.414 . S
C758 C761 1.499 . S
C759 H739 0.950 . S
C759 C758 1.414 . S
C759 C760 1.374 . S
C760 H740 0.950 . S
C760 C756 1.385 . S
C760 C759 1.374 . S
C761 C758 1.499 . S
C761 C762 1.373 . S
C761 C763 1.389 . S
C762 H741 0.950 . S
C762 C761 1.373 . S
C762 C778 1.377 . S
C763 C761 1.389 . S
C763 C764 1.524 . S
C763 C777 1.377 . S
C764 C763 1.524 . S
C764 C765 1.397 . S
C764 C769 1.363 . S
C765 H742 0.950 . S
C765 C764 1.397 . S
C765 C766 1.334 . S
C766 H743 0.950 . S
C766 C765 1.334 . S
C766 C767 1.287 . S
C767 C766 1.287 . S
C767 C768 1.524 . S
C767 H786 0.913 . S
C768 H744 0.950 . S
C768 C767 1.524 . S
C768 C769 1.415 . S
C769 H745 0.950 . S
C769 C764 1.363 . S
C769 C768 1.415 . S
C770 H746 0.951 . S
C770 C771 1.366 . S
C770 C772 1.388 . S
C771 C770 1.366 . S
C771 C775 1.385 . S
C772 H747 0.951 . S
C772 C770 1.388 . S
C772 C773 1.366 . S
C773 C772 1.366 . S
C773 C774 1.414 . S
C773 C776 1.499 . S
C774 H748 0.950 . S
C774 C773 1.414 . S
C774 C775 1.374 . S
C775 H749 0.950 . S
C775 C771 1.385 . S
C775 C774 1.374 . S
C776 C773 1.499 . S
C776 C777 1.373 . S
C776 C778 1.389 . S
C777 H750 0.950 . S
C777 C763 1.377 . S
C777 C776 1.373 . S
C778 C762 1.377 . S
C778 C776 1.389 . S
C778 C779 1.524 . S
C779 C778 1.524 . S
C779 C780 1.397 . S
C779 C784 1.363 . S
C780 H751 0.950 . S
C780 C779 1.397 . S
C780 C781 1.334 1_565 S
C781 H752 0.950 . S
C781 C780 1.334 1_545 S
C781 C782 1.287 . S
C782 C781 1.287 . S
C782 C783 1.524 1_545 S
C782 H785 0.999 . S
C783 H753 0.950 . S
C783 C782 1.524 1_565 S
C783 C784 1.415 . S
C784 H754 0.950 . S
C784 C779 1.363 . S
C784 C783 1.415 . S
H785 C782 0.999 . S
H786 C767 0.913 . S
H787 C805 0.951 . S
H788 C807 0.951 . S
H789 C809 0.950 . S
H790 C810 0.950 . S
H791 C812 0.950 . S
H792 C815 0.950 . S
H793 C816 0.950 . S
H794 C818 0.950 . S
H795 C819 0.950 . S
H796 C820 0.951 . S
H797 C822 0.951 . S
H798 C824 0.950 . S
H799 C825 0.950 . S
H800 C827 0.950 . S
H801 C830 0.950 . S
H802 C831 0.950 . S
H803 C833 0.950 . S
H804 C834 0.950 . S
C805 H787 0.951 . S
C805 C806 1.366 . S
C805 C807 1.388 . S
C806 C805 1.366 . S
C806 C810 1.385 . S
C807 H788 0.951 . S
C807 C805 1.388 . S
C807 C808 1.366 . S
C808 C807 1.366 . S
C808 C809 1.414 . S
C808 C811 1.499 . S
C809 H789 0.950 . S
C809 C808 1.414 . S
C809 C810 1.374 . S
C810 H790 0.950 . S
C810 C806 1.385 . S
C810 C809 1.374 . S
C811 C808 1.499 . S
C811 C812 1.373 . S
C811 C813 1.389 . S
C812 H791 0.950 . S
C812 C811 1.373 . S
C812 C828 1.377 . S
C813 C811 1.389 . S
C813 C814 1.524 . S
C813 C827 1.377 . S
C814 C813 1.524 . S
C814 C815 1.397 . S
C814 C819 1.363 . S
C815 H792 0.950 . S
C815 C814 1.397 . S
C815 C816 1.334 . S
C816 H793 0.950 . S
C816 C815 1.334 . S
C816 C817 1.287 . S
C817 C816 1.287 . S
C817 C818 1.524 . S
C817 H836 0.913 . S
C818 H794 0.950 . S
C818 C817 1.524 . S
C818 C819 1.415 . S
C819 H795 0.950 . S
C819 C814 1.363 . S
C819 C818 1.415 . S
C820 H796 0.951 . S
C820 C821 1.366 . S
C820 C822 1.388 . S
C821 C820 1.366 . S
C821 C825 1.385 . S
C822 H797 0.951 . S
C822 C820 1.388 . S
C822 C823 1.366 . S
C823 C822 1.366 . S
C823 C824 1.414 . S
C823 C826 1.499 . S
C824 H798 0.950 . S
C824 C823 1.414 . S
C824 C825 1.374 . S
C825 H799 0.950 . S
C825 C821 1.385 . S
C825 C824 1.374 . S
C826 C823 1.499 . S
C826 C827 1.373 . S
C826 C828 1.389 . S
C827 H800 0.950 . S
C827 C813 1.377 . S
C827 C826 1.373 . S
C828 C812 1.377 . S
C828 C826 1.389 . S
C828 C829 1.524 . S
C829 C828 1.524 . S
C829 C830 1.397 . S
C829 C834 1.363 . S
C830 H801 0.950 . S
C830 C829 1.397 . S
C830 C831 1.334 . S
C831 H802 0.950 . S
C831 C830 1.334 . S
C831 C832 1.287 . S
C832 C831 1.287 . S
C832 C833 1.524 . S
C832 H835 0.999 . S
C833 H803 0.950 . S
C833 C832 1.524 . S
C833 C834 1.415 . S
C834 H804 0.950 . S
C834 C829 1.363 . S
C834 C833 1.415 . S
H835 C832 0.999 . S
H836 C817 0.913 . S
H837 C855 0.951 . S
H838 C857 0.951 . S
H839 C859 0.950 . S
H840 C860 0.950 . S
H841 C862 0.950 . S
H842 C865 0.950 . S
H843 C866 0.950 . S
H844 C868 0.950 . S
H845 C869 0.950 . S
H846 C870 0.951 . S
H847 C872 0.951 . S
H848 C874 0.950 . S
H849 C875 0.950 . S
H850 C877 0.950 . S
H851 C880 0.950 . S
H852 C881 0.950 . S
H853 C883 0.950 . S
H854 C884 0.950 . S
C855 H837 0.951 . S
C855 C856 1.366 . S
C855 C857 1.388 . S
C856 C855 1.366 . S
C856 C860 1.385 . S
C857 H838 0.951 . S
C857 C855 1.388 . S
C857 C858 1.366 . S
C858 C857 1.366 . S
C858 C859 1.414 . S
C858 C861 1.499 . S
C859 H839 0.950 . S
C859 C858 1.414 . S
C859 C860 1.374 . S
C860 H840 0.950 . S
C860 C856 1.385 . S
C860 C859 1.374 . S
C861 C858 1.499 . S
C861 C862 1.373 . S
C861 C863 1.389 . S
C862 H841 0.950 . S
C862 C861 1.373 . S
C862 C878 1.377 . S
C863 C861 1.389 . S
C863 C864 1.524 . S
C863 C877 1.377 . S
C864 C863 1.524 . S
C864 C865 1.397 . S
C864 C869 1.363 . S
C865 H842 0.950 . S
C865 C864 1.397 . S
C865 C866 1.334 . S
C866 H843 0.950 . S
C866 C865 1.334 . S
C866 C867 1.287 . S
C867 C866 1.287 . S
C867 C868 1.524 . S
C867 H886 0.913 . S
C868 H844 0.950 . S
C868 C867 1.524 . S
C868 C869 1.415 . S
C869 H845 0.950 . S
C869 C864 1.363 . S
C869 C868 1.415 . S
C870 H846 0.951 . S
C870 C871 1.366 . S
C870 C872 1.388 . S
C871 C870 1.366 . S
C871 C875 1.385 . S
C872 H847 0.951 . S
C872 C870 1.388 . S
C872 C873 1.366 . S
C873 C872 1.366 . S
C873 C874 1.414 . S
C873 C876 1.499 . S
C874 H848 0.950 . S
C874 C873 1.414 . S
C874 C875 1.374 . S
C875 H849 0.950 . S
C875 C871 1.385 . S
C875 C874 1.374 . S
C876 C873 1.499 . S
C876 C877 1.373 . S
C876 C878 1.389 . S
C877 H850 0.950 . S
C877 C863 1.377 . S
C877 C876 1.373 . S
C878 C862 1.377 . S
C878 C876 1.389 . S
C878 C879 1.524 . S
C879 C878 1.524 . S
C879 C880 1.397 . S
C879 C884 1.363 . S
C880 H851 0.950 . S
C880 C879 1.397 . S
C880 C881 1.334 . S
C881 H852 0.950 . S
C881 C880 1.334 . S
C881 C882 1.287 . S
C882 C881 1.287 . S
C882 C883 1.524 . S
C882 H885 0.999 . S
C883 H853 0.950 . S
C883 C882 1.524 . S
C883 C884 1.415 . S
C884 H854 0.950 . S
C884 C879 1.363 . S
C884 C883 1.415 . S
H885 C882 0.999 . S
H886 C867 0.913 . S
H887 C905 0.951 . S
H888 C907 0.951 . S
H889 C909 0.950 . S
H890 C910 0.950 . S
H891 C912 0.950 . S
H892 C915 0.950 . S
H893 C916 0.950 . S
H894 C918 0.950 . S
H895 C919 0.950 . S
H896 C920 0.951 . S
H897 C922 0.951 . S
H898 C924 0.950 . S
H899 C925 0.950 . S
H900 C927 0.950 . S
H901 C930 0.950 . S
H902 C931 0.950 . S
H903 C933 0.950 . S
H904 C934 0.950 . S
C905 H887 0.951 . S
C905 C906 1.366 . S
C905 C907 1.388 . S
C906 C905 1.366 . S
C906 C910 1.385 . S
C907 H888 0.951 . S
C907 C905 1.388 . S
C907 C908 1.366 . S
C908 C907 1.366 . S
C908 C909 1.414 . S
C908 C911 1.499 . S
C909 H889 0.950 . S
C909 C908 1.414 . S
C909 C910 1.374 . S
C910 H890 0.950 . S
C910 C906 1.385 . S
C910 C909 1.374 . S
C911 C908 1.499 . S
C911 C912 1.373 . S
C911 C913 1.389 . S
C912 H891 0.950 . S
C912 C911 1.373 . S
C912 C928 1.377 . S
C913 C911 1.389 . S
C913 C914 1.524 . S
C913 C927 1.377 . S
C914 C913 1.524 . S
C914 C915 1.397 . S
C914 C919 1.363 . S
C915 H892 0.950 . S
C915 C914 1.397 . S
C915 C916 1.334 . S
C916 H893 0.950 . S
C916 C915 1.334 . S
C916 C917 1.287 . S
C917 C916 1.287 . S
C917 C918 1.524 . S
C917 H936 0.913 1_556 S
C918 H894 0.950 . S
C918 C917 1.524 . S
C918 C919 1.415 . S
C919 H895 0.950 . S
C919 C914 1.363 . S
C919 C918 1.415 . S
C920 H896 0.951 . S
C920 C921 1.366 . S
C920 C922 1.388 . S
C921 C920 1.366 . S
C921 C925 1.385 . S
C922 H897 0.951 . S
C922 C920 1.388 . S
C922 C923 1.366 . S
C923 C922 1.366 . S
C923 C924 1.414 . S
C923 C926 1.499 . S
C924 H898 0.950 . S
C924 C923 1.414 . S
C924 C925 1.374 . S
C925 H899 0.950 . S
C925 C921 1.385 . S
C925 C924 1.374 . S
C926 C923 1.499 . S
C926 C927 1.373 . S
C926 C928 1.389 . S
C927 H900 0.950 . S
C927 C913 1.377 . S
C927 C926 1.373 . S
C928 C912 1.377 . S
C928 C926 1.389 . S
C928 C929 1.524 . S
C929 C928 1.524 . S
C929 C930 1.397 . S
C929 C934 1.363 . S
C930 H901 0.950 . S
C930 C929 1.397 . S
C930 C931 1.334 . S
C931 H902 0.950 . S
C931 C930 1.334 . S
C931 C932 1.287 . S
C932 C931 1.287 . S
C932 C933 1.524 . S
C932 H935 0.999 . S
C933 H903 0.950 . S
C933 C932 1.524 . S
C933 C934 1.415 . S
C934 H904 0.950 . S
C934 C929 1.363 . S
C934 C933 1.415 . S
H935 C932 0.999 . S
H936 C917 0.913 1_554 S
H937 C955 0.951 . S
H938 C957 0.951 . S
H939 C959 0.950 . S
H940 C960 0.950 . S
H941 C962 0.950 . S
H942 C965 0.950 . S
H943 C966 0.950 . S
H944 C968 0.950 . S
H945 C969 0.950 . S
H946 C970 0.951 . S
H947 C972 0.951 . S
H948 C974 0.950 . S
H949 C975 0.950 . S
H950 C977 0.950 . S
H951 C980 0.950 . S
H952 C981 0.950 . S
H953 C983 0.950 . S
H954 C984 0.950 . S
C955 H937 0.951 . S
C955 C956 1.366 . S
C955 C957 1.388 . S
C956 C955 1.366 . S
C956 C960 1.385 . S
C957 H938 0.951 . S
C957 C955 1.388 . S
C957 C958 1.366 . S
C958 C957 1.366 . S
C958 C959 1.414 . S
C958 C961 1.499 . S
C959 H939 0.950 . S
C959 C958 1.414 . S
C959 C960 1.374 . S
C960 H940 0.950 . S
C960 C956 1.385 . S
C960 C959 1.374 . S
C961 C958 1.499 . S
C961 C962 1.373 . S
C961 C963 1.389 . S
C962 H941 0.950 . S
C962 C961 1.373 . S
C962 C978 1.377 . S
C963 C961 1.389 . S
C963 C964 1.524 . S
C963 C977 1.377 . S
C964 C963 1.524 . S
C964 C965 1.397 . S
C964 C969 1.363 . S
C965 H942 0.950 . S
C965 C964 1.397 . S
C965 C966 1.334 . S
C966 H943 0.950 . S
C966 C965 1.334 . S
C966 C967 1.287 . S
C967 C966 1.287 . S
C967 C968 1.524 . S
C967 H986 0.913 . S
C968 H944 0.950 . S
C968 C967 1.524 . S
C968 C969 1.415 . S
C969 H945 0.950 . S
C969 C964 1.363 . S
C969 C968 1.415 . S
C970 H946 0.951 . S
C970 C971 1.366 . S
C970 C972 1.388 . S
C971 C970 1.366 . S
C971 C975 1.385 . S
C972 H947 0.951 . S
C972 C970 1.388 . S
C972 C973 1.366 . S
C973 C972 1.366 . S
C973 C974 1.414 . S
C973 C976 1.499 . S
C974 H948 0.950 . S
C974 C973 1.414 . S
C974 C975 1.374 . S
C975 H949 0.950 . S
C975 C971 1.385 . S
C975 C974 1.374 . S
C976 C973 1.499 . S
C976 C977 1.373 . S
C976 C978 1.389 . S
C977 H950 0.950 . S
C977 C963 1.377 . S
C977 C976 1.373 . S
C978 C962 1.377 . S
C978 C976 1.389 . S
C978 C979 1.524 . S
C979 C978 1.524 . S
C979 C980 1.397 . S
C979 C984 1.363 . S
C980 H951 0.950 . S
C980 C979 1.397 . S
C980 C981 1.334 . S
C981 H952 0.950 . S
C981 C980 1.334 . S
C981 C982 1.287 . S
C982 C981 1.287 . S
C982 C983 1.524 . S
C982 H985 0.999 . S
C983 H953 0.950 . S
C983 C982 1.524 . S
C983 C984 1.415 . S
C984 H954 0.950 . S
C984 C979 1.363 . S
C984 C983 1.415 . S
H985 C982 0.999 . S
H986 C967 0.913 . S
H987 C1005 0.951 . S
H988 C1007 0.951 . S
H989 C1009 0.950 . S
H990 C1010 0.950 1_554 S
H991 C1012 0.950 . S
H992 C1015 0.950 . S
H993 C1016 0.950 . S
H994 C1018 0.950 . S
H995 C1019 0.950 . S
H996 C1020 0.951 . S
H997 C1022 0.951 . S
H998 C1024 0.950 . S
H999 C1025 0.950 . S
H1000 C1027 0.950 . S
H1001 C1030 0.950 . S
H1002 C1031 0.950 . S
H1003 C1033 0.950 . S
H1004 C1034 0.950 . S
C1005 H987 0.951 . S
C1005 C1006 1.366 . S
C1005 C1007 1.388 . S
C1006 C1005 1.366 . S
C1006 C1010 1.385 . S
C1007 H988 0.951 . S
C1007 C1005 1.388 . S
C1007 C1008 1.366 . S
C1008 C1007 1.366 . S
C1008 C1009 1.414 . S
C1008 C1011 1.499 . S
C1009 H989 0.950 . S
C1009 C1008 1.414 . S
C1009 C1010 1.374 . S
C1010 H990 0.950 1_556 S
C1010 C1006 1.385 . S
C1010 C1009 1.374 . S
C1011 C1008 1.499 . S
C1011 C1012 1.373 . S
C1011 C1013 1.389 . S
C1012 H991 0.950 . S
C1012 C1011 1.373 . S
C1012 C1028 1.377 . S
C1013 C1011 1.389 . S
C1013 C1014 1.524 . S
C1013 C1027 1.377 . S
C1014 C1013 1.524 . S
C1014 C1015 1.397 . S
C1014 C1019 1.363 . S
C1015 H992 0.950 . S
C1015 C1014 1.397 . S
C1015 C1016 1.334 . S
C1016 H993 0.950 . S
C1016 C1015 1.334 . S
C1016 C1017 1.287 . S
C1017 C1016 1.287 . S
C1017 C1018 1.524 . S
C1017 H1036 0.913 . S
C1018 H994 0.950 . S
C1018 C1017 1.524 . S
C1018 C1019 1.415 . S
C1019 H995 0.950 . S
C1019 C1014 1.363 . S
C1019 C1018 1.415 . S
C1020 H996 0.951 . S
C1020 C1021 1.366 . S
C1020 C1022 1.388 . S
C1021 C1020 1.366 . S
C1021 C1025 1.385 . S
C1022 H997 0.951 . S
C1022 C1020 1.388 . S
C1022 C1023 1.366 . S
C1023 C1022 1.366 . S
C1023 C1024 1.414 . S
C1023 C1026 1.499 . S
C1024 H998 0.950 . S
C1024 C1023 1.414 . S
C1024 C1025 1.374 . S
C1025 H999 0.950 . S
C1025 C1021 1.385 . S
C1025 C1024 1.374 . S
C1026 C1023 1.499 . S
C1026 C1027 1.373 . S
C1026 C1028 1.389 . S
C1027 H1000 0.950 . S
C1027 C1013 1.377 . S
C1027 C1026 1.373 . S
C1028 C1012 1.377 . S
C1028 C1026 1.389 . S
C1028 C1029 1.524 . S
C1029 C1028 1.524 . S
C1029 C1030 1.397 . S
C1029 C1034 1.363 . S
C1030 H1001 0.950 . S
C1030 C1029 1.397 . S
C1030 C1031 1.334 . S
C1031 H1002 0.950 . S
C1031 C1030 1.334 . S
C1031 C1032 1.287 . S
C1032 C1031 1.287 . S
C1032 C1033 1.524 . S
C1032 H1035 0.999 . S
C1033 H1003 0.950 . S
C1033 C1032 1.524 . S
C1033 C1034 1.415 . S
C1034 H1004 0.950 . S
C1034 C1029 1.363 . S
C1034 C1033 1.415 . S
H1035 C1032 0.999 . S
H1036 C1017 0.913 . S
H1037 C1055 0.951 1_554 S
H1038 C1057 0.951 . S
H1039 C1059 0.950 . S
H1040 C1060 0.950 . S
H1041 C1062 0.950 . S
H1042 C1065 0.950 . S
H1043 C1066 0.950 . S
H1044 C1068 0.950 . S
H1045 C1069 0.950 . S
H1046 C1070 0.951 . S
H1047 C1072 0.951 . S
H1048 C1074 0.950 . S
H1049 C1075 0.950 . S
H1050 C1077 0.950 . S
H1051 C1080 0.950 . S
H1052 C1081 0.950 . S
H1053 C1083 0.950 . S
H1054 C1084 0.950 . S
C1055 H1037 0.951 1_556 S
C1055 C1056 1.366 . S
C1055 C1057 1.388 . S
C1056 C1055 1.366 . S
C1056 C1060 1.385 . S
C1057 H1038 0.951 . S
C1057 C1055 1.388 . S
C1057 C1058 1.366 . S
C1058 C1057 1.366 . S
C1058 C1059 1.414 . S
C1058 C1061 1.499 . S
C1059 H1039 0.950 . S
C1059 C1058 1.414 . S
C1059 C1060 1.374 . S
C1060 H1040 0.950 . S
C1060 C1056 1.385 . S
C1060 C1059 1.374 . S
C1061 C1058 1.499 . S
C1061 C1062 1.373 . S
C1061 C1063 1.389 . S
C1062 H1041 0.950 . S
C1062 C1061 1.373 . S
C1062 C1078 1.377 . S
C1063 C1061 1.389 . S
C1063 C1064 1.524 . S
C1063 C1077 1.377 . S
C1064 C1063 1.524 . S
C1064 C1065 1.397 . S
C1064 C1069 1.363 . S
C1065 H1042 0.950 . S
C1065 C1064 1.397 . S
C1065 C1066 1.334 . S
C1066 H1043 0.950 . S
C1066 C1065 1.334 . S
C1066 C1067 1.287 . S
C1067 C1066 1.287 . S
C1067 C1068 1.524 . S
C1067 H1086 0.913 . S
C1068 H1044 0.950 . S
C1068 C1067 1.524 . S
C1068 C1069 1.415 . S
C1069 H1045 0.950 . S
C1069 C1064 1.363 . S
C1069 C1068 1.415 . S
C1070 H1046 0.951 . S
C1070 C1071 1.366 . S
C1070 C1072 1.388 . S
C1071 C1070 1.366 . S
C1071 C1075 1.385 . S
C1072 H1047 0.951 . S
C1072 C1070 1.388 . S
C1072 C1073 1.366 . S
C1073 C1072 1.366 . S
C1073 C1074 1.414 . S
C1073 C1076 1.499 . S
C1074 H1048 0.950 . S
C1074 C1073 1.414 . S
C1074 C1075 1.374 . S
C1075 H1049 0.950 . S
C1075 C1071 1.385 . S
C1075 C1074 1.374 . S
C1076 C1073 1.499 . S
C1076 C1077 1.373 . S
C1076 C1078 1.389 . S
C1077 H1050 0.950 . S
C1077 C1063 1.377 . S
C1077 C1076 1.373 . S
C1078 C1062 1.377 . S
C1078 C1076 1.389 . S
C1078 C1079 1.524 . S
C1079 C1078 1.524 . S
C1079 C1080 1.397 . S
C1079 C1084 1.363 . S
C1080 H1051 0.950 . S
C1080 C1079 1.397 . S
C1080 C1081 1.334 . S
C1081 H1052 0.950 . S
C1081 C1080 1.334 . S
C1081 C1082 1.287 . S
C1082 C1081 1.287 . S
C1082 C1083 1.524 . S
C1082 H1085 0.999 . S
C1083 H1053 0.950 . S
C1083 C1082 1.524 . S
C1083 C1084 1.415 . S
C1084 H1054 0.950 . S
C1084 C1079 1.363 . S
C1084 C1083 1.415 . S
H1085 C1082 0.999 . S
H1086 C1067 0.913 . S
H1087 C1105 0.951 . S
H1088 C1107 0.951 . S
H1089 C1109 0.950 . S
H1090 C1110 0.950 . S
H1091 C1112 0.950 . S
H1092 C1115 0.950 . S
H1093 C1116 0.950 . S
H1094 C1118 0.950 . S
H1095 C1119 0.950 . S
H1096 C1120 0.951 . S
H1097 C1122 0.951 . S
H1098 C1124 0.950 . S
H1099 C1125 0.950 . S
H1100 C1127 0.950 . S
H1101 C1130 0.950 . S
H1102 C1131 0.950 . S
H1103 C1133 0.950 . S
H1104 C1134 0.950 . S
C1105 H1087 0.951 . S
C1105 C1106 1.366 . S
C1105 C1107 1.388 . S
C1106 C1105 1.366 . S
C1106 C1110 1.385 . S
C1107 H1088 0.951 . S
C1107 C1105 1.388 . S
C1107 C1108 1.366 . S
C1108 C1107 1.366 . S
C1108 C1109 1.414 . S
C1108 C1111 1.499 . S
C1109 H1089 0.950 . S
C1109 C1108 1.414 . S
C1109 C1110 1.374 . S
C1110 H1090 0.950 . S
C1110 C1106 1.385 . S
C1110 C1109 1.374 . S
C1111 C1108 1.499 . S
C1111 C1112 1.373 . S
C1111 C1113 1.389 . S
C1112 H1091 0.950 . S
C1112 C1111 1.373 . S
C1112 C1128 1.377 . S
C1113 C1111 1.389 . S
C1113 C1114 1.524 . S
C1113 C1127 1.377 . S
C1114 C1113 1.524 . S
C1114 C1115 1.397 . S
C1114 C1119 1.363 . S
C1115 H1092 0.950 . S
C1115 C1114 1.397 . S
C1115 C1116 1.334 . S
C1116 H1093 0.950 . S
C1116 C1115 1.334 . S
C1116 C1117 1.287 . S
C1117 C1116 1.287 . S
C1117 C1118 1.524 . S
C1117 H1136 0.913 . S
C1118 H1094 0.950 . S
C1118 C1117 1.524 . S
C1118 C1119 1.415 . S
C1119 H1095 0.950 . S
C1119 C1114 1.363 . S
C1119 C1118 1.415 . S
C1120 H1096 0.951 . S
C1120 C1121 1.366 . S
C1120 C1122 1.388 . S
C1121 C1120 1.366 . S
C1121 C1125 1.385 . S
C1122 H1097 0.951 . S
C1122 C1120 1.388 . S
C1122 C1123 1.366 . S
C1123 C1122 1.366 . S
C1123 C1124 1.414 . S
C1123 C1126 1.499 . S
C1124 H1098 0.950 . S
C1124 C1123 1.414 . S
C1124 C1125 1.374 . S
C1125 H1099 0.950 . S
C1125 C1121 1.385 . S
C1125 C1124 1.374 . S
C1126 C1123 1.499 . S
C1126 C1127 1.373 . S
C1126 C1128 1.389 . S
C1127 H1100 0.950 . S
C1127 C1113 1.377 . S
C1127 C1126 1.373 . S
C1128 C1112 1.377 . S
C1128 C1126 1.389 . S
C1128 C1129 1.524 . S
C1129 C1128 1.524 . S
C1129 C1130 1.397 . S
C1129 C1134 1.363 . S
C1130 H1101 0.950 . S
C1130 C1129 1.397 . S
C1130 C1131 1.334 . S
C1131 H1102 0.950 . S
C1131 C1130 1.334 . S
C1131 C1132 1.287 . S
C1132 C1131 1.287 . S
C1132 C1133 1.524 . S
C1132 H1135 0.999 . S
C1133 H1103 0.950 . S
C1133 C1132 1.524 . S
C1133 C1134 1.415 . S
C1134 H1104 0.950 . S
C1134 C1129 1.363 . S
C1134 C1133 1.415 . S
H1135 C1132 0.999 . S
H1136 C1117 0.913 . S
H1137 C1155 0.951 . S
H1138 C1157 0.951 . S
H1139 C1159 0.950 . S
H1140 C1160 0.950 . S
H1141 C1162 0.950 . S
H1142 C1165 0.950 . S
H1143 C1166 0.950 . S
H1144 C1168 0.950 . S
H1145 C1169 0.950 . S
H1146 C1170 0.951 . S
H1147 C1172 0.951 . S
H1148 C1174 0.950 . S
H1149 C1175 0.950 . S
H1150 C1177 0.950 . S
H1151 C1180 0.950 . S
H1152 C1181 0.950 . S
H1153 C1183 0.950 . S
H1154 C1184 0.950 . S
C1155 H1137 0.951 . S
C1155 C1156 1.366 . S
C1155 C1157 1.388 . S
C1156 C1155 1.366 . S
C1156 C1160 1.385 . S
C1157 H1138 0.951 . S
C1157 C1155 1.388 . S
C1157 C1158 1.366 . S
C1158 C1157 1.366 . S
C1158 C1159 1.414 . S
C1158 C1161 1.499 . S
C1159 H1139 0.950 . S
C1159 C1158 1.414 . S
C1159 C1160 1.374 . S
C1160 H1140 0.950 . S
C1160 C1156 1.385 . S
C1160 C1159 1.374 . S
C1161 C1158 1.499 . S
C1161 C1162 1.373 . S
C1161 C1163 1.389 . S
C1162 H1141 0.950 . S
C1162 C1161 1.373 . S
C1162 C1178 1.377 . S
C1163 C1161 1.389 . S
C1163 C1164 1.524 . S
C1163 C1177 1.377 . S
C1164 C1163 1.524 . S
C1164 C1165 1.397 . S
C1164 C1169 1.363 . S
C1165 H1142 0.950 . S
C1165 C1164 1.397 . S
C1165 C1166 1.334 . S
C1166 H1143 0.950 . S
C1166 C1165 1.334 . S
C1166 C1167 1.287 . S
C1167 C1166 1.287 . S
C1167 C1168 1.524 . S
C1167 H1186 0.913 . S
C1168 H1144 0.950 . S
C1168 C1167 1.524 . S
C1168 C1169 1.415 . S
C1169 H1145 0.950 . S
C1169 C1164 1.363 . S
C1169 C1168 1.415 . S
C1170 H1146 0.951 . S
C1170 C1171 1.366 . S
C1170 C1172 1.388 . S
C1171 C1170 1.366 . S
C1171 C1175 1.385 . S
C1172 H1147 0.951 . S
C1172 C1170 1.388 . S
C1172 C1173 1.366 . S
C1173 C1172 1.366 . S
C1173 C1174 1.414 . S
C1173 C1176 1.499 . S
C1174 H1148 0.950 . S
C1174 C1173 1.414 . S
C1174 C1175 1.374 . S
C1175 H1149 0.950 . S
C1175 C1171 1.385 . S
C1175 C1174 1.374 . S
C1176 C1173 1.499 . S
C1176 C1177 1.373 . S
C1176 C1178 1.389 . S
C1177 H1150 0.950 . S
C1177 C1163 1.377 . S
C1177 C1176 1.373 . S
C1178 C1162 1.377 . S
C1178 C1176 1.389 . S
C1178 C1179 1.524 . S
C1179 C1178 1.524 . S
C1179 C1180 1.397 . S
C1179 C1184 1.363 . S
C1180 H1151 0.950 . S
C1180 C1179 1.397 . S
C1180 C1181 1.334 . S
C1181 H1152 0.950 . S
C1181 C1180 1.334 . S
C1181 C1182 1.287 . S
C1182 C1181 1.287 . S
C1182 C1183 1.524 . S
C1182 H1185 0.997 . S
C1183 H1153 0.950 . S
C1183 C1182 1.524 . S
C1183 C1184 1.415 . S
C1184 H1154 0.950 . S
C1184 C1179 1.363 . S
C1184 C1183 1.415 . S
H1185 C1182 0.997 . S
H1186 C1167 0.913 . S
H1187 C1205 0.951 1_554 S
H1188 C1207 0.951 . S
H1189 C1209 0.950 . S
H1190 C1210 0.950 . S
H1191 C1212 0.950 . S
H1192 C1215 0.950 . S
H1193 C1216 0.950 . S
H1194 C1218 0.950 . S
H1195 C1219 0.950 . S
H1196 C1220 0.951 . S
H1197 C1222 0.951 . S
H1198 C1224 0.950 . S
H1199 C1225 0.950 . S
H1200 C1227 0.950 . S
H1201 C1230 0.950 . S
H1202 C1231 0.950 . S
H1203 C1233 0.950 . S
H1204 C1234 0.950 . S
C1205 H1187 0.951 1_556 S
C1205 C1206 1.366 . S
C1205 C1207 1.388 . S
C1206 C1205 1.366 . S
C1206 C1210 1.385 . S
C1207 H1188 0.951 . S
C1207 C1205 1.388 . S
C1207 C1208 1.366 . S
C1208 C1207 1.366 . S
C1208 C1209 1.414 . S
C1208 C1211 1.499 . S
C1209 H1189 0.950 . S
C1209 C1208 1.414 . S
C1209 C1210 1.374 . S
C1210 H1190 0.950 . S
C1210 C1206 1.385 . S
C1210 C1209 1.374 . S
C1211 C1208 1.499 . S
C1211 C1212 1.373 . S
C1211 C1213 1.389 . S
C1212 H1191 0.950 . S
C1212 C1211 1.373 . S
C1212 C1228 1.377 . S
C1213 C1211 1.389 . S
C1213 C1214 1.524 . S
C1213 C1227 1.377 . S
C1214 C1213 1.524 . S
C1214 C1215 1.397 . S
C1214 C1219 1.363 . S
C1215 H1192 0.950 . S
C1215 C1214 1.397 . S
C1215 C1216 1.334 . S
C1216 H1193 0.950 . S
C1216 C1215 1.334 . S
C1216 C1217 1.287 . S
C1217 C1216 1.287 . S
C1217 C1218 1.524 . S
C1217 H1236 0.913 . S
C1218 H1194 0.950 . S
C1218 C1217 1.524 . S
C1218 C1219 1.415 . S
C1219 H1195 0.950 . S
C1219 C1214 1.363 . S
C1219 C1218 1.415 . S
C1220 H1196 0.951 . S
C1220 C1221 1.366 . S
C1220 C1222 1.388 . S
C1221 C1220 1.366 . S
C1221 C1225 1.385 . S
C1222 H1197 0.951 . S
C1222 C1220 1.388 . S
C1222 C1223 1.366 . S
C1223 C1222 1.366 . S
C1223 C1224 1.414 . S
C1223 C1226 1.499 . S
C1224 H1198 0.950 . S
C1224 C1223 1.414 . S
C1224 C1225 1.374 . S
C1225 H1199 0.950 . S
C1225 C1221 1.385 . S
C1225 C1224 1.374 . S
C1226 C1223 1.499 . S
C1226 C1227 1.373 . S
C1226 C1228 1.389 . S
C1227 H1200 0.950 . S
C1227 C1213 1.377 . S
C1227 C1226 1.373 . S
C1228 C1212 1.377 . S
C1228 C1226 1.389 . S
C1228 C1229 1.524 . S
C1229 C1228 1.524 . S
C1229 C1230 1.397 . S
C1229 C1234 1.363 . S
C1230 H1201 0.950 . S
C1230 C1229 1.397 . S
C1230 C1231 1.334 . S
C1231 H1202 0.950 . S
C1231 C1230 1.334 . S
C1231 C1232 1.287 . S
C1232 C1231 1.287 . S
C1232 C1233 1.524 . S
C1232 H1235 0.999 . S
C1233 H1203 0.950 . S
C1233 C1232 1.524 . S
C1233 C1234 1.415 . S
C1234 H1204 0.950 . S
C1234 C1229 1.363 . S
C1234 C1233 1.415 . S
H1235 C1232 0.999 . S
H1236 C1217 0.913 . S
H1237 C1255 0.951 . S
H1238 C1257 0.951 . S
H1239 C1259 0.950 . S
H1240 C1260 0.950 . S
H1241 C1262 0.950 . S
H1242 C1265 0.950 1_554 S
H1243 C1266 0.950 . S
H1244 C1268 0.950 . S
H1245 C1269 0.950 . S
H1246 C1270 0.951 . S
H1247 C1272 0.951 . S
H1248 C1274 0.950 . S
H1249 C1275 0.950 . S
H1250 C1277 0.950 . S
H1251 C1280 0.950 . S
H1252 C1281 0.950 . S
H1253 C1283 0.950 . S
H1254 C1284 0.950 . S
C1255 H1237 0.951 . S
C1255 C1256 1.366 . S
C1255 C1257 1.388 1_554 S
C1256 C1255 1.366 . S
C1256 C1260 1.385 . S
C1257 H1238 0.951 . S
C1257 C1255 1.388 1_556 S
C1257 C1258 1.366 . S
C1258 C1257 1.366 . S
C1258 C1259 1.414 . S
C1258 C1261 1.499 . S
C1259 H1239 0.950 . S
C1259 C1258 1.414 . S
C1259 C1260 1.374 1_556 S
C1260 H1240 0.950 . S
C1260 C1256 1.385 . S
C1260 C1259 1.374 1_554 S
C1261 C1258 1.499 . S
C1261 C1262 1.373 . S
C1261 C1263 1.389 . S
C1262 H1241 0.950 . S
C1262 C1261 1.373 . S
C1262 C1278 1.377 . S
C1263 C1261 1.389 . S
C1263 C1264 1.524 . S
C1263 C1277 1.377 . S
C1264 C1263 1.524 . S
C1264 C1265 1.394 . S
C1264 C1269 1.363 . S
C1265 H1242 0.950 1_556 S
C1265 C1264 1.394 . S
C1265 C1266 1.336 1_556 S
C1266 H1243 0.950 . S
C1266 C1265 1.336 1_554 S
C1266 C1267 1.287 . S
C1267 C1266 1.287 . S
C1267 C1268 1.524 1_554 S
C1267 H1286 0.913 . S
C1268 H1244 0.950 . S
C1268 C1267 1.524 1_556 S
C1268 C1269 1.415 . S
C1269 H1245 0.950 . S
C1269 C1264 1.363 . S
C1269 C1268 1.415 . S
C1270 H1246 0.951 . S
C1270 C1271 1.366 . S
C1270 C1272 1.388 . S
C1271 C1270 1.366 . S
C1271 C1275 1.385 . S
C1272 H1247 0.951 . S
C1272 C1270 1.388 . S
C1272 C1273 1.366 . S
C1273 C1272 1.366 . S
C1273 C1274 1.414 . S
C1273 C1276 1.499 . S
C1274 H1248 0.950 . S
C1274 C1273 1.414 . S
C1274 C1275 1.374 . S
C1275 H1249 0.950 . S
C1275 C1271 1.385 . S
C1275 C1274 1.374 . S
C1276 C1273 1.499 . S
C1276 C1277 1.373 . S
C1276 C1278 1.389 . S
C1277 H1250 0.950 . S
C1277 C1263 1.377 . S
C1277 C1276 1.373 . S
C1278 C1262 1.377 . S
C1278 C1276 1.389 . S
C1278 C1279 1.524 . S
C1279 C1278 1.524 . S
C1279 C1280 1.397 . S
C1279 C1284 1.363 . S
C1280 H1251 0.950 . S
C1280 C1279 1.397 . S
C1280 C1281 1.334 . S
C1281 H1252 0.950 . S
C1281 C1280 1.334 . S
C1281 C1282 1.287 . S
C1282 C1281 1.287 . S
C1282 C1283 1.524 . S
C1282 H1285 0.999 . S
C1283 H1253 0.950 . S
C1283 C1282 1.524 . S
C1283 C1284 1.415 . S
C1284 H1254 0.950 . S
C1284 C1279 1.363 . S
C1284 C1283 1.415 . S
H1285 C1282 0.999 . S
H1286 C1267 0.913 . S
H1287 C1305 0.951 . S
H1288 C1307 0.951 . S
H1289 C1309 0.950 . S
H1290 C1310 0.950 . S
H1291 C1312 0.950 . S
H1292 C1315 0.950 . S
H1293 C1316 0.950 . S
H1294 C1318 0.950 . S
H1295 C1319 0.950 . S
H1296 C1320 0.951 . S
H1297 C1322 0.951 . S
H1298 C1324 0.950 . S
H1299 C1325 0.950 . S
H1300 C1327 0.950 . S
H1301 C1330 0.950 . S
H1302 C1331 0.950 . S
H1303 C1333 0.950 . S
H1304 C1334 0.950 . S
C1305 H1287 0.951 . S
C1305 C1306 1.366 1_556 S
C1305 C1307 1.388 . S
C1306 C1305 1.366 1_554 S
C1306 C1310 1.385 . S
C1307 H1288 0.951 . S
C1307 C1305 1.388 . S
C1307 C1308 1.366 . S
C1308 C1307 1.366 . S
C1308 C1309 1.414 . S
C1308 C1311 1.499 . S
C1309 H1289 0.950 . S
C1309 C1308 1.414 . S
C1309 C1310 1.374 1_556 S
C1310 H1290 0.950 . S
C1310 C1306 1.385 . S
C1310 C1309 1.374 1_554 S
C1311 C1308 1.499 . S
C1311 C1312 1.373 . S
C1311 C1313 1.389 . S
C1312 H1291 0.950 . S
C1312 C1311 1.373 . S
C1312 C1328 1.377 . S
C1313 C1311 1.389 . S
C1313 C1314 1.524 . S
C1313 C1327 1.377 . S
C1314 C1313 1.524 . S
C1314 C1315 1.397 . S
C1314 C1319 1.363 . S
C1315 H1292 0.950 . S
C1315 C1314 1.397 . S
C1315 C1316 1.334 . S
C1316 H1293 0.950 . S
C1316 C1315 1.334 . S
C1316 C1317 1.287 . S
C1317 C1316 1.287 . S
C1317 C1318 1.524 . S
C1317 H1336 0.913 . S
C1318 H1294 0.950 . S
C1318 C1317 1.524 . S
C1318 C1319 1.415 . S
C1319 H1295 0.950 . S
C1319 C1314 1.363 . S
C1319 C1318 1.415 . S
C1320 H1296 0.951 . S
C1320 C1321 1.366 . S
C1320 C1322 1.388 . S
C1321 C1320 1.366 . S
C1321 C1325 1.385 . S
C1322 H1297 0.951 . S
C1322 C1320 1.388 . S
C1322 C1323 1.366 . S
C1323 C1322 1.366 . S
C1323 C1324 1.414 . S
C1323 C1326 1.499 . S
C1324 H1298 0.950 . S
C1324 C1323 1.414 . S
C1324 C1325 1.374 . S
C1325 H1299 0.950 . S
C1325 C1321 1.385 . S
C1325 C1324 1.374 . S
C1326 C1323 1.499 . S
C1326 C1327 1.373 . S
C1326 C1328 1.389 . S
C1327 H1300 0.950 . S
C1327 C1313 1.377 . S
C1327 C1326 1.373 . S
C1328 C1312 1.377 . S
C1328 C1326 1.389 . S
C1328 C1329 1.524 . S
C1329 C1328 1.524 . S
C1329 C1330 1.397 . S
C1329 C1334 1.363 . S
C1330 H1301 0.950 . S
C1330 C1329 1.397 . S
C1330 C1331 1.334 . S
C1331 H1302 0.950 . S
C1331 C1330 1.334 . S
C1331 C1332 1.287 . S
C1332 C1331 1.287 . S
C1332 C1333 1.524 . S
C1332 H1335 0.999 . S
C1333 H1303 0.950 . S
C1333 C1332 1.524 . S
C1333 C1334 1.415 . S
C1334 H1304 0.950 . S
C1334 C1329 1.363 . S
C1334 C1333 1.415 . S
H1335 C1332 0.999 . S
H1336 C1317 0.913 . S
H1337 C1355 0.951 . S
H1338 C1357 0.951 . S
H1339 C1359 0.950 . S
H1340 C1360 0.950 . S
H1341 C1362 0.950 . S
H1342 C1365 0.950 . S
H1343 C1366 0.950 . S
H1344 C1368 0.950 . S
H1345 C1369 0.950 . S
H1346 C1370 0.951 . S
H1347 C1372 0.951 . S
H1348 C1374 0.950 . S
H1349 C1375 0.950 . S
H1350 C1377 0.950 . S
H1351 C1380 0.950 . S
H1352 C1381 0.950 . S
H1353 C1383 0.950 . S
H1354 C1384 0.950 . S
C1355 H1337 0.951 . S
C1355 C1356 1.366 . S
C1355 C1357 1.388 . S
C1356 C1355 1.366 . S
C1356 C1360 1.385 . S
C1357 H1338 0.951 . S
C1357 C1355 1.388 . S
C1357 C1358 1.366 . S
C1358 C1357 1.366 . S
C1358 C1359 1.414 . S
C1358 C1361 1.499 . S
C1359 H1339 0.950 . S
C1359 C1358 1.414 . S
C1359 C1360 1.374 . S
C1360 H1340 0.950 . S
C1360 C1356 1.385 . S
C1360 C1359 1.374 . S
C1361 C1358 1.499 . S
C1361 C1362 1.373 . S
C1361 C1363 1.389 . S
C1362 H1341 0.950 . S
C1362 C1361 1.373 . S
C1362 C1378 1.377 . S
C1363 C1361 1.389 . S
C1363 C1364 1.524 . S
C1363 C1377 1.377 . S
C1364 C1363 1.524 . S
C1364 C1365 1.397 . S
C1364 C1369 1.363 . S
C1365 H1342 0.950 . S
C1365 C1364 1.397 . S
C1365 C1366 1.334 . S
C1366 H1343 0.950 . S
C1366 C1365 1.334 . S
C1366 C1367 1.287 . S
C1367 C1366 1.287 . S
C1367 C1368 1.524 . S
C1367 H1386 0.913 1_556 S
C1368 H1344 0.950 . S
C1368 C1367 1.524 . S
C1368 C1369 1.415 . S
C1369 H1345 0.950 . S
C1369 C1364 1.363 . S
C1369 C1368 1.415 . S
C1370 H1346 0.951 . S
C1370 C1371 1.366 . S
C1370 C1372 1.388 . S
C1371 C1370 1.366 . S
C1371 C1375 1.385 . S
C1372 H1347 0.951 . S
C1372 C1370 1.388 . S
C1372 C1373 1.366 . S
C1373 C1372 1.366 . S
C1373 C1374 1.414 . S
C1373 C1376 1.499 . S
C1374 H1348 0.950 . S
C1374 C1373 1.414 . S
C1374 C1375 1.374 . S
C1375 H1349 0.950 . S
C1375 C1371 1.385 . S
C1375 C1374 1.374 . S
C1376 C1373 1.499 . S
C1376 C1377 1.373 . S
C1376 C1378 1.389 . S
C1377 H1350 0.950 . S
C1377 C1363 1.377 . S
C1377 C1376 1.373 . S
C1378 C1362 1.377 . S
C1378 C1376 1.389 . S
C1378 C1379 1.524 . S
C1379 C1378 1.524 . S
C1379 C1380 1.397 . S
C1379 C1384 1.363 . S
C1380 H1351 0.950 . S
C1380 C1379 1.397 . S
C1380 C1381 1.334 . S
C1381 H1352 0.950 . S
C1381 C1380 1.334 . S
C1381 C1382 1.287 . S
C1382 C1381 1.287 . S
C1382 C1383 1.524 . S
C1382 H1385 0.999 . S
C1383 H1353 0.950 . S
C1383 C1382 1.524 . S
C1383 C1384 1.415 . S
C1384 H1354 0.950 . S
C1384 C1379 1.363 . S
C1384 C1383 1.415 . S
H1385 C1382 0.999 . S
H1386 C1367 0.913 1_554 S
H1387 C1405 0.951 . S
H1388 C1407 0.951 . S
H1389 C1409 0.950 . S
H1390 C1410 0.950 . S
H1391 C1412 0.950 . S
H1392 C1415 0.950 . S
H1393 C1416 0.950 . S
H1394 C1418 0.950 . S
H1395 C1419 0.950 . S
H1396 C1420 0.951 . S
H1397 C1422 0.951 . S
H1398 C1424 0.950 . S
H1399 C1425 0.950 . S
H1400 C1427 0.950 . S
H1401 C1430 0.950 . S
H1402 C1431 0.950 . S
H1403 C1433 0.950 . S
H1404 C1434 0.950 . S
C1405 H1387 0.951 . S
C1405 C1406 1.366 . S
C1405 C1407 1.388 . S
C1406 C1405 1.366 . S
C1406 C1410 1.385 . S
C1407 H1388 0.951 . S
C1407 C1405 1.388 . S
C1407 C1408 1.366 . S
C1408 C1407 1.366 . S
C1408 C1409 1.414 . S
C1408 C1411 1.499 . S
C1409 H1389 0.950 . S
C1409 C1408 1.414 . S
C1409 C1410 1.374 . S
C1410 H1390 0.950 . S
C1410 C1406 1.385 . S
C1410 C1409 1.374 . S
C1411 C1408 1.499 . S
C1411 C1412 1.373 . S
C1411 C1413 1.389 . S
C1412 H1391 0.950 . S
C1412 C1411 1.373 . S
C1412 C1428 1.377 . S
C1413 C1411 1.389 . S
C1413 C1414 1.524 . S
C1413 C1427 1.377 . S
C1414 C1413 1.524 . S
C1414 C1415 1.397 . S
C1414 C1419 1.363 . S
C1415 H1392 0.950 . S
C1415 C1414 1.397 . S
C1415 C1416 1.334 . S
C1416 H1393 0.950 . S
C1416 C1415 1.334 . S
C1416 C1417 1.287 . S
C1417 C1416 1.287 . S
C1417 C1418 1.524 . S
C1417 H1436 0.913 . S
C1418 H1394 0.950 . S
C1418 C1417 1.524 . S
C1418 C1419 1.415 . S
C1419 H1395 0.950 . S
C1419 C1414 1.363 . S
C1419 C1418 1.415 . S
C1420 H1396 0.951 . S
C1420 C1421 1.366 . S
C1420 C1422 1.388 . S
C1421 C1420 1.366 . S
C1421 C1425 1.385 . S
C1422 H1397 0.951 . S
C1422 C1420 1.388 . S
C1422 C1423 1.366 . S
C1423 C1422 1.366 . S
C1423 C1424 1.414 . S
C1423 C1426 1.499 . S
C1424 H1398 0.950 . S
C1424 C1423 1.414 . S
C1424 C1425 1.374 . S
C1425 H1399 0.950 . S
C1425 C1421 1.385 . S
C1425 C1424 1.374 . S
C1426 C1423 1.499 . S
C1426 C1427 1.373 . S
C1426 C1428 1.389 . S
C1427 H1400 0.950 . S
C1427 C1413 1.377 . S
C1427 C1426 1.373 . S
C1428 C1412 1.377 . S
C1428 C1426 1.389 . S
C1428 C1429 1.524 . S
C1429 C1428 1.524 . S
C1429 C1430 1.397 . S
C1429 C1434 1.363 . S
C1430 H1401 0.950 . S
C1430 C1429 1.397 . S
C1430 C1431 1.334 . S
C1431 H1402 0.950 . S
C1431 C1430 1.334 . S
C1431 C1432 1.287 . S
C1432 C1431 1.287 . S
C1432 C1433 1.524 . S
C1432 H1435 0.999 . S
C1433 H1403 0.950 . S
C1433 C1432 1.524 . S
C1433 C1434 1.415 . S
C1434 H1404 0.950 . S
C1434 C1429 1.363 . S
C1434 C1433 1.415 . S
H1435 C1432 0.999 . S
H1436 C1417 0.913 . S
H1437 C1455 0.951 . S
H1438 C1457 0.951 . S
H1439 C1459 0.950 . S
H1440 C1460 0.950 . S
H1441 C1462 0.950 . S
H1442 C1465 0.950 . S
H1443 C1466 0.950 . S
H1444 C1468 0.950 . S
H1445 C1469 0.950 . S
H1446 C1470 0.951 . S
H1447 C1472 0.951 . S
H1448 C1474 0.950 . S
H1449 C1475 0.950 . S
H1450 C1477 0.950 . S
H1451 C1480 0.950 . S
H1452 C1481 0.950 . S
H1453 C1483 0.950 . S
H1454 C1484 0.950 . S
C1455 H1437 0.951 . S
C1455 C1456 1.366 . S
C1455 C1457 1.388 . S
C1456 C1455 1.366 . S
C1456 C1460 1.385 . S
C1457 H1438 0.951 . S
C1457 C1455 1.388 . S
C1457 C1458 1.366 . S
C1458 C1457 1.366 . S
C1458 C1459 1.414 . S
C1458 C1461 1.499 . S
C1459 H1439 0.950 . S
C1459 C1458 1.414 . S
C1459 C1460 1.374 . S
C1460 H1440 0.950 . S
C1460 C1456 1.385 . S
C1460 C1459 1.374 . S
C1461 C1458 1.499 . S
C1461 C1462 1.373 . S
C1461 C1463 1.389 . S
C1462 H1441 0.950 . S
C1462 C1461 1.373 . S
C1462 C1478 1.377 . S
C1463 C1461 1.389 . S
C1463 C1464 1.524 . S
C1463 C1477 1.377 . S
C1464 C1463 1.524 . S
C1464 C1465 1.397 . S
C1464 C1469 1.363 . S
C1465 H1442 0.950 . S
C1465 C1464 1.397 . S
C1465 C1466 1.334 . S
C1466 H1443 0.950 . S
C1466 C1465 1.334 . S
C1466 C1467 1.287 . S
C1467 C1466 1.287 . S
C1467 C1468 1.524 . S
C1467 H1486 0.913 . S
C1468 H1444 0.950 . S
C1468 C1467 1.524 . S
C1468 C1469 1.415 . S
C1469 H1445 0.950 . S
C1469 C1464 1.363 . S
C1469 C1468 1.415 . S
C1470 H1446 0.951 . S
C1470 C1471 1.366 . S
C1470 C1472 1.388 . S
C1471 C1470 1.366 . S
C1471 C1475 1.385 . S
C1472 H1447 0.951 . S
C1472 C1470 1.388 . S
C1472 C1473 1.366 . S
C1473 C1472 1.366 . S
C1473 C1474 1.414 . S
C1473 C1476 1.499 . S
C1474 H1448 0.950 . S
C1474 C1473 1.414 . S
C1474 C1475 1.374 . S
C1475 H1449 0.950 . S
C1475 C1471 1.385 . S
C1475 C1474 1.374 . S
C1476 C1473 1.499 . S
C1476 C1477 1.373 . S
C1476 C1478 1.389 . S
C1477 H1450 0.950 . S
C1477 C1463 1.377 . S
C1477 C1476 1.373 . S
C1478 C1462 1.377 . S
C1478 C1476 1.389 . S
C1478 C1479 1.524 . S
C1479 C1478 1.524 . S
C1479 C1480 1.397 . S
C1479 C1484 1.363 . S
C1480 H1451 0.950 . S
C1480 C1479 1.397 . S
C1480 C1481 1.334 . S
C1481 H1452 0.950 . S
C1481 C1480 1.334 . S
C1481 C1482 1.287 . S
C1482 C1481 1.287 . S
C1482 C1483 1.524 . S
C1482 H1485 0.999 . S
C1483 H1453 0.950 . S
C1483 C1482 1.524 . S
C1483 C1484 1.415 . S
C1484 H1454 0.950 . S
C1484 C1479 1.363 . S
C1484 C1483 1.415 . S
H1485 C1482 0.999 . S
H1486 C1467 0.913 . S
H1487 C1505 0.951 . S
H1488 C1507 0.951 . S
H1489 C1509 0.950 . S
H1490 C1510 0.950 . S
H1491 C1512 0.950 . S
H1492 C1515 0.950 . S
H1493 C1516 0.950 . S
H1494 C1518 0.950 . S
H1495 C1519 0.950 . S
H1496 C1520 0.951 . S
H1497 C1522 0.951 . S
H1498 C1524 0.950 . S
H1499 C1525 0.950 . S
H1500 C1527 0.950 . S
H1501 C1530 0.950 . S
H1502 C1531 0.950 . S
H1503 C1533 0.950 . S
H1504 C1534 0.950 . S
C1505 H1487 0.951 . S
C1505 C1506 1.366 . S
C1505 C1507 1.388 . S
C1506 C1505 1.366 . S
C1506 C1510 1.385 . S
C1507 H1488 0.951 . S
C1507 C1505 1.388 . S
C1507 C1508 1.366 . S
C1508 C1507 1.366 . S
C1508 C1509 1.414 . S
C1508 C1511 1.499 . S
C1509 H1489 0.950 . S
C1509 C1508 1.414 . S
C1509 C1510 1.374 . S
C1510 H1490 0.950 . S
C1510 C1506 1.385 . S
C1510 C1509 1.374 . S
C1511 C1508 1.499 . S
C1511 C1512 1.373 . S
C1511 C1513 1.389 . S
C1512 H1491 0.950 . S
C1512 C1511 1.373 . S
C1512 C1528 1.377 . S
C1513 C1511 1.389 . S
C1513 C1514 1.524 . S
C1513 C1527 1.377 . S
C1514 C1513 1.524 . S
C1514 C1515 1.397 . S
C1514 C1519 1.363 . S
C1515 H1492 0.950 . S
C1515 C1514 1.397 . S
C1515 C1516 1.334 . S
C1516 H1493 0.950 . S
C1516 C1515 1.334 . S
C1516 C1517 1.287 . S
C1517 C1516 1.287 . S
C1517 C1518 1.524 . S
C1517 H1536 0.913 . S
C1518 H1494 0.950 . S
C1518 C1517 1.524 . S
C1518 C1519 1.415 . S
C1519 H1495 0.950 . S
C1519 C1514 1.363 . S
C1519 C1518 1.415 . S
C1520 H1496 0.951 . S
C1520 C1521 1.366 . S
C1520 C1522 1.388 . S
C1521 C1520 1.366 . S
C1521 C1525 1.385 . S
C1522 H1497 0.951 . S
C1522 C1520 1.388 . S
C1522 C1523 1.366 . S
C1523 C1522 1.366 . S
C1523 C1524 1.414 . S
C1523 C1526 1.499 . S
C1524 H1498 0.950 . S
C1524 C1523 1.414 . S
C1524 C1525 1.374 . S
C1525 H1499 0.950 . S
C1525 C1521 1.385 . S
C1525 C1524 1.374 . S
C1526 C1523 1.499 . S
C1526 C1527 1.373 . S
C1526 C1528 1.389 . S
C1527 H1500 0.950 . S
C1527 C1513 1.377 . S
C1527 C1526 1.373 . S
C1528 C1512 1.377 . S
C1528 C1526 1.389 . S
C1528 C1529 1.524 . S
C1529 C1528 1.524 . S
C1529 C1530 1.397 . S
C1529 C1534 1.363 . S
C1530 H1501 0.950 . S
C1530 C1529 1.397 . S
C1530 C1531 1.334 . S
C1531 H1502 0.950 . S
C1531 C1530 1.334 . S
C1531 C1532 1.287 . S
C1532 C1531 1.287 . S
C1532 C1533 1.524 . S
C1532 H1535 0.999 . S
C1533 H1503 0.950 . S
C1533 C1532 1.524 . S
C1533 C1534 1.415 . S
C1534 H1504 0.950 . S
C1534 C1529 1.363 . S
C1534 C1533 1.415 . S
H1535 C1532 0.999 . S
H1536 C1517 0.913 . S
H1537 C1555 0.951 . S
H1538 C1557 0.951 . S
H1539 C1559 0.950 . S
H1540 C1560 0.950 . S
H1541 C1562 0.950 . S
H1542 C1565 0.950 . S
H1543 C1566 0.950 . S
H1544 C1568 0.950 . S
H1545 C1569 0.950 . S
H1546 C1570 0.951 . S
H1547 C1572 0.951 . S
H1548 C1574 0.950 . S
H1549 C1575 0.950 . S
H1550 C1577 0.950 . S
H1551 C1580 0.950 . S
H1552 C1581 0.950 . S
H1553 C1583 0.965 . S
H1554 C1584 0.950 . S
C1555 H1537 0.951 . S
C1555 C1556 1.366 . S
C1555 C1557 1.388 . S
C1556 C1555 1.366 . S
C1556 C1560 1.385 . S
C1557 H1538 0.951 . S
C1557 C1555 1.388 . S
C1557 C1558 1.366 . S
C1558 C1557 1.366 . S
C1558 C1559 1.414 . S
C1558 C1561 1.499 . S
C1559 H1539 0.950 . S
C1559 C1558 1.414 . S
C1559 C1560 1.374 . S
C1560 H1540 0.950 . S
C1560 C1556 1.385 . S
C1560 C1559 1.374 . S
C1561 C1558 1.499 . S
C1561 C1562 1.373 . S
C1561 C1563 1.389 . S
C1562 H1541 0.950 . S
C1562 C1561 1.373 . S
C1562 C1578 1.377 . S
C1563 C1561 1.389 . S
C1563 C1564 1.524 . S
C1563 C1577 1.377 . S
C1564 C1563 1.524 . S
C1564 C1565 1.397 . S
C1564 C1569 1.363 . S
C1565 H1542 0.950 . S
C1565 C1564 1.397 . S
C1565 C1566 1.334 . S
C1566 H1543 0.950 . S
C1566 C1565 1.334 . S
C1566 C1567 1.287 . S
C1567 C1566 1.287 . S
C1567 C1568 1.524 . S
C1567 H1586 0.913 . S
C1568 H1544 0.950 . S
C1568 C1567 1.524 . S
C1568 C1569 1.415 . S
C1569 H1545 0.950 . S
C1569 C1564 1.363 . S
C1569 C1568 1.415 . S
C1570 H1546 0.951 . S
C1570 C1571 1.366 . S
C1570 C1572 1.388 . S
C1571 C1570 1.366 . S
C1571 C1575 1.385 . S
C1572 H1547 0.951 . S
C1572 C1570 1.388 . S
C1572 C1573 1.366 . S
C1573 C1572 1.366 . S
C1573 C1574 1.414 . S
C1573 C1576 1.499 . S
C1574 H1548 0.950 . S
C1574 C1573 1.414 . S
C1574 C1575 1.374 . S
C1575 H1549 0.950 . S
C1575 C1571 1.385 . S
C1575 C1574 1.374 . S
C1576 C1573 1.499 . S
C1576 C1577 1.373 . S
C1576 C1578 1.389 . S
C1577 H1550 0.950 . S
C1577 C1563 1.377 . S
C1577 C1576 1.373 . S
C1578 C1562 1.377 . S
C1578 C1576 1.389 . S
C1578 C1579 1.524 . S
C1579 C1578 1.524 . S
C1579 C1580 1.397 . S
C1579 C1584 1.363 . S
C1580 H1551 0.950 . S
C1580 C1579 1.397 . S
C1580 C1581 1.334 . S
C1581 H1552 0.950 . S
C1581 C1580 1.334 . S
C1581 C1582 1.287 1_655 S
C1582 C1581 1.287 1_455 S
C1582 C1583 1.531 . S
C1582 H1585 0.999 . S
C1583 H1553 0.965 . S
C1583 C1582 1.531 . S
C1583 C1584 1.391 1_455 S
C1584 H1554 0.950 . S
C1584 C1579 1.363 . S
C1584 C1583 1.391 1_655 S
H1585 C1582 0.999 . S
H1586 C1567 0.913 . S
H1587 C1605 0.951 . S
H1588 C1607 0.951 . S
H1589 C1609 0.950 . S
H1590 C1610 0.950 . S
H1591 C1612 0.950 . S
H1592 C1615 0.950 . S
H1593 C1616 0.950 . S
H1594 C1618 0.950 . S
H1595 C1619 0.950 . S
H1596 C1620 0.951 . S
H1597 C1622 0.951 . S
H1598 C1624 0.950 . S
H1599 C1625 0.950 . S
H1600 C1627 0.950 . S
H1601 C1630 0.950 . S
H1602 C1631 0.950 . S
H1603 C1633 0.950 . S
H1604 C1634 0.950 . S
C1605 H1587 0.951 . S
C1605 C1606 1.366 . S
C1605 C1607 1.388 . S
C1606 C1605 1.366 . S
C1606 C1610 1.385 . S
C1607 H1588 0.951 . S
C1607 C1605 1.388 . S
C1607 C1608 1.366 . S
C1608 C1607 1.366 . S
C1608 C1609 1.414 . S
C1608 C1611 1.499 . S
C1609 H1589 0.950 . S
C1609 C1608 1.414 . S
C1609 C1610 1.374 . S
C1610 H1590 0.950 . S
C1610 C1606 1.385 . S
C1610 C1609 1.374 . S
C1611 C1608 1.499 . S
C1611 C1612 1.373 . S
C1611 C1613 1.389 . S
C1612 H1591 0.950 . S
C1612 C1611 1.373 . S
C1612 C1628 1.377 . S
C1613 C1611 1.389 . S
C1613 C1614 1.524 . S
C1613 C1627 1.377 . S
C1614 C1613 1.524 . S
C1614 C1615 1.397 . S
C1614 C1619 1.363 . S
C1615 H1592 0.950 . S
C1615 C1614 1.397 . S
C1615 C1616 1.334 . S
C1616 H1593 0.950 . S
C1616 C1615 1.334 . S
C1616 C1617 1.287 . S
C1617 C1616 1.287 . S
C1617 C1618 1.524 . S
C1617 H1636 0.913 . S
C1618 H1594 0.950 . S
C1618 C1617 1.524 . S
C1618 C1619 1.415 . S
C1619 H1595 0.950 . S
C1619 C1614 1.363 . S
C1619 C1618 1.415 . S
C1620 H1596 0.951 . S
C1620 C1621 1.366 . S
C1620 C1622 1.388 . S
C1621 C1620 1.366 . S
C1621 C1625 1.385 . S
C1622 H1597 0.951 . S
C1622 C1620 1.388 . S
C1622 C1623 1.366 . S
C1623 C1622 1.366 . S
C1623 C1624 1.414 . S
C1623 C1626 1.499 . S
C1624 H1598 0.950 . S
C1624 C1623 1.414 . S
C1624 C1625 1.374 . S
C1625 H1599 0.950 . S
C1625 C1621 1.385 . S
C1625 C1624 1.374 . S
C1626 C1623 1.499 . S
C1626 C1627 1.373 . S
C1626 C1628 1.389 . S
C1627 H1600 0.950 . S
C1627 C1613 1.377 . S
C1627 C1626 1.373 . S
C1628 C1612 1.377 . S
C1628 C1626 1.389 . S
C1628 C1629 1.524 . S
C1629 C1628 1.524 . S
C1629 C1630 1.397 . S
C1629 C1634 1.363 . S
C1630 H1601 0.950 . S
C1630 C1629 1.397 . S
C1630 C1631 1.334 . S
C1631 H1602 0.950 . S
C1631 C1630 1.334 . S
C1631 C1632 1.287 . S
C1632 C1631 1.287 . S
C1632 C1633 1.524 . S
C1632 H1635 0.999 . S
C1633 H1603 0.950 . S
C1633 C1632 1.524 . S
C1633 C1634 1.415 . S
C1634 H1604 0.950 . S
C1634 C1629 1.363 . S
C1634 C1633 1.415 . S
H1635 C1632 0.999 . S
H1636 C1617 0.913 . S
H1637 C1655 0.951 . S
H1638 C1657 0.951 . S
H1639 C1659 0.950 . S
H1640 C1660 0.950 . S
H1641 C1662 0.950 . S
H1642 C1665 0.950 . S
H1643 C1666 0.950 . S
H1644 C1668 0.950 . S
H1645 C1669 0.950 . S
H1646 C1670 0.951 . S
H1647 C1672 0.951 . S
H1648 C1674 0.950 . S
H1649 C1675 0.950 . S
H1650 C1677 0.950 . S
H1651 C1680 0.950 . S
H1652 C1681 0.950 . S
H1653 C1683 0.950 . S
H1654 C1684 0.950 . S
C1655 H1637 0.951 . S
C1655 C1656 1.366 . S
C1655 C1657 1.388 . S
C1656 C1655 1.366 . S
C1656 C1660 1.385 . S
C1657 H1638 0.951 . S
C1657 C1655 1.388 . S
C1657 C1658 1.366 . S
C1658 C1657 1.366 . S
C1658 C1659 1.414 . S
C1658 C1661 1.499 . S
C1659 H1639 0.950 . S
C1659 C1658 1.414 . S
C1659 C1660 1.374 . S
C1660 H1640 0.950 . S
C1660 C1656 1.385 . S
C1660 C1659 1.374 . S
C1661 C1658 1.499 . S
C1661 C1662 1.373 . S
C1661 C1663 1.389 . S
C1662 H1641 0.950 . S
C1662 C1661 1.373 . S
C1662 C1678 1.377 . S
C1663 C1661 1.389 . S
C1663 C1664 1.524 . S
C1663 C1677 1.377 . S
C1664 C1663 1.524 . S
C1664 C1665 1.397 . S
C1664 C1669 1.363 . S
C1665 H1642 0.950 . S
C1665 C1664 1.397 . S
C1665 C1666 1.334 . S
C1666 H1643 0.950 . S
C1666 C1665 1.334 . S
C1666 C1667 1.287 . S
C1667 C1666 1.287 . S
C1667 C1668 1.524 . S
C1667 H1686 0.913 . S
C1668 H1644 0.950 . S
C1668 C1667 1.524 . S
C1668 C1669 1.415 . S
C1669 H1645 0.950 . S
C1669 C1664 1.363 . S
C1669 C1668 1.415 . S
C1670 H1646 0.951 . S
C1670 C1671 1.366 . S
C1670 C1672 1.388 . S
C1671 C1670 1.366 . S
C1671 C1675 1.385 . S
C1672 H1647 0.951 . S
C1672 C1670 1.388 . S
C1672 C1673 1.366 . S
C1673 C1672 1.366 . S
C1673 C1674 1.414 . S
C1673 C1676 1.499 . S
C1674 H1648 0.950 . S
C1674 C1673 1.414 . S
C1674 C1675 1.374 . S
C1675 H1649 0.950 . S
C1675 C1671 1.385 . S
C1675 C1674 1.374 . S
C1676 C1673 1.499 . S
C1676 C1677 1.373 . S
C1676 C1678 1.389 . S
C1677 H1650 0.950 . S
C1677 C1663 1.377 . S
C1677 C1676 1.373 . S
C1678 C1662 1.377 . S
C1678 C1676 1.389 . S
C1678 C1679 1.524 . S
C1679 C1678 1.524 . S
C1679 C1680 1.397 . S
C1679 C1684 1.363 . S
C1680 H1651 0.950 . S
C1680 C1679 1.397 . S
C1680 C1681 1.334 . S
C1681 H1652 0.950 . S
C1681 C1680 1.334 . S
C1681 C1682 1.287 . S
C1682 C1681 1.287 . S
C1682 C1683 1.524 . S
C1682 H1685 0.999 . S
C1683 H1653 0.950 . S
C1683 C1682 1.524 . S
C1683 C1684 1.415 . S
C1684 H1654 0.950 . S
C1684 C1679 1.363 . S
C1684 C1683 1.415 . S
H1685 C1682 0.999 . S
H1686 C1667 0.913 . S
H1687 C1705 0.951 . S
H1688 C1707 0.951 . S
H1689 C1709 0.950 . S
H1690 C1710 0.950 . S
H1691 C1712 0.950 . S
H1692 C1715 0.950 . S
H1693 C1716 0.950 . S
H1694 C1718 0.950 . S
H1695 C1719 0.950 . S
H1696 C1720 0.951 . S
H1697 C1722 0.951 . S
H1698 C1724 0.950 . S
H1699 C1725 0.950 . S
H1700 C1727 0.950 . S
H1701 C1730 0.950 . S
H1702 C1731 0.950 . S
H1703 C1733 0.950 . S
H1704 C1734 0.950 . S
C1705 H1687 0.951 . S
C1705 C1706 1.366 . S
C1705 C1707 1.388 . S
C1706 C1705 1.366 . S
C1706 C1710 1.385 . S
C1707 H1688 0.951 . S
C1707 C1705 1.388 . S
C1707 C1708 1.366 . S
C1708 C1707 1.366 . S
C1708 C1709 1.414 . S
C1708 C1711 1.499 . S
C1709 H1689 0.950 . S
C1709 C1708 1.414 . S
C1709 C1710 1.374 . S
C1710 H1690 0.950 . S
C1710 C1706 1.385 . S
C1710 C1709 1.374 . S
C1711 C1708 1.499 . S
C1711 C1712 1.373 . S
C1711 C1713 1.389 . S
C1712 H1691 0.950 . S
C1712 C1711 1.373 . S
C1712 C1728 1.377 . S
C1713 C1711 1.389 . S
C1713 C1714 1.524 . S
C1713 C1727 1.377 . S
C1714 C1713 1.524 . S
C1714 C1715 1.397 . S
C1714 C1719 1.363 . S
C1715 H1692 0.950 . S
C1715 C1714 1.397 . S
C1715 C1716 1.334 . S
C1716 H1693 0.950 . S
C1716 C1715 1.334 . S
C1716 C1717 1.287 . S
C1717 C1716 1.287 . S
C1717 C1718 1.524 . S
C1717 H1736 0.913 . S
C1718 H1694 0.950 . S
C1718 C1717 1.524 . S
C1718 C1719 1.415 . S
C1719 H1695 0.950 . S
C1719 C1714 1.363 . S
C1719 C1718 1.415 . S
C1720 H1696 0.951 . S
C1720 C1721 1.366 . S
C1720 C1722 1.388 . S
C1721 C1720 1.366 . S
C1721 C1725 1.385 . S
C1722 H1697 0.951 . S
C1722 C1720 1.388 . S
C1722 C1723 1.366 . S
C1723 C1722 1.366 . S
C1723 C1724 1.414 . S
C1723 C1726 1.499 . S
C1724 H1698 0.950 . S
C1724 C1723 1.414 . S
C1724 C1725 1.374 . S
C1725 H1699 0.950 . S
C1725 C1721 1.385 . S
C1725 C1724 1.374 . S
C1726 C1723 1.499 . S
C1726 C1727 1.373 . S
C1726 C1728 1.389 . S
C1727 H1700 0.950 . S
C1727 C1713 1.377 . S
C1727 C1726 1.373 . S
C1728 C1712 1.377 . S
C1728 C1726 1.389 . S
C1728 C1729 1.524 . S
C1729 C1728 1.524 . S
C1729 C1730 1.397 . S
C1729 C1734 1.363 . S
C1730 H1701 0.950 . S
C1730 C1729 1.397 . S
C1730 C1731 1.334 . S
C1731 H1702 0.950 . S
C1731 C1730 1.334 . S
C1731 C1732 1.287 . S
C1732 C1731 1.287 . S
C1732 C1733 1.524 . S
C1732 H1735 0.999 . S
C1733 H1703 0.950 . S
C1733 C1732 1.524 . S
C1733 C1734 1.415 . S
C1734 H1704 0.950 . S
C1734 C1729 1.363 . S
C1734 C1733 1.415 . S
H1735 C1732 0.999 . S
H1736 C1717 0.913 . S
C556 C39 1.685 . S
C571 C444 1.652 . S
C606 C125 0.760 . S
C621 C476 0.760 . S
C671 C535 2.273 . S
C656 C211 2.181 . S
C721 C464 0.688 . S
C706 C273 0.684 . S
C756 C335 1.745 . S
C771 C494 1.734 . S
C821 C516 1.578 . S
C806 C439 1.590 . S
C871 C485 1.645 . S
C856 C187 1.650 . S
C906 C291 1.678 . S
C921 C525 1.626 . S
C971 C474 1.904 . S
C956 C359 1.774 . S
C1006 C421 0.709 . S
C1021 C504 0.712 . S
C1056 C63 2.110 1_556 S
C1071 C507 2.201 . S
C1121 C446 2.106 . S
C1106 C143 2.125 . S
C1171 C454 1.838 . S
C1156 C285 1.754 . S
C1221 C495 1.974 . S
C1206 C365 2.008 1_556 S
C1271 C508 2.136 . S
C1256 C409 2.134 . S
C1321 C445 1.952 . S
C1306 C69 2.004 . S
C1371 C505 1.712 . S
C1356 C137 1.660 . S
C1406 C199 0.241 . S
C1421 C506 0.415 . S
C1471 C475 1.830 . S
C1456 C433 1.756 . S
C1521 C536 0.393 . S
C1506 C51 0.276 . S
C1571 C463 1.582 . S
C1556 C113 1.651 . S
C1621 C477 2.021 . S
C1606 C217 2.072 . S
C1656 C261 2.069 . S
C1671 C526 2.070 . S
C1706 C347 0.658 . S
C1721 C473 0.665 . S
