# Generated by pormake.
# Topology eea, (3,6)-cn, num edge types: 1
# Building blocks:
#     Node 0, Type 0, BuildingBlock: QEWDON_clean_linker_0, # of connection points: 3
#     Node 1, Type 0, BuildingBlock: QEWDON_clean_linker_0, # of connection points: 3
#     Node 2, Type 0, BuildingBlock: QEWDON_clean_linker_0, # of connection points: 3
#     Node 3, Type 0, BuildingBlock: QEWDON_clean_linker_0, # of connection points: 3
#     Node 4, Type 0, BuildingBlock: QEWDON_clean_linker_0, # of connection points: 3
#     Node 5, Type 0, BuildingBlock: QEWDON_clean_linker_0, # of connection points: 3
#     Node 6, Type 0, BuildingBlock: QEWDON_clean_linker_0, # of connection points: 3
#     Node 7, Type 0, BuildingBlock: QEWDON_clean_linker_0, # of connection points: 3
#     Node 8, Type 0, BuildingBlock: QEWDON_clean_linker_0, # of connection points: 3
#     Node 9, Type 0, BuildingBlock: QEWDON_clean_linker_0, # of connection points: 3
#     Node 10, Type 0, BuildingBlock: QEWDON_clean_linker_0, # of connection points: 3
#     Node 11, Type 0, BuildingBlock: QEWDON_clean_linker_0, # of connection points: 3
#     Node 12, Type 0, BuildingBlock: QEWDON_clean_linker_0, # of connection points: 3
#     Node 13, Type 0, BuildingBlock: QEWDON_clean_linker_0, # of connection points: 3
#     Node 14, Type 0, BuildingBlock: QEWDON_clean_linker_0, # of connection points: 3
#     Node 15, Type 0, BuildingBlock: QEWDON_clean_linker_0, # of connection points: 3
#     Node 16, Type 0, BuildingBlock: QEWDON_clean_linker_0, # of connection points: 3
#     Node 17, Type 0, BuildingBlock: QEWDON_clean_linker_0, # of connection points: 3
#     Node 18, Type 1, BuildingBlock: NUHQIS_clean_sbu_0, # of connection points: 6
#     Node 19, Type 1, BuildingBlock: NUHQIS_clean_sbu_0, # of connection points: 6
#     Node 20, Type 1, BuildingBlock: NUHQIS_clean_sbu_0, # of connection points: 6
#     Node 21, Type 1, BuildingBlock: NUHQIS_clean_sbu_0, # of connection points: 6
#     Node 22, Type 1, BuildingBlock: NUHQIS_clean_sbu_0, # of connection points: 6
#     Node 23, Type 1, BuildingBlock: NUHQIS_clean_sbu_0, # of connection points: 6
#     Node 24, Type 1, BuildingBlock: NUHQIS_clean_sbu_0, # of connection points: 6
#     Node 25, Type 1, BuildingBlock: NUHQIS_clean_sbu_0, # of connection points: 6
#     Node 26, Type 1, BuildingBlock: NUHQIS_clean_sbu_0, # of connection points: 6
#     Edge 27, Type (0, 1), BuildingBlock: ZUJKAS_clean_linker_0, # of connection points: 2
#     Edge 28, Type (0, 1), BuildingBlock: ZUJKAS_clean_linker_0, # of connection points: 2
#     Edge 29, Type (0, 1), BuildingBlock: ZUJKAS_clean_linker_0, # of connection points: 2
#     Edge 30, Type (0, 1), BuildingBlock: ZUJKAS_clean_linker_0, # of connection points: 2
#     Edge 31, Type (0, 1), BuildingBlock: ZUJKAS_clean_linker_0, # of connection points: 2
#     Edge 32, Type (0, 1), BuildingBlock: ZUJKAS_clean_linker_0, # of connection points: 2
#     Edge 33, Type (0, 1), BuildingBlock: ZUJKAS_clean_linker_0, # of connection points: 2
#     Edge 34, Type (0, 1), BuildingBlock: ZUJKAS_clean_linker_0, # of connection points: 2
#     Edge 35, Type (0, 1), BuildingBlock: ZUJKAS_clean_linker_0, # of connection points: 2
#     Edge 36, Type (0, 1), BuildingBlock: ZUJKAS_clean_linker_0, # of connection points: 2
#     Edge 37, Type (0, 1), BuildingBlock: ZUJKAS_clean_linker_0, # of connection points: 2
#     Edge 38, Type (0, 1), BuildingBlock: ZUJKAS_clean_linker_0, # of connection points: 2
#     Edge 39, Type (0, 1), BuildingBlock: ZUJKAS_clean_linker_0, # of connection points: 2
#     Edge 40, Type (0, 1), BuildingBlock: ZUJKAS_clean_linker_0, # of connection points: 2
#     Edge 41, Type (0, 1), BuildingBlock: ZUJKAS_clean_linker_0, # of connection points: 2
#     Edge 42, Type (0, 1), BuildingBlock: ZUJKAS_clean_linker_0, # of connection points: 2
#     Edge 43, Type (0, 1), BuildingBlock: ZUJKAS_clean_linker_0, # of connection points: 2
#     Edge 44, Type (0, 1), BuildingBlock: ZUJKAS_clean_linker_0, # of connection points: 2
#     Edge 45, Type (0, 1), BuildingBlock: ZUJKAS_clean_linker_0, # of connection points: 2
#     Edge 46, Type (0, 1), BuildingBlock: ZUJKAS_clean_linker_0, # of connection points: 2
#     Edge 47, Type (0, 1), BuildingBlock: ZUJKAS_clean_linker_0, # of connection points: 2
#     Edge 48, Type (0, 1), BuildingBlock: ZUJKAS_clean_linker_0, # of connection points: 2
#     Edge 49, Type (0, 1), BuildingBlock: ZUJKAS_clean_linker_0, # of connection points: 2
#     Edge 50, Type (0, 1), BuildingBlock: ZUJKAS_clean_linker_0, # of connection points: 2
#     Edge 51, Type (0, 1), BuildingBlock: ZUJKAS_clean_linker_0, # of connection points: 2
#     Edge 52, Type (0, 1), BuildingBlock: ZUJKAS_clean_linker_0, # of connection points: 2
#     Edge 53, Type (0, 1), BuildingBlock: ZUJKAS_clean_linker_0, # of connection points: 2
#     Edge 54, Type (0, 1), BuildingBlock: ZUJKAS_clean_linker_0, # of connection points: 2
#     Edge 55, Type (0, 1), BuildingBlock: ZUJKAS_clean_linker_0, # of connection points: 2
#     Edge 56, Type (0, 1), BuildingBlock: ZUJKAS_clean_linker_0, # of connection points: 2
#     Edge 57, Type (0, 1), BuildingBlock: ZUJKAS_clean_linker_0, # of connection points: 2
#     Edge 58, Type (0, 1), BuildingBlock: ZUJKAS_clean_linker_0, # of connection points: 2
#     Edge 59, Type (0, 1), BuildingBlock: ZUJKAS_clean_linker_0, # of connection points: 2
#     Edge 60, Type (0, 1), BuildingBlock: ZUJKAS_clean_linker_0, # of connection points: 2
#     Edge 61, Type (0, 1), BuildingBlock: ZUJKAS_clean_linker_0, # of connection points: 2
#     Edge 62, Type (0, 1), BuildingBlock: ZUJKAS_clean_linker_0, # of connection points: 2
#     Edge 63, Type (0, 1), BuildingBlock: ZUJKAS_clean_linker_0, # of connection points: 2
#     Edge 64, Type (0, 1), BuildingBlock: ZUJKAS_clean_linker_0, # of connection points: 2
#     Edge 65, Type (0, 1), BuildingBlock: ZUJKAS_clean_linker_0, # of connection points: 2
#     Edge 66, Type (0, 1), BuildingBlock: ZUJKAS_clean_linker_0, # of connection points: 2
#     Edge 67, Type (0, 1), BuildingBlock: ZUJKAS_clean_linker_0, # of connection points: 2
#     Edge 68, Type (0, 1), BuildingBlock: ZUJKAS_clean_linker_0, # of connection points: 2
#     Edge 69, Type (0, 1), BuildingBlock: ZUJKAS_clean_linker_0, # of connection points: 2
#     Edge 70, Type (0, 1), BuildingBlock: ZUJKAS_clean_linker_0, # of connection points: 2
#     Edge 71, Type (0, 1), BuildingBlock: ZUJKAS_clean_linker_0, # of connection points: 2
#     Edge 72, Type (0, 1), BuildingBlock: ZUJKAS_clean_linker_0, # of connection points: 2
#     Edge 73, Type (0, 1), BuildingBlock: ZUJKAS_clean_linker_0, # of connection points: 2
#     Edge 74, Type (0, 1), BuildingBlock: ZUJKAS_clean_linker_0, # of connection points: 2
#     Edge 75, Type (0, 1), BuildingBlock: ZUJKAS_clean_linker_0, # of connection points: 2
#     Edge 76, Type (0, 1), BuildingBlock: ZUJKAS_clean_linker_0, # of connection points: 2
#     Edge 77, Type (0, 1), BuildingBlock: ZUJKAS_clean_linker_0, # of connection points: 2
#     Edge 78, Type (0, 1), BuildingBlock: ZUJKAS_clean_linker_0, # of connection points: 2
#     Edge 79, Type (0, 1), BuildingBlock: ZUJKAS_clean_linker_0, # of connection points: 2
#     Edge 80, Type (0, 1), BuildingBlock: ZUJKAS_clean_linker_0, # of connection points: 2
# Relax obj value: 0.085
# Max RMSD: 0.254
# Mean RMSD: 0.175
data_MOF--net-eea--node1-NUHQIS_clean_sbu_0--node2-QEWDON_clean_linker_0--edge1-ZUJKAS_clean_linker_0
_symmetry_space_group_name_H-M    P1
_symmetry_Int_Tables_number       1
_symmetry_cell_setting            triclinic
loop_
_symmetry_equiv_pos_as_xyz
'x, y, z'
_cell_length_a     74.921608
_cell_length_b     75.46215
_cell_length_c     82.666894
_cell_angle_alpha  93.410082
_cell_angle_beta   93.537878
_cell_angle_gamma 119.82677
loop_
_atom_site_label
_atom_site_type_symbol
_atom_site_fract_x
_atom_site_fract_y
_atom_site_fract_z
_atom_type_partial_charge
H0 H 0.23333 0.1391 0.41836 0.0
C1 C 0.23579 0.12696 0.4134 0.0
C2 C 0.2492 0.12205 0.42221 0.0
C3 C 0.22498 0.11574 0.39842 0.0
H4 H 0.26098 0.10109 0.4228 0.0
C5 C 0.25168 0.10581 0.41574 0.0
C6 C 0.24117 0.09468 0.4007 0.0
C7 C 0.22827 0.10011 0.39201 0.0
C8 C 0.20918 0.11915 0.38973 0.0
H9 H 0.22043 0.09186 0.38022 0.0
C10 C 0.21308 0.13907 0.3875 0.0
C11 C 0.19838 0.14179 0.37826 0.0
C12 C 0.1901 0.10212 0.38317 0.0
H13 H 0.18647 0.08663 0.38499 0.0
C14 C 0.17545 0.10485 0.37418 0.0
H15 H 0.22772 0.15234 0.39242 0.0
C16 C 0.1796 0.12455 0.37162 0.0
H17 H 0.16801 0.12636 0.3646 0.0
H18 H 0.16086 0.09164 0.36915 0.0
H19 H 0.89922 0.1106 0.42683 0.0
C20 C 0.91074 0.12356 0.42127 0.0
C21 C 0.91707 0.1437 0.42782 0.0
C22 C 0.91982 0.12 0.40803 0.0
H23 H 0.93738 0.1759 0.42565 0.0
C24 C 0.93226 0.16035 0.42058 0.0
C25 C 0.94142 0.15708 0.40722 0.0
C26 C 0.93499 0.13682 0.40104 0.0
C27 C 0.91484 0.09882 0.4024 0.0
H28 H 0.94229 0.13407 0.39103 0.0
C29 C 0.89421 0.08248 0.39972 0.0
C30 C 0.88986 0.06238 0.3949 0.0
C31 C 0.931 0.09483 0.40008 0.0
H32 H 0.947 0.10702 0.40226 0.0
C33 C 0.92673 0.07497 0.39526 0.0
H34 H 0.88162 0.08535 0.40146 0.0
C35 C 0.90633 0.05883 0.39272 0.0
H36 H 0.9034 0.04356 0.38886 0.0
H37 H 0.93929 0.07207 0.39354 0.0
H38 H 0.92668 0.79772 0.44585 0.0
C39 C 0.91342 0.7973 0.43939 0.0
C40 C 0.89346 0.78472 0.44404 0.0
C41 C 0.9165 0.81025 0.42705 0.0
H42 H 0.86126 0.77596 0.43972 0.0
C43 C 0.87652 0.78485 0.43575 0.0
C44 C 0.87929 0.79755 0.42325 0.0
C45 C 0.89937 0.81014 0.41896 0.0
C46 C 0.93772 0.82605 0.42414 0.0
H47 H 0.90182 0.82024 0.40951 0.0
C48 C 0.95255 0.82085 0.41966 0.0
C49 C 0.97272 0.83643 0.41739 0.0
C50 C 0.94323 0.84683 0.42623 0.0
H51 H 0.93213 0.85119 0.42976 0.0
C52 C 0.96315 0.8622 0.42409 0.0
H53 H 0.94844 0.80486 0.41795 0.0
C54 C 0.97781 0.85709 0.41974 0.0
H55 H 0.99311 0.86933 0.41792 0.0
H56 H 0.96723 0.87816 0.42579 0.0
H57 H 0.11922 0.21181 0.58462 0.0
C58 C 0.10751 0.21267 0.59113 0.0
C59 C 0.09996 0.22558 0.58644 0.0
C60 C 0.09883 0.19957 0.60331 0.0
H61 H 0.07788 0.23533 0.59085 0.0
C62 C 0.08393 0.22562 0.5945 0.0
C63 C 0.07509 0.21266 0.60677 0.0
C64 C 0.08284 0.19985 0.61116 0.0
C65 C 0.10451 0.18373 0.60648 0.0
H66 H 0.0762 0.18977 0.62058 0.0
C67 C 0.12531 0.18876 0.60987 0.0
C68 C 0.13013 0.1732 0.61242 0.0
C69 C 0.08872 0.16309 0.60572 0.0
H70 H 0.07266 0.15878 0.60298 0.0
C71 C 0.09346 0.14772 0.60819 0.0
H72 H 0.13761 0.20463 0.61052 0.0
C73 C 0.11397 0.15269 0.61149 0.0
H74 H 0.11719 0.14048 0.61359 0.0
H75 H 0.08116 0.13188 0.60755 0.0
H76 H 0.79886 0.91283 0.61725 0.0
C77 C 0.79432 0.89889 0.62303 0.0
C78 C 0.78121 0.87969 0.61405 0.0
C79 C 0.80249 0.90012 0.63912 0.0
H80 H 0.76678 0.84684 0.61439 0.0
C81 C 0.77643 0.86167 0.62134 0.0
C82 C 0.78456 0.86264 0.63733 0.0
C83 C 0.79699 0.8819 0.64624 0.0
C84 C 0.81768 0.92021 0.64834 0.0
H85 H 0.80272 0.8827 0.65878 0.0
C86 C 0.81537 0.93756 0.64755 0.0
C87 C 0.82953 0.95635 0.65674 0.0
C88 C 0.83465 0.92202 0.65817 0.0
H89 H 0.83724 0.90916 0.65872 0.0
C90 C 0.84858 0.94046 0.66738 0.0
H91 H 0.80254 0.9364 0.63983 0.0
C92 C 0.84599 0.95746 0.66681 0.0
H93 H 0.85685 0.97143 0.6744 0.0
H94 H 0.86142 0.94157 0.67504 0.0
H95 H 0.09253 0.87489 0.58681 0.0
C96 C 0.10601 0.88604 0.59485 0.0
C97 C 0.126 0.89248 0.59037 0.0
C98 C 0.10327 0.89529 0.609 0.0
H99 H 0.15863 0.91298 0.59718 0.0
C100 C 0.14322 0.90779 0.60063 0.0
C101 C 0.14074 0.91734 0.61475 0.0
C102 C 0.12063 0.91076 0.61891 0.0
C103 C 0.08242 0.89121 0.61215 0.0
H104 H 0.11835 0.91805 0.62965 0.0
C105 C 0.06696 0.87175 0.61568 0.0
C106 C 0.04721 0.86841 0.61861 0.0
C107 C 0.07802 0.90722 0.61156 0.0
H108 H 0.08972 0.92229 0.60884 0.0
C109 C 0.05848 0.90391 0.61429 0.0
H110 H 0.07031 0.85937 0.61621 0.0
C111 C 0.04317 0.88467 0.61779 0.0
H112 H 0.02823 0.88262 0.62018 0.0
H113 H 0.05523 0.91634 0.61378 0.0
H114 H 0.90194 0.47484 0.7518 0.0
C115 C 0.90423 0.46255 0.74694 0.0
C116 C 0.91706 0.45718 0.75604 0.0
C117 C 0.89377 0.45159 0.73181 0.0
H118 H 0.92809 0.43565 0.75702 0.0
C119 C 0.91928 0.4407 0.74972 0.0
C120 C 0.90911 0.42982 0.73453 0.0
C121 C 0.89685 0.43577 0.72554 0.0
C122 C 0.87849 0.45545 0.7228 0.0
H123 H 0.88932 0.42777 0.71362 0.0
C124 C 0.88299 0.4755 0.72041 0.0
C125 C 0.86878 0.47862 0.71087 0.0
C126 C 0.85932 0.43868 0.71607 0.0
H127 H 0.85527 0.42309 0.71799 0.0
C128 C 0.84516 0.4418 0.70679 0.0
H129 H 0.89771 0.48856 0.72546 0.0
C130 C 0.84988 0.46163 0.70409 0.0
H131 H 0.83864 0.46374 0.69686 0.0
H132 H 0.83049 0.42879 0.70164 0.0
H133 H 0.56025 0.43619 0.75771 0.0
C134 C 0.57283 0.44932 0.75311 0.0
C135 C 0.58043 0.46918 0.76104 0.0
C136 C 0.58178 0.44628 0.73955 0.0
H137 H 0.60365 0.50125 0.76157 0.0
C138 C 0.59712 0.48605 0.75514 0.0
C139 C 0.60623 0.48324 0.7416 0.0
C140 C 0.59814 0.46339 0.73373 0.0
C141 C 0.57514 0.42531 0.73183 0.0
H142 H 0.60477 0.46122 0.72303 0.0
C143 C 0.55404 0.41016 0.72851 0.0
C144 C 0.5483 0.39094 0.72021 0.0
C145 C 0.59024 0.42057 0.72733 0.0
H146 H 0.60657 0.43167 0.73007 0.0
C147 C 0.58451 0.40148 0.71928 0.0
H148 H 0.54217 0.41349 0.73185 0.0
C149 C 0.56368 0.38679 0.7156 0.0
H150 H 0.55954 0.37204 0.70931 0.0
H151 H 0.59627 0.39807 0.71583 0.0
H152 H 0.59071 0.13254 0.78021 0.0
C153 C 0.57762 0.1315 0.77292 0.0
C154 C 0.55757 0.11992 0.77767 0.0
C155 C 0.58106 0.14334 0.75971 0.0
H156 H 0.52547 0.11087 0.77234 0.0
C157 C 0.54087 0.11956 0.76857 0.0
C158 C 0.54395 0.13111 0.75523 0.0
C159 C 0.56416 0.14295 0.7509 0.0
C160 C 0.60242 0.15888 0.75687 0.0
H161 H 0.56691 0.15235 0.74089 0.0
C162 C 0.61712 0.15345 0.75242 0.0
C163 C 0.63739 0.1689 0.75018 0.0
C164 C 0.60815 0.17971 0.75895 0.0
H165 H 0.59715 0.18423 0.76241 0.0
C166 C 0.62814 0.19493 0.75683 0.0
H167 H 0.61282 0.13741 0.75071 0.0
C168 C 0.64267 0.18961 0.75252 0.0
H169 H 0.65804 0.20175 0.75073 0.0
H170 H 0.63239 0.21094 0.75852 0.0
H171 H 0.78775 0.54721 0.91988 0.0
C172 C 0.77629 0.54825 0.92661 0.0
C173 C 0.76953 0.56201 0.92262 0.0
C174 C 0.76715 0.53462 0.93837 0.0
H175 H 0.74846 0.57279 0.92803 0.0
C176 C 0.75387 0.56236 0.93102 0.0
C177 C 0.7445 0.54876 0.94278 0.0
C178 C 0.75137 0.53505 0.94642 0.0
C179 C 0.77232 0.51832 0.94098 0.0
H180 H 0.74425 0.52445 0.95544 0.0
C181 C 0.79295 0.52294 0.94452 0.0
C182 C 0.79739 0.50705 0.94665 0.0
C183 C 0.75628 0.49774 0.93962 0.0
H184 H 0.74033 0.49378 0.93677 0.0
C185 C 0.76062 0.48203 0.94163 0.0
H186 H 0.80543 0.53877 0.94564 0.0
C187 C 0.781 0.4866 0.94511 0.0
H188 H 0.78391 0.47412 0.94688 0.0
H189 H 0.74814 0.46623 0.94053 0.0
H190 H 0.46213 0.23974 0.94439 0.0
C191 C 0.45885 0.22648 0.95078 0.0
C192 C 0.446 0.20667 0.94275 0.0
C193 C 0.46845 0.22925 0.9666 0.0
H194 H 0.43343 0.17429 0.94435 0.0
C195 C 0.44283 0.18954 0.95071 0.0
C196 C 0.45222 0.19201 0.96656 0.0
C197 C 0.46457 0.21192 0.97452 0.0
C198 C 0.48359 0.25013 0.97453 0.0
H199 H 0.47147 0.21398 0.9869 0.0
C200 C 0.47999 0.26663 0.97324 0.0
C201 C 0.49461 0.28645 0.9805 0.0
C202 C 0.50206 0.25374 0.98319 0.0
H203 H 0.50551 0.24148 0.98413 0.0
C204 C 0.5165 0.27331 0.99051 0.0
H205 H 0.46586 0.26406 0.96655 0.0
C206 C 0.51284 0.28958 0.9892 0.0
H207 H 0.52422 0.30459 0.99516 0.0
H208 H 0.53062 0.27589 0.99718 0.0
H209 H 0.75935 0.2043 0.92387 0.0
C210 C 0.7731 0.2173 0.93035 0.0
C211 C 0.79267 0.22335 0.92505 0.0
C212 C 0.77103 0.22873 0.94338 0.0
H213 H 0.82526 0.24595 0.92913 0.0
C214 C 0.81024 0.24055 0.9335 0.0
C215 C 0.80843 0.25193 0.94671 0.0
C216 C 0.78875 0.24586 0.95158 0.0
C217 C 0.75028 0.22447 0.94719 0.0
H218 H 0.78712 0.25472 0.96159 0.0
C219 C 0.73512 0.20488 0.95076 0.0
C220 C 0.71537 0.2012 0.95399 0.0
C221 C 0.74552 0.24027 0.94692 0.0
H222 H 0.75689 0.25541 0.94409 0.0
C223 C 0.72596 0.23662 0.95001 0.0
H224 H 0.73868 0.19262 0.95104 0.0
C225 C 0.71096 0.21724 0.9535 0.0
H226 H 0.69597 0.21486 0.95609 0.0
H227 H 0.72243 0.24888 0.94972 0.0
H228 H 0.56837 0.80442 0.09442 0.0
C229 C 0.56998 0.79204 0.08875 0.0
C230 C 0.58406 0.78693 0.09612 0.0
C231 C 0.55691 0.78023 0.07467 0.0
H232 H 0.59596 0.76605 0.09455 0.0
C233 C 0.58533 0.77026 0.08892 0.0
C234 C 0.5723 0.75836 0.07492 0.0
C235 C 0.5584 0.76366 0.06777 0.0
C236 C 0.54067 0.78405 0.06752 0.0
H237 H 0.54846 0.75461 0.05683 0.0
C238 C 0.54535 0.80381 0.06395 0.0
C239 C 0.53013 0.80665 0.05569 0.0
C240 C 0.52042 0.76744 0.06341 0.0
H241 H 0.51634 0.75213 0.06625 0.0
C242 C 0.50526 0.77037 0.05549 0.0
H243 H 0.5609 0.81672 0.06695 0.0
C244 C 0.51012 0.78983 0.05149 0.0
H245 H 0.49821 0.79182 0.0452 0.0
H246 H 0.48976 0.75748 0.05231 0.0
H247 H 0.22884 0.77237 0.09411 0.0
C248 C 0.24069 0.78469 0.08822 0.0
C249 C 0.24798 0.80527 0.09414 0.0
C250 C 0.24969 0.77983 0.07556 0.0
H251 H 0.27014 0.83692 0.09152 0.0
C252 C 0.26421 0.82104 0.08692 0.0
C253 C 0.2734 0.81643 0.07423 0.0
C254 C 0.2658 0.79578 0.06852 0.0
C255 C 0.24377 0.75819 0.07076 0.0
H256 H 0.27266 0.79203 0.05867 0.0
C257 C 0.22286 0.7426 0.06763 0.0
C258 C 0.21762 0.72206 0.06369 0.0
C259 C 0.25931 0.753 0.06976 0.0
H260 H 0.2755 0.76463 0.07229 0.0
C261 C 0.25414 0.73267 0.06584 0.0
H262 H 0.21073 0.74641 0.06833 0.0
C263 C 0.23345 0.71726 0.06287 0.0
H264 H 0.22979 0.70158 0.05975 0.0
H265 H 0.26622 0.72883 0.06515 0.0
H266 H 0.26142 0.46927 0.11018 0.0
C267 C 0.24777 0.46805 0.1037 0.0
C268 C 0.22811 0.45547 0.10889 0.0
C269 C 0.24998 0.47988 0.09064 0.0
H270 H 0.19566 0.4459 0.10506 0.0
C271 C 0.21066 0.45467 0.10064 0.0
C272 C 0.21255 0.46626 0.0875 0.0
C273 C 0.23226 0.4786 0.08249 0.0
C274 C 0.27079 0.4956 0.08666 0.0
H275 H 0.23395 0.48765 0.07239 0.0
C276 C 0.28634 0.49083 0.08352 0.0
C277 C 0.30579 0.50624 0.0795 0.0
C278 C 0.27498 0.51586 0.08594 0.0
H279 H 0.26343 0.52 0.08849 0.0
C280 C 0.29407 0.53105 0.08204 0.0
H281 H 0.28328 0.47527 0.08409 0.0
C282 C 0.30931 0.52631 0.07877 0.0
H283 H 0.32382 0.5384 0.07539 0.0
H284 H 0.29704 0.54656 0.08143 0.0
H285 H 0.45413 0.87612 0.25475 0.0
C286 C 0.44244 0.87762 0.26078 0.0
C287 C 0.43471 0.88979 0.25461 0.0
C288 C 0.4341 0.86627 0.274 0.0
H289 H 0.4124 0.89971 0.2571 0.0
C290 C 0.41868 0.89071 0.26198 0.0
C291 C 0.41024 0.87958 0.27523 0.0
C292 C 0.41841 0.86784 0.28135 0.0
C293 C 0.44008 0.85122 0.27934 0.0
H294 H 0.41225 0.85955 0.29178 0.0
C295 C 0.46087 0.85575 0.28096 0.0
C296 C 0.46595 0.84122 0.28642 0.0
C297 C 0.4245 0.83185 0.2829 0.0
H298 H 0.40835 0.82761 0.28137 0.0
C299 C 0.42944 0.81762 0.28842 0.0
H300 H 0.47298 0.8705 0.27806 0.0
C301 C 0.44993 0.82227 0.29032 0.0
H302 H 0.4532 0.81098 0.29504 0.0
H303 H 0.41729 0.8029 0.29132 0.0
H304 H 0.13002 0.58094 0.28138 0.0
C305 C 0.12537 0.56629 0.28602 0.0
C306 C 0.11255 0.54803 0.27579 0.0
C307 C 0.1332 0.56568 0.30178 0.0
H308 H 0.09763 0.51494 0.27373 0.0
C309 C 0.10748 0.52909 0.28153 0.0
C310 C 0.11528 0.5282 0.29711 0.0
C311 C 0.12765 0.5465 0.30728 0.0
C312 C 0.14823 0.58488 0.31223 0.0
H313 H 0.13371 0.54582 0.31932 0.0
C314 C 0.14623 0.60251 0.31271 0.0
C315 C 0.16034 0.62048 0.32287 0.0
C316 C 0.16481 0.58563 0.32186 0.0
H317 H 0.16731 0.57266 0.32143 0.0
C318 C 0.17858 0.60319 0.33211 0.0
H319 H 0.13375 0.60225 0.30516 0.0
C320 C 0.17631 0.62043 0.33274 0.0
H321 H 0.18709 0.63372 0.34103 0.0
H322 H 0.1911 0.60345 0.3396 0.0
H323 H 0.42943 0.54636 0.25627 0.0
C324 C 0.44289 0.55846 0.26379 0.0
C325 C 0.46274 0.56555 0.25879 0.0
C326 C 0.4402 0.56828 0.27763 0.0
H327 H 0.49525 0.58757 0.26434 0.0
C328 C 0.47996 0.58189 0.26827 0.0
C329 C 0.47754 0.59179 0.28217 0.0
C330 C 0.45756 0.58485 0.28676 0.0
C331 C 0.41921 0.56342 0.28119 0.0
H332 H 0.45542 0.59264 0.29726 0.0
C333 C 0.40431 0.54364 0.28462 0.0
C334 C 0.38436 0.53948 0.28772 0.0
C335 C 0.41402 0.57891 0.28091 0.0
H336 H 0.42523 0.59419 0.27823 0.0
C337 C 0.39426 0.57478 0.28383 0.0
H338 H 0.40824 0.53164 0.28492 0.0
C339 C 0.3795 0.55522 0.28719 0.0
H340 H 0.36435 0.55247 0.28968 0.0
H341 H 0.39039 0.5868 0.28354 0.0
Tb342 Tb 0.49324 0.99798 0.99746 0.0
Eu343 Eu 0.50669 0.01559 0.03666 0.0
C344 C 0.51093 0.97849 0.02183 0.0
C345 C 0.46199 0.97671 0.02311 0.0
C346 C 0.4909 0.99762 0.95229 0.0
C347 C 0.49505 0.99668 0.92338 0.0
C348 C 0.48887 0.98658 0.93739 0.0
C349 C 0.49907 0.01895 0.95301 0.0
C350 C 0.50517 0.02907 0.93896 0.0
C351 C 0.50338 0.01807 0.924 0.0
C352 C 0.48568 0.9869 0.9671 0.0
O353 O 0.47853 0.01594 1.00312 0.0
O354 O 0.50147 0.0385 0.02423 0.0
O355 O 0.53564 0.03044 0.02381 0.0
O356 O 0.52001 0.0286 0.99858 0.0
C357 C 0.4866 0.03336 0.01252 0.0
O358 O 0.50149 0.02811 0.05919 0.0
O359 O 0.52722 0.02261 0.05896 0.0
O360 O 0.5048 0.98508 0.0341 0.0
O361 O 0.51156 0.98526 0.00748 0.0
O362 O 0.46945 0.97386 0.00981 0.0
O363 O 0.47235 0.99348 0.0333 0.0
C364 C 0.53658 0.0363 0.00908 0.0
O365 O 0.50131 0.98842 0.97614 0.0
O366 O 0.4731 0.98942 0.97588 0.0
C367 C 0.51009 0.01651 0.08269 0.0
C368 C 0.49917 0.99585 0.11101 0.0
C369 C 0.51569 0.01622 0.11192 0.0
C370 C 0.52107 0.02645 0.09787 0.0
C371 C 0.49363 0.99618 0.08167 0.0
C372 C 0.48818 0.98597 0.09571 0.0
C373 C 0.51609 0.02722 0.06793 0.0
H374 H 0.49321 0.98772 0.91203 0.0
H375 H 0.4827 0.97014 0.93663 0.0
H376 H 0.50099 0.02778 0.96446 0.0
H377 H 0.51172 0.04557 0.9399 0.0
H378 H 0.52431 0.02436 0.12352 0.0
H379 H 0.53384 0.04212 0.09887 0.0
H380 H 0.48506 0.9882 0.07001 0.0
H381 H 0.47556 0.97022 0.09453 0.0
Tb382 Tb 0.01337 0.49067 0.99715 0.0
Eu383 Eu 0.99907 0.48912 0.03419 0.0
C384 C 0.03445 0.5295 0.02248 0.0
C385 C 0.03712 0.48233 0.02605 0.0
C386 C 0.01615 0.49577 0.95263 0.0
C387 C 0.02367 0.50767 0.9259 0.0
C388 C 0.03035 0.50516 0.94131 0.0
C389 C 0.99522 0.48946 0.94854 0.0
C390 C 0.98849 0.4918 0.93308 0.0
C391 C 1.00259 0.50066 0.92147 0.0
C392 C 0.02326 0.49198 0.96835 0.0
O393 O 0.99644 0.4586 1.00211 0.0
O394 O 0.97452 0.46072 0.01902 0.0
O395 O 0.98325 0.50263 0.01949 0.0
O396 O 0.98402 0.49004 0.99372 0.0
C397 C 0.97873 0.45005 0.00844 0.0
O398 O 0.98842 0.47326 0.0559 0.0
O399 O 0.9924 0.50363 0.05462 0.0
O400 O 0.02984 0.51761 0.03428 0.0
O401 O 0.02486 0.52217 0.00772 0.0
O402 O 0.0381 0.49045 0.01224 0.0
O403 O 0.02174 0.47763 0.03503 0.0
C404 C 0.97672 0.49831 1.00386 0.0
O405 O 0.0324 0.50752 0.97953 0.0
O406 O 0.01025 0.47526 0.9743 0.0
C407 C 0.99925 0.49532 0.08032 0.0
C408 C 0.01929 0.50866 0.11227 0.0
C409 C 0.99766 0.49599 0.10955 0.0
C410 C 0.98773 0.48941 0.09369 0.0
C411 C 0.02085 0.50776 0.08292 0.0
C412 C 0.0308 0.51442 0.09877 0.0
C413 C 0.98855 0.48886 0.06376 0.0
H414 H 0.03502 0.51492 0.9174 0.0
H415 H 0.04658 0.51028 0.94431 0.0
H416 H 0.98399 0.48227 0.95714 0.0
H417 H 0.97213 0.486 0.93008 0.0
H418 H 0.98835 0.49147 0.11968 0.0
H419 H 0.97103 0.47986 0.09187 0.0
H420 H 0.02998 0.5124 0.07268 0.0
H421 H 0.0475 0.52394 0.10048 0.0
Tb422 Tb 0.52711 0.51691 0.02857 0.0
Eu423 Eu 0.5136 0.52146 0.99092 0.0
C424 C 0.50861 0.47947 1.00198 0.0
C425 C 0.55744 0.52564 1.00123 0.0
C426 C 0.52824 0.51548 0.07376 0.0
C427 C 0.50511 0.5 0.09463 0.0
C428 C 0.51203 0.49824 0.07962 0.0
C429 C 0.53759 0.53448 0.08341 0.0
C430 C 0.5307 0.53622 0.09845 0.0
C431 C 0.51435 0.51901 0.10422 0.0
C432 C 0.53561 0.51347 0.05787 0.0
O433 O 0.52628 0.54529 0.02957 0.0
O434 O 0.5343 0.55316 1.00378 0.0
O435 O 0.49028 0.52266 0.00625 0.0
O436 O 0.49369 0.50452 0.02633 0.0
C437 C 0.5338 0.55879 0.01897 0.0
O438 O 0.52095 0.53887 0.96979 0.0
O439 O 0.49184 0.5104 0.96886 0.0
O440 O 0.49981 0.4877 0.99343 0.0
O441 O 0.52328 0.49027 0.01388 0.0
O442 O 0.55561 0.52987 0.01654 0.0
O443 O 0.54165 0.5181 0.98994 0.0
C444 C 0.48327 0.51185 0.01864 0.0
O445 O 0.5225 0.49811 0.04741 0.0
O446 O 0.54592 0.53019 0.05081 0.0
C447 C 0.50813 0.5186 0.94463 0.0
C448 C 0.51734 0.50846 0.91402 0.0
C449 C 0.50821 0.52083 0.91545 0.0
C450 C 0.50367 0.52585 0.93063 0.0
C451 C 0.51702 0.50609 0.94331 0.0
C452 C 0.52155 0.50104 0.92813 0.0
C453 C 0.50446 0.525 0.96064 0.0
H454 H 0.49271 0.48637 0.09883 0.0
H455 H 0.50468 0.4833 0.07263 0.0
H456 H 0.55023 0.54804 0.07934 0.0
H457 H 0.53803 0.55114 0.10547 0.0
H458 H 0.50503 0.52707 0.90491 0.0
H459 H 0.49697 0.53567 0.93147 0.0
H460 H 0.52065 0.50043 0.95404 0.0
H461 H 0.52832 0.49128 0.92747 0.0
Tb462 Tb 0.16177 0.33682 0.32996 0.0
Eu463 Eu 0.17456 0.35387 0.36937 0.0
C464 C 0.17868 0.3167 0.35441 0.0
C465 C 0.12996 0.31506 0.35527 0.0
C466 C 0.15998 0.33677 0.28476 0.0
C467 C 0.16231 0.33544 0.25557 0.0
C468 C 0.15619 0.32545 0.26964 0.0
C469 C 0.16981 0.35826 0.28566 0.0
C470 C 0.17593 0.3683 0.27158 0.0
C471 C 0.17238 0.35702 0.25635 0.0
C472 C 0.15477 0.32602 0.29956 0.0
O473 O 0.14742 0.35517 0.33527 0.0
O474 O 0.16944 0.37697 0.35712 0.0
O475 O 0.20381 0.36882 0.35684 0.0
O476 O 0.18867 0.3674 0.3315 0.0
C477 C 0.1552 0.37233 0.34497 0.0
O478 O 0.16879 0.36589 0.39193 0.0
O479 O 0.19487 0.36092 0.39178 0.0
O480 O 0.17261 0.32332 0.3667 0.0
O481 O 0.17964 0.32371 0.34014 0.0
O482 O 0.13742 0.3126 0.34184 0.0
O483 O 0.1403 0.3315 0.3658 0.0
C484 C 0.20507 0.37489 0.34217 0.0
O485 O 0.17044 0.3278 0.30873 0.0
O486 O 0.14193 0.32826 0.3082 0.0
C487 C 0.17743 0.35438 0.41542 0.0
C488 C 0.16574 0.33378 0.44372 0.0
C489 C 0.17613 0.35538 0.44475 0.0
C490 C 0.18193 0.36557 0.43072 0.0
C491 C 0.167 0.33284 0.41428 0.0
C492 C 0.16126 0.32264 0.4283 0.0
C493 C 0.18347 0.36521 0.40072 0.0
H494 H 0.1596 0.32625 0.24415 0.0
H495 H 0.14882 0.30886 0.26874 0.0
H496 H 0.17296 0.36727 0.29727 0.0
H497 H 0.18341 0.3849 0.27263 0.0
H498 H 0.18 0.36443 0.45643 0.0
H499 H 0.18996 0.3822 0.43182 0.0
H500 H 0.16325 0.32393 0.40254 0.0
H501 H 0.15305 0.30601 0.42704 0.0
Tb502 Tb 0.68528 0.82949 0.33226 0.0
Eu503 Eu 0.67098 0.82766 0.36954 0.0
C504 C 0.70597 0.86837 0.35732 0.0
C505 C 0.70795 0.81964 0.36094 0.0
C506 C 0.69098 0.8367 0.28826 0.0
C507 C 0.69599 0.84077 0.25972 0.0
C508 C 0.70169 0.83687 0.27493 0.0
C509 C 0.67499 0.84125 0.2864 0.0
C510 C 0.66922 0.84509 0.27118 0.0
C511 C 0.6794 0.84449 0.25759 0.0
C512 C 0.6955 0.83017 0.3036 0.0
O513 O 0.66715 0.79731 0.33686 0.0
O514 O 0.64588 0.79987 0.35426 0.0
O515 O 0.65285 0.83905 0.3552 0.0
O516 O 0.65782 0.8323 0.32871 0.0
C517 C 0.64952 0.78911 0.34333 0.0
O518 O 0.66029 0.81136 0.39107 0.0
O519 O 0.6656 0.84236 0.39062 0.0
O520 O 0.70149 0.85648 0.36913 0.0
O521 O 0.69658 0.86098 0.34252 0.0
O522 O 0.70957 0.82869 0.34755 0.0
O523 O 0.69229 0.8146 0.36962 0.0
C524 C 0.64864 0.83778 0.33935 0.0
O525 O 0.70656 0.84458 0.31539 0.0
O526 O 0.67978 0.81461 0.30877 0.0
C527 C 0.67225 0.83265 0.41609 0.0
C528 C 0.69155 0.84259 0.44831 0.0
C529 C 0.6741 0.82318 0.44346 0.0
C530 C 0.6645 0.8183 0.42752 0.0
C531 C 0.68988 0.85198 0.42084 0.0
C532 C 0.69937 0.85693 0.43683 0.0
C533 C 0.66155 0.82725 0.39944 0.0
H534 H 0.70397 0.83993 0.24947 0.0
H535 H 0.71401 0.83329 0.27615 0.0
H536 H 0.66657 0.84119 0.2966 0.0
H537 H 0.65653 0.84811 0.26997 0.0
H538 H 0.66763 0.81189 0.45209 0.0
H539 H 0.65091 0.80333 0.42413 0.0
H540 H 0.69631 0.86331 0.41223 0.0
H541 H 0.71294 0.87192 0.44019 0.0
Tb542 Tb 0.19689 0.85754 0.36112 0.0
Eu543 Eu 0.1791 0.85654 0.32319 0.0
C544 C 0.17402 0.81666 0.33798 0.0
C545 C 0.22453 0.86201 0.33245 0.0
C546 C 0.19993 0.85618 0.40617 0.0
C547 C 0.16996 0.83973 0.42133 0.0
C548 C 0.1789 0.84186 0.40666 0.0
C549 C 0.21189 0.86819 0.42048 0.0
C550 C 0.20296 0.86623 0.43509 0.0
C551 C 0.18184 0.85205 0.43573 0.0
C552 C 0.20938 0.86001 0.39073 0.0
O553 O 0.21334 0.8881 0.35321 0.0
O554 O 0.18641 0.88607 0.3374 0.0
O555 O 0.1514 0.8449 0.33743 0.0
O556 O 0.16835 0.85823 0.36318 0.0
C557 C 0.20382 0.897 0.34679 0.0
O558 O 0.18166 0.8729 0.30177 0.0
O559 O 0.15737 0.84114 0.30136 0.0
O560 O 0.17902 0.82705 0.32525 0.0
O561 O 0.17532 0.82549 0.35254 0.0
O562 O 0.21948 0.8556 0.34685 0.0
O563 O 0.21276 0.86609 0.32271 0.0
C564 C 0.15137 0.84969 0.35298 0.0
O565 O 0.20399 0.84413 0.38025 0.0
O566 O 0.20979 0.87517 0.38372 0.0
C567 C 0.17216 0.85223 0.27654 0.0
C568 C 0.18245 0.84472 0.24551 0.0
C569 C 0.18756 0.86467 0.25154 0.0
C570 C 0.18237 0.86835 0.26685 0.0
C571 C 0.16694 0.83223 0.27048 0.0
C572 C 0.172 0.82852 0.25511 0.0
C573 C 0.16715 0.8566 0.29283 0.0
H574 H 0.15373 0.82851 0.42136 0.0
H575 H 0.16934 0.83258 0.39567 0.0
H576 H 0.22807 0.87953 0.42028 0.0
H577 H 0.21254 0.87633 0.44576 0.0
H578 H 0.19537 0.87742 0.24435 0.0
H579 H 0.18642 0.88387 0.27114 0.0
H580 H 0.15907 0.81944 0.27762 0.0
H581 H 0.16802 0.81301 0.25086 0.0
Tb582 Tb 0.82369 0.66801 0.66478 0.0
Eu583 Eu 0.83831 0.68592 0.70383 0.0
C584 C 0.84332 0.64965 0.68843 0.0
C585 C 0.79362 0.64639 0.69111 0.0
C586 C 0.82135 0.66672 0.61956 0.0
C587 C 0.82352 0.66441 0.59038 0.0
C588 C 0.8167 0.65491 0.60456 0.0
C589 C 0.83287 0.68822 0.62025 0.0
C590 C 0.83971 0.69776 0.60607 0.0
C591 C 0.83517 0.68597 0.59094 0.0
C592 C 0.81498 0.65644 0.63448 0.0
O593 O 0.80834 0.68508 0.67127 0.0
O594 O 0.83213 0.70834 0.69157 0.0
O595 O 0.86675 0.701 0.69038 0.0
O596 O 0.85041 0.69859 0.66529 0.0
C597 C 0.81657 0.7027 0.6804 0.0
O598 O 0.83324 0.69826 0.72659 0.0
O599 O 0.85968 0.6939 0.72573 0.0
O600 O 0.83716 0.65573 0.70097 0.0
O601 O 0.84355 0.65672 0.67427 0.0
O602 O 0.80061 0.64373 0.67748 0.0
O603 O 0.80413 0.66317 0.70128 0.0
C604 C 0.86723 0.70652 0.67555 0.0
O605 O 0.82948 0.65589 0.64351 0.0
O606 O 0.80394 0.66134 0.64326 0.0
C607 C 0.84339 0.68788 0.75026 0.0
C608 C 0.83309 0.66882 0.7794 0.0
C609 C 0.83031 0.68558 0.77675 0.0
C610 C 0.83549 0.69504 0.76236 0.0
C611 C 0.8461 0.67107 0.75285 0.0
C612 C 0.8411 0.66172 0.76731 0.0
C613 C 0.84837 0.69791 0.73501 0.0
H614 H 0.81999 0.65482 0.57903 0.0
H615 H 0.80799 0.63829 0.60383 0.0
H616 H 0.83666 0.6976 0.63175 0.0
H617 H 0.84841 0.71437 0.60696 0.0
H618 H 0.82435 0.69153 0.78589 0.0
H619 H 0.83327 0.70797 0.76065 0.0
H620 H 0.85198 0.66505 0.74368 0.0
H621 H 0.84318 0.6487 0.7689 0.0
Tb622 Tb 0.34488 0.15482 0.66319 0.0
Eu623 Eu 0.33136 0.15514 0.70027 0.0
C624 C 0.36621 0.19504 0.68727 0.0
C625 C 0.36947 0.1482 0.69254 0.0
C626 C 0.34732 0.15871 0.61853 0.0
C627 C 0.35578 0.17074 0.59194 0.0
C628 C 0.36184 0.1676 0.60734 0.0
C629 C 0.32675 0.15358 0.61433 0.0
C630 C 0.32062 0.15653 0.59889 0.0
C631 C 0.33499 0.16486 0.58739 0.0
C632 C 0.35369 0.15413 0.63421 0.0
O633 O 0.3285 0.12332 0.66957 0.0
O634 O 0.3064 0.12687 0.68521 0.0
O635 O 0.31552 0.16849 0.68545 0.0
O636 O 0.31603 0.1553 0.65981 0.0
C637 C 0.31057 0.11538 0.67552 0.0
O638 O 0.31899 0.13889 0.72142 0.0
O639 O 0.3266 0.17062 0.72126 0.0
O640 O 0.36168 0.18396 0.69961 0.0
O641 O 0.35691 0.18683 0.67253 0.0
O642 O 0.36995 0.15532 0.67833 0.0
O643 O 0.35436 0.14403 0.70171 0.0
C644 C 0.30899 0.16402 0.66983 0.0
O645 O 0.36448 0.16965 0.64523 0.0
O646 O 0.33953 0.13831 0.64043 0.0
C647 C 0.33142 0.15981 0.74639 0.0
C648 C 0.35131 0.1692 0.77831 0.0
C649 C 0.33119 0.16609 0.77547 0.0
C650 C 0.32134 0.16143 0.75962 0.0
C651 C 0.3515 0.16297 0.7491 0.0
C652 C 0.36136 0.16758 0.76495 0.0
C653 C 0.32093 0.15506 0.72984 0.0
H654 H 0.36735 0.17757 0.58354 0.0
H655 H 0.37783 0.17182 0.61041 0.0
H656 H 0.31527 0.14681 0.62283 0.0
H657 H 0.30445 0.15158 0.59581 0.0
H658 H 0.32295 0.16698 0.78551 0.0
H659 H 0.30582 0.15903 0.75771 0.0
H660 H 0.35954 0.16189 0.73896 0.0
H661 H 0.37694 0.17011 0.76673 0.0
Tb662 Tb 0.86224 0.19052 0.69474 0.0
Eu663 Eu 0.84543 0.19104 0.65689 0.0
C664 C 0.83958 0.15045 0.67068 0.0
C665 C 0.8903 0.1954 0.66632 0.0
C666 C 0.86378 0.18801 0.73958 0.0
C667 C 0.8617 0.17827 0.76719 0.0
C668 C 0.87013 0.18026 0.75231 0.0
C669 C 0.8485 0.19327 0.74178 0.0
C670 C 0.84016 0.19142 0.75666 0.0
C671 C 0.8468 0.18409 0.76964 0.0
C672 C 0.87369 0.19125 0.72433 0.0
O673 O 0.87911 0.22153 0.68772 0.0
O674 O 0.85271 0.22021 0.67165 0.0
O675 O 0.81743 0.17915 0.67084 0.0
O676 O 0.83406 0.19198 0.69673 0.0
C677 C 0.86987 0.23075 0.68139 0.0
O678 O 0.84849 0.20818 0.63592 0.0
O679 O 0.82433 0.17628 0.63464 0.0
O680 O 0.84501 0.16131 0.65823 0.0
O681 O 0.84045 0.15882 0.68531 0.0
O682 O 0.88474 0.18836 0.68046 0.0
O683 O 0.8791 0.20038 0.65679 0.0
C684 C 0.8172 0.18374 0.6864 0.0
O685 O 0.86684 0.17523 0.71371 0.0
O686 O 0.87641 0.20735 0.71742 0.0
C687 C 0.84017 0.18817 0.61077 0.0
C688 C 0.85206 0.18112 0.5804 0.0
C689 C 0.83621 0.18595 0.58122 0.0
C690 C 0.83033 0.18943 0.59629 0.0
C691 C 0.85594 0.18332 0.61007 0.0
C692 C 0.86183 0.17983 0.59502 0.0
C693 C 0.83418 0.19218 0.62657 0.0
H694 H 0.86693 0.17225 0.7768 0.0
H695 H 0.88182 0.17601 0.75081 0.0
H696 H 0.84334 0.19927 0.73211 0.0
H697 H 0.82897 0.19633 0.75811 0.0
H698 H 0.82819 0.18681 0.57021 0.0
H699 H 0.81811 0.19313 0.59663 0.0
H700 H 0.86377 0.18236 0.62117 0.0
H701 H 0.87427 0.17643 0.59486 0.0
H702 H 0.30837 0.81613 0.06704 0.0
H703 H 0.33915 0.84345 0.0571 0.0
H704 H 0.31171 0.88192 0.05736 0.0
H705 H 0.28039 0.85428 0.06684 0.0
H706 H 0.33167 0.8825 0.02904 0.0
H707 H 0.382 0.89568 0.08585 0.0
H708 H 0.36827 0.86948 0.07688 0.0
H709 H 0.35413 0.88104 0.08466 0.0
C710 C 0.30869 0.83027 0.06476 0.0
C711 C 0.29187 0.833 0.06773 0.0
C712 C 0.32642 0.84596 0.05925 0.0
C713 C 0.32783 0.86481 0.05673 0.0
C714 C 0.31096 0.86751 0.05933 0.0
H715 H 0.44179 0.97778 0.04922 0.0
H716 H 0.40866 0.951 0.05643 0.0
C717 C 0.29315 0.85177 0.06485 0.0
C718 C 0.34709 0.88174 0.05162 0.0
H719 H 0.3988 0.91238 0.06332 0.0
C720 C 0.34635 0.88912 0.03654 0.0
C721 C 0.36617 0.89049 0.06152 0.0
C722 C 0.36774 0.88393 0.0782 0.0
C723 C 0.3643 0.90478 0.03097 0.0
C724 C 0.38348 0.91305 0.04065 0.0
C725 C 0.38412 0.90588 0.05584 0.0
C726 C 0.40308 0.92955 0.03555 0.0
C727 C 0.36251 0.91258 0.01491 0.0
C728 C 0.41102 0.92639 0.0214 0.0
C729 C 0.43004 0.94176 0.01718 0.0
C730 C 0.44152 0.96051 0.02712 0.0
C731 C 0.43342 0.96358 0.04125 0.0
C732 C 0.41445 0.94826 0.04542 0.0
H733 H 0.34632 0.90845 0.01105 0.0
H734 H 0.37254 0.92953 0.01563 0.0
H735 H 0.36759 0.9056 0.00537 0.0
H736 H 0.40271 0.91189 0.01378 0.0
H737 H 0.43585 0.93883 0.00627 0.0
H738 H 0.17275 0.43411 0.07988 0.0
H739 H 0.14238 0.43553 0.06902 0.0
H740 H 0.1804 0.50076 0.06693 0.0
H741 H 0.21063 0.49963 0.07831 0.0
H742 H 0.14489 0.4907 0.08112 0.0
H743 H 0.12651 0.44208 0.02261 0.0
H744 H 0.1283 0.4301 0.04029 0.0
H745 H 0.15091 0.45239 0.03502 0.0
C746 C 0.17466 0.44876 0.0771 0.0
C747 C 0.1942 0.46673 0.0799 0.0
C748 C 0.1573 0.4495 0.07073 0.0
C749 C 0.15914 0.4682 0.06693 0.0
C750 C 0.17862 0.48613 0.06965 0.0
H751 H 0.07157 0.49017 0.01106 0.0
H752 H 0.10056 0.4862 0.02124 0.0
C753 C 0.19595 0.48541 0.07603 0.0
C754 C 0.14069 0.46934 0.06077 0.0
H755 H 0.10196 0.45166 0.02953 0.0
C756 C 0.13551 0.48217 0.06984 0.0
C757 C 0.12857 0.45836 0.04596 0.0
C758 C 0.13391 0.44509 0.0353 0.0
C759 C 0.11851 0.48424 0.06456 0.0
C760 C 0.10609 0.4729 0.04995 0.0
C761 C 0.11135 0.46018 0.04081 0.0
C762 C 0.08802 0.47459 0.04367 0.0
C763 C 0.11429 0.49895 0.07449 0.0
C764 C 0.07112 0.46906 0.05277 0.0
C765 C 0.05448 0.47135 0.047 0.0
C766 C 0.05435 0.47912 0.03195 0.0
C767 C 0.07113 0.48421 0.02272 0.0
C768 C 0.08774 0.48192 0.0285 0.0
H769 H 0.12801 0.5101 0.08296 0.0
H770 H 0.10971 0.50763 0.06647 0.0
H771 H 0.10139 0.49015 0.08188 0.0
H772 H 0.07081 0.463 0.06436 0.0
H773 H 0.04181 0.46716 0.05441 0.0
H774 H 0.53829 0.72086 0.06649 0.0
H775 H 0.5368 0.68925 0.05593 0.0
H776 H 0.60342 0.721 0.05825 0.0
H777 H 0.60502 0.75289 0.06905 0.0
H778 H 0.55063 0.68145 0.02789 0.0
H779 H 0.59006 0.67101 0.08271 0.0
H780 H 0.58092 0.68909 0.08317 0.0
H781 H 0.60428 0.69503 0.07426 0.0
C782 C 0.55264 0.72117 0.06465 0.0
C783 C 0.57178 0.73935 0.06849 0.0
C784 C 0.55177 0.70309 0.05867 0.0
C785 C 0.56999 0.70275 0.05641 0.0
C786 C 0.58919 0.72087 0.06016 0.0
H787 H 0.55611 0.59191 1.00228 0.0
H788 H 0.56786 0.62797 0.01074 0.0
C789 C 0.59009 0.73904 0.06628 0.0
C790 C 0.56847 0.68326 0.05 0.0
H791 H 0.5783 0.64562 0.06043 0.0
C792 C 0.55684 0.67367 0.03491 0.0
C793 C 0.57649 0.67316 0.05927 0.0
C794 C 0.58851 0.68246 0.07581 0.0
C795 C 0.55235 0.65391 0.02909 0.0
C796 C 0.56018 0.64369 0.03844 0.0
C797 C 0.5724 0.65356 0.05327 0.0
C798 C 0.55448 0.62215 0.03367 0.0
C799 C 0.53839 0.64379 0.01339 0.0
C800 C 0.54372 0.60703 0.04401 0.0
C801 C 0.53721 0.58647 0.03932 0.0
C802 C 0.54128 0.58064 0.02414 0.0
C803 C 0.55248 0.59588 0.01396 0.0
C804 C 0.55917 0.61648 0.01874 0.0
H805 H 0.52989 0.65176 0.00978 0.0
H806 H 0.54788 0.64425 1.00346 0.0
H807 H 0.52694 0.62747 0.01448 0.0
H808 H 0.53997 0.61109 0.0556 0.0
H809 H 0.52869 0.57513 0.04748 0.0
H810 H 0.81138 0.28902 0.95471 0.0
H811 H 0.8421 0.32123 0.966 0.0
H812 H 0.87807 0.291 0.967 0.0
H813 H 0.84723 0.2585 0.9559 0.0
H814 H 0.88408 0.31822 0.99641 0.0
H815 H 0.89158 0.35479 0.93892 0.0
H816 H 0.86629 0.34348 0.94587 0.0
H817 H 0.87646 0.32735 0.93961 0.0
C818 C 0.82573 0.28912 0.95755 0.0
C819 C 0.82687 0.2712 0.95442 0.0
C820 C 0.84331 0.30758 0.96385 0.0
C821 C 0.86236 0.30851 0.96713 0.0
C822 C 0.8635 0.29058 0.96445 0.0
H823 H 0.98006 0.42413 0.98449 0.0
H824 H 0.95315 0.38879 0.97505 0.0
C825 C 0.84592 0.27209 0.95805 0.0
C826 C 0.88111 0.32835 0.97311 0.0
H827 H 0.91253 0.37654 0.96252 0.0
C828 C 0.89042 0.33095 0.98899 0.0
C829 C 0.88949 0.34479 0.9633 0.0
C830 C 0.8806 0.34251 0.94592 0.0
C831 C 0.90752 0.34988 0.99553 0.0
C832 C 0.91533 0.36659 0.98595 0.0
C833 C 0.90644 0.36374 0.96988 0.0
C834 C 0.93224 0.3874 0.99249 0.0
C835 C 0.91709 0.35184 0.01261 0.0
C836 C 0.92938 0.39833 0.00542 0.0
C837 C 0.94466 0.41853 0.01082 0.0
C838 C 0.96312 0.42822 1.00336 0.0
C839 C 0.96607 0.41711 0.99056 0.0
C840 C 0.95071 0.39692 0.98512 0.0
H841 H 0.9131 0.33661 0.0166 0.0
H842 H 0.93419 0.36163 0.01354 0.0
H843 H 0.91116 0.35914 0.02113 0.0
H844 H 0.91507 0.39142 0.01107 0.0
H845 H 0.94184 0.42663 0.02067 0.0
H846 H 0.70837 0.51454 0.94775 0.0
H847 H 0.67834 0.51278 0.95924 0.0
H848 H 0.70976 0.57892 0.96654 0.0
H849 H 0.73993 0.58081 0.95494 0.0
H850 H 0.67372 0.52663 0.98915 0.0
H851 H 0.65569 0.56488 0.94063 0.0
H852 H 0.67397 0.55609 0.9388 0.0
H853 H 0.68138 0.57975 0.95093 0.0
C854 C 0.70901 0.52873 0.95195 0.0
C855 C 0.72657 0.54783 0.9504 0.0
C856 C 0.69177 0.5277 0.95847 0.0
C857 C 0.69164 0.54571 0.96355 0.0
C858 C 0.7093 0.56481 0.96236 0.0
H859 H 0.59495 0.54393 0.02005 0.0
H860 H 0.62818 0.54987 0.01177 0.0
C861 C 0.72656 0.56587 0.95576 0.0
C862 C 0.67287 0.5443 0.96992 0.0
H863 H 0.6352 0.55666 0.96263 0.0
C864 C 0.66533 0.53326 0.9834 0.0
C865 C 0.66179 0.55274 0.96228 0.0
C866 C 0.66846 0.56387 0.94727 0.0
C867 C 0.64697 0.53031 0.98937 0.0
C868 C 0.63603 0.53898 0.98186 0.0
C869 C 0.64367 0.55016 0.96846 0.0
C870 C 0.61602 0.53569 0.98706 0.0
C871 C 0.63908 0.51731 1.00329 0.0
C872 C 0.59822 0.52622 0.97585 0.0
C873 C 0.57929 0.523 0.98048 0.0
C874 C 0.57768 0.5292 0.99647 0.0
C875 C 0.59558 0.53882 0.00768 0.0
C876 C 0.61458 0.54213 1.00299 0.0
H877 H 0.64634 0.50771 0.00495 0.0
H878 H 0.64284 0.52749 0.01475 0.0
H879 H 0.62203 0.50708 1.0013 0.0
H880 H 0.59893 0.52116 0.96349 0.0
H881 H 0.56589 0.51556 0.97149 0.0
H882 H 0.41853 0.15291 0.96508 0.0
H883 H 0.41777 0.12266 0.97518 0.0
H884 H 0.4813 0.16016 0.99568 0.0
H885 H 0.48263 0.19013 0.98508 0.0
H886 H 0.44914 0.11093 0.96573 0.0
H887 H 0.44842 0.12356 0.0325 0.0
H888 H 0.43851 0.13427 0.01787 0.0
H889 H 0.4659 0.14577 0.02302 0.0
C890 C 0.43233 0.15475 0.97177 0.0
C891 C 0.45065 0.17401 0.97423 0.0
C892 C 0.43178 0.13749 0.97765 0.0
C893 C 0.44939 0.13934 0.98633 0.0
C894 C 0.46743 0.15858 0.98928 0.0
H895 H 0.50513 0.07417 0.02315 0.0
H896 H 0.49289 0.09788 0.01703 0.0
C897 C 0.4681 0.17572 0.98325 0.0
C898 C 0.44998 0.121 0.99079 0.0
H899 H 0.4586 0.09961 0.02339 0.0
C900 C 0.45079 0.10811 0.97831 0.0
C901 C 0.45232 0.11766 0.00721 0.0
C902 C 0.4511 0.13093 0.02097 0.0
C903 C 0.45512 0.09261 0.98183 0.0
C904 C 0.4581 0.08961 0.99831 0.0
C905 C 0.45634 0.10196 0.01078 0.0
C906 C 0.46455 0.07478 1.00285 0.0
C907 C 0.45772 0.08049 0.96789 0.0
C908 C 0.45247 0.05387 0.9972 0.0
C909 C 0.45958 0.04037 1.00044 0.0
C910 C 0.47871 0.04748 0.0097 0.0
C911 C 0.49035 0.06825 0.01595 0.0
C912 C 0.48336 0.0818 0.0125 0.0
H913 H 0.45995 0.08808 0.95648 0.0
H914 H 0.47116 0.07838 0.97087 0.0
H915 H 0.44362 0.06509 0.96551 0.0
H916 H 0.43765 0.04804 0.9901 0.0
H917 H 0.45011 0.02438 0.99567 0.0
H918 H 0.71922 0.17865 0.97724 0.0
H919 H 0.69129 0.14768 0.98693 0.0
H920 H 0.64746 0.14776 0.95064 0.0
H921 H 0.67519 0.17859 0.94096 0.0
H922 H 0.65479 0.14688 0.99863 0.0
H923 H 0.63459 0.08703 0.94735 0.0
H924 H 0.65941 0.11046 0.95065 0.0
H925 H 0.63716 0.11066 0.94144 0.0
C926 C 0.7037 0.17174 0.97111 0.0
C927 C 0.69932 0.18098 0.95837 0.0
C928 C 0.68778 0.15416 0.9767 0.0
C929 C 0.66737 0.14538 0.96941 0.0
C930 C 0.66315 0.15414 0.95628 0.0
H931 H 0.54313 0.05569 0.98136 0.0
H932 H 0.57593 0.08162 0.97295 0.0
C933 C 0.67896 0.1718 0.95083 0.0
C934 C 0.65007 0.12819 0.97632 0.0
H935 H 0.60987 0.07926 0.96654 0.0
C936 C 0.64512 0.13195 0.99176 0.0
C937 C 0.63746 0.10886 0.96725 0.0
C938 C 0.64247 0.10387 0.9508 0.0
C939 C 0.62728 0.11719 0.99808 0.0
C940 C 0.61435 0.09796 0.98884 0.0
C941 C 0.61974 0.094 0.97361 0.0
C942 C 0.59456 0.08219 0.99426 0.0
C943 C 0.6219 0.12272 0.0142 0.0
C944 C 0.59409 0.07375 0.00904 0.0
C945 C 0.57525 0.05901 0.014 0.0
C946 C 0.55658 0.05223 1.00416 0.0
C947 C 0.55718 0.06055 0.98928 0.0
C948 C 0.57595 0.07537 0.98441 0.0
H949 H 0.6305 0.13957 0.01771 0.0
H950 H 0.60507 0.11712 0.01379 0.0
H951 H 0.62604 0.1154 0.02385 0.0
H952 H 0.60829 0.07844 0.01667 0.0
H953 H 0.57537 0.05276 0.02544 0.0
H954 H 0.81667 0.48838 0.93272 0.0
H955 H 0.84987 0.49173 0.94236 0.0
H956 H 0.85966 0.53845 0.98019 0.0
H957 H 0.8263 0.53513 0.9706 0.0
H958 H 0.89256 0.52874 0.94853 0.0
H959 H 0.85989 0.48999 1.00351 0.0
H960 H 0.84366 0.48819 0.98568 0.0
H961 H 0.85677 0.51146 0.99923 0.0
C962 C 0.82601 0.49955 0.94297 0.0
C963 C 0.81883 0.51139 0.95099 0.0
C964 C 0.84499 0.50149 0.94842 0.0
C965 C 0.85708 0.51515 0.96208 0.0
C966 C 0.85045 0.5277 0.96969 0.0
H967 H 0.96123 0.51973 0.01989 0.0
H968 H 0.93375 0.52598 0.00964 0.0
C969 C 0.83149 0.5259 0.96414 0.0
C970 C 0.8759 0.5152 0.96888 0.0
H971 H 0.8942 0.4991 1.00021 0.0
C972 C 0.89303 0.52241 0.95988 0.0
C973 C 0.87643 0.50693 0.98369 0.0
C974 C 0.85821 0.49856 0.99362 0.0
C975 C 0.91074 0.52156 0.96532 0.0
C976 C 0.91104 0.51271 0.97991 0.0
C977 C 0.894 0.50586 0.98903 0.0
C978 C 0.92854 0.50982 0.98575 0.0
C979 C 0.929 0.5304 0.95546 0.0
C980 C 0.93473 0.49854 0.97579 0.0
C981 C 0.95057 0.49508 0.98157 0.0
C982 C 0.96035 0.50253 0.99755 0.0
C983 C 0.95405 0.51374 0.00753 0.0
C984 C 0.93833 0.51735 1.00168 0.0
H985 H 0.92908 0.54225 0.94806 0.0
H986 H 0.94385 0.53739 0.96341 0.0
H987 H 0.92803 0.51795 0.94693 0.0
H988 H 0.92704 0.49204 0.96363 0.0
H989 H 0.95488 0.48624 0.97359 0.0
H990 H 0.45863 0.28697 0.98348 0.0
H991 H 0.45347 0.31656 0.9829 0.0
H992 H 0.51733 0.35497 0.9746 0.0
H993 H 0.52237 0.32545 0.97454 0.0
H994 H 0.47282 0.35067 1.00407 0.0
H995 H 0.48875 0.3727 0.94184 0.0
H996 H 0.48355 0.34795 0.94753 0.0
H997 H 0.5092 0.37001 0.95158 0.0
C998 C 0.47142 0.30163 0.98114 0.0
C999 C 0.49093 0.30391 0.9791 0.0
C1000 C 0.46847 0.31851 0.98088 0.0
C1001 C 0.48492 0.33788 0.97844 0.0
C1002 C 0.50428 0.34008 0.9761 0.0
H1003 H 0.52336 0.45759 0.01721 0.0
H1004 H 0.51348 0.42183 0.01059 0.0
C1005 C 0.50723 0.32325 0.97632 0.0
C1006 C 0.48268 0.3563 0.98002 0.0
H1007 H 0.49446 0.40001 0.96232 0.0
C1008 C 0.47711 0.36125 0.9948 0.0
C1009 C 0.48789 0.36993 0.96782 0.0
C1010 C 0.49245 0.36475 0.95124 0.0
C1011 C 0.47813 0.38017 0.99815 0.0
C1012 C 0.48528 0.3946 0.98656 0.0
C1013 C 0.48932 0.38904 0.97131 0.0
C1014 C 0.49057 0.41612 0.99063 0.0
C1015 C 0.47207 0.38474 0.01428 0.0
C1016 C 0.48137 0.42495 0.98129 0.0
C1017 C 0.48712 0.44556 0.98497 0.0
C1018 C 0.5023 0.45766 0.99796 0.0
C1019 C 0.51156 0.44873 0.00718 0.0
C1020 C 0.50581 0.42821 1.0035 0.0
H1021 H 0.4607 0.37039 0.01912 0.0
H1022 H 0.48601 0.39263 0.02327 0.0
H1023 H 0.46533 0.39486 0.01317 0.0
H1024 H 0.46974 0.41589 0.97119 0.0
H1025 H 0.47975 0.45199 0.9776 0.0
H1026 H 0.18766 0.72014 0.04181 0.0
H1027 H 0.1528 0.69046 0.03386 0.0
H1028 H 0.16389 0.65689 0.06973 0.0
H1029 H 0.19867 0.68627 0.07754 0.0
H1030 H 0.14727 0.64801 0.02347 0.0
H1031 H 0.10451 0.6505 0.07533 0.0
H1032 H 0.12662 0.67314 0.06955 0.0
H1033 H 0.13029 0.65519 0.08053 0.0
C1034 C 0.18244 0.70654 0.04818 0.0
C1035 C 0.19578 0.70541 0.06026 0.0
C1036 C 0.16263 0.68964 0.0436 0.0
C1037 C 0.15581 0.6716 0.0513 0.0
C1038 C 0.16884 0.67076 0.06377 0.0
H1039 H 0.06127 0.54783 0.05001 0.0
H1040 H 0.08919 0.58338 0.05552 0.0
C1041 C 0.18868 0.68748 0.06817 0.0
C1042 C 0.13585 0.65291 0.04554 0.0
H1043 H 0.08929 0.61919 0.05798 0.0
C1044 C 0.13438 0.64181 0.03082 0.0
C1045 C 0.11925 0.64493 0.05526 0.0
C1046 C 0.12006 0.65657 0.07101 0.0
C1047 C 0.11713 0.62228 0.02597 0.0
C1048 C 0.1007 0.61395 0.03595 0.0
C1049 C 0.10186 0.62555 0.05034 0.0
C1050 C 0.08308 0.59258 0.03248 0.0
C1051 C 0.11726 0.61029 0.01074 0.0
C1052 C 0.07012 0.58592 0.01775 0.0
C1053 C 0.05421 0.56543 0.01445 0.0
C1054 C 0.0508 0.55135 0.02595 0.0
C1055 C 0.06344 0.55824 0.04087 0.0
C1056 C 0.07942 0.57861 0.04406 0.0
H1057 H 0.13298 0.61684 0.00666 0.0
H1058 H 0.11156 0.59398 0.01273 0.0
H1059 H 0.10692 0.6107 1.00076 0.0
H1060 H 0.07233 0.59654 0.00879 0.0
H1061 H 0.04461 0.56064 1.00291 0.0
H1062 H 0.30227 0.47316 0.06055 0.0
H1063 H 0.33048 0.46885 0.05116 0.0
H1064 H 0.37511 0.5259 0.07913 0.0
H1065 H 0.34721 0.52972 0.08911 0.0
H1066 H 0.35914 0.49257 0.03283 0.0
H1067 H 0.39939 0.49131 0.09049 0.0
H1068 H 0.37395 0.48843 0.08941 0.0
H1069 H 0.3967 0.51362 0.09128 0.0
C1070 C 0.31809 0.48444 0.06507 0.0
C1071 C 0.32245 0.50183 0.07553 0.0
C1072 C 0.33422 0.48207 0.05958 0.0
C1073 C 0.35501 0.49694 0.06454 0.0
C1074 C 0.35929 0.51395 0.07538 0.0
H1075 H 0.46179 0.53163 0.0117 0.0
H1076 H 0.42991 0.52628 0.02232 0.0
C1077 C 0.34326 0.51625 0.08093 0.0
C1078 C 0.37228 0.49575 0.05749 0.0
H1079 H 0.41978 0.5012 0.06769 0.0
C1080 C 0.37226 0.49414 0.04046 0.0
C1081 C 0.38933 0.49747 0.06735 0.0
C1082 C 0.38974 0.49757 0.08563 0.0
C1083 C 0.3891 0.49507 0.03309 0.0
C1084 C 0.4068 0.49834 0.04301 0.0
C1085 C 0.40643 0.49906 0.06001 0.0
C1086 C 0.42592 0.50125 0.03611 0.0
C1087 C 0.3876 0.49237 0.01473 0.0
C1088 C 0.43481 0.48946 0.04068 0.0
C1089 C 0.45329 0.4928 0.03489 0.0
C1090 C 0.4633 0.50794 0.0243 0.0
C1091 C 0.45435 0.51966 0.01966 0.0
C1092 C 0.436 0.5165 0.02564 0.0
H1093 H 0.37122 0.48324 0.00932 0.0
H1094 H 0.39444 0.50767 0.01009 0.0
H1095 H 0.39601 0.48462 0.01047 0.0
H1096 H 0.42746 0.47768 0.04879 0.0
H1097 H 0.45973 0.48349 0.03874 0.0
H1098 H 0.54116 0.84098 0.07599 0.0
H1099 H 0.54287 0.87274 0.06842 0.0
H1100 H 0.53182 0.84972 0.01759 0.0
H1101 H 0.52921 0.81768 0.02522 0.0
H1102 H 0.56547 0.90311 0.04945 0.0
H1103 H 0.48337 0.85807 0.02288 0.0
H1104 H 0.49559 0.84693 0.03468 0.0
H1105 H 0.49984 0.85042 0.01362 0.0
C1106 C 0.53943 0.84294 0.06322 0.0
C1107 C 0.53483 0.82698 0.05116 0.0
C1108 C 0.5404 0.86101 0.0589 0.0
C1109 C 0.53693 0.86333 0.04246 0.0
C1110 C 0.53394 0.84798 0.03036 0.0
H1111 H 0.51804 0.956 0.99859 0.0
H1112 H 0.52697 0.92936 1.00283 0.0
C1113 C 0.5326 0.8298 0.03469 0.0
C1114 C 0.53494 0.88107 0.0381 0.0
H1115 H 0.50094 0.89357 0.02019 0.0
C1116 C 0.5514 0.90104 0.04301 0.0
C1117 C 0.51648 0.87831 0.02978 0.0
C1118 C 0.49774 0.8573 0.02507 0.0
C1119 C 0.54985 0.91832 0.03982 0.0
C1120 C 0.5314 0.91548 0.03155 0.0
C1121 C 0.51513 0.8956 0.02639 0.0
C1122 C 0.52799 0.93281 0.02908 0.0
C1123 C 0.56786 0.93949 0.04533 0.0
C1124 C 0.52554 0.94341 0.04246 0.0
C1125 C 0.52023 0.95843 0.0401 0.0
C1126 C 0.51733 0.96314 0.02429 0.0
C1127 C 0.52021 0.95275 0.01092 0.0
C1128 C 0.52534 0.93758 0.0133 0.0
H1129 H 0.58239 0.93924 0.0483 0.0
H1130 H 0.57029 0.95001 0.03578 0.0
H1131 H 0.56446 0.94582 0.05642 0.0
H1132 H 0.52718 0.93966 0.05471 0.0
H1133 H 0.51819 0.96618 0.05067 0.0
H1134 H 0.97372 0.19209 0.42387 0.0
H1135 H 1.00355 0.21945 0.41286 0.0
H1136 H 0.97892 0.18888 0.36433 0.0
H1137 H 0.94865 0.16167 0.37514 0.0
H1138 H 0.02149 0.19995 0.37448 0.0
H1139 H 0.0075 0.26525 0.38469 0.0
H1140 H 1.00501 0.25099 0.40191 0.0
H1141 H 0.98714 0.23876 0.38389 0.0
C1142 C 0.97432 0.1914 0.4108 0.0
C1143 C 0.95872 0.17464 0.4004 0.0
C1144 C 0.99146 0.20703 0.40454 0.0
C1145 C 0.99335 0.20624 0.38778 0.0
C1146 C 0.97771 0.18977 0.37731 0.0
H1147 H 0.10027 0.28167 0.33503 0.0
H1148 H 0.06638 0.25501 0.3416 0.0
C1149 C 0.96049 0.17419 0.38353 0.0
C1150 C 0.01231 0.22196 0.38136 0.0
H1151 H 0.04082 0.2733 0.37774 0.0
C1152 C 0.02567 0.21597 0.37501 0.0
C1153 C 0.01767 0.2428 0.38215 0.0
C1154 C 1.00353 0.2499 0.3884 0.0
C1155 C 0.0447 0.23044 0.36999 0.0
C1156 C 0.05023 0.25138 0.37098 0.0
C1157 C 0.03659 0.25725 0.37699 0.0
C1158 C 0.07055 0.26763 0.36667 0.0
C1159 C 0.05905 0.22325 0.36436 0.0
C1160 C 0.08392 0.28389 0.37841 0.0
C1161 C 0.10312 0.29925 0.37465 0.0
C1162 C 0.10944 0.2987 0.35903 0.0
C1163 C 0.09597 0.28246 0.34722 0.0
C1164 C 0.07663 0.26715 0.35097 0.0
H1165 H 0.05488 0.20793 0.36824 0.0
H1166 H 0.058 0.22199 0.35085 0.0
H1167 H 0.07534 0.23432 0.36917 0.0
H1168 H 0.07957 0.28461 0.39059 0.0
H1169 H 0.11309 0.31146 0.38408 0.0
H1170 H 0.87834 0.83197 0.41556 0.0
H1171 H 0.84871 0.83422 0.40427 0.0
H1172 H 0.80989 0.76856 0.40299 0.0
H1173 H 0.83967 0.76605 0.41379 0.0
H1174 H 0.80314 0.78397 0.37482 0.0
H1175 H 0.80164 0.82824 0.43022 0.0
H1176 H 0.82619 0.83981 0.42207 0.0
H1177 H 0.8165 0.81538 0.43005 0.0
C1178 C 0.86359 0.81794 0.41266 0.0
C1179 C 0.86142 0.79881 0.41563 0.0
C1180 C 0.84659 0.81929 0.4064 0.0
C1181 C 0.82699 0.80161 0.40307 0.0
C1182 C 0.82483 0.78243 0.4056 0.0
H1183 H 0.71092 0.80204 0.38835 0.0
H1184 H 0.739 0.7964 0.39811 0.0
C1185 C 0.84185 0.78105 0.41186 0.0
C1186 C 0.80874 0.80315 0.39705 0.0
H1187 H 0.77995 0.82519 0.40672 0.0
C1188 C 0.79801 0.79291 0.38181 0.0
C1189 C 0.80185 0.81456 0.4063 0.0
C1190 C 0.812 0.82497 0.42314 0.0
C1191 C 0.78089 0.79418 0.3754 0.0
C1192 C 0.77451 0.80625 0.38438 0.0
C1193 C 0.78496 0.81609 0.39978 0.0
C1194 C 0.7571 0.80897 0.37803 0.0
C1195 C 0.76963 0.78235 0.35918 0.0
C1196 C 0.75796 0.81802 0.36353 0.0
C1197 C 0.74191 0.82125 0.35789 0.0
C1198 C 0.72468 0.81561 0.36669 0.0
C1199 C 0.72388 0.80653 0.38122 0.0
C1200 C 0.73995 0.80331 0.38684 0.0
H1201 H 0.77265 0.7696 0.35613 0.0
H1202 H 0.75268 0.77588 0.35909 0.0
H1203 H 0.77508 0.79286 0.34948 0.0
H1204 H 0.77124 0.82294 0.3567 0.0
H1205 H 0.74315 0.82838 0.34671 0.0
H1206 H 0.20932 0.05791 0.38667 0.0
H1207 H 0.21062 0.02768 0.37641 0.0
H1208 H 0.27618 0.05891 0.39116 0.0
H1209 H 0.27523 0.08977 0.40113 0.0
H1210 H 0.2421 0.02809 0.35206 0.0
H1211 H 0.24382 1.00074 0.41307 0.0
H1212 H 0.23255 0.01666 0.40951 0.0
H1213 H 0.25999 0.02748 0.41017 0.0
C1214 C 0.22413 0.05858 0.38751 0.0
C1215 C 0.24224 0.07636 0.39457 0.0
C1216 C 0.22479 0.04123 0.38172 0.0
C1217 C 0.24348 0.04119 0.38302 0.0
C1218 C 0.26163 0.05877 0.39009 0.0
H1219 H 0.24095 0.92455 0.36391 0.0
H1220 H 0.25456 0.96117 0.37139 0.0
C1221 C 0.26102 0.07628 0.39584 0.0
C1222 C 0.24346 0.02235 0.37717 0.0
H1223 H 0.23739 0.9778 0.39005 0.0
C1224 C 0.24147 0.0172 0.36033 0.0
C1225 C 0.24278 0.00836 0.38805 0.0
C1226 C 0.24488 0.01342 0.40624 0.0
C1227 C 0.23792 0.99792 0.35402 0.0
C1228 C 0.23575 0.98332 0.36487 0.0
C1229 C 0.23893 0.98897 0.38175 0.0
C1230 C 0.22851 0.96164 0.35905 0.0
C1231 C 0.23618 0.99329 0.3358 0.0
C1232 C 0.20933 0.94975 0.34964 0.0
C1233 C 0.20154 0.92885 0.34529 0.0
C1234 C 0.21266 0.91938 0.35046 0.0
C1235 C 0.23198 0.93137 0.35974 0.0
C1236 C 0.23981 0.95231 0.36401 0.0
H1237 H 0.24515 0.00756 0.32987 0.0
H1238 H 0.24177 0.98253 0.33255 0.0
H1239 H 0.21973 0.98615 0.33077 0.0
H1240 H 0.20007 0.9565 0.34605 0.0
H1241 H 0.18654 0.92003 0.33823 0.0
H1242 H 0.47973 0.62803 0.29226 0.0
H1243 H 0.51034 0.66016 0.30389 0.0
H1244 H 0.54709 0.63078 0.30255 0.0
H1245 H 0.5164 0.59838 0.29112 0.0
H1246 H 0.55403 0.65767 0.33253 0.0
H1247 H 0.5582 0.69432 0.27545 0.0
H1248 H 0.5334 0.68271 0.28326 0.0
H1249 H 0.5435 0.66685 0.27612 0.0
C1250 C 0.49422 0.62826 0.29473 0.0
C1251 C 0.49565 0.61066 0.29074 0.0
C1252 C 0.51173 0.64669 0.30122 0.0
C1253 C 0.53099 0.64787 0.30385 0.0
C1254 C 0.53236 0.63017 0.30051 0.0
H1255 H 0.6493 0.76298 0.31869 0.0
H1256 H 0.62173 0.72776 0.3096 0.0
C1257 C 0.51486 0.61173 0.29393 0.0
C1258 C 0.54978 0.66779 0.30955 0.0
H1259 H 0.58051 0.71593 0.29855 0.0
C1260 C 0.55992 0.6704 0.3251 0.0
C1261 C 0.55756 0.68423 0.29971 0.0
C1262 C 0.54776 0.68194 0.28264 0.0
C1263 C 0.57731 0.6893 0.33127 0.0
C1264 C 0.5846 0.70599 0.32167 0.0
C1265 C 0.57482 0.70315 0.30593 0.0
C1266 C 0.60187 0.72674 0.32788 0.0
C1267 C 0.58779 0.69128 0.348 0.0
C1268 C 0.59979 0.73784 0.34113 0.0
C1269 C 0.61543 0.75795 0.34631 0.0
C1270 C 0.63349 0.76741 0.33832 0.0
C1271 C 0.63564 0.75614 0.32517 0.0
C1272 C 0.61991 0.73603 0.31994 0.0
H1273 H 0.58389 0.67604 0.35192 0.0
H1274 H 0.60486 0.70087 0.3483 0.0
H1275 H 0.58255 0.69881 0.35693 0.0
H1276 H 0.58583 0.7311 0.34723 0.0
H1277 H 0.61322 0.76616 0.35645 0.0
H1278 H 0.37614 0.84622 0.28428 0.0
H1279 H 0.3456 0.84472 0.2945 0.0
H1280 H 0.37158 0.90957 0.29101 0.0
H1281 H 0.40267 0.9114 0.28126 0.0
H1282 H 0.35359 0.89696 0.32005 0.0
H1283 H 0.30024 0.84708 0.26628 0.0
H1284 H 0.31482 0.83682 0.27582 0.0
H1285 H 0.32801 0.86025 0.26637 0.0
C1286 C 0.37555 0.86027 0.28589 0.0
C1287 C 0.39192 0.87896 0.28194 0.0
C1288 C 0.35793 0.85931 0.29155 0.0
C1289 C 0.35614 0.87695 0.29325 0.0
C1290 C 0.37258 0.89573 0.28966 0.0
H1291 H 0.24076 0.8758 0.30392 0.0
H1292 H 0.27312 0.88047 0.2949 0.0
C1293 C 0.39027 0.89672 0.284 0.0
C1294 C 0.33705 0.87569 0.29873 0.0
H1295 H 0.2847 0.85175 0.28916 0.0
C1296 C 0.33853 0.88716 0.31327 0.0
C1297 C 0.31745 0.8631 0.28976 0.0
C1298 C 0.31498 0.85126 0.27361 0.0
C1299 C 0.32086 0.88602 0.31927 0.0
C1300 C 0.30116 0.87282 0.31061 0.0
C1301 C 0.29977 0.8617 0.29589 0.0
C1302 C 0.28178 0.87043 0.31646 0.0
C1303 C 0.32348 0.89919 0.3347 0.0
C1304 C 0.27574 0.86302 0.33154 0.0
C1305 C 0.25721 0.86034 0.33679 0.0
C1306 C 0.24425 0.86488 0.32699 0.0
C1307 C 0.25032 0.87217 0.31183 0.0
C1308 C 0.26884 0.87486 0.30662 0.0
H1309 H 0.33958 0.91228 0.33733 0.0
H1310 H 0.31274 0.90532 0.33389 0.0
H1311 H 0.31997 0.88974 0.3451 0.0
H1312 H 0.28523 0.85905 0.33919 0.0
H1313 H 0.25301 0.8546 0.34847 0.0
H1314 H 0.11864 0.49908 0.27868 0.0
H1315 H 0.1204 0.46984 0.28791 0.0
H1316 H 0.10943 0.48429 0.33622 0.0
H1317 H 0.10703 0.51336 0.32696 0.0
H1318 H 0.15126 0.47682 0.31306 0.0
H1319 H 0.07233 0.4207 0.32769 0.0
H1320 H 0.07704 0.44028 0.31425 0.0
H1321 H 0.08249 0.44694 0.33589 0.0
C1322 C 0.11588 0.49566 0.29113 0.0
C1323 C 0.11275 0.50858 0.30211 0.0
C1324 C 0.11704 0.47902 0.2964 0.0
C1325 C 0.11499 0.47491 0.31271 0.0
C1326 C 0.1108 0.48708 0.32353 0.0
H1327 H 0.1684 0.41012 0.36134 0.0
H1328 H 0.15765 0.43487 0.35485 0.0
C1329 C 0.10963 0.50377 0.31826 0.0
C1330 C 0.11976 0.45952 0.31871 0.0
H1331 H 0.09916 0.4137 0.33498 0.0
C1332 C 0.13989 0.46301 0.31787 0.0
C1333 C 0.10484 0.44158 0.32493 0.0
C1334 C 0.0829 0.43697 0.32568 0.0
C1335 C 0.14552 0.44896 0.32301 0.0
C1336 C 0.13068 0.4311 0.32938 0.0
C1337 C 0.11052 0.42755 0.33024 0.0
C1338 C 0.13568 0.41547 0.33438 0.0
C1339 C 0.16716 0.4531 0.32124 0.0
C1340 C 0.12645 0.39623 0.32527 0.0
C1341 C 0.13254 0.38206 0.32891 0.0
C1342 C 0.14793 0.3869 0.3418 0.0
C1343 C 0.15662 0.40596 0.35127 0.0
C1344 C 0.15052 0.42013 0.34759 0.0
H1345 H 0.17532 0.46536 0.31318 0.0
H1346 H 0.17623 0.4581 0.3334 0.0
H1347 H 0.16683 0.43895 0.31621 0.0
H1348 H 0.11497 0.3924 0.31503 0.0
H1349 H 0.12543 0.36749 0.32142 0.0
H1350 H 0.38844 0.51734 0.31123 0.0
H1351 H 0.36066 0.48628 0.32097 0.0
H1352 H 0.31684 0.48524 0.28401 0.0
H1353 H 0.34441 0.51614 0.2743 0.0
H1354 H 0.32404 0.485 0.33229 0.0
H1355 H 0.30433 0.42483 0.28145 0.0
H1356 H 0.32897 0.44846 0.28458 0.0
H1357 H 0.30653 0.44818 0.2752 0.0
C1358 C 0.37296 0.51015 0.30496 0.0
C1359 C 0.36853 0.51911 0.29203 0.0
C1360 C 0.35712 0.49251 0.31058 0.0
C1361 C 0.33674 0.48339 0.30313 0.0
C1362 C 0.33251 0.49186 0.28979 0.0
H1363 H 0.21227 0.39439 0.31448 0.0
H1364 H 0.24535 0.42008 0.30632 0.0
C1365 C 0.34823 0.50956 0.2843 0.0
C1366 C 0.31945 0.46621 0.31007 0.0
H1367 H 0.27921 0.41728 0.30033 0.0
C1368 C 0.3144 0.47005 0.32546 0.0
C1369 C 0.30688 0.44682 0.30106 0.0
C1370 C 0.31201 0.44169 0.28471 0.0
C1371 C 0.29648 0.45534 0.33173 0.0
C1372 C 0.28355 0.4361 0.32252 0.0
C1373 C 0.28907 0.43204 0.30738 0.0
C1374 C 0.26359 0.42045 0.32782 0.0
C1375 C 0.291 0.46097 0.34777 0.0
C1376 C 0.26278 0.41199 0.34263 0.0
C1377 C 0.24378 0.39736 0.34745 0.0
C1378 C 0.22526 0.39074 0.33744 0.0
C1379 C 0.22619 0.39912 0.32254 0.0
C1380 C 0.24513 0.4138 0.31781 0.0
H1381 H 0.29973 0.47782 0.3513 0.0
H1382 H 0.27419 0.45554 0.34722 0.0
H1383 H 0.29489 0.45354 0.35748 0.0
H1384 H 0.27686 0.41655 0.3504 0.0
H1385 H 0.24364 0.39108 0.35891 0.0
H1386 H 0.50164 0.87757 0.29769 0.0
H1387 H 0.53651 0.8829 0.30368 0.0
H1388 H 0.51385 0.81927 0.28724 0.0
H1389 H 0.47974 0.81434 0.27998 0.0
H1390 H 0.54984 0.86809 0.325 0.0
H1391 H 0.56513 0.84309 0.26631 0.0
H1392 H 0.54367 0.84739 0.26795 0.0
H1393 H 0.5411 0.82289 0.27155 0.0
C1394 C 0.50425 0.8649 0.29485 0.0
C1395 C 0.48774 0.84547 0.28847 0.0
C1396 C 0.52419 0.86791 0.29844 0.0
C1397 C 0.52803 0.85157 0.29574 0.0
C1398 C 0.51163 0.83234 0.28904 0.0
H1399 H 0.61369 0.83021 0.35302 0.0
H1400 H 0.58609 0.8359 0.34219 0.0
C1401 C 0.4919 0.82943 0.28518 0.0
C1402 C 0.54851 0.85387 0.3012 0.0
H1403 H 0.58286 0.83917 0.29038 0.0
C1404 C 0.55727 0.86213 0.3173 0.0
C1405 C 0.55869 0.84663 0.29115 0.0
C1406 C 0.55174 0.83976 0.27324 0.0
C1407 C 0.57512 0.86227 0.32384 0.0
C1408 C 0.58397 0.853 0.3143 0.0
C1409 C 0.57591 0.84584 0.29792 0.0
C1410 C 0.60108 0.84995 0.3211 0.0
C1411 C 0.58428 0.87252 0.34088 0.0
C1412 C 0.61839 0.85502 0.31257 0.0
C1413 C 0.63384 0.85104 0.31847 0.0
C1414 C 0.63248 0.84224 0.33318 0.0
C1415 C 0.6153 0.83732 0.34179 0.0
C1416 C 0.59959 0.84078 0.33567 0.0
H1417 H 0.58117 0.88524 0.34378 0.0
H1418 H 0.57695 0.86117 0.34976 0.0
H1419 H 0.60126 0.87882 0.34255 0.0
H1420 H 0.61996 0.862 0.30127 0.0
H1421 H 0.64696 0.85505 0.3116 0.0
H1422 H 0.19196 0.66033 0.32552 0.0
H1423 H 0.18974 0.69141 0.32747 0.0
H1424 H 0.1231 0.65498 0.32122 0.0
H1425 H 0.12514 0.62361 0.32055 0.0
H1426 H 0.17482 0.70626 0.30646 0.0
H1427 H 0.13138 0.69246 0.36075 0.0
H1428 H 0.14202 0.67677 0.35417 0.0
H1429 H 0.11811 0.67273 0.34409 0.0
C1430 C 0.17678 0.65882 0.32491 0.0
C1431 C 0.15873 0.63938 0.32315 0.0
C1432 C 0.17554 0.67667 0.32583 0.0
C1433 C 0.15626 0.67557 0.32479 0.0
C1434 C 0.13816 0.65623 0.32249 0.0
H1435 H 0.15677 0.79005 0.31035 0.0
H1436 H 0.14926 0.75451 0.3065 0.0
C1437 C 0.13937 0.63828 0.32184 0.0
C1438 C 0.15544 0.69485 0.32588 0.0
H1439 H 0.13821 0.72203 0.34788 0.0
C1440 C 0.16677 0.70969 0.31549 0.0
C1441 C 0.14509 0.69937 0.33778 0.0
C1442 C 0.13362 0.68459 0.34994 0.0
C1443 C 0.16856 0.72912 0.31695 0.0
C1444 C 0.15793 0.73355 0.32867 0.0
C1445 C 0.14618 0.71854 0.33881 0.0
C1446 C 0.15999 0.75412 0.33133 0.0
C1447 C 0.18266 0.74497 0.30644 0.0
C1448 C 0.16729 0.76527 0.34682 0.0
C1449 C 0.17104 0.78537 0.34915 0.0
C1450 C 0.16781 0.79473 0.33598 0.0
C1451 C 0.1597 0.78329 0.32065 0.0
C1452 C 0.15553 0.76304 0.31841 0.0
H1453 H 0.1939 0.74103 0.30158 0.0
H1454 H 0.17324 0.74569 0.29588 0.0
H1455 H 0.19146 0.76044 0.31336 0.0
H1456 H 0.17073 0.75867 0.35699 0.0
H1457 H 0.17729 0.79384 0.3611 0.0
H1458 H 0.85706 0.06022 0.37644 0.0
H1459 H 0.82244 0.02983 0.36941 0.0
H1460 H 0.83968 0.99499 0.39961 0.0
H1461 H 0.87418 0.02511 0.4066 0.0
H1462 H 0.81991 0.98517 0.35711 0.0
H1463 H 0.77843 0.98988 0.40936 0.0
H1464 H 0.79827 0.01257 0.40158 0.0
H1465 H 0.80532 0.99722 0.41312 0.0
C1466 C 0.8533 0.04616 0.38178 0.0
C1467 C 0.86829 0.04495 0.392 0.0
C1468 C 0.83361 0.02886 0.37771 0.0
C1469 C 0.82863 0.01028 0.38403 0.0
C1470 C 0.8433 0.00925 0.39467 0.0
H1471 H 0.7324 0.88708 0.38505 0.0
H1472 H 0.76072 0.92251 0.39024 0.0
C1473 C 0.86298 0.02641 0.3986 0.0
C1474 C 0.80866 0.9914 0.37877 0.0
H1475 H 0.76197 0.95901 0.39173 0.0
C1476 C 0.80704 0.97952 0.36448 0.0
C1477 C 0.79216 0.98415 0.38857 0.0
C1478 C 0.79342 0.99656 0.40402 0.0
C1479 C 0.78957 0.96003 0.36004 0.0
C1480 C 0.77311 0.9525 0.37002 0.0
C1481 C 0.77453 0.96479 0.38406 0.0
C1482 C 0.7551 0.93131 0.36686 0.0
C1483 C 0.78944 0.94726 0.34522 0.0
C1484 C 0.74225 0.92451 0.35207 0.0
C1485 C 0.72612 0.9041 0.34896 0.0
C1486 C 0.72237 0.89023 0.36071 0.0
C1487 C 0.73485 0.89731 0.37571 0.0
C1488 C 0.75104 0.91761 0.37873 0.0
H1489 H 0.80515 0.95324 0.34123 0.0
H1490 H 0.78333 0.93103 0.34766 0.0
H1491 H 0.77932 0.94757 0.33499 0.0
H1492 H 0.74477 0.93493 0.34288 0.0
H1493 H 0.71667 0.89918 0.33735 0.0
H1494 H 0.96941 0.81082 0.39104 0.0
H1495 H 0.99766 0.80798 0.37981 0.0
H1496 H 0.0402 0.84927 0.42021 0.0
H1497 H 0.01216 0.85217 0.43139 0.0
H1498 H 0.03446 0.84375 0.37143 0.0
H1499 H 0.05356 0.80204 0.41606 0.0
H1500 H 0.02885 0.80093 0.41405 0.0
H1501 H 0.05108 0.82293 0.42495 0.0
C1502 C 0.98468 0.81882 0.39772 0.0
C1503 C 0.98862 0.83169 0.41209 0.0
C1504 C 1.00081 0.81729 0.39126 0.0
C1505 C 0.021 0.8283 0.39924 0.0
C1506 C 0.02471 0.84041 0.41397 0.0
H1507 H 0.14573 0.86123 0.38343 0.0
H1508 H 0.1134 0.85486 0.39369 0.0
C1509 C 0.0087 0.84211 0.42031 0.0
C1510 C 0.03865 0.82887 0.39152 0.0
H1511 H 0.07863 0.81958 0.39776 0.0
C1512 C 0.04397 0.83821 0.37703 0.0
C1513 C 0.05114 0.82183 0.39896 0.0
C1514 C 0.04583 0.81121 0.4143 0.0
C1515 C 0.06191 0.84143 0.37012 0.0
C1516 C 0.0746 0.83462 0.37766 0.0
C1517 C 0.06896 0.82484 0.39197 0.0
C1518 C 0.09416 0.83816 0.37128 0.0
C1519 C 0.06757 0.85297 0.35522 0.0
C1520 C 0.09417 0.83069 0.3553 0.0
C1521 C 0.11272 0.83451 0.34931 0.0
C1522 C 0.13164 0.84564 0.35926 0.0
C1523 C 0.13151 0.85271 0.37538 0.0
C1524 C 0.11299 0.84902 0.3813 0.0
H1525 H 0.05954 0.86189 0.35366 0.0
H1526 H 0.08451 0.8637 0.3559 0.0
H1527 H 0.06287 0.84184 0.34423 0.0
H1528 H 0.07981 0.82181 0.34746 0.0
H1529 H 0.11217 0.82861 0.33691 0.0
H1530 H 0.20842 0.1738 0.40107 0.0
H1531 H 0.20921 0.20603 0.39646 0.0
H1532 H 0.19824 0.18855 0.34459 0.0
H1533 H 0.19677 0.15612 0.3492 0.0
H1534 H 0.23154 0.23889 0.37902 0.0
H1535 H 0.1491 0.19493 0.35339 0.0
H1536 H 0.16177 0.18306 0.36359 0.0
H1537 H 0.16536 0.1882 0.3427 0.0
C1538 C 0.20651 0.17706 0.3887 0.0
C1539 C 0.20224 0.16248 0.37548 0.0
C1540 C 0.20693 0.1954 0.38608 0.0
C1541 C 0.20325 0.19939 0.37021 0.0
C1542 C 0.20053 0.18548 0.35695 0.0
H1543 H 0.18601 0.29463 0.331 0.0
H1544 H 0.19408 0.26736 0.33482 0.0
C1545 C 0.19979 0.16706 0.35957 0.0
C1546 C 0.20091 0.21739 0.36757 0.0
H1547 H 0.16664 0.23081 0.35175 0.0
C1548 C 0.21736 0.23715 0.37308 0.0
C1549 C 0.18228 0.21503 0.35994 0.0
C1550 C 0.16355 0.19416 0.35471 0.0
C1551 C 0.21576 0.25465 0.37092 0.0
C1552 C 0.19726 0.25221 0.36311 0.0
C1553 C 0.18086 0.23253 0.35759 0.0
C1554 C 0.19419 0.26982 0.36102 0.0
C1555 C 0.23383 0.27562 0.37687 0.0
C1556 C 0.19153 0.28008 0.37452 0.0
C1557 C 0.18672 0.2955 0.3724 0.0
C1558 C 0.18456 0.30094 0.35671 0.0
C1559 C 0.18762 0.29085 0.34324 0.0
C1560 C 0.19226 0.2753 0.34538 0.0
H1561 H 0.24821 0.27515 0.38003 0.0
H1562 H 0.23667 0.28639 0.36747 0.0
H1563 H 0.23019 0.2818 0.38792 0.0
H1564 H 0.19267 0.2758 0.38666 0.0
H1565 H 0.1845 0.303 0.38303 0.0
H1566 H 0.61433 0.5226 0.73842 0.0
H1567 H 0.64547 0.55098 0.72936 0.0
H1568 H 0.67137 0.51149 0.72325 0.0
H1569 H 0.64077 0.4834 0.73272 0.0
H1570 H 0.69887 0.54932 0.73991 0.0
H1571 H 0.66222 0.55789 0.68267 0.0
H1572 H 0.6506 0.55918 0.70075 0.0
H1573 H 0.64947 0.53562 0.69371 0.0
C1574 C 0.6267 0.52002 0.7352 0.0
C1575 C 0.62497 0.50067 0.73614 0.0
C1576 C 0.64438 0.53617 0.72986 0.0
C1577 C 0.66058 0.53323 0.72536 0.0
C1578 C 0.65898 0.51404 0.72651 0.0
H1579 H 0.76671 0.60895 0.67392 0.0
H1580 H 0.73417 0.58163 0.68206 0.0
C1581 C 0.64139 0.49795 0.73182 0.0
C1582 C 0.67958 0.55022 0.71994 0.0
H1583 H 0.69766 0.58241 0.69008 0.0
C1584 C 0.6986 0.55657 0.72903 0.0
C1585 C 0.67922 0.55945 0.70561 0.0
C1586 C 0.65933 0.55262 0.695 0.0
C1587 C 0.71725 0.57201 0.72426 0.0
C1588 C 0.71685 0.58158 0.71015 0.0
C1589 C 0.69788 0.57512 0.70095 0.0
C1590 C 0.73605 0.5984 0.70486 0.0
C1591 C 0.73729 0.57772 0.73422 0.0
C1592 C 0.74766 0.61698 0.71484 0.0
C1593 C 0.76621 0.63256 0.71027 0.0
C1594 C 0.77353 0.62995 0.69554 0.0
C1595 C 0.7616 0.61146 0.68536 0.0
C1596 C 0.74298 0.59585 0.68997 0.0
H1597 H 0.73544 0.56565 0.74215 0.0
H1598 H 0.74957 0.58033 0.72623 0.0
H1599 H 0.74252 0.59216 0.74218 0.0
H1600 H 0.74241 0.61939 0.72625 0.0
H1601 H 0.77486 0.64661 0.71839 0.0
H1602 H 0.50411 0.09958 0.74664 0.0
H1603 H 0.47447 0.10184 0.73528 0.0
H1604 H 0.51393 0.16691 0.73332 0.0
H1605 H 0.5435 0.16494 0.74525 0.0
H1606 H 0.47859 0.15797 0.74715 0.0
H1607 H 0.45907 0.10851 0.689 0.0
H1608 H 0.46027 0.09625 0.70666 0.0
H1609 H 0.48331 0.11819 0.70151 0.0
C1610 C 0.50652 0.11438 0.74375 0.0
C1611 C 0.52626 0.13207 0.74684 0.0
C1612 C 0.48957 0.11561 0.73709 0.0
C1613 C 0.49198 0.1345 0.73324 0.0
C1614 C 0.5117 0.15213 0.7361 0.0
H1615 H 0.40339 0.15518 0.67714 0.0
H1616 H 0.43268 0.15172 0.6873 0.0
C1617 C 0.52865 0.15094 0.74278 0.0
C1618 C 0.47382 0.13611 0.727 0.0
H1619 H 0.43451 0.11807 0.69619 0.0
C1620 C 0.46898 0.14928 0.73598 0.0
C1621 C 0.46139 0.12493 0.71234 0.0
C1622 C 0.46634 0.11132 0.70172 0.0
C1623 C 0.45199 0.15143 0.73081 0.0
C1624 C 0.4392 0.1398 0.71641 0.0
C1625 C 0.44416 0.1268 0.70732 0.0
C1626 C 0.42101 0.14143 0.71027 0.0
C1627 C 0.44817 0.1665 0.74065 0.0
C1628 C 0.40448 0.1365 0.71969 0.0
C1629 C 0.38765 0.13853 0.71394 0.0
C1630 C 0.38695 0.14539 0.69856 0.0
C1631 C 0.40337 0.14991 0.68905 0.0
C1632 C 0.42017 0.14791 0.69482 0.0
H1633 H 0.46217 0.17787 0.74875 0.0
H1634 H 0.44327 0.1749 0.73257 0.0
H1635 H 0.43563 0.15802 0.74843 0.0
H1636 H 0.40457 0.13107 0.73151 0.0
H1637 H 0.37528 0.13481 0.72158 0.0
H1638 H 0.94238 0.42355 0.73646 0.0
H1639 H 0.94271 0.39228 0.72677 0.0
H1640 H 0.87805 0.36324 0.70922 0.0
H1641 H 0.87726 0.39377 0.71932 0.0
H1642 H 0.91065 0.34837 0.73588 0.0
H1643 H 0.91177 0.35885 0.66991 0.0
H1644 H 0.92219 0.38014 0.6857 0.0
H1645 H 0.89473 0.36464 0.68053 0.0
C1646 C 0.92822 0.41046 0.73061 0.0
C1647 C 0.90985 0.41127 0.72851 0.0
C1648 C 0.92849 0.39271 0.72501 0.0
C1649 C 0.91048 0.3757 0.7171 0.0
C1650 C 0.89218 0.37641 0.71505 0.0
H1651 H 0.85225 0.25385 0.67417 0.0
H1652 H 0.86576 0.29017 0.68278 0.0
C1653 C 0.89182 0.39395 0.72076 0.0
C1654 C 0.91011 0.3566 0.71148 0.0
H1655 H 0.90129 0.32513 0.67697 0.0
C1656 C 0.90907 0.34336 0.72303 0.0
C1657 C 0.90791 0.35025 0.69472 0.0
C1658 C 0.90935 0.36423 0.68194 0.0
C1659 C 0.90455 0.32329 0.7182 0.0
C1660 C 0.90149 0.31659 0.70136 0.0
C1661 C 0.90361 0.33029 0.68985 0.0
C1662 C 0.89422 0.29495 0.69544 0.0
C1663 C 0.90181 0.30907 0.73112 0.0
C1664 C 0.90594 0.28571 0.69943 0.0
C1665 C 0.89817 0.26488 0.69466 0.0
C1666 C 0.87865 0.25303 0.68562 0.0
C1667 C 0.86731 0.26254 0.68114 0.0
C1668 C 0.87502 0.2833 0.68602 0.0
H1669 H 0.90039 0.31528 0.74319 0.0
H1670 H 0.88785 0.29375 0.72768 0.0
H1671 H 0.91547 0.30699 0.7324 0.0
H1672 H 0.92099 0.29455 0.70638 0.0
H1673 H 0.90738 0.25805 0.69816 0.0
H1674 H 0.18004 0.92376 0.62209 0.0
H1675 H 0.21078 0.95552 0.63436 0.0
H1676 H 0.17367 0.98384 0.64095 0.0
H1677 H 0.14308 0.95266 0.62812 0.0
H1678 H 0.22167 0.9983 0.62052 0.0
H1679 H 0.21215 0.99263 0.68661 0.0
H1680 H 0.20237 0.97018 0.67203 0.0
H1681 H 0.18949 0.98481 0.6726 0.0
C1682 C 0.17837 0.93671 0.62616 0.0
C1683 C 0.159 0.93557 0.62405 0.0
C1684 C 0.19593 0.95478 0.63325 0.0
C1685 C 0.19439 0.97189 0.63859 0.0
C1686 C 0.17507 0.97066 0.63704 0.0
H1687 H 0.26994 0.09608 0.68108 0.0
H1688 H 0.24321 0.06065 0.67227 0.0
C1689 C 0.15756 0.95272 0.6298 0.0
C1690 C 0.21311 0.99163 0.6447 0.0
H1691 H 0.23833 0.02428 0.67919 0.0
C1692 C 0.22554 0.00396 0.63335 0.0
C1693 C 0.21784 0.99889 0.66141 0.0
C1694 C 0.20489 0.98599 0.67397 0.0
C1695 C 0.24227 0.02379 0.63822 0.0
C1696 C 0.247 0.03122 0.65498 0.0
C1697 C 0.23476 0.01859 0.66636 0.0
C1698 C 0.26371 0.05247 0.66085 0.0
C1699 C 0.25404 0.03692 0.62527 0.0
C1700 C 0.28426 0.05962 0.65762 0.0
C1701 C 0.29959 0.08002 0.66248 0.0
C1702 C 0.29471 0.09353 0.67092 0.0
C1703 C 0.27426 0.08611 0.67461 0.0
C1704 C 0.25894 0.06582 0.66959 0.0
H1705 H 0.24517 0.03104 0.61301 0.0
H1706 H 0.25779 0.05306 0.62807 0.0
H1707 H 0.26875 0.03684 0.62472 0.0
H1708 H 0.28844 0.04947 0.65127 0.0
H1709 H 0.31524 0.08521 0.6596 0.0
H1710 H 0.06809 0.2442 0.61587 0.0
H1711 H 0.03729 0.24169 0.62664 0.0
H1712 H 0.01022 0.17605 0.62552 0.0
H1713 H 0.04047 0.17829 0.61411 0.0
H1714 H 0.98303 0.18632 0.61249 0.0
H1715 H 0.01977 0.2321 0.67225 0.0
H1716 H 0.03146 0.24553 0.65519 0.0
H1717 H 0.03279 0.22307 0.65935 0.0
C1718 C 0.05557 0.22922 0.61789 0.0
C1719 C 0.05688 0.21147 0.61419 0.0
C1720 C 0.03806 0.22784 0.62424 0.0
C1721 C 0.02154 0.20871 0.62716 0.0
C1722 C 0.02282 0.191 0.62351 0.0
H1723 H 0.91768 0.18621 0.68193 0.0
H1724 H 0.9493 0.1893 0.67239 0.0
C1725 C 0.04025 0.19234 0.61711 0.0
C1726 C 1.00253 0.20695 0.63334 0.0
H1727 H 0.98486 0.22316 0.66486 0.0
C1728 C 0.98344 0.19434 0.62397 0.0
C1729 C 1.00299 0.2172 0.64842 0.0
C1730 C 0.02281 0.23008 0.65948 0.0
C1731 C 0.96488 0.1919 0.62912 0.0
C1732 C 0.96543 0.20269 0.64392 0.0
C1733 C 0.98447 0.21506 0.65343 0.0
C1734 C 0.94638 0.20117 0.6498 0.0
C1735 C 0.94482 0.17746 0.61879 0.0
C1736 C 0.93435 0.20709 0.6404 0.0
C1737 C 0.91622 0.20526 0.64578 0.0
C1738 C 0.90978 0.19764 0.66078 0.0
C1739 C 0.92209 0.19208 0.67031 0.0
C1740 C 0.94021 0.19387 0.66489 0.0
H1741 H 0.94636 0.16629 0.61047 0.0
H1742 H 0.93222 0.16881 0.62649 0.0
H1743 H 0.94024 0.18647 0.61119 0.0
H1744 H 0.939 0.21317 0.62888 0.0
H1745 H 0.90724 0.20982 0.63813 0.0
H1746 H 0.81353 0.8583 0.65548 0.0
H1747 H 0.81043 0.82705 0.66487 0.0
H1748 H 0.74704 0.7926 0.64347 0.0
H1749 H 0.74971 0.82415 0.63438 0.0
H1750 H 0.77807 0.79554 0.68456 0.0
H1751 H 0.7812 0.76777 0.62127 0.0
H1752 H 0.79026 0.79456 0.62717 0.0
H1753 H 0.76307 0.77632 0.62488 0.0
C1754 C 0.7987 0.84426 0.65312 0.0
C1755 C 0.78184 0.84378 0.64418 0.0
C1756 C 0.79702 0.82638 0.65844 0.0
C1757 C 0.77856 0.80762 0.6548 0.0
C1758 C 0.76145 0.80702 0.64631 0.0
H1759 H 0.78071 0.69358 0.66233 0.0
H1760 H 0.76719 0.71655 0.65748 0.0
C1761 C 0.76305 0.825 0.64106 0.0
C1762 C 0.77812 0.78868 0.65892 0.0
H1763 H 0.78499 0.75029 0.64245 0.0
C1764 C 0.77918 0.78535 0.67536 0.0
C1765 C 0.77946 0.77546 0.64685 0.0
C1766 C 0.77851 0.77859 0.62902 0.0
C1767 C 0.78238 0.76953 0.68014 0.0
C1768 C 0.78519 0.75719 0.66816 0.0
C1769 C 0.78295 0.75983 0.65163 0.0
C1770 C 0.7922 0.7427 0.67246 0.0
C1771 C 0.78301 0.76641 0.69797 0.0
C1772 C 0.81078 0.74979 0.68247 0.0
C1773 C 0.81849 0.73668 0.68534 0.0
C1774 C 0.80795 0.71632 0.67802 0.0
C1775 C 0.78926 0.7092 0.6681 0.0
C1776 C 0.78146 0.72228 0.66536 0.0
H1777 H 0.77345 0.77145 0.7044 0.0
H1778 H 0.77743 0.75007 0.69974 0.0
H1779 H 0.79918 0.77583 0.70373 0.0
H1780 H 0.81966 0.76565 0.68767 0.0
H1781 H 0.83301 0.74268 0.69295 0.0
H1782 H 0.00671 0.84668 0.6061 0.0
H1783 H 0.97862 0.81653 0.61623 0.0
H1784 H 0.02241 0.81485 0.65158 0.0
H1785 H 0.05067 0.84523 0.64154 0.0
H1786 H 0.97297 0.77565 0.62049 0.0
H1787 H 0.97975 0.8212 0.67846 0.0
H1788 H 0.99113 0.8332 0.66065 0.0
H1789 H 1.00287 0.82195 0.67269 0.0
C1790 C 0.01038 0.83976 0.61592 0.0
C1791 C 0.03085 0.8484 0.62314 0.0
C1792 C 0.99435 0.82251 0.62166 0.0
C1793 C 0.99842 0.81367 0.63479 0.0
C1794 C 0.01895 0.82162 0.64154 0.0
H1795 H 0.90631 0.72325 0.69143 0.0
H1796 H 0.93908 0.74792 0.68176 0.0
C1797 C 0.03507 0.83884 0.63571 0.0
C1798 C 0.98092 0.79688 0.64187 0.0
H1799 H 0.9529 0.78683 0.6746 0.0
C1800 C 0.96866 0.77798 0.63238 0.0
C1801 C 0.9754 0.79999 0.6574 0.0
C1802 C 0.98783 0.82019 0.66792 0.0
C1803 C 0.95083 0.76217 0.63793 0.0
C1804 C 0.94482 0.76557 0.65319 0.0
C1805 C 0.95747 0.78425 0.66289 0.0
C1806 C 0.92499 0.75036 0.65898 0.0
C1807 C 0.93867 0.74196 0.62738 0.0
C1808 C 0.90615 0.74385 0.64955 0.0
C1809 C 0.88745 0.72972 0.65499 0.0
C1810 C 0.88713 0.722 0.67012 0.0
C1811 C 0.90599 0.72888 0.67972 0.0
C1812 C 0.92474 0.74295 0.67421 0.0
H1813 H 0.94857 0.73947 0.61916 0.0
H1814 H 0.93163 0.72887 0.63488 0.0
H1815 H 0.92607 0.74204 0.61965 0.0
H1816 H 0.90588 0.74981 0.638 0.0
H1817 H 0.87324 0.72493 0.64733 0.0
H1818 H 0.1495 0.1547 0.59845 0.0
H1819 H 0.18281 0.15825 0.60801 0.0
H1820 H 0.19275 0.20536 0.64553 0.0
H1821 H 0.15927 0.20184 0.63599 0.0
H1822 H 0.22544 0.19483 0.61389 0.0
H1823 H 0.193 0.15742 0.66941 0.0
H1824 H 0.17671 0.15556 0.6516 0.0
H1825 H 0.19018 0.179 0.66493 0.0
C1826 C 0.15893 0.16603 0.60859 0.0
C1827 C 0.15174 0.1779 0.61655 0.0
C1828 C 0.17796 0.16807 0.61401 0.0
C1829 C 0.19011 0.18187 0.62759 0.0
C1830 C 0.18349 0.19449 0.6351 0.0
H1831 H 0.29407 0.18617 0.68554 0.0
H1832 H 0.26684 0.19269 0.67517 0.0
C1833 C 0.16447 0.19259 0.62957 0.0
C1834 C 0.20891 0.18189 0.63444 0.0
H1835 H 0.22717 0.16611 0.66603 0.0
C1836 C 0.22594 0.18871 0.62535 0.0
C1837 C 0.20947 0.17389 0.64938 0.0
C1838 C 0.19137 0.16591 0.65943 0.0
C1839 C 0.24355 0.18771 0.63081 0.0
C1840 C 0.24388 0.17911 0.64553 0.0
C1841 C 0.22696 0.17267 0.65475 0.0
C1842 C 0.26127 0.17607 0.65143 0.0
C1843 C 0.2617 0.19612 0.62082 0.0
C1844 C 0.26721 0.16444 0.6416 0.0
C1845 C 0.28292 0.16082 0.64746 0.0
C1846 C 0.29281 0.16845 0.66339 0.0
C1847 C 0.28679 0.18003 0.67323 0.0
C1848 C 0.27121 0.18379 0.6673 0.0
H1849 H 0.26187 0.20788 0.61327 0.0
H1850 H 0.27661 0.20309 0.62869 0.0
H1851 H 0.26049 0.18343 0.61244 0.0
H1852 H 0.25941 0.15779 0.62949 0.0
H1853 H 0.28701 0.15169 0.63959 0.0
H1854 H 0.86032 0.99642 0.65758 0.0
H1855 H 0.85706 0.02691 0.65856 0.0
H1856 H 0.79055 0.98896 0.65356 0.0
H1857 H 0.79368 0.95827 0.65397 0.0
H1858 H 0.84099 0.0407 0.63769 0.0
H1859 H 0.7986 0.02675 0.69261 0.0
H1860 H 0.80968 0.01148 0.68601 0.0
H1861 H 0.78537 0.00672 0.67615 0.0
C1862 C 0.84496 0.99447 0.65701 0.0
C1863 C 0.82728 0.97481 0.65601 0.0
C1864 C 0.84312 0.01197 0.65737 0.0
C1865 C 0.82357 0.01028 0.65647 0.0
C1866 C 0.80582 0.99068 0.65474 0.0
H1867 H 0.82246 0.12437 0.64274 0.0
H1868 H 0.81508 0.0889 0.63838 0.0
C1869 C 0.80765 0.97311 0.65469 0.0
C1870 C 0.82212 0.02922 0.65739 0.0
H1871 H 0.80457 0.05592 0.6796 0.0
C1872 C 0.83297 0.04401 0.64683 0.0
C1873 C 0.81179 0.03358 0.66942 0.0
C1874 C 0.80087 0.0189 0.68179 0.0
C1875 C 0.83443 0.0633 0.64829 0.0
C1876 C 0.8239 0.06759 0.66019 0.0
C1877 C 0.81249 0.05255 0.67042 0.0
C1878 C 0.82591 0.08812 0.66309 0.0
C1879 C 0.84817 0.07919 0.63764 0.0
C1880 C 0.83319 0.09901 0.67867 0.0
C1881 C 0.8368 0.11902 0.6813 0.0
C1882 C 0.83348 0.12859 0.66833 0.0
C1883 C 0.82544 0.11743 0.65289 0.0
C1884 C 0.82136 0.09724 0.65036 0.0
H1885 H 0.85938 0.07537 0.63256 0.0
H1886 H 0.83847 0.0798 0.62723 0.0
H1887 H 0.85698 0.09467 0.64453 0.0
H1888 H 0.83672 0.09227 0.68871 0.0
H1889 H 0.84303 0.12729 0.69332 0.0
H1890 H 0.51958 0.3716 0.74129 0.0
H1891 H 0.48571 0.34019 0.73474 0.0
H1892 H 0.49403 0.34283 0.68358 0.0
H1893 H 0.52811 0.37368 0.69017 0.0
H1894 H 0.4492 0.32813 0.7156 0.0
H1895 H 0.48865 0.28808 0.6913 0.0
H1896 H 0.50264 0.3133 0.70238 0.0
H1897 H 0.49355 0.3102 0.68116 0.0
C1898 C 0.51391 0.36564 0.72865 0.0
C1899 C 0.52639 0.37483 0.71622 0.0
C1900 C 0.49464 0.34771 0.72491 0.0
C1901 C 0.48761 0.33887 0.7087 0.0
C1902 C 0.4994 0.34905 0.6962 0.0
H1903 H 0.38461 0.22164 0.66445 0.0
H1904 H 0.4127 0.25747 0.66931 0.0
C1905 C 0.51875 0.36673 0.69994 0.0
C1906 C 0.46878 0.31832 0.70494 0.0
H1907 H 0.45207 0.26954 0.68792 0.0
C1908 C 0.44981 0.31532 0.70955 0.0
C1909 C 0.46964 0.30154 0.69716 0.0
C1910 C 0.48973 0.30333 0.69285 0.0
C1911 C 0.43164 0.29604 0.70639 0.0
C1912 C 0.43254 0.27941 0.69849 0.0
C1913 C 0.45144 0.28243 0.69382 0.0
C1914 C 0.41432 0.25844 0.69559 0.0
C1915 C 0.41158 0.29359 0.7114 0.0
C1916 C 0.406 0.24716 0.70876 0.0
C1917 C 0.39011 0.22668 0.70604 0.0
C1918 C 0.38221 0.21709 0.69007 0.0
C1919 C 0.39029 0.22858 0.67689 0.0
C1920 C 0.40632 0.24904 0.67964 0.0
H1921 H 0.41251 0.30866 0.71403 0.0
H1922 H 0.39867 0.28414 0.70173 0.0
H1923 H 0.40791 0.28557 0.7226 0.0
H1924 H 0.41221 0.25403 0.72116 0.0
H1925 H 0.38424 0.21829 0.71648 0.0
H1926 H 0.63436 0.14376 0.72355 0.0
H1927 H 0.6628 0.14125 0.71234 0.0
H1928 H 0.70478 0.18152 0.75339 0.0
H1929 H 0.67655 0.18405 0.76455 0.0
H1930 H 0.69936 0.1766 0.70425 0.0
H1931 H 0.71885 0.13517 0.74881 0.0
H1932 H 0.6942 0.13417 0.74703 0.0
H1933 H 0.71657 0.15608 0.7579 0.0
C1934 C 0.64954 0.15157 0.73038 0.0
C1935 C 0.65326 0.16405 0.74494 0.0
C1936 C 0.66579 0.15024 0.72392 0.0
C1937 C 0.68591 0.16108 0.73208 0.0
C1938 C 0.68937 0.17277 0.747 0.0
H1939 H 0.81129 0.19575 0.71661 0.0
H1940 H 0.77879 0.1891 0.72672 0.0
C1941 C 0.67324 0.17426 0.75334 0.0
C1942 C 0.70373 0.1619 0.7244 0.0
H1943 H 0.74421 0.15337 0.73083 0.0
C1944 C 0.70901 0.17125 0.70991 0.0
C1945 C 0.71642 0.15511 0.73189 0.0
C1946 C 0.71117 0.1444 0.7472 0.0
C1947 C 0.72708 0.17473 0.70305 0.0
C1948 C 0.73998 0.16821 0.71067 0.0
C1949 C 0.73439 0.15842 0.72498 0.0
C1950 C 0.75968 0.17202 0.70435 0.0
C1951 C 0.73262 0.18621 0.68812 0.0
C1952 C 0.75985 0.16448 0.68843 0.0
C1953 C 0.7785 0.16841 0.68255 0.0
C1954 C 0.79738 0.17974 0.69253 0.0
C1955 C 0.7971 0.18698 0.70855 0.0
C1956 C 0.77848 0.18316 0.71438 0.0
H1957 H 0.72434 0.19487 0.68645 0.0
H1958 H 0.74952 0.19716 0.68885 0.0
H1959 H 0.72816 0.17507 0.67717 0.0
H1960 H 0.74554 0.15542 0.68057 0.0
H1961 H 0.77806 0.16239 0.67021 0.0
H1962 H 0.86732 0.4928 0.6817 0.0
H1963 H 0.86943 0.52545 0.67691 0.0
H1964 H 0.88114 0.54346 0.72874 0.0
H1965 H 0.87966 0.51103 0.73349 0.0
H1966 H 0.84248 0.53534 0.68727 0.0
H1967 H 0.92127 0.59661 0.7121 0.0
H1968 H 0.91451 0.5701 0.70811 0.0
H1969 H 0.9083 0.57878 0.72655 0.0
C1970 C 0.87083 0.50398 0.69201 0.0
C1971 C 0.87326 0.49948 0.70795 0.0
C1972 C 0.87206 0.52259 0.68928 0.0
C1973 C 0.87558 0.53697 0.70245 0.0
C1974 C 0.8789 0.53284 0.71837 0.0
H1975 H 0.84875 0.63459 0.71645 0.0
H1976 H 0.85845 0.60831 0.71922 0.0
C1977 C 0.87794 0.51429 0.72109 0.0
C1978 C 0.8731 0.55486 0.69963 0.0
H1979 H 0.89588 0.60693 0.70762 0.0
C1980 C 0.85429 0.55101 0.69152 0.0
C1981 C 0.88848 0.57529 0.70527 0.0
C1982 C 0.90935 0.58048 0.71335 0.0
C1983 C 0.85024 0.56695 0.68923 0.0
C1984 C 0.86541 0.58727 0.69516 0.0
C1985 C 0.88431 0.59125 0.70312 0.0
C1986 C 0.86144 0.6044 0.69359 0.0
C1987 C 0.82953 0.56193 0.68088 0.0
C1988 C 0.86025 0.61102 0.67829 0.0
C1989 C 0.8547 0.62601 0.67664 0.0
C1990 C 0.85021 0.63455 0.69028 0.0
C1991 C 0.85197 0.62823 0.70568 0.0
C1992 C 0.85761 0.61331 0.70732 0.0
H1993 H 0.81835 0.54515 0.67924 0.0
H1994 H 0.82277 0.56968 0.68799 0.0
H1995 H 0.83165 0.56765 0.66868 0.0
H1996 H 0.86324 0.6043 0.66759 0.0
H1997 H 0.85356 0.63058 0.66462 0.0
H1998 H 0.47487 0.91228 0.24737 0.0
H1999 H 0.48718 0.93094 0.22338 0.0
H2000 H 0.4242 0.91008 0.20452 0.0
H2001 H 0.41183 0.89149 0.22831 0.0
H2002 H 0.47863 0.91693 0.19024 0.0
H2003 H 0.45162 0.97206 0.20361 0.0
H2004 H 0.45325 0.95626 0.21853 0.0
H2005 H 0.43157 0.94572 0.20309 0.0
C2006 C 0.46366 0.91163 0.23807 0.0
C2007 C 0.44239 0.90065 0.23988 0.0
C2008 C 0.47072 0.92234 0.22441 0.0
C2009 C 0.45664 0.92229 0.21233 0.0
C2010 C 0.43539 0.91085 0.2139 0.0
H2011 H 0.46028 0.97084 0.1197 0.0
H2012 H 0.45088 0.95296 0.14425 0.0
C2013 C 0.42834 0.90022 0.22752 0.0
C2014 C 0.46401 0.93391 0.19796 0.0
H2015 H 0.46205 0.97079 0.17712 0.0
C2016 C 0.47518 0.92884 0.18744 0.0
C2017 C 0.45951 0.94946 0.19432 0.0
C2018 C 0.4485 0.95637 0.20556 0.0
C2019 C 0.4814 0.93845 0.17311 0.0
C2020 C 0.47655 0.95373 0.16935 0.0
C2021 C 0.46564 0.959 0.17998 0.0
C2022 C 0.48245 0.96431 0.15433 0.0
C2023 C 0.49256 0.93176 0.16189 0.0
C2024 C 0.50333 0.97677 0.15191 0.0
C2025 C 0.50876 0.98697 0.13786 0.0
C2026 C 0.49341 0.98495 0.12596 0.0
C2027 C 0.4725 0.97251 0.12849 0.0
C2028 C 0.46709 0.96238 0.14256 0.0
H2029 H 0.49089 0.91679 0.16456 0.0
H2030 H 0.48666 0.93045 0.14895 0.0
H2031 H 0.50929 0.94342 0.16345 0.0
H2032 H 0.51544 0.97874 0.16095 0.0
H2033 H 0.525 0.9963 0.13625 0.0
H2034 H 0.11231 0.52585 0.24844 0.0
H2035 H 0.09832 0.52466 0.22074 0.0
H2036 H 0.08297 0.57048 0.23664 0.0
H2037 H 0.09646 0.57129 0.2647 0.0
H2038 H 0.05068 0.53722 0.21803 0.0
H2039 H 0.1219 0.56526 0.18715 0.0
H2040 H 0.11776 0.54448 0.19882 0.0
H2041 H 0.12242 0.56838 0.20904 0.0
C2042 C 0.10595 0.53568 0.24608 0.0
C2043 C 0.10533 0.54855 0.25878 0.0
C2044 C 0.09822 0.53519 0.23018 0.0
C2045 C 0.08991 0.54772 0.22657 0.0
C2046 C 0.08949 0.56082 0.23916 0.0
H2047 H 0.05055 0.54716 0.12418 0.0
H2048 H 0.06758 0.55894 0.15208 0.0
C2049 C 0.09726 0.56133 0.25514 0.0
C2050 C 0.08044 0.54593 0.20984 0.0
H2051 H 0.08966 0.54574 0.16993 0.0
C2052 C 0.05927 0.5394 0.20751 0.0
C2053 C 0.09171 0.54908 0.19615 0.0
C2054 C 0.11476 0.5574 0.19791 0.0
C2055 C 0.04883 0.53486 0.19181 0.0
C2056 C 0.05979 0.53652 0.17811 0.0
C2057 C 0.08119 0.54415 0.18045 0.0
C2058 C 0.04921 0.52957 0.1613 0.0
C2059 C 0.02612 0.52816 0.19006 0.0
C2060 C 0.03349 0.50908 0.15718 0.0
C2061 C 0.02378 0.50232 0.14128 0.0
C2062 C 0.02975 0.51586 0.12913 0.0
C2063 C 0.04571 0.53632 0.13324 0.0
C2064 C 0.05538 0.5431 0.14918 0.0
H2065 H 0.02178 0.5339 0.20096 0.0
H2066 H 0.02192 0.5337 0.17911 0.0
H2067 H 0.01688 0.51114 0.18879 0.0
H2068 H 0.0289 0.49822 0.16623 0.0
H2069 H 0.01181 0.48638 0.13844 0.0
H2070 H 0.48552 0.58804 0.23556 0.0
H2071 H 0.49046 0.57571 0.20921 0.0
H2072 H 0.45079 0.51312 0.219 0.0
H2073 H 0.44589 0.52543 0.2457 0.0
H2074 H 0.49038 0.52254 0.20692 0.0
H2075 H 0.44624 0.54881 0.16884 0.0
H2076 H 0.46475 0.56807 0.18432 0.0
H2077 H 0.44307 0.54534 0.19012 0.0
C2078 C 0.47795 0.57163 0.2322 0.0
C2079 C 0.46544 0.55768 0.24277 0.0
C2080 C 0.48062 0.56463 0.21706 0.0
C2081 C 0.47082 0.54354 0.2121 0.0
C2082 C 0.45838 0.52948 0.2226 0.0
H2083 H 0.47435 0.50173 0.11176 0.0
H2084 H 0.46231 0.50494 0.13807 0.0
C2085 C 0.45556 0.53651 0.23779 0.0
C2086 C 0.47416 0.53646 0.19607 0.0
H2087 H 0.46906 0.54077 0.1554 0.0
C2088 C 0.48548 0.52624 0.19562 0.0
C2089 C 0.46757 0.54114 0.18135 0.0
C2090 C 0.45456 0.55128 0.1811 0.0
C2091 C 0.49124 0.52144 0.18086 0.0
C2092 C 0.48569 0.52722 0.16624 0.0
C2093 C 0.4735 0.53654 0.16663 0.0
C2094 C 0.49301 0.52449 0.15053 0.0
C2095 C 0.50334 0.51036 0.18104 0.0
C2096 C 0.51426 0.53458 0.14877 0.0
C2097 C 0.52118 0.53274 0.13378 0.0
C2098 C 0.50698 0.52084 0.12021 0.0
C2099 C 0.48569 0.51078 0.12202 0.0
C2100 C 0.47878 0.51267 0.13701 0.0
H2101 H 0.50117 0.5019 0.19198 0.0
H2102 H 0.49872 0.49935 0.16997 0.0
H2103 H 0.52007 0.52175 0.18133 0.0
H2104 H 0.5255 0.54411 0.15895 0.0
H2105 H 0.53768 0.54056 0.13285 0.0
H2106 H 0.95576 0.46796 0.76978 0.0
H2107 H 0.97008 0.48044 0.79815 0.0
H2108 H 0.91577 0.48343 0.80814 0.0
H2109 H 0.90079 0.46985 0.77999 0.0
H2110 H 0.97985 0.5148 0.81813 0.0
H2111 H 0.91621 0.44562 0.8406 0.0
H2112 H 0.9199 0.4474 0.81928 0.0
H2113 H 0.90785 0.46005 0.82904 0.0
C2114 C 0.94681 0.47121 0.77801 0.0
C2115 C 0.92696 0.46755 0.77264 0.0
C2116 C 0.95511 0.47851 0.7942 0.0
C2117 C 0.9438 0.48242 0.80535 0.0
C2118 C 0.92455 0.48004 0.79983 0.0
H2119 H 0.97185 0.50877 0.91157 0.0
H2120 H 0.95779 0.50705 0.88361 0.0
C2121 C 0.91613 0.47254 0.78365 0.0
C2122 C 0.95179 0.48792 0.82286 0.0
H2123 H 0.94164 0.47063 0.86035 0.0
C2124 C 0.97144 0.50523 0.82738 0.0
C2125 C 0.94081 0.47536 0.83492 0.0
C2126 C 0.92012 0.45597 0.83075 0.0
C2127 C 0.98051 0.51013 0.84359 0.0
C2128 C 0.96968 0.49735 0.85552 0.0
C2129 C 0.94981 0.48044 0.85114 0.0
C2130 C 0.97928 0.50021 0.87237 0.0
C2131 C 1.00168 0.52881 0.84782 0.0
C2132 C 0.99595 0.49687 0.87525 0.0
C2133 C 1.00381 0.49751 0.89117 0.0
C2134 C 0.99516 0.50154 0.90456 0.0
C2135 C 0.97871 0.50535 0.90158 0.0
C2136 C 0.97076 0.50454 0.88562 0.0
H2137 H 1.00567 0.53972 0.83839 0.0
H2138 H 1.00263 0.53693 0.85978 0.0
H2139 H 0.0134 0.52392 0.84871 0.0
H2140 H 1.00244 0.49307 0.86517 0.0
H2141 H 0.01616 0.49408 0.89294 0.0
H2142 H 0.57022 0.44614 0.78691 0.0
H2143 H 0.55779 0.45228 0.8121 0.0
H2144 H 0.55914 0.50555 0.79451 0.0
H2145 H 0.57161 0.49951 0.76923 0.0
H2146 H 0.57771 0.51345 0.82563 0.0
H2147 H 0.50084 0.44263 0.82024 0.0
H2148 H 0.52173 0.43766 0.81841 0.0
H2149 H 0.51616 0.45091 0.8033 0.0
C2150 C 0.56751 0.45895 0.78826 0.0
C2151 C 0.57181 0.47228 0.77601 0.0
C2152 C 0.56039 0.46244 0.80268 0.0
C2153 C 0.55723 0.47921 0.80511 0.0
C2154 C 0.5614 0.49248 0.79288 0.0
H2155 H 0.49509 0.49918 0.88402 0.0
H2156 H 0.50488 0.49278 0.85755 0.0
C2157 C 0.56858 0.48904 0.77847 0.0
C2158 C 0.55054 0.48346 0.82071 0.0
H2159 H 0.5126 0.46249 0.84618 0.0
C2160 C 0.56342 0.50236 0.83008 0.0
C2161 C 0.53176 0.46909 0.82642 0.0
C2162 C 0.51671 0.44902 0.8165 0.0
C2163 C 0.55826 0.50709 0.84515 0.0
C2164 C 0.53991 0.49237 0.85118 0.0
C2165 C 0.52679 0.47367 0.84164 0.0
C2166 C 0.534 0.49615 0.8673 0.0
C2167 C 0.57238 0.52795 0.85437 0.0
C2168 C 0.54696 0.49988 0.88162 0.0
C2169 C 0.54151 0.50373 0.89676 0.0
C2170 C 0.52286 0.50377 0.89793 0.0
C2171 C 0.50971 0.49961 0.88357 0.0
C2172 C 0.51521 0.4958 0.86843 0.0
H2173 H 0.58234 0.53924 0.84622 0.0
H2174 H 0.56339 0.53397 0.86044 0.0
H2175 H 0.58266 0.52663 0.86388 0.0
H2176 H 0.56134 0.49983 0.88109 0.0
H2177 H 0.55209 0.50703 0.90752 0.0
H2178 H 0.53513 0.12189 0.80167 0.0
H2179 H 0.52796 0.10444 0.82639 0.0
H2180 H 0.56464 0.07736 0.81318 0.0
H2181 H 0.57211 0.09513 0.78836 0.0
H2182 H 0.50782 0.06359 0.82884 0.0
H2183 H 0.58746 0.09959 0.86027 0.0
H2184 H 0.58117 0.10964 0.84291 0.0
H2185 H 0.58429 0.08756 0.84007 0.0
C2186 C 0.54167 0.1122 0.804 0.0
C2187 C 0.55405 0.10974 0.79298 0.0
C2188 C 0.53762 0.10229 0.81818 0.0
C2189 C 0.54587 0.0897 0.82176 0.0
C2190 C 0.55842 0.08732 0.81087 0.0
H2191 H 0.52535 0.0121 0.90111 0.0
H2192 H 0.53577 0.02902 0.87619 0.0
C2193 C 0.56262 0.0974 0.79667 0.0
C2194 C 0.54047 0.07853 0.83657 0.0
H2195 H 0.56085 0.07276 0.87271 0.0
C2196 C 0.51945 0.06563 0.83843 0.0
C2197 C 0.55562 0.08112 0.84908 0.0
C2198 C 0.5784 0.09536 0.84811 0.0
C2199 C 0.51315 0.05534 0.85241 0.0
C2200 C 0.52826 0.05814 0.865 0.0
C2201 C 0.5493 0.0707 0.86305 0.0
C2202 C 0.52242 0.04833 0.88033 0.0
C2203 C 0.49036 0.0414 0.85357 0.0
C2204 C 0.51171 0.05379 0.89105 0.0
C2205 C 0.50571 0.04414 0.9053 0.0
C2206 C 0.51027 0.0288 0.90909 0.0
C2207 C 0.52131 0.02362 0.89843 0.0
C2208 C 0.52741 0.03336 0.88424 0.0
H2209 H 0.48114 0.0372 0.84149 0.0
H2210 H 0.48748 0.0271 0.85881 0.0
H2211 H 0.48477 0.04939 0.86173 0.0
H2212 H 0.50792 0.06548 0.88836 0.0
H2213 H 0.49716 0.04843 0.91318 0.0
H2214 H 0.13989 0.24708 0.57836 0.0
H2215 H 0.15191 0.26578 0.55444 0.0
H2216 H 0.08955 0.25068 0.53875 0.0
H2217 H 0.07729 0.23128 0.56215 0.0
H2218 H 0.10821 0.24399 0.51396 0.0
H2219 H 0.15979 0.32167 0.54634 0.0
H2220 H 0.16562 0.30255 0.55255 0.0
H2221 H 0.14134 0.30051 0.5564 0.0
C2222 C 0.12872 0.24771 0.5698 0.0
C2223 C 0.10763 0.23779 0.57231 0.0
C2224 C 0.13566 0.25861 0.55622 0.0
C2225 C 0.12169 0.25994 0.54492 0.0
C2226 C 0.10065 0.25002 0.54736 0.0
H2227 H 0.14896 0.3425 0.46943 0.0
H2228 H 0.13853 0.32443 0.4938 0.0
C2229 C 0.0937 0.23908 0.56087 0.0
C2230 C 0.12873 0.27104 0.53023 0.0
H2231 H 0.16106 0.31798 0.51777 0.0
C2232 C 0.11976 0.26018 0.5148 0.0
C2233 C 0.14361 0.29223 0.53132 0.0
C2234 C 0.15303 0.30501 0.54754 0.0
C2235 C 0.12533 0.26984 0.50045 0.0
C2236 C 0.14062 0.29089 0.50152 0.0
C2237 C 0.14949 0.30181 0.51695 0.0
C2238 C 0.1473 0.30196 0.48678 0.0
C2239 C 0.11438 0.25751 0.4843 0.0
C2240 C 0.15598 0.29554 0.47481 0.0
C2241 C 0.16193 0.30583 0.46085 0.0
C2242 C 0.15955 0.32292 0.45864 0.0
C2243 C 0.15118 0.32952 0.4708 0.0
C2244 C 0.14515 0.31916 0.48472 0.0
H2245 H 0.09947 0.24355 0.48581 0.0
H2246 H 0.11127 0.26685 0.47592 0.0
H2247 H 0.12432 0.25248 0.47852 0.0
H2248 H 0.15827 0.28262 0.4763 0.0
H2249 H 0.16867 0.30056 0.45188 0.0
H2250 H 0.77831 0.85355 0.58829 0.0
H2251 H 0.76318 0.84971 0.56039 0.0
H2252 H 0.75144 0.89906 0.57255 0.0
H2253 H 0.76606 0.90269 0.60078 0.0
H2254 H 0.71909 0.84347 0.55259 0.0
H2255 H 0.78419 0.91099 0.52925 0.0
H2256 H 0.78846 0.89866 0.54594 0.0
H2257 H 0.77662 0.91401 0.54906 0.0
C2258 C 0.77237 0.86351 0.58512 0.0
C2259 C 0.77317 0.87828 0.59684 0.0
C2260 C 0.76388 0.86138 0.56914 0.0
C2261 C 0.75628 0.87412 0.56448 0.0
C2262 C 0.7574 0.88919 0.57596 0.0
H2263 H 0.70415 0.87794 0.46814 0.0
H2264 H 0.71929 0.8861 0.4966 0.0
C2265 C 0.76581 0.89127 0.59203 0.0
C2266 C 0.7464 0.87094 0.54773 0.0
H2267 H 0.75486 0.88968 0.5107 0.0
C2268 C 0.72681 0.85359 0.54341 0.0
C2269 C 0.75653 0.88431 0.53593 0.0
C2270 C 0.77766 0.90306 0.54013 0.0
C2271 C 0.71707 0.84913 0.52747 0.0
C2272 C 0.72751 0.86207 0.51545 0.0
C2273 C 0.74694 0.87971 0.5199 0.0
C2274 C 0.71871 0.85729 0.49814 0.0
C2275 C 0.69559 0.83073 0.52374 0.0
C2276 C 0.71377 0.83857 0.48947 0.0
C2277 C 0.70503 0.83384 0.47327 0.0
C2278 C 0.70138 0.84788 0.46536 0.0
C2279 C 0.70689 0.86687 0.47391 0.0
C2280 C 0.71547 0.87152 0.49016 0.0
H2281 H 0.68746 0.82646 0.5349 0.0
H2282 H 0.68609 0.83366 0.51463 0.0
H2283 H 0.69671 0.81739 0.51872 0.0
H2284 H 0.7167 0.82762 0.49522 0.0
H2285 H 0.70129 0.81926 0.46689 0.0
H2286 H 0.10447 0.8533 0.57436 0.0
H2287 H 0.10914 0.84173 0.54741 0.0
H2288 H 0.15923 0.90284 0.54324 0.0
H2289 H 0.15388 0.91473 0.56945 0.0
H2290 H 0.13388 0.88771 0.51597 0.0
H2291 H 0.15374 0.8298 0.53532 0.0
H2292 H 0.12908 0.82559 0.54046 0.0
H2293 H 0.15241 0.84792 0.54971 0.0
C2294 C 0.11642 0.86427 0.56766 0.0
C2295 C 0.12899 0.8849 0.57425 0.0
C2296 C 0.11923 0.85758 0.55234 0.0
C2297 C 0.1348 0.87133 0.54341 0.0
C2298 C 0.14722 0.89189 0.54993 0.0
H2299 H 0.19892 0.85589 0.46702 0.0
H2300 H 0.18496 0.85841 0.49235 0.0
C2301 C 0.1443 0.89862 0.56508 0.0
C2302 C 0.13811 0.86479 0.52708 0.0
H2303 H 0.15226 0.83342 0.5072 0.0
C2304 C 0.13778 0.87574 0.51402 0.0
C2305 C 0.14334 0.84927 0.52458 0.0
C2306 C 0.14487 0.83756 0.53827 0.0
C2307 C 0.1432 0.87216 0.49873 0.0
C2308 C 0.1484 0.85661 0.49619 0.0
C2309 C 0.14813 0.84522 0.50911 0.0
C2310 C 0.15584 0.85319 0.48069 0.0
C2311 C 0.14434 0.88584 0.48573 0.0
C2312 C 0.14392 0.84882 0.46566 0.0
C2313 C 0.1521 0.84789 0.45106 0.0
C2314 C 0.17224 0.85093 0.45121 0.0
C2315 C 0.1836 0.85403 0.46636 0.0
C2316 C 0.17553 0.85524 0.48091 0.0
H2317 H 0.14509 0.90014 0.49094 0.0
H2318 H 0.15809 0.89016 0.47902 0.0
H2319 H 0.13028 0.87751 0.47689 0.0
H2320 H 0.12847 0.84663 0.46518 0.0
H2321 H 0.14287 0.84553 0.43968 0.0
H2322 H 0.60467 0.8284 0.10607 0.0
H2323 H 0.62468 0.8457 0.13254 0.0
H2324 H 0.61043 0.78712 0.14848 0.0
H2325 H 0.59034 0.76981 0.1224 0.0
H2326 H 0.61154 0.83955 0.16453 0.0
H2327 H 0.67399 0.82174 0.15684 0.0
H2328 H 0.65659 0.82008 0.13992 0.0
H2329 H 0.6487 0.79943 0.15264 0.0
C2330 C 0.6058 0.81924 0.11525 0.0
C2331 C 0.5962 0.79776 0.11203 0.0
C2332 C 0.61727 0.82914 0.13031 0.0
C2333 C 0.61938 0.8177 0.1423 0.0
C2334 C 0.60945 0.79627 0.13922 0.0
H2335 H 0.63931 0.82629 0.24421 0.0
H2336 H 0.62669 0.82485 0.21601 0.0
C2337 C 0.59802 0.78641 0.12427 0.0
C2338 C 0.63145 0.82777 0.15829 0.0
H2339 H 0.66965 0.82984 0.18438 0.0
C2340 C 0.62451 0.83781 0.16881 0.0
C2341 C 0.6486 0.82584 0.16373 0.0
C2342 C 0.65756 0.81638 0.15263 0.0
C2343 C 0.63343 0.84471 0.18503 0.0
C2344 C 0.64941 0.84114 0.19086 0.0
C2345 C 0.65725 0.83238 0.17998 0.0
C2346 C 0.65699 0.84456 0.20841 0.0
C2347 C 0.62537 0.8554 0.1958 0.0
C2348 C 0.67827 0.85602 0.21358 0.0
C2349 C 0.68556 0.85674 0.22973 0.0
C2350 C 0.67171 0.84596 0.24101 0.0
C2351 C 0.65037 0.83508 0.23593 0.0
C2352 C 0.64311 0.8343 0.21978 0.0
H2353 H 0.61909 0.86337 0.18853 0.0
H2354 H 0.61258 0.84382 0.20205 0.0
H2355 H 0.63765 0.86679 0.20519 0.0
H2356 H 0.68927 0.86396 0.20499 0.0
H2357 H 0.70208 0.86538 0.23331 0.0
H2358 H 0.26972 0.83449 0.11999 0.0
H2359 H 0.25659 0.84123 0.14454 0.0
H2360 H 0.19481 0.79356 0.12626 0.0
H2361 H 0.2077 0.78696 0.10141 0.0
H2362 H 0.22374 0.85137 0.14761 0.0
H2363 H 0.2068 0.77793 0.17185 0.0
H2364 H 0.22374 0.78841 0.15609 0.0
H2365 H 0.19623 0.77607 0.15127 0.0
C2366 C 0.25327 0.82566 0.121 0.0
C2367 C 0.23977 0.81016 0.10868 0.0
C2368 C 0.24583 0.82946 0.13511 0.0
C2369 C 0.22479 0.81774 0.13728 0.0
C2370 C 0.21116 0.80257 0.12491 0.0
H2371 H 0.15861 0.81341 0.22155 0.0
H2372 H 0.16808 0.80718 0.19485 0.0
C2373 C 0.21857 0.7988 0.11074 0.0
C2374 C 0.21728 0.82122 0.15265 0.0
H2375 H 0.19835 0.79946 0.1873 0.0
C2376 C 0.21814 0.84004 0.15629 0.0
C2377 C 0.20993 0.80635 0.16389 0.0
C2378 C 0.2092 0.78608 0.16072 0.0
C2379 C 0.21172 0.84436 0.17089 0.0
C2380 C 0.20478 0.82966 0.18233 0.0
C2381 C 0.20369 0.81073 0.17855 0.0
C2382 C 0.19895 0.83372 0.19841 0.0
C2383 C 0.21213 0.8645 0.17377 0.0
C2384 C 0.21323 0.85055 0.20939 0.0
C2385 C 0.20783 0.85417 0.22461 0.0
C2386 C 0.18813 0.84087 0.22928 0.0
C2387 C 0.17395 0.82386 0.21836 0.0
C2388 C 0.17932 0.82033 0.20308 0.0
H2389 H 0.21161 0.87096 0.16214 0.0
H2390 H 0.19893 0.8627 0.18035 0.0
H2391 H 0.22672 0.87578 0.18127 0.0
H2392 H 0.22868 0.86075 0.20627 0.0
H2393 H 0.21922 0.86719 0.23287 0.0
H2394 H 0.19765 0.41673 0.11357 0.0
H2395 H 0.19087 0.40072 0.13904 0.0
H2396 H 0.24636 0.45299 0.16334 0.0
H2397 H 0.25282 0.4695 0.13805 0.0
H2398 H 0.21283 0.3894 0.15967 0.0
H2399 H 0.20247 0.45018 0.19135 0.0
H2400 H 0.20373 0.44805 0.16965 0.0
H2401 H 0.22702 0.4594 0.18346 0.0
C2402 C 0.20843 0.42485 0.12433 0.0
C2403 C 0.22566 0.44453 0.12378 0.0
C2404 C 0.20458 0.41562 0.13887 0.0
C2405 C 0.21784 0.42584 0.1532 0.0
C2406 C 0.23564 0.44501 0.15253 0.0
H2407 H 0.20845 0.3928 0.25332 0.0
H2408 H 0.22026 0.40959 0.22856 0.0
C2409 C 0.23948 0.45431 0.13798 0.0
C2410 C 0.21262 0.41659 0.16887 0.0
H2411 H 0.20058 0.42417 0.20694 0.0
C2412 C 0.21018 0.39702 0.17001 0.0
C2413 C 0.20912 0.42651 0.18237 0.0
C2414 C 0.21052 0.44711 0.18167 0.0
C2415 C 0.20441 0.38716 0.18426 0.0
C2416 C 0.2007 0.39699 0.19768 0.0
C2417 C 0.20345 0.41668 0.19665 0.0
C2418 C 0.19342 0.38687 0.21272 0.0
C2419 C 0.2025 0.36635 0.18491 0.0
C2420 C 0.1742 0.36875 0.2121 0.0
C2421 C 0.1673 0.35921 0.22625 0.0
C2422 C 0.17945 0.36762 0.24137 0.0
C2423 C 0.19857 0.38599 0.24196 0.0
C2424 C 0.20543 0.39555 0.2278 0.0
H2425 H 0.21093 0.36334 0.17552 0.0
H2426 H 0.20856 0.36498 0.19709 0.0
H2427 H 0.18594 0.35429 0.18261 0.0
H2428 H 0.16445 0.36204 0.20067 0.0
H2429 H 0.15233 0.34534 0.22535 0.0
H2430 H 0.74787 0.57066 0.8995 0.0
H2431 H 0.76068 0.59039 0.8763 0.0
H2432 H 0.82188 0.60123 0.89052 0.0
H2433 H 0.80939 0.58203 0.91417 0.0
H2434 H 0.79653 0.63366 0.87679 0.0
H2435 H 0.80504 0.57357 0.84149 0.0
H2436 H 0.78846 0.56776 0.8577 0.0
H2437 H 0.816 0.58067 0.86246 0.0
C2438 C 0.76416 0.57754 0.89795 0.0
C2439 C 0.7776 0.57477 0.90882 0.0
C2440 C 0.7714 0.58869 0.88458 0.0
C2441 C 0.79216 0.5971 0.88164 0.0
C2442 C 0.80573 0.59464 0.8925 0.0
H2443 H 0.85537 0.65679 0.79867 0.0
H2444 H 0.84627 0.64036 0.82392 0.0
C2445 C 0.79854 0.58361 0.90597 0.0
C2446 C 0.79945 0.60825 0.86708 0.0
H2447 H 0.81441 0.60412 0.82952 0.0
C2448 C 0.80051 0.62727 0.86645 0.0
C2449 C 0.8047 0.59988 0.85369 0.0
C2450 C 0.80343 0.57929 0.8537 0.0
C2451 C 0.80679 0.63825 0.85277 0.0
C2452 C 0.81155 0.62965 0.83915 0.0
C2453 C 0.81072 0.6107 0.83991 0.0
C2454 C 0.81714 0.63988 0.82392 0.0
C2455 C 0.80861 0.65911 0.8532 0.0
C2456 C 0.80368 0.64482 0.81536 0.0
C2457 C 0.80891 0.65432 0.80099 0.0
C2458 C 0.82756 0.65876 0.79471 0.0
C2459 C 0.84084 0.65346 0.80314 0.0
C2460 C 0.83568 0.64413 0.81759 0.0
H2461 H 0.81085 0.66609 0.86592 0.0
H2462 H 0.82172 0.66977 0.84669 0.0
H2463 H 0.79413 0.65747 0.8472 0.0
H2464 H 0.78899 0.64114 0.81969 0.0
H2465 H 0.79818 0.65786 0.79462 0.0
H2466 H 0.44443 0.18095 0.9173 0.0
H2467 H 0.42867 0.17585 0.88939 0.0
H2468 H 0.41084 0.22082 0.90177 0.0
H2469 H 0.42662 0.22601 0.92979 0.0
H2470 H 0.38769 0.16273 0.87903 0.0
H2471 H 0.43992 0.24032 0.86077 0.0
H2472 H 0.44607 0.23112 0.87874 0.0
H2473 H 0.42803 0.24025 0.87899 0.0
C2474 C 0.43707 0.18969 0.91411 0.0
C2475 C 0.4367 0.20384 0.92575 0.0
C2476 C 0.42818 0.18684 0.89815 0.0
C2477 C 0.41882 0.19814 0.89348 0.0
C2478 C 0.41838 0.21226 0.90505 0.0
H2479 H 0.35205 0.19567 0.8028 0.0
H2480 H 0.36816 0.20257 0.83087 0.0
C2481 C 0.42734 0.21518 0.92103 0.0
C2482 C 0.40897 0.19455 0.87661 0.0
H2483 H 0.41078 0.21781 0.84206 0.0
C2484 C 0.39276 0.17475 0.87092 0.0
C2485 C 0.41562 0.2103 0.8661 0.0
C2486 C 0.43348 0.23166 0.87137 0.0
C2487 C 0.38289 0.17028 0.85503 0.0
C2488 C 0.38963 0.18598 0.8445 0.0
C2489 C 0.4057 0.20583 0.8502 0.0
C2490 C 0.38022 0.18201 0.82746 0.0
C2491 C 0.36514 0.14888 0.8497 0.0
C2492 C 0.38197 0.1684 0.81624 0.0
C2493 C 0.37274 0.16438 0.80024 0.0
C2494 C 0.36164 0.17393 0.79517 0.0
C2495 C 0.36024 0.18784 0.8064 0.0
C2496 C 0.36952 0.1919 0.82239 0.0
H2497 H 0.3587 0.14013 0.86027 0.0
H2498 H 0.35252 0.14937 0.84232 0.0
H2499 H 0.37069 0.14041 0.84204 0.0
H2500 H 0.39043 0.16085 0.81989 0.0
H2501 H 0.37399 0.1535 0.79191 0.0
H2502 H 0.82351 0.21513 0.91849 0.0
H2503 H 0.82974 0.20431 0.89199 0.0
H2504 H 0.77237 0.19724 0.87046 0.0
H2505 H 0.76661 0.20921 0.89661 0.0
H2506 H 0.80937 0.17042 0.86985 0.0
H2507 H 0.81355 0.2381 0.84333 0.0
H2508 H 0.81292 0.23554 0.86486 0.0
H2509 H 0.78942 0.22217 0.85123 0.0
C2510 C 0.81221 0.2113 0.90812 0.0
C2511 C 0.79472 0.2134 0.90969 0.0
C2512 C 0.81572 0.20496 0.893 0.0
C2513 C 0.80179 0.20047 0.87916 0.0
C2514 C 0.78361 0.20114 0.8809 0.0
H2515 H 0.80739 0.17368 0.77614 0.0
H2516 H 0.7954 0.17571 0.80268 0.0
C2517 C 0.78018 0.2077 0.89596 0.0
C2518 C 0.80685 0.19619 0.86281 0.0
H2519 H 0.81546 0.21374 0.82529 0.0
C2520 C 0.81068 0.17987 0.8601 0.0
C2521 C 0.80873 0.20865 0.85012 0.0
C2522 C 0.80615 0.22722 0.85253 0.0
C2523 C 0.81617 0.17561 0.845 0.0
C2524 C 0.81792 0.18801 0.83236 0.0
C2525 C 0.81391 0.20417 0.835 0.0
C2526 C 0.82472 0.18512 0.81648 0.0
C2527 C 0.81998 0.15785 0.84261 0.0
C2528 C 0.84519 0.18976 0.81547 0.0
C2529 C 0.85221 0.18895 0.80032 0.0
C2530 C 0.83887 0.18343 0.78584 0.0
C2531 C 0.8182 0.17829 0.78698 0.0
C2532 C 0.81125 0.17928 0.80214 0.0
H2533 H 0.81395 0.14731 0.85225 0.0
H2534 H 0.81265 0.14899 0.83053 0.0
H2535 H 0.83688 0.16386 0.84299 0.0
H2536 H 0.85593 0.19467 0.8264 0.0
H2537 H 0.86831 0.19337 0.79995 0.0
H2538 H 0.28826 0.13333 0.43549 0.0
H2539 H 0.30297 0.14586 0.46377 0.0
H2540 H 0.24861 0.14837 0.47448 0.0
H2541 H 0.23321 0.13464 0.44647 0.0
H2542 H 0.31296 0.17982 0.48398 0.0
H2543 H 0.24955 0.11068 0.50663 0.0
H2544 H 0.25289 0.11257 0.48527 0.0
H2545 H 0.24097 0.12515 0.49536 0.0
C2546 C 0.27937 0.13646 0.44386 0.0
C2547 C 0.25937 0.13259 0.43873 0.0
C2548 C 0.2879 0.14382 0.46 0.0
C2549 C 0.27668 0.14758 0.47134 0.0
C2550 C 0.25732 0.14507 0.46604 0.0
H2551 H 0.30565 0.17484 0.57738 0.0
H2552 H 0.29192 0.17344 0.54938 0.0
C2553 C 0.24866 0.13748 0.44992 0.0
C2554 C 0.28488 0.15303 0.48881 0.0
H2555 H 0.27495 0.13582 0.52636 0.0
C2556 C 0.30459 0.17028 0.49326 0.0
C2557 C 0.27398 0.14048 0.50092 0.0
C2558 C 0.25327 0.12108 0.49684 0.0
C2559 C 0.31378 0.17516 0.50943 0.0
C2560 C 0.30298 0.16246 0.52141 0.0
C2561 C 0.28308 0.14558 0.5171 0.0
C2562 C 0.31261 0.16536 0.53824 0.0
C2563 C 0.33504 0.19372 0.51361 0.0
C2564 C 0.32876 0.16127 0.54117 0.0
C2565 C 0.3364 0.16167 0.55712 0.0
C2566 C 0.32806 0.16625 0.57047 0.0
C2567 C 0.31224 0.17095 0.56742 0.0
C2568 C 0.30448 0.17034 0.55145 0.0
H2569 H 0.3393 0.2044 0.50401 0.0
H2570 H 0.33594 0.20214 0.5254 0.0
H2571 H 0.3466 0.18863 0.51488 0.0
H2572 H 0.33495 0.157 0.53112 0.0
H2573 H 0.34827 0.15757 0.55893 0.0
H2574 H 0.91049 0.12341 0.45512 0.0
H2575 H 0.89837 0.13007 0.48028 0.0
H2576 H 0.89421 0.17956 0.4603 0.0
H2577 H 0.9057 0.17255 0.43482 0.0
H2578 H 0.91742 0.16635 0.50109 0.0
H2579 H 0.83787 0.14644 0.47758 0.0
H2580 H 0.85334 0.139 0.46621 0.0
H2581 H 0.85809 0.16485 0.46687 0.0
C2582 C 0.90659 0.13544 0.45592 0.0
C2583 C 0.90891 0.14733 0.44288 0.0
C2584 C 0.89983 0.13934 0.47037 0.0
C2585 C 0.89515 0.15514 0.4721 0.0
C2586 C 0.89739 0.16704 0.45913 0.0
H2587 H 0.85681 0.20231 0.55364 0.0
H2588 H 0.86751 0.19644 0.52742 0.0
C2589 C 0.90416 0.16315 0.44464 0.0
C2590 C 0.88877 0.15962 0.48777 0.0
H2591 H 0.84917 0.16109 0.505 0.0
C2592 C 0.90248 0.16515 0.50195 0.0
C2593 C 0.86932 0.15816 0.48885 0.0
C2594 C 0.8537 0.15163 0.47411 0.0
C2595 C 0.89732 0.16937 0.51719 0.0
C2596 C 0.87777 0.16766 0.51831 0.0
C2597 C 0.86414 0.16237 0.5041 0.0
C2598 C 0.87107 0.17103 0.53417 0.0
C2599 C 0.913 0.17595 0.5319 0.0
C2600 C 0.86921 0.15848 0.54657 0.0
C2601 C 0.86302 0.16173 0.56154 0.0
C2602 C 0.85842 0.17753 0.56439 0.0
C2603 C 0.86003 0.18989 0.55182 0.0
C2604 C 0.86623 0.18662 0.53685 0.0
H2605 H 0.92891 0.18184 0.52838 0.0
H2606 H 0.91287 0.18807 0.54012 0.0
H2607 H 0.90911 0.16254 0.53882 0.0
H2608 H 0.8724 0.14604 0.54463 0.0
H2609 H 0.86157 0.15168 0.57082 0.0
H2610 H 0.9176 0.797 0.47335 0.0
H2611 H 0.91041 0.77928 0.498 0.0
H2612 H 0.85428 0.72889 0.47265 0.0
H2613 H 0.8618 0.74609 0.44776 0.0
H2614 H 0.87741 0.76957 0.51474 0.0
H2615 H 0.87821 0.69844 0.49554 0.0
H2616 H 0.88857 0.72035 0.48395 0.0
H2617 H 0.86116 0.7025 0.4821 0.0
C2618 C 0.90404 0.78187 0.47285 0.0
C2619 C 0.89031 0.77296 0.45851 0.0
C2620 C 0.89985 0.77183 0.48703 0.0
C2621 C 0.88191 0.75264 0.48718 0.0
C2622 C 0.86844 0.74348 0.47279 0.0
H2623 H 0.81457 0.67511 0.56017 0.0
H2624 H 0.82694 0.69152 0.53539 0.0
C2625 C 0.87264 0.75346 0.45859 0.0
C2626 C 0.87646 0.74298 0.50266 0.0
H2627 H 0.86292 0.69862 0.52009 0.0
C2628 C 0.87448 0.75414 0.51596 0.0
C2629 C 0.87256 0.72282 0.50426 0.0
C2630 C 0.87543 0.7104 0.49075 0.0
C2631 C 0.86815 0.74551 0.53062 0.0
C2632 C 0.86391 0.72524 0.5321 0.0
C2633 C 0.86611 0.71414 0.5189 0.0
C2634 C 0.85674 0.71515 0.54717 0.0
C2635 C 0.86543 0.75794 0.54422 0.0
C2636 C 0.86949 0.72284 0.56199 0.0
C2637 C 0.86251 0.71342 0.57619 0.0
C2638 C 0.84264 0.69605 0.57584 0.0
C2639 C 0.83002 0.6883 0.56089 0.0
C2640 C 0.83703 0.6977 0.54671 0.0
H2641 H 0.86484 0.77131 0.53989 0.0
H2642 H 0.85105 0.74829 0.54988 0.0
H2643 H 0.87869 0.76381 0.55378 0.0
H2644 H 0.8849 0.73606 0.56257 0.0
H2645 H 0.87281 0.71959 0.58739 0.0
loop_
_geom_bond_atom_site_label_1
_geom_bond_atom_site_label_2
_geom_bond_distance
_geom_bond_site_symmetry_2
_ccdc_geom_bond_type
H0 C1 0.949 . S
C1 H0 0.949 . S
C1 C2 1.395 . S
C1 C3 1.391 . S
C2 C1 1.395 . S
C2 C5 1.390 . S
C3 C1 1.391 . S
C3 C7 1.387 . S
C3 C8 1.491 . S
H4 C5 0.950 . S
C5 C2 1.390 . S
C5 H4 0.950 . S
C5 C6 1.378 . S
C6 C5 1.378 . S
C6 C7 1.409 . S
C7 C3 1.387 . S
C7 C6 1.409 . S
C7 H9 0.951 . S
C8 C3 1.491 . S
C8 C10 1.382 . S
C8 C12 1.404 . S
H9 C7 0.951 . S
C10 C8 1.382 . S
C10 C11 1.390 . S
C10 H15 0.949 . S
C11 C10 1.390 . S
C11 C16 1.399 . S
C12 C8 1.404 . S
C12 H13 0.950 . S
C12 C14 1.375 . S
H13 C12 0.950 . S
C14 C12 1.375 . S
C14 C16 1.382 . S
C14 H18 0.950 . S
H15 C10 0.949 . S
C16 C11 1.399 . S
C16 C14 1.382 . S
C16 H17 0.952 . S
H17 C16 0.952 . S
H18 C14 0.950 . S
H19 C20 0.949 . S
C20 H19 0.949 . S
C20 C21 1.395 . S
C20 C22 1.391 . S
C21 C20 1.395 . S
C21 C24 1.390 . S
C22 C20 1.391 . S
C22 C26 1.387 . S
C22 C27 1.491 . S
H23 C24 0.950 . S
C24 C21 1.390 . S
C24 H23 0.950 . S
C24 C25 1.378 . S
C25 C24 1.378 . S
C25 C26 1.409 . S
C26 C22 1.387 . S
C26 C25 1.409 . S
C26 H28 0.951 . S
C27 C22 1.491 . S
C27 C29 1.382 . S
C27 C31 1.404 . S
H28 C26 0.951 . S
C29 C27 1.382 . S
C29 C30 1.390 . S
C29 H34 0.949 . S
C30 C29 1.390 . S
C30 C35 1.399 . S
C31 C27 1.404 . S
C31 H32 0.950 . S
C31 C33 1.375 . S
H32 C31 0.950 . S
C33 C31 1.375 . S
C33 C35 1.382 . S
C33 H37 0.950 . S
H34 C29 0.949 . S
C35 C30 1.399 . S
C35 C33 1.382 . S
C35 H36 0.952 . S
H36 C35 0.952 . S
H37 C33 0.950 . S
H38 C39 0.949 . S
C39 H38 0.949 . S
C39 C40 1.395 . S
C39 C41 1.391 . S
C40 C39 1.395 . S
C40 C43 1.390 . S
C41 C39 1.391 . S
C41 C45 1.387 . S
C41 C46 1.491 . S
H42 C43 0.950 . S
C43 C40 1.390 . S
C43 H42 0.950 . S
C43 C44 1.378 . S
C44 C43 1.378 . S
C44 C45 1.409 . S
C45 C41 1.387 . S
C45 C44 1.409 . S
C45 H47 0.951 . S
C46 C41 1.491 . S
C46 C48 1.382 . S
C46 C50 1.404 . S
H47 C45 0.951 . S
C48 C46 1.382 . S
C48 C49 1.390 . S
C48 H53 0.949 . S
C49 C48 1.390 . S
C49 C54 1.399 . S
C50 C46 1.404 . S
C50 H51 0.950 . S
C50 C52 1.375 . S
H51 C50 0.950 . S
C52 C50 1.375 . S
C52 C54 1.382 . S
C52 H56 0.950 . S
H53 C48 0.949 . S
C54 C49 1.399 . S
C54 C52 1.382 . S
C54 H55 0.952 . S
H55 C54 0.952 . S
H56 C52 0.950 . S
H57 C58 0.949 . S
C58 H57 0.949 . S
C58 C59 1.395 . S
C58 C60 1.391 . S
C59 C58 1.395 . S
C59 C62 1.390 . S
C60 C58 1.391 . S
C60 C64 1.387 . S
C60 C65 1.491 . S
H61 C62 0.950 . S
C62 C59 1.390 . S
C62 H61 0.950 . S
C62 C63 1.378 . S
C63 C62 1.378 . S
C63 C64 1.409 . S
C64 C60 1.387 . S
C64 C63 1.409 . S
C64 H66 0.951 . S
C65 C60 1.491 . S
C65 C67 1.382 . S
C65 C69 1.404 . S
H66 C64 0.951 . S
C67 C65 1.382 . S
C67 C68 1.390 . S
C67 H72 0.949 . S
C68 C67 1.390 . S
C68 C73 1.399 . S
C69 C65 1.404 . S
C69 H70 0.950 . S
C69 C71 1.375 . S
H70 C69 0.950 . S
C71 C69 1.375 . S
C71 C73 1.382 . S
C71 H75 0.950 . S
H72 C67 0.949 . S
C73 C68 1.399 . S
C73 C71 1.382 . S
C73 H74 0.952 . S
H74 C73 0.952 . S
H75 C71 0.950 . S
H76 C77 0.949 . S
C77 H76 0.949 . S
C77 C78 1.395 . S
C77 C79 1.391 . S
C78 C77 1.395 . S
C78 C81 1.390 . S
C79 C77 1.391 . S
C79 C83 1.387 . S
C79 C84 1.491 . S
H80 C81 0.950 . S
C81 C78 1.390 . S
C81 H80 0.950 . S
C81 C82 1.378 . S
C82 C81 1.378 . S
C82 C83 1.409 . S
C83 C79 1.387 . S
C83 C82 1.409 . S
C83 H85 0.951 . S
C84 C79 1.491 . S
C84 C86 1.382 . S
C84 C88 1.404 . S
H85 C83 0.951 . S
C86 C84 1.382 . S
C86 C87 1.390 . S
C86 H91 0.949 . S
C87 C86 1.390 . S
C87 C92 1.399 . S
C88 C84 1.404 . S
C88 H89 0.950 . S
C88 C90 1.375 . S
H89 C88 0.950 . S
C90 C88 1.375 . S
C90 C92 1.382 . S
C90 H94 0.950 . S
H91 C86 0.949 . S
C92 C87 1.399 . S
C92 C90 1.382 . S
C92 H93 0.952 . S
H93 C92 0.952 . S
H94 C90 0.950 . S
H95 C96 0.949 . S
C96 H95 0.949 . S
C96 C97 1.395 . S
C96 C98 1.391 . S
C97 C96 1.395 . S
C97 C100 1.390 . S
C98 C96 1.391 . S
C98 C102 1.387 . S
C98 C103 1.491 . S
H99 C100 0.950 . S
C100 C97 1.390 . S
C100 H99 0.950 . S
C100 C101 1.378 . S
C101 C100 1.378 . S
C101 C102 1.409 . S
C102 C98 1.387 . S
C102 C101 1.409 . S
C102 H104 0.951 . S
C103 C98 1.491 . S
C103 C105 1.382 . S
C103 C107 1.404 . S
H104 C102 0.951 . S
C105 C103 1.382 . S
C105 C106 1.390 . S
C105 H110 0.949 . S
C106 C105 1.390 . S
C106 C111 1.399 . S
C107 C103 1.404 . S
C107 H108 0.950 . S
C107 C109 1.375 . S
H108 C107 0.950 . S
C109 C107 1.375 . S
C109 C111 1.382 . S
C109 H113 0.950 . S
H110 C105 0.949 . S
C111 C106 1.399 . S
C111 C109 1.382 . S
C111 H112 0.952 . S
H112 C111 0.952 . S
H113 C109 0.950 . S
H114 C115 0.949 . S
C115 H114 0.949 . S
C115 C116 1.395 . S
C115 C117 1.391 . S
C116 C115 1.395 . S
C116 C119 1.390 . S
C117 C115 1.391 . S
C117 C121 1.387 . S
C117 C122 1.491 . S
H118 C119 0.950 . S
C119 C116 1.390 . S
C119 H118 0.950 . S
C119 C120 1.378 . S
C120 C119 1.378 . S
C120 C121 1.409 . S
C121 C117 1.387 . S
C121 C120 1.409 . S
C121 H123 0.951 . S
C122 C117 1.491 . S
C122 C124 1.382 . S
C122 C126 1.404 . S
H123 C121 0.951 . S
C124 C122 1.382 . S
C124 C125 1.390 . S
C124 H129 0.949 . S
C125 C124 1.390 . S
C125 C130 1.399 . S
C126 C122 1.404 . S
C126 H127 0.950 . S
C126 C128 1.375 . S
H127 C126 0.950 . S
C128 C126 1.375 . S
C128 C130 1.382 . S
C128 H132 0.950 . S
H129 C124 0.949 . S
C130 C125 1.399 . S
C130 C128 1.382 . S
C130 H131 0.952 . S
H131 C130 0.952 . S
H132 C128 0.950 . S
H133 C134 0.949 . S
C134 H133 0.949 . S
C134 C135 1.395 . S
C134 C136 1.391 . S
C135 C134 1.395 . S
C135 C138 1.390 . S
C136 C134 1.391 . S
C136 C140 1.387 . S
C136 C141 1.491 . S
H137 C138 0.950 . S
C138 C135 1.390 . S
C138 H137 0.950 . S
C138 C139 1.378 . S
C139 C138 1.378 . S
C139 C140 1.409 . S
C140 C136 1.387 . S
C140 C139 1.409 . S
C140 H142 0.951 . S
C141 C136 1.491 . S
C141 C143 1.382 . S
C141 C145 1.404 . S
H142 C140 0.951 . S
C143 C141 1.382 . S
C143 C144 1.390 . S
C143 H148 0.949 . S
C144 C143 1.390 . S
C144 C149 1.399 . S
C145 C141 1.404 . S
C145 H146 0.950 . S
C145 C147 1.375 . S
H146 C145 0.950 . S
C147 C145 1.375 . S
C147 C149 1.382 . S
C147 H151 0.950 . S
H148 C143 0.949 . S
C149 C144 1.399 . S
C149 C147 1.382 . S
C149 H150 0.952 . S
H150 C149 0.952 . S
H151 C147 0.950 . S
H152 C153 0.949 . S
C153 H152 0.949 . S
C153 C154 1.395 . S
C153 C155 1.391 . S
C154 C153 1.395 . S
C154 C157 1.390 . S
C155 C153 1.391 . S
C155 C159 1.387 . S
C155 C160 1.491 . S
H156 C157 0.950 . S
C157 C154 1.390 . S
C157 H156 0.950 . S
C157 C158 1.378 . S
C158 C157 1.378 . S
C158 C159 1.409 . S
C159 C155 1.387 . S
C159 C158 1.409 . S
C159 H161 0.951 . S
C160 C155 1.491 . S
C160 C162 1.382 . S
C160 C164 1.404 . S
H161 C159 0.951 . S
C162 C160 1.382 . S
C162 C163 1.390 . S
C162 H167 0.949 . S
C163 C162 1.390 . S
C163 C168 1.399 . S
C164 C160 1.404 . S
C164 H165 0.950 . S
C164 C166 1.375 . S
H165 C164 0.950 . S
C166 C164 1.375 . S
C166 C168 1.382 . S
C166 H170 0.950 . S
H167 C162 0.949 . S
C168 C163 1.399 . S
C168 C166 1.382 . S
C168 H169 0.952 . S
H169 C168 0.952 . S
H170 C166 0.950 . S
H171 C172 0.949 . S
C172 H171 0.949 . S
C172 C173 1.395 . S
C172 C174 1.391 . S
C173 C172 1.395 . S
C173 C176 1.390 . S
C174 C172 1.391 . S
C174 C178 1.387 . S
C174 C179 1.491 . S
H175 C176 0.950 . S
C176 C173 1.390 . S
C176 H175 0.950 . S
C176 C177 1.378 . S
C177 C176 1.378 . S
C177 C178 1.409 . S
C178 C174 1.387 . S
C178 C177 1.409 . S
C178 H180 0.951 . S
C179 C174 1.491 . S
C179 C181 1.382 . S
C179 C183 1.404 . S
H180 C178 0.951 . S
C181 C179 1.382 . S
C181 C182 1.390 . S
C181 H186 0.949 . S
C182 C181 1.390 . S
C182 C187 1.399 . S
C183 C179 1.404 . S
C183 H184 0.950 . S
C183 C185 1.375 . S
H184 C183 0.950 . S
C185 C183 1.375 . S
C185 C187 1.382 . S
C185 H189 0.950 . S
H186 C181 0.949 . S
C187 C182 1.399 . S
C187 C185 1.382 . S
C187 H188 0.952 . S
H188 C187 0.952 . S
H189 C185 0.950 . S
H190 C191 0.949 . S
C191 H190 0.949 . S
C191 C192 1.395 . S
C191 C193 1.391 . S
C192 C191 1.395 . S
C192 C195 1.390 . S
C193 C191 1.391 . S
C193 C197 1.387 . S
C193 C198 1.491 . S
H194 C195 0.950 . S
C195 C192 1.390 . S
C195 H194 0.950 . S
C195 C196 1.378 . S
C196 C195 1.378 . S
C196 C197 1.409 . S
C197 C193 1.387 . S
C197 C196 1.409 . S
C197 H199 0.951 1_556 S
C198 C193 1.491 . S
C198 C200 1.382 . S
C198 C202 1.404 1_556 S
H199 C197 0.951 1_554 S
C200 C198 1.382 . S
C200 C201 1.365 1_556 S
C200 H205 0.949 . S
C201 C200 1.365 1_554 S
C201 C206 1.431 . S
C202 C198 1.404 1_554 S
C202 H203 0.950 . S
C202 C204 1.375 . S
H203 C202 0.950 . S
C204 C202 1.375 . S
C204 C206 1.382 . S
C204 H208 0.950 . S
H205 C200 0.949 . S
C206 C201 1.431 . S
C206 C204 1.382 . S
C206 H207 0.952 . S
H207 C206 0.952 . S
H208 C204 0.950 . S
H209 C210 0.949 . S
C210 H209 0.949 . S
C210 C211 1.395 . S
C210 C212 1.391 . S
C211 C210 1.395 . S
C211 C214 1.390 . S
C212 C210 1.391 . S
C212 C216 1.387 . S
C212 C217 1.491 . S
H213 C214 0.950 . S
C214 C211 1.390 . S
C214 H213 0.950 . S
C214 C215 1.378 . S
C215 C214 1.378 . S
C215 C216 1.409 . S
C216 C212 1.387 . S
C216 C215 1.409 . S
C216 H218 0.951 . S
C217 C212 1.491 . S
C217 C219 1.382 . S
C217 C221 1.404 . S
H218 C216 0.951 . S
C219 C217 1.382 . S
C219 C220 1.390 . S
C219 H224 0.949 . S
C220 C219 1.390 . S
C220 C225 1.399 . S
C221 C217 1.404 . S
C221 H222 0.950 . S
C221 C223 1.375 . S
H222 C221 0.950 . S
C223 C221 1.375 . S
C223 C225 1.382 . S
C223 H227 0.950 . S
H224 C219 0.949 . S
C225 C220 1.399 . S
C225 C223 1.382 . S
C225 H226 0.952 . S
H226 C225 0.952 . S
H227 C223 0.950 . S
H228 C229 0.949 . S
C229 H228 0.949 . S
C229 C230 1.395 . S
C229 C231 1.391 . S
C230 C229 1.395 . S
C230 C233 1.390 . S
C231 C229 1.391 . S
C231 C235 1.387 . S
C231 C236 1.491 . S
H232 C233 0.950 . S
C233 C230 1.390 . S
C233 H232 0.950 . S
C233 C234 1.378 . S
C234 C233 1.378 . S
C234 C235 1.409 . S
C235 C231 1.387 . S
C235 C234 1.409 . S
C235 H237 0.951 . S
C236 C231 1.491 . S
C236 C238 1.382 . S
C236 C240 1.404 . S
H237 C235 0.951 . S
C238 C236 1.382 . S
C238 C239 1.390 . S
C238 H243 0.949 . S
C239 C238 1.390 . S
C239 C244 1.399 . S
C240 C236 1.404 . S
C240 H241 0.950 . S
C240 C242 1.375 . S
H241 C240 0.950 . S
C242 C240 1.375 . S
C242 C244 1.382 . S
C242 H246 0.950 . S
H243 C238 0.949 . S
C244 C239 1.399 . S
C244 C242 1.382 . S
C244 H245 0.952 . S
H245 C244 0.952 . S
H246 C242 0.950 . S
H247 C248 0.949 . S
C248 H247 0.949 . S
C248 C249 1.395 . S
C248 C250 1.391 . S
C249 C248 1.395 . S
C249 C252 1.390 . S
C250 C248 1.391 . S
C250 C254 1.387 . S
C250 C255 1.491 . S
H251 C252 0.950 . S
C252 C249 1.390 . S
C252 H251 0.950 . S
C252 C253 1.378 . S
C253 C252 1.378 . S
C253 C254 1.409 . S
C254 C250 1.387 . S
C254 C253 1.409 . S
C254 H256 0.951 . S
C255 C250 1.491 . S
C255 C257 1.382 . S
C255 C259 1.404 . S
H256 C254 0.951 . S
C257 C255 1.382 . S
C257 C258 1.390 . S
C257 H262 0.949 . S
C258 C257 1.390 . S
C258 C263 1.399 . S
C259 C255 1.404 . S
C259 H260 0.950 . S
C259 C261 1.375 . S
H260 C259 0.950 . S
C261 C259 1.375 . S
C261 C263 1.382 . S
C261 H265 0.950 . S
H262 C257 0.949 . S
C263 C258 1.399 . S
C263 C261 1.382 . S
C263 H264 0.952 . S
H264 C263 0.952 . S
H265 C261 0.950 . S
H266 C267 0.949 . S
C267 H266 0.949 . S
C267 C268 1.395 . S
C267 C269 1.391 . S
C268 C267 1.395 . S
C268 C271 1.390 . S
C269 C267 1.391 . S
C269 C273 1.387 . S
C269 C274 1.491 . S
H270 C271 0.950 . S
C271 C268 1.390 . S
C271 H270 0.950 . S
C271 C272 1.378 . S
C272 C271 1.378 . S
C272 C273 1.409 . S
C273 C269 1.387 . S
C273 C272 1.409 . S
C273 H275 0.951 . S
C274 C269 1.491 . S
C274 C276 1.382 . S
C274 C278 1.404 . S
H275 C273 0.951 . S
C276 C274 1.382 . S
C276 C277 1.390 . S
C276 H281 0.949 . S
C277 C276 1.390 . S
C277 C282 1.399 . S
C278 C274 1.404 . S
C278 H279 0.950 . S
C278 C280 1.375 . S
H279 C278 0.950 . S
C280 C278 1.375 . S
C280 C282 1.382 . S
C280 H284 0.950 . S
H281 C276 0.949 . S
C282 C277 1.399 . S
C282 C280 1.382 . S
C282 H283 0.952 . S
H283 C282 0.952 . S
H284 C280 0.950 . S
H285 C286 0.949 . S
C286 H285 0.949 . S
C286 C287 1.395 . S
C286 C288 1.391 . S
C287 C286 1.395 . S
C287 C290 1.390 . S
C288 C286 1.391 . S
C288 C292 1.387 . S
C288 C293 1.491 . S
H289 C290 0.950 . S
C290 C287 1.390 . S
C290 H289 0.950 . S
C290 C291 1.378 . S
C291 C290 1.378 . S
C291 C292 1.409 . S
C292 C288 1.387 . S
C292 C291 1.409 . S
C292 H294 0.951 . S
C293 C288 1.491 . S
C293 C295 1.382 . S
C293 C297 1.404 . S
H294 C292 0.951 . S
C295 C293 1.382 . S
C295 C296 1.390 . S
C295 H300 0.949 . S
C296 C295 1.390 . S
C296 C301 1.399 . S
C297 C293 1.404 . S
C297 H298 0.950 . S
C297 C299 1.375 . S
H298 C297 0.950 . S
C299 C297 1.375 . S
C299 C301 1.382 . S
C299 H303 0.950 . S
H300 C295 0.949 . S
C301 C296 1.399 . S
C301 C299 1.382 . S
C301 H302 0.952 . S
H302 C301 0.952 . S
H303 C299 0.950 . S
H304 C305 0.949 . S
C305 H304 0.949 . S
C305 C306 1.395 . S
C305 C307 1.391 . S
C306 C305 1.395 . S
C306 C309 1.390 . S
C307 C305 1.391 . S
C307 C311 1.387 . S
C307 C312 1.491 . S
H308 C309 0.950 . S
C309 C306 1.390 . S
C309 H308 0.950 . S
C309 C310 1.378 . S
C310 C309 1.378 . S
C310 C311 1.409 . S
C311 C307 1.387 . S
C311 C310 1.409 . S
C311 H313 0.951 . S
C312 C307 1.491 . S
C312 C314 1.382 . S
C312 C316 1.404 . S
H313 C311 0.951 . S
C314 C312 1.382 . S
C314 C315 1.390 . S
C314 H319 0.949 . S
C315 C314 1.390 . S
C315 C320 1.399 . S
C316 C312 1.404 . S
C316 H317 0.950 . S
C316 C318 1.375 . S
H317 C316 0.950 . S
C318 C316 1.375 . S
C318 C320 1.382 . S
C318 H322 0.950 . S
H319 C314 0.949 . S
C320 C315 1.399 . S
C320 C318 1.382 . S
C320 H321 0.952 . S
H321 C320 0.952 . S
H322 C318 0.950 . S
H323 C324 0.949 . S
C324 H323 0.949 . S
C324 C325 1.395 . S
C324 C326 1.391 . S
C325 C324 1.395 . S
C325 C328 1.390 . S
C326 C324 1.391 . S
C326 C330 1.387 . S
C326 C331 1.491 . S
H327 C328 0.950 . S
C328 C325 1.390 . S
C328 H327 0.950 . S
C328 C329 1.378 . S
C329 C328 1.378 . S
C329 C330 1.409 . S
C330 C326 1.387 . S
C330 C329 1.409 . S
C330 H332 0.951 . S
C331 C326 1.491 . S
C331 C333 1.382 . S
C331 C335 1.404 . S
H332 C330 0.951 . S
C333 C331 1.382 . S
C333 C334 1.390 . S
C333 H338 0.949 . S
C334 C333 1.390 . S
C334 C339 1.399 . S
C335 C331 1.404 . S
C335 H336 0.950 . S
C335 C337 1.375 . S
H336 C335 0.950 . S
C337 C335 1.375 . S
C337 C339 1.382 . S
C337 H341 0.950 . S
H338 C333 0.949 . S
C339 C334 1.399 . S
C339 C337 1.382 . S
C339 H340 0.952 . S
H340 C339 0.952 . S
H341 C337 0.950 . S
Tb342 C352 2.825 1_565 S
Tb342 O353 2.328 1_566 S
Tb342 O356 2.366 1_565 S
Tb342 O361 2.418 . S
Tb342 O362 2.422 . S
Tb342 O365 2.479 . S
Tb342 O366 2.471 1_565 S
Eu343 O354 2.418 . S
Eu343 O355 2.384 . S
Eu343 O358 2.479 . S
Eu343 O359 2.471 1_545 S
Eu343 O360 2.347 1_545 S
Eu343 O363 2.366 1_545 S
Eu343 C373 2.824 . S
C344 O360 1.259 . S
C344 O361 1.265 1_554 S
C345 O362 1.202 1_554 S
C345 O363 1.265 . S
C346 C348 1.380 . S
C346 C349 1.374 . S
C346 C352 1.507 . S
C347 C348 1.384 . S
C347 C351 1.387 . S
C347 H374 0.930 . S
C348 C346 1.380 . S
C348 C347 1.384 . S
C348 H375 0.931 1_545 S
C349 C346 1.374 . S
C349 C350 1.390 . S
C349 H376 0.930 . S
C350 C349 1.390 . S
C350 C351 1.391 . S
C350 H377 0.930 . S
C351 C347 1.387 . S
C351 C350 1.391 . S
C352 Tb342 2.825 1_545 S
C352 C346 1.507 . S
C352 O365 1.238 1_545 S
C352 O366 1.247 . S
O353 Tb342 2.328 1_544 S
O353 C357 1.276 . S
O354 Eu343 2.418 . S
O354 C357 1.265 . S
O355 Eu343 2.384 . S
O355 C364 1.242 1_554 S
O356 Tb342 2.366 1_545 S
O356 C364 1.274 . S
C357 O353 1.276 . S
C357 O354 1.265 . S
O358 Eu343 2.479 . S
O358 C373 1.234 . S
O359 Eu343 2.471 1_565 S
O359 C373 1.250 1_565 S
O360 Eu343 2.347 1_565 S
O360 C344 1.259 . S
O361 Tb342 2.418 . S
O361 C344 1.265 1_556 S
O362 Tb342 2.422 . S
O362 C345 1.202 1_556 S
O363 Eu343 2.366 1_565 S
O363 C345 1.265 . S
C364 O355 1.242 1_556 S
C364 O356 1.274 . S
O365 Tb342 2.479 . S
O365 C352 1.238 1_565 S
O366 Tb342 2.471 1_545 S
O366 C352 1.247 . S
C367 C370 1.380 1_565 S
C367 C371 1.374 . S
C367 C373 1.508 1_565 S
C368 C369 1.387 . S
C368 C372 1.391 . S
C369 C368 1.387 . S
C369 C370 1.384 1_565 S
C369 H378 0.889 1_565 S
C370 C367 1.380 1_545 S
C370 C369 1.384 1_545 S
C370 H379 0.931 . S
C371 C367 1.374 . S
C371 C372 1.390 . S
C371 H380 0.930 . S
C372 C368 1.391 . S
C372 C371 1.390 . S
C372 H381 0.930 . S
C373 Eu343 2.824 . S
C373 O358 1.234 . S
C373 O359 1.250 1_545 S
C373 C367 1.508 1_545 S
H374 C347 0.930 . S
H375 C348 0.931 1_565 S
H376 C349 0.930 . S
H377 C350 0.930 . S
H378 C369 0.889 1_545 S
H379 C370 0.931 . S
H380 C371 0.930 . S
H381 C372 0.930 . S
Tb382 C392 2.825 1_455 S
Tb382 O393 2.347 1_455 S
Tb382 O396 2.366 1_455 S
Tb382 O401 2.418 . S
Tb382 O402 2.384 1_556 S
Tb382 O405 2.479 . S
Tb382 O406 2.471 1_455 S
Eu383 O394 2.418 . S
Eu383 O395 2.384 . S
Eu383 O398 2.479 . S
Eu383 O399 2.471 1_655 S
Eu383 O400 2.347 1_655 S
Eu383 O403 2.366 1_655 S
Eu383 C413 2.825 1_655 S
C384 O400 1.259 . S
C384 O401 1.265 1_554 S
C385 O402 1.255 . S
C385 O403 1.265 . S
C386 C388 1.380 . S
C386 C389 1.374 . S
C386 C392 1.507 . S
C387 C388 1.384 . S
C387 C391 1.387 . S
C387 H414 0.930 . S
C388 C386 1.380 . S
C388 C387 1.384 . S
C388 H415 0.931 1_655 S
C389 C386 1.374 . S
C389 C390 1.390 . S
C389 H416 0.930 . S
C390 C389 1.390 . S
C390 C391 1.391 . S
C390 H417 0.930 . S
C391 C387 1.387 . S
C391 C390 1.391 . S
C392 Tb382 2.825 1_655 S
C392 C386 1.507 . S
C392 O405 1.238 1_655 S
C392 O406 1.247 . S
O393 Tb382 2.347 1_655 S
O393 C397 1.259 1_556 S
O394 Eu383 2.418 . S
O394 C397 1.265 . S
O395 Eu383 2.384 . S
O395 C404 1.255 1_554 S
O396 Tb382 2.366 1_655 S
O396 C404 1.265 . S
C397 O393 1.259 1_554 S
C397 O394 1.265 . S
O398 Eu383 2.479 . S
O398 C413 1.238 1_655 S
O399 Eu383 2.471 1_455 S
O399 C413 1.247 . S
O400 Eu383 2.347 1_455 S
O400 C384 1.259 . S
O401 Tb382 2.418 . S
O401 C384 1.265 1_556 S
O402 Tb382 2.384 1_554 S
O402 C385 1.255 . S
O403 Eu383 2.366 1_455 S
O403 C385 1.265 . S
C404 O395 1.255 1_556 S
C404 O396 1.265 . S
O405 Tb382 2.479 . S
O405 C392 1.238 1_455 S
O406 Tb382 2.471 1_655 S
O406 C392 1.247 . S
C407 C410 1.380 . S
C407 C411 1.374 . S
C407 C413 1.507 . S
C408 C409 1.387 . S
C408 C412 1.391 . S
C409 C408 1.387 . S
C409 C410 1.384 . S
C409 H418 0.930 . S
C410 C407 1.380 . S
C410 C409 1.384 . S
C410 H419 0.931 1_455 S
C411 C407 1.374 . S
C411 C412 1.390 . S
C411 H420 0.930 . S
C412 C408 1.391 . S
C412 C411 1.390 . S
C412 H421 0.930 . S
C413 Eu383 2.825 1_455 S
C413 O398 1.238 1_455 S
C413 O399 1.247 . S
C413 C407 1.507 . S
H414 C387 0.930 . S
H415 C388 0.931 1_455 S
H416 C389 0.930 . S
H417 C390 0.930 . S
H418 C409 0.930 . S
H419 C410 0.931 1_655 S
H420 C411 0.930 . S
H421 C412 0.930 . S
Tb422 C432 2.825 . S
Tb422 O433 2.347 . S
Tb422 O436 2.366 . S
Tb422 O441 2.418 . S
Tb422 O442 2.384 . S
Tb422 O445 2.479 . S
Tb422 O446 2.471 . S
Eu423 O434 2.426 . S
Eu423 O435 2.384 1_556 S
Eu423 O438 2.479 . S
Eu423 O439 2.471 . S
Eu423 O440 2.347 1_556 S
Eu423 O443 2.366 . S
Eu423 C453 2.825 . S
C424 O440 1.259 . S
C424 O441 1.265 . S
C425 O442 1.255 . S
C425 O443 1.265 1_554 S
C426 C428 1.380 . S
C426 C429 1.374 . S
C426 C432 1.507 . S
C427 C428 1.384 . S
C427 C431 1.387 . S
C427 H454 0.930 . S
C428 C426 1.380 . S
C428 C427 1.384 . S
C428 H455 0.931 . S
C429 C426 1.374 . S
C429 C430 1.390 . S
C429 H456 0.930 . S
C430 C429 1.390 . S
C430 C431 1.391 . S
C430 H457 0.930 . S
C431 C427 1.387 . S
C431 C430 1.391 . S
C432 Tb422 2.825 . S
C432 C426 1.507 . S
C432 O445 1.238 . S
C432 O446 1.247 . S
O433 Tb422 2.347 . S
O433 C437 1.259 . S
O434 Eu423 2.426 . S
O434 C437 1.219 1_556 S
O435 Eu423 2.384 1_554 S
O435 C444 1.255 . S
O436 Tb422 2.366 . S
O436 C444 1.265 . S
C437 O433 1.259 . S
C437 O434 1.219 1_554 S
O438 Eu423 2.479 . S
O438 C453 1.238 . S
O439 Eu423 2.471 . S
O439 C453 1.247 . S
O440 Eu423 2.347 1_554 S
O440 C424 1.259 . S
O441 Tb422 2.418 . S
O441 C424 1.265 . S
O442 Tb422 2.384 . S
O442 C425 1.255 . S
O443 Eu423 2.366 . S
O443 C425 1.265 1_556 S
C444 O435 1.255 . S
C444 O436 1.265 . S
O445 Tb422 2.479 . S
O445 C432 1.238 . S
O446 Tb422 2.471 . S
O446 C432 1.247 . S
C447 C450 1.380 . S
C447 C451 1.374 . S
C447 C453 1.507 . S
C448 C449 1.387 . S
C448 C452 1.391 . S
C449 C448 1.387 . S
C449 C450 1.384 . S
C449 H458 0.930 . S
C450 C447 1.380 . S
C450 C449 1.384 . S
C450 H459 0.931 . S
C451 C447 1.374 . S
C451 C452 1.390 . S
C451 H460 0.930 . S
C452 C448 1.391 . S
C452 C451 1.390 . S
C452 H461 0.930 . S
C453 Eu423 2.825 . S
C453 O438 1.238 . S
C453 O439 1.247 . S
C453 C447 1.507 . S
H454 C427 0.930 . S
H455 C428 0.931 . S
H456 C429 0.930 . S
H457 C430 0.930 . S
H458 C449 0.930 . S
H459 C450 0.931 . S
H460 C451 0.930 . S
H461 C452 0.930 . S
Tb462 C472 2.825 . S
Tb462 O473 2.347 . S
Tb462 O476 2.366 . S
Tb462 O481 2.418 . S
Tb462 O482 2.384 . S
Tb462 O485 2.479 . S
Tb462 O486 2.471 . S
Eu463 O474 2.418 . S
Eu463 O475 2.384 . S
Eu463 O478 2.479 . S
Eu463 O479 2.471 . S
Eu463 O480 2.347 . S
Eu463 O483 2.366 . S
Eu463 C493 2.825 . S
C464 O480 1.259 . S
C464 O481 1.265 . S
C465 O482 1.255 . S
C465 O483 1.265 . S
C466 C468 1.380 . S
C466 C469 1.374 . S
C466 C472 1.507 . S
C467 C468 1.384 . S
C467 C471 1.387 . S
C467 H494 0.930 . S
C468 C466 1.380 . S
C468 C467 1.384 . S
C468 H495 0.931 . S
C469 C466 1.374 . S
C469 C470 1.390 . S
C469 H496 0.930 . S
C470 C469 1.390 . S
C470 C471 1.391 . S
C470 H497 0.930 . S
C471 C467 1.387 . S
C471 C470 1.391 . S
C472 Tb462 2.825 . S
C472 C466 1.507 . S
C472 O485 1.238 . S
C472 O486 1.247 . S
O473 Tb462 2.347 . S
O473 C477 1.259 . S
O474 Eu463 2.418 . S
O474 C477 1.265 . S
O475 Eu463 2.384 . S
O475 C484 1.255 . S
O476 Tb462 2.366 . S
O476 C484 1.265 . S
C477 O473 1.259 . S
C477 O474 1.265 . S
O478 Eu463 2.479 . S
O478 C493 1.238 . S
O479 Eu463 2.471 . S
O479 C493 1.247 . S
O480 Eu463 2.347 . S
O480 C464 1.259 . S
O481 Tb462 2.418 . S
O481 C464 1.265 . S
O482 Tb462 2.384 . S
O482 C465 1.255 . S
O483 Eu463 2.366 . S
O483 C465 1.265 . S
C484 O475 1.255 . S
C484 O476 1.265 . S
O485 Tb462 2.479 . S
O485 C472 1.238 . S
O486 Tb462 2.471 . S
O486 C472 1.247 . S
C487 C490 1.380 . S
C487 C491 1.374 . S
C487 C493 1.507 . S
C488 C489 1.387 . S
C488 C492 1.391 . S
C489 C488 1.387 . S
C489 C490 1.384 . S
C489 H498 0.930 . S
C490 C487 1.380 . S
C490 C489 1.384 . S
C490 H499 0.931 . S
C491 C487 1.374 . S
C491 C492 1.390 . S
C491 H500 0.930 . S
C492 C488 1.391 . S
C492 C491 1.390 . S
C492 H501 0.930 . S
C493 Eu463 2.825 . S
C493 O478 1.238 . S
C493 O479 1.247 . S
C493 C487 1.507 . S
H494 C467 0.930 . S
H495 C468 0.931 . S
H496 C469 0.930 . S
H497 C470 0.930 . S
H498 C489 0.930 . S
H499 C490 0.931 . S
H500 C491 0.930 . S
H501 C492 0.930 . S
Tb502 C512 2.825 . S
Tb502 O513 2.347 . S
Tb502 O516 2.366 . S
Tb502 O521 2.418 . S
Tb502 O522 2.384 . S
Tb502 O525 2.479 . S
Tb502 O526 2.471 . S
Eu503 O514 2.418 . S
Eu503 O515 2.384 . S
Eu503 O518 2.479 . S
Eu503 O519 2.471 . S
Eu503 O520 2.347 . S
Eu503 O523 2.366 . S
Eu503 C533 2.825 . S
C504 O520 1.259 . S
C504 O521 1.265 . S
C505 O522 1.255 . S
C505 O523 1.265 . S
C506 C508 1.380 . S
C506 C509 1.374 . S
C506 C512 1.507 . S
C507 C508 1.384 . S
C507 C511 1.387 . S
C507 H534 0.930 . S
C508 C506 1.380 . S
C508 C507 1.384 . S
C508 H535 0.931 . S
C509 C506 1.374 . S
C509 C510 1.390 . S
C509 H536 0.930 . S
C510 C509 1.390 . S
C510 C511 1.391 . S
C510 H537 0.930 . S
C511 C507 1.387 . S
C511 C510 1.391 . S
C512 Tb502 2.825 . S
C512 C506 1.507 . S
C512 O525 1.238 . S
C512 O526 1.247 . S
O513 Tb502 2.347 . S
O513 C517 1.259 . S
O514 Eu503 2.418 . S
O514 C517 1.265 . S
O515 Eu503 2.384 . S
O515 C524 1.255 . S
O516 Tb502 2.366 . S
O516 C524 1.265 . S
C517 O513 1.259 . S
C517 O514 1.265 . S
O518 Eu503 2.479 . S
O518 C533 1.238 . S
O519 Eu503 2.471 . S
O519 C533 1.247 . S
O520 Eu503 2.347 . S
O520 C504 1.259 . S
O521 Tb502 2.418 . S
O521 C504 1.265 . S
O522 Tb502 2.384 . S
O522 C505 1.255 . S
O523 Eu503 2.366 . S
O523 C505 1.265 . S
C524 O515 1.255 . S
C524 O516 1.265 . S
O525 Tb502 2.479 . S
O525 C512 1.238 . S
O526 Tb502 2.471 . S
O526 C512 1.247 . S
C527 C530 1.380 . S
C527 C531 1.374 . S
C527 C533 1.507 . S
C528 C529 1.387 . S
C528 C532 1.391 . S
C529 C528 1.387 . S
C529 C530 1.384 . S
C529 H538 0.930 . S
C530 C527 1.380 . S
C530 C529 1.384 . S
C530 H539 0.931 . S
C531 C527 1.374 . S
C531 C532 1.390 . S
C531 H540 0.930 . S
C532 C528 1.391 . S
C532 C531 1.390 . S
C532 H541 0.930 . S
C533 Eu503 2.825 . S
C533 O518 1.238 . S
C533 O519 1.247 . S
C533 C527 1.507 . S
H534 C507 0.930 . S
H535 C508 0.931 . S
H536 C509 0.930 . S
H537 C510 0.930 . S
H538 C529 0.930 . S
H539 C530 0.931 . S
H540 C531 0.930 . S
H541 C532 0.930 . S
Tb542 C552 2.825 . S
Tb542 O553 2.347 . S
Tb542 O556 2.366 . S
Tb542 O561 2.418 . S
Tb542 O562 2.384 . S
Tb542 O565 2.479 . S
Tb542 O566 2.471 . S
Eu543 O554 2.418 . S
Eu543 O555 2.384 . S
Eu543 O558 2.479 . S
Eu543 O559 2.471 . S
Eu543 O560 2.347 . S
Eu543 O563 2.366 . S
Eu543 C573 2.825 . S
C544 O560 1.259 . S
C544 O561 1.265 . S
C545 O562 1.255 . S
C545 O563 1.265 . S
C546 C548 1.380 . S
C546 C549 1.374 . S
C546 C552 1.507 . S
C547 C548 1.384 . S
C547 C551 1.387 . S
C547 H574 0.930 . S
C548 C546 1.380 . S
C548 C547 1.384 . S
C548 H575 0.931 . S
C549 C546 1.374 . S
C549 C550 1.390 . S
C549 H576 0.930 . S
C550 C549 1.390 . S
C550 C551 1.391 . S
C550 H577 0.930 . S
C551 C547 1.387 . S
C551 C550 1.391 . S
C552 Tb542 2.825 . S
C552 C546 1.507 . S
C552 O565 1.238 . S
C552 O566 1.247 . S
O553 Tb542 2.347 . S
O553 C557 1.259 . S
O554 Eu543 2.418 . S
O554 C557 1.265 . S
O555 Eu543 2.384 . S
O555 C564 1.255 . S
O556 Tb542 2.366 . S
O556 C564 1.265 . S
C557 O553 1.259 . S
C557 O554 1.265 . S
O558 Eu543 2.479 . S
O558 C573 1.238 . S
O559 Eu543 2.471 . S
O559 C573 1.247 . S
O560 Eu543 2.347 . S
O560 C544 1.259 . S
O561 Tb542 2.418 . S
O561 C544 1.265 . S
O562 Tb542 2.384 . S
O562 C545 1.255 . S
O563 Eu543 2.366 . S
O563 C545 1.265 . S
C564 O555 1.255 . S
C564 O556 1.265 . S
O565 Tb542 2.479 . S
O565 C552 1.238 . S
O566 Tb542 2.471 . S
O566 C552 1.247 . S
C567 C570 1.380 . S
C567 C571 1.374 . S
C567 C573 1.507 . S
C568 C569 1.387 . S
C568 C572 1.391 . S
C569 C568 1.387 . S
C569 C570 1.384 . S
C569 H578 0.930 . S
C570 C567 1.380 . S
C570 C569 1.384 . S
C570 H579 0.931 . S
C571 C567 1.374 . S
C571 C572 1.390 . S
C571 H580 0.930 . S
C572 C568 1.391 . S
C572 C571 1.390 . S
C572 H581 0.930 . S
C573 Eu543 2.825 . S
C573 O558 1.238 . S
C573 O559 1.247 . S
C573 C567 1.507 . S
H574 C547 0.930 . S
H575 C548 0.931 . S
H576 C549 0.930 . S
H577 C550 0.930 . S
H578 C569 0.930 . S
H579 C570 0.931 . S
H580 C571 0.930 . S
H581 C572 0.930 . S
Tb582 C592 2.825 . S
Tb582 O593 2.347 . S
Tb582 O596 2.366 . S
Tb582 O601 2.418 . S
Tb582 O602 2.384 . S
Tb582 O605 2.479 . S
Tb582 O606 2.471 . S
Eu583 O594 2.418 . S
Eu583 O595 2.384 . S
Eu583 O598 2.479 . S
Eu583 O599 2.471 . S
Eu583 O600 2.347 . S
Eu583 O603 2.366 . S
Eu583 C613 2.825 . S
C584 O600 1.259 . S
C584 O601 1.265 . S
C585 O602 1.255 . S
C585 O603 1.265 . S
C586 C588 1.380 . S
C586 C589 1.374 . S
C586 C592 1.507 . S
C587 C588 1.384 . S
C587 C591 1.387 . S
C587 H614 0.930 . S
C588 C586 1.380 . S
C588 C587 1.384 . S
C588 H615 0.931 . S
C589 C586 1.374 . S
C589 C590 1.390 . S
C589 H616 0.930 . S
C590 C589 1.390 . S
C590 C591 1.391 . S
C590 H617 0.930 . S
C591 C587 1.387 . S
C591 C590 1.391 . S
C592 Tb582 2.825 . S
C592 C586 1.507 . S
C592 O605 1.238 . S
C592 O606 1.247 . S
O593 Tb582 2.347 . S
O593 C597 1.259 . S
O594 Eu583 2.418 . S
O594 C597 1.265 . S
O595 Eu583 2.384 . S
O595 C604 1.255 . S
O596 Tb582 2.366 . S
O596 C604 1.265 . S
C597 O593 1.259 . S
C597 O594 1.265 . S
O598 Eu583 2.479 . S
O598 C613 1.238 . S
O599 Eu583 2.471 . S
O599 C613 1.247 . S
O600 Eu583 2.347 . S
O600 C584 1.259 . S
O601 Tb582 2.418 . S
O601 C584 1.265 . S
O602 Tb582 2.384 . S
O602 C585 1.255 . S
O603 Eu583 2.366 . S
O603 C585 1.265 . S
C604 O595 1.255 . S
C604 O596 1.265 . S
O605 Tb582 2.479 . S
O605 C592 1.238 . S
O606 Tb582 2.471 . S
O606 C592 1.247 . S
C607 C610 1.380 . S
C607 C611 1.374 . S
C607 C613 1.507 . S
C608 C609 1.387 . S
C608 C612 1.391 . S
C609 C608 1.387 . S
C609 C610 1.384 . S
C609 H618 0.930 . S
C610 C607 1.380 . S
C610 C609 1.384 . S
C610 H619 0.931 . S
C611 C607 1.374 . S
C611 C612 1.390 . S
C611 H620 0.930 . S
C612 C608 1.391 . S
C612 C611 1.390 . S
C612 H621 0.930 . S
C613 Eu583 2.825 . S
C613 O598 1.238 . S
C613 O599 1.247 . S
C613 C607 1.507 . S
H614 C587 0.930 . S
H615 C588 0.931 . S
H616 C589 0.930 . S
H617 C590 0.930 . S
H618 C609 0.930 . S
H619 C610 0.931 . S
H620 C611 0.930 . S
H621 C612 0.930 . S
Tb622 C632 2.825 . S
Tb622 O633 2.347 . S
Tb622 O636 2.366 . S
Tb622 O641 2.418 . S
Tb622 O642 2.384 . S
Tb622 O645 2.479 . S
Tb622 O646 2.471 . S
Eu623 O634 2.418 . S
Eu623 O635 2.384 . S
Eu623 O638 2.479 . S
Eu623 O639 2.471 . S
Eu623 O640 2.347 . S
Eu623 O643 2.366 . S
Eu623 C653 2.825 . S
C624 O640 1.259 . S
C624 O641 1.265 . S
C625 O642 1.255 . S
C625 O643 1.265 . S
C626 C628 1.380 . S
C626 C629 1.374 . S
C626 C632 1.507 . S
C627 C628 1.384 . S
C627 C631 1.387 . S
C627 H654 0.930 . S
C628 C626 1.380 . S
C628 C627 1.384 . S
C628 H655 0.931 . S
C629 C626 1.374 . S
C629 C630 1.390 . S
C629 H656 0.930 . S
C630 C629 1.390 . S
C630 C631 1.391 . S
C630 H657 0.930 . S
C631 C627 1.387 . S
C631 C630 1.391 . S
C632 Tb622 2.825 . S
C632 C626 1.507 . S
C632 O645 1.238 . S
C632 O646 1.247 . S
O633 Tb622 2.347 . S
O633 C637 1.259 . S
O634 Eu623 2.418 . S
O634 C637 1.265 . S
O635 Eu623 2.384 . S
O635 C644 1.255 . S
O636 Tb622 2.366 . S
O636 C644 1.265 . S
C637 O633 1.259 . S
C637 O634 1.265 . S
O638 Eu623 2.479 . S
O638 C653 1.238 . S
O639 Eu623 2.471 . S
O639 C653 1.247 . S
O640 Eu623 2.347 . S
O640 C624 1.259 . S
O641 Tb622 2.418 . S
O641 C624 1.265 . S
O642 Tb622 2.384 . S
O642 C625 1.255 . S
O643 Eu623 2.366 . S
O643 C625 1.265 . S
C644 O635 1.255 . S
C644 O636 1.265 . S
O645 Tb622 2.479 . S
O645 C632 1.238 . S
O646 Tb622 2.471 . S
O646 C632 1.247 . S
C647 C650 1.380 . S
C647 C651 1.374 . S
C647 C653 1.507 . S
C648 C649 1.387 . S
C648 C652 1.391 . S
C649 C648 1.387 . S
C649 C650 1.384 . S
C649 H658 0.930 . S
C650 C647 1.380 . S
C650 C649 1.384 . S
C650 H659 0.931 . S
C651 C647 1.374 . S
C651 C652 1.390 . S
C651 H660 0.930 . S
C652 C648 1.391 . S
C652 C651 1.390 . S
C652 H661 0.930 . S
C653 Eu623 2.825 . S
C653 O638 1.238 . S
C653 O639 1.247 . S
C653 C647 1.507 . S
H654 C627 0.930 . S
H655 C628 0.931 . S
H656 C629 0.930 . S
H657 C630 0.930 . S
H658 C649 0.930 . S
H659 C650 0.931 . S
H660 C651 0.930 . S
H661 C652 0.930 . S
Tb662 C672 2.825 . S
Tb662 O673 2.347 . S
Tb662 O676 2.366 . S
Tb662 O681 2.418 . S
Tb662 O682 2.384 . S
Tb662 O685 2.479 . S
Tb662 O686 2.471 . S
Eu663 O674 2.418 . S
Eu663 O675 2.384 . S
Eu663 O678 2.479 . S
Eu663 O679 2.471 . S
Eu663 O680 2.347 . S
Eu663 O683 2.366 . S
Eu663 C693 2.825 . S
C664 O680 1.259 . S
C664 O681 1.265 . S
C665 O682 1.255 . S
C665 O683 1.265 . S
C666 C668 1.380 . S
C666 C669 1.374 . S
C666 C672 1.507 . S
C667 C668 1.384 . S
C667 C671 1.387 . S
C667 H694 0.930 . S
C668 C666 1.380 . S
C668 C667 1.384 . S
C668 H695 0.931 . S
C669 C666 1.374 . S
C669 C670 1.390 . S
C669 H696 0.930 . S
C670 C669 1.390 . S
C670 C671 1.391 . S
C670 H697 0.930 . S
C671 C667 1.387 . S
C671 C670 1.391 . S
C672 Tb662 2.825 . S
C672 C666 1.507 . S
C672 O685 1.238 . S
C672 O686 1.247 . S
O673 Tb662 2.347 . S
O673 C677 1.259 . S
O674 Eu663 2.418 . S
O674 C677 1.265 . S
O675 Eu663 2.384 . S
O675 C684 1.255 . S
O676 Tb662 2.366 . S
O676 C684 1.265 . S
C677 O673 1.259 . S
C677 O674 1.265 . S
O678 Eu663 2.479 . S
O678 C693 1.238 . S
O679 Eu663 2.471 . S
O679 C693 1.247 . S
O680 Eu663 2.347 . S
O680 C664 1.259 . S
O681 Tb662 2.418 . S
O681 C664 1.265 . S
O682 Tb662 2.384 . S
O682 C665 1.255 . S
O683 Eu663 2.366 . S
O683 C665 1.265 . S
C684 O675 1.255 . S
C684 O676 1.265 . S
O685 Tb662 2.479 . S
O685 C672 1.238 . S
O686 Tb662 2.471 . S
O686 C672 1.247 . S
C687 C690 1.380 . S
C687 C691 1.374 . S
C687 C693 1.507 . S
C688 C689 1.387 . S
C688 C692 1.391 . S
C689 C688 1.387 . S
C689 C690 1.384 . S
C689 H698 0.930 . S
C690 C687 1.380 . S
C690 C689 1.384 . S
C690 H699 0.931 . S
C691 C687 1.374 . S
C691 C692 1.390 . S
C691 H700 0.930 . S
C692 C688 1.391 . S
C692 C691 1.390 . S
C692 H701 0.930 . S
C693 Eu663 2.825 . S
C693 O678 1.238 . S
C693 O679 1.247 . S
C693 C687 1.507 . S
H694 C667 0.930 . S
H695 C668 0.931 . S
H696 C669 0.930 . S
H697 C670 0.930 . S
H698 C689 0.930 . S
H699 C690 0.931 . S
H700 C691 0.930 . S
H701 C692 0.930 . S
H702 C710 0.929 . S
H703 C712 0.930 . S
H704 C714 0.930 . S
H705 C717 0.929 . S
H706 C720 0.930 . S
H707 C722 0.960 . S
H708 C722 0.960 . S
H709 C722 0.960 . S
C710 H702 0.929 . S
C710 C711 1.377 . S
C710 C712 1.384 . S
C711 C710 1.377 . S
C711 C717 1.390 . S
C712 H703 0.930 . S
C712 C710 1.384 . S
C712 C713 1.372 . S
C713 C712 1.372 . S
C713 C714 1.400 . S
C713 C718 1.490 . S
C714 H704 0.930 . S
C714 C713 1.400 . S
C714 C717 1.386 . S
H715 C731 0.930 . S
H716 C732 0.931 . S
C717 H705 0.929 . S
C717 C711 1.390 . S
C717 C714 1.386 . S
C718 C713 1.490 . S
C718 C720 1.395 . S
C718 C721 1.403 . S
H719 C725 0.930 . S
C720 H706 0.930 . S
C720 C718 1.395 . S
C720 C723 1.403 . S
C721 C718 1.403 . S
C721 C722 1.524 . S
C721 C725 1.400 . S
C722 H707 0.960 . S
C722 H708 0.960 . S
C722 H709 0.960 . S
C722 C721 1.524 . S
C723 C720 1.403 . S
C723 C724 1.392 . S
C723 C727 1.495 1_554 S
C724 C723 1.392 . S
C724 C725 1.385 . S
C724 C726 1.478 . S
C725 H719 0.930 . S
C725 C721 1.400 . S
C725 C724 1.385 . S
C726 C724 1.478 . S
C726 C728 1.381 . S
C726 C732 1.383 . S
C727 C723 1.495 1_556 S
C727 H733 0.959 . S
C727 H734 0.963 . S
C727 H735 0.960 . S
C728 C726 1.381 . S
C728 C729 1.394 . S
C728 H736 0.930 . S
C729 C728 1.394 . S
C729 C730 1.383 . S
C729 H737 0.929 1_554 S
C730 C729 1.383 . S
C730 C731 1.377 . S
C731 H715 0.930 . S
C731 C730 1.377 . S
C731 C732 1.379 . S
C732 H716 0.931 . S
C732 C726 1.383 . S
C732 C731 1.379 . S
H733 C727 0.959 . S
H734 C727 0.963 . S
H735 C727 0.960 . S
H736 C728 0.930 . S
H737 C729 0.929 1_556 S
H738 C746 0.929 . S
H739 C748 0.930 . S
H740 C750 0.930 . S
H741 C753 0.929 . S
H742 C756 0.930 . S
H743 C758 0.960 . S
H744 C758 0.960 . S
H745 C758 0.960 . S
C746 H738 0.929 . S
C746 C747 1.377 . S
C746 C748 1.384 . S
C747 C746 1.377 . S
C747 C753 1.390 . S
C748 H739 0.930 . S
C748 C746 1.384 . S
C748 C749 1.372 . S
C749 C748 1.372 . S
C749 C750 1.400 . S
C749 C754 1.490 . S
C750 H740 0.930 . S
C750 C749 1.400 . S
C750 C753 1.386 . S
H751 C767 0.930 . S
H752 C768 0.931 . S
C753 H741 0.929 . S
C753 C747 1.390 . S
C753 C750 1.386 . S
C754 C749 1.490 . S
C754 C756 1.395 . S
C754 C757 1.403 . S
H755 C761 0.930 . S
C756 H742 0.930 . S
C756 C754 1.395 . S
C756 C759 1.403 . S
C757 C754 1.403 . S
C757 C758 1.524 . S
C757 C761 1.400 . S
C758 H743 0.960 . S
C758 H744 0.960 . S
C758 H745 0.960 . S
C758 C757 1.524 . S
C759 C756 1.403 . S
C759 C760 1.392 . S
C759 C763 1.495 . S
C760 C759 1.392 . S
C760 C761 1.385 . S
C760 C762 1.478 . S
C761 H755 0.930 . S
C761 C757 1.400 . S
C761 C760 1.385 . S
C762 C760 1.478 . S
C762 C764 1.381 . S
C762 C768 1.383 . S
C763 C759 1.495 . S
C763 H769 0.959 . S
C763 H770 0.961 . S
C763 H771 0.960 . S
C764 C762 1.381 . S
C764 C765 1.394 . S
C764 H772 0.930 . S
C765 C764 1.394 . S
C765 C766 1.383 . S
C765 H773 0.929 . S
C766 C765 1.383 . S
C766 C767 1.377 . S
C767 H751 0.930 . S
C767 C766 1.377 . S
C767 C768 1.379 . S
C768 H752 0.931 . S
C768 C762 1.383 . S
C768 C767 1.379 . S
H769 C763 0.959 . S
H770 C763 0.961 . S
H771 C763 0.960 . S
H772 C764 0.930 . S
H773 C765 0.929 . S
H774 C782 0.929 . S
H775 C784 0.930 . S
H776 C786 0.930 . S
H777 C789 0.929 . S
H778 C792 0.930 . S
H779 C794 0.960 . S
H780 C794 0.960 . S
H781 C794 0.960 . S
C782 H774 0.929 . S
C782 C783 1.377 . S
C782 C784 1.384 . S
C783 C782 1.377 . S
C783 C789 1.390 . S
C784 H775 0.930 . S
C784 C782 1.384 . S
C784 C785 1.372 . S
C785 C784 1.372 . S
C785 C786 1.400 . S
C785 C790 1.490 . S
C786 H776 0.930 . S
C786 C785 1.400 . S
C786 C789 1.386 . S
H787 C803 0.930 . S
H788 C804 0.931 . S
C789 H777 0.929 . S
C789 C783 1.390 . S
C789 C786 1.386 . S
C790 C785 1.490 . S
C790 C792 1.395 . S
C790 C793 1.403 . S
H791 C797 0.930 . S
C792 H778 0.930 . S
C792 C790 1.395 . S
C792 C795 1.403 . S
C793 C790 1.403 . S
C793 C794 1.524 . S
C793 C797 1.400 . S
C794 H779 0.960 . S
C794 H780 0.960 . S
C794 H781 0.960 . S
C794 C793 1.524 . S
C795 C792 1.403 . S
C795 C796 1.392 . S
C795 C799 1.495 . S
C796 C795 1.392 . S
C796 C797 1.385 . S
C796 C798 1.478 . S
C797 H791 0.930 . S
C797 C793 1.400 . S
C797 C796 1.385 . S
C798 C796 1.478 . S
C798 C800 1.381 . S
C798 C804 1.383 . S
C799 C795 1.495 . S
C799 H805 0.959 . S
C799 H806 0.961 1_554 S
C799 H807 0.960 . S
C800 C798 1.381 . S
C800 C801 1.394 . S
C800 H808 0.930 . S
C801 C800 1.394 . S
C801 C802 1.383 . S
C801 H809 0.929 . S
C802 C801 1.383 . S
C802 C803 1.377 . S
C803 H787 0.930 . S
C803 C802 1.377 . S
C803 C804 1.379 . S
C804 H788 0.931 . S
C804 C798 1.383 . S
C804 C803 1.379 . S
H805 C799 0.959 . S
H806 C799 0.961 1_556 S
H807 C799 0.960 . S
H808 C800 0.930 . S
H809 C801 0.929 . S
H810 C818 0.929 . S
H811 C820 0.930 . S
H812 C822 0.930 . S
H813 C825 0.929 . S
H814 C828 0.930 1_554 S
H815 C830 0.960 . S
H816 C830 0.960 . S
H817 C830 0.960 . S
C818 H810 0.929 . S
C818 C819 1.377 . S
C818 C820 1.384 . S
C819 C818 1.377 . S
C819 C825 1.390 . S
C820 H811 0.930 . S
C820 C818 1.384 . S
C820 C821 1.372 . S
C821 C820 1.372 . S
C821 C822 1.400 . S
C821 C826 1.490 . S
C822 H812 0.930 . S
C822 C821 1.400 . S
C822 C825 1.386 . S
H823 C839 0.930 1_554 S
H824 C840 0.931 . S
C825 H813 0.929 . S
C825 C819 1.390 . S
C825 C822 1.386 . S
C826 C821 1.490 . S
C826 C828 1.395 . S
C826 C829 1.403 . S
H827 C833 0.930 . S
C828 H814 0.930 1_556 S
C828 C826 1.395 . S
C828 C831 1.403 1_556 S
C829 C826 1.403 . S
C829 C830 1.524 . S
C829 C833 1.400 . S
C830 H815 0.960 . S
C830 H816 0.960 . S
C830 H817 0.960 . S
C830 C829 1.524 . S
C831 C828 1.403 1_554 S
C831 C832 1.392 1_554 S
C831 C835 1.495 . S
C832 C831 1.392 1_556 S
C832 C833 1.385 . S
C832 C834 1.478 . S
C833 H827 0.930 . S
C833 C829 1.400 . S
C833 C832 1.385 . S
C834 C832 1.478 . S
C834 C836 1.381 . S
C834 C840 1.383 . S
C835 C831 1.495 . S
C835 H841 0.959 . S
C835 H842 0.961 . S
C835 H843 0.960 . S
C836 C834 1.381 . S
C836 C837 1.394 . S
C836 H844 0.930 . S
C837 C836 1.394 . S
C837 C838 1.384 . S
C837 H845 0.929 . S
C838 C837 1.384 . S
C838 C839 1.376 . S
C839 H823 0.930 1_556 S
C839 C838 1.376 . S
C839 C840 1.379 . S
C840 H824 0.931 . S
C840 C834 1.383 . S
C840 C839 1.379 . S
H841 C835 0.959 . S
H842 C835 0.961 . S
H843 C835 0.960 . S
H844 C836 0.930 . S
H845 C837 0.929 . S
H846 C854 0.929 . S
H847 C856 0.930 . S
H848 C858 0.930 . S
H849 C861 0.929 . S
H850 C864 0.930 . S
H851 C866 0.960 . S
H852 C866 0.960 . S
H853 C866 0.960 . S
C854 H846 0.929 . S
C854 C855 1.377 . S
C854 C856 1.384 . S
C855 C854 1.377 . S
C855 C861 1.390 . S
C856 H847 0.930 . S
C856 C854 1.384 . S
C856 C857 1.372 . S
C857 C856 1.372 . S
C857 C858 1.400 . S
C857 C862 1.490 . S
C858 H848 0.930 . S
C858 C857 1.400 . S
C858 C861 1.386 . S
H859 C875 0.930 1_554 S
H860 C876 0.931 . S
C861 H849 0.929 . S
C861 C855 1.390 . S
C861 C858 1.386 . S
C862 C857 1.490 . S
C862 C864 1.395 . S
C862 C865 1.403 . S
H863 C869 0.930 . S
C864 H850 0.930 . S
C864 C862 1.395 . S
C864 C867 1.403 . S
C865 C862 1.403 . S
C865 C866 1.524 . S
C865 C869 1.400 . S
C866 H851 0.960 . S
C866 H852 0.960 . S
C866 H853 0.960 . S
C866 C865 1.524 . S
C867 C864 1.403 . S
C867 C868 1.392 . S
C867 C871 1.495 1_556 S
C868 C867 1.392 . S
C868 C869 1.385 . S
C868 C870 1.478 . S
C869 H863 0.930 . S
C869 C865 1.400 . S
C869 C868 1.385 . S
C870 C868 1.478 . S
C870 C872 1.381 . S
C870 C876 1.383 . S
C871 C867 1.495 1_554 S
C871 H877 0.959 . S
C871 H878 0.961 . S
C871 H879 0.960 . S
C872 C870 1.381 . S
C872 C873 1.394 . S
C872 H880 0.930 . S
C873 C872 1.394 . S
C873 C874 1.383 . S
C873 H881 0.929 . S
C874 C873 1.383 . S
C874 C875 1.377 . S
C875 H859 0.930 1_556 S
C875 C874 1.377 . S
C875 C876 1.379 . S
C876 H860 0.931 . S
C876 C870 1.383 . S
C876 C875 1.379 . S
H877 C871 0.959 . S
H878 C871 0.961 . S
H879 C871 0.960 . S
H880 C872 0.930 . S
H881 C873 0.929 . S
H882 C890 0.929 . S
H883 C892 0.930 . S
H884 C894 0.953 . S
H885 C897 0.929 . S
H886 C900 0.930 . S
H887 C902 0.960 . S
H888 C902 0.960 . S
H889 C902 0.960 . S
C890 H882 0.929 . S
C890 C891 1.377 . S
C890 C892 1.384 . S
C891 C890 1.377 . S
C891 C897 1.390 . S
C892 H883 0.930 . S
C892 C890 1.384 . S
C892 C893 1.372 . S
C893 C892 1.372 . S
C893 C894 1.400 . S
C893 C898 1.490 . S
C894 H884 0.953 . S
C894 C893 1.400 . S
C894 C897 1.386 . S
H895 C911 0.930 . S
H896 C912 0.931 . S
C897 H885 0.929 . S
C897 C891 1.390 . S
C897 C894 1.386 . S
C898 C893 1.490 . S
C898 C900 1.395 . S
C898 C901 1.403 1_556 S
H899 C905 0.930 . S
C900 H886 0.930 . S
C900 C898 1.395 . S
C900 C903 1.403 . S
C901 C898 1.403 1_554 S
C901 C902 1.524 . S
C901 C905 1.400 . S
C902 H887 0.960 . S
C902 H888 0.960 . S
C902 H889 0.960 . S
C902 C901 1.524 . S
C903 C900 1.403 . S
C903 C904 1.392 . S
C903 C907 1.495 . S
C904 C903 1.392 . S
C904 C905 1.385 1_556 S
C904 C906 1.478 . S
C905 H899 0.930 . S
C905 C901 1.400 . S
C905 C904 1.385 1_554 S
C906 C904 1.478 . S
C906 C908 1.381 . S
C906 C912 1.383 1_556 S
C907 C903 1.495 . S
C907 H913 0.959 . S
C907 H914 0.961 . S
C907 H915 0.960 . S
C908 C906 1.381 . S
C908 C909 1.394 . S
C908 H916 0.930 . S
C909 C908 1.394 . S
C909 C910 1.383 1_556 S
C909 H917 0.929 . S
C910 C909 1.383 1_554 S
C910 C911 1.377 . S
C911 H895 0.930 . S
C911 C910 1.377 . S
C911 C912 1.379 . S
C912 H896 0.931 . S
C912 C906 1.383 1_554 S
C912 C911 1.379 . S
H913 C907 0.959 . S
H914 C907 0.961 . S
H915 C907 0.960 . S
H916 C908 0.930 . S
H917 C909 0.929 . S
H918 C926 0.898 1_554 S
H919 C928 0.930 1_554 S
H920 C930 0.930 . S
H921 C933 0.929 . S
H922 C936 0.930 1_554 S
H923 C938 0.960 . S
H924 C938 0.960 . S
H925 C938 0.960 . S
C926 H918 0.898 1_556 S
C926 C927 1.377 . S
C926 C928 1.384 . S
C927 C926 1.377 . S
C927 C933 1.390 . S
C928 H919 0.930 1_556 S
C928 C926 1.384 . S
C928 C929 1.372 . S
C929 C928 1.372 . S
C929 C930 1.400 . S
C929 C934 1.490 . S
C930 H920 0.930 . S
C930 C929 1.400 . S
C930 C933 1.386 . S
H931 C947 0.930 . S
H932 C948 0.931 . S
C933 H921 0.929 . S
C933 C927 1.390 . S
C933 C930 1.386 . S
C934 C929 1.490 . S
C934 C936 1.395 . S
C934 C937 1.403 . S
H935 C941 0.930 . S
C936 H922 0.930 1_556 S
C936 C934 1.395 . S
C936 C939 1.384 1_556 S
C937 C934 1.403 . S
C937 C938 1.524 . S
C937 C941 1.400 . S
C938 H923 0.960 . S
C938 H924 0.960 . S
C938 H925 0.960 . S
C938 C937 1.524 . S
C939 C936 1.384 1_554 S
C939 C940 1.362 1_554 S
C939 C943 1.547 . S
C940 C939 1.362 1_556 S
C940 C941 1.385 . S
C940 C942 1.478 . S
C941 H935 0.930 . S
C941 C937 1.400 . S
C941 C940 1.385 . S
C942 C940 1.478 . S
C942 C944 1.381 1_556 S
C942 C948 1.383 . S
C943 C939 1.547 . S
C943 H949 0.959 . S
C943 H950 0.961 . S
C943 H951 0.960 . S
C944 C942 1.381 1_554 S
C944 C945 1.394 . S
C944 H952 0.930 . S
C945 C944 1.394 . S
C945 C946 1.383 1_554 S
C945 H953 0.929 . S
C946 C945 1.383 1_556 S
C946 C947 1.377 . S
C947 H931 0.930 . S
C947 C946 1.377 . S
C947 C948 1.379 . S
C948 H932 0.931 . S
C948 C942 1.383 . S
C948 C947 1.379 . S
H949 C943 0.959 . S
H950 C943 0.961 . S
H951 C943 0.960 . S
H952 C944 0.930 . S
H953 C945 0.929 . S
H954 C962 0.929 . S
H955 C964 0.930 . S
H956 C966 0.930 . S
H957 C969 0.929 . S
H958 C972 0.930 . S
H959 C974 0.960 . S
H960 C974 0.960 . S
H961 C974 0.960 . S
C962 H954 0.929 . S
C962 C963 1.377 . S
C962 C964 1.384 . S
C963 C962 1.377 . S
C963 C969 1.390 . S
C964 H955 0.930 . S
C964 C962 1.384 . S
C964 C965 1.372 . S
C965 C964 1.372 . S
C965 C966 1.400 . S
C965 C970 1.490 . S
C966 H956 0.930 . S
C966 C965 1.400 . S
C966 C969 1.386 . S
H967 C983 0.924 . S
H968 C984 0.931 1_554 S
C969 H957 0.929 . S
C969 C963 1.390 . S
C969 C966 1.386 . S
C970 C965 1.490 . S
C970 C972 1.395 . S
C970 C973 1.403 . S
H971 C977 0.930 . S
C972 H958 0.930 . S
C972 C970 1.395 . S
C972 C975 1.403 . S
C973 C970 1.403 . S
C973 C974 1.524 . S
C973 C977 1.400 . S
C974 H959 0.960 . S
C974 H960 0.960 . S
C974 H961 0.960 . S
C974 C973 1.524 . S
C975 C972 1.403 . S
C975 C976 1.392 . S
C975 C979 1.495 . S
C976 C975 1.392 . S
C976 C977 1.385 . S
C976 C978 1.478 . S
C977 H971 0.930 . S
C977 C973 1.400 . S
C977 C976 1.385 . S
C978 C976 1.478 . S
C978 C980 1.381 . S
C978 C984 1.383 . S
C979 C975 1.495 . S
C979 H985 0.959 . S
C979 H986 0.961 . S
C979 H987 0.960 . S
C980 C978 1.381 . S
C980 C981 1.394 . S
C980 H988 0.930 . S
C981 C980 1.394 . S
C981 C982 1.383 . S
C981 H989 0.929 . S
C982 C981 1.383 . S
C982 C983 1.381 1_556 S
C983 H967 0.924 . S
C983 C982 1.381 1_554 S
C983 C984 1.381 1_554 S
C984 H968 0.931 1_556 S
C984 C978 1.383 . S
C984 C983 1.381 1_556 S
H985 C979 0.959 . S
H986 C979 0.961 . S
H987 C979 0.960 . S
H988 C980 0.930 . S
H989 C981 0.929 . S
H990 C998 0.929 . S
H991 C1000 0.939 . S
H992 C1002 0.930 . S
H993 C1005 0.929 . S
H994 C1008 0.930 . S
H995 C1010 0.960 . S
H996 C1010 0.960 . S
H997 C1010 0.960 . S
C998 H990 0.929 . S
C998 C999 1.368 1_556 S
C998 C1000 1.383 . S
C999 C998 1.368 1_554 S
C999 C1005 1.399 . S
C1000 H991 0.939 . S
C1000 C998 1.383 . S
C1000 C1001 1.367 1_556 S
C1001 C1000 1.367 1_554 S
C1001 C1002 1.400 . S
C1001 C1006 1.490 . S
C1002 H992 0.930 . S
C1002 C1001 1.400 . S
C1002 C1005 1.386 . S
H1003 C1019 0.930 . S
H1004 C1020 0.931 . S
C1005 H993 0.929 . S
C1005 C999 1.399 . S
C1005 C1002 1.386 . S
C1006 C1001 1.490 . S
C1006 C1008 1.395 . S
C1006 C1009 1.403 1_554 S
H1007 C1013 0.930 . S
C1008 H994 0.930 . S
C1008 C1006 1.395 . S
C1008 C1011 1.403 . S
C1009 C1006 1.403 1_556 S
C1009 C1010 1.524 . S
C1009 C1013 1.400 . S
C1010 H995 0.960 . S
C1010 H996 0.960 . S
C1010 H997 0.960 . S
C1010 C1009 1.524 . S
C1011 C1008 1.403 . S
C1011 C1012 1.392 . S
C1011 C1015 1.495 . S
C1012 C1011 1.392 . S
C1012 C1013 1.385 1_554 S
C1012 C1014 1.478 . S
C1013 H1007 0.930 . S
C1013 C1009 1.400 . S
C1013 C1012 1.385 1_556 S
C1014 C1012 1.478 . S
C1014 C1016 1.381 . S
C1014 C1020 1.383 . S
C1015 C1011 1.495 . S
C1015 H1021 0.959 . S
C1015 H1022 0.961 . S
C1015 H1023 0.960 . S
C1016 C1014 1.381 . S
C1016 C1017 1.394 . S
C1016 H1024 0.930 . S
C1017 C1016 1.394 . S
C1017 C1018 1.383 . S
C1017 H1025 0.929 . S
C1018 C1017 1.383 . S
C1018 C1019 1.377 . S
C1019 H1003 0.930 . S
C1019 C1018 1.377 . S
C1019 C1020 1.379 . S
C1020 H1004 0.931 . S
C1020 C1014 1.383 . S
C1020 C1019 1.379 . S
H1021 C1015 0.959 . S
H1022 C1015 0.961 . S
H1023 C1015 0.960 . S
H1024 C1016 0.930 . S
H1025 C1017 0.929 . S
H1026 C1034 0.929 . S
H1027 C1036 0.930 . S
H1028 C1038 0.930 . S
H1029 C1041 0.929 . S
H1030 C1044 0.930 . S
H1031 C1046 0.960 . S
H1032 C1046 0.960 . S
H1033 C1046 0.960 . S
C1034 H1026 0.929 . S
C1034 C1035 1.377 . S
C1034 C1036 1.384 . S
C1035 C1034 1.377 . S
C1035 C1041 1.390 . S
C1036 H1027 0.930 . S
C1036 C1034 1.384 . S
C1036 C1037 1.372 . S
C1037 C1036 1.372 . S
C1037 C1038 1.400 . S
C1037 C1042 1.490 . S
C1038 H1028 0.930 . S
C1038 C1037 1.400 . S
C1038 C1041 1.386 . S
H1039 C1055 0.930 . S
H1040 C1056 0.931 . S
C1041 H1029 0.929 . S
C1041 C1035 1.390 . S
C1041 C1038 1.386 . S
C1042 C1037 1.490 . S
C1042 C1044 1.395 . S
C1042 C1045 1.403 . S
H1043 C1049 0.930 . S
C1044 H1030 0.930 . S
C1044 C1042 1.395 . S
C1044 C1047 1.403 . S
C1045 C1042 1.403 . S
C1045 C1046 1.524 . S
C1045 C1049 1.400 . S
C1046 H1031 0.960 . S
C1046 H1032 0.960 . S
C1046 H1033 0.960 . S
C1046 C1045 1.524 . S
C1047 C1044 1.403 . S
C1047 C1048 1.392 . S
C1047 C1051 1.495 1_554 S
C1048 C1047 1.392 . S
C1048 C1049 1.385 . S
C1048 C1050 1.478 . S
C1049 H1043 0.930 . S
C1049 C1045 1.400 . S
C1049 C1048 1.385 . S
C1050 C1048 1.478 . S
C1050 C1052 1.381 . S
C1050 C1056 1.383 . S
C1051 C1047 1.495 1_556 S
C1051 H1057 0.959 . S
C1051 H1058 0.961 . S
C1051 H1059 0.960 . S
C1052 C1050 1.381 . S
C1052 C1053 1.394 . S
C1052 H1060 0.930 . S
C1053 C1052 1.394 . S
C1053 C1054 1.383 . S
C1053 H1061 0.929 . S
C1054 C1053 1.383 . S
C1054 C1055 1.377 . S
C1055 H1039 0.930 . S
C1055 C1054 1.377 . S
C1055 C1056 1.379 . S
C1056 H1040 0.931 . S
C1056 C1050 1.383 . S
C1056 C1055 1.379 . S
H1057 C1051 0.959 . S
H1058 C1051 0.961 . S
H1059 C1051 0.960 . S
H1060 C1052 0.930 . S
H1061 C1053 0.929 . S
H1062 C1070 0.929 . S
H1063 C1072 0.930 . S
H1064 C1074 0.930 . S
H1065 C1077 0.929 . S
H1066 C1080 0.930 . S
H1067 C1082 0.960 . S
H1068 C1082 0.960 . S
H1069 C1082 0.960 . S
C1070 H1062 0.929 . S
C1070 C1071 1.377 . S
C1070 C1072 1.384 . S
C1071 C1070 1.377 . S
C1071 C1077 1.390 . S
C1072 H1063 0.930 . S
C1072 C1070 1.384 . S
C1072 C1073 1.372 . S
C1073 C1072 1.372 . S
C1073 C1074 1.400 . S
C1073 C1078 1.490 . S
C1074 H1064 0.930 . S
C1074 C1073 1.400 . S
C1074 C1077 1.386 . S
H1075 C1091 0.930 . S
H1076 C1092 0.931 . S
C1077 H1065 0.929 . S
C1077 C1071 1.390 . S
C1077 C1074 1.386 . S
C1078 C1073 1.490 . S
C1078 C1080 1.395 . S
C1078 C1081 1.403 . S
H1079 C1085 0.930 . S
C1080 H1066 0.930 . S
C1080 C1078 1.395 . S
C1080 C1083 1.403 . S
C1081 C1078 1.403 . S
C1081 C1082 1.524 . S
C1081 C1085 1.400 . S
C1082 H1067 0.960 . S
C1082 H1068 0.960 . S
C1082 H1069 0.960 . S
C1082 C1081 1.524 . S
C1083 C1080 1.403 . S
C1083 C1084 1.392 . S
C1083 C1087 1.495 . S
C1084 C1083 1.392 . S
C1084 C1085 1.385 . S
C1084 C1086 1.478 . S
C1085 H1079 0.930 . S
C1085 C1081 1.400 . S
C1085 C1084 1.385 . S
C1086 C1084 1.478 . S
C1086 C1088 1.381 . S
C1086 C1092 1.383 . S
C1087 C1083 1.495 . S
C1087 H1093 0.959 . S
C1087 H1094 0.961 . S
C1087 H1095 0.960 . S
C1088 C1086 1.381 . S
C1088 C1089 1.394 . S
C1088 H1096 0.930 . S
C1089 C1088 1.394 . S
C1089 C1090 1.383 . S
C1089 H1097 0.929 . S
C1090 C1089 1.383 . S
C1090 C1091 1.377 . S
C1091 H1075 0.930 . S
C1091 C1090 1.377 . S
C1091 C1092 1.379 . S
C1092 H1076 0.931 . S
C1092 C1086 1.383 . S
C1092 C1091 1.379 . S
H1093 C1087 0.959 . S
H1094 C1087 0.961 . S
H1095 C1087 0.960 . S
H1096 C1088 0.930 . S
H1097 C1089 0.929 . S
H1098 C1106 0.929 . S
H1099 C1108 0.930 . S
H1100 C1110 0.930 1_556 S
H1101 C1113 0.882 1_556 S
H1102 C1116 0.930 . S
H1103 C1118 0.960 . S
H1104 C1118 0.960 . S
H1105 C1118 1.009 . S
C1106 H1098 0.929 . S
C1106 C1107 1.377 . S
C1106 C1108 1.384 . S
C1107 C1106 1.377 . S
C1107 C1113 1.390 . S
C1108 H1099 0.930 . S
C1108 C1106 1.384 . S
C1108 C1109 1.372 . S
C1109 C1108 1.372 . S
C1109 C1110 1.400 . S
C1109 C1114 1.490 . S
C1110 H1100 0.930 1_554 S
C1110 C1109 1.400 . S
C1110 C1113 1.386 . S
H1111 C1127 0.930 . S
H1112 C1128 0.931 . S
C1113 H1101 0.882 1_554 S
C1113 C1107 1.390 . S
C1113 C1110 1.386 . S
C1114 C1109 1.490 . S
C1114 C1116 1.395 . S
C1114 C1117 1.403 . S
H1115 C1121 0.930 . S
C1116 H1102 0.930 . S
C1116 C1114 1.395 . S
C1116 C1119 1.403 . S
C1117 C1114 1.403 . S
C1117 C1118 1.524 . S
C1117 C1121 1.400 . S
C1118 H1103 0.960 . S
C1118 H1104 0.960 . S
C1118 H1105 1.009 . S
C1118 C1117 1.524 . S
C1119 C1116 1.403 . S
C1119 C1120 1.392 . S
C1119 C1123 1.495 . S
C1120 C1119 1.392 . S
C1120 C1121 1.385 . S
C1120 C1122 1.478 . S
C1121 H1115 0.930 . S
C1121 C1117 1.400 . S
C1121 C1120 1.385 . S
C1122 C1120 1.478 . S
C1122 C1124 1.381 . S
C1122 C1128 1.383 1_554 S
C1123 C1119 1.495 . S
C1123 H1129 0.959 . S
C1123 H1130 0.961 . S
C1123 H1131 0.960 . S
C1124 C1122 1.381 . S
C1124 C1125 1.394 . S
C1124 H1132 0.930 . S
C1125 C1124 1.394 . S
C1125 C1126 1.383 . S
C1125 H1133 0.929 . S
C1126 C1125 1.383 . S
C1126 C1127 1.377 1_554 S
C1127 H1111 0.930 . S
C1127 C1126 1.377 1_556 S
C1127 C1128 1.379 . S
C1128 H1112 0.931 . S
C1128 C1122 1.383 1_556 S
C1128 C1127 1.379 . S
H1129 C1123 0.959 . S
H1130 C1123 0.961 . S
H1131 C1123 0.960 . S
H1132 C1124 0.930 . S
H1133 C1125 0.929 . S
H1134 C1142 0.929 . S
H1135 C1144 0.930 . S
H1136 C1146 0.930 . S
H1137 C1149 0.929 . S
H1138 C1152 0.930 . S
H1139 C1154 0.960 . S
H1140 C1154 0.960 . S
H1141 C1154 0.960 . S
C1142 H1134 0.929 . S
C1142 C1143 1.377 . S
C1142 C1144 1.384 . S
C1143 C1142 1.377 . S
C1143 C1149 1.390 . S
C1144 H1135 0.930 . S
C1144 C1142 1.384 . S
C1144 C1145 1.372 . S
C1145 C1144 1.372 . S
C1145 C1146 1.400 . S
C1145 C1150 1.490 . S
C1146 H1136 0.930 . S
C1146 C1145 1.400 . S
C1146 C1149 1.386 . S
H1147 C1163 0.930 . S
H1148 C1164 0.931 . S
C1149 H1137 0.929 . S
C1149 C1143 1.390 . S
C1149 C1146 1.386 . S
C1150 C1145 1.490 . S
C1150 C1152 1.395 . S
C1150 C1153 1.403 . S
H1151 C1157 0.930 1_455 S
C1152 H1138 0.930 . S
C1152 C1150 1.395 . S
C1152 C1155 1.403 1_655 S
C1153 C1150 1.403 . S
C1153 C1154 1.524 . S
C1153 C1157 1.400 . S
C1154 H1139 0.960 . S
C1154 H1140 0.960 . S
C1154 H1141 0.960 . S
C1154 C1153 1.524 . S
C1155 C1152 1.403 1_455 S
C1155 C1156 1.392 . S
C1155 C1159 1.495 . S
C1156 C1155 1.392 . S
C1156 C1157 1.385 1_455 S
C1156 C1158 1.478 . S
C1157 H1151 0.930 1_655 S
C1157 C1153 1.400 . S
C1157 C1156 1.385 1_655 S
C1158 C1156 1.478 . S
C1158 C1160 1.381 . S
C1158 C1164 1.383 . S
C1159 C1155 1.495 . S
C1159 H1165 0.959 . S
C1159 H1166 0.961 . S
C1159 H1167 0.960 . S
C1160 C1158 1.381 . S
C1160 C1161 1.394 . S
C1160 H1168 0.930 . S
C1161 C1160 1.394 . S
C1161 C1162 1.383 . S
C1161 H1169 0.929 . S
C1162 C1161 1.383 . S
C1162 C1163 1.377 . S
C1163 H1147 0.930 . S
C1163 C1162 1.377 . S
C1163 C1164 1.379 . S
C1164 H1148 0.931 . S
C1164 C1158 1.383 . S
C1164 C1163 1.379 . S
H1165 C1159 0.959 . S
H1166 C1159 0.961 . S
H1167 C1159 0.960 . S
H1168 C1160 0.930 . S
H1169 C1161 0.929 . S
H1170 C1178 0.929 . S
H1171 C1180 0.930 . S
H1172 C1182 0.930 . S
H1173 C1185 0.929 . S
H1174 C1188 0.930 . S
H1175 C1190 0.960 . S
H1176 C1190 0.960 . S
H1177 C1190 0.960 . S
C1178 H1170 0.929 . S
C1178 C1179 1.377 . S
C1178 C1180 1.384 . S
C1179 C1178 1.377 . S
C1179 C1185 1.390 . S
C1180 H1171 0.930 . S
C1180 C1178 1.384 . S
C1180 C1181 1.372 . S
C1181 C1180 1.372 . S
C1181 C1182 1.400 . S
C1181 C1186 1.490 . S
C1182 H1172 0.930 . S
C1182 C1181 1.400 . S
C1182 C1185 1.386 . S
H1183 C1199 0.930 . S
H1184 C1200 0.931 . S
C1185 H1173 0.929 . S
C1185 C1179 1.390 . S
C1185 C1182 1.386 . S
C1186 C1181 1.490 . S
C1186 C1188 1.395 . S
C1186 C1189 1.403 . S
H1187 C1193 0.930 . S
C1188 H1174 0.930 . S
C1188 C1186 1.395 . S
C1188 C1191 1.403 . S
C1189 C1186 1.403 . S
C1189 C1190 1.524 . S
C1189 C1193 1.400 . S
C1190 H1175 0.960 . S
C1190 H1176 0.960 . S
C1190 H1177 0.960 . S
C1190 C1189 1.524 . S
C1191 C1188 1.403 . S
C1191 C1192 1.392 . S
C1191 C1195 1.495 . S
C1192 C1191 1.392 . S
C1192 C1193 1.385 . S
C1192 C1194 1.478 . S
C1193 H1187 0.930 . S
C1193 C1189 1.400 . S
C1193 C1192 1.385 . S
C1194 C1192 1.478 . S
C1194 C1196 1.381 . S
C1194 C1200 1.383 . S
C1195 C1191 1.495 . S
C1195 H1201 0.959 . S
C1195 H1202 0.961 . S
C1195 H1203 0.960 . S
C1196 C1194 1.381 . S
C1196 C1197 1.394 . S
C1196 H1204 0.930 . S
C1197 C1196 1.394 . S
C1197 C1198 1.383 . S
C1197 H1205 0.929 . S
C1198 C1197 1.383 . S
C1198 C1199 1.377 . S
C1199 H1183 0.930 . S
C1199 C1198 1.377 . S
C1199 C1200 1.379 . S
C1200 H1184 0.931 . S
C1200 C1194 1.383 . S
C1200 C1199 1.379 . S
H1201 C1195 0.959 . S
H1202 C1195 0.961 . S
H1203 C1195 0.960 . S
H1204 C1196 0.930 . S
H1205 C1197 0.929 . S
H1206 C1214 0.929 . S
H1207 C1216 0.930 . S
H1208 C1218 0.930 . S
H1209 C1221 0.929 . S
H1210 C1224 0.930 . S
H1211 C1226 0.960 . S
H1212 C1226 0.960 . S
H1213 C1226 0.960 . S
C1214 H1206 0.929 . S
C1214 C1215 1.377 . S
C1214 C1216 1.384 . S
C1215 C1214 1.377 . S
C1215 C1221 1.390 . S
C1216 H1207 0.930 . S
C1216 C1214 1.384 . S
C1216 C1217 1.372 . S
C1217 C1216 1.372 . S
C1217 C1218 1.400 . S
C1217 C1222 1.490 . S
C1218 H1208 0.930 . S
C1218 C1217 1.400 . S
C1218 C1221 1.386 . S
H1219 C1235 0.930 . S
H1220 C1236 0.931 . S
C1221 H1209 0.929 . S
C1221 C1215 1.390 . S
C1221 C1218 1.386 . S
C1222 C1217 1.490 . S
C1222 C1224 1.395 . S
C1222 C1225 1.403 . S
H1223 C1229 0.896 1_565 S
C1224 H1210 0.930 . S
C1224 C1222 1.395 . S
C1224 C1227 1.403 . S
C1225 C1222 1.403 . S
C1225 C1226 1.524 . S
C1225 C1229 1.400 . S
C1226 H1211 0.960 . S
C1226 H1212 0.960 . S
C1226 H1213 0.960 . S
C1226 C1225 1.524 . S
C1227 C1224 1.403 . S
C1227 C1228 1.392 . S
C1227 C1231 1.495 . S
C1228 C1227 1.392 . S
C1228 C1229 1.385 . S
C1228 C1230 1.478 1_545 S
C1229 H1223 0.896 1_545 S
C1229 C1225 1.400 . S
C1229 C1228 1.385 . S
C1230 C1228 1.478 1_565 S
C1230 C1232 1.381 . S
C1230 C1236 1.383 . S
C1231 C1227 1.495 . S
C1231 H1237 0.959 . S
C1231 H1238 0.961 . S
C1231 H1239 0.960 1_545 S
C1232 C1230 1.381 . S
C1232 C1233 1.394 . S
C1232 H1240 0.930 . S
C1233 C1232 1.394 . S
C1233 C1234 1.383 . S
C1233 H1241 0.929 . S
C1234 C1233 1.383 . S
C1234 C1235 1.377 . S
C1235 H1219 0.930 . S
C1235 C1234 1.377 . S
C1235 C1236 1.379 . S
C1236 H1220 0.931 . S
C1236 C1230 1.383 . S
C1236 C1235 1.379 . S
H1237 C1231 0.959 . S
H1238 C1231 0.961 . S
H1239 C1231 0.960 1_565 S
H1240 C1232 0.930 . S
H1241 C1233 0.929 . S
H1242 C1250 0.929 . S
H1243 C1252 0.930 . S
H1244 C1254 0.930 . S
H1245 C1257 0.929 . S
H1246 C1260 0.930 . S
H1247 C1262 0.960 . S
H1248 C1262 0.960 . S
H1249 C1262 0.960 . S
C1250 H1242 0.929 . S
C1250 C1251 1.377 . S
C1250 C1252 1.384 . S
C1251 C1250 1.377 . S
C1251 C1257 1.390 . S
C1252 H1243 0.930 . S
C1252 C1250 1.384 . S
C1252 C1253 1.372 . S
C1253 C1252 1.372 . S
C1253 C1254 1.400 . S
C1253 C1258 1.490 . S
C1254 H1244 0.930 . S
C1254 C1253 1.400 . S
C1254 C1257 1.386 . S
H1255 C1271 0.930 . S
H1256 C1272 0.931 . S
C1257 H1245 0.929 . S
C1257 C1251 1.390 . S
C1257 C1254 1.386 . S
C1258 C1253 1.490 . S
C1258 C1260 1.395 . S
C1258 C1261 1.403 . S
H1259 C1265 0.930 . S
C1260 H1246 0.930 . S
C1260 C1258 1.395 . S
C1260 C1263 1.403 . S
C1261 C1258 1.403 . S
C1261 C1262 1.524 . S
C1261 C1265 1.400 . S
C1262 H1247 0.960 . S
C1262 H1248 0.960 . S
C1262 H1249 0.960 . S
C1262 C1261 1.524 . S
C1263 C1260 1.403 . S
C1263 C1264 1.392 . S
C1263 C1267 1.495 . S
C1264 C1263 1.392 . S
C1264 C1265 1.385 . S
C1264 C1266 1.478 . S
C1265 H1259 0.930 . S
C1265 C1261 1.400 . S
C1265 C1264 1.385 . S
C1266 C1264 1.478 . S
C1266 C1268 1.381 . S
C1266 C1272 1.383 . S
C1267 C1263 1.495 . S
C1267 H1273 0.959 . S
C1267 H1274 0.961 . S
C1267 H1275 0.960 . S
C1268 C1266 1.381 . S
C1268 C1269 1.394 . S
C1268 H1276 0.930 . S
C1269 C1268 1.394 . S
C1269 C1270 1.383 . S
C1269 H1277 0.929 . S
C1270 C1269 1.383 . S
C1270 C1271 1.377 . S
C1271 H1255 0.930 . S
C1271 C1270 1.377 . S
C1271 C1272 1.379 . S
C1272 H1256 0.931 . S
C1272 C1266 1.383 . S
C1272 C1271 1.379 . S
H1273 C1267 0.959 . S
H1274 C1267 0.961 . S
H1275 C1267 0.960 . S
H1276 C1268 0.930 . S
H1277 C1269 0.929 . S
H1278 C1286 0.929 . S
H1279 C1288 0.930 . S
H1280 C1290 0.930 . S
H1281 C1293 0.929 . S
H1282 C1296 0.930 . S
H1283 C1298 0.960 . S
H1284 C1298 0.960 . S
H1285 C1298 0.960 . S
C1286 H1278 0.929 . S
C1286 C1287 1.377 . S
C1286 C1288 1.384 . S
C1287 C1286 1.377 . S
C1287 C1293 1.390 . S
C1288 H1279 0.930 . S
C1288 C1286 1.384 . S
C1288 C1289 1.372 . S
C1289 C1288 1.372 . S
C1289 C1290 1.400 . S
C1289 C1294 1.490 . S
C1290 H1280 0.930 . S
C1290 C1289 1.400 . S
C1290 C1293 1.386 . S
H1291 C1307 0.930 . S
H1292 C1308 0.931 . S
C1293 H1281 0.929 . S
C1293 C1287 1.390 . S
C1293 C1290 1.386 . S
C1294 C1289 1.490 . S
C1294 C1296 1.395 . S
C1294 C1297 1.403 . S
H1295 C1301 0.930 . S
C1296 H1282 0.930 . S
C1296 C1294 1.395 . S
C1296 C1299 1.403 . S
C1297 C1294 1.403 . S
C1297 C1298 1.524 . S
C1297 C1301 1.400 . S
C1298 H1283 0.960 . S
C1298 H1284 0.960 . S
C1298 H1285 0.960 . S
C1298 C1297 1.524 . S
C1299 C1296 1.403 . S
C1299 C1300 1.392 . S
C1299 C1303 1.495 . S
C1300 C1299 1.392 . S
C1300 C1301 1.385 . S
C1300 C1302 1.478 . S
C1301 H1295 0.930 . S
C1301 C1297 1.400 . S
C1301 C1300 1.385 . S
C1302 C1300 1.478 . S
C1302 C1304 1.381 . S
C1302 C1308 1.383 . S
C1303 C1299 1.495 . S
C1303 H1309 0.959 . S
C1303 H1310 0.961 . S
C1303 H1311 0.960 . S
C1304 C1302 1.381 . S
C1304 C1305 1.394 . S
C1304 H1312 0.930 . S
C1305 C1304 1.394 . S
C1305 C1306 1.383 . S
C1305 H1313 0.929 . S
C1306 C1305 1.383 . S
C1306 C1307 1.377 . S
C1307 H1291 0.930 . S
C1307 C1306 1.377 . S
C1307 C1308 1.379 . S
C1308 H1292 0.931 . S
C1308 C1302 1.383 . S
C1308 C1307 1.379 . S
H1309 C1303 0.959 . S
H1310 C1303 0.961 . S
H1311 C1303 0.960 . S
H1312 C1304 0.930 . S
H1313 C1305 0.929 . S
H1314 C1322 0.929 . S
H1315 C1324 0.930 . S
H1316 C1326 0.930 . S
H1317 C1329 0.929 . S
H1318 C1332 0.930 . S
H1319 C1334 0.960 . S
H1320 C1334 0.960 . S
H1321 C1334 0.960 . S
C1322 H1314 0.929 . S
C1322 C1323 1.377 . S
C1322 C1324 1.384 . S
C1323 C1322 1.377 . S
C1323 C1329 1.390 . S
C1324 H1315 0.930 . S
C1324 C1322 1.384 . S
C1324 C1325 1.372 . S
C1325 C1324 1.372 . S
C1325 C1326 1.400 . S
C1325 C1330 1.490 . S
C1326 H1316 0.930 . S
C1326 C1325 1.400 . S
C1326 C1329 1.386 . S
H1327 C1343 0.930 . S
H1328 C1344 0.931 . S
C1329 H1317 0.929 . S
C1329 C1323 1.390 . S
C1329 C1326 1.386 . S
C1330 C1325 1.490 . S
C1330 C1332 1.395 . S
C1330 C1333 1.403 . S
H1331 C1337 0.930 . S
C1332 H1318 0.930 . S
C1332 C1330 1.395 . S
C1332 C1335 1.403 . S
C1333 C1330 1.403 . S
C1333 C1334 1.524 . S
C1333 C1337 1.400 . S
C1334 H1319 0.960 . S
C1334 H1320 0.960 . S
C1334 H1321 0.960 . S
C1334 C1333 1.524 . S
C1335 C1332 1.403 . S
C1335 C1336 1.392 . S
C1335 C1339 1.495 . S
C1336 C1335 1.392 . S
C1336 C1337 1.385 . S
C1336 C1338 1.478 . S
C1337 H1331 0.930 . S
C1337 C1333 1.400 . S
C1337 C1336 1.385 . S
C1338 C1336 1.478 . S
C1338 C1340 1.381 . S
C1338 C1344 1.383 . S
C1339 C1335 1.495 . S
C1339 H1345 0.959 . S
C1339 H1346 0.961 . S
C1339 H1347 0.960 . S
C1340 C1338 1.381 . S
C1340 C1341 1.394 . S
C1340 H1348 0.930 . S
C1341 C1340 1.394 . S
C1341 C1342 1.383 . S
C1341 H1349 0.929 . S
C1342 C1341 1.383 . S
C1342 C1343 1.377 . S
C1343 H1327 0.930 . S
C1343 C1342 1.377 . S
C1343 C1344 1.379 . S
C1344 H1328 0.931 . S
C1344 C1338 1.383 . S
C1344 C1343 1.379 . S
H1345 C1339 0.959 . S
H1346 C1339 0.961 . S
H1347 C1339 0.960 . S
H1348 C1340 0.930 . S
H1349 C1341 0.929 . S
H1350 C1358 0.929 . S
H1351 C1360 0.930 . S
H1352 C1362 0.930 . S
H1353 C1365 0.929 . S
H1354 C1368 0.930 . S
H1355 C1370 0.960 . S
H1356 C1370 0.960 . S
H1357 C1370 0.960 . S
C1358 H1350 0.929 . S
C1358 C1359 1.377 . S
C1358 C1360 1.384 . S
C1359 C1358 1.377 . S
C1359 C1365 1.390 . S
C1360 H1351 0.930 . S
C1360 C1358 1.384 . S
C1360 C1361 1.372 . S
C1361 C1360 1.372 . S
C1361 C1362 1.400 . S
C1361 C1366 1.490 . S
C1362 H1352 0.930 . S
C1362 C1361 1.400 . S
C1362 C1365 1.386 . S
H1363 C1379 0.930 . S
H1364 C1380 0.931 . S
C1365 H1353 0.929 . S
C1365 C1359 1.390 . S
C1365 C1362 1.386 . S
C1366 C1361 1.490 . S
C1366 C1368 1.395 . S
C1366 C1369 1.403 . S
H1367 C1373 0.930 . S
C1368 H1354 0.930 . S
C1368 C1366 1.395 . S
C1368 C1371 1.403 . S
C1369 C1366 1.403 . S
C1369 C1370 1.524 . S
C1369 C1373 1.400 . S
C1370 H1355 0.960 . S
C1370 H1356 0.960 . S
C1370 H1357 0.960 . S
C1370 C1369 1.524 . S
C1371 C1368 1.403 . S
C1371 C1372 1.392 . S
C1371 C1375 1.495 . S
C1372 C1371 1.392 . S
C1372 C1373 1.385 . S
C1372 C1374 1.478 . S
C1373 H1367 0.930 . S
C1373 C1369 1.400 . S
C1373 C1372 1.385 . S
C1374 C1372 1.478 . S
C1374 C1376 1.381 . S
C1374 C1380 1.383 . S
C1375 C1371 1.495 . S
C1375 H1381 0.959 . S
C1375 H1382 0.961 . S
C1375 H1383 0.960 . S
C1376 C1374 1.381 . S
C1376 C1377 1.394 . S
C1376 H1384 0.930 . S
C1377 C1376 1.394 . S
C1377 C1378 1.383 . S
C1377 H1385 0.929 . S
C1378 C1377 1.383 . S
C1378 C1379 1.377 . S
C1379 H1363 0.930 . S
C1379 C1378 1.377 . S
C1379 C1380 1.379 . S
C1380 H1364 0.931 . S
C1380 C1374 1.383 . S
C1380 C1379 1.379 . S
H1381 C1375 0.959 . S
H1382 C1375 0.961 . S
H1383 C1375 0.960 . S
H1384 C1376 0.930 . S
H1385 C1377 0.929 . S
H1386 C1394 0.929 . S
H1387 C1396 0.930 . S
H1388 C1398 0.930 . S
H1389 C1401 0.929 . S
H1390 C1404 0.930 . S
H1391 C1406 0.960 . S
H1392 C1406 0.960 . S
H1393 C1406 0.960 . S
C1394 H1386 0.929 . S
C1394 C1395 1.377 . S
C1394 C1396 1.384 . S
C1395 C1394 1.377 . S
C1395 C1401 1.390 . S
C1396 H1387 0.930 . S
C1396 C1394 1.384 . S
C1396 C1397 1.372 . S
C1397 C1396 1.372 . S
C1397 C1398 1.400 . S
C1397 C1402 1.490 . S
C1398 H1388 0.930 . S
C1398 C1397 1.400 . S
C1398 C1401 1.386 . S
H1399 C1415 0.930 . S
H1400 C1416 0.931 . S
C1401 H1389 0.929 . S
C1401 C1395 1.390 . S
C1401 C1398 1.386 . S
C1402 C1397 1.490 . S
C1402 C1404 1.395 . S
C1402 C1405 1.403 . S
H1403 C1409 0.930 . S
C1404 H1390 0.930 . S
C1404 C1402 1.395 . S
C1404 C1407 1.403 . S
C1405 C1402 1.403 . S
C1405 C1406 1.524 . S
C1405 C1409 1.400 . S
C1406 H1391 0.960 . S
C1406 H1392 0.960 . S
C1406 H1393 0.960 . S
C1406 C1405 1.524 . S
C1407 C1404 1.403 . S
C1407 C1408 1.392 . S
C1407 C1411 1.495 . S
C1408 C1407 1.392 . S
C1408 C1409 1.385 . S
C1408 C1410 1.478 . S
C1409 H1403 0.930 . S
C1409 C1405 1.400 . S
C1409 C1408 1.385 . S
C1410 C1408 1.478 . S
C1410 C1412 1.381 . S
C1410 C1416 1.383 . S
C1411 C1407 1.495 . S
C1411 H1417 0.959 . S
C1411 H1418 0.961 . S
C1411 H1419 0.960 . S
C1412 C1410 1.381 . S
C1412 C1413 1.394 . S
C1412 H1420 0.930 . S
C1413 C1412 1.394 . S
C1413 C1414 1.383 . S
C1413 H1421 0.929 . S
C1414 C1413 1.383 . S
C1414 C1415 1.377 . S
C1415 H1399 0.930 . S
C1415 C1414 1.377 . S
C1415 C1416 1.379 . S
C1416 H1400 0.931 . S
C1416 C1410 1.383 . S
C1416 C1415 1.379 . S
H1417 C1411 0.959 . S
H1418 C1411 0.961 . S
H1419 C1411 0.960 . S
H1420 C1412 0.930 . S
H1421 C1413 0.929 . S
H1422 C1430 0.929 . S
H1423 C1432 0.930 . S
H1424 C1434 0.930 . S
H1425 C1437 0.929 . S
H1426 C1440 0.930 . S
H1427 C1442 0.960 . S
H1428 C1442 0.960 . S
H1429 C1442 0.960 . S
C1430 H1422 0.929 . S
C1430 C1431 1.377 . S
C1430 C1432 1.384 . S
C1431 C1430 1.377 . S
C1431 C1437 1.390 . S
C1432 H1423 0.930 . S
C1432 C1430 1.384 . S
C1432 C1433 1.372 . S
C1433 C1432 1.372 . S
C1433 C1434 1.400 . S
C1433 C1438 1.490 . S
C1434 H1424 0.930 . S
C1434 C1433 1.400 . S
C1434 C1437 1.386 . S
H1435 C1451 0.930 . S
H1436 C1452 0.931 . S
C1437 H1425 0.929 . S
C1437 C1431 1.390 . S
C1437 C1434 1.386 . S
C1438 C1433 1.490 . S
C1438 C1440 1.395 . S
C1438 C1441 1.403 . S
H1439 C1445 0.930 . S
C1440 H1426 0.930 . S
C1440 C1438 1.395 . S
C1440 C1443 1.403 . S
C1441 C1438 1.403 . S
C1441 C1442 1.524 . S
C1441 C1445 1.400 . S
C1442 H1427 0.960 . S
C1442 H1428 0.960 . S
C1442 H1429 0.960 . S
C1442 C1441 1.524 . S
C1443 C1440 1.403 . S
C1443 C1444 1.392 . S
C1443 C1447 1.495 . S
C1444 C1443 1.392 . S
C1444 C1445 1.385 . S
C1444 C1446 1.478 . S
C1445 H1439 0.930 . S
C1445 C1441 1.400 . S
C1445 C1444 1.385 . S
C1446 C1444 1.478 . S
C1446 C1448 1.381 . S
C1446 C1452 1.383 . S
C1447 C1443 1.495 . S
C1447 H1453 0.959 . S
C1447 H1454 0.961 . S
C1447 H1455 0.960 . S
C1448 C1446 1.381 . S
C1448 C1449 1.394 . S
C1448 H1456 0.930 . S
C1449 C1448 1.394 . S
C1449 C1450 1.383 . S
C1449 H1457 0.929 . S
C1450 C1449 1.383 . S
C1450 C1451 1.377 . S
C1451 H1435 0.930 . S
C1451 C1450 1.377 . S
C1451 C1452 1.379 . S
C1452 H1436 0.931 . S
C1452 C1446 1.383 . S
C1452 C1451 1.379 . S
H1453 C1447 0.959 . S
H1454 C1447 0.961 . S
H1455 C1447 0.960 . S
H1456 C1448 0.930 . S
H1457 C1449 0.929 . S
H1458 C1466 0.929 . S
H1459 C1468 0.930 1_565 S
H1460 C1470 0.889 1_565 S
H1461 C1473 0.929 . S
H1462 C1476 0.930 . S
H1463 C1478 0.960 . S
H1464 C1478 0.960 . S
H1465 C1478 0.960 . S
C1466 H1458 0.929 . S
C1466 C1467 1.377 . S
C1466 C1468 1.384 . S
C1467 C1466 1.377 . S
C1467 C1473 1.390 . S
C1468 H1459 0.930 1_545 S
C1468 C1466 1.384 . S
C1468 C1469 1.372 1_545 S
C1469 C1468 1.372 1_565 S
C1469 C1470 1.404 1_565 S
C1469 C1474 1.490 . S
C1470 H1460 0.889 1_545 S
C1470 C1469 1.404 1_545 S
C1470 C1473 1.423 . S
H1471 C1487 0.930 . S
H1472 C1488 0.931 . S
C1473 H1461 0.929 . S
C1473 C1467 1.390 . S
C1473 C1470 1.423 . S
C1474 C1469 1.490 . S
C1474 C1476 1.395 . S
C1474 C1477 1.403 . S
H1475 C1481 0.930 . S
C1476 H1462 0.930 . S
C1476 C1474 1.395 . S
C1476 C1479 1.403 . S
C1477 C1474 1.403 . S
C1477 C1478 1.524 . S
C1477 C1481 1.400 . S
C1478 H1463 0.960 . S
C1478 H1464 0.960 . S
C1478 H1465 0.960 . S
C1478 C1477 1.524 . S
C1479 C1476 1.403 . S
C1479 C1480 1.392 . S
C1479 C1483 1.495 . S
C1480 C1479 1.392 . S
C1480 C1481 1.385 . S
C1480 C1482 1.478 . S
C1481 H1475 0.930 . S
C1481 C1477 1.400 . S
C1481 C1480 1.385 . S
C1482 C1480 1.478 . S
C1482 C1484 1.381 . S
C1482 C1488 1.383 . S
C1483 C1479 1.495 . S
C1483 H1489 0.959 . S
C1483 H1490 0.961 . S
C1483 H1491 0.960 . S
C1484 C1482 1.381 . S
C1484 C1485 1.394 . S
C1484 H1492 0.930 . S
C1485 C1484 1.394 . S
C1485 C1486 1.383 . S
C1485 H1493 0.929 . S
C1486 C1485 1.383 . S
C1486 C1487 1.377 . S
C1487 H1471 0.930 . S
C1487 C1486 1.377 . S
C1487 C1488 1.379 . S
C1488 H1472 0.931 . S
C1488 C1482 1.383 . S
C1488 C1487 1.379 . S
H1489 C1483 0.959 . S
H1490 C1483 0.961 . S
H1491 C1483 0.960 . S
H1492 C1484 0.930 . S
H1493 C1485 0.929 . S
H1494 C1502 0.929 . S
H1495 C1504 0.930 . S
H1496 C1506 0.930 . S
H1497 C1509 0.929 . S
H1498 C1512 0.930 . S
H1499 C1514 0.960 . S
H1500 C1514 0.960 . S
H1501 C1514 0.960 . S
C1502 H1494 0.929 . S
C1502 C1503 1.377 . S
C1502 C1504 1.384 1_655 S
C1503 C1502 1.377 . S
C1503 C1509 1.390 1_655 S
C1504 H1495 0.930 . S
C1504 C1502 1.384 1_455 S
C1504 C1505 1.372 . S
C1505 C1504 1.372 . S
C1505 C1506 1.400 . S
C1505 C1510 1.490 . S
C1506 H1496 0.930 . S
C1506 C1505 1.400 . S
C1506 C1509 1.386 . S
H1507 C1523 0.930 . S
H1508 C1524 0.931 . S
C1509 H1497 0.929 . S
C1509 C1503 1.390 1_455 S
C1509 C1506 1.386 . S
C1510 C1505 1.490 . S
C1510 C1512 1.395 . S
C1510 C1513 1.403 . S
H1511 C1517 0.930 . S
C1512 H1498 0.930 . S
C1512 C1510 1.395 . S
C1512 C1515 1.403 . S
C1513 C1510 1.403 . S
C1513 C1514 1.524 . S
C1513 C1517 1.400 . S
C1514 H1499 0.960 . S
C1514 H1500 0.960 . S
C1514 H1501 0.960 . S
C1514 C1513 1.524 . S
C1515 C1512 1.403 . S
C1515 C1516 1.392 . S
C1515 C1519 1.495 . S
C1516 C1515 1.392 . S
C1516 C1517 1.385 . S
C1516 C1518 1.478 . S
C1517 H1511 0.930 . S
C1517 C1513 1.400 . S
C1517 C1516 1.385 . S
C1518 C1516 1.478 . S
C1518 C1520 1.381 . S
C1518 C1524 1.383 . S
C1519 C1515 1.495 . S
C1519 H1525 0.959 . S
C1519 H1526 0.961 . S
C1519 H1527 0.960 . S
C1520 C1518 1.381 . S
C1520 C1521 1.394 . S
C1520 H1528 0.930 . S
C1521 C1520 1.394 . S
C1521 C1522 1.383 . S
C1521 H1529 0.929 . S
C1522 C1521 1.383 . S
C1522 C1523 1.377 . S
C1523 H1507 0.930 . S
C1523 C1522 1.377 . S
C1523 C1524 1.379 . S
C1524 H1508 0.931 . S
C1524 C1518 1.383 . S
C1524 C1523 1.379 . S
H1525 C1519 0.959 . S
H1526 C1519 0.961 . S
H1527 C1519 0.960 . S
H1528 C1520 0.930 . S
H1529 C1521 0.929 . S
H1530 C1538 0.929 . S
H1531 C1540 0.930 . S
H1532 C1542 0.930 . S
H1533 C1545 0.929 . S
H1534 C1548 0.930 . S
H1535 C1550 0.960 . S
H1536 C1550 0.960 . S
H1537 C1550 0.960 . S
C1538 H1530 0.929 . S
C1538 C1539 1.377 . S
C1538 C1540 1.384 . S
C1539 C1538 1.377 . S
C1539 C1545 1.390 . S
C1540 H1531 0.930 . S
C1540 C1538 1.384 . S
C1540 C1541 1.372 . S
C1541 C1540 1.372 . S
C1541 C1542 1.400 . S
C1541 C1546 1.490 . S
C1542 H1532 0.930 . S
C1542 C1541 1.400 . S
C1542 C1545 1.386 . S
H1543 C1559 0.930 . S
H1544 C1560 0.931 . S
C1545 H1533 0.929 . S
C1545 C1539 1.390 . S
C1545 C1542 1.386 . S
C1546 C1541 1.490 . S
C1546 C1548 1.395 . S
C1546 C1549 1.403 . S
H1547 C1553 0.930 . S
C1548 H1534 0.930 . S
C1548 C1546 1.395 . S
C1548 C1551 1.403 . S
C1549 C1546 1.403 . S
C1549 C1550 1.524 . S
C1549 C1553 1.400 . S
C1550 H1535 0.960 . S
C1550 H1536 0.960 . S
C1550 H1537 0.960 . S
C1550 C1549 1.524 . S
C1551 C1548 1.403 . S
C1551 C1552 1.392 . S
C1551 C1555 1.495 . S
C1552 C1551 1.392 . S
C1552 C1553 1.385 . S
C1552 C1554 1.478 . S
C1553 H1547 0.930 . S
C1553 C1549 1.400 . S
C1553 C1552 1.385 . S
C1554 C1552 1.478 . S
C1554 C1556 1.381 . S
C1554 C1560 1.383 . S
C1555 C1551 1.495 . S
C1555 H1561 0.959 . S
C1555 H1562 0.961 . S
C1555 H1563 0.960 . S
C1556 C1554 1.381 . S
C1556 C1557 1.394 . S
C1556 H1564 0.930 . S
C1557 C1556 1.394 . S
C1557 C1558 1.383 . S
C1557 H1565 0.929 . S
C1558 C1557 1.383 . S
C1558 C1559 1.377 . S
C1559 H1543 0.930 . S
C1559 C1558 1.377 . S
C1559 C1560 1.379 . S
C1560 H1544 0.931 . S
C1560 C1554 1.383 . S
C1560 C1559 1.379 . S
H1561 C1555 0.959 . S
H1562 C1555 0.961 . S
H1563 C1555 0.960 . S
H1564 C1556 0.930 . S
H1565 C1557 0.929 . S
H1566 C1574 0.929 . S
H1567 C1576 0.930 . S
H1568 C1578 0.930 . S
H1569 C1581 0.929 . S
H1570 C1584 0.930 . S
H1571 C1586 0.960 . S
H1572 C1586 0.960 . S
H1573 C1586 0.960 . S
C1574 H1566 0.929 . S
C1574 C1575 1.377 . S
C1574 C1576 1.384 . S
C1575 C1574 1.377 . S
C1575 C1581 1.390 . S
C1576 H1567 0.930 . S
C1576 C1574 1.384 . S
C1576 C1577 1.372 . S
C1577 C1576 1.372 . S
C1577 C1578 1.400 . S
C1577 C1582 1.490 . S
C1578 H1568 0.930 . S
C1578 C1577 1.400 . S
C1578 C1581 1.386 . S
H1579 C1595 0.930 . S
H1580 C1596 0.931 . S
C1581 H1569 0.929 . S
C1581 C1575 1.390 . S
C1581 C1578 1.386 . S
C1582 C1577 1.490 . S
C1582 C1584 1.395 . S
C1582 C1585 1.403 . S
H1583 C1589 0.930 . S
C1584 H1570 0.930 . S
C1584 C1582 1.395 . S
C1584 C1587 1.403 . S
C1585 C1582 1.403 . S
C1585 C1586 1.524 . S
C1585 C1589 1.400 . S
C1586 H1571 0.960 . S
C1586 H1572 0.960 . S
C1586 H1573 0.960 . S
C1586 C1585 1.524 . S
C1587 C1584 1.403 . S
C1587 C1588 1.392 . S
C1587 C1591 1.495 . S
C1588 C1587 1.392 . S
C1588 C1589 1.385 . S
C1588 C1590 1.478 . S
C1589 H1583 0.930 . S
C1589 C1585 1.400 . S
C1589 C1588 1.385 . S
C1590 C1588 1.478 . S
C1590 C1592 1.381 . S
C1590 C1596 1.383 . S
C1591 C1587 1.495 . S
C1591 H1597 0.959 . S
C1591 H1598 0.961 . S
C1591 H1599 0.960 . S
C1592 C1590 1.381 . S
C1592 C1593 1.394 . S
C1592 H1600 0.930 . S
C1593 C1592 1.394 . S
C1593 C1594 1.383 . S
C1593 H1601 0.929 . S
C1594 C1593 1.383 . S
C1594 C1595 1.377 . S
C1595 H1579 0.930 . S
C1595 C1594 1.377 . S
C1595 C1596 1.379 . S
C1596 H1580 0.931 . S
C1596 C1590 1.383 . S
C1596 C1595 1.379 . S
H1597 C1591 0.959 . S
H1598 C1591 0.961 . S
H1599 C1591 0.960 . S
H1600 C1592 0.930 . S
H1601 C1593 0.929 . S
H1602 C1610 0.929 . S
H1603 C1612 0.930 . S
H1604 C1614 0.930 . S
H1605 C1617 0.929 . S
H1606 C1620 0.930 . S
H1607 C1622 0.960 . S
H1608 C1622 0.960 . S
H1609 C1622 0.960 . S
C1610 H1602 0.929 . S
C1610 C1611 1.377 . S
C1610 C1612 1.384 . S
C1611 C1610 1.377 . S
C1611 C1617 1.390 . S
C1612 H1603 0.930 . S
C1612 C1610 1.384 . S
C1612 C1613 1.372 . S
C1613 C1612 1.372 . S
C1613 C1614 1.400 . S
C1613 C1618 1.490 . S
C1614 H1604 0.930 . S
C1614 C1613 1.400 . S
C1614 C1617 1.386 . S
H1615 C1631 0.930 . S
H1616 C1632 0.931 . S
C1617 H1605 0.929 . S
C1617 C1611 1.390 . S
C1617 C1614 1.386 . S
C1618 C1613 1.490 . S
C1618 C1620 1.395 . S
C1618 C1621 1.403 . S
H1619 C1625 0.930 . S
C1620 H1606 0.930 . S
C1620 C1618 1.395 . S
C1620 C1623 1.403 . S
C1621 C1618 1.403 . S
C1621 C1622 1.524 . S
C1621 C1625 1.400 . S
C1622 H1607 0.960 . S
C1622 H1608 0.960 . S
C1622 H1609 0.960 . S
C1622 C1621 1.524 . S
C1623 C1620 1.403 . S
C1623 C1624 1.392 . S
C1623 C1627 1.495 . S
C1624 C1623 1.392 . S
C1624 C1625 1.385 . S
C1624 C1626 1.478 . S
C1625 H1619 0.930 . S
C1625 C1621 1.400 . S
C1625 C1624 1.385 . S
C1626 C1624 1.478 . S
C1626 C1628 1.381 . S
C1626 C1632 1.383 . S
C1627 C1623 1.495 . S
C1627 H1633 0.959 . S
C1627 H1634 0.961 . S
C1627 H1635 0.960 . S
C1628 C1626 1.381 . S
C1628 C1629 1.394 . S
C1628 H1636 0.930 . S
C1629 C1628 1.394 . S
C1629 C1630 1.383 . S
C1629 H1637 0.929 . S
C1630 C1629 1.383 . S
C1630 C1631 1.377 . S
C1631 H1615 0.930 . S
C1631 C1630 1.377 . S
C1631 C1632 1.379 . S
C1632 H1616 0.931 . S
C1632 C1626 1.383 . S
C1632 C1631 1.379 . S
H1633 C1627 0.959 . S
H1634 C1627 0.961 . S
H1635 C1627 0.960 . S
H1636 C1628 0.930 . S
H1637 C1629 0.929 . S
H1638 C1646 0.929 . S
H1639 C1648 0.930 . S
H1640 C1650 0.930 . S
H1641 C1653 0.929 . S
H1642 C1656 0.930 . S
H1643 C1658 0.960 . S
H1644 C1658 0.960 . S
H1645 C1658 0.960 . S
C1646 H1638 0.929 . S
C1646 C1647 1.377 . S
C1646 C1648 1.384 . S
C1647 C1646 1.377 . S
C1647 C1653 1.390 . S
C1648 H1639 0.930 . S
C1648 C1646 1.384 . S
C1648 C1649 1.372 . S
C1649 C1648 1.372 . S
C1649 C1650 1.400 . S
C1649 C1654 1.490 . S
C1650 H1640 0.930 . S
C1650 C1649 1.400 . S
C1650 C1653 1.386 . S
H1651 C1667 0.930 . S
H1652 C1668 0.931 . S
C1653 H1641 0.929 . S
C1653 C1647 1.390 . S
C1653 C1650 1.386 . S
C1654 C1649 1.490 . S
C1654 C1656 1.395 . S
C1654 C1657 1.403 . S
H1655 C1661 0.930 . S
C1656 H1642 0.930 . S
C1656 C1654 1.395 . S
C1656 C1659 1.403 . S
C1657 C1654 1.403 . S
C1657 C1658 1.524 . S
C1657 C1661 1.400 . S
C1658 H1643 0.960 . S
C1658 H1644 0.960 . S
C1658 H1645 0.960 . S
C1658 C1657 1.524 . S
C1659 C1656 1.403 . S
C1659 C1660 1.392 . S
C1659 C1663 1.495 . S
C1660 C1659 1.392 . S
C1660 C1661 1.385 . S
C1660 C1662 1.478 . S
C1661 H1655 0.930 . S
C1661 C1657 1.400 . S
C1661 C1660 1.385 . S
C1662 C1660 1.478 . S
C1662 C1664 1.381 . S
C1662 C1668 1.383 . S
C1663 C1659 1.495 . S
C1663 H1669 0.959 . S
C1663 H1670 0.961 . S
C1663 H1671 0.960 . S
C1664 C1662 1.381 . S
C1664 C1665 1.394 . S
C1664 H1672 0.930 . S
C1665 C1664 1.394 . S
C1665 C1666 1.383 . S
C1665 H1673 0.929 . S
C1666 C1665 1.383 . S
C1666 C1667 1.377 . S
C1667 H1651 0.930 . S
C1667 C1666 1.377 . S
C1667 C1668 1.379 . S
C1668 H1652 0.931 . S
C1668 C1662 1.383 . S
C1668 C1667 1.379 . S
H1669 C1663 0.959 . S
H1670 C1663 0.961 . S
H1671 C1663 0.960 . S
H1672 C1664 0.930 . S
H1673 C1665 0.929 . S
H1674 C1682 0.929 . S
H1675 C1684 0.930 . S
H1676 C1686 0.930 . S
H1677 C1689 0.929 . S
H1678 C1692 0.930 . S
H1679 C1694 0.960 . S
H1680 C1694 0.960 . S
H1681 C1694 0.960 . S
C1682 H1674 0.929 . S
C1682 C1683 1.377 . S
C1682 C1684 1.384 . S
C1683 C1682 1.377 . S
C1683 C1689 1.390 . S
C1684 H1675 0.930 . S
C1684 C1682 1.384 . S
C1684 C1685 1.372 . S
C1685 C1684 1.372 . S
C1685 C1686 1.400 . S
C1685 C1690 1.490 . S
C1686 H1676 0.930 . S
C1686 C1685 1.400 . S
C1686 C1689 1.386 . S
H1687 C1703 0.930 . S
H1688 C1704 0.931 . S
C1689 H1677 0.929 . S
C1689 C1683 1.390 . S
C1689 C1686 1.386 . S
C1690 C1685 1.490 . S
C1690 C1692 1.395 . S
C1690 C1693 1.403 . S
H1691 C1697 0.930 . S
C1692 H1678 0.930 . S
C1692 C1690 1.395 . S
C1692 C1695 1.403 . S
C1693 C1690 1.403 . S
C1693 C1694 1.524 . S
C1693 C1697 1.400 1_565 S
C1694 H1679 0.960 . S
C1694 H1680 0.960 . S
C1694 H1681 0.960 . S
C1694 C1693 1.524 . S
C1695 C1692 1.403 . S
C1695 C1696 1.392 1_565 S
C1695 C1699 1.495 1_565 S
C1696 C1695 1.392 1_545 S
C1696 C1697 1.385 . S
C1696 C1698 1.478 . S
C1697 H1691 0.930 . S
C1697 C1693 1.400 1_545 S
C1697 C1696 1.385 . S
C1698 C1696 1.478 . S
C1698 C1700 1.381 . S
C1698 C1704 1.383 . S
C1699 C1695 1.495 1_545 S
C1699 H1705 0.959 1_545 S
C1699 H1706 0.961 . S
C1699 H1707 0.960 . S
C1700 C1698 1.381 . S
C1700 C1701 1.394 . S
C1700 H1708 0.930 . S
C1701 C1700 1.394 . S
C1701 C1702 1.383 . S
C1701 H1709 0.929 . S
C1702 C1701 1.383 . S
C1702 C1703 1.377 . S
C1703 H1687 0.930 . S
C1703 C1702 1.377 . S
C1703 C1704 1.379 . S
C1704 H1688 0.931 . S
C1704 C1698 1.383 . S
C1704 C1703 1.379 . S
H1705 C1699 0.959 1_565 S
H1706 C1699 0.961 . S
H1707 C1699 0.960 . S
H1708 C1700 0.930 . S
H1709 C1701 0.929 . S
H1710 C1718 0.929 . S
H1711 C1720 0.930 . S
H1712 C1722 0.930 . S
H1713 C1725 0.929 . S
H1714 C1728 0.930 . S
H1715 C1730 0.960 . S
H1716 C1730 0.960 . S
H1717 C1730 0.960 . S
C1718 H1710 0.929 . S
C1718 C1719 1.377 . S
C1718 C1720 1.384 . S
C1719 C1718 1.377 . S
C1719 C1725 1.390 . S
C1720 H1711 0.930 . S
C1720 C1718 1.384 . S
C1720 C1721 1.372 . S
C1721 C1720 1.372 . S
C1721 C1722 1.400 . S
C1721 C1726 1.490 . S
C1722 H1712 0.930 . S
C1722 C1721 1.400 . S
C1722 C1725 1.386 . S
H1723 C1739 0.930 . S
H1724 C1740 0.931 . S
C1725 H1713 0.929 . S
C1725 C1719 1.390 . S
C1725 C1722 1.386 . S
C1726 C1721 1.490 . S
C1726 C1728 1.395 . S
C1726 C1729 1.403 . S
H1727 C1733 0.930 . S
C1728 H1714 0.930 . S
C1728 C1726 1.395 . S
C1728 C1731 1.403 1_455 S
C1729 C1726 1.403 . S
C1729 C1730 1.524 . S
C1729 C1733 1.400 1_455 S
C1730 H1715 0.960 . S
C1730 H1716 0.960 . S
C1730 H1717 0.960 . S
C1730 C1729 1.524 . S
C1731 C1728 1.403 1_655 S
C1731 C1732 1.392 . S
C1731 C1735 1.495 . S
C1732 C1731 1.392 . S
C1732 C1733 1.385 . S
C1732 C1734 1.478 . S
C1733 H1727 0.930 . S
C1733 C1729 1.400 1_655 S
C1733 C1732 1.385 . S
C1734 C1732 1.478 . S
C1734 C1736 1.381 . S
C1734 C1740 1.383 . S
C1735 C1731 1.495 . S
C1735 H1741 0.959 . S
C1735 H1742 0.961 . S
C1735 H1743 0.960 . S
C1736 C1734 1.381 . S
C1736 C1737 1.394 . S
C1736 H1744 0.930 . S
C1737 C1736 1.394 . S
C1737 C1738 1.383 . S
C1737 H1745 0.929 . S
C1738 C1737 1.383 . S
C1738 C1739 1.377 . S
C1739 H1723 0.930 . S
C1739 C1738 1.377 . S
C1739 C1740 1.379 . S
C1740 H1724 0.931 . S
C1740 C1734 1.383 . S
C1740 C1739 1.379 . S
H1741 C1735 0.959 . S
H1742 C1735 0.961 . S
H1743 C1735 0.960 . S
H1744 C1736 0.930 . S
H1745 C1737 0.929 . S
H1746 C1754 0.929 . S
H1747 C1756 0.930 . S
H1748 C1758 0.930 . S
H1749 C1761 0.929 . S
H1750 C1764 0.930 . S
H1751 C1766 0.960 . S
H1752 C1766 0.960 . S
H1753 C1766 0.960 . S
C1754 H1746 0.929 . S
C1754 C1755 1.377 . S
C1754 C1756 1.384 . S
C1755 C1754 1.377 . S
C1755 C1761 1.390 . S
C1756 H1747 0.930 . S
C1756 C1754 1.384 . S
C1756 C1757 1.372 . S
C1757 C1756 1.372 . S
C1757 C1758 1.400 . S
C1757 C1762 1.490 . S
C1758 H1748 0.930 . S
C1758 C1757 1.400 . S
C1758 C1761 1.386 . S
H1759 C1775 0.930 . S
H1760 C1776 0.931 . S
C1761 H1749 0.929 . S
C1761 C1755 1.390 . S
C1761 C1758 1.386 . S
C1762 C1757 1.490 . S
C1762 C1764 1.395 . S
C1762 C1765 1.403 . S
H1763 C1769 0.930 . S
C1764 H1750 0.930 . S
C1764 C1762 1.395 . S
C1764 C1767 1.403 . S
C1765 C1762 1.403 . S
C1765 C1766 1.524 . S
C1765 C1769 1.400 . S
C1766 H1751 0.960 . S
C1766 H1752 0.960 . S
C1766 H1753 0.960 . S
C1766 C1765 1.524 . S
C1767 C1764 1.403 . S
C1767 C1768 1.392 . S
C1767 C1771 1.495 . S
C1768 C1767 1.392 . S
C1768 C1769 1.385 . S
C1768 C1770 1.478 . S
C1769 H1763 0.930 . S
C1769 C1765 1.400 . S
C1769 C1768 1.385 . S
C1770 C1768 1.478 . S
C1770 C1772 1.381 . S
C1770 C1776 1.383 . S
C1771 C1767 1.495 . S
C1771 H1777 0.959 . S
C1771 H1778 0.961 . S
C1771 H1779 0.960 . S
C1772 C1770 1.381 . S
C1772 C1773 1.394 . S
C1772 H1780 0.930 . S
C1773 C1772 1.394 . S
C1773 C1774 1.383 . S
C1773 H1781 0.929 . S
C1774 C1773 1.383 . S
C1774 C1775 1.377 . S
C1775 H1759 0.930 . S
C1775 C1774 1.377 . S
C1775 C1776 1.379 . S
C1776 H1760 0.931 . S
C1776 C1770 1.383 . S
C1776 C1775 1.379 . S
H1777 C1771 0.959 . S
H1778 C1771 0.961 . S
H1779 C1771 0.960 . S
H1780 C1772 0.930 . S
H1781 C1773 0.929 . S
H1782 C1790 0.929 . S
H1783 C1792 0.930 . S
H1784 C1794 0.930 1_655 S
H1785 C1797 0.929 . S
H1786 C1800 0.930 . S
H1787 C1802 0.960 . S
H1788 C1802 0.960 . S
H1789 C1802 0.960 . S
C1790 H1782 0.929 . S
C1790 C1791 1.377 . S
C1790 C1792 1.384 1_455 S
C1791 C1790 1.377 . S
C1791 C1797 1.390 . S
C1792 H1783 0.930 . S
C1792 C1790 1.384 1_655 S
C1792 C1793 1.372 . S
C1793 C1792 1.372 . S
C1793 C1794 1.400 1_655 S
C1793 C1798 1.490 . S
C1794 H1784 0.930 1_455 S
C1794 C1793 1.400 1_455 S
C1794 C1797 1.386 . S
H1795 C1811 0.930 . S
H1796 C1812 0.931 . S
C1797 H1785 0.929 . S
C1797 C1791 1.390 . S
C1797 C1794 1.386 . S
C1798 C1793 1.490 . S
C1798 C1800 1.395 . S
C1798 C1801 1.403 . S
H1799 C1805 0.930 . S
C1800 H1786 0.930 . S
C1800 C1798 1.395 . S
C1800 C1803 1.403 . S
C1801 C1798 1.403 . S
C1801 C1802 1.524 . S
C1801 C1805 1.400 . S
C1802 H1787 0.960 . S
C1802 H1788 0.960 . S
C1802 H1789 0.960 . S
C1802 C1801 1.524 . S
C1803 C1800 1.403 . S
C1803 C1804 1.392 . S
C1803 C1807 1.495 . S
C1804 C1803 1.392 . S
C1804 C1805 1.385 . S
C1804 C1806 1.478 . S
C1805 H1799 0.930 . S
C1805 C1801 1.400 . S
C1805 C1804 1.385 . S
C1806 C1804 1.478 . S
C1806 C1808 1.381 . S
C1806 C1812 1.383 . S
C1807 C1803 1.495 . S
C1807 H1813 0.959 . S
C1807 H1814 0.961 . S
C1807 H1815 0.960 . S
C1808 C1806 1.381 . S
C1808 C1809 1.394 . S
C1808 H1816 0.930 . S
C1809 C1808 1.394 . S
C1809 C1810 1.383 . S
C1809 H1817 0.929 . S
C1810 C1809 1.383 . S
C1810 C1811 1.377 . S
C1811 H1795 0.930 . S
C1811 C1810 1.377 . S
C1811 C1812 1.379 . S
C1812 H1796 0.931 . S
C1812 C1806 1.383 . S
C1812 C1811 1.379 . S
H1813 C1807 0.959 . S
H1814 C1807 0.961 . S
H1815 C1807 0.960 . S
H1816 C1808 0.930 . S
H1817 C1809 0.929 . S
H1818 C1826 0.929 . S
H1819 C1828 0.930 . S
H1820 C1830 0.930 . S
H1821 C1833 0.929 . S
H1822 C1836 0.930 . S
H1823 C1838 0.960 . S
H1824 C1838 0.960 . S
H1825 C1838 0.960 . S
C1826 H1818 0.929 . S
C1826 C1827 1.377 . S
C1826 C1828 1.384 . S
C1827 C1826 1.377 . S
C1827 C1833 1.390 . S
C1828 H1819 0.930 . S
C1828 C1826 1.384 . S
C1828 C1829 1.372 . S
C1829 C1828 1.372 . S
C1829 C1830 1.400 . S
C1829 C1834 1.490 . S
C1830 H1820 0.930 . S
C1830 C1829 1.400 . S
C1830 C1833 1.386 . S
H1831 C1847 0.930 . S
H1832 C1848 0.931 . S
C1833 H1821 0.929 . S
C1833 C1827 1.390 . S
C1833 C1830 1.386 . S
C1834 C1829 1.490 . S
C1834 C1836 1.395 . S
C1834 C1837 1.403 . S
H1835 C1841 0.930 . S
C1836 H1822 0.930 . S
C1836 C1834 1.395 . S
C1836 C1839 1.403 . S
C1837 C1834 1.403 . S
C1837 C1838 1.524 . S
C1837 C1841 1.400 . S
C1838 H1823 0.960 . S
C1838 H1824 0.960 . S
C1838 H1825 0.960 . S
C1838 C1837 1.524 . S
C1839 C1836 1.403 . S
C1839 C1840 1.392 . S
C1839 C1843 1.495 . S
C1840 C1839 1.392 . S
C1840 C1841 1.385 . S
C1840 C1842 1.478 . S
C1841 H1835 0.930 . S
C1841 C1837 1.400 . S
C1841 C1840 1.385 . S
C1842 C1840 1.478 . S
C1842 C1844 1.381 . S
C1842 C1848 1.383 . S
C1843 C1839 1.495 . S
C1843 H1849 0.959 . S
C1843 H1850 0.961 . S
C1843 H1851 0.960 . S
C1844 C1842 1.381 . S
C1844 C1845 1.394 . S
C1844 H1852 0.930 . S
C1845 C1844 1.394 . S
C1845 C1846 1.383 . S
C1845 H1853 0.929 . S
C1846 C1845 1.383 . S
C1846 C1847 1.377 . S
C1847 H1831 0.930 . S
C1847 C1846 1.377 . S
C1847 C1848 1.379 . S
C1848 H1832 0.931 . S
C1848 C1842 1.383 . S
C1848 C1847 1.379 . S
H1849 C1843 0.959 . S
H1850 C1843 0.961 . S
H1851 C1843 0.960 . S
H1852 C1844 0.930 . S
H1853 C1845 0.929 . S
H1854 C1862 0.929 . S
H1855 C1864 0.930 . S
H1856 C1866 0.930 . S
H1857 C1869 0.929 . S
H1858 C1872 0.930 . S
H1859 C1874 0.960 . S
H1860 C1874 0.960 . S
H1861 C1874 0.960 . S
C1862 H1854 0.929 . S
C1862 C1863 1.377 . S
C1862 C1864 1.384 1_565 S
C1863 C1862 1.377 . S
C1863 C1869 1.390 . S
C1864 H1855 0.930 . S
C1864 C1862 1.384 1_545 S
C1864 C1865 1.372 . S
C1865 C1864 1.372 . S
C1865 C1866 1.400 . S
C1865 C1870 1.490 . S
C1866 H1856 0.930 . S
C1866 C1865 1.400 . S
C1866 C1869 1.386 1_545 S
H1867 C1883 0.930 . S
H1868 C1884 0.931 . S
C1869 H1857 0.929 . S
C1869 C1863 1.390 . S
C1869 C1866 1.386 1_565 S
C1870 C1865 1.490 . S
C1870 C1872 1.395 . S
C1870 C1873 1.403 . S
H1871 C1877 0.930 . S
C1872 H1858 0.930 . S
C1872 C1870 1.395 . S
C1872 C1875 1.403 . S
C1873 C1870 1.403 . S
C1873 C1874 1.524 . S
C1873 C1877 1.400 . S
C1874 H1859 0.960 . S
C1874 H1860 0.960 . S
C1874 H1861 0.960 . S
C1874 C1873 1.524 . S
C1875 C1872 1.403 . S
C1875 C1876 1.392 . S
C1875 C1879 1.495 . S
C1876 C1875 1.392 . S
C1876 C1877 1.385 . S
C1876 C1878 1.478 . S
C1877 H1871 0.930 . S
C1877 C1873 1.400 . S
C1877 C1876 1.385 . S
C1878 C1876 1.478 . S
C1878 C1880 1.381 . S
C1878 C1884 1.383 . S
C1879 C1875 1.495 . S
C1879 H1885 0.959 . S
C1879 H1886 0.961 . S
C1879 H1887 0.960 . S
C1880 C1878 1.381 . S
C1880 C1881 1.394 . S
C1880 H1888 0.930 . S
C1881 C1880 1.394 . S
C1881 C1882 1.383 . S
C1881 H1889 0.929 . S
C1882 C1881 1.383 . S
C1882 C1883 1.377 . S
C1883 H1867 0.930 . S
C1883 C1882 1.377 . S
C1883 C1884 1.379 . S
C1884 H1868 0.931 . S
C1884 C1878 1.383 . S
C1884 C1883 1.379 . S
H1885 C1879 0.959 . S
H1886 C1879 0.961 . S
H1887 C1879 0.960 . S
H1888 C1880 0.930 . S
H1889 C1881 0.929 . S
H1890 C1898 0.929 . S
H1891 C1900 0.930 . S
H1892 C1902 0.930 . S
H1893 C1905 0.929 . S
H1894 C1908 0.930 . S
H1895 C1910 0.960 . S
H1896 C1910 0.960 . S
H1897 C1910 0.960 . S
C1898 H1890 0.929 . S
C1898 C1899 1.377 . S
C1898 C1900 1.384 . S
C1899 C1898 1.377 . S
C1899 C1905 1.390 . S
C1900 H1891 0.930 . S
C1900 C1898 1.384 . S
C1900 C1901 1.372 . S
C1901 C1900 1.372 . S
C1901 C1902 1.400 . S
C1901 C1906 1.490 . S
C1902 H1892 0.930 . S
C1902 C1901 1.400 . S
C1902 C1905 1.386 . S
H1903 C1919 0.930 . S
H1904 C1920 0.931 . S
C1905 H1893 0.929 . S
C1905 C1899 1.390 . S
C1905 C1902 1.386 . S
C1906 C1901 1.490 . S
C1906 C1908 1.395 . S
C1906 C1909 1.403 . S
H1907 C1913 0.930 . S
C1908 H1894 0.930 . S
C1908 C1906 1.395 . S
C1908 C1911 1.403 . S
C1909 C1906 1.403 . S
C1909 C1910 1.524 . S
C1909 C1913 1.400 . S
C1910 H1895 0.960 . S
C1910 H1896 0.960 . S
C1910 H1897 0.960 . S
C1910 C1909 1.524 . S
C1911 C1908 1.403 . S
C1911 C1912 1.392 . S
C1911 C1915 1.495 . S
C1912 C1911 1.392 . S
C1912 C1913 1.385 . S
C1912 C1914 1.478 . S
C1913 H1907 0.930 . S
C1913 C1909 1.400 . S
C1913 C1912 1.385 . S
C1914 C1912 1.478 . S
C1914 C1916 1.381 . S
C1914 C1920 1.383 . S
C1915 C1911 1.495 . S
C1915 H1921 0.959 . S
C1915 H1922 0.961 . S
C1915 H1923 0.960 . S
C1916 C1914 1.381 . S
C1916 C1917 1.394 . S
C1916 H1924 0.930 . S
C1917 C1916 1.394 . S
C1917 C1918 1.383 . S
C1917 H1925 0.929 . S
C1918 C1917 1.383 . S
C1918 C1919 1.377 . S
C1919 H1903 0.930 . S
C1919 C1918 1.377 . S
C1919 C1920 1.379 . S
C1920 H1904 0.931 . S
C1920 C1914 1.383 . S
C1920 C1919 1.379 . S
H1921 C1915 0.959 . S
H1922 C1915 0.961 . S
H1923 C1915 0.960 . S
H1924 C1916 0.930 . S
H1925 C1917 0.929 . S
H1926 C1934 0.929 . S
H1927 C1936 0.930 . S
H1928 C1938 0.930 . S
H1929 C1941 0.929 . S
H1930 C1944 0.930 . S
H1931 C1946 0.960 . S
H1932 C1946 0.960 . S
H1933 C1946 0.960 . S
C1934 H1926 0.929 . S
C1934 C1935 1.377 . S
C1934 C1936 1.384 . S
C1935 C1934 1.377 . S
C1935 C1941 1.390 . S
C1936 H1927 0.930 . S
C1936 C1934 1.384 . S
C1936 C1937 1.372 . S
C1937 C1936 1.372 . S
C1937 C1938 1.400 . S
C1937 C1942 1.490 . S
C1938 H1928 0.930 . S
C1938 C1937 1.400 . S
C1938 C1941 1.386 . S
H1939 C1955 0.930 . S
H1940 C1956 0.931 . S
C1941 H1929 0.929 . S
C1941 C1935 1.390 . S
C1941 C1938 1.386 . S
C1942 C1937 1.490 . S
C1942 C1944 1.395 . S
C1942 C1945 1.403 . S
H1943 C1949 0.930 . S
C1944 H1930 0.930 . S
C1944 C1942 1.395 . S
C1944 C1947 1.403 . S
C1945 C1942 1.403 . S
C1945 C1946 1.524 . S
C1945 C1949 1.400 . S
C1946 H1931 0.960 . S
C1946 H1932 0.960 . S
C1946 H1933 0.960 . S
C1946 C1945 1.524 . S
C1947 C1944 1.403 . S
C1947 C1948 1.392 . S
C1947 C1951 1.495 . S
C1948 C1947 1.392 . S
C1948 C1949 1.385 . S
C1948 C1950 1.478 . S
C1949 H1943 0.930 . S
C1949 C1945 1.400 . S
C1949 C1948 1.385 . S
C1950 C1948 1.478 . S
C1950 C1952 1.381 . S
C1950 C1956 1.383 . S
C1951 C1947 1.495 . S
C1951 H1957 0.959 . S
C1951 H1958 0.961 . S
C1951 H1959 0.960 . S
C1952 C1950 1.381 . S
C1952 C1953 1.394 . S
C1952 H1960 0.930 . S
C1953 C1952 1.394 . S
C1953 C1954 1.383 . S
C1953 H1961 0.929 . S
C1954 C1953 1.383 . S
C1954 C1955 1.377 . S
C1955 H1939 0.930 . S
C1955 C1954 1.377 . S
C1955 C1956 1.379 . S
C1956 H1940 0.931 . S
C1956 C1950 1.383 . S
C1956 C1955 1.379 . S
H1957 C1951 0.959 . S
H1958 C1951 0.961 . S
H1959 C1951 0.960 . S
H1960 C1952 0.930 . S
H1961 C1953 0.929 . S
H1962 C1970 0.929 . S
H1963 C1972 0.930 . S
H1964 C1974 0.930 . S
H1965 C1977 0.929 . S
H1966 C1980 0.930 . S
H1967 C1982 0.960 . S
H1968 C1982 0.960 . S
H1969 C1982 0.960 . S
C1970 H1962 0.929 . S
C1970 C1971 1.377 . S
C1970 C1972 1.384 . S
C1971 C1970 1.377 . S
C1971 C1977 1.390 . S
C1972 H1963 0.930 . S
C1972 C1970 1.384 . S
C1972 C1973 1.372 . S
C1973 C1972 1.372 . S
C1973 C1974 1.400 . S
C1973 C1978 1.490 . S
C1974 H1964 0.930 . S
C1974 C1973 1.400 . S
C1974 C1977 1.386 . S
H1975 C1991 0.930 . S
H1976 C1992 0.931 . S
C1977 H1965 0.929 . S
C1977 C1971 1.390 . S
C1977 C1974 1.386 . S
C1978 C1973 1.490 . S
C1978 C1980 1.395 . S
C1978 C1981 1.403 . S
H1979 C1985 0.930 . S
C1980 H1966 0.930 . S
C1980 C1978 1.395 . S
C1980 C1983 1.403 . S
C1981 C1978 1.403 . S
C1981 C1982 1.524 . S
C1981 C1985 1.400 . S
C1982 H1967 0.960 . S
C1982 H1968 0.960 . S
C1982 H1969 0.960 . S
C1982 C1981 1.524 . S
C1983 C1980 1.403 . S
C1983 C1984 1.392 . S
C1983 C1987 1.495 . S
C1984 C1983 1.392 . S
C1984 C1985 1.385 . S
C1984 C1986 1.478 . S
C1985 H1979 0.930 . S
C1985 C1981 1.400 . S
C1985 C1984 1.385 . S
C1986 C1984 1.478 . S
C1986 C1988 1.381 . S
C1986 C1992 1.383 . S
C1987 C1983 1.495 . S
C1987 H1993 0.959 . S
C1987 H1994 0.961 . S
C1987 H1995 0.960 . S
C1988 C1986 1.381 . S
C1988 C1989 1.394 . S
C1988 H1996 0.930 . S
C1989 C1988 1.394 . S
C1989 C1990 1.383 . S
C1989 H1997 0.929 . S
C1990 C1989 1.383 . S
C1990 C1991 1.377 . S
C1991 H1975 0.930 . S
C1991 C1990 1.377 . S
C1991 C1992 1.379 . S
C1992 H1976 0.931 . S
C1992 C1986 1.383 . S
C1992 C1991 1.379 . S
H1993 C1987 0.959 . S
H1994 C1987 0.961 . S
H1995 C1987 0.960 . S
H1996 C1988 0.930 . S
H1997 C1989 0.929 . S
H1998 C2006 0.929 . S
H1999 C2008 0.930 . S
H2000 C2010 0.930 . S
H2001 C2013 0.929 . S
H2002 C2016 0.930 . S
H2003 C2018 0.960 . S
H2004 C2018 0.960 . S
H2005 C2018 0.960 . S
C2006 H1998 0.929 . S
C2006 C2007 1.377 . S
C2006 C2008 1.384 . S
C2007 C2006 1.377 . S
C2007 C2013 1.390 . S
C2008 H1999 0.930 . S
C2008 C2006 1.384 . S
C2008 C2009 1.372 . S
C2009 C2008 1.372 . S
C2009 C2010 1.400 . S
C2009 C2014 1.490 . S
C2010 H2000 0.930 . S
C2010 C2009 1.400 . S
C2010 C2013 1.386 . S
H2011 C2027 0.930 . S
H2012 C2028 0.931 . S
C2013 H2001 0.929 . S
C2013 C2007 1.390 . S
C2013 C2010 1.386 . S
C2014 C2009 1.490 . S
C2014 C2016 1.395 . S
C2014 C2017 1.403 . S
H2015 C2021 0.930 . S
C2016 H2002 0.930 . S
C2016 C2014 1.395 . S
C2016 C2019 1.403 . S
C2017 C2014 1.403 . S
C2017 C2018 1.524 . S
C2017 C2021 1.400 . S
C2018 H2003 0.960 . S
C2018 H2004 0.960 . S
C2018 H2005 0.960 . S
C2018 C2017 1.524 . S
C2019 C2016 1.403 . S
C2019 C2020 1.392 . S
C2019 C2023 1.495 . S
C2020 C2019 1.392 . S
C2020 C2021 1.385 . S
C2020 C2022 1.478 . S
C2021 H2015 0.930 . S
C2021 C2017 1.400 . S
C2021 C2020 1.385 . S
C2022 C2020 1.478 . S
C2022 C2024 1.381 . S
C2022 C2028 1.383 . S
C2023 C2019 1.495 . S
C2023 H2029 0.959 . S
C2023 H2030 0.961 . S
C2023 H2031 0.960 . S
C2024 C2022 1.381 . S
C2024 C2025 1.394 . S
C2024 H2032 0.930 . S
C2025 C2024 1.394 . S
C2025 C2026 1.383 . S
C2025 H2033 0.929 . S
C2026 C2025 1.383 . S
C2026 C2027 1.377 . S
C2027 H2011 0.930 . S
C2027 C2026 1.377 . S
C2027 C2028 1.379 . S
C2028 H2012 0.931 . S
C2028 C2022 1.383 . S
C2028 C2027 1.379 . S
H2029 C2023 0.959 . S
H2030 C2023 0.961 . S
H2031 C2023 0.960 . S
H2032 C2024 0.930 . S
H2033 C2025 0.929 . S
H2034 C2042 0.929 . S
H2035 C2044 0.930 . S
H2036 C2046 0.930 . S
H2037 C2049 0.929 . S
H2038 C2052 0.930 . S
H2039 C2054 0.960 . S
H2040 C2054 0.960 . S
H2041 C2054 0.960 . S
C2042 H2034 0.929 . S
C2042 C2043 1.377 . S
C2042 C2044 1.384 . S
C2043 C2042 1.377 . S
C2043 C2049 1.390 . S
C2044 H2035 0.930 . S
C2044 C2042 1.384 . S
C2044 C2045 1.372 . S
C2045 C2044 1.372 . S
C2045 C2046 1.400 . S
C2045 C2050 1.490 . S
C2046 H2036 0.930 . S
C2046 C2045 1.400 . S
C2046 C2049 1.386 . S
H2047 C2063 0.930 . S
H2048 C2064 0.931 . S
C2049 H2037 0.929 . S
C2049 C2043 1.390 . S
C2049 C2046 1.386 . S
C2050 C2045 1.490 . S
C2050 C2052 1.395 . S
C2050 C2053 1.403 . S
H2051 C2057 0.930 . S
C2052 H2038 0.930 . S
C2052 C2050 1.395 . S
C2052 C2055 1.403 . S
C2053 C2050 1.403 . S
C2053 C2054 1.524 . S
C2053 C2057 1.400 . S
C2054 H2039 0.960 . S
C2054 H2040 0.960 . S
C2054 H2041 0.960 . S
C2054 C2053 1.524 . S
C2055 C2052 1.403 . S
C2055 C2056 1.392 . S
C2055 C2059 1.495 . S
C2056 C2055 1.392 . S
C2056 C2057 1.385 . S
C2056 C2058 1.478 . S
C2057 H2051 0.930 . S
C2057 C2053 1.400 . S
C2057 C2056 1.385 . S
C2058 C2056 1.478 . S
C2058 C2060 1.381 . S
C2058 C2064 1.383 . S
C2059 C2055 1.495 . S
C2059 H2065 0.959 . S
C2059 H2066 0.961 . S
C2059 H2067 0.960 . S
C2060 C2058 1.381 . S
C2060 C2061 1.394 . S
C2060 H2068 0.930 . S
C2061 C2060 1.394 . S
C2061 C2062 1.383 . S
C2061 H2069 0.929 . S
C2062 C2061 1.383 . S
C2062 C2063 1.377 . S
C2063 H2047 0.930 . S
C2063 C2062 1.377 . S
C2063 C2064 1.379 . S
C2064 H2048 0.931 . S
C2064 C2058 1.383 . S
C2064 C2063 1.379 . S
H2065 C2059 0.959 . S
H2066 C2059 0.961 . S
H2067 C2059 0.960 . S
H2068 C2060 0.930 . S
H2069 C2061 0.929 . S
H2070 C2078 0.929 . S
H2071 C2080 0.930 . S
H2072 C2082 0.930 . S
H2073 C2085 0.929 . S
H2074 C2088 0.930 . S
H2075 C2090 0.960 . S
H2076 C2090 0.960 . S
H2077 C2090 0.960 . S
C2078 H2070 0.929 . S
C2078 C2079 1.377 . S
C2078 C2080 1.384 . S
C2079 C2078 1.377 . S
C2079 C2085 1.390 . S
C2080 H2071 0.930 . S
C2080 C2078 1.384 . S
C2080 C2081 1.372 . S
C2081 C2080 1.372 . S
C2081 C2082 1.400 . S
C2081 C2086 1.490 . S
C2082 H2072 0.930 . S
C2082 C2081 1.400 . S
C2082 C2085 1.386 . S
H2083 C2099 0.930 . S
H2084 C2100 0.931 . S
C2085 H2073 0.929 . S
C2085 C2079 1.390 . S
C2085 C2082 1.386 . S
C2086 C2081 1.490 . S
C2086 C2088 1.395 . S
C2086 C2089 1.403 . S
H2087 C2093 0.930 . S
C2088 H2074 0.930 . S
C2088 C2086 1.395 . S
C2088 C2091 1.403 . S
C2089 C2086 1.403 . S
C2089 C2090 1.524 . S
C2089 C2093 1.400 . S
C2090 H2075 0.960 . S
C2090 H2076 0.960 . S
C2090 H2077 0.960 . S
C2090 C2089 1.524 . S
C2091 C2088 1.403 . S
C2091 C2092 1.392 . S
C2091 C2095 1.495 . S
C2092 C2091 1.392 . S
C2092 C2093 1.385 . S
C2092 C2094 1.478 . S
C2093 H2087 0.930 . S
C2093 C2089 1.400 . S
C2093 C2092 1.385 . S
C2094 C2092 1.478 . S
C2094 C2096 1.381 . S
C2094 C2100 1.383 . S
C2095 C2091 1.495 . S
C2095 H2101 0.959 . S
C2095 H2102 0.961 . S
C2095 H2103 0.960 . S
C2096 C2094 1.381 . S
C2096 C2097 1.394 . S
C2096 H2104 0.930 . S
C2097 C2096 1.394 . S
C2097 C2098 1.383 . S
C2097 H2105 0.929 . S
C2098 C2097 1.383 . S
C2098 C2099 1.377 . S
C2099 H2083 0.930 . S
C2099 C2098 1.377 . S
C2099 C2100 1.379 . S
C2100 H2084 0.931 . S
C2100 C2094 1.383 . S
C2100 C2099 1.379 . S
H2101 C2095 0.959 . S
H2102 C2095 0.961 . S
H2103 C2095 0.960 . S
H2104 C2096 0.930 . S
H2105 C2097 0.929 . S
H2106 C2114 0.929 . S
H2107 C2116 0.930 . S
H2108 C2118 0.930 . S
H2109 C2121 0.929 . S
H2110 C2124 0.930 . S
H2111 C2126 0.960 . S
H2112 C2126 0.960 . S
H2113 C2126 0.960 . S
C2114 H2106 0.929 . S
C2114 C2115 1.377 . S
C2114 C2116 1.384 . S
C2115 C2114 1.377 . S
C2115 C2121 1.390 . S
C2116 H2107 0.930 . S
C2116 C2114 1.384 . S
C2116 C2117 1.372 . S
C2117 C2116 1.372 . S
C2117 C2118 1.400 . S
C2117 C2122 1.490 . S
C2118 H2108 0.930 . S
C2118 C2117 1.400 . S
C2118 C2121 1.386 . S
H2119 C2135 0.930 . S
H2120 C2136 0.931 . S
C2121 H2109 0.929 . S
C2121 C2115 1.390 . S
C2121 C2118 1.386 . S
C2122 C2117 1.490 . S
C2122 C2124 1.395 . S
C2122 C2125 1.403 . S
H2123 C2129 0.930 . S
C2124 H2110 0.930 . S
C2124 C2122 1.395 . S
C2124 C2127 1.403 . S
C2125 C2122 1.403 . S
C2125 C2126 1.524 . S
C2125 C2129 1.400 . S
C2126 H2111 0.960 . S
C2126 H2112 0.960 . S
C2126 H2113 0.960 . S
C2126 C2125 1.524 . S
C2127 C2124 1.403 . S
C2127 C2128 1.392 . S
C2127 C2131 1.495 . S
C2128 C2127 1.392 . S
C2128 C2129 1.385 . S
C2128 C2130 1.478 . S
C2129 H2123 0.930 . S
C2129 C2125 1.400 . S
C2129 C2128 1.385 . S
C2130 C2128 1.478 . S
C2130 C2132 1.381 . S
C2130 C2136 1.383 . S
C2131 C2127 1.495 . S
C2131 H2137 0.959 1_655 S
C2131 H2138 0.961 . S
C2131 H2139 0.954 . S
C2132 C2130 1.381 . S
C2132 C2133 1.394 . S
C2132 H2140 0.930 . S
C2133 C2132 1.394 . S
C2133 C2134 1.383 . S
C2133 H2141 0.929 . S
C2134 C2133 1.383 . S
C2134 C2135 1.377 . S
C2135 H2119 0.930 . S
C2135 C2134 1.377 . S
C2135 C2136 1.379 . S
C2136 H2120 0.931 . S
C2136 C2130 1.383 . S
C2136 C2135 1.379 . S
H2137 C2131 0.959 1_455 S
H2138 C2131 0.961 . S
H2139 C2131 0.954 . S
H2140 C2132 0.930 . S
H2141 C2133 0.929 . S
H2142 C2150 0.929 . S
H2143 C2152 0.930 . S
H2144 C2154 0.930 . S
H2145 C2157 0.929 . S
H2146 C2160 0.930 . S
H2147 C2162 0.960 . S
H2148 C2162 0.960 . S
H2149 C2162 0.960 . S
C2150 H2142 0.929 . S
C2150 C2151 1.377 . S
C2150 C2152 1.384 . S
C2151 C2150 1.377 . S
C2151 C2157 1.390 . S
C2152 H2143 0.930 . S
C2152 C2150 1.384 . S
C2152 C2153 1.372 . S
C2153 C2152 1.372 . S
C2153 C2154 1.400 . S
C2153 C2158 1.490 . S
C2154 H2144 0.930 . S
C2154 C2153 1.400 . S
C2154 C2157 1.386 . S
H2155 C2171 0.930 . S
H2156 C2172 0.931 . S
C2157 H2145 0.929 . S
C2157 C2151 1.390 . S
C2157 C2154 1.386 . S
C2158 C2153 1.490 . S
C2158 C2160 1.395 . S
C2158 C2161 1.403 . S
H2159 C2165 0.930 . S
C2160 H2146 0.930 . S
C2160 C2158 1.395 . S
C2160 C2163 1.403 . S
C2161 C2158 1.403 . S
C2161 C2162 1.524 . S
C2161 C2165 1.400 . S
C2162 H2147 0.960 . S
C2162 H2148 0.960 . S
C2162 H2149 0.960 . S
C2162 C2161 1.524 . S
C2163 C2160 1.403 . S
C2163 C2164 1.392 . S
C2163 C2167 1.495 . S
C2164 C2163 1.392 . S
C2164 C2165 1.385 . S
C2164 C2166 1.478 . S
C2165 H2159 0.930 . S
C2165 C2161 1.400 . S
C2165 C2164 1.385 . S
C2166 C2164 1.478 . S
C2166 C2168 1.381 . S
C2166 C2172 1.383 . S
C2167 C2163 1.495 . S
C2167 H2173 0.959 . S
C2167 H2174 0.961 . S
C2167 H2175 0.960 . S
C2168 C2166 1.381 . S
C2168 C2169 1.394 . S
C2168 H2176 0.930 . S
C2169 C2168 1.394 . S
C2169 C2170 1.383 . S
C2169 H2177 0.929 . S
C2170 C2169 1.383 . S
C2170 C2171 1.377 . S
C2171 H2155 0.930 . S
C2171 C2170 1.377 . S
C2171 C2172 1.379 . S
C2172 H2156 0.931 . S
C2172 C2166 1.383 . S
C2172 C2171 1.379 . S
H2173 C2167 0.959 . S
H2174 C2167 0.961 . S
H2175 C2167 0.960 . S
H2176 C2168 0.930 . S
H2177 C2169 0.929 . S
H2178 C2186 0.929 . S
H2179 C2188 0.930 . S
H2180 C2190 0.930 . S
H2181 C2193 0.929 . S
H2182 C2196 0.930 . S
H2183 C2198 0.960 . S
H2184 C2198 0.960 . S
H2185 C2198 0.960 . S
C2186 H2178 0.929 . S
C2186 C2187 1.377 . S
C2186 C2188 1.384 . S
C2187 C2186 1.377 . S
C2187 C2193 1.390 . S
C2188 H2179 0.930 . S
C2188 C2186 1.384 . S
C2188 C2189 1.372 . S
C2189 C2188 1.372 . S
C2189 C2190 1.400 . S
C2189 C2194 1.490 . S
C2190 H2180 0.930 . S
C2190 C2189 1.400 . S
C2190 C2193 1.386 . S
H2191 C2207 0.930 . S
H2192 C2208 0.931 . S
C2193 H2181 0.929 . S
C2193 C2187 1.390 . S
C2193 C2190 1.386 . S
C2194 C2189 1.490 . S
C2194 C2196 1.395 . S
C2194 C2197 1.403 . S
H2195 C2201 0.930 . S
C2196 H2182 0.930 . S
C2196 C2194 1.395 . S
C2196 C2199 1.403 . S
C2197 C2194 1.403 . S
C2197 C2198 1.524 . S
C2197 C2201 1.400 . S
C2198 H2183 0.960 . S
C2198 H2184 0.960 . S
C2198 H2185 0.960 . S
C2198 C2197 1.524 . S
C2199 C2196 1.403 . S
C2199 C2200 1.392 . S
C2199 C2203 1.495 . S
C2200 C2199 1.392 . S
C2200 C2201 1.385 . S
C2200 C2202 1.478 . S
C2201 H2195 0.930 . S
C2201 C2197 1.400 . S
C2201 C2200 1.385 . S
C2202 C2200 1.478 . S
C2202 C2204 1.381 . S
C2202 C2208 1.383 . S
C2203 C2199 1.495 . S
C2203 H2209 0.959 . S
C2203 H2210 0.961 . S
C2203 H2211 0.960 . S
C2204 C2202 1.381 . S
C2204 C2205 1.394 . S
C2204 H2212 0.930 . S
C2205 C2204 1.394 . S
C2205 C2206 1.383 . S
C2205 H2213 0.929 . S
C2206 C2205 1.383 . S
C2206 C2207 1.377 . S
C2207 H2191 0.930 . S
C2207 C2206 1.377 . S
C2207 C2208 1.379 . S
C2208 H2192 0.931 . S
C2208 C2202 1.383 . S
C2208 C2207 1.379 . S
H2209 C2203 0.959 . S
H2210 C2203 0.961 . S
H2211 C2203 0.960 . S
H2212 C2204 0.930 . S
H2213 C2205 0.929 . S
H2214 C2222 0.929 . S
H2215 C2224 0.930 . S
H2216 C2226 0.930 . S
H2217 C2229 0.929 . S
H2218 C2232 0.930 . S
H2219 C2234 0.960 . S
H2220 C2234 0.960 . S
H2221 C2234 0.960 . S
C2222 H2214 0.929 . S
C2222 C2223 1.377 . S
C2222 C2224 1.384 . S
C2223 C2222 1.377 . S
C2223 C2229 1.390 . S
C2224 H2215 0.930 . S
C2224 C2222 1.384 . S
C2224 C2225 1.372 . S
C2225 C2224 1.372 . S
C2225 C2226 1.400 . S
C2225 C2230 1.490 . S
C2226 H2216 0.930 . S
C2226 C2225 1.400 . S
C2226 C2229 1.386 . S
H2227 C2243 0.930 . S
H2228 C2244 0.931 . S
C2229 H2217 0.929 . S
C2229 C2223 1.390 . S
C2229 C2226 1.386 . S
C2230 C2225 1.490 . S
C2230 C2232 1.395 . S
C2230 C2233 1.403 . S
H2231 C2237 0.930 . S
C2232 H2218 0.930 . S
C2232 C2230 1.395 . S
C2232 C2235 1.403 . S
C2233 C2230 1.403 . S
C2233 C2234 1.524 . S
C2233 C2237 1.400 . S
C2234 H2219 0.960 . S
C2234 H2220 0.960 . S
C2234 H2221 0.960 . S
C2234 C2233 1.524 . S
C2235 C2232 1.403 . S
C2235 C2236 1.392 . S
C2235 C2239 1.495 . S
C2236 C2235 1.392 . S
C2236 C2237 1.385 . S
C2236 C2238 1.478 . S
C2237 H2231 0.930 . S
C2237 C2233 1.400 . S
C2237 C2236 1.385 . S
C2238 C2236 1.478 . S
C2238 C2240 1.381 . S
C2238 C2244 1.383 . S
C2239 C2235 1.495 . S
C2239 H2245 0.959 . S
C2239 H2246 0.961 . S
C2239 H2247 0.960 . S
C2240 C2238 1.381 . S
C2240 C2241 1.394 . S
C2240 H2248 0.930 . S
C2241 C2240 1.394 . S
C2241 C2242 1.383 . S
C2241 H2249 0.929 . S
C2242 C2241 1.383 . S
C2242 C2243 1.377 . S
C2243 H2227 0.930 . S
C2243 C2242 1.377 . S
C2243 C2244 1.379 . S
C2244 H2228 0.931 . S
C2244 C2238 1.383 . S
C2244 C2243 1.379 . S
H2245 C2239 0.959 . S
H2246 C2239 0.961 . S
H2247 C2239 0.960 . S
H2248 C2240 0.930 . S
H2249 C2241 0.929 . S
H2250 C2258 0.929 . S
H2251 C2260 0.930 . S
H2252 C2262 0.930 . S
H2253 C2265 0.929 . S
H2254 C2268 0.930 . S
H2255 C2270 0.960 . S
H2256 C2270 0.960 . S
H2257 C2270 0.960 . S
C2258 H2250 0.929 . S
C2258 C2259 1.377 . S
C2258 C2260 1.384 . S
C2259 C2258 1.377 . S
C2259 C2265 1.390 . S
C2260 H2251 0.930 . S
C2260 C2258 1.384 . S
C2260 C2261 1.372 . S
C2261 C2260 1.372 . S
C2261 C2262 1.400 . S
C2261 C2266 1.490 . S
C2262 H2252 0.930 . S
C2262 C2261 1.400 . S
C2262 C2265 1.386 . S
H2263 C2279 0.930 . S
H2264 C2280 0.931 . S
C2265 H2253 0.929 . S
C2265 C2259 1.390 . S
C2265 C2262 1.386 . S
C2266 C2261 1.490 . S
C2266 C2268 1.395 . S
C2266 C2269 1.403 . S
H2267 C2273 0.930 . S
C2268 H2254 0.930 . S
C2268 C2266 1.395 . S
C2268 C2271 1.403 . S
C2269 C2266 1.403 . S
C2269 C2270 1.524 . S
C2269 C2273 1.400 . S
C2270 H2255 0.960 . S
C2270 H2256 0.960 . S
C2270 H2257 0.960 . S
C2270 C2269 1.524 . S
C2271 C2268 1.403 . S
C2271 C2272 1.392 . S
C2271 C2275 1.495 . S
C2272 C2271 1.392 . S
C2272 C2273 1.385 . S
C2272 C2274 1.478 . S
C2273 H2267 0.930 . S
C2273 C2269 1.400 . S
C2273 C2272 1.385 . S
C2274 C2272 1.478 . S
C2274 C2276 1.381 . S
C2274 C2280 1.383 . S
C2275 C2271 1.495 . S
C2275 H2281 0.959 . S
C2275 H2282 0.961 . S
C2275 H2283 0.960 . S
C2276 C2274 1.381 . S
C2276 C2277 1.394 . S
C2276 H2284 0.930 . S
C2277 C2276 1.394 . S
C2277 C2278 1.383 . S
C2277 H2285 0.929 . S
C2278 C2277 1.383 . S
C2278 C2279 1.377 . S
C2279 H2263 0.930 . S
C2279 C2278 1.377 . S
C2279 C2280 1.379 . S
C2280 H2264 0.931 . S
C2280 C2274 1.383 . S
C2280 C2279 1.379 . S
H2281 C2275 0.959 . S
H2282 C2275 0.961 . S
H2283 C2275 0.960 . S
H2284 C2276 0.930 . S
H2285 C2277 0.929 . S
H2286 C2294 0.929 . S
H2287 C2296 0.930 . S
H2288 C2298 0.930 . S
H2289 C2301 0.929 . S
H2290 C2304 0.930 . S
H2291 C2306 0.960 . S
H2292 C2306 0.960 . S
H2293 C2306 0.960 . S
C2294 H2286 0.929 . S
C2294 C2295 1.377 . S
C2294 C2296 1.384 . S
C2295 C2294 1.377 . S
C2295 C2301 1.390 . S
C2296 H2287 0.930 . S
C2296 C2294 1.384 . S
C2296 C2297 1.372 . S
C2297 C2296 1.372 . S
C2297 C2298 1.400 . S
C2297 C2302 1.490 . S
C2298 H2288 0.930 . S
C2298 C2297 1.400 . S
C2298 C2301 1.386 . S
H2299 C2315 0.930 . S
H2300 C2316 0.931 . S
C2301 H2289 0.929 . S
C2301 C2295 1.390 . S
C2301 C2298 1.386 . S
C2302 C2297 1.490 . S
C2302 C2304 1.395 . S
C2302 C2305 1.403 . S
H2303 C2309 0.930 . S
C2304 H2290 0.930 . S
C2304 C2302 1.395 . S
C2304 C2307 1.403 . S
C2305 C2302 1.403 . S
C2305 C2306 1.524 . S
C2305 C2309 1.400 . S
C2306 H2291 0.960 . S
C2306 H2292 0.960 . S
C2306 H2293 0.960 . S
C2306 C2305 1.524 . S
C2307 C2304 1.403 . S
C2307 C2308 1.392 . S
C2307 C2311 1.495 . S
C2308 C2307 1.392 . S
C2308 C2309 1.385 . S
C2308 C2310 1.478 . S
C2309 H2303 0.930 . S
C2309 C2305 1.400 . S
C2309 C2308 1.385 . S
C2310 C2308 1.478 . S
C2310 C2312 1.381 . S
C2310 C2316 1.383 . S
C2311 C2307 1.495 . S
C2311 H2317 0.959 . S
C2311 H2318 0.961 . S
C2311 H2319 0.960 . S
C2312 C2310 1.381 . S
C2312 C2313 1.394 . S
C2312 H2320 0.930 . S
C2313 C2312 1.394 . S
C2313 C2314 1.383 . S
C2313 H2321 0.929 . S
C2314 C2313 1.383 . S
C2314 C2315 1.377 . S
C2315 H2299 0.930 . S
C2315 C2314 1.377 . S
C2315 C2316 1.379 . S
C2316 H2300 0.931 . S
C2316 C2310 1.383 . S
C2316 C2315 1.379 . S
H2317 C2311 0.959 . S
H2318 C2311 0.961 . S
H2319 C2311 0.960 . S
H2320 C2312 0.930 . S
H2321 C2313 0.929 . S
H2322 C2330 0.929 . S
H2323 C2332 0.930 . S
H2324 C2334 0.930 . S
H2325 C2337 0.929 . S
H2326 C2340 0.930 . S
H2327 C2342 0.960 . S
H2328 C2342 0.960 . S
H2329 C2342 0.960 . S
C2330 H2322 0.929 . S
C2330 C2331 1.377 . S
C2330 C2332 1.384 . S
C2331 C2330 1.377 . S
C2331 C2337 1.390 . S
C2332 H2323 0.930 . S
C2332 C2330 1.384 . S
C2332 C2333 1.372 . S
C2333 C2332 1.372 . S
C2333 C2334 1.400 . S
C2333 C2338 1.490 . S
C2334 H2324 0.930 . S
C2334 C2333 1.400 . S
C2334 C2337 1.386 . S
H2335 C2351 0.930 . S
H2336 C2352 0.931 . S
C2337 H2325 0.929 . S
C2337 C2331 1.390 . S
C2337 C2334 1.386 . S
C2338 C2333 1.490 . S
C2338 C2340 1.395 . S
C2338 C2341 1.403 . S
H2339 C2345 0.930 . S
C2340 H2326 0.930 . S
C2340 C2338 1.395 . S
C2340 C2343 1.403 . S
C2341 C2338 1.403 . S
C2341 C2342 1.524 . S
C2341 C2345 1.400 . S
C2342 H2327 0.960 . S
C2342 H2328 0.960 . S
C2342 H2329 0.960 . S
C2342 C2341 1.524 . S
C2343 C2340 1.403 . S
C2343 C2344 1.392 . S
C2343 C2347 1.495 . S
C2344 C2343 1.392 . S
C2344 C2345 1.385 . S
C2344 C2346 1.478 . S
C2345 H2339 0.930 . S
C2345 C2341 1.400 . S
C2345 C2344 1.385 . S
C2346 C2344 1.478 . S
C2346 C2348 1.381 . S
C2346 C2352 1.383 . S
C2347 C2343 1.495 . S
C2347 H2353 0.959 . S
C2347 H2354 0.961 . S
C2347 H2355 0.960 . S
C2348 C2346 1.381 . S
C2348 C2349 1.394 . S
C2348 H2356 0.930 . S
C2349 C2348 1.394 . S
C2349 C2350 1.383 . S
C2349 H2357 0.929 . S
C2350 C2349 1.383 . S
C2350 C2351 1.377 . S
C2351 H2335 0.930 . S
C2351 C2350 1.377 . S
C2351 C2352 1.379 . S
C2352 H2336 0.931 . S
C2352 C2346 1.383 . S
C2352 C2351 1.379 . S
H2353 C2347 0.959 . S
H2354 C2347 0.961 . S
H2355 C2347 0.960 . S
H2356 C2348 0.930 . S
H2357 C2349 0.929 . S
H2358 C2366 0.929 . S
H2359 C2368 0.930 . S
H2360 C2370 0.930 . S
H2361 C2373 0.929 . S
H2362 C2376 0.930 . S
H2363 C2378 0.960 . S
H2364 C2378 0.960 . S
H2365 C2378 0.960 . S
C2366 H2358 0.929 . S
C2366 C2367 1.377 . S
C2366 C2368 1.384 . S
C2367 C2366 1.377 . S
C2367 C2373 1.390 . S
C2368 H2359 0.930 . S
C2368 C2366 1.384 . S
C2368 C2369 1.372 . S
C2369 C2368 1.372 . S
C2369 C2370 1.400 . S
C2369 C2374 1.490 . S
C2370 H2360 0.930 . S
C2370 C2369 1.400 . S
C2370 C2373 1.386 . S
H2371 C2387 0.930 . S
H2372 C2388 0.931 . S
C2373 H2361 0.929 . S
C2373 C2367 1.390 . S
C2373 C2370 1.386 . S
C2374 C2369 1.490 . S
C2374 C2376 1.395 . S
C2374 C2377 1.403 . S
H2375 C2381 0.930 . S
C2376 H2362 0.930 . S
C2376 C2374 1.395 . S
C2376 C2379 1.403 . S
C2377 C2374 1.403 . S
C2377 C2378 1.524 . S
C2377 C2381 1.400 . S
C2378 H2363 0.960 . S
C2378 H2364 0.960 . S
C2378 H2365 0.960 . S
C2378 C2377 1.524 . S
C2379 C2376 1.403 . S
C2379 C2380 1.392 . S
C2379 C2383 1.495 . S
C2380 C2379 1.392 . S
C2380 C2381 1.385 . S
C2380 C2382 1.478 . S
C2381 H2375 0.930 . S
C2381 C2377 1.400 . S
C2381 C2380 1.385 . S
C2382 C2380 1.478 . S
C2382 C2384 1.381 . S
C2382 C2388 1.383 . S
C2383 C2379 1.495 . S
C2383 H2389 0.959 . S
C2383 H2390 0.961 . S
C2383 H2391 0.960 . S
C2384 C2382 1.381 . S
C2384 C2385 1.394 . S
C2384 H2392 0.930 . S
C2385 C2384 1.394 . S
C2385 C2386 1.383 . S
C2385 H2393 0.929 . S
C2386 C2385 1.383 . S
C2386 C2387 1.377 . S
C2387 H2371 0.930 . S
C2387 C2386 1.377 . S
C2387 C2388 1.379 . S
C2388 H2372 0.931 . S
C2388 C2382 1.383 . S
C2388 C2387 1.379 . S
H2389 C2383 0.959 . S
H2390 C2383 0.961 . S
H2391 C2383 0.960 . S
H2392 C2384 0.930 . S
H2393 C2385 0.929 . S
H2394 C2402 0.929 . S
H2395 C2404 0.930 . S
H2396 C2406 0.930 . S
H2397 C2409 0.929 . S
H2398 C2412 0.930 . S
H2399 C2414 0.960 . S
H2400 C2414 0.960 . S
H2401 C2414 0.960 . S
C2402 H2394 0.929 . S
C2402 C2403 1.377 . S
C2402 C2404 1.384 . S
C2403 C2402 1.377 . S
C2403 C2409 1.390 . S
C2404 H2395 0.930 . S
C2404 C2402 1.384 . S
C2404 C2405 1.372 . S
C2405 C2404 1.372 . S
C2405 C2406 1.400 . S
C2405 C2410 1.490 . S
C2406 H2396 0.930 . S
C2406 C2405 1.400 . S
C2406 C2409 1.386 . S
H2407 C2423 0.930 . S
H2408 C2424 0.931 . S
C2409 H2397 0.929 . S
C2409 C2403 1.390 . S
C2409 C2406 1.386 . S
C2410 C2405 1.490 . S
C2410 C2412 1.395 . S
C2410 C2413 1.403 . S
H2411 C2417 0.930 . S
C2412 H2398 0.930 . S
C2412 C2410 1.395 . S
C2412 C2415 1.403 . S
C2413 C2410 1.403 . S
C2413 C2414 1.524 . S
C2413 C2417 1.400 . S
C2414 H2399 0.960 . S
C2414 H2400 0.960 . S
C2414 H2401 0.960 . S
C2414 C2413 1.524 . S
C2415 C2412 1.403 . S
C2415 C2416 1.392 . S
C2415 C2419 1.495 . S
C2416 C2415 1.392 . S
C2416 C2417 1.385 . S
C2416 C2418 1.478 . S
C2417 H2411 0.930 . S
C2417 C2413 1.400 . S
C2417 C2416 1.385 . S
C2418 C2416 1.478 . S
C2418 C2420 1.381 . S
C2418 C2424 1.383 . S
C2419 C2415 1.495 . S
C2419 H2425 0.959 . S
C2419 H2426 0.961 . S
C2419 H2427 0.960 . S
C2420 C2418 1.381 . S
C2420 C2421 1.394 . S
C2420 H2428 0.930 . S
C2421 C2420 1.394 . S
C2421 C2422 1.383 . S
C2421 H2429 0.929 . S
C2422 C2421 1.383 . S
C2422 C2423 1.377 . S
C2423 H2407 0.930 . S
C2423 C2422 1.377 . S
C2423 C2424 1.379 . S
C2424 H2408 0.931 . S
C2424 C2418 1.383 . S
C2424 C2423 1.379 . S
H2425 C2419 0.959 . S
H2426 C2419 0.961 . S
H2427 C2419 0.960 . S
H2428 C2420 0.930 . S
H2429 C2421 0.929 . S
H2430 C2438 0.929 . S
H2431 C2440 0.930 . S
H2432 C2442 0.930 . S
H2433 C2445 0.929 . S
H2434 C2448 0.930 . S
H2435 C2450 0.960 . S
H2436 C2450 0.960 . S
H2437 C2450 0.960 . S
C2438 H2430 0.929 . S
C2438 C2439 1.377 . S
C2438 C2440 1.384 . S
C2439 C2438 1.377 . S
C2439 C2445 1.390 . S
C2440 H2431 0.930 . S
C2440 C2438 1.384 . S
C2440 C2441 1.372 . S
C2441 C2440 1.372 . S
C2441 C2442 1.400 . S
C2441 C2446 1.490 . S
C2442 H2432 0.930 . S
C2442 C2441 1.400 . S
C2442 C2445 1.386 . S
H2443 C2459 0.930 . S
H2444 C2460 0.931 . S
C2445 H2433 0.929 . S
C2445 C2439 1.390 . S
C2445 C2442 1.386 . S
C2446 C2441 1.490 . S
C2446 C2448 1.395 . S
C2446 C2449 1.403 . S
H2447 C2453 0.930 . S
C2448 H2434 0.930 . S
C2448 C2446 1.395 . S
C2448 C2451 1.403 . S
C2449 C2446 1.403 . S
C2449 C2450 1.524 . S
C2449 C2453 1.400 . S
C2450 H2435 0.960 . S
C2450 H2436 0.960 . S
C2450 H2437 0.960 . S
C2450 C2449 1.524 . S
C2451 C2448 1.403 . S
C2451 C2452 1.392 . S
C2451 C2455 1.495 . S
C2452 C2451 1.392 . S
C2452 C2453 1.385 . S
C2452 C2454 1.478 . S
C2453 H2447 0.930 . S
C2453 C2449 1.400 . S
C2453 C2452 1.385 . S
C2454 C2452 1.478 . S
C2454 C2456 1.381 . S
C2454 C2460 1.383 . S
C2455 C2451 1.495 . S
C2455 H2461 0.959 . S
C2455 H2462 0.961 . S
C2455 H2463 0.960 . S
C2456 C2454 1.381 . S
C2456 C2457 1.394 . S
C2456 H2464 0.930 . S
C2457 C2456 1.394 . S
C2457 C2458 1.383 . S
C2457 H2465 0.929 . S
C2458 C2457 1.383 . S
C2458 C2459 1.377 . S
C2459 H2443 0.930 . S
C2459 C2458 1.377 . S
C2459 C2460 1.379 . S
C2460 H2444 0.931 . S
C2460 C2454 1.383 . S
C2460 C2459 1.379 . S
H2461 C2455 0.959 . S
H2462 C2455 0.961 . S
H2463 C2455 0.960 . S
H2464 C2456 0.930 . S
H2465 C2457 0.929 . S
H2466 C2474 0.929 . S
H2467 C2476 0.930 . S
H2468 C2478 0.930 . S
H2469 C2481 0.929 . S
H2470 C2484 0.930 . S
H2471 C2486 0.960 . S
H2472 C2486 0.960 . S
H2473 C2486 0.960 . S
C2474 H2466 0.929 . S
C2474 C2475 1.377 . S
C2474 C2476 1.384 . S
C2475 C2474 1.377 . S
C2475 C2481 1.390 . S
C2476 H2467 0.930 . S
C2476 C2474 1.384 . S
C2476 C2477 1.372 . S
C2477 C2476 1.372 . S
C2477 C2478 1.400 . S
C2477 C2482 1.490 . S
C2478 H2468 0.930 . S
C2478 C2477 1.400 . S
C2478 C2481 1.386 . S
H2479 C2495 0.930 . S
H2480 C2496 0.931 . S
C2481 H2469 0.929 . S
C2481 C2475 1.390 . S
C2481 C2478 1.386 . S
C2482 C2477 1.490 . S
C2482 C2484 1.395 . S
C2482 C2485 1.403 . S
H2483 C2489 0.930 . S
C2484 H2470 0.930 . S
C2484 C2482 1.395 . S
C2484 C2487 1.403 . S
C2485 C2482 1.403 . S
C2485 C2486 1.524 . S
C2485 C2489 1.400 . S
C2486 H2471 0.960 . S
C2486 H2472 0.960 . S
C2486 H2473 0.960 . S
C2486 C2485 1.524 . S
C2487 C2484 1.403 . S
C2487 C2488 1.392 . S
C2487 C2491 1.495 . S
C2488 C2487 1.392 . S
C2488 C2489 1.385 . S
C2488 C2490 1.478 . S
C2489 H2483 0.930 . S
C2489 C2485 1.400 . S
C2489 C2488 1.385 . S
C2490 C2488 1.478 . S
C2490 C2492 1.381 . S
C2490 C2496 1.383 . S
C2491 C2487 1.495 . S
C2491 H2497 0.959 . S
C2491 H2498 0.961 . S
C2491 H2499 0.960 . S
C2492 C2490 1.381 . S
C2492 C2493 1.394 . S
C2492 H2500 0.930 . S
C2493 C2492 1.394 . S
C2493 C2494 1.383 . S
C2493 H2501 0.929 . S
C2494 C2493 1.383 . S
C2494 C2495 1.377 . S
C2495 H2479 0.930 . S
C2495 C2494 1.377 . S
C2495 C2496 1.379 . S
C2496 H2480 0.931 . S
C2496 C2490 1.383 . S
C2496 C2495 1.379 . S
H2497 C2491 0.959 . S
H2498 C2491 0.961 . S
H2499 C2491 0.960 . S
H2500 C2492 0.930 . S
H2501 C2493 0.929 . S
H2502 C2510 0.929 . S
H2503 C2512 0.930 . S
H2504 C2514 0.930 . S
H2505 C2517 0.929 . S
H2506 C2520 0.930 . S
H2507 C2522 0.960 . S
H2508 C2522 0.960 . S
H2509 C2522 0.960 . S
C2510 H2502 0.929 . S
C2510 C2511 1.377 . S
C2510 C2512 1.384 . S
C2511 C2510 1.377 . S
C2511 C2517 1.390 . S
C2512 H2503 0.930 . S
C2512 C2510 1.384 . S
C2512 C2513 1.372 . S
C2513 C2512 1.372 . S
C2513 C2514 1.400 . S
C2513 C2518 1.490 . S
C2514 H2504 0.930 . S
C2514 C2513 1.400 . S
C2514 C2517 1.386 . S
H2515 C2531 0.930 . S
H2516 C2532 0.931 . S
C2517 H2505 0.929 . S
C2517 C2511 1.390 . S
C2517 C2514 1.386 . S
C2518 C2513 1.490 . S
C2518 C2520 1.395 . S
C2518 C2521 1.403 . S
H2519 C2525 0.930 . S
C2520 H2506 0.930 . S
C2520 C2518 1.395 . S
C2520 C2523 1.403 . S
C2521 C2518 1.403 . S
C2521 C2522 1.524 . S
C2521 C2525 1.400 . S
C2522 H2507 0.960 . S
C2522 H2508 0.960 . S
C2522 H2509 0.960 . S
C2522 C2521 1.524 . S
C2523 C2520 1.403 . S
C2523 C2524 1.392 . S
C2523 C2527 1.495 . S
C2524 C2523 1.392 . S
C2524 C2525 1.385 . S
C2524 C2526 1.478 . S
C2525 H2519 0.930 . S
C2525 C2521 1.400 . S
C2525 C2524 1.385 . S
C2526 C2524 1.478 . S
C2526 C2528 1.381 . S
C2526 C2532 1.383 . S
C2527 C2523 1.495 . S
C2527 H2533 0.959 . S
C2527 H2534 0.961 . S
C2527 H2535 0.960 . S
C2528 C2526 1.381 . S
C2528 C2529 1.394 . S
C2528 H2536 0.930 . S
C2529 C2528 1.394 . S
C2529 C2530 1.383 . S
C2529 H2537 0.929 . S
C2530 C2529 1.383 . S
C2530 C2531 1.377 . S
C2531 H2515 0.930 . S
C2531 C2530 1.377 . S
C2531 C2532 1.379 . S
C2532 H2516 0.931 . S
C2532 C2526 1.383 . S
C2532 C2531 1.379 . S
H2533 C2527 0.959 . S
H2534 C2527 0.961 . S
H2535 C2527 0.960 . S
H2536 C2528 0.930 . S
H2537 C2529 0.929 . S
H2538 C2546 0.929 . S
H2539 C2548 0.930 . S
H2540 C2550 0.930 . S
H2541 C2553 0.929 . S
H2542 C2556 0.930 . S
H2543 C2558 0.960 . S
H2544 C2558 0.960 . S
H2545 C2558 0.960 . S
C2546 H2538 0.929 . S
C2546 C2547 1.377 . S
C2546 C2548 1.384 . S
C2547 C2546 1.377 . S
C2547 C2553 1.390 . S
C2548 H2539 0.930 . S
C2548 C2546 1.384 . S
C2548 C2549 1.372 . S
C2549 C2548 1.372 . S
C2549 C2550 1.400 . S
C2549 C2554 1.490 . S
C2550 H2540 0.930 . S
C2550 C2549 1.400 . S
C2550 C2553 1.386 . S
H2551 C2567 0.930 . S
H2552 C2568 0.931 . S
C2553 H2541 0.929 . S
C2553 C2547 1.390 . S
C2553 C2550 1.386 . S
C2554 C2549 1.490 . S
C2554 C2556 1.395 . S
C2554 C2557 1.403 . S
H2555 C2561 0.930 . S
C2556 H2542 0.930 . S
C2556 C2554 1.395 . S
C2556 C2559 1.403 . S
C2557 C2554 1.403 . S
C2557 C2558 1.524 . S
C2557 C2561 1.400 . S
C2558 H2543 0.960 . S
C2558 H2544 0.960 . S
C2558 H2545 0.960 . S
C2558 C2557 1.524 . S
C2559 C2556 1.403 . S
C2559 C2560 1.392 . S
C2559 C2563 1.495 . S
C2560 C2559 1.392 . S
C2560 C2561 1.385 . S
C2560 C2562 1.478 . S
C2561 H2555 0.930 . S
C2561 C2557 1.400 . S
C2561 C2560 1.385 . S
C2562 C2560 1.478 . S
C2562 C2564 1.381 . S
C2562 C2568 1.383 . S
C2563 C2559 1.495 . S
C2563 H2569 0.959 . S
C2563 H2570 0.961 . S
C2563 H2571 0.960 . S
C2564 C2562 1.381 . S
C2564 C2565 1.394 . S
C2564 H2572 0.930 . S
C2565 C2564 1.394 . S
C2565 C2566 1.383 . S
C2565 H2573 0.929 . S
C2566 C2565 1.383 . S
C2566 C2567 1.377 . S
C2567 H2551 0.930 . S
C2567 C2566 1.377 . S
C2567 C2568 1.379 . S
C2568 H2552 0.931 . S
C2568 C2562 1.383 . S
C2568 C2567 1.379 . S
H2569 C2563 0.959 . S
H2570 C2563 0.961 . S
H2571 C2563 0.960 . S
H2572 C2564 0.930 . S
H2573 C2565 0.929 . S
H2574 C2582 0.929 . S
H2575 C2584 0.930 . S
H2576 C2586 0.930 . S
H2577 C2589 0.929 . S
H2578 C2592 0.930 . S
H2579 C2594 0.960 . S
H2580 C2594 0.960 . S
H2581 C2594 0.960 . S
C2582 H2574 0.929 . S
C2582 C2583 1.377 . S
C2582 C2584 1.384 . S
C2583 C2582 1.377 . S
C2583 C2589 1.390 . S
C2584 H2575 0.930 . S
C2584 C2582 1.384 . S
C2584 C2585 1.372 . S
C2585 C2584 1.372 . S
C2585 C2586 1.400 . S
C2585 C2590 1.490 . S
C2586 H2576 0.930 . S
C2586 C2585 1.400 . S
C2586 C2589 1.386 . S
H2587 C2603 0.930 . S
H2588 C2604 0.931 . S
C2589 H2577 0.929 . S
C2589 C2583 1.390 . S
C2589 C2586 1.386 . S
C2590 C2585 1.490 . S
C2590 C2592 1.395 . S
C2590 C2593 1.403 . S
H2591 C2597 0.930 . S
C2592 H2578 0.930 . S
C2592 C2590 1.395 . S
C2592 C2595 1.403 . S
C2593 C2590 1.403 . S
C2593 C2594 1.524 . S
C2593 C2597 1.400 . S
C2594 H2579 0.960 . S
C2594 H2580 0.960 . S
C2594 H2581 0.960 . S
C2594 C2593 1.524 . S
C2595 C2592 1.403 . S
C2595 C2596 1.392 . S
C2595 C2599 1.495 . S
C2596 C2595 1.392 . S
C2596 C2597 1.385 . S
C2596 C2598 1.478 . S
C2597 H2591 0.930 . S
C2597 C2593 1.400 . S
C2597 C2596 1.385 . S
C2598 C2596 1.478 . S
C2598 C2600 1.381 . S
C2598 C2604 1.383 . S
C2599 C2595 1.495 . S
C2599 H2605 0.959 . S
C2599 H2606 0.961 . S
C2599 H2607 0.960 . S
C2600 C2598 1.381 . S
C2600 C2601 1.394 . S
C2600 H2608 0.930 . S
C2601 C2600 1.394 . S
C2601 C2602 1.383 . S
C2601 H2609 0.929 . S
C2602 C2601 1.383 . S
C2602 C2603 1.377 . S
C2603 H2587 0.930 . S
C2603 C2602 1.377 . S
C2603 C2604 1.379 . S
C2604 H2588 0.931 . S
C2604 C2598 1.383 . S
C2604 C2603 1.379 . S
H2605 C2599 0.959 . S
H2606 C2599 0.961 . S
H2607 C2599 0.960 . S
H2608 C2600 0.930 . S
H2609 C2601 0.929 . S
H2610 C2618 0.929 . S
H2611 C2620 0.930 . S
H2612 C2622 0.930 . S
H2613 C2625 0.929 . S
H2614 C2628 0.930 . S
H2615 C2630 0.960 . S
H2616 C2630 0.960 . S
H2617 C2630 0.960 . S
C2618 H2610 0.929 . S
C2618 C2619 1.377 . S
C2618 C2620 1.384 . S
C2619 C2618 1.377 . S
C2619 C2625 1.390 . S
C2620 H2611 0.930 . S
C2620 C2618 1.384 . S
C2620 C2621 1.372 . S
C2621 C2620 1.372 . S
C2621 C2622 1.400 . S
C2621 C2626 1.490 . S
C2622 H2612 0.930 . S
C2622 C2621 1.400 . S
C2622 C2625 1.386 . S
H2623 C2639 0.930 . S
H2624 C2640 0.931 . S
C2625 H2613 0.929 . S
C2625 C2619 1.390 . S
C2625 C2622 1.386 . S
C2626 C2621 1.490 . S
C2626 C2628 1.395 . S
C2626 C2629 1.403 . S
H2627 C2633 0.930 . S
C2628 H2614 0.930 . S
C2628 C2626 1.395 . S
C2628 C2631 1.403 . S
C2629 C2626 1.403 . S
C2629 C2630 1.524 . S
C2629 C2633 1.400 . S
C2630 H2615 0.960 . S
C2630 H2616 0.960 . S
C2630 H2617 0.960 . S
C2630 C2629 1.524 . S
C2631 C2628 1.403 . S
C2631 C2632 1.392 . S
C2631 C2635 1.495 . S
C2632 C2631 1.392 . S
C2632 C2633 1.385 . S
C2632 C2634 1.478 . S
C2633 H2627 0.930 . S
C2633 C2629 1.400 . S
C2633 C2632 1.385 . S
C2634 C2632 1.478 . S
C2634 C2636 1.381 . S
C2634 C2640 1.383 . S
C2635 C2631 1.495 . S
C2635 H2641 0.959 . S
C2635 H2642 0.961 . S
C2635 H2643 0.960 . S
C2636 C2634 1.381 . S
C2636 C2637 1.394 . S
C2636 H2644 0.930 . S
C2637 C2636 1.394 . S
C2637 C2638 1.383 . S
C2637 H2645 0.929 . S
C2638 C2637 1.383 . S
C2638 C2639 1.377 . S
C2639 H2623 0.930 . S
C2639 C2638 1.377 . S
C2639 C2640 1.379 . S
C2640 H2624 0.931 . S
C2640 C2634 1.383 . S
C2640 C2639 1.379 . S
H2641 C2635 0.959 . S
H2642 C2635 0.961 . S
H2643 C2635 0.960 . S
H2644 C2636 0.930 . S
H2645 C2637 0.929 . S
C711 C253 1.760 . S
C730 C345 1.768 . S
C747 C272 1.909 . S
C766 C385 1.908 . S
C783 C234 1.625 . S
C802 C437 1.594 . S
C819 C215 1.462 . S
C838 C397 1.416 1_556 S
C874 C425 1.540 1_556 S
C855 C177 1.553 . S
C891 C196 1.357 . S
C910 C357 1.366 . S
C946 C364 1.733 . S
C927 C220 1.577 . S
C982 C404 1.693 . S
C963 C182 1.582 . S
C999 C201 1.660 . S
C1018 C424 1.750 . S
C1035 C258 1.439 . S
C1054 C384 1.510 . S
C1071 C277 1.324 . S
C1090 C444 1.431 . S
C1126 C344 1.507 . S
C1107 C239 1.378 . S
C1162 C465 1.766 . S
C1143 C25 1.760 . S
C1179 C44 1.907 . S
C1198 C505 1.893 . S
C1215 C6 1.627 . S
C1234 C557 1.603 . S
C1251 C329 1.464 . S
C1270 C517 1.429 . S
C1287 C291 1.553 . S
C1306 C545 1.547 . S
C1323 C310 1.350 . S
C1342 C477 1.328 . S
C1359 C334 1.578 . S
C1378 C484 1.726 . S
C1395 C296 1.590 . S
C1414 C524 1.682 . S
C1450 C544 1.780 . S
C1431 C315 1.652 . S
C1467 C30 1.439 . S
C1486 C504 1.511 . S
C1522 C564 1.447 . S
C1503 C49 1.318 . S
C1539 C11 1.379 . S
C1558 C464 1.505 . S
C1594 C585 1.771 . S
C1575 C139 1.763 . S
C1611 C158 1.909 . S
C1630 C625 1.904 . S
C1666 C677 1.633 . S
C1647 C120 1.632 . S
C1702 C637 1.464 . S
C1683 C101 1.468 . S
C1738 C665 1.551 . S
C1719 C63 1.554 . S
C1755 C82 1.351 . S
C1774 C597 1.335 . S
C1791 C106 1.563 . S
C1810 C604 1.728 . S
C1827 C68 1.582 . S
C1846 C644 1.692 . S
C1882 C664 1.779 . S
C1863 C87 1.653 . S
C1899 C144 1.426 . S
C1918 C624 1.539 . S
C1935 C163 1.325 . S
C1954 C684 1.434 . S
C1971 C125 1.388 . S
C1990 C584 1.506 . S
C2007 C287 1.509 . S
C2026 C368 1.462 . S
C2062 C408 2.120 . S
C2043 C306 2.153 . S
C2079 C325 1.638 . S
C2098 C431 1.660 . S
C2115 C116 1.921 . S
C2134 C391 1.927 . S
C2151 C135 1.835 . S
C2170 C448 1.831 . S
C2206 C351 1.274 . S
C2187 C154 1.256 . S
C2223 C59 1.513 . S
C2242 C488 1.482 . S
C2259 C78 2.153 . S
C2278 C528 2.121 . S
C2295 C97 1.646 . S
C2314 C551 1.675 . S
C2331 C230 1.925 . S
C2350 C511 1.942 . S
C2386 C568 1.818 . S
C2367 C249 1.832 . S
C2403 C268 1.251 . S
C2422 C471 1.267 . S
C2439 C173 1.509 . S
C2458 C608 1.495 . S
C2475 C192 2.154 . S
C2494 C648 2.129 . S
C2530 C671 1.658 . S
C2511 C211 1.639 . S
C2547 C2 1.921 . S
C2566 C631 1.927 . S
C2583 C21 1.837 . S
C2602 C688 1.831 . S
C2619 C40 1.260 . S
C2638 C591 1.280 . S
