# Generated by pormake.
# Topology ssa, (4,4)-cn, num edge types: 1
# Building blocks:
#     Node 0, Type 0, BuildingBlock: NAWXER_clean_sbu_0, # of connection points: 4
#     Node 1, Type 0, BuildingBlock: NAWXER_clean_sbu_0, # of connection points: 4
#     Node 2, Type 0, BuildingBlock: NAWXER_clean_sbu_0, # of connection points: 4
#     Node 3, Type 0, BuildingBlock: NAWXER_clean_sbu_0, # of connection points: 4
#     Node 4, Type 0, BuildingBlock: NAWXER_clean_sbu_0, # of connection points: 4
#     Node 5, Type 0, BuildingBlock: NAWXER_clean_sbu_0, # of connection points: 4
#     Node 6, Type 1, BuildingBlock: MIFKUJ_clean_linker_1, # of connection points: 4
#     Node 7, Type 1, BuildingBlock: MIFKUJ_clean_linker_1, # of connection points: 4
#     Node 8, Type 1, BuildingBlock: MIFKUJ_clean_linker_1, # of connection points: 4
#     Node 9, Type 1, BuildingBlock: MIFKUJ_clean_linker_1, # of connection points: 4
#     Node 10, Type 1, BuildingBlock: MIFKUJ_clean_linker_1, # of connection points: 4
#     Node 11, Type 1, BuildingBlock: MIFKUJ_clean_linker_1, # of connection points: 4
#     Edge 12, Type (0, 1), BuildingBlock: UVAHIK_clean_linker_0, # of connection points: 2
#     Edge 13, Type (0, 1), BuildingBlock: UVAHIK_clean_linker_0, # of connection points: 2
#     Edge 14, Type (0, 1), BuildingBlock: UVAHIK_clean_linker_0, # of connection points: 2
#     Edge 15, Type (0, 1), BuildingBlock: UVAHIK_clean_linker_0, # of connection points: 2
#     Edge 16, Type (0, 1), BuildingBlock: UVAHIK_clean_linker_0, # of connection points: 2
#     Edge 17, Type (0, 1), BuildingBlock: UVAHIK_clean_linker_0, # of connection points: 2
#     Edge 18, Type (0, 1), BuildingBlock: UVAHIK_clean_linker_0, # of connection points: 2
#     Edge 19, Type (0, 1), BuildingBlock: UVAHIK_clean_linker_0, # of connection points: 2
#     Edge 20, Type (0, 1), BuildingBlock: UVAHIK_clean_linker_0, # of connection points: 2
#     Edge 21, Type (0, 1), BuildingBlock: UVAHIK_clean_linker_0, # of connection points: 2
#     Edge 22, Type (0, 1), BuildingBlock: UVAHIK_clean_linker_0, # of connection points: 2
#     Edge 23, Type (0, 1), BuildingBlock: UVAHIK_clean_linker_0, # of connection points: 2
#     Edge 24, Type (0, 1), BuildingBlock: UVAHIK_clean_linker_0, # of connection points: 2
#     Edge 25, Type (0, 1), BuildingBlock: UVAHIK_clean_linker_0, # of connection points: 2
#     Edge 26, Type (0, 1), BuildingBlock: UVAHIK_clean_linker_0, # of connection points: 2
#     Edge 27, Type (0, 1), BuildingBlock: UVAHIK_clean_linker_0, # of connection points: 2
#     Edge 28, Type (0, 1), BuildingBlock: UVAHIK_clean_linker_0, # of connection points: 2
#     Edge 29, Type (0, 1), BuildingBlock: UVAHIK_clean_linker_0, # of connection points: 2
#     Edge 30, Type (0, 1), BuildingBlock: UVAHIK_clean_linker_0, # of connection points: 2
#     Edge 31, Type (0, 1), BuildingBlock: UVAHIK_clean_linker_0, # of connection points: 2
#     Edge 32, Type (0, 1), BuildingBlock: UVAHIK_clean_linker_0, # of connection points: 2
#     Edge 33, Type (0, 1), BuildingBlock: UVAHIK_clean_linker_0, # of connection points: 2
#     Edge 34, Type (0, 1), BuildingBlock: UVAHIK_clean_linker_0, # of connection points: 2
#     Edge 35, Type (0, 1), BuildingBlock: UVAHIK_clean_linker_0, # of connection points: 2
# Relax obj value: 0.011
# Max RMSD: 0.026
# Mean RMSD: 0.026
data_MOF--net-ssa--node1-NAWXER_clean_sbu_0--node2-MIFKUJ_clean_linker_1--edge1-UVAHIK_clean_linker_0
_symmetry_space_group_name_H-M    P1
_symmetry_Int_Tables_number       1
_symmetry_cell_setting            triclinic
loop_
_symmetry_equiv_pos_as_xyz
'x, y, z'
_cell_length_a     73.693804
_cell_length_b     73.683114
_cell_length_c     46.609894
_cell_angle_alpha  90.048243
_cell_angle_beta   89.879835
_cell_angle_gamma 120.0296
loop_
_atom_site_label
_atom_site_type_symbol
_atom_site_fract_x
_atom_site_fract_y
_atom_site_fract_z
_atom_type_partial_charge
C0 C 0.99922 0.52619 0.03234 0.0
C1 C 0.96429 0.46026 0.9796 0.0
O2 O 0.9825 0.50954 0.03943 0.0
Zn3 Zn 0.98175 0.4931 0.00681 0.0
O4 O 0.00896 0.52654 0.00929 0.0
Zn5 Zn 0.00565 0.50552 0.97478 0.0
O6 O 0.00327 0.52008 0.94173 0.0
O7 O 0.97694 0.50949 0.97234 0.0
O8 O 0.98121 0.47404 0.96733 0.0
O9 O 0.95874 0.46468 0.00318 0.0
O10 O 0.00817 0.48945 0.01534 0.0
O11 O 0.03035 0.50276 0.97914 0.0
C12 C 0.98614 0.51902 0.94913 0.0
C13 C 0.02557 0.49376 0.00347 0.0
C14 C 0.49063 0.03181 0.49868 0.0
C15 C 0.5131 0.98825 0.44833 0.0
O16 O 0.48512 0.01441 0.51145 0.0
Zn17 Zn 0.48862 0.98755 0.50615 0.0
O18 O 0.50126 0.03623 0.47563 0.0
Zn19 Zn 0.50249 0.01059 0.47302 0.0
O20 O 0.47043 0.9867 0.46607 0.0
O21 O 0.45991 0.96517 0.5032 0.0
O22 O 0.51663 0.00634 0.44087 0.0
O23 O 0.50307 0.97998 0.47165 0.0
O24 O 0.50521 0.98901 0.53938 0.0
O25 O 0.52286 0.01381 0.50742 0.0
C26 C 0.45609 0.97038 0.4789 0.0
C27 C 0.52225 0.00486 0.53123 0.0
C28 C 0.49734 0.47164 0.99226 0.0
C29 C 0.52668 0.53763 0.04506 0.0
O30 O 0.49359 0.48513 0.98049 0.0
Zn31 Zn 0.49952 0.51617 0.98806 0.0
O32 O 0.50739 0.47613 0.01577 0.0
Zn33 Zn 0.51168 0.50424 0.01989 0.0
O34 O 0.48093 0.499 0.02838 0.0
O35 O 0.47158 0.51219 0.99268 0.0
O36 O 0.52728 0.5213 0.0523 0.0
O37 O 0.51696 0.53745 0.02215 0.0
O38 O 0.51615 0.5308 0.95463 0.0
O39 O 0.53243 0.52074 0.98495 0.0
C40 C 0.46738 0.50268 0.01664 0.0
C41 C 0.53241 0.53 0.96167 0.0
C42 C 0.99622 0.52249 0.46687 0.0
C43 C 0.95619 0.45764 0.52146 0.0
O44 O 0.00511 0.52205 0.49028 0.0
Zn45 Zn -0.00018 0.50105 0.52528 0.0
O46 O 0.97896 0.50656 0.45953 0.0
Zn47 Zn 0.97621 0.48954 0.49281 0.0
O48 O 0.9726 0.50737 0.52663 0.0
O49 O 0.99861 0.51707 0.55743 0.0
O50 O 0.95161 0.46196 0.49708 0.0
O51 O 0.97342 0.4708 0.53359 0.0
O52 O 0.02308 0.49588 0.52191 0.0
O53 O 0.0009 0.48284 0.48583 0.0
C54 C 0.98202 0.51699 0.54967 0.0
C55 C 0.01778 0.48606 0.49819 0.0
C56 C 0.50845 0.97807 0.0465 0.0
C57 C 0.48333 0.01835 0.99365 0.0
O58 O 0.50922 0.99493 0.05456 0.0
Zn59 Zn 0.49567 0.99837 0.021 0.0
O60 O 0.49991 0.96981 0.02243 0.0
Zn61 Zn 0.4849 0.97568 0.98734 0.0
O62 O 0.50312 0.97862 0.95554 0.0
O63 O 0.51805 0.00385 0.98774 0.0
O64 O 0.47978 0.00153 0.98066 0.0
O65 O 0.49233 0.0227 0.01796 0.0
O66 O 0.46403 0.9732 0.02548 0.0
O67 O 0.45688 0.95166 0.98884 0.0
C68 C 0.51908 0.99536 0.96422 0.0
C69 C 0.45119 0.95643 0.01205 0.0
C70 C 0.53137 0.51936 0.53771 0.0
C71 C 0.46637 0.49284 0.48342 0.0
O72 O 0.51497 0.51966 0.54552 0.0
Zn73 Zn 0.49853 0.50613 0.51148 0.0
O74 O 0.53157 0.5111 0.51358 0.0
Zn75 Zn 0.5113 0.49596 0.47803 0.0
O76 O 0.52652 0.51446 0.44653 0.0
O77 O 0.51559 0.52889 0.47872 0.0
O78 O 0.48016 0.48988 0.47084 0.0
O79 O 0.4705 0.50191 0.50771 0.0
O80 O 0.49281 0.47475 0.51572 0.0
O81 O 0.50801 0.46824 0.47941 0.0
C82 C 0.5254 0.53021 0.45535 0.0
C83 C 0.49725 0.46224 0.50237 0.0
H84 H 0.17537 0.41617 0.19479 0.0
H85 H 0.15178 0.42094 0.16272 0.0
H86 H 0.16544 0.47744 0.20822 0.0
H87 H 0.18942 0.47302 0.23959 0.0
H88 H 0.21584 0.44063 0.19971 0.0
H89 H 0.15781 0.41722 0.2693 0.0
H90 H 0.1322 0.42051 0.29942 0.0
H91 H 0.1821 0.47822 0.33468 0.0
H92 H 0.2074 0.475 0.30445 0.0
H93 H 0.25708 0.47325 0.30655 0.0
H94 H 0.28525 0.47558 0.33641 0.0
H95 H 0.27657 0.41798 0.29929 0.0
H96 H 0.2484 0.41589 0.26904 0.0
H97 H 0.21716 0.44468 0.30586 0.0
H98 H 0.27436 0.47155 0.24168 0.0
H99 H 0.30318 0.47522 0.2116 0.0
H100 H 0.26002 0.42026 0.16367 0.0
H101 H 0.23122 0.41608 0.19457 0.0
C102 C 0.18392 0.44402 0.21996 0.0
C103 C 0.17316 0.42949 0.198 0.0
C104 C 0.15975 0.43226 0.17965 0.0
C105 C 0.15677 0.44952 0.18308 0.0
C106 C 0.16722 0.46382 0.20539 0.0
C107 C 0.18083 0.46122 0.22346 0.0
C108 C 0.19978 0.44225 0.23742 0.0
C109 C 0.21585 0.44094 0.22299 0.0
C110 C 0.20036 0.44373 0.2677 0.0
C111 C 0.18448 0.44589 0.28461 0.0
C112 C 0.16314 0.43066 0.28332 0.0
C113 C 0.14858 0.43248 0.30066 0.0
C114 C 0.15516 0.44964 0.31938 0.0
C115 C 0.1765 0.46496 0.32025 0.0
C116 C 0.191 0.46307 0.30314 0.0
C117 C 0.25066 0.44442 0.28556 0.0
C118 C 0.26119 0.46108 0.30489 0.0
C119 C 0.27722 0.46233 0.32206 0.0
C120 C 0.28303 0.44686 0.32043 0.0
C121 C 0.27257 0.43022 0.30089 0.0
C122 C 0.25648 0.429 0.28362 0.0
C123 C 0.23324 0.44312 0.26816 0.0
C124 C 0.2169 0.44382 0.2826 0.0
C125 C 0.23283 0.44181 0.23785 0.0
C126 C 0.25061 0.44327 0.22084 0.0
C127 C 0.27112 0.4599 0.22529 0.0
C128 C 0.28758 0.46209 0.20796 0.0
C129 C 0.28379 0.44801 0.18537 0.0
C130 C 0.26331 0.43138 0.18087 0.0
C131 C 0.2469 0.42898 0.19854 0.0
H132 H 0.73345 0.18433 0.81471 0.0
H133 H 0.7049 0.1547 0.83978 0.0
H134 H 0.71784 0.11207 0.79222 0.0
H135 H 0.74665 0.14188 0.76736 0.0
H136 H 0.77413 0.20067 0.80981 0.0
H137 H 0.71595 0.17055 0.74708 0.0
H138 H 0.68668 0.14212 0.72144 0.0
H139 H 0.73008 0.1304 0.67361 0.0
H140 H 0.75942 0.15896 0.69954 0.0
H141 H 0.8127 0.22134 0.6959 0.0
H142 H 0.83442 0.25188 0.66567 0.0
H143 H 0.81677 0.28925 0.71736 0.0
H144 H 0.79463 0.25864 0.74697 0.0
H145 H 0.7719 0.20135 0.70347 0.0
H146 H 0.83146 0.23922 0.76916 0.0
H147 H 0.85618 0.26905 0.79843 0.0
H148 H 0.80415 0.26921 0.84125 0.0
H149 H 0.7797 0.23931 0.81242 0.0
C150 C 0.74209 0.16534 0.78898 0.0
C151 C 0.7304 0.16865 0.81002 0.0
C152 C 0.71407 0.15169 0.82432 0.0
C153 C 0.70907 0.13105 0.81786 0.0
C154 C 0.72116 0.12778 0.79736 0.0
C155 C 0.73763 0.14479 0.78321 0.0
C156 C 0.75807 0.18333 0.77202 0.0
C157 C 0.77367 0.20086 0.78655 0.0
C158 C 0.75743 0.18359 0.74171 0.0
C159 C 0.73983 0.16667 0.72545 0.0
C160 C 0.71916 0.16174 0.73125 0.0
C161 C 0.70244 0.14543 0.71668 0.0
C162 C 0.70606 0.13388 0.69572 0.0
C163 C 0.72682 0.13907 0.68959 0.0
C164 C 0.74357 0.15536 0.70433 0.0
C165 C 0.8023 0.23773 0.72407 0.0
C166 C 0.81355 0.23612 0.70078 0.0
C167 C 0.8259 0.25354 0.68348 0.0
C168 C 0.82733 0.27293 0.68926 0.0
C169 C 0.8162 0.27457 0.71269 0.0
C170 C 0.80364 0.2571 0.72973 0.0
C171 C 0.78814 0.21885 0.74124 0.0
C172 C 0.77276 0.20107 0.72669 0.0
C173 C 0.78854 0.21872 0.77163 0.0
C174 C 0.80376 0.23706 0.78864 0.0
C175 C 0.82544 0.24577 0.78481 0.0
C176 C 0.83953 0.26284 0.8015 0.0
C177 C 0.83214 0.27144 0.82233 0.0
C178 C 0.8104 0.26272 0.82586 0.0
C179 C 0.79638 0.24568 0.80929 0.0
H180 H 0.61526 0.84302 0.30587 0.0
H181 H 0.60696 0.86817 0.32851 0.0
H182 H 0.54461 0.83459 0.29271 0.0
H183 H 0.55302 0.80969 0.2702 0.0
H184 H 0.58821 0.79282 0.30819 0.0
H185 H 0.61529 0.85474 0.24424 0.0
H186 H 0.60861 0.8803 0.21991 0.0
H187 H 0.55629 0.82971 0.17546 0.0
H188 H 0.56308 0.80441 0.1997 0.0
H189 H 0.56988 0.75797 0.19521 0.0
H190 H 0.5688 0.72834 0.17027 0.0
H191 H 0.6207 0.73523 0.22144 0.0
H192 H 0.62186 0.76513 0.24625 0.0
H193 H 0.59635 0.7979 0.2022 0.0
H194 H 0.56177 0.7382 0.26102 0.0
H195 H 0.55796 0.70666 0.28387 0.0
H196 H 0.61112 0.74494 0.33808 0.0
H197 H 0.61517 0.7766 0.31461 0.0
C198 C 0.58471 0.82456 0.28651 0.0
C199 C 0.59975 0.841 0.30329 0.0
C200 C 0.59506 0.8554 0.31594 0.0
C201 C 0.57515 0.85332 0.31231 0.0
C202 C 0.55999 0.83647 0.29609 0.0
C203 C 0.56476 0.82226 0.28324 0.0
C204 C 0.59011 0.81059 0.27052 0.0
C205 C 0.59062 0.79423 0.28515 0.0
C206 C 0.59216 0.8119 0.24032 0.0
C207 C 0.58962 0.82768 0.22384 0.0
C208 C 0.60245 0.84922 0.22914 0.0
C209 C 0.59858 0.86378 0.21531 0.0
C210 C 0.58192 0.85704 0.19576 0.0
C211 C 0.56945 0.83547 0.19004 0.0
C212 C 0.5733 0.82097 0.20389 0.0
C213 C 0.59586 0.76371 0.22272 0.0
C214 C 0.58132 0.7534 0.20069 0.0
C215 C 0.58069 0.73642 0.18647 0.0
C216 C 0.59462 0.7294 0.19399 0.0
C217 C 0.60961 0.74013 0.21546 0.0
C218 C 0.61033 0.75724 0.22954 0.0
C219 C 0.59475 0.78014 0.23981 0.0
C220 C 0.59481 0.79687 0.22538 0.0
C221 C 0.59223 0.7786 0.27004 0.0
C222 C 0.58903 0.75972 0.28572 0.0
C223 C 0.57269 0.73982 0.27772 0.0
C224 C 0.57055 0.72182 0.29072 0.0
C225 C 0.58443 0.72336 0.31245 0.0
C226 C 0.60024 0.74333 0.32134 0.0
C227 C 0.60254 0.76138 0.30802 0.0
H228 H 0.75472 0.5654 0.69166 0.0
H229 H 0.7239 0.56157 0.66696 0.0
H230 H 0.72766 0.61314 0.71605 0.0
H231 H 0.75875 0.61697 0.74075 0.0
H232 H 0.79466 0.59549 0.69733 0.0
H233 H 0.73456 0.55765 0.75805 0.0
H234 H 0.70304 0.5537 0.78137 0.0
H235 H 0.74127 0.60881 0.83251 0.0
H236 H 0.77281 0.61285 0.80875 0.0
H237 H 0.83372 0.61222 0.80923 0.0
H238 H 0.86134 0.60774 0.83169 0.0
H239 H 0.84385 0.5533 0.77876 0.0
H240 H 0.81616 0.55763 0.75683 0.0
H241 H 0.78973 0.58595 0.8031 0.0
H242 H 0.85173 0.61844 0.74245 0.0
H243 H 0.88025 0.6161 0.71895 0.0
H244 H 0.83497 0.56487 0.66694 0.0
H245 H 0.8066 0.56714 0.69063 0.0
C246 C 0.75897 0.59138 0.71814 0.0
C247 C 0.74918 0.57616 0.69673 0.0
C248 C 0.73154 0.57399 0.68263 0.0
C249 C 0.72333 0.58705 0.68959 0.0
C250 C 0.7335 0.60271 0.71047 0.0
C251 C 0.75128 0.60496 0.72449 0.0
C252 C 0.7762 0.59182 0.73507 0.0
C253 C 0.79362 0.5935 0.72045 0.0
C254 C 0.77484 0.58922 0.76526 0.0
C255 C 0.75599 0.58575 0.78136 0.0
C256 C 0.73615 0.5689 0.77427 0.0
C257 C 0.71816 0.5667 0.78751 0.0
C258 C 0.71968 0.58109 0.80851 0.0
C259 C 0.73963 0.59746 0.81643 0.0
C260 C 0.75764 0.59977 0.80294 0.0
C261 C 0.82314 0.58545 0.7811 0.0
C262 C 0.83567 0.59917 0.80282 0.0
C263 C 0.85145 0.59663 0.81553 0.0
C264 C 0.85492 0.58037 0.8066 0.0
C265 C 0.8418 0.56622 0.78561 0.0
C266 C 0.82594 0.56862 0.77319 0.0
C267 C 0.80803 0.58936 0.76525 0.0
C268 C 0.79102 0.5885 0.78009 0.0
C269 C 0.80954 0.59226 0.73513 0.0
C270 C 0.82702 0.59284 0.71846 0.0
C271 C 0.84798 0.60682 0.72582 0.0
C272 C 0.86425 0.60541 0.71249 0.0
C273 C 0.85984 0.59022 0.69122 0.0
C274 C 0.83889 0.57687 0.68304 0.0
C275 C 0.82265 0.57818 0.69653 0.0
H276 H 0.2202 0.81978 0.19997 0.0
H277 H 0.24994 0.84159 0.16834 0.0
H278 H 0.28392 0.81308 0.20343 0.0
H279 H 0.25424 0.79145 0.23514 0.0
H280 H 0.19829 0.77439 0.2002 0.0
H281 H 0.23743 0.8328 0.26615 0.0
H282 H 0.26765 0.85758 0.29458 0.0
H283 H 0.26994 0.80575 0.33431 0.0
H284 H 0.23956 0.78117 0.30625 0.0
H285 H 0.18354 0.73465 0.31084 0.0
H286 H 0.15422 0.70603 0.33634 0.0
H287 H 0.11111 0.71982 0.292 0.0
H288 H 0.1406 0.74875 0.26681 0.0
H289 H 0.20044 0.77523 0.30662 0.0
H290 H 0.16758 0.71765 0.24399 0.0
H291 H 0.13789 0.68867 0.21971 0.0
H292 H 0.12717 0.73284 0.17246 0.0
H293 H 0.15674 0.76193 0.19743 0.0
C294 C 0.23513 0.80415 0.21998 0.0
C295 C 0.23416 0.81841 0.20101 0.0
C296 C 0.25113 0.83087 0.18306 0.0
C297 C 0.26917 0.82894 0.18342 0.0
C298 C 0.27014 0.81475 0.2026 0.0
C299 C 0.25329 0.80253 0.22083 0.0
C300 C 0.21667 0.78997 0.23759 0.0
C301 C 0.19856 0.77487 0.22348 0.0
C302 C 0.21745 0.78998 0.26789 0.0
C303 C 0.23629 0.80515 0.28405 0.0
C304 C 0.24458 0.82682 0.28083 0.0
C305 C 0.26186 0.84096 0.29708 0.0
C306 C 0.27117 0.83365 0.31686 0.0
C307 C 0.26293 0.81192 0.31972 0.0
C308 C 0.24563 0.79784 0.30357 0.0
C309 C 0.16428 0.74374 0.28671 0.0
C310 C 0.16783 0.73179 0.30698 0.0
C311 C 0.15105 0.71541 0.3215 0.0
C312 C 0.13036 0.71062 0.31602 0.0
C313 C 0.12686 0.72298 0.29635 0.0
C314 C 0.14369 0.73952 0.28202 0.0
C315 C 0.18199 0.75969 0.2693 0.0
C316 C 0.19999 0.77501 0.28335 0.0
C317 C 0.18146 0.75936 0.23892 0.0
C318 C 0.16411 0.74194 0.22293 0.0
C319 C 0.15872 0.72112 0.22864 0.0
C320 C 0.14174 0.70458 0.2148 0.0
C321 C 0.13009 0.70853 0.1945 0.0
C322 C 0.1359 0.72939 0.18807 0.0
C323 C 0.15277 0.74598 0.20224 0.0
H324 H 0.47998 0.26528 0.8039 0.0
H325 H 0.48432 0.29443 0.83363 0.0
H326 H 0.42521 0.28566 0.80257 0.0
H327 H 0.42117 0.25665 0.77239 0.0
H328 H 0.45049 0.22538 0.80708 0.0
H329 H 0.47793 0.2776 0.73439 0.0
H330 H 0.48279 0.30531 0.70098 0.0
H331 H 0.41932 0.26666 0.67086 0.0
H332 H 0.41456 0.23886 0.7043 0.0
H333 H 0.41433 0.17645 0.70328 0.0
H334 H 0.41887 0.15328 0.66981 0.0
H335 H 0.48147 0.17603 0.70216 0.0
H336 H 0.47685 0.19907 0.73554 0.0
H337 H 0.44002 0.22009 0.70174 0.0
H338 H 0.41964 0.16464 0.77191 0.0
H339 H 0.42198 0.1391 0.80295 0.0
H340 H 0.48124 0.18816 0.83572 0.0
H341 H 0.47864 0.21355 0.80502 0.0
C342 C 0.45026 0.2588 0.78593 0.0
C343 C 0.46798 0.26968 0.80343 0.0
C344 C 0.47037 0.28627 0.82056 0.0
C345 C 0.45501 0.29226 0.82073 0.0
C346 C 0.43743 0.28157 0.80276 0.0
C347 C 0.43508 0.26498 0.7855 0.0
C348 C 0.44733 0.24036 0.76932 0.0
C349 C 0.44831 0.22427 0.78399 0.0
C350 C 0.44401 0.23868 0.73937 0.0
C351 C 0.44583 0.25629 0.72195 0.0
C352 C 0.46493 0.27526 0.721 0.0
C353 C 0.46775 0.29097 0.70176 0.0
C354 C 0.45146 0.28802 0.68328 0.0
C355 C 0.43207 0.26933 0.685 0.0
C356 C 0.42935 0.25349 0.70402 0.0
C357 C 0.44518 0.18931 0.72204 0.0
C358 C 0.42887 0.17613 0.70348 0.0
C359 C 0.43147 0.16292 0.68444 0.0
C360 C 0.45057 0.163 0.68332 0.0
C361 C 0.46666 0.17582 0.70244 0.0
C362 C 0.46396 0.18881 0.72169 0.0
C363 C 0.44362 0.2053 0.73942 0.0
C364 C 0.44169 0.22093 0.72491 0.0
C365 C 0.44683 0.20692 0.76941 0.0
C366 C 0.44894 0.191 0.7862 0.0
C367 C 0.43325 0.1698 0.78552 0.0
C368 C 0.43461 0.15523 0.80328 0.0
C369 C 0.4517 0.16164 0.82203 0.0
C370 C 0.46765 0.18279 0.82201 0.0
C371 C 0.46625 0.1973 0.80435 0.0
C372 C 0.05727 0.48926 0.00548 0.0
C373 C 0.04018 0.48912 0.0192 0.0
C374 C 0.07106 0.48517 0.02114 0.0
C375 C 0.09106 0.4888 0.0936 0.0
H376 H 0.10262 0.44474 0.07209 0.0
C377 C 0.1288 0.45845 0.17323 0.0
C378 C 0.14342 0.45314 0.16287 0.0
C379 C 0.11695 0.46292 0.15422 0.0
C380 C 0.09985 0.45733 0.07818 0.0
H381 H 0.02422 0.48465 0.06004 0.0
H382 H 0.04837 0.47794 0.08715 0.0
H383 H 0.08137 0.45321 0.04059 0.0
H384 H 0.15712 0.44822 0.12457 0.0
H385 H 0.13674 0.45646 0.09123 0.0
H386 H 0.10957 0.49324 0.13091 0.0
C387 C 0.05107 0.4811 0.06437 0.0
C388 C 0.08767 0.46213 0.06014 0.0
C389 C 0.03718 0.48483 0.04875 0.0
C390 C 0.14577 0.45208 0.1331 0.0
C391 C 0.13407 0.45677 0.11403 0.0
C392 C 0.1034 0.48421 0.11142 0.0
C393 C 0.06816 0.48131 0.0508 0.0
C394 C 0.08284 0.47762 0.06802 0.0
C395 C 0.11965 0.46245 0.12436 0.0
C396 C 0.10759 0.46811 0.10428 0.0
H397 H 0.05994 0.49248 0.98272 0.0
H398 H 0.08418 0.48542 0.01025 0.0
H399 H 0.08778 0.50102 0.09994 0.0
H400 H 0.12649 0.45911 0.19609 0.0
H401 H 0.10562 0.46669 0.16298 0.0
C402 C 0.54055 0.01076 0.5787 0.0
C403 C 0.54144 0.01361 0.54883 0.0
C404 C 0.55882 0.02137 0.59523 0.0
C405 C 0.61106 0.0689 0.59118 0.0
H406 H 0.62346 0.04638 0.65871 0.0
C407 C 0.68938 0.11556 0.64972 0.0
C408 C 0.68821 0.11704 0.67963 0.0
C409 C 0.67194 0.10097 0.63421 0.0
C410 C 0.62011 0.05287 0.63995 0.0
H411 H 0.56221 0.02845 0.51261 0.0
H412 H 0.59389 0.04632 0.54112 0.0
H413 H 0.59182 0.02408 0.63078 0.0
H414 H 0.66822 0.10365 0.71694 0.0
H415 H 0.63763 0.0783 0.68974 0.0
H416 H 0.63915 0.09762 0.60024 0.0
C417 C 0.57914 0.03658 0.55203 0.0
C418 C 0.602 0.04014 0.62402 0.0
C419 C 0.56097 0.02624 0.53566 0.0
C420 C 0.66949 0.10305 0.69384 0.0
C421 C 0.65205 0.0884 0.67832 0.0
C422 C 0.62912 0.08151 0.60695 0.0
C423 C 0.57823 0.03482 0.58207 0.0
C424 C 0.59734 0.04801 0.59936 0.0
C425 C 0.65297 0.08752 0.64828 0.0
C426 C 0.6339 0.07366 0.63144 0.0
H427 H 0.52568 0.00111 0.58938 0.0
H428 H 0.55758 0.01972 0.61834 0.0
H429 H 0.6077 0.07567 0.57277 0.0
H430 H 0.70353 0.12618 0.63814 0.0
H431 H 0.67319 0.10047 0.6111 0.0
C432 C 0.54016 0.57593 0.05071 0.0
C433 C 0.53738 0.55709 0.06227 0.0
C434 C 0.55003 0.59443 0.06654 0.0
C435 C 0.56038 0.61456 0.13954 0.0
H436 H 0.59928 0.66673 0.10181 0.0
C437 C 0.59357 0.69483 0.19645 0.0
C438 C 0.59288 0.71048 0.18004 0.0
C439 C 0.59021 0.67624 0.18354 0.0
C440 C 0.5884 0.65231 0.11265 0.0
H441 H 0.54287 0.54293 0.09958 0.0
H442 H 0.55998 0.57549 0.12758 0.0
H443 H 0.58696 0.63359 0.07667 0.0
H444 H 0.58895 0.71928 0.13713 0.0
H445 H 0.58276 0.68684 0.11472 0.0
H446 H 0.56119 0.63333 0.17513 0.0
C447 C 0.55452 0.57579 0.10613 0.0
C448 C 0.58139 0.63334 0.09827 0.0
C449 C 0.54479 0.5572 0.09009 0.0
C450 C 0.58939 0.70743 0.15037 0.0
C451 C 0.58608 0.68892 0.13749 0.0
C452 C 0.56733 0.63358 0.15392 0.0
C453 C 0.55726 0.59459 0.09443 0.0
C454 C 0.56689 0.61431 0.11127 0.0
C455 C 0.58619 0.67299 0.15395 0.0
C456 C 0.58099 0.65271 0.14032 0.0
H457 H 0.5347 0.57644 0.02933 0.0
H458 H 0.55161 0.60859 0.0571 0.0
H459 H 0.54909 0.60014 0.15001 0.0
H460 H 0.59605 0.69665 0.21942 0.0
H461 H 0.59055 0.66434 0.19677 0.0
C462 C 0.98048 0.53546 0.59436 0.0
C463 C 0.97356 0.52822 0.56635 0.0
C464 C 0.97185 0.54567 0.60985 0.0
C465 C 0.94286 0.5741 0.60018 0.0
H466 H 0.92058 0.55397 0.6763 0.0
C467 C 0.87691 0.58412 0.64865 0.0
C468 C 0.87685 0.5877 0.67823 0.0
C469 C 0.892 0.58024 0.63664 0.0
C470 C 0.92706 0.56009 0.6553 0.0
H471 H 0.95249 0.52636 0.5325 0.0
H472 H 0.93767 0.54409 0.55932 0.0
H473 H 0.94152 0.54111 0.65246 0.0
H474 H 0.8928 0.59035 0.71841 0.0
H475 H 0.91941 0.58383 0.69731 0.0
H476 H 0.92808 0.59271 0.60262 0.0
C477 C 0.94976 0.54201 0.56933 0.0
C478 C 0.93905 0.55271 0.64166 0.0
C479 C 0.95815 0.53166 0.55405 0.0
C480 C 0.89255 0.58783 0.69548 0.0
C481 C 0.90766 0.58388 0.68345 0.0
C482 C 0.93097 0.58153 0.61382 0.0
C483 C 0.95643 0.54907 0.5974 0.0
C484 C 0.94654 0.55918 0.61363 0.0
C485 C 0.90742 0.57984 0.65393 0.0
C486 C 0.92242 0.57415 0.64119 0.0
H487 H 0.99233 0.53303 0.6044 0.0
H488 H 0.97729 0.55098 0.63147 0.0
H489 H 0.94876 0.57965 0.57877 0.0
H490 H 0.86512 0.5841 0.63478 0.0
H491 H 0.89117 0.57691 0.61389 0.0
C492 C 0.41902 0.92108 0.01807 0.0
C493 C 0.43021 0.9426 0.02447 0.0
C494 C 0.40013 0.90783 0.03219 0.0
C495 C 0.35678 0.90688 0.0724 0.0
H496 H 0.35337 0.85912 0.11229 0.0
C497 C 0.29488 0.86297 0.16028 0.0
C498 C 0.28669 0.8413 0.16331 0.0
C499 C 0.31146 0.87459 0.14135 0.0
C500 C 0.3538 0.87212 0.10089 0.0
H501 H 0.43 0.96727 0.04963 0.0
H502 H 0.39687 0.94424 0.07371 0.0
H503 H 0.38322 0.88033 0.08115 0.0
H504 H 0.28898 0.81466 0.14847 0.0
H505 H 0.31745 0.83473 0.11477 0.0
H506 H 0.32733 0.89869 0.09173 0.0
C507 C 0.40275 0.93759 0.05802 0.0
C508 C 0.37096 0.88429 0.08309 0.0
C509 C 0.42177 0.95074 0.04434 0.0
C510 C 0.29522 0.83141 0.14682 0.0
C511 C 0.31159 0.84296 0.12758 0.0
C512 C 0.33946 0.89455 0.08987 0.0
C513 C 0.39193 0.91597 0.05246 0.0
C514 C 0.37276 0.90196 0.06903 0.0
C515 C 0.32002 0.86474 0.12467 0.0
C516 C 0.33788 0.87719 0.10473 0.0
H517 H 0.4252 0.91438 0.00293 0.0
H518 H 0.39201 0.89121 0.02746 0.0
H519 H 0.35773 0.92034 0.06158 0.0
H520 H 0.2887 0.87099 0.17295 0.0
H521 H 0.31777 0.89137 0.14019 0.0
C522 C 0.47373 0.4326 0.53443 0.0
C523 C 0.49042 0.44133 0.51471 0.0
C524 C 0.46833 0.41382 0.54839 0.0
C525 C 0.49184 0.38425 0.57466 0.0
H526 H 0.4345 0.33972 0.58639 0.0
C527 C 0.4729 0.31206 0.64363 0.0
C528 C 0.4551 0.30401 0.66132 0.0
C529 C 0.47652 0.32716 0.62288 0.0
C530 C 0.45059 0.35211 0.58361 0.0
H531 H 0.51416 0.43697 0.49349 0.0
H532 H 0.50494 0.40418 0.5185 0.0
H533 H 0.44178 0.36878 0.55432 0.0
H534 H 0.42708 0.30532 0.67127 0.0
H535 H 0.4337 0.3323 0.63575 0.0
H536 H 0.50072 0.36834 0.60484 0.0
C537 C 0.49601 0.4119 0.52292 0.0
C538 C 0.45474 0.36865 0.56507 0.0
C539 C 0.50121 0.43057 0.50855 0.0
C540 C 0.44087 0.31123 0.65777 0.0
C541 C 0.44463 0.32658 0.63727 0.0
C542 C 0.48769 0.36788 0.59348 0.0
C543 C 0.4797 0.40352 0.54324 0.0
C544 C 0.47539 0.38497 0.56063 0.0
C545 C 0.46255 0.3348 0.6196 0.0
C546 C 0.46699 0.35168 0.59844 0.0
H547 H 0.46506 0.44049 0.5395 0.0
H548 H 0.4558 0.40781 0.56411 0.0
H549 H 0.50788 0.39681 0.57197 0.0
H550 H 0.48393 0.30647 0.64562 0.0
H551 H 0.49023 0.33275 0.60931 0.0
C552 C 0.51025 0.95445 0.43365 0.0
C553 C 0.52005 0.97631 0.43042 0.0
C554 C 0.51682 0.94284 0.41757 0.0
C555 C 0.56186 0.94558 0.38239 0.0
H556 H 0.52046 0.89421 0.3455 0.0
C557 C 0.58394 0.89039 0.32169 0.0
C558 C 0.57014 0.86876 0.32493 0.0
C559 C 0.57856 0.90487 0.33224 0.0
C560 C 0.53222 0.90839 0.35592 0.0
H561 H 0.54446 0.00318 0.40779 0.0
H562 H 0.55634 0.98271 0.3799 0.0
H563 H 0.50963 0.9173 0.36747 0.0
H564 H 0.5403 0.84531 0.34257 0.0
H565 H 0.5311 0.87043 0.3616 0.0
H566 H 0.58434 0.93628 0.37191 0.0
C567 C 0.54343 0.97469 0.39481 0.0
C568 C 0.52601 0.92167 0.36831 0.0
C569 C 0.53658 0.98634 0.41063 0.0
C570 C 0.55109 0.86189 0.33942 0.0
C571 C 0.54579 0.87631 0.35016 0.0
C572 C 0.56807 0.93215 0.37023 0.0
C573 C 0.53353 0.95282 0.39814 0.0
C574 C 0.54069 0.94018 0.38211 0.0
C575 C 0.55932 0.89798 0.34641 0.0
C576 C 0.55322 0.91317 0.35736 0.0
H577 H 0.49741 0.94624 0.44863 0.0
H578 H 0.50906 0.92603 0.42077 0.0
H579 H 0.57344 0.9597 0.39311 0.0
H580 H 0.59864 0.89609 0.31032 0.0
H581 H 0.58926 0.92141 0.32873 0.0
C582 C 0.57079 0.54442 0.95575 0.0
C583 C 0.55144 0.53951 0.94354 0.0
C584 C 0.58876 0.5522 0.93884 0.0
C585 C 0.60582 0.55041 0.86652 0.0
H586 H 0.65939 0.59534 0.89338 0.0
C587 C 0.68299 0.57476 0.80512 0.0
C588 C 0.70048 0.57902 0.82197 0.0
C589 C 0.66474 0.57242 0.81785 0.0
C590 C 0.64459 0.58266 0.88566 0.0
H591 H 0.53579 0.53922 0.90408 0.0
H592 H 0.56742 0.55254 0.87416 0.0
H593 H 0.62741 0.58721 0.91928 0.0
H594 H 0.71256 0.58411 0.86534 0.0
H595 H 0.68067 0.57965 0.88768 0.0
H596 H 0.623 0.5452 0.83364 0.0
C597 C 0.56854 0.55043 0.89695 0.0
C598 C 0.62628 0.5781 0.90041 0.0
C599 C 0.55052 0.54292 0.91405 0.0
C600 C 0.69942 0.58108 0.85178 0.0
C601 C 0.68114 0.5786 0.86454 0.0
C602 C 0.62418 0.55484 0.85187 0.0
C603 C 0.5878 0.55503 0.90922 0.0
C604 C 0.60676 0.56166 0.89134 0.0
C605 C 0.66354 0.57418 0.84776 0.0
C606 C 0.64384 0.57075 0.86163 0.0
H607 H 0.57204 0.54207 0.97844 0.0
H608 H 0.60332 0.55536 0.94883 0.0
H609 H 0.59101 0.5375 0.85923 0.0
H610 H 0.68347 0.57341 0.78201 0.0
H611 H 0.65162 0.56934 0.80422 0.0
C612 C 0.02326 0.56009 0.46049 0.0
C613 C 0.00615 0.54182 0.44929 0.0
C614 C 0.03301 0.57849 0.44446 0.0
C615 C 0.04314 0.59836 0.37116 0.0
H616 H 0.062 0.65164 0.40939 0.0
C617 C 0.09498 0.67805 0.31433 0.0
C618 C 0.11256 0.69239 0.33023 0.0
C619 C 0.07891 0.66006 0.32741 0.0
C620 C 0.05687 0.6369 0.39841 0.0
H621 H 0.98582 0.52862 0.41236 0.0
H622 H 0.00317 0.56103 0.384 0.0
H623 H 0.03907 0.61907 0.43469 0.0
H624 H 0.12678 0.69954 0.37242 0.0
H625 H 0.0989 0.66816 0.39518 0.0
H626 H 0.06152 0.61624 0.33518 0.0
C627 C 0.00891 0.56094 0.40533 0.0
C628 C 0.04372 0.61825 0.41287 0.0
C629 C 0.99897 0.54244 0.42158 0.0
C630 C 0.11349 0.68868 0.35959 0.0
C631 C 0.09741 0.67081 0.37267 0.0
C632 C 0.05634 0.61706 0.35666 0.0
C633 C 0.026 0.57916 0.41671 0.0
C634 C 0.03722 0.59878 0.39972 0.0
C635 C 0.08004 0.65617 0.35668 0.0
C636 C 0.06381 0.63651 0.37045 0.0
H637 H 0.02922 0.56023 0.48176 0.0
H638 H 0.04636 0.59214 0.45364 0.0
H639 H 0.03849 0.58359 0.36055 0.0
H640 H 0.09393 0.68042 0.2916 0.0
H641 H 0.06567 0.64913 0.31458 0.0
C642 C 0.46755 0.02741 0.95268 0.0
C643 C 0.47751 0.03271 0.97956 0.0
C644 C 0.46293 0.04121 0.93834 0.0
C645 C 0.47943 0.09712 0.93343 0.0
H646 H 0.4287 0.07649 0.88831 0.0
C647 C 0.45989 0.15251 0.87032 0.0
C648 C 0.45279 0.14652 0.84202 0.0
C649 C 0.46149 0.13858 0.889 0.0
C650 C 0.44299 0.08246 0.90067 0.0
H651 H 0.49 0.05651 0.01276 0.0
H652 H 0.48173 0.08063 0.98772 0.0
H653 H 0.43367 0.05227 0.91843 0.0
H654 H 0.44165 0.12108 0.81127 0.0
H655 H 0.44437 0.09669 0.84395 0.0
H656 H 0.48883 0.12727 0.91544 0.0
C657 C 0.47774 0.06584 0.97764 0.0
C658 C 0.44584 0.0686 0.91794 0.0
C659 C 0.48237 0.05199 0.99205 0.0
C660 C 0.44696 0.12611 0.83301 0.0
C661 C 0.44851 0.11214 0.85174 0.0
C662 C 0.47654 0.11099 0.91623 0.0
C663 C 0.46811 0.06066 0.9505 0.0
C664 C 0.46424 0.07571 0.93419 0.0
C665 C 0.45594 0.11828 0.87987 0.0
C666 C 0.45842 0.10375 0.89936 0.0
H667 H 0.46359 0.01271 0.94237 0.0
H668 H 0.45582 0.03684 0.9173 0.0
H669 H 0.49391 0.10306 0.94535 0.0
H670 H 0.46409 0.16797 0.87815 0.0
H671 H 0.46695 0.14366 0.91068 0.0
C672 C 0.44222 0.4761 0.44207 0.0
C673 C 0.44611 0.48604 0.46895 0.0
C674 C 0.42368 0.47041 0.42738 0.0
C675 C 0.36961 0.4597 0.43568 0.0
H676 H 0.37497 0.4732 0.35455 0.0
C677 C 0.30192 0.4551 0.36755 0.0
C678 C 0.30014 0.44841 0.3389 0.0
C679 C 0.31886 0.45811 0.38436 0.0
C680 C 0.37313 0.469 0.37707 0.0
H681 H 0.43329 0.49729 0.50182 0.0
H682 H 0.40074 0.48734 0.47591 0.0
H683 H 0.4061 0.48176 0.38245 0.0
H684 H 0.31444 0.439 0.30574 0.0
H685 H 0.34376 0.44375 0.33532 0.0
H686 H 0.33657 0.44692 0.43022 0.0
C687 C 0.41211 0.48392 0.46638 0.0
C688 C 0.39099 0.47399 0.39308 0.0
C689 C 0.43077 0.4897 0.48113 0.0
C690 C 0.3153 0.44408 0.32776 0.0
C691 C 0.33223 0.44705 0.34461 0.0
C692 C 0.35168 0.45464 0.4196 0.0
C693 C 0.40854 0.47448 0.43917 0.0
C694 C 0.38943 0.46936 0.42253 0.0
C695 C 0.33439 0.45444 0.37295 0.0
C696 C 0.35325 0.45922 0.39008 0.0
H697 H 0.45359 0.47287 0.4321 0.0
H698 H 0.42122 0.46282 0.4067 0.0
H699 H 0.36792 0.45577 0.45828 0.0
H700 H 0.29031 0.45824 0.37693 0.0
H701 H 0.3201 0.46394 0.40603 0.0
C702 C 0.95669 0.43584 0.93832 0.0
C703 C 0.95132 0.4396 0.96576 0.0
C704 C 0.94432 0.41666 0.92465 0.0
C705 C 0.89089 0.37075 0.92462 0.0
H706 H 0.91656 0.34649 0.87704 0.0
C707 C 0.84248 0.29039 0.86952 0.0
C708 C 0.84692 0.28948 0.84035 0.0
C709 C 0.8557 0.3078 0.88618 0.0
C710 C 0.90918 0.35315 0.89012 0.0
H711 H 0.9289 0.42599 0.00057 0.0
H712 H 0.90742 0.39228 0.97684 0.0
H713 H 0.9387 0.37831 0.90434 0.0
H714 H 0.86899 0.30608 0.806 0.0
H715 H 0.89223 0.3364 0.83526 0.0
H716 H 0.86138 0.34555 0.91037 0.0
C717 C 0.92105 0.40434 0.96571 0.0
C718 C 0.92184 0.37139 0.90574 0.0
C719 C 0.93341 0.42362 0.97938 0.0
C720 C 0.86522 0.30616 0.82846 0.0
C721 C 0.87853 0.32355 0.8452 0.0
C722 C 0.87824 0.35244 0.90915 0.0
C723 C 0.92631 0.40068 0.9381 0.0
C724 C 0.91285 0.38056 0.92293 0.0
C725 C 0.87377 0.32465 0.87415 0.0
C726 C 0.88725 0.34357 0.89151 0.0
H727 H 0.97033 0.44783 0.92712 0.0
H728 H 0.94866 0.41456 0.90321 0.0
H729 H 0.88343 0.37754 0.93726 0.0
H730 H 0.82875 0.27762 0.87953 0.0
H731 H 0.85182 0.30806 0.90855 0.0
C732 C 0.98185 0.53392 0.90277 0.0
C733 C 0.97683 0.5291 0.93191 0.0
C734 C 0.97209 0.54269 0.88668 0.0
C735 C 0.94389 0.57191 0.89372 0.0
H736 H 0.91428 0.54271 0.82482 0.0
C737 C 0.87536 0.5792 0.8487 0.0
C738 C 0.87219 0.57812 0.81893 0.0
C739 C 0.891 0.57604 0.86038 0.0
C740 C 0.92279 0.55136 0.84366 0.0
H741 H 0.95824 0.53031 0.96727 0.0
H742 H 0.94156 0.54576 0.93941 0.0
H743 H 0.93734 0.53262 0.84866 0.0
H744 H 0.88342 0.5738 0.77791 0.0
H745 H 0.91099 0.5686 0.79824 0.0
H746 H 0.92927 0.59052 0.88905 0.0
C747 C 0.95292 0.54273 0.92894 0.0
C748 C 0.93598 0.54554 0.8573 0.0
C749 C 0.96235 0.53371 0.94481 0.0
C750 C 0.88532 0.57437 0.801 0.0
C751 C 0.90108 0.57138 0.81265 0.0
C752 C 0.93088 0.57787 0.87996 0.0
C753 C 0.95753 0.54714 0.89969 0.0
C754 C 0.9462 0.55539 0.88287 0.0
C755 C 0.90396 0.57192 0.84252 0.0
C756 C 0.9197 0.56728 0.8552 0.0
H757 H 0.99295 0.53052 0.8923 0.0
H758 H 0.97591 0.54598 0.86413 0.0
H759 H 0.95183 0.57993 0.91323 0.0
H760 H 0.86533 0.58187 0.86302 0.0
H761 H 0.89249 0.5762 0.8835 0.0
C762 C 0.41993 0.93872 0.47702 0.0
C763 C 0.43571 0.95732 0.46446 0.0
C764 C 0.40133 0.92584 0.46215 0.0
C765 C 0.38103 0.91319 0.38856 0.0
H766 H 0.32625 0.88735 0.4246 0.0
C767 C 0.30538 0.86728 0.32269 0.0
C768 C 0.28932 0.84855 0.33457 0.0
C769 C 0.3227 0.88098 0.33919 0.0
C770 C 0.34145 0.89427 0.4143 0.0
H771 H 0.44401 0.97729 0.4268 0.0
H772 H 0.4117 0.95493 0.40111 0.0
H773 H 0.3574 0.91031 0.45271 0.0
H774 H 0.27863 0.82988 0.37344 0.0
H775 H 0.3091 0.85344 0.40192 0.0
H776 H 0.36529 0.89703 0.35032 0.0
C777 C 0.41378 0.95014 0.42224 0.0
C778 C 0.35928 0.90743 0.43041 0.0
C779 C 0.43226 0.96301 0.43709 0.0
C780 C 0.29087 0.84401 0.36347 0.0
C781 C 0.30821 0.85767 0.37994 0.0
C782 C 0.36327 0.89999 0.37252 0.0
C783 C 0.39824 0.93127 0.4344 0.0
C784 C 0.37924 0.9171 0.41765 0.0
C785 C 0.32441 0.87626 0.36795 0.0
C786 C 0.34325 0.89042 0.38514 0.0
H787 H 0.42209 0.9339 0.49808 0.0
H788 H 0.38965 0.91132 0.472 0.0
H789 H 0.39624 0.92012 0.37826 0.0
H790 H 0.30478 0.8712 0.30045 0.0
H791 H 0.33475 0.89531 0.32938 0.0
C792 C 0.49598 0.43689 0.98801 0.0
C793 C 0.49068 0.4515 0.97741 0.0
C794 C 0.4908 0.41864 0.97246 0.0
C795 C 0.47981 0.39858 0.89857 0.0
H796 H 0.45739 0.34381 0.93371 0.0
C797 C 0.45199 0.32425 0.8302 0.0
C798 C 0.45735 0.30947 0.83982 0.0
C799 C 0.45494 0.34083 0.84789 0.0
C800 C 0.46384 0.35904 0.92362 0.0
H801 H 0.47509 0.45797 0.9427 0.0
H802 H 0.46609 0.42632 0.91591 0.0
H803 H 0.46489 0.37411 0.96348 0.0
H804 H 0.46931 0.30015 0.87603 0.0
H805 H 0.47502 0.32938 0.90649 0.0
H806 H 0.47911 0.38376 0.85884 0.0
C807 C 0.47451 0.42906 0.93594 0.0
C808 C 0.46812 0.37637 0.94068 0.0
C809 C 0.47959 0.44717 0.95143 0.0
C810 C 0.46534 0.31145 0.86775 0.0
C811 C 0.46835 0.32806 0.88539 0.0
C812 C 0.47564 0.38133 0.88157 0.0
C813 C 0.48033 0.41476 0.946 0.0
C814 C 0.47605 0.3963 0.92828 0.0
C815 C 0.46337 0.34307 0.87559 0.0
C816 C 0.46753 0.36132 0.89384 0.0
H817 H 0.5045 0.43975 0.00795 0.0
H818 H 0.49555 0.40792 0.98068 0.0
H819 H 0.48628 0.41381 0.88846 0.0
H820 H 0.44591 0.32327 0.80877 0.0
H821 H 0.45064 0.35194 0.83981 0.0
C822 C 0.02497 0.4685 0.45745 0.0
C823 C 0.03128 0.47921 0.48377 0.0
C824 C 0.03812 0.46331 0.4424 0.0
C825 C 0.09381 0.47963 0.43393 0.0
H826 H 0.07151 0.42882 0.38849 0.0
C827 C 0.14118 0.47096 0.34223 0.0
C828 C 0.14005 0.4515 0.33853 0.0
C829 C 0.12787 0.47312 0.36154 0.0
C830 C 0.07806 0.44298 0.40129 0.0
H831 H 0.05615 0.49225 0.51538 0.0
H832 H 0.07913 0.48293 0.48917 0.0
H833 H 0.04848 0.43384 0.42105 0.0
H834 H 0.12399 0.41899 0.35204 0.0
H835 H 0.10075 0.42275 0.38593 0.0
H836 H 0.12344 0.48867 0.41441 0.0
C837 C 0.06406 0.47884 0.48002 0.0
C838 C 0.06481 0.44596 0.41974 0.0
C839 C 0.05085 0.48406 0.49512 0.0
C840 C 0.12506 0.43413 0.3542 0.0
C841 C 0.11177 0.43631 0.37364 0.0
C842 C 0.10708 0.47662 0.41554 0.0
C843 C 0.05793 0.46863 0.45329 0.0
C844 C 0.07244 0.46449 0.43592 0.0
C845 C 0.11315 0.45589 0.37772 0.0
C846 C 0.09929 0.45842 0.39862 0.0
H847 H 0.01 0.4645 0.44801 0.0
H848 H 0.03299 0.45575 0.42172 0.0
H849 H 0.1002 0.49416 0.44587 0.0
H850 H 0.15236 0.48456 0.33013 0.0
H851 H 0.12903 0.48831 0.36361 0.0
C852 C 0.55706 0.02191 0.95995 0.0
C853 C 0.53893 0.00529 0.9477 0.0
C854 C 0.5758 0.0319 0.94458 0.0
C855 C 0.59661 0.04359 0.87163 0.0
H856 H 0.64951 0.06182 0.91038 0.0
C857 C 0.67643 0.09573 0.81567 0.0
C858 C 0.69086 0.11309 0.83189 0.0
C859 C 0.65842 0.07957 0.82856 0.0
C860 C 0.63487 0.05688 0.89927 0.0
H861 H 0.52633 0.98596 0.90973 0.0
H862 H 0.55928 0.00365 0.88263 0.0
H863 H 0.6167 0.03863 0.93506 0.0
H864 H 0.69815 0.12672 0.87446 0.0
H865 H 0.66668 0.09873 0.89687 0.0
H866 H 0.61479 0.06238 0.83615 0.0
C867 C 0.55885 0.00888 0.90421 0.0
C868 C 0.61609 0.04359 0.91339 0.0
C869 C 0.54004 0.99872 0.91974 0.0
C870 C 0.68722 0.11364 0.86137 0.0
C871 C 0.6693 0.09748 0.87426 0.0
C872 C 0.61543 0.05693 0.85749 0.0
C873 C 0.57692 0.02561 0.9165 0.0
C874 C 0.59675 0.03725 0.90001 0.0
C875 C 0.65455 0.08038 0.85795 0.0
C876 C 0.63475 0.06415 0.87145 0.0
H877 H 0.55681 0.02738 0.98145 0.0
H878 H 0.58932 0.04495 0.9545 0.0
H879 H 0.58195 0.03911 0.86085 0.0
H880 H 0.67874 0.09496 0.79284 0.0
H881 H 0.64742 0.06654 0.81547 0.0
C882 C 0.5407 0.55089 0.41008 0.0
C883 C 0.53524 0.55013 0.43914 0.0
C884 C 0.54896 0.56972 0.39474 0.0
C885 C 0.57543 0.62704 0.40375 0.0
H886 H 0.54791 0.62665 0.33279 0.0
C887 C 0.58251 0.70226 0.35565 0.0
C888 C 0.58225 0.70411 0.32572 0.0
C889 C 0.57926 0.68362 0.36813 0.0
C890 C 0.55609 0.62706 0.35226 0.0
H891 H 0.53478 0.5686 0.47514 0.0
H892 H 0.54934 0.60134 0.44853 0.0
H893 H 0.53832 0.59364 0.35671 0.0
H894 H 0.57931 0.68832 0.28528 0.0
H895 H 0.57406 0.65593 0.30699 0.0
H896 H 0.59315 0.66039 0.3995 0.0
C897 C 0.54722 0.58744 0.43756 0.0
C898 C 0.55055 0.60811 0.36596 0.0
C899 C 0.53873 0.56864 0.45273 0.0
C900 C 0.57926 0.68718 0.30846 0.0
C901 C 0.57621 0.66862 0.32092 0.0
C902 C 0.58112 0.64597 0.38993 0.0
C903 C 0.55222 0.58815 0.40836 0.0
C904 C 0.55986 0.60796 0.39214 0.0
C905 C 0.57589 0.66649 0.35093 0.0
C906 C 0.57122 0.64626 0.36431 0.0
H907 H 0.53817 0.53686 0.39905 0.0
H908 H 0.55276 0.56989 0.37224 0.0
H909 H 0.58304 0.62733 0.42375 0.0
H910 H 0.58458 0.71499 0.36945 0.0
H911 H 0.57876 0.68246 0.39131 0.0
C912 C 0.49704 0.06828 0.50655 0.0
C913 C 0.485 0.04662 0.51168 0.0
C914 C 0.49279 0.08225 0.52149 0.0
C915 C 0.45225 0.08602 0.563 0.0
H916 H 0.49873 0.12996 0.60532 0.0
C917 C 0.43928 0.12937 0.65684 0.0
C918 C 0.45413 0.15055 0.66137 0.0
C919 C 0.44281 0.11771 0.63616 0.0
C920 C 0.48561 0.11807 0.59327 0.0
H921 H 0.45849 0.02252 0.53532 0.0
H922 H 0.45088 0.04681 0.56086 0.0
H923 H 0.50506 0.10836 0.57178 0.0
H924 H 0.48394 0.17638 0.64727 0.0
H925 H 0.48991 0.15629 0.6107 0.0
H926 H 0.43275 0.09568 0.58427 0.0
C927 C 0.46365 0.05303 0.54552 0.0
C928 C 0.48927 0.10568 0.57406 0.0
C929 C 0.46811 0.03914 0.53102 0.0
C930 C 0.4724 0.15996 0.64454 0.0
C931 C 0.47582 0.1484 0.62363 0.0
C932 C 0.4486 0.09858 0.58193 0.0
C933 C 0.47618 0.07473 0.54134 0.0
C934 C 0.47258 0.08932 0.55911 0.0
C935 C 0.46115 0.12707 0.61928 0.0
C936 C 0.46518 0.11454 0.59771 0.0
H937 H 0.51019 0.07447 0.49183 0.0
H938 H 0.50262 0.09893 0.51782 0.0
H939 H 0.43913 0.0736 0.55153 0.0
H940 H 0.42511 0.12172 0.66966 0.0
H941 H 0.43133 0.10125 0.63385 0.0
C942 C 0.44495 0.48974 0.06041 0.0
C943 C 0.44724 0.49597 0.03153 0.0
C944 C 0.42611 0.4832 0.07488 0.0
C945 C 0.37686 0.48511 0.0723 0.0
H946 H 0.35965 0.44157 0.12997 0.0
C947 C 0.29878 0.45124 0.13609 0.0
C948 C 0.30109 0.45116 0.16601 0.0
C949 C 0.31551 0.45534 0.11786 0.0
C950 C 0.36429 0.45377 0.11396 0.0
H951 H 0.43146 0.50018 0.99512 0.0
H952 H 0.39819 0.48819 0.02027 0.0
H953 H 0.39056 0.451 0.10073 0.0
H954 H 0.32241 0.45475 0.20033 0.0
H955 H 0.35157 0.46157 0.16845 0.0
H956 H 0.35028 0.48758 0.08555 0.0
C957 C 0.41117 0.48874 0.03187 0.0
C958 C 0.38206 0.45927 0.09727 0.0
C959 C 0.4302 0.49554 0.01741 0.0
C960 C 0.32027 0.45481 0.17735 0.0
C961 C 0.33687 0.45858 0.15913 0.0
C962 C 0.3589 0.47939 0.08879 0.0
C963 C 0.40888 0.48242 0.0608 0.0
C964 C 0.38886 0.47534 0.07664 0.0
C965 C 0.33472 0.45907 0.12923 0.0
C966 C 0.35269 0.46395 0.11014 0.0
H967 H 0.45783 0.49011 0.07206 0.0
H968 H 0.42519 0.479 0.09731 0.0
H969 H 0.3817 0.49768 0.05686 0.0
H970 H 0.28419 0.44862 0.12683 0.0
H971 H 0.31343 0.45554 0.09489 0.0
C972 C 0.94424 0.43628 0.56621 0.0
C973 C 0.94167 0.43799 0.53664 0.0
C974 C 0.93062 0.41805 0.58111 0.0
C975 C 0.89593 0.36196 0.57345 0.0
H976 H 0.87243 0.36707 0.64549 0.0
C977 C 0.83834 0.28948 0.6406 0.0
C978 C 0.84004 0.29134 0.67061 0.0
C979 C 0.8498 0.30701 0.62308 0.0
C980 C 0.87906 0.36534 0.62563 0.0
H981 H 0.92289 0.42179 0.49943 0.0
H982 H 0.89918 0.38952 0.52562 0.0
H983 H 0.89397 0.39822 0.61679 0.0
H984 H 0.85549 0.3128 0.70581 0.0
H985 H 0.87595 0.34326 0.67536 0.0
H986 H 0.88168 0.32919 0.58268 0.0
C987 C 0.91174 0.40248 0.53713 0.0
C988 C 0.89128 0.38319 0.60911 0.0
C989 C 0.92523 0.42094 0.52222 0.0
C990 C 0.85367 0.31099 0.68274 0.0
C991 C 0.8653 0.32845 0.66525 0.0
C992 C 0.88388 0.34408 0.59017 0.0
C993 C 0.91425 0.40097 0.56677 0.0
C994 C 0.90002 0.38172 0.58303 0.0
C995 C 0.86338 0.32677 0.63517 0.0
C996 C 0.87549 0.34557 0.61666 0.0
H997 H 0.9567 0.44913 0.57801 0.0
H998 H 0.93305 0.41722 0.60388 0.0
H999 H 0.90264 0.36045 0.55352 0.0
H1000 H 0.82777 0.27455 0.6307 0.0
H1001 H 0.84768 0.30514 0.60007 0.0
C1002 C 0.52485 0.97462 0.09212 0.0
C1003 C 0.51723 0.96767 0.06425 0.0
C1004 C 0.53251 0.96402 0.10867 0.0
C1005 C 0.52898 0.91229 0.11376 0.0
H1006 H 0.5804 0.94118 0.15773 0.0
C1007 C 0.57085 0.86957 0.15291 0.0
C1008 C 0.57704 0.8722 0.18181 0.0
C1009 C 0.56435 0.88253 0.14036 0.0
C1010 C 0.56591 0.93294 0.14576 0.0
H1011 H 0.51233 0.94456 0.03165 0.0
H1012 H 0.52579 0.92649 0.06011 0.0
H1013 H 0.56707 0.96147 0.1329 0.0
H1014 H 0.58195 0.89104 0.21992 0.0
H1015 H 0.5708 0.91395 0.19769 0.0
H1016 H 0.52794 0.88385 0.12601 0.0
C1017 C 0.52545 0.93975 0.06954 0.0
C1018 C 0.55826 0.94453 0.13163 0.0
C1019 C 0.51782 0.95023 0.05314 0.0
C1020 C 0.57743 0.88871 0.19754 0.0
C1021 C 0.57101 0.90179 0.18487 0.0
C1022 C 0.53665 0.90079 0.12766 0.0
C1023 C 0.53263 0.9463 0.09762 0.0
C1024 C 0.53993 0.9343 0.11498 0.0
C1025 C 0.56397 0.8985 0.15634 0.0
C1026 C 0.55539 0.91098 0.14333 0.0
H1027 H 0.52465 0.98804 0.10125 0.0
H1028 H 0.53791 0.9694 0.13028 0.0
H1029 H 0.51453 0.9039 0.10173 0.0
H1030 H 0.57081 0.85731 0.14002 0.0
H1031 H 0.55943 0.87992 0.11812 0.0
C1032 C 0.56881 0.52986 0.54466 0.0
C1033 C 0.55034 0.52823 0.55588 0.0
C1034 C 0.58666 0.53719 0.56154 0.0
C1035 C 0.61335 0.5673 0.626 0.0
H1036 H 0.64378 0.53724 0.61769 0.0
C1037 C 0.68761 0.58355 0.6919 0.0
C1038 C 0.70377 0.58361 0.67567 0.0
C1039 C 0.66831 0.57795 0.67918 0.0
C1040 C 0.63552 0.54587 0.62012 0.0
H1041 H 0.53634 0.53364 0.59352 0.0
H1042 H 0.56783 0.5464 0.62339 0.0
H1043 H 0.61064 0.52469 0.59289 0.0
H1044 H 0.71286 0.57925 0.63308 0.0
H1045 H 0.67923 0.56934 0.61104 0.0
H1046 H 0.63853 0.58851 0.65338 0.0
C1047 C 0.56834 0.54201 0.60135 0.0
C1048 C 0.61655 0.53869 0.60592 0.0
C1049 C 0.55033 0.53466 0.58431 0.0
C1050 C 0.70057 0.57891 0.64627 0.0
C1051 C 0.68133 0.57325 0.63366 0.0
C1052 C 0.63241 0.57446 0.64042 0.0
C1053 C 0.58657 0.543 0.5902 0.0
C1054 C 0.6055 0.54961 0.60807 0.0
C1055 C 0.66485 0.57222 0.65011 0.0
C1056 C 0.6439 0.56407 0.63699 0.0
H1057 H 0.56953 0.52534 0.52275 0.0
H1058 H 0.6006 0.53826 0.55206 0.0
H1059 H 0.60518 0.57604 0.62801 0.0
H1060 H 0.68957 0.58695 0.71467 0.0
H1061 H 0.65583 0.57723 0.69234 0.0
C1062 C 0.02284 0.56463 0.03903 0.0
C1063 C 0.00785 0.54516 0.05047 0.0
C1064 C 0.03208 0.58248 0.05625 0.0
C1065 C 0.04683 0.59839 0.13001 0.0
H1066 H 0.05771 0.65266 0.10275 0.0
C1067 C 0.09746 0.67335 0.19544 0.0
C1068 C 0.11224 0.69082 0.17974 0.0
C1069 C 0.0815 0.65595 0.18136 0.0
C1070 C 0.05492 0.63765 0.11061 0.0
H1071 H 0.99044 0.52921 0.08878 0.0
H1072 H 0.00698 0.56055 0.11917 0.0
H1073 H 0.03529 0.62124 0.07484 0.0
H1074 H 0.12171 0.70402 0.13717 0.0
H1075 H 0.09419 0.67351 0.11246 0.0
H1076 H 0.06719 0.61473 0.16502 0.0
C1077 C 0.01144 0.56189 0.09678 0.0
C1078 C 0.042 0.61967 0.0947 0.0
C1079 C 0.00194 0.54401 0.07939 0.0
C1080 C 0.1104 0.69083 0.14979 0.0
C1081 C 0.09456 0.67335 0.13567 0.0
C1082 C 0.05991 0.61639 0.1458 0.0
C1083 C 0.02672 0.58125 0.08538 0.0
C1084 C 0.03816 0.59992 0.10397 0.0
C1085 C 0.08008 0.65556 0.15126 0.0
C1086 C 0.06445 0.63629 0.13601 0.0
H1087 H 0.02764 0.56605 0.01678 0.0
H1088 H 0.04398 0.59714 0.04697 0.0
H1089 H 0.04434 0.58339 0.13748 0.0
H1090 H 0.09836 0.6731 0.21862 0.0
H1091 H 0.07039 0.64271 0.19408 0.0
loop_
_geom_bond_atom_site_label_1
_geom_bond_atom_site_label_2
_geom_bond_distance
_geom_bond_site_symmetry_2
_ccdc_geom_bond_type
C0 O2 1.247 . S
C0 O4 1.258 . S
C1 O8 1.247 . S
C1 O9 1.258 . S
O2 C0 1.247 . S
O2 Zn3 2.028 1_455 S
Zn3 O2 2.028 1_655 S
Zn3 O7 2.035 1_554 S
Zn3 O9 2.035 1_554 S
Zn3 O10 2.028 1_655 S
O4 C0 1.258 . S
O4 Zn5 2.035 1_554 S
Zn5 O4 2.035 1_556 S
Zn5 O6 2.028 1_455 S
Zn5 O8 2.028 1_455 S
Zn5 O11 2.035 1_556 S
O6 Zn5 2.028 1_655 S
O6 C12 1.247 . S
O7 Zn3 2.035 1_556 S
O7 C12 1.258 . S
O8 C1 1.247 . S
O8 Zn5 2.028 1_655 S
O9 C1 1.258 . S
O9 Zn3 2.035 1_556 S
O10 Zn3 2.028 1_455 S
O10 C13 1.247 . S
O11 Zn5 2.035 1_554 S
O11 C13 1.258 . S
C12 O6 1.247 . S
C12 O7 1.258 . S
C13 O10 1.247 . S
C13 O11 1.258 . S
C14 O16 1.247 . S
C14 O18 1.258 . S
C15 O22 1.247 . S
C15 O23 1.258 . S
O16 C14 1.247 . S
O16 Zn17 2.028 1_545 S
Zn17 O16 2.028 1_565 S
Zn17 O21 2.035 . S
Zn17 O23 2.035 . S
Zn17 O24 2.028 1_565 S
O18 C14 1.258 . S
O18 Zn19 2.035 . S
Zn19 O18 2.035 . S
Zn19 O20 2.028 1_545 S
Zn19 O22 2.028 1_545 S
Zn19 O25 2.035 . S
O20 Zn19 2.028 1_565 S
O20 C26 1.247 . S
O21 Zn17 2.035 . S
O21 C26 1.258 . S
O22 C15 1.247 . S
O22 Zn19 2.028 1_565 S
O23 C15 1.258 . S
O23 Zn17 2.035 . S
O24 Zn17 2.028 1_545 S
O24 C27 1.247 . S
O25 Zn19 2.035 . S
O25 C27 1.258 . S
C26 O20 1.247 . S
C26 O21 1.258 . S
C27 O24 1.247 . S
C27 O25 1.258 . S
C28 O30 1.247 . S
C28 O32 1.258 . S
C29 O36 1.247 . S
C29 O37 1.258 . S
O30 C28 1.247 . S
O30 Zn31 2.028 . S
Zn31 O30 2.028 . S
Zn31 O35 2.035 1_556 S
Zn31 O37 2.035 1_556 S
Zn31 O38 2.028 . S
O32 C28 1.258 . S
O32 Zn33 2.035 1_556 S
Zn33 O32 2.035 1_554 S
Zn33 O34 2.028 . S
Zn33 O36 2.028 . S
Zn33 O39 2.035 1_554 S
O34 Zn33 2.028 . S
O34 C40 1.247 . S
O35 Zn31 2.035 1_554 S
O35 C40 1.258 . S
O36 C29 1.247 . S
O36 Zn33 2.028 . S
O37 C29 1.258 . S
O37 Zn31 2.035 1_554 S
O38 Zn31 2.028 . S
O38 C41 1.247 . S
O39 Zn33 2.035 1_556 S
O39 C41 1.258 . S
C40 O34 1.247 . S
C40 O35 1.258 . S
C41 O38 1.247 . S
C41 O39 1.258 . S
C42 O44 1.247 . S
C42 O46 1.258 . S
C43 O50 1.247 . S
C43 O51 1.258 . S
O44 C42 1.247 . S
O44 Zn45 2.028 . S
Zn45 O44 2.028 . S
Zn45 O49 2.035 1_455 S
Zn45 O51 2.035 1_455 S
Zn45 O52 2.028 . S
O46 C42 1.258 . S
O46 Zn47 2.035 1_455 S
Zn47 O46 2.035 1_655 S
Zn47 O48 2.028 . S
Zn47 O50 2.028 . S
Zn47 O53 2.035 1_655 S
O48 Zn47 2.028 . S
O48 C54 1.247 . S
O49 Zn45 2.035 1_655 S
O49 C54 1.258 . S
O50 C43 1.247 . S
O50 Zn47 2.028 . S
O51 C43 1.258 . S
O51 Zn45 2.035 1_655 S
O52 Zn45 2.028 . S
O52 C55 1.247 . S
O53 Zn47 2.035 1_455 S
O53 C55 1.258 . S
C54 O48 1.247 . S
C54 O49 1.258 . S
C55 O52 1.247 . S
C55 O53 1.258 . S
C56 O58 1.247 . S
C56 O60 1.258 . S
C57 O64 1.247 . S
C57 O65 1.258 . S
O58 C56 1.247 . S
O58 Zn59 2.028 1_565 S
Zn59 O58 2.028 1_545 S
Zn59 O63 2.035 1_554 S
Zn59 O65 2.035 1_554 S
Zn59 O66 2.028 1_545 S
O60 C56 1.258 . S
O60 Zn61 2.035 1_554 S
Zn61 O60 2.035 1_556 S
Zn61 O62 2.028 1_565 S
Zn61 O64 2.028 1_565 S
Zn61 O67 2.035 1_556 S
O62 Zn61 2.028 1_545 S
O62 C68 1.247 . S
O63 Zn59 2.035 1_556 S
O63 C68 1.258 . S
O64 C57 1.247 . S
O64 Zn61 2.028 1_545 S
O65 C57 1.258 . S
O65 Zn59 2.035 1_556 S
O66 Zn59 2.028 1_565 S
O66 C69 1.247 . S
O67 Zn61 2.035 1_554 S
O67 C69 1.258 . S
C68 O62 1.247 . S
C68 O63 1.258 . S
C69 O66 1.247 . S
C69 O67 1.258 . S
C70 O72 1.247 . S
C70 O74 1.258 . S
C71 O78 1.247 . S
C71 O79 1.258 . S
O72 C70 1.247 . S
O72 Zn73 2.028 . S
Zn73 O72 2.028 . S
Zn73 O77 2.035 . S
Zn73 O79 2.035 . S
Zn73 O80 2.028 . S
O74 C70 1.258 . S
O74 Zn75 2.035 . S
Zn75 O74 2.035 . S
Zn75 O76 2.028 . S
Zn75 O78 2.028 . S
Zn75 O81 2.035 . S
O76 Zn75 2.028 . S
O76 C82 1.247 . S
O77 Zn73 2.035 . S
O77 C82 1.258 . S
O78 C71 1.247 . S
O78 Zn75 2.028 . S
O79 C71 1.258 . S
O79 Zn73 2.035 . S
O80 Zn73 2.028 . S
O80 C83 1.247 . S
O81 Zn75 2.035 . S
O81 C83 1.258 . S
C82 O76 1.247 . S
C82 O77 1.258 . S
C83 O80 1.247 . S
C83 O81 1.258 . S
H84 C103 0.949 . S
H85 C104 0.950 . S
H86 C106 0.950 . S
H87 C107 0.950 . S
H88 C109 0.950 . S
H89 C112 0.950 . S
H90 C113 0.950 . S
H91 C115 0.951 . S
H92 C116 0.949 . S
H93 C118 0.949 . S
H94 C119 0.950 . S
H95 C121 0.950 . S
H96 C122 0.950 . S
H97 C124 0.950 . S
H98 C127 0.950 . S
H99 C128 0.950 . S
H100 C130 0.951 . S
H101 C131 0.949 . S
C102 C103 1.376 . S
C102 C107 1.386 . S
C102 C108 1.483 . S
C103 H84 0.949 . S
C103 C102 1.376 . S
C103 C104 1.397 . S
C104 H85 0.950 . S
C104 C103 1.397 . S
C104 C105 1.391 . S
C105 C104 1.391 . S
C105 C106 1.405 . S
C106 H86 0.950 . S
C106 C105 1.405 . S
C106 C107 1.367 . S
C107 H87 0.950 . S
C107 C102 1.386 . S
C107 C106 1.367 . S
C108 C102 1.483 . S
C108 C109 1.382 . S
C108 C110 1.403 . S
C109 H88 0.950 . S
C109 C108 1.382 . S
C109 C125 1.411 . S
C110 C108 1.403 . S
C110 C111 1.489 . S
C110 C124 1.411 . S
C111 C110 1.489 . S
C111 C112 1.383 . S
C111 C116 1.382 . S
C112 H89 0.950 . S
C112 C111 1.383 . S
C112 C113 1.395 . S
C113 H90 0.950 . S
C113 C112 1.395 . S
C113 C114 1.288 . S
C114 C113 1.288 . S
C114 C115 1.392 . S
C115 H91 0.951 . S
C115 C114 1.392 . S
C115 C116 1.392 . S
C116 H92 0.949 . S
C116 C111 1.382 . S
C116 C115 1.392 . S
C117 C118 1.376 . S
C117 C122 1.386 . S
C117 C123 1.483 . S
C118 H93 0.949 . S
C118 C117 1.376 . S
C118 C119 1.397 . S
C119 H94 0.950 . S
C119 C118 1.397 . S
C119 C120 1.391 . S
C120 C119 1.391 . S
C120 C121 1.405 . S
C121 H95 0.950 . S
C121 C120 1.405 . S
C121 C122 1.367 . S
C122 H96 0.950 . S
C122 C117 1.386 . S
C122 C121 1.367 . S
C123 C117 1.483 . S
C123 C124 1.382 . S
C123 C125 1.403 . S
C124 H97 0.950 . S
C124 C110 1.411 . S
C124 C123 1.382 . S
C125 C109 1.411 . S
C125 C123 1.403 . S
C125 C126 1.489 . S
C126 C125 1.489 . S
C126 C127 1.383 . S
C126 C131 1.382 . S
C127 H98 0.950 . S
C127 C126 1.383 . S
C127 C128 1.395 . S
C128 H99 0.950 . S
C128 C127 1.395 . S
C128 C129 1.288 . S
C129 C128 1.288 . S
C129 C130 1.392 . S
C130 H100 0.951 . S
C130 C129 1.392 . S
C130 C131 1.392 . S
C131 H101 0.949 . S
C131 C126 1.382 . S
C131 C130 1.392 . S
H132 C151 0.949 . S
H133 C152 0.950 . S
H134 C154 0.950 . S
H135 C155 0.950 . S
H136 C157 0.950 . S
H137 C160 0.950 . S
H138 C161 0.950 . S
H139 C163 0.951 . S
H140 C164 0.949 . S
H141 C166 0.949 . S
H142 C167 0.950 . S
H143 C169 0.950 . S
H144 C170 0.950 . S
H145 C172 0.950 . S
H146 C175 0.950 . S
H147 C176 0.950 . S
H148 C178 0.951 . S
H149 C179 0.949 . S
C150 C151 1.376 . S
C150 C155 1.386 . S
C150 C156 1.483 . S
C151 H132 0.949 . S
C151 C150 1.376 . S
C151 C152 1.397 . S
C152 H133 0.950 . S
C152 C151 1.397 . S
C152 C153 1.391 . S
C153 C152 1.391 . S
C153 C154 1.405 . S
C154 H134 0.950 . S
C154 C153 1.405 . S
C154 C155 1.367 . S
C155 H135 0.950 . S
C155 C150 1.386 . S
C155 C154 1.367 . S
C156 C150 1.483 . S
C156 C157 1.382 . S
C156 C158 1.403 . S
C157 H136 0.950 . S
C157 C156 1.382 . S
C157 C173 1.411 . S
C158 C156 1.403 . S
C158 C159 1.489 . S
C158 C172 1.411 . S
C159 C158 1.489 . S
C159 C160 1.383 . S
C159 C164 1.382 . S
C160 H137 0.950 . S
C160 C159 1.383 . S
C160 C161 1.395 . S
C161 H138 0.950 . S
C161 C160 1.395 . S
C161 C162 1.288 . S
C162 C161 1.288 . S
C162 C163 1.392 . S
C163 H139 0.951 . S
C163 C162 1.392 . S
C163 C164 1.392 . S
C164 H140 0.949 . S
C164 C159 1.382 . S
C164 C163 1.392 . S
C165 C166 1.376 . S
C165 C170 1.386 . S
C165 C171 1.483 . S
C166 H141 0.949 . S
C166 C165 1.376 . S
C166 C167 1.397 . S
C167 H142 0.950 . S
C167 C166 1.397 . S
C167 C168 1.391 . S
C168 C167 1.391 . S
C168 C169 1.405 . S
C169 H143 0.950 . S
C169 C168 1.405 . S
C169 C170 1.367 . S
C170 H144 0.950 . S
C170 C165 1.386 . S
C170 C169 1.367 . S
C171 C165 1.483 . S
C171 C172 1.382 . S
C171 C173 1.403 . S
C172 H145 0.950 . S
C172 C158 1.411 . S
C172 C171 1.382 . S
C173 C157 1.411 . S
C173 C171 1.403 . S
C173 C174 1.489 . S
C174 C173 1.489 . S
C174 C175 1.383 . S
C174 C179 1.382 . S
C175 H146 0.950 . S
C175 C174 1.383 . S
C175 C176 1.395 . S
C176 H147 0.950 . S
C176 C175 1.395 . S
C176 C177 1.288 . S
C177 C176 1.288 . S
C177 C178 1.392 . S
C178 H148 0.951 . S
C178 C177 1.392 . S
C178 C179 1.392 . S
C179 H149 0.949 . S
C179 C174 1.382 . S
C179 C178 1.392 . S
H180 C199 0.949 . S
H181 C200 0.950 . S
H182 C202 0.950 . S
H183 C203 0.950 . S
H184 C205 0.950 . S
H185 C208 0.950 . S
H186 C209 0.950 . S
H187 C211 0.951 . S
H188 C212 0.949 . S
H189 C214 0.949 . S
H190 C215 0.950 . S
H191 C217 0.950 . S
H192 C218 0.950 . S
H193 C220 0.950 . S
H194 C223 0.950 . S
H195 C224 0.950 . S
H196 C226 0.951 . S
H197 C227 0.949 . S
C198 C199 1.376 . S
C198 C203 1.386 . S
C198 C204 1.483 . S
C199 H180 0.949 . S
C199 C198 1.376 . S
C199 C200 1.397 . S
C200 H181 0.950 . S
C200 C199 1.397 . S
C200 C201 1.391 . S
C201 C200 1.391 . S
C201 C202 1.405 . S
C202 H182 0.950 . S
C202 C201 1.405 . S
C202 C203 1.367 . S
C203 H183 0.950 . S
C203 C198 1.386 . S
C203 C202 1.367 . S
C204 C198 1.483 . S
C204 C205 1.382 . S
C204 C206 1.403 . S
C205 H184 0.950 . S
C205 C204 1.382 . S
C205 C221 1.411 . S
C206 C204 1.403 . S
C206 C207 1.489 . S
C206 C220 1.411 . S
C207 C206 1.489 . S
C207 C208 1.383 . S
C207 C212 1.382 . S
C208 H185 0.950 . S
C208 C207 1.383 . S
C208 C209 1.395 . S
C209 H186 0.950 . S
C209 C208 1.395 . S
C209 C210 1.288 . S
C210 C209 1.288 . S
C210 C211 1.392 . S
C211 H187 0.951 . S
C211 C210 1.392 . S
C211 C212 1.392 . S
C212 H188 0.949 . S
C212 C207 1.382 . S
C212 C211 1.392 . S
C213 C214 1.376 . S
C213 C218 1.386 . S
C213 C219 1.483 . S
C214 H189 0.949 . S
C214 C213 1.376 . S
C214 C215 1.397 . S
C215 H190 0.950 . S
C215 C214 1.397 . S
C215 C216 1.391 . S
C216 C215 1.391 . S
C216 C217 1.405 . S
C217 H191 0.950 . S
C217 C216 1.405 . S
C217 C218 1.367 . S
C218 H192 0.950 . S
C218 C213 1.386 . S
C218 C217 1.367 . S
C219 C213 1.483 . S
C219 C220 1.382 . S
C219 C221 1.403 . S
C220 H193 0.950 . S
C220 C206 1.411 . S
C220 C219 1.382 . S
C221 C205 1.411 . S
C221 C219 1.403 . S
C221 C222 1.489 . S
C222 C221 1.489 . S
C222 C223 1.383 . S
C222 C227 1.382 . S
C223 H194 0.950 . S
C223 C222 1.383 . S
C223 C224 1.395 . S
C224 H195 0.950 . S
C224 C223 1.395 . S
C224 C225 1.288 . S
C225 C224 1.288 . S
C225 C226 1.392 . S
C226 H196 0.951 . S
C226 C225 1.392 . S
C226 C227 1.392 . S
C227 H197 0.949 . S
C227 C222 1.382 . S
C227 C226 1.392 . S
H228 C247 0.949 . S
H229 C248 0.950 . S
H230 C250 0.950 . S
H231 C251 0.950 . S
H232 C253 0.950 . S
H233 C256 0.950 . S
H234 C257 0.950 . S
H235 C259 0.951 . S
H236 C260 0.949 . S
H237 C262 0.949 . S
H238 C263 0.950 . S
H239 C265 0.950 . S
H240 C266 0.950 . S
H241 C268 0.950 . S
H242 C271 0.950 . S
H243 C272 0.950 . S
H244 C274 0.951 . S
H245 C275 0.949 . S
C246 C247 1.376 . S
C246 C251 1.386 . S
C246 C252 1.483 . S
C247 H228 0.949 . S
C247 C246 1.376 . S
C247 C248 1.397 . S
C248 H229 0.950 . S
C248 C247 1.397 . S
C248 C249 1.391 . S
C249 C248 1.391 . S
C249 C250 1.405 . S
C250 H230 0.950 . S
C250 C249 1.405 . S
C250 C251 1.367 . S
C251 H231 0.950 . S
C251 C246 1.386 . S
C251 C250 1.367 . S
C252 C246 1.483 . S
C252 C253 1.382 . S
C252 C254 1.403 . S
C253 H232 0.950 . S
C253 C252 1.382 . S
C253 C269 1.411 . S
C254 C252 1.403 . S
C254 C255 1.489 . S
C254 C268 1.411 . S
C255 C254 1.489 . S
C255 C256 1.383 . S
C255 C260 1.382 . S
C256 H233 0.950 . S
C256 C255 1.383 . S
C256 C257 1.395 . S
C257 H234 0.950 . S
C257 C256 1.395 . S
C257 C258 1.288 . S
C258 C257 1.288 . S
C258 C259 1.392 . S
C259 H235 0.951 . S
C259 C258 1.392 . S
C259 C260 1.392 . S
C260 H236 0.949 . S
C260 C255 1.382 . S
C260 C259 1.392 . S
C261 C262 1.376 . S
C261 C266 1.386 . S
C261 C267 1.483 . S
C262 H237 0.949 . S
C262 C261 1.376 . S
C262 C263 1.397 . S
C263 H238 0.950 . S
C263 C262 1.397 . S
C263 C264 1.391 . S
C264 C263 1.391 . S
C264 C265 1.405 . S
C265 H239 0.950 . S
C265 C264 1.405 . S
C265 C266 1.367 . S
C266 H240 0.950 . S
C266 C261 1.386 . S
C266 C265 1.367 . S
C267 C261 1.483 . S
C267 C268 1.382 . S
C267 C269 1.403 . S
C268 H241 0.950 . S
C268 C254 1.411 . S
C268 C267 1.382 . S
C269 C253 1.411 . S
C269 C267 1.403 . S
C269 C270 1.489 . S
C270 C269 1.489 . S
C270 C271 1.383 . S
C270 C275 1.382 . S
C271 H242 0.950 . S
C271 C270 1.383 . S
C271 C272 1.395 . S
C272 H243 0.950 . S
C272 C271 1.395 . S
C272 C273 1.288 . S
C273 C272 1.288 . S
C273 C274 1.392 . S
C274 H244 0.951 . S
C274 C273 1.392 . S
C274 C275 1.392 . S
C275 H245 0.949 . S
C275 C270 1.382 . S
C275 C274 1.392 . S
H276 C295 0.949 . S
H277 C296 0.950 . S
H278 C298 0.950 . S
H279 C299 0.950 . S
H280 C301 0.950 . S
H281 C304 0.950 . S
H282 C305 0.950 . S
H283 C307 0.951 . S
H284 C308 0.949 . S
H285 C310 0.949 . S
H286 C311 0.950 . S
H287 C313 0.950 . S
H288 C314 0.950 . S
H289 C316 0.950 . S
H290 C319 0.950 . S
H291 C320 0.950 . S
H292 C322 0.951 . S
H293 C323 0.949 . S
C294 C295 1.376 . S
C294 C299 1.386 . S
C294 C300 1.483 . S
C295 H276 0.949 . S
C295 C294 1.376 . S
C295 C296 1.397 . S
C296 H277 0.950 . S
C296 C295 1.397 . S
C296 C297 1.391 . S
C297 C296 1.391 . S
C297 C298 1.405 . S
C298 H278 0.950 . S
C298 C297 1.405 . S
C298 C299 1.367 . S
C299 H279 0.950 . S
C299 C294 1.386 . S
C299 C298 1.367 . S
C300 C294 1.483 . S
C300 C301 1.382 . S
C300 C302 1.403 . S
C301 H280 0.950 . S
C301 C300 1.382 . S
C301 C317 1.411 . S
C302 C300 1.403 . S
C302 C303 1.489 . S
C302 C316 1.411 . S
C303 C302 1.489 . S
C303 C304 1.383 . S
C303 C308 1.382 . S
C304 H281 0.950 . S
C304 C303 1.383 . S
C304 C305 1.395 . S
C305 H282 0.950 . S
C305 C304 1.395 . S
C305 C306 1.288 . S
C306 C305 1.288 . S
C306 C307 1.392 . S
C307 H283 0.951 . S
C307 C306 1.392 . S
C307 C308 1.392 . S
C308 H284 0.949 . S
C308 C303 1.382 . S
C308 C307 1.392 . S
C309 C310 1.376 . S
C309 C314 1.386 . S
C309 C315 1.483 . S
C310 H285 0.949 . S
C310 C309 1.376 . S
C310 C311 1.397 . S
C311 H286 0.950 . S
C311 C310 1.397 . S
C311 C312 1.391 . S
C312 C311 1.391 . S
C312 C313 1.405 . S
C313 H287 0.950 . S
C313 C312 1.405 . S
C313 C314 1.367 . S
C314 H288 0.950 . S
C314 C309 1.386 . S
C314 C313 1.367 . S
C315 C309 1.483 . S
C315 C316 1.382 . S
C315 C317 1.403 . S
C316 H289 0.950 . S
C316 C302 1.411 . S
C316 C315 1.382 . S
C317 C301 1.411 . S
C317 C315 1.403 . S
C317 C318 1.489 . S
C318 C317 1.489 . S
C318 C319 1.383 . S
C318 C323 1.382 . S
C319 H290 0.950 . S
C319 C318 1.383 . S
C319 C320 1.395 . S
C320 H291 0.950 . S
C320 C319 1.395 . S
C320 C321 1.288 . S
C321 C320 1.288 . S
C321 C322 1.392 . S
C322 H292 0.951 . S
C322 C321 1.392 . S
C322 C323 1.392 . S
C323 H293 0.949 . S
C323 C318 1.382 . S
C323 C322 1.392 . S
H324 C343 0.949 . S
H325 C344 0.950 . S
H326 C346 0.950 . S
H327 C347 0.950 . S
H328 C349 0.950 . S
H329 C352 0.950 . S
H330 C353 0.950 . S
H331 C355 0.951 . S
H332 C356 0.949 . S
H333 C358 0.949 . S
H334 C359 0.950 . S
H335 C361 0.950 . S
H336 C362 0.950 . S
H337 C364 0.950 . S
H338 C367 0.950 . S
H339 C368 0.950 . S
H340 C370 0.951 . S
H341 C371 0.949 . S
C342 C343 1.376 . S
C342 C347 1.386 . S
C342 C348 1.483 . S
C343 H324 0.949 . S
C343 C342 1.376 . S
C343 C344 1.397 . S
C344 H325 0.950 . S
C344 C343 1.397 . S
C344 C345 1.391 . S
C345 C344 1.391 . S
C345 C346 1.405 . S
C346 H326 0.950 . S
C346 C345 1.405 . S
C346 C347 1.367 . S
C347 H327 0.950 . S
C347 C342 1.386 . S
C347 C346 1.367 . S
C348 C342 1.483 . S
C348 C349 1.382 . S
C348 C350 1.403 . S
C349 H328 0.950 . S
C349 C348 1.382 . S
C349 C365 1.411 . S
C350 C348 1.403 . S
C350 C351 1.489 . S
C350 C364 1.411 . S
C351 C350 1.489 . S
C351 C352 1.383 . S
C351 C356 1.382 . S
C352 H329 0.950 . S
C352 C351 1.383 . S
C352 C353 1.395 . S
C353 H330 0.950 . S
C353 C352 1.395 . S
C353 C354 1.288 . S
C354 C353 1.288 . S
C354 C355 1.392 . S
C355 H331 0.951 . S
C355 C354 1.392 . S
C355 C356 1.392 . S
C356 H332 0.949 . S
C356 C351 1.382 . S
C356 C355 1.392 . S
C357 C358 1.376 . S
C357 C362 1.386 . S
C357 C363 1.483 . S
C358 H333 0.949 . S
C358 C357 1.376 . S
C358 C359 1.397 . S
C359 H334 0.950 . S
C359 C358 1.397 . S
C359 C360 1.391 . S
C360 C359 1.391 . S
C360 C361 1.405 . S
C361 H335 0.950 . S
C361 C360 1.405 . S
C361 C362 1.367 . S
C362 H336 0.950 . S
C362 C357 1.386 . S
C362 C361 1.367 . S
C363 C357 1.483 . S
C363 C364 1.382 . S
C363 C365 1.403 . S
C364 H337 0.950 . S
C364 C350 1.411 . S
C364 C363 1.382 . S
C365 C349 1.411 . S
C365 C363 1.403 . S
C365 C366 1.489 . S
C366 C365 1.489 . S
C366 C367 1.383 . S
C366 C371 1.382 . S
C367 H338 0.950 . S
C367 C366 1.383 . S
C367 C368 1.395 . S
C368 H339 0.950 . S
C368 C367 1.395 . S
C368 C369 1.288 . S
C369 C368 1.288 . S
C369 C370 1.392 . S
C370 H340 0.951 . S
C370 C369 1.392 . S
C370 C371 1.392 . S
C371 H341 0.949 . S
C371 C366 1.382 . S
C371 C370 1.392 . S
C372 C373 1.349 . S
C372 C374 1.327 . S
C372 H397 0.950 . S
C373 C372 1.349 . S
C373 C389 1.349 . S
C374 C372 1.327 . S
C374 C393 1.429 . S
C374 H398 0.950 . S
C375 C392 1.574 . S
C375 C394 1.368 . S
C375 H399 0.949 . S
H376 C380 0.949 . S
C377 C378 1.349 . S
C377 C379 1.327 . S
C377 H400 0.950 . S
C378 C377 1.349 . S
C378 C390 1.349 . S
C379 C377 1.327 . S
C379 C395 1.429 . S
C379 H401 0.950 . S
C380 H376 0.949 . S
C380 C388 1.574 . S
C380 C396 1.368 . S
H381 C389 0.950 . S
H382 C387 0.950 . S
H383 C388 0.949 . S
H384 C390 0.950 . S
H385 C391 0.950 . S
H386 C392 0.949 . S
C387 H382 0.950 . S
C387 C389 1.327 . S
C387 C393 1.429 . S
C388 C380 1.574 . S
C388 H383 0.949 . S
C388 C394 1.368 . S
C389 C373 1.349 . S
C389 H381 0.950 . S
C389 C387 1.327 . S
C390 C378 1.349 . S
C390 H384 0.950 . S
C390 C391 1.327 . S
C391 H385 0.950 . S
C391 C390 1.327 . S
C391 C395 1.429 . S
C392 C375 1.574 . S
C392 H386 0.949 . S
C392 C396 1.368 . S
C393 C374 1.429 . S
C393 C387 1.429 . S
C393 C394 1.523 . S
C394 C375 1.368 . S
C394 C388 1.368 . S
C394 C393 1.523 . S
C395 C379 1.429 . S
C395 C391 1.429 . S
C395 C396 1.523 . S
C396 C380 1.368 . S
C396 C392 1.368 . S
C396 C395 1.523 . S
H397 C372 0.950 . S
H398 C374 0.950 . S
H399 C375 0.949 . S
H400 C377 0.950 . S
H401 C379 0.950 . S
C402 C403 1.349 . S
C402 C404 1.327 . S
C402 H427 0.950 . S
C403 C402 1.349 . S
C403 C419 1.349 . S
C404 C402 1.327 . S
C404 C423 1.429 . S
C404 H428 0.950 . S
C405 C422 1.574 . S
C405 C424 1.368 . S
C405 H429 0.949 . S
H406 C410 0.949 . S
C407 C408 1.349 . S
C407 C409 1.327 . S
C407 H430 0.950 . S
C408 C407 1.349 . S
C408 C420 1.349 . S
C409 C407 1.327 . S
C409 C425 1.429 . S
C409 H431 0.950 . S
C410 H406 0.949 . S
C410 C418 1.574 . S
C410 C426 1.368 . S
H411 C419 0.950 . S
H412 C417 0.950 . S
H413 C418 0.949 . S
H414 C420 0.950 . S
H415 C421 0.950 . S
H416 C422 0.949 . S
C417 H412 0.950 . S
C417 C419 1.327 . S
C417 C423 1.429 . S
C418 C410 1.574 . S
C418 H413 0.949 . S
C418 C424 1.368 . S
C419 C403 1.349 . S
C419 H411 0.950 . S
C419 C417 1.327 . S
C420 C408 1.349 . S
C420 H414 0.950 . S
C420 C421 1.327 . S
C421 H415 0.950 . S
C421 C420 1.327 . S
C421 C425 1.429 . S
C422 C405 1.574 . S
C422 H416 0.949 . S
C422 C426 1.368 . S
C423 C404 1.429 . S
C423 C417 1.429 . S
C423 C424 1.523 . S
C424 C405 1.368 . S
C424 C418 1.368 . S
C424 C423 1.523 . S
C425 C409 1.429 . S
C425 C421 1.429 . S
C425 C426 1.523 . S
C426 C410 1.368 . S
C426 C422 1.368 . S
C426 C425 1.523 . S
H427 C402 0.950 . S
H428 C404 0.950 . S
H429 C405 0.949 . S
H430 C407 0.950 . S
H431 C409 0.950 . S
C432 C433 1.349 . S
C432 C434 1.327 . S
C432 H457 0.950 . S
C433 C432 1.349 . S
C433 C449 1.349 . S
C434 C432 1.327 . S
C434 C453 1.429 . S
C434 H458 0.950 . S
C435 C452 1.574 . S
C435 C454 1.368 . S
C435 H459 0.949 . S
H436 C440 0.949 . S
C437 C438 1.349 . S
C437 C439 1.327 . S
C437 H460 0.950 . S
C438 C437 1.349 . S
C438 C450 1.349 . S
C439 C437 1.327 . S
C439 C455 1.429 . S
C439 H461 0.950 . S
C440 H436 0.949 . S
C440 C448 1.574 . S
C440 C456 1.368 . S
H441 C449 0.950 . S
H442 C447 0.950 . S
H443 C448 0.949 . S
H444 C450 0.950 . S
H445 C451 0.950 . S
H446 C452 0.949 . S
C447 H442 0.950 . S
C447 C449 1.327 . S
C447 C453 1.429 . S
C448 C440 1.574 . S
C448 H443 0.949 . S
C448 C454 1.368 . S
C449 C433 1.349 . S
C449 H441 0.950 . S
C449 C447 1.327 . S
C450 C438 1.349 . S
C450 H444 0.950 . S
C450 C451 1.327 . S
C451 H445 0.950 . S
C451 C450 1.327 . S
C451 C455 1.429 . S
C452 C435 1.574 . S
C452 H446 0.949 . S
C452 C456 1.368 . S
C453 C434 1.429 . S
C453 C447 1.429 . S
C453 C454 1.523 . S
C454 C435 1.368 . S
C454 C448 1.368 . S
C454 C453 1.523 . S
C455 C439 1.429 . S
C455 C451 1.429 . S
C455 C456 1.523 . S
C456 C440 1.368 . S
C456 C452 1.368 . S
C456 C455 1.523 . S
H457 C432 0.950 . S
H458 C434 0.950 . S
H459 C435 0.949 . S
H460 C437 0.950 . S
H461 C439 0.950 . S
C462 C463 1.349 . S
C462 C464 1.327 . S
C462 H487 0.950 . S
C463 C462 1.349 . S
C463 C479 1.349 . S
C464 C462 1.327 . S
C464 C483 1.429 . S
C464 H488 0.950 . S
C465 C482 1.574 . S
C465 C484 1.368 . S
C465 H489 0.949 . S
H466 C470 0.949 . S
C467 C468 1.349 . S
C467 C469 1.327 . S
C467 H490 0.950 . S
C468 C467 1.349 . S
C468 C480 1.349 . S
C469 C467 1.327 . S
C469 C485 1.429 . S
C469 H491 0.950 . S
C470 H466 0.949 . S
C470 C478 1.574 . S
C470 C486 1.368 . S
H471 C479 0.950 . S
H472 C477 0.950 . S
H473 C478 0.949 . S
H474 C480 0.950 . S
H475 C481 0.950 . S
H476 C482 0.949 . S
C477 H472 0.950 . S
C477 C479 1.327 . S
C477 C483 1.429 . S
C478 C470 1.574 . S
C478 H473 0.949 . S
C478 C484 1.368 . S
C479 C463 1.349 . S
C479 H471 0.950 . S
C479 C477 1.327 . S
C480 C468 1.349 . S
C480 H474 0.950 . S
C480 C481 1.327 . S
C481 H475 0.950 . S
C481 C480 1.327 . S
C481 C485 1.429 . S
C482 C465 1.574 . S
C482 H476 0.949 . S
C482 C486 1.368 . S
C483 C464 1.429 . S
C483 C477 1.429 . S
C483 C484 1.523 . S
C484 C465 1.368 . S
C484 C478 1.368 . S
C484 C483 1.523 . S
C485 C469 1.429 . S
C485 C481 1.429 . S
C485 C486 1.523 . S
C486 C470 1.368 . S
C486 C482 1.368 . S
C486 C485 1.523 . S
H487 C462 0.950 . S
H488 C464 0.950 . S
H489 C465 0.949 . S
H490 C467 0.950 . S
H491 C469 0.950 . S
C492 C493 1.349 . S
C492 C494 1.327 . S
C492 H517 0.950 . S
C493 C492 1.349 . S
C493 C509 1.349 . S
C494 C492 1.327 . S
C494 C513 1.429 . S
C494 H518 0.950 . S
C495 C512 1.574 . S
C495 C514 1.368 . S
C495 H519 0.949 . S
H496 C500 0.949 . S
C497 C498 1.349 . S
C497 C499 1.327 . S
C497 H520 0.950 . S
C498 C497 1.349 . S
C498 C510 1.349 . S
C499 C497 1.327 . S
C499 C515 1.429 . S
C499 H521 0.950 . S
C500 H496 0.949 . S
C500 C508 1.574 . S
C500 C516 1.368 . S
H501 C509 0.950 . S
H502 C507 0.950 . S
H503 C508 0.949 . S
H504 C510 0.950 . S
H505 C511 0.950 . S
H506 C512 0.949 . S
C507 H502 0.950 . S
C507 C509 1.327 . S
C507 C513 1.429 . S
C508 C500 1.574 . S
C508 H503 0.949 . S
C508 C514 1.368 . S
C509 C493 1.349 . S
C509 H501 0.950 . S
C509 C507 1.327 . S
C510 C498 1.349 . S
C510 H504 0.950 . S
C510 C511 1.327 . S
C511 H505 0.950 . S
C511 C510 1.327 . S
C511 C515 1.429 . S
C512 C495 1.574 . S
C512 H506 0.949 . S
C512 C516 1.368 . S
C513 C494 1.429 . S
C513 C507 1.429 . S
C513 C514 1.523 . S
C514 C495 1.368 . S
C514 C508 1.368 . S
C514 C513 1.523 . S
C515 C499 1.429 . S
C515 C511 1.429 . S
C515 C516 1.523 . S
C516 C500 1.368 . S
C516 C512 1.368 . S
C516 C515 1.523 . S
H517 C492 0.950 . S
H518 C494 0.950 . S
H519 C495 0.949 . S
H520 C497 0.950 . S
H521 C499 0.950 . S
C522 C523 1.349 . S
C522 C524 1.327 . S
C522 H547 0.950 . S
C523 C522 1.349 . S
C523 C539 1.349 . S
C524 C522 1.327 . S
C524 C543 1.429 . S
C524 H548 0.950 . S
C525 C542 1.574 . S
C525 C544 1.368 . S
C525 H549 0.949 . S
H526 C530 0.949 . S
C527 C528 1.349 . S
C527 C529 1.327 . S
C527 H550 0.950 . S
C528 C527 1.349 . S
C528 C540 1.349 . S
C529 C527 1.327 . S
C529 C545 1.429 . S
C529 H551 0.950 . S
C530 H526 0.949 . S
C530 C538 1.574 . S
C530 C546 1.368 . S
H531 C539 0.950 . S
H532 C537 0.950 . S
H533 C538 0.949 . S
H534 C540 0.950 . S
H535 C541 0.950 . S
H536 C542 0.949 . S
C537 H532 0.950 . S
C537 C539 1.327 . S
C537 C543 1.429 . S
C538 C530 1.574 . S
C538 H533 0.949 . S
C538 C544 1.368 . S
C539 C523 1.349 . S
C539 H531 0.950 . S
C539 C537 1.327 . S
C540 C528 1.349 . S
C540 H534 0.950 . S
C540 C541 1.327 . S
C541 H535 0.950 . S
C541 C540 1.327 . S
C541 C545 1.429 . S
C542 C525 1.574 . S
C542 H536 0.949 . S
C542 C546 1.368 . S
C543 C524 1.429 . S
C543 C537 1.429 . S
C543 C544 1.523 . S
C544 C525 1.368 . S
C544 C538 1.368 . S
C544 C543 1.523 . S
C545 C529 1.429 . S
C545 C541 1.429 . S
C545 C546 1.523 . S
C546 C530 1.368 . S
C546 C542 1.368 . S
C546 C545 1.523 . S
H547 C522 0.950 . S
H548 C524 0.950 . S
H549 C525 0.949 . S
H550 C527 0.950 . S
H551 C529 0.950 . S
C552 C553 1.349 . S
C552 C554 1.327 . S
C552 H577 0.950 . S
C553 C552 1.349 . S
C553 C569 1.349 . S
C554 C552 1.327 . S
C554 C573 1.429 . S
C554 H578 0.950 . S
C555 C572 1.574 . S
C555 C574 1.368 . S
C555 H579 0.949 . S
H556 C560 0.949 . S
C557 C558 1.349 . S
C557 C559 1.327 . S
C557 H580 0.950 . S
C558 C557 1.349 . S
C558 C570 1.349 . S
C559 C557 1.327 . S
C559 C575 1.429 . S
C559 H581 0.950 . S
C560 H556 0.949 . S
C560 C568 1.574 . S
C560 C576 1.368 . S
H561 C569 0.950 . S
H562 C567 0.950 . S
H563 C568 0.949 . S
H564 C570 0.950 . S
H565 C571 0.950 . S
H566 C572 0.949 . S
C567 H562 0.950 . S
C567 C569 1.327 . S
C567 C573 1.429 . S
C568 C560 1.574 . S
C568 H563 0.949 . S
C568 C574 1.368 . S
C569 C553 1.349 . S
C569 H561 0.950 . S
C569 C567 1.327 . S
C570 C558 1.349 . S
C570 H564 0.950 . S
C570 C571 1.327 . S
C571 H565 0.950 . S
C571 C570 1.327 . S
C571 C575 1.429 . S
C572 C555 1.574 . S
C572 H566 0.949 . S
C572 C576 1.368 . S
C573 C554 1.429 . S
C573 C567 1.429 . S
C573 C574 1.523 . S
C574 C555 1.368 . S
C574 C568 1.368 . S
C574 C573 1.523 . S
C575 C559 1.429 . S
C575 C571 1.429 . S
C575 C576 1.523 . S
C576 C560 1.368 . S
C576 C572 1.368 . S
C576 C575 1.523 . S
H577 C552 0.950 . S
H578 C554 0.950 . S
H579 C555 0.949 . S
H580 C557 0.950 . S
H581 C559 0.950 . S
C582 C583 1.349 . S
C582 C584 1.327 . S
C582 H607 0.950 . S
C583 C582 1.349 . S
C583 C599 1.349 . S
C584 C582 1.327 . S
C584 C603 1.429 . S
C584 H608 0.950 . S
C585 C602 1.574 . S
C585 C604 1.368 . S
C585 H609 0.949 . S
H586 C590 0.949 . S
C587 C588 1.349 . S
C587 C589 1.327 . S
C587 H610 0.950 . S
C588 C587 1.349 . S
C588 C600 1.349 . S
C589 C587 1.327 . S
C589 C605 1.429 . S
C589 H611 0.950 . S
C590 H586 0.949 . S
C590 C598 1.574 . S
C590 C606 1.368 . S
H591 C599 0.950 . S
H592 C597 0.950 . S
H593 C598 0.949 . S
H594 C600 0.950 . S
H595 C601 0.950 . S
H596 C602 0.949 . S
C597 H592 0.950 . S
C597 C599 1.327 . S
C597 C603 1.429 . S
C598 C590 1.574 . S
C598 H593 0.949 . S
C598 C604 1.368 . S
C599 C583 1.349 . S
C599 H591 0.950 . S
C599 C597 1.327 . S
C600 C588 1.349 . S
C600 H594 0.950 . S
C600 C601 1.327 . S
C601 H595 0.950 . S
C601 C600 1.327 . S
C601 C605 1.429 . S
C602 C585 1.574 . S
C602 H596 0.949 . S
C602 C606 1.368 . S
C603 C584 1.429 . S
C603 C597 1.429 . S
C603 C604 1.523 . S
C604 C585 1.368 . S
C604 C598 1.368 . S
C604 C603 1.523 . S
C605 C589 1.429 . S
C605 C601 1.429 . S
C605 C606 1.523 . S
C606 C590 1.368 . S
C606 C602 1.368 . S
C606 C605 1.523 . S
H607 C582 0.950 . S
H608 C584 0.950 . S
H609 C585 0.949 . S
H610 C587 0.950 . S
H611 C589 0.950 . S
C612 C613 1.349 . S
C612 C614 1.327 . S
C612 H637 0.950 . S
C613 C612 1.349 . S
C613 C629 1.349 . S
C614 C612 1.327 . S
C614 C633 1.429 . S
C614 H638 0.950 . S
C615 C632 1.574 . S
C615 C634 1.368 . S
C615 H639 0.949 . S
H616 C620 0.949 . S
C617 C618 1.349 . S
C617 C619 1.327 . S
C617 H640 0.950 . S
C618 C617 1.349 . S
C618 C630 1.349 . S
C619 C617 1.327 . S
C619 C635 1.429 . S
C619 H641 0.950 . S
C620 H616 0.949 . S
C620 C628 1.574 . S
C620 C636 1.368 . S
H621 C629 0.950 . S
H622 C627 0.950 . S
H623 C628 0.949 . S
H624 C630 0.950 . S
H625 C631 0.950 . S
H626 C632 0.949 . S
C627 H622 0.950 . S
C627 C629 1.327 . S
C627 C633 1.429 . S
C628 C620 1.574 . S
C628 H623 0.949 . S
C628 C634 1.368 . S
C629 C613 1.349 . S
C629 H621 0.950 . S
C629 C627 1.327 . S
C630 C618 1.349 . S
C630 H624 0.950 . S
C630 C631 1.327 . S
C631 H625 0.950 . S
C631 C630 1.327 . S
C631 C635 1.429 . S
C632 C615 1.574 . S
C632 H626 0.949 . S
C632 C636 1.368 . S
C633 C614 1.429 . S
C633 C627 1.429 . S
C633 C634 1.523 . S
C634 C615 1.368 . S
C634 C628 1.368 . S
C634 C633 1.523 . S
C635 C619 1.429 . S
C635 C631 1.429 . S
C635 C636 1.523 . S
C636 C620 1.368 . S
C636 C632 1.368 . S
C636 C635 1.523 . S
H637 C612 0.950 . S
H638 C614 0.950 . S
H639 C615 0.949 . S
H640 C617 0.950 . S
H641 C619 0.950 . S
C642 C643 1.349 . S
C642 C644 1.327 . S
C642 H667 0.950 . S
C643 C642 1.349 . S
C643 C659 1.349 . S
C644 C642 1.327 . S
C644 C663 1.429 . S
C644 H668 0.950 . S
C645 C662 1.574 . S
C645 C664 1.368 . S
C645 H669 0.949 . S
H646 C650 0.949 . S
C647 C648 1.349 . S
C647 C649 1.327 . S
C647 H670 0.950 . S
C648 C647 1.349 . S
C648 C660 1.349 . S
C649 C647 1.327 . S
C649 C665 1.429 . S
C649 H671 0.950 . S
C650 H646 0.949 . S
C650 C658 1.574 . S
C650 C666 1.368 . S
H651 C659 0.950 . S
H652 C657 0.950 . S
H653 C658 0.949 . S
H654 C660 0.950 . S
H655 C661 0.950 . S
H656 C662 0.949 . S
C657 H652 0.950 . S
C657 C659 1.327 . S
C657 C663 1.429 . S
C658 C650 1.574 . S
C658 H653 0.949 . S
C658 C664 1.368 . S
C659 C643 1.349 . S
C659 H651 0.950 . S
C659 C657 1.327 . S
C660 C648 1.349 . S
C660 H654 0.950 . S
C660 C661 1.327 . S
C661 H655 0.950 . S
C661 C660 1.327 . S
C661 C665 1.429 . S
C662 C645 1.574 . S
C662 H656 0.949 . S
C662 C666 1.368 . S
C663 C644 1.429 . S
C663 C657 1.429 . S
C663 C664 1.523 . S
C664 C645 1.368 . S
C664 C658 1.368 . S
C664 C663 1.523 . S
C665 C649 1.429 . S
C665 C661 1.429 . S
C665 C666 1.523 . S
C666 C650 1.368 . S
C666 C662 1.368 . S
C666 C665 1.523 . S
H667 C642 0.950 . S
H668 C644 0.950 . S
H669 C645 0.949 . S
H670 C647 0.950 . S
H671 C649 0.950 . S
C672 C673 1.349 . S
C672 C674 1.327 . S
C672 H697 0.950 . S
C673 C672 1.349 . S
C673 C689 1.349 . S
C674 C672 1.327 . S
C674 C693 1.429 . S
C674 H698 0.950 . S
C675 C692 1.574 . S
C675 C694 1.368 . S
C675 H699 0.949 . S
H676 C680 0.949 . S
C677 C678 1.349 . S
C677 C679 1.327 . S
C677 H700 0.950 . S
C678 C677 1.349 . S
C678 C690 1.349 . S
C679 C677 1.327 . S
C679 C695 1.429 . S
C679 H701 0.950 . S
C680 H676 0.949 . S
C680 C688 1.574 . S
C680 C696 1.368 . S
H681 C689 0.950 . S
H682 C687 0.950 . S
H683 C688 0.949 . S
H684 C690 0.950 . S
H685 C691 0.950 . S
H686 C692 0.949 . S
C687 H682 0.950 . S
C687 C689 1.327 . S
C687 C693 1.429 . S
C688 C680 1.574 . S
C688 H683 0.949 . S
C688 C694 1.368 . S
C689 C673 1.349 . S
C689 H681 0.950 . S
C689 C687 1.327 . S
C690 C678 1.349 . S
C690 H684 0.950 . S
C690 C691 1.327 . S
C691 H685 0.950 . S
C691 C690 1.327 . S
C691 C695 1.429 . S
C692 C675 1.574 . S
C692 H686 0.949 . S
C692 C696 1.368 . S
C693 C674 1.429 . S
C693 C687 1.429 . S
C693 C694 1.523 . S
C694 C675 1.368 . S
C694 C688 1.368 . S
C694 C693 1.523 . S
C695 C679 1.429 . S
C695 C691 1.429 . S
C695 C696 1.523 . S
C696 C680 1.368 . S
C696 C692 1.368 . S
C696 C695 1.523 . S
H697 C672 0.950 . S
H698 C674 0.950 . S
H699 C675 0.949 . S
H700 C677 0.950 . S
H701 C679 0.950 . S
C702 C703 1.349 . S
C702 C704 1.327 . S
C702 H727 0.950 . S
C703 C702 1.349 . S
C703 C719 1.349 . S
C704 C702 1.327 . S
C704 C723 1.429 . S
C704 H728 0.950 . S
C705 C722 1.574 . S
C705 C724 1.368 . S
C705 H729 0.949 . S
H706 C710 0.949 . S
C707 C708 1.349 . S
C707 C709 1.327 . S
C707 H730 0.950 . S
C708 C707 1.349 . S
C708 C720 1.349 . S
C709 C707 1.327 . S
C709 C725 1.429 . S
C709 H731 0.950 . S
C710 H706 0.949 . S
C710 C718 1.574 . S
C710 C726 1.368 . S
H711 C719 0.950 . S
H712 C717 0.950 . S
H713 C718 0.949 . S
H714 C720 0.950 . S
H715 C721 0.950 . S
H716 C722 0.949 . S
C717 H712 0.950 . S
C717 C719 1.327 . S
C717 C723 1.429 . S
C718 C710 1.574 . S
C718 H713 0.949 . S
C718 C724 1.368 . S
C719 C703 1.349 . S
C719 H711 0.950 . S
C719 C717 1.327 . S
C720 C708 1.349 . S
C720 H714 0.950 . S
C720 C721 1.327 . S
C721 H715 0.950 . S
C721 C720 1.327 . S
C721 C725 1.429 . S
C722 C705 1.574 . S
C722 H716 0.949 . S
C722 C726 1.368 . S
C723 C704 1.429 . S
C723 C717 1.429 . S
C723 C724 1.523 . S
C724 C705 1.368 . S
C724 C718 1.368 . S
C724 C723 1.523 . S
C725 C709 1.429 . S
C725 C721 1.429 . S
C725 C726 1.523 . S
C726 C710 1.368 . S
C726 C722 1.368 . S
C726 C725 1.523 . S
H727 C702 0.950 . S
H728 C704 0.950 . S
H729 C705 0.949 . S
H730 C707 0.950 . S
H731 C709 0.950 . S
C732 C733 1.349 . S
C732 C734 1.327 . S
C732 H757 0.950 . S
C733 C732 1.349 . S
C733 C749 1.349 . S
C734 C732 1.327 . S
C734 C753 1.429 . S
C734 H758 0.950 . S
C735 C752 1.574 . S
C735 C754 1.368 . S
C735 H759 0.949 . S
H736 C740 0.949 . S
C737 C738 1.349 . S
C737 C739 1.327 . S
C737 H760 0.950 . S
C738 C737 1.349 . S
C738 C750 1.349 . S
C739 C737 1.327 . S
C739 C755 1.429 . S
C739 H761 0.950 . S
C740 H736 0.949 . S
C740 C748 1.574 . S
C740 C756 1.368 . S
H741 C749 0.950 . S
H742 C747 0.950 . S
H743 C748 0.949 . S
H744 C750 0.950 . S
H745 C751 0.950 . S
H746 C752 0.949 . S
C747 H742 0.950 . S
C747 C749 1.327 . S
C747 C753 1.429 . S
C748 C740 1.574 . S
C748 H743 0.949 . S
C748 C754 1.368 . S
C749 C733 1.349 . S
C749 H741 0.950 . S
C749 C747 1.327 . S
C750 C738 1.349 . S
C750 H744 0.950 . S
C750 C751 1.327 . S
C751 H745 0.950 . S
C751 C750 1.327 . S
C751 C755 1.429 . S
C752 C735 1.574 . S
C752 H746 0.949 . S
C752 C756 1.368 . S
C753 C734 1.429 . S
C753 C747 1.429 . S
C753 C754 1.523 . S
C754 C735 1.368 . S
C754 C748 1.368 . S
C754 C753 1.523 . S
C755 C739 1.429 . S
C755 C751 1.429 . S
C755 C756 1.523 . S
C756 C740 1.368 . S
C756 C752 1.368 . S
C756 C755 1.523 . S
H757 C732 0.950 . S
H758 C734 0.950 . S
H759 C735 0.949 . S
H760 C737 0.950 . S
H761 C739 0.950 . S
C762 C763 1.349 . S
C762 C764 1.327 . S
C762 H787 0.950 . S
C763 C762 1.349 . S
C763 C779 1.349 . S
C764 C762 1.327 . S
C764 C783 1.429 . S
C764 H788 0.950 . S
C765 C782 1.574 . S
C765 C784 1.368 . S
C765 H789 0.949 . S
H766 C770 0.949 . S
C767 C768 1.349 . S
C767 C769 1.327 . S
C767 H790 0.950 . S
C768 C767 1.349 . S
C768 C780 1.349 . S
C769 C767 1.327 . S
C769 C785 1.429 . S
C769 H791 0.950 . S
C770 H766 0.949 . S
C770 C778 1.574 . S
C770 C786 1.368 . S
H771 C779 0.950 . S
H772 C777 0.950 . S
H773 C778 0.949 . S
H774 C780 0.950 . S
H775 C781 0.950 . S
H776 C782 0.949 . S
C777 H772 0.950 . S
C777 C779 1.327 . S
C777 C783 1.429 . S
C778 C770 1.574 . S
C778 H773 0.949 . S
C778 C784 1.368 . S
C779 C763 1.349 . S
C779 H771 0.950 . S
C779 C777 1.327 . S
C780 C768 1.349 . S
C780 H774 0.950 . S
C780 C781 1.327 . S
C781 H775 0.950 . S
C781 C780 1.327 . S
C781 C785 1.429 . S
C782 C765 1.574 . S
C782 H776 0.949 . S
C782 C786 1.368 . S
C783 C764 1.429 . S
C783 C777 1.429 . S
C783 C784 1.523 . S
C784 C765 1.368 . S
C784 C778 1.368 . S
C784 C783 1.523 . S
C785 C769 1.429 . S
C785 C781 1.429 . S
C785 C786 1.523 . S
C786 C770 1.368 . S
C786 C782 1.368 . S
C786 C785 1.523 . S
H787 C762 0.950 . S
H788 C764 0.950 . S
H789 C765 0.949 . S
H790 C767 0.950 . S
H791 C769 0.950 . S
C792 C793 1.349 . S
C792 C794 1.327 . S
C792 H817 0.950 . S
C793 C792 1.349 . S
C793 C809 1.349 . S
C794 C792 1.327 . S
C794 C813 1.429 . S
C794 H818 0.950 . S
C795 C812 1.574 . S
C795 C814 1.368 . S
C795 H819 0.949 . S
H796 C800 0.949 . S
C797 C798 1.349 . S
C797 C799 1.327 . S
C797 H820 0.950 . S
C798 C797 1.349 . S
C798 C810 1.349 . S
C799 C797 1.327 . S
C799 C815 1.429 . S
C799 H821 0.950 . S
C800 H796 0.949 . S
C800 C808 1.574 . S
C800 C816 1.368 . S
H801 C809 0.950 . S
H802 C807 0.950 . S
H803 C808 0.949 . S
H804 C810 0.950 . S
H805 C811 0.950 . S
H806 C812 0.949 . S
C807 H802 0.950 . S
C807 C809 1.327 . S
C807 C813 1.429 . S
C808 C800 1.574 . S
C808 H803 0.949 . S
C808 C814 1.368 . S
C809 C793 1.349 . S
C809 H801 0.950 . S
C809 C807 1.327 . S
C810 C798 1.349 . S
C810 H804 0.950 . S
C810 C811 1.327 . S
C811 H805 0.950 . S
C811 C810 1.327 . S
C811 C815 1.429 . S
C812 C795 1.574 . S
C812 H806 0.949 . S
C812 C816 1.368 . S
C813 C794 1.429 . S
C813 C807 1.429 . S
C813 C814 1.523 . S
C814 C795 1.368 . S
C814 C808 1.368 . S
C814 C813 1.523 . S
C815 C799 1.429 . S
C815 C811 1.429 . S
C815 C816 1.523 . S
C816 C800 1.368 . S
C816 C812 1.368 . S
C816 C815 1.523 . S
H817 C792 0.950 . S
H818 C794 0.950 . S
H819 C795 0.949 . S
H820 C797 0.950 . S
H821 C799 0.950 . S
C822 C823 1.349 . S
C822 C824 1.327 . S
C822 H847 0.950 . S
C823 C822 1.349 . S
C823 C839 1.349 . S
C824 C822 1.327 . S
C824 C843 1.429 . S
C824 H848 0.950 . S
C825 C842 1.574 . S
C825 C844 1.368 . S
C825 H849 0.949 . S
H826 C830 0.949 . S
C827 C828 1.349 . S
C827 C829 1.327 . S
C827 H850 0.950 . S
C828 C827 1.349 . S
C828 C840 1.349 . S
C829 C827 1.327 . S
C829 C845 1.429 . S
C829 H851 0.950 . S
C830 H826 0.949 . S
C830 C838 1.574 . S
C830 C846 1.368 . S
H831 C839 0.950 . S
H832 C837 0.950 . S
H833 C838 0.949 . S
H834 C840 0.950 . S
H835 C841 0.950 . S
H836 C842 0.949 . S
C837 H832 0.950 . S
C837 C839 1.327 . S
C837 C843 1.429 . S
C838 C830 1.574 . S
C838 H833 0.949 . S
C838 C844 1.368 . S
C839 C823 1.349 . S
C839 H831 0.950 . S
C839 C837 1.327 . S
C840 C828 1.349 . S
C840 H834 0.950 . S
C840 C841 1.327 . S
C841 H835 0.950 . S
C841 C840 1.327 . S
C841 C845 1.429 . S
C842 C825 1.574 . S
C842 H836 0.949 . S
C842 C846 1.368 . S
C843 C824 1.429 . S
C843 C837 1.429 . S
C843 C844 1.523 . S
C844 C825 1.368 . S
C844 C838 1.368 . S
C844 C843 1.523 . S
C845 C829 1.429 . S
C845 C841 1.429 . S
C845 C846 1.523 . S
C846 C830 1.368 . S
C846 C842 1.368 . S
C846 C845 1.523 . S
H847 C822 0.950 . S
H848 C824 0.950 . S
H849 C825 0.949 . S
H850 C827 0.950 . S
H851 C829 0.950 . S
C852 C853 1.349 . S
C852 C854 1.327 . S
C852 H877 0.950 . S
C853 C852 1.349 . S
C853 C869 1.349 . S
C854 C852 1.327 . S
C854 C873 1.429 . S
C854 H878 0.950 . S
C855 C872 1.574 . S
C855 C874 1.368 . S
C855 H879 0.949 . S
H856 C860 0.949 . S
C857 C858 1.349 . S
C857 C859 1.327 . S
C857 H880 0.950 . S
C858 C857 1.349 . S
C858 C870 1.349 . S
C859 C857 1.327 . S
C859 C875 1.429 . S
C859 H881 0.950 . S
C860 H856 0.949 . S
C860 C868 1.574 . S
C860 C876 1.368 . S
H861 C869 0.950 . S
H862 C867 0.950 . S
H863 C868 0.949 . S
H864 C870 0.950 . S
H865 C871 0.950 . S
H866 C872 0.949 . S
C867 H862 0.950 . S
C867 C869 1.327 . S
C867 C873 1.429 . S
C868 C860 1.574 . S
C868 H863 0.949 . S
C868 C874 1.368 . S
C869 C853 1.349 . S
C869 H861 0.950 . S
C869 C867 1.327 . S
C870 C858 1.349 . S
C870 H864 0.950 . S
C870 C871 1.327 . S
C871 H865 0.950 . S
C871 C870 1.327 . S
C871 C875 1.429 . S
C872 C855 1.574 . S
C872 H866 0.949 . S
C872 C876 1.368 . S
C873 C854 1.429 . S
C873 C867 1.429 . S
C873 C874 1.523 . S
C874 C855 1.368 . S
C874 C868 1.368 . S
C874 C873 1.523 . S
C875 C859 1.429 . S
C875 C871 1.429 . S
C875 C876 1.523 . S
C876 C860 1.368 . S
C876 C872 1.368 . S
C876 C875 1.523 . S
H877 C852 0.950 . S
H878 C854 0.950 . S
H879 C855 0.949 . S
H880 C857 0.950 . S
H881 C859 0.950 . S
C882 C883 1.349 . S
C882 C884 1.327 . S
C882 H907 0.950 . S
C883 C882 1.349 . S
C883 C899 1.349 . S
C884 C882 1.327 . S
C884 C903 1.429 . S
C884 H908 0.950 . S
C885 C902 1.574 . S
C885 C904 1.368 . S
C885 H909 0.949 . S
H886 C890 0.949 . S
C887 C888 1.349 . S
C887 C889 1.327 . S
C887 H910 0.950 . S
C888 C887 1.349 . S
C888 C900 1.349 . S
C889 C887 1.327 . S
C889 C905 1.429 . S
C889 H911 0.950 . S
C890 H886 0.949 . S
C890 C898 1.574 . S
C890 C906 1.368 . S
H891 C899 0.950 . S
H892 C897 0.950 . S
H893 C898 0.949 . S
H894 C900 0.950 . S
H895 C901 0.950 . S
H896 C902 0.949 . S
C897 H892 0.950 . S
C897 C899 1.327 . S
C897 C903 1.429 . S
C898 C890 1.574 . S
C898 H893 0.949 . S
C898 C904 1.368 . S
C899 C883 1.349 . S
C899 H891 0.950 . S
C899 C897 1.327 . S
C900 C888 1.349 . S
C900 H894 0.950 . S
C900 C901 1.327 . S
C901 H895 0.950 . S
C901 C900 1.327 . S
C901 C905 1.429 . S
C902 C885 1.574 . S
C902 H896 0.949 . S
C902 C906 1.368 . S
C903 C884 1.429 . S
C903 C897 1.429 . S
C903 C904 1.523 . S
C904 C885 1.368 . S
C904 C898 1.368 . S
C904 C903 1.523 . S
C905 C889 1.429 . S
C905 C901 1.429 . S
C905 C906 1.523 . S
C906 C890 1.368 . S
C906 C902 1.368 . S
C906 C905 1.523 . S
H907 C882 0.950 . S
H908 C884 0.950 . S
H909 C885 0.949 . S
H910 C887 0.950 . S
H911 C889 0.950 . S
C912 C913 1.349 . S
C912 C914 1.327 . S
C912 H937 0.950 . S
C913 C912 1.349 . S
C913 C929 1.349 . S
C914 C912 1.327 . S
C914 C933 1.429 . S
C914 H938 0.950 . S
C915 C932 1.574 . S
C915 C934 1.368 . S
C915 H939 0.949 . S
H916 C920 0.949 . S
C917 C918 1.349 . S
C917 C919 1.327 . S
C917 H940 0.950 . S
C918 C917 1.349 . S
C918 C930 1.349 . S
C919 C917 1.327 . S
C919 C935 1.429 . S
C919 H941 0.950 . S
C920 H916 0.949 . S
C920 C928 1.574 . S
C920 C936 1.368 . S
H921 C929 0.950 . S
H922 C927 0.950 . S
H923 C928 0.949 . S
H924 C930 0.950 . S
H925 C931 0.950 . S
H926 C932 0.949 . S
C927 H922 0.950 . S
C927 C929 1.327 . S
C927 C933 1.429 . S
C928 C920 1.574 . S
C928 H923 0.949 . S
C928 C934 1.368 . S
C929 C913 1.349 . S
C929 H921 0.950 . S
C929 C927 1.327 . S
C930 C918 1.349 . S
C930 H924 0.950 . S
C930 C931 1.327 . S
C931 H925 0.950 . S
C931 C930 1.327 . S
C931 C935 1.429 . S
C932 C915 1.574 . S
C932 H926 0.949 . S
C932 C936 1.368 . S
C933 C914 1.429 . S
C933 C927 1.429 . S
C933 C934 1.523 . S
C934 C915 1.368 . S
C934 C928 1.368 . S
C934 C933 1.523 . S
C935 C919 1.429 . S
C935 C931 1.429 . S
C935 C936 1.523 . S
C936 C920 1.368 . S
C936 C932 1.368 . S
C936 C935 1.523 . S
H937 C912 0.950 . S
H938 C914 0.950 . S
H939 C915 0.949 . S
H940 C917 0.950 . S
H941 C919 0.950 . S
C942 C943 1.349 . S
C942 C944 1.327 . S
C942 H967 0.950 . S
C943 C942 1.349 . S
C943 C959 1.349 . S
C944 C942 1.327 . S
C944 C963 1.429 . S
C944 H968 0.950 . S
C945 C962 1.574 . S
C945 C964 1.368 . S
C945 H969 0.949 . S
H946 C950 0.949 . S
C947 C948 1.349 . S
C947 C949 1.327 . S
C947 H970 0.950 . S
C948 C947 1.349 . S
C948 C960 1.349 . S
C949 C947 1.327 . S
C949 C965 1.429 . S
C949 H971 0.950 . S
C950 H946 0.949 . S
C950 C958 1.574 . S
C950 C966 1.368 . S
H951 C959 0.950 . S
H952 C957 0.950 . S
H953 C958 0.949 . S
H954 C960 0.950 . S
H955 C961 0.950 . S
H956 C962 0.949 . S
C957 H952 0.950 . S
C957 C959 1.327 . S
C957 C963 1.429 . S
C958 C950 1.574 . S
C958 H953 0.949 . S
C958 C964 1.368 . S
C959 C943 1.349 . S
C959 H951 0.950 . S
C959 C957 1.327 . S
C960 C948 1.349 . S
C960 H954 0.950 . S
C960 C961 1.327 . S
C961 H955 0.950 . S
C961 C960 1.327 . S
C961 C965 1.429 . S
C962 C945 1.574 . S
C962 H956 0.949 . S
C962 C966 1.368 . S
C963 C944 1.429 . S
C963 C957 1.429 . S
C963 C964 1.523 . S
C964 C945 1.368 . S
C964 C958 1.368 . S
C964 C963 1.523 . S
C965 C949 1.429 . S
C965 C961 1.429 . S
C965 C966 1.523 . S
C966 C950 1.368 . S
C966 C962 1.368 . S
C966 C965 1.523 . S
H967 C942 0.950 . S
H968 C944 0.950 . S
H969 C945 0.949 . S
H970 C947 0.950 . S
H971 C949 0.950 . S
C972 C973 1.349 . S
C972 C974 1.327 . S
C972 H997 0.950 . S
C973 C972 1.349 . S
C973 C989 1.349 . S
C974 C972 1.327 . S
C974 C993 1.429 . S
C974 H998 0.950 . S
C975 C992 1.574 . S
C975 C994 1.368 . S
C975 H999 0.949 . S
H976 C980 0.949 . S
C977 C978 1.349 . S
C977 C979 1.327 . S
C977 H1000 0.950 . S
C978 C977 1.349 . S
C978 C990 1.349 . S
C979 C977 1.327 . S
C979 C995 1.429 . S
C979 H1001 0.950 . S
C980 H976 0.949 . S
C980 C988 1.574 . S
C980 C996 1.368 . S
H981 C989 0.950 . S
H982 C987 0.950 . S
H983 C988 0.949 . S
H984 C990 0.950 . S
H985 C991 0.950 . S
H986 C992 0.949 . S
C987 H982 0.950 . S
C987 C989 1.327 . S
C987 C993 1.429 . S
C988 C980 1.574 . S
C988 H983 0.949 . S
C988 C994 1.368 . S
C989 C973 1.349 . S
C989 H981 0.950 . S
C989 C987 1.327 . S
C990 C978 1.349 . S
C990 H984 0.950 . S
C990 C991 1.327 . S
C991 H985 0.950 . S
C991 C990 1.327 . S
C991 C995 1.429 . S
C992 C975 1.574 . S
C992 H986 0.949 . S
C992 C996 1.368 . S
C993 C974 1.429 . S
C993 C987 1.429 . S
C993 C994 1.523 . S
C994 C975 1.368 . S
C994 C988 1.368 . S
C994 C993 1.523 . S
C995 C979 1.429 . S
C995 C991 1.429 . S
C995 C996 1.523 . S
C996 C980 1.368 . S
C996 C992 1.368 . S
C996 C995 1.523 . S
H997 C972 0.950 . S
H998 C974 0.950 . S
H999 C975 0.949 . S
H1000 C977 0.950 . S
H1001 C979 0.950 . S
C1002 C1003 1.349 . S
C1002 C1004 1.327 . S
C1002 H1027 0.950 . S
C1003 C1002 1.349 . S
C1003 C1019 1.349 . S
C1004 C1002 1.327 . S
C1004 C1023 1.429 . S
C1004 H1028 0.950 . S
C1005 C1022 1.574 . S
C1005 C1024 1.368 . S
C1005 H1029 0.949 . S
H1006 C1010 0.949 . S
C1007 C1008 1.349 . S
C1007 C1009 1.327 . S
C1007 H1030 0.950 . S
C1008 C1007 1.349 . S
C1008 C1020 1.349 . S
C1009 C1007 1.327 . S
C1009 C1025 1.429 . S
C1009 H1031 0.950 . S
C1010 H1006 0.949 . S
C1010 C1018 1.574 . S
C1010 C1026 1.368 . S
H1011 C1019 0.950 . S
H1012 C1017 0.950 . S
H1013 C1018 0.949 . S
H1014 C1020 0.950 . S
H1015 C1021 0.950 . S
H1016 C1022 0.949 . S
C1017 H1012 0.950 . S
C1017 C1019 1.327 . S
C1017 C1023 1.429 . S
C1018 C1010 1.574 . S
C1018 H1013 0.949 . S
C1018 C1024 1.368 . S
C1019 C1003 1.349 . S
C1019 H1011 0.950 . S
C1019 C1017 1.327 . S
C1020 C1008 1.349 . S
C1020 H1014 0.950 . S
C1020 C1021 1.327 . S
C1021 H1015 0.950 . S
C1021 C1020 1.327 . S
C1021 C1025 1.429 . S
C1022 C1005 1.574 . S
C1022 H1016 0.949 . S
C1022 C1026 1.368 . S
C1023 C1004 1.429 . S
C1023 C1017 1.429 . S
C1023 C1024 1.523 . S
C1024 C1005 1.368 . S
C1024 C1018 1.368 . S
C1024 C1023 1.523 . S
C1025 C1009 1.429 . S
C1025 C1021 1.429 . S
C1025 C1026 1.523 . S
C1026 C1010 1.368 . S
C1026 C1022 1.368 . S
C1026 C1025 1.523 . S
H1027 C1002 0.950 . S
H1028 C1004 0.950 . S
H1029 C1005 0.949 . S
H1030 C1007 0.950 . S
H1031 C1009 0.950 . S
C1032 C1033 1.349 . S
C1032 C1034 1.327 . S
C1032 H1057 0.950 . S
C1033 C1032 1.349 . S
C1033 C1049 1.349 . S
C1034 C1032 1.327 . S
C1034 C1053 1.429 . S
C1034 H1058 0.950 . S
C1035 C1052 1.574 . S
C1035 C1054 1.368 . S
C1035 H1059 0.949 . S
H1036 C1040 0.949 . S
C1037 C1038 1.349 . S
C1037 C1039 1.327 . S
C1037 H1060 0.950 . S
C1038 C1037 1.349 . S
C1038 C1050 1.349 . S
C1039 C1037 1.327 . S
C1039 C1055 1.429 . S
C1039 H1061 0.950 . S
C1040 H1036 0.949 . S
C1040 C1048 1.574 . S
C1040 C1056 1.368 . S
H1041 C1049 0.950 . S
H1042 C1047 0.950 . S
H1043 C1048 0.949 . S
H1044 C1050 0.950 . S
H1045 C1051 0.950 . S
H1046 C1052 0.949 . S
C1047 H1042 0.950 . S
C1047 C1049 1.327 . S
C1047 C1053 1.429 . S
C1048 C1040 1.574 . S
C1048 H1043 0.949 . S
C1048 C1054 1.368 . S
C1049 C1033 1.349 . S
C1049 H1041 0.950 . S
C1049 C1047 1.327 . S
C1050 C1038 1.349 . S
C1050 H1044 0.950 . S
C1050 C1051 1.327 . S
C1051 H1045 0.950 . S
C1051 C1050 1.327 . S
C1051 C1055 1.429 . S
C1052 C1035 1.574 . S
C1052 H1046 0.949 . S
C1052 C1056 1.368 . S
C1053 C1034 1.429 . S
C1053 C1047 1.429 . S
C1053 C1054 1.523 . S
C1054 C1035 1.368 . S
C1054 C1048 1.368 . S
C1054 C1053 1.523 . S
C1055 C1039 1.429 . S
C1055 C1051 1.429 . S
C1055 C1056 1.523 . S
C1056 C1040 1.368 . S
C1056 C1052 1.368 . S
C1056 C1055 1.523 . S
H1057 C1032 0.950 . S
H1058 C1034 0.950 . S
H1059 C1035 0.949 . S
H1060 C1037 0.950 . S
H1061 C1039 0.950 . S
C1062 C1063 1.349 . S
C1062 C1064 1.327 . S
C1062 H1087 0.950 . S
C1063 C1062 1.349 . S
C1063 C1079 1.349 . S
C1064 C1062 1.327 . S
C1064 C1083 1.429 . S
C1064 H1088 0.950 . S
C1065 C1082 1.574 . S
C1065 C1084 1.368 . S
C1065 H1089 0.949 . S
H1066 C1070 0.949 . S
C1067 C1068 1.349 . S
C1067 C1069 1.327 . S
C1067 H1090 0.950 . S
C1068 C1067 1.349 . S
C1068 C1080 1.349 . S
C1069 C1067 1.327 . S
C1069 C1085 1.429 . S
C1069 H1091 0.950 . S
C1070 H1066 0.949 . S
C1070 C1078 1.574 . S
C1070 C1086 1.368 . S
H1071 C1079 0.950 . S
H1072 C1077 0.950 . S
H1073 C1078 0.949 . S
H1074 C1080 0.950 . S
H1075 C1081 0.950 . S
H1076 C1082 0.949 . S
C1077 H1072 0.950 . S
C1077 C1079 1.327 . S
C1077 C1083 1.429 . S
C1078 C1070 1.574 . S
C1078 H1073 0.949 . S
C1078 C1084 1.368 . S
C1079 C1063 1.349 . S
C1079 H1071 0.950 . S
C1079 C1077 1.327 . S
C1080 C1068 1.349 . S
C1080 H1074 0.950 . S
C1080 C1081 1.327 . S
C1081 H1075 0.950 . S
C1081 C1080 1.327 . S
C1081 C1085 1.429 . S
C1082 C1065 1.574 . S
C1082 H1076 0.949 . S
C1082 C1086 1.368 . S
C1083 C1064 1.429 . S
C1083 C1077 1.429 . S
C1083 C1084 1.523 . S
C1084 C1065 1.368 . S
C1084 C1078 1.368 . S
C1084 C1083 1.523 . S
C1085 C1069 1.429 . S
C1085 C1081 1.429 . S
C1085 C1086 1.523 . S
C1086 C1070 1.368 . S
C1086 C1082 1.368 . S
C1086 C1085 1.523 . S
H1087 C1062 0.950 . S
H1088 C1064 0.950 . S
H1089 C1065 0.949 . S
H1090 C1067 0.950 . S
H1091 C1069 0.950 . S
C373 C13 1.737 . S
C378 C105 1.718 . S
C403 C27 1.732 . S
C408 C162 1.728 . S
C438 C216 1.699 . S
C433 C29 1.737 . S
C468 C273 1.674 . S
C463 C54 1.732 . S
C498 C297 1.718 . S
C493 C69 1.737 . S
C528 C354 1.729 . S
C523 C83 1.732 . S
C553 C15 1.737 . S
C558 C201 1.718 . S
C583 C41 1.733 . S
C588 C258 1.729 . S
C618 C312 1.699 . S
C613 C42 1.737 . S
C648 C369 1.673 . S
C643 C57 1.732 . S
C673 C71 1.738 . S
C678 C120 1.699 . S
C708 C177 1.674 . S
C703 C1 1.732 . S
C738 C264 1.718 . S
C733 C12 1.737 . S
C763 C26 1.732 . S
C768 C306 1.674 . S
C798 C345 1.699 . S
C793 C28 1.737 . S
C823 C55 1.732 . S
C828 C114 1.673 . S
C853 C68 1.738 . S
C858 C153 1.699 . S
C883 C82 1.732 . S
C888 C225 1.728 . S
C913 C14 1.737 . S
C918 C360 1.718 . S
C948 C129 1.728 . S
C943 C40 1.732 . S
C973 C43 1.738 . S
C978 C168 1.718 . S
C1003 C56 1.732 . S
C1008 C210 1.674 . S
C1033 C70 1.737 . S
C1038 C249 1.699 . S
C1063 C0 1.732 . S
C1068 C321 1.728 . S
