# Generated by pormake.
# Topology rtl, (3,6)-cn, num edge types: 1
# Building blocks:
#     Node 0, Type 0, BuildingBlock: ESEHIV_clean_linker_0, # of connection points: 3
#     Node 1, Type 0, BuildingBlock: ESEHIV_clean_linker_0, # of connection points: 3
#     Node 2, Type 0, BuildingBlock: ESEHIV_clean_linker_0, # of connection points: 3
#     Node 3, Type 0, BuildingBlock: ESEHIV_clean_linker_0, # of connection points: 3
#     Node 4, Type 1, BuildingBlock: KUMBUR_clean_sbu_1, # of connection points: 6
#     Node 5, Type 1, BuildingBlock: KUMBUR_clean_sbu_1, # of connection points: 6
#     Edge 6, Type (0, 1), BuildingBlock: XUDNAN_clean_linker_2, # of connection points: 2
#     Edge 7, Type (0, 1), BuildingBlock: XUDNAN_clean_linker_2, # of connection points: 2
#     Edge 8, Type (0, 1), BuildingBlock: XUDNAN_clean_linker_2, # of connection points: 2
#     Edge 9, Type (0, 1), BuildingBlock: XUDNAN_clean_linker_2, # of connection points: 2
#     Edge 10, Type (0, 1), BuildingBlock: XUDNAN_clean_linker_2, # of connection points: 2
#     Edge 11, Type (0, 1), BuildingBlock: XUDNAN_clean_linker_2, # of connection points: 2
#     Edge 12, Type (0, 1), BuildingBlock: XUDNAN_clean_linker_2, # of connection points: 2
#     Edge 13, Type (0, 1), BuildingBlock: XUDNAN_clean_linker_2, # of connection points: 2
#     Edge 14, Type (0, 1), BuildingBlock: XUDNAN_clean_linker_2, # of connection points: 2
#     Edge 15, Type (0, 1), BuildingBlock: XUDNAN_clean_linker_2, # of connection points: 2
#     Edge 16, Type (0, 1), BuildingBlock: XUDNAN_clean_linker_2, # of connection points: 2
#     Edge 17, Type (0, 1), BuildingBlock: XUDNAN_clean_linker_2, # of connection points: 2
# Relax obj value: 0.018
# Max RMSD: 0.117
# Mean RMSD: 0.069
data_MOF--net-rtl--node1-KUMBUR_clean_sbu_1--node2-ESEHIV_clean_linker_0--edge1-XUDNAN_clean_linker_2
_symmetry_space_group_name_H-M    P1
_symmetry_Int_Tables_number       1
_symmetry_cell_setting            triclinic
loop_
_symmetry_equiv_pos_as_xyz
'x, y, z'
_cell_length_a     30.652444
_cell_length_b     31.438471
_cell_length_c     27.864268
_cell_angle_alpha  77.427895
_cell_angle_beta   99.245504
_cell_angle_gamma 90.789998
loop_
_atom_site_label
_atom_site_type_symbol
_atom_site_fract_x
_atom_site_fract_y
_atom_site_fract_z
_atom_type_partial_charge
H0 H 0.15105 0.8882 0.01279 0.0
H1 H 0.23847 0.78028 0.09251 0.0
H2 H 0.22173 0.81859 0.93283 0.0
C3 C 0.17505 0.86302 0.01352 0.0
C4 C 0.18476 0.85675 0.96809 0.0
C5 C 0.19444 0.83602 0.05914 0.0
C6 C 0.22341 0.80171 0.05812 0.0
C7 C 0.23232 0.7943 0.01253 0.0
C8 C 0.21363 0.82275 0.96802 0.0
H9 H 0.64658 0.64322 0.64122 0.0
H10 H 0.74712 0.72054 0.57494 0.0
H11 H 0.7241 0.72804 0.7215 0.0
C12 C 0.67257 0.66683 0.64305 0.0
C13 C 0.68294 0.68384 0.68607 0.0
C14 C 0.69585 0.67947 0.6029 0.0
C15 C 0.72939 0.71019 0.606 0.0
C16 C 0.73988 0.72816 0.64846 0.0
C17 C 0.71696 0.71407 0.68887 0.0
H18 H 0.87437 0.13544 0.0645 0.0
H19 H 0.8035 0.19528 0.1525 0.0
H20 H 0.77276 0.23279 0.99238 0.0
C21 C 0.84924 0.15881 0.06583 0.0
C22 C 0.82551 0.18444 0.02171 0.0
C23 C 0.8411 0.16279 0.11253 0.0
C24 C 0.8079 0.19143 0.11585 0.0
C25 C 0.78212 0.21637 0.07283 0.0
C26 C 0.79154 0.21298 0.02572 0.0
H27 H 0.38396 0.36711 0.44802 0.0
H28 H 0.3054 0.27524 0.53387 0.0
H29 H 0.30203 0.27809 0.37827 0.0
C30 C 0.3611 0.34038 0.45065 0.0
C31 C 0.34502 0.32446 0.40799 0.0
C32 C 0.34682 0.32293 0.49619 0.0
C33 C 0.31674 0.28873 0.49889 0.0
C34 C 0.30067 0.27199 0.45683 0.0
C35 C 0.31487 0.29015 0.41127 0.0
Tb36 Tb 0.02708 0.96012 0.51888 0.0
C37 C 0.90542 0.11257 0.46571 0.0
N38 N 0.94783 0.11512 0.48772 0.0
C39 C 0.95783 0.17895 0.4256 0.0
C40 C 0.88749 0.14306 0.4222 0.0
C41 C 0.9739 0.14838 0.46921 0.0
C42 C 0.91448 0.17617 0.40182 0.0
C43 C 0.83485 0.07738 0.46738 0.0
C44 C 0.87981 0.07984 0.48777 0.0
C45 C 0.81688 0.10716 0.42352 0.0
C46 C 0.84311 0.14006 0.40114 0.0
Tb47 Tb 0.97162 0.06358 0.55828 0.0
N48 N 0.89803 0.05261 0.53112 0.0
C49 C 0.8087 0.0466 0.49309 0.0
C50 C 0.87102 0.0264 0.55904 0.0
C51 C 0.82667 0.02166 0.53968 0.0
H52 H 0.00748 0.15054 0.48754 0.0
H53 H 0.80605 0.99968 0.5614 0.0
H54 H 0.94251 0.90415 0.47956 0.0
H55 H 0.18688 0.90421 0.62415 0.0
H56 H 0.88284 0.00961 0.5969 0.0
H57 H 0.77408 0.04355 0.47864 0.0
H58 H 0.13323 0.95694 0.56557 0.0
H59 H 0.97881 0.20471 0.41048 0.0
H60 H 0.78245 0.10573 0.40733 0.0
H61 H 0.82855 0.16346 0.36801 0.0
H62 H 0.91521 0.82913 0.50167 0.0
H63 H 0.90198 0.20007 0.36823 0.0
H64 H 0.16239 0.83093 0.66189 0.0
N65 N 0.99866 0.89237 0.53664 0.0
C66 C 0.02349 0.86248 0.57273 0.0
C67 C 0.945 0.83842 0.52299 0.0
C68 C 0.00912 0.81952 0.58703 0.0
C69 C 0.96065 0.88072 0.51034 0.0
C70 C 0.96868 0.80798 0.56242 0.0
N71 N 0.07887 0.91461 0.57308 0.0
C72 C 0.12239 0.92515 0.58258 0.0
C73 C 0.0947 0.84264 0.62432 0.0
C74 C 0.06544 0.87388 0.59129 0.0
C75 C 0.13871 0.85412 0.63692 0.0
C76 C 0.15271 0.89542 0.61557 0.0
H77 H 0.95659 0.77516 0.57186 0.0
H78 H 0.0262 0.7559 0.63501 0.0
H79 H 0.10134 0.77616 0.66763 0.0
O80 O 0.05362 0.98781 0.45423 0.0
O81 O 0.05151 0.96652 0.59568 0.0
O82 O 0.01934 0.02563 0.618 0.0
O83 O 0.04557 0.91858 0.47538 0.0
O84 O 0.06903 0.01684 0.52168 0.0
O85 O 0.0407 0.07532 0.54889 0.0
O86 O 0.93676 0.08553 0.60846 0.0
O87 O 0.98621 0.06066 0.48459 0.0
O88 O 0.967 0.99319 0.47439 0.0
O89 O 0.98953 0.1221 0.57981 0.0
O90 O 0.95791 0.99658 0.59569 0.0
O91 O 0.95893 0.96504 0.52999 0.0
C92 C 0.04649 0.99154 0.62701 0.0
C93 C 0.0421 0.94862 0.38992 0.0
C94 C 0.05702 0.93048 0.31329 0.0
C95 C 0.0149 0.94698 0.28935 0.0
C96 C 0.99937 0.96287 0.36619 0.0
C97 C 0.98615 0.96275 0.31589 0.0
C98 C 0.0706 0.93169 0.36361 0.0
C99 C 0.07179 0.05578 0.53281 0.0
C100 C 0.0574 0.9504 0.44217 0.0
C101 C 0.0368 0.78899 0.62302 0.0
C102 C 0.07962 0.80052 0.64156 0.0
C103 C 0.96661 0.0353 0.45671 0.0
C104 C 0.97998 0.12565 0.66133 0.0
C105 C 0.96707 0.14258 0.74003 0.0
C106 C 0.01305 0.14771 0.75242 0.0
C107 C 0.02565 0.12984 0.67563 0.0
C108 C 0.95097 0.13131 0.694 0.0
C109 C 0.04192 0.14071 0.72088 0.0
C110 C 0.9502 0.96302 0.57475 0.0
C111 C 0.9621 0.11854 0.61116 0.0
H112 H 1.00375 0.94632 0.25061 0.0
H113 H 0.97623 0.97359 0.38663 0.0
H114 H 0.95335 0.97432 0.29763 0.0
H115 H 0.10327 0.91946 0.38221 0.0
H116 H 0.02713 0.15798 0.7861 0.0
H117 H 0.04886 0.12559 0.65146 0.0
H118 H 0.91595 0.12703 0.68313 0.0
H119 H 0.0771 0.14459 0.73116 0.0
Tb120 Tb 0.47549 0.47385 1.00378 0.0
C121 C 0.64684 0.57118 0.07428 0.0
N122 N 0.62812 0.53496 0.09839 0.0
C123 C 0.69962 0.50004 0.12607 0.0
C124 C 0.69285 0.57301 0.07467 0.0
C125 C 0.65384 0.49987 0.12497 0.0
C126 C 0.71922 0.53669 0.1007 0.0
C127 C 0.63752 0.64431 0.02245 0.0
C128 C 0.61956 0.6064 0.04851 0.0
C129 C 0.68342 0.6465 0.02324 0.0
C130 C 0.711 0.6109 0.04913 0.0
Tb131 Tb 0.5532 0.5392 0.09383 0.0
N132 N 0.57513 0.60262 0.04741 0.0
C133 C 0.60875 0.67871 0.99612 0.0
C134 C 0.54707 0.63669 0.0233 0.0
C135 C 0.56338 0.67494 0.99679 0.0
H136 H 0.63934 0.47205 0.14637 0.0
H137 H 0.54095 0.70162 0.97712 0.0
H138 H 0.37236 0.50898 0.99156 0.0
H139 H 0.54489 0.30979 0.06858 0.0
H140 H 0.51216 0.63475 0.0243 0.0
H141 H 0.62123 0.70835 0.97545 0.0
H142 H 0.53909 0.38467 0.01786 0.0
H143 H 0.71982 0.47206 0.14694 0.0
H144 H 0.69787 0.6754 1.00348 0.0
H145 H 0.7463 0.61295 0.04902 0.0
H146 H 0.30369 0.48256 0.02321 0.0
H147 H 0.75472 0.53677 0.10181 0.0
H148 H 0.48693 0.2822 0.11917 0.0
N149 N 0.40994 0.45181 0.02936 0.0
C150 C 0.40986 0.41126 0.05883 0.0
C151 C 0.33337 0.46223 0.03361 0.0
C152 C 0.37174 0.39497 0.07816 0.0
C153 C 0.3722 0.47711 0.0157 0.0
C154 C 0.33325 0.42116 0.06542 0.0
N155 N 0.48299 0.40225 0.04626 0.0
C156 C 0.51537 0.37425 0.04253 0.0
C157 C 0.44862 0.34262 0.09612 0.0
C158 C 0.44808 0.38593 0.06844 0.0
C159 C 0.48519 0.31572 0.09842 0.0
C160 C 0.51803 0.33121 0.07009 0.0
H161 H 0.30322 0.40984 0.07948 0.0
H162 H 0.34446 0.34009 0.12479 0.0
H163 H 0.41167 0.29391 0.13996 0.0
O164 O 0.4886 0.44469 0.94613 0.0
O165 O 0.455 0.48295 0.07287 0.0
O166 O 0.51911 0.48139 0.1287 0.0
O167 O 0.42672 0.47736 0.94046 0.0
O168 O 0.54736 0.46082 0.02347 0.0
O169 O 0.56257 0.46906 0.10419 0.0
O170 O 0.53135 0.58166 0.13416 0.0
O171 O 0.56842 0.54396 0.01763 0.0
O172 O 0.50262 0.53455 0.9677 0.0
O173 O 0.59072 0.54294 0.16318 0.0
O174 O 0.48492 0.56475 0.06708 0.0
O175 O 0.45565 0.54227 0.99385 0.0
C176 C 0.47654 0.47453 0.11864 0.0
C177 C 0.42647 0.41862 0.90065 0.0
C178 C 0.40115 0.38527 0.82998 0.0
C179 C 0.38113 0.35246 0.86174 0.0
C180 C 0.40655 0.38551 0.93167 0.0
C181 C 0.38403 0.35259 0.91224 0.0
C182 C 0.42397 0.41825 0.85005 0.0
C183 C 0.57105 0.45111 0.06832 0.0
C184 C 0.4496 0.4541 0.92001 0.0
C185 C 0.3732 0.35303 0.10892 0.0
C186 C 0.41158 0.32685 0.11785 0.0
C187 C 0.54259 0.55007 0.97398 0.0
C188 C 0.55027 0.56024 0.22179 0.0
C189 C 0.56501 0.56601 0.30917 0.0
C190 C 0.52608 0.54306 0.31698 0.0
C191 C 0.51152 0.5377 0.23044 0.0
C192 C 0.57685 0.57433 0.26115 0.0
C193 C 0.49959 0.52917 0.27782 0.0
C194 C 0.45557 0.5677 0.026 0.0
C195 C 0.56309 0.57016 0.17185 0.0
H196 H 0.36258 0.32704 0.8475 0.0
H197 H 0.40814 0.38519 0.97067 0.0
H198 H 0.36845 0.32727 0.93631 0.0
H199 H 0.44009 0.44358 0.82649 0.0
H200 H 0.51623 0.53548 0.35346 0.0
H201 H 0.49035 0.52711 0.2005 0.0
H202 H 0.6063 0.5925 0.25399 0.0
H203 H 0.46955 0.51186 0.28414 0.0
H204 H 0.22553 0.26501 0.49976 0.0
H205 H 0.30551 0.19619 0.42482 0.0
H206 H 0.25706 0.13251 0.43875 0.0
H207 H 0.20379 0.17397 0.59381 0.0
H208 H 0.14748 0.19041 0.59278 0.0
H209 H 0.1878 0.23092 0.57625 0.0
H210 H 0.13832 0.26074 0.49116 0.0
H211 H 0.09764 0.22062 0.50767 0.0
H212 H 0.1199 0.22402 0.45092 0.0
H213 H 0.2021 0.0754 0.46428 0.0
H214 H 0.14011 0.03124 0.49127 0.0
H215 H 0.09415 0.13798 0.54807 0.0
C216 C 0.23272 0.23654 0.48617 0.0
C217 C 0.26936 0.23537 0.46133 0.0
C218 C 0.27744 0.19781 0.44357 0.0
C219 C 0.25031 0.16144 0.45165 0.0
C220 C 0.21498 0.16335 0.4771 0.0
C221 C 0.2057 0.20016 0.49346 0.0
C222 C 0.16514 0.19409 0.51891 0.0
C223 C 0.17677 0.19755 0.57369 0.0
C224 C 0.12806 0.22681 0.49046 0.0
C225 C 0.15327 0.14793 0.51474 0.0
C226 C 0.18265 0.13075 0.49081 0.0
C227 C 0.17875 0.08861 0.4828 0.0
C228 C 0.14335 0.06368 0.49856 0.0
C229 C 0.11185 0.08095 0.52187 0.0
C230 C 0.11747 0.12359 0.53052 0.0
H231 H 0.30976 0.75978 0.07424 0.0
H232 H 0.21646 0.74213 0.94548 0.0
H233 H 0.26416 0.68393 0.93473 0.0
H234 H 0.40824 0.74113 0.02951 0.0
H235 H 0.43678 0.71037 0.08819 0.0
H236 H 0.39524 0.75065 0.0872 0.0
H237 H 0.3525 0.69246 0.14147 0.0
H238 H 0.39423 0.65212 0.1431 0.0
H239 H 0.33703 0.64282 0.12134 0.0
H240 H 0.32346 0.6321 0.93331 0.0
H241 H 0.38739 0.58223 0.94743 0.0
H242 H 0.44068 0.62777 0.0812 0.0
C243 C 0.29906 0.74323 0.04427 0.0
C244 C 0.25972 0.75631 0.01007 0.0
C245 C 0.24702 0.73372 0.97131 0.0
C246 C 0.27375 0.70037 0.965 0.0
C247 C 0.31282 0.68921 0.99829 0.0
C248 C 0.3252 0.70924 0.03774 0.0
C249 C 0.36881 0.69018 0.06835 0.0
C250 C 0.40436 0.72518 0.06829 0.0
C251 C 0.36277 0.66808 0.12173 0.0
C252 C 0.37906 0.65691 0.03936 0.0
C253 C 0.34638 0.65728 0.99892 0.0
C254 C 0.34896 0.63089 0.96534 0.0
C255 C 0.38554 0.6026 0.97378 0.0
C256 C 0.41887 0.60029 0.01599 0.0
C257 C 0.41563 0.62828 0.04888 0.0
H258 H 0.75124 0.79765 0.57309 0.0
H259 H 0.80538 0.73657 0.72584 0.0
H260 H 0.86376 0.79188 0.72525 0.0
H261 H 0.84878 0.81681 0.53129 0.0
H262 H 0.83706 0.87013 0.49093 0.0
H263 H 0.79309 0.83253 0.50207 0.0
H264 H 0.74863 0.88375 0.53606 0.0
H265 H 0.78829 0.92528 0.52063 0.0
H266 H 0.77552 0.91104 0.583 0.0
H267 H 0.9176 0.85396 0.70654 0.0
H268 H 0.96297 0.91508 0.67034 0.0
H269 H 0.87574 0.93127 0.52869 0.0
C270 C 0.77527 0.79588 0.60654 0.0
C271 C 0.7738 0.76258 0.64948 0.0
C272 C 0.8056 0.76193 0.69263 0.0
C273 C 0.83893 0.79317 0.69259 0.0
C274 C 0.83982 0.82508 0.64925 0.0
C275 C 0.80852 0.82677 0.60717 0.0
C276 C 0.81764 0.86298 0.56459 0.0
C277 C 0.82464 0.84459 0.51951 0.0
C278 C 0.7803 0.89781 0.55025 0.0
C279 C 0.85983 0.8806 0.58863 0.0
C280 C 0.87163 0.85907 0.63785 0.0
C281 C 0.90865 0.87092 0.66804 0.0
C282 C 0.93412 0.90564 0.64735 0.0
C283 C 0.92287 0.92736 0.59685 0.0
C284 C 0.88529 0.91465 0.56729 0.0
H285 H 0.75275 0.29682 0.01201 0.0
H286 H 0.72948 0.20429 0.1457 0.0
H287 H 0.67811 0.25668 0.16171 0.0
H288 H 0.74481 0.39477 0.0542 0.0
H289 H 0.71388 0.42513 0.9967 0.0
H290 H 0.75088 0.38136 0.99588 0.0
H291 H 0.68681 0.34363 0.94941 0.0
H292 H 0.6499 0.38774 0.94937 0.0
H293 H 0.63658 0.33237 0.9754 0.0
H294 H 0.63333 0.32082 0.16722 0.0
H295 H 0.58592 0.38695 0.1523 0.0
H296 H 0.62945 0.43387 0.0099 0.0
C297 C 0.7365 0.28708 0.04428 0.0
C298 C 0.74674 0.24657 0.07837 0.0
C299 C 0.72412 0.23564 0.11999 0.0
C300 C 0.69446 0.26512 0.12936 0.0
C301 C 0.68643 0.30512 0.09607 0.0
C302 C 0.70566 0.31569 0.05357 0.0
C303 C 0.68892 0.35991 0.0223 0.0
C304 C 0.7269 0.39219 0.01697 0.0
C305 C 0.66407 0.35564 0.97109 0.0
C306 C 0.65769 0.3725 0.05421 0.0
C307 C 0.65753 0.34079 0.09714 0.0
C308 C 0.63273 0.34568 0.13346 0.0
C309 C 0.60628 0.38344 0.12494 0.0
C310 C 0.604 0.41509 0.07991 0.0
C311 C 0.63048 0.40983 0.04445 0.0
H312 H 0.17243 0.91337 0.08231 0.0
H313 H 0.18775 0.77406 0.14496 0.0
H314 H 0.16274 0.78505 0.22103 0.0
H315 H 0.19922 0.95236 0.19746 0.0
H316 H 0.15648 0.99421 0.17834 0.0
H317 H 0.18273 0.97671 0.13229 0.0
H318 H 0.10619 0.95923 0.0869 0.0
H319 H 0.07975 0.9767 0.13269 0.0
H320 H 0.07037 0.92283 0.12112 0.0
H321 H 0.1312 0.81049 0.28862 0.0
H322 H 0.09007 0.84728 0.33831 0.0
H323 H 0.08713 0.96764 0.22687 0.0
C324 C 0.17063 0.88491 0.11175 0.0
C325 C 0.18254 0.84277 0.10707 0.0
C326 C 0.18011 0.80691 0.14749 0.0
C327 C 0.16557 0.81275 0.19097 0.0
C328 C 0.15303 0.85454 0.19349 0.0
C329 C 0.15506 0.88993 0.15471 0.0
C330 C 0.13534 0.93064 0.16426 0.0
C331 C 0.17055 0.96554 0.16834 0.0
C332 C 0.09555 0.94837 0.12385 0.0
C333 C 0.12105 0.91244 0.21408 0.0
C334 C 0.1325 0.86871 0.23092 0.0
C335 C 0.12224 0.84473 0.27587 0.0
C336 C 0.09903 0.86583 0.30386 0.0
C337 C 0.08563 0.91012 0.28624 0.0
C338 C 0.09714 0.93373 0.24104 0.0
H339 H 0.71051 0.64458 0.78485 0.0
H340 H 0.59437 0.69475 0.67745 0.0
H341 H 0.54723 0.67117 0.74201 0.0
H342 H 0.65985 0.54904 0.84256 0.0
H343 H 0.68795 0.54783 0.90485 0.0
H344 H 0.71365 0.57261 0.85214 0.0
H345 H 0.72118 0.64569 0.88232 0.0
H346 H 0.69752 0.61906 0.93584 0.0
H347 H 0.67304 0.6693 0.89708 0.0
H348 H 0.51228 0.63866 0.81495 0.0
H349 H 0.49028 0.59685 0.89231 0.0
H350 H 0.62814 0.56553 0.95476 0.0
C351 C 0.67524 0.65125 0.77547 0.0
C352 C 0.65591 0.6718 0.72641 0.0
C353 C 0.60963 0.67916 0.71489 0.0
C354 C 0.58269 0.66604 0.75132 0.0
C355 C 0.60251 0.64536 0.79914 0.0
C356 C 0.64765 0.6378 0.81146 0.0
C357 C 0.65975 0.61183 0.86477 0.0
C358 C 0.68158 0.56772 0.86613 0.0
C359 C 0.68962 0.63811 0.89688 0.0
C360 C 0.61433 0.60584 0.88024 0.0
C361 C 0.58197 0.62575 0.84169 0.0
C362 C 0.53729 0.62318 0.84554 0.0
C363 C 0.52514 0.59913 0.88964 0.0
C364 C 0.55744 0.57779 0.92958 0.0
C365 C 0.60275 0.58185 0.92507 0.0
H366 H 0.81655 0.10306 0.19005 0.0
H367 H 0.92919 0.17227 0.13825 0.0
H368 H 0.97557 0.14199 0.21958 0.0
H369 H 0.83446 0.11884 0.30728 0.0
H370 H 0.82018 0.06565 0.34025 0.0
H371 H 0.79615 0.08594 0.27617 0.0
H372 H 0.82371 0.01969 0.25084 0.0
H373 H 0.84852 0.99639 0.31419 0.0
H374 H 0.88141 0.00444 0.26491 0.0
H375 H 0.00583 0.11391 0.30907 0.0
H376 H 0.02119 0.0828 0.39968 0.0
H377 H 0.89078 0.02717 0.39301 0.0
C378 C 0.85129 0.11077 0.19566 0.0
C379 C 0.86965 0.1397 0.1583 0.0
C380 C 0.91494 0.14974 0.16657 0.0
C381 C 0.94139 0.13276 0.21252 0.0
C382 C 0.92214 0.10505 0.24918 0.0
C383 C 0.87842 0.09321 0.24092 0.0
C384 C 0.86546 0.06434 0.28731 0.0
C385 C 0.82679 0.08493 0.30382 0.0
C386 C 0.85415 0.01848 0.27885 0.0
C387 C 0.90805 0.06374 0.32371 0.0
C388 C 0.94035 0.08726 0.30072 0.0
C389 C 0.98128 0.09449 0.32726 0.0
C390 C 0.98961 0.077 0.3786 0.0
C391 C 0.95738 0.05217 0.40261 0.0
C392 C 0.9162 0.04523 0.3749 0.0
H393 H 0.37293 0.2786 0.59258 0.0
H394 H 0.35221 0.40918 0.50024 0.0
H395 H 0.36916 0.43993 0.57542 0.0
H396 H 0.32099 0.29699 0.68929 0.0
H397 H 0.35877 0.2632 0.73869 0.0
H398 H 0.3498 0.25171 0.6774 0.0
H399 H 0.43392 0.25655 0.6748 0.0
H400 H 0.44323 0.26776 0.73633 0.0
H401 H 0.46271 0.30483 0.68559 0.0
H402 H 0.38094 0.45585 0.66132 0.0
H403 H 0.38934 0.45597 0.75083 0.0
H404 H 0.40398 0.31484 0.78668 0.0
C405 C 0.37242 0.31369 0.58813 0.0
C406 C 0.36136 0.34153 0.54059 0.0
C407 C 0.36122 0.38728 0.53625 0.0
C408 C 0.37059 0.40502 0.57874 0.0
C409 C 0.38036 0.37656 0.62517 0.0
C410 C 0.38176 0.33189 0.63004 0.0
C411 C 0.39108 0.30832 0.68422 0.0
C412 C 0.35288 0.2783 0.6982 0.0
C413 C 0.43538 0.28287 0.69591 0.0
C414 C 0.39359 0.34666 0.70917 0.0
C415 C 0.38759 0.38575 0.67453 0.0
C416 C 0.38643 0.42547 0.6888 0.0
C417 C 0.39144 0.42519 0.73981 0.0
C418 C 0.39759 0.38544 0.77603 0.0
C419 C 0.39903 0.3458 0.76014 0.0
H420 H 0.6134 0.66555 0.55341 0.0
H421 H 0.7534 0.65161 0.54964 0.0
H422 H 0.73541 0.62149 0.47414 0.0
H423 H 0.58001 0.56631 0.51421 0.0
H424 H 0.52878 0.5896 0.47718 0.0
H425 H 0.55274 0.61023 0.53075 0.0
H426 H 0.55194 0.68809 0.47544 0.0
H427 H 0.52799 0.66771 0.4217 0.0
H428 H 0.57869 0.69741 0.42109 0.0
H429 H 0.70197 0.59214 0.3992 0.0
H430 H 0.65579 0.5664 0.33049 0.0
H431 H 0.53761 0.60039 0.38268 0.0
C432 C 0.64032 0.65582 0.53699 0.0
C433 C 0.68488 0.661 0.55755 0.0
C434 C 0.71904 0.64845 0.53433 0.0
C435 C 0.70914 0.63109 0.49157 0.0
C436 C 0.6649 0.62648 0.4723 0.0
C437 C 0.63104 0.63853 0.49423 0.0
C438 C 0.58626 0.63052 0.46592 0.0
C439 C 0.56043 0.59718 0.49899 0.0
C440 C 0.55967 0.67349 0.44478 0.0
C441 C 0.6002 0.61194 0.42474 0.0
C442 C 0.64569 0.60986 0.42907 0.0
C443 C 0.6663 0.5938 0.39535 0.0
C444 C 0.63974 0.57949 0.3562 0.0
C445 C 0.59296 0.58137 0.35088 0.0
C446 C 0.5732 0.59792 0.38585 0.0
H447 H 0.9073 0.16532 1.00093 0.0
H448 H 0.77142 0.19722 0.92909 0.0
H449 H 0.79239 0.19155 0.84879 0.0
H450 H 0.96269 0.21643 0.90324 0.0
H451 H 1.00347 0.17319 0.91408 0.0
H452 H 0.97833 0.18296 0.9649 0.0
H453 H 0.95337 0.10273 0.9836 0.0
H454 H 0.97872 0.09259 0.93308 0.0
H455 H 0.9211 0.08122 0.9346 0.0
H456 H 0.83037 0.18432 0.77492 0.0
H457 H 0.87917 0.17145 0.71717 0.0
H458 H 0.9851 0.13091 0.84272 0.0
C459 C 0.88126 0.1703 0.96897 0.0
C460 C 0.83741 0.18166 0.97225 0.0
C461 C 0.80546 0.18932 0.92813 0.0
C462 C 0.81696 0.18576 0.88219 0.0
C463 C 0.86032 0.17367 0.88095 0.0
C464 C 0.89168 0.16542 0.9235 0.0
C465 C 0.93542 0.15076 0.91333 0.0
C466 C 0.97213 0.18275 0.92455 0.0
C467 C 0.94786 0.10405 0.9429 0.0
C468 C 0.9241 0.15257 0.8581 0.0
C469 C 0.8809 0.1664 0.83977 0.0
C470 C 0.86403 0.1727 0.78915 0.0
C471 C 0.89211 0.1648 0.75658 0.0
C472 C 0.93652 0.14982 0.77472 0.0
C473 C 0.95198 0.14313 0.82659 0.0
H474 H 0.42792 0.33426 0.38161 0.0
H475 H 0.28913 0.3651 0.32567 0.0
H476 H 0.30857 0.40871 0.24707 0.0
H477 H 0.4709 0.43526 0.33062 0.0
H478 H 0.51856 0.41462 0.31181 0.0
H479 H 0.49565 0.38343 0.36387 0.0
H480 H 0.48481 0.31675 0.32369 0.0
H481 H 0.50993 0.34605 0.27237 0.0
H482 H 0.45592 0.3234 0.26074 0.0
H483 H 0.34299 0.45346 0.17842 0.0
H484 H 0.38919 0.48821 0.11707 0.0
H485 H 0.50599 0.42363 0.21263 0.0
C486 C 0.40174 0.34989 0.35244 0.0
C487 C 0.357 0.34647 0.35938 0.0
C488 C 0.32348 0.36717 0.32069 0.0
C489 C 0.33426 0.39217 0.27618 0.0
C490 C 0.37868 0.39552 0.27072 0.0
C491 C 0.41188 0.3742 0.3072 0.0
C492 C 0.45684 0.38235 0.29091 0.0
C493 C 0.4873 0.40529 0.32639 0.0
C494 C 0.47812 0.33959 0.28668 0.0
C495 C 0.44372 0.41225 0.24001 0.0
C496 C 0.39847 0.41963 0.22953 0.0
C497 C 0.37832 0.44713 0.18573 0.0
C498 C 0.40484 0.46648 0.15093 0.0
C499 C 0.45091 0.45743 0.15923 0.0
C500 C 0.47077 0.43072 0.20498 0.0
H501 H 0.14508 0.83129 0.88409 0.0
H502 H 0.1783 0.9459 0.94428 0.0
H503 H 0.14771 0.99305 0.86267 0.0
H504 H 0.17124 0.87243 0.76128 0.0
H505 H 0.12535 0.84454 0.73353 0.0
H506 H 0.15107 0.82314 0.79658 0.0
H507 H 0.07213 0.82467 0.82086 0.0
H508 H 0.04885 0.84907 0.75737 0.0
H509 H 0.0418 0.8758 0.80673 0.0
H510 H 0.11459 0.02731 0.77439 0.0
H511 H 0.07889 0.04662 0.68631 0.0
H512 H 0.06862 0.90943 0.68338 0.0
C513 C 0.14597 0.86634 0.88 0.0
C514 C 0.16426 0.88509 0.92024 0.0
C515 C 0.16419 0.931 0.91388 0.0
C516 C 0.14713 0.95795 0.86769 0.0
C517 C 0.13003 0.93837 0.82851 0.0
C518 C 0.12891 0.89363 0.83435 0.0
C519 C 0.10832 0.88074 0.78659 0.0
C520 C 0.14105 0.85368 0.76843 0.0
C521 C 0.06522 0.85612 0.79331 0.0
C522 C 0.09914 0.92527 0.75238 0.0
C523 C 0.11149 0.95807 0.7775 0.0
C524 C 0.10492 1.00193 0.75433 0.0
C525 C 0.08462 0.01257 0.70437 0.0
C526 C 0.07146 0.97953 0.67802 0.0
C527 C 0.07929 0.93534 0.70227 0.0
loop_
_geom_bond_atom_site_label_1
_geom_bond_atom_site_label_2
_geom_bond_distance
_geom_bond_site_symmetry_2
_ccdc_geom_bond_type
H0 C3 0.931 . S
H1 C6 0.928 . S
H2 C8 0.930 . S
C3 H0 0.931 . S
C3 C4 1.413 1_554 S
C3 C5 1.360 . S
C4 C3 1.413 1_556 S
C4 C8 1.429 . S
C5 C3 1.360 . S
C5 C6 1.372 . S
C6 H1 0.928 . S
C6 C5 1.372 . S
C6 C7 1.404 . S
C7 C6 1.404 . S
C7 C8 1.391 1_554 S
C8 H2 0.930 . S
C8 C4 1.429 . S
C8 C7 1.391 1_556 S
H9 C12 0.931 . S
H10 C15 0.928 . S
H11 C17 0.930 . S
C12 H9 0.931 . S
C12 C13 1.413 . S
C12 C14 1.360 . S
C13 C12 1.413 . S
C13 C17 1.429 . S
C14 C12 1.360 . S
C14 C15 1.372 . S
C15 H10 0.928 . S
C15 C14 1.372 . S
C15 C16 1.404 . S
C16 C15 1.404 . S
C16 C17 1.391 . S
C17 H11 0.930 . S
C17 C13 1.429 . S
C17 C16 1.391 . S
H18 C21 0.931 . S
H19 C24 0.928 . S
H20 C26 0.930 1_556 S
C21 H18 0.931 . S
C21 C22 1.413 . S
C21 C23 1.360 . S
C22 C21 1.413 . S
C22 C26 1.429 . S
C23 C21 1.360 . S
C23 C24 1.372 . S
C24 H19 0.928 . S
C24 C23 1.372 . S
C24 C25 1.404 . S
C25 C24 1.404 . S
C25 C26 1.391 . S
C26 H20 0.930 1_554 S
C26 C22 1.429 . S
C26 C25 1.391 . S
H27 C30 0.931 . S
H28 C33 0.928 . S
H29 C35 0.930 . S
C30 H27 0.931 . S
C30 C31 1.413 . S
C30 C32 1.360 . S
C31 C30 1.413 . S
C31 C35 1.429 . S
C32 C30 1.360 . S
C32 C33 1.372 . S
C33 H28 0.928 . S
C33 C32 1.372 . S
C33 C34 1.404 . S
C34 C33 1.404 . S
C34 C35 1.391 . S
C35 H29 0.930 . S
C35 C31 1.429 . S
C35 C34 1.391 . S
Tb36 N65 2.617 . S
Tb36 N71 2.572 . S
Tb36 O80 2.465 . S
Tb36 O81 2.387 . S
Tb36 O83 2.428 . S
Tb36 O84 2.308 1_565 S
Tb36 O88 2.346 1_465 S
Tb36 O91 2.393 1_455 S
Tb36 C100 2.802 . S
C37 N38 1.379 . S
C37 C40 1.416 . S
C37 C44 1.424 . S
N38 C37 1.379 . S
N38 C41 1.334 . S
N38 Tb47 2.617 . S
C39 C41 1.390 . S
C39 C42 1.339 . S
C39 H59 0.930 1_655 S
C40 C37 1.416 . S
C40 C42 1.416 . S
C40 C46 1.448 . S
C41 N38 1.334 . S
C41 C39 1.390 . S
C41 H52 0.930 1_655 S
C42 C39 1.339 . S
C42 C40 1.416 . S
C42 H63 0.930 . S
C43 C44 1.413 . S
C43 C45 1.427 . S
C43 C49 1.416 . S
C44 C37 1.424 . S
C44 C43 1.413 . S
C44 N48 1.361 . S
C45 C43 1.427 . S
C45 C46 1.328 . S
C45 H60 0.929 . S
C46 C40 1.448 . S
C46 C45 1.328 . S
C46 H61 0.930 . S
Tb47 N38 2.617 . S
Tb47 N48 2.572 . S
Tb47 O82 2.349 1_655 S
Tb47 O85 2.393 1_655 S
Tb47 O86 2.465 . S
Tb47 O87 2.387 . S
Tb47 O89 2.428 . S
Tb47 O90 2.308 1_545 S
Tb47 C111 2.802 . S
N48 C44 1.361 . S
N48 Tb47 2.572 . S
N48 C50 1.340 . S
C49 C43 1.416 . S
C49 C51 1.332 . S
C49 H57 0.931 . S
C50 N48 1.340 . S
C50 C51 1.407 . S
C50 H56 0.930 . S
C51 C49 1.332 . S
C51 C50 1.407 . S
C51 H53 0.929 . S
H52 C41 0.930 1_455 S
H53 C51 0.929 . S
H54 C69 0.930 1_655 S
H55 C76 0.929 . S
H56 C50 0.930 . S
H57 C49 0.931 . S
H58 C72 0.930 . S
H59 C39 0.930 1_455 S
H60 C45 0.929 . S
H61 C46 0.930 . S
H62 C67 0.930 1_655 S
H63 C42 0.930 . S
H64 C75 0.931 . S
N65 Tb36 2.617 . S
N65 C66 1.379 . S
N65 C69 1.334 . S
C66 N65 1.379 . S
C66 C68 1.416 . S
C66 C74 1.424 . S
C67 H62 0.930 1_455 S
C67 C69 1.390 . S
C67 C70 1.339 . S
C68 C66 1.416 . S
C68 C70 1.416 . S
C68 C101 1.448 . S
C69 H54 0.930 1_455 S
C69 N65 1.334 . S
C69 C67 1.390 . S
C70 C67 1.339 . S
C70 C68 1.416 . S
C70 H77 0.930 . S
N71 Tb36 2.572 . S
N71 C72 1.340 . S
N71 C74 1.361 . S
C72 H58 0.930 . S
C72 N71 1.340 . S
C72 C76 1.407 . S
C73 C74 1.413 . S
C73 C75 1.416 . S
C73 C102 1.427 . S
C74 C66 1.424 . S
C74 N71 1.361 . S
C74 C73 1.413 . S
C75 H64 0.931 . S
C75 C73 1.416 . S
C75 C76 1.332 . S
C76 H55 0.929 . S
C76 C72 1.407 . S
C76 C75 1.332 . S
H77 C70 0.930 . S
H78 C101 0.930 . S
H79 C102 0.929 . S
O80 Tb36 2.465 . S
O80 C100 1.264 . S
O81 Tb36 2.387 . S
O81 C92 1.264 . S
O82 Tb47 2.349 1_455 S
O82 C92 1.243 1_545 S
O83 Tb36 2.428 . S
O83 C100 1.256 . S
O84 Tb36 2.308 1_545 S
O84 C99 1.266 . S
O85 Tb47 2.393 1_455 S
O85 C99 1.248 . S
O86 Tb47 2.465 . S
O86 C111 1.264 . S
O87 Tb47 2.387 . S
O87 C103 1.264 . S
O88 Tb36 2.346 1_645 S
O88 C103 1.248 . S
O89 Tb47 2.428 . S
O89 C111 1.256 . S
O90 Tb47 2.308 1_565 S
O90 C110 1.266 . S
O91 Tb36 2.393 1_655 S
O91 C110 1.248 . S
C92 O81 1.264 . S
C92 O82 1.243 1_565 S
C93 C96 1.399 . S
C93 C98 1.383 . S
C93 C100 1.496 . S
C94 C95 1.399 . S
C94 C98 1.389 . S
C95 C94 1.399 . S
C95 C97 1.380 . S
C95 H112 0.929 . S
C96 C93 1.399 . S
C96 C97 1.392 . S
C96 H113 0.929 . S
C97 C95 1.380 . S
C97 C96 1.392 . S
C97 H114 0.929 . S
C98 C93 1.383 . S
C98 C94 1.389 . S
C98 H115 0.931 . S
C99 O84 1.266 . S
C99 O85 1.248 . S
C100 Tb36 2.802 . S
C100 O80 1.264 . S
C100 O83 1.256 . S
C100 C93 1.496 . S
C101 C68 1.448 . S
C101 H78 0.930 . S
C101 C102 1.328 . S
C102 C73 1.427 . S
C102 H79 0.929 . S
C102 C101 1.328 . S
C103 O87 1.264 . S
C103 O88 1.248 . S
C104 C107 1.399 . S
C104 C108 1.383 . S
C104 C111 1.496 . S
C105 C106 1.399 . S
C105 C108 1.389 . S
C106 C105 1.399 . S
C106 C109 1.380 . S
C106 H116 0.929 . S
C107 C104 1.399 . S
C107 C109 1.392 . S
C107 H117 0.929 . S
C108 C104 1.383 . S
C108 C105 1.389 . S
C108 H118 0.931 . S
C109 C106 1.380 . S
C109 C107 1.392 . S
C109 H119 0.929 . S
C110 O90 1.266 . S
C110 O91 1.248 . S
C111 Tb47 2.802 . S
C111 O86 1.264 . S
C111 O89 1.256 . S
C111 C104 1.496 . S
H112 C95 0.929 . S
H113 C96 0.929 . S
H114 C97 0.929 . S
H115 C98 0.931 . S
H116 C106 0.929 . S
H117 C107 0.929 . S
H118 C108 0.931 . S
H119 C109 0.929 . S
Tb120 N149 2.618 1_556 S
Tb120 N155 2.572 1_556 S
Tb120 O164 2.465 . S
Tb120 O165 2.387 1_556 S
Tb120 O167 2.428 . S
Tb120 O168 2.308 1_556 S
Tb120 O172 2.349 . S
Tb120 O175 2.393 1_556 S
Tb120 C184 2.802 . S
C121 N122 1.379 . S
C121 C124 1.416 . S
C121 C128 1.424 . S
N122 C121 1.379 . S
N122 C125 1.334 . S
N122 Tb131 2.617 . S
C123 C125 1.390 . S
C123 C126 1.339 . S
C123 H143 0.930 . S
C124 C121 1.416 . S
C124 C126 1.416 . S
C124 C130 1.448 . S
C125 N122 1.334 . S
C125 C123 1.390 . S
C125 H136 0.930 . S
C126 C123 1.339 . S
C126 C124 1.416 . S
C126 H147 0.930 . S
C127 C128 1.413 . S
C127 C129 1.427 . S
C127 C133 1.416 . S
C128 C121 1.424 . S
C128 C127 1.413 . S
C128 N132 1.361 . S
C129 C127 1.427 . S
C129 C130 1.328 . S
C129 H144 0.929 . S
C130 C124 1.448 . S
C130 C129 1.328 . S
C130 H145 0.930 . S
Tb131 N122 2.617 . S
Tb131 N132 2.572 . S
Tb131 O166 2.349 . S
Tb131 O169 2.393 . S
Tb131 O170 2.465 . S
Tb131 O171 2.387 . S
Tb131 O173 2.428 . S
Tb131 O174 2.308 . S
Tb131 C195 2.802 . S
N132 C128 1.361 . S
N132 Tb131 2.572 . S
N132 C134 1.340 . S
C133 C127 1.416 . S
C133 C135 1.332 . S
C133 H141 0.931 . S
C134 N132 1.340 . S
C134 C135 1.407 . S
C134 H140 0.930 . S
C135 C133 1.332 . S
C135 C134 1.407 . S
C135 H137 0.929 . S
H136 C125 0.930 . S
H137 C135 0.929 . S
H138 C153 0.930 . S
H139 C160 0.929 . S
H140 C134 0.930 . S
H141 C133 0.931 . S
H142 C156 0.930 . S
H143 C123 0.930 . S
H144 C129 0.929 . S
H145 C130 0.930 . S
H146 C151 0.930 . S
H147 C126 0.930 . S
H148 C159 0.931 . S
N149 Tb120 2.618 1_554 S
N149 C150 1.379 . S
N149 C153 1.334 1_554 S
C150 N149 1.379 . S
C150 C152 1.416 . S
C150 C158 1.424 . S
C151 H146 0.930 . S
C151 C153 1.390 . S
C151 C154 1.339 1_556 S
C152 C150 1.416 . S
C152 C154 1.416 . S
C152 C185 1.448 . S
C153 H138 0.930 . S
C153 N149 1.334 1_556 S
C153 C151 1.390 . S
C154 C151 1.339 1_554 S
C154 C152 1.416 . S
C154 H161 0.930 . S
N155 Tb120 2.572 1_554 S
N155 C156 1.340 . S
N155 C158 1.361 . S
C156 H142 0.930 . S
C156 N155 1.340 . S
C156 C160 1.407 . S
C157 C158 1.413 . S
C157 C159 1.416 . S
C157 C186 1.427 . S
C158 C150 1.424 . S
C158 N155 1.361 . S
C158 C157 1.413 . S
C159 H148 0.931 . S
C159 C157 1.416 . S
C159 C160 1.332 . S
C160 H139 0.929 . S
C160 C156 1.407 . S
C160 C159 1.332 . S
H161 C154 0.930 . S
H162 C185 0.930 . S
H163 C186 0.929 . S
O164 Tb120 2.465 . S
O164 C184 1.264 . S
O165 Tb120 2.387 1_554 S
O165 C176 1.264 . S
O166 Tb131 2.349 . S
O166 C176 1.243 . S
O167 Tb120 2.428 . S
O167 C184 1.256 . S
O168 Tb120 2.308 1_554 S
O168 C183 1.266 . S
O169 Tb131 2.393 . S
O169 C183 1.248 . S
O170 Tb131 2.465 . S
O170 C195 1.264 . S
O171 Tb131 2.387 . S
O171 C187 1.264 1_554 S
O172 Tb120 2.349 . S
O172 C187 1.243 . S
O173 Tb131 2.428 . S
O173 C195 1.256 . S
O174 Tb131 2.308 . S
O174 C194 1.266 . S
O175 Tb120 2.393 1_554 S
O175 C194 1.248 . S
C176 O165 1.264 . S
C176 O166 1.243 . S
C177 C180 1.399 . S
C177 C182 1.383 . S
C177 C184 1.496 . S
C178 C179 1.399 . S
C178 C182 1.389 . S
C179 C178 1.399 . S
C179 C181 1.380 . S
C179 H196 0.929 . S
C180 C177 1.399 . S
C180 C181 1.392 . S
C180 H197 0.929 . S
C181 C179 1.380 . S
C181 C180 1.392 . S
C181 H198 0.929 . S
C182 C177 1.383 . S
C182 C178 1.389 . S
C182 H199 0.931 . S
C183 O168 1.266 . S
C183 O169 1.248 . S
C184 Tb120 2.802 . S
C184 O164 1.264 . S
C184 O167 1.256 . S
C184 C177 1.496 . S
C185 C152 1.448 . S
C185 H162 0.930 . S
C185 C186 1.328 . S
C186 C157 1.427 . S
C186 H163 0.929 . S
C186 C185 1.328 . S
C187 O171 1.264 1_556 S
C187 O172 1.243 . S
C188 C191 1.399 . S
C188 C192 1.383 . S
C188 C195 1.496 . S
C189 C190 1.399 . S
C189 C192 1.389 . S
C190 C189 1.399 . S
C190 C193 1.380 . S
C190 H200 0.929 . S
C191 C188 1.399 . S
C191 C193 1.392 . S
C191 H201 0.929 . S
C192 C188 1.383 . S
C192 C189 1.389 . S
C192 H202 0.931 . S
C193 C190 1.380 . S
C193 C191 1.392 . S
C193 H203 0.929 . S
C194 O174 1.266 . S
C194 O175 1.248 . S
C195 Tb131 2.802 . S
C195 O170 1.264 . S
C195 O173 1.256 . S
C195 C188 1.496 . S
H196 C179 0.929 . S
H197 C180 0.929 . S
H198 C181 0.929 . S
H199 C182 0.931 . S
H200 C190 0.929 . S
H201 C191 0.929 . S
H202 C192 0.931 . S
H203 C193 0.929 . S
H204 C216 0.930 . S
H205 C218 0.930 . S
H206 C219 0.930 . S
H207 C223 0.959 . S
H208 C223 0.959 . S
H209 C223 0.961 . S
H210 C224 0.960 . S
H211 C224 0.961 . S
H212 C224 0.959 . S
H213 C227 0.929 . S
H214 C228 0.931 . S
H215 C230 0.930 . S
C216 H204 0.930 . S
C216 C217 1.399 . S
C216 C221 1.399 . S
C217 C216 1.399 . S
C217 C218 1.376 . S
C218 H205 0.930 . S
C218 C217 1.376 . S
C218 C219 1.388 . S
C219 H206 0.930 . S
C219 C218 1.388 . S
C219 C220 1.390 . S
C220 C219 1.390 . S
C220 C221 1.394 . S
C220 C226 1.465 . S
C221 C216 1.399 . S
C221 C220 1.394 . S
C221 C222 1.516 . S
C222 C221 1.516 . S
C222 C223 1.502 . S
C222 C224 1.561 . S
C222 C225 1.526 . S
C223 H207 0.959 . S
C223 H208 0.959 . S
C223 H209 0.961 . S
C223 C222 1.502 . S
C224 H210 0.960 . S
C224 H211 0.961 . S
C224 H212 0.959 . S
C224 C222 1.561 . S
C225 C222 1.526 . S
C225 C226 1.396 . S
C225 C230 1.390 . S
C226 C220 1.465 . S
C226 C225 1.396 . S
C226 C227 1.399 . S
C227 H213 0.929 . S
C227 C226 1.399 . S
C227 C228 1.385 . S
C228 H214 0.931 . S
C228 C227 1.385 . S
C228 C229 1.389 . S
C229 C228 1.389 . S
C229 C230 1.387 . S
C230 H215 0.930 . S
C230 C225 1.390 . S
C230 C229 1.387 . S
H231 C243 0.930 . S
H232 C245 0.930 . S
H233 C246 0.930 . S
H234 C250 0.959 . S
H235 C250 0.959 . S
H236 C250 0.961 . S
H237 C251 0.960 . S
H238 C251 0.961 . S
H239 C251 0.959 . S
H240 C254 0.929 . S
H241 C255 0.931 . S
H242 C257 0.930 . S
C243 H231 0.930 . S
C243 C244 1.399 . S
C243 C248 1.399 . S
C244 C243 1.399 . S
C244 C245 1.376 1_554 S
C245 H232 0.930 . S
C245 C244 1.376 1_556 S
C245 C246 1.388 . S
C246 H233 0.930 . S
C246 C245 1.388 . S
C246 C247 1.390 1_556 S
C247 C246 1.390 1_554 S
C247 C248 1.394 . S
C247 C253 1.465 . S
C248 C243 1.399 . S
C248 C247 1.394 . S
C248 C249 1.516 . S
C249 C248 1.516 . S
C249 C250 1.502 . S
C249 C251 1.561 . S
C249 C252 1.526 . S
C250 H234 0.959 . S
C250 H235 0.959 . S
C250 H236 0.961 . S
C250 C249 1.502 . S
C251 H237 0.960 . S
C251 H238 0.961 . S
C251 H239 0.959 . S
C251 C249 1.561 . S
C252 C249 1.526 . S
C252 C253 1.396 . S
C252 C257 1.390 . S
C253 C247 1.465 . S
C253 C252 1.396 . S
C253 C254 1.399 1_554 S
C254 H240 0.929 . S
C254 C253 1.399 1_556 S
C254 C255 1.385 . S
C255 H241 0.931 . S
C255 C254 1.385 . S
C255 C256 1.389 1_556 S
C256 C255 1.389 1_554 S
C256 C257 1.387 . S
C257 H242 0.930 . S
C257 C252 1.390 . S
C257 C256 1.387 . S
H258 C270 0.930 . S
H259 C272 0.930 . S
H260 C273 0.930 . S
H261 C277 0.959 . S
H262 C277 0.959 . S
H263 C277 0.961 . S
H264 C278 0.960 . S
H265 C278 0.961 . S
H266 C278 0.959 . S
H267 C281 0.929 . S
H268 C282 0.931 . S
H269 C284 0.930 . S
C270 H258 0.930 . S
C270 C271 1.399 . S
C270 C275 1.399 . S
C271 C270 1.399 . S
C271 C272 1.376 . S
C272 H259 0.930 . S
C272 C271 1.376 . S
C272 C273 1.388 . S
C273 H260 0.930 . S
C273 C272 1.388 . S
C273 C274 1.390 . S
C274 C273 1.390 . S
C274 C275 1.394 . S
C274 C280 1.465 . S
C275 C270 1.399 . S
C275 C274 1.394 . S
C275 C276 1.516 . S
C276 C275 1.516 . S
C276 C277 1.502 . S
C276 C278 1.561 . S
C276 C279 1.526 . S
C277 H261 0.959 . S
C277 H262 0.959 . S
C277 H263 0.961 . S
C277 C276 1.502 . S
C278 H264 0.960 . S
C278 H265 0.961 . S
C278 H266 0.959 . S
C278 C276 1.561 . S
C279 C276 1.526 . S
C279 C280 1.396 . S
C279 C284 1.390 . S
C280 C274 1.465 . S
C280 C279 1.396 . S
C280 C281 1.399 . S
C281 H267 0.929 . S
C281 C280 1.399 . S
C281 C282 1.385 . S
C282 H268 0.931 . S
C282 C281 1.385 . S
C282 C283 1.389 . S
C283 C282 1.389 . S
C283 C284 1.387 . S
C284 H269 0.930 . S
C284 C279 1.390 . S
C284 C283 1.387 . S
H285 C297 0.930 1_556 S
H286 C299 0.930 . S
H287 C300 0.930 . S
H288 C304 0.959 . S
H289 C304 0.959 . S
H290 C304 0.961 . S
H291 C305 0.960 . S
H292 C305 0.961 . S
H293 C305 0.959 . S
H294 C308 0.929 . S
H295 C309 0.931 . S
H296 C311 0.930 1_556 S
C297 H285 0.930 1_554 S
C297 C298 1.399 . S
C297 C302 1.399 . S
C298 C297 1.399 . S
C298 C299 1.376 . S
C299 H286 0.930 . S
C299 C298 1.376 . S
C299 C300 1.388 . S
C300 H287 0.930 . S
C300 C299 1.388 . S
C300 C301 1.390 . S
C301 C300 1.390 . S
C301 C302 1.394 . S
C301 C307 1.465 . S
C302 C297 1.399 . S
C302 C301 1.394 . S
C302 C303 1.516 1_554 S
C303 C302 1.516 1_556 S
C303 C304 1.502 . S
C303 C305 1.561 . S
C303 C306 1.526 1_556 S
C304 H288 0.959 . S
C304 H289 0.959 . S
C304 H290 0.961 . S
C304 C303 1.502 . S
C305 H291 0.960 . S
C305 H292 0.961 . S
C305 H293 0.959 . S
C305 C303 1.561 . S
C306 C303 1.526 1_554 S
C306 C307 1.396 . S
C306 C311 1.390 . S
C307 C301 1.465 . S
C307 C306 1.396 . S
C307 C308 1.399 . S
C308 H294 0.929 . S
C308 C307 1.399 . S
C308 C309 1.385 . S
C309 H295 0.931 . S
C309 C308 1.385 . S
C309 C310 1.389 . S
C310 C309 1.389 . S
C310 C311 1.387 . S
C311 H296 0.930 1_554 S
C311 C306 1.390 . S
C311 C310 1.387 . S
H312 C324 0.930 . S
H313 C326 0.930 . S
H314 C327 0.930 . S
H315 C331 0.959 . S
H316 C331 0.959 1_545 S
H317 C331 0.963 . S
H318 C332 0.960 . S
H319 C332 0.961 . S
H320 C332 0.959 1_565 S
H321 C335 0.929 . S
H322 C336 0.931 . S
H323 C338 0.930 . S
C324 H312 0.930 . S
C324 C325 1.399 . S
C324 C329 1.399 . S
C325 C324 1.399 . S
C325 C326 1.376 . S
C326 H313 0.930 . S
C326 C325 1.376 . S
C326 C327 1.388 . S
C327 H314 0.930 . S
C327 C326 1.388 . S
C327 C328 1.390 . S
C328 C327 1.390 . S
C328 C329 1.394 . S
C328 C334 1.465 . S
C329 C324 1.399 . S
C329 C328 1.394 . S
C329 C330 1.516 . S
C330 C329 1.516 . S
C330 C331 1.502 . S
C330 C332 1.561 1_565 S
C330 C333 1.526 . S
C331 H315 0.959 . S
C331 H316 0.959 1_565 S
C331 H317 0.963 . S
C331 C330 1.502 . S
C332 H318 0.960 . S
C332 H319 0.961 . S
C332 H320 0.959 1_545 S
C332 C330 1.561 1_545 S
C333 C330 1.526 . S
C333 C334 1.396 . S
C333 C338 1.390 . S
C334 C328 1.465 . S
C334 C333 1.396 . S
C334 C335 1.399 . S
C335 H321 0.929 . S
C335 C334 1.399 . S
C335 C336 1.385 . S
C336 H322 0.931 . S
C336 C335 1.385 . S
C336 C337 1.389 . S
C337 C336 1.389 . S
C337 C338 1.387 . S
C338 H323 0.930 . S
C338 C333 1.390 . S
C338 C337 1.387 . S
H339 C351 0.930 . S
H340 C353 0.930 . S
H341 C354 0.930 . S
H342 C358 0.959 . S
H343 C358 0.959 . S
H344 C358 0.961 . S
H345 C359 0.960 . S
H346 C359 0.961 . S
H347 C359 0.959 . S
H348 C362 0.929 . S
H349 C363 0.931 . S
H350 C365 0.930 . S
C351 H339 0.930 . S
C351 C352 1.399 . S
C351 C356 1.399 . S
C352 C351 1.399 . S
C352 C353 1.376 . S
C353 H340 0.930 . S
C353 C352 1.376 . S
C353 C354 1.388 . S
C354 H341 0.930 . S
C354 C353 1.388 . S
C354 C355 1.390 . S
C355 C354 1.390 . S
C355 C356 1.394 . S
C355 C361 1.465 . S
C356 C351 1.399 . S
C356 C355 1.394 . S
C356 C357 1.516 . S
C357 C356 1.516 . S
C357 C358 1.502 . S
C357 C359 1.561 . S
C357 C360 1.526 . S
C358 H342 0.959 . S
C358 H343 0.959 . S
C358 H344 0.961 . S
C358 C357 1.502 . S
C359 H345 0.960 . S
C359 H346 0.961 . S
C359 H347 0.959 . S
C359 C357 1.561 . S
C360 C357 1.526 . S
C360 C361 1.396 . S
C360 C365 1.390 . S
C361 C355 1.465 . S
C361 C360 1.396 . S
C361 C362 1.399 . S
C362 H348 0.929 . S
C362 C361 1.399 . S
C362 C363 1.385 . S
C363 H349 0.931 . S
C363 C362 1.385 . S
C363 C364 1.389 . S
C364 C363 1.389 . S
C364 C365 1.387 . S
C365 H350 0.930 . S
C365 C360 1.390 . S
C365 C364 1.387 . S
H366 C378 0.930 . S
H367 C380 0.930 . S
H368 C381 0.930 . S
H369 C385 0.959 . S
H370 C385 0.959 1_565 S
H371 C385 0.961 1_565 S
H372 C386 0.960 . S
H373 C386 0.961 . S
H374 C386 0.965 . S
H375 C389 0.929 . S
H376 C390 0.931 . S
H377 C392 0.930 1_565 S
C378 H366 0.930 . S
C378 C379 1.399 . S
C378 C383 1.399 . S
C379 C378 1.399 . S
C379 C380 1.376 . S
C380 H367 0.930 . S
C380 C379 1.376 . S
C380 C381 1.388 . S
C381 H368 0.930 . S
C381 C380 1.388 . S
C381 C382 1.390 . S
C382 C381 1.390 . S
C382 C383 1.394 . S
C382 C388 1.465 . S
C383 C378 1.399 . S
C383 C382 1.394 . S
C383 C384 1.516 . S
C384 C383 1.516 . S
C384 C385 1.502 . S
C384 C386 1.561 1_545 S
C384 C387 1.526 . S
C385 H369 0.959 . S
C385 H370 0.959 1_545 S
C385 H371 0.961 1_545 S
C385 C384 1.502 . S
C386 H372 0.960 . S
C386 H373 0.961 . S
C386 H374 0.965 . S
C386 C384 1.561 1_565 S
C387 C384 1.526 . S
C387 C388 1.396 . S
C387 C392 1.390 . S
C388 C382 1.465 . S
C388 C387 1.396 . S
C388 C389 1.399 . S
C389 H375 0.929 . S
C389 C388 1.399 . S
C389 C390 1.385 . S
C390 H376 0.931 . S
C390 C389 1.385 . S
C390 C391 1.389 . S
C391 C390 1.389 . S
C391 C392 1.387 . S
C392 H377 0.930 1_545 S
C392 C387 1.390 . S
C392 C391 1.387 . S
H393 C405 0.930 . S
H394 C407 0.930 . S
H395 C408 0.930 . S
H396 C412 0.959 . S
H397 C412 0.959 . S
H398 C412 0.961 . S
H399 C413 0.960 . S
H400 C413 0.961 . S
H401 C413 0.959 . S
H402 C416 0.929 . S
H403 C417 0.931 . S
H404 C419 0.930 . S
C405 H393 0.930 . S
C405 C406 1.399 . S
C405 C410 1.399 . S
C406 C405 1.399 . S
C406 C407 1.376 . S
C407 H394 0.930 . S
C407 C406 1.376 . S
C407 C408 1.388 . S
C408 H395 0.930 . S
C408 C407 1.388 . S
C408 C409 1.390 . S
C409 C408 1.390 . S
C409 C410 1.394 . S
C409 C415 1.465 . S
C410 C405 1.399 . S
C410 C409 1.394 . S
C410 C411 1.516 . S
C411 C410 1.516 . S
C411 C412 1.502 . S
C411 C413 1.561 . S
C411 C414 1.526 . S
C412 H396 0.959 . S
C412 H397 0.959 . S
C412 H398 0.961 . S
C412 C411 1.502 . S
C413 H399 0.960 . S
C413 H400 0.961 . S
C413 H401 0.959 . S
C413 C411 1.561 . S
C414 C411 1.526 . S
C414 C415 1.396 . S
C414 C419 1.390 . S
C415 C409 1.465 . S
C415 C414 1.396 . S
C415 C416 1.399 . S
C416 H402 0.929 . S
C416 C415 1.399 . S
C416 C417 1.385 . S
C417 H403 0.931 . S
C417 C416 1.385 . S
C417 C418 1.389 . S
C418 C417 1.389 . S
C418 C419 1.387 . S
C419 H404 0.930 . S
C419 C414 1.390 . S
C419 C418 1.387 . S
H420 C432 0.930 . S
H421 C434 0.930 . S
H422 C435 0.930 . S
H423 C439 0.959 . S
H424 C439 0.959 . S
H425 C439 0.961 . S
H426 C440 0.960 . S
H427 C440 0.961 . S
H428 C440 0.959 . S
H429 C443 0.929 . S
H430 C444 0.931 . S
H431 C446 0.930 . S
C432 H420 0.930 . S
C432 C433 1.399 . S
C432 C437 1.399 . S
C433 C432 1.399 . S
C433 C434 1.376 . S
C434 H421 0.930 . S
C434 C433 1.376 . S
C434 C435 1.388 . S
C435 H422 0.930 . S
C435 C434 1.388 . S
C435 C436 1.390 . S
C436 C435 1.390 . S
C436 C437 1.394 . S
C436 C442 1.465 . S
C437 C432 1.399 . S
C437 C436 1.394 . S
C437 C438 1.516 . S
C438 C437 1.516 . S
C438 C439 1.502 . S
C438 C440 1.561 . S
C438 C441 1.526 . S
C439 H423 0.959 . S
C439 H424 0.959 . S
C439 H425 0.961 . S
C439 C438 1.502 . S
C440 H426 0.960 . S
C440 H427 0.961 . S
C440 H428 0.959 . S
C440 C438 1.561 . S
C441 C438 1.526 . S
C441 C442 1.396 . S
C441 C446 1.390 . S
C442 C436 1.465 . S
C442 C441 1.396 . S
C442 C443 1.399 . S
C443 H429 0.929 . S
C443 C442 1.399 . S
C443 C444 1.385 . S
C444 H430 0.931 . S
C444 C443 1.385 . S
C444 C445 1.389 . S
C445 C444 1.389 . S
C445 C446 1.387 . S
C446 H431 0.930 . S
C446 C441 1.390 . S
C446 C445 1.387 . S
H447 C459 0.930 1_554 S
H448 C461 0.930 . S
H449 C462 0.930 . S
H450 C466 0.959 . S
H451 C466 0.959 . S
H452 C466 0.961 . S
H453 C467 0.960 . S
H454 C467 0.961 1_565 S
H455 C467 0.959 1_565 S
H456 C470 0.929 . S
H457 C471 0.931 . S
H458 C473 0.930 . S
C459 H447 0.930 1_556 S
C459 C460 1.399 . S
C459 C464 1.399 . S
C460 C459 1.399 . S
C460 C461 1.376 . S
C461 H448 0.930 . S
C461 C460 1.376 . S
C461 C462 1.388 . S
C462 H449 0.930 . S
C462 C461 1.388 . S
C462 C463 1.390 . S
C463 C462 1.390 . S
C463 C464 1.394 . S
C463 C469 1.465 . S
C464 C459 1.399 . S
C464 C463 1.394 . S
C464 C465 1.516 . S
C465 C464 1.516 . S
C465 C466 1.502 . S
C465 C467 1.561 . S
C465 C468 1.526 . S
C466 H450 0.959 . S
C466 H451 0.959 . S
C466 H452 0.961 . S
C466 C465 1.502 . S
C467 H453 0.960 . S
C467 H454 0.961 1_545 S
C467 H455 0.959 1_545 S
C467 C465 1.561 . S
C468 C465 1.526 . S
C468 C469 1.396 . S
C468 C473 1.390 . S
C469 C463 1.465 . S
C469 C468 1.396 . S
C469 C470 1.399 . S
C470 H456 0.929 . S
C470 C469 1.399 . S
C470 C471 1.385 . S
C471 H457 0.931 . S
C471 C470 1.385 . S
C471 C472 1.389 . S
C472 C471 1.389 . S
C472 C473 1.387 . S
C473 H458 0.930 . S
C473 C468 1.390 . S
C473 C472 1.387 . S
H474 C486 0.930 . S
H475 C488 0.930 . S
H476 C489 0.930 . S
H477 C493 0.959 . S
H478 C493 0.959 . S
H479 C493 0.961 . S
H480 C494 0.960 . S
H481 C494 0.961 . S
H482 C494 0.959 . S
H483 C497 0.929 . S
H484 C498 0.931 . S
H485 C500 0.930 . S
C486 H474 0.930 . S
C486 C487 1.399 . S
C486 C491 1.399 . S
C487 C486 1.399 . S
C487 C488 1.376 . S
C488 H475 0.930 . S
C488 C487 1.376 . S
C488 C489 1.388 . S
C489 H476 0.930 . S
C489 C488 1.388 . S
C489 C490 1.390 . S
C490 C489 1.390 . S
C490 C491 1.394 . S
C490 C496 1.465 . S
C491 C486 1.399 . S
C491 C490 1.394 . S
C491 C492 1.516 . S
C492 C491 1.516 . S
C492 C493 1.502 . S
C492 C494 1.561 . S
C492 C495 1.526 . S
C493 H477 0.959 . S
C493 H478 0.959 . S
C493 H479 0.961 . S
C493 C492 1.502 . S
C494 H480 0.960 . S
C494 H481 0.961 . S
C494 H482 0.959 . S
C494 C492 1.561 . S
C495 C492 1.526 . S
C495 C496 1.396 . S
C495 C500 1.390 . S
C496 C490 1.465 . S
C496 C495 1.396 . S
C496 C497 1.399 . S
C497 H483 0.929 . S
C497 C496 1.399 . S
C497 C498 1.385 . S
C498 H484 0.931 . S
C498 C497 1.385 . S
C498 C499 1.389 . S
C499 C498 1.389 . S
C499 C500 1.387 . S
C500 H485 0.930 . S
C500 C495 1.390 . S
C500 C499 1.387 . S
H501 C513 0.930 . S
H502 C515 0.930 . S
H503 C516 0.916 1_545 S
H504 C520 0.959 . S
H505 C520 0.959 . S
H506 C520 0.961 . S
H507 C521 0.960 . S
H508 C521 0.961 . S
H509 C521 0.959 . S
H510 C524 0.929 1_545 S
H511 C525 0.945 . S
H512 C527 0.930 . S
C513 H501 0.930 . S
C513 C514 1.399 . S
C513 C518 1.399 . S
C514 C513 1.399 . S
C514 C515 1.376 . S
C515 H502 0.930 . S
C515 C514 1.376 . S
C515 C516 1.388 . S
C516 H503 0.916 1_565 S
C516 C515 1.388 . S
C516 C517 1.390 . S
C517 C516 1.390 . S
C517 C518 1.394 . S
C517 C523 1.465 . S
C518 C513 1.399 . S
C518 C517 1.394 . S
C518 C519 1.516 . S
C519 C518 1.516 . S
C519 C520 1.502 . S
C519 C521 1.561 . S
C519 C522 1.526 . S
C520 H504 0.959 . S
C520 H505 0.959 . S
C520 H506 0.961 . S
C520 C519 1.502 . S
C521 H507 0.960 . S
C521 H508 0.961 . S
C521 H509 0.959 . S
C521 C519 1.561 . S
C522 C519 1.526 . S
C522 C523 1.396 . S
C522 C527 1.390 . S
C523 C517 1.465 . S
C523 C522 1.396 . S
C523 C524 1.399 . S
C524 H510 0.929 1_565 S
C524 C523 1.399 . S
C524 C525 1.388 1_565 S
C525 H511 0.945 . S
C525 C524 1.388 1_545 S
C525 C526 1.372 1_545 S
C526 C525 1.372 1_565 S
C526 C527 1.387 . S
C527 H512 0.930 . S
C527 C522 1.390 . S
C527 C526 1.387 . S
C229 C99 1.518 . S
C217 C34 1.555 . S
C244 C7 1.528 . S
C256 C194 1.504 . S
C271 C16 1.577 . S
C283 C110 1.567 . S
C298 C25 1.543 . S
C310 C183 1.505 . S
C337 C94 1.295 . S
C325 C5 1.512 . S
C364 C187 1.565 . S
C352 C13 1.566 . S
C379 C23 1.518 . S
C391 C103 1.542 . S
C406 C32 1.517 . S
C418 C178 1.326 . S
C445 C189 1.311 . S
C433 C14 1.500 . S
C472 C105 1.370 . S
C460 C22 1.523 1_556 S
C499 C176 1.550 . S
C487 C31 1.543 . S
C514 C4 1.537 . S
C526 C92 1.539 . S
