# Generated by pormake.
# Topology anh, (6,3)-cn, num edge types: 1
# Building blocks:
#     Node 0, Type 0, BuildingBlock: GEDQOX_clean_sbu_0, # of connection points: 6
#     Node 1, Type 0, BuildingBlock: GEDQOX_clean_sbu_0, # of connection points: 6
#     Node 2, Type 0, BuildingBlock: GEDQOX_clean_sbu_0, # of connection points: 6
#     Node 3, Type 1, BuildingBlock: CUQRIR_clean_linker_1, # of connection points: 3
#     Node 4, Type 1, BuildingBlock: CUQRIR_clean_linker_1, # of connection points: 3
#     Node 5, Type 1, BuildingBlock: CUQRIR_clean_linker_1, # of connection points: 3
#     Node 6, Type 1, BuildingBlock: CUQRIR_clean_linker_1, # of connection points: 3
#     Node 7, Type 1, BuildingBlock: CUQRIR_clean_linker_1, # of connection points: 3
#     Node 8, Type 1, BuildingBlock: CUQRIR_clean_linker_1, # of connection points: 3
#     Edge 9, Type (0, 1), BuildingBlock: TEMPAE_clean_linker_10, # of connection points: 2
#     Edge 10, Type (0, 1), BuildingBlock: TEMPAE_clean_linker_10, # of connection points: 2
#     Edge 11, Type (0, 1), BuildingBlock: TEMPAE_clean_linker_10, # of connection points: 2
#     Edge 12, Type (0, 1), BuildingBlock: TEMPAE_clean_linker_10, # of connection points: 2
#     Edge 13, Type (0, 1), BuildingBlock: TEMPAE_clean_linker_10, # of connection points: 2
#     Edge 14, Type (0, 1), BuildingBlock: TEMPAE_clean_linker_10, # of connection points: 2
#     Edge 15, Type (0, 1), BuildingBlock: TEMPAE_clean_linker_10, # of connection points: 2
#     Edge 16, Type (0, 1), BuildingBlock: TEMPAE_clean_linker_10, # of connection points: 2
#     Edge 17, Type (0, 1), BuildingBlock: TEMPAE_clean_linker_10, # of connection points: 2
#     Edge 18, Type (0, 1), BuildingBlock: TEMPAE_clean_linker_10, # of connection points: 2
#     Edge 19, Type (0, 1), BuildingBlock: TEMPAE_clean_linker_10, # of connection points: 2
#     Edge 20, Type (0, 1), BuildingBlock: TEMPAE_clean_linker_10, # of connection points: 2
#     Edge 21, Type (0, 1), BuildingBlock: TEMPAE_clean_linker_10, # of connection points: 2
#     Edge 22, Type (0, 1), BuildingBlock: TEMPAE_clean_linker_10, # of connection points: 2
#     Edge 23, Type (0, 1), BuildingBlock: TEMPAE_clean_linker_10, # of connection points: 2
#     Edge 24, Type (0, 1), BuildingBlock: TEMPAE_clean_linker_10, # of connection points: 2
#     Edge 25, Type (0, 1), BuildingBlock: TEMPAE_clean_linker_10, # of connection points: 2
#     Edge 26, Type (0, 1), BuildingBlock: TEMPAE_clean_linker_10, # of connection points: 2
# Relax obj value: 0.200
# Max RMSD: 0.215
# Mean RMSD: 0.168
data_MOF--net-anh--node1-GEDQOX_clean_sbu_0--node2-CUQRIR_clean_linker_1--edge1-TEMPAE_clean_linker_10
_symmetry_space_group_name_H-M    P1
_symmetry_Int_Tables_number       1
_symmetry_cell_setting            triclinic
loop_
_symmetry_equiv_pos_as_xyz
'x, y, z'
_cell_length_a     29.389561
_cell_length_b     27.950922
_cell_length_c     47.533243
_cell_angle_alpha  88.966601
_cell_angle_beta   89.610646
_cell_angle_gamma 103.06867
loop_
_atom_site_label
_atom_site_type_symbol
_atom_site_fract_x
_atom_site_fract_y
_atom_site_fract_z
_atom_type_partial_charge
Nd0 Nd 1.02874 0.56529 0.13346 0.0
Nd1 Nd 1.00365 0.44792 0.13522 0.0
C2 C 1.06165 0.65841 0.11911 0.0
C3 C 0.10137 0.69514 0.13005 0.0
C4 C 0.11649 0.74117 0.11665 0.0
C5 C 0.15702 0.77394 0.12566 0.0
C6 C 0.18254 0.76143 0.14852 0.0
C7 C 0.16652 0.71567 0.16226 0.0
C8 C 0.12653 0.68277 0.153 0.0
C9 C 1.02568 0.53066 0.18863 0.0
C10 C 0.11766 0.50374 0.13503 0.0
C11 C 0.97037 0.35334 0.14662 0.0
C12 C 0.92794 0.31993 0.15824 0.0
C13 C 0.89652 0.33688 0.17577 0.0
C14 C 0.85632 0.30423 0.18637 0.0
C15 C 0.84674 0.25414 0.17947 0.0
C16 C 0.87857 0.23754 0.16198 0.0
C17 C 0.91869 0.27009 0.15151 0.0
C18 C 1.0296 0.49403 0.08431 0.0
C19 C 0.91438 0.50901 0.1312 0.0
O20 O 1.07327 0.62197 0.10604 0.0
O21 O 1.02598 0.64377 0.13638 0.0
O22 O 1.03494 0.57688 0.1817 0.0
O23 O 1.01836 0.50625 0.16663 0.0
O24 O 0.10339 0.54513 0.1292 0.0
O25 O 0.08589 0.46222 0.14127 0.0
O26 O 0.99596 0.38351 0.16416 0.0
O27 O 0.9665 0.37368 0.12196 0.0
O28 O 1.04118 0.45349 0.09199 0.0
O29 O 1.00347 0.50626 0.10261 0.0
O30 O 0.92816 0.46723 0.13706 0.0
O31 O 0.94664 0.55089 0.12668 0.0
H32 H 0.09769 0.75124 0.09878 0.0
H33 H 0.16844 0.80901 0.11474 0.0
H34 H 0.1857 0.70471 0.17969 0.0
H35 H 0.11575 0.64716 0.16343 0.0
H36 H 0.90294 0.37533 0.18114 0.0
H37 H 0.83233 0.31834 0.19953 0.0
H38 H 0.87267 0.19918 0.15654 0.0
H39 H 0.94257 0.25628 0.13808 0.0
Nd40 Nd 0.54748 0.94162 0.51907 0.0
Nd41 Nd 0.64914 0.96658 0.50754 0.0
C42 C 0.46139 0.90379 0.53721 0.0
C43 C 0.42492 0.86 0.53049 0.0
C44 C 0.37926 0.86504 0.52546 0.0
C45 C 0.34504 0.82494 0.51671 0.0
C46 C 0.35583 0.77893 0.513 0.0
C47 C 0.40129 0.7736 0.51877 0.0
C48 C 0.43562 0.81383 0.52729 0.0
C49 C 0.5684 0.96124 0.46305 0.0
C50 C 0.60296 0.85103 0.51169 0.0
C51 C 0.73551 1.00474 0.48958 0.0
C52 C 0.76433 0.05224 0.47896 0.0
C53 C 0.77468 0.05973 0.45006 0.0
C54 C 0.80443 0.10328 0.44016 0.0
C55 C 0.8248 0.14001 0.459 0.0
C56 C 0.81369 0.13288 0.4878 0.0
C57 C 0.7839 0.08952 0.49768 0.0
C58 C 0.62568 0.94675 0.56334 0.0
C59 C 0.59495 0.05557 0.5177 0.0
O60 O 0.49856 0.89641 0.55003 0.0
O61 O 0.47131 0.93753 0.51732 0.0
O62 O 0.53422 0.97358 0.4762 0.0
O63 O 0.58908 0.93641 0.47896 0.0
O64 O 0.56419 0.86443 0.51878 0.0
O65 O 0.64127 0.88351 0.50426 0.0
O66 O 0.70259 0.98125 0.47327 0.0
O67 O 0.72282 1.00197 0.51608 0.0
O68 O 0.65822 0.93078 0.55049 0.0
O69 O 0.60747 0.97297 0.547 0.0
O70 O 0.62782 0.04157 0.50297 0.0
O71 O 0.56276 0.02256 0.53128 0.0
H72 H 0.37032 0.90033 0.52773 0.0
H73 H 0.31019 0.82997 0.51262 0.0
H74 H 0.4107 0.73871 0.5158 0.0
H75 H 0.4707 0.80899 0.53075 0.0
H76 H 0.76045 0.03153 0.43515 0.0
H77 H 0.81263 0.10755 0.41788 0.0
H78 H 0.82831 0.16079 0.50279 0.0
H79 H 0.77684 0.08504 0.52008 0.0
Nd80 Nd 0.58532 0.52045 0.82989 0.0
Nd81 Nd 0.68365 0.5535 0.82756 0.0
C82 C 0.49353 0.50691 0.82849 0.0
C83 C 0.46381 0.53399 0.84327 0.0
C84 C 0.48482 0.57428 0.85951 0.0
C85 C 0.4575 0.60152 0.87323 0.0
C86 C 0.40866 0.58864 0.87114 0.0
C87 C 0.38756 0.54745 0.85546 0.0
C88 C 0.41508 0.52033 0.84148 0.0
C89 C 0.62523 0.5253 0.88272 0.0
C90 C 0.62994 0.63987 0.82811 0.0
C91 C 0.77571 0.57746 0.83132 0.0
C92 C 0.80963 0.62474 0.8321 0.0
C93 C 0.85743 0.62621 0.83047 0.0
C94 C 0.8899 0.67091 0.83262 0.0
C95 C 0.875 0.71487 0.83647 0.0
C96 C 0.82692 0.71341 0.83701 0.0
C97 C 0.79449 0.66866 0.83473 0.0
C98 C 0.64324 0.55167 0.77543 0.0
C99 C 0.63866 0.43525 0.82507 0.0
O100 O 0.52126 0.5324 0.8093 0.0
O101 O 0.51492 0.48118 0.84475 0.0
O102 O 0.59434 0.4884 0.87379 0.0
O103 O 0.63482 0.55821 0.86374 0.0
O104 O 0.594 0.60447 0.82128 0.0
O105 O 0.66902 0.62878 0.83613 0.0
O106 O 0.7539 0.56784 0.80759 0.0
O107 O 0.74785 0.56649 0.85319 0.0
O108 O 0.67397 0.58874 0.78455 0.0
O109 O 0.63376 0.51758 0.79372 0.0
O110 O 0.67319 0.46889 0.8355 0.0
O111 O 0.60137 0.44855 0.8155 0.0
H112 H 0.52248 0.58487 0.8614 0.0
H113 H 0.47453 0.63274 0.88545 0.0
H114 H 0.34994 0.53704 0.85345 0.0
H115 H 0.39845 0.48913 0.82913 0.0
H116 H 0.86965 0.59266 0.82828 0.0
H117 H 0.92671 0.67066 0.83271 0.0
H118 H 0.81445 0.74662 0.83994 0.0
H119 H 0.75763 0.66825 0.8357 0.0
C120 C 0.51962 0.99497 0.21442 0.0
N121 N 0.55246 1.00818 0.23454 0.0
N122 N 0.48519 0.95704 0.22367 0.0
C123 C 0.52251 0.01674 0.18512 0.0
C124 C 0.49807 0.94755 0.25008 0.0
N125 N 0.53934 0.97808 0.25661 0.0
C126 C 0.4679 0.91165 0.27033 0.0
H127 H 0.50281 0.98997 0.17014 0.0
H128 H 0.5594 0.02854 0.17789 0.0
H129 H 0.50695 0.04939 0.18514 0.0
H130 H 0.47882 0.87619 0.26981 0.0
H131 H 0.43053 0.90488 0.26448 0.0
H132 H 0.47166 0.92541 0.29214 0.0
C133 C 0.59047 0.45301 0.53088 0.0
N134 N 0.5898 0.49074 0.54861 0.0
N135 N 0.58887 0.41044 0.54562 0.0
C136 C 0.59354 0.45762 0.49934 0.0
C137 C 0.58654 0.42345 0.57277 0.0
N138 N 0.58692 0.4717 0.57461 0.0
C139 C 0.58536 0.38924 0.59775 0.0
H140 H 0.57656 0.4869 0.49159 0.0
H141 H 0.57699 0.42251 0.4894 0.0
H142 H 0.63087 0.46718 0.49282 0.0
H143 H 0.62165 0.39119 0.60478 0.0
H144 H 0.56931 0.35074 0.59223 0.0
H145 H 0.56556 0.40018 0.61554 0.0
C146 C 0.18223 0.82824 0.93114 0.0
N147 N 0.20164 0.79673 0.94633 0.0
N148 N 0.1424 0.83449 0.9435 0.0
C149 C 0.19837 0.84814 0.90224 0.0
C150 C 0.14086 0.80865 0.9681 0.0
N151 N 0.17574 0.78437 0.96944 0.0
C152 C 0.09938 0.79857 0.98789 0.0
H153 H 0.19364 0.88627 0.89977 0.0
H154 H 0.17665 0.82561 0.88615 0.0
H155 H 0.23563 0.84787 0.89856 0.0
H156 H 0.07825 0.76082 0.98473 0.0
H157 H 0.07715 0.82531 0.98431 0.0
H158 H 0.11151 0.80068 0.00999 0.0
C159 C 0.09101 0.46873 0.43241 0.0
N160 N 1.0662 0.44516 0.41081 0.0
N161 N 0.12537 0.50632 0.42263 0.0
C162 C 0.08378 0.45303 0.46285 0.0
C163 C 0.12059 0.50468 0.39431 0.0
N164 N 0.0851 0.46702 0.38711 0.0
C165 C 0.14736 0.54285 0.37391 0.0
H166 H 1.05737 0.47086 0.47229 0.0
H167 H 0.11674 0.46417 0.47472 0.0
H168 H 1.07072 0.41263 0.46492 0.0
H169 H 0.17798 0.53018 0.36573 0.0
H170 H 0.16001 0.57858 0.38427 0.0
H171 H 0.12534 0.54838 0.3558 0.0
C172 C 0.63928 0.03736 0.80998 0.0
N173 N 0.63554 0.99953 0.79174 0.0
N174 N 0.63958 0.08031 0.79592 0.0
C175 C 0.64665 0.03346 0.8411 0.0
C176 C 0.63539 0.06718 0.76865 0.0
N177 N 0.63363 0.01871 0.76604 0.0
C178 C 0.6299 0.10121 0.74457 0.0
H179 H 0.61214 0.02468 0.85195 0.0
H180 H 0.66702 0.06877 0.84922 0.0
H181 H 0.66506 1.00385 0.84607 0.0
H182 H 0.66484 0.11815 0.73552 0.0
H183 H 0.6135 0.13095 0.75182 0.0
H184 H 0.60821 0.08082 0.72772 0.0
C185 C 0.51681 0.50518 0.12702 0.0
N186 N 0.55586 0.5095 0.1095 0.0
N187 N 0.47709 0.51083 0.11266 0.0
C188 C 0.51661 0.49259 0.15775 0.0
C189 C 0.49439 0.52001 0.08606 0.0
N190 N 0.54022 0.5181 0.084 0.0
C191 C 0.46713 0.53497 0.06192 0.0
H192 H 0.54147 0.46892 0.16217 0.0
H193 H 0.48097 0.47387 0.16504 0.0
H194 H 0.52782 0.52701 0.16962 0.0
H195 H 0.49063 0.55985 0.04685 0.0
H196 H 0.44027 0.55397 0.0696 0.0
H197 H 0.4494 0.5018 0.05048 0.0
C198 C 0.19058 0.46846 0.14781 0.0
C199 C 0.17105 0.50415 0.13375 0.0
C200 C 0.23977 0.46891 0.14683 0.0
C201 C 0.27236 0.5051 0.13069 0.0
C202 C 0.25267 0.54089 0.11621 0.0
C203 C 0.20359 0.54039 0.11818 0.0
C204 C 0.25698 0.43021 0.16342 0.0
C205 C 0.28358 0.57975 0.09792 0.0
C206 C 0.41029 0.53238 0.1416 0.0
C207 C 0.42642 0.50469 0.1206 0.0
C208 C 0.36131 0.53204 0.14556 0.0
C209 C 0.32578 0.50421 0.12794 0.0
C210 C 0.3421 0.47564 0.10716 0.0
C211 C 0.39078 0.47573 0.10412 0.0
C212 C 0.34762 0.56256 0.16855 0.0
C213 C 0.30796 0.44568 0.08716 0.0
H214 H 0.16729 0.44004 0.16011 0.0
H215 H 0.19045 0.56831 0.10681 0.0
H216 H 0.27079 0.4062 0.14886 0.0
H217 H 0.28616 0.44782 0.17716 0.0
H218 H 0.22899 0.40694 0.17668 0.0
H219 H 0.26409 0.60532 0.08808 0.0
H220 H 0.31239 0.60133 0.11055 0.0
H221 H 0.29975 0.56205 0.08101 0.0
H222 H 0.4361 0.55565 0.15451 0.0
H223 H 0.40133 0.45366 0.08789 0.0
H224 H 0.31902 0.53998 0.18166 0.0
H225 H 0.33423 0.59318 0.15909 0.0
H226 H 0.37746 0.57822 0.18232 0.0
H227 H 0.28122 0.41836 0.09909 0.0
H228 H 0.32531 0.42596 0.0718 0.0
H229 H 0.28937 0.47001 0.0754 0.0
C230 C 0.85035 0.21082 0.42474 0.0
C231 C 0.85891 0.18489 0.44896 0.0
C232 C 0.88222 0.25382 0.41558 0.0
C233 C 0.92365 0.27102 0.43092 0.0
C234 C 0.93275 0.24452 0.4551 0.0
C235 C 0.9003 0.20188 0.46381 0.0
C236 C 0.87124 0.28127 0.38979 0.0
C237 C 0.97668 0.26144 0.47195 0.0
C238 C 1.0303 0.35938 0.39973 0.0
C239 C 1.0277 0.40304 0.41289 0.0
C240 C 0.99543 0.31638 0.40432 0.0
C241 C 0.95716 0.31746 0.42242 0.0
C242 C 0.95331 0.36233 0.43452 0.0
C243 C 0.98875 0.40461 0.42961 0.0
C244 C 1.00082 0.26933 0.39102 0.0
C245 C 0.91293 0.36521 0.45373 0.0
H246 H 0.81827 0.19801 0.41329 0.0
H247 H 0.90751 0.18152 0.48224 0.0
H248 H 0.8678 0.31855 0.39565 0.0
H249 H 0.90029 0.28601 0.37422 0.0
H250 H 0.83842 0.26209 0.37961 0.0
H251 H 0.97902 0.23603 0.48985 0.0
H252 H 1.0079 0.26451 0.4582 0.0
H253 H 0.97782 0.29845 0.48037 0.0
H254 H 1.06067 0.35853 0.38685 0.0
H255 H 0.98679 0.43882 0.43938 0.0
H256 H 0.96799 0.25107 0.38058 0.0
H257 H 1.00802 0.24364 0.40758 0.0
H258 H 1.02979 0.27572 0.37527 0.0
H259 H 0.87926 0.34858 0.44367 0.0
H260 H 0.91286 0.40364 0.45927 0.0
H261 H 0.91498 0.34397 0.47345 0.0
C262 C 0.66024 0.72927 0.83852 0.0
C263 C 0.62783 0.69254 0.82487 0.0
C264 C 0.66064 0.77943 0.83439 0.0
C265 C 0.6286 0.79363 0.81559 0.0
C266 C 0.59559 0.75667 0.80186 0.0
C267 C 0.59523 0.70668 0.80693 0.0
C268 C 0.69575 0.81728 0.84999 0.0
C269 C 0.56152 0.76997 0.78115 0.0
C270 C 0.60438 0.92245 0.81912 0.0
C271 C 0.63467 0.94833 0.79826 0.0
C272 C 0.60247 0.87247 0.82527 0.0
C273 C 0.6306 0.8471 0.80965 0.0
C274 C 0.66097 0.87303 0.78839 0.0
C275 C 0.66322 0.92335 0.78335 0.0
C276 C 0.57032 0.84679 0.8485 0.0
C277 C 0.69093 0.84755 0.77078 0.0
H278 H 0.68549 0.71881 0.8525 0.0
H279 H 0.57033 0.67868 0.79607 0.0
H280 H 0.72022 0.8407 0.8348 0.0
H281 H 0.67764 0.84171 0.86166 0.0
H282 H 0.71638 0.80026 0.86511 0.0
H283 H 0.53794 0.73704 0.7723 0.0
H284 H 0.53992 0.79254 0.79148 0.0
H285 H 0.58092 0.7925 0.76357 0.0
H286 H 0.58182 0.94132 0.83047 0.0
H287 H 0.68747 0.94325 0.76766 0.0
H288 H 0.59047 0.83042 0.86418 0.0
H289 H 0.54362 0.81628 0.83976 0.0
H290 H 0.5522 0.87208 0.85946 0.0
H291 H 0.71599 0.83392 0.78438 0.0
H292 H 0.71089 0.87219 0.75415 0.0
H293 H 0.66875 0.81516 0.7606 0.0
C294 C 0.82569 0.4701 0.14115 0.0
C295 C 0.86098 0.50858 0.12933 0.0
C296 C 0.77651 0.46937 0.13969 0.0
C297 C 0.75968 0.5073 0.12529 0.0
C298 C 0.79513 0.54593 0.11303 0.0
C299 C 0.84415 0.54646 0.11549 0.0
C300 C 0.74223 0.42754 0.15394 0.0
C301 C 0.78116 0.58691 0.09666 0.0
C302 C 0.6296 0.47925 0.09763 0.0
C303 C 0.60513 0.50526 0.11551 0.0
C304 C 0.67852 0.48021 0.10029 0.0
C305 C 0.70585 0.50593 0.12239 0.0
C306 C 0.68093 0.53042 0.14138 0.0
C307 C 0.63213 0.53036 0.1376 0.0
C308 C 0.70131 0.4541 0.0787 0.0
C309 C 0.70617 0.55752 0.16587 0.0
H310 H 0.83656 0.44027 0.15208 0.0
H311 H 0.86956 0.57665 0.10591 0.0
H312 H 0.71911 0.44213 0.16845 0.0
H313 H 0.71963 0.40569 0.13798 0.0
H314 H 0.7599 0.40273 0.16604 0.0
H315 H 0.81175 0.6134 0.08736 0.0
H316 H 0.75718 0.57148 0.07948 0.0
H317 H 0.76191 0.60707 0.11061 0.0
H318 H 0.61045 0.45803 0.08094 0.0
H319 H 0.61536 0.55109 0.15179 0.0
H320 H 0.7139 0.42366 0.08898 0.0
H321 H 0.73219 0.47983 0.06921 0.0
H322 H 0.67706 0.4388 0.0616 0.0
H323 H 0.72473 0.53337 0.17781 0.0
H324 H 0.68205 0.57059 0.18042 0.0
H325 H 0.73287 0.58971 0.15799 0.0
C326 C 0.31357 0.69022 0.51421 0.0
C327 C 0.3204 0.73728 0.50185 0.0
C328 C 0.28102 0.65037 0.50323 0.0
C329 C 0.25524 0.65772 0.4791 0.0
C330 C 0.26189 0.70523 0.46663 0.0
C331 C 0.2942 0.74445 0.47825 0.0
C332 C 0.27444 0.60039 0.51729 0.0
C333 C 0.23551 0.71446 0.44068 0.0
C334 C 0.20596 0.55102 0.43167 0.0
C335 C 0.1583 0.54143 0.43846 0.0
C336 C 0.23811 0.58805 0.44519 0.0
C337 C 0.22216 0.61566 0.46629 0.0
C338 C 0.1742 0.6048 0.47396 0.0
C339 C 0.14276 0.56795 0.45978 0.0
C340 C 0.28887 0.59869 0.43626 0.0
C341 C 0.15591 0.63307 0.49653 0.0
H342 H 0.33353 0.68467 0.5326 0.0
H343 H 0.29985 0.78065 0.46842 0.0
H344 H 0.23715 0.58619 0.52317 0.0
H345 H 0.28404 0.57406 0.50243 0.0
H346 H 0.29592 0.60119 0.53649 0.0
H347 H 0.24436 0.75367 0.43375 0.0
H348 H 0.24357 0.69186 0.42317 0.0
H349 H 0.19735 0.7033 0.44479 0.0
H350 H 0.2178 0.53 0.41534 0.0
H351 H 0.10578 0.56072 0.46477 0.0
H352 H 0.31126 0.59679 0.45475 0.0
H353 H 0.29938 0.63653 0.42725 0.0
H354 H 0.29584 0.57259 0.42031 0.0
H355 H 0.17647 0.6332 0.51603 0.0
H356 H 0.11848 0.61745 0.50158 0.0
H357 H 0.15992 0.67187 0.48948 0.0
C358 C 0.67106 0.36333 0.84148 0.0
C359 C 0.64146 0.38273 0.8237 0.0
C360 C 0.67271 0.31327 0.84059 0.0
C361 C 0.64495 0.28202 0.82099 0.0
C362 C 0.61528 0.30164 0.8029 0.0
C363 C 0.61353 0.35139 0.80469 0.0
C364 C 0.70411 0.29378 0.86063 0.0
C365 C 0.58582 0.27022 0.78125 0.0
C366 C 0.67994 0.16781 0.79394 0.0
C367 C 0.64588 0.12976 0.80631 0.0
C368 C 0.6812 0.21736 0.79938 0.0
C369 C 0.6482 0.22944 0.81826 0.0
C370 C 0.61581 0.19094 0.83241 0.0
C371 C 0.61481 0.14152 0.82611 0.0
C372 C 0.71605 0.25677 0.78352 0.0
C373 C 0.58069 0.20196 0.85317 0.0
H374 H 0.69243 0.38712 0.85642 0.0
H375 H 0.59072 0.36601 0.79076 0.0
H376 H 0.68354 0.26184 0.87283 0.0
H377 H 0.73128 0.28067 0.84864 0.0
H378 H 0.72165 0.32203 0.87557 0.0
H379 H 0.56475 0.29101 0.76866 0.0
H380 H 0.60859 0.25526 0.7667 0.0
H381 H 0.5618 0.23849 0.79174 0.0
H382 H 0.70434 0.15864 0.7789 0.0
H383 H 0.58839 0.11219 0.83562 0.0
H384 H 0.73569 0.28396 0.79828 0.0
H385 H 0.69725 0.27679 0.76891 0.0
H386 H 0.74139 0.24143 0.7711 0.0
H387 H 0.59807 0.22993 0.86826 0.0
H388 H 0.56236 0.16856 0.86513 0.0
H389 H 0.55425 0.21737 0.84178 0.0
C390 C 0.63524 0.78343 0.53283 0.0
C391 C 0.60397 0.79836 0.51433 0.0
C392 C 0.63358 0.73324 0.53797 0.0
C393 C 0.60112 0.69703 0.52335 0.0
C394 C 0.57057 0.71224 0.50385 0.0
C395 C 0.57158 0.76264 0.50012 0.0
C396 C 0.66528 0.71896 0.55989 0.0
C397 C 0.53657 0.67528 0.48705 0.0
C398 C 0.62543 0.56806 0.52218 0.0
C399 C 0.59224 0.54211 0.54157 0.0
C400 C 0.62782 0.61794 0.5154 0.0
C401 C 0.59786 0.64338 0.52935 0.0
C402 C 0.56491 0.61752 0.54934 0.0
C403 C 0.56173 0.56714 0.55457 0.0
C404 C 0.66234 0.64335 0.49322 0.0
C405 C 0.53329 0.64316 0.56553 0.0
H406 H 0.6597 0.81107 0.54422 0.0
H407 H 0.54722 0.77421 0.48592 0.0
H408 H 0.64396 0.6961 0.57669 0.0
H409 H 0.68768 0.69643 0.55036 0.0
H410 H 0.68809 0.75144 0.56966 0.0
H411 H 0.51893 0.69314 0.47065 0.0
H412 H 0.55496 0.6496 0.47674 0.0
H413 H 0.50947 0.65308 0.50125 0.0
H414 H 0.64976 0.54944 0.51239 0.0
H415 H 0.5351 0.54719 0.56888 0.0
H416 H 0.68901 0.67281 0.50286 0.0
H417 H 0.64418 0.66101 0.47703 0.0
H418 H 0.68042 0.61756 0.48271 0.0
H419 H 0.55431 0.67613 0.5758 0.0
H420 H 0.51236 0.61886 0.58195 0.0
H421 H 0.50899 0.65586 0.55095 0.0
C422 C 0.95338 0.77205 0.83055 0.0
C423 C 0.90962 0.75998 0.84406 0.0
C424 C 0.99162 0.80253 0.84353 0.0
C425 C 0.98567 0.82031 0.87069 0.0
C426 C 0.94008 0.81561 0.88179 0.0
C427 C 0.90235 0.78513 0.86836 0.0
C428 C 1.03943 0.80893 0.83027 0.0
C429 C 0.93206 0.83588 0.91012 0.0
C430 C 1.07161 0.78798 0.92192 0.0
C431 C 0.1013 0.83354 0.92709 0.0
C432 C 1.0335 0.78389 0.9042 0.0
C433 C 1.02531 0.82655 0.89049 0.0
C434 C 1.05541 0.87295 0.89536 0.0
C435 C 0.09318 0.87594 0.91388 0.0
C436 C 1.00275 0.73336 0.89974 0.0
C437 C 1.04797 0.91922 0.88116 0.0
H438 H 0.95873 0.75404 0.81119 0.0
H439 H 0.8684 0.77673 0.87869 0.0
H440 H 1.06164 0.8456 0.83485 0.0
H441 H 1.05674 0.78069 0.83915 0.0
H442 H 1.03723 0.80443 0.80711 0.0
H443 H 0.89534 0.83932 0.91273 0.0
H444 H 0.93947 0.81065 0.9269 0.0
H445 H 0.9558 0.87235 0.91301 0.0
H446 H 0.07913 0.7551 0.9314 0.0
H447 H 0.11682 0.91098 0.91764 0.0
H448 H 1.00445 0.72322 0.87737 0.0
H449 H 0.96585 0.73319 0.90489 0.0
H450 H 1.01328 0.70453 0.91292 0.0
H451 H 0.0805 0.94864 0.88074 0.0
H452 H 1.02096 0.93281 0.89303 0.0
H453 H 1.0355 0.9124 0.8593 0.0
C454 C 0.23434 0.80427 0.18642 0.0
C455 C 0.22644 0.7951 0.15775 0.0
C456 C 0.27675 0.83344 0.1957 0.0
C457 C 0.3125 0.85351 0.17588 0.0
C458 C 0.30444 0.8451 0.14684 0.0
C459 C 0.26139 0.81625 0.1381 0.0
C460 C 0.28361 0.84199 0.22682 0.0
C461 C 0.3418 0.8653 0.12507 0.0
C462 C 0.41043 0.95781 0.20065 0.0
C463 C 0.4439 0.9322 0.20919 0.0
C464 C 0.36785 0.93292 0.18911 0.0
C465 C 0.35894 0.88132 0.18582 0.0
C466 C 0.39361 0.85572 0.19352 0.0
C467 C 0.43553 0.88148 0.20529 0.0
C468 C 0.33173 0.96152 0.18146 0.0
C469 C 0.3859 0.80089 0.19007 0.0
H470 H 0.20725 0.78842 0.20165 0.0
H471 H 0.25565 0.80885 0.11594 0.0
H472 H 0.31221 0.82528 0.23443 0.0
H473 H 0.2941 0.88195 0.23081 0.0
H474 H 0.25152 0.82608 0.23934 0.0
H475 H 0.32931 0.85748 0.10326 0.0
H476 H 0.35404 0.90561 0.1272 0.0
H477 H 0.3724 0.8489 0.12854 0.0
H478 H 0.41704 0.99702 0.20397 0.0
H479 H 0.46172 0.862 0.21191 0.0
H480 H 0.30044 0.9494 0.19522 0.0
H481 H 0.32029 0.95419 0.15945 0.0
H482 H 0.34507 1.00173 0.18373 0.0
H483 H 0.35683 0.78173 0.20405 0.0
H484 H 0.41754 0.78711 0.19523 0.0
H485 H 0.37572 0.79095 0.16814 0.0
C486 C 0.61887 0.14279 0.49924 0.0
C487 C 0.59462 0.10874 0.51929 0.0
C488 C 0.61869 0.19311 0.50054 0.0
C489 C 0.59455 0.21019 0.52279 0.0
C490 C 0.5702 0.17595 0.54315 0.0
C491 C 0.57012 0.12574 0.54098 0.0
C492 C 0.64438 0.22804 0.47812 0.0
C493 C 0.54483 0.19247 0.56757 0.0
C494 C 0.63073 0.34342 0.54568 0.0
C495 C 0.59376 0.36307 0.53593 0.0
C496 C 0.63209 0.29424 0.54092 0.0
C497 C 0.59594 0.26394 0.5255 0.0
C498 C 0.55972 0.28444 0.51432 0.0
C499 C 0.55876 0.33359 0.51997 0.0
C500 C 0.671 0.2741 0.55365 0.0
C501 C 0.52099 0.2539 0.49732 0.0
H502 H 0.63767 0.13003 0.48229 0.0
H503 H 0.55152 0.09985 0.55668 0.0
H504 H 0.62028 0.24849 0.46813 0.0
H505 H 0.67294 0.25554 0.48773 0.0
H506 H 0.65964 0.20876 0.46151 0.0
H507 H 0.52786 0.16141 0.58173 0.0
H508 H 0.5697 0.2196 0.58004 0.0
H509 H 0.51769 0.21103 0.55969 0.0
H510 H 0.65764 0.36625 0.55813 0.0
H511 H 0.52972 0.34846 0.51289 0.0
H512 H 0.68856 0.25673 0.53726 0.0
H513 H 0.65627 0.24519 0.56962 0.0
H514 H 0.6976 0.30297 0.5639 0.0
H515 H 0.53572 0.23466 0.48051 0.0
H516 H 0.4985 0.27648 0.48752 0.0
H517 H 0.49882 0.22537 0.51111 0.0
C518 C 0.39218 0.6706 0.88008 0.0
C519 C 0.38016 0.61955 0.88437 0.0
C520 C 0.36489 0.7006 0.89156 0.0
C521 C 0.32493 0.67897 0.90795 0.0
C522 C 0.31329 0.62754 0.91301 0.0
C523 C 0.34093 0.5983 0.90092 0.0
C524 C 0.37793 0.75522 0.88537 0.0
C525 C 0.2712 0.60338 0.93071 0.0
C526 C 0.27115 0.76296 0.953 0.0
C527 C 0.23426 0.76955 0.93607 0.0
C528 C 0.30094 0.73315 0.94429 0.0
C529 C 0.29347 0.70982 0.91798 0.0
C530 C 0.25599 0.71624 0.90091 0.0
C531 C 0.22641 0.74544 0.91039 0.0
C532 C 0.34 0.72624 0.96327 0.0
C533 C 0.24687 0.69198 0.87272 0.0
H534 H 0.42232 0.68696 0.86706 0.0
H535 H 0.332 0.55884 0.90446 0.0
H536 H 0.34997 0.76609 0.8729 0.0
H537 H 0.38104 0.77582 0.90525 0.0
H538 H 0.4114 0.7665 0.87343 0.0
H539 H 0.26906 0.56356 0.9344 0.0
H540 H 0.27228 0.62146 0.95137 0.0
H541 H 0.23881 0.60772 0.92013 0.0
H542 H 0.27616 0.78076 0.97317 0.0
H543 H 0.19635 0.74848 0.89804 0.0
H544 H 0.37412 0.7391 0.95229 0.0
H545 H 0.33615 0.68663 0.9684 0.0
H546 H 0.34064 0.74647 0.98322 0.0
H547 H 0.27843 0.70271 0.85904 0.0
H548 H 0.21705 0.70202 0.86169 0.0
H549 H 0.23926 0.65147 0.87556 0.0
C550 C 0.77751 0.18439 0.17199 0.0
C551 C 0.8035 0.21924 0.19002 0.0
C552 C 0.73705 0.15075 0.18149 0.0
C553 C 0.722 0.15171 0.2098 0.0
C554 C 0.748 0.18678 0.22817 0.0
C555 C 0.78833 0.22021 0.21805 0.0
C556 C 0.7102 0.11431 0.1611 0.0
C557 C 0.73327 0.18887 0.25852 0.0
C558 C 0.59344 0.09343 0.22303 0.0
C559 C 0.59504 0.04578 0.23188 0.0
C560 C 0.63457 0.1289 0.21683 0.0
C561 C 0.67847 0.1165 0.21978 0.0
C562 C 0.68027 0.06908 0.23019 0.0
C563 C 0.63845 0.03423 0.23607 0.0
C564 C 0.63089 0.17892 0.2059 0.0
C565 C 0.72626 0.05442 0.23389 0.0
H566 H 0.7885 0.1838 0.15021 0.0
H567 H 0.80844 0.24665 0.23221 0.0
H568 H 0.70776 0.0763 0.16914 0.0
H569 H 0.674 0.11948 0.15914 0.0
H570 H 0.72669 0.11808 0.13984 0.0
H571 H 0.75749 0.21794 0.27018 0.0
H572 H 0.69766 0.19595 0.25966 0.0
H573 H 0.73176 0.15294 0.26924 0.0
H574 H 0.55975 0.10241 0.22025 0.0
H575 H 0.63955 0.99729 0.24284 0.0
H576 H 0.6434 0.18391 0.18373 0.0
H577 H 0.65348 0.20818 0.21824 0.0
H578 H 0.59448 0.18394 0.2068 0.0
H579 H 0.74267 0.05249 0.21297 0.0
H580 H 0.72197 0.01815 0.24479 0.0
H581 H 0.75066 0.08239 0.24609 0.0
C582 C 1.03651 0.56763 0.05342 0.0
C583 C 1.05598 0.52948 0.06349 0.0
C584 C 1.06298 0.60615 0.03694 0.0
C585 C 0.11015 0.60644 0.03033 0.0
C586 C 0.12957 0.56701 0.03964 0.0
C587 C 0.10209 0.52875 0.0561 0.0
C588 C 1.0409 0.64756 0.02754 0.0
C589 C 0.17966 0.56608 0.03305 0.0
C590 C 0.15196 0.6946 0.96977 0.0
C591 C 0.17042 0.73791 0.98408 0.0
C592 C 0.13634 0.64993 0.98444 0.0
C593 C 0.13861 0.64895 0.01415 0.0
C594 C 0.16096 0.6919 0.02843 0.0
C595 C 0.17643 0.73614 0.01315 0.0
C596 C 0.11348 0.60499 0.9683 0.0
C597 C 0.16459 0.69211 0.06003 0.0
H598 H 1.0009 0.56818 0.05927 0.0
H599 H 0.11733 0.49946 0.06418 0.0
H600 H 1.05982 0.6825 0.03685 0.0
H601 H 1.04358 0.65241 0.00433 0.0
H602 H 1.00349 0.64103 0.03384 0.0
H603 H 0.18815 0.53079 0.03965 0.0
H604 H 0.18692 0.57218 0.01017 0.0
H605 H 0.20339 0.59629 0.04409 0.0
H606 H 0.14675 0.69648 0.94727 0.0
H607 H 0.1906 0.76994 0.024 0.0
H608 H 0.07498 0.59859 0.97074 0.0
H609 H 0.12415 0.57191 0.97666 0.0
H610 H 0.12234 0.60934 0.9455 0.0
H611 H 0.12905 0.68635 0.06926 0.0
H612 H 0.1861 0.72723 0.06778 0.0
H613 H 0.17979 0.66142 0.06761 0.0
C614 C 0.6166 0.97086 0.41857 0.0
C615 C 0.57304 0.96447 0.43205 0.0
C616 C 0.62077 0.97693 0.38909 0.0
C617 C 0.58013 0.97456 0.37279 0.0
C618 C 0.53598 0.96704 0.38642 0.0
C619 C 0.53315 0.96303 0.41585 0.0
C620 C 0.66858 0.98662 0.37545 0.0
C621 C 0.4915 0.96282 0.36992 0.0
C622 C 0.5705 0.02388 0.29882 0.0
C623 C 0.56178 0.98038 0.28363 0.0
C624 C 0.5816 0.02358 0.32756 0.0
C625 C 0.5826 0.97847 0.34143 0.0
C626 C 0.57783 0.93535 0.32548 0.0
C627 C 0.56834 0.93713 0.29664 0.0
C628 C 0.5883 0.07078 0.34352 0.0
C629 C 0.57779 0.88626 0.33927 0.0
H630 H 0.64748 0.97249 0.43108 0.0
H631 H 0.49936 0.95792 0.42622 0.0
H632 H 0.6708 0.9566 0.36094 0.0
H633 H 0.67468 0.02114 0.36267 0.0
H634 H 0.69685 0.98974 0.39118 0.0
H635 H 0.45986 0.9548 0.38367 0.0
H636 H 0.49245 0.99757 0.35806 0.0
H637 H 0.48829 0.93316 0.35435 0.0
H638 H 0.56556 0.05738 0.28874 0.0
H639 H 0.56244 0.90377 0.28462 0.0
H640 H 0.61687 0.07355 0.35897 0.0
H641 H 0.5558 0.07141 0.35538 0.0
H642 H 0.59642 0.10346 0.32914 0.0
H643 H 0.60723 0.88935 0.35408 0.0
H644 H 0.5801 0.85789 0.32359 0.0
H645 H 0.54495 0.87358 0.35164 0.0
C646 C 0.63312 0.58698 0.72791 0.0
C647 C 0.63042 0.54569 0.74555 0.0
C648 C 0.62368 0.58179 0.69903 0.0
C649 C 0.61277 0.53425 0.68751 0.0
C650 C 0.60947 0.49243 0.7054 0.0
C651 C 0.61762 0.49866 0.73429 0.0
C652 C 0.62597 0.62709 0.68082 0.0
C653 C 0.59883 0.4411 0.69389 0.0
C654 C 0.5553 0.5012 0.61717 0.0
C655 C 0.59379 0.49842 0.60034 0.0
C656 C 0.56124 0.51687 0.64507 0.0
C657 C 0.60663 0.52775 0.65664 0.0
C658 C 0.64578 0.52684 0.63924 0.0
C659 C 0.63881 0.51256 0.61116 0.0
C660 C 0.51871 0.51872 0.66261 0.0
C661 C 0.69464 0.53702 0.65083 0.0
H662 H 0.64265 0.62336 0.73671 0.0
H663 H 0.6157 0.46672 0.74792 0.0
H664 H 0.65535 0.63141 0.66552 0.0
H665 H 0.59343 0.62328 0.66851 0.0
H666 H 0.63092 0.66097 0.69339 0.0
H667 H 0.59794 0.41257 0.71059 0.0
H668 H 0.5646 0.4335 0.6832 0.0
H669 H 0.62567 0.43781 0.67794 0.0
H670 H 0.52048 0.48887 0.60883 0.0
H671 H 0.66821 0.50901 0.59811 0.0
H672 H 0.52516 0.55247 0.6753 0.0
H673 H 0.5109 0.48676 0.67745 0.0
H674 H 0.48748 0.51771 0.64939 0.0
H675 H 0.70231 0.57212 0.66226 0.0
H676 H 0.72151 0.53884 0.63405 0.0
H677 H 0.69759 0.50744 0.66614 0.0
C678 C 0.63962 0.91347 0.61086 0.0
C679 C 0.6197 0.94516 0.59425 0.0
C680 C 0.63867 0.91549 0.64038 0.0
C681 C 0.61816 0.95071 0.65346 0.0
C682 C 0.59587 0.98099 0.63676 0.0
C683 C 0.59654 0.97751 0.60734 0.0
C684 C 0.66174 0.88173 0.65746 0.0
C685 C 0.57392 0.01933 0.64982 0.0
C686 C 0.59518 0.95701 0.73209 0.0
C687 C 0.63331 0.99415 0.73967 0.0
C688 C 0.59101 0.93978 0.70436 0.0
C689 C 0.62548 0.96098 0.68394 0.0
C690 C 0.66549 0.99627 0.6922 0.0
C691 C 0.669 0.01204 0.72003 0.0
C692 C 0.54853 0.90112 0.69659 0.0
C693 C 0.70311 0.01997 0.67126 0.0
H694 H 0.657 0.88791 0.60076 0.0
H695 H 0.58085 1.00185 0.59456 0.0
H696 H 0.69537 0.90292 0.66571 0.0
H697 H 0.63951 0.86592 0.67582 0.0
H698 H 0.66889 0.85125 0.64472 0.0
H699 H 0.5551 0.03742 0.63415 0.0
H700 H 0.54903 1.00253 0.66679 0.0
H701 H 0.60146 0.04795 0.6595 0.0
H702 H 0.56771 0.94331 0.74746 0.0
H703 H 0.69859 0.04047 0.72626 0.0
H704 H 0.55834 0.87354 0.68267 0.0
H705 H 0.52393 0.91866 0.68485 0.0
H706 H 0.53005 0.88194 0.7155 0.0
H707 H 0.71604 0.99152 0.65969 0.0
H708 H 0.73323 0.04454 0.68149 0.0
H709 H 0.68837 0.04197 0.65554 0.0
C710 C 0.65091 0.50654 0.93067 0.0
C711 C 0.62906 0.53503 0.91309 0.0
C712 C 0.64666 0.50815 0.96014 0.0
C713 C 0.61813 0.53727 0.97214 0.0
C714 C 0.598 0.56803 0.95435 0.0
C715 C 0.60419 0.56693 0.92502 0.0
C716 C 0.67013 0.47619 0.97829 0.0
C717 C 0.56651 0.59883 0.96606 0.0
C718 C 0.54547 0.4863 0.03668 0.0
C719 C 0.56485 0.5194 0.05747 0.0
C720 C 0.56317 0.49122 0.0091 0.0
C721 C 0.60263 0.52926 0.00223 0.0
C722 C 0.62465 0.56066 0.02372 0.0
C723 C 0.60494 0.55591 0.05108 0.0
C724 C 0.53799 0.45715 0.98702 0.0
C725 C 0.66789 0.60029 0.01765 0.0
H726 H 0.66993 0.48166 0.92135 0.0
H727 H 0.58672 0.58836 0.91131 0.0
H728 H 0.6853 0.49608 -0.00275 0.0
H729 H 0.64394 0.44309 0.98556 0.0
H730 H 0.6982 0.46396 0.9666 0.0
H731 H 0.55689 0.6238 0.94984 0.0
H732 H 0.53398 0.57438 0.97453 0.0
H733 H 0.58368 0.62115 0.9837 0.0
H734 H 0.51484 0.45772 0.04189 0.0
H735 H 0.61997 0.5814 0.06723 0.0
H736 H 0.56229 0.43738 0.97693 0.0
H737 H 0.52509 0.47879 0.97029 0.0
H738 H 0.50778 0.42957 -0.0041 0.0
H739 H 0.6927 0.58631 0.00407 0.0
H740 H 0.68592 0.61449 0.03729 0.0
H741 H 0.65812 0.63132 0.00618 0.0
C742 C 1.04543 0.54451 0.2388 0.0
C743 C 1.02733 0.51157 0.21766 0.0
C744 C 1.04962 0.52812 0.26644 0.0
C745 C 1.03491 0.4774 0.27327 0.0
C746 C 1.01538 0.44396 0.25216 0.0
C747 C 1.01199 0.4615 0.22447 0.0
C748 C 1.07086 0.56514 0.28822 0.0
C749 C 0.99882 0.38977 0.25872 0.0
C750 C 0.09849 0.4491 0.33785 0.0
C751 C 1.06786 0.45646 0.35913 0.0
C752 C 0.08634 0.45098 0.30945 0.0
C753 C 1.04236 0.46026 0.30234 0.0
C754 C 1.00948 0.46252 0.32396 0.0
C755 C 1.02277 0.4608 0.35223 0.0
C756 C 0.12244 0.44815 0.28718 0.0
C757 C 0.96199 0.4716 0.31733 0.0
H758 H 1.05726 0.5833 0.23362 0.0
H759 H 0.99736 0.43616 0.20823 0.0
H760 H 1.04629 0.56352 0.30621 0.0
H761 H 0.10322 0.55625 0.29655 0.0
H762 H 0.07968 0.60333 0.27955 0.0
H763 H 0.98066 0.36936 0.24064 0.0
H764 H 1.0291 0.37406 0.26429 0.0
H765 H 0.97476 0.3838 0.27718 0.0
H766 H 0.13318 0.44527 0.34347 0.0
H767 H 0.99924 0.46651 0.36884 0.0
H768 H 0.1374 0.48557 0.27848 0.0
H769 H 0.10637 0.42508 0.26953 0.0
H770 H 0.15143 0.43297 0.29578 0.0
H771 H 0.96559 0.51099 0.31168 0.0
H772 H 0.93761 0.46241 0.33561 0.0
H773 H 0.94649 0.44979 0.29908 0.0
loop_
_geom_bond_atom_site_label_1
_geom_bond_atom_site_label_2
_geom_bond_distance
_geom_bond_site_symmetry_2
_ccdc_geom_bond_type
Nd0 C2 2.836 . S
Nd0 O20 2.500 . S
Nd0 O21 2.492 . S
Nd0 O22 2.487 . S
Nd0 O23 2.682 1_455 S
Nd0 O24 2.410 . S
Nd0 O29 2.414 . S
Nd0 O31 2.424 1_455 S
Nd1 C11 2.836 . S
Nd1 O23 2.414 . S
Nd1 O25 2.424 1_655 S
Nd1 O26 2.500 . S
Nd1 O27 2.492 . S
Nd1 O28 2.487 . S
Nd1 O29 2.682 1_655 S
Nd1 O30 2.410 . S
C2 Nd0 2.836 . S
C2 C3 1.498 . S
C2 O20 1.258 . S
C2 O21 1.239 . S
C3 C2 1.498 . S
C3 C4 1.366 . S
C3 C8 1.407 . S
C4 C3 1.366 . S
C4 C5 1.392 . S
C4 H32 0.930 . S
C5 C4 1.392 . S
C5 C6 1.398 . S
C5 H33 0.929 . S
C6 C5 1.398 . S
C6 C7 1.352 . S
C7 C6 1.352 . S
C7 C8 1.384 . S
C7 H34 0.930 . S
C8 C3 1.407 . S
C8 C7 1.384 . S
C8 H35 0.929 . S
C9 O22 1.241 1_655 S
C9 O23 1.273 . S
C10 O24 1.251 . S
C10 O25 1.268 . S
C11 Nd1 2.836 . S
C11 C12 1.498 . S
C11 O26 1.258 . S
C11 O27 1.239 . S
C12 C11 1.498 . S
C12 C13 1.366 . S
C12 C17 1.407 . S
C13 C12 1.366 . S
C13 C14 1.392 . S
C13 H36 0.930 . S
C14 C13 1.392 . S
C14 C15 1.398 . S
C14 H37 0.929 . S
C15 C14 1.398 . S
C15 C16 1.352 . S
C16 C15 1.352 . S
C16 C17 1.384 . S
C16 H38 0.930 . S
C17 C12 1.407 . S
C17 C16 1.384 . S
C17 H39 0.929 . S
C18 O28 1.241 1_455 S
C18 O29 1.273 . S
C19 O30 1.251 . S
C19 O31 1.268 . S
O20 Nd0 2.500 . S
O20 C2 1.258 . S
O21 Nd0 2.492 . S
O21 C2 1.239 . S
O22 Nd0 2.487 . S
O22 C9 1.241 1_455 S
O23 Nd0 2.682 1_655 S
O23 Nd1 2.414 . S
O23 C9 1.273 . S
O24 Nd0 2.410 . S
O24 C10 1.251 . S
O25 Nd1 2.424 1_455 S
O25 C10 1.268 . S
O26 Nd1 2.500 . S
O26 C11 1.258 . S
O27 Nd1 2.492 . S
O27 C11 1.239 . S
O28 Nd1 2.487 . S
O28 C18 1.241 1_655 S
O29 Nd0 2.414 . S
O29 Nd1 2.682 1_455 S
O29 C18 1.273 . S
O30 Nd1 2.410 . S
O30 C19 1.251 . S
O31 Nd0 2.424 1_655 S
O31 C19 1.268 . S
H32 C4 0.930 . S
H33 C5 0.929 . S
H34 C7 0.930 . S
H35 C8 0.929 . S
H36 C13 0.930 . S
H37 C14 0.929 . S
H38 C16 0.930 . S
H39 C17 0.929 . S
Nd40 C42 2.836 . S
Nd40 O60 2.500 . S
Nd40 O61 2.492 . S
Nd40 O62 2.487 . S
Nd40 O63 2.682 1_565 S
Nd40 O64 2.410 . S
Nd40 O69 2.414 1_565 S
Nd40 O71 2.424 1_565 S
Nd41 C51 2.836 . S
Nd41 O63 2.414 . S
Nd41 O65 2.424 1_545 S
Nd41 O66 2.500 . S
Nd41 O67 2.492 . S
Nd41 O68 2.487 . S
Nd41 O69 2.682 . S
Nd41 O70 2.410 . S
C42 Nd40 2.836 . S
C42 C43 1.498 . S
C42 O60 1.258 . S
C42 O61 1.239 . S
C43 C42 1.498 . S
C43 C44 1.366 . S
C43 C48 1.407 . S
C44 C43 1.366 . S
C44 C45 1.392 . S
C44 H72 0.930 . S
C45 C44 1.392 . S
C45 C46 1.398 . S
C45 H73 0.929 . S
C46 C45 1.398 . S
C46 C47 1.352 . S
C47 C46 1.352 . S
C47 C48 1.384 . S
C47 H74 0.930 . S
C48 C43 1.407 . S
C48 C47 1.384 . S
C48 H75 0.929 . S
C49 O62 1.241 1_545 S
C49 O63 1.273 . S
C50 O64 1.251 . S
C50 O65 1.268 . S
C51 Nd41 2.836 . S
C51 C52 1.498 . S
C51 O66 1.258 . S
C51 O67 1.239 . S
C52 C51 1.498 . S
C52 C53 1.366 . S
C52 C57 1.407 . S
C53 C52 1.366 . S
C53 C54 1.392 . S
C53 H76 0.930 . S
C54 C53 1.392 . S
C54 C55 1.398 . S
C54 H77 0.929 . S
C55 C54 1.398 . S
C55 C56 1.352 . S
C56 C55 1.352 . S
C56 C57 1.384 . S
C56 H78 0.930 . S
C57 C52 1.407 . S
C57 C56 1.384 . S
C57 H79 0.929 . S
C58 O68 1.241 . S
C58 O69 1.273 . S
C59 O70 1.251 . S
C59 O71 1.268 . S
O60 Nd40 2.500 . S
O60 C42 1.258 . S
O61 Nd40 2.492 . S
O61 C42 1.239 . S
O62 Nd40 2.487 . S
O62 C49 1.241 1_565 S
O63 Nd40 2.682 1_545 S
O63 Nd41 2.414 . S
O63 C49 1.273 . S
O64 Nd40 2.410 . S
O64 C50 1.251 . S
O65 Nd41 2.424 1_565 S
O65 C50 1.268 . S
O66 Nd41 2.500 . S
O66 C51 1.258 . S
O67 Nd41 2.492 . S
O67 C51 1.239 . S
O68 Nd41 2.487 . S
O68 C58 1.241 . S
O69 Nd40 2.414 1_545 S
O69 Nd41 2.682 . S
O69 C58 1.273 . S
O70 Nd41 2.410 . S
O70 C59 1.251 . S
O71 Nd40 2.424 1_545 S
O71 C59 1.268 . S
H72 C44 0.930 . S
H73 C45 0.929 . S
H74 C47 0.930 . S
H75 C48 0.929 . S
H76 C53 0.930 . S
H77 C54 0.929 . S
H78 C56 0.930 . S
H79 C57 0.929 . S
Nd80 C82 2.836 . S
Nd80 O100 2.500 . S
Nd80 O101 2.492 . S
Nd80 O102 2.487 . S
Nd80 O103 2.682 . S
Nd80 O104 2.410 . S
Nd80 O109 2.414 . S
Nd80 O111 2.424 . S
Nd81 C91 2.836 . S
Nd81 O103 2.414 . S
Nd81 O105 2.424 . S
Nd81 O106 2.500 . S
Nd81 O107 2.492 . S
Nd81 O108 2.487 . S
Nd81 O109 2.682 . S
Nd81 O110 2.410 . S
C82 Nd80 2.836 . S
C82 C83 1.498 . S
C82 O100 1.258 . S
C82 O101 1.239 . S
C83 C82 1.498 . S
C83 C84 1.366 . S
C83 C88 1.407 . S
C84 C83 1.366 . S
C84 C85 1.392 . S
C84 H112 0.930 . S
C85 C84 1.392 . S
C85 C86 1.398 . S
C85 H113 0.929 . S
C86 C85 1.398 . S
C86 C87 1.352 . S
C87 C86 1.352 . S
C87 C88 1.384 . S
C87 H114 0.930 . S
C88 C83 1.407 . S
C88 C87 1.384 . S
C88 H115 0.929 . S
C89 O102 1.241 . S
C89 O103 1.273 . S
C90 O104 1.251 . S
C90 O105 1.268 . S
C91 Nd81 2.836 . S
C91 C92 1.498 . S
C91 O106 1.258 . S
C91 O107 1.239 . S
C92 C91 1.498 . S
C92 C93 1.366 . S
C92 C97 1.407 . S
C93 C92 1.366 . S
C93 C94 1.392 . S
C93 H116 0.930 . S
C94 C93 1.392 . S
C94 C95 1.398 . S
C94 H117 0.929 . S
C95 C94 1.398 . S
C95 C96 1.352 . S
C96 C95 1.352 . S
C96 C97 1.384 . S
C96 H118 0.930 . S
C97 C92 1.407 . S
C97 C96 1.384 . S
C97 H119 0.929 . S
C98 O108 1.241 . S
C98 O109 1.273 . S
C99 O110 1.251 . S
C99 O111 1.268 . S
O100 Nd80 2.500 . S
O100 C82 1.258 . S
O101 Nd80 2.492 . S
O101 C82 1.239 . S
O102 Nd80 2.487 . S
O102 C89 1.241 . S
O103 Nd80 2.682 . S
O103 Nd81 2.414 . S
O103 C89 1.273 . S
O104 Nd80 2.410 . S
O104 C90 1.251 . S
O105 Nd81 2.424 . S
O105 C90 1.268 . S
O106 Nd81 2.500 . S
O106 C91 1.258 . S
O107 Nd81 2.492 . S
O107 C91 1.239 . S
O108 Nd81 2.487 . S
O108 C98 1.241 . S
O109 Nd80 2.414 . S
O109 Nd81 2.682 . S
O109 C98 1.273 . S
O110 Nd81 2.410 . S
O110 C99 1.251 . S
O111 Nd80 2.424 . S
O111 C99 1.268 . S
H112 C84 0.930 . S
H113 C85 0.929 . S
H114 C87 0.930 . S
H115 C88 0.929 . S
H116 C93 0.930 . S
H117 C94 0.929 . S
H118 C96 0.930 . S
H119 C97 0.929 . S
C120 N121 1.317 1_565 S
C120 N122 1.348 . S
C120 C123 1.484 1_565 S
N121 C120 1.317 1_545 S
N121 N125 1.370 . S
N122 C120 1.348 . S
N122 C124 1.346 . S
C123 C120 1.484 1_545 S
C123 H127 0.968 . S
C123 H128 0.953 1_545 S
C123 H129 0.961 . S
C124 N122 1.346 . S
C124 N125 1.307 1_565 S
C124 C126 1.486 . S
N125 N121 1.370 . S
N125 C124 1.307 1_545 S
C126 C124 1.486 . S
C126 H130 0.960 . S
C126 H131 0.960 . S
C126 H132 0.959 . S
H127 C123 0.968 . S
H128 C123 0.953 1_565 S
H129 C123 0.961 . S
H130 C126 0.960 . S
H131 C126 0.960 . S
H132 C126 0.959 . S
C133 N134 1.317 . S
C133 N135 1.348 . S
C133 C136 1.485 . S
N134 C133 1.317 . S
N134 N138 1.370 . S
N135 C133 1.348 . S
N135 C137 1.346 . S
C136 C133 1.485 . S
C136 H140 0.960 . S
C136 H141 0.961 . S
C136 H142 0.960 . S
C137 N135 1.346 . S
C137 N138 1.307 . S
C137 C139 1.486 . S
N138 N134 1.370 . S
N138 C137 1.307 . S
C139 C137 1.486 . S
C139 H143 0.960 . S
C139 H144 0.960 . S
C139 H145 0.959 . S
H140 C136 0.960 . S
H141 C136 0.961 . S
H142 C136 0.960 . S
H143 C139 0.960 . S
H144 C139 0.960 . S
H145 C139 0.959 . S
C146 N147 1.317 . S
C146 N148 1.348 1_455 S
C146 C149 1.485 . S
N147 C146 1.317 . S
N147 N151 1.370 . S
N148 C146 1.348 1_655 S
N148 C150 1.346 . S
C149 C146 1.485 . S
C149 H153 0.960 . S
C149 H154 0.961 . S
C149 H155 0.960 . S
C150 N148 1.346 . S
C150 N151 1.307 1_655 S
C150 C152 1.486 . S
N151 N147 1.370 . S
N151 C150 1.307 1_455 S
C152 C150 1.486 . S
C152 H156 0.960 . S
C152 H157 0.960 . S
C152 H158 0.959 . S
H153 C149 0.960 . S
H154 C149 0.961 . S
H155 C149 0.960 . S
H156 C152 0.960 . S
H157 C152 0.960 . S
H158 C152 0.959 . S
C159 N160 1.317 1_455 S
C159 N161 1.348 . S
C159 C162 1.485 . S
N160 C159 1.317 1_655 S
N160 N164 1.370 1_655 S
N161 C159 1.348 . S
N161 C163 1.346 . S
C162 C159 1.485 . S
C162 H166 0.960 1_455 S
C162 H167 0.961 . S
C162 H168 0.960 1_455 S
C163 N161 1.346 . S
C163 N164 1.307 . S
C163 C165 1.486 . S
N164 N160 1.370 1_455 S
N164 C163 1.307 . S
C165 C163 1.486 . S
C165 H169 0.960 . S
C165 H170 0.960 . S
C165 H171 0.959 . S
H166 C162 0.960 1_655 S
H167 C162 0.961 . S
H168 C162 0.960 1_655 S
H169 C165 0.960 . S
H170 C165 0.960 . S
H171 C165 0.959 . S
C172 N173 1.317 . S
C172 N174 1.348 . S
C172 C175 1.485 . S
N173 C172 1.317 . S
N173 N177 1.370 . S
N174 C172 1.348 . S
N174 C176 1.346 . S
C175 C172 1.485 . S
C175 H179 0.960 . S
C175 H180 0.961 . S
C175 H181 0.960 . S
C176 N174 1.346 . S
C176 N177 1.307 . S
C176 C178 1.486 . S
N177 N173 1.370 . S
N177 C176 1.307 . S
C178 C176 1.486 . S
C178 H182 0.960 . S
C178 H183 0.960 . S
C178 H184 0.959 . S
H179 C175 0.960 . S
H180 C175 0.961 . S
H181 C175 0.960 . S
H182 C178 0.960 . S
H183 C178 0.960 . S
H184 C178 0.959 . S
C185 N186 1.317 . S
C185 N187 1.348 . S
C185 C188 1.485 . S
N186 C185 1.317 . S
N186 N190 1.370 . S
N187 C185 1.348 . S
N187 C189 1.346 . S
C188 C185 1.485 . S
C188 H192 0.960 . S
C188 H193 0.961 . S
C188 H194 0.960 . S
C189 N187 1.346 . S
C189 N190 1.307 . S
C189 C191 1.486 . S
N190 N186 1.370 . S
N190 C189 1.307 . S
C191 C189 1.486 . S
C191 H195 0.960 . S
C191 H196 0.960 . S
C191 H197 0.959 . S
H192 C188 0.960 . S
H193 C188 0.961 . S
H194 C188 0.960 . S
H195 C191 0.960 . S
H196 C191 0.960 . S
H197 C191 0.959 . S
C198 C199 1.391 . S
C198 C200 1.394 . S
C198 H214 0.931 . S
C199 C198 1.391 . S
C199 C203 1.376 . S
C200 C198 1.394 . S
C200 C201 1.369 . S
C200 C204 1.531 . S
C201 C200 1.369 . S
C201 C202 1.410 . S
C201 C209 1.503 . S
C202 C201 1.410 . S
C202 C203 1.392 . S
C202 C205 1.511 . S
C203 C199 1.376 . S
C203 C202 1.392 . S
C203 H215 0.929 . S
C204 C200 1.531 . S
C204 H216 0.960 . S
C204 H217 0.962 . S
C204 H218 0.960 . S
C205 C202 1.511 . S
C205 H219 0.961 . S
C205 H220 0.961 . S
C205 H221 0.961 . S
C206 C207 1.370 . S
C206 C208 1.363 . S
C206 H222 0.931 . S
C207 C206 1.370 . S
C207 C211 1.408 . S
C208 C206 1.363 . S
C208 C209 1.370 . S
C208 C212 1.524 . S
C209 C201 1.503 . S
C209 C208 1.370 . S
C209 C210 1.403 . S
C210 C209 1.403 . S
C210 C211 1.404 . S
C210 C213 1.539 . S
C211 C207 1.408 . S
C211 C210 1.404 . S
C211 H223 0.930 . S
C212 C208 1.524 . S
C212 H224 0.956 . S
C212 H225 0.961 . S
C212 H226 0.961 . S
C213 C210 1.539 . S
C213 H227 0.958 . S
C213 H228 0.961 . S
C213 H229 0.960 . S
H214 C198 0.931 . S
H215 C203 0.929 . S
H216 C204 0.960 . S
H217 C204 0.962 . S
H218 C204 0.960 . S
H219 C205 0.961 . S
H220 C205 0.961 . S
H221 C205 0.961 . S
H222 C206 0.931 . S
H223 C211 0.930 . S
H224 C212 0.956 . S
H225 C212 0.961 . S
H226 C212 0.961 . S
H227 C213 0.958 . S
H228 C213 0.961 . S
H229 C213 0.960 . S
C230 C231 1.391 . S
C230 C232 1.394 . S
C230 H246 0.931 . S
C231 C230 1.391 . S
C231 C235 1.376 . S
C232 C230 1.394 . S
C232 C233 1.369 . S
C232 C236 1.531 . S
C233 C232 1.369 . S
C233 C234 1.410 . S
C233 C241 1.503 . S
C234 C233 1.410 . S
C234 C235 1.392 . S
C234 C237 1.511 . S
C235 C231 1.376 . S
C235 C234 1.392 . S
C235 H247 0.929 . S
C236 C232 1.531 . S
C236 H248 0.960 . S
C236 H249 0.962 . S
C236 H250 0.960 . S
C237 C234 1.511 . S
C237 H251 0.961 . S
C237 H252 0.961 . S
C237 H253 0.961 . S
C238 C239 1.370 . S
C238 C240 1.363 . S
C238 H254 0.931 . S
C239 C238 1.370 . S
C239 C243 1.408 . S
C240 C238 1.363 . S
C240 C241 1.370 . S
C240 C244 1.524 . S
C241 C233 1.503 . S
C241 C240 1.370 . S
C241 C242 1.403 . S
C242 C241 1.403 . S
C242 C243 1.404 . S
C242 C245 1.539 . S
C243 C239 1.408 . S
C243 C242 1.404 . S
C243 H255 0.930 . S
C244 C240 1.524 . S
C244 H256 0.956 . S
C244 H257 0.961 . S
C244 H258 0.961 . S
C245 C242 1.539 . S
C245 H259 0.958 . S
C245 H260 0.961 . S
C245 H261 0.960 . S
H246 C230 0.931 . S
H247 C235 0.929 . S
H248 C236 0.960 . S
H249 C236 0.962 . S
H250 C236 0.960 . S
H251 C237 0.961 . S
H252 C237 0.961 . S
H253 C237 0.961 . S
H254 C238 0.931 . S
H255 C243 0.930 . S
H256 C244 0.956 . S
H257 C244 0.961 . S
H258 C244 0.961 . S
H259 C245 0.958 . S
H260 C245 0.961 . S
H261 C245 0.960 . S
C262 C263 1.391 . S
C262 C264 1.394 . S
C262 H278 0.931 . S
C263 C262 1.391 . S
C263 C267 1.376 . S
C264 C262 1.394 . S
C264 C265 1.369 . S
C264 C268 1.531 . S
C265 C264 1.369 . S
C265 C266 1.410 . S
C265 C273 1.503 . S
C266 C265 1.410 . S
C266 C267 1.392 . S
C266 C269 1.511 . S
C267 C263 1.376 . S
C267 C266 1.392 . S
C267 H279 0.929 . S
C268 C264 1.531 . S
C268 H280 0.960 . S
C268 H281 0.962 . S
C268 H282 0.960 . S
C269 C266 1.511 . S
C269 H283 0.961 . S
C269 H284 0.961 . S
C269 H285 0.961 . S
C270 C271 1.370 . S
C270 C272 1.363 . S
C270 H286 0.931 . S
C271 C270 1.370 . S
C271 C275 1.408 . S
C272 C270 1.363 . S
C272 C273 1.370 . S
C272 C276 1.524 . S
C273 C265 1.503 . S
C273 C272 1.370 . S
C273 C274 1.403 . S
C274 C273 1.403 . S
C274 C275 1.404 . S
C274 C277 1.539 . S
C275 C271 1.408 . S
C275 C274 1.404 . S
C275 H287 0.930 . S
C276 C272 1.524 . S
C276 H288 0.956 . S
C276 H289 0.961 . S
C276 H290 0.961 . S
C277 C274 1.539 . S
C277 H291 0.958 . S
C277 H292 0.961 . S
C277 H293 0.960 . S
H278 C262 0.931 . S
H279 C267 0.929 . S
H280 C268 0.960 . S
H281 C268 0.962 . S
H282 C268 0.960 . S
H283 C269 0.961 . S
H284 C269 0.961 . S
H285 C269 0.961 . S
H286 C270 0.931 . S
H287 C275 0.930 . S
H288 C276 0.956 . S
H289 C276 0.961 . S
H290 C276 0.961 . S
H291 C277 0.958 . S
H292 C277 0.961 . S
H293 C277 0.960 . S
C294 C295 1.391 . S
C294 C296 1.394 . S
C294 H310 0.931 . S
C295 C294 1.391 . S
C295 C299 1.376 . S
C296 C294 1.394 . S
C296 C297 1.369 . S
C296 C300 1.531 . S
C297 C296 1.369 . S
C297 C298 1.410 . S
C297 C305 1.503 . S
C298 C297 1.410 . S
C298 C299 1.392 . S
C298 C301 1.511 . S
C299 C295 1.376 . S
C299 C298 1.392 . S
C299 H311 0.929 . S
C300 C296 1.531 . S
C300 H312 0.960 . S
C300 H313 0.962 . S
C300 H314 0.960 . S
C301 C298 1.511 . S
C301 H315 0.961 . S
C301 H316 0.961 . S
C301 H317 0.961 . S
C302 C303 1.370 . S
C302 C304 1.363 . S
C302 H318 0.931 . S
C303 C302 1.370 . S
C303 C307 1.408 . S
C304 C302 1.363 . S
C304 C305 1.370 . S
C304 C308 1.524 . S
C305 C297 1.503 . S
C305 C304 1.370 . S
C305 C306 1.403 . S
C306 C305 1.403 . S
C306 C307 1.404 . S
C306 C309 1.539 . S
C307 C303 1.408 . S
C307 C306 1.404 . S
C307 H319 0.930 . S
C308 C304 1.524 . S
C308 H320 0.956 . S
C308 H321 0.961 . S
C308 H322 0.961 . S
C309 C306 1.539 . S
C309 H323 0.958 . S
C309 H324 0.961 . S
C309 H325 0.960 . S
H310 C294 0.931 . S
H311 C299 0.929 . S
H312 C300 0.960 . S
H313 C300 0.962 . S
H314 C300 0.960 . S
H315 C301 0.961 . S
H316 C301 0.961 . S
H317 C301 0.961 . S
H318 C302 0.931 . S
H319 C307 0.930 . S
H320 C308 0.956 . S
H321 C308 0.961 . S
H322 C308 0.961 . S
H323 C309 0.958 . S
H324 C309 0.961 . S
H325 C309 0.960 . S
C326 C327 1.391 . S
C326 C328 1.394 . S
C326 H342 0.931 . S
C327 C326 1.391 . S
C327 C331 1.376 . S
C328 C326 1.394 . S
C328 C329 1.369 . S
C328 C332 1.531 . S
C329 C328 1.369 . S
C329 C330 1.410 . S
C329 C337 1.503 . S
C330 C329 1.410 . S
C330 C331 1.392 . S
C330 C333 1.511 . S
C331 C327 1.376 . S
C331 C330 1.392 . S
C331 H343 0.929 . S
C332 C328 1.531 . S
C332 H344 0.960 . S
C332 H345 0.962 . S
C332 H346 0.960 . S
C333 C330 1.511 . S
C333 H347 0.961 . S
C333 H348 0.961 . S
C333 H349 0.961 . S
C334 C335 1.370 . S
C334 C336 1.363 . S
C334 H350 0.931 . S
C335 C334 1.370 . S
C335 C339 1.408 . S
C336 C334 1.363 . S
C336 C337 1.370 . S
C336 C340 1.524 . S
C337 C329 1.503 . S
C337 C336 1.370 . S
C337 C338 1.403 . S
C338 C337 1.403 . S
C338 C339 1.404 . S
C338 C341 1.539 . S
C339 C335 1.408 . S
C339 C338 1.404 . S
C339 H351 0.930 . S
C340 C336 1.524 . S
C340 H352 0.956 . S
C340 H353 0.961 . S
C340 H354 0.961 . S
C341 C338 1.539 . S
C341 H355 0.958 . S
C341 H356 0.961 . S
C341 H357 0.960 . S
H342 C326 0.931 . S
H343 C331 0.929 . S
H344 C332 0.960 . S
H345 C332 0.962 . S
H346 C332 0.960 . S
H347 C333 0.961 . S
H348 C333 0.961 . S
H349 C333 0.961 . S
H350 C334 0.931 . S
H351 C339 0.930 . S
H352 C340 0.956 . S
H353 C340 0.961 . S
H354 C340 0.961 . S
H355 C341 0.958 . S
H356 C341 0.961 . S
H357 C341 0.960 . S
C358 C359 1.391 . S
C358 C360 1.394 . S
C358 H374 0.931 . S
C359 C358 1.391 . S
C359 C363 1.376 . S
C360 C358 1.394 . S
C360 C361 1.369 . S
C360 C364 1.531 . S
C361 C360 1.369 . S
C361 C362 1.410 . S
C361 C369 1.503 . S
C362 C361 1.410 . S
C362 C363 1.392 . S
C362 C365 1.511 . S
C363 C359 1.376 . S
C363 C362 1.392 . S
C363 H375 0.929 . S
C364 C360 1.531 . S
C364 H376 0.960 . S
C364 H377 0.962 . S
C364 H378 0.960 . S
C365 C362 1.511 . S
C365 H379 0.961 . S
C365 H380 0.961 . S
C365 H381 0.961 . S
C366 C367 1.370 . S
C366 C368 1.363 . S
C366 H382 0.931 . S
C367 C366 1.370 . S
C367 C371 1.408 . S
C368 C366 1.363 . S
C368 C369 1.370 . S
C368 C372 1.524 . S
C369 C361 1.503 . S
C369 C368 1.370 . S
C369 C370 1.403 . S
C370 C369 1.403 . S
C370 C371 1.404 . S
C370 C373 1.539 . S
C371 C367 1.408 . S
C371 C370 1.404 . S
C371 H383 0.930 . S
C372 C368 1.524 . S
C372 H384 0.956 . S
C372 H385 0.961 . S
C372 H386 0.961 . S
C373 C370 1.539 . S
C373 H387 0.958 . S
C373 H388 0.961 . S
C373 H389 0.960 . S
H374 C358 0.931 . S
H375 C363 0.929 . S
H376 C364 0.960 . S
H377 C364 0.962 . S
H378 C364 0.960 . S
H379 C365 0.961 . S
H380 C365 0.961 . S
H381 C365 0.961 . S
H382 C366 0.931 . S
H383 C371 0.930 . S
H384 C372 0.956 . S
H385 C372 0.961 . S
H386 C372 0.961 . S
H387 C373 0.958 . S
H388 C373 0.961 . S
H389 C373 0.960 . S
C390 C391 1.391 . S
C390 C392 1.394 . S
C390 H406 0.931 . S
C391 C390 1.391 . S
C391 C395 1.376 . S
C392 C390 1.394 . S
C392 C393 1.369 . S
C392 C396 1.531 . S
C393 C392 1.369 . S
C393 C394 1.410 . S
C393 C401 1.503 . S
C394 C393 1.410 . S
C394 C395 1.392 . S
C394 C397 1.511 . S
C395 C391 1.376 . S
C395 C394 1.392 . S
C395 H407 0.929 . S
C396 C392 1.531 . S
C396 H408 0.960 . S
C396 H409 0.962 . S
C396 H410 0.960 . S
C397 C394 1.511 . S
C397 H411 0.961 . S
C397 H412 0.961 . S
C397 H413 0.961 . S
C398 C399 1.370 . S
C398 C400 1.363 . S
C398 H414 0.931 . S
C399 C398 1.370 . S
C399 C403 1.408 . S
C400 C398 1.363 . S
C400 C401 1.370 . S
C400 C404 1.524 . S
C401 C393 1.503 . S
C401 C400 1.370 . S
C401 C402 1.403 . S
C402 C401 1.403 . S
C402 C403 1.404 . S
C402 C405 1.539 . S
C403 C399 1.408 . S
C403 C402 1.404 . S
C403 H415 0.930 . S
C404 C400 1.524 . S
C404 H416 0.956 . S
C404 H417 0.961 . S
C404 H418 0.961 . S
C405 C402 1.539 . S
C405 H419 0.958 . S
C405 H420 0.961 . S
C405 H421 0.960 . S
H406 C390 0.931 . S
H407 C395 0.929 . S
H408 C396 0.960 . S
H409 C396 0.962 . S
H410 C396 0.960 . S
H411 C397 0.961 . S
H412 C397 0.961 . S
H413 C397 0.961 . S
H414 C398 0.931 . S
H415 C403 0.930 . S
H416 C404 0.956 . S
H417 C404 0.961 . S
H418 C404 0.961 . S
H419 C405 0.958 . S
H420 C405 0.961 . S
H421 C405 0.960 . S
C422 C423 1.391 . S
C422 C424 1.394 . S
C422 H438 0.931 . S
C423 C422 1.391 . S
C423 C427 1.376 . S
C424 C422 1.394 . S
C424 C425 1.369 . S
C424 C428 1.531 . S
C425 C424 1.369 . S
C425 C426 1.410 . S
C425 C433 1.503 . S
C426 C425 1.410 . S
C426 C427 1.392 . S
C426 C429 1.511 . S
C427 C423 1.376 . S
C427 C426 1.392 . S
C427 H439 0.929 . S
C428 C424 1.531 . S
C428 H440 0.960 . S
C428 H441 0.962 . S
C428 H442 0.960 . S
C429 C426 1.511 . S
C429 H443 0.961 . S
C429 H444 0.961 . S
C429 H445 0.961 . S
C430 C431 1.370 . S
C430 C432 1.363 . S
C430 H446 0.931 . S
C431 C430 1.370 . S
C431 C435 1.408 . S
C432 C430 1.363 . S
C432 C433 1.370 . S
C432 C436 1.524 . S
C433 C425 1.503 . S
C433 C432 1.370 . S
C433 C434 1.403 . S
C434 C433 1.403 . S
C434 C435 1.404 . S
C434 C437 1.539 . S
C435 C431 1.408 . S
C435 C434 1.404 . S
C435 H447 0.930 . S
C436 C432 1.524 . S
C436 H448 0.956 . S
C436 H449 0.961 . S
C436 H450 0.961 . S
C437 C434 1.539 . S
C437 H451 0.958 . S
C437 H452 0.961 . S
C437 H453 0.960 . S
H438 C422 0.931 . S
H439 C427 0.929 . S
H440 C428 0.960 . S
H441 C428 0.962 . S
H442 C428 0.960 . S
H443 C429 0.961 . S
H444 C429 0.961 . S
H445 C429 0.961 . S
H446 C430 0.931 . S
H447 C435 0.930 . S
H448 C436 0.956 . S
H449 C436 0.961 . S
H450 C436 0.961 . S
H451 C437 0.958 . S
H452 C437 0.961 . S
H453 C437 0.960 . S
C454 C455 1.391 . S
C454 C456 1.394 . S
C454 H470 0.931 . S
C455 C454 1.391 . S
C455 C459 1.376 . S
C456 C454 1.394 . S
C456 C457 1.369 . S
C456 C460 1.531 . S
C457 C456 1.369 . S
C457 C458 1.410 . S
C457 C465 1.503 . S
C458 C457 1.410 . S
C458 C459 1.392 . S
C458 C461 1.511 . S
C459 C455 1.376 . S
C459 C458 1.392 . S
C459 H471 0.929 . S
C460 C456 1.531 . S
C460 H472 0.960 . S
C460 H473 0.962 . S
C460 H474 0.960 . S
C461 C458 1.511 . S
C461 H475 0.961 . S
C461 H476 0.961 . S
C461 H477 0.961 . S
C462 C463 1.370 . S
C462 C464 1.363 . S
C462 H478 0.931 . S
C463 C462 1.370 . S
C463 C467 1.408 . S
C464 C462 1.363 . S
C464 C465 1.370 . S
C464 C468 1.524 . S
C465 C457 1.503 . S
C465 C464 1.370 . S
C465 C466 1.403 . S
C466 C465 1.403 . S
C466 C467 1.404 . S
C466 C469 1.539 . S
C467 C463 1.408 . S
C467 C466 1.404 . S
C467 H479 0.930 . S
C468 C464 1.524 . S
C468 H480 0.956 . S
C468 H481 0.961 . S
C468 H482 0.961 . S
C469 C466 1.539 . S
C469 H483 0.958 . S
C469 H484 0.961 . S
C469 H485 0.960 . S
H470 C454 0.931 . S
H471 C459 0.929 . S
H472 C460 0.960 . S
H473 C460 0.962 . S
H474 C460 0.960 . S
H475 C461 0.961 . S
H476 C461 0.961 . S
H477 C461 0.961 . S
H478 C462 0.931 . S
H479 C467 0.930 . S
H480 C468 0.956 . S
H481 C468 0.961 . S
H482 C468 0.961 . S
H483 C469 0.958 . S
H484 C469 0.961 . S
H485 C469 0.960 . S
C486 C487 1.391 . S
C486 C488 1.394 . S
C486 H502 0.931 . S
C487 C486 1.391 . S
C487 C491 1.376 . S
C488 C486 1.394 . S
C488 C489 1.369 . S
C488 C492 1.531 . S
C489 C488 1.369 . S
C489 C490 1.410 . S
C489 C497 1.503 . S
C490 C489 1.410 . S
C490 C491 1.392 . S
C490 C493 1.511 . S
C491 C487 1.376 . S
C491 C490 1.392 . S
C491 H503 0.929 . S
C492 C488 1.531 . S
C492 H504 0.960 . S
C492 H505 0.962 . S
C492 H506 0.960 . S
C493 C490 1.511 . S
C493 H507 0.961 . S
C493 H508 0.961 . S
C493 H509 0.961 . S
C494 C495 1.370 . S
C494 C496 1.363 . S
C494 H510 0.931 . S
C495 C494 1.370 . S
C495 C499 1.408 . S
C496 C494 1.363 . S
C496 C497 1.370 . S
C496 C500 1.524 . S
C497 C489 1.503 . S
C497 C496 1.370 . S
C497 C498 1.403 . S
C498 C497 1.403 . S
C498 C499 1.404 . S
C498 C501 1.539 . S
C499 C495 1.408 . S
C499 C498 1.404 . S
C499 H511 0.930 . S
C500 C496 1.524 . S
C500 H512 0.956 . S
C500 H513 0.961 . S
C500 H514 0.961 . S
C501 C498 1.539 . S
C501 H515 0.958 . S
C501 H516 0.961 . S
C501 H517 0.960 . S
H502 C486 0.931 . S
H503 C491 0.929 . S
H504 C492 0.960 . S
H505 C492 0.962 . S
H506 C492 0.960 . S
H507 C493 0.961 . S
H508 C493 0.961 . S
H509 C493 0.961 . S
H510 C494 0.931 . S
H511 C499 0.930 . S
H512 C500 0.956 . S
H513 C500 0.961 . S
H514 C500 0.961 . S
H515 C501 0.958 . S
H516 C501 0.961 . S
H517 C501 0.960 . S
C518 C519 1.391 . S
C518 C520 1.394 . S
C518 H534 0.931 . S
C519 C518 1.391 . S
C519 C523 1.376 . S
C520 C518 1.394 . S
C520 C521 1.369 . S
C520 C524 1.531 . S
C521 C520 1.369 . S
C521 C522 1.410 . S
C521 C529 1.503 . S
C522 C521 1.410 . S
C522 C523 1.392 . S
C522 C525 1.511 . S
C523 C519 1.376 . S
C523 C522 1.392 . S
C523 H535 0.929 . S
C524 C520 1.531 . S
C524 H536 0.960 . S
C524 H537 0.962 . S
C524 H538 0.960 . S
C525 C522 1.511 . S
C525 H539 0.961 . S
C525 H540 0.961 . S
C525 H541 0.961 . S
C526 C527 1.370 . S
C526 C528 1.363 . S
C526 H542 0.931 . S
C527 C526 1.370 . S
C527 C531 1.408 . S
C528 C526 1.363 . S
C528 C529 1.370 . S
C528 C532 1.524 . S
C529 C521 1.503 . S
C529 C528 1.370 . S
C529 C530 1.403 . S
C530 C529 1.403 . S
C530 C531 1.404 . S
C530 C533 1.539 . S
C531 C527 1.408 . S
C531 C530 1.404 . S
C531 H543 0.930 . S
C532 C528 1.524 . S
C532 H544 0.956 . S
C532 H545 0.961 . S
C532 H546 0.961 . S
C533 C530 1.539 . S
C533 H547 0.958 . S
C533 H548 0.961 . S
C533 H549 0.960 . S
H534 C518 0.931 . S
H535 C523 0.929 . S
H536 C524 0.960 . S
H537 C524 0.962 . S
H538 C524 0.960 . S
H539 C525 0.961 . S
H540 C525 0.961 . S
H541 C525 0.961 . S
H542 C526 0.931 . S
H543 C531 0.930 . S
H544 C532 0.956 . S
H545 C532 0.961 . S
H546 C532 0.961 . S
H547 C533 0.958 . S
H548 C533 0.961 . S
H549 C533 0.960 . S
C550 C551 1.391 . S
C550 C552 1.394 . S
C550 H566 0.931 . S
C551 C550 1.391 . S
C551 C555 1.376 . S
C552 C550 1.394 . S
C552 C553 1.369 . S
C552 C556 1.531 . S
C553 C552 1.369 . S
C553 C554 1.410 . S
C553 C561 1.503 . S
C554 C553 1.410 . S
C554 C555 1.392 . S
C554 C557 1.511 . S
C555 C551 1.376 . S
C555 C554 1.392 . S
C555 H567 0.929 . S
C556 C552 1.531 . S
C556 H568 0.960 . S
C556 H569 0.962 . S
C556 H570 0.960 . S
C557 C554 1.511 . S
C557 H571 0.961 . S
C557 H572 0.961 . S
C557 H573 0.961 . S
C558 C559 1.370 . S
C558 C560 1.363 . S
C558 H574 0.931 . S
C559 C558 1.370 . S
C559 C563 1.408 . S
C560 C558 1.363 . S
C560 C561 1.370 . S
C560 C564 1.524 . S
C561 C553 1.503 . S
C561 C560 1.370 . S
C561 C562 1.403 . S
C562 C561 1.403 . S
C562 C563 1.404 . S
C562 C565 1.539 . S
C563 C559 1.408 . S
C563 C562 1.404 . S
C563 H575 0.930 . S
C564 C560 1.524 . S
C564 H576 0.956 . S
C564 H577 0.961 . S
C564 H578 0.961 . S
C565 C562 1.539 . S
C565 H579 0.958 . S
C565 H580 0.961 . S
C565 H581 0.960 . S
H566 C550 0.931 . S
H567 C555 0.929 . S
H568 C556 0.960 . S
H569 C556 0.962 . S
H570 C556 0.960 . S
H571 C557 0.961 . S
H572 C557 0.961 . S
H573 C557 0.961 . S
H574 C558 0.931 . S
H575 C563 0.930 . S
H576 C564 0.956 . S
H577 C564 0.961 . S
H578 C564 0.961 . S
H579 C565 0.958 . S
H580 C565 0.961 . S
H581 C565 0.960 . S
C582 C583 1.391 . S
C582 C584 1.394 . S
C582 H598 0.931 . S
C583 C582 1.391 . S
C583 C587 1.376 . S
C584 C582 1.394 . S
C584 C585 1.369 . S
C584 C588 1.531 . S
C585 C584 1.369 . S
C585 C586 1.410 . S
C585 C593 1.503 1_554 S
C586 C585 1.410 . S
C586 C587 1.392 . S
C586 C589 1.511 . S
C587 C583 1.376 . S
C587 C586 1.392 . S
C587 H599 0.929 . S
C588 C584 1.531 . S
C588 H600 0.960 . S
C588 H601 0.962 . S
C588 H602 0.960 . S
C589 C586 1.511 . S
C589 H603 0.961 1_455 S
C589 H604 0.961 1_454 S
C589 H605 0.961 . S
C590 C591 1.370 1_655 S
C590 C592 1.363 . S
C590 H606 0.931 . S
C591 C590 1.370 1_455 S
C591 C595 1.408 . S
C592 C590 1.363 . S
C592 C593 1.370 1_655 S
C592 C596 1.524 1_556 S
C593 C585 1.503 1_556 S
C593 C592 1.370 1_455 S
C593 C594 1.403 . S
C594 C593 1.403 . S
C594 C595 1.404 . S
C594 C597 1.539 . S
C595 C591 1.408 . S
C595 C594 1.404 . S
C595 H607 0.930 . S
C596 C592 1.524 1_554 S
C596 H608 0.956 . S
C596 H609 0.961 . S
C596 H610 0.961 1_554 S
C597 C594 1.539 . S
C597 H611 0.958 . S
C597 H612 0.961 . S
C597 H613 0.960 1_556 S
H598 C582 0.931 . S
H599 C587 0.929 . S
H600 C588 0.960 . S
H601 C588 0.962 . S
H602 C588 0.960 . S
H603 C589 0.961 1_655 S
H604 C589 0.961 1_656 S
H605 C589 0.961 . S
H606 C590 0.931 . S
H607 C595 0.930 . S
H608 C596 0.956 . S
H609 C596 0.961 . S
H610 C596 0.961 1_556 S
H611 C597 0.958 . S
H612 C597 0.961 . S
H613 C597 0.960 1_554 S
C614 C615 1.391 1_565 S
C614 C616 1.394 . S
C614 H630 0.931 . S
C615 C614 1.391 1_545 S
C615 C619 1.376 . S
C616 C614 1.394 . S
C616 C617 1.369 1_565 S
C616 C620 1.531 . S
C617 C616 1.369 1_545 S
C617 C618 1.410 . S
C617 C625 1.503 . S
C618 C617 1.410 . S
C618 C619 1.392 . S
C618 C621 1.511 . S
C619 C615 1.376 . S
C619 C618 1.392 . S
C619 H631 0.929 . S
C620 C616 1.531 . S
C620 H632 0.960 . S
C620 H633 0.962 . S
C620 H634 0.960 . S
C621 C618 1.511 . S
C621 H635 0.961 . S
C621 H636 0.961 . S
C621 H637 0.961 . S
C622 C623 1.370 . S
C622 C624 1.363 . S
C622 H638 0.931 . S
C623 C622 1.370 . S
C623 C627 1.408 1_545 S
C624 C622 1.363 . S
C624 C625 1.370 . S
C624 C628 1.524 . S
C625 C617 1.503 . S
C625 C624 1.370 . S
C625 C626 1.403 1_545 S
C626 C625 1.403 1_565 S
C626 C627 1.404 . S
C626 C629 1.539 . S
C627 C623 1.408 1_565 S
C627 C626 1.404 . S
C627 H639 0.930 . S
C628 C624 1.524 . S
C628 H640 0.956 . S
C628 H641 0.961 . S
C628 H642 0.961 . S
C629 C626 1.539 . S
C629 H643 0.958 . S
C629 H644 0.961 . S
C629 H645 0.960 . S
H630 C614 0.931 . S
H631 C619 0.929 . S
H632 C620 0.960 . S
H633 C620 0.962 . S
H634 C620 0.960 . S
H635 C621 0.961 . S
H636 C621 0.961 . S
H637 C621 0.961 . S
H638 C622 0.931 . S
H639 C627 0.930 . S
H640 C628 0.956 . S
H641 C628 0.961 . S
H642 C628 0.961 . S
H643 C629 0.958 . S
H644 C629 0.961 . S
H645 C629 0.960 . S
C646 C647 1.391 . S
C646 C648 1.394 . S
C646 H662 0.931 . S
C647 C646 1.391 . S
C647 C651 1.376 . S
C648 C646 1.394 . S
C648 C649 1.369 . S
C648 C652 1.531 . S
C649 C648 1.369 . S
C649 C650 1.410 . S
C649 C657 1.503 . S
C650 C649 1.410 . S
C650 C651 1.392 . S
C650 C653 1.511 . S
C651 C647 1.376 . S
C651 C650 1.392 . S
C651 H663 0.929 . S
C652 C648 1.531 . S
C652 H664 0.960 . S
C652 H665 0.962 . S
C652 H666 0.960 . S
C653 C650 1.511 . S
C653 H667 0.961 . S
C653 H668 0.961 . S
C653 H669 0.961 . S
C654 C655 1.370 . S
C654 C656 1.363 . S
C654 H670 0.931 . S
C655 C654 1.370 . S
C655 C659 1.408 . S
C656 C654 1.363 . S
C656 C657 1.370 . S
C656 C660 1.524 . S
C657 C649 1.503 . S
C657 C656 1.370 . S
C657 C658 1.403 . S
C658 C657 1.403 . S
C658 C659 1.404 . S
C658 C661 1.539 . S
C659 C655 1.408 . S
C659 C658 1.404 . S
C659 H671 0.930 . S
C660 C656 1.524 . S
C660 H672 0.956 . S
C660 H673 0.961 . S
C660 H674 0.961 . S
C661 C658 1.539 . S
C661 H675 0.958 . S
C661 H676 0.961 . S
C661 H677 0.960 . S
H662 C646 0.931 . S
H663 C651 0.929 . S
H664 C652 0.960 . S
H665 C652 0.962 . S
H666 C652 0.960 . S
H667 C653 0.961 . S
H668 C653 0.961 . S
H669 C653 0.961 . S
H670 C654 0.931 . S
H671 C659 0.930 . S
H672 C660 0.956 . S
H673 C660 0.961 . S
H674 C660 0.961 . S
H675 C661 0.958 . S
H676 C661 0.961 . S
H677 C661 0.960 . S
C678 C679 1.391 . S
C678 C680 1.394 . S
C678 H694 0.931 . S
C679 C678 1.391 . S
C679 C683 1.376 . S
C680 C678 1.394 . S
C680 C681 1.369 . S
C680 C684 1.531 . S
C681 C680 1.369 . S
C681 C682 1.410 . S
C681 C689 1.503 . S
C682 C681 1.410 . S
C682 C683 1.392 . S
C682 C685 1.511 . S
C683 C679 1.376 . S
C683 C682 1.392 . S
C683 H695 0.929 . S
C684 C680 1.531 . S
C684 H696 0.960 . S
C684 H697 0.962 1_545 S
C684 H698 0.960 . S
C685 C682 1.511 . S
C685 H699 0.961 . S
C685 H700 0.961 . S
C685 H701 0.961 . S
C686 C687 1.370 1_565 S
C686 C688 1.363 . S
C686 H702 0.931 . S
C687 C686 1.370 1_545 S
C687 C691 1.408 . S
C688 C686 1.363 . S
C688 C689 1.370 1_565 S
C688 C692 1.524 . S
C689 C681 1.503 . S
C689 C688 1.370 1_545 S
C689 C690 1.403 . S
C690 C689 1.403 . S
C690 C691 1.404 . S
C690 C693 1.539 . S
C691 C687 1.408 . S
C691 C690 1.404 . S
C691 H703 0.930 . S
C692 C688 1.524 . S
C692 H704 0.956 . S
C692 H705 0.961 . S
C692 H706 0.961 . S
C693 C690 1.539 . S
C693 H707 0.958 . S
C693 H708 0.961 . S
C693 H709 0.960 . S
H694 C678 0.931 . S
H695 C683 0.929 . S
H696 C684 0.960 . S
H697 C684 0.962 1_565 S
H698 C684 0.960 . S
H699 C685 0.961 . S
H700 C685 0.961 . S
H701 C685 0.961 . S
H702 C686 0.931 . S
H703 C691 0.930 . S
H704 C692 0.956 . S
H705 C692 0.961 . S
H706 C692 0.961 . S
H707 C693 0.958 . S
H708 C693 0.961 . S
H709 C693 0.960 . S
C710 C711 1.391 . S
C710 C712 1.394 . S
C710 H726 0.931 . S
C711 C710 1.391 . S
C711 C715 1.376 . S
C712 C710 1.394 . S
C712 C713 1.369 . S
C712 C716 1.531 . S
C713 C712 1.369 . S
C713 C714 1.410 . S
C713 C721 1.503 1_556 S
C714 C713 1.410 . S
C714 C715 1.392 . S
C714 C717 1.511 . S
C715 C711 1.376 . S
C715 C714 1.392 . S
C715 H727 0.929 . S
C716 C712 1.531 . S
C716 H728 0.960 1_556 S
C716 H729 0.962 . S
C716 H730 0.960 . S
C717 C714 1.511 . S
C717 H731 0.961 . S
C717 H732 0.961 . S
C717 H733 0.961 . S
C718 C719 1.370 . S
C718 C720 1.363 . S
C718 H734 0.931 . S
C719 C718 1.370 . S
C719 C723 1.408 . S
C720 C718 1.363 . S
C720 C721 1.370 . S
C720 C724 1.508 1_554 S
C721 C713 1.503 1_554 S
C721 C720 1.370 . S
C721 C722 1.403 . S
C722 C721 1.403 . S
C722 C723 1.404 . S
C722 C725 1.539 . S
C723 C719 1.408 . S
C723 C722 1.404 . S
C723 H735 0.930 . S
C724 C720 1.508 1_556 S
C724 H736 0.967 . S
C724 H737 0.977 . S
C724 H738 0.950 1_556 S
C725 C722 1.539 . S
C725 H739 0.958 . S
C725 H740 0.961 . S
C725 H741 0.960 . S
H726 C710 0.931 . S
H727 C715 0.929 . S
H728 C716 0.960 1_554 S
H729 C716 0.962 . S
H730 C716 0.960 . S
H731 C717 0.961 . S
H732 C717 0.961 . S
H733 C717 0.961 . S
H734 C718 0.931 . S
H735 C723 0.930 . S
H736 C724 0.967 . S
H737 C724 0.977 . S
H738 C724 0.950 1_554 S
H739 C725 0.958 . S
H740 C725 0.961 . S
H741 C725 0.960 . S
C742 C743 1.391 1_455 S
C742 C744 1.394 . S
C742 H758 0.931 . S
C743 C742 1.391 1_655 S
C743 C747 1.376 . S
C744 C742 1.394 . S
C744 C745 1.369 1_455 S
C744 C748 1.531 . S
C745 C744 1.369 1_655 S
C745 C746 1.410 . S
C745 C753 1.503 . S
C746 C745 1.410 . S
C746 C747 1.392 . S
C746 C749 1.511 . S
C747 C743 1.376 . S
C747 C746 1.392 . S
C747 H759 0.929 . S
C748 C744 1.531 . S
C748 H760 0.960 . S
C748 H761 0.962 . S
C748 H762 0.960 . S
C749 C746 1.511 . S
C749 H763 0.961 . S
C749 H764 0.961 . S
C749 H765 0.961 . S
C750 C751 1.380 . S
C750 C752 1.363 . S
C750 H766 0.931 . S
C751 C750 1.380 . S
C751 C755 1.398 1_455 S
C752 C750 1.363 . S
C752 C753 1.370 1_455 S
C752 C756 1.524 . S
C753 C745 1.503 . S
C753 C752 1.370 1_655 S
C753 C754 1.403 . S
C754 C753 1.403 . S
C754 C755 1.404 . S
C754 C757 1.539 . S
C755 C751 1.398 1_655 S
C755 C754 1.404 . S
C755 H767 0.930 . S
C756 C752 1.524 . S
C756 H768 0.956 . S
C756 H769 0.961 1_455 S
C756 H770 0.961 . S
C757 C754 1.539 . S
C757 H771 0.958 . S
C757 H772 0.961 . S
C757 H773 0.960 . S
H758 C742 0.931 . S
H759 C747 0.929 . S
H760 C748 0.960 . S
H761 C748 0.962 . S
H762 C748 0.960 . S
H763 C749 0.961 . S
H764 C749 0.961 . S
H765 C749 0.961 . S
H766 C750 0.931 . S
H767 C755 0.930 . S
H768 C756 0.956 . S
H769 C756 0.961 1_655 S
H770 C756 0.961 . S
H771 C757 0.958 . S
H772 C757 0.961 . S
H773 C757 0.960 . S
C199 C10 2.833 . S
C207 N187 2.790 . S
C231 C55 1.103 . S
C239 N160 1.088 . S
C263 C90 1.809 . S
C271 N173 1.823 1_565 S
C295 C19 3.226 . S
C303 N186 3.275 . S
C335 N161 1.429 . S
C327 C46 1.414 . S
C367 N174 2.022 . S
C359 C99 1.984 . S
C391 C50 1.810 . S
C399 N134 1.807 . S
C423 C95 0.440 . S
C431 N148 0.355 . S
C455 C6 1.328 . S
C463 N122 1.356 . S
C495 N135 1.997 . S
C487 C59 1.987 . S
C527 N147 0.758 . S
C519 C86 0.662 . S
C551 C15 1.211 . S
C559 N121 1.177 . S
C591 N151 1.282 . S
C583 C18 1.286 . S
C615 C49 1.427 . S
C623 N125 1.530 . S
C647 C98 1.420 . S
C655 N138 1.472 . S
C687 N177 1.471 . S
C679 C58 1.439 . S
C719 N190 1.729 . S
C711 C89 1.712 . S
C743 C9 1.465 . S
C751 N164 1.592 . S
