# Generated by pormake.
# Topology pts, (4,4)-cn, num edge types: 1
# Building blocks:
#     Node 0, Type 0, BuildingBlock: NAWXER_clean_linker_0, # of connection points: 4
#     Node 1, Type 0, BuildingBlock: NAWXER_clean_linker_0, # of connection points: 4
#     Node 2, Type 1, BuildingBlock: UXUYUI_clean_sbu_0, # of connection points: 4
#     Node 3, Type 1, BuildingBlock: UXUYUI_clean_sbu_0, # of connection points: 4
#     Edge 4, Type (0, 1), BuildingBlock: AJUNOK_clean_linker_0, # of connection points: 2
#     Edge 5, Type (0, 1), BuildingBlock: AJUNOK_clean_linker_0, # of connection points: 2
#     Edge 6, Type (0, 1), BuildingBlock: AJUNOK_clean_linker_0, # of connection points: 2
#     Edge 7, Type (0, 1), BuildingBlock: AJUNOK_clean_linker_0, # of connection points: 2
#     Edge 8, Type (0, 1), BuildingBlock: AJUNOK_clean_linker_0, # of connection points: 2
#     Edge 9, Type (0, 1), BuildingBlock: AJUNOK_clean_linker_0, # of connection points: 2
#     Edge 10, Type (0, 1), BuildingBlock: AJUNOK_clean_linker_0, # of connection points: 2
#     Edge 11, Type (0, 1), BuildingBlock: AJUNOK_clean_linker_0, # of connection points: 2
# Relax obj value: 0.000
# Max RMSD: 0.009
# Mean RMSD: 0.008
data_MOF--net-pts--node1-UXUYUI_clean_sbu_0--node2-NAWXER_clean_linker_0--edge1-AJUNOK_clean_linker_0
_symmetry_space_group_name_H-M    P1
_symmetry_Int_Tables_number       1
_symmetry_cell_setting            triclinic
loop_
_symmetry_equiv_pos_as_xyz
'x, y, z'
_cell_length_a     28.766189
_cell_length_b     28.814196
_cell_length_c     41.254345
_cell_angle_alpha  89.987498
_cell_angle_beta   89.982568
_cell_angle_gamma 90.026109
loop_
_atom_site_label
_atom_site_type_symbol
_atom_site_fract_x
_atom_site_fract_y
_atom_site_fract_z
_atom_type_partial_charge
C0 C 0.66512 0.03446 0.95872 0.0
C1 C 0.66924 1.0027 0.93307 0.0
C2 C 0.62514 0.03502 0.97799 0.0
C3 C 0.58909 1.00298 0.97248 0.0
C4 C 0.63264 0.97175 0.92685 0.0
C5 C 0.59296 0.97186 0.94641 0.0
C6 C 0.54623 1.00313 0.9925 0.0
C7 C 0.66371 0.97248 0.06123 0.0
C8 C 0.66799 1.00325 0.08754 0.0
C9 C 0.62419 0.97333 0.04152 0.0
C10 C 0.58882 0.00607 0.04697 0.0
C11 C 0.6322 0.03542 0.09327 0.0
C12 C 0.59304 0.03674 0.07325 0.0
C13 C 0.54614 0.00706 0.02676 0.0
C14 C 0.34736 0.9743 0.06316 0.0
C15 C 0.33982 0.01069 0.08516 0.0
C16 C 0.38704 0.97394 0.04359 0.0
C17 C 0.41999 0.00978 0.04596 0.0
C18 C 0.37274 0.04654 0.08749 0.0
C19 C 0.41275 0.04583 0.06825 0.0
C20 C 0.46313 0.0086 0.02648 0.0
C21 C 0.34877 0.04134 0.9554 0.0
C22 C 0.34083 0.00566 0.93289 0.0
C23 C 0.38813 0.04041 0.97526 0.0
C24 C 0.42021 1.00382 0.97283 0.0
C25 C 0.37264 0.96885 0.93072 0.0
C26 C 0.41232 0.96823 0.95028 0.0
C27 C 0.4632 1.00377 0.99247 0.0
H28 H 0.69253 0.05932 0.96351 0.0
H29 H 0.62233 0.06072 0.99704 0.0
H30 H 0.63501 0.94711 0.90709 0.0
H31 H 0.56538 0.94729 0.94132 0.0
H32 H 0.69099 0.94782 0.05575 0.0
H33 H 0.62129 0.94819 0.02213 0.0
H34 H 0.63421 0.05929 0.1135 0.0
H35 H 0.566 0.06189 0.07829 0.0
H36 H 0.32249 0.94621 0.0611 0.0
H37 H 0.3924 0.94528 0.02702 0.0
H38 H 0.36788 0.07463 0.10461 0.0
H39 H 0.438 0.07353 0.07067 0.0
H40 H 0.32454 0.06994 0.95758 0.0
H41 H 0.39395 0.06868 0.99208 0.0
H42 H 0.36724 0.94108 0.91343 0.0
H43 H 0.43682 0.9399 0.94788 0.0
N44 N 0.50468 1.00117 0.97682 0.0
N45 N 0.50453 0.01011 0.04229 0.0
C46 C 0.03926 0.66508 0.56186 0.0
C47 C 0.00775 0.66863 0.58766 0.0
C48 C 0.03969 0.62544 0.54233 0.0
C49 C 0.00753 0.58941 0.54769 0.0
C50 C 0.97673 0.63216 0.59381 0.0
C51 C 0.97658 0.59287 0.57395 0.0
C52 C 0.00723 0.54705 0.52722 0.0
C53 C 0.97802 0.666 0.45958 0.0
C54 C 0.00993 0.6709 0.43404 0.0
C55 C 0.97816 0.62601 0.47878 0.0
C56 C 0.01103 0.59076 0.47327 0.0
C57 C 0.04183 0.63513 0.42792 0.0
C58 C 0.0424 0.59545 0.44738 0.0
C59 C 0.01139 0.54772 0.49299 0.0
C60 C 0.97305 0.35424 0.45114 0.0
C61 C 0.01128 0.34456 0.43093 0.0
C62 C 0.97362 0.39272 0.47178 0.0
C63 C 0.01222 0.42246 0.47236 0.0
C64 C 0.05044 0.3738 0.43241 0.0
C65 C 0.05054 0.41283 0.45251 0.0
C66 C 0.01173 0.46493 0.49231 0.0
C67 C 0.04068 0.34767 0.56141 0.0
C68 C 1.00469 0.33977 0.58382 0.0
C69 C 0.0409 0.38767 0.54225 0.0
C70 C 1.00529 0.42069 0.54527 0.0
C71 C 0.96926 0.3731 0.58693 0.0
C72 C 0.96976 0.41333 0.56798 0.0
C73 C 0.00646 0.46418 0.52626 0.0
H74 H 0.0638 0.69278 0.55706 0.0
H75 H 0.06526 0.62296 0.52315 0.0
H76 H 0.95231 0.63435 0.61375 0.0
H77 H 0.95194 0.56533 0.57893 0.0
H78 H 0.95246 0.69276 0.4643 0.0
H79 H 0.95232 0.62253 0.49771 0.0
H80 H 0.06664 0.63812 0.40826 0.0
H81 H 0.06762 0.56849 0.44232 0.0
H82 H 0.94229 0.33258 0.45056 0.0
H83 H 0.94349 0.39991 0.48672 0.0
H84 H 0.08116 0.36652 0.41814 0.0
H85 H 0.08072 0.43534 0.45278 0.0
H86 H 0.06929 0.32347 0.55918 0.0
H87 H 0.0695 0.39332 0.52563 0.0
H88 H 0.94109 0.368 0.60399 0.0
H89 H 0.94222 0.43862 0.57093 0.0
N90 N 1.00441 0.50523 0.54242 0.0
N91 N 0.01398 0.50656 0.47698 0.0
Li92 Li 0.00741 0.04912 0.28058 0.0
Li93 Li 1.00476 0.9634 0.28184 0.0
Li94 Li 0.04869 0.00678 0.23823 0.0
Li95 Li 0.96333 1.00424 0.23732 0.0
C96 C 0.08994 0.02013 0.30881 0.0
N97 N 0.14989 0.05227 0.35604 0.0
C98 C 0.09254 0.99763 0.33878 0.0
C99 C 0.11818 0.05864 0.30273 0.0
C100 C 0.12299 0.0145 0.36238 0.0
C101 C 0.14815 0.07446 0.32696 0.0
C102 C 0.91366 0.99814 0.30259 0.0
C103 C 0.84154 0.95664 0.30963 0.0
N104 N 0.83518 0.97821 0.33862 0.0
C105 C 0.9062 0.02024 0.3323 0.0
C106 C 0.88093 0.96636 0.29101 0.0
C107 C 0.86639 0.00954 0.35022 0.0
C108 C 0.99409 0.14431 0.29428 0.0
N109 N 0.00667 0.10295 0.30744 0.0
C110 C 0.01898 0.13863 0.35903 0.0
C111 C 0.01792 0.09929 0.33933 0.0
C112 C 0.007 0.18212 0.34606 0.0
C113 C 0.9935 0.18443 0.31332 0.0
H114 H 0.98418 0.14606 0.26902 0.0
H115 H 0.02607 0.0658 0.34957 0.0
C116 C 0.03091 0.87329 0.30136 0.0
N117 N 1.00488 0.91073 0.30983 0.0
C118 C 0.03278 0.83442 0.32159 0.0
C119 C 0.98082 0.87327 0.35874 0.0
C120 C 0.9804 0.91153 0.33801 0.0
C121 C 0.00764 0.83417 0.35082 0.0
H122 H 0.05047 0.87379 0.27896 0.0
H123 H 0.96079 0.94193 0.34464 0.0
C124 C 0.02254 0.0876 0.20963 0.0
N125 N 0.06058 0.14321 0.16196 0.0
C126 C 1.00447 0.08663 0.17819 0.0
C127 C 0.05942 0.11735 0.21697 0.0
C128 C 0.02432 0.11489 0.15439 0.0
C129 C 0.07833 0.14504 0.19249 0.0
C130 C 0.99254 0.91191 0.21965 0.0
C131 C 0.01195 0.89763 0.19023 0.0
C132 C 0.95777 0.88517 0.23417 0.0
C133 C 0.99562 0.8571 0.17554 0.0
C134 C 0.94243 0.84483 0.21873 0.0
N135 N 0.96147 0.83178 0.18996 0.0
C136 C 0.14524 1.00333 0.22362 0.0
C137 C 0.09527 0.00835 0.17806 0.0
C138 C 0.1843 1.00381 0.20347 0.0
N139 N 0.10186 0.00614 0.21067 0.0
C140 C 0.13332 0.00974 0.15708 0.0
C141 C 0.17845 0.0077 0.16982 0.0
H142 H 0.14953 1.00066 0.24957 0.0
H143 H 0.0604 0.00904 0.16835 0.0
C144 C 0.87182 0.02846 0.21912 0.0
N145 N 0.90992 1.00378 0.20998 0.0
C146 C 0.83204 0.02875 0.19965 0.0
C147 C 0.87163 0.9786 0.16166 0.0
C148 C 0.91078 0.97975 0.18162 0.0
C149 C 0.83161 1.00313 0.17074 0.0
H150 H 0.87234 0.04785 0.24156 0.0
H151 H 0.94193 0.96178 0.17428 0.0
O152 O 0.0602 1.00417 0.28549 0.0
O153 O 0.95247 0.0083 0.28478 0.0
O154 O 1.0039 0.05982 0.23314 0.0
O155 O 0.00808 0.9516 0.23424 0.0
H156 H 0.07108 0.96764 0.34382 0.0
H157 H 0.11691 0.07613 0.27957 0.0
H158 H 0.12522 0.99758 0.38574 0.0
H159 H 0.17005 0.10436 0.32264 0.0
H160 H 0.81595 0.93207 0.30098 0.0
H161 H 0.93104 0.04515 0.34151 0.0
H162 H 0.88558 0.9497 0.26777 0.0
H163 H 0.8603 0.02617 0.37334 0.0
H164 H 0.02939 0.135 0.38412 0.0
H165 H 0.98209 0.2167 0.30252 0.0
H166 H 0.05411 0.8051 0.31463 0.0
H167 H 0.96006 0.87425 0.38063 0.0
H168 H 0.97574 0.06395 0.17218 0.0
H169 H 0.07328 0.119 0.24129 0.0
H170 H 0.01095 0.11426 0.12989 0.0
H171 H 0.10708 0.16804 0.19777 0.0
H172 H 0.03911 0.91782 0.17879 0.0
H173 H 0.94309 0.89519 0.25722 0.0
H174 H 0.01012 0.84577 0.15267 0.0
H175 H 0.91548 0.82383 0.22967 0.0
H176 H 0.21872 1.00185 0.21404 0.0
H177 H 0.12759 0.01188 0.13117 0.0
H178 H 0.80177 0.04826 0.20728 0.0
H179 H 0.87278 0.95924 0.13916 0.0
Li180 Li 0.96357 0.00644 0.78196 0.0
Li181 Li 0.04896 1.00491 0.78054 0.0
Li182 Li 1.00409 0.04827 0.73743 0.0
Li183 Li 0.00772 0.96271 0.73817 0.0
C184 C 0.99218 0.09893 0.80006 0.0
N185 N 0.96118 0.17851 0.83048 0.0
C186 C 0.01206 0.11304 0.82936 0.0
C187 C 0.95696 0.12557 0.78604 0.0
C188 C 0.99577 0.15329 0.84443 0.0
C189 C 0.94166 0.16563 0.80184 0.0
C190 C 0.02359 0.92402 0.80933 0.0
C191 C 0.07967 0.86725 0.82702 0.0
N192 N 0.06168 0.86935 0.85748 0.0
C193 C 1.00532 0.92528 0.84071 0.0
C194 C 0.06074 0.89447 0.8023 0.0
C195 C 0.02518 0.89749 0.86476 0.0
C196 C 0.87271 0.98053 0.80082 0.0
N197 N 0.91055 0.00577 0.80972 0.0
C198 C 0.87305 0.02898 0.85883 0.0
C199 C 0.91155 0.02937 0.83825 0.0
C200 C 0.83346 1.00311 0.85039 0.0
C201 C 0.83356 0.97876 0.82087 0.0
H202 H 0.87307 0.96158 0.77819 0.0
H203 H 0.94233 0.04826 0.84522 0.0
C204 C 0.14556 0.00984 0.79444 0.0
N205 N 0.10247 0.0062 0.80777 0.0
C206 C 0.18493 0.01071 0.81425 0.0
C207 C 0.13489 1.00406 0.86112 0.0
C208 C 0.09647 1.00406 0.84044 0.0
C209 C 0.17971 0.00758 0.848 0.0
H210 H 0.14936 0.01229 0.76844 0.0
H211 H 0.0618 1.00255 0.85046 0.0
C212 C 0.9132 0.01354 0.71708 0.0
N213 N 0.83424 0.03434 0.68183 0.0
C214 C 0.90545 0.99239 0.68706 0.0
C215 C 0.88046 0.04473 0.72937 0.0
C216 C 0.86543 1.00354 0.66954 0.0
C217 C 0.84085 0.05492 0.71114 0.0
C218 C 0.08948 0.99225 0.70979 0.0
C219 C 0.09208 0.01484 0.67986 0.0
C220 C 0.11744 0.95353 0.71571 0.0
C221 C 0.12225 0.99784 0.65612 0.0
C222 C 0.14714 0.93758 0.69135 0.0
N223 N 0.14888 0.95986 0.6623 0.0
C224 C 0.02676 0.13994 0.71859 0.0
C225 C 0.98076 0.09868 0.68067 0.0
C226 C 0.0278 0.1787 0.69822 0.0
N227 N 1.00331 0.10106 0.70957 0.0
C228 C 0.98049 0.1367 0.65973 0.0
C229 C 1.00464 0.17727 0.66824 0.0
H230 H 0.04496 0.14068 0.74153 0.0
H231 H 0.96335 0.06712 0.67362 0.0
C232 C 0.997 0.86724 0.72337 0.0
N233 N 0.00718 0.90955 0.71066 0.0
C234 C 0.99591 0.82799 0.70347 0.0
C235 C 0.01659 0.87651 0.65792 0.0
C236 C 0.01622 0.91488 0.67853 0.0
C237 C 1.00577 0.83231 0.6702 0.0
H238 H 0.98935 0.86405 0.74895 0.0
H239 H 0.02307 0.94899 0.66882 0.0
O240 O 0.00775 0.05956 0.78508 0.0
O241 O 1.00485 0.95124 0.78556 0.0
O242 O 0.95218 1.00285 0.73454 0.0
O243 O 0.05996 0.0083 0.73323 0.0
H244 H 0.0396 0.09296 0.84042 0.0
H245 H 0.94193 0.11574 0.76306 0.0
H246 H 0.01064 0.1645 0.86721 0.0
H247 H 0.91438 0.18655 0.79126 0.0
H248 H 0.1086 0.8444 0.82197 0.0
H249 H 0.97637 0.94777 0.84649 0.0
H250 H 0.07479 0.89258 0.77803 0.0
H251 H 0.01162 0.89835 0.88921 0.0
H252 H 0.8742 0.04906 0.881 0.0
H253 H 0.80389 0.95815 0.81352 0.0
H254 H 0.2191 0.01334 0.80336 0.0
H255 H 0.12965 1.00204 0.88708 0.0
H256 H 0.93023 0.96787 0.67731 0.0
H257 H 0.88526 0.06054 0.75288 0.0
H258 H 0.85914 0.98767 0.64619 0.0
H259 H 0.81527 0.07906 0.72035 0.0
H260 H 0.07085 0.04502 0.67495 0.0
H261 H 0.11617 0.93596 0.73884 0.0
H262 H 0.12448 0.01483 0.63279 0.0
H263 H 0.16883 0.90751 0.69554 0.0
H264 H 0.04702 0.20923 0.70563 0.0
H265 H 0.96135 0.13437 0.6372 0.0
H266 H 0.98702 0.7947 0.71397 0.0
H267 H 0.02568 0.88151 0.6327 0.0
C268 C 0.29007 0.97292 0.12728 0.0
C269 C 0.29826 0.01056 0.10633 0.0
C270 C 0.25144 0.97245 0.14804 0.0
C271 C 0.2193 0.00919 0.14805 0.0
H272 H 0.31403 0.94393 0.1279 0.0
H273 H 0.24638 0.94295 0.16395 0.0
S274 S 0.22475 0.1154 0.09751 0.0
N275 N 0.27118 0.08535 0.0868 0.0
N276 N 0.19809 0.0841 0.12546 0.0
C277 C 0.2269 0.0468 0.12705 0.0
C278 C 0.26656 0.04761 0.10629 0.0
C279 C 0.99639 0.30178 0.6382 0.0
C280 C 1.00474 0.29767 0.6047 0.0
C281 C 0.99672 0.26279 0.65852 0.0
C282 C 1.0053 0.21809 0.64616 0.0
H283 H 0.98998 0.33551 0.64889 0.0
H284 H 0.98967 0.26765 0.68409 0.0
S285 S 0.02941 0.18849 0.5602 0.0
N286 N 0.02118 0.24519 0.55998 0.0
N287 N 0.02346 0.17215 0.59833 0.0
C288 C 0.01394 0.21349 0.61272 0.0
C289 C 0.01336 0.25319 0.59199 0.0
C290 C 0.73139 0.04398 0.11818 0.0
C291 C 0.70965 1.00219 0.10894 0.0
C292 C 0.77056 0.04405 0.13842 0.0
C293 C 0.78972 1.00233 0.14989 0.0
H294 H 0.71837 0.07693 0.10941 0.0
H295 H 0.78641 0.07694 0.14474 0.0
S296 S 0.74436 0.88383 0.13508 0.0
N297 N 0.70884 0.9181 0.11469 0.0
N298 N 0.78324 0.91839 0.15195 0.0
C299 C 0.76829 0.96037 0.14115 0.0
C300 C 0.72811 0.96025 0.12085 0.0
C301 C 0.02575 0.70922 0.63953 0.0
C302 C 0.00705 0.71053 0.60815 0.0
C303 C 0.02522 0.74874 0.65937 0.0
C304 C 1.00543 0.79079 0.64863 0.0
H305 H 0.04126 0.67754 0.64866 0.0
H306 H 0.04095 0.74642 0.68316 0.0
S307 S 0.94894 0.8102 0.56874 0.0
N308 N 0.96721 0.75592 0.56727 0.0
N309 N 0.96423 0.82989 0.6048 0.0
C310 C 0.98583 0.79196 0.6173 0.0
C311 C 0.98708 0.75188 0.59702 0.0
C312 C 0.26787 0.97005 0.9112 0.0
C313 C 0.29976 0.00706 0.9113 0.0
C314 C 0.22878 0.9707 0.89088 0.0
C315 C 0.22085 0.00794 0.86954 0.0
H316 H 0.273 0.94063 0.92716 0.0
H317 H 0.20489 0.94163 0.89154 0.0
S318 S 0.29418 0.11291 0.86036 0.0
N319 N 0.3209 0.08183 0.88838 0.0
N320 N 0.24776 0.08271 0.84983 0.0
C321 C 0.25259 0.04498 0.8693 0.0
C322 C 0.29195 0.04465 0.89031 0.0
C323 C 0.99261 0.26107 0.41941 0.0
C324 C 0.01018 0.30394 0.40857 0.0
C325 C 0.99137 0.22222 0.399 0.0
C326 C 0.008 0.22438 0.36692 0.0
H327 H 0.9801 0.25727 0.44404 0.0
H328 H 0.97698 0.19023 0.40848 0.0
S329 S 0.05721 0.3286 0.32648 0.0
N330 N 0.04301 0.34671 0.36311 0.0
N331 N 0.04341 0.27303 0.32546 0.0
C332 C 0.02577 0.26704 0.35574 0.0
C333 C 0.02634 0.30686 0.37639 0.0
C334 C 0.70762 0.00748 0.87875 0.0
C335 C 0.71146 1.00219 0.91251 0.0
C336 C 0.74718 0.00759 0.85887 0.0
C337 C 0.79203 1.00201 0.87201 0.0
H338 H 0.6738 0.01229 0.86768 0.0
H339 H 0.74263 0.01279 0.83306 0.0
S340 S 0.81999 0.98239 0.95882 0.0
N341 N 0.76296 0.98883 0.95815 0.0
N342 N 0.83735 0.9878 0.92084 0.0
C343 C 0.7961 0.99561 0.90574 0.0
C344 C 0.75583 0.99599 0.92597 0.0
C345 C 1.00518 0.70875 0.37961 0.0
C346 C 0.00958 0.71295 0.41341 0.0
C347 C 1.00464 0.74808 0.3596 0.0
C348 C 0.0089 0.79305 0.37264 0.0
H349 H 1.00149 0.67481 0.36861 0.0
H350 H 1.00022 0.74321 0.33375 0.0
S351 S 0.0254 0.82208 0.45961 0.0
N352 N 0.02039 0.76499 0.45905 0.0
N353 N 0.02063 0.839 0.4215 0.0
C354 C 0.01424 0.79754 0.40645 0.0
C355 C 0.01429 0.75748 0.4268 0.0
loop_
_geom_bond_atom_site_label_1
_geom_bond_atom_site_label_2
_geom_bond_distance
_geom_bond_site_symmetry_2
_ccdc_geom_bond_type
C0 C1 1.384 1_545 S
C0 C2 1.384 . S
C0 H28 0.931 . S
C1 C0 1.384 1_565 S
C1 C4 1.382 . S
C2 C0 1.384 . S
C2 C3 1.381 1_545 S
C2 H29 0.930 . S
C3 C2 1.381 1_565 S
C3 C5 1.381 . S
C3 C6 1.487 . S
C4 C1 1.382 . S
C4 C5 1.387 . S
C4 H30 0.930 . S
C5 C3 1.381 . S
C5 C4 1.387 . S
C5 H31 0.931 . S
C6 C3 1.487 . S
C6 C13 1.399 1_566 S
C6 N44 1.343 . S
C7 C8 1.384 1_565 S
C7 C9 1.384 . S
C7 H32 0.931 . S
C8 C7 1.384 1_545 S
C8 C11 1.382 . S
C9 C7 1.384 . S
C9 C10 1.381 1_565 S
C9 H33 0.930 . S
C10 C9 1.381 1_545 S
C10 C12 1.381 . S
C10 C13 1.487 . S
C11 C8 1.382 . S
C11 C12 1.387 . S
C11 H34 0.930 . S
C12 C10 1.381 . S
C12 C11 1.387 . S
C12 H35 0.931 . S
C13 C6 1.399 1_544 S
C13 C10 1.487 . S
C13 N45 1.343 . S
C14 C15 1.384 1_565 S
C14 C16 1.384 . S
C14 H36 0.931 . S
C15 C14 1.384 1_545 S
C15 C18 1.382 . S
C16 C14 1.384 . S
C16 C17 1.381 1_565 S
C16 H37 0.930 . S
C17 C16 1.381 1_545 S
C17 C19 1.381 . S
C17 C20 1.487 . S
C18 C15 1.382 . S
C18 C19 1.387 . S
C18 H38 0.930 . S
C19 C17 1.381 . S
C19 C18 1.387 . S
C19 H39 0.931 . S
C20 C17 1.487 . S
C20 C27 1.399 1_544 S
C20 N45 1.343 . S
C21 C22 1.384 1_545 S
C21 C23 1.384 . S
C21 H40 0.931 . S
C22 C21 1.384 1_565 S
C22 C25 1.382 . S
C23 C21 1.384 . S
C23 C24 1.381 1_545 S
C23 H41 0.930 . S
C24 C23 1.381 1_565 S
C24 C26 1.381 . S
C24 C27 1.487 . S
C25 C22 1.382 . S
C25 C26 1.387 . S
C25 H42 0.930 . S
C26 C24 1.381 . S
C26 C25 1.387 . S
C26 H43 0.931 . S
C27 C20 1.399 1_566 S
C27 C24 1.487 . S
C27 N44 1.343 . S
H28 C0 0.931 . S
H29 C2 0.930 . S
H30 C4 0.930 . S
H31 C5 0.931 . S
H32 C7 0.931 . S
H33 C9 0.930 . S
H34 C11 0.930 . S
H35 C12 0.931 . S
H36 C14 0.931 . S
H37 C16 0.930 . S
H38 C18 0.930 . S
H39 C19 0.931 . S
H40 C21 0.931 . S
H41 C23 0.930 . S
H42 C25 0.930 . S
H43 C26 0.931 . S
N44 C6 1.343 . S
N44 C27 1.343 . S
N45 C13 1.343 . S
N45 C20 1.343 . S
C46 C47 1.384 1_455 S
C46 C48 1.384 . S
C46 H74 0.931 . S
C47 C46 1.384 1_655 S
C47 C50 1.382 . S
C48 C46 1.384 . S
C48 C49 1.381 1_455 S
C48 H75 0.930 . S
C49 C48 1.381 1_655 S
C49 C51 1.381 . S
C49 C52 1.487 . S
C50 C47 1.382 . S
C50 C51 1.387 . S
C50 H76 0.930 . S
C51 C49 1.381 . S
C51 C50 1.387 . S
C51 H77 0.931 . S
C52 C49 1.487 . S
C52 C59 1.399 1_655 S
C52 N90 1.343 . S
C53 C54 1.384 1_655 S
C53 C55 1.384 . S
C53 H78 0.931 . S
C54 C53 1.384 1_455 S
C54 C57 1.382 . S
C55 C53 1.384 . S
C55 C56 1.381 1_655 S
C55 H79 0.930 . S
C56 C55 1.381 1_455 S
C56 C58 1.381 . S
C56 C59 1.487 . S
C57 C54 1.382 . S
C57 C58 1.387 . S
C57 H80 0.930 . S
C58 C56 1.381 . S
C58 C57 1.387 . S
C58 H81 0.931 . S
C59 C52 1.399 1_455 S
C59 C56 1.487 . S
C59 N91 1.343 . S
C60 C61 1.384 1_655 S
C60 C62 1.384 . S
C60 H82 0.931 . S
C61 C60 1.384 1_455 S
C61 C64 1.382 . S
C62 C60 1.384 . S
C62 C63 1.381 1_655 S
C62 H83 0.930 . S
C63 C62 1.381 1_455 S
C63 C65 1.381 . S
C63 C66 1.487 . S
C64 C61 1.382 . S
C64 C65 1.387 . S
C64 H84 0.930 . S
C65 C63 1.381 . S
C65 C64 1.387 . S
C65 H85 0.931 . S
C66 C63 1.487 . S
C66 C73 1.399 1_455 S
C66 N91 1.343 . S
C67 C68 1.384 1_455 S
C67 C69 1.384 . S
C67 H86 0.931 . S
C68 C67 1.384 1_655 S
C68 C71 1.382 . S
C69 C67 1.384 . S
C69 C70 1.381 1_455 S
C69 H87 0.930 . S
C70 C69 1.381 1_655 S
C70 C72 1.381 . S
C70 C73 1.487 . S
C71 C68 1.382 . S
C71 C72 1.387 . S
C71 H88 0.930 . S
C72 C70 1.381 . S
C72 C71 1.387 . S
C72 H89 0.931 . S
C73 C66 1.399 1_655 S
C73 C70 1.487 . S
C73 N90 1.343 . S
H74 C46 0.931 . S
H75 C48 0.930 . S
H76 C50 0.930 . S
H77 C51 0.931 . S
H78 C53 0.931 . S
H79 C55 0.930 . S
H80 C57 0.930 . S
H81 C58 0.931 . S
H82 C60 0.931 . S
H83 C62 0.930 . S
H84 C64 0.930 . S
H85 C65 0.931 . S
H86 C67 0.931 . S
H87 C69 0.930 . S
H88 C71 0.930 . S
H89 C72 0.931 . S
N90 C52 1.343 . S
N90 C73 1.343 . S
N91 C59 1.343 . S
N91 C66 1.343 . S
Li92 N109 1.990 . S
Li92 O152 1.956 1_545 S
Li92 O153 1.970 1_455 S
Li92 O154 1.961 1_455 S
Li93 N117 1.990 . S
Li93 O152 1.970 1_655 S
Li93 O153 1.956 1_565 S
Li93 O155 1.961 1_655 S
Li94 N139 1.990 . S
Li94 O152 1.961 1_545 S
Li94 O154 1.956 1_455 S
Li94 O155 1.970 1_545 S
Li95 N145 1.990 . S
Li95 O153 1.961 1_565 S
Li95 O154 1.970 1_565 S
Li95 O155 1.956 1_655 S
C96 C98 1.348 1_545 S
C96 C99 1.356 . S
C96 O152 1.325 1_545 S
N97 C100 1.314 1_545 S
N97 C101 1.279 . S
C98 C96 1.348 1_565 S
C98 C100 1.353 . S
C98 H156 0.929 . S
C99 C96 1.356 . S
C99 C101 1.358 . S
C99 H157 0.930 . S
C100 N97 1.314 1_565 S
C100 C98 1.353 . S
C100 H158 0.930 . S
C101 N97 1.279 . S
C101 C99 1.358 . S
C101 H159 0.930 . S
C102 C105 1.348 . S
C102 C106 1.356 1_545 S
C102 O153 1.325 . S
C103 N104 1.279 . S
C103 C106 1.358 . S
C103 H160 0.930 . S
N104 C103 1.279 . S
N104 C107 1.314 1_565 S
C105 C102 1.348 . S
C105 C107 1.353 . S
C105 H161 0.929 . S
C106 C102 1.356 1_565 S
C106 C103 1.358 . S
C106 H162 0.930 . S
C107 N104 1.314 1_545 S
C107 C105 1.353 . S
C107 H163 0.930 . S
C108 N109 1.314 1_655 S
C108 C113 1.353 . S
C108 H114 0.930 . S
N109 Li92 1.990 . S
N109 C108 1.314 1_455 S
N109 C111 1.279 . S
C110 C111 1.358 . S
C110 C112 1.356 . S
C110 H164 0.930 . S
C111 N109 1.279 . S
C111 C110 1.358 . S
C111 H115 0.930 . S
C112 C110 1.356 . S
C112 C113 1.348 1_455 S
C113 C108 1.353 . S
C113 C112 1.348 1_655 S
C113 H165 0.929 . S
H114 C108 0.930 . S
H115 C111 0.930 . S
C116 N117 1.314 1_455 S
C116 C118 1.353 . S
C116 H122 0.930 . S
N117 Li93 1.990 . S
N117 C116 1.314 1_655 S
N117 C120 1.279 . S
C118 C116 1.353 . S
C118 C121 1.348 . S
C118 H166 0.929 . S
C119 C120 1.358 . S
C119 C121 1.356 1_655 S
C119 H167 0.930 . S
C120 N117 1.279 . S
C120 C119 1.358 . S
C120 H123 0.930 . S
C121 C118 1.348 . S
C121 C119 1.356 1_455 S
H122 C116 0.930 . S
H123 C120 0.930 . S
C124 C126 1.348 1_455 S
C124 C127 1.356 . S
C124 O154 1.325 1_455 S
N125 C128 1.314 1_455 S
N125 C129 1.279 . S
C126 C124 1.348 1_655 S
C126 C128 1.353 . S
C126 H168 0.929 . S
C127 C124 1.356 . S
C127 C129 1.358 . S
C127 H169 0.930 . S
C128 N125 1.314 1_655 S
C128 C126 1.353 . S
C128 H170 0.930 . S
C129 N125 1.279 . S
C129 C127 1.358 . S
C129 H171 0.930 . S
C130 C131 1.348 . S
C130 C132 1.356 1_455 S
C130 O155 1.325 . S
C131 C130 1.348 . S
C131 C133 1.353 . S
C131 H172 0.929 . S
C132 C130 1.356 1_655 S
C132 C134 1.358 . S
C132 H173 0.930 . S
C133 C131 1.353 . S
C133 N135 1.314 1_455 S
C133 H174 0.930 . S
C134 C132 1.358 . S
C134 N135 1.279 . S
C134 H175 0.930 . S
N135 C133 1.314 1_655 S
N135 C134 1.279 . S
C136 C138 1.353 . S
C136 N139 1.314 1_565 S
C136 H142 0.930 . S
C137 N139 1.279 . S
C137 C140 1.358 . S
C137 H143 0.930 . S
C138 C136 1.353 . S
C138 C141 1.348 1_565 S
C138 H176 0.929 . S
N139 Li94 1.990 . S
N139 C136 1.314 1_545 S
N139 C137 1.279 . S
C140 C137 1.358 . S
C140 C141 1.356 . S
C140 H177 0.930 . S
C141 C138 1.348 1_545 S
C141 C140 1.356 . S
H142 C136 0.930 . S
H143 C137 0.930 . S
C144 N145 1.314 1_545 S
C144 C146 1.353 . S
C144 H150 0.930 . S
N145 Li95 1.990 . S
N145 C144 1.314 1_565 S
N145 C148 1.279 . S
C146 C144 1.353 . S
C146 C149 1.348 . S
C146 H178 0.929 . S
C147 C148 1.358 . S
C147 C149 1.356 1_565 S
C147 H179 0.930 . S
C148 N145 1.279 . S
C148 C147 1.358 . S
C148 H151 0.930 . S
C149 C146 1.348 . S
C149 C147 1.356 1_545 S
H150 C144 0.930 . S
H151 C148 0.930 . S
O152 Li92 1.956 1_565 S
O152 Li93 1.970 1_455 S
O152 Li94 1.961 1_565 S
O152 C96 1.325 1_565 S
O153 Li92 1.970 1_655 S
O153 Li93 1.956 1_545 S
O153 Li95 1.961 1_545 S
O153 C102 1.325 . S
O154 Li92 1.961 1_655 S
O154 Li94 1.956 1_655 S
O154 Li95 1.970 1_545 S
O154 C124 1.325 1_655 S
O155 Li93 1.961 1_455 S
O155 Li94 1.970 1_565 S
O155 Li95 1.956 1_455 S
O155 C130 1.325 . S
H156 C98 0.929 . S
H157 C99 0.930 . S
H158 C100 0.930 . S
H159 C101 0.930 . S
H160 C103 0.930 . S
H161 C105 0.929 . S
H162 C106 0.930 . S
H163 C107 0.930 . S
H164 C110 0.930 . S
H165 C113 0.929 . S
H166 C118 0.929 . S
H167 C119 0.930 . S
H168 C126 0.929 . S
H169 C127 0.930 . S
H170 C128 0.930 . S
H171 C129 0.930 . S
H172 C131 0.929 . S
H173 C132 0.930 . S
H174 C133 0.930 . S
H175 C134 0.930 . S
H176 C138 0.929 . S
H177 C140 0.930 . S
H178 C146 0.929 . S
H179 C147 0.930 . S
Li180 N197 1.990 . S
Li180 O240 1.956 1_655 S
Li180 O241 1.970 1_545 S
Li180 O242 1.961 1_545 S
Li181 N205 1.990 . S
Li181 O240 1.970 1_565 S
Li181 O241 1.956 1_455 S
Li181 O243 1.961 1_565 S
Li182 N227 1.990 . S
Li182 O240 1.961 1_655 S
Li182 O242 1.956 1_545 S
Li182 O243 1.970 1_655 S
Li183 N233 1.990 . S
Li183 O241 1.961 1_455 S
Li183 O242 1.970 1_455 S
Li183 O243 1.956 1_565 S
C184 C186 1.348 . S
C184 C187 1.356 1_455 S
C184 O240 1.325 . S
N185 C188 1.314 1_655 S
N185 C189 1.279 . S
C186 C184 1.348 . S
C186 C188 1.353 . S
C186 H244 0.929 . S
C187 C184 1.356 1_655 S
C187 C189 1.358 . S
C187 H245 0.930 . S
C188 N185 1.314 1_455 S
C188 C186 1.353 . S
C188 H246 0.930 . S
C189 N185 1.279 . S
C189 C187 1.358 . S
C189 H247 0.930 . S
C190 C193 1.348 1_455 S
C190 C194 1.356 . S
C190 O241 1.325 1_455 S
C191 N192 1.279 . S
C191 C194 1.358 . S
C191 H248 0.930 . S
N192 C191 1.279 . S
N192 C195 1.314 1_455 S
C193 C190 1.348 1_655 S
C193 C195 1.353 . S
C193 H249 0.929 . S
C194 C190 1.356 . S
C194 C191 1.358 . S
C194 H250 0.930 . S
C195 N192 1.314 1_655 S
C195 C193 1.353 . S
C195 H251 0.930 . S
C196 N197 1.314 1_565 S
C196 C201 1.353 . S
C196 H202 0.930 . S
N197 Li180 1.990 . S
N197 C196 1.314 1_545 S
N197 C199 1.279 . S
C198 C199 1.358 . S
C198 C200 1.356 . S
C198 H252 0.930 . S
C199 N197 1.279 . S
C199 C198 1.358 . S
C199 H203 0.930 . S
C200 C198 1.356 . S
C200 C201 1.348 1_545 S
C201 C196 1.353 . S
C201 C200 1.348 1_565 S
C201 H253 0.929 . S
H202 C196 0.930 . S
H203 C199 0.930 . S
C204 N205 1.314 1_545 S
C204 C206 1.353 . S
C204 H210 0.930 . S
N205 Li181 1.990 . S
N205 C204 1.314 1_565 S
N205 C208 1.279 . S
C206 C204 1.353 . S
C206 C209 1.348 . S
C206 H254 0.929 . S
C207 C208 1.358 . S
C207 C209 1.356 1_565 S
C207 H255 0.930 . S
C208 N205 1.279 . S
C208 C207 1.358 . S
C208 H211 0.930 . S
C209 C206 1.348 . S
C209 C207 1.356 1_545 S
H210 C204 0.930 . S
H211 C208 0.930 . S
C212 C214 1.348 1_545 S
C212 C215 1.356 . S
C212 O242 1.325 1_545 S
N213 C216 1.314 1_545 S
N213 C217 1.279 . S
C214 C212 1.348 1_565 S
C214 C216 1.353 . S
C214 H256 0.929 . S
C215 C212 1.356 . S
C215 C217 1.358 . S
C215 H257 0.930 . S
C216 N213 1.314 1_565 S
C216 C214 1.353 . S
C216 H258 0.930 . S
C217 N213 1.279 . S
C217 C215 1.358 . S
C217 H259 0.930 . S
C218 C219 1.348 . S
C218 C220 1.356 1_545 S
C218 O243 1.325 . S
C219 C218 1.348 . S
C219 C221 1.353 . S
C219 H260 0.929 . S
C220 C218 1.356 1_565 S
C220 C222 1.358 . S
C220 H261 0.930 . S
C221 C219 1.353 . S
C221 N223 1.314 1_545 S
C221 H262 0.930 . S
C222 C220 1.358 . S
C222 N223 1.279 . S
C222 H263 0.930 . S
N223 C221 1.314 1_565 S
N223 C222 1.279 . S
C224 C226 1.353 . S
C224 N227 1.314 1_455 S
C224 H230 0.930 . S
C225 N227 1.279 . S
C225 C228 1.358 . S
C225 H231 0.930 . S
C226 C224 1.353 . S
C226 C229 1.348 . S
C226 H264 0.929 . S
N227 Li182 1.990 . S
N227 C224 1.314 1_655 S
N227 C225 1.279 . S
C228 C225 1.358 . S
C228 C229 1.356 1_655 S
C228 H265 0.930 . S
C229 C226 1.348 . S
C229 C228 1.356 1_455 S
H230 C224 0.930 . S
H231 C225 0.930 . S
C232 N233 1.314 1_655 S
C232 C234 1.353 . S
C232 H238 0.930 . S
N233 Li183 1.990 . S
N233 C232 1.314 1_455 S
N233 C236 1.279 . S
C234 C232 1.353 . S
C234 C237 1.348 1_655 S
C234 H266 0.929 . S
C235 C236 1.358 . S
C235 C237 1.356 . S
C235 H267 0.930 . S
C236 N233 1.279 . S
C236 C235 1.358 . S
C236 H239 0.930 . S
C237 C234 1.348 1_455 S
C237 C235 1.356 . S
H238 C232 0.930 . S
H239 C236 0.930 . S
O240 Li180 1.956 1_455 S
O240 Li181 1.970 1_545 S
O240 Li182 1.961 1_455 S
O240 C184 1.325 . S
O241 Li180 1.970 1_565 S
O241 Li181 1.956 1_655 S
O241 Li183 1.961 1_655 S
O241 C190 1.325 1_655 S
O242 Li180 1.961 1_565 S
O242 Li182 1.956 1_565 S
O242 Li183 1.970 1_655 S
O242 C212 1.325 1_565 S
O243 Li181 1.961 1_545 S
O243 Li182 1.970 1_455 S
O243 Li183 1.956 1_545 S
O243 C218 1.325 . S
H244 C186 0.929 . S
H245 C187 0.930 . S
H246 C188 0.930 . S
H247 C189 0.930 . S
H248 C191 0.930 . S
H249 C193 0.929 . S
H250 C194 0.930 . S
H251 C195 0.930 . S
H252 C198 0.930 . S
H253 C201 0.929 . S
H254 C206 0.929 . S
H255 C207 0.930 . S
H256 C214 0.929 . S
H257 C215 0.930 . S
H258 C216 0.930 . S
H259 C217 0.930 . S
H260 C219 0.929 . S
H261 C220 0.930 . S
H262 C221 0.930 . S
H263 C222 0.930 . S
H264 C226 0.929 . S
H265 C228 0.930 . S
H266 C234 0.929 . S
H267 C235 0.930 . S
C268 C269 1.362 1_565 S
C268 C270 1.419 . S
C268 H272 0.930 . S
C269 C268 1.362 1_545 S
C269 C278 1.436 . S
C270 C268 1.419 . S
C270 C271 1.370 . S
C270 H273 0.929 . S
C271 C270 1.370 . S
C271 C277 1.421 1_565 S
H272 C268 0.930 . S
H273 C270 0.929 . S
S274 N275 1.613 . S
S274 N276 1.610 . S
N275 S274 1.613 . S
N275 C278 1.350 . S
N276 S274 1.610 . S
N276 C277 1.351 . S
C277 C271 1.421 1_545 S
C277 N276 1.351 . S
C277 C278 1.434 . S
C278 C269 1.436 . S
C278 N275 1.350 . S
C278 C277 1.434 . S
C279 C280 1.367 1_455 S
C279 C281 1.419 . S
C279 H283 0.930 . S
C280 C279 1.367 1_655 S
C280 C289 1.431 . S
C281 C279 1.419 . S
C281 C282 1.371 . S
C281 H284 0.929 . S
C282 C281 1.371 . S
C282 C288 1.421 1_455 S
H283 C279 0.930 . S
H284 C281 0.929 . S
S285 N286 1.613 . S
S285 N287 1.610 . S
N286 S285 1.613 . S
N286 C289 1.350 . S
N287 S285 1.610 . S
N287 C288 1.351 . S
C288 C282 1.421 1_655 S
C288 N287 1.351 . S
C288 C289 1.434 . S
C289 C280 1.431 . S
C289 N286 1.350 . S
C289 C288 1.434 . S
C290 C291 1.365 1_545 S
C290 C292 1.419 . S
C290 H294 0.930 . S
C291 C290 1.365 1_565 S
C291 C300 1.432 . S
C292 C290 1.419 . S
C292 C293 1.374 . S
C292 H295 0.929 . S
C293 C292 1.374 . S
C293 C299 1.417 1_545 S
H294 C290 0.930 . S
H295 C292 0.929 . S
S296 N297 1.613 . S
S296 N298 1.610 . S
N297 S296 1.613 . S
N297 C300 1.350 . S
N298 S296 1.610 . S
N298 C299 1.351 . S
C299 C293 1.417 1_565 S
C299 N298 1.351 . S
C299 C300 1.434 . S
C300 C291 1.432 . S
C300 N297 1.350 . S
C300 C299 1.434 . S
C301 C302 1.366 1_455 S
C301 C303 1.419 . S
C301 H305 0.930 . S
C302 C301 1.366 1_655 S
C302 C311 1.432 . S
C303 C301 1.419 . S
C303 C304 1.348 1_455 S
C303 H306 0.929 . S
C304 C303 1.348 1_655 S
C304 C310 1.444 . S
H305 C301 0.930 . S
H306 C303 0.929 . S
S307 N308 1.613 . S
S307 N309 1.610 . S
N308 S307 1.613 . S
N308 C311 1.350 . S
N309 S307 1.610 . S
N309 C310 1.351 . S
C310 C304 1.444 . S
C310 N309 1.351 . S
C310 C311 1.434 . S
C311 C302 1.432 . S
C311 N308 1.350 . S
C311 C310 1.434 . S
C312 C313 1.352 1_565 S
C312 C314 1.419 . S
C312 H316 0.930 . S
C313 C312 1.352 1_545 S
C313 C322 1.446 . S
C314 C312 1.419 . S
C314 C315 1.363 1_565 S
C314 H317 0.929 . S
C315 C314 1.363 1_545 S
C315 C321 1.428 . S
H316 C312 0.930 . S
H317 C314 0.929 . S
S318 N319 1.613 . S
S318 N320 1.610 . S
N319 S318 1.613 . S
N319 C322 1.350 . S
N320 S318 1.610 . S
N320 C321 1.351 . S
C321 C315 1.428 . S
C321 N320 1.351 . S
C321 C322 1.434 . S
C322 C313 1.446 . S
C322 N319 1.350 . S
C322 C321 1.434 . S
C323 C324 1.370 . S
C323 C325 1.419 . S
C323 H327 0.930 . S
C324 C323 1.370 . S
C324 C333 1.428 1_655 S
C325 C323 1.419 . S
C325 C326 1.366 . S
C325 H328 0.929 . S
C326 C325 1.366 . S
C326 C332 1.426 1_655 S
H327 C323 0.930 . S
H328 C325 0.929 . S
S329 N330 1.613 . S
S329 N331 1.610 . S
N330 S329 1.613 . S
N330 C333 1.350 . S
N331 S329 1.610 . S
N331 C332 1.351 . S
C332 C326 1.426 1_455 S
C332 N331 1.351 . S
C332 C333 1.434 . S
C333 C324 1.428 1_455 S
C333 N330 1.350 . S
C333 C332 1.434 . S
C334 C335 1.368 1_565 S
C334 C336 1.419 . S
C334 H338 0.930 . S
C335 C334 1.368 1_545 S
C335 C344 1.430 . S
C336 C334 1.419 . S
C336 C337 1.366 . S
C336 H339 0.929 . S
C337 C336 1.366 . S
C337 C343 1.426 1_565 S
H338 C334 0.930 . S
H339 C336 0.929 . S
S340 N341 1.613 . S
S340 N342 1.610 . S
N341 S340 1.613 . S
N341 C344 1.350 . S
N342 S340 1.610 . S
N342 C343 1.351 . S
C343 C337 1.426 1_545 S
C343 N342 1.351 . S
C343 C344 1.434 . S
C344 C335 1.430 . S
C344 N341 1.350 . S
C344 C343 1.434 . S
C345 C346 1.367 1_655 S
C345 C347 1.419 . S
C345 H349 0.930 . S
C346 C345 1.367 1_455 S
C346 C355 1.431 . S
C347 C345 1.419 . S
C347 C348 1.363 1_655 S
C347 H350 0.929 . S
C348 C347 1.363 1_455 S
C348 C354 1.428 . S
H349 C345 0.930 . S
H350 C347 0.929 . S
S351 N352 1.613 . S
S351 N353 1.610 . S
N352 S351 1.613 . S
N352 C355 1.350 . S
N353 S351 1.610 . S
N353 C354 1.351 . S
C354 C348 1.428 . S
C354 N353 1.351 . S
C354 C355 1.434 . S
C355 C346 1.431 . S
C355 N352 1.350 . S
C355 C354 1.434 . S
C271 C141 1.493 1_565 S
C269 C15 1.489 . S
C282 C229 1.493 . S
C280 C68 1.490 . S
C293 C149 1.493 . S
C291 C8 1.491 1_565 S
C304 C237 1.493 1_655 S
C302 C47 1.493 . S
C315 C209 1.494 . S
C313 C22 1.493 1_545 S
C326 C112 1.493 1_655 S
C324 C61 1.491 1_655 S
C337 C200 1.493 1_565 S
C335 C1 1.496 1_545 S
C346 C54 1.492 . S
C348 C121 1.495 . S
