# Generated by pormake.
# Topology pyr, (3,6)-cn, num edge types: 1
# Building blocks:
#     Node 0, Type 0, BuildingBlock: BETDIP_clean_linker_0, # of connection points: 3
#     Node 1, Type 0, BuildingBlock: BETDIP_clean_linker_0, # of connection points: 3
#     Node 2, Type 0, BuildingBlock: BETDIP_clean_linker_0, # of connection points: 3
#     Node 3, Type 0, BuildingBlock: BETDIP_clean_linker_0, # of connection points: 3
#     Node 4, Type 0, BuildingBlock: BETDIP_clean_linker_0, # of connection points: 3
#     Node 5, Type 0, BuildingBlock: BETDIP_clean_linker_0, # of connection points: 3
#     Node 6, Type 0, BuildingBlock: BETDIP_clean_linker_0, # of connection points: 3
#     Node 7, Type 0, BuildingBlock: BETDIP_clean_linker_0, # of connection points: 3
#     Node 8, Type 1, BuildingBlock: PAMTOO_clean_sbu_0, # of connection points: 6
#     Node 9, Type 1, BuildingBlock: PAMTOO_clean_sbu_0, # of connection points: 6
#     Node 10, Type 1, BuildingBlock: PAMTOO_clean_sbu_0, # of connection points: 6
#     Node 11, Type 1, BuildingBlock: PAMTOO_clean_sbu_0, # of connection points: 6
#     Edge 12, Type (0, 1), BuildingBlock: XUDNAN_clean_linker_2, # of connection points: 2
#     Edge 13, Type (0, 1), BuildingBlock: XUDNAN_clean_linker_2, # of connection points: 2
#     Edge 14, Type (0, 1), BuildingBlock: XUDNAN_clean_linker_2, # of connection points: 2
#     Edge 15, Type (0, 1), BuildingBlock: XUDNAN_clean_linker_2, # of connection points: 2
#     Edge 16, Type (0, 1), BuildingBlock: XUDNAN_clean_linker_2, # of connection points: 2
#     Edge 17, Type (0, 1), BuildingBlock: XUDNAN_clean_linker_2, # of connection points: 2
#     Edge 18, Type (0, 1), BuildingBlock: XUDNAN_clean_linker_2, # of connection points: 2
#     Edge 19, Type (0, 1), BuildingBlock: XUDNAN_clean_linker_2, # of connection points: 2
#     Edge 20, Type (0, 1), BuildingBlock: XUDNAN_clean_linker_2, # of connection points: 2
#     Edge 21, Type (0, 1), BuildingBlock: XUDNAN_clean_linker_2, # of connection points: 2
#     Edge 22, Type (0, 1), BuildingBlock: XUDNAN_clean_linker_2, # of connection points: 2
#     Edge 23, Type (0, 1), BuildingBlock: XUDNAN_clean_linker_2, # of connection points: 2
#     Edge 24, Type (0, 1), BuildingBlock: XUDNAN_clean_linker_2, # of connection points: 2
#     Edge 25, Type (0, 1), BuildingBlock: XUDNAN_clean_linker_2, # of connection points: 2
#     Edge 26, Type (0, 1), BuildingBlock: XUDNAN_clean_linker_2, # of connection points: 2
#     Edge 27, Type (0, 1), BuildingBlock: XUDNAN_clean_linker_2, # of connection points: 2
#     Edge 28, Type (0, 1), BuildingBlock: XUDNAN_clean_linker_2, # of connection points: 2
#     Edge 29, Type (0, 1), BuildingBlock: XUDNAN_clean_linker_2, # of connection points: 2
#     Edge 30, Type (0, 1), BuildingBlock: XUDNAN_clean_linker_2, # of connection points: 2
#     Edge 31, Type (0, 1), BuildingBlock: XUDNAN_clean_linker_2, # of connection points: 2
#     Edge 32, Type (0, 1), BuildingBlock: XUDNAN_clean_linker_2, # of connection points: 2
#     Edge 33, Type (0, 1), BuildingBlock: XUDNAN_clean_linker_2, # of connection points: 2
#     Edge 34, Type (0, 1), BuildingBlock: XUDNAN_clean_linker_2, # of connection points: 2
#     Edge 35, Type (0, 1), BuildingBlock: XUDNAN_clean_linker_2, # of connection points: 2
# Relax obj value: 0.121
# Max RMSD: 0.198
# Mean RMSD: 0.129
data_MOF--net-pyr--node1-PAMTOO_clean_sbu_0--node2-BETDIP_clean_linker_0--edge1-XUDNAN_clean_linker_2
_symmetry_space_group_name_H-M    P1
_symmetry_Int_Tables_number       1
_symmetry_cell_setting            triclinic
loop_
_symmetry_equiv_pos_as_xyz
'x, y, z'
_cell_length_a     36.40334
_cell_length_b     38.562123
_cell_length_c     40.21757
_cell_angle_alpha  91.554978
_cell_angle_beta   88.315311
_cell_angle_gamma 109.47828
loop_
_atom_site_label
_atom_site_type_symbol
_atom_site_fract_x
_atom_site_fract_y
_atom_site_fract_z
_atom_type_partial_charge
H0 H 0.33638 0.31465 0.22222 0.0
H1 H 0.38158 0.28444 0.13075 0.0
H2 H 0.33491 0.20308 0.20576 0.0
H3 H 0.3508 0.33113 0.11102 0.0
C4 C 0.3441 0.34238 0.13459 0.0
C5 C 0.343 0.29377 0.20704 0.0
C6 C 0.33276 0.25743 0.21815 0.0
C7 C 0.35952 0.30316 0.1754 0.0
C8 C 0.36849 0.27684 0.15519 0.0
C9 C 0.36106 0.24101 0.16667 0.0
C10 C 0.34285 0.23136 0.198 0.0
N11 N 0.36377 0.33844 0.16338 0.0
H12 H 0.14415 0.76635 0.73889 0.0
H13 H 0.18505 0.74807 0.64093 0.0
H14 H 0.24303 0.72955 0.72679 0.0
H15 H 0.16871 0.80036 0.6322 0.0
C16 C 0.14243 0.79682 0.64717 0.0
C17 C 0.16379 0.75707 0.72307 0.0
C18 C 0.19336 0.74683 0.73723 0.0
C19 C 0.16143 0.75871 0.68854 0.0
C20 C 0.18722 0.74749 0.66768 0.0
C21 C 0.2161 0.73578 0.6814 0.0
C22 C 0.2189 0.73564 0.71616 0.0
N23 N 0.13484 0.7746 0.67586 0.0
H24 H 0.71086 0.42396 0.84721 0.0
H25 H 0.61384 0.3243 0.83541 0.0
H26 H 0.70061 0.33157 0.90875 0.0
H27 H 0.60593 0.3508 0.78441 0.0
C28 C 0.62215 0.38005 0.7855 0.0
C29 C 0.69568 0.39589 0.85452 0.0
C30 C 0.71048 0.38036 0.88022 0.0
C31 C 0.66166 0.376 0.83747 0.0
C32 C 0.64061 0.33966 0.84764 0.0
C33 C 0.6538 0.32363 0.87445 0.0
C34 C 0.68902 0.34429 0.88988 0.0
N35 N 0.65026 0.39457 0.81102 0.0
H36 H 0.82839 0.64787 0.32678 0.0
H37 H 0.92693 0.74329 0.351 0.0
H38 H 0.82389 0.71333 0.41378 0.0
H39 H 0.85493 0.66813 0.27098 0.0
C40 C 0.88437 0.66991 0.27715 0.0
C41 C 0.84168 0.67184 0.34242 0.0
C42 C 0.82155 0.67798 0.37113 0.0
C43 C 0.87947 0.69589 0.33464 0.0
C44 C 0.89733 0.7257 0.35632 0.0
C45 C 0.87746 0.73218 0.38512 0.0
C46 C 0.83939 0.70859 0.39165 0.0
N47 N 0.90127 0.68886 0.30681 0.0
H48 H 0.65424 0.76331 0.94755 0.0
H49 H 0.71283 0.73693 0.86133 0.0
H50 H 0.68875 0.83891 0.86689 0.0
H51 H 0.70136 0.68067 0.88648 0.0
C52 C 0.706 0.69216 0.91159 0.0
C53 C 0.66676 0.77 0.92277 0.0
C54 C 0.66832 0.80322 0.90848 0.0
C55 C 0.68285 0.74604 0.9061 0.0
C56 C 0.70022 0.75525 0.87439 0.0
C57 C 0.7026 0.78873 0.85983 0.0
C58 C 0.68592 0.81233 0.87696 0.0
N59 N 0.68481 0.71509 0.9234 0.0
H60 H 0.87245 0.27315 0.31247 0.0
H61 H 0.86433 0.31741 0.41084 0.0
H62 H 0.80649 0.34623 0.33017 0.0
H63 H 0.87672 0.26749 0.4262 0.0
C64 C 0.8936 0.25942 0.40668 0.0
C65 C 0.86293 0.29139 0.32889 0.0
C66 C 0.83861 0.30972 0.31699 0.0
C67 C 0.87212 0.29351 0.36264 0.0
C68 C 0.85793 0.31543 0.38463 0.0
C69 C 0.83477 0.33481 0.37266 0.0
C70 C 0.82562 0.33222 0.33894 0.0
N71 N 0.89364 0.27141 0.37359 0.0
H72 H 0.33802 0.63342 0.24034 0.0
H73 H 0.43328 0.73591 0.23016 0.0
H74 H 0.34102 0.705 0.15947 0.0
H75 H 0.38791 0.61638 0.26532 0.0
C76 C 0.40102 0.64041 0.28109 0.0
C77 C 0.35251 0.65847 0.22699 0.0
C78 C 0.33479 0.66636 0.1986 0.0
C79 C 0.38806 0.68344 0.23888 0.0
C80 C 0.40588 0.7168 0.22158 0.0
C81 C 0.38942 0.72455 0.19235 0.0
C82 C 0.35374 0.69928 0.18182 0.0
N83 N 0.4058 0.67625 0.26839 0.0
H84 H 0.09825 0.33548 0.7252 0.0
H85 H 0.2108 0.41953 0.736 0.0
H86 H 0.18815 0.34654 0.65075 0.0
H87 H 0.17061 0.44879 0.76665 0.0
C88 C 0.15309 0.42506 0.78068 0.0
C89 C 0.12743 0.34969 0.71566 0.0
C90 C 0.14001 0.33816 0.68532 0.0
C91 C 0.15221 0.37994 0.73356 0.0
C92 C 0.19067 0.39762 0.72159 0.0
C93 C 0.20387 0.38498 0.692 0.0
C94 C 0.17802 0.35612 0.67372 0.0
N95 N 0.13853 0.3899 0.76467 0.0
Dy96 Dy 0.05121 0.03905 0.51875 0.0
Dy97 Dy 0.97308 0.02521 0.56852 0.0
C98 C 0.04354 0.09961 0.5711 0.0
O99 O 0.06203 1.01239 0.56456 0.0
O100 O 0.99939 0.98411 0.58381 0.0
O101 O 0.11373 0.06472 0.51355 0.0
O102 O 0.08047 0.03103 0.47341 0.0
O103 O 0.956 0.97749 0.53249 0.0
O104 O 0.01489 0.98139 0.50664 0.0
O105 O 0.97021 0.06608 0.53137 0.0
O106 O 1.00961 0.0562 0.48892 0.0
O107 O 0.9111 1.01298 0.57649 0.0
O108 O 0.95012 0.02731 0.61821 0.0
C109 C 0.03632 0.98718 0.58243 0.0
O110 O 0.05271 0.09346 0.54028 0.0
O111 O 0.02154 0.07266 0.58941 0.0
C112 C 0.1356 0.08149 0.45862 0.0
C113 C 0.1773 0.13298 0.41096 0.0
C114 C 0.19708 0.1182 0.43318 0.0
C115 C 0.17636 0.09259 0.45672 0.0
C116 C 0.11573 0.09676 0.43708 0.0
C117 C 0.13637 0.12209 0.41335 0.0
C118 C 0.11427 0.05352 0.48268 0.0
C119 C 0.97769 0.96421 0.51261 0.0
C120 C 0.98343 0.07036 0.50045 0.0
C121 C 0.88834 0.98419 0.62762 0.0
C122 C 0.84535 0.92646 0.66919 0.0
C123 C 0.86937 0.92018 0.6433 0.0
C124 C 0.89079 0.94887 0.62272 0.0
C125 C 0.86348 0.99033 0.65256 0.0
C126 C 0.84211 0.96171 0.67319 0.0
C127 C 0.91399 1.01533 0.60881 0.0
H128 H 0.22858 0.12642 0.43243 0.0
H129 H 0.19216 0.08125 0.47333 0.0
H130 H 0.08422 0.0887 0.43826 0.0
H131 H 0.1201 0.13246 0.39639 0.0
H132 H 0.87217 0.89328 0.63934 0.0
H133 H 0.91006 0.94376 0.60359 0.0
H134 H 0.86158 0.01755 0.65679 0.0
H135 H 0.82439 0.96765 0.69317 0.0
Dy136 Dy 0.47838 1.00577 1.00167 0.0
Dy137 Dy 0.54328 0.0419 0.05918 0.0
C138 C 0.48169 0.95891 0.06767 0.0
O139 O 0.46567 0.0538 1.02482 0.0
O140 O 0.49031 0.05471 0.07633 0.0
O141 O 0.41761 0.98849 0.98979 0.0
O142 O 0.46104 0.98967 0.95105 0.0
O143 O 0.54985 0.0875 1.02251 0.0
O144 O 0.52538 0.05154 0.9768 0.0
O145 O 0.56901 1.00822 1.02594 0.0
O146 O 0.51716 0.97219 0.99519 0.0
O147 O 0.60391 0.06648 0.07045 0.0
O148 O 0.5601 0.05919 0.10986 0.0
C149 C 0.46742 0.06368 0.05627 0.0
O150 O 0.46176 0.96405 0.04245 0.0
O151 O 0.51459 0.98383 0.07701 0.0
C152 C 0.39734 0.94766 0.94378 0.0
C153 C 0.34115 0.88621 0.91488 0.0
C154 C 0.35344 0.88455 0.94745 0.0
C155 C 0.38137 0.9152 0.96189 0.0
C156 C 0.38609 0.94885 0.91102 0.0
C157 C 0.35836 0.91843 0.89665 0.0
C158 C 0.42405 0.98146 0.95864 0.0
C159 C 0.54488 0.08375 0.99008 0.0
C160 C 0.55293 0.98041 1.00554 0.0
C161 C 0.61939 0.10915 0.11573 0.0
C162 C 0.67076 0.17381 0.14477 0.0
C163 C 0.66832 0.16979 0.11 0.0
C164 C 0.64273 0.13777 0.09556 0.0
C165 C 0.62061 0.11387 0.15038 0.0
C166 C 0.64594 0.1459 0.16479 0.0
C167 C 0.59697 0.07286 0.10159 0.0
H168 H 0.34076 0.86 0.96197 0.0
H169 H 0.38991 0.9138 0.98727 0.0
H170 H 0.3983 0.97362 0.89666 0.0
H171 H 0.35028 0.92023 0.87121 0.0
H172 H 0.68689 0.19099 0.09401 0.0
H173 H 0.64228 0.13493 0.06869 0.0
H174 H 0.60312 0.09208 0.16639 0.0
H175 H 0.64752 0.14791 0.19166 0.0
Dy176 Dy 0.5145 0.4863 0.51815 0.0
Dy177 Dy 0.52685 0.56411 0.55737 0.0
C178 C 0.5523 0.5016 0.59132 0.0
O179 O 0.45527 0.47824 0.53884 0.0
O180 O 0.47151 0.5246 0.57871 0.0
O181 O 0.50945 0.4287 0.51729 0.0
O182 O 0.5116 0.45686 0.47132 0.0
O183 O 0.48535 0.56357 0.51717 0.0
O184 O 0.50122 0.52396 0.4808 0.0
O185 O 0.57336 0.57468 0.5173 0.0
O186 O 0.57782 0.51738 0.51608 0.0
O187 O 0.54617 0.6235 0.55748 0.0
O188 O 0.52386 0.59441 0.60287 0.0
C189 C 0.44709 0.49416 0.56595 0.0
O190 O 0.5281 0.47739 0.57142 0.0
O191 O 0.56266 0.53703 0.5851 0.0
C192 C 0.55027 0.41838 0.47407 0.0
C193 C 0.62264 0.40854 0.45973 0.0
C194 C 0.59786 0.38848 0.48511 0.0
C195 C 0.56201 0.39335 0.49219 0.0
C196 C 0.57424 0.43696 0.44757 0.0
C197 C 0.60998 0.43213 0.44055 0.0
C198 C 0.51589 0.42838 0.48526 0.0
C199 C 0.48648 0.55061 0.48671 0.0
C200 C 0.59183 0.55195 0.50806 0.0
C201 C 0.50508 0.64581 0.5924 0.0
C202 C 0.44423 0.67538 0.60187 0.0
C203 C 0.45795 0.67056 0.56967 0.0
C204 C 0.48804 0.65592 0.56498 0.0
C205 C 0.4925 0.65202 0.62463 0.0
C206 C 0.46233 0.66662 0.62934 0.0
C207 C 0.53304 0.62568 0.58769 0.0
H208 H 0.60679 0.37007 0.50031 0.0
H209 H 0.54417 0.37862 0.51272 0.0
H210 H 0.56613 0.4563 0.43289 0.0
H211 H 0.62796 0.4473 0.4203 0.0
H212 H 0.44446 0.67677 0.548 0.0
H213 H 0.49708 0.65151 0.53981 0.0
H214 H 0.50522 0.64453 0.64616 0.0
H215 H 0.45281 0.6706 0.65449 0.0
Dy216 Dy 0.03163 0.56121 0.02858 0.0
Dy217 Dy 1.00844 0.48067 0.06287 0.0
C218 C 0.98704 0.54666 0.09741 0.0
O219 O 0.07775 0.56749 0.06641 0.0
O220 O 0.07288 0.50699 0.07039 0.0
O221 O 0.05012 0.62038 0.03415 0.0
O222 O 0.03517 0.59486 0.98562 0.0
O223 O 0.03307 0.4745 1.01265 0.0
O224 O 0.06874 0.53413 0.99963 0.0
O225 O 0.95235 0.47947 0.03922 0.0
O226 O 0.98149 0.52319 1.00055 0.0
O227 O 0.99057 0.42127 0.05986 0.0
O228 O 1.00227 0.44916 0.10762 0.0
C229 C 0.09155 0.54213 0.07635 0.0
O230 O 0.98533 0.55856 0.0675 0.0
O231 O 1.00195 0.52065 0.10172 0.0
C232 C 1.01236 0.64353 0.99994 0.0
C233 C 0.94979 0.66926 0.9891 0.0
C234 C 0.95397 0.65533 1.02016 0.0
C235 C 0.98481 0.64247 1.02549 0.0
C236 C 1.00916 0.65872 0.96932 0.0
C237 C 0.97809 0.67146 0.96391 0.0
C238 C 0.04111 0.62467 1.00374 0.0
C239 C 0.05956 0.49842 0.99437 0.0
C240 C 0.95137 0.49556 1.01089 0.0
C241 C 0.02837 0.40217 0.09714 0.0
C242 C 0.0926 0.3814 0.11415 0.0
C243 C 0.09345 0.40043 0.08468 0.0
C244 C 0.06176 0.41083 0.07635 0.0
C245 C 0.02677 0.38213 0.12602 0.0
C246 C 0.05865 0.37177 0.13446 0.0
C247 C 0.99825 0.41874 0.09098 0.0
H248 H 0.93239 0.65275 0.03991 0.0
H249 H 0.98616 0.63038 0.04923 0.0
H250 H 0.02988 0.6595 0.94922 0.0
H251 H 0.97579 0.68237 0.93981 0.0
H252 H 0.11934 0.40888 0.06881 0.0
H253 H 0.06407 0.42704 0.05432 0.0
H254 H 1.00149 0.37568 0.1426 0.0
H255 H 0.05707 0.3569 0.15722 0.0
H256 H 0.33406 0.20518 0.2636 0.0
H257 H 0.27506 0.28305 0.24231 0.0
H258 H 0.23317 0.26332 0.29193 0.0
H259 H 0.2477 0.1334 0.28663 0.0
H260 H 0.27013 0.11594 0.31861 0.0
H261 H 0.29891 0.13918 0.2836 0.0
H262 H 0.34672 0.18507 0.32371 0.0
H263 H 0.31797 0.16201 0.35889 0.0
H264 H 0.32824 0.21069 0.35408 0.0
H265 H 0.19545 0.23358 0.34225 0.0
H266 H 0.16231 0.19341 0.38838 0.0
H267 H 0.24147 0.13102 0.37402 0.0
C268 C 0.31248 0.21825 0.26933 0.0
C269 C 0.30865 0.24629 0.24914 0.0
C270 C 0.27979 0.26247 0.25779 0.0
C271 C 0.25549 0.25123 0.28587 0.0
C272 C 0.25993 0.22345 0.30498 0.0
C273 C 0.28748 0.20695 0.297 0.0
C274 C 0.28421 0.17582 0.32032 0.0
C275 C 0.27466 0.13891 0.30114 0.0
C276 C 0.32151 0.1839 0.34044 0.0
C277 C 0.25021 0.17718 0.34233 0.0
C278 C 0.23699 0.20516 0.3333 0.0
C279 C 0.20548 0.21151 0.34956 0.0
C280 C 0.18665 0.18834 0.37557 0.0
C281 C 0.19906 0.15886 0.38481 0.0
C282 C 0.23155 0.15358 0.36802 0.0
H283 H 0.193 0.80709 0.77373 0.0
H284 H 0.21712 0.7048 0.78063 0.0
H285 H 0.24796 0.72556 0.83485 0.0
H286 H 0.27807 0.86201 0.79821 0.0
H287 H 0.26186 0.89474 0.82191 0.0
H288 H 0.23262 0.86843 0.78892 0.0
H289 H 0.17358 0.84375 0.82956 0.0
H290 H 0.20246 0.87065 0.86283 0.0
H291 H 0.17889 0.82179 0.86727 0.0
H292 H 0.28871 0.76301 0.88095 0.0
H293 H 0.33356 0.81283 0.91499 0.0
H294 H 0.28041 0.88939 0.87881 0.0
C295 C 0.20276 0.78812 0.78742 0.0
C296 C 0.2024 0.75423 0.77303 0.0
C297 C 0.21711 0.73092 0.79121 0.0
C298 C 0.23446 0.7424 0.82212 0.0
C299 C 0.23626 0.77696 0.83474 0.0
C300 C 0.22008 0.79918 0.81818 0.0
C301 C 0.23058 0.83705 0.83419 0.0
C302 C 0.25206 0.86729 0.80933 0.0
C303 C 0.19421 0.84368 0.84938 0.0
C304 C 0.25731 0.83354 0.86095 0.0
C305 C 0.25965 0.79851 0.86148 0.0
C306 C 0.28624 0.79021 0.88145 0.0
C307 C 0.31161 0.81864 0.9007 0.0
C308 C 0.31043 0.8549 0.89941 0.0
C309 C 0.28195 0.8619 0.88021 0.0
H310 H 0.57486 0.36058 0.73023 0.0
H311 H 0.65655 0.45525 0.77948 0.0
H312 H 0.64787 0.49532 0.73568 0.0
H313 H 0.60515 0.38977 0.64552 0.0
H314 H 0.55662 0.37257 0.62931 0.0
H315 H 0.56889 0.35099 0.66454 0.0
H316 H 0.5119 0.36111 0.69875 0.0
H317 H 0.49943 0.38266 0.66361 0.0
H318 H 0.50907 0.40682 0.70311 0.0
H319 H 0.6302 0.52591 0.68618 0.0
H320 H 0.60522 0.54435 0.6357 0.0
H321 H 0.53466 0.4306 0.61674 0.0
C322 C 0.5909 0.38977 0.7318 0.0
C323 C 0.61649 0.40451 0.75867 0.0
C324 C 0.63685 0.44295 0.75949 0.0
C325 C 0.63208 0.46607 0.73456 0.0
C326 C 0.6068 0.45071 0.70851 0.0
C327 C 0.58651 0.41339 0.70691 0.0
C328 C 0.56121 0.40404 0.67606 0.0
C329 C 0.57372 0.37778 0.65247 0.0
C330 C 0.51783 0.38769 0.68598 0.0
C331 C 0.57032 0.44186 0.66066 0.0
C332 C 0.59674 0.46833 0.67987 0.0
C333 C 0.60955 0.50529 0.67102 0.0
C334 C 0.59508 0.51555 0.64208 0.0
C335 C 0.56784 0.48919 0.62171 0.0
C336 C 0.5555 0.45167 0.63139 0.0
H337 H 0.86934 0.65025 0.21168 0.0
H338 H 0.94972 0.6527 0.28994 0.0
H339 H 0.98468 0.62242 0.25195 0.0
H340 H 0.86328 0.56313 0.1758 0.0
H341 H 0.86255 0.5765 0.13329 0.0
H342 H 0.84402 0.59905 0.16624 0.0
H343 H 0.8912 0.66229 0.14731 0.0
H344 H 0.90981 0.63993 0.11421 0.0
H345 H 0.94271 0.66958 0.14374 0.0
H346 H 1.00774 0.58788 0.20736 0.0
H347 H 0.02191 0.5563 0.15707 0.0
H348 H 0.93031 0.57986 0.10516 0.0
C349 C 0.89452 0.64463 0.22063 0.0
C350 C 0.90686 0.6538 0.25375 0.0
C351 C 0.9399 0.64613 0.26466 0.0
C352 C 0.95987 0.62882 0.24327 0.0
C353 C 0.94683 0.61989 0.21087 0.0
C354 C 0.91532 0.628 0.19933 0.0
C355 C 0.90774 0.61573 0.16317 0.0
C356 C 0.86698 0.58689 0.15942 0.0
C357 C 0.9132 0.64886 0.14079 0.0
C358 C 0.93949 0.59885 0.15641 0.0
C359 C 0.96141 0.60133 0.18445 0.0
C360 C 0.99109 0.58615 0.18516 0.0
C361 C 0.99875 0.56806 0.15648 0.0
C362 C 0.97727 0.56566 0.12719 0.0
C363 C 0.94741 0.58157 0.1271 0.0
H364 H 0.40137 0.19579 0.18393 0.0
H365 H 0.34355 0.22435 0.1014 0.0
H366 H 0.36183 0.17967 0.06514 0.0
H367 H 0.48228 0.18768 0.13645 0.0
H368 H 0.48614 0.14955 0.15936 0.0
H369 H 0.46638 0.18195 0.17945 0.0
H370 H 0.40352 0.1287 0.19537 0.0
H371 H 0.42311 0.0961 0.17534 0.0
H372 H 0.3765 0.09795 0.1633 0.0
H373 H 0.38747 0.13352 0.0377 0.0
H374 H 0.42117 0.09038 1.01963 0.0
H375 H 0.46424 0.0924 0.11957 0.0
C376 C 0.39219 0.19221 0.15832 0.0
C377 C 0.37098 0.21334 0.14538 0.0
C378 C 0.35999 0.2085 0.11165 0.0
C379 C 0.37005 0.1831 0.09097 0.0
C380 C 0.39125 0.16291 0.10439 0.0
C381 C 0.40236 0.16723 0.13722 0.0
C382 C 0.42669 0.14337 0.14489 0.0
C383 C 0.46781 0.16706 0.15566 0.0
C384 C 0.40622 0.11483 0.17129 0.0
C385 C 0.42774 0.12519 0.11115 0.0
C386 C 0.40679 0.13665 0.0883 0.0
C387 C 0.40388 0.12424 0.05537 0.0
C388 C 0.42319 0.09969 0.04538 0.0
C389 C 0.44544 0.08793 0.06815 0.0
C390 C 0.44741 0.10073 0.10157 0.0
H391 H 0.16094 0.8543 0.60487 0.0
H392 H 0.07368 0.79588 0.67789 0.0
H393 H 0.03868 0.84007 0.67097 0.0
H394 H 0.16368 0.94532 0.62994 0.0
H395 H 0.16969 0.9625 0.58818 0.0
H396 H 0.1877 0.92597 0.59838 0.0
H397 H 0.14704 0.88485 0.55134 0.0
H398 H 0.12928 0.92141 0.54077 0.0
H399 H 0.09532 0.8766 0.55047 0.0
H400 H 1.01282 0.89002 0.65564 0.0
H401 H 0.99684 0.94144 0.6319 0.0
H402 H 0.10203 0.96863 0.57003 0.0
C403 C 0.13432 0.85075 0.61922 0.0
C404 C 0.11998 0.82176 0.64188 0.0
C405 C 0.08522 0.81797 0.66042 0.0
C406 C 0.06518 0.84296 0.6567 0.0
C407 C 0.08042 0.87161 0.6345 0.0
C408 C 0.11413 0.87561 0.616 0.0
C409 C 0.12427 0.9088 0.59385 0.0
C410 C 0.16367 0.93733 0.60316 0.0
C411 C 0.12394 0.89721 0.55692 0.0
C412 C 0.09086 0.92273 0.60266 0.0
C413 C 0.06592 0.90088 0.62616 0.0
C414 C 0.03225 0.90747 0.63737 0.0
C415 C 0.02347 0.93678 0.62377 0.0
C416 C 0.04837 0.95927 0.59934 0.0
C417 C 0.08278 0.95237 0.58909 0.0
H418 H 0.73544 0.37809 0.94546 0.0
H419 H 0.77496 0.42971 0.8501 0.0
H420 H 0.83783 0.46477 0.87417 0.0
H421 H 0.78527 0.45633 0.99805 0.0
H422 H 0.79883 0.42971 0.0286 0.0
H423 H 0.75548 0.40917 1.00479 0.0
H424 H 0.78099 0.35678 0.9851 0.0
H425 H 0.82437 0.37708 1.00892 0.0
H426 H 0.82833 0.36805 0.96498 0.0
H427 H 0.89627 0.49489 0.90744 0.0
H428 H 0.94899 0.51629 0.94718 0.0
H429 H 0.87647 0.44353 1.02183 0.0
C430 C 0.75727 0.39656 0.92946 0.0
C431 C 0.74918 0.40131 0.8957 0.0
C432 C 0.77915 0.42609 0.87613 0.0
C433 C 0.81542 0.44604 0.88954 0.0
C434 C 0.82214 0.44086 0.92265 0.0
C435 C 0.7942 0.41654 0.9424 0.0
C436 C 0.80999 0.41568 0.97705 0.0
C437 C 0.78596 0.42849 1.0037 0.0
C438 C 0.81097 0.3771 0.98445 0.0
C439 C 0.85112 0.44337 0.97355 0.0
C440 C 0.85704 0.45757 0.9419 0.0
C441 C 0.89202 0.48386 0.93226 0.0
C442 C 0.92194 0.49593 0.95531 0.0
C443 C 0.9174 0.48178 0.988 0.0
C444 C 0.88119 0.45496 0.99716 0.0
H445 H 0.75748 0.69244 0.39694 0.0
H446 H 0.80139 0.60293 0.37279 0.0
H447 H 0.74505 0.55997 0.40287 0.0
H448 H 0.73085 0.66797 0.4782 0.0
H449 H 0.68759 0.68091 0.47961 0.0
H450 H 0.72722 0.70344 0.45149 0.0
H451 H 0.68081 0.68552 0.40153 0.0
H452 H 0.64076 0.66354 0.42959 0.0
H453 H 0.65171 0.63799 0.39472 0.0
H454 H 0.68882 0.52875 0.44157 0.0
H455 H 0.63391 0.51015 0.48202 0.0
H456 H 0.62798 0.62083 0.4825 0.0
C457 C 0.75475 0.66361 0.39729 0.0
C458 C 0.78379 0.65101 0.38241 0.0
C459 C 0.7792 0.61311 0.38347 0.0
C460 C 0.74747 0.58858 0.40078 0.0
C461 C 0.72052 0.60237 0.41666 0.0
C462 C 0.72352 0.63892 0.41463 0.0
C463 C 0.69238 0.64744 0.43585 0.0
C464 C 0.71062 0.67666 0.46288 0.0
C465 C 0.66477 0.65931 0.41412 0.0
C466 C 0.67196 0.61019 0.45086 0.0
C467 C 0.68846 0.58452 0.43931 0.0
C468 C 0.67541 0.5485 0.4505 0.0
C469 C 0.64432 0.53831 0.47369 0.0
C470 C 0.62658 0.56406 0.48557 0.0
C471 C 0.64086 0.6005 0.474 0.0
H472 H 0.29139 0.33809 0.08653 0.0
H473 H 0.31412 0.36588 0.19095 0.0
H474 H 0.25115 0.37654 0.19743 0.0
H475 H 0.24507 0.40557 0.07144 0.0
H476 H 0.20982 0.37585 0.04359 0.0
H477 H 0.2568 0.37047 0.04724 0.0
H478 H 0.22306 0.30192 0.06192 0.0
H479 H 0.17597 0.30719 0.05858 0.0
H480 H 0.18863 0.29021 0.09639 0.0
H481 H 0.18549 0.38375 0.19274 0.0
H482 H 0.12334 0.39035 0.17638 0.0
H483 H 0.14287 0.35728 0.07519 0.0
C484 C 0.28314 0.34665 0.11067 0.0
C485 C 0.30753 0.35108 0.13821 0.0
C486 C 0.29585 0.3622 0.16949 0.0
C487 C 0.26008 0.36827 0.17345 0.0
C488 C 0.23641 0.36317 0.14591 0.0
C489 C 0.24752 0.35284 0.11507 0.0
C490 C 0.21679 0.34952 0.08947 0.0
C491 C 0.2331 0.37699 0.06128 0.0
C492 C 0.20013 0.30985 0.07579 0.0
C493 C 0.18679 0.35978 0.1107 0.0
C494 C 0.19856 0.36734 0.14322 0.0
C495 C 0.17587 0.37776 0.16737 0.0
C496 C 0.14045 0.38112 0.15791 0.0
C497 C 0.12814 0.37418 0.12455 0.0
C498 C 0.15157 0.36297 0.10084 0.0
H499 H 0.64441 0.29685 0.93893 0.0
H500 H 0.61474 0.26194 0.83676 0.0
H501 H 0.58397 0.19796 0.85532 0.0
H502 H 0.66939 0.21829 0.96169 0.0
H503 H 0.64929 0.21629 1.00337 0.0
H504 H 0.6674 0.25966 0.98248 0.0
H505 H 0.60074 0.26912 0.99201 0.0
H506 H 0.58248 0.22586 1.01308 0.0
H507 H 0.55704 0.23411 0.97798 0.0
H508 H 0.55864 0.1368 0.88478 0.0
H509 H 0.53804 0.08425 0.92246 0.0
H510 H 0.58451 0.15777 1.00618 0.0
C511 C 0.63155 0.27585 0.92029 0.0
C512 C 0.6323 0.28498 0.8861 0.0
C513 C 0.61434 0.25627 0.86301 0.0
C514 C 0.597 0.21962 0.87335 0.0
C515 C 0.59752 0.21167 0.90701 0.0
C516 C 0.61412 0.23904 0.9302 0.0
C517 C 0.61103 0.22307 0.96487 0.0
C518 C 0.6517 0.22973 0.97893 0.0
C519 C 0.58635 0.23899 0.98837 0.0
C520 C 0.59028 0.18234 0.9576 0.0
C521 C 0.58284 0.17646 0.92401 0.0
C522 C 0.56426 0.14123 0.9111 0.0
C523 C 0.55269 0.11138 0.93289 0.0
C524 C 0.55949 0.11639 0.96759 0.0
C525 C 0.5788 0.15265 0.97992 0.0
H526 H 0.92392 0.80423 0.3729 0.0
H527 H 0.87286 0.72861 0.45296 0.0
H528 H 0.89274 0.77977 0.4936 0.0
H529 H 1.00898 0.86134 0.42214 0.0
H530 H 1.0099 0.90336 0.40301 0.0
H531 H 0.99305 0.86041 0.38 0.0
H532 H 0.92824 0.87174 0.3691 0.0
H533 H 0.94459 0.91439 0.39253 0.0
H534 H 0.8993 0.87944 0.40386 0.0
H535 H 0.91001 0.83943 0.52475 0.0
H536 H 0.93508 0.90358 0.54623 0.0
H537 H 0.98204 0.94054 0.44814 0.0
C538 C 0.91773 0.79833 0.39903 0.0
C539 C 0.8958 0.76244 0.40952 0.0
C540 C 0.88842 0.75598 0.44406 0.0
C541 C 0.89979 0.78484 0.46746 0.0
C542 C 0.91963 0.82005 0.45621 0.0
C543 C 0.92966 0.82687 0.423 0.0
C544 C 0.95156 0.86749 0.41789 0.0
C545 C 0.99336 0.8735 0.405 0.0
C546 C 0.9296 0.88424 0.39445 0.0
C547 C 0.95123 0.88234 0.45322 0.0
C548 C 0.9322 0.85446 0.47481 0.0
C549 C 0.92565 0.86146 0.50827 0.0
C550 C 0.93963 0.8979 0.52017 0.0
C551 C 0.96049 0.92667 0.49882 0.0
C552 C 0.96644 0.91881 0.46496 0.0
H553 H 0.24726 0.68099 0.68918 0.0
H554 H 0.25425 0.77282 0.62635 0.0
H555 H 0.31093 0.76456 0.59622 0.0
H556 H 0.34669 0.70422 0.70016 0.0
H557 H 0.34746 0.65771 0.69978 0.0
H558 H 0.30399 0.667 0.71307 0.0
H559 H 0.26412 0.62064 0.66881 0.0
H560 H 0.30741 0.61079 0.65566 0.0
H561 H 0.28004 0.62561 0.6258 0.0
H562 H 0.37119 0.7506 0.57716 0.0
H563 H 0.4286 0.73035 0.56921 0.0
H564 H 0.38253 0.64858 0.64539 0.0
C565 C 0.26029 0.69898 0.6687 0.0
C566 C 0.24619 0.72744 0.66003 0.0
C567 C 0.26406 0.7504 0.63307 0.0
C568 C 0.29645 0.74608 0.61596 0.0
C569 C 0.31045 0.71859 0.626 0.0
C570 C 0.29268 0.69518 0.65154 0.0
C571 C 0.31489 0.66952 0.6591 0.0
C572 C 0.32909 0.67496 0.69516 0.0
C573 C 0.29014 0.62926 0.6519 0.0
C574 C 0.34855 0.68281 0.63443 0.0
C575 C 0.34532 0.71086 0.61533 0.0
C576 C 0.37376 0.72833 0.59167 0.0
C577 C 0.40622 0.71664 0.58732 0.0
C578 C 0.41007 0.68795 0.60671 0.0
C579 C 0.38067 0.67086 0.63045 0.0
H580 H 0.68822 0.82871 0.80884 0.0
H581 H 0.77072 0.77737 0.84049 0.0
H582 H 0.8118 0.8008 0.79103 0.0
H583 H 0.70145 0.8178 0.71818 0.0
H584 H 0.69853 0.86247 0.70977 0.0
H585 H 0.67232 0.83704 0.74498 0.0
H586 H 0.7064 0.89225 0.78409 0.0
H587 H 0.73269 0.9178 0.74908 0.0
H588 H 0.75889 0.91063 0.78413 0.0
H589 H 0.84742 0.83468 0.74171 0.0
H590 H 0.87609 0.87848 0.6969 0.0
H591 H 0.77191 0.90964 0.69769 0.0
C592 C 0.71469 0.82202 0.80525 0.0
C593 C 0.72573 0.80062 0.82849 0.0
C594 C 0.76079 0.79269 0.82272 0.0
C595 C 0.78457 0.8061 0.79472 0.0
C596 C 0.7731 0.82754 0.77269 0.0
C597 C 0.73903 0.83552 0.7776 0.0
C598 C 0.73522 0.86193 0.75177 0.0
C599 C 0.69977 0.84371 0.72988 0.0
C600 C 0.7332 0.89777 0.76826 0.0
C601 C 0.77304 0.86837 0.73223 0.0
C602 C 0.79414 0.84779 0.74439 0.0
C603 C 0.83093 0.85051 0.73158 0.0
C604 C 0.84688 0.87534 0.70598 0.0
C605 C 0.82617 0.89735 0.69358 0.0
C606 C 0.78849 0.89325 0.70663 0.0
H607 H 0.76257 0.29303 0.30125 0.0
H608 H 0.87608 0.30359 0.25772 0.0
H609 H 0.84513 0.27932 0.20406 0.0
H610 H 0.71479 0.21009 0.26768 0.0
H611 H 0.66952 0.21794 0.26075 0.0
H612 H 0.70102 0.24329 0.29297 0.0
H613 H 0.70312 0.30474 0.26706 0.0
H614 H 0.67124 0.27952 0.23472 0.0
H615 H 0.71753 0.31335 0.22397 0.0
H616 H 0.80092 0.24522 0.1585 0.0
H617 H 0.74776 0.20196 0.12619 0.0
H618 H 0.66336 0.21442 0.19977 0.0
C619 C 0.78117 0.2918 0.28006 0.0
C620 C 0.82179 0.30075 0.28344 0.0
C621 C 0.84491 0.29708 0.25554 0.0
C622 C 0.82761 0.28359 0.22495 0.0
C623 C 0.78724 0.27412 0.22274 0.0
C624 C 0.76438 0.27829 0.24958 0.0
C625 C 0.72142 0.26169 0.24242 0.0
C626 C 0.7005 0.23147 0.26742 0.0
C627 C 0.70221 0.29162 0.24201 0.0
C628 C 0.72355 0.2458 0.20795 0.0
C629 C 0.7617 0.254 0.19664 0.0
C630 C 0.77094 0.23936 0.16675 0.0
C631 C 0.74052 0.2149 0.14849 0.0
C632 C 0.70145 0.20501 0.16045 0.0
C633 C 0.69295 0.22165 0.18999 0.0
H634 H 0.41176 0.57746 0.30338 0.0
H635 H 0.42462 0.6894 0.33421 0.0
H636 H 0.4467 0.67801 0.38932 0.0
H637 H 0.37748 0.53447 0.38214 0.0
H638 H 0.40421 0.50268 0.3785 0.0
H639 H 0.38916 0.51935 0.34162 0.0
H640 H 0.46056 0.5425 0.31967 0.0
H641 H 0.4758 0.52576 0.35641 0.0
H642 H 0.49784 0.57331 0.34523 0.0
H643 H 0.46452 0.65324 0.44251 0.0
H644 H 0.48218 0.61989 0.48728 0.0
H645 H 0.46259 0.52438 0.42197 0.0
C646 C 0.41939 0.59966 0.32171 0.0
C647 C 0.41631 0.63447 0.31422 0.0
C648 C 0.42674 0.66265 0.33901 0.0
C649 C 0.43923 0.65631 0.37053 0.0
C650 C 0.44173 0.62169 0.37711 0.0
C651 C 0.43257 0.59393 0.35321 0.0
C652 C 0.43866 0.55948 0.36645 0.0
C653 C 0.40008 0.52708 0.36722 0.0
C654 C 0.47008 0.54969 0.3457 0.0
C655 C 0.45251 0.57204 0.40162 0.0
C656 C 0.45357 0.60792 0.40727 0.0
C657 C 0.46403 0.62528 0.43811 0.0
C658 C 0.4739 0.60587 0.46362 0.0
C659 C 0.47401 0.56928 0.45862 0.0
C660 C 0.46316 0.55229 0.42686 0.0
H661 H 0.15274 0.48927 0.81181 0.0
H662 H 0.12527 0.37244 0.82781 0.0
H663 H 0.1037 0.3804 0.88532 0.0
H664 H 0.18624 0.52122 0.89593 0.0
H665 H 0.16396 0.55657 0.89749 0.0
H666 H 0.18014 0.54263 0.85815 0.0
H667 H 0.11097 0.52837 0.83486 0.0
H668 H 0.09466 0.5424 0.87405 0.0
H669 H 0.06971 0.49729 0.85681 0.0
H670 H 0.08347 0.39987 0.93988 0.0
H671 H 0.06094 0.42862 0.9878 0.0
H672 H 0.09863 0.53341 0.93754 0.0
C673 C 0.14252 0.46552 0.82763 0.0
C674 C 0.14075 0.43023 0.81542 0.0
C675 C 0.12675 0.39966 0.83658 0.0
C676 C 0.11464 0.40396 0.86937 0.0
C677 C 0.11646 0.43898 0.88062 0.0
C678 C 0.12973 0.46925 0.86044 0.0
C679 C 0.12623 0.50334 0.87833 0.0
C680 C 0.16655 0.53267 0.88274 0.0
C681 C 0.09876 0.51875 0.85991 0.0
C682 C 0.10857 0.48732 0.91157 0.0
C683 C 0.10372 0.45022 0.91229 0.0
C684 C 0.08715 0.42889 0.93966 0.0
C685 C 0.07436 0.44559 0.96679 0.0
C686 C 0.07783 0.48335 0.96654 0.0
C687 C 0.09588 0.50463 0.93868 0.0
H688 H 0.61457 0.83487 0.89132 0.0
H689 H 0.69315 0.83208 0.96936 0.0
H690 H 0.67336 0.8785 1.00193 0.0
H691 H 0.62797 0.93175 0.89739 0.0
H692 H 0.57751 0.92585 0.89059 0.0
H693 H 0.59856 0.89315 0.87292 0.0
H694 H 0.54484 0.84008 0.90211 0.0
H695 H 0.52355 0.87259 0.91976 0.0
H696 H 0.53741 0.8425 0.94652 0.0
H697 H 0.64693 0.92629 1.02495 0.0
H698 H 0.61084 0.96863 0.03986 0.0
H699 H 0.54596 0.93776 0.94865 0.0
C700 C 0.62751 0.84417 0.91527 0.0
C701 C 0.65533 0.83014 0.92799 0.0
C702 C 0.67159 0.8425 0.95944 0.0
C703 C 0.6607 0.86891 0.97797 0.0
C704 C 0.6332 0.88229 0.96479 0.0
C705 C 0.61642 0.87007 0.93438 0.0
C706 C 0.58648 0.88798 0.92659 0.0
C707 C 0.59835 0.91105 0.895 0.0
C708 C 0.54565 0.85906 0.92358 0.0
C709 C 0.58915 0.9122 0.95734 0.0
C710 C 0.61668 0.90883 0.9788 0.0
C711 C 0.62515 0.92905 1.00846 0.0
C712 C 0.60464 0.95315 1.01662 0.0
C713 C 0.57561 0.95639 0.99543 0.0
C714 C 0.56784 0.93563 0.9654 0.0
H715 H 0.88901 0.2243 0.46503 0.0
H716 H 0.93772 0.23057 0.36472 0.0
H717 H 0.96468 0.18154 0.37717 0.0
H718 H 0.96873 0.20849 0.50585 0.0
H719 H 0.9375 0.17719 0.53542 0.0
H720 H 0.92257 0.213 0.51845 0.0
H721 H 0.85854 0.16407 0.49854 0.0
H722 H 0.87346 0.1281 0.51522 0.0
H723 H 0.861 0.12641 0.47202 0.0
H724 H 0.98659 0.13171 0.40098 0.0
H725 H 1.00263 0.08614 0.43456 0.0
H726 H 0.93822 0.11219 0.51868 0.0
C727 C 0.90551 0.21542 0.44576 0.0
C728 C 0.91128 0.23115 0.41398 0.0
C729 C 0.9329 0.21885 0.38928 0.0
C730 C 0.94829 0.19098 0.3961 0.0
C731 C 0.94171 0.17575 0.42765 0.0
C732 C 0.92091 0.18762 0.4521 0.0
C733 C 0.91791 0.1668 0.48396 0.0
C734 C 0.93788 0.19293 0.5126 0.0
C735 C 0.87519 0.14506 0.49294 0.0
C736 C 0.94028 0.14137 0.47365 0.0
C737 C 0.95383 0.1469 0.44113 0.0
C738 C 0.97598 0.12704 0.42645 0.0
C739 C 0.98487 0.10116 0.4457 0.0
C740 C 0.9715 0.09534 0.47922 0.0
C741 C 0.94862 0.1156 0.49307 0.0
H742 H 0.27391 0.68295 0.17121 0.0
H743 H 0.31054 0.59033 0.19434 0.0
H744 H 0.25209 0.54826 0.16674 0.0
H745 H 0.1695 0.63653 0.18116 0.0
H746 H 0.15793 0.65997 0.1469 0.0
H747 H 0.20107 0.68204 0.17052 0.0
H748 H 0.24313 0.69121 0.1163 0.0
H749 H 0.20018 0.66895 0.09254 0.0
H750 H 0.24067 0.65189 0.09003 0.0
H751 H 0.19021 0.51637 0.13339 0.0
H752 H 0.13061 0.49793 0.09991 0.0
H753 H 0.13612 0.61202 0.09724 0.0
C754 C 0.2698 0.65382 0.17059 0.0
C755 C 0.2973 0.64019 0.18506 0.0
C756 C 0.28998 0.60166 0.18396 0.0
C757 C 0.2569 0.57751 0.16803 0.0
C758 C 0.2311 0.59211 0.15328 0.0
C759 C 0.23714 0.62943 0.15467 0.0
C760 C 0.20575 0.63849 0.13624 0.0
C761 C 0.18217 0.65524 0.16013 0.0
C762 C 0.2235 0.66415 0.10705 0.0
C763 C 0.18116 0.60052 0.12391 0.0
C764 C 0.19612 0.57404 0.13406 0.0
C765 C 0.17833 0.53698 0.12545 0.0
C766 C 0.14442 0.52675 0.10628 0.0
C767 C 0.12844 0.55341 0.09565 0.0
C768 C 0.14742 0.59081 0.1047 0.0
H769 H 0.24992 0.45573 0.67543 0.0
H770 H 0.25012 0.34371 0.682 0.0
H771 H 0.31361 0.36086 0.65245 0.0
H772 H 0.2891 0.47239 0.59552 0.0
H773 H 0.32016 0.51925 0.60243 0.0
H774 H 0.27688 0.50024 0.62785 0.0
H775 H 0.31782 0.51631 0.68113 0.0
H776 H 0.3612 0.53606 0.65589 0.0
H777 H 0.35884 0.50048 0.68487 0.0
H778 H 0.36978 0.38614 0.6149 0.0
H779 H 0.42407 0.42186 0.57853 0.0
H780 H 0.393 0.51981 0.59866 0.0
C781 C 0.26415 0.43532 0.6716 0.0
C782 C 0.24526 0.39838 0.68086 0.0
C783 C 0.2642 0.37209 0.67496 0.0
C784 C 0.30018 0.38154 0.65818 0.0
C785 C 0.31726 0.41761 0.64791 0.0
C786 C 0.30063 0.44447 0.65503 0.0
C787 C 0.32504 0.48083 0.63981 0.0
C788 C 0.30137 0.49393 0.61492 0.0
C789 C 0.34172 0.51015 0.66705 0.0
C790 C 0.35701 0.46966 0.62219 0.0
C791 C 0.35154 0.43294 0.62712 0.0
C792 C 0.37498 0.41512 0.61139 0.0
C793 C 0.40542 0.43551 0.5905 0.0
C794 C 0.41258 0.47344 0.58591 0.0
C795 C 0.3882 0.49085 0.60207 0.0
H796 H 0.76078 0.66262 0.88979 0.0
H797 H 0.72887 0.72007 0.97411 0.0
H798 H 0.7888 0.722 1.00238 0.0
H799 H 0.80235 0.6069 0.9373 0.0
H800 H 0.84082 0.60991 0.90711 0.0
H801 H 0.79501 0.61256 0.89392 0.0
H802 H 0.83148 0.67495 0.86619 0.0
H803 H 0.87737 0.67268 0.87965 0.0
H804 H 0.8632 0.7121 0.89076 0.0
H805 H 0.8526 0.71852 1.02113 0.0
H806 H 0.91459 0.7074 0.03006 0.0
H807 H 0.90475 0.65204 0.93365 0.0
C808 C 0.76632 0.67529 0.91433 0.0
C809 C 0.74028 0.69113 0.92978 0.0
C810 C 0.74846 0.70773 0.9618 0.0
C811 C 0.78246 0.70905 0.97803 0.0
C812 C 0.80789 0.69367 0.9619 0.0
C813 C 0.80015 0.67691 0.93086 0.0
C814 C 0.83232 0.66254 0.91896 0.0
C815 C 0.81668 0.62048 0.91405 0.0
C816 C 0.85226 0.68172 0.887 0.0
C817 C 0.85929 0.67377 0.9482 0.0
C818 C 0.84473 0.69178 0.97266 0.0
C819 C 0.86428 0.70439 1.00218 0.0
C820 C 0.89939 0.69789 1.00706 0.0
C821 C 0.91454 0.67895 0.98254 0.0
C822 C 0.89429 0.66714 0.95262 0.0
H823 H 0.422 0.80037 0.20847 0.0
H824 H 0.4016 0.72225 0.12562 0.0
H825 H 0.42332 0.77318 0.08642 0.0
H826 H 0.39082 0.86721 0.16961 0.0
H827 H 0.42814 0.90717 0.18588 0.0
H828 H 0.41302 0.86492 0.20861 0.0
H829 H 0.4842 0.86534 0.20871 0.0
H830 H 0.49961 0.90782 0.18627 0.0
H831 H 0.511 0.86856 0.16985 0.0
H832 H 0.43943 0.83119 0.0553 0.0
H833 H 0.45877 0.89415 0.03389 0.0
H834 H 0.47589 0.93832 0.13478 0.0
C835 C 0.42299 0.79407 0.18214 0.0
C836 C 0.40943 0.75688 0.17031 0.0
C837 C 0.41109 0.75017 0.1355 0.0
C838 C 0.42346 0.77904 0.11289 0.0
C839 C 0.43508 0.81511 0.12508 0.0
C840 C 0.43594 0.82299 0.15885 0.0
C841 C 0.45001 0.86472 0.16468 0.0
C842 C 0.41862 0.8767 0.18331 0.0
C843 C 0.4885 0.87736 0.1835 0.0
C844 C 0.45608 0.87871 0.12899 0.0
C845 C 0.44678 0.84931 0.10672 0.0
C846 C 0.44742 0.85444 0.07249 0.0
C847 C 0.45823 0.89041 0.06054 0.0
C848 C 0.46908 0.92135 0.08246 0.0
C849 C 0.4682 0.91531 0.1173 0.0
H850 H 0.10733 0.26616 0.70414 0.0
H851 H 0.11969 0.33889 0.62119 0.0
H852 H 0.0917 0.28526 0.5838 0.0
H853 H 0.13654 0.20082 0.66177 0.0
H854 H 0.10279 0.16086 0.68133 0.0
H855 H 0.11756 0.20452 0.70314 0.0
H856 H 0.0455 0.20073 0.71116 0.0
H857 H 0.03037 0.15663 0.6899 0.0
H858 H 0.0148 0.19324 0.67546 0.0
H859 H 0.07257 0.22499 0.5541 0.0
H860 H 0.05647 0.16072 0.53431 0.0
H861 H 0.05414 0.12532 0.63611 0.0
C862 C 0.10254 0.27065 0.67839 0.0
C863 C 0.11507 0.30657 0.66551 0.0
C864 C 0.10978 0.31155 0.63147 0.0
C865 C 0.09404 0.28128 0.61008 0.0
C866 C 0.08349 0.24614 0.62314 0.0
C867 C 0.08679 0.24055 0.65659 0.0
C868 C 0.07589 0.19977 0.66354 0.0
C869 C 0.11025 0.191 0.67831 0.0
C870 C 0.03947 0.18683 0.68637 0.0
C871 C 0.06727 0.18355 0.62866 0.0
C872 C 0.07179 0.21088 0.60582 0.0
C873 C 0.06825 0.20325 0.57179 0.0
C874 C 0.05948 0.16669 0.56076 0.0
C875 C 0.05405 0.13805 0.58366 0.0
C876 C 0.05774 0.14664 0.61809 0.0
H877 H 0.77045 0.30326 0.41049 0.0
H878 H 0.85273 0.40865 0.38226 0.0
H879 H 0.81039 0.44017 0.40961 0.0
H880 H 0.69006 0.32201 0.39008 0.0
H881 H 0.6583 0.29757 0.4232 0.0
H882 H 0.69878 0.2838 0.40921 0.0
H883 H 0.72514 0.29155 0.46906 0.0
H884 H 0.68429 0.30483 0.48348 0.0
H885 H 0.73331 0.33459 0.49132 0.0
H886 H 0.75496 0.45902 0.43152 0.0
H887 H 0.69088 0.46428 0.4467 0.0
H888 H 0.64293 0.34597 0.4581 0.0
C889 C 0.78026 0.33304 0.41166 0.0
C890 C 0.81517 0.35384 0.39542 0.0
C891 C 0.82652 0.39261 0.39556 0.0
C892 C 0.80263 0.4106 0.41093 0.0
C893 C 0.76752 0.38926 0.42578 0.0
C894 C 0.75648 0.35129 0.42651 0.0
C895 C 0.7151 0.33446 0.43979 0.0
C896 C 0.68905 0.30792 0.41402 0.0
C897 C 0.71443 0.31523 0.47288 0.0
C898 C 0.70395 0.3687 0.44499 0.0
C899 C 0.73483 0.40005 0.4374 0.0
C900 C 0.73076 0.43471 0.43799 0.0
C901 C 0.69413 0.43737 0.44628 0.0
C902 C 0.66186 0.40551 0.45344 0.0
C903 C 0.66717 0.37086 0.4533 0.0
loop_
_geom_bond_atom_site_label_1
_geom_bond_atom_site_label_2
_geom_bond_distance
_geom_bond_site_symmetry_2
_ccdc_geom_bond_type
H0 C5 0.930 . S
H1 C8 0.930 . S
H2 C10 0.930 . S
H3 C4 1.016 . S
C4 H3 1.016 . S
C4 N11 1.286 . S
C5 H0 0.930 . S
C5 C6 1.397 . S
C5 C7 1.361 . S
C6 C5 1.397 . S
C6 C10 1.390 . S
C7 C5 1.361 . S
C7 C8 1.393 . S
C7 N11 1.413 . S
C8 H1 0.930 . S
C8 C7 1.393 . S
C8 C9 1.399 . S
C9 C8 1.399 . S
C9 C10 1.381 . S
C10 H2 0.930 . S
C10 C6 1.390 . S
C10 C9 1.381 . S
N11 C4 1.286 . S
N11 C7 1.413 . S
H12 C17 0.930 . S
H13 C20 0.930 . S
H14 C22 0.930 . S
H15 C16 1.016 . S
C16 H15 1.016 . S
C16 N23 1.286 . S
C17 H12 0.930 . S
C17 C18 1.397 . S
C17 C19 1.361 . S
C18 C17 1.397 . S
C18 C22 1.390 . S
C19 C17 1.361 . S
C19 C20 1.393 . S
C19 N23 1.413 . S
C20 H13 0.930 . S
C20 C19 1.393 . S
C20 C21 1.399 . S
C21 C20 1.399 . S
C21 C22 1.381 . S
C22 H14 0.930 . S
C22 C18 1.390 . S
C22 C21 1.381 . S
N23 C16 1.286 . S
N23 C19 1.413 . S
H24 C29 0.930 . S
H25 C32 0.930 . S
H26 C34 0.930 . S
H27 C28 1.016 . S
C28 H27 1.016 . S
C28 N35 1.286 . S
C29 H24 0.930 . S
C29 C30 1.397 . S
C29 C31 1.361 . S
C30 C29 1.397 . S
C30 C34 1.390 . S
C31 C29 1.361 . S
C31 C32 1.393 . S
C31 N35 1.413 . S
C32 H25 0.930 . S
C32 C31 1.393 . S
C32 C33 1.399 . S
C33 C32 1.399 . S
C33 C34 1.381 . S
C34 H26 0.930 . S
C34 C30 1.390 . S
C34 C33 1.381 . S
N35 C28 1.286 . S
N35 C31 1.413 . S
H36 C41 0.930 . S
H37 C44 0.930 . S
H38 C46 0.930 . S
H39 C40 1.016 . S
C40 H39 1.016 . S
C40 N47 1.286 . S
C41 H36 0.930 . S
C41 C42 1.397 . S
C41 C43 1.361 . S
C42 C41 1.397 . S
C42 C46 1.390 . S
C43 C41 1.361 . S
C43 C44 1.393 . S
C43 N47 1.413 . S
C44 H37 0.930 . S
C44 C43 1.393 . S
C44 C45 1.399 . S
C45 C44 1.399 . S
C45 C46 1.381 . S
C46 H38 0.930 . S
C46 C42 1.390 . S
C46 C45 1.381 . S
N47 C40 1.286 . S
N47 C43 1.413 . S
H48 C53 0.930 . S
H49 C56 0.930 . S
H50 C58 0.930 . S
H51 C52 1.016 . S
C52 H51 1.016 . S
C52 N59 1.286 . S
C53 H48 0.930 . S
C53 C54 1.397 . S
C53 C55 1.361 . S
C54 C53 1.397 . S
C54 C58 1.390 . S
C55 C53 1.361 . S
C55 C56 1.393 . S
C55 N59 1.413 . S
C56 H49 0.930 . S
C56 C55 1.393 . S
C56 C57 1.399 . S
C57 C56 1.399 . S
C57 C58 1.381 . S
C58 H50 0.930 . S
C58 C54 1.390 . S
C58 C57 1.381 . S
N59 C52 1.286 . S
N59 C55 1.413 . S
H60 C65 0.930 . S
H61 C68 0.930 . S
H62 C70 0.930 . S
H63 C64 1.016 . S
C64 H63 1.016 . S
C64 N71 1.286 . S
C65 H60 0.930 . S
C65 C66 1.397 . S
C65 C67 1.361 . S
C66 C65 1.397 . S
C66 C70 1.390 . S
C67 C65 1.361 . S
C67 C68 1.393 . S
C67 N71 1.413 . S
C68 H61 0.930 . S
C68 C67 1.393 . S
C68 C69 1.399 . S
C69 C68 1.399 . S
C69 C70 1.381 . S
C70 H62 0.930 . S
C70 C66 1.390 . S
C70 C69 1.381 . S
N71 C64 1.286 . S
N71 C67 1.413 . S
H72 C77 0.930 . S
H73 C80 0.930 . S
H74 C82 0.930 . S
H75 C76 1.016 . S
C76 H75 1.016 . S
C76 N83 1.286 . S
C77 H72 0.930 . S
C77 C78 1.397 . S
C77 C79 1.361 . S
C78 C77 1.397 . S
C78 C82 1.390 . S
C79 C77 1.361 . S
C79 C80 1.393 . S
C79 N83 1.413 . S
C80 H73 0.930 . S
C80 C79 1.393 . S
C80 C81 1.399 . S
C81 C80 1.399 . S
C81 C82 1.381 . S
C82 H74 0.930 . S
C82 C78 1.390 . S
C82 C81 1.381 . S
N83 C76 1.286 . S
N83 C79 1.413 . S
H84 C89 0.930 . S
H85 C92 0.930 . S
H86 C94 0.930 . S
H87 C88 1.016 . S
C88 H87 1.016 . S
C88 N95 1.286 . S
C89 H84 0.930 . S
C89 C90 1.397 . S
C89 C91 1.361 . S
C90 C89 1.397 . S
C90 C94 1.390 . S
C91 C89 1.361 . S
C91 C92 1.393 . S
C91 N95 1.413 . S
C92 H85 0.930 . S
C92 C91 1.393 . S
C92 C93 1.399 . S
C93 C92 1.399 . S
C93 C94 1.381 . S
C94 H86 0.930 . S
C94 C90 1.390 . S
C94 C93 1.381 . S
N95 C88 1.286 . S
N95 C91 1.413 . S
Dy96 O99 2.307 1_545 S
Dy96 O101 2.395 . S
Dy96 O102 2.379 . S
Dy96 O104 2.339 1_545 S
Dy96 O106 2.318 . S
Dy96 O110 2.275 . S
Dy96 C118 2.738 . S
Dy97 O100 2.304 . S
Dy97 O103 2.275 . S
Dy97 O105 2.307 1_565 S
Dy97 O107 2.395 . S
Dy97 O108 2.379 . S
Dy97 O111 2.339 1_565 S
Dy97 C127 2.738 . S
C98 O110 1.254 . S
C98 O111 1.257 1_455 S
O99 Dy96 2.307 1_565 S
O99 C109 1.266 . S
O100 Dy97 2.304 . S
O100 C109 1.230 1_655 S
O101 Dy96 2.395 . S
O101 C118 1.255 . S
O102 Dy96 2.379 . S
O102 C118 1.249 . S
O103 Dy97 2.275 . S
O103 C119 1.254 . S
O104 Dy96 2.339 1_565 S
O104 C119 1.257 1_455 S
O105 Dy97 2.307 1_545 S
O105 C120 1.266 . S
O106 Dy96 2.318 . S
O106 C120 1.216 1_455 S
O107 Dy97 2.395 . S
O107 C127 1.255 . S
O108 Dy97 2.379 . S
O108 C127 1.249 . S
C109 O99 1.266 . S
C109 O100 1.230 1_455 S
O110 Dy96 2.275 . S
O110 C98 1.254 . S
O111 Dy97 2.339 1_545 S
O111 C98 1.257 1_655 S
C112 C115 1.344 . S
C112 C116 1.328 . S
C112 C118 1.516 . S
C113 C114 1.304 . S
C113 C117 1.323 . S
C114 C113 1.304 . S
C114 C115 1.371 . S
C114 H128 0.930 . S
C115 C112 1.344 . S
C115 C114 1.371 . S
C115 H129 0.931 . S
C116 C112 1.328 . S
C116 C117 1.433 . S
C116 H130 0.931 . S
C117 C113 1.323 . S
C117 C116 1.433 . S
C117 H131 0.933 . S
C118 Dy96 2.738 . S
C118 O101 1.255 . S
C118 O102 1.249 . S
C118 C112 1.516 . S
C119 O103 1.254 . S
C119 O104 1.257 1_655 S
C120 O105 1.266 . S
C120 O106 1.216 1_655 S
C121 C124 1.344 . S
C121 C125 1.328 . S
C121 C127 1.516 . S
C122 C123 1.304 . S
C122 C126 1.323 . S
C123 C122 1.304 . S
C123 C124 1.371 . S
C123 H132 0.930 . S
C124 C121 1.344 . S
C124 C123 1.371 . S
C124 H133 0.931 . S
C125 C121 1.328 . S
C125 C126 1.433 . S
C125 H134 0.931 . S
C126 C122 1.323 . S
C126 C125 1.433 . S
C126 H135 0.933 . S
C127 Dy97 2.738 . S
C127 O107 1.255 . S
C127 O108 1.249 . S
C127 C121 1.516 . S
H128 C114 0.930 . S
H129 C115 0.931 . S
H130 C116 0.931 . S
H131 C117 0.933 . S
H132 C123 0.930 . S
H133 C124 0.931 . S
H134 C125 0.931 . S
H135 C126 0.933 . S
Dy136 O139 2.307 1_556 S
Dy136 O141 2.395 1_545 S
Dy136 O142 2.379 1_545 S
Dy136 O144 2.339 . S
Dy136 O146 2.298 1_545 S
Dy136 O150 2.275 1_546 S
Dy136 C158 2.738 1_545 S
Dy137 O140 2.298 . S
Dy137 O143 2.275 1_554 S
Dy137 O145 2.307 1_544 S
Dy137 O147 2.395 . S
Dy137 O148 2.379 . S
Dy137 O151 2.339 1_545 S
Dy137 C167 2.738 . S
C138 O150 1.254 . S
C138 O151 1.257 . S
O139 Dy136 2.307 1_554 S
O139 C149 1.266 . S
O140 Dy137 2.298 . S
O140 C149 1.236 . S
O141 Dy136 2.395 1_565 S
O141 C158 1.255 . S
O142 Dy136 2.379 1_565 S
O142 C158 1.249 . S
O143 Dy137 2.275 1_556 S
O143 C159 1.254 . S
O144 Dy136 2.339 . S
O144 C159 1.257 . S
O145 Dy137 2.307 1_566 S
O145 C160 1.266 . S
O146 Dy136 2.298 1_565 S
O146 C160 1.236 . S
O147 Dy137 2.395 . S
O147 C167 1.255 . S
O148 Dy137 2.379 . S
O148 C167 1.249 . S
C149 O139 1.266 . S
C149 O140 1.236 . S
O150 Dy136 2.275 1_564 S
O150 C138 1.254 . S
O151 Dy137 2.339 1_565 S
O151 C138 1.257 . S
C152 C155 1.344 . S
C152 C156 1.328 . S
C152 C158 1.516 . S
C153 C154 1.304 . S
C153 C157 1.323 . S
C154 C153 1.304 . S
C154 C155 1.371 . S
C154 H168 0.930 . S
C155 C152 1.344 . S
C155 C154 1.371 . S
C155 H169 0.931 . S
C156 C152 1.328 . S
C156 C157 1.433 . S
C156 H170 0.931 . S
C157 C153 1.323 . S
C157 C156 1.433 . S
C157 H171 0.933 . S
C158 Dy136 2.738 1_565 S
C158 O141 1.255 . S
C158 O142 1.249 . S
C158 C152 1.516 . S
C159 O143 1.254 . S
C159 O144 1.257 . S
C160 O145 1.266 . S
C160 O146 1.236 . S
C161 C164 1.344 . S
C161 C165 1.328 . S
C161 C167 1.516 . S
C162 C163 1.304 . S
C162 C166 1.323 . S
C163 C162 1.304 . S
C163 C164 1.371 . S
C163 H172 0.930 . S
C164 C161 1.344 . S
C164 C163 1.371 . S
C164 H173 0.931 . S
C165 C161 1.328 . S
C165 C166 1.433 . S
C165 H174 0.931 . S
C166 C162 1.323 . S
C166 C165 1.433 . S
C166 H175 0.933 . S
C167 Dy137 2.738 . S
C167 O147 1.255 . S
C167 O148 1.249 . S
C167 C161 1.516 . S
H168 C154 0.930 . S
H169 C155 0.931 . S
H170 C156 0.931 . S
H171 C157 0.933 . S
H172 C163 0.930 . S
H173 C164 0.931 . S
H174 C165 0.931 . S
H175 C166 0.933 . S
Dy176 O179 2.307 . S
Dy176 O181 2.395 . S
Dy176 O182 2.379 . S
Dy176 O184 2.339 . S
Dy176 O186 2.298 . S
Dy176 O190 2.275 . S
Dy176 C198 2.738 . S
Dy177 O180 2.298 . S
Dy177 O183 2.275 . S
Dy177 O185 2.307 . S
Dy177 O187 2.395 . S
Dy177 O188 2.379 . S
Dy177 O191 2.339 . S
Dy177 C207 2.738 . S
C178 O190 1.254 . S
C178 O191 1.257 . S
O179 Dy176 2.307 . S
O179 C189 1.266 . S
O180 Dy177 2.298 . S
O180 C189 1.236 . S
O181 Dy176 2.395 . S
O181 C198 1.255 . S
O182 Dy176 2.379 . S
O182 C198 1.249 . S
O183 Dy177 2.275 . S
O183 C199 1.254 . S
O184 Dy176 2.339 . S
O184 C199 1.257 . S
O185 Dy177 2.307 . S
O185 C200 1.266 . S
O186 Dy176 2.298 . S
O186 C200 1.236 . S
O187 Dy177 2.395 . S
O187 C207 1.255 . S
O188 Dy177 2.379 . S
O188 C207 1.249 . S
C189 O179 1.266 . S
C189 O180 1.236 . S
O190 Dy176 2.275 . S
O190 C178 1.254 . S
O191 Dy177 2.339 . S
O191 C178 1.257 . S
C192 C195 1.344 . S
C192 C196 1.328 . S
C192 C198 1.516 . S
C193 C194 1.304 . S
C193 C197 1.323 . S
C194 C193 1.304 . S
C194 C195 1.371 . S
C194 H208 0.930 . S
C195 C192 1.344 . S
C195 C194 1.371 . S
C195 H209 0.931 . S
C196 C192 1.328 . S
C196 C197 1.433 . S
C196 H210 0.931 . S
C197 C193 1.323 . S
C197 C196 1.433 . S
C197 H211 0.933 . S
C198 Dy176 2.738 . S
C198 O181 1.255 . S
C198 O182 1.249 . S
C198 C192 1.516 . S
C199 O183 1.254 . S
C199 O184 1.257 . S
C200 O185 1.266 . S
C200 O186 1.236 . S
C201 C204 1.344 . S
C201 C205 1.328 . S
C201 C207 1.516 . S
C202 C203 1.304 . S
C202 C206 1.323 . S
C203 C202 1.304 . S
C203 C204 1.371 . S
C203 H212 0.930 . S
C204 C201 1.344 . S
C204 C203 1.371 . S
C204 H213 0.931 . S
C205 C201 1.328 . S
C205 C206 1.433 . S
C205 H214 0.931 . S
C206 C202 1.323 . S
C206 C205 1.433 . S
C206 H215 0.933 . S
C207 Dy177 2.738 . S
C207 O187 1.255 . S
C207 O188 1.249 . S
C207 C201 1.516 . S
H208 C194 0.930 . S
H209 C195 0.931 . S
H210 C196 0.931 . S
H211 C197 0.933 . S
H212 C203 0.930 . S
H213 C204 0.931 . S
H214 C205 0.931 . S
H215 C206 0.933 . S
Dy216 O219 2.307 1_556 S
Dy216 O221 2.395 1_455 S
Dy216 O222 2.379 1_455 S
Dy216 O224 2.339 . S
Dy216 O226 2.298 1_455 S
Dy216 O230 2.275 1_456 S
Dy216 C238 2.738 1_455 S
Dy217 O220 2.298 . S
Dy217 O223 2.275 1_554 S
Dy217 O225 2.307 1_455 S
Dy217 O227 2.395 . S
Dy217 O228 2.379 . S
Dy217 O231 2.339 1_455 S
Dy217 C247 2.738 . S
C218 O230 1.254 . S
C218 O231 1.257 . S
O219 Dy216 2.307 1_554 S
O219 C229 1.266 . S
O220 Dy217 2.298 . S
O220 C229 1.236 . S
O221 Dy216 2.395 1_655 S
O221 C238 1.255 . S
O222 Dy216 2.379 1_655 S
O222 C238 1.249 . S
O223 Dy217 2.275 1_556 S
O223 C239 1.254 . S
O224 Dy216 2.339 . S
O224 C239 1.257 . S
O225 Dy217 2.307 1_655 S
O225 C240 1.266 1_554 S
O226 Dy216 2.298 1_655 S
O226 C240 1.236 . S
O227 Dy217 2.395 . S
O227 C247 1.255 . S
O228 Dy217 2.379 . S
O228 C247 1.249 . S
C229 O219 1.266 . S
C229 O220 1.236 . S
O230 Dy216 2.275 1_654 S
O230 C218 1.254 . S
O231 Dy217 2.339 1_655 S
O231 C218 1.257 . S
C232 C235 1.344 . S
C232 C236 1.328 . S
C232 C238 1.516 . S
C233 C234 1.304 . S
C233 C237 1.323 . S
C234 C233 1.304 . S
C234 C235 1.371 . S
C234 H248 0.930 . S
C235 C232 1.344 . S
C235 C234 1.371 . S
C235 H249 0.931 . S
C236 C232 1.328 . S
C236 C237 1.433 . S
C236 H250 0.931 . S
C237 C233 1.323 . S
C237 C236 1.433 . S
C237 H251 0.933 . S
C238 Dy216 2.738 1_655 S
C238 O221 1.255 . S
C238 O222 1.249 . S
C238 C232 1.516 . S
C239 O223 1.254 . S
C239 O224 1.257 . S
C240 O225 1.266 1_556 S
C240 O226 1.236 . S
C241 C244 1.344 . S
C241 C245 1.328 . S
C241 C247 1.516 . S
C242 C243 1.304 . S
C242 C246 1.323 . S
C243 C242 1.304 . S
C243 C244 1.371 . S
C243 H252 0.930 . S
C244 C241 1.344 . S
C244 C243 1.371 . S
C244 H253 0.931 . S
C245 C241 1.328 . S
C245 C246 1.433 . S
C245 H254 0.931 . S
C246 C242 1.323 . S
C246 C245 1.433 . S
C246 H255 0.933 . S
C247 Dy217 2.738 . S
C247 O227 1.255 . S
C247 O228 1.249 . S
C247 C241 1.516 . S
H248 C234 0.930 . S
H249 C235 0.931 . S
H250 C236 0.931 . S
H251 C237 0.933 . S
H252 C243 0.930 . S
H253 C244 0.931 . S
H254 C245 0.931 . S
H255 C246 0.933 . S
H256 C268 0.930 . S
H257 C270 0.930 . S
H258 C271 0.930 . S
H259 C275 0.959 . S
H260 C275 0.959 . S
H261 C275 0.961 . S
H262 C276 0.960 . S
H263 C276 0.961 . S
H264 C276 0.959 . S
H265 C279 0.929 . S
H266 C280 0.931 . S
H267 C282 0.930 . S
C268 H256 0.930 . S
C268 C269 1.399 . S
C268 C273 1.399 . S
C269 C268 1.399 . S
C269 C270 1.376 . S
C270 H257 0.930 . S
C270 C269 1.376 . S
C270 C271 1.388 . S
C271 H258 0.930 . S
C271 C270 1.388 . S
C271 C272 1.390 . S
C272 C271 1.390 . S
C272 C273 1.394 . S
C272 C278 1.465 . S
C273 C268 1.399 . S
C273 C272 1.394 . S
C273 C274 1.516 . S
C274 C273 1.516 . S
C274 C275 1.502 . S
C274 C276 1.561 . S
C274 C277 1.526 . S
C275 H259 0.959 . S
C275 H260 0.959 . S
C275 H261 0.961 . S
C275 C274 1.502 . S
C276 H262 0.960 . S
C276 H263 0.961 . S
C276 H264 0.959 . S
C276 C274 1.561 . S
C277 C274 1.526 . S
C277 C278 1.396 . S
C277 C282 1.390 . S
C278 C272 1.465 . S
C278 C277 1.396 . S
C278 C279 1.399 . S
C279 H265 0.929 . S
C279 C278 1.399 . S
C279 C280 1.385 . S
C280 H266 0.931 . S
C280 C279 1.385 . S
C280 C281 1.389 . S
C281 C280 1.389 . S
C281 C282 1.387 . S
C282 H267 0.930 . S
C282 C277 1.390 . S
C282 C281 1.387 . S
H283 C295 0.930 . S
H284 C297 0.930 . S
H285 C298 0.930 . S
H286 C302 0.959 . S
H287 C302 0.959 . S
H288 C302 0.961 . S
H289 C303 0.960 . S
H290 C303 0.961 . S
H291 C303 0.959 . S
H292 C306 0.929 . S
H293 C307 0.931 . S
H294 C309 0.930 . S
C295 H283 0.930 . S
C295 C296 1.399 . S
C295 C300 1.399 . S
C296 C295 1.399 . S
C296 C297 1.376 . S
C297 H284 0.930 . S
C297 C296 1.376 . S
C297 C298 1.388 . S
C298 H285 0.930 . S
C298 C297 1.388 . S
C298 C299 1.390 . S
C299 C298 1.390 . S
C299 C300 1.394 . S
C299 C305 1.465 . S
C300 C295 1.399 . S
C300 C299 1.394 . S
C300 C301 1.516 . S
C301 C300 1.516 . S
C301 C302 1.502 . S
C301 C303 1.561 . S
C301 C304 1.526 . S
C302 H286 0.959 . S
C302 H287 0.959 . S
C302 H288 0.961 . S
C302 C301 1.502 . S
C303 H289 0.960 . S
C303 H290 0.961 . S
C303 H291 0.959 . S
C303 C301 1.561 . S
C304 C301 1.526 . S
C304 C305 1.396 . S
C304 C309 1.390 . S
C305 C299 1.465 . S
C305 C304 1.396 . S
C305 C306 1.399 . S
C306 H292 0.929 . S
C306 C305 1.399 . S
C306 C307 1.385 . S
C307 H293 0.931 . S
C307 C306 1.385 . S
C307 C308 1.389 . S
C308 C307 1.389 . S
C308 C309 1.387 . S
C309 H294 0.930 . S
C309 C304 1.390 . S
C309 C308 1.387 . S
H310 C322 0.930 . S
H311 C324 0.930 . S
H312 C325 0.930 . S
H313 C329 0.959 . S
H314 C329 0.959 . S
H315 C329 0.961 . S
H316 C330 0.960 . S
H317 C330 0.961 . S
H318 C330 0.959 . S
H319 C333 0.929 . S
H320 C334 0.931 . S
H321 C336 0.930 . S
C322 H310 0.930 . S
C322 C323 1.399 . S
C322 C327 1.399 . S
C323 C322 1.399 . S
C323 C324 1.376 . S
C324 H311 0.930 . S
C324 C323 1.376 . S
C324 C325 1.388 . S
C325 H312 0.930 . S
C325 C324 1.388 . S
C325 C326 1.390 . S
C326 C325 1.390 . S
C326 C327 1.394 . S
C326 C332 1.465 . S
C327 C322 1.399 . S
C327 C326 1.394 . S
C327 C328 1.516 . S
C328 C327 1.516 . S
C328 C329 1.502 . S
C328 C330 1.561 . S
C328 C331 1.526 . S
C329 H313 0.959 . S
C329 H314 0.959 . S
C329 H315 0.961 . S
C329 C328 1.502 . S
C330 H316 0.960 . S
C330 H317 0.961 . S
C330 H318 0.959 . S
C330 C328 1.561 . S
C331 C328 1.526 . S
C331 C332 1.396 . S
C331 C336 1.390 . S
C332 C326 1.465 . S
C332 C331 1.396 . S
C332 C333 1.399 . S
C333 H319 0.929 . S
C333 C332 1.399 . S
C333 C334 1.385 . S
C334 H320 0.931 . S
C334 C333 1.385 . S
C334 C335 1.389 . S
C335 C334 1.389 . S
C335 C336 1.387 . S
C336 H321 0.930 . S
C336 C331 1.390 . S
C336 C335 1.387 . S
H337 C349 0.930 . S
H338 C351 0.930 . S
H339 C352 0.930 . S
H340 C356 0.959 . S
H341 C356 0.959 . S
H342 C356 0.961 . S
H343 C357 0.960 . S
H344 C357 0.961 . S
H345 C357 0.959 . S
H346 C360 0.929 1_455 S
H347 C361 0.931 1_455 S
H348 C363 0.930 . S
C349 H337 0.930 . S
C349 C350 1.399 . S
C349 C354 1.399 . S
C350 C349 1.399 . S
C350 C351 1.376 . S
C351 H338 0.930 . S
C351 C350 1.376 . S
C351 C352 1.388 . S
C352 H339 0.930 . S
C352 C351 1.388 . S
C352 C353 1.390 . S
C353 C352 1.390 . S
C353 C354 1.394 . S
C353 C359 1.465 . S
C354 C349 1.399 . S
C354 C353 1.394 . S
C354 C355 1.516 . S
C355 C354 1.516 . S
C355 C356 1.502 . S
C355 C357 1.561 . S
C355 C358 1.526 . S
C356 H340 0.959 . S
C356 H341 0.959 . S
C356 H342 0.961 . S
C356 C355 1.502 . S
C357 H343 0.960 . S
C357 H344 0.961 . S
C357 H345 0.959 . S
C357 C355 1.561 . S
C358 C355 1.526 . S
C358 C359 1.396 . S
C358 C363 1.390 . S
C359 C353 1.465 . S
C359 C358 1.396 . S
C359 C360 1.399 . S
C360 H346 0.929 1_655 S
C360 C359 1.399 . S
C360 C361 1.385 . S
C361 H347 0.931 1_655 S
C361 C360 1.385 . S
C361 C362 1.389 . S
C362 C361 1.389 . S
C362 C363 1.387 . S
C363 H348 0.930 . S
C363 C358 1.390 . S
C363 C362 1.387 . S
H364 C376 0.930 . S
H365 C378 0.930 . S
H366 C379 0.930 . S
H367 C383 0.959 . S
H368 C383 0.959 . S
H369 C383 0.961 . S
H370 C384 0.960 . S
H371 C384 0.961 . S
H372 C384 0.959 . S
H373 C387 0.929 . S
H374 C388 0.931 . S
H375 C390 0.930 . S
C376 H364 0.930 . S
C376 C377 1.399 . S
C376 C381 1.399 . S
C377 C376 1.399 . S
C377 C378 1.376 . S
C378 H365 0.930 . S
C378 C377 1.376 . S
C378 C379 1.388 . S
C379 H366 0.930 . S
C379 C378 1.388 . S
C379 C380 1.390 . S
C380 C379 1.390 . S
C380 C381 1.394 . S
C380 C386 1.465 . S
C381 C376 1.399 . S
C381 C380 1.394 . S
C381 C382 1.516 . S
C382 C381 1.516 . S
C382 C383 1.502 . S
C382 C384 1.561 . S
C382 C385 1.526 . S
C383 H367 0.959 . S
C383 H368 0.959 . S
C383 H369 0.961 . S
C383 C382 1.502 . S
C384 H370 0.960 . S
C384 H371 0.961 . S
C384 H372 0.959 . S
C384 C382 1.561 . S
C385 C382 1.526 . S
C385 C386 1.396 . S
C385 C390 1.390 . S
C386 C380 1.465 . S
C386 C385 1.396 . S
C386 C387 1.399 . S
C387 H373 0.929 . S
C387 C386 1.399 . S
C387 C388 1.385 . S
C388 H374 0.931 . S
C388 C387 1.385 . S
C388 C389 1.389 . S
C389 C388 1.389 . S
C389 C390 1.387 . S
C390 H375 0.930 . S
C390 C385 1.390 . S
C390 C389 1.387 . S
H391 C403 0.930 . S
H392 C405 0.930 . S
H393 C406 0.930 . S
H394 C410 0.959 . S
H395 C410 0.959 . S
H396 C410 0.961 . S
H397 C411 0.960 . S
H398 C411 0.961 . S
H399 C411 0.959 . S
H400 C414 0.929 1_655 S
H401 C415 0.917 1_655 S
H402 C417 0.930 . S
C403 H391 0.930 . S
C403 C404 1.399 . S
C403 C408 1.399 . S
C404 C403 1.399 . S
C404 C405 1.376 . S
C405 H392 0.930 . S
C405 C404 1.376 . S
C405 C406 1.388 . S
C406 H393 0.930 . S
C406 C405 1.388 . S
C406 C407 1.390 . S
C407 C406 1.390 . S
C407 C408 1.394 . S
C407 C413 1.465 . S
C408 C403 1.399 . S
C408 C407 1.394 . S
C408 C409 1.516 . S
C409 C408 1.516 . S
C409 C410 1.502 . S
C409 C411 1.561 . S
C409 C412 1.526 . S
C410 H394 0.959 . S
C410 H395 0.959 . S
C410 H396 0.961 . S
C410 C409 1.502 . S
C411 H397 0.960 . S
C411 H398 0.961 . S
C411 H399 0.959 . S
C411 C409 1.561 . S
C412 C409 1.526 . S
C412 C413 1.396 . S
C412 C417 1.390 . S
C413 C407 1.465 . S
C413 C412 1.396 . S
C413 C414 1.399 . S
C414 H400 0.929 1_455 S
C414 C413 1.399 . S
C414 C415 1.385 . S
C415 H401 0.917 1_455 S
C415 C414 1.385 . S
C415 C416 1.389 . S
C416 C415 1.389 . S
C416 C417 1.387 . S
C417 H402 0.930 . S
C417 C412 1.390 . S
C417 C416 1.387 . S
H418 C430 0.930 . S
H419 C432 0.930 . S
H420 C433 0.930 . S
H421 C437 0.959 . S
H422 C437 0.959 . S
H423 C437 0.961 . S
H424 C438 0.960 . S
H425 C438 0.961 . S
H426 C438 0.959 . S
H427 C441 0.929 . S
H428 C442 0.931 . S
H429 C444 0.930 . S
C430 H418 0.930 . S
C430 C431 1.399 . S
C430 C435 1.399 . S
C431 C430 1.399 . S
C431 C432 1.376 . S
C432 H419 0.930 . S
C432 C431 1.376 . S
C432 C433 1.388 . S
C433 H420 0.930 . S
C433 C432 1.388 . S
C433 C434 1.390 . S
C434 C433 1.390 . S
C434 C435 1.394 . S
C434 C440 1.465 . S
C435 C430 1.399 . S
C435 C434 1.394 . S
C435 C436 1.516 . S
C436 C435 1.516 . S
C436 C437 1.502 . S
C436 C438 1.561 . S
C436 C439 1.526 . S
C437 H421 0.959 . S
C437 H422 0.959 . S
C437 H423 0.961 . S
C437 C436 1.502 . S
C438 H424 0.960 . S
C438 H425 0.961 . S
C438 H426 0.959 . S
C438 C436 1.561 . S
C439 C436 1.526 . S
C439 C440 1.396 . S
C439 C444 1.390 . S
C440 C434 1.465 . S
C440 C439 1.396 . S
C440 C441 1.399 . S
C441 H427 0.929 . S
C441 C440 1.399 . S
C441 C442 1.385 . S
C442 H428 0.931 . S
C442 C441 1.385 . S
C442 C443 1.389 . S
C443 C442 1.389 . S
C443 C444 1.387 . S
C444 H429 0.930 . S
C444 C439 1.390 . S
C444 C443 1.387 . S
H445 C457 0.930 . S
H446 C459 0.930 . S
H447 C460 0.930 . S
H448 C464 0.959 . S
H449 C464 0.959 . S
H450 C464 0.961 . S
H451 C465 0.960 . S
H452 C465 0.961 . S
H453 C465 0.959 . S
H454 C468 0.929 . S
H455 C469 0.931 . S
H456 C471 0.930 . S
C457 H445 0.930 . S
C457 C458 1.399 . S
C457 C462 1.399 . S
C458 C457 1.399 . S
C458 C459 1.376 . S
C459 H446 0.930 . S
C459 C458 1.376 . S
C459 C460 1.388 . S
C460 H447 0.930 . S
C460 C459 1.388 . S
C460 C461 1.390 . S
C461 C460 1.390 . S
C461 C462 1.394 . S
C461 C467 1.465 . S
C462 C457 1.399 . S
C462 C461 1.394 . S
C462 C463 1.516 . S
C463 C462 1.516 . S
C463 C464 1.502 . S
C463 C465 1.561 . S
C463 C466 1.526 . S
C464 H448 0.959 . S
C464 H449 0.959 . S
C464 H450 0.961 . S
C464 C463 1.502 . S
C465 H451 0.960 . S
C465 H452 0.961 . S
C465 H453 0.959 . S
C465 C463 1.561 . S
C466 C463 1.526 . S
C466 C467 1.396 . S
C466 C471 1.390 . S
C467 C461 1.465 . S
C467 C466 1.396 . S
C467 C468 1.399 . S
C468 H454 0.929 . S
C468 C467 1.399 . S
C468 C469 1.385 . S
C469 H455 0.931 . S
C469 C468 1.385 . S
C469 C470 1.389 . S
C470 C469 1.389 . S
C470 C471 1.387 . S
C471 H456 0.930 . S
C471 C466 1.390 . S
C471 C470 1.387 . S
H472 C484 0.930 . S
H473 C486 0.930 . S
H474 C487 0.930 . S
H475 C491 0.959 . S
H476 C491 0.959 . S
H477 C491 0.961 . S
H478 C492 0.960 . S
H479 C492 0.961 . S
H480 C492 0.959 . S
H481 C495 0.929 . S
H482 C496 0.931 . S
H483 C498 0.930 . S
C484 H472 0.930 . S
C484 C485 1.399 . S
C484 C489 1.399 . S
C485 C484 1.399 . S
C485 C486 1.376 . S
C486 H473 0.930 . S
C486 C485 1.376 . S
C486 C487 1.388 . S
C487 H474 0.930 . S
C487 C486 1.388 . S
C487 C488 1.390 . S
C488 C487 1.390 . S
C488 C489 1.394 . S
C488 C494 1.465 . S
C489 C484 1.399 . S
C489 C488 1.394 . S
C489 C490 1.516 . S
C490 C489 1.516 . S
C490 C491 1.502 . S
C490 C492 1.561 . S
C490 C493 1.526 . S
C491 H475 0.959 . S
C491 H476 0.959 . S
C491 H477 0.961 . S
C491 C490 1.502 . S
C492 H478 0.960 . S
C492 H479 0.961 . S
C492 H480 0.959 . S
C492 C490 1.561 . S
C493 C490 1.526 . S
C493 C494 1.396 . S
C493 C498 1.390 . S
C494 C488 1.465 . S
C494 C493 1.396 . S
C494 C495 1.399 . S
C495 H481 0.929 . S
C495 C494 1.399 . S
C495 C496 1.385 . S
C496 H482 0.931 . S
C496 C495 1.385 . S
C496 C497 1.389 . S
C497 C496 1.389 . S
C497 C498 1.387 . S
C498 H483 0.930 . S
C498 C493 1.390 . S
C498 C497 1.387 . S
H499 C511 0.930 . S
H500 C513 0.930 . S
H501 C514 0.930 . S
H502 C518 0.959 . S
H503 C518 0.959 . S
H504 C518 0.961 . S
H505 C519 0.960 . S
H506 C519 0.961 . S
H507 C519 0.959 . S
H508 C522 0.929 . S
H509 C523 0.931 . S
H510 C525 0.930 . S
C511 H499 0.930 . S
C511 C512 1.399 . S
C511 C516 1.399 . S
C512 C511 1.399 . S
C512 C513 1.376 . S
C513 H500 0.930 . S
C513 C512 1.376 . S
C513 C514 1.388 . S
C514 H501 0.930 . S
C514 C513 1.388 . S
C514 C515 1.390 . S
C515 C514 1.390 . S
C515 C516 1.394 . S
C515 C521 1.465 . S
C516 C511 1.399 . S
C516 C515 1.394 . S
C516 C517 1.516 . S
C517 C516 1.516 . S
C517 C518 1.502 . S
C517 C519 1.561 . S
C517 C520 1.526 . S
C518 H502 0.959 . S
C518 H503 0.959 . S
C518 H504 0.961 . S
C518 C517 1.502 . S
C519 H505 0.960 . S
C519 H506 0.961 . S
C519 H507 0.959 . S
C519 C517 1.561 . S
C520 C517 1.526 . S
C520 C521 1.396 . S
C520 C525 1.390 . S
C521 C515 1.465 . S
C521 C520 1.396 . S
C521 C522 1.399 . S
C522 H508 0.929 . S
C522 C521 1.399 . S
C522 C523 1.385 . S
C523 H509 0.931 . S
C523 C522 1.385 . S
C523 C524 1.389 . S
C524 C523 1.389 . S
C524 C525 1.387 . S
C525 H510 0.930 . S
C525 C520 1.390 . S
C525 C524 1.387 . S
H526 C538 0.930 . S
H527 C540 0.930 . S
H528 C541 0.930 . S
H529 C545 0.959 . S
H530 C545 0.959 . S
H531 C545 0.961 . S
H532 C546 0.960 . S
H533 C546 0.961 . S
H534 C546 0.959 . S
H535 C549 0.929 . S
H536 C550 0.931 . S
H537 C552 0.930 . S
C538 H526 0.930 . S
C538 C539 1.399 . S
C538 C543 1.399 . S
C539 C538 1.399 . S
C539 C540 1.376 . S
C540 H527 0.930 . S
C540 C539 1.376 . S
C540 C541 1.388 . S
C541 H528 0.930 . S
C541 C540 1.388 . S
C541 C542 1.390 . S
C542 C541 1.390 . S
C542 C543 1.394 . S
C542 C548 1.465 . S
C543 C538 1.399 . S
C543 C542 1.394 . S
C543 C544 1.516 . S
C544 C543 1.516 . S
C544 C545 1.502 . S
C544 C546 1.561 . S
C544 C547 1.526 . S
C545 H529 0.959 . S
C545 H530 0.959 . S
C545 H531 0.961 . S
C545 C544 1.502 . S
C546 H532 0.960 . S
C546 H533 0.961 . S
C546 H534 0.959 . S
C546 C544 1.561 . S
C547 C544 1.526 . S
C547 C548 1.396 . S
C547 C552 1.390 . S
C548 C542 1.465 . S
C548 C547 1.396 . S
C548 C549 1.399 . S
C549 H535 0.929 . S
C549 C548 1.399 . S
C549 C550 1.385 . S
C550 H536 0.931 . S
C550 C549 1.385 . S
C550 C551 1.389 . S
C551 C550 1.389 . S
C551 C552 1.387 . S
C552 H537 0.930 . S
C552 C547 1.390 . S
C552 C551 1.387 . S
H553 C565 0.930 . S
H554 C567 0.930 . S
H555 C568 0.930 . S
H556 C572 0.959 . S
H557 C572 0.959 . S
H558 C572 0.961 . S
H559 C573 0.960 . S
H560 C573 0.961 . S
H561 C573 0.959 . S
H562 C576 0.929 . S
H563 C577 0.931 . S
H564 C579 0.930 . S
C565 H553 0.930 . S
C565 C566 1.399 . S
C565 C570 1.399 . S
C566 C565 1.399 . S
C566 C567 1.376 . S
C567 H554 0.930 . S
C567 C566 1.376 . S
C567 C568 1.388 . S
C568 H555 0.930 . S
C568 C567 1.388 . S
C568 C569 1.390 . S
C569 C568 1.390 . S
C569 C570 1.394 . S
C569 C575 1.465 . S
C570 C565 1.399 . S
C570 C569 1.394 . S
C570 C571 1.516 . S
C571 C570 1.516 . S
C571 C572 1.502 . S
C571 C573 1.561 . S
C571 C574 1.526 . S
C572 H556 0.959 . S
C572 H557 0.959 . S
C572 H558 0.961 . S
C572 C571 1.502 . S
C573 H559 0.960 . S
C573 H560 0.961 . S
C573 H561 0.959 . S
C573 C571 1.561 . S
C574 C571 1.526 . S
C574 C575 1.396 . S
C574 C579 1.390 . S
C575 C569 1.465 . S
C575 C574 1.396 . S
C575 C576 1.399 . S
C576 H562 0.929 . S
C576 C575 1.399 . S
C576 C577 1.385 . S
C577 H563 0.931 . S
C577 C576 1.385 . S
C577 C578 1.389 . S
C578 C577 1.389 . S
C578 C579 1.387 . S
C579 H564 0.930 . S
C579 C574 1.390 . S
C579 C578 1.387 . S
H580 C592 0.930 . S
H581 C594 0.930 . S
H582 C595 0.930 . S
H583 C599 0.959 . S
H584 C599 0.959 . S
H585 C599 0.961 . S
H586 C600 0.960 . S
H587 C600 0.961 . S
H588 C600 0.959 . S
H589 C603 0.929 . S
H590 C604 0.931 . S
H591 C606 0.930 . S
C592 H580 0.930 . S
C592 C593 1.399 . S
C592 C597 1.399 . S
C593 C592 1.399 . S
C593 C594 1.376 . S
C594 H581 0.930 . S
C594 C593 1.376 . S
C594 C595 1.388 . S
C595 H582 0.930 . S
C595 C594 1.388 . S
C595 C596 1.390 . S
C596 C595 1.390 . S
C596 C597 1.394 . S
C596 C602 1.465 . S
C597 C592 1.399 . S
C597 C596 1.394 . S
C597 C598 1.516 . S
C598 C597 1.516 . S
C598 C599 1.502 . S
C598 C600 1.561 . S
C598 C601 1.526 . S
C599 H583 0.959 . S
C599 H584 0.959 . S
C599 H585 0.961 . S
C599 C598 1.502 . S
C600 H586 0.960 . S
C600 H587 0.961 . S
C600 H588 0.959 . S
C600 C598 1.561 . S
C601 C598 1.526 . S
C601 C602 1.396 . S
C601 C606 1.390 . S
C602 C596 1.465 . S
C602 C601 1.396 . S
C602 C603 1.399 . S
C603 H589 0.929 . S
C603 C602 1.399 . S
C603 C604 1.385 . S
C604 H590 0.931 . S
C604 C603 1.385 . S
C604 C605 1.389 . S
C605 C604 1.389 . S
C605 C606 1.387 . S
C606 H591 0.930 . S
C606 C601 1.390 . S
C606 C605 1.387 . S
H607 C619 0.930 . S
H608 C621 0.930 . S
H609 C622 0.930 . S
H610 C626 0.959 . S
H611 C626 0.959 . S
H612 C626 0.961 . S
H613 C627 0.960 . S
H614 C627 0.961 . S
H615 C627 0.959 . S
H616 C630 0.929 . S
H617 C631 0.931 . S
H618 C633 0.930 . S
C619 H607 0.930 . S
C619 C620 1.399 . S
C619 C624 1.399 . S
C620 C619 1.399 . S
C620 C621 1.376 . S
C621 H608 0.930 . S
C621 C620 1.376 . S
C621 C622 1.388 . S
C622 H609 0.930 . S
C622 C621 1.388 . S
C622 C623 1.390 . S
C623 C622 1.390 . S
C623 C624 1.394 . S
C623 C629 1.465 . S
C624 C619 1.399 . S
C624 C623 1.394 . S
C624 C625 1.516 . S
C625 C624 1.516 . S
C625 C626 1.502 . S
C625 C627 1.561 . S
C625 C628 1.526 . S
C626 H610 0.959 . S
C626 H611 0.959 . S
C626 H612 0.961 . S
C626 C625 1.502 . S
C627 H613 0.960 . S
C627 H614 0.961 . S
C627 H615 0.959 . S
C627 C625 1.561 . S
C628 C625 1.526 . S
C628 C629 1.396 . S
C628 C633 1.390 . S
C629 C623 1.465 . S
C629 C628 1.396 . S
C629 C630 1.399 . S
C630 H616 0.929 . S
C630 C629 1.399 . S
C630 C631 1.385 . S
C631 H617 0.931 . S
C631 C630 1.385 . S
C631 C632 1.389 . S
C632 C631 1.389 . S
C632 C633 1.387 . S
C633 H618 0.930 . S
C633 C628 1.390 . S
C633 C632 1.387 . S
H634 C646 0.930 . S
H635 C648 0.930 . S
H636 C649 0.930 . S
H637 C653 0.959 . S
H638 C653 0.959 . S
H639 C653 0.961 . S
H640 C654 0.960 . S
H641 C654 0.961 . S
H642 C654 0.959 . S
H643 C657 0.929 . S
H644 C658 0.931 . S
H645 C660 0.930 . S
C646 H634 0.930 . S
C646 C647 1.399 . S
C646 C651 1.399 . S
C647 C646 1.399 . S
C647 C648 1.376 . S
C648 H635 0.930 . S
C648 C647 1.376 . S
C648 C649 1.388 . S
C649 H636 0.930 . S
C649 C648 1.388 . S
C649 C650 1.390 . S
C650 C649 1.390 . S
C650 C651 1.394 . S
C650 C656 1.465 . S
C651 C646 1.399 . S
C651 C650 1.394 . S
C651 C652 1.516 . S
C652 C651 1.516 . S
C652 C653 1.502 . S
C652 C654 1.561 . S
C652 C655 1.526 . S
C653 H637 0.959 . S
C653 H638 0.959 . S
C653 H639 0.961 . S
C653 C652 1.502 . S
C654 H640 0.960 . S
C654 H641 0.961 . S
C654 H642 0.959 . S
C654 C652 1.561 . S
C655 C652 1.526 . S
C655 C656 1.396 . S
C655 C660 1.390 . S
C656 C650 1.465 . S
C656 C655 1.396 . S
C656 C657 1.399 . S
C657 H643 0.929 . S
C657 C656 1.399 . S
C657 C658 1.385 . S
C658 H644 0.931 . S
C658 C657 1.385 . S
C658 C659 1.389 . S
C659 C658 1.389 . S
C659 C660 1.387 . S
C660 H645 0.930 . S
C660 C655 1.390 . S
C660 C659 1.387 . S
H661 C673 0.930 . S
H662 C675 0.930 . S
H663 C676 0.930 . S
H664 C680 0.959 . S
H665 C680 0.959 . S
H666 C680 0.961 . S
H667 C681 0.960 . S
H668 C681 0.961 . S
H669 C681 0.959 . S
H670 C684 0.929 . S
H671 C685 0.931 . S
H672 C687 0.930 . S
C673 H661 0.930 . S
C673 C674 1.399 . S
C673 C678 1.399 . S
C674 C673 1.399 . S
C674 C675 1.376 . S
C675 H662 0.930 . S
C675 C674 1.376 . S
C675 C676 1.388 . S
C676 H663 0.930 . S
C676 C675 1.388 . S
C676 C677 1.390 . S
C677 C676 1.390 . S
C677 C678 1.394 . S
C677 C683 1.465 . S
C678 C673 1.399 . S
C678 C677 1.394 . S
C678 C679 1.516 . S
C679 C678 1.516 . S
C679 C680 1.502 . S
C679 C681 1.561 . S
C679 C682 1.526 . S
C680 H664 0.959 . S
C680 H665 0.959 . S
C680 H666 0.961 . S
C680 C679 1.502 . S
C681 H667 0.960 . S
C681 H668 0.961 . S
C681 H669 0.959 . S
C681 C679 1.561 . S
C682 C679 1.526 . S
C682 C683 1.396 . S
C682 C687 1.390 . S
C683 C677 1.465 . S
C683 C682 1.396 . S
C683 C684 1.399 . S
C684 H670 0.929 . S
C684 C683 1.399 . S
C684 C685 1.385 . S
C685 H671 0.931 . S
C685 C684 1.385 . S
C685 C686 1.389 . S
C686 C685 1.389 . S
C686 C687 1.387 . S
C687 H672 0.930 . S
C687 C682 1.390 . S
C687 C686 1.387 . S
H688 C700 0.930 . S
H689 C702 0.930 . S
H690 C703 0.930 . S
H691 C707 0.959 . S
H692 C707 0.959 . S
H693 C707 0.961 . S
H694 C708 0.960 . S
H695 C708 0.961 . S
H696 C708 0.959 . S
H697 C711 0.929 . S
H698 C712 0.931 . S
H699 C714 0.930 . S
C700 H688 0.930 . S
C700 C701 1.399 . S
C700 C705 1.399 . S
C701 C700 1.399 . S
C701 C702 1.376 . S
C702 H689 0.930 . S
C702 C701 1.376 . S
C702 C703 1.388 . S
C703 H690 0.930 . S
C703 C702 1.388 . S
C703 C704 1.390 . S
C704 C703 1.390 . S
C704 C705 1.394 . S
C704 C710 1.465 . S
C705 C700 1.399 . S
C705 C704 1.394 . S
C705 C706 1.516 . S
C706 C705 1.516 . S
C706 C707 1.502 . S
C706 C708 1.561 . S
C706 C709 1.526 . S
C707 H691 0.959 . S
C707 H692 0.959 . S
C707 H693 0.961 . S
C707 C706 1.502 . S
C708 H694 0.960 . S
C708 H695 0.961 . S
C708 H696 0.959 . S
C708 C706 1.561 . S
C709 C706 1.526 . S
C709 C710 1.396 . S
C709 C714 1.390 . S
C710 C704 1.465 . S
C710 C709 1.396 . S
C710 C711 1.399 . S
C711 H697 0.929 . S
C711 C710 1.399 . S
C711 C712 1.385 . S
C712 H698 0.931 . S
C712 C711 1.385 . S
C712 C713 1.389 . S
C713 C712 1.389 . S
C713 C714 1.387 . S
C714 H699 0.930 . S
C714 C709 1.390 . S
C714 C713 1.387 . S
H715 C727 0.930 . S
H716 C729 0.930 . S
H717 C730 0.930 . S
H718 C734 0.959 . S
H719 C734 0.959 . S
H720 C734 0.961 . S
H721 C735 0.960 . S
H722 C735 0.961 . S
H723 C735 0.959 . S
H724 C738 0.929 . S
H725 C739 0.931 . S
H726 C741 0.930 . S
C727 H715 0.930 . S
C727 C728 1.399 . S
C727 C732 1.399 . S
C728 C727 1.399 . S
C728 C729 1.376 . S
C729 H716 0.930 . S
C729 C728 1.376 . S
C729 C730 1.388 . S
C730 H717 0.930 . S
C730 C729 1.388 . S
C730 C731 1.390 . S
C731 C730 1.390 . S
C731 C732 1.394 . S
C731 C737 1.465 . S
C732 C727 1.399 . S
C732 C731 1.394 . S
C732 C733 1.516 . S
C733 C732 1.516 . S
C733 C734 1.502 . S
C733 C735 1.561 . S
C733 C736 1.526 . S
C734 H718 0.959 . S
C734 H719 0.959 . S
C734 H720 0.961 . S
C734 C733 1.502 . S
C735 H721 0.960 . S
C735 H722 0.961 . S
C735 H723 0.959 . S
C735 C733 1.561 . S
C736 C733 1.526 . S
C736 C737 1.396 . S
C736 C741 1.390 . S
C737 C731 1.465 . S
C737 C736 1.396 . S
C737 C738 1.399 . S
C738 H724 0.929 . S
C738 C737 1.399 . S
C738 C739 1.385 . S
C739 H725 0.931 . S
C739 C738 1.385 . S
C739 C740 1.389 . S
C740 C739 1.389 . S
C740 C741 1.387 . S
C741 H726 0.930 . S
C741 C736 1.390 . S
C741 C740 1.387 . S
H742 C754 0.930 . S
H743 C756 0.930 . S
H744 C757 0.930 . S
H745 C761 0.959 . S
H746 C761 0.959 . S
H747 C761 0.961 . S
H748 C762 0.960 . S
H749 C762 0.961 . S
H750 C762 0.959 . S
H751 C765 0.929 . S
H752 C766 0.931 . S
H753 C768 0.930 . S
C754 H742 0.930 . S
C754 C755 1.399 . S
C754 C759 1.399 . S
C755 C754 1.399 . S
C755 C756 1.376 . S
C756 H743 0.930 . S
C756 C755 1.376 . S
C756 C757 1.388 . S
C757 H744 0.930 . S
C757 C756 1.388 . S
C757 C758 1.390 . S
C758 C757 1.390 . S
C758 C759 1.394 . S
C758 C764 1.465 . S
C759 C754 1.399 . S
C759 C758 1.394 . S
C759 C760 1.516 . S
C760 C759 1.516 . S
C760 C761 1.502 . S
C760 C762 1.561 . S
C760 C763 1.526 . S
C761 H745 0.959 . S
C761 H746 0.959 . S
C761 H747 0.961 . S
C761 C760 1.502 . S
C762 H748 0.960 . S
C762 H749 0.961 . S
C762 H750 0.959 . S
C762 C760 1.561 . S
C763 C760 1.526 . S
C763 C764 1.396 . S
C763 C768 1.390 . S
C764 C758 1.465 . S
C764 C763 1.396 . S
C764 C765 1.399 . S
C765 H751 0.929 . S
C765 C764 1.399 . S
C765 C766 1.385 . S
C766 H752 0.931 . S
C766 C765 1.385 . S
C766 C767 1.389 . S
C767 C766 1.389 . S
C767 C768 1.387 . S
C768 H753 0.930 . S
C768 C763 1.390 . S
C768 C767 1.387 . S
H769 C781 0.930 . S
H770 C783 0.930 . S
H771 C784 0.930 . S
H772 C788 0.959 . S
H773 C788 0.959 . S
H774 C788 0.961 . S
H775 C789 0.960 . S
H776 C789 0.961 . S
H777 C789 0.959 . S
H778 C792 0.929 . S
H779 C793 0.931 . S
H780 C795 0.930 . S
C781 H769 0.930 . S
C781 C782 1.399 . S
C781 C786 1.399 . S
C782 C781 1.399 . S
C782 C783 1.376 . S
C783 H770 0.930 . S
C783 C782 1.376 . S
C783 C784 1.388 . S
C784 H771 0.930 . S
C784 C783 1.388 . S
C784 C785 1.390 . S
C785 C784 1.390 . S
C785 C786 1.394 . S
C785 C791 1.465 . S
C786 C781 1.399 . S
C786 C785 1.394 . S
C786 C787 1.516 . S
C787 C786 1.516 . S
C787 C788 1.502 . S
C787 C789 1.561 . S
C787 C790 1.526 . S
C788 H772 0.959 . S
C788 H773 0.959 . S
C788 H774 0.961 . S
C788 C787 1.502 . S
C789 H775 0.960 . S
C789 H776 0.961 . S
C789 H777 0.959 . S
C789 C787 1.561 . S
C790 C787 1.526 . S
C790 C791 1.396 . S
C790 C795 1.390 . S
C791 C785 1.465 . S
C791 C790 1.396 . S
C791 C792 1.399 . S
C792 H778 0.929 . S
C792 C791 1.399 . S
C792 C793 1.385 . S
C793 H779 0.931 . S
C793 C792 1.385 . S
C793 C794 1.389 . S
C794 C793 1.389 . S
C794 C795 1.387 . S
C795 H780 0.930 . S
C795 C790 1.390 . S
C795 C794 1.387 . S
H796 C808 0.930 . S
H797 C810 0.930 . S
H798 C811 0.930 . S
H799 C815 0.959 . S
H800 C815 0.959 . S
H801 C815 0.961 . S
H802 C816 0.960 . S
H803 C816 0.961 . S
H804 C816 0.959 . S
H805 C819 0.929 . S
H806 C820 0.931 . S
H807 C822 0.930 . S
C808 H796 0.930 . S
C808 C809 1.399 . S
C808 C813 1.399 . S
C809 C808 1.399 . S
C809 C810 1.376 . S
C810 H797 0.930 . S
C810 C809 1.376 . S
C810 C811 1.388 . S
C811 H798 0.930 . S
C811 C810 1.388 . S
C811 C812 1.390 . S
C812 C811 1.390 . S
C812 C813 1.394 . S
C812 C818 1.465 . S
C813 C808 1.399 . S
C813 C812 1.394 . S
C813 C814 1.516 . S
C814 C813 1.516 . S
C814 C815 1.502 . S
C814 C816 1.561 . S
C814 C817 1.526 . S
C815 H799 0.959 . S
C815 H800 0.959 . S
C815 H801 0.961 . S
C815 C814 1.502 . S
C816 H802 0.960 . S
C816 H803 0.961 . S
C816 H804 0.959 . S
C816 C814 1.561 . S
C817 C814 1.526 . S
C817 C818 1.396 . S
C817 C822 1.390 . S
C818 C812 1.465 . S
C818 C817 1.396 . S
C818 C819 1.399 . S
C819 H805 0.929 . S
C819 C818 1.399 . S
C819 C820 1.385 . S
C820 H806 0.931 . S
C820 C819 1.385 . S
C820 C821 1.389 . S
C821 C820 1.389 . S
C821 C822 1.387 . S
C822 H807 0.930 . S
C822 C817 1.390 . S
C822 C821 1.387 . S
H823 C835 0.930 . S
H824 C837 0.930 . S
H825 C838 0.930 . S
H826 C842 0.959 . S
H827 C842 0.959 . S
H828 C842 0.961 . S
H829 C843 0.960 . S
H830 C843 0.961 . S
H831 C843 0.959 . S
H832 C846 0.929 . S
H833 C847 0.931 . S
H834 C849 0.930 . S
C835 H823 0.930 . S
C835 C836 1.399 . S
C835 C840 1.399 . S
C836 C835 1.399 . S
C836 C837 1.376 . S
C837 H824 0.930 . S
C837 C836 1.376 . S
C837 C838 1.388 . S
C838 H825 0.930 . S
C838 C837 1.388 . S
C838 C839 1.390 . S
C839 C838 1.390 . S
C839 C840 1.394 . S
C839 C845 1.465 . S
C840 C835 1.399 . S
C840 C839 1.394 . S
C840 C841 1.516 . S
C841 C840 1.516 . S
C841 C842 1.502 . S
C841 C843 1.561 . S
C841 C844 1.526 . S
C842 H826 0.959 . S
C842 H827 0.959 . S
C842 H828 0.961 . S
C842 C841 1.502 . S
C843 H829 0.960 . S
C843 H830 0.961 . S
C843 H831 0.959 . S
C843 C841 1.561 . S
C844 C841 1.526 . S
C844 C845 1.396 . S
C844 C849 1.390 . S
C845 C839 1.465 . S
C845 C844 1.396 . S
C845 C846 1.399 . S
C846 H832 0.929 . S
C846 C845 1.399 . S
C846 C847 1.385 . S
C847 H833 0.931 . S
C847 C846 1.385 . S
C847 C848 1.389 . S
C848 C847 1.389 . S
C848 C849 1.387 . S
C849 H834 0.930 . S
C849 C844 1.390 . S
C849 C848 1.387 . S
H850 C862 0.930 . S
H851 C864 0.930 . S
H852 C865 0.930 . S
H853 C869 0.959 . S
H854 C869 0.959 . S
H855 C869 0.961 . S
H856 C870 0.960 . S
H857 C870 0.961 . S
H858 C870 0.959 . S
H859 C873 0.929 . S
H860 C874 0.931 . S
H861 C876 0.930 . S
C862 H850 0.930 . S
C862 C863 1.399 . S
C862 C867 1.399 . S
C863 C862 1.399 . S
C863 C864 1.376 . S
C864 H851 0.930 . S
C864 C863 1.376 . S
C864 C865 1.388 . S
C865 H852 0.930 . S
C865 C864 1.388 . S
C865 C866 1.390 . S
C866 C865 1.390 . S
C866 C867 1.394 . S
C866 C872 1.465 . S
C867 C862 1.399 . S
C867 C866 1.394 . S
C867 C868 1.516 . S
C868 C867 1.516 . S
C868 C869 1.502 . S
C868 C870 1.561 . S
C868 C871 1.526 . S
C869 H853 0.959 . S
C869 H854 0.959 . S
C869 H855 0.961 . S
C869 C868 1.502 . S
C870 H856 0.960 . S
C870 H857 0.961 . S
C870 H858 0.959 . S
C870 C868 1.561 . S
C871 C868 1.526 . S
C871 C872 1.396 . S
C871 C876 1.390 . S
C872 C866 1.465 . S
C872 C871 1.396 . S
C872 C873 1.399 . S
C873 H859 0.929 . S
C873 C872 1.399 . S
C873 C874 1.385 . S
C874 H860 0.931 . S
C874 C873 1.385 . S
C874 C875 1.389 . S
C875 C874 1.389 . S
C875 C876 1.387 . S
C876 H861 0.930 . S
C876 C871 1.390 . S
C876 C875 1.387 . S
H877 C889 0.930 . S
H878 C891 0.930 . S
H879 C892 0.930 . S
H880 C896 0.959 . S
H881 C896 0.959 . S
H882 C896 0.961 . S
H883 C897 0.960 . S
H884 C897 0.961 . S
H885 C897 0.959 . S
H886 C900 0.929 . S
H887 C901 0.931 . S
H888 C903 0.930 . S
C889 H877 0.930 . S
C889 C890 1.399 . S
C889 C894 1.399 . S
C890 C889 1.399 . S
C890 C891 1.376 . S
C891 H878 0.930 . S
C891 C890 1.376 . S
C891 C892 1.388 . S
C892 H879 0.930 . S
C892 C891 1.388 . S
C892 C893 1.390 . S
C893 C892 1.390 . S
C893 C894 1.394 . S
C893 C899 1.465 . S
C894 C889 1.399 . S
C894 C893 1.394 . S
C894 C895 1.516 . S
C895 C894 1.516 . S
C895 C896 1.502 . S
C895 C897 1.561 . S
C895 C898 1.526 . S
C896 H880 0.959 . S
C896 H881 0.959 . S
C896 H882 0.961 . S
C896 C895 1.502 . S
C897 H883 0.960 . S
C897 H884 0.961 . S
C897 H885 0.959 . S
C897 C895 1.561 . S
C898 C895 1.526 . S
C898 C899 1.396 . S
C898 C903 1.390 . S
C899 C893 1.465 . S
C899 C898 1.396 . S
C899 C900 1.399 . S
C900 H886 0.929 . S
C900 C899 1.399 . S
C900 C901 1.385 . S
C901 H887 0.931 . S
C901 C900 1.385 . S
C901 C902 1.389 . S
C902 C901 1.389 . S
C902 C903 1.387 . S
C903 H888 0.930 . S
C903 C898 1.390 . S
C903 C902 1.387 . S
C269 C6 1.000 . S
C281 C113 1.089 . S
C296 C18 1.288 . S
C308 C153 1.278 . S
C335 C178 2.508 . S
C323 C28 2.571 . S
C350 C40 1.819 . S
C362 C218 1.752 . S
C389 C149 1.830 . S
C377 C9 1.744 . S
C416 C109 1.672 . S
C404 C16 1.640 . S
C443 C240 1.670 . S
C431 C30 1.721 . S
C470 C200 1.325 . S
C458 C42 1.368 . S
C485 C4 1.228 . S
C497 C242 1.275 . S
C524 C159 2.338 . S
C512 C33 2.401 . S
C539 C45 1.872 . S
C551 C119 1.880 . S
C566 C21 1.445 . S
C578 C202 1.442 . S
C605 C122 1.109 . S
C593 C57 1.037 . S
C620 C66 1.284 . S
C632 C162 1.260 . S
C647 C76 2.616 . S
C659 C199 2.570 . S
C674 C88 1.753 . S
C686 C239 1.711 . S
C701 C54 1.780 . S
C713 C160 1.828 . S
C740 C120 1.769 . S
C728 C64 1.710 . S
C767 C229 1.582 . S
C755 C78 1.631 . S
C794 C189 1.406 . S
C782 C93 1.399 . S
C809 C52 1.267 . S
C821 C233 1.265 . S
C848 C138 2.353 . S
C836 C81 2.371 . S
C875 C98 1.839 . S
C863 C90 1.853 . S
C890 C69 1.427 . S
C902 C193 1.475 . S
