# Generated by pormake.
# Topology pyr, (3,6)-cn, num edge types: 1
# Building blocks:
#     Node 0, Type 0, BuildingBlock: QEWDON_clean_linker_0, # of connection points: 3
#     Node 1, Type 0, BuildingBlock: QEWDON_clean_linker_0, # of connection points: 3
#     Node 2, Type 0, BuildingBlock: QEWDON_clean_linker_0, # of connection points: 3
#     Node 3, Type 0, BuildingBlock: QEWDON_clean_linker_0, # of connection points: 3
#     Node 4, Type 0, BuildingBlock: QEWDON_clean_linker_0, # of connection points: 3
#     Node 5, Type 0, BuildingBlock: QEWDON_clean_linker_0, # of connection points: 3
#     Node 6, Type 0, BuildingBlock: QEWDON_clean_linker_0, # of connection points: 3
#     Node 7, Type 0, BuildingBlock: QEWDON_clean_linker_0, # of connection points: 3
#     Node 8, Type 1, BuildingBlock: PAMTUU_clean_sbu_0, # of connection points: 6
#     Node 9, Type 1, BuildingBlock: PAMTUU_clean_sbu_0, # of connection points: 6
#     Node 10, Type 1, BuildingBlock: PAMTUU_clean_sbu_0, # of connection points: 6
#     Node 11, Type 1, BuildingBlock: PAMTUU_clean_sbu_0, # of connection points: 6
#     Edge 12, Type (0, 1), BuildingBlock: OJICUG_clean_linker_0, # of connection points: 2
#     Edge 13, Type (0, 1), BuildingBlock: OJICUG_clean_linker_0, # of connection points: 2
#     Edge 14, Type (0, 1), BuildingBlock: OJICUG_clean_linker_0, # of connection points: 2
#     Edge 15, Type (0, 1), BuildingBlock: OJICUG_clean_linker_0, # of connection points: 2
#     Edge 16, Type (0, 1), BuildingBlock: OJICUG_clean_linker_0, # of connection points: 2
#     Edge 17, Type (0, 1), BuildingBlock: OJICUG_clean_linker_0, # of connection points: 2
#     Edge 18, Type (0, 1), BuildingBlock: OJICUG_clean_linker_0, # of connection points: 2
#     Edge 19, Type (0, 1), BuildingBlock: OJICUG_clean_linker_0, # of connection points: 2
#     Edge 20, Type (0, 1), BuildingBlock: OJICUG_clean_linker_0, # of connection points: 2
#     Edge 21, Type (0, 1), BuildingBlock: OJICUG_clean_linker_0, # of connection points: 2
#     Edge 22, Type (0, 1), BuildingBlock: OJICUG_clean_linker_0, # of connection points: 2
#     Edge 23, Type (0, 1), BuildingBlock: OJICUG_clean_linker_0, # of connection points: 2
#     Edge 24, Type (0, 1), BuildingBlock: OJICUG_clean_linker_0, # of connection points: 2
#     Edge 25, Type (0, 1), BuildingBlock: OJICUG_clean_linker_0, # of connection points: 2
#     Edge 26, Type (0, 1), BuildingBlock: OJICUG_clean_linker_0, # of connection points: 2
#     Edge 27, Type (0, 1), BuildingBlock: OJICUG_clean_linker_0, # of connection points: 2
#     Edge 28, Type (0, 1), BuildingBlock: OJICUG_clean_linker_0, # of connection points: 2
#     Edge 29, Type (0, 1), BuildingBlock: OJICUG_clean_linker_0, # of connection points: 2
#     Edge 30, Type (0, 1), BuildingBlock: OJICUG_clean_linker_0, # of connection points: 2
#     Edge 31, Type (0, 1), BuildingBlock: OJICUG_clean_linker_0, # of connection points: 2
#     Edge 32, Type (0, 1), BuildingBlock: OJICUG_clean_linker_0, # of connection points: 2
#     Edge 33, Type (0, 1), BuildingBlock: OJICUG_clean_linker_0, # of connection points: 2
#     Edge 34, Type (0, 1), BuildingBlock: OJICUG_clean_linker_0, # of connection points: 2
#     Edge 35, Type (0, 1), BuildingBlock: OJICUG_clean_linker_0, # of connection points: 2
# Relax obj value: 0.216
# Max RMSD: 0.245
# Mean RMSD: 0.189
data_MOF--net-pyr--node1-PAMTUU_clean_sbu_0--node2-QEWDON_clean_linker_0--edge1-OJICUG_clean_linker_0
_symmetry_space_group_name_H-M    P1
_symmetry_Int_Tables_number       1
_symmetry_cell_setting            triclinic
loop_
_symmetry_equiv_pos_as_xyz
'x, y, z'
_cell_length_a     29.046633
_cell_length_b     30.057843
_cell_length_c     29.601645
_cell_angle_alpha  90.525396
_cell_angle_beta   90.276444
_cell_angle_gamma 112.688
loop_
_atom_site_label
_atom_site_type_symbol
_atom_site_fract_x
_atom_site_fract_y
_atom_site_fract_z
_atom_type_partial_charge
H0 H 0.4752 0.37628 0.20407 0.0
C1 C 0.46019 0.36374 0.23714 0.0
C2 C 0.46702 0.32391 0.2559 0.0
C3 C 0.43128 0.38542 0.25929 0.0
H4 H 0.45149 0.27659 0.31276 0.0
C5 C 0.44673 0.30755 0.29833 0.0
C6 C 0.41655 0.32774 0.32047 0.0
C7 C 0.40954 0.36716 0.30098 0.0
C8 C 0.42019 0.42407 0.2366 0.0
H9 H 0.38555 0.38242 0.31725 0.0
C10 C 0.3709 0.42197 0.23412 0.0
C11 C 0.3598 0.45623 0.20921 0.0
C12 C 0.4584 0.46177 0.21497 0.0
H13 H 0.49665 0.46445 0.21662 0.0
C14 C 0.44758 0.49627 0.19084 0.0
H15 H 0.34084 0.39257 0.24981 0.0
C16 C 0.39856 0.49337 0.18761 0.0
H17 H 0.3909 0.52032 0.16843 0.0
H18 H 0.47724 0.52512 0.17423 0.0
H19 H 0.12405 0.83155 0.82984 0.0
C20 C 0.15193 0.81954 0.81615 0.0
C21 C 0.19378 0.82423 0.84237 0.0
C22 C 0.14727 0.80247 0.77142 0.0
H23 H 0.26388 0.81538 0.84356 0.0
C24 C 0.23047 0.81009 0.82399 0.0
C25 C 0.22669 0.79312 0.77923 0.0
C26 C 0.1843 0.7883 0.75323 0.0
C27 C 0.10738 0.80636 0.74251 0.0
H28 H 0.18198 0.7771 0.71809 0.0
C29 C 0.10207 0.85082 0.73987 0.0
C30 C 0.06436 0.85587 0.71314 0.0
C31 C 0.07456 0.76655 0.718 0.0
H32 H 0.07811 0.73202 0.71954 0.0
C33 C 0.03628 0.77101 0.69198 0.0
H34 H 0.12783 0.88179 0.75839 0.0
C35 C 0.03105 0.81532 0.68957 0.0
H36 H 1.00193 0.81819 0.66824 0.0
H37 H 1.01082 0.74013 0.6733 0.0
H38 H 0.74419 0.52691 0.9507 0.0
C39 C 0.72653 0.48836 0.95584 0.0
C40 C 0.74908 0.4657 0.98535 0.0
C41 C 0.6792 0.46255 0.93586 0.0
H42 H 0.74044 0.39898 1.01679 0.0
C43 C 0.72359 0.41619 0.99382 0.0
C44 C 0.67629 0.38901 0.97464 0.0
C45 C 0.6545 0.41292 0.94561 0.0
C46 C 0.65021 0.48991 0.91631 0.0
H47 H 0.61747 0.39357 0.93174 0.0
C48 C 0.65042 0.50257 0.86983 0.0
C49 C 0.62332 0.53086 0.85527 0.0
C50 C 0.62222 0.50492 0.94691 0.0
H51 H 0.62134 0.49582 0.98234 0.0
C52 C 0.59551 0.53204 0.93269 0.0
H53 H 0.67182 0.49134 0.8457 0.0
C54 C 0.59616 0.545 0.8876 0.0
H55 H 0.57468 0.56595 0.8778 0.0
H56 H 0.57419 0.54327 0.95689 0.0
H57 H 0.92874 0.83307 0.41501 0.0
C58 C 0.89709 0.81093 0.43483 0.0
C59 C 0.88941 0.82692 0.47837 0.0
C60 C 0.86233 0.76756 0.41565 0.0
H61 H 0.83853 0.81086 0.53457 0.0
C62 C 0.84603 0.79852 0.50202 0.0
C63 C 0.81062 0.75553 0.48368 0.0
C64 C 0.81974 0.74001 0.44081 0.0
C65 C 0.86205 0.75748 0.3659 0.0
H66 H 0.79163 0.70827 0.42529 0.0
C67 C 0.89543 0.73995 0.34379 0.0
C68 C 0.89092 0.7303 0.29626 0.0
C69 C 0.82493 0.76482 0.34016 0.0
H70 H 0.79908 0.77811 0.35602 0.0
C71 C 0.8202 0.75499 0.29404 0.0
H72 H 0.92432 0.73412 0.36311 0.0
C73 C 0.85253 0.73783 0.2724 0.0
H74 H 0.84716 0.73008 0.23649 0.0
H75 H 0.79108 0.76059 0.27489 0.0
H76 H 0.71159 0.80536 1.01774 0.0
C77 C 0.7132 0.81728 0.98312 0.0
C78 C 0.75469 0.82187 0.95654 0.0
C79 C 0.67564 0.83141 0.96593 0.0
H80 H 0.79063 0.84421 0.89283 0.0
C81 C 0.75768 0.8393 0.9125 0.0
C82 C 0.72004 0.85243 0.89446 0.0
C83 C 0.67882 0.84777 0.92129 0.0
C84 C 0.63525 0.83333 0.99531 0.0
H85 H 0.64954 0.85791 0.9078 0.0
C86 C 0.62421 0.87501 0.99611 0.0
C87 C 0.58611 0.87786 1.02361 0.0
C88 C 0.60783 0.79425 1.02261 0.0
H89 H 0.61561 0.76179 1.02255 0.0
C90 C 0.56952 0.79658 1.04967 0.0
H91 H 0.64561 0.90548 0.97543 0.0
C92 C 0.55859 0.838 1.05019 0.0
H93 H 0.52939 0.83922 0.07217 0.0
H94 H 0.54836 0.76625 0.07053 0.0
H95 H 0.91938 0.28965 0.55748 0.0
C96 C 0.90822 0.29296 0.52313 0.0
C97 C 0.93484 0.28352 0.48742 0.0
C98 C 0.86465 0.30163 0.51472 0.0
H99 H 0.94187 0.2805 0.41554 0.0
C100 C 0.92098 0.28778 0.44289 0.0
C101 C 0.87746 0.29579 0.43346 0.0
C102 C 0.84977 0.3031 0.46954 0.0
C103 C 0.83098 0.3023 0.55254 0.0
H104 H 0.81433 0.30576 0.4624 0.0
C105 C 0.80053 0.32906 0.54925 0.0
C106 C 0.76504 0.32589 0.5826 0.0
C107 C 0.82629 0.27339 0.59085 0.0
H108 H 0.84752 0.2509 0.59427 0.0
C109 C 0.79243 0.27148 0.62476 0.0
H110 H 0.8042 0.35231 0.5206 0.0
C111 C 0.76176 0.29724 0.62064 0.0
H112 H 0.73449 0.29362 0.64666 0.0
H113 H 0.78902 0.24887 0.65383 0.0
H114 H 0.45299 0.85027 0.28048 0.0
C115 C 0.41563 0.82866 0.26851 0.0
C116 C 0.39173 0.84879 0.23791 0.0
C117 C 0.39305 0.78003 0.28235 0.0
H118 H 0.32643 0.83342 0.19639 0.0
C119 C 0.34386 0.81926 0.22179 0.0
C120 C 0.31949 0.77083 0.23535 0.0
C121 C 0.3447 0.75155 0.26582 0.0
C122 C 0.42522 0.75732 0.30458 0.0
H123 H 0.32775 0.71399 0.27524 0.0
C124 C 0.41678 0.73582 0.34829 0.0
C125 C 0.45018 0.71561 0.36622 0.0
C126 C 0.46679 0.7581 0.28002 0.0
H127 H 0.47416 0.77393 0.24673 0.0
C128 C 0.49926 0.73856 0.29751 0.0
H129 H 0.38499 0.73481 0.36784 0.0
C130 C 0.49116 0.71765 0.33996 0.0
H131 H 0.51753 0.70313 0.35256 0.0
H132 H 0.53108 0.73966 0.27797 0.0
H133 H 0.25516 0.50381 0.79024 0.0
C134 C 0.23427 0.46836 0.77597 0.0
C135 C 0.24891 0.45456 0.73425 0.0
C136 C 0.1948 0.43561 0.80122 0.0
H137 H 0.23321 0.39579 0.68638 0.0
C138 C 0.22201 0.40742 0.71767 0.0
C139 C 0.18216 0.37392 0.74171 0.0
C140 C 0.16871 0.38853 0.78347 0.0
C141 C 0.19064 0.44568 0.85046 0.0
H142 H 0.14004 0.36237 0.8036 0.0
C143 C 0.16691 0.47589 0.86777 0.0
C144 C 0.16551 0.48348 0.91535 0.0
C145 C 0.21303 0.42448 0.88098 0.0
H146 H 0.23164 0.40168 0.86878 0.0
C147 C 0.21232 0.43258 0.92729 0.0
H148 H 0.14908 0.49229 0.84483 0.0
C149 C 0.18878 0.4616 0.9443 0.0
H150 H 0.18825 0.46663 0.98058 0.0
H151 H 0.22992 0.41597 0.95024 0.0
Tb152 Tb 0.09493 0.1104 0.58227 0.0
Tb153 Tb 0.98841 0.09152 0.63102 0.0
C154 C 0.99735 1.0156 0.56273 0.0
C155 C 0.21762 0.16332 0.52203 0.0
C156 C 0.2941 0.22834 0.47 0.0
C157 C 0.25186 0.23819 0.48062 0.0
C158 C 0.21366 0.20573 0.50651 0.0
C159 C 0.2615 0.1556 0.51464 0.0
C160 C 0.29954 0.1879 0.48886 0.0
C161 C 0.17476 0.12404 0.54095 0.0
O162 O 0.07189 0.1675 0.56077 0.0
O163 O 0.98956 0.11987 0.5637 0.0
O164 O 0.03804 0.16455 0.65167 0.0
O165 O 0.11474 0.16175 0.63907 0.0
O166 O 0.91137 0.0725 0.62248 0.0
O167 O 0.94802 0.10048 0.68641 0.0
O168 O 0.02043 0.05147 0.67332 0.0
O169 O 0.08493 0.05168 0.62769 0.0
O170 O 0.0366 0.05029 0.54552 0.0
O171 O 0.97742 1.02208 0.60067 0.0
C172 C 0.02571 0.15859 0.54943 0.0
O173 O 0.17118 0.12219 0.58483 0.0
O174 O 0.13186 0.11499 0.52107 0.0
C175 C 0.08676 0.18258 0.65739 0.0
C176 C 0.86523 0.04457 0.68948 0.0
C177 C 0.79467 0.97427 0.74302 0.0
C178 C 0.81539 1.0229 0.75719 0.0
C179 C 0.85001 0.05763 0.73053 0.0
C180 C 0.84341 0.99652 0.67415 0.0
C181 C 0.80812 0.9617 0.7006 0.0
C182 C 0.90551 0.08145 0.6648 0.0
C183 C 0.05609 0.03635 0.66293 0.0
H184 H 0.24674 0.26902 0.46627 0.0
H185 H 0.17999 0.2123 0.51217 0.0
H186 H 0.26519 0.12316 0.52664 0.0
H187 H 0.33204 0.17986 0.48149 0.0
H188 H 0.80698 0.034 0.78996 0.0
H189 H 0.86641 0.09456 0.74287 0.0
H190 H 0.85446 0.98557 0.6424 0.0
H191 H 0.79244 0.92477 0.68835 0.0
Tb192 Tb 0.58632 0.12898 0.12949 0.0
Tb193 Tb 0.47985 0.10596 0.0771 0.0
C194 C 0.54982 0.0518 1.0525 0.0
C195 C 0.70336 0.18334 0.19903 0.0
C196 C 0.77166 0.24152 0.26377 0.0
C197 C 0.78821 0.22171 0.2271 0.0
C198 C 0.75423 0.19262 0.19513 0.0
C199 C 0.68728 0.20668 0.23312 0.0
C200 C 0.72123 0.23552 0.26537 0.0
C201 C 0.6676 0.14548 0.17043 0.0
O202 O 0.59978 0.19334 0.08973 0.0
O203 O 0.53478 0.16439 1.0383 0.0
O204 O 0.49388 0.17135 0.11525 0.0
O205 O 0.54778 0.16522 0.16954 0.0
O206 O 0.43875 0.09433 1.01692 0.0
O207 O 0.40353 0.09305 0.08149 0.0
O208 O 0.46241 0.06095 0.13774 0.0
O209 O 0.53811 0.0557 0.14855 0.0
O210 O 0.58757 0.08933 0.06807 0.0
O211 O 0.50379 0.04845 0.05754 0.0
C212 C 0.57751 0.19773 1.05223 0.0
O213 O 0.62377 0.12192 0.18769 0.0
O214 O 0.66481 0.15565 0.12808 0.0
C215 C 0.51756 0.1848 0.15389 0.0
C216 C 0.35638 0.03903 1.02495 0.0
C217 C 0.28221 0.95621 0.98676 0.0
C218 C 0.2711 0.99624 0.99939 0.0
C219 C 0.3081 0.0375 1.01804 0.0
C220 C 0.36649 0.9978 1.0162 0.0
C221 C 0.32984 0.95684 0.99702 0.0
C222 C 0.39673 0.0845 1.03819 0.0
C223 C 0.48968 0.03884 0.15493 0.0
H224 H 0.82702 0.22646 0.22458 0.0
H225 H 0.76733 0.17531 0.16873 0.0
H226 H 0.64814 0.20044 0.23639 0.0
H227 H 0.70729 0.25013 0.29328 0.0
H228 H 0.23451 0.99657 0.99288 0.0
H229 H 0.29956 0.06887 1.02533 0.0
H230 H 0.40351 0.99815 1.02194 0.0
H231 H 0.34013 0.92709 0.98745 0.0
Tb232 Tb 0.5217 0.56282 0.58338 0.0
Tb233 Tb 0.53181 0.66212 0.63498 0.0
C234 C 0.48391 0.6375 0.5364 0.0
C235 C 0.55474 0.46195 0.5516 0.0
C236 C 0.62372 0.41761 0.56098 0.0
C237 C 0.58041 0.39598 0.53416 0.0
C238 C 0.54613 0.41804 0.52953 0.0
C239 C 0.59783 0.48367 0.57828 0.0
C240 C 0.63204 0.46178 0.58287 0.0
C241 C 0.51927 0.4856 0.54723 0.0
O242 O 0.6007 0.60996 0.57807 0.0
O243 O 0.59681 0.68385 0.59125 0.0
O244 O 0.58102 0.63586 0.67358 0.0
O245 O 0.54414 0.55615 0.65305 0.0
O246 O 0.53951 0.73456 0.63321 0.0
O247 O 0.5298 0.69719 0.6963 0.0
O248 O 0.46791 0.60429 0.66354 0.0
O249 O 0.44568 0.55201 0.60354 0.0
O250 O 0.50286 0.60442 0.53147 0.0
O251 O 0.48297 0.65692 0.57633 0.0
C252 C 0.62025 0.65733 0.57549 0.0
O253 O 0.4955 0.48718 0.58401 0.0
O254 O 0.53669 0.52727 0.52743 0.0
C255 C 0.57282 0.59014 0.68076 0.0
C256 C 0.48616 0.7477 0.68687 0.0
C257 C 0.40067 0.76467 0.71237 0.0
C258 C 0.4444 0.78199 0.73922 0.0
C259 C 0.48671 0.77361 0.72653 0.0
C260 C 0.4428 0.73052 0.65981 0.0
C261 C 0.40058 0.73912 0.67231 0.0
C262 C 0.52905 0.73506 0.67591 0.0
C263 C 0.43492 0.56717 0.64233 0.0
H264 H 0.57265 0.36169 0.51729 0.0
H265 H 0.51293 0.40081 0.50891 0.0
H266 H 0.60507 0.5177 0.59551 0.0
H267 H 0.66531 0.47978 0.60318 0.0
H268 H 0.44561 0.80103 0.77072 0.0
H269 H 0.5195 0.78644 0.74822 0.0
H270 H 0.44129 0.70985 0.62928 0.0
H271 H 0.36791 0.72574 0.65055 0.0
Tb272 Tb 0.04486 0.66075 0.0756 0.0
Tb273 Tb 0.03134 0.56781 0.13727 0.0
C274 C 0.07873 0.58043 1.0392 0.0
C275 C 1.00453 0.74748 1.02173 0.0
C276 C 0.92307 0.77463 1.0058 0.0
C277 C 0.96577 0.79199 0.9783 0.0
C278 C 1.0062 0.77854 0.98627 0.0
C279 C 0.96211 0.7302 1.04916 0.0
C280 C 0.922 0.74383 1.04152 0.0
C281 C 0.0456 0.73117 1.02941 0.0
O282 O 0.97706 0.60264 1.05138 0.0
O283 O 0.95516 0.55309 0.11289 0.0
O284 O 1.01025 0.61459 0.18302 0.0
O285 O 0.99349 0.66084 0.12934 0.0
O286 O 1.01213 0.49297 0.14227 0.0
O287 O 0.04426 0.5402 0.19891 0.0
O288 O 0.11092 0.61465 0.1398 0.0
O289 O 0.10503 0.68664 0.12555 0.0
O290 O 0.09171 0.62748 1.04264 0.0
O291 O 0.04768 0.55156 0.06836 0.0
C292 C 0.94393 0.56711 0.07362 0.0
O293 O 0.06194 0.73513 0.07088 0.0
O294 O 0.03881 0.68911 1.01211 0.0
C295 C 0.99263 0.64725 0.17157 0.0
C296 C 0.0765 0.48184 0.18282 0.0
C297 C 0.16375 0.46196 0.19002 0.0
C298 C 0.12367 0.44088 0.21992 0.0
C299 C 0.08044 0.45096 0.21645 0.0
C300 C 0.11573 0.50181 0.15231 0.0
C301 C 0.15885 0.49224 0.15597 0.0
C302 C 0.03445 0.49762 0.18135 0.0
C303 C 0.12914 0.66191 0.1432 0.0
H304 H 0.96758 0.81515 0.95 0.0
H305 H 0.0384 0.79184 0.96444 0.0
H306 H 0.95971 0.70581 0.07642 0.0
H307 H 0.89022 0.73027 0.06377 0.0
H308 H 0.12583 0.41698 0.24625 0.0
H309 H 0.05065 0.43548 0.2405 0.0
H310 H 0.11369 0.52613 0.12632 0.0
H311 H 0.18904 0.51013 0.13294 0.0
C312 C 0.37843 0.32976 0.39666 0.0
C313 C 0.38742 0.30344 0.36056 0.0
H314 H 0.3417 0.32654 0.46019 0.0
C315 C 0.36626 0.25278 0.36171 0.0
H316 H 0.39426 0.36881 0.39681 0.0
C317 C 0.33738 0.229 0.39799 0.0
C318 C 0.3281 0.25509 0.43385 0.0
H319 H 0.37069 0.23117 0.33389 0.0
H320 H 0.32081 0.18993 0.39721 0.0
C321 C 0.34865 0.30572 0.43294 0.0
C322 C 0.20125 0.89783 0.88592 0.0
C323 C 0.20435 0.85238 0.8851 0.0
H324 H 0.22373 0.9664 0.91846 0.0
C325 C 0.2251 0.83808 0.92243 0.0
H326 H 0.18592 0.91004 0.85739 0.0
C327 C 0.24637 0.87038 0.95811 0.0
C328 C 0.24794 0.91774 0.95663 0.0
H329 H 0.22732 0.80292 0.92279 0.0
H330 H 0.26421 0.8592 0.98547 0.0
C331 C 0.22293 0.93023 0.92121 0.0
C332 C 0.63091 0.5954 0.79836 0.0
C333 C 0.62105 0.54651 0.80728 0.0
H334 H 0.62417 0.6475 0.75239 0.0
C335 C 0.59967 0.51273 0.77224 0.0
H336 H 0.64695 0.62246 0.82459 0.0
C337 C 0.58595 0.52711 0.73064 0.0
C338 C 0.59332 0.57575 0.72271 0.0
H339 H 0.59072 0.47478 0.77796 0.0
H340 H 0.56776 0.49964 0.70528 0.0
C341 C 0.61751 0.6098 0.75685 0.0
C342 C 0.94258 0.73417 0.22738 0.0
C343 C 0.92465 0.71274 0.26929 0.0
H344 H 0.97682 0.73056 0.16443 0.0
C345 C 0.93273 0.67083 0.28055 0.0
H346 H 0.93762 0.76668 0.21755 0.0
C347 C 0.95582 0.64983 0.24962 0.0
C348 C 0.97089 0.67 0.20657 0.0
H349 H 0.91907 0.653 0.31222 0.0
H350 H 0.96022 0.61689 0.2588 0.0
C351 C 0.96486 0.71311 0.19658 0.0
C352 C 0.47144 0.28294 0.18334 0.0
C353 C 0.48722 0.29401 0.22841 0.0
H354 H 0.46859 0.24025 0.12485 0.0
C355 C 0.51657 0.27125 0.24808 0.0
H356 H 0.44811 0.29902 0.16726 0.0
C357 C 0.52786 0.23656 0.22375 0.0
C358 C 0.50977 0.22391 0.1794 0.0
H359 H 0.52963 0.2793 0.28269 0.0
H360 H 0.5494 0.21873 0.24009 0.0
C361 C 0.4826 0.24848 0.15918 0.0
C362 C 0.10644 0.94426 0.69882 0.0
C363 C 0.06235 0.90414 0.70733 0.0
H364 H 0.13893 1.01808 0.67893 0.0
C365 C 0.01668 0.9102 0.70758 0.0
H366 H 0.14217 0.94075 0.69803 0.0
C367 C 1.01497 0.95498 0.6973 0.0
C368 C 0.05882 0.99409 0.68589 0.0
H369 H 0.98217 0.88 0.71443 0.0
H370 H 0.97904 0.95799 0.69519 0.0
C371 C 0.10464 0.98862 0.68797 0.0
C372 C 0.80754 0.48233 1.05362 0.0
C373 C 0.79827 0.4934 1.00898 0.0
H374 H 0.85987 0.49608 0.10881 0.0
C375 C 0.8371 0.53011 0.98685 0.0
H376 H 0.77851 0.45528 0.07259 0.0
C377 C 0.88371 0.55402 1.00807 0.0
C378 C 0.89333 0.54204 1.0522 0.0
H379 H 0.83199 0.53968 0.95255 0.0
H380 H 0.91255 0.5816 0.98937 0.0
C381 C 0.85433 0.50604 0.07475 0.0
C382 C 0.74006 0.6789 0.50938 0.0
C383 C 0.76221 0.72963 0.5078 0.0
H384 H 0.67872 0.6163 0.53227 0.0
C385 C 0.73736 0.75594 0.5293 0.0
H386 H 0.75805 0.65736 0.49344 0.0
C387 C 0.69208 0.73251 0.55165 0.0
C388 C 0.66986 0.68186 0.55333 0.0
H389 H 0.75241 0.79495 0.52817 0.0
H390 H 0.67424 0.75436 0.56726 0.0
C391 C 0.69464 0.65535 0.53197 0.0
C392 C 0.27885 0.45127 0.24288 0.0
C393 C 0.30777 0.45291 0.20459 0.0
H394 H 0.21113 0.45382 0.26854 0.0
C395 C 0.2875 0.45338 0.16158 0.0
H396 H 0.29381 0.45096 0.27642 0.0
C397 C 0.23982 0.45381 0.15689 0.0
C398 C 0.21161 0.45485 0.19517 0.0
H399 H 0.30879 0.45382 0.13151 0.0
H400 H 0.22545 0.45413 0.12313 0.0
C401 C 0.23137 0.45258 0.23826 0.0
C402 C 0.59685 0.31627 0.99361 0.0
C403 C 0.64921 0.33694 0.98837 0.0
H404 H 0.53305 0.25589 1.01705 0.0
C405 C 0.67624 0.30837 1.00015 0.0
H406 H 0.57432 0.33664 0.98554 0.0
C407 C 0.65267 0.2629 1.0197 0.0
C408 C 0.60091 0.2433 1.02643 0.0
H409 H 0.71616 0.32145 0.99528 0.0
H410 H 0.67517 0.24316 1.03006 0.0
C411 C 0.57301 0.26987 1.01194 0.0
C412 C 0.9458 0.91634 0.47218 0.0
C413 C 0.92339 0.87477 0.4987 0.0
H414 H 0.98715 0.99335 0.47129 0.0
C415 C 0.92997 0.88025 0.54599 0.0
H416 H 0.94159 0.91412 0.43578 0.0
C417 C 0.95451 0.92571 0.56619 0.0
C418 C 0.97493 0.96734 0.53989 0.0
H419 H 0.91512 0.84935 0.56786 0.0
H420 H 0.95725 0.92829 0.60271 0.0
C421 C 0.97168 0.96198 0.49254 0.0
C422 C 0.26493 0.74346 0.73627 0.0
C423 C 0.27014 0.78641 0.75884 0.0
H424 H 0.30217 0.70229 0.7048 0.0
C425 C 0.31793 0.823 0.76368 0.0
H426 H 0.22847 0.71472 0.73219 0.0
C427 C 0.35991 0.81631 0.74768 0.0
C428 C 0.35528 0.77267 0.72664 0.0
H429 H 0.32289 0.85689 0.78018 0.0
H430 H 0.39609 0.8454 0.75195 0.0
C431 C 0.30715 0.73653 0.72052 0.0
C432 C 0.71607 0.9175 0.84416 0.0
C433 C 0.72758 0.87657 0.84998 0.0
H434 H 0.7262 0.97942 0.80438 0.0
C435 C 0.75277 0.86318 0.81533 0.0
H436 H 0.6966 0.92895 0.86998 0.0
C437 C 0.77145 0.89321 0.77849 0.0
C438 C 0.76436 0.93676 0.77505 0.0
H439 H 0.7609 0.83104 0.81809 0.0
H440 H 0.7946 0.88388 0.75473 0.0
C441 C 0.7338 0.94697 0.80679 0.0
C442 C 0.85796 0.24846 0.36118 0.0
C443 C 0.85605 0.2872 0.38699 0.0
H444 H 0.83312 0.20409 0.30243 0.0
C445 C 0.82957 0.31396 0.36974 0.0
H446 H 0.8766 0.226 0.3738 0.0
C447 C 0.8039 0.30086 0.32844 0.0
C448 C 0.80459 0.26101 0.30363 0.0
H449 H 0.82764 0.34416 0.38871 0.0
H450 H 0.78253 0.32108 0.31648 0.0
C451 C 0.83282 0.23572 0.32004 0.0
C452 C 0.44656 0.64551 0.41373 0.0
C453 C 0.44515 0.6918 0.41156 0.0
H454 H 0.45955 0.59243 0.45381 0.0
C455 C 0.45058 0.71791 0.45239 0.0
H456 H 0.44293 0.62443 0.38305 0.0
C457 C 0.46028 0.69936 0.49359 0.0
C458 C 0.46532 0.65444 0.4949 0.0
H459 H 0.4507 0.75398 0.45201 0.0
H460 H 0.46671 0.72147 0.52389 0.0
C461 C 0.45662 0.62728 0.45447 0.0
C462 C 0.15997 0.56113 0.94433 0.0
C463 C 0.1378 0.51075 0.93751 0.0
H464 H 0.15894 0.62304 0.98126 0.0
C465 C 0.09447 0.48479 0.9619 0.0
H466 H 0.19425 0.58202 0.92715 0.0
C467 C 0.07494 0.50787 0.99341 0.0
C468 C 0.09798 0.55794 1.00187 0.0
H469 H 0.07717 0.4459 0.95839 0.0
H470 H 0.04234 0.4859 1.01225 0.0
C471 C 0.14004 0.58453 0.97582 0.0
C472 C 0.61651 0.96816 1.02839 0.0
C473 C 0.57651 0.92301 1.02584 0.0
H474 H 0.63955 0.04433 1.038 0.0
C475 C 0.52751 0.92136 1.02719 0.0
H476 H 0.65473 0.97072 1.02779 0.0
C477 C 0.51875 0.96368 1.03288 0.0
C478 C 0.55884 1.0086 1.0377 0.0
H479 H 0.49589 0.88722 1.02461 0.0
H480 H 0.48053 0.96083 1.03546 0.0
C481 C 0.60779 1.01043 1.03429 0.0
C482 C 0.95449 0.21095 0.47653 0.0
C483 C 0.96732 0.2569 0.49639 0.0
H484 H 0.9633 0.14351 0.47825 0.0
C485 C 1.00533 0.27275 0.52933 0.0
H486 H 0.92471 0.1975 0.4516 0.0
C487 C 0.02826 0.24199 0.5438 0.0
C488 C 1.01233 0.19479 0.52628 0.0
H489 H 0.01546 0.30784 0.54533 0.0
H490 H 0.05547 0.25368 0.57108 0.0
C491 C 0.97636 0.17997 0.49177 0.0
C492 C 0.25588 0.69198 0.20227 0.0
C493 C 0.26912 0.7408 0.21486 0.0
H494 H 0.20184 0.62878 0.16985 0.0
C495 C 0.23475 0.76215 0.20491 0.0
H496 H 0.28119 0.67411 0.20883 0.0
C497 C 0.19002 0.73659 0.18164 0.0
C498 C 0.17729 0.68831 0.16807 0.0
H499 H 0.24247 0.79909 0.21491 0.0
H500 H 0.16519 0.75486 0.17449 0.0
C501 C 0.21046 0.66602 0.17942 0.0
C502 C 0.2991 0.48416 0.66239 0.0
C503 C 0.29507 0.48692 0.70985 0.0
H504 H 0.34599 0.50629 0.604 0.0
C505 C 0.33715 0.51827 0.73402 0.0
H506 H 0.26753 0.46159 0.64205 0.0
C507 C 0.38172 0.54493 0.71182 0.0
C508 C 0.38618 0.54053 0.66479 0.0
H509 H 0.33657 0.52113 0.77046 0.0
H510 H 0.41335 0.56791 0.73193 0.0
C511 C 0.34414 0.51007 0.6403 0.0
C512 C 0.78936 0.76535 0.99089 0.0
C513 C 0.79691 0.81123 0.97455 0.0
H514 H 0.82329 0.71723 1.01233 0.0
C515 C 0.84581 0.84586 0.97117 0.0
H516 H 0.75199 0.73795 0.99334 0.0
C517 C 0.8866 0.83436 0.98233 0.0
C518 C 0.87945 0.78778 0.99681 0.0
H519 H 0.85249 0.8817 0.95901 0.0
H520 H 0.92378 0.8619 0.97921 0.0
C521 C 0.83026 0.75362 1.00171 0.0
C522 C 0.39056 0.92803 0.20909 0.0
C523 C 0.41763 0.89924 0.21983 0.0
H524 H 0.39139 0.99385 0.18061 0.0
C525 C 0.46918 0.91822 0.21071 0.0
H526 H 0.35104 0.91542 0.21608 0.0
C527 C 0.49249 0.96372 0.1908 0.0
C528 C 0.46512 0.99185 0.17905 0.0
H529 H 0.49149 0.8973 0.21756 0.0
H530 H 0.53197 0.97628 0.18358 0.0
C531 C 0.41383 0.97341 0.18889 0.0
C532 C 0.18601 0.29906 0.70479 0.0
C533 C 0.15731 0.32308 0.72372 0.0
H534 H 0.18689 0.23669 0.66964 0.0
C535 C 0.10505 0.299 0.72295 0.0
H536 H 0.22637 0.3159 0.70537 0.0
C537 C 0.08223 0.25318 0.7023 0.0
C538 C 0.11101 0.22985 0.68217 0.0
H539 H 0.08169 0.31626 0.737 0.0
H540 H 0.04187 0.23643 0.70145 0.0
C541 C 0.16329 0.25328 0.68442 0.0
C542 C 0.71701 0.37291 0.61379 0.0
C543 C 0.72993 0.3506 0.5768 0.0
H544 H 0.67286 0.41075 0.638 0.0
C545 C 0.70772 0.35059 0.53447 0.0
H546 H 0.73368 0.37383 0.64677 0.0
C547 C 0.67323 0.37222 0.5293 0.0
C548 C 0.66016 0.39434 0.56636 0.0
H549 H 0.71633 0.33312 0.50541 0.0
H550 H 0.65711 0.37194 0.49618 0.0
C551 C 0.6825 0.39448 0.60864 0.0
loop_
_geom_bond_atom_site_label_1
_geom_bond_atom_site_label_2
_geom_bond_distance
_geom_bond_site_symmetry_2
_ccdc_geom_bond_type
H0 C1 0.949 . S
C1 H0 0.949 . S
C1 C2 1.395 . S
C1 C3 1.391 . S
C2 C1 1.395 . S
C2 C5 1.390 . S
C3 C1 1.391 . S
C3 C7 1.387 . S
C3 C8 1.491 . S
H4 C5 0.950 . S
C5 C2 1.390 . S
C5 H4 0.950 . S
C5 C6 1.378 . S
C6 C5 1.378 . S
C6 C7 1.409 . S
C7 C3 1.387 . S
C7 C6 1.409 . S
C7 H9 0.951 . S
C8 C3 1.491 . S
C8 C10 1.382 . S
C8 C12 1.404 . S
H9 C7 0.951 . S
C10 C8 1.382 . S
C10 C11 1.390 . S
C10 H15 0.949 . S
C11 C10 1.390 . S
C11 C16 1.399 . S
C12 C8 1.404 . S
C12 H13 0.950 . S
C12 C14 1.375 . S
H13 C12 0.950 . S
C14 C12 1.375 . S
C14 C16 1.382 . S
C14 H18 0.950 . S
H15 C10 0.949 . S
C16 C11 1.399 . S
C16 C14 1.382 . S
C16 H17 0.952 . S
H17 C16 0.952 . S
H18 C14 0.950 . S
H19 C20 0.949 . S
C20 H19 0.949 . S
C20 C21 1.395 . S
C20 C22 1.391 . S
C21 C20 1.395 . S
C21 C24 1.390 . S
C22 C20 1.391 . S
C22 C26 1.387 . S
C22 C27 1.491 . S
H23 C24 0.950 . S
C24 C21 1.390 . S
C24 H23 0.950 . S
C24 C25 1.378 . S
C25 C24 1.378 . S
C25 C26 1.409 . S
C26 C22 1.387 . S
C26 C25 1.409 . S
C26 H28 0.951 . S
C27 C22 1.491 . S
C27 C29 1.382 . S
C27 C31 1.404 . S
H28 C26 0.951 . S
C29 C27 1.382 . S
C29 C30 1.390 1_455 S
C29 H34 0.949 . S
C30 C29 1.390 1_655 S
C30 C35 1.399 . S
C31 C27 1.404 . S
C31 H32 0.950 . S
C31 C33 1.375 1_455 S
H32 C31 0.950 . S
C33 C31 1.375 1_655 S
C33 C35 1.382 . S
C33 H37 0.950 . S
H34 C29 0.949 . S
C35 C30 1.399 . S
C35 C33 1.382 . S
C35 H36 0.952 . S
H36 C35 0.952 . S
H37 C33 0.950 . S
H38 C39 0.949 . S
C39 H38 0.949 . S
C39 C40 1.395 . S
C39 C41 1.391 . S
C40 C39 1.395 . S
C40 C43 1.390 . S
C41 C39 1.391 . S
C41 C45 1.387 . S
C41 C46 1.491 . S
H42 C43 0.950 . S
C43 C40 1.390 . S
C43 H42 0.950 . S
C43 C44 1.378 . S
C44 C43 1.378 . S
C44 C45 1.409 . S
C45 C41 1.387 . S
C45 C44 1.409 . S
C45 H47 0.951 . S
C46 C41 1.491 . S
C46 C48 1.382 . S
C46 C50 1.404 . S
H47 C45 0.951 . S
C48 C46 1.382 . S
C48 C49 1.390 . S
C48 H53 0.949 . S
C49 C48 1.390 . S
C49 C54 1.399 . S
C50 C46 1.404 . S
C50 H51 0.950 . S
C50 C52 1.375 . S
H51 C50 0.950 . S
C52 C50 1.375 . S
C52 C54 1.382 . S
C52 H56 0.950 . S
H53 C48 0.949 . S
C54 C49 1.399 . S
C54 C52 1.382 . S
C54 H55 0.952 . S
H55 C54 0.952 . S
H56 C52 0.950 . S
H57 C58 0.949 . S
C58 H57 0.949 . S
C58 C59 1.395 . S
C58 C60 1.391 . S
C59 C58 1.395 . S
C59 C62 1.390 . S
C60 C58 1.391 . S
C60 C64 1.387 . S
C60 C65 1.491 . S
H61 C62 0.950 . S
C62 C59 1.390 . S
C62 H61 0.950 . S
C62 C63 1.378 . S
C63 C62 1.378 . S
C63 C64 1.409 . S
C64 C60 1.387 . S
C64 C63 1.409 . S
C64 H66 0.951 . S
C65 C60 1.491 . S
C65 C67 1.382 . S
C65 C69 1.404 . S
H66 C64 0.951 . S
C67 C65 1.382 . S
C67 C68 1.390 . S
C67 H72 0.949 . S
C68 C67 1.390 . S
C68 C73 1.399 . S
C69 C65 1.404 . S
C69 H70 0.950 . S
C69 C71 1.375 . S
H70 C69 0.950 . S
C71 C69 1.375 . S
C71 C73 1.382 . S
C71 H75 0.950 . S
H72 C67 0.949 . S
C73 C68 1.399 . S
C73 C71 1.382 . S
C73 H74 0.952 . S
H74 C73 0.952 . S
H75 C71 0.950 . S
H76 C77 0.949 . S
C77 H76 0.949 . S
C77 C78 1.395 . S
C77 C79 1.391 . S
C78 C77 1.395 . S
C78 C81 1.390 . S
C79 C77 1.391 . S
C79 C83 1.387 . S
C79 C84 1.491 . S
H80 C81 0.950 . S
C81 C78 1.390 . S
C81 H80 0.950 . S
C81 C82 1.378 . S
C82 C81 1.378 . S
C82 C83 1.409 . S
C83 C79 1.387 . S
C83 C82 1.409 . S
C83 H85 0.951 . S
C84 C79 1.491 . S
C84 C86 1.382 . S
C84 C88 1.404 . S
H85 C83 0.951 . S
C86 C84 1.382 . S
C86 C87 1.390 . S
C86 H91 0.949 . S
C87 C86 1.390 . S
C87 C92 1.399 . S
C88 C84 1.404 . S
C88 H89 0.950 . S
C88 C90 1.375 . S
H89 C88 0.950 . S
C90 C88 1.375 . S
C90 C92 1.382 . S
C90 H94 0.950 . S
H91 C86 0.949 . S
C92 C87 1.399 . S
C92 C90 1.382 . S
C92 H93 0.952 . S
H93 C92 0.952 . S
H94 C90 0.950 . S
H95 C96 0.949 . S
C96 H95 0.949 . S
C96 C97 1.395 . S
C96 C98 1.391 . S
C97 C96 1.395 . S
C97 C100 1.390 . S
C98 C96 1.391 . S
C98 C102 1.387 . S
C98 C103 1.491 . S
H99 C100 0.950 . S
C100 C97 1.390 . S
C100 H99 0.950 . S
C100 C101 1.378 . S
C101 C100 1.378 . S
C101 C102 1.409 . S
C102 C98 1.387 . S
C102 C101 1.409 . S
C102 H104 0.951 . S
C103 C98 1.491 . S
C103 C105 1.382 . S
C103 C107 1.404 . S
H104 C102 0.951 . S
C105 C103 1.382 . S
C105 C106 1.390 . S
C105 H110 0.949 . S
C106 C105 1.390 . S
C106 C111 1.399 . S
C107 C103 1.404 . S
C107 H108 0.950 . S
C107 C109 1.375 . S
H108 C107 0.950 . S
C109 C107 1.375 . S
C109 C111 1.382 . S
C109 H113 0.950 . S
H110 C105 0.949 . S
C111 C106 1.399 . S
C111 C109 1.382 . S
C111 H112 0.952 . S
H112 C111 0.952 . S
H113 C109 0.950 . S
H114 C115 0.949 . S
C115 H114 0.949 . S
C115 C116 1.395 . S
C115 C117 1.391 . S
C116 C115 1.395 . S
C116 C119 1.390 . S
C117 C115 1.391 . S
C117 C121 1.387 . S
C117 C122 1.491 . S
H118 C119 0.950 . S
C119 C116 1.390 . S
C119 H118 0.950 . S
C119 C120 1.378 . S
C120 C119 1.378 . S
C120 C121 1.409 . S
C121 C117 1.387 . S
C121 C120 1.409 . S
C121 H123 0.951 . S
C122 C117 1.491 . S
C122 C124 1.382 . S
C122 C126 1.404 . S
H123 C121 0.951 . S
C124 C122 1.382 . S
C124 C125 1.390 . S
C124 H129 0.949 . S
C125 C124 1.390 . S
C125 C130 1.399 . S
C126 C122 1.404 . S
C126 H127 0.950 . S
C126 C128 1.375 . S
H127 C126 0.950 . S
C128 C126 1.375 . S
C128 C130 1.382 . S
C128 H132 0.950 . S
H129 C124 0.949 . S
C130 C125 1.399 . S
C130 C128 1.382 . S
C130 H131 0.952 . S
H131 C130 0.952 . S
H132 C128 0.950 . S
H133 C134 0.949 . S
C134 H133 0.949 . S
C134 C135 1.395 . S
C134 C136 1.391 . S
C135 C134 1.395 . S
C135 C138 1.390 . S
C136 C134 1.391 . S
C136 C140 1.387 . S
C136 C141 1.491 . S
H137 C138 0.950 . S
C138 C135 1.390 . S
C138 H137 0.950 . S
C138 C139 1.378 . S
C139 C138 1.378 . S
C139 C140 1.409 . S
C140 C136 1.387 . S
C140 C139 1.409 . S
C140 H142 0.951 . S
C141 C136 1.491 . S
C141 C143 1.382 . S
C141 C145 1.404 . S
H142 C140 0.951 . S
C143 C141 1.382 . S
C143 C144 1.390 . S
C143 H148 0.949 . S
C144 C143 1.390 . S
C144 C149 1.399 . S
C145 C141 1.404 . S
C145 H146 0.950 . S
C145 C147 1.375 . S
H146 C145 0.950 . S
C147 C145 1.375 . S
C147 C149 1.382 . S
C147 H151 0.950 . S
H148 C143 0.949 . S
C149 C144 1.399 . S
C149 C147 1.382 . S
C149 H150 0.952 . S
H150 C149 0.952 . S
H151 C147 0.950 . S
Tb152 C161 2.764 . S
Tb152 O162 2.325 . S
Tb152 O165 2.303 . S
Tb152 O169 2.322 . S
Tb152 O170 2.349 1_545 S
Tb152 O173 2.415 . S
Tb152 O174 2.399 . S
Tb153 O163 2.322 . S
Tb153 O164 2.349 1_655 S
Tb153 O166 2.415 1_545 S
Tb153 O167 2.399 . S
Tb153 O168 2.325 1_655 S
Tb153 O171 2.303 1_545 S
Tb153 C182 2.764 1_545 S
C154 O170 1.261 1_655 S
C154 O171 1.257 . S
C155 C158 1.358 . S
C155 C159 1.332 . S
C155 C161 1.504 . S
C156 C157 1.373 . S
C156 C160 1.308 . S
C157 C156 1.373 . S
C157 C158 1.429 . S
C157 H184 0.932 . S
C158 C155 1.358 . S
C158 C157 1.429 . S
C158 H185 0.930 . S
C159 C155 1.332 . S
C159 C160 1.394 . S
C159 H186 0.932 . S
C160 C156 1.308 . S
C160 C159 1.394 . S
C160 H187 0.929 . S
C161 Tb152 2.764 . S
C161 C155 1.504 . S
C161 O173 1.239 . S
C161 O174 1.263 . S
O162 Tb152 2.325 . S
O162 C172 1.236 1_455 S
O163 Tb153 2.322 . S
O163 C172 1.257 . S
O164 Tb153 2.349 1_455 S
O164 C175 1.261 . S
O165 Tb152 2.303 . S
O165 C175 1.257 . S
O166 Tb153 2.415 1_565 S
O166 C182 1.239 . S
O167 Tb153 2.399 . S
O167 C182 1.263 1_545 S
O168 Tb153 2.325 1_455 S
O168 C183 1.236 1_545 S
O169 Tb152 2.322 . S
O169 C183 1.257 1_545 S
O170 Tb152 2.349 1_565 S
O170 C154 1.261 1_455 S
O171 Tb153 2.303 1_565 S
O171 C154 1.257 . S
C172 O162 1.236 1_655 S
C172 O163 1.257 . S
O173 Tb152 2.415 . S
O173 C161 1.239 . S
O174 Tb152 2.399 . S
O174 C161 1.263 . S
C175 O164 1.261 . S
C175 O165 1.257 . S
C176 C179 1.358 . S
C176 C180 1.332 . S
C176 C182 1.504 . S
C177 C178 1.373 . S
C177 C181 1.308 . S
C178 C177 1.373 . S
C178 C179 1.429 . S
C178 H188 0.932 . S
C179 C176 1.358 . S
C179 C178 1.429 . S
C179 H189 0.930 . S
C180 C176 1.332 . S
C180 C181 1.394 . S
C180 H190 0.932 . S
C181 C177 1.308 . S
C181 C180 1.394 . S
C181 H191 0.929 . S
C182 Tb153 2.764 1_565 S
C182 O166 1.239 . S
C182 O167 1.263 1_565 S
C182 C176 1.504 . S
C183 O168 1.236 1_565 S
C183 O169 1.257 1_565 S
H184 C157 0.932 . S
H185 C158 0.930 . S
H186 C159 0.932 . S
H187 C160 0.929 . S
H188 C178 0.932 . S
H189 C179 0.930 . S
H190 C180 0.932 . S
H191 C181 0.929 . S
Tb192 C201 2.764 . S
Tb192 O202 2.325 . S
Tb192 O205 2.303 . S
Tb192 O209 2.322 1_545 S
Tb192 O210 2.349 . S
Tb192 O213 2.415 . S
Tb192 O214 2.399 . S
Tb193 O203 2.322 . S
Tb193 O204 2.349 . S
Tb193 O206 2.409 1_544 S
Tb193 O207 2.399 1_545 S
Tb193 O208 2.325 1_545 S
Tb193 O211 2.303 . S
Tb193 C222 2.771 1_545 S
C194 O210 1.261 1_565 S
C194 O211 1.257 1_565 S
C195 C198 1.358 . S
C195 C199 1.332 . S
C195 C201 1.504 . S
C196 C197 1.373 . S
C196 C200 1.308 . S
C197 C196 1.373 . S
C197 C198 1.429 . S
C197 H224 0.932 . S
C198 C195 1.358 . S
C198 C197 1.429 . S
C198 H225 0.930 . S
C199 C195 1.332 . S
C199 C200 1.394 . S
C199 H226 0.932 . S
C200 C196 1.308 . S
C200 C199 1.394 . S
C200 H227 0.929 . S
C201 Tb192 2.764 . S
C201 C195 1.504 . S
C201 O213 1.239 . S
C201 O214 1.263 . S
O202 Tb192 2.325 . S
O202 C212 1.236 . S
O203 Tb193 2.322 . S
O203 C212 1.257 . S
O204 Tb193 2.349 . S
O204 C215 1.261 . S
O205 Tb192 2.303 . S
O205 C215 1.257 . S
O206 Tb193 2.409 1_566 S
O206 C222 1.239 1_556 S
O207 Tb193 2.399 1_565 S
O207 C222 1.270 . S
O208 Tb193 2.325 1_565 S
O208 C223 1.236 . S
O209 Tb192 2.322 1_565 S
O209 C223 1.257 . S
O210 Tb192 2.349 . S
O210 C194 1.261 1_545 S
O211 Tb193 2.303 . S
O211 C194 1.257 1_545 S
C212 O202 1.236 . S
C212 O203 1.257 . S
O213 Tb192 2.415 . S
O213 C201 1.239 . S
O214 Tb192 2.399 . S
O214 C201 1.263 . S
C215 O204 1.261 . S
C215 O205 1.257 . S
C216 C219 1.358 . S
C216 C220 1.332 . S
C216 C222 1.496 1_556 S
C217 C218 1.373 . S
C217 C221 1.308 . S
C218 C217 1.373 . S
C218 C219 1.429 . S
C218 H228 0.932 . S
C219 C216 1.358 . S
C219 C218 1.429 . S
C219 H229 0.930 . S
C220 C216 1.332 . S
C220 C221 1.394 . S
C220 H230 0.932 . S
C221 C217 1.308 . S
C221 C220 1.394 . S
C221 H231 0.929 . S
C222 Tb193 2.771 1_565 S
C222 O206 1.239 1_554 S
C222 O207 1.270 . S
C222 C216 1.496 1_554 S
C223 O208 1.236 . S
C223 O209 1.257 . S
H224 C197 0.932 . S
H225 C198 0.930 . S
H226 C199 0.932 . S
H227 C200 0.929 . S
H228 C218 0.932 . S
H229 C219 0.930 . S
H230 C220 0.932 . S
H231 C221 0.929 . S
Tb232 C241 2.764 . S
Tb232 O242 2.325 . S
Tb232 O245 2.303 . S
Tb232 O249 2.322 . S
Tb232 O250 2.349 . S
Tb232 O253 2.415 . S
Tb232 O254 2.399 . S
Tb233 O243 2.322 . S
Tb233 O244 2.349 . S
Tb233 O246 2.415 . S
Tb233 O247 2.399 . S
Tb233 O248 2.325 . S
Tb233 O251 2.303 . S
Tb233 C262 2.764 . S
C234 O250 1.261 . S
C234 O251 1.257 . S
C235 C238 1.358 . S
C235 C239 1.332 . S
C235 C241 1.504 . S
C236 C237 1.373 . S
C236 C240 1.308 . S
C237 C236 1.373 . S
C237 C238 1.429 . S
C237 H264 0.932 . S
C238 C235 1.358 . S
C238 C237 1.429 . S
C238 H265 0.930 . S
C239 C235 1.332 . S
C239 C240 1.394 . S
C239 H266 0.932 . S
C240 C236 1.308 . S
C240 C239 1.394 . S
C240 H267 0.929 . S
C241 Tb232 2.764 . S
C241 C235 1.504 . S
C241 O253 1.239 . S
C241 O254 1.263 . S
O242 Tb232 2.325 . S
O242 C252 1.236 . S
O243 Tb233 2.322 . S
O243 C252 1.257 . S
O244 Tb233 2.349 . S
O244 C255 1.261 . S
O245 Tb232 2.303 . S
O245 C255 1.257 . S
O246 Tb233 2.415 . S
O246 C262 1.239 . S
O247 Tb233 2.399 . S
O247 C262 1.263 . S
O248 Tb233 2.325 . S
O248 C263 1.236 . S
O249 Tb232 2.322 . S
O249 C263 1.257 . S
O250 Tb232 2.349 . S
O250 C234 1.261 . S
O251 Tb233 2.303 . S
O251 C234 1.257 . S
C252 O242 1.236 . S
C252 O243 1.257 . S
O253 Tb232 2.415 . S
O253 C241 1.239 . S
O254 Tb232 2.399 . S
O254 C241 1.263 . S
C255 O244 1.261 . S
C255 O245 1.257 . S
C256 C259 1.358 . S
C256 C260 1.332 . S
C256 C262 1.504 . S
C257 C258 1.373 . S
C257 C261 1.308 . S
C258 C257 1.373 . S
C258 C259 1.429 . S
C258 H268 0.932 . S
C259 C256 1.358 . S
C259 C258 1.429 . S
C259 H269 0.930 . S
C260 C256 1.332 . S
C260 C261 1.394 . S
C260 H270 0.932 . S
C261 C257 1.308 . S
C261 C260 1.394 . S
C261 H271 0.929 . S
C262 Tb233 2.764 . S
C262 O246 1.239 . S
C262 O247 1.263 . S
C262 C256 1.504 . S
C263 O248 1.236 . S
C263 O249 1.257 . S
H264 C237 0.932 . S
H265 C238 0.930 . S
H266 C239 0.932 . S
H267 C240 0.929 . S
H268 C258 0.932 . S
H269 C259 0.930 . S
H270 C260 0.932 . S
H271 C261 0.929 . S
Tb272 C281 2.764 1_455 S
Tb272 O282 2.325 1_455 S
Tb272 O285 2.303 1_556 S
Tb272 O289 2.322 1_556 S
Tb272 O290 2.349 . S
Tb272 O293 2.415 1_455 S
Tb272 O294 2.399 . S
Tb273 O283 2.322 1_455 S
Tb273 O284 2.349 . S
Tb273 O286 2.415 . S
Tb273 O287 2.399 . S
Tb273 O288 2.325 . S
Tb273 O291 2.303 1_554 S
Tb273 C302 2.764 . S
C274 O290 1.261 . S
C274 O291 1.257 . S
C275 C278 1.358 . S
C275 C279 1.332 . S
C275 C281 1.504 . S
C276 C277 1.373 . S
C276 C280 1.308 . S
C277 C276 1.373 . S
C277 C278 1.429 . S
C277 H304 0.932 . S
C278 C275 1.358 . S
C278 C277 1.429 . S
C278 H305 0.930 . S
C279 C275 1.332 . S
C279 C280 1.394 . S
C279 H306 0.932 . S
C280 C276 1.308 . S
C280 C279 1.394 . S
C280 H307 0.929 . S
C281 Tb272 2.764 1_655 S
C281 C275 1.504 . S
C281 O293 1.239 . S
C281 O294 1.263 1_655 S
O282 Tb272 2.325 1_655 S
O282 C292 1.236 . S
O283 Tb273 2.322 1_655 S
O283 C292 1.257 1_554 S
O284 Tb273 2.349 . S
O284 C295 1.261 . S
O285 Tb272 2.303 1_554 S
O285 C295 1.257 . S
O286 Tb273 2.415 . S
O286 C302 1.239 . S
O287 Tb273 2.399 . S
O287 C302 1.263 . S
O288 Tb273 2.325 . S
O288 C303 1.236 . S
O289 Tb272 2.322 1_554 S
O289 C303 1.257 . S
O290 Tb272 2.349 . S
O290 C274 1.261 . S
O291 Tb273 2.303 1_556 S
O291 C274 1.257 . S
C292 O282 1.236 . S
C292 O283 1.257 1_556 S
O293 Tb272 2.415 1_655 S
O293 C281 1.239 . S
O294 Tb272 2.399 . S
O294 C281 1.263 1_455 S
C295 O284 1.261 . S
C295 O285 1.257 . S
C296 C299 1.358 . S
C296 C300 1.332 . S
C296 C302 1.504 . S
C297 C298 1.373 . S
C297 C301 1.308 . S
C298 C297 1.373 . S
C298 C299 1.429 . S
C298 H308 0.932 . S
C299 C296 1.358 . S
C299 C298 1.429 . S
C299 H309 0.930 . S
C300 C296 1.332 . S
C300 C301 1.394 . S
C300 H310 0.932 . S
C301 C297 1.308 . S
C301 C300 1.394 . S
C301 H311 0.929 . S
C302 Tb273 2.764 . S
C302 O286 1.239 . S
C302 O287 1.263 . S
C302 C296 1.504 . S
C303 O288 1.236 . S
C303 O289 1.257 . S
H304 C277 0.932 . S
H305 C278 0.930 . S
H306 C279 0.932 . S
H307 C280 0.929 . S
H308 C298 0.932 . S
H309 C299 0.930 . S
H310 C300 0.932 . S
H311 C301 0.929 . S
C312 C313 1.387 . S
C312 H316 0.950 . S
C312 C321 1.390 . S
C313 C312 1.387 . S
C313 C315 1.387 . S
H314 C321 0.950 . S
C315 C313 1.387 . S
C315 C317 1.390 . S
C315 H319 0.950 . S
H316 C312 0.950 . S
C317 C315 1.390 . S
C317 C318 1.387 . S
C317 H320 0.950 . S
C318 C317 1.387 . S
C318 C321 1.387 . S
H319 C315 0.950 . S
H320 C317 0.950 . S
C321 C312 1.390 . S
C321 H314 0.950 . S
C321 C318 1.387 . S
C322 C323 1.387 . S
C322 H326 0.950 . S
C322 C331 1.390 . S
C323 C322 1.387 . S
C323 C325 1.387 . S
H324 C331 0.950 . S
C325 C323 1.387 . S
C325 C327 1.390 . S
C325 H329 0.950 . S
H326 C322 0.950 . S
C327 C325 1.390 . S
C327 C328 1.387 . S
C327 H330 0.950 . S
C328 C327 1.387 . S
C328 C331 1.387 . S
H329 C325 0.950 . S
H330 C327 0.950 . S
C331 C322 1.390 . S
C331 H324 0.950 . S
C331 C328 1.387 . S
C332 C333 1.387 . S
C332 H336 0.950 . S
C332 C341 1.390 . S
C333 C332 1.387 . S
C333 C335 1.387 . S
H334 C341 0.950 . S
C335 C333 1.387 . S
C335 C337 1.390 . S
C335 H339 0.950 . S
H336 C332 0.950 . S
C337 C335 1.390 . S
C337 C338 1.387 . S
C337 H340 0.950 . S
C338 C337 1.387 . S
C338 C341 1.387 . S
H339 C335 0.950 . S
H340 C337 0.950 . S
C341 C332 1.390 . S
C341 H334 0.950 . S
C341 C338 1.387 . S
C342 C343 1.387 . S
C342 H346 0.950 . S
C342 C351 1.390 . S
C343 C342 1.387 . S
C343 C345 1.387 . S
H344 C351 0.950 1_455 S
C345 C343 1.387 . S
C345 C347 1.390 . S
C345 H349 0.950 . S
H346 C342 0.950 . S
C347 C345 1.390 . S
C347 C348 1.387 . S
C347 H350 0.950 . S
C348 C347 1.387 . S
C348 C351 1.387 . S
H349 C345 0.950 . S
H350 C347 0.950 . S
C351 C342 1.390 . S
C351 H344 0.950 1_655 S
C351 C348 1.387 . S
C352 C353 1.387 . S
C352 H356 0.950 . S
C352 C361 1.390 . S
C353 C352 1.387 . S
C353 C355 1.387 . S
H354 C361 0.950 . S
C355 C353 1.387 . S
C355 C357 1.390 . S
C355 H359 0.950 . S
H356 C352 0.950 . S
C357 C355 1.390 . S
C357 C358 1.387 . S
C357 H360 0.950 . S
C358 C357 1.387 . S
C358 C361 1.387 . S
H359 C355 0.950 . S
H360 C357 0.950 . S
C361 C352 1.390 . S
C361 H354 0.950 . S
C361 C358 1.387 . S
C362 C363 1.387 . S
C362 H366 0.950 . S
C362 C371 1.390 . S
C363 C362 1.387 . S
C363 C365 1.387 1_455 S
H364 C371 0.950 . S
C365 C363 1.387 1_655 S
C365 C367 1.390 . S
C365 H369 0.950 . S
H366 C362 0.950 . S
C367 C365 1.390 . S
C367 C368 1.387 1_655 S
C367 H370 0.950 . S
C368 C367 1.387 1_455 S
C368 C371 1.387 . S
H369 C365 0.950 . S
H370 C367 0.950 . S
C371 C362 1.390 . S
C371 H364 0.950 . S
C371 C368 1.387 . S
C372 C373 1.387 1_554 S
C372 H376 0.950 . S
C372 C381 1.390 . S
C373 C372 1.387 1_556 S
C373 C375 1.387 . S
H374 C381 0.950 . S
C375 C373 1.387 . S
C375 C377 1.390 . S
C375 H379 0.950 . S
H376 C372 0.950 . S
C377 C375 1.390 . S
C377 C378 1.387 . S
C377 H380 0.950 . S
C378 C377 1.387 . S
C378 C381 1.387 1_556 S
H379 C375 0.950 . S
H380 C377 0.950 . S
C381 C372 1.390 . S
C381 H374 0.950 . S
C381 C378 1.387 1_554 S
C382 C383 1.387 . S
C382 H386 0.950 . S
C382 C391 1.390 . S
C383 C382 1.387 . S
C383 C385 1.387 . S
H384 C391 0.950 . S
C385 C383 1.387 . S
C385 C387 1.390 . S
C385 H389 0.950 . S
H386 C382 0.950 . S
C387 C385 1.390 . S
C387 C388 1.387 . S
C387 H390 0.950 . S
C388 C387 1.387 . S
C388 C391 1.387 . S
H389 C385 0.950 . S
H390 C387 0.950 . S
C391 C382 1.390 . S
C391 H384 0.950 . S
C391 C388 1.387 . S
C392 C393 1.387 . S
C392 H396 0.950 . S
C392 C401 1.390 . S
C393 C392 1.387 . S
C393 C395 1.387 . S
H394 C401 0.950 . S
C395 C393 1.387 . S
C395 C397 1.390 . S
C395 H399 0.950 . S
H396 C392 0.950 . S
C397 C395 1.390 . S
C397 C398 1.387 . S
C397 H400 0.950 . S
C398 C397 1.387 . S
C398 C401 1.387 . S
H399 C395 0.950 . S
H400 C397 0.950 . S
C401 C392 1.390 . S
C401 H394 0.950 . S
C401 C398 1.387 . S
C402 C403 1.387 1_554 S
C402 H406 0.950 . S
C402 C411 1.390 . S
C403 C402 1.387 1_556 S
C403 C405 1.387 . S
H404 C411 0.950 . S
C405 C403 1.387 . S
C405 C407 1.390 1_556 S
C405 H409 0.950 . S
H406 C402 0.950 . S
C407 C405 1.390 1_554 S
C407 C408 1.387 . S
C407 H410 0.950 . S
C408 C407 1.387 . S
C408 C411 1.387 . S
H409 C405 0.950 . S
H410 C407 0.950 . S
C411 C402 1.390 . S
C411 H404 0.950 . S
C411 C408 1.387 . S
C412 C413 1.387 . S
C412 H416 0.950 . S
C412 C421 1.390 . S
C413 C412 1.387 . S
C413 C415 1.387 . S
H414 C421 0.950 . S
C415 C413 1.387 . S
C415 C417 1.390 . S
C415 H419 0.950 . S
H416 C412 0.950 . S
C417 C415 1.390 . S
C417 C418 1.387 . S
C417 H420 0.950 . S
C418 C417 1.387 . S
C418 C421 1.387 . S
H419 C415 0.950 . S
H420 C417 0.950 . S
C421 C412 1.390 . S
C421 H414 0.950 . S
C421 C418 1.387 . S
C422 C423 1.387 . S
C422 H426 0.950 . S
C422 C431 1.390 . S
C423 C422 1.387 . S
C423 C425 1.387 . S
H424 C431 0.950 . S
C425 C423 1.387 . S
C425 C427 1.390 . S
C425 H429 0.950 . S
H426 C422 0.950 . S
C427 C425 1.390 . S
C427 C428 1.387 . S
C427 H430 0.950 . S
C428 C427 1.387 . S
C428 C431 1.387 . S
H429 C425 0.950 . S
H430 C427 0.950 . S
C431 C422 1.390 . S
C431 H424 0.950 . S
C431 C428 1.387 . S
C432 C433 1.387 . S
C432 H436 0.950 . S
C432 C441 1.390 . S
C433 C432 1.387 . S
C433 C435 1.387 . S
H434 C441 0.950 . S
C435 C433 1.387 . S
C435 C437 1.390 . S
C435 H439 0.950 . S
H436 C432 0.950 . S
C437 C435 1.390 . S
C437 C438 1.387 . S
C437 H440 0.950 . S
C438 C437 1.387 . S
C438 C441 1.387 . S
H439 C435 0.950 . S
H440 C437 0.950 . S
C441 C432 1.390 . S
C441 H434 0.950 . S
C441 C438 1.387 . S
C442 C443 1.387 . S
C442 H446 0.950 . S
C442 C451 1.390 . S
C443 C442 1.387 . S
C443 C445 1.387 . S
H444 C451 0.950 . S
C445 C443 1.387 . S
C445 C447 1.390 . S
C445 H449 0.950 . S
H446 C442 0.950 . S
C447 C445 1.390 . S
C447 C448 1.387 . S
C447 H450 0.950 . S
C448 C447 1.387 . S
C448 C451 1.387 . S
H449 C445 0.950 . S
H450 C447 0.950 . S
C451 C442 1.390 . S
C451 H444 0.950 . S
C451 C448 1.387 . S
C452 C453 1.387 . S
C452 H456 0.950 . S
C452 C461 1.390 . S
C453 C452 1.387 . S
C453 C455 1.387 . S
H454 C461 0.950 . S
C455 C453 1.387 . S
C455 C457 1.390 . S
C455 H459 0.950 . S
H456 C452 0.950 . S
C457 C455 1.390 . S
C457 C458 1.387 . S
C457 H460 0.950 . S
C458 C457 1.387 . S
C458 C461 1.387 . S
H459 C455 0.950 . S
H460 C457 0.950 . S
C461 C452 1.390 . S
C461 H454 0.950 . S
C461 C458 1.387 . S
C462 C463 1.387 . S
C462 H466 0.950 . S
C462 C471 1.390 . S
C463 C462 1.387 . S
C463 C465 1.387 . S
H464 C471 0.950 . S
C465 C463 1.387 . S
C465 C467 1.390 . S
C465 H469 0.950 . S
H466 C462 0.950 . S
C467 C465 1.390 . S
C467 C468 1.387 . S
C467 H470 0.950 . S
C468 C467 1.387 . S
C468 C471 1.387 . S
H469 C465 0.950 . S
H470 C467 0.950 . S
C471 C462 1.390 . S
C471 H464 0.950 . S
C471 C468 1.387 . S
C472 C473 1.387 1_554 S
C472 H476 0.950 . S
C472 C481 1.390 . S
C473 C472 1.387 1_556 S
C473 C475 1.387 . S
H474 C481 0.950 . S
C475 C473 1.387 . S
C475 C477 1.390 1_556 S
C475 H479 0.950 . S
H476 C472 0.950 . S
C477 C475 1.390 1_554 S
C477 C478 1.387 . S
C477 H480 0.950 . S
C478 C477 1.387 . S
C478 C481 1.387 . S
H479 C475 0.950 . S
H480 C477 0.950 . S
C481 C472 1.390 . S
C481 H474 0.950 . S
C481 C478 1.387 . S
C482 C483 1.387 . S
C482 H486 0.950 . S
C482 C491 1.390 . S
C483 C482 1.387 . S
C483 C485 1.387 1_655 S
H484 C491 0.950 . S
C485 C483 1.387 1_455 S
C485 C487 1.390 . S
C485 H489 0.950 . S
H486 C482 0.950 . S
C487 C485 1.390 . S
C487 C488 1.387 1_455 S
C487 H490 0.950 . S
C488 C487 1.387 1_655 S
C488 C491 1.387 . S
H489 C485 0.950 . S
H490 C487 0.950 . S
C491 C482 1.390 . S
C491 H484 0.950 . S
C491 C488 1.387 . S
C492 C493 1.387 . S
C492 H496 0.950 . S
C492 C501 1.390 . S
C493 C492 1.387 . S
C493 C495 1.387 . S
H494 C501 0.950 . S
C495 C493 1.387 . S
C495 C497 1.390 . S
C495 H499 0.950 . S
H496 C492 0.950 . S
C497 C495 1.390 . S
C497 C498 1.387 . S
C497 H500 0.950 . S
C498 C497 1.387 . S
C498 C501 1.387 . S
H499 C495 0.950 . S
H500 C497 0.950 . S
C501 C492 1.390 . S
C501 H494 0.950 . S
C501 C498 1.387 . S
C502 C503 1.387 . S
C502 H506 0.950 . S
C502 C511 1.390 . S
C503 C502 1.387 . S
C503 C505 1.387 . S
H504 C511 0.950 . S
C505 C503 1.387 . S
C505 C507 1.390 . S
C505 H509 0.950 . S
H506 C502 0.950 . S
C507 C505 1.390 . S
C507 C508 1.387 . S
C507 H510 0.950 . S
C508 C507 1.387 . S
C508 C511 1.387 . S
H509 C505 0.950 . S
H510 C507 0.950 . S
C511 C502 1.390 . S
C511 H504 0.950 . S
C511 C508 1.387 . S
C512 C513 1.387 . S
C512 H516 0.950 . S
C512 C521 1.390 . S
C513 C512 1.387 . S
C513 C515 1.387 . S
H514 C521 0.950 . S
C515 C513 1.387 . S
C515 C517 1.390 . S
C515 H519 0.950 . S
H516 C512 0.950 . S
C517 C515 1.390 . S
C517 C518 1.387 . S
C517 H520 0.950 . S
C518 C517 1.387 . S
C518 C521 1.387 . S
H519 C515 0.950 . S
H520 C517 0.950 . S
C521 C512 1.390 . S
C521 H514 0.950 . S
C521 C518 1.387 . S
C522 C523 1.387 . S
C522 H526 0.950 . S
C522 C531 1.390 . S
C523 C522 1.387 . S
C523 C525 1.387 . S
H524 C531 0.950 . S
C525 C523 1.387 . S
C525 C527 1.390 . S
C525 H529 0.950 . S
H526 C522 0.950 . S
C527 C525 1.390 . S
C527 C528 1.387 . S
C527 H530 0.950 . S
C528 C527 1.387 . S
C528 C531 1.387 . S
H529 C525 0.950 . S
H530 C527 0.950 . S
C531 C522 1.390 . S
C531 H524 0.950 . S
C531 C528 1.387 . S
C532 C533 1.387 . S
C532 H536 0.950 . S
C532 C541 1.390 . S
C533 C532 1.387 . S
C533 C535 1.387 . S
H534 C541 0.950 . S
C535 C533 1.387 . S
C535 C537 1.390 . S
C535 H539 0.950 . S
H536 C532 0.950 . S
C537 C535 1.390 . S
C537 C538 1.387 . S
C537 H540 0.950 . S
C538 C537 1.387 . S
C538 C541 1.387 . S
H539 C535 0.950 . S
H540 C537 0.950 . S
C541 C532 1.390 . S
C541 H534 0.950 . S
C541 C538 1.387 . S
C542 C543 1.387 . S
C542 H546 0.950 . S
C542 C551 1.390 . S
C543 C542 1.387 . S
C543 C545 1.387 . S
H544 C551 0.950 . S
C545 C543 1.387 . S
C545 C547 1.390 . S
C545 H549 0.950 . S
H546 C542 0.950 . S
C547 C545 1.390 . S
C547 C548 1.387 . S
C547 H550 0.950 . S
C548 C547 1.387 . S
C548 C551 1.387 . S
H549 C545 0.950 . S
H550 C547 0.950 . S
C551 C542 1.390 . S
C551 H544 0.950 . S
C551 C548 1.387 . S
C313 C6 1.129 . S
C318 C156 1.169 . S
C323 C21 1.439 . S
C328 C217 1.468 . S
C338 C255 2.101 . S
C333 C49 2.086 . S
C343 C68 2.168 . S
C348 C295 2.259 1_655 S
C358 C215 2.060 . S
C353 C2 1.983 . S
C368 C183 1.802 . S
C363 C30 1.741 1_455 S
C378 C292 1.866 . S
C373 C40 1.887 . S
C388 C252 1.775 . S
C383 C63 1.849 . S
C393 C11 1.067 . S
C398 C297 1.288 . S
C408 C212 2.682 . S
C403 C44 2.684 . S
C413 C59 1.883 . S
C418 C154 1.863 . S
C423 C25 1.949 . S
C428 C257 1.962 . S
C438 C177 1.211 . S
C433 C82 1.199 . S
C443 C101 1.257 . S
C448 C196 1.295 . S
C453 C125 2.384 . S
C458 C234 2.383 . S
C463 C144 2.008 . S
C468 C274 2.037 . S
C473 C87 1.218 . S
C478 C194 1.318 . S
C488 C172 2.513 . S
C483 C97 2.379 . S
C498 C303 1.682 . S
C493 C120 1.761 . S
C508 C263 1.990 . S
C503 C135 2.000 . S
C513 C78 1.778 . S
C518 C276 1.868 . S
C528 C223 2.044 . S
C523 C116 2.019 . S
C538 C175 2.497 . S
C533 C139 2.534 . S
C543 C106 1.018 . S
C548 C236 1.465 . S
