# Generated by pormake.
# Topology pth, (4,4)-cn, num edge types: 1
# Building blocks:
#     Node 0, Type 0, BuildingBlock: KUFVIS_clean_sbu_0, # of connection points: 4
#     Node 1, Type 0, BuildingBlock: KUFVIS_clean_sbu_0, # of connection points: 4
#     Node 2, Type 0, BuildingBlock: KUFVIS_clean_sbu_0, # of connection points: 4
#     Node 3, Type 1, BuildingBlock: MUDLON_clean_linker_0, # of connection points: 4
#     Node 4, Type 1, BuildingBlock: MUDLON_clean_linker_0, # of connection points: 4
#     Node 5, Type 1, BuildingBlock: MUDLON_clean_linker_0, # of connection points: 4
#     Edge 6, Type (0, 1), BuildingBlock: AJUNOK_clean_linker_0, # of connection points: 2
#     Edge 7, Type (0, 1), BuildingBlock: AJUNOK_clean_linker_0, # of connection points: 2
#     Edge 8, Type (0, 1), BuildingBlock: AJUNOK_clean_linker_0, # of connection points: 2
#     Edge 9, Type (0, 1), BuildingBlock: AJUNOK_clean_linker_0, # of connection points: 2
#     Edge 10, Type (0, 1), BuildingBlock: AJUNOK_clean_linker_0, # of connection points: 2
#     Edge 11, Type (0, 1), BuildingBlock: AJUNOK_clean_linker_0, # of connection points: 2
#     Edge 12, Type (0, 1), BuildingBlock: AJUNOK_clean_linker_0, # of connection points: 2
#     Edge 13, Type (0, 1), BuildingBlock: AJUNOK_clean_linker_0, # of connection points: 2
#     Edge 14, Type (0, 1), BuildingBlock: AJUNOK_clean_linker_0, # of connection points: 2
#     Edge 15, Type (0, 1), BuildingBlock: AJUNOK_clean_linker_0, # of connection points: 2
#     Edge 16, Type (0, 1), BuildingBlock: AJUNOK_clean_linker_0, # of connection points: 2
#     Edge 17, Type (0, 1), BuildingBlock: AJUNOK_clean_linker_0, # of connection points: 2
# Relax obj value: 0.040
# Max RMSD: 0.105
# Mean RMSD: 0.093
data_MOF--net-pth--node1-KUFVIS_clean_sbu_0--node2-MUDLON_clean_linker_0--edge1-AJUNOK_clean_linker_0
_symmetry_space_group_name_H-M    P1
_symmetry_Int_Tables_number       1
_symmetry_cell_setting            triclinic
loop_
_symmetry_equiv_pos_as_xyz
'x, y, z'
_cell_length_a     26.702523
_cell_length_b     26.765216
_cell_length_c     55.303039
_cell_angle_alpha  90.323928
_cell_angle_beta   91.967977
_cell_angle_gamma 120.04713
loop_
_atom_site_label
_atom_site_type_symbol
_atom_site_fract_x
_atom_site_fract_y
_atom_site_fract_z
_atom_type_partial_charge
Mn0 Mn 0.02357 0.01311 0.0371 0.0
Mn1 Mn 0.94332 0.06065 0.00751 0.0
C2 C 0.96725 0.96239 0.00338 0.0
C3 C 0.03383 0.96026 0.06836 0.0
C4 C 0.07319 0.11473 0.0032 0.0
O5 O 0.02347 0.07146 0.0609 0.0
O6 O 0.96173 0.09285 0.04121 0.0
C7 C 0.83662 1.00209 0.03509 0.0
N8 N 0.86328 0.01197 0.01366 0.0
C9 C 0.77247 0.95209 0.99186 0.0
C10 C 0.74397 0.94152 0.01368 0.0
C11 C 0.77623 0.96643 0.0354 0.0
C12 C 0.83274 0.98783 0.99269 0.0
H13 H 0.86126 0.02137 0.0518 0.0
C14 C 0.99386 0.0969 0.05973 0.0
O15 O 0.07857 1.00229 0.05864 0.0
O16 O 0.98324 0.94991 0.06029 0.0
N17 N 0.92192 0.03275 0.9747 0.0
C18 C 0.95606 0.04689 0.95525 0.0
C19 C 0.93061 0.0242 0.9322 0.0
C20 C 0.87034 0.98798 0.92934 0.0
C21 C 0.83599 0.97507 0.94954 0.0
C22 C 0.86377 0.99889 0.97205 0.0
H23 H 1.00237 0.07495 0.95731 0.0
O24 O 0.0096 0.95525 0.0111 0.0
O25 O 0.95787 0.9978 0.01609 0.0
O26 O 0.07982 0.07861 0.01587 0.0
O27 O 0.02478 0.11293 0.9997 0.0
C28 C 0.77528 0.93943 0.94824 0.0
C29 C 0.74356 0.92786 0.96938 0.0
H30 H 0.69741 0.91398 0.01399 0.0
H31 H 0.75458 0.95828 0.05232 0.0
H32 H 0.9574 0.03459 0.91668 0.0
H33 H 0.85091 0.9704 0.91156 0.0
H34 H 0.75253 0.92057 0.93107 0.0
H35 H 0.69696 0.90001 0.96817 0.0
Mn36 Mn 0.01434 0.01066 0.3708 0.0
Mn37 Mn 0.0794 0.14073 0.39953 0.0
C38 C 0.07664 0.02719 0.40365 0.0
C39 C 0.01505 0.95401 0.33872 0.0
C40 C 0.95373 0.04923 0.40552 0.0
O41 O 1.0012 0.06193 0.34751 0.0
O42 O 0.0555 0.14889 0.36595 0.0
C43 C 0.18431 0.2011 0.37095 0.0
N44 N 0.15965 0.18247 0.39265 0.0
C45 C 0.25297 0.22623 0.4136 0.0
C46 C 0.2794 0.24624 0.3915 0.0
C47 C 0.2449 0.23335 0.37007 0.0
C48 C 0.19243 0.19401 0.41333 0.0
H49 H 0.15791 0.19144 0.35445 0.0
C50 C 0.02383 0.11671 0.34802 0.0
O51 O 0.96717 0.94132 0.34902 0.0
O52 O 0.0617 0.99935 0.34704 0.0
N53 N 0.10519 0.13967 0.43215 0.0
C54 C 0.073 0.1166 0.45193 0.0
C55 C 0.10101 0.12437 0.47476 0.0
C56 C 0.16173 0.15655 0.47707 0.0
C57 C 0.19387 0.1809 0.45654 0.0
C58 C 0.16359 0.17154 0.43426 0.0
H59 H 0.02633 0.09231 0.45032 0.0
O60 O 0.04002 0.97484 0.39623 0.0
O61 O 0.07688 0.0683 0.3911 0.0
O62 O 0.95344 0.00877 0.39306 0.0
O63 O 0.99731 0.10021 0.40811 0.0
C64 C 0.25477 0.21411 0.45732 0.0
C65 C 0.28434 0.23646 0.43585 0.0
H66 H 0.32611 0.27114 0.39075 0.0
H67 H 0.26498 0.24838 0.35293 0.0
H68 H 0.07585 0.10566 0.49053 0.0
H69 H 0.1832 0.16233 0.4947 0.0
H70 H 0.27932 0.2225 0.47433 0.0
H71 H 0.33121 0.26132 0.43664 0.0
Mn72 Mn 0.03842 0.04049 0.70703 0.0
Mn73 Mn 0.9766 0.10774 0.73455 0.0
C74 C 0.08259 0.0966 0.74144 0.0
C75 C 0.09805 0.04037 0.67723 0.0
C76 C 0.93606 0.98052 0.74032 0.0
O77 O 0.97963 0.03575 0.68156 0.0
O78 O 0.94366 0.08439 0.70079 0.0
C79 C 0.02567 0.21198 0.7047 0.0
N80 N 0.01796 0.18762 0.72682 0.0
C81 C 0.07198 0.28088 0.74683 0.0
C82 C 0.08017 0.30699 0.72428 0.0
C83 C 0.05709 0.27236 0.70312 0.0
C84 C 0.04056 0.2205 0.74726 0.0
H85 H 0.00805 0.18552 0.6884 0.0
C86 C 0.94645 0.05708 0.68226 0.0
O87 O 0.05803 0.99236 0.6859 0.0
O88 O 0.10284 0.08786 0.68571 0.0
N89 N 1.00375 0.13355 0.76724 0.0
C90 C 0.99251 0.10165 0.78755 0.0
C91 C 0.01307 0.12978 0.81025 0.0
C92 C 0.04417 0.19037 0.81188 0.0
C93 C 0.05402 0.22229 0.79081 0.0
C94 C 0.03243 0.19188 0.76869 0.0
H95 H 0.96852 0.05509 0.78644 0.0
O96 O 0.09539 0.05808 0.73454 0.0
O97 O 0.04527 0.10217 0.72764 0.0
O98 O 0.97323 0.97885 0.72687 0.0
O99 O 0.93313 0.02623 0.74393 0.0
C100 C 0.08459 0.28309 0.79086 0.0
C101 C 0.094 0.31237 0.76888 0.0
H102 H 0.1043 0.35355 0.72299 0.0
H103 H 0.06343 0.29218 0.68565 0.0
H104 H 1.00509 0.10481 0.82644 0.0
H105 H 0.06029 0.21192 0.82941 0.0
H106 H 0.10143 0.30776 0.80771 0.0
H107 H 0.11823 0.35913 0.76913 0.0
H108 H 0.95991 0.72749 0.2135 0.0
N109 N 0.05957 0.72596 0.20509 0.0
H110 H 0.94603 0.77965 0.24681 0.0
H111 H 0.12793 0.77236 0.24451 0.0
H112 H 0.11369 0.82318 0.27824 0.0
H113 H 0.14236 0.8272 0.19062 0.0
H114 H 0.1374 0.88322 0.15685 0.0
H115 H 0.97013 0.68918 0.1713 0.0
H116 H 0.9656 0.74385 0.13659 0.0
H117 H 0.96276 0.63322 0.22321 0.0
H118 H 0.11431 0.68081 0.18239 0.0
H119 H 0.94041 0.53348 0.22271 0.0
H120 H 0.08978 0.58006 0.18005 0.0
H121 H 0.8817 0.2232 0.2263 0.0
H122 H 0.89382 0.17535 0.26192 0.0
H123 H 0.07661 0.30028 0.26611 0.0
H124 H 0.0643 0.3479 0.23084 0.0
H125 H 0.06522 0.32177 0.18899 0.0
H126 H 0.07696 0.27334 0.15379 0.0
H127 H 0.89486 0.19802 0.13452 0.0
H128 H 0.88366 0.24737 0.16963 0.0
H129 H 0.88786 0.34848 0.2033 0.0
H130 H 0.90729 0.44777 0.20156 0.0
H131 H 0.09111 0.50845 0.20203 0.0
N132 N 0.9635 0.31181 0.20344 0.0
H133 H 0.07056 0.4093 0.20164 0.0
C134 C 0.04549 0.74683 0.22644 0.0
C135 C 0.9933 0.74761 0.22773 0.0
C136 C 0.98532 0.77722 0.24678 0.0
C137 C 0.02935 0.80648 0.26476 0.0
C138 C 0.07965 0.80214 0.26428 0.0
C139 C 0.08766 0.77277 0.24522 0.0
C140 C 0.05716 0.75392 0.18324 0.0
C141 C 0.10411 0.80844 0.17861 0.0
C142 C 0.10125 0.84018 0.15922 0.0
C143 C 0.05147 0.81762 0.14374 0.0
C144 C 1.00457 0.7624 0.14818 0.0
C145 C 0.00725 0.73088 0.16783 0.0
C146 C 0.04111 0.66518 0.20313 0.0
C147 C 0.99099 0.62232 0.21382 0.0
C148 C 0.97782 0.56465 0.21329 0.0
C149 C 0.0135 0.54807 0.20155 0.0
C150 C 0.06205 0.59087 0.18993 0.0
C151 C 0.07586 0.64859 0.19095 0.0
C152 C 0.97171 0.28926 0.2259 0.0
C153 C 0.92418 0.24064 0.23515 0.0
C154 C 0.93127 0.2131 0.25528 0.0
C155 C 0.98632 0.23372 0.26653 0.0
C156 C 0.0337 0.28356 0.25777 0.0
C157 C 0.02659 0.31094 0.23756 0.0
C158 C 0.97333 0.28814 0.18188 0.0
C159 C 0.02797 0.29545 0.17708 0.0
C160 C 0.03454 0.26726 0.15709 0.0
C161 C 0.98666 0.23133 0.1416 0.0
C162 C 0.93253 0.22553 0.14611 0.0
C163 C 0.92603 0.2536 0.16609 0.0
C164 C 0.97751 0.37127 0.20308 0.0
C165 C 0.93227 0.38346 0.20299 0.0
C166 C 0.94365 0.44043 0.20218 0.0
C167 C 1.00096 0.48689 0.20182 0.0
C168 C 0.04632 0.47427 0.20191 0.0
C169 C 0.03471 0.41717 0.20218 0.0
H170 H 0.83621 0.15306 0.55247 0.0
N171 N 0.72877 0.08252 0.53574 0.0
H172 H 0.8867 0.13966 0.58753 0.0
H173 H 0.68259 0.99176 0.56625 0.0
H174 H 0.73263 0.97889 0.60197 0.0
H175 H 0.70316 0.97598 0.51899 0.0
H176 H 0.74309 0.95562 0.48337 0.0
H177 H 0.79088 0.15645 0.50247 0.0
H178 H 0.83351 0.13748 0.46772 0.0
H179 H 0.70647 0.15213 0.56172 0.0
H180 H 0.6237 1.00015 0.51505 0.0
H181 H 0.61432 0.14906 0.56524 0.0
H182 H 0.53215 0.99903 0.51697 0.0
H183 H 0.33439 0.1631 0.56131 0.0
H184 H 0.27214 0.14838 0.5951 0.0
H185 H 0.24553 0.97633 0.60316 0.0
H186 H 0.30574 0.99067 0.5686 0.0
H187 H 0.26698 0.98283 0.52464 0.0
H188 H 0.20183 0.96648 0.48934 0.0
H189 H 0.30548 0.14615 0.47167 0.0
H190 H 0.36966 0.16208 0.50708 0.0
H191 H 0.46393 0.17399 0.54376 0.0
H192 H 0.55309 0.17013 0.54296 0.0
H193 H 0.45247 0.98344 0.53895 0.0
N194 N 0.35625 0.08685 0.54084 0.0
H195 H 0.36344 0.9886 0.53802 0.0
C196 C 0.75581 0.07377 0.55698 0.0
C197 C 0.81342 0.11496 0.56321 0.0
C198 C 0.84215 0.10715 0.58307 0.0
C199 C 0.81346 0.05816 0.59723 0.0
C200 C 0.75545 0.01694 0.59121 0.0
C201 C 0.72693 0.02431 0.57097 0.0
C202 C 0.7439 0.06778 0.51313 0.0
C203 C 0.73026 0.01099 0.50741 0.0
C204 C 0.75379 0.99964 0.48727 0.0
C205 C 0.79235 0.04507 0.4729 0.0
C206 C 0.80363 0.10135 0.4782 0.0
C207 C 0.77946 0.11242 0.49806 0.0
C208 C 0.67254 0.0771 0.53793 0.0
C209 C 0.66835 0.11826 0.55211 0.0
C210 C 0.61558 0.1167 0.55387 0.0
C211 C 0.56552 0.07446 0.541 0.0
C212 C 0.56941 0.03205 0.52729 0.0
C213 C 0.62222 0.03299 0.52596 0.0
C214 C 0.32521 0.07845 0.56259 0.0
C215 C 0.31558 0.12251 0.57059 0.0
C216 C 0.28001 0.11394 0.58987 0.0
C217 C 0.25339 0.06095 0.60171 0.0
C218 C 0.26434 0.01718 0.59409 0.0
C219 C 0.29956 0.02565 0.57455 0.0
C220 C 0.32285 0.07385 0.51842 0.0
C221 C 0.27604 0.01836 0.51292 0.0
C222 C 0.23878 0.00921 0.49285 0.0
C223 C 0.24828 0.0552 0.47785 0.0
C224 C 0.29704 0.10987 0.48278 0.0
C225 C 0.33379 0.11906 0.50294 0.0
C226 C 0.40739 0.08181 0.5414 0.0
C227 C 0.46138 0.13234 0.54282 0.0
C228 C 0.51231 0.12984 0.54257 0.0
C229 C 0.5105 0.07636 0.54126 0.0
C230 C 0.45588 0.02545 0.53982 0.0
C231 C 0.40477 0.02819 0.53965 0.0
H232 H 0.72665 0.78459 0.87995 0.0
N233 N 0.73379 0.68976 0.86628 0.0
H234 H 0.77944 0.85063 0.91432 0.0
H235 H 0.80303 0.68073 0.89934 0.0
H236 H 0.85702 0.74786 0.9335 0.0
H237 H 0.82771 0.70983 0.84369 0.0
H238 H 0.87047 0.77262 0.80946 0.0
H239 H 0.68177 0.73714 0.838 0.0
H240 H 0.72288 0.79767 0.80331 0.0
H241 H 0.63813 0.70041 0.8737 0.0
H242 H 0.69546 0.57727 0.8644 0.0
H243 H 0.53926 0.62247 0.87672 0.0
H244 H 0.59674 0.49819 0.86932 0.0
H245 H 0.22644 0.36626 0.89701 0.0
H246 H 0.1759 0.30829 0.93131 0.0
H247 H 0.30926 0.26319 0.9424 0.0
H248 H 0.35862 0.32009 0.90716 0.0
H249 H 0.3204 0.2771 0.86521 0.0
H250 H 0.2663 0.2106 0.83135 0.0
H251 H 0.20105 0.32251 0.80891 0.0
H252 H 0.25721 0.38988 0.84238 0.0
H253 H 0.37298 0.47605 0.90174 0.0
H254 H 0.47444 0.55133 0.90097 0.0
H255 H 0.50539 0.44578 0.85099 0.0
N256 N 0.3195 0.37577 0.87733 0.0
H257 H 0.4058 0.3697 0.85327 0.0
C258 C 0.76038 0.72711 0.88731 0.0
C259 C 0.75377 0.77528 0.89183 0.0
C260 C 0.78409 0.81318 0.91136 0.0
C261 C 0.82175 0.8038 0.9264 0.0
C262 C 0.82787 0.75551 0.92209 0.0
C263 C 0.79713 0.71731 0.90274 0.0
C264 C 0.75148 0.71822 0.84348 0.0
C265 C 0.80396 0.72775 0.83454 0.0
C266 C 0.82813 0.76335 0.81486 0.0
C267 C 0.79983 0.78981 0.8035 0.0
C268 C 0.74581 0.77803 0.81173 0.0
C269 C 0.72199 0.74292 0.83159 0.0
C270 C 0.67435 0.64471 0.86821 0.0
C271 C 0.6296 0.65657 0.87223 0.0
C272 C 0.57275 0.61152 0.87443 0.0
C273 C 0.55938 0.55349 0.87334 0.0
C274 C 0.60468 0.542 0.86976 0.0
C275 C 0.66132 0.58714 0.86707 0.0
C276 C 0.29631 0.34792 0.89973 0.0
C277 C 0.24537 0.34489 0.90719 0.0
C278 C 0.21684 0.31204 0.92693 0.0
C279 C 0.23916 0.28199 0.93995 0.0
C280 C 0.29118 0.28608 0.9328 0.0
C281 C 0.31955 0.31876 0.9128 0.0
C282 C 0.29277 0.33855 0.85624 0.0
C283 C 0.29487 0.28753 0.85286 0.0
C284 C 0.26325 0.24916 0.83367 0.0
C285 C 0.22773 0.26026 0.81786 0.0
C286 C 0.22739 0.3123 0.82086 0.0
C287 C 0.25955 0.35095 0.83989 0.0
C288 C 0.38093 0.41709 0.87755 0.0
C289 C 0.402 0.46891 0.89092 0.0
C290 C 0.46001 0.51227 0.89018 0.0
C291 C 0.49847 0.50542 0.87559 0.0
C292 C 0.47763 0.45275 0.86266 0.0
C293 C 0.41983 0.4089 0.86381 0.0
C294 C 0.97076 0.16823 0.0783 0.0
C295 C 0.99556 0.13267 0.08083 0.0
C296 C 0.96913 0.20066 0.09789 0.0
C297 C 0.99234 0.19919 0.12088 0.0
H298 H 0.95196 0.17095 0.06104 0.0
H299 H 0.94931 0.22705 0.09503 0.0
S300 S 0.06148 0.11297 0.13764 0.0
N301 N 0.04392 0.09818 0.10852 0.0
N302 N 0.04038 0.15906 0.14533 0.0
C303 C 0.01793 0.16457 0.12375 0.0
C304 C 0.01963 0.13137 0.10376 0.0
C305 C 0.8733 0.06623 0.41524 0.0
C306 C 0.90337 0.03651 0.41973 0.0
C307 C 0.8341 0.06523 0.43173 0.0
C308 C 0.82478 0.03572 0.45364 0.0
H309 H 0.88196 0.09238 0.39934 0.0
H310 H 0.81291 0.08994 0.42779 0.0
S311 S 0.89398 0.95125 0.47356 0.0
N312 N 0.92046 0.97528 0.44683 0.0
N313 N 0.84891 0.97521 0.47851 0.0
C314 C 0.85326 0.00399 0.45781 0.0
C315 C 0.89223 0.00414 0.44072 0.0
C316 C 0.86395 0.9336 0.77241 0.0
C317 C 0.89686 0.92854 0.75415 0.0
C318 C 0.83135 0.88792 0.78761 0.0
C319 C 0.82963 0.83477 0.78519 0.0
H320 H 0.86465 0.97389 0.77566 0.0
H321 H 0.80909 0.89523 0.80202 0.0
S322 S 0.90132 0.7957 0.7384 0.0
N323 N 0.92144 0.86379 0.73327 0.0
N324 N 0.85903 0.77752 0.76168 0.0
C325 C 0.85985 0.82784 0.76631 0.0
C326 C 0.89354 0.87467 0.75083 0.0
C327 C 0.99342 0.89212 0.10247 0.0
C328 C 0.0397 0.92453 0.08739 0.0
C329 C 0.99735 0.85726 0.12041 0.0
C330 C 0.04753 0.85295 0.12384 0.0
H331 H 0.95399 0.8942 0.10061 0.0
H332 H 0.96111 0.83428 0.13195 0.0
S333 S 0.17893 0.92498 0.08765 0.0
N334 N 0.1363 0.94802 0.07632 0.0
N335 N 0.14307 0.88127 0.10954 0.0
C336 C 0.09365 0.88417 0.10851 0.0
C337 C 0.0899 0.92022 0.09043 0.0
C338 C 0.10447 0.01358 0.44538 0.0
C339 C 0.12109 0.0369 0.42242 0.0
C340 C 0.14591 0.01938 0.46314 0.0
C341 C 0.20522 0.04733 0.45829 0.0
H342 H 0.05922 0.99158 0.44974 0.0
H343 H 0.13144 1.00262 0.4809 0.0
S344 S 0.26897 0.10584 0.39931 0.0
N345 N 0.19919 0.08257 0.39468 0.0
N346 N 0.27735 0.09291 0.42789 0.0
C347 C 0.22189 0.06845 0.43495 0.0
C348 C 0.17968 0.06301 0.41699 0.0
C349 C 0.15006 0.19672 0.75685 0.0
C350 C 0.11716 0.13749 0.76127 0.0
C351 C 0.18595 0.23608 0.77518 0.0
C352 C 0.1903 0.21746 0.79855 0.0
H353 H 0.14836 0.21265 0.73905 0.0
H354 H 0.21079 0.28136 0.77094 0.0
S355 S 0.11158 0.066 0.81898 0.0
N356 N 0.09155 0.06143 0.79009 0.0
N357 N 0.15662 0.13526 0.82504 0.0
C358 C 0.1575 0.15795 0.80303 0.0
C359 C 0.12181 0.11796 0.78422 0.0
C360 C 0.8591 0.05397 0.66243 0.0
C361 C 0.91055 0.05202 0.66029 0.0
C362 C 0.82633 0.0532 0.6419 0.0
C363 C 0.84438 0.05144 0.61853 0.0
H364 H 0.84429 0.05674 0.68012 0.0
H365 H 0.78774 0.05608 0.64432 0.0
S366 S 0.97422 0.04389 0.60275 0.0
N367 N 0.97657 0.04608 0.63264 0.0
N368 N 0.91534 0.04578 0.59417 0.0
C369 C 0.89483 0.04823 0.61604 0.0
C370 C 0.92778 0.04814 0.63689 0.0
C371 C 0.9512 0.92328 0.96124 0.0
C372 C 0.92826 0.92498 0.98351 0.0
C373 C 0.91597 0.88463 0.9426 0.0
C374 C 0.85706 0.84582 0.94588 0.0
H375 H 0.99664 0.95217 0.95822 0.0
H376 H 0.93495 0.88467 0.9256 0.0
S377 S 0.77859 0.82676 0.00204 0.0
N378 N 0.84484 0.88039 0.00872 0.0
N379 N 0.77831 0.80805 0.97349 0.0
C380 C 0.83396 0.84594 0.96825 0.0
C381 C 0.8698 0.88529 0.98721 0.0
C382 C 0.97191 0.86083 0.31453 0.0
C383 C 0.01744 0.91787 0.31887 0.0
C384 C 0.97558 0.82496 0.29686 0.0
C385 C 0.02493 0.8449 0.28298 0.0
H386 H 0.93373 0.84332 0.3252 0.0
H387 H 0.94012 0.78099 0.29438 0.0
S388 S 0.15271 0.99275 0.28513 0.0
N389 N 0.1113 0.99387 0.30635 0.0
N390 N 0.11772 0.92674 0.27317 0.0
C391 C 0.06968 0.90241 0.28653 0.0
C392 C 0.06605 0.93881 0.30446 0.0
C393 C 0.19246 0.0915 0.65732 0.0
C394 C 0.13744 0.04206 0.65868 0.0
C395 C 0.23012 0.09626 0.63934 0.0
C396 C 0.21407 0.05211 0.62173 0.0
H397 H 0.20664 0.12703 0.67028 0.0
H398 H 0.27209 0.1352 0.63913 0.0
S399 S 0.07366 0.91443 0.61683 0.0
N400 N 0.06844 0.94797 0.64094 0.0
N401 N 0.13851 0.95756 0.60654 0.0
C402 C 0.15923 1.00209 0.62299 0.0
C403 C 0.12109 0.99694 0.64158 0.0
C404 C 0.15415 0.1448 0.97513 0.0
C405 C 0.12299 0.15985 0.99067 0.0
C406 C 0.19434 0.18553 0.95966 0.0
C407 C 0.20506 0.24273 0.95945 0.0
H408 H 0.14484 0.10052 0.97386 0.0
H409 H 0.21462 0.1712 0.94686 0.0
S410 S 0.14194 0.30553 1.00013 0.0
N411 N 0.10987 0.23663 0.007 0.0
N412 N 0.18706 0.31385 0.97878 0.0
C413 C 0.17732 0.25908 0.97636 0.0
C414 C 0.13581 0.21745 0.99174 0.0
C415 C 0.03328 0.2049 0.32802 0.0
C416 C 0.01328 0.14509 0.32689 0.0
C417 C 0.02433 0.23311 0.3085 0.0
C418 C 0.99473 0.20274 0.28706 0.0
H419 H 0.05607 0.23045 0.34416 0.0
H420 H 0.04028 0.27904 0.31029 0.0
S421 S 0.93629 0.04678 0.27386 0.0
N422 N 0.96402 0.057 0.3018 0.0
N423 N 0.94751 0.11039 0.26523 0.0
C424 C 0.97484 0.14322 0.28547 0.0
C425 C 0.98405 0.11436 0.30531 0.0
loop_
_geom_bond_atom_site_label_1
_geom_bond_atom_site_label_2
_geom_bond_distance
_geom_bond_site_symmetry_2
_ccdc_geom_bond_type
Mn0 O5 2.095 . S
Mn0 O15 2.162 1_545 S
Mn0 O16 2.297 1_445 S
Mn0 O24 2.385 1_445 S
Mn0 O25 2.215 1_445 S
Mn0 O26 2.094 . S
Mn1 O6 2.121 . S
Mn1 N8 2.257 . S
Mn1 N17 2.282 1_554 S
Mn1 O25 2.193 1_545 S
Mn1 O27 2.117 1_654 S
C2 O24 1.234 . S
C2 O25 1.303 . S
C3 O15 1.281 . S
C3 O16 1.236 1_455 S
C4 O26 1.240 . S
C4 O27 1.264 1_554 S
O5 Mn0 2.095 . S
O5 C14 1.250 . S
O6 Mn1 2.121 . S
O6 C14 1.258 1_655 S
C7 N8 1.326 . S
C7 C11 1.460 . S
C7 H13 0.929 . S
N8 Mn1 2.257 . S
N8 C7 1.326 . S
N8 C12 1.362 1_554 S
C9 C10 1.258 . S
C9 C12 1.431 . S
C9 C29 1.449 . S
C10 C9 1.258 . S
C10 C11 1.477 1_556 S
C10 H30 0.931 . S
C11 C7 1.460 . S
C11 C10 1.477 1_554 S
C11 H31 0.930 . S
C12 N8 1.362 1_556 S
C12 C9 1.431 . S
C12 C22 1.476 . S
H13 C7 0.929 . S
C14 O5 1.250 . S
C14 O6 1.258 1_455 S
O15 Mn0 2.162 1_565 S
O15 C3 1.281 . S
O16 Mn0 2.297 1_665 S
O16 C3 1.236 1_655 S
N17 Mn1 2.282 1_556 S
N17 C18 1.328 . S
N17 C22 1.318 . S
C18 N17 1.328 . S
C18 C19 1.457 . S
C18 H23 0.929 1_655 S
C19 C18 1.457 . S
C19 C20 1.291 . S
C19 H32 0.931 . S
C20 C19 1.291 . S
C20 C21 1.373 . S
C20 H33 0.929 1_545 S
C21 C20 1.373 . S
C21 C22 1.396 . S
C21 C28 1.403 1_545 S
C22 C12 1.476 . S
C22 N17 1.318 . S
C22 C21 1.396 . S
H23 C18 0.929 1_455 S
O24 Mn0 2.385 1_665 S
O24 C2 1.234 . S
O25 Mn0 2.215 1_665 S
O25 Mn1 2.193 1_565 S
O25 C2 1.303 . S
O26 Mn0 2.094 . S
O26 C4 1.240 . S
O27 Mn1 2.117 1_456 S
O27 C4 1.264 1_556 S
C28 C21 1.403 1_565 S
C28 C29 1.399 1_565 S
C28 H34 0.929 . S
C29 C9 1.449 . S
C29 C28 1.399 1_545 S
C29 H35 0.930 1_545 S
H30 C10 0.931 . S
H31 C11 0.930 . S
H32 C19 0.931 . S
H33 C20 0.929 1_565 S
H34 C28 0.929 . S
H35 C29 0.930 1_565 S
Mn36 O41 2.095 1_565 S
Mn36 O51 2.162 . S
Mn36 O52 2.297 1_655 S
Mn36 O60 2.385 1_655 S
Mn36 O61 2.209 1_665 S
Mn36 O62 2.094 . S
Mn37 O42 2.121 . S
Mn37 N44 2.257 . S
Mn37 N53 2.282 . S
Mn37 O61 2.215 . S
Mn37 O63 2.117 1_455 S
C38 O60 1.234 1_545 S
C38 O61 1.283 . S
C39 O51 1.281 . S
C39 O52 1.236 1_655 S
C40 O62 1.240 1_545 S
C40 O63 1.264 . S
O41 Mn36 2.095 1_545 S
O41 C50 1.250 1_655 S
O42 Mn37 2.121 . S
O42 C50 1.258 . S
C43 N44 1.326 . S
C43 C47 1.460 . S
C43 H49 0.929 . S
N44 Mn37 2.257 . S
N44 C43 1.326 . S
N44 C48 1.362 . S
C45 C46 1.258 . S
C45 C48 1.431 . S
C45 C65 1.449 . S
C46 C45 1.258 . S
C46 C47 1.477 . S
C46 H66 0.931 . S
C47 C43 1.460 . S
C47 C46 1.477 . S
C47 H67 0.930 . S
C48 N44 1.362 . S
C48 C45 1.431 . S
C48 C58 1.476 . S
H49 C43 0.929 . S
C50 O41 1.250 1_455 S
C50 O42 1.258 . S
O51 Mn36 2.162 . S
O51 C39 1.281 . S
O52 Mn36 2.297 1_455 S
O52 C39 1.236 1_455 S
N53 Mn37 2.282 . S
N53 C54 1.328 . S
N53 C58 1.318 . S
C54 N53 1.328 . S
C54 C55 1.457 . S
C54 H59 0.929 . S
C55 C54 1.457 . S
C55 C56 1.291 . S
C55 H68 0.931 . S
C56 C55 1.291 . S
C56 C57 1.373 . S
C56 H69 0.929 . S
C57 C56 1.373 . S
C57 C58 1.396 . S
C57 C64 1.403 . S
C58 C48 1.476 . S
C58 N53 1.318 . S
C58 C57 1.396 . S
H59 C54 0.929 . S
O60 Mn36 2.385 1_455 S
O60 C38 1.234 1_565 S
O61 Mn36 2.209 1_445 S
O61 Mn37 2.215 . S
O61 C38 1.283 . S
O62 Mn36 2.094 . S
O62 C40 1.240 1_565 S
O63 Mn37 2.117 1_655 S
O63 C40 1.264 . S
C64 C57 1.403 . S
C64 C65 1.399 . S
C64 H70 0.929 . S
C65 C45 1.449 . S
C65 C64 1.399 . S
C65 H71 0.930 . S
H66 C46 0.931 . S
H67 C47 0.930 . S
H68 C55 0.931 . S
H69 C56 0.929 . S
H70 C64 0.929 . S
H71 C65 0.930 . S
Mn72 O77 2.095 1_455 S
Mn72 O87 2.162 1_545 S
Mn72 O88 2.297 . S
Mn72 O96 2.385 . S
Mn72 O97 2.209 . S
Mn72 O98 2.094 1_445 S
Mn73 O78 2.121 . S
Mn73 N80 2.257 . S
Mn73 N89 2.282 . S
Mn73 O97 2.215 1_655 S
Mn73 O99 2.117 1_545 S
C74 O96 1.234 . S
C74 O97 1.283 . S
C75 O87 1.281 1_545 S
C75 O88 1.236 . S
C76 O98 1.240 . S
C76 O99 1.264 . S
O77 Mn72 2.095 1_655 S
O77 C86 1.250 . S
O78 Mn73 2.121 . S
O78 C86 1.258 . S
C79 N80 1.326 . S
C79 C83 1.460 . S
C79 H85 0.929 . S
N80 Mn73 2.257 . S
N80 C79 1.326 . S
N80 C84 1.362 1_655 S
C81 C82 1.258 . S
C81 C84 1.431 . S
C81 C101 1.449 . S
C82 C81 1.258 . S
C82 C83 1.477 1_455 S
C82 H102 0.931 . S
C83 C79 1.460 . S
C83 C82 1.477 1_655 S
C83 H103 0.930 . S
C84 N80 1.362 1_455 S
C84 C81 1.431 . S
C84 C94 1.476 . S
H85 C79 0.929 . S
C86 O77 1.250 . S
C86 O78 1.258 . S
O87 Mn72 2.162 1_565 S
O87 C75 1.281 1_565 S
O88 Mn72 2.297 . S
O88 C75 1.236 . S
N89 Mn73 2.282 . S
N89 C90 1.322 1_655 S
N89 C94 1.318 1_655 S
C90 N89 1.322 1_455 S
C90 C91 1.460 . S
C90 H95 0.932 1_455 S
C91 C90 1.460 . S
C91 C92 1.291 . S
C91 H104 0.931 . S
C92 C91 1.291 . S
C92 C93 1.373 . S
C92 H105 0.929 . S
C93 C92 1.373 . S
C93 C94 1.396 . S
C93 C100 1.403 . S
C94 C84 1.476 . S
C94 N89 1.318 1_455 S
C94 C93 1.396 . S
H95 C90 0.932 1_655 S
O96 Mn72 2.385 . S
O96 C74 1.234 . S
O97 Mn72 2.209 . S
O97 Mn73 2.215 1_455 S
O97 C74 1.283 . S
O98 Mn72 2.094 1_665 S
O98 C76 1.240 . S
O99 Mn73 2.117 1_565 S
O99 C76 1.264 . S
C100 C93 1.403 . S
C100 C101 1.399 . S
C100 H106 0.929 . S
C101 C81 1.449 . S
C101 C100 1.399 . S
C101 H107 0.930 . S
H102 C82 0.931 . S
H103 C83 0.930 . S
H104 C91 0.931 . S
H105 C92 0.929 . S
H106 C100 0.929 . S
H107 C101 0.930 . S
H108 C135 0.929 . S
N109 C134 1.433 . S
N109 C140 1.438 1_655 S
N109 C146 1.423 . S
H110 C136 0.930 . S
H111 C139 0.931 . S
H112 C138 0.929 . S
H113 C141 0.930 . S
H114 C142 0.932 . S
H115 C145 0.929 . S
H116 C144 0.931 . S
H117 C147 0.929 . S
H118 C151 0.932 . S
H119 C148 0.931 . S
H120 C150 0.929 . S
H121 C153 0.929 . S
H122 C154 0.930 . S
H123 C156 0.929 . S
H124 C157 0.931 . S
H125 C159 0.930 . S
H126 C160 0.932 . S
H127 C162 0.931 . S
H128 C163 0.929 . S
H129 C165 0.929 . S
H130 C166 0.931 . S
H131 C168 0.929 . S
N132 C152 1.433 . S
N132 C158 1.425 1_655 S
N132 C164 1.423 . S
H133 C169 0.932 . S
C134 N109 1.433 . S
C134 C135 1.363 . S
C134 C139 1.370 1_655 S
C135 H108 0.929 . S
C135 C134 1.363 . S
C135 C136 1.385 . S
C136 H110 0.930 . S
C136 C135 1.385 . S
C136 C137 1.357 1_655 S
C137 C136 1.357 1_455 S
C137 C138 1.406 . S
C138 H112 0.929 . S
C138 C137 1.406 . S
C138 C139 1.391 . S
C139 H111 0.931 . S
C139 C134 1.370 1_455 S
C139 C138 1.391 . S
C140 N109 1.438 1_455 S
C140 C141 1.364 . S
C140 C145 1.364 1_455 S
C141 H113 0.930 . S
C141 C140 1.364 . S
C141 C142 1.405 . S
C142 H114 0.932 . S
C142 C141 1.405 . S
C142 C143 1.383 . S
C143 C142 1.383 . S
C143 C144 1.393 1_455 S
C144 H116 0.931 . S
C144 C143 1.393 1_655 S
C144 C145 1.382 . S
C145 H115 0.929 . S
C145 C140 1.364 1_655 S
C145 C144 1.382 . S
C146 N109 1.423 . S
C146 C147 1.362 . S
C146 C151 1.388 1_655 S
C147 H117 0.929 . S
C147 C146 1.362 . S
C147 C148 1.376 . S
C148 H119 0.931 . S
C148 C147 1.376 . S
C148 C149 1.396 . S
C149 C148 1.396 . S
C149 C150 1.348 1_655 S
C149 C167 1.472 . S
C150 H120 0.929 . S
C150 C149 1.348 1_455 S
C150 C151 1.443 . S
C151 H118 0.932 . S
C151 C146 1.388 1_455 S
C151 C150 1.443 . S
C152 N132 1.433 . S
C152 C153 1.363 . S
C152 C157 1.370 1_655 S
C153 H121 0.929 . S
C153 C152 1.363 . S
C153 C154 1.385 . S
C154 H122 0.930 . S
C154 C153 1.385 . S
C154 C155 1.357 1_655 S
C155 C154 1.357 1_455 S
C155 C156 1.406 . S
C156 H123 0.929 . S
C156 C155 1.406 . S
C156 C157 1.391 . S
C157 H124 0.931 . S
C157 C152 1.370 1_455 S
C157 C156 1.391 . S
C158 N132 1.425 1_455 S
C158 C159 1.378 . S
C158 C163 1.362 1_455 S
C159 H125 0.930 . S
C159 C158 1.378 . S
C159 C160 1.405 . S
C160 H126 0.932 . S
C160 C159 1.405 . S
C160 C161 1.383 . S
C161 C160 1.383 . S
C161 C162 1.393 1_455 S
C162 H127 0.931 . S
C162 C161 1.393 1_655 S
C162 C163 1.382 . S
C163 H128 0.929 . S
C163 C158 1.362 1_655 S
C163 C162 1.382 . S
C164 N132 1.423 . S
C164 C165 1.362 . S
C164 C169 1.388 1_655 S
C165 H129 0.929 . S
C165 C164 1.362 . S
C165 C166 1.376 . S
C166 H130 0.931 . S
C166 C165 1.376 . S
C166 C167 1.396 . S
C167 C149 1.472 . S
C167 C166 1.396 . S
C167 C168 1.348 1_655 S
C168 H131 0.929 . S
C168 C167 1.348 1_455 S
C168 C169 1.443 . S
C169 H133 0.932 . S
C169 C164 1.388 1_455 S
C169 C168 1.443 . S
H170 C197 0.929 . S
N171 C196 1.433 . S
N171 C202 1.435 . S
N171 C208 1.423 . S
H172 C198 0.930 . S
H173 C201 0.931 . S
H174 C200 0.929 . S
H175 C203 0.930 . S
H176 C204 0.932 1_565 S
H177 C207 0.929 . S
H178 C206 0.931 . S
H179 C209 0.929 . S
H180 C213 0.932 . S
H181 C210 0.931 . S
H182 C212 0.929 . S
H183 C215 0.929 . S
H184 C216 0.930 . S
H185 C218 0.929 . S
H186 C219 0.931 . S
H187 C221 0.930 . S
H188 C222 0.932 1_565 S
H189 C224 0.931 . S
H190 C225 0.929 . S
H191 C227 0.929 . S
H192 C228 0.931 . S
H193 C230 0.929 . S
N194 C214 1.433 . S
N194 C220 1.435 . S
N194 C226 1.423 . S
H195 C231 0.932 . S
C196 N171 1.433 . S
C196 C197 1.363 . S
C196 C201 1.370 . S
C197 H170 0.929 . S
C197 C196 1.363 . S
C197 C198 1.385 . S
C198 H172 0.930 . S
C198 C197 1.385 . S
C198 C199 1.357 . S
C199 C198 1.357 . S
C199 C200 1.406 . S
C200 H174 0.929 . S
C200 C199 1.406 . S
C200 C201 1.391 . S
C201 H173 0.931 . S
C201 C196 1.370 . S
C201 C200 1.391 . S
C202 N171 1.435 . S
C202 C203 1.358 . S
C202 C207 1.371 . S
C203 H175 0.930 . S
C203 C202 1.358 . S
C203 C204 1.405 . S
C204 H176 0.932 1_545 S
C204 C203 1.405 . S
C204 C205 1.383 . S
C205 C204 1.383 . S
C205 C206 1.393 . S
C206 H178 0.931 . S
C206 C205 1.393 . S
C206 C207 1.382 . S
C207 H177 0.929 . S
C207 C202 1.371 . S
C207 C206 1.382 . S
C208 N171 1.423 . S
C208 C209 1.362 . S
C208 C213 1.388 . S
C209 H179 0.929 . S
C209 C208 1.362 . S
C209 C210 1.376 . S
C210 H181 0.931 . S
C210 C209 1.376 . S
C210 C211 1.396 . S
C211 C210 1.396 . S
C211 C212 1.348 . S
C211 C229 1.472 . S
C212 H182 0.929 . S
C212 C211 1.348 . S
C212 C213 1.443 . S
C213 H180 0.932 . S
C213 C208 1.388 . S
C213 C212 1.443 . S
C214 N194 1.433 . S
C214 C215 1.363 . S
C214 C219 1.370 . S
C215 H183 0.929 . S
C215 C214 1.363 . S
C215 C216 1.385 . S
C216 H184 0.930 . S
C216 C215 1.385 . S
C216 C217 1.357 . S
C217 C216 1.357 . S
C217 C218 1.406 . S
C218 H185 0.929 . S
C218 C217 1.406 . S
C218 C219 1.391 . S
C219 H186 0.931 . S
C219 C214 1.370 . S
C219 C218 1.391 . S
C220 N194 1.435 . S
C220 C221 1.358 . S
C220 C225 1.371 . S
C221 H187 0.930 . S
C221 C220 1.358 . S
C221 C222 1.405 . S
C222 H188 0.932 1_545 S
C222 C221 1.405 . S
C222 C223 1.383 . S
C223 C222 1.383 . S
C223 C224 1.393 . S
C224 H189 0.931 . S
C224 C223 1.393 . S
C224 C225 1.382 . S
C225 H190 0.929 . S
C225 C220 1.371 . S
C225 C224 1.382 . S
C226 N194 1.423 . S
C226 C227 1.362 . S
C226 C231 1.388 . S
C227 H191 0.929 . S
C227 C226 1.362 . S
C227 C228 1.376 . S
C228 H192 0.931 . S
C228 C227 1.376 . S
C228 C229 1.396 . S
C229 C211 1.472 . S
C229 C228 1.396 . S
C229 C230 1.348 . S
C230 H193 0.929 . S
C230 C229 1.348 . S
C230 C231 1.443 . S
C231 H195 0.932 . S
C231 C226 1.388 . S
C231 C230 1.443 . S
H232 C259 0.929 . S
N233 C258 1.433 . S
N233 C264 1.435 . S
N233 C270 1.423 . S
H234 C260 0.930 . S
H235 C263 0.931 . S
H236 C262 0.929 . S
H237 C265 0.930 . S
H238 C266 0.932 . S
H239 C269 0.929 . S
H240 C268 0.931 . S
H241 C271 0.929 . S
H242 C275 0.932 . S
H243 C272 0.931 . S
H244 C274 0.929 . S
H245 C277 0.929 . S
H246 C278 0.930 . S
H247 C280 0.929 . S
H248 C281 0.931 . S
H249 C283 0.930 . S
H250 C284 0.932 . S
H251 C286 0.931 . S
H252 C287 0.929 . S
H253 C289 0.929 . S
H254 C290 0.931 . S
H255 C292 0.929 . S
N256 C276 1.433 . S
N256 C282 1.435 . S
N256 C288 1.423 . S
H257 C293 0.932 . S
C258 N233 1.433 . S
C258 C259 1.363 . S
C258 C263 1.370 . S
C259 H232 0.929 . S
C259 C258 1.363 . S
C259 C260 1.385 . S
C260 H234 0.930 . S
C260 C259 1.385 . S
C260 C261 1.357 . S
C261 C260 1.357 . S
C261 C262 1.406 . S
C262 H236 0.929 . S
C262 C261 1.406 . S
C262 C263 1.391 . S
C263 H235 0.931 . S
C263 C258 1.370 . S
C263 C262 1.391 . S
C264 N233 1.435 . S
C264 C265 1.358 . S
C264 C269 1.371 . S
C265 H237 0.930 . S
C265 C264 1.358 . S
C265 C266 1.405 . S
C266 H238 0.932 . S
C266 C265 1.405 . S
C266 C267 1.383 . S
C267 C266 1.383 . S
C267 C268 1.393 . S
C268 H240 0.931 . S
C268 C267 1.393 . S
C268 C269 1.382 . S
C269 H239 0.929 . S
C269 C264 1.371 . S
C269 C268 1.382 . S
C270 N233 1.423 . S
C270 C271 1.362 . S
C270 C275 1.388 . S
C271 H241 0.929 . S
C271 C270 1.362 . S
C271 C272 1.376 . S
C272 H243 0.931 . S
C272 C271 1.376 . S
C272 C273 1.396 . S
C273 C272 1.396 . S
C273 C274 1.348 . S
C273 C291 1.472 . S
C274 H244 0.929 . S
C274 C273 1.348 . S
C274 C275 1.443 . S
C275 H242 0.932 . S
C275 C270 1.388 . S
C275 C274 1.443 . S
C276 N256 1.433 . S
C276 C277 1.363 . S
C276 C281 1.370 . S
C277 H245 0.929 . S
C277 C276 1.363 . S
C277 C278 1.385 . S
C278 H246 0.930 . S
C278 C277 1.385 . S
C278 C279 1.357 . S
C279 C278 1.357 . S
C279 C280 1.406 . S
C280 H247 0.929 . S
C280 C279 1.406 . S
C280 C281 1.391 . S
C281 H248 0.931 . S
C281 C276 1.370 . S
C281 C280 1.391 . S
C282 N256 1.435 . S
C282 C283 1.358 . S
C282 C287 1.371 . S
C283 H249 0.930 . S
C283 C282 1.358 . S
C283 C284 1.405 . S
C284 H250 0.932 . S
C284 C283 1.405 . S
C284 C285 1.383 . S
C285 C284 1.383 . S
C285 C286 1.393 . S
C286 H251 0.931 . S
C286 C285 1.393 . S
C286 C287 1.382 . S
C287 H252 0.929 . S
C287 C282 1.371 . S
C287 C286 1.382 . S
C288 N256 1.423 . S
C288 C289 1.362 . S
C288 C293 1.388 . S
C289 H253 0.929 . S
C289 C288 1.362 . S
C289 C290 1.376 . S
C290 H254 0.931 . S
C290 C289 1.376 . S
C290 C291 1.396 . S
C291 C273 1.472 . S
C291 C290 1.396 . S
C291 C292 1.348 . S
C292 H255 0.929 . S
C292 C291 1.348 . S
C292 C293 1.443 . S
C293 H257 0.932 . S
C293 C288 1.388 . S
C293 C292 1.443 . S
C294 C295 1.369 . S
C294 C296 1.419 . S
C294 H298 0.930 . S
C295 C294 1.369 . S
C295 C304 1.429 1_455 S
C296 C294 1.419 . S
C296 C297 1.363 . S
C296 H299 0.929 . S
C297 C296 1.363 . S
C297 C303 1.428 1_455 S
H298 C294 0.930 . S
H299 C296 0.929 . S
S300 N301 1.613 . S
S300 N302 1.610 . S
N301 S300 1.613 . S
N301 C304 1.350 . S
N302 S300 1.610 . S
N302 C303 1.351 . S
C303 C297 1.428 1_655 S
C303 N302 1.351 . S
C303 C304 1.434 . S
C304 C295 1.429 1_655 S
C304 N301 1.350 . S
C304 C303 1.434 . S
C305 C306 1.369 . S
C305 C307 1.419 . S
C305 H309 0.930 . S
C306 C305 1.369 . S
C306 C315 1.429 . S
C307 C305 1.419 . S
C307 C308 1.363 . S
C307 H310 0.929 . S
C308 C307 1.363 . S
C308 C314 1.428 . S
H309 C305 0.930 . S
H310 C307 0.929 . S
S311 N312 1.613 . S
S311 N313 1.610 . S
N312 S311 1.613 . S
N312 C315 1.350 . S
N313 S311 1.610 . S
N313 C314 1.351 . S
C314 C308 1.428 . S
C314 N313 1.351 . S
C314 C315 1.434 . S
C315 C306 1.429 . S
C315 N312 1.350 . S
C315 C314 1.434 . S
C316 C317 1.369 . S
C316 C318 1.419 . S
C316 H320 0.930 . S
C317 C316 1.369 . S
C317 C326 1.429 . S
C318 C316 1.419 . S
C318 C319 1.363 . S
C318 H321 0.929 . S
C319 C318 1.363 . S
C319 C325 1.428 . S
H320 C316 0.930 . S
H321 C318 0.929 . S
S322 N323 1.613 . S
S322 N324 1.610 . S
N323 S322 1.613 . S
N323 C326 1.350 . S
N324 S322 1.610 . S
N324 C325 1.351 . S
C325 C319 1.428 . S
C325 N324 1.351 . S
C325 C326 1.434 . S
C326 C317 1.429 . S
C326 N323 1.350 . S
C326 C325 1.434 . S
C327 C328 1.369 1_655 S
C327 C329 1.419 . S
C327 H331 0.930 . S
C328 C327 1.369 1_455 S
C328 C337 1.429 . S
C329 C327 1.419 . S
C329 C330 1.363 1_655 S
C329 H332 0.929 . S
C330 C329 1.363 1_455 S
C330 C336 1.428 . S
H331 C327 0.930 . S
H332 C329 0.929 . S
S333 N334 1.613 . S
S333 N335 1.610 . S
N334 S333 1.613 . S
N334 C337 1.350 . S
N335 S333 1.610 . S
N335 C336 1.351 . S
C336 C330 1.428 . S
C336 N335 1.351 . S
C336 C337 1.434 . S
C337 C328 1.429 . S
C337 N334 1.350 . S
C337 C336 1.434 . S
C338 C339 1.369 . S
C338 C340 1.419 . S
C338 H342 0.930 . S
C339 C338 1.369 . S
C339 C348 1.429 . S
C340 C338 1.419 . S
C340 C341 1.363 . S
C340 H343 0.929 . S
C341 C340 1.363 . S
C341 C347 1.428 . S
H342 C338 0.930 . S
H343 C340 0.929 . S
S344 N345 1.613 . S
S344 N346 1.610 . S
N345 S344 1.613 . S
N345 C348 1.350 . S
N346 S344 1.610 . S
N346 C347 1.351 . S
C347 C341 1.428 . S
C347 N346 1.351 . S
C347 C348 1.434 . S
C348 C339 1.429 . S
C348 N345 1.350 . S
C348 C347 1.434 . S
C349 C350 1.369 . S
C349 C351 1.419 . S
C349 H353 0.930 . S
C350 C349 1.369 . S
C350 C359 1.429 . S
C351 C349 1.419 . S
C351 C352 1.363 . S
C351 H354 0.929 . S
C352 C351 1.363 . S
C352 C358 1.428 . S
H353 C349 0.930 . S
H354 C351 0.929 . S
S355 N356 1.613 . S
S355 N357 1.610 . S
N356 S355 1.613 . S
N356 C359 1.350 . S
N357 S355 1.610 . S
N357 C358 1.351 . S
C358 C352 1.428 . S
C358 N357 1.351 . S
C358 C359 1.434 . S
C359 C350 1.429 . S
C359 N356 1.350 . S
C359 C358 1.434 . S
C360 C361 1.369 . S
C360 C362 1.419 . S
C360 H364 0.926 1_545 S
C361 C360 1.369 . S
C361 C370 1.429 . S
C362 C360 1.419 . S
C362 C363 1.363 . S
C362 H365 0.929 . S
C363 C362 1.363 . S
C363 C369 1.428 . S
H364 C360 0.926 1_565 S
H365 C362 0.929 . S
S366 N367 1.613 . S
S366 N368 1.610 . S
N367 S366 1.613 . S
N367 C370 1.350 . S
N368 S366 1.610 . S
N368 C369 1.351 . S
C369 C363 1.428 . S
C369 N368 1.351 . S
C369 C370 1.434 . S
C370 C361 1.429 . S
C370 N367 1.350 . S
C370 C369 1.434 . S
C371 C372 1.369 . S
C371 C373 1.419 . S
C371 H375 0.930 1_556 S
C372 C371 1.369 . S
C372 C381 1.429 . S
C373 C371 1.419 . S
C373 C374 1.363 . S
C373 H376 0.929 . S
C374 C373 1.363 . S
C374 C380 1.428 . S
H375 C371 0.930 1_554 S
H376 C373 0.929 . S
S377 N378 1.613 . S
S377 N379 1.610 . S
N378 S377 1.613 . S
N378 C381 1.350 . S
N379 S377 1.610 . S
N379 C380 1.351 . S
C380 C374 1.428 . S
C380 N379 1.351 . S
C380 C381 1.434 . S
C381 C372 1.429 . S
C381 N378 1.350 . S
C381 C380 1.434 . S
C382 C383 1.369 1_655 S
C382 C384 1.419 . S
C382 H386 0.930 . S
C383 C382 1.369 1_455 S
C383 C392 1.429 . S
C384 C382 1.419 . S
C384 C385 1.363 1_655 S
C384 H387 0.929 . S
C385 C384 1.363 1_455 S
C385 C391 1.428 . S
H386 C382 0.930 . S
H387 C384 0.929 . S
S388 N389 1.613 . S
S388 N390 1.610 . S
N389 S388 1.613 . S
N389 C392 1.350 . S
N390 S388 1.610 . S
N390 C391 1.351 . S
C391 C385 1.428 . S
C391 N390 1.351 . S
C391 C392 1.434 . S
C392 C383 1.429 . S
C392 N389 1.350 . S
C392 C391 1.434 . S
C393 C394 1.369 . S
C393 C395 1.419 . S
C393 H397 0.930 . S
C394 C393 1.369 . S
C394 C403 1.429 1_545 S
C395 C393 1.419 . S
C395 C396 1.363 . S
C395 H398 0.929 . S
C396 C395 1.363 . S
C396 C402 1.428 1_545 S
H397 C393 0.930 . S
H398 C395 0.929 . S
S399 N400 1.613 . S
S399 N401 1.610 . S
N400 S399 1.613 . S
N400 C403 1.350 . S
N401 S399 1.610 . S
N401 C402 1.351 . S
C402 C396 1.428 1_565 S
C402 N401 1.351 . S
C402 C403 1.434 . S
C403 C394 1.429 1_565 S
C403 N400 1.350 . S
C403 C402 1.434 . S
C404 C405 1.369 . S
C404 C406 1.419 . S
C404 H408 0.930 . S
C405 C404 1.369 . S
C405 C414 1.429 . S
C406 C404 1.419 . S
C406 C407 1.363 . S
C406 H409 0.929 . S
C407 C406 1.363 . S
C407 C413 1.428 . S
H408 C404 0.930 . S
H409 C406 0.929 . S
S410 N411 1.613 . S
S410 N412 1.610 . S
N411 S410 1.613 . S
N411 C414 1.350 . S
N412 S410 1.610 . S
N412 C413 1.351 . S
C413 C407 1.428 . S
C413 N412 1.351 . S
C413 C414 1.434 . S
C414 C405 1.429 . S
C414 N411 1.350 . S
C414 C413 1.434 . S
C415 C416 1.369 . S
C415 C417 1.419 . S
C415 H419 0.930 . S
C416 C415 1.369 . S
C416 C425 1.429 . S
C417 C415 1.419 . S
C417 C418 1.363 . S
C417 H420 0.929 . S
C418 C417 1.363 . S
C418 C424 1.428 . S
H419 C415 0.930 . S
H420 C417 0.929 . S
S421 N422 1.613 . S
S421 N423 1.610 . S
N422 S421 1.613 . S
N422 C425 1.350 . S
N423 S421 1.610 . S
N423 C424 1.351 . S
C424 C418 1.428 . S
C424 N423 1.351 . S
C424 C425 1.434 . S
C425 C416 1.429 . S
C425 N422 1.350 . S
C425 C424 1.434 . S
C297 C161 1.434 . S
C295 C14 1.424 . S
C306 C40 1.430 . S
C308 C205 1.466 . S
C317 C76 1.422 . S
C319 C267 1.453 . S
C328 C3 1.412 . S
C330 C143 1.418 . S
C341 C223 1.459 . S
C339 C38 1.436 . S
C350 C74 1.408 . S
C352 C285 1.433 . S
C363 C199 1.562 . S
C361 C86 1.595 . S
C372 C2 1.677 1_556 S
C374 C261 1.578 . S
C385 C137 1.568 . S
C383 C39 1.688 1_455 S
C396 C217 1.587 . S
C394 C75 1.688 . S
C407 C279 1.597 . S
C405 C4 1.684 1_556 S
C416 C50 1.611 . S
C418 C155 1.579 . S
