# Generated by pormake.
# Topology bpr, (3,3)-cn, num edge types: 1
# Building blocks:
#     Node 0, Type 0, BuildingBlock: WUSLED_clean_sbu_0, # of connection points: 3
#     Node 1, Type 0, BuildingBlock: WUSLED_clean_sbu_0, # of connection points: 3
#     Node 2, Type 0, BuildingBlock: WUSLED_clean_sbu_0, # of connection points: 3
#     Node 3, Type 0, BuildingBlock: WUSLED_clean_sbu_0, # of connection points: 3
#     Node 4, Type 0, BuildingBlock: WUSLED_clean_sbu_0, # of connection points: 3
#     Node 5, Type 0, BuildingBlock: WUSLED_clean_sbu_0, # of connection points: 3
#     Node 6, Type 0, BuildingBlock: WUSLED_clean_sbu_0, # of connection points: 3
#     Node 7, Type 0, BuildingBlock: WUSLED_clean_sbu_0, # of connection points: 3
#     Node 8, Type 0, BuildingBlock: WUSLED_clean_sbu_0, # of connection points: 3
#     Node 9, Type 0, BuildingBlock: WUSLED_clean_sbu_0, # of connection points: 3
#     Node 10, Type 0, BuildingBlock: WUSLED_clean_sbu_0, # of connection points: 3
#     Node 11, Type 0, BuildingBlock: WUSLED_clean_sbu_0, # of connection points: 3
#     Node 12, Type 0, BuildingBlock: WUSLED_clean_sbu_0, # of connection points: 3
#     Node 13, Type 0, BuildingBlock: WUSLED_clean_sbu_0, # of connection points: 3
#     Node 14, Type 0, BuildingBlock: WUSLED_clean_sbu_0, # of connection points: 3
#     Node 15, Type 0, BuildingBlock: WUSLED_clean_sbu_0, # of connection points: 3
#     Node 16, Type 0, BuildingBlock: WUSLED_clean_sbu_0, # of connection points: 3
#     Node 17, Type 0, BuildingBlock: WUSLED_clean_sbu_0, # of connection points: 3
#     Node 18, Type 0, BuildingBlock: WUSLED_clean_sbu_0, # of connection points: 3
#     Node 19, Type 0, BuildingBlock: WUSLED_clean_sbu_0, # of connection points: 3
#     Node 20, Type 0, BuildingBlock: WUSLED_clean_sbu_0, # of connection points: 3
#     Node 21, Type 0, BuildingBlock: WUSLED_clean_sbu_0, # of connection points: 3
#     Node 22, Type 0, BuildingBlock: WUSLED_clean_sbu_0, # of connection points: 3
#     Node 23, Type 0, BuildingBlock: WUSLED_clean_sbu_0, # of connection points: 3
#     Node 24, Type 0, BuildingBlock: WUSLED_clean_sbu_0, # of connection points: 3
#     Node 25, Type 0, BuildingBlock: WUSLED_clean_sbu_0, # of connection points: 3
#     Node 26, Type 0, BuildingBlock: WUSLED_clean_sbu_0, # of connection points: 3
#     Node 27, Type 0, BuildingBlock: WUSLED_clean_sbu_0, # of connection points: 3
#     Node 28, Type 0, BuildingBlock: WUSLED_clean_sbu_0, # of connection points: 3
#     Node 29, Type 0, BuildingBlock: WUSLED_clean_sbu_0, # of connection points: 3
#     Node 30, Type 0, BuildingBlock: WUSLED_clean_sbu_0, # of connection points: 3
#     Node 31, Type 0, BuildingBlock: WUSLED_clean_sbu_0, # of connection points: 3
#     Node 32, Type 0, BuildingBlock: WUSLED_clean_sbu_0, # of connection points: 3
#     Node 33, Type 0, BuildingBlock: WUSLED_clean_sbu_0, # of connection points: 3
#     Node 34, Type 0, BuildingBlock: WUSLED_clean_sbu_0, # of connection points: 3
#     Node 35, Type 0, BuildingBlock: WUSLED_clean_sbu_0, # of connection points: 3
#     Node 36, Type 0, BuildingBlock: WUSLED_clean_sbu_0, # of connection points: 3
#     Node 37, Type 0, BuildingBlock: WUSLED_clean_sbu_0, # of connection points: 3
#     Node 38, Type 0, BuildingBlock: WUSLED_clean_sbu_0, # of connection points: 3
#     Node 39, Type 0, BuildingBlock: WUSLED_clean_sbu_0, # of connection points: 3
#     Node 40, Type 0, BuildingBlock: WUSLED_clean_sbu_0, # of connection points: 3
#     Node 41, Type 0, BuildingBlock: WUSLED_clean_sbu_0, # of connection points: 3
#     Node 42, Type 0, BuildingBlock: WUSLED_clean_sbu_0, # of connection points: 3
#     Node 43, Type 0, BuildingBlock: WUSLED_clean_sbu_0, # of connection points: 3
#     Node 44, Type 0, BuildingBlock: WUSLED_clean_sbu_0, # of connection points: 3
#     Node 45, Type 0, BuildingBlock: WUSLED_clean_sbu_0, # of connection points: 3
#     Node 46, Type 0, BuildingBlock: WUSLED_clean_sbu_0, # of connection points: 3
#     Node 47, Type 0, BuildingBlock: WUSLED_clean_sbu_0, # of connection points: 3
#     Node 48, Type 1, BuildingBlock: BETDIP_clean_linker_0, # of connection points: 3
#     Node 49, Type 1, BuildingBlock: BETDIP_clean_linker_0, # of connection points: 3
#     Node 50, Type 1, BuildingBlock: BETDIP_clean_linker_0, # of connection points: 3
#     Node 51, Type 1, BuildingBlock: BETDIP_clean_linker_0, # of connection points: 3
#     Node 52, Type 1, BuildingBlock: BETDIP_clean_linker_0, # of connection points: 3
#     Node 53, Type 1, BuildingBlock: BETDIP_clean_linker_0, # of connection points: 3
#     Node 54, Type 1, BuildingBlock: BETDIP_clean_linker_0, # of connection points: 3
#     Node 55, Type 1, BuildingBlock: BETDIP_clean_linker_0, # of connection points: 3
#     Node 56, Type 1, BuildingBlock: BETDIP_clean_linker_0, # of connection points: 3
#     Node 57, Type 1, BuildingBlock: BETDIP_clean_linker_0, # of connection points: 3
#     Node 58, Type 1, BuildingBlock: BETDIP_clean_linker_0, # of connection points: 3
#     Node 59, Type 1, BuildingBlock: BETDIP_clean_linker_0, # of connection points: 3
#     Node 60, Type 1, BuildingBlock: BETDIP_clean_linker_0, # of connection points: 3
#     Node 61, Type 1, BuildingBlock: BETDIP_clean_linker_0, # of connection points: 3
#     Node 62, Type 1, BuildingBlock: BETDIP_clean_linker_0, # of connection points: 3
#     Node 63, Type 1, BuildingBlock: BETDIP_clean_linker_0, # of connection points: 3
#     Node 64, Type 1, BuildingBlock: BETDIP_clean_linker_0, # of connection points: 3
#     Node 65, Type 1, BuildingBlock: BETDIP_clean_linker_0, # of connection points: 3
#     Node 66, Type 1, BuildingBlock: BETDIP_clean_linker_0, # of connection points: 3
#     Node 67, Type 1, BuildingBlock: BETDIP_clean_linker_0, # of connection points: 3
#     Node 68, Type 1, BuildingBlock: BETDIP_clean_linker_0, # of connection points: 3
#     Node 69, Type 1, BuildingBlock: BETDIP_clean_linker_0, # of connection points: 3
#     Node 70, Type 1, BuildingBlock: BETDIP_clean_linker_0, # of connection points: 3
#     Node 71, Type 1, BuildingBlock: BETDIP_clean_linker_0, # of connection points: 3
#     Node 72, Type 1, BuildingBlock: BETDIP_clean_linker_0, # of connection points: 3
#     Node 73, Type 1, BuildingBlock: BETDIP_clean_linker_0, # of connection points: 3
#     Node 74, Type 1, BuildingBlock: BETDIP_clean_linker_0, # of connection points: 3
#     Node 75, Type 1, BuildingBlock: BETDIP_clean_linker_0, # of connection points: 3
#     Node 76, Type 1, BuildingBlock: BETDIP_clean_linker_0, # of connection points: 3
#     Node 77, Type 1, BuildingBlock: BETDIP_clean_linker_0, # of connection points: 3
#     Node 78, Type 1, BuildingBlock: BETDIP_clean_linker_0, # of connection points: 3
#     Node 79, Type 1, BuildingBlock: BETDIP_clean_linker_0, # of connection points: 3
#     Node 80, Type 1, BuildingBlock: BETDIP_clean_linker_0, # of connection points: 3
#     Node 81, Type 1, BuildingBlock: BETDIP_clean_linker_0, # of connection points: 3
#     Node 82, Type 1, BuildingBlock: BETDIP_clean_linker_0, # of connection points: 3
#     Node 83, Type 1, BuildingBlock: BETDIP_clean_linker_0, # of connection points: 3
#     Node 84, Type 1, BuildingBlock: BETDIP_clean_linker_0, # of connection points: 3
#     Node 85, Type 1, BuildingBlock: BETDIP_clean_linker_0, # of connection points: 3
#     Node 86, Type 1, BuildingBlock: BETDIP_clean_linker_0, # of connection points: 3
#     Node 87, Type 1, BuildingBlock: BETDIP_clean_linker_0, # of connection points: 3
#     Node 88, Type 1, BuildingBlock: BETDIP_clean_linker_0, # of connection points: 3
#     Node 89, Type 1, BuildingBlock: BETDIP_clean_linker_0, # of connection points: 3
#     Node 90, Type 1, BuildingBlock: BETDIP_clean_linker_0, # of connection points: 3
#     Node 91, Type 1, BuildingBlock: BETDIP_clean_linker_0, # of connection points: 3
#     Node 92, Type 1, BuildingBlock: BETDIP_clean_linker_0, # of connection points: 3
#     Node 93, Type 1, BuildingBlock: BETDIP_clean_linker_0, # of connection points: 3
#     Node 94, Type 1, BuildingBlock: BETDIP_clean_linker_0, # of connection points: 3
#     Node 95, Type 1, BuildingBlock: BETDIP_clean_linker_0, # of connection points: 3
#     Edge 96, Type (0, 1), BuildingBlock: EZIPEK_clean_linker_0, # of connection points: 2
#     Edge 97, Type (0, 1), BuildingBlock: EZIPEK_clean_linker_0, # of connection points: 2
#     Edge 98, Type (0, 1), BuildingBlock: EZIPEK_clean_linker_0, # of connection points: 2
#     Edge 99, Type (0, 1), BuildingBlock: EZIPEK_clean_linker_0, # of connection points: 2
#     Edge 100, Type (0, 1), BuildingBlock: EZIPEK_clean_linker_0, # of connection points: 2
#     Edge 101, Type (0, 1), BuildingBlock: EZIPEK_clean_linker_0, # of connection points: 2
#     Edge 102, Type (0, 1), BuildingBlock: EZIPEK_clean_linker_0, # of connection points: 2
#     Edge 103, Type (0, 1), BuildingBlock: EZIPEK_clean_linker_0, # of connection points: 2
#     Edge 104, Type (0, 1), BuildingBlock: EZIPEK_clean_linker_0, # of connection points: 2
#     Edge 105, Type (0, 1), BuildingBlock: EZIPEK_clean_linker_0, # of connection points: 2
#     Edge 106, Type (0, 1), BuildingBlock: EZIPEK_clean_linker_0, # of connection points: 2
#     Edge 107, Type (0, 1), BuildingBlock: EZIPEK_clean_linker_0, # of connection points: 2
#     Edge 108, Type (0, 1), BuildingBlock: EZIPEK_clean_linker_0, # of connection points: 2
#     Edge 109, Type (0, 1), BuildingBlock: EZIPEK_clean_linker_0, # of connection points: 2
#     Edge 110, Type (0, 1), BuildingBlock: EZIPEK_clean_linker_0, # of connection points: 2
#     Edge 111, Type (0, 1), BuildingBlock: EZIPEK_clean_linker_0, # of connection points: 2
#     Edge 112, Type (0, 1), BuildingBlock: EZIPEK_clean_linker_0, # of connection points: 2
#     Edge 113, Type (0, 1), BuildingBlock: EZIPEK_clean_linker_0, # of connection points: 2
#     Edge 114, Type (0, 1), BuildingBlock: EZIPEK_clean_linker_0, # of connection points: 2
#     Edge 115, Type (0, 1), BuildingBlock: EZIPEK_clean_linker_0, # of connection points: 2
#     Edge 116, Type (0, 1), BuildingBlock: EZIPEK_clean_linker_0, # of connection points: 2
#     Edge 117, Type (0, 1), BuildingBlock: EZIPEK_clean_linker_0, # of connection points: 2
#     Edge 118, Type (0, 1), BuildingBlock: EZIPEK_clean_linker_0, # of connection points: 2
#     Edge 119, Type (0, 1), BuildingBlock: EZIPEK_clean_linker_0, # of connection points: 2
#     Edge 120, Type (0, 1), BuildingBlock: EZIPEK_clean_linker_0, # of connection points: 2
#     Edge 121, Type (0, 1), BuildingBlock: EZIPEK_clean_linker_0, # of connection points: 2
#     Edge 122, Type (0, 1), BuildingBlock: EZIPEK_clean_linker_0, # of connection points: 2
#     Edge 123, Type (0, 1), BuildingBlock: EZIPEK_clean_linker_0, # of connection points: 2
#     Edge 124, Type (0, 1), BuildingBlock: EZIPEK_clean_linker_0, # of connection points: 2
#     Edge 125, Type (0, 1), BuildingBlock: EZIPEK_clean_linker_0, # of connection points: 2
#     Edge 126, Type (0, 1), BuildingBlock: EZIPEK_clean_linker_0, # of connection points: 2
#     Edge 127, Type (0, 1), BuildingBlock: EZIPEK_clean_linker_0, # of connection points: 2
#     Edge 128, Type (0, 1), BuildingBlock: EZIPEK_clean_linker_0, # of connection points: 2
#     Edge 129, Type (0, 1), BuildingBlock: EZIPEK_clean_linker_0, # of connection points: 2
#     Edge 130, Type (0, 1), BuildingBlock: EZIPEK_clean_linker_0, # of connection points: 2
#     Edge 131, Type (0, 1), BuildingBlock: EZIPEK_clean_linker_0, # of connection points: 2
#     Edge 132, Type (0, 1), BuildingBlock: EZIPEK_clean_linker_0, # of connection points: 2
#     Edge 133, Type (0, 1), BuildingBlock: EZIPEK_clean_linker_0, # of connection points: 2
#     Edge 134, Type (0, 1), BuildingBlock: EZIPEK_clean_linker_0, # of connection points: 2
#     Edge 135, Type (0, 1), BuildingBlock: EZIPEK_clean_linker_0, # of connection points: 2
#     Edge 136, Type (0, 1), BuildingBlock: EZIPEK_clean_linker_0, # of connection points: 2
#     Edge 137, Type (0, 1), BuildingBlock: EZIPEK_clean_linker_0, # of connection points: 2
#     Edge 138, Type (0, 1), BuildingBlock: EZIPEK_clean_linker_0, # of connection points: 2
#     Edge 139, Type (0, 1), BuildingBlock: EZIPEK_clean_linker_0, # of connection points: 2
#     Edge 140, Type (0, 1), BuildingBlock: EZIPEK_clean_linker_0, # of connection points: 2
#     Edge 141, Type (0, 1), BuildingBlock: EZIPEK_clean_linker_0, # of connection points: 2
#     Edge 142, Type (0, 1), BuildingBlock: EZIPEK_clean_linker_0, # of connection points: 2
#     Edge 143, Type (0, 1), BuildingBlock: EZIPEK_clean_linker_0, # of connection points: 2
#     Edge 144, Type (0, 1), BuildingBlock: EZIPEK_clean_linker_0, # of connection points: 2
#     Edge 145, Type (0, 1), BuildingBlock: EZIPEK_clean_linker_0, # of connection points: 2
#     Edge 146, Type (0, 1), BuildingBlock: EZIPEK_clean_linker_0, # of connection points: 2
#     Edge 147, Type (0, 1), BuildingBlock: EZIPEK_clean_linker_0, # of connection points: 2
#     Edge 148, Type (0, 1), BuildingBlock: EZIPEK_clean_linker_0, # of connection points: 2
#     Edge 149, Type (0, 1), BuildingBlock: EZIPEK_clean_linker_0, # of connection points: 2
#     Edge 150, Type (0, 1), BuildingBlock: EZIPEK_clean_linker_0, # of connection points: 2
#     Edge 151, Type (0, 1), BuildingBlock: EZIPEK_clean_linker_0, # of connection points: 2
#     Edge 152, Type (0, 1), BuildingBlock: EZIPEK_clean_linker_0, # of connection points: 2
#     Edge 153, Type (0, 1), BuildingBlock: EZIPEK_clean_linker_0, # of connection points: 2
#     Edge 154, Type (0, 1), BuildingBlock: EZIPEK_clean_linker_0, # of connection points: 2
#     Edge 155, Type (0, 1), BuildingBlock: EZIPEK_clean_linker_0, # of connection points: 2
#     Edge 156, Type (0, 1), BuildingBlock: EZIPEK_clean_linker_0, # of connection points: 2
#     Edge 157, Type (0, 1), BuildingBlock: EZIPEK_clean_linker_0, # of connection points: 2
#     Edge 158, Type (0, 1), BuildingBlock: EZIPEK_clean_linker_0, # of connection points: 2
#     Edge 159, Type (0, 1), BuildingBlock: EZIPEK_clean_linker_0, # of connection points: 2
#     Edge 160, Type (0, 1), BuildingBlock: EZIPEK_clean_linker_0, # of connection points: 2
#     Edge 161, Type (0, 1), BuildingBlock: EZIPEK_clean_linker_0, # of connection points: 2
#     Edge 162, Type (0, 1), BuildingBlock: EZIPEK_clean_linker_0, # of connection points: 2
#     Edge 163, Type (0, 1), BuildingBlock: EZIPEK_clean_linker_0, # of connection points: 2
#     Edge 164, Type (0, 1), BuildingBlock: EZIPEK_clean_linker_0, # of connection points: 2
#     Edge 165, Type (0, 1), BuildingBlock: EZIPEK_clean_linker_0, # of connection points: 2
#     Edge 166, Type (0, 1), BuildingBlock: EZIPEK_clean_linker_0, # of connection points: 2
#     Edge 167, Type (0, 1), BuildingBlock: EZIPEK_clean_linker_0, # of connection points: 2
#     Edge 168, Type (0, 1), BuildingBlock: EZIPEK_clean_linker_0, # of connection points: 2
#     Edge 169, Type (0, 1), BuildingBlock: EZIPEK_clean_linker_0, # of connection points: 2
#     Edge 170, Type (0, 1), BuildingBlock: EZIPEK_clean_linker_0, # of connection points: 2
#     Edge 171, Type (0, 1), BuildingBlock: EZIPEK_clean_linker_0, # of connection points: 2
#     Edge 172, Type (0, 1), BuildingBlock: EZIPEK_clean_linker_0, # of connection points: 2
#     Edge 173, Type (0, 1), BuildingBlock: EZIPEK_clean_linker_0, # of connection points: 2
#     Edge 174, Type (0, 1), BuildingBlock: EZIPEK_clean_linker_0, # of connection points: 2
#     Edge 175, Type (0, 1), BuildingBlock: EZIPEK_clean_linker_0, # of connection points: 2
#     Edge 176, Type (0, 1), BuildingBlock: EZIPEK_clean_linker_0, # of connection points: 2
#     Edge 177, Type (0, 1), BuildingBlock: EZIPEK_clean_linker_0, # of connection points: 2
#     Edge 178, Type (0, 1), BuildingBlock: EZIPEK_clean_linker_0, # of connection points: 2
#     Edge 179, Type (0, 1), BuildingBlock: EZIPEK_clean_linker_0, # of connection points: 2
#     Edge 180, Type (0, 1), BuildingBlock: EZIPEK_clean_linker_0, # of connection points: 2
#     Edge 181, Type (0, 1), BuildingBlock: EZIPEK_clean_linker_0, # of connection points: 2
#     Edge 182, Type (0, 1), BuildingBlock: EZIPEK_clean_linker_0, # of connection points: 2
#     Edge 183, Type (0, 1), BuildingBlock: EZIPEK_clean_linker_0, # of connection points: 2
#     Edge 184, Type (0, 1), BuildingBlock: EZIPEK_clean_linker_0, # of connection points: 2
#     Edge 185, Type (0, 1), BuildingBlock: EZIPEK_clean_linker_0, # of connection points: 2
#     Edge 186, Type (0, 1), BuildingBlock: EZIPEK_clean_linker_0, # of connection points: 2
#     Edge 187, Type (0, 1), BuildingBlock: EZIPEK_clean_linker_0, # of connection points: 2
#     Edge 188, Type (0, 1), BuildingBlock: EZIPEK_clean_linker_0, # of connection points: 2
#     Edge 189, Type (0, 1), BuildingBlock: EZIPEK_clean_linker_0, # of connection points: 2
#     Edge 190, Type (0, 1), BuildingBlock: EZIPEK_clean_linker_0, # of connection points: 2
#     Edge 191, Type (0, 1), BuildingBlock: EZIPEK_clean_linker_0, # of connection points: 2
#     Edge 192, Type (0, 1), BuildingBlock: EZIPEK_clean_linker_0, # of connection points: 2
#     Edge 193, Type (0, 1), BuildingBlock: EZIPEK_clean_linker_0, # of connection points: 2
#     Edge 194, Type (0, 1), BuildingBlock: EZIPEK_clean_linker_0, # of connection points: 2
#     Edge 195, Type (0, 1), BuildingBlock: EZIPEK_clean_linker_0, # of connection points: 2
#     Edge 196, Type (0, 1), BuildingBlock: EZIPEK_clean_linker_0, # of connection points: 2
#     Edge 197, Type (0, 1), BuildingBlock: EZIPEK_clean_linker_0, # of connection points: 2
#     Edge 198, Type (0, 1), BuildingBlock: EZIPEK_clean_linker_0, # of connection points: 2
#     Edge 199, Type (0, 1), BuildingBlock: EZIPEK_clean_linker_0, # of connection points: 2
#     Edge 200, Type (0, 1), BuildingBlock: EZIPEK_clean_linker_0, # of connection points: 2
#     Edge 201, Type (0, 1), BuildingBlock: EZIPEK_clean_linker_0, # of connection points: 2
#     Edge 202, Type (0, 1), BuildingBlock: EZIPEK_clean_linker_0, # of connection points: 2
#     Edge 203, Type (0, 1), BuildingBlock: EZIPEK_clean_linker_0, # of connection points: 2
#     Edge 204, Type (0, 1), BuildingBlock: EZIPEK_clean_linker_0, # of connection points: 2
#     Edge 205, Type (0, 1), BuildingBlock: EZIPEK_clean_linker_0, # of connection points: 2
#     Edge 206, Type (0, 1), BuildingBlock: EZIPEK_clean_linker_0, # of connection points: 2
#     Edge 207, Type (0, 1), BuildingBlock: EZIPEK_clean_linker_0, # of connection points: 2
#     Edge 208, Type (0, 1), BuildingBlock: EZIPEK_clean_linker_0, # of connection points: 2
#     Edge 209, Type (0, 1), BuildingBlock: EZIPEK_clean_linker_0, # of connection points: 2
#     Edge 210, Type (0, 1), BuildingBlock: EZIPEK_clean_linker_0, # of connection points: 2
#     Edge 211, Type (0, 1), BuildingBlock: EZIPEK_clean_linker_0, # of connection points: 2
#     Edge 212, Type (0, 1), BuildingBlock: EZIPEK_clean_linker_0, # of connection points: 2
#     Edge 213, Type (0, 1), BuildingBlock: EZIPEK_clean_linker_0, # of connection points: 2
#     Edge 214, Type (0, 1), BuildingBlock: EZIPEK_clean_linker_0, # of connection points: 2
#     Edge 215, Type (0, 1), BuildingBlock: EZIPEK_clean_linker_0, # of connection points: 2
#     Edge 216, Type (0, 1), BuildingBlock: EZIPEK_clean_linker_0, # of connection points: 2
#     Edge 217, Type (0, 1), BuildingBlock: EZIPEK_clean_linker_0, # of connection points: 2
#     Edge 218, Type (0, 1), BuildingBlock: EZIPEK_clean_linker_0, # of connection points: 2
#     Edge 219, Type (0, 1), BuildingBlock: EZIPEK_clean_linker_0, # of connection points: 2
#     Edge 220, Type (0, 1), BuildingBlock: EZIPEK_clean_linker_0, # of connection points: 2
#     Edge 221, Type (0, 1), BuildingBlock: EZIPEK_clean_linker_0, # of connection points: 2
#     Edge 222, Type (0, 1), BuildingBlock: EZIPEK_clean_linker_0, # of connection points: 2
#     Edge 223, Type (0, 1), BuildingBlock: EZIPEK_clean_linker_0, # of connection points: 2
#     Edge 224, Type (0, 1), BuildingBlock: EZIPEK_clean_linker_0, # of connection points: 2
#     Edge 225, Type (0, 1), BuildingBlock: EZIPEK_clean_linker_0, # of connection points: 2
#     Edge 226, Type (0, 1), BuildingBlock: EZIPEK_clean_linker_0, # of connection points: 2
#     Edge 227, Type (0, 1), BuildingBlock: EZIPEK_clean_linker_0, # of connection points: 2
#     Edge 228, Type (0, 1), BuildingBlock: EZIPEK_clean_linker_0, # of connection points: 2
#     Edge 229, Type (0, 1), BuildingBlock: EZIPEK_clean_linker_0, # of connection points: 2
#     Edge 230, Type (0, 1), BuildingBlock: EZIPEK_clean_linker_0, # of connection points: 2
#     Edge 231, Type (0, 1), BuildingBlock: EZIPEK_clean_linker_0, # of connection points: 2
#     Edge 232, Type (0, 1), BuildingBlock: EZIPEK_clean_linker_0, # of connection points: 2
#     Edge 233, Type (0, 1), BuildingBlock: EZIPEK_clean_linker_0, # of connection points: 2
#     Edge 234, Type (0, 1), BuildingBlock: EZIPEK_clean_linker_0, # of connection points: 2
#     Edge 235, Type (0, 1), BuildingBlock: EZIPEK_clean_linker_0, # of connection points: 2
#     Edge 236, Type (0, 1), BuildingBlock: EZIPEK_clean_linker_0, # of connection points: 2
#     Edge 237, Type (0, 1), BuildingBlock: EZIPEK_clean_linker_0, # of connection points: 2
#     Edge 238, Type (0, 1), BuildingBlock: EZIPEK_clean_linker_0, # of connection points: 2
#     Edge 239, Type (0, 1), BuildingBlock: EZIPEK_clean_linker_0, # of connection points: 2
# Relax obj value: 0.044
# Max RMSD: 0.114
# Mean RMSD: 0.056
data_MOF--net-bpr--node1-WUSLED_clean_sbu_0--node2-BETDIP_clean_linker_0--edge1-EZIPEK_clean_linker_0
_symmetry_space_group_name_H-M    P1
_symmetry_Int_Tables_number       1
_symmetry_cell_setting            triclinic
loop_
_symmetry_equiv_pos_as_xyz
'x, y, z'
_cell_length_a     81.359111
_cell_length_b     84.052026
_cell_length_c     86.460636
_cell_angle_alpha  95.740806
_cell_angle_beta   93.350792
_cell_angle_gamma 97.893697
loop_
_atom_site_label
_atom_site_type_symbol
_atom_site_fract_x
_atom_site_fract_y
_atom_site_fract_z
_atom_type_partial_charge
C0 C 0.96078 0.38839 0.25867 0.0
C1 C 0.96103 0.38519 0.27432 0.0
C2 C 0.93637 0.39822 0.27803 0.0
C3 C 0.9489 0.39004 0.28391 0.0
C4 C 0.93602 0.40129 0.26234 0.0
C5 C 0.94816 0.39643 0.25274 0.0
U6 U 1.00162 0.3719 0.25427 0.0
O7 O 0.01063 0.3562 0.23558 0.0
O8 O 0.02395 0.38065 0.2426 0.0
C9 C 0.02302 0.36726 0.23314 0.0
C10 C 0.97395 0.38393 0.2487 0.0
C11 C 0.02724 0.36894 0.21686 0.0
C12 C 0.02194 0.3624 0.1887 0.0
C13 C 0.01655 0.36196 0.20383 0.0
C14 C 0.04862 0.37688 0.1994 0.0
C15 C 0.03809 0.36976 0.18642 0.0
C16 C 0.04325 0.37647 0.21444 0.0
C17 C 0.02292 0.36011 0.29172 0.0
C18 C 0.04145 0.34044 0.29674 0.0
C19 C 0.04341 0.36533 0.31393 0.0
C20 C 0.03047 0.37004 0.30497 0.0
C21 C 0.04902 0.35051 0.30991 0.0
C22 C 0.02853 0.34523 0.28765 0.0
C23 C 0.00904 0.36552 0.28277 0.0
O24 O 0.98855 0.39288 0.25189 0.0
O25 O 0.97498 0.3684 0.24635 0.0
O26 O 1.00019 0.35495 0.27218 0.0
O27 O 0.01225 0.37998 0.27818 0.0
H28 H 0.9707 0.37906 0.27915 0.0
H29 H 0.94938 0.38755 0.29597 0.0
H30 H 0.92645 0.40757 0.25758 0.0
H31 H 0.94778 0.39906 0.24072 0.0
H32 H 0.01364 0.35683 0.1788 0.0
H33 H 1.00419 0.35593 0.20533 0.0
H34 H 0.06111 0.38259 0.1979 0.0
H35 H 0.05182 0.38173 0.22427 0.0
H36 H 0.04557 0.32891 0.29352 0.0
H37 H 0.04903 0.37322 0.32409 0.0
H38 H 0.02629 0.38148 0.30843 0.0
H39 H 0.02293 0.33728 0.27753 0.0
C40 C 0.94303 0.80619 0.55866 0.0
C41 C 0.93526 0.80864 0.57263 0.0
C42 C 0.93671 0.78086 0.57761 0.0
C43 C 0.93208 0.79606 0.582 0.0
C44 C 0.94469 0.77846 0.56376 0.0
C45 C 0.9478 0.79104 0.55434 0.0
U46 U 0.94551 0.85061 0.5535 0.0
O47 O 0.96206 0.86698 0.54072 0.0
O48 O 0.935 0.8633 0.53514 0.0
C49 C 0.94962 0.87028 0.53175 0.0
C50 C 0.94592 0.81932 0.54853 0.0
C51 C 0.95221 0.87155 0.51506 0.0
C52 C 0.9426 0.86547 0.48759 0.0
C53 C 0.94201 0.86181 0.50305 0.0
C54 C 0.96416 0.88809 0.49578 0.0
C55 C 0.95332 0.87896 0.48393 0.0
C56 C 0.96361 0.88441 0.5112 0.0
C57 C 0.93718 0.87778 0.59017 0.0
C58 C 0.92628 0.90339 0.59126 0.0
C59 C 0.93503 0.89306 0.61513 0.0
C60 C 0.93962 0.87966 0.60646 0.0
C61 C 0.92795 0.90479 0.60762 0.0
C62 C 0.93089 0.88994 0.58256 0.0
C63 C 0.9397 0.86236 0.58163 0.0
O64 O 0.93281 0.82621 0.54509 0.0
O65 O 0.95945 0.82981 0.55231 0.0
O66 O 0.95476 0.8612 0.57734 0.0
O67 O 0.92791 0.85597 0.57089 0.0
H68 H 0.93154 0.82027 0.57623 0.0
H69 H 0.92597 0.79816 0.59267 0.0
H70 H 0.9484 0.76682 0.56022 0.0
H71 H 0.95385 0.78891 0.54364 0.0
H72 H 0.93413 0.85829 0.4786 0.0
H73 H 0.93306 0.85185 0.50568 0.0
H74 H 0.9725 0.89854 0.49322 0.0
H75 H 0.9715 0.89217 0.52025 0.0
H76 H 0.92077 0.91233 0.5853 0.0
H77 H 0.93635 0.89395 0.62775 0.0
H78 H 0.94444 0.87041 0.61253 0.0
H79 H 0.92893 0.8887 0.56997 0.0
C80 C 0.47754 0.63262 0.7173 0.0
C81 C 0.46019 0.63128 0.71809 0.0
C82 C 0.45689 0.63765 0.69134 0.0
C83 C 0.44997 0.63368 0.7052 0.0
C84 C 0.47429 0.63981 0.69079 0.0
C85 C 0.48452 0.6372 0.70365 0.0
U86 U 0.48671 0.63158 0.76074 0.0
O87 O 0.49322 0.61206 0.77398 0.0
O88 O 0.5101 0.63505 0.77577 0.0
C89 C 0.50756 0.62026 0.77977 0.0
C90 C 0.48826 0.62863 0.73036 0.0
C91 C 0.52209 0.61139 0.78078 0.0
C92 C 0.549 0.60977 0.79398 0.0
C93 C 0.53634 0.6187 0.79016 0.0
C94 C 0.53391 0.58615 0.77841 0.0
C95 C 0.54766 0.59332 0.78853 0.0
C96 C 0.52117 0.5951 0.77462 0.0
C97 C 0.4559 0.64936 0.78763 0.0
C98 C 0.44507 0.64063 0.81152 0.0
C99 C 0.44173 0.66722 0.8044 0.0
C100 C 0.45023 0.66427 0.79103 0.0
C101 C 0.43863 0.65521 0.81445 0.0
C102 C 0.45369 0.63773 0.79823 0.0
C103 C 0.46258 0.64569 0.77237 0.0
O104 O 0.49643 0.64095 0.73955 0.0
O105 O 0.48154 0.61695 0.73805 0.0
O106 O 0.46081 0.63035 0.76684 0.0
O107 O 0.47716 0.65367 0.77014 0.0
H108 H 0.45449 0.62796 0.72854 0.0
H109 H 0.4366 0.63205 0.7059 0.0
H110 H 0.47987 0.64294 0.68023 0.0
H111 H 0.49786 0.63841 0.70282 0.0
H112 H 0.55952 0.61552 0.80178 0.0
H113 H 0.53731 0.63115 0.79521 0.0
H114 H 0.53268 0.57347 0.77407 0.0
H115 H 0.51032 0.58906 0.76743 0.0
H116 H 0.44282 0.63124 0.81918 0.0
H117 H 0.43686 0.67855 0.80651 0.0
H118 H 0.45182 0.67341 0.78304 0.0
H119 H 0.45805 0.62617 0.79594 0.0
C120 C 0.61321 0.22254 0.06595 0.0
C121 C 0.61526 0.22165 0.08208 0.0
C122 C 0.61552 0.25069 0.08708 0.0
C123 C 0.61638 0.23564 0.09257 0.0
C124 C 0.61358 0.25159 0.07096 0.0
C125 C 0.61243 0.23759 0.06046 0.0
U126 U 0.61373 0.17741 0.05825 0.0
O127 O 0.59788 0.15855 0.04244 0.0
O128 O 0.62479 0.16292 0.04004 0.0
C129 C 0.61028 0.15511 0.03421 0.0
C130 C 0.61183 0.20783 0.05486 0.0
C131 C 0.60733 0.15308 0.01695 0.0
C132 C 0.61693 0.14444 0.9917 0.0
C133 C 0.61997 0.14847 0.0078 0.0
C134 C 0.5886 0.1499 0.99338 0.0
C135 C 0.60115 0.14483 0.98441 0.0
C136 C 0.59163 0.15395 0.00953 0.0
C137 C 0.62146 0.15558 0.09485 0.0
C138 C 0.62973 0.12894 0.09604 0.0
C139 C 0.62108 0.1434 0.11915 0.0
C140 C 0.6184 0.1562 0.11066 0.0
C141 C 0.62685 0.12974 0.11195 0.0
C142 C 0.62702 0.14181 0.0875 0.0
C143 C 0.61931 0.16974 0.08662 0.0
O144 O 0.62561 0.20143 0.05354 0.0
O145 O 0.59873 0.19704 0.05587 0.0
O146 O 0.60432 0.17014 0.08026 0.0
O147 O 0.63122 0.17459 0.0778 0.0
H148 H 0.61591 0.21014 0.08653 0.0
H149 H 0.61786 0.23473 0.10497 0.0
H150 H 0.61286 0.2631 0.06654 0.0
H151 H 0.61086 0.2385 0.04807 0.0
H152 H 0.62675 0.14052 0.98497 0.0
H153 H 0.6321 0.14748 0.01318 0.0
H154 H 0.57633 0.15025 0.98795 0.0
H155 H 0.58155 0.15729 0.01622 0.0
H156 H 0.63423 0.11848 0.09034 0.0
H157 H 0.61882 0.14422 0.13141 0.0
H158 H 0.61414 0.16673 0.11652 0.0
H159 H 0.62944 0.14111 0.07529 0.0
C160 C 0.97604 0.61975 0.23716 0.0
C161 C 0.97728 0.6191 0.22098 0.0
C162 C 0.94717 0.61301 0.2166 0.0
C163 C 0.96295 0.61574 0.21077 0.0
C164 C 0.94591 0.61392 0.23279 0.0
C165 C 0.96027 0.61725 0.243 0.0
U166 U 0.0229 0.6295 0.24363 0.0
O167 O 0.03928 0.64423 0.26246 0.0
O168 O 0.04105 0.6184 0.25732 0.0
C169 C 0.04615 0.63182 0.2665 0.0
C170 C 0.99115 0.62253 0.24789 0.0
C171 C 0.04845 0.63011 0.2833 0.0
C172 C 0.04207 0.63572 0.31033 0.0
C173 C 0.03871 0.63693 0.2944 0.0
C174 C 0.0647 0.62076 0.30416 0.0
C175 C 0.05515 0.62768 0.31528 0.0
C176 C 0.06137 0.62197 0.28834 0.0
C177 C 0.04699 0.63613 0.20691 0.0
C178 C 0.06939 0.65463 0.19808 0.0
C179 C 0.06508 0.6264 0.18773 0.0
C180 C 0.05177 0.62349 0.19705 0.0
C181 C 0.07377 0.64203 0.18797 0.0
C182 C 0.0561 0.65172 0.20749 0.0
C183 C 0.03166 0.6331 0.21528 0.0
O184 O 1.00111 0.61155 0.24598 0.0
O185 O 0.99912 0.63738 0.24969 0.0
O186 O 0.028 0.64503 0.22491 0.0
O187 O 0.02878 0.61897 0.22065 0.0
H188 H 0.98936 0.62101 0.21625 0.0
H189 H 0.96414 0.61511 0.19832 0.0
H190 H 0.93384 0.61188 0.23748 0.0
H191 H 0.95908 0.61771 0.25545 0.0
H192 H 0.03461 0.64117 0.31878 0.0
H193 H 0.02868 0.6433 0.29081 0.0
H194 H 0.07485 0.61454 0.30778 0.0
H195 H 0.06908 0.6167 0.28 0.0
H196 H 0.07593 0.6668 0.19832 0.0
H197 H 0.06823 0.61656 0.1799 0.0
H198 H 0.04488 0.61141 0.19619 0.0
H199 H 0.05269 0.66177 0.21484 0.0
C200 C 0.62911 0.75478 0.45627 0.0
C201 C 0.62779 0.7546 0.43996 0.0
C202 C 0.63391 0.72692 0.43683 0.0
C203 C 0.63012 0.74077 0.43032 0.0
C204 C 0.63559 0.72724 0.45314 0.0
C205 C 0.63317 0.74104 0.46277 0.0
U206 U 0.62565 0.79959 0.46223 0.0
O207 O 0.60774 0.81296 0.47432 0.0
O208 O 0.6344 0.81847 0.48162 0.0
C209 C 0.61935 0.82177 0.48396 0.0
C210 C 0.62615 0.76913 0.46652 0.0
C211 C 0.61541 0.82544 0.50028 0.0
C212 C 0.61126 0.81839 0.5266 0.0
C213 C 0.61431 0.8139 0.51101 0.0
C214 C 0.61024 0.84584 0.52074 0.0
C215 C 0.60945 0.8345 0.53162 0.0
C216 C 0.61317 0.84135 0.50526 0.0
C217 C 0.63337 0.82318 0.42647 0.0
C218 C 0.62174 0.84602 0.41724 0.0
C219 C 0.64833 0.83991 0.40895 0.0
C220 C 0.64726 0.82688 0.41788 0.0
C221 C 0.63545 0.84941 0.40836 0.0
C222 C 0.62071 0.83302 0.42627 0.0
C223 C 0.63201 0.80847 0.43464 0.0
O224 O 0.63909 0.78039 0.47003 0.0
O225 O 0.61244 0.77503 0.46292 0.0
O226 O 0.61709 0.80251 0.43823 0.0
O227 O 0.64368 0.8081 0.44572 0.0
H228 H 0.62478 0.7651 0.43468 0.0
H229 H 0.62877 0.74078 0.41779 0.0
H230 H 0.63851 0.7167 0.45839 0.0
H231 H 0.63432 0.74095 0.4753 0.0
H232 H 0.61064 0.80944 0.5348 0.0
H233 H 0.616 0.80155 0.50739 0.0
H234 H 0.60884 0.85828 0.52431 0.0
H235 H 0.61393 0.85043 0.49717 0.0
H236 H 0.61169 0.85323 0.41692 0.0
H237 H 0.65899 0.84235 0.40216 0.0
H238 H 0.65714 0.81944 0.41781 0.0
H239 H 0.60987 0.83049 0.43281 0.0
C240 C 0.53846 0.42638 0.72045 0.0
C241 C 0.54154 0.44257 0.71715 0.0
C242 C 0.56619 0.43725 0.70398 0.0
C243 C 0.55527 0.44794 0.70898 0.0
C244 C 0.56336 0.42121 0.7075 0.0
C245 C 0.54969 0.41584 0.71568 0.0
U246 U 0.49283 0.40758 0.72273 0.0
O247 O 0.4818 0.38978 0.73756 0.0
O248 O 0.47418 0.41393 0.73892 0.0
C249 C 0.47286 0.39987 0.74452 0.0
C250 C 0.52404 0.42067 0.72934 0.0
C251 C 0.47209 0.40003 0.76158 0.0
C252 C 0.48282 0.39442 0.7871 0.0
C253 C 0.48485 0.39554 0.7712 0.0
C254 C 0.45549 0.40254 0.78398 0.0
C255 C 0.46804 0.39778 0.79354 0.0
C256 C 0.4575 0.40365 0.76817 0.0
C257 C 0.46489 0.39558 0.68488 0.0
C258 C 0.43462 0.39103 0.68324 0.0
C259 C 0.44935 0.38337 0.66072 0.0
C260 C 0.46454 0.38887 0.66931 0.0
C261 C 0.43428 0.38461 0.66756 0.0
C262 C 0.44982 0.39644 0.69186 0.0
C263 C 0.48102 0.40208 0.69343 0.0
O264 O 0.51157 0.42911 0.72926 0.0
O265 O 0.51909 0.40499 0.72795 0.0
O266 O 0.48857 0.39169 0.70053 0.0
O267 O 0.48159 0.41606 0.70191 0.0
H268 H 0.53335 0.45111 0.72086 0.0
H269 H 0.55731 0.46039 0.70645 0.0
H270 H 0.5717 0.4128 0.70382 0.0
H271 H 0.54792 0.40339 0.71825 0.0
H272 H 0.49264 0.39072 0.79433 0.0
H273 H 0.4962 0.39262 0.7664 0.0
H274 H 0.444 0.40516 0.78873 0.0
H275 H 0.44746 0.40702 0.76097 0.0
H276 H 0.42311 0.39204 0.68871 0.0
H277 H 0.44932 0.37842 0.64866 0.0
H278 H 0.47603 0.38808 0.66374 0.0
H279 H 0.44981 0.4015 0.70388 0.0
C280 C 0.86907 0.20001 0.0215 0.0
C281 C 0.87629 0.18574 0.01944 0.0
C282 C 0.8765 0.1834 0.04729 0.0
C283 C 0.88003 0.17755 0.03224 0.0
C284 C 0.86918 0.19759 0.04935 0.0
C285 C 0.86551 0.20585 0.03654 0.0
U286 U 0.86062 0.19943 0.97792 0.0
O287 O 0.84262 0.21034 0.96359 0.0
O288 O 0.86948 0.21615 0.96126 0.0
C289 C 0.85443 0.21869 0.95675 0.0
C290 C 0.86508 0.20866 0.00799 0.0
C291 C 0.85228 0.23526 0.95334 0.0
C292 C 0.86382 0.26344 0.95215 0.0
C293 C 0.8644 0.2487 0.95835 0.0
C294 C 0.83858 0.25186 0.9365 0.0
C295 C 0.85118 0.26497 0.94084 0.0
C296 C 0.83913 0.23715 0.9427 0.0
C297 C 0.86215 0.15882 0.95332 0.0
C298 C 0.84631 0.14354 0.93053 0.0
C299 C 0.87581 0.14237 0.93465 0.0
C300 C 0.87651 0.15283 0.94838 0.0
C301 C 0.86068 0.13757 0.92571 0.0
C302 C 0.84702 0.15409 0.94422 0.0
C303 C 0.86311 0.16926 0.9683 0.0
O304 O 0.87692 0.21085 0.99837 0.0
O305 O 0.8503 0.20386 1.00074 0.0
O306 O 0.84922 0.17402 0.97273 0.0
O307 O 0.87599 0.18071 0.97087 0.0
H308 H 0.87901 0.18093 0.00793 0.0
H309 H 0.88559 0.16658 0.03041 0.0
H310 H 0.86631 0.20225 0.06087 0.0
H311 H 0.85987 0.21677 0.03837 0.0
H312 H 0.87369 0.27341 0.9556 0.0
H313 H 0.87474 0.24761 0.96645 0.0
H314 H 0.82877 0.25278 0.92775 0.0
H315 H 0.82975 0.22696 0.9385 0.0
H316 H 0.83452 0.13993 0.92375 0.0
H317 H 0.887 0.13785 0.93109 0.0
H318 H 0.88829 0.15613 0.95524 0.0
H319 H 0.8357 0.15838 0.94771 0.0
C320 C 0.23693 0.99569 0.35495 0.0
C321 C 0.23997 0.01185 0.35173 0.0
C322 C 0.21023 0.01287 0.34885 0.0
C323 C 0.22672 0.02035 0.34866 0.0
C324 C 0.20716 0.99666 0.35189 0.0
C325 C 0.22044 0.98812 0.35492 0.0
U326 U 0.28278 0.99734 0.36547 0.0
O327 O 0.2967 0.98595 0.38284 0.0
O328 O 0.30126 0.98176 0.35805 0.0
C329 C 0.30476 0.97841 0.3723 0.0
C330 C 0.25095 0.98702 0.3589 0.0
C331 C 0.30721 0.96157 0.37425 0.0
C332 C 0.30086 0.93642 0.38597 0.0
C333 C 0.29684 0.9516 0.38292 0.0
C334 C 0.32537 0.94089 0.37149 0.0
C335 C 0.3153 0.93109 0.38044 0.0
C336 C 0.32136 0.95596 0.36843 0.0
C337 C 0.30816 0.04 0.36779 0.0
C338 C 0.33816 0.04699 0.36734 0.0
C339 C 0.32124 0.06777 0.37456 0.0
C340 C 0.30699 0.05623 0.37249 0.0
C341 C 0.33689 0.06326 0.37193 0.0
C342 C 0.32385 0.03538 0.36533 0.0
C343 C 0.29275 0.02838 0.36514 0.0
O344 O 0.26207 0.98649 0.34848 0.0
O345 O 0.25769 0.99065 0.37323 0.0
O346 O 0.28723 0.02208 0.37749 0.0
O347 O 0.2916 0.01782 0.3527 0.0
H348 H 0.25261 0.01795 0.35179 0.0
H349 H 0.22933 0.03287 0.34643 0.0
H350 H 0.1945 0.99072 0.35215 0.0
H351 H 0.21784 0.9757 0.35744 0.0
H352 H 0.29294 0.929 0.39291 0.0
H353 H 0.2859 0.95566 0.38763 0.0
H354 H 0.33655 0.93699 0.36714 0.0
H355 H 0.32961 0.96348 0.36184 0.0
H356 H 0.35016 0.04333 0.36523 0.0
H357 H 0.32004 0.08027 0.37807 0.0
H358 H 0.295 0.06001 0.37442 0.0
H359 H 0.325 0.02289 0.36172 0.0
C360 C 0.1827 0.96329 0.64826 0.0
C361 C 0.16579 0.96193 0.65125 0.0
C362 C 0.16388 0.93261 0.64928 0.0
C363 C 0.15647 0.94671 0.6518 0.0
C364 C 0.18073 0.93397 0.64613 0.0
C365 C 0.19007 0.9492 0.64565 0.0
U366 U 0.18586 0.00832 0.64384 0.0
O367 O 0.20228 0.02932 0.65634 0.0
O368 O 0.20278 0.024 0.63101 0.0
C369 C 0.20921 0.0333 0.64365 0.0
C370 C 0.19272 0.97925 0.64772 0.0
C371 C 0.22745 0.03788 0.64494 0.0
C372 C 0.2555 0.03147 0.64239 0.0
C373 C 0.23831 0.02644 0.64227 0.0
C374 C 0.25115 0.05932 0.6482 0.0
C375 C 0.26199 0.04797 0.64516 0.0
C376 C 0.23402 0.0543 0.6481 0.0
C377 C 0.14556 0.02629 0.63685 0.0
C378 C 0.144 0.05216 0.62689 0.0
C379 C 0.11995 0.03811 0.6376 0.0
C380 C 0.12899 0.02564 0.64068 0.0
C381 C 0.12735 0.05141 0.6306 0.0
C382 C 0.15308 0.03971 0.63005 0.0
C383 C 0.15462 0.01272 0.63971 0.0
O384 O 0.19233 0.98492 0.6341 0.0
O385 O 0.19147 0.99025 0.65936 0.0
O386 O 0.16248 0.01361 0.65355 0.0
O387 O 0.16336 0.00775 0.62834 0.0
H388 H 0.15983 0.97265 0.65319 0.0
H389 H 0.14349 0.94591 0.65421 0.0
H390 H 0.18665 0.92324 0.64412 0.0
H391 H 0.20306 0.94998 0.64327 0.0
H392 H 0.26371 0.02255 0.64 0.0
H393 H 0.23349 0.01371 0.63979 0.0
H394 H 0.25592 0.07209 0.65035 0.0
H395 H 0.22583 0.06331 0.65017 0.0
H396 H 0.1499 0.06234 0.62149 0.0
H397 H 0.10713 0.03735 0.64056 0.0
H398 H 0.12299 0.0154 0.64594 0.0
H399 H 0.16589 0.04047 0.62707 0.0
C400 C 0.21686 0.0341 0.88108 0.0
C401 C 0.19953 0.03235 0.87779 0.0
C402 C 0.20044 0.0616 0.88054 0.0
C403 C 0.19141 0.04599 0.87746 0.0
C404 C 0.21767 0.06333 0.88436 0.0
C405 C 0.22582 0.04968 0.88457 0.0
U406 U 0.21763 0.98939 0.885 0.0
O407 O 0.22746 0.97071 0.87002 0.0
O408 O 0.23707 0.97637 0.8945 0.0
C409 C 0.23809 0.96784 0.88108 0.0
C410 C 0.22576 0.01984 0.88043 0.0
C411 C 0.25492 0.9654 0.8766 0.0
C412 C 0.27904 0.97115 0.86151 0.0
C413 C 0.26366 0.97485 0.86636 0.0
C414 C 0.27713 0.94876 0.87722 0.0
C415 C 0.28578 0.95795 0.86681 0.0
C416 C 0.26188 0.95246 0.88207 0.0
C417 C 0.17687 0.96553 0.89726 0.0
C418 C 0.15978 0.93956 0.8891 0.0
C419 C 0.15851 0.95271 0.91515 0.0
C420 C 0.17034 0.96548 0.91197 0.0
C421 C 0.15286 0.93985 0.9036 0.0
C422 C 0.17169 0.95227 0.88594 0.0
C423 C 0.18761 0.98019 0.89356 0.0
O424 O 0.22892 0.0143 0.89382 0.0
O425 O 0.22038 0.0083 0.86914 0.0
O426 O 0.19105 0.98087 0.87895 0.0
O427 O 0.20036 0.98596 0.90354 0.0
H428 H 0.19232 0.02045 0.87519 0.0
H429 H 0.17812 0.04438 0.87452 0.0
H430 H 0.22485 0.07526 0.88682 0.0
H431 H 0.23916 0.05131 0.88721 0.0
H432 H 0.28555 0.9784 0.85348 0.0
H433 H 0.2585 0.98486 0.86194 0.0
H434 H 0.28212 0.93856 0.88145 0.0
H435 H 0.25533 0.94498 0.88991 0.0
H436 H 0.15558 0.92972 0.88006 0.0
H437 H 0.15332 0.95314 0.92641 0.0
H438 H 0.17401 0.97558 0.92085 0.0
H439 H 0.17644 0.95192 0.87449 0.0
C440 C 0.26586 0.01607 0.12975 0.0
C441 C 0.26279 0.99936 0.12548 0.0
C442 C 0.23484 0.9978 0.13529 0.0
C443 C 0.24772 0.99036 0.12847 0.0
C444 C 0.23903 0.01439 0.14098 0.0
C445 C 0.25406 0.02341 0.13787 0.0
U446 U 0.31156 0.01861 0.12215 0.0
O447 O 0.32669 0.03159 0.10579 0.0
O448 O 0.33341 0.0364 0.13098 0.0
C449 C 0.33677 0.04012 0.11698 0.0
C450 C 0.28164 0.02575 0.12653 0.0
C451 C 0.34209 0.05739 0.11539 0.0
C452 C 0.33857 0.0827 0.10489 0.0
C453 C 0.33227 0.06671 0.1071 0.0
C454 C 0.36434 0.08022 0.11934 0.0
C455 C 0.35472 0.08949 0.11092 0.0
C456 C 0.35809 0.06436 0.12155 0.0
C457 C 0.33009 0.97857 0.1229 0.0
C458 C 0.35054 0.96577 0.10852 0.0
C459 C 0.34507 0.95907 0.13452 0.0
C460 C 0.33345 0.96984 0.13546 0.0
C461 C 0.35349 0.95676 0.12097 0.0
C462 C 0.33893 0.97663 0.10947 0.0
C463 C 0.31651 0.98858 0.12378 0.0
O464 O 0.29357 0.02759 0.13776 0.0
O465 O 0.2869 0.02243 0.11263 0.0
O466 O 0.31129 0.99392 0.11084 0.0
O467 O 0.31748 0.99932 0.13605 0.0
H468 H 0.27212 0.9932 0.11995 0.0
H469 H 0.24649 0.97742 0.1256 0.0
H470 H 0.23128 0.02075 0.14827 0.0
H471 H 0.25656 0.03616 0.14206 0.0
H472 H 0.33097 0.08969 0.09835 0.0
H473 H 0.31991 0.06159 0.10217 0.0
H474 H 0.37682 0.08524 0.12407 0.0
H475 H 0.36592 0.05738 0.12787 0.0
H476 H 0.35689 0.96406 0.09794 0.0
H477 H 0.34715 0.95216 0.1442 0.0
H478 H 0.32673 0.97104 0.14588 0.0
H479 H 0.3366 0.98318 0.09959 0.0
C480 C 0.43087 0.28247 0.03905 0.0
C481 C 0.42262 0.2838 0.05287 0.0
C482 C 0.4266 0.25642 0.0574 0.0
C483 C 0.42045 0.27086 0.06193 0.0
C484 C 0.43496 0.25511 0.04367 0.0
C485 C 0.43706 0.26805 0.03455 0.0
U486 U 0.43151 0.32708 0.03537 0.0
O487 O 0.44779 0.34446 0.0234 0.0
O488 O 0.42083 0.34007 0.01731 0.0
C489 C 0.43537 0.3476 0.01431 0.0
C490 C 0.43308 0.29608 0.02941 0.0
C491 C 0.43834 0.34944 0.99776 0.0
C492 C 0.42871 0.34541 0.97019 0.0
C493 C 0.42753 0.34105 0.98538 0.0
C494 C 0.452 0.36601 0.9793 0.0
C495 C 0.44064 0.35826 0.96713 0.0
C496 C 0.45085 0.36164 0.99445 0.0
C497 C 0.42267 0.35241 0.0733 0.0
C498 C 0.41068 0.37742 0.07669 0.0
C499 C 0.42297 0.36695 0.09908 0.0
C500 C 0.42702 0.35397 0.08937 0.0
C501 C 0.41452 0.37859 0.09286 0.0
C502 C 0.41475 0.36438 0.06694 0.0
C503 C 0.42532 0.33751 0.06383 0.0
O504 O 0.41961 0.30256 0.02631 0.0
O505 O 0.44627 0.30692 0.03344 0.0
O506 O 0.44045 0.33678 0.05952 0.0
O507 O 0.41365 0.33152 0.05283 0.0
H508 H 0.41784 0.29486 0.05663 0.0
H509 H 0.41404 0.27212 0.07252 0.0
H510 H 0.43984 0.24408 0.04002 0.0
H511 H 0.44352 0.2668 0.02399 0.0
H512 H 0.41981 0.33931 0.96096 0.0
H513 H 0.4177 0.33164 0.98754 0.0
H514 H 0.46126 0.37597 0.97721 0.0
H515 H 0.45923 0.3684 1.00377 0.0
H516 H 0.40411 0.38629 0.07173 0.0
H517 H 0.42599 0.36767 0.11152 0.0
H518 H 0.4331 0.34485 0.09449 0.0
H519 H 0.41128 0.36341 0.05456 0.0
C520 C 0.0472 0.92111 0.23293 0.0
C521 C 0.0505 0.93638 0.22745 0.0
C522 C 0.07482 0.92865 0.21519 0.0
C523 C 0.06417 0.94011 0.21866 0.0
C524 C 0.07179 0.91354 0.22089 0.0
C525 C 0.05818 0.90983 0.22972 0.0
U526 U 1.0012 0.90486 0.23582 0.0
O527 O 0.98898 0.88914 0.2519 0.0
O528 O 0.98257 0.91358 0.25083 0.0
C529 C 0.98049 0.90028 0.25773 0.0
C530 C 0.03266 0.91703 0.24222 0.0
C531 C 0.97966 0.90227 0.27483 0.0
C532 C 0.99033 0.89944 0.30122 0.0
C533 C 0.99234 0.89867 0.28515 0.0
C534 C 0.96321 0.90769 0.29685 0.0
C535 C 0.97567 0.90383 0.30713 0.0
C536 C 0.9652 0.90692 0.28086 0.0
C537 C 0.97411 0.89085 0.19772 0.0
C538 C 0.94385 0.88681 0.19552 0.0
C539 C 0.95894 0.87857 0.17343 0.0
C540 C 0.97401 0.88391 0.18226 0.0
C541 C 0.94377 0.8802 0.17993 0.0
C542 C 0.95893 0.89207 0.20438 0.0
C543 C 0.99012 0.89728 0.20646 0.0
O544 O 0.02066 0.92597 0.24116 0.0
O545 O 0.02703 0.90157 0.24212 0.0
O546 O 0.99678 0.88724 0.2148 0.0
O547 O 0.99105 0.91188 0.2138 0.0
H548 H 0.04249 0.94546 0.22989 0.0
H549 H 0.06638 0.95187 0.21445 0.0
H550 H 0.07994 0.90458 0.21842 0.0
H551 H 0.05622 0.89807 0.23396 0.0
H552 H 1.00006 0.89638 0.309 0.0
H553 H 1.00361 0.89501 0.28077 0.0
H554 H 0.95181 0.91107 0.3012 0.0
H555 H 0.95524 0.90966 0.27313 0.0
H556 H 0.93225 0.88812 0.20072 0.0
H557 H 0.9591 0.87347 0.16144 0.0
H558 H 0.9856 0.88285 0.17695 0.0
H559 H 0.95876 0.89733 0.21632 0.0
C560 C 0.096 0.72547 0.57821 0.0
C561 C 0.0995 0.72496 0.59425 0.0
C562 C 0.09956 0.75402 0.59903 0.0
C563 C 0.10126 0.73914 0.60459 0.0
C564 C 0.09598 0.7545 0.58301 0.0
C565 C 0.09421 0.74032 0.57268 0.0
U566 U 0.09495 0.67994 0.57034 0.0
O567 O 0.07924 0.66169 0.55363 0.0
O568 O 0.10641 0.66521 0.55272 0.0
C569 C 0.09202 0.6577 0.54628 0.0
C570 C 0.09438 0.71066 0.56718 0.0
C571 C 0.09 0.65519 0.52902 0.0
C572 C 0.10017 0.65937 0.50355 0.0
C573 C 0.10085 0.66381 0.51968 0.0
C574 C 0.0774 0.6381 0.50576 0.0
C575 C 0.08869 0.64623 0.49654 0.0
C576 C 0.07807 0.64253 0.52184 0.0
C577 C 0.10043 0.65674 0.60617 0.0
C578 C 0.10755 0.62952 0.60595 0.0
C579 C 0.10057 0.64367 0.62996 0.0
C580 C 0.09803 0.65695 0.6221 0.0
C581 C 0.10553 0.62996 0.62201 0.0
C582 C 0.10499 0.64286 0.59805 0.0
C583 C 0.09891 0.67145 0.5986 0.0
O584 O 0.10788 0.70374 0.5662 0.0
O585 O 0.08087 0.70025 0.56782 0.0
O586 O 0.08427 0.67232 0.59174 0.0
O587 O 0.11136 0.6765 0.59045 0.0
H588 H 0.10092 0.71361 0.59874 0.0
H589 H 0.10402 0.73854 0.61691 0.0
H590 H 0.0946 0.76586 0.57853 0.0
H591 H 0.09149 0.74095 0.56036 0.0
H592 H 0.10899 0.66577 0.49661 0.0
H593 H 0.11021 0.6736 0.52488 0.0
H594 H 0.06848 0.62792 0.50058 0.0
H595 H 0.06966 0.63562 0.52879 0.0
H596 H 0.11143 0.61903 0.59966 0.0
H597 H 0.09898 0.64421 0.64235 0.0
H598 H 0.09452 0.66755 0.62855 0.0
H599 H 0.10689 0.64249 0.58573 0.0
C600 C 0.98583 0.63589 0.79523 0.0
C601 C 0.97182 0.64396 0.79459 0.0
C602 C 0.96444 0.63558 0.81973 0.0
C603 C 0.96121 0.64383 0.80679 0.0
C604 C 0.97877 0.628 0.82059 0.0
C605 C 0.98937 0.62815 0.80841 0.0
U606 U 0.99471 0.64346 0.75359 0.0
O607 O 0.01827 0.64879 0.74252 0.0
O608 O 1.00089 0.62681 0.73421 0.0
C609 C 0.01541 0.63539 0.73291 0.0
C610 C 0.99608 0.63441 0.7818 0.0
C611 C 0.02942 0.62622 0.73058 0.0
C612 C 0.05252 0.61335 0.7401 0.0
C613 C 0.03913 0.62188 0.74305 0.0
C614 C 0.04642 0.61338 0.71232 0.0
C615 C 0.05629 0.60916 0.72468 0.0
C616 C 0.03313 0.62183 0.71525 0.0
C617 C 0.96552 0.66623 0.73063 0.0
C618 C 0.97091 0.67739 0.70619 0.0
C619 C 0.94255 0.67097 0.71324 0.0
C620 C 0.94841 0.66583 0.72715 0.0
C621 C 0.95373 0.67665 0.70259 0.0
C622 C 0.97677 0.6721 0.72008 0.0
C623 C 0.97116 0.65993 0.74505 0.0
O624 O 0.98868 0.6251 0.76956 0.0
O625 O 1.00444 0.64792 0.77822 0.0
O626 O 0.98565 0.66677 0.75184 0.0
O627 O 0.96896 0.64411 0.74462 0.0
H628 H 0.96885 0.64994 0.78446 0.0
H629 H 0.95018 0.64969 0.80591 0.0
H630 H 0.98143 0.62154 0.83046 0.0
H631 H 1.00009 0.62182 0.80909 0.0
H632 H 0.06001 0.61016 0.74977 0.0
H633 H 0.0364 0.62513 0.75497 0.0
H634 H 0.04912 0.61023 0.70037 0.0
H635 H 0.02576 0.62503 0.70549 0.0
H636 H 0.97971 0.68176 0.6981 0.0
H637 H 0.92927 0.67032 0.71067 0.0
H638 H 0.93953 0.66132 0.73511 0.0
H639 H 0.99004 0.67243 0.72247 0.0
C640 C 0.10348 0.23478 0.44977 0.0
C641 C 0.11048 0.23224 0.43547 0.0
C642 C 0.10341 0.25807 0.42785 0.0
C643 C 0.11102 0.24395 0.42495 0.0
C644 C 0.09878 0.26133 0.44331 0.0
C645 C 0.0983 0.24969 0.45387 0.0
U646 U 0.10261 0.19072 0.4561 0.0
O647 O 0.1115 0.17843 0.4756 0.0
O648 O 0.085 0.17406 0.46751 0.0
C649 C 0.09657 0.17104 0.47762 0.0
C650 C 0.10126 0.2219 0.46026 0.0
C651 C 0.09204 0.16909 0.49381 0.0
C652 C 0.10044 0.1693 0.52142 0.0
C653 C 0.10352 0.17435 0.50674 0.0
C654 C 0.07401 0.15428 0.51077 0.0
C655 C 0.08588 0.15885 0.52343 0.0
C656 C 0.07707 0.15933 0.49611 0.0
C657 C 0.1124 0.16283 0.42024 0.0
C658 C 0.10133 0.13895 0.40241 0.0
C659 C 0.13104 0.14534 0.40881 0.0
C660 C 0.12853 0.15893 0.4186 0.0
C661 C 0.1175 0.13551 0.40036 0.0
C662 C 0.09879 0.15251 0.41224 0.0
C663 C 0.11009 0.17855 0.42865 0.0
O664 O 0.08806 0.21098 0.45655 0.0
O665 O 0.11464 0.21555 0.46405 0.0
O666 O 0.12134 0.18477 0.43995 0.0
O667 O 0.09487 0.18051 0.43193 0.0
H668 H 0.1155 0.22115 0.43239 0.0
H669 H 0.11769 0.24166 0.41476 0.0
H670 H 0.09539 0.27289 0.4475 0.0
H671 H 0.09371 0.25233 0.46523 0.0
H672 H 0.10978 0.1729 0.53103 0.0
H673 H 0.11526 0.18171 0.5054 0.0
H674 H 0.06274 0.14616 0.51206 0.0
H675 H 0.06811 0.15485 0.48636 0.0
H676 H 0.09075 0.13152 0.39589 0.0
H677 H 0.14361 0.14289 0.40725 0.0
H678 H 0.13929 0.16673 0.42441 0.0
H679 H 0.08622 0.15523 0.41308 0.0
C680 C 0.46473 0.40528 0.24146 0.0
C681 C 0.46164 0.42138 0.24377 0.0
C682 C 0.44314 0.41735 0.22008 0.0
C683 C 0.45095 0.42738 0.23317 0.0
C684 C 0.44602 0.40122 0.21785 0.0
C685 C 0.45675 0.39525 0.22839 0.0
U686 U 0.50261 0.3843 0.24828 0.0
O687 O 0.52473 0.39034 0.26495 0.0
O688 O 0.50865 0.36699 0.26451 0.0
C689 C 0.52191 0.37658 0.27103 0.0
C690 C 0.47673 0.39938 0.25237 0.0
C691 C 0.52569 0.37688 0.28802 0.0
C692 C 0.51812 0.37122 0.31403 0.0
C693 C 0.51348 0.37255 0.29833 0.0
C694 C 0.54706 0.37869 0.3093 0.0
C695 C 0.53499 0.37414 0.31955 0.0
C696 C 0.54246 0.38006 0.29372 0.0
C697 C 0.52377 0.37029 0.21167 0.0
C698 C 0.55318 0.36979 0.20823 0.0
C699 C 0.53238 0.35491 0.18897 0.0
C700 C 0.51978 0.36002 0.19774 0.0
C701 C 0.54916 0.36015 0.19394 0.0
C702 C 0.54058 0.37477 0.21708 0.0
C703 C 0.5104 0.37728 0.21959 0.0
O704 O 0.476 0.3836 0.25208 0.0
O705 O 0.49206 0.40694 0.25316 0.0
O706 O 0.51479 0.39151 0.2276 0.0
O707 O 0.50017 0.36742 0.22669 0.0
H708 H 0.46767 0.42938 0.25369 0.0
H709 H 0.44891 0.43987 0.23507 0.0
H710 H 0.44013 0.39331 0.20782 0.0
H711 H 0.45894 0.38283 0.22618 0.0
H712 H 0.50862 0.3677 0.32179 0.0
H713 H 0.50047 0.3699 0.2942 0.0
H714 H 0.56012 0.38097 0.31332 0.0
H715 H 0.55211 0.3832 0.28597 0.0
H716 H 0.56606 0.3739 0.21226 0.0
H717 H 0.52907 0.34744 0.17798 0.0
H718 H 0.50691 0.35642 0.19337 0.0
H719 H 0.544 0.38258 0.22785 0.0
C720 C 0.36705 0.7707 0.96245 0.0
C721 C 0.36309 0.771 0.94654 0.0
C722 C 0.36282 0.74161 0.94165 0.0
C723 C 0.36141 0.75682 0.93628 0.0
C724 C 0.36825 0.74196 0.95761 0.0
C725 C 0.36992 0.75617 0.96787 0.0
U726 U 0.36823 0.816 0.96878 0.0
O727 O 0.35881 0.83181 0.98713 0.0
O728 O 0.38544 0.83492 0.98318 0.0
C729 C 0.37376 0.83937 0.99185 0.0
C730 C 0.3692 0.78569 0.9732 0.0
C731 C 0.3779 0.8421 0.00886 0.0
C732 C 0.39434 0.83806 0.03225 0.0
C733 C 0.38947 0.83388 0.01636 0.0
C734 C 0.37575 0.85826 0.03341 0.0
C735 C 0.3877 0.85048 0.04079 0.0
C736 C 0.37091 0.85412 0.01758 0.0
C737 C 0.36069 0.83714 0.93168 0.0
C738 C 0.37356 0.86113 0.92091 0.0
C739 C 0.34468 0.85043 0.91348 0.0
C740 C 0.3457 0.83816 0.92315 0.0
C741 C 0.35871 0.86179 0.91205 0.0
C742 C 0.37455 0.84894 0.93068 0.0
C743 C 0.36202 0.82292 0.94024 0.0
O744 O 0.38253 0.79595 0.97155 0.0
O745 O 0.35578 0.79267 0.97469 0.0
O746 O 0.35025 0.81915 0.94959 0.0
O747 O 0.37693 0.8213 0.94604 0.0
H748 H 0.36164 0.78232 0.94197 0.0
H749 H 0.35958 0.75822 0.92407 0.0
H750 H 0.37191 0.73154 0.96243 0.0
H751 H 0.37382 0.75584 0.98002 0.0
H752 H 0.40356 0.83192 0.03779 0.0
H753 H 0.39501 0.82453 0.00988 0.0
H754 H 0.37049 0.86786 0.03982 0.0
H755 H 0.36201 0.86063 0.01204 0.0
H756 H 0.38449 0.86981 0.91996 0.0
H757 H 0.33312 0.85077 0.90672 0.0
H758 H 0.33489 0.82917 0.9236 0.0
H759 H 0.3863 0.84851 0.93707 0.0
C760 C 0.01541 0.39779 0.78236 0.0
C761 C 0.01656 0.39694 0.79853 0.0
C762 C 0.04681 0.40139 0.79898 0.0
C763 C 0.03217 0.39874 0.80678 0.0
C764 C 0.04563 0.40226 0.78283 0.0
C765 C 0.03003 0.40047 0.77459 0.0
U766 U 0.96792 0.38697 0.77892 0.0
O767 O 0.94878 0.3991 0.76781 0.0
O768 O 0.95112 0.37408 0.75938 0.0
C769 C 0.94368 0.38671 0.75732 0.0
C770 C 0.99911 0.39594 0.77345 0.0
C771 C 0.94136 0.39048 0.74113 0.0
C772 C 0.95212 0.40001 0.7175 0.0
C773 C 0.95487 0.39607 0.73274 0.0
C774 C 0.92242 0.39262 0.71886 0.0
C775 C 0.93585 0.39839 0.7105 0.0
C776 C 0.92517 0.3887 0.73404 0.0
C777 C 0.94594 0.3732 0.81464 0.0
C778 C 0.91671 0.37353 0.81913 0.0
C779 C 0.93406 0.36081 0.83649 0.0
C780 C 0.94763 0.36467 0.82766 0.0
C781 C 0.91858 0.36546 0.83245 0.0
C782 C 0.9303 0.37736 0.81025 0.0
C783 C 0.96083 0.37839 0.80646 0.0
O784 O 0.9915 0.38104 0.77016 0.0
O785 O 0.98909 0.40615 0.77816 0.0
O786 O 0.96274 0.39345 0.80321 0.0
O787 O 0.96432 0.36819 0.795 0.0
H788 H 1.00541 0.39486 0.80473 0.0
H789 H 0.03285 0.398 0.81923 0.0
H790 H 0.05678 0.40427 0.77662 0.0
H791 H 0.02939 0.40116 0.76212 0.0
H792 H 0.96263 0.40452 0.71124 0.0
H793 H 0.96746 0.39754 0.73804 0.0
H794 H 0.9098 0.39136 0.71368 0.0
H795 H 0.91459 0.38441 0.74034 0.0
H796 H 0.90487 0.37725 0.81587 0.0
H797 H 0.93573 0.35462 0.84674 0.0
H798 H 0.95957 0.36136 0.83123 0.0
H799 H 0.92873 0.3839 0.80022 0.0
C800 C 0.34873 0.24241 0.53388 0.0
C801 C 0.34339 0.24119 0.54886 0.0
C802 C 0.34211 0.27043 0.55271 0.0
C803 C 0.34053 0.25498 0.55825 0.0
C804 C 0.34896 0.27144 0.53805 0.0
C805 C 0.3518 0.25766 0.52868 0.0
U806 U 0.35194 0.19739 0.5277 0.0
O807 O 0.37073 0.18458 0.51662 0.0
O808 O 0.34467 0.17938 0.50721 0.0
C809 C 0.36007 0.17681 0.50547 0.0
C810 C 0.35209 0.22806 0.52395 0.0
C811 C 0.36553 0.17581 0.48937 0.0
C812 C 0.38624 0.18214 0.47075 0.0
C813 C 0.38017 0.18509 0.48547 0.0
C814 C 0.36285 0.16111 0.46337 0.0
C815 C 0.37779 0.16989 0.45973 0.0
C816 C 0.3568 0.16402 0.47806 0.0
C817 C 0.34257 0.17271 0.56267 0.0
C818 C 0.35523 0.15164 0.57427 0.0
C819 C 0.32721 0.15584 0.57984 0.0
C820 C 0.32804 0.16827 0.57016 0.0
C821 C 0.34096 0.14774 0.58229 0.0
C822 C 0.35602 0.16401 0.5645 0.0
C823 C 0.34397 0.18747 0.55452 0.0
O824 O 0.36545 0.22204 0.52838 0.0
O825 O 0.33918 0.21692 0.51977 0.0
O826 O 0.33291 0.18773 0.54287 0.0
O827 O 0.35904 0.19396 0.55189 0.0
H828 H 0.34176 0.22957 0.55344 0.0
H829 H 0.33767 0.25325 0.57003 0.0
H830 H 0.3528 0.28285 0.5337 0.0
H831 H 0.35674 0.25898 0.51743 0.0
H832 H 0.39781 0.18903 0.46813 0.0
H833 H 0.38721 0.19424 0.49393 0.0
H834 H 0.35617 0.15159 0.45503 0.0
H835 H 0.34558 0.15662 0.48078 0.0
H836 H 0.36595 0.14551 0.57601 0.0
H837 H 0.3161 0.153 0.58594 0.0
H838 H 0.31755 0.17483 0.569 0.0
H839 H 0.36738 0.16712 0.55885 0.0
C840 C 0.46348 0.61749 0.26755 0.0
C841 C 0.46569 0.61272 0.28258 0.0
C842 C 0.43601 0.6114 0.28571 0.0
C843 C 0.45205 0.60964 0.29155 0.0
C844 C 0.43379 0.61628 0.27075 0.0
C845 C 0.44744 0.61927 0.26173 0.0
U846 U 0.51003 0.62838 0.26471 0.0
O847 O 0.52732 0.6183 0.24907 0.0
O848 O 0.5245 0.64398 0.24978 0.0
C849 C 0.53179 0.63212 0.24353 0.0
C850 C 0.47781 0.62072 0.25799 0.0
C851 C 0.53408 0.63134 0.22669 0.0
C852 C 0.52379 0.62911 0.19941 0.0
C853 C 0.52079 0.63029 0.21532 0.0
C854 C 0.55326 0.63014 0.20623 0.0
C855 C 0.54007 0.62883 0.19478 0.0
C856 C 0.55029 0.63139 0.22201 0.0
C857 C 0.53759 0.63515 0.30349 0.0
C858 C 0.56203 0.65365 0.3148 0.0
C859 C 0.55707 0.6265 0.32228 0.0
C860 C 0.54259 0.62324 0.31229 0.0
C861 C 0.56676 0.64179 0.32378 0.0
C862 C 0.54757 0.65037 0.30471 0.0
C863 C 0.5214 0.63173 0.29411 0.0
O864 O 0.48542 0.63571 0.25965 0.0
O865 O 0.48819 0.61002 0.25773 0.0
O866 O 0.51837 0.6177 0.28551 0.0
O867 O 0.51645 0.64359 0.28706 0.0
H868 H 0.47797 0.61139 0.28737 0.0
H869 H 0.45401 0.60598 0.3031 0.0
H870 H 0.42152 0.61777 0.26609 0.0
H871 H 0.44547 0.623 0.25021 0.0
H872 H 0.51345 0.62816 0.19073 0.0
H873 H 0.50818 0.63024 0.21872 0.0
H874 H 0.56589 0.63 0.20293 0.0
H875 H 0.56071 0.63223 0.2306 0.0
H876 H 0.56934 0.66555 0.31586 0.0
H877 H 0.56048 0.61723 0.32919 0.0
H878 H 0.53508 0.61147 0.31171 0.0
H879 H 0.54405 0.65984 0.29815 0.0
C880 C 0.08804 0.79575 0.01753 0.0
C881 C 0.09199 0.81267 0.01941 0.0
C882 C 0.0837 0.81375 0.99205 0.0
C883 C 0.08987 0.8216 0.00677 0.0
C884 C 0.07904 0.79689 0.99034 0.0
C885 C 0.08125 0.78795 1.00298 0.0
U886 U 0.10213 0.79484 0.05984 0.0
O887 O 0.12057 0.78213 0.0712 0.0
O888 O 0.09464 0.77845 0.07744 0.0
C889 C 0.10965 0.77447 0.07952 0.0
C890 C 0.09185 0.78622 0.03043 0.0
C891 C 0.11127 0.75743 0.0819 0.0
C892 C 0.1012 0.73295 0.09359 0.0
C893 C 0.09846 0.74768 0.08829 0.0
C894 C 0.12938 0.73705 0.08571 0.0
C895 C 0.11679 0.72767 0.0926 0.0
C896 C 0.12669 0.7518 0.0805 0.0
C897 C 0.11125 0.83676 0.08414 0.0
C898 C 0.13271 0.84953 0.10407 0.0
C899 C 0.10622 0.85955 0.10196 0.0
C900 C 0.10075 0.84768 0.08956 0.0
C901 C 0.12235 0.86076 0.10908 0.0
C902 C 0.12719 0.83756 0.09171 0.0
C903 C 0.10579 0.82575 0.0698 0.0
O904 O 0.1076 0.7883 0.03561 0.0
O905 O 0.0817 0.78631 0.04172 0.0
O906 O 0.09169 0.81606 0.06997 0.0
O907 O 0.1173 0.81879 0.06282 0.0
H908 H 0.09718 0.81894 0.03056 0.0
H909 H 0.09355 0.83457 0.00835 0.0
H910 H 0.07428 0.79061 0.97908 0.0
H911 H 0.07808 0.77492 1.00129 0.0
H912 H 0.09135 0.72595 0.09897 0.0
H913 H 0.08654 0.75176 0.08985 0.0
H914 H 0.14155 0.73328 0.08499 0.0
H915 H 0.13698 0.75911 0.07603 0.0
H916 H 0.14522 0.85034 0.10942 0.0
H917 H 0.09809 0.86817 0.10565 0.0
H918 H 0.08846 0.84737 0.08387 0.0
H919 H 0.13557 0.82928 0.0878 0.0
C920 C 0.77269 0.01856 0.63647 0.0
C921 C 0.77543 1.00367 0.62885 0.0
C922 C 0.80267 1.00613 0.64296 0.0
C923 C 0.79032 0.99754 0.63203 0.0
C924 C 0.79978 0.02084 0.65079 0.0
C925 C 0.78495 0.02701 0.64753 0.0
U926 U 0.72565 0.01423 0.62618 0.0
O927 O 0.70686 0.02861 0.63493 0.0
O928 O 0.71106 0.02662 0.60999 0.0
C929 C 0.70294 0.03302 0.62118 0.0
C930 C 0.7573 0.02557 0.63295 0.0
C931 C 0.69992 0.04994 0.62062 0.0
C932 C 0.7027 0.07798 0.63209 0.0
C933 C 0.70788 0.06267 0.63145 0.0
C934 C 0.68204 0.06823 0.61072 0.0
C935 C 0.68947 0.08074 0.62196 0.0
C936 C 0.68725 0.053 0.61005 0.0
C937 C 0.70079 0.971 0.62226 0.0
C938 C 0.67684 0.95682 0.60576 0.0
C939 C 0.68306 0.94851 0.63123 0.0
C940 C 0.6968 0.96066 0.63371 0.0
C941 C 0.67308 0.94637 0.61717 0.0
C942 C 0.69058 0.96907 0.60828 0.0
C943 C 0.71619 0.98289 0.62489 0.0
O944 O 0.7505 0.0223 0.6186 0.0
O945 O 0.74631 0.02466 0.6435 0.0
O946 O 0.7177 0.99266 0.6379 0.0
O947 O 0.72145 0.99009 0.6129 0.0
H948 H 0.76615 0.99683 0.62034 0.0
H949 H 0.79229 0.98617 0.62587 0.0
H950 H 0.80912 0.02765 0.65927 0.0
H951 H 0.7831 0.03848 0.65359 0.0
H952 H 0.7085 0.08746 0.64091 0.0
H953 H 0.71763 0.06063 0.63978 0.0
H954 H 0.67176 0.07008 0.60288 0.0
H955 H 0.68085 0.04336 0.60168 0.0
H956 H 0.66931 0.95531 0.59482 0.0
H957 H 0.68039 0.94053 0.64014 0.0
H958 H 0.70452 0.9618 0.64452 0.0
H959 H 0.69333 0.97681 0.5992 0.0
C960 C 0.77239 0.99718 0.36004 0.0
C961 C 0.77034 0.98153 0.35205 0.0
C962 C 0.74144 0.97701 0.35854 0.0
C963 C 0.75493 0.97156 0.35123 0.0
C964 C 0.74347 0.9927 0.36635 0.0
C965 C 0.7588 1.0027 0.36705 0.0
U966 U 0.82005 1.0042 0.36561 0.0
O967 O 0.83855 0.02079 0.35515 0.0
O968 O 0.83681 0.0231 0.38049 0.0
C969 C 0.84388 0.02908 0.36863 0.0
C970 C 0.78858 0.00783 0.36156 0.0
C971 C 0.84616 0.0468 0.36907 0.0
C972 C 0.83555 0.07257 0.37126 0.0
C973 C 0.83272 0.05563 0.37005 0.0
C974 C 0.86517 0.07191 0.37032 0.0
C975 C 0.85183 0.08081 0.37147 0.0
C976 C 0.86235 0.05505 0.36913 0.0
C977 C 0.84362 0.96819 0.36992 0.0
C978 C 0.87308 0.96774 0.36665 0.0
C979 C 0.85762 0.94723 0.38007 0.0
C980 C 0.84324 0.95437 0.37781 0.0
C981 C 0.87261 0.95378 0.3744 0.0
C982 C 0.8587 0.97495 0.36448 0.0
C983 C 0.82816 0.97522 0.36745 0.0
O984 O 0.79669 0.0094 0.37534 0.0
O985 O 0.79825 1.00622 0.34999 0.0
O986 O 0.82603 0.98134 0.35418 0.0
O987 O 0.824 0.98426 0.37947 0.0
H988 H 0.78065 0.97695 0.3466 0.0
H989 H 0.75361 0.95948 0.34517 0.0
H990 H 0.73323 0.99713 0.37207 0.0
H991 H 0.7601 0.01471 0.37327 0.0
H992 H 0.82512 0.07927 0.37216 0.0
H993 H 0.82013 0.04943 0.37005 0.0
H994 H 0.8778 0.07806 0.37049 0.0
H995 H 0.87287 0.04845 0.36845 0.0
H996 H 0.88454 0.97294 0.36218 0.0
H997 H 0.85703 0.93648 0.38607 0.0
H998 H 0.83176 0.94901 0.38214 0.0
H999 H 0.85932 0.98569 0.35846 0.0
C1000 C 0.79983 0.95407 0.15757 0.0
C1001 C 0.81686 0.95582 0.15505 0.0
C1002 C 0.81579 0.92659 0.15154 0.0
C1003 C 0.82478 0.94217 0.15207 0.0
C1004 C 0.79879 0.92485 0.15415 0.0
C1005 C 0.79088 0.93851 0.15716 0.0
U1006 U 0.80021 0.9996 0.16018 0.0
O1007 O 0.7825 0.01398 0.15006 0.0
O1008 O 0.78779 0.01604 0.17547 0.0
C1009 C 0.77911 0.02049 0.16375 0.0
C1010 C 0.79123 0.96834 0.16008 0.0
C1011 C 0.76151 0.02217 0.1657 0.0
C1012 C 0.73552 0.0166 0.17815 0.0
C1013 C 0.75187 0.01365 0.17604 0.0
C1014 C 0.73829 0.03637 0.15955 0.0
C1015 C 0.72868 0.02804 0.16992 0.0
C1016 C 0.75453 0.03346 0.15747 0.0
C1017 C 0.83969 0.02711 0.15372 0.0
C1018 C 0.83902 0.05492 0.14848 0.0
C1019 C 0.86545 0.04498 0.15186 0.0
C1020 C 0.85711 0.02983 0.15427 0.0
C1021 C 0.85646 0.05758 0.1488 0.0
C1022 C 0.83068 0.0398 0.15099 0.0
C1023 C 0.83099 0.01089 0.1554 0.0
O1024 O 0.79615 0.97809 0.17287 0.0
O1025 O 0.78929 0.97606 0.14777 0.0
O1026 O 0.81964 1.00495 0.14411 0.0
O1027 O 0.82604 0.00866 0.16932 0.0
H1028 H 0.82396 0.96774 0.15525 0.0
H1029 H 0.83789 0.94374 0.15006 0.0
H1030 H 0.79165 0.91293 0.15377 0.0
H1031 H 0.77773 0.93693 0.15903 0.0
H1032 H 0.72826 0.01008 0.18623 0.0
H1033 H 0.75702 1.00492 0.18258 0.0
H1034 H 0.73324 0.04526 0.15314 0.0
H1035 H 0.76177 0.04025 0.14955 0.0
H1036 H 0.83189 0.0645 0.14613 0.0
H1037 H 0.87892 0.04682 0.15215 0.0
H1038 H 0.86424 0.02018 0.15637 0.0
H1039 H 0.81721 0.03792 0.15056 0.0
C1040 C 0.69753 0.95319 0.89027 0.0
C1041 C 0.68004 0.95096 0.88903 0.0
C1042 C 0.67935 0.92267 0.89322 0.0
C1043 C 0.67103 0.9358 0.89046 0.0
C1044 C 0.69682 0.92507 0.8951 0.0
C1045 C 0.70583 0.94021 0.89358 0.0
U1046 U 0.70085 0.99845 0.88664 0.0
O1047 O 0.72139 0.01838 0.89346 0.0
O1048 O 0.71202 0.01271 0.86893 0.0
C1049 C 0.72335 0.02137 0.87897 0.0
C1050 C 0.70718 0.96867 0.88736 0.0
C1051 C 0.74068 0.0242 0.87414 0.0
C1052 C 0.7693 0.03745 0.87992 0.0
C1053 C 0.75352 0.03238 0.88483 0.0
C1054 C 0.76003 0.02587 0.85358 0.0
C1055 C 0.77256 0.03457 0.86421 0.0
C1056 C 0.74421 0.02077 0.85848 0.0
C1057 C 0.66126 0.01827 0.89419 0.0
C1058 C 0.65868 0.04691 0.89548 0.0
C1059 C 0.63421 0.02709 0.89632 0.0
C1060 C 0.64404 0.01472 0.89517 0.0
C1061 C 0.64142 0.04325 0.89652 0.0
C1062 C 0.66858 0.03445 0.8943 0.0
C1063 C 0.6711 1.00478 0.89321 0.0
O1064 O 0.70241 0.9745 0.87455 0.0
O1065 O 0.71045 0.97977 0.89939 0.0
O1066 O 0.68355 1.00566 0.90379 0.0
O1067 O 0.6747 0.99947 0.87918 0.0
H1068 H 0.67338 0.96084 0.88656 0.0
H1069 H 0.65757 0.9342 0.88901 0.0
H1070 H 0.70345 0.91509 0.89726 0.0
H1071 H 0.7193 0.9417 0.89462 0.0
H1072 H 0.77881 0.0442 0.88827 0.0
H1073 H 0.75119 0.03543 0.89689 0.0
H1074 H 0.7623 0.02358 0.8414 0.0
H1075 H 0.73461 0.01469 0.84987 0.0
H1076 H 0.66444 0.05933 0.89564 0.0
H1077 H 0.62092 0.02406 0.89712 0.0
H1078 H 0.63818 1.00232 0.8951 0.0
H1079 H 0.68187 0.03741 0.89355 0.0
C1080 C 0.60309 0.72673 0.95544 0.0
C1081 C 0.60257 0.72484 0.93907 0.0
C1082 C 0.60763 0.75404 0.93874 0.0
C1083 C 0.60478 0.73839 0.93079 0.0
C1084 C 0.60849 0.75591 0.95512 0.0
C1085 C 0.60621 0.74235 0.9634 0.0
U1086 U 0.59904 0.68135 0.95621 0.0
O1087 O 0.60836 0.66622 0.97315 0.0
O1088 O 0.5815 0.66427 0.96717 0.0
C1089 C 0.59338 0.65928 0.97558 0.0
C1090 C 0.60025 0.7125 0.96421 0.0
C1091 C 0.5902 0.65653 0.99178 0.0
C1092 C 0.58788 0.66589 0.01905 0.0
C1093 C 0.59006 0.66923 1.00362 0.0
C1094 C 0.58571 0.63722 0.01081 0.0
C1095 C 0.58596 0.64984 0.02278 0.0
C1096 C 0.5878 0.64054 0.99548 0.0
C1097 C 0.60481 0.6565 0.9176 0.0
C1098 C 0.60831 0.62809 0.91485 0.0
C1099 C 0.60542 0.64216 0.8919 0.0
C1100 C 0.60401 0.65631 0.90135 0.0
C1101 C 0.60764 0.62799 0.89856 0.0
C1102 C 0.60684 0.64229 0.92433 0.0
C1103 C 0.60398 0.67178 0.92721 0.0
O1104 O 0.58629 0.7027 0.96014 0.0
O1105 O 0.61311 0.70481 0.96616 0.0
O1106 O 0.61609 0.6763 0.93815 0.0
O1107 O 0.58927 0.67387 0.93188 0.0
H1108 H 0.60026 0.71288 0.9327 0.0
H1109 H 0.60405 0.73669 0.91817 0.0
H1110 H 0.61066 0.76787 0.96146 0.0
H1111 H 0.60672 0.74406 0.97601 0.0
H1112 H 0.5881 0.6758 0.02812 0.0
H1113 H 0.59189 0.68166 1.00098 0.0
H1114 H 0.58425 0.62478 0.01342 0.0
H1115 H 0.58784 0.63058 0.98651 0.0
H1116 H 0.61007 0.61725 0.92016 0.0
H1117 H 0.60492 0.64228 0.87936 0.0
H1118 H 0.60247 0.66716 0.89597 0.0
H1119 H 0.60747 0.64224 0.93688 0.0
C1120 C 0.96247 0.10356 0.76659 0.0
C1121 C 0.96573 0.10516 0.78278 0.0
C1122 C 0.9358 0.10298 0.78668 0.0
C1123 C 0.95263 0.10431 0.79262 0.0
C1124 C 0.93288 0.09888 0.77032 0.0
C1125 C 0.94597 0.09974 0.76043 0.0
U1126 U 0.00845 0.11454 0.7617 0.0
O1127 O 0.0254 0.10443 0.74559 0.0
O1128 O 0.02184 0.12991 0.74597 0.0
C1129 C 0.02913 0.11812 0.73958 0.0
C1130 C 0.97618 0.10588 0.7562 0.0
C1131 C 0.03065 0.11719 0.72259 0.0
C1132 C 0.02039 0.11994 0.69605 0.0
C1133 C 0.01775 0.11977 0.71197 0.0
C1134 C 0.04867 0.11483 0.70125 0.0
C1135 C 0.03595 0.11757 0.69063 0.0
C1136 C 0.04604 0.11463 0.71705 0.0
C1137 C 0.03676 0.12452 0.79987 0.0
C1138 C 0.0666 0.12401 0.80325 0.0
C1139 C 0.05214 0.13551 0.82441 0.0
C1140 C 0.0372 0.13215 0.81509 0.0
C1141 C 0.06689 0.13128 0.81864 0.0
C1142 C 0.05161 0.12068 0.79388 0.0
C1143 C 0.02054 0.11993 0.7909 0.0
O1144 O 0.98349 0.12087 0.75653 0.0
O1145 O 0.98682 0.09545 0.75655 0.0
O1146 O 0.01809 0.10555 0.78292 0.0
O1147 O 0.01506 0.13113 0.78327 0.0
H1148 H 0.97845 0.10714 0.78784 0.0
H1149 H 0.95602 0.10467 0.80492 0.0
H1150 H 0.92061 0.09476 0.76481 0.0
H1151 H 0.94317 0.09742 0.74793 0.0
H1152 H 0.01043 0.12209 0.68801 0.0
H1153 H 1.0058 0.12185 0.71601 0.0
H1154 H 0.06075 0.11301 0.69732 0.0
H1155 H 0.05618 0.11275 0.72504 0.0
H1156 H 0.07787 0.12062 0.79863 0.0
H1157 H 0.05214 0.14109 0.83626 0.0
H1158 H 0.02588 0.13519 0.81991 0.0
H1159 H 0.05154 0.11481 0.78213 0.0
C1160 C 0.86703 0.28618 0.46158 0.0
C1161 C 0.85564 0.28142 0.4485 0.0
C1162 C 0.87006 0.25864 0.44099 0.0
C1163 C 0.85708 0.26768 0.43836 0.0
C1164 C 0.88117 0.26315 0.45424 0.0
C1165 C 0.87964 0.27679 0.46447 0.0
U1166 U 0.86326 0.33065 0.46479 0.0
O1167 O 0.85118 0.34644 0.48119 0.0
O1168 O 0.87803 0.35168 0.47861 0.0
C1169 C 0.86533 0.35554 0.48618 0.0
C1170 C 0.86681 0.30154 0.47152 0.0
C1171 C 0.86839 0.3598 0.50321 0.0
C1172 C 0.88417 0.35886 0.52787 0.0
C1173 C 0.88027 0.35317 0.51209 0.0
C1174 C 0.86399 0.37741 0.52624 0.0
C1175 C 0.87624 0.37121 0.53497 0.0
C1176 C 0.86012 0.37177 0.5105 0.0
C1177 C 0.85667 0.34697 0.42487 0.0
C1178 C 0.85457 0.3748 0.42064 0.0
C1179 C 0.85557 0.35479 0.3986 0.0
C1180 C 0.85654 0.34297 0.40874 0.0
C1181 C 0.85469 0.37079 0.40447 0.0
C1182 C 0.85562 0.36294 0.43082 0.0
C1183 C 0.85852 0.3343 0.4351 0.0
O1184 O 0.87948 0.31277 0.47037 0.0
O1185 O 0.8525 0.30716 0.47175 0.0
O1186 O 0.84628 0.33069 0.444 0.0
O1187 O 0.8733 0.33506 0.44232 0.0
H1188 H 0.84589 0.28852 0.44588 0.0
H1189 H 0.84838 0.26439 0.4282 0.0
H1190 H 0.89126 0.25633 0.45646 0.0
H1191 H 0.88861 0.28027 0.4744 0.0
H1192 H 0.89365 0.35393 0.53445 0.0
H1193 H 0.88682 0.34392 0.50674 0.0
H1194 H 0.85774 0.38694 0.53152 0.0
H1195 H 0.85097 0.37708 0.50388 0.0
H1196 H 0.85385 0.38711 0.42534 0.0
H1197 H 0.85564 0.35148 0.38617 0.0
H1198 H 0.85737 0.33071 0.40397 0.0
H1199 H 0.85576 0.36622 0.44328 0.0
C1200 C 0.47227 0.89552 0.7731 0.0
C1201 C 0.47429 0.8956 0.78936 0.0
C1202 C 0.44649 0.90284 0.79203 0.0
C1203 C 0.46152 0.89924 0.79874 0.0
C1204 C 0.44444 0.90267 0.77575 0.0
C1205 C 0.45725 0.89906 0.76637 0.0
U1206 U 0.51433 0.88134 0.76874 0.0
O1207 O 0.52387 0.8658 0.75027 0.0
O1208 O 0.53615 0.89075 0.75662 0.0
C1209 C 0.53574 0.87722 0.74746 0.0
C1210 C 0.48578 0.89184 0.76316 0.0
C1211 C 0.53976 0.87854 0.73105 0.0
C1212 C 0.53462 0.87062 0.70302 0.0
C1213 C 0.52929 0.87063 0.71822 0.0
C1214 C 0.56078 0.88652 0.71322 0.0
C1215 C 0.5505 0.87844 0.70045 0.0
C1216 C 0.55547 0.88657 0.72832 0.0
C1217 C 0.53584 0.87045 0.8068 0.0
C1218 C 0.55452 0.85113 0.81257 0.0
C1219 C 0.55424 0.87512 0.83052 0.0
C1220 C 0.542 0.87995 0.82075 0.0
C1221 C 0.56051 0.86064 0.82658 0.0
C1222 C 0.5423 0.85602 0.8027 0.0
C1223 C 0.5221 0.87552 0.79738 0.0
O1224 O 0.5 0.90146 0.76628 0.0
O1225 O 0.48766 0.87651 0.76085 0.0
O1226 O 0.51357 0.86466 0.78684 0.0
O1227 O 0.52509 0.88991 0.79257 0.0
H1228 H 0.48576 0.89286 0.7948 0.0
H1229 H 0.46333 0.89923 0.81125 0.0
H1230 H 0.43293 0.90533 0.77034 0.0
H1231 H 0.45542 0.89905 0.75386 0.0
H1232 H 0.52649 0.86432 0.69331 0.0
H1233 H 0.51718 0.86419 0.71994 0.0
H1234 H 0.57306 0.89261 0.7115 0.0
H1235 H 0.56388 0.89256 0.73799 0.0
H1236 H 0.55919 0.83988 0.80937 0.0
H1237 H 0.55867 0.88259 0.8413 0.0
H1238 H 0.53714 0.89104 0.82422 0.0
H1239 H 0.53777 0.84842 0.79203 0.0
C1240 C 0.99012 0.13714 0.22468 0.0
C1241 C 0.97272 0.13606 0.2248 0.0
C1242 C 0.97069 0.14124 0.19763 0.0
C1243 C 0.96311 0.138 0.21137 0.0
C1244 C 0.98814 0.14313 0.19771 0.0
C1245 C 0.99778 0.14097 0.21113 0.0
U1246 U 0.99693 0.1379 0.26852 0.0
O1247 O 1.00264 0.11893 0.28289 0.0
O1248 O 0.01955 0.14187 0.28457 0.0
C1249 C 0.01672 0.12732 0.28908 0.0
C1250 C 1.00017 0.13368 0.23843 0.0
C1251 C 0.03106 0.11842 0.29026 0.0
C1252 C 0.05047 0.10168 0.27898 0.0
C1253 C 0.03711 0.11047 0.27715 0.0
C1254 C 0.05176 0.10877 0.30693 0.0
C1255 C 0.05785 0.10078 0.29393 0.0
C1256 C 0.0385 0.1175 0.30511 0.0
C1257 C 0.96448 0.15697 0.29264 0.0
C1258 C 0.95206 0.14974 0.31636 0.0
C1259 C 0.94913 0.1756 0.30721 0.0
C1260 C 0.95854 0.17191 0.29464 0.0
C1261 C 0.94542 0.16433 0.31788 0.0
C1262 C 0.96156 0.14609 0.30385 0.0
C1263 C 0.97219 0.15248 0.27808 0.0
O1264 O 0.00791 0.14633 0.24747 0.0
O1265 O 0.99295 0.12239 0.24627 0.0
O1266 O 0.97065 0.13696 0.27332 0.0
O1267 O 0.98698 0.16029 0.27632 0.0
H1268 H 0.96652 0.13334 0.23517 0.0
H1269 H 0.94969 0.13661 0.21158 0.0
H1270 H 0.99422 0.14573 0.18725 0.0
H1271 H 0.01117 0.14197 0.21082 0.0
H1272 H 0.05503 0.09559 0.26881 0.0
H1273 H 0.03146 0.11101 0.26558 0.0
H1274 H 0.0573 0.10822 0.31854 0.0
H1275 H 0.03397 0.12349 0.31536 0.0
H1276 H 0.94934 0.14093 0.32453 0.0
H1277 H 0.94412 0.18692 0.30822 0.0
H1278 H 0.96064 0.18047 0.28614 0.0
H1279 H 0.96608 0.13453 0.30263 0.0
C1280 C 0.46984 0.12919 0.72889 0.0
C1281 C 0.46871 0.13628 0.71496 0.0
C1282 C 0.43887 0.12547 0.71053 0.0
C1283 C 0.45362 0.13415 0.70577 0.0
C1284 C 0.44094 0.11696 0.72373 0.0
C1285 C 0.45597 0.11916 0.73294 0.0
U1286 U 0.51726 0.13915 0.73501 0.0
O1287 O 0.53331 0.15368 0.75431 0.0
O1288 O 0.53534 0.128 0.74865 0.0
C1289 C 0.54045 0.14132 0.75798 0.0
C1290 C 0.48547 0.13155 0.73899 0.0
C1291 C 0.54322 0.13954 0.77472 0.0
C1292 C 0.53616 0.12676 0.79801 0.0
C1293 C 0.532 0.1296 0.78262 0.0
C1294 C 0.56248 0.14414 0.79786 0.0
C1295 C 0.55164 0.13371 0.80559 0.0
C1296 C 0.5583 0.14703 0.78258 0.0
C1297 C 0.54173 0.14805 0.69886 0.0
C1298 C 0.56389 0.16752 0.69094 0.0
C1299 C 0.56031 0.13966 0.67949 0.0
C1300 C 0.54691 0.13599 0.68855 0.0
C1301 C 0.56873 0.15548 0.68044 0.0
C1302 C 0.55049 0.16384 0.70008 0.0
C1303 C 0.52634 0.14422 0.70702 0.0
O1304 O 0.49545 0.12072 0.73627 0.0
O1305 O 0.49338 0.14642 0.74144 0.0
O1306 O 0.52224 0.15561 0.71701 0.0
O1307 O 0.52375 0.12979 0.71182 0.0
H1308 H 0.47955 0.14336 0.71108 0.0
H1309 H 0.45388 0.13913 0.69474 0.0
H1310 H 0.43131 0.1081 0.72703 0.0
H1311 H 0.45682 0.11281 0.7432 0.0
H1312 H 0.52761 0.1187 0.80381 0.0
H1313 H 0.52029 0.1237 0.77676 0.0
H1314 H 0.57445 0.14964 0.80348 0.0
H1315 H 0.56714 0.15471 0.77669 0.0
H1316 H 0.5702 0.17982 0.69175 0.0
H1317 H 0.56382 0.13024 0.67138 0.0
H1318 H 0.54029 0.12378 0.68718 0.0
H1319 H 0.54676 0.17347 0.70777 0.0
C1320 C 0.12239 0.24849 0.94486 0.0
C1321 C 0.12071 0.24737 0.9285 0.0
C1322 C 0.12854 0.22031 0.92677 0.0
C1323 C 0.12372 0.23336 0.91952 0.0
C1324 C 0.13048 0.22157 0.94312 0.0
C1325 C 0.1274 0.23554 0.95208 0.0
U1326 U 0.11614 0.29292 0.94959 0.0
O1327 O 0.12488 0.3124 0.96843 0.0
O1328 O 0.09811 0.30531 0.96247 0.0
C1329 C 0.10973 0.31443 0.9719 0.0
C1330 C 0.11891 0.263 0.95452 0.0
C1331 C 0.10666 0.31709 0.9887 0.0
C1332 C 0.08724 0.31872 0.00914 0.0
C1333 C 0.09057 0.31353 0.99385 0.0
C1334 C 0.11604 0.33071 0.0146 0.0
C1335 C 0.09989 0.32768 0.0195 0.0
C1336 C 0.11939 0.32552 0.99937 0.0
C1337 C 0.12011 0.31644 0.91355 0.0
C1338 C 0.12959 0.3449 0.91155 0.0
C1339 C 0.11263 0.32855 0.89021 0.0
C1340 C 0.11191 0.31516 0.89864 0.0
C1341 C 0.12164 0.34346 0.89651 0.0
C1342 C 0.12878 0.3315 0.92005 0.0
C1343 C 0.12016 0.30174 0.92159 0.0
O1344 O 0.13133 0.27493 0.95717 0.0
O1345 O 0.1046 0.2679 0.95106 0.0
O1346 O 0.10575 0.29525 0.92591 0.0
O1347 O 0.13255 0.30179 0.93207 0.0
H1348 H 0.11695 0.25726 0.92268 0.0
H1349 H 0.12216 0.23263 0.90693 0.0
H1350 H 0.13419 0.21165 0.94892 0.0
H1351 H 0.12883 0.23619 0.96468 0.0
H1352 H 0.07468 0.31629 0.01271 0.0
H1353 H 0.0804 0.30729 0.98593 0.0
H1354 H 0.12595 0.33763 0.02241 0.0
H1355 H 0.13182 0.32873 0.99575 0.0
H1356 H 0.13662 0.35632 0.91657 0.0
H1357 H 0.10645 0.32722 0.87861 0.0
H1358 H 0.10519 0.30368 0.89339 0.0
H1359 H 0.13518 0.33286 0.93154 0.0
C1360 C 0.35849 0.69474 0.51498 0.0
C1361 C 0.36468 0.67991 0.51296 0.0
C1362 C 0.36384 0.67739 0.54074 0.0
C1363 C 0.36739 0.67134 0.52575 0.0
C1364 C 0.35753 0.69214 0.54275 0.0
C1365 C 0.35488 0.70075 0.52996 0.0
U1366 U 0.35122 0.69589 0.47127 0.0
O1367 O 0.33419 0.70835 0.45747 0.0
O1368 O 0.3612 0.71314 0.4555 0.0
C1369 C 0.34646 0.71653 0.45106 0.0
C1370 C 0.35558 0.70389 0.50156 0.0
C1371 C 0.34518 0.73348 0.44846 0.0
C1372 C 0.35679 0.76202 0.45093 0.0
C1373 C 0.35638 0.7466 0.45597 0.0
C1374 C 0.33438 0.75156 0.43136 0.0
C1375 C 0.34617 0.76447 0.43821 0.0
C1376 C 0.33388 0.73623 0.43645 0.0
C1377 C 0.34956 0.65593 0.44517 0.0
C1378 C 0.34093 0.65233 0.41753 0.0
C1379 C 0.35049 0.63042 0.42969 0.0
C1380 C 0.35344 0.64021 0.4439 0.0
C1381 C 0.34255 0.63565 0.41646 0.0
C1382 C 0.3439 0.66216 0.43177 0.0
C1383 C 0.35165 0.66559 0.46049 0.0
O1384 O 0.36771 0.70549 0.49217 0.0
O1385 O 0.34081 0.70018 0.49406 0.0
O1386 O 0.33825 0.67114 0.46522 0.0
O1387 O 0.36513 0.67632 0.46309 0.0
H1388 H 0.36742 0.67497 0.5015 0.0
H1389 H 0.37221 0.65996 0.52396 0.0
H1390 H 0.35468 0.69697 0.55421 0.0
H1391 H 0.35002 0.71211 0.53176 0.0
H1392 H 0.36596 0.77185 0.4564 0.0
H1393 H 0.36527 0.7448 0.46522 0.0
H1394 H 0.32606 0.75316 0.42157 0.0
H1395 H 0.32522 0.7263 0.43042 0.0
H1396 H 0.3377 0.65821 0.4075 0.0
H1397 H 0.35473 0.61879 0.42932 0.0
H1398 H 0.35878 0.63545 0.45394 0.0
H1399 H 0.34179 0.67465 0.4323 0.0
C1400 C 0.72396 0.48522 0.85072 0.0
C1401 C 0.72637 0.50201 0.85003 0.0
C1402 C 0.69663 0.50158 0.84448 0.0
C1403 C 0.71282 0.51011 0.84692 0.0
C1404 C 0.69424 0.48473 0.8448 0.0
C1405 C 0.70783 0.47661 0.84793 0.0
U1406 U 0.7696 0.48812 0.86294 0.0
O1407 O 0.78299 0.47747 0.8813 0.0
O1408 O 0.78887 0.473 0.85691 0.0
C1409 C 0.79174 0.46993 0.87138 0.0
C1410 C 0.73815 0.47694 0.85507 0.0
C1411 C 0.79466 0.45333 0.87414 0.0
C1412 C 0.80239 0.42725 0.86456 0.0
C1413 C 0.79643 0.44165 0.86171 0.0
C1414 C 0.80435 0.43557 0.8923 0.0
C1415 C 0.80679 0.4243 0.87985 0.0
C1416 C 0.7984 0.44995 0.88947 0.0
C1417 C 0.79382 0.53138 0.86656 0.0
C1418 C 0.82381 0.53943 0.86782 0.0
C1419 C 0.80577 0.55913 0.8753 0.0
C1420 C 0.7919 0.54725 0.87197 0.0
C1421 C 0.82181 0.55533 0.87323 0.0
C1422 C 0.80988 0.52748 0.86456 0.0
C1423 C 0.77882 0.51932 0.86293 0.0
O1424 O 0.74977 0.47693 0.84512 0.0
O1425 O 0.74424 0.48057 0.8696 0.0
O1426 O 0.77253 0.51284 0.87489 0.0
O1427 O 0.77882 0.50882 0.8506 0.0
H1428 H 0.73871 0.50888 0.85219 0.0
H1429 H 0.71491 0.5231 0.84676 0.0
H1430 H 0.68183 0.47796 0.84298 0.0
H1431 H 0.70571 0.46367 0.84845 0.0
H1432 H 0.80426 0.41873 0.8548 0.0
H1433 H 0.79391 0.44391 0.84975 0.0
H1434 H 0.80776 0.43355 0.90417 0.0
H1435 H 0.79748 0.45879 0.89928 0.0
H1436 H 0.83611 0.53631 0.86614 0.0
H1437 H 0.80401 0.57134 0.87944 0.0
H1438 H 0.77962 0.55048 0.87357 0.0
H1439 H 0.81163 0.51527 0.86043 0.0
C1440 C 0.68501 0.46138 0.1496 0.0
C1441 C 0.668 0.45889 0.15217 0.0
C1442 C 0.66755 0.42977 0.14763 0.0
C1443 C 0.65934 0.44318 0.15124 0.0
C1444 C 0.68451 0.43228 0.14492 0.0
C1445 C 0.69317 0.44798 0.14593 0.0
U1446 U 0.68709 0.50698 0.14809 0.0
O1447 O 0.70245 0.52737 0.16247 0.0
O1448 O 0.70484 0.52386 0.13723 0.0
C1449 C 0.71062 0.53206 0.15064 0.0
C1450 C 0.69439 0.4778 0.15059 0.0
C1451 C 0.72896 0.53622 0.1531 0.0
C1452 C 0.75476 0.54044 0.1698 0.0
C1453 C 0.73768 0.53472 0.16733 0.0
C1454 C 0.75475 0.54884 0.14381 0.0
C1455 C 0.76332 0.54774 0.15811 0.0
C1456 C 0.73774 0.54318 0.14135 0.0
C1457 C 0.64682 0.52482 0.13952 0.0
C1458 C 0.63963 0.55155 0.14719 0.0
C1459 C 0.626 0.53565 0.12389 0.0
C1460 C 0.63528 0.52323 0.12654 0.0
C1461 C 0.628 0.54984 0.13426 0.0
C1462 C 0.64904 0.53917 0.14978 0.0
C1463 C 0.65604 0.51123 0.14221 0.0
O1464 O 0.69474 0.48446 0.13748 0.0
O1465 O 0.69187 0.48783 0.16262 0.0
O1466 O 0.66277 0.511 0.15638 0.0
O1467 O 0.66574 0.50724 0.13127 0.0
H1468 H 0.66144 0.46907 0.15492 0.0
H1469 H 0.64625 0.44146 0.15333 0.0
H1470 H 0.69102 0.42209 0.14208 0.0
H1471 H 0.70627 0.44967 0.14384 0.0
H1472 H 0.76121 0.53953 0.18093 0.0
H1473 H 0.73128 0.52951 0.17667 0.0
H1474 H 0.76115 0.55448 0.13469 0.0
H1475 H 0.73132 0.54466 0.13036 0.0
H1476 H 0.64134 0.56242 0.15532 0.0
H1477 H 0.61709 0.53411 0.11386 0.0
H1478 H 0.63335 0.51229 0.11849 0.0
H1479 H 0.6579 0.54078 0.15985 0.0
C1480 C 0.71264 0.5388 0.37365 0.0
C1481 C 0.69529 0.53736 0.37073 0.0
C1482 C 0.69645 0.56656 0.3759 0.0
C1483 C 0.68728 0.55113 0.37179 0.0
C1484 C 0.71373 0.56794 0.37927 0.0
C1485 C 0.72176 0.55417 0.37811 0.0
U1486 U 0.7133 0.49343 0.37365 0.0
O1487 O 0.72365 0.47616 0.35744 0.0
O1488 O 0.73261 0.47973 0.38217 0.0
C1489 C 0.73395 0.47232 0.36827 0.0
C1490 C 0.72142 0.5245 0.37174 0.0
C1491 C 0.75088 0.47029 0.36392 0.0
C1492 C 0.77687 0.47913 0.35253 0.0
C1493 C 0.76113 0.48209 0.35707 0.0
C1494 C 0.77221 0.45272 0.36176 0.0
C1495 C 0.78246 0.46437 0.35483 0.0
C1496 C 0.7566 0.45566 0.36627 0.0
C1497 C 0.6728 0.46765 0.38381 0.0
C1498 C 0.65749 0.44119 0.3741 0.0
C1499 C 0.654 0.45306 0.40019 0.0
C1500 C 0.66539 0.46657 0.39801 0.0
C1501 C 0.64969 0.44044 0.38813 0.0
C1502 C 0.66898 0.45467 0.37195 0.0
C1503 C 0.68321 0.48294 0.38126 0.0
O1504 O 0.72444 0.51772 0.38446 0.0
O1505 O 0.71608 0.51393 0.35963 0.0
O1506 O 0.68684 0.4849 0.36689 0.0
O1507 O 0.69574 0.48823 0.39161 0.0
H1508 H 0.68796 0.52562 0.36739 0.0
H1509 H 0.67394 0.5498 0.36915 0.0
H1510 H 0.72104 0.57971 0.38248 0.0
H1511 H 0.73513 0.55556 0.38048 0.0
H1512 H 0.78461 0.48826 0.34717 0.0
H1513 H 0.75692 0.49345 0.35512 0.0
H1514 H 0.77627 0.44125 0.36359 0.0
H1515 H 0.74888 0.44637 0.37146 0.0
H1516 H 0.65431 0.43156 0.36466 0.0
H1517 H 0.64809 0.4527 0.41108 0.0
H1518 H 0.66804 0.47642 0.4073 0.0
H1519 H 0.67448 0.45512 0.36087 0.0
C1520 C 0.75863 0.53875 0.6322 0.0
C1521 C 0.75233 0.52556 0.6211 0.0
C1522 C 0.72985 0.51746 0.63735 0.0
C1523 C 0.73804 0.51507 0.62364 0.0
C1524 C 0.73597 0.53069 0.64835 0.0
C1525 C 0.75019 0.54127 0.64576 0.0
U1526 U 0.80441 0.54377 0.62429 0.0
O1527 O 0.81964 0.55983 0.61036 0.0
O1528 O 0.82619 0.56036 0.63546 0.0
C1529 C 0.8297 0.5665 0.62244 0.0
C1530 C 0.77432 0.54945 0.63018 0.0
C1531 C 0.83561 0.5841 0.6235 0.0
C1532 C 0.83541 0.61064 0.61437 0.0
C1533 C 0.82795 0.59456 0.6146 0.0
C1534 C 0.85802 0.60609 0.63211 0.0
C1535 C 0.85066 0.6164 0.62294 0.0
C1536 C 0.85057 0.59012 0.6324 0.0
C1537 C 0.82276 0.50352 0.61817 0.0
C1538 C 0.85001 0.49643 0.62537 0.0
C1539 C 0.83078 0.47827 0.60699 0.0
C1540 C 0.81921 0.48909 0.60816 0.0
C1541 C 0.8461 0.48169 0.61583 0.0
C1542 C 0.83843 0.50731 0.62651 0.0
C1543 C 0.80932 0.51341 0.62081 0.0
O1544 O 0.7863 0.54985 0.64116 0.0
O1545 O 0.77969 0.54881 0.61609 0.0
O1546 O 0.80451 0.52101 0.60916 0.0
O1547 O 0.8101 0.52207 0.63443 0.0
H1548 H 0.75858 0.52317 0.61057 0.0
H1549 H 0.73357 0.50486 0.61506 0.0
H1550 H 0.72986 0.53268 0.65903 0.0
H1551 H 0.75479 0.55128 0.65452 0.0
H1552 H 0.82956 0.61845 0.60722 0.0
H1553 H 0.81648 0.59023 0.60753 0.0
H1554 H 0.86977 0.6103 0.63879 0.0
H1555 H 0.85684 0.58228 0.6392 0.0
H1556 H 0.86177 0.49922 0.63231 0.0
H1557 H 0.82755 0.46693 0.59961 0.0
H1558 H 0.8072 0.4859 0.60167 0.0
H1559 H 0.84148 0.51838 0.63431 0.0
C1560 C 0.49609 0.1377 0.2829 0.0
C1561 C 0.47946 0.14014 0.28025 0.0
C1562 C 0.47556 0.14023 0.30794 0.0
C1563 C 0.46927 0.14137 0.29268 0.0
C1564 C 0.49235 0.13837 0.31067 0.0
C1565 C 0.50253 0.13708 0.29821 0.0
U1566 U 0.50348 0.13874 0.23992 0.0
O1567 O 0.5264 0.14499 0.22799 0.0
O1568 O 0.51186 0.12077 0.22312 0.0
C1569 C 0.52535 0.1304 0.22058 0.0
C1570 C 0.5065 0.13505 0.26973 0.0
C1571 C 0.54088 0.12318 0.21966 0.0
C1572 C 0.5572 0.10159 0.22408 0.0
C1573 C 0.54345 0.10952 0.22716 0.0
C1574 C 0.56627 0.12124 0.20654 0.0
C1575 C 0.56846 0.1072 0.21343 0.0
C1576 C 0.5526 0.12915 0.20962 0.0
C1577 C 0.47061 0.1538 0.21352 0.0
C1578 C 0.47409 0.16231 0.18765 0.0
C1579 C 0.44642 0.15445 0.19584 0.0
C1580 C 0.4533 0.15148 0.21027 0.0
C1581 C 0.45674 0.15985 0.18441 0.0
C1582 C 0.48099 0.15921 0.20209 0.0
C1583 C 0.4774 0.15038 0.22884 0.0
O1584 O 0.50012 0.12336 0.25893 0.0
O1585 O 0.51317 0.14811 0.26395 0.0
O1586 O 0.49119 0.15954 0.23473 0.0
O1587 O 0.47731 0.13502 0.23057 0.0
H1588 H 0.47428 0.14071 0.26852 0.0
H1589 H 0.45636 0.1428 0.29036 0.0
H1590 H 0.49741 0.13747 0.32236 0.0
H1591 H 0.51534 0.13523 0.30048 0.0
H1592 H 0.55874 0.09078 0.22953 0.0
H1593 H 0.53457 0.10466 0.23495 0.0
H1594 H 0.57484 0.12576 0.19832 0.0
H1595 H 0.55083 0.1396 0.20366 0.0
H1596 H 0.48223 0.1665 0.17896 0.0
H1597 H 0.43302 0.1525 0.19355 0.0
H1598 H 0.44509 0.1473 0.21891 0.0
H1599 H 0.4944 0.16101 0.20431 0.0
C1600 C 0.96705 0.92482 0.75376 0.0
C1601 C 0.96494 0.91821 0.73807 0.0
C1602 C 0.94668 0.93782 0.73218 0.0
C1603 C 0.95477 0.92464 0.72737 0.0
C1604 C 0.94895 0.94455 0.74781 0.0
C1605 C 0.95906 0.93808 0.75852 0.0
U1606 U 1.00244 0.90124 0.76494 0.0
O1607 O 0.02109 0.90671 0.78504 0.0
O1608 O 1.0035 0.88376 0.78239 0.0
C1609 C 0.01583 0.89313 0.79073 0.0
C1610 C 0.97742 0.91804 0.76533 0.0
C1611 C 0.02351 0.88865 0.8054 0.0
C1612 C 0.04216 0.89594 0.82892 0.0
C1613 C 0.03539 0.89984 0.81476 0.0
C1614 C 0.02551 0.8695 0.82464 0.0
C1615 C 0.03725 0.88077 0.83398 0.0
C1616 C 0.01867 0.87342 0.81048 0.0
C1617 C 0.02704 0.88481 0.73055 0.0
C1618 C 0.05577 0.88472 0.724 0.0
C1619 C 0.03374 0.86593 0.70938 0.0
C1620 C 0.02206 0.87204 0.71871 0.0
C1621 C 0.0506 0.87257 0.71166 0.0
C1622 C 0.04409 0.89081 0.73338 0.0
C1623 C 0.01411 0.8931 0.73799 0.0
O1624 O 0.97553 0.9022 0.76468 0.0
O1625 O 0.99307 0.9247 0.76744 0.0
O1626 O 0.01905 0.90697 0.74652 0.0
O1627 O 1.00198 0.88407 0.74379 0.0
H1628 H 0.97106 0.90805 0.73412 0.0
H1629 H 0.95317 0.91931 0.71535 0.0
H1630 H 0.94281 0.95472 0.75171 0.0
H1631 H 0.96057 0.94338 0.77055 0.0
H1632 H 0.0512 0.90479 0.83597 0.0
H1633 H 0.03933 0.91169 0.81124 0.0
H1634 H 0.02158 0.85773 0.82837 0.0
H1635 H 0.00954 0.86455 0.80356 0.0
H1636 H 0.06874 0.89 0.7259 0.0
H1637 H 0.02952 0.85658 0.69988 0.0
H1638 H 0.00901 0.86731 0.71616 0.0
H1639 H 0.04835 0.90069 0.74236 0.0
C1640 C 0.52601 0.8984 0.29428 0.0
C1641 C 0.52839 0.89206 0.30855 0.0
C1642 C 0.55738 0.90459 0.31114 0.0
C1643 C 0.54399 0.89511 0.3169 0.0
C1644 C 0.5549 0.91117 0.29704 0.0
C1645 C 0.53932 0.90809 0.28867 0.0
U1646 U 0.47866 0.8857 0.29019 0.0
O1647 O 0.45931 0.89516 0.27644 0.0
O1648 O 0.46295 0.86981 0.27161 0.0
C1649 C 0.45502 0.88148 0.26744 0.0
C1650 C 0.50988 0.89486 0.28497 0.0
C1651 C 0.45292 0.88273 0.25057 0.0
C1652 C 0.4627 0.89253 0.2267 0.0
C1653 C 0.46556 0.89068 0.24254 0.0
C1654 C 0.43475 0.8782 0.22673 0.0
C1655 C 0.44719 0.88646 0.21875 0.0
C1656 C 0.4376 0.87634 0.24251 0.0
C1657 C 0.45544 0.87644 0.32647 0.0
C1658 C 0.42581 0.87651 0.32899 0.0
C1659 C 0.44242 0.86606 0.34875 0.0
C1660 C 0.45653 0.86938 0.34046 0.0
C1661 C 0.42701 0.86982 0.3432 0.0
C1662 C 0.43992 0.87976 0.32065 0.0
C1663 C 0.47073 0.88091 0.31857 0.0
O1664 O 0.50284 0.87968 0.28327 0.0
O1665 O 0.4993 0.90507 0.2879 0.0
O1666 O 0.47231 0.89516 0.31335 0.0
O1667 O 0.47517 0.86959 0.30874 0.0
H1668 H 0.51825 0.88462 0.31313 0.0
H1669 H 0.54569 0.88994 0.32777 0.0
H1670 H 0.56508 0.91853 0.29243 0.0
H1671 H 0.53772 0.91313 0.27773 0.0
H1672 H 0.47241 0.89902 0.22073 0.0
H1673 H 0.47747 0.89569 0.24858 0.0
H1674 H 0.42269 0.8735 0.22081 0.0
H1675 H 0.4277 0.87018 0.24851 0.0
H1676 H 0.41402 0.87948 0.32453 0.0
H1677 H 0.44357 0.86089 0.35968 0.0
H1678 H 0.46838 0.86672 0.34513 0.0
H1679 H 0.43879 0.88515 0.30984 0.0
C1680 C 0.84665 0.73666 0.04522 0.0
C1681 C 0.84682 0.73566 0.06135 0.0
C1682 C 0.84812 0.76482 0.06622 0.0
C1683 C 0.84757 0.74964 0.07178 0.0
C1684 C 0.84729 0.76577 0.05006 0.0
C1685 C 0.8466 0.75176 0.03963 0.0
U1686 U 0.84678 0.69156 0.03851 0.0
O1687 O 0.83649 0.67311 0.01908 0.0
O1688 O 0.86332 0.67722 0.02585 0.0
C1689 C 0.85125 0.66945 0.01601 0.0
C1690 C 0.84759 0.72217 0.03438 0.0
C1691 C 0.8549 0.66728 0.99945 0.0
C1692 C 0.87093 0.67503 0.97776 0.0
C1693 C 0.86605 0.67858 0.99287 0.0
C1694 C 0.85314 0.64918 0.97544 0.0
C1695 C 0.86473 0.66016 0.96908 0.0
C1696 C 0.84827 0.65273 0.99049 0.0
C1697 C 0.84162 0.66879 0.0752 0.0
C1698 C 0.8549 0.6475 0.08567 0.0
C1699 C 0.8283 0.65309 0.09437 0.0
C1700 C 0.82823 0.6652 0.08442 0.0
C1701 C 0.84183 0.64443 0.09535 0.0
C1702 C 0.85479 0.65956 0.07563 0.0
C1703 C 0.8423 0.68318 0.0666 0.0
O1704 O 0.86102 0.7154 0.03674 0.0
O1705 O 0.83393 0.71163 0.03194 0.0
O1706 O 0.82992 0.68345 0.05619 0.0
O1707 O 0.85688 0.6889 0.06205 0.0
H1708 H 0.84686 0.7241 0.06589 0.0
H1709 H 0.84823 0.74868 0.08419 0.0
H1710 H 0.84771 0.77738 0.04558 0.0
H1711 H 0.84646 0.75277 0.02723 0.0
H1712 H 0.87992 0.68362 0.97302 0.0
H1713 H 0.87137 0.68988 0.99958 0.0
H1714 H 0.84826 0.63765 0.96892 0.0
H1715 H 0.83973 0.64381 0.99535 0.0
H1716 H 0.86544 0.64093 0.08629 0.0
H1717 H 0.81811 0.65088 0.10177 0.0
H1718 H 0.81798 0.67219 0.08434 0.0
H1719 H 0.86528 0.66202 0.06864 0.0
C1720 C 0.59332 0.30245 0.50862 0.0
C1721 C 0.58128 0.31301 0.50834 0.0
C1722 C 0.58807 0.31919 0.48231 0.0
C1723 C 0.57862 0.32122 0.49527 0.0
C1724 C 0.59977 0.30837 0.48241 0.0
C1725 C 0.60233 0.30006 0.49541 0.0
U1726 U 0.60616 0.30592 0.55189 0.0
O1727 O 0.59832 0.29135 0.5708 0.0
O1728 O 0.6245 0.29476 0.56524 0.0
C1729 C 0.61336 0.28784 0.57382 0.0
C1730 C 0.59731 0.29458 0.52275 0.0
C1731 C 0.61482 0.27115 0.57733 0.0
C1732 C 0.62574 0.2456 0.57252 0.0
C1733 C 0.62277 0.26051 0.56771 0.0
C1734 C 0.61256 0.25161 0.59639 0.0
C1735 C 0.62086 0.24117 0.58702 0.0
C1736 C 0.60957 0.26643 0.59158 0.0
C1737 C 0.61247 0.35 0.57189 0.0
C1738 C 0.61673 0.35887 0.59967 0.0
C1739 C 0.61905 0.37859 0.58097 0.0
C1740 C 0.61551 0.36615 0.56878 0.0
C1741 C 0.61959 0.37506 0.59649 0.0
C1742 C 0.61322 0.34637 0.58741 0.0
C1743 C 0.60823 0.33736 0.55868 0.0
O1744 O 0.61292 0.29775 0.52838 0.0
O1745 O 0.58672 0.29485 0.53368 0.0
O1746 O 0.59448 0.32727 0.55925 0.0
O1747 O 0.62058 0.33028 0.55358 0.0
H1748 H 0.57414 0.31519 0.51833 0.0
H1749 H 0.56951 0.32949 0.49542 0.0
H1750 H 0.60718 0.30662 0.47254 0.0
H1751 H 0.61167 0.29202 0.49529 0.0
H1752 H 0.63215 0.23769 0.56512 0.0
H1753 H 0.62704 0.26387 0.55669 0.0
H1754 H 0.6087 0.24842 0.6076 0.0
H1755 H 0.60356 0.27446 0.59927 0.0
H1756 H 0.61703 0.35597 0.6116 0.0
H1757 H 0.62115 0.391 0.57832 0.0
H1758 H 0.61496 0.36915 0.55688 0.0
H1759 H 0.61091 0.33395 0.59002 0.0
C1760 C 0.27076 0.50119 0.12696 0.0
C1761 C 0.2696 0.48466 0.1285 0.0
C1762 C 0.30004 0.48585 0.12826 0.0
C1763 C 0.284 0.47724 0.12969 0.0
C1764 C 0.30089 0.50289 0.12886 0.0
C1765 C 0.28654 0.51033 0.12773 0.0
U1766 U 0.22378 0.49921 0.11813 0.0
O1767 O 0.20582 0.51381 0.1283 0.0
O1768 O 0.20966 0.51339 0.10333 0.0
C1769 C 0.20194 0.51932 0.11505 0.0
C1770 C 0.25576 0.50912 0.12478 0.0
C1771 C 0.19947 0.5365 0.11564 0.0
C1772 C 0.20356 0.56409 0.12846 0.0
C1773 C 0.20812 0.54851 0.12682 0.0
C1774 C 0.18214 0.55603 0.10742 0.0
C1775 C 0.19026 0.56783 0.119 0.0
C1776 C 0.18673 0.54054 0.10574 0.0
C1777 C 0.19709 0.45712 0.11085 0.0
C1778 C 0.16773 0.44964 0.11473 0.0
C1779 C 0.18222 0.4312 0.09918 0.0
C1780 C 0.19683 0.44232 0.10169 0.0
C1781 C 0.16762 0.43468 0.10585 0.0
C1782 C 0.18234 0.46082 0.11718 0.0
C1783 C 0.21304 0.46801 0.11428 0.0
O1784 O 0.24868 0.50716 0.11053 0.0
O1785 O 0.24496 0.5075 0.13545 0.0
O1786 O 0.21511 0.47669 0.12795 0.0
O1787 O 0.21843 0.47613 0.10292 0.0
H1788 H 0.25753 0.47748 0.12887 0.0
H1789 H 0.28215 0.46481 0.13206 0.0
H1790 H 0.31264 0.51079 0.13031 0.0
H1791 H 0.28781 0.5233 0.12747 0.0
H1792 H 0.20989 0.573 0.13754 0.0
H1793 H 0.21795 0.54569 0.13464 0.0
H1794 H 0.17179 0.55863 0.10009 0.0
H1795 H 0.17982 0.53146 0.09711 0.0
H1796 H 0.15658 0.45253 0.11997 0.0
H1797 H 0.18236 0.41972 0.0923 0.0
H1798 H 0.20804 0.43922 0.09671 0.0
H1799 H 0.1822 0.47218 0.12425 0.0
C1800 C 0.31462 0.53965 0.85949 0.0
C1801 C 0.33206 0.54172 0.85953 0.0
C1802 C 0.33304 0.57088 0.86415 0.0
C1803 C 0.34121 0.55725 0.86181 0.0
C1804 C 0.31562 0.56878 0.86416 0.0
C1805 C 0.30647 0.55326 0.86182 0.0
U1806 U 0.31264 0.49401 0.85627 0.0
O1807 O 0.29595 0.47552 0.86638 0.0
O1808 O 0.29675 0.47472 0.84097 0.0
C1809 C 0.2895 0.46855 0.85267 0.0
C1810 C 0.30488 0.52339 0.85728 0.0
C1811 C 0.27118 0.46466 0.85101 0.0
C1812 C 0.24372 0.47008 0.8421 0.0
C1813 C 0.26109 0.47431 0.8435 0.0
C1814 C 0.24639 0.44663 0.85573 0.0
C1815 C 0.23627 0.45624 0.8483 0.0
C1816 C 0.26368 0.45081 0.85706 0.0
C1817 C 0.35441 0.47727 0.86037 0.0
C1818 C 0.35951 0.45153 0.86889 0.0
C1819 C 0.3808 0.46759 0.85632 0.0
C1820 C 0.37032 0.47928 0.85478 0.0
C1821 C 0.37554 0.45372 0.86352 0.0
C1822 C 0.34897 0.46321 0.86727 0.0
C1823 C 0.34418 0.4904 0.85958 0.0
O1824 O 0.30672 0.51459 0.84421 0.0
O1825 O 0.30519 0.51528 0.8695 0.0
O1826 O 0.33502 0.49291 0.87136 0.0
O1827 O 0.33642 0.49128 0.84599 0.0
H1828 H 0.33856 0.53134 0.85781 0.0
H1829 H 0.35464 0.55865 0.86176 0.0
H1830 H 0.30913 0.57916 0.86593 0.0
H1831 H 0.29304 0.55188 0.86187 0.0
H1832 H 0.2361 0.47763 0.83632 0.0
H1833 H 0.26662 0.48508 0.83876 0.0
H1834 H 0.24088 0.43592 0.86056 0.0
H1835 H 0.27123 0.44319 0.86286 0.0
H1836 H 0.35526 0.44089 0.87447 0.0
H1837 H 0.39313 0.46946 0.85211 0.0
H1838 H 0.37476 0.49004 0.84946 0.0
H1839 H 0.33671 0.4614 0.87164 0.0
C1840 C 0.28229 0.45111 0.64827 0.0
C1841 C 0.29923 0.45422 0.64558 0.0
C1842 C 0.30067 0.42536 0.64192 0.0
C1843 C 0.30835 0.44145 0.64245 0.0
C1844 C 0.28372 0.42225 0.64463 0.0
C1845 C 0.2746 0.43504 0.6478 0.0
U1846 U 0.28026 0.49604 0.65205 0.0
O1847 O 0.26146 0.51026 0.64359 0.0
O1848 O 0.26851 0.51174 0.66869 0.0
C1849 C 0.25888 0.51632 0.65771 0.0
C1850 C 0.27262 0.46456 0.65137 0.0
C1851 C 0.24146 0.51784 0.6609 0.0
C1852 C 0.2176 0.51417 0.67669 0.0
C1853 C 0.23351 0.51084 0.67314 0.0
C1854 C 0.21736 0.53125 0.65573 0.0
C1855 C 0.20953 0.52455 0.66808 0.0
C1856 C 0.23314 0.52792 0.65219 0.0
C1857 C 0.32011 0.52377 0.6452 0.0
C1858 C 0.32344 0.55308 0.64945 0.0
C1859 C 0.34532 0.53985 0.63877 0.0
C1860 C 0.33568 0.52482 0.63913 0.0
C1861 C 0.34019 0.55434 0.64538 0.0
C1862 C 0.31374 0.538 0.64981 0.0
C1863 C 0.31062 0.50775 0.64622 0.0
O1864 O 0.2774 0.47417 0.66427 0.0
O1865 O 0.2697 0.47248 0.63937 0.0
O1866 O 0.29861 0.50286 0.63527 0.0
O1867 O 0.30635 0.5048 0.66019 0.0
H1868 H 0.30538 0.46654 0.64587 0.0
H1869 H 0.3214 0.44409 0.64037 0.0
H1870 H 0.27757 0.40992 0.64425 0.0
H1871 H 0.26154 0.43241 0.64982 0.0
H1872 H 0.21173 0.50892 0.68629 0.0
H1873 H 0.23969 0.50311 0.68013 0.0
H1874 H 0.21134 0.5393 0.64899 0.0
H1875 H 0.23906 0.5336 0.64283 0.0
H1876 H 0.31732 0.56349 0.65208 0.0
H1877 H 0.35677 0.53982 0.63307 0.0
H1878 H 0.34042 0.51398 0.63461 0.0
H1879 H 0.30124 0.53745 0.65362 0.0
C1880 C 0.23971 0.50568 0.34321 0.0
C1881 C 0.24179 0.5106 0.32824 0.0
C1882 C 0.26836 0.52683 0.33739 0.0
C1883 C 0.25599 0.52107 0.32536 0.0
C1884 C 0.26651 0.52167 0.35221 0.0
C1885 C 0.2524 0.51118 0.35508 0.0
U1886 U 0.19497 0.49866 0.3554 0.0
O1887 O 0.17355 0.48012 0.34691 0.0
O1888 O 0.18334 0.48247 0.37138 0.0
C1889 C 0.17257 0.47439 0.36049 0.0
C1890 C 0.2246 0.49469 0.34646 0.0
C1891 C 0.16953 0.45663 0.36039 0.0
C1892 C 0.1784 0.43093 0.36533 0.0
C1893 C 0.18224 0.44755 0.36407 0.0
C1894 C 0.14928 0.43228 0.35893 0.0
C1895 C 0.16184 0.42324 0.36293 0.0
C1896 C 0.15309 0.4488 0.35766 0.0
C1897 C 0.17409 0.53701 0.36477 0.0
C1898 C 0.1454 0.54223 0.36186 0.0
C1899 C 0.16539 0.56003 0.37984 0.0
C1900 C 0.17772 0.55061 0.37587 0.0
C1901 C 0.14921 0.55605 0.3727 0.0
C1902 C 0.15774 0.53274 0.35794 0.0
C1903 C 0.18785 0.52828 0.35986 0.0
O1904 O 0.22087 0.49524 0.36109 0.0
O1905 O 0.21142 0.49373 0.33665 0.0
O1906 O 0.18559 0.51946 0.34626 0.0
O1907 O 0.19539 0.52138 0.37068 0.0
H1908 H 0.23242 0.50643 0.31875 0.0
H1909 H 0.25725 0.52481 0.31381 0.0
H1910 H 0.27598 0.52588 0.36161 0.0
H1911 H 0.2514 0.50745 0.36666 0.0
H1912 H 0.18826 0.42413 0.36844 0.0
H1913 H 0.19501 0.45335 0.36627 0.0
H1914 H 0.13644 0.42658 0.35706 0.0
H1915 H 0.14309 0.45558 0.35491 0.0
H1916 H 0.13298 0.539 0.35621 0.0
H1917 H 0.16855 0.57066 0.3882 0.0
H1918 H 0.19023 0.55419 0.38123 0.0
H1919 H 0.15458 0.5223 0.34935 0.0
H1920 H 0.07361 0.34899 0.08962 0.0
H1921 H 0.10064 0.38968 0.11929 0.0
H1922 H 0.11687 0.37665 0.07405 0.0
H1923 H 0.0749 0.3906 0.12856 0.0
C1924 C 0.07107 0.37787 0.1296 0.0
C1925 C 0.08372 0.35896 0.09166 0.0
C1926 C 0.09503 0.36166 0.08015 0.0
C1927 C 0.08532 0.36921 0.10575 0.0
C1928 C 0.09872 0.38198 0.10834 0.0
C1929 C 0.11007 0.38467 0.09693 0.0
C1930 C 0.10809 0.37457 0.08285 0.0
N1931 N 0.07374 0.36612 0.11727 0.0
H1932 H 0.96787 0.89667 0.38344 0.0
H1933 H 0.92789 0.91702 0.40511 0.0
H1934 H 0.93631 0.9232 0.35742 0.0
H1935 H 0.94646 0.91901 0.42666 0.0
C1936 C 0.95064 0.90725 0.42538 0.0
C1937 C 0.95764 0.90365 0.38291 0.0
C1938 C 0.9532 0.90976 0.36892 0.0
C1939 C 0.94893 0.90662 0.39625 0.0
C1940 C 0.9353 0.91527 0.39524 0.0
C1941 C 0.93074 0.92127 0.38127 0.0
C1942 C 0.93989 0.91867 0.36826 0.0
N1943 N 0.95358 0.90022 0.41028 0.0
H1944 H 0.41102 0.65189 0.62714 0.0
H1945 H 0.36616 0.61815 0.61366 0.0
H1946 H 0.39629 0.61339 0.65481 0.0
H1947 H 0.36865 0.62696 0.59054 0.0
C1948 C 0.37528 0.63917 0.59192 0.0
C1949 C 0.40223 0.64157 0.62927 0.0
C1950 C 0.4052 0.63327 0.64226 0.0
C1951 C 0.38821 0.63628 0.61873 0.0
C1952 C 0.37708 0.62252 0.62144 0.0
C1953 C 0.38 0.61431 0.6345 0.0
C1954 C 0.39391 0.6199 0.64487 0.0
N1955 N 0.3858 0.64506 0.60565 0.0
H1956 H 0.58019 0.13429 0.90849 0.0
H1957 H 0.59581 0.09696 0.87795 0.0
H1958 H 0.60913 0.10099 0.92713 0.0
H1959 H 0.59508 0.11465 0.8607 0.0
C1960 C 0.58406 0.12014 0.86317 0.0
C1961 C 0.58643 0.12373 0.90676 0.0
C1962 C 0.59445 0.11816 0.91952 0.0
C1963 C 0.58716 0.11618 0.89167 0.0
C1964 C 0.59478 0.10208 0.88965 0.0
C1965 C 0.60101 0.09489 0.90253 0.0
C1966 C 0.6022 0.10429 0.91719 0.0
N1967 N 0.57953 0.12259 0.87882 0.0
H1968 H 0.07046 0.6311 0.3927 0.0
H1969 H 0.10612 0.60276 0.41063 0.0
H1970 H 0.09324 0.59903 0.36143 0.0
H1971 H 0.09097 0.60456 0.43186 0.0
C1972 C 0.08805 0.61683 0.43274 0.0
C1973 C 0.07876 0.62217 0.39082 0.0
C1974 C 0.08073 0.6155 0.37559 0.0
C1975 C 0.08743 0.61728 0.40366 0.0
C1976 C 0.09865 0.60607 0.40102 0.0
C1977 C 0.10074 0.59944 0.38581 0.0
C1978 C 0.09156 0.60403 0.3732 0.0
N1979 N 0.08514 0.6243 0.41895 0.0
H1980 H 0.58588 0.85391 0.60382 0.0
H1981 H 0.61079 0.89728 0.63103 0.0
H1982 H 0.62568 0.88391 0.58535 0.0
H1983 H 0.58532 0.89713 0.64081 0.0
C1984 C 0.58229 0.88448 0.64257 0.0
C1985 C 0.5951 0.86464 0.60503 0.0
C1986 C 0.60556 0.86766 0.59286 0.0
C1987 C 0.59641 0.87556 0.61868 0.0
C1988 C 0.60892 0.88915 0.62034 0.0
C1989 C 0.61946 0.89218 0.60836 0.0
C1990 C 0.61752 0.88156 0.5946 0.0
N1991 N 0.58548 0.87239 0.63074 0.0
H1992 H 0.45807 0.38135 0.86792 0.0
H1993 H 0.42029 0.40336 0.89172 0.0
H1994 H 0.43018 0.41355 0.84527 0.0
H1995 H 0.43913 0.40243 0.91268 0.0
C1996 C 0.44178 0.39012 0.91051 0.0
C1997 C 0.44858 0.38923 0.86814 0.0
C1998 C 0.44511 0.39719 0.855 0.0
C1999 C 0.43999 0.39167 0.88167 0.0
C2000 C 0.42748 0.40174 0.88168 0.0
C2001 C 0.42396 0.40965 0.86859 0.0
C2002 C 0.43287 0.4074 0.85537 0.0
N2003 N 0.44379 0.38366 0.89496 0.0
H2004 H 0.92693 0.15605 0.13297 0.0
H2005 H 0.88154 0.12379 0.11793 0.0
H2006 H 0.91179 0.11509 0.1576 0.0
H2007 H 0.8867 0.1322 0.09468 0.0
C2008 C 0.89209 0.14483 0.09694 0.0
C2009 C 0.91809 0.1455 0.13437 0.0
C2010 C 0.92086 0.1362 0.14669 0.0
C2011 C 0.9041 0.14102 0.12367 0.0
C2012 C 0.89266 0.12727 0.12567 0.0
C2013 C 0.89551 0.11786 0.13783 0.0
C2014 C 0.90956 0.12241 0.14825 0.0
N2015 N 0.90179 0.15059 0.11118 0.0
H2016 H 0.12225 0.05792 0.31148 0.0
H2017 H 0.14307 0.0752 0.35829 0.0
H2018 H 0.10231 0.09556 0.33862 0.0
H2019 H 0.16619 0.06794 0.34869 0.0
C2020 C 0.162 0.05664 0.34144 0.0
C2021 C 0.12232 0.06572 0.32225 0.0
C2022 C 0.11075 0.07673 0.3237 0.0
C2023 C 0.13431 0.06519 0.33458 0.0
C2024 C 0.13426 0.07551 0.3485 0.0
C2025 C 0.12274 0.08644 0.34991 0.0
C2026 C 0.11104 0.08691 0.33756 0.0
N2027 N 0.14622 0.05425 0.33278 0.0
H2028 H 0.13185 0.85601 0.63664 0.0
H2029 H 0.09088 0.83382 0.66026 0.0
H2030 H 0.11008 0.88404 0.67226 0.0
H2031 H 0.10449 0.81129 0.65456 0.0
C2032 C 0.10748 0.81255 0.64263 0.0
C2033 C 0.12287 0.85679 0.64536 0.0
C2034 C 0.1224 0.8716 0.65435 0.0
C2035 C 0.11185 0.84294 0.64765 0.0
C2036 C 0.09996 0.84415 0.6588 0.0
C2037 C 0.0993 0.85898 0.66766 0.0
C2038 C 0.11065 0.87257 0.66549 0.0
N2039 N 0.11244 0.82823 0.63807 0.0
H2040 H 0.35647 0.93875 0.83579 0.0
H2041 H 0.37967 0.90225 0.85697 0.0
H2042 H 0.33543 0.91712 0.87463 0.0
H2043 H 0.40279 0.91539 0.84803 0.0
C2044 C 0.39837 0.9176 0.83645 0.0
C2045 C 0.35691 0.93042 0.84454 0.0
C2046 C 0.34453 0.9292 0.85531 0.0
C2047 C 0.36993 0.92096 0.84517 0.0
C2048 C 0.37018 0.91006 0.85653 0.0
C2049 C 0.35777 0.90864 0.86712 0.0
C2050 C 0.34504 0.91825 0.86647 0.0
N2051 N 0.38216 0.92202 0.83395 0.0
H2052 H 0.38716 0.16283 0.09111 0.0
H2053 H 0.42995 0.1878 0.11993 0.0
H2054 H 0.40511 0.14267 0.13156 0.0
H2055 H 0.42177 0.20969 0.11069 0.0
C2056 C 0.41686 0.2059 0.09875 0.0
C2057 C 0.39594 0.1636 0.10117 0.0
C2058 C 0.39476 0.15111 0.11094 0.0
C2059 C 0.40835 0.17717 0.10446 0.0
C2060 C 0.41989 0.17786 0.11745 0.0
C2061 C 0.41863 0.16549 0.12729 0.0
C2062 C 0.40604 0.15225 0.12398 0.0
N2063 N 0.40912 0.18967 0.09436 0.0
H2064 H 0.1442 0.95644 0.18252 0.0
H2065 H 0.16363 0.92651 0.1466 0.0
H2066 H 0.11772 0.90945 0.16561 0.0
H2067 H 0.18921 0.94146 0.1609 0.0
C2068 C 0.18527 0.95313 0.15969 0.0
C2069 C 0.14336 0.94515 0.17508 0.0
C2070 C 0.1298 0.93293 0.17571 0.0
C2071 C 0.1559 0.94277 0.1649 0.0
C2072 C 0.15448 0.92823 0.15499 0.0
C2073 C 0.14053 0.91635 0.15499 0.0
C2074 C 0.12846 0.91865 0.16557 0.0
N2075 N 0.16903 0.9556 0.16382 0.0
H2076 H 0.33097 0.86079 0.40473 0.0
H2077 H 0.37334 0.84007 0.38848 0.0
H2078 H 0.36201 0.8844 0.37269 0.0
H2079 H 0.35571 0.81665 0.3912 0.0
C2080 C 0.35091 0.81958 0.40244 0.0
C2081 C 0.34153 0.86111 0.39765 0.0
C2082 C 0.34525 0.87399 0.38859 0.0
C2083 C 0.35128 0.8485 0.39735 0.0
C2084 C 0.36523 0.84925 0.38835 0.0
C2085 C 0.36912 0.86218 0.37947 0.0
C2086 C 0.359 0.87439 0.37952 0.0
N2087 N 0.34718 0.83548 0.4065 0.0
H2088 H 0.34133 0.07891 0.66521 0.0
H2089 H 0.36573 0.11487 0.63986 0.0
H2090 H 0.31768 0.09034 0.62246 0.0
H2091 H 0.38909 0.1034 0.65146 0.0
C2092 C 0.38512 0.1042 0.66325 0.0
C2093 C 0.34135 0.08455 0.65463 0.0
C2094 C 0.32825 0.08072 0.64268 0.0
C2095 C 0.35513 0.09629 0.65337 0.0
C2096 C 0.35542 0.10542 0.64067 0.0
C2097 C 0.34176 0.10334 0.62967 0.0
C2098 C 0.32829 0.09124 0.63083 0.0
N2099 N 0.36803 0.09945 0.6656 0.0
H2100 H 0.15688 0.15419 0.8992 0.0
H2101 H 0.13449 0.12293 0.8586 0.0
H2102 H 0.11451 0.16618 0.87298 0.0
H2103 H 0.15957 0.11475 0.85833 0.0
C2104 C 0.16304 0.11434 0.87059 0.0
C2105 C 0.14772 0.15152 0.88934 0.0
C2106 C 0.13586 0.16199 0.88716 0.0
C2107 C 0.14767 0.13751 0.87893 0.0
C2108 C 0.13534 0.13394 0.86641 0.0
C2109 C 0.12342 0.14427 0.86425 0.0
C2110 C 0.12384 0.1583 0.87455 0.0
N2111 N 0.1595 0.12685 0.88178 0.0
H2112 H 0.83089 0.35738 0.9034 0.0
H2113 H 0.8705 0.33552 0.8825 0.0
H2114 H 0.85618 0.37851 0.86637 0.0
H2115 H 0.87262 0.32533 0.90517 0.0
C2116 C 0.86008 0.32282 0.90882 0.0
C2117 C 0.84017 0.35715 0.89491 0.0
C2118 C 0.84211 0.36931 0.88477 0.0
C2119 C 0.85033 0.34484 0.89431 0.0
C2120 C 0.86257 0.34486 0.88338 0.0
C2121 C 0.86475 0.35707 0.87343 0.0
C2122 C 0.85436 0.36903 0.874 0.0
N2123 N 0.84787 0.33262 0.90467 0.0
H2124 H 0.84422 0.57401 0.17726 0.0
H2125 H 0.87019 0.60898 0.15066 0.0
H2126 H 0.8186 0.59119 0.1387 0.0
H2127 H 0.8927 0.59871 0.15955 0.0
C2128 C 0.89017 0.59662 0.17142 0.0
C2129 C 0.84438 0.58139 0.16767 0.0
C2130 C 0.82976 0.58127 0.15812 0.0
C2131 C 0.8592 0.59109 0.16493 0.0
C2132 C 0.85915 0.6009 0.15263 0.0
C2133 C 0.84454 0.60093 0.14316 0.0
C2134 C 0.82994 0.59105 0.14591 0.0
N2135 N 0.87363 0.59144 0.17521 0.0
H2136 H 0.65757 0.65993 0.40416 0.0
H2137 H 0.63154 0.63176 0.36334 0.0
H2138 H 0.61601 0.67647 0.38068 0.0
H2139 H 0.6561 0.62276 0.36069 0.0
C2140 C 0.66014 0.62126 0.37259 0.0
C2141 C 0.648 0.65837 0.39466 0.0
C2142 C 0.63703 0.6699 0.39367 0.0
C2143 C 0.64654 0.64475 0.38349 0.0
C2144 C 0.63356 0.64253 0.37158 0.0
C2145 C 0.62263 0.65398 0.37048 0.0
C2146 C 0.62459 0.66773 0.3814 0.0
N2147 N 0.6577 0.63315 0.38491 0.0
H2148 H 0.85248 0.44286 0.32395 0.0
H2149 H 0.87371 0.40598 0.34637 0.0
H2150 H 0.83327 0.42665 0.36595 0.0
H2151 H 0.8969 0.41611 0.3353 0.0
C2152 C 0.89188 0.41802 0.32383 0.0
C2153 C 0.85295 0.43532 0.33337 0.0
C2154 C 0.84138 0.43596 0.34488 0.0
C2155 C 0.86503 0.42481 0.33396 0.0
C2156 C 0.86512 0.41471 0.34603 0.0
C2157 C 0.85378 0.41545 0.3576 0.0
C2158 C 0.84212 0.4262 0.35706 0.0
N2159 N 0.87639 0.42402 0.32199 0.0
H2160 H 0.60855 0.54922 0.81061 0.0
H2161 H 0.63009 0.56437 0.85757 0.0
H2162 H 0.5915 0.58811 0.8386 0.0
H2163 H 0.65243 0.55556 0.84851 0.0
C2164 C 0.64796 0.54508 0.84021 0.0
C2165 C 0.60931 0.55707 0.82144 0.0
C2166 C 0.59853 0.5688 0.82326 0.0
C2167 C 0.62124 0.55566 0.83356 0.0
C2168 C 0.62167 0.56564 0.84777 0.0
C2169 C 0.61112 0.57747 0.84949 0.0
C2170 C 0.59969 0.57899 0.83722 0.0
N2171 N 0.63247 0.5441 0.83127 0.0
H2172 H 0.9049 0.64842 0.90473 0.0
H2173 H 0.88851 0.60708 0.87095 0.0
H2174 H 0.86068 0.6158 0.91078 0.0
H2175 H 0.91638 0.60916 0.86834 0.0
C2176 C 0.91989 0.62208 0.86815 0.0
C2177 C 0.89611 0.63773 0.90065 0.0
C2178 C 0.88249 0.63318 0.90938 0.0
C2179 C 0.89862 0.62826 0.88687 0.0
C2180 C 0.88712 0.61434 0.88173 0.0
C2181 C 0.87341 0.60989 0.89028 0.0
C2182 C 0.87117 0.61934 0.90407 0.0
N2183 N 0.91249 0.6331 0.8782 0.0
H2184 H 0.05401 0.13108 0.61701 0.0
H2185 H 0.09212 0.10576 0.59758 0.0
H2186 H 0.0757 0.09668 0.64246 0.0
H2187 H 0.09733 0.12752 0.58505 0.0
C2188 C 0.08543 0.13146 0.5824 0.0
C2189 C 0.06268 0.12245 0.61784 0.0
C2190 C 0.06366 0.11421 0.63122 0.0
C2191 C 0.07324 0.11992 0.60574 0.0
C2192 C 0.0843 0.10846 0.60691 0.0
C2193 C 0.08515 0.10007 0.62012 0.0
C2194 C 0.0749 0.10306 0.6322 0.0
N2195 N 0.07233 0.12883 0.59255 0.0
H2196 H 0.55723 0.35517 0.39153 0.0
H2197 H 0.60252 0.38215 0.41473 0.0
H2198 H 0.58585 0.39221 0.36934 0.0
H2199 H 0.60279 0.36178 0.4284 0.0
C2200 C 0.59026 0.35553 0.42873 0.0
C2201 C 0.56803 0.36431 0.39166 0.0
C2202 C 0.57016 0.37341 0.3789 0.0
C2203 C 0.57992 0.36686 0.40452 0.0
C2204 C 0.59363 0.37921 0.40473 0.0
C2205 C 0.59584 0.38826 0.39201 0.0
C2206 C 0.58419 0.38515 0.37912 0.0
N2207 N 0.57758 0.35708 0.41707 0.0
H2208 H 0.41913 0.86896 0.11559 0.0
H2209 H 0.40501 0.91114 0.14111 0.0
H2210 H 0.38714 0.89797 0.09328 0.0
H2211 H 0.43166 0.91159 0.15305 0.0
C2212 C 0.43071 0.89899 0.15518 0.0
C2213 C 0.41265 0.87941 0.11603 0.0
C2214 C 0.40319 0.88239 0.10274 0.0
C2215 C 0.41387 0.89003 0.12984 0.0
C2216 C 0.40495 0.90329 0.13039 0.0
C2217 C 0.39528 0.90613 0.11725 0.0
C2218 C 0.39468 0.89581 0.10342 0.0
N2219 N 0.42335 0.88674 0.14324 0.0
H2220 H 0.90574 0.38982 0.6086 0.0
H2221 H 0.89603 0.43267 0.63626 0.0
H2222 H 0.87617 0.4224 0.58865 0.0
H2223 H 0.9226 0.4301 0.64743 0.0
C2224 C 0.9203 0.41735 0.64903 0.0
C2225 C 0.90023 0.40087 0.60969 0.0
C2226 C 0.89096 0.40511 0.59687 0.0
C2227 C 0.90255 0.41095 0.62386 0.0
C2228 C 0.89503 0.42511 0.62524 0.0
C2229 C 0.88543 0.42919 0.61261 0.0
C2230 C 0.88363 0.41928 0.59841 0.0
N2231 N 0.91164 0.40619 0.63679 0.0
H2232 H 0.41844 0.15869 0.39445 0.0
H2233 H 0.40299 0.11476 0.36369 0.0
H2234 H 0.37675 0.12475 0.40426 0.0
H2235 H 0.41345 0.12976 0.34572 0.0
C2236 C 0.42452 0.13702 0.35161 0.0
C2237 C 0.41014 0.14745 0.39132 0.0
C2238 C 0.39746 0.14274 0.40106 0.0
C2239 C 0.41204 0.13767 0.37752 0.0
C2240 C 0.40141 0.12287 0.37385 0.0
C2241 C 0.38853 0.11833 0.38333 0.0
C2242 C 0.38664 0.1283 0.39688 0.0
N2243 N 0.42486 0.14275 0.36773 0.0
H2244 H 0.55772 0.63244 0.11987 0.0
H2245 H 0.59202 0.602 0.10107 0.0
H2246 H 0.57907 0.60012 0.14823 0.0
H2247 H 0.59769 0.62144 0.08588 0.0
C2248 C 0.58599 0.62578 0.08324 0.0
C2249 C 0.56587 0.62343 0.12125 0.0
C2250 C 0.56724 0.61679 0.13553 0.0
C2251 C 0.57527 0.61873 0.10886 0.0
C2252 C 0.58536 0.60654 0.11063 0.0
C2253 C 0.58682 0.59988 0.12483 0.0
C2254 C 0.57793 0.60524 0.13725 0.0
N2255 N 0.57423 0.62631 0.09482 0.0
H2256 H 0.05853 0.8564 0.90357 0.0
H2257 H 0.10249 0.88225 0.93009 0.0
H2258 H 0.08896 0.89473 0.8847 0.0
H2259 H 0.10219 0.85949 0.94108 0.0
C2260 C 0.08921 0.85483 0.94197 0.0
C2261 C 0.06933 0.86565 0.90472 0.0
C2262 C 0.07241 0.87547 0.89262 0.0
C2263 C 0.08033 0.8676 0.91821 0.0
C2264 C 0.09419 0.87994 0.91963 0.0
C2265 C 0.0974 0.88959 0.90749 0.0
C2266 C 0.08652 0.88723 0.89405 0.0
N2267 N 0.07711 0.85711 0.93007 0.0
H2268 H 0.88999 0.97134 0.69059 0.0
H2269 H 0.88457 0.95825 0.64075 0.0
H2270 H 0.92245 0.94119 0.66848 0.0
H2271 H 0.87253 0.98091 0.6408 0.0
C2272 C 0.8652 0.98039 0.65089 0.0
C2273 C 0.89409 0.96539 0.6801 0.0
C2274 C 0.90738 0.95633 0.68118 0.0
C2275 C 0.88594 0.96659 0.6655 0.0
C2276 C 0.89109 0.95829 0.65202 0.0
C2277 C 0.90427 0.94919 0.65313 0.0
C2278 C 0.91246 0.94845 0.66764 0.0
N2279 N 0.87208 0.97533 0.66483 0.0
H2280 H 0.86202 0.16026 0.39238 0.0
H2281 H 0.89967 0.19199 0.37269 0.0
H2282 H 0.89206 0.14122 0.35771 0.0
H2283 H 0.89775 0.20902 0.39314 0.0
C2284 C 0.88604 0.20608 0.3983 0.0
C2285 C 0.87189 0.16214 0.38458 0.0
C2286 C 0.87609 0.1489 0.37514 0.0
C2287 C 0.8806 0.17774 0.38425 0.0
C2288 C 0.89321 0.18008 0.37379 0.0
C2289 C 0.89733 0.16689 0.36425 0.0
C2290 C 0.88886 0.15139 0.36509 0.0
N2291 N 0.8762 0.19066 0.39445 0.0
H2292 H 0.63226 0.06517 0.19642 0.0
H2293 H 0.65355 0.07394 0.15291 0.0
H2294 H 0.61264 0.09765 0.16715 0.0
H2295 H 0.65924 0.04745 0.15467 0.0
C2296 C 0.66471 0.04972 0.16659 0.0
C2297 C 0.63244 0.07101 0.1858 0.0
C2298 C 0.62096 0.08165 0.18293 0.0
C2299 C 0.64408 0.06783 0.17489 0.0
C2300 C 0.64434 0.07572 0.16122 0.0
C2301 C 0.63309 0.08654 0.15849 0.0
C2302 C 0.62137 0.0893 0.16928 0.0
N2303 N 0.65593 0.05741 0.17826 0.0
H2304 H 0.64538 0.8479 0.90538 0.0
H2305 H 0.60157 0.82452 0.87698 0.0
H2306 H 0.62243 0.87287 0.87081 0.0
H2307 H 0.59822 0.80872 0.89534 0.0
C2308 C 0.61013 0.80809 0.90137 0.0
C2309 C 0.63562 0.8481 0.89634 0.0
C2310 C 0.63543 0.8619 0.88837 0.0
C2311 C 0.62319 0.8346 0.89274 0.0
C2312 C 0.6109 0.83488 0.88056 0.0
C2313 C 0.61045 0.84876 0.87281 0.0
C2314 C 0.62269 0.86219 0.87685 0.0
N2315 N 0.62345 0.82109 0.90155 0.0
H2316 H 0.84466 0.06173 0.83241 0.0
H2317 H 0.87656 0.10083 0.86026 0.0
H2318 H 0.8306 0.08079 0.87704 0.0
H2319 H 0.88258 0.10804 0.83696 0.0
C2320 C 0.88341 0.09682 0.82986 0.0
C2321 C 0.84737 0.07006 0.84293 0.0
C2322 C 0.83607 0.06975 0.8547 0.0
C2323 C 0.86188 0.08158 0.84454 0.0
C2324 C 0.86524 0.09227 0.85838 0.0
C2325 C 0.85391 0.09207 0.86999 0.0
C2326 C 0.83942 0.08083 0.86809 0.0
N2327 N 0.87276 0.0824 0.83214 0.0
H2328 H 0.65125 0.17497 0.6054 0.0
H2329 H 0.63065 0.14768 0.64117 0.0
H2330 H 0.61069 0.19019 0.63019 0.0
H2331 H 0.65833 0.14352 0.64439 0.0
C2332 C 0.66057 0.14025 0.63229 0.0
C2333 C 0.64252 0.17329 0.6143 0.0
C2334 C 0.631 0.18422 0.61682 0.0
C2335 C 0.64288 0.16029 0.62336 0.0
C2336 C 0.63114 0.15801 0.63458 0.0
C2337 C 0.61953 0.16873 0.63706 0.0
C2338 C 0.61968 0.18191 0.62831 0.0
N2339 N 0.65453 0.14925 0.62058 0.0
H2340 H 0.63517 0.93094 0.33661 0.0
H2341 H 0.66196 0.90959 0.37178 0.0
H2342 H 0.61063 0.8914 0.35858 0.0
H2343 H 0.6759 0.93541 0.37609 0.0
C2344 C 0.67748 0.93869 0.36438 0.0
C2345 C 0.63548 0.92224 0.34503 0.0
C2346 C 0.62116 0.91123 0.34658 0.0
C2347 C 0.65021 0.92206 0.35433 0.0
C2348 C 0.65057 0.91042 0.36497 0.0
C2349 C 0.63631 0.89941 0.36657 0.0
C2350 C 0.62163 0.89996 0.35743 0.0
N2351 N 0.66458 0.93326 0.3524 0.0
H2352 H 0.8358 0.85702 0.12269 0.0
H2353 H 0.88378 0.84204 0.13199 0.0
H2354 H 0.87278 0.88656 0.15479 0.0
H2355 H 0.87184 0.81814 0.12197 0.0
C2356 C 0.86132 0.81929 0.11409 0.0
C2357 C 0.84806 0.85901 0.12876 0.0
C2358 C 0.85306 0.87319 0.13898 0.0
C2359 C 0.85885 0.84743 0.12626 0.0
C2360 C 0.8749 0.85034 0.13404 0.0
C2361 C 0.87985 0.86433 0.14446 0.0
C2362 C 0.8689 0.87567 0.14686 0.0
N2363 N 0.85335 0.83339 0.11553 0.0
H2364 H 0.15092 0.66351 0.10902 0.0
H2365 H 0.13468 0.6345 0.14524 0.0
H2366 H 0.11205 0.6764 0.13747 0.0
H2367 H 0.16272 0.63108 0.146 0.0
C2368 C 0.16374 0.62808 0.13361 0.0
C2369 C 0.14312 0.66126 0.11853 0.0
C2370 C 0.13135 0.67162 0.12236 0.0
C2371 C 0.14482 0.64802 0.12702 0.0
C2372 C 0.13422 0.64502 0.13905 0.0
C2373 C 0.12243 0.65521 0.14281 0.0
C2374 C 0.12125 0.66859 0.13461 0.0
N2375 N 0.15649 0.63737 0.12281 0.0
H2376 H 0.12476 0.42448 0.82441 0.0
H2377 H 0.15025 0.40453 0.8614 0.0
H2378 H 0.09894 0.3867 0.84783 0.0
H2379 H 0.16435 0.43145 0.86471 0.0
C2380 C 0.16705 0.4317 0.85256 0.0
C2381 C 0.12466 0.41628 0.83333 0.0
C2382 C 0.11002 0.4058 0.83518 0.0
C2383 C 0.13916 0.41626 0.843 0.0
C2384 C 0.13903 0.40524 0.85427 0.0
C2385 C 0.12459 0.39453 0.85596 0.0
C2386 C 0.11009 0.39501 0.84655 0.0
N2387 N 0.15394 0.42674 0.8407 0.0
H2388 H 0.32501 0.35876 0.61283 0.0
H2389 H 0.37376 0.34512 0.6207 0.0
H2390 H 0.36207 0.38925 0.64411 0.0
H2391 H 0.36734 0.33226 0.59579 0.0
C2392 C 0.35436 0.32724 0.59616 0.0
C2393 C 0.33746 0.36118 0.61852 0.0
C2394 C 0.34223 0.37535 0.62879 0.0
C2395 C 0.3488 0.35033 0.61521 0.0
C2396 C 0.36494 0.35351 0.62274 0.0
C2397 C 0.3697 0.36747 0.63327 0.0
C2398 C 0.35835 0.37837 0.63615 0.0
N2399 N 0.34349 0.33629 0.60449 0.0
H2400 H 0.11859 0.56519 0.70515 0.0
H2401 H 0.13429 0.57232 0.65915 0.0
H2402 H 0.09651 0.59787 0.67781 0.0
H2403 H 0.13941 0.54539 0.66046 0.0
C2404 C 0.14642 0.54791 0.67174 0.0
C2405 C 0.11751 0.57073 0.69442 0.0
C2406 C 0.10611 0.58174 0.69274 0.0
C2407 C 0.12751 0.5669 0.68221 0.0
C2408 C 0.12626 0.57453 0.66845 0.0
C2409 C 0.11517 0.58578 0.66693 0.0
C2410 C 0.10504 0.58914 0.679 0.0
N2411 N 0.13944 0.55622 0.68435 0.0
H2412 H 0.38626 0.45008 0.17826 0.0
H2413 H 0.37678 0.43393 0.12914 0.0
H2414 H 0.41472 0.4159 0.15599 0.0
H2415 H 0.37081 0.46091 0.12978 0.0
C2416 C 0.36213 0.4597 0.13883 0.0
C2417 C 0.38908 0.44292 0.16788 0.0
C2418 C 0.40166 0.43295 0.16881 0.0
C2419 C 0.38018 0.44364 0.15353 0.0
C2420 C 0.38384 0.43406 0.14018 0.0
C2421 C 0.3963 0.42413 0.14107 0.0
C2422 C 0.40518 0.4237 0.15533 0.0
N2423 N 0.36718 0.45344 0.1528 0.0
H2424 H 0.64149 0.35239 0.12962 0.0
H2425 H 0.59817 0.32664 0.14718 0.0
H2426 H 0.6133 0.37701 0.16247 0.0
H2427 H 0.61441 0.30561 0.14349 0.0
C2428 C 0.61857 0.3075 0.13202 0.0
C2429 C 0.63122 0.35215 0.13708 0.0
C2430 C 0.62874 0.36634 0.14615 0.0
C2431 C 0.62057 0.33762 0.13771 0.0
C2432 C 0.60698 0.33752 0.14711 0.0
C2433 C 0.60434 0.35173 0.15604 0.0
C2434 C 0.61538 0.36601 0.15566 0.0
N2435 N 0.62328 0.32351 0.12821 0.0
H2436 H 0.88922 0.68961 0.60912 0.0
H2437 H 0.93203 0.71094 0.63989 0.0
H2438 H 0.90365 0.66637 0.64884 0.0
H2439 H 0.92704 0.73384 0.63068 0.0
C2440 C 0.92199 0.73072 0.6187 0.0
C2441 C 0.89745 0.68945 0.6194 0.0
C2442 C 0.89492 0.67648 0.62852 0.0
C2443 C 0.91057 0.70224 0.62353 0.0
C2444 C 0.92142 0.70168 0.63677 0.0
C2445 C 0.91883 0.68881 0.64597 0.0
C2446 C 0.90556 0.67636 0.64181 0.0
N2447 N 0.91279 0.71512 0.61391 0.0
H2448 H 0.63549 0.46989 0.67218 0.0
H2449 H 0.65262 0.44166 0.63348 0.0
H2450 H 0.6098 0.42243 0.65588 0.0
H2451 H 0.67761 0.45581 0.64234 0.0
C2452 C 0.67471 0.4679 0.64544 0.0
C2453 C 0.63444 0.45884 0.66435 0.0
C2454 C 0.62126 0.4463 0.66533 0.0
C2455 C 0.6463 0.45709 0.65329 0.0
C2456 C 0.6443 0.44292 0.6427 0.0
C2457 C 0.63119 0.43038 0.64364 0.0
C2458 C 0.61997 0.43207 0.65516 0.0
N2459 N 0.65973 0.46988 0.65274 0.0
H2460 H 0.35797 0.64501 0.89101 0.0
H2461 H 0.39666 0.67815 0.8744 0.0
H2462 H 0.38645 0.62895 0.8537 0.0
H2463 H 0.38694 0.69703 0.88907 0.0
C2464 C 0.37882 0.69189 0.89734 0.0
C2465 C 0.36786 0.64748 0.88334 0.0
C2466 C 0.37128 0.63514 0.87235 0.0
C2467 C 0.37687 0.66309 0.88431 0.0
C2468 C 0.38954 0.66627 0.87408 0.0
C2469 C 0.393 0.65393 0.86306 0.0
C2470 C 0.38395 0.63841 0.86236 0.0
N2471 N 0.37251 0.6751 0.89556 0.0
H2472 H 0.14167 0.34725 0.38335 0.0
H2473 H 0.09682 0.31971 0.35993 0.0
H2474 H 0.11437 0.36678 0.34734 0.0
H2475 H 0.09359 0.3138 0.38522 0.0
C2476 C 0.10572 0.31031 0.38792 0.0
C2477 C 0.13132 0.34597 0.37462 0.0
C2478 C 0.12959 0.35855 0.36526 0.0
C2479 C 0.11921 0.3321 0.37322 0.0
C2480 C 0.10595 0.33051 0.36163 0.0
C2481 C 0.10408 0.34306 0.35242 0.0
C2482 C 0.11591 0.35699 0.35433 0.0
N2483 N 0.12018 0.32016 0.3838 0.0
H2484 H 0.33968 0.56904 0.31801 0.0
H2485 H 0.36411 0.60833 0.35115 0.0
H2486 H 0.31742 0.58218 0.36047 0.0
H2487 H 0.38656 0.60483 0.33918 0.0
C2488 C 0.38317 0.59936 0.32733 0.0
C2489 C 0.34006 0.57663 0.32896 0.0
C2490 C 0.32697 0.57412 0.3388 0.0
C2491 C 0.35382 0.58869 0.33335 0.0
C2492 C 0.35404 0.59863 0.34759 0.0
C2493 C 0.34089 0.59628 0.35732 0.0
C2494 C 0.32751 0.58403 0.35287 0.0
N2495 N 0.36696 0.59061 0.32312 0.0
C2496 C 0.15215 0.40849 0.11238 0.0
C2497 C 0.15247 0.42228 0.10409 0.0
C2498 C 0.12405 0.41239 0.0928 0.0
C2499 C 0.12445 0.39787 0.09982 0.0
N2500 N 0.13965 0.38097 0.11448 0.0
N2501 N 0.13972 0.43657 0.0849 0.0
C2502 C 0.13871 0.39562 0.10915 0.0
C2503 C 0.13865 0.42406 0.09392 0.0
N2504 N 0.16447 0.40791 0.12367 0.0
N2505 N 0.10959 0.41514 0.08535 0.0
H2506 H 0.15017 0.44538 0.08545 0.0
H2507 H 0.13084 0.43756 0.07601 0.0
H2508 H 0.09873 0.40679 0.08419 0.0
H2509 H 0.10793 0.42617 0.08143 0.0
H2510 H 0.16404 0.39902 0.13126 0.0
H2511 H 0.1745 0.41713 0.12642 0.0
H2512 H 0.15046 0.37795 0.11977 0.0
H2513 H 0.13 0.37129 0.11253 0.0
C2514 C 0.88811 0.9305 0.36741 0.0
C2515 C 0.88765 0.94563 0.37616 0.0
C2516 C 0.916 0.9454 0.3875 0.0
C2517 C 0.91578 0.92959 0.37989 0.0
N2518 N 0.90043 0.90581 0.365 0.0
N2519 N 0.89996 0.96636 0.39644 0.0
C2520 C 0.90148 0.92177 0.37052 0.0
C2521 C 0.90128 0.95279 0.38675 0.0
N2522 N 0.87607 0.92472 0.35574 0.0
N2523 N 0.93043 0.95356 0.39498 0.0
H2524 H 0.88938 0.97211 0.39624 0.0
H2525 H 0.90874 0.97114 0.40555 0.0
H2526 H 0.94145 0.94856 0.39577 0.0
H2527 H 0.93186 0.96574 0.39927 0.0
H2528 H 0.87673 0.91465 0.34787 0.0
H2529 H 0.86616 0.93084 0.35297 0.0
H2530 H 0.88961 0.89901 0.35951 0.0
H2531 H 0.90986 0.8989 0.36719 0.0
C2532 C 0.36856 0.571 0.64266 0.0
C2533 C 0.35173 0.57047 0.64631 0.0
C2534 C 0.35421 0.59967 0.6444 0.0
C2535 C 0.36941 0.59909 0.63725 0.0
N2536 N 0.3907 0.58354 0.62866 0.0
N2537 N 0.33661 0.58731 0.66264 0.0
C2538 C 0.37647 0.58454 0.6361 0.0
C2539 C 0.34639 0.58564 0.65048 0.0
N2540 N 0.3778 0.55996 0.64784 0.0
N2541 N 0.34737 0.61365 0.64573 0.0
H2542 H 0.33423 0.57817 0.66989 0.0
H2543 H 0.33341 0.59836 0.66712 0.0
H2544 H 0.35303 0.62436 0.64202 0.0
H2545 H 0.33548 0.61417 0.64948 0.0
H2546 H 0.39057 0.5607 0.6468 0.0
H2547 H 0.37303 0.55152 0.65511 0.0
H2548 H 0.39547 0.5727 0.62648 0.0
H2549 H 0.39679 0.59314 0.62344 0.0
C2550 C 0.62581 0.06155 0.91293 0.0
C2551 C 0.63056 0.05611 0.89801 0.0
C2552 C 0.60946 0.07017 0.88607 0.0
C2553 C 0.60775 0.07868 0.9008 0.0
N2554 N 0.60386 0.07167 0.92681 0.0
N2555 N 0.62684 0.05537 0.87002 0.0
C2556 C 0.61298 0.07141 0.91405 0.0
C2557 C 0.62242 0.06053 0.88446 0.0
N2558 N 0.6336 0.05745 0.92606 0.0
N2559 N 0.59683 0.0684 0.87468 0.0
H2560 H 0.63605 0.04801 0.86832 0.0
H2561 H 0.62219 0.05953 0.85991 0.0
H2562 H 0.5853 0.07188 0.87696 0.0
H2563 H 0.59679 0.06117 0.86415 0.0
H2564 H 0.63167 0.06246 0.93722 0.0
H2565 H 0.64295 0.05011 0.92572 0.0
H2566 H 0.60611 0.06529 0.93626 0.0
H2567 H 0.59265 0.0764 0.92683 0.0
C2568 C 0.1231 0.56221 0.38505 0.0
C2569 C 0.13656 0.56696 0.37599 0.0
C2570 C 0.12762 0.59359 0.37514 0.0
C2571 C 0.11326 0.5883 0.38285 0.0
N2572 N 0.09583 0.56672 0.39295 0.0
N2573 N 0.14982 0.58595 0.3598 0.0
C2574 C 0.11058 0.57236 0.38723 0.0
C2575 C 0.1383 0.58232 0.37028 0.0
N2576 N 0.12254 0.54823 0.39197 0.0
N2577 N 0.13138 0.60952 0.37291 0.0
H2578 H 0.15778 0.57796 0.3558 0.0
H2579 H 0.15043 0.59624 0.35394 0.0
H2580 H 0.12404 0.61824 0.37655 0.0
H2581 H 0.14257 0.61438 0.36883 0.0
H2582 H 0.11406 0.545 0.40008 0.0
H2583 H 0.13144 0.54048 0.39058 0.0
H2584 H 0.09242 0.55468 0.39477 0.0
H2585 H 0.08636 0.57376 0.39466 0.0
C2586 C 0.66293 0.91659 0.6119 0.0
C2587 C 0.6592 0.93263 0.61424 0.0
C2588 C 0.62933 0.92223 0.61097 0.0
C2589 C 0.63312 0.90619 0.61043 0.0
N2590 N 0.65355 0.88819 0.61325 0.0
N2591 N 0.63893 0.95077 0.61825 0.0
C2592 C 0.64994 0.90339 0.61167 0.0
C2593 C 0.6424 0.93548 0.61437 0.0
N2594 N 0.67883 0.91397 0.60946 0.0
N2595 N 0.61332 0.92481 0.60775 0.0
H2596 H 0.64815 0.96077 0.62075 0.0
H2597 H 0.62702 0.95335 0.62024 0.0
H2598 H 0.60345 0.91542 0.6051 0.0
H2599 H 0.61004 0.93615 0.60634 0.0
H2600 H 0.68197 0.9026 0.60603 0.0
H2601 H 0.68867 0.92333 0.60939 0.0
H2602 H 0.66555 0.88573 0.61583 0.0
H2603 H 0.64442 0.87823 0.61349 0.0
C2604 C 0.40103 0.44593 0.87689 0.0
C2605 C 0.38715 0.44177 0.8658 0.0
C2606 C 0.39586 0.41532 0.85892 0.0
C2607 C 0.41081 0.42033 0.86849 0.0
N2608 N 0.42876 0.4412 0.88512 0.0
N2609 N 0.37224 0.42335 0.84484 0.0
C2610 C 0.41368 0.43583 0.87717 0.0
C2611 C 0.38473 0.42664 0.85647 0.0
N2612 N 0.40192 0.45936 0.8874 0.0
N2613 N 0.39214 0.39962 0.85242 0.0
H2614 H 0.36381 0.4313 0.8427 0.0
H2615 H 0.37101 0.41332 0.83652 0.0
H2616 H 0.39997 0.39099 0.85405 0.0
H2617 H 0.38069 0.3948 0.84664 0.0
H2618 H 0.41082 0.46211 0.89679 0.0
H2619 H 0.39284 0.467 0.88759 0.0
H2620 H 0.43226 0.45305 0.89016 0.0
H2621 H 0.43837 0.43419 0.88563 0.0
C2622 C 0.86641 0.08721 0.15653 0.0
C2623 C 0.86536 0.0734 0.14544 0.0
C2624 C 0.88386 0.0888 0.12909 0.0
C2625 C 0.88407 0.10287 0.13969 0.0
N2626 N 0.87286 0.11637 0.16175 0.0
N2627 N 0.86994 0.06194 0.11961 0.0
C2628 C 0.87448 0.10234 0.15288 0.0
C2629 C 0.87313 0.07448 0.13123 0.0
N2630 N 0.86033 0.08573 0.17081 0.0
N2631 N 0.89449 0.08885 0.11741 0.0
H2632 H 0.86206 0.05128 0.12071 0.0
H2633 H 0.87385 0.06268 0.10841 0.0
H2634 H 0.90263 0.09904 0.11545 0.0
H2635 H 0.89625 0.07845 0.11047 0.0
H2636 H 0.86237 0.09495 0.17999 0.0
H2637 H 0.85439 0.07485 0.17395 0.0
H2638 H 0.86473 0.11698 0.17059 0.0
H2639 H 0.8785 0.12767 0.15931 0.0
C2640 C 0.11663 0.10616 0.39052 0.0
C2641 C 0.12031 0.12268 0.38809 0.0
C2642 C 0.12927 0.11494 0.36219 0.0
C2643 C 0.12352 0.09853 0.36379 0.0
N2644 N 0.1104 0.07833 0.3788 0.0
N2645 N 0.12787 0.14295 0.37083 0.0
C2646 C 0.11695 0.09404 0.37783 0.0
C2647 C 0.12613 0.12713 0.37374 0.0
N2648 N 0.11309 0.1021 0.405 0.0
N2649 N 0.13794 0.11883 0.34968 0.0
H2650 H 0.12562 0.15233 0.37892 0.0
H2651 H 0.13016 0.14666 0.35992 0.0
H2652 H 0.14054 0.11016 0.34101 0.0
H2653 H 0.1439 0.13041 0.34866 0.0
H2654 H 0.11193 0.0903 0.40794 0.0
H2655 H 0.11265 0.11071 0.41447 0.0
H2656 H 0.10373 0.07459 0.38803 0.0
H2657 H 0.11067 0.06911 0.36983 0.0
C2658 C 0.062 0.87419 0.6854 0.0
C2659 C 0.06252 0.86805 0.70012 0.0
C2660 C 0.08709 0.85545 0.69351 0.0
C2661 C 0.08596 0.86086 0.6785 0.0
N2662 N 0.07036 0.87227 0.65891 0.0
N2663 N 0.07358 0.85062 0.71729 0.0
C2664 C 0.07277 0.86927 0.67407 0.0
C2665 C 0.07449 0.85799 0.70391 0.0
N2666 N 0.05172 0.88529 0.68248 0.0
N2667 N 0.10053 0.84844 0.69804 0.0
H2668 H 0.06459 0.85235 0.72517 0.0
H2669 H 0.08082 0.84184 0.71997 0.0
H2670 H 0.10983 0.84616 0.69065 0.0
H2671 H 0.10307 0.84587 0.70939 0.0
H2672 H 0.05219 0.89158 0.6727 0.0
H2673 H 0.04364 0.8893 0.69045 0.0
H2674 H 0.05994 0.87681 0.65458 0.0
H2675 H 0.07798 0.86881 0.65026 0.0
C2676 C 0.35908 0.89049 0.90587 0.0
C2677 C 0.35815 0.87383 0.90059 0.0
C2678 C 0.35499 0.8799 0.87351 0.0
C2679 C 0.35781 0.89667 0.87871 0.0
N2680 N 0.36533 0.91808 0.89972 0.0
N2681 N 0.35842 0.85293 0.87934 0.0
C2682 C 0.36061 0.90203 0.89488 0.0
C2683 C 0.35699 0.86859 0.88439 0.0
N2684 N 0.358 0.89525 0.92132 0.0
N2685 N 0.34981 0.87472 0.85829 0.0
H2686 H 0.36014 0.84428 0.8869 0.0
H2687 H 0.35948 0.8489 0.8677 0.0
H2688 H 0.34789 0.8826 0.85 0.0
H2689 H 0.34588 0.86263 0.85423 0.0
H2690 H 0.35683 0.90704 0.92561 0.0
H2691 H 0.35677 0.88713 0.92968 0.0
H2692 H 0.36921 0.9225 0.91122 0.0
H2693 H 0.36682 0.92689 0.89202 0.0
C2694 C 0.44989 0.1519 0.1556 0.0
C2695 C 0.44913 0.16284 0.16907 0.0
C2696 C 0.42939 0.17664 0.15475 0.0
C2697 C 0.43053 0.166 0.14116 0.0
N2698 N 0.44486 0.14626 0.12752 0.0
N2699 N 0.44158 0.18794 0.18045 0.0
C2700 C 0.4418 0.15453 0.14124 0.0
C2701 C 0.43997 0.17598 0.16829 0.0
N2702 N 0.45758 0.13854 0.15667 0.0
N2703 N 0.41762 0.18679 0.15501 0.0
H2704 H 0.44931 0.18785 0.1905 0.0
H2705 H 0.43653 0.19863 0.17998 0.0
H2706 H 0.40963 0.18769 0.14536 0.0
H2707 H 0.41489 0.19344 0.16512 0.0
H2708 H 0.45687 0.12919 0.1477 0.0
H2709 H 0.46364 0.13613 0.16696 0.0
H2710 H 0.45413 0.13889 0.12658 0.0
H2711 H 0.43921 0.14801 0.11679 0.0
C2712 C 0.13111 0.8726 0.13682 0.0
C2713 C 0.12874 0.87473 0.12081 0.0
C2714 C 0.13415 0.90411 0.12717 0.0
C2715 C 0.13764 0.90202 0.14307 0.0
N2716 N 0.14278 0.88434 0.16257 0.0
N2717 N 0.13216 0.89219 0.10036 0.0
C2718 C 0.13716 0.88625 0.14775 0.0
C2719 C 0.1316 0.8904 0.11587 0.0
N2720 N 0.12695 0.85767 0.14165 0.0
N2721 N 0.1323 0.91904 0.12292 0.0
H2722 H 0.13051 0.8824 0.09171 0.0
H2723 H 0.13589 0.90323 0.09621 0.0
H2724 H 0.13353 0.92941 0.13083 0.0
H2725 H 0.12795 0.92088 0.11177 0.0
H2726 H 0.12663 0.8557 0.15334 0.0
H2727 H 0.12254 0.8474 0.13396 0.0
H2728 H 0.14422 0.87316 0.16625 0.0
H2729 H 0.14747 0.8941 0.17079 0.0
C2730 C 0.39908 0.85471 0.34794 0.0
C2731 C 0.4123 0.86746 0.35266 0.0
C2732 C 0.39822 0.87505 0.37606 0.0
C2733 C 0.38425 0.86343 0.37051 0.0
N2734 N 0.37029 0.84357 0.35023 0.0
N2735 N 0.42338 0.89141 0.36987 0.0
C2736 C 0.38439 0.85358 0.35619 0.0
C2737 C 0.41159 0.87807 0.36638 0.0
N2738 N 0.40077 0.84344 0.33582 0.0
N2739 N 0.39888 0.88291 0.39076 0.0
H2740 H 0.43334 0.89412 0.36306 0.0
H2741 H 0.42251 0.90054 0.37873 0.0
H2742 H 0.38933 0.88101 0.39821 0.0
H2743 H 0.40947 0.89021 0.39611 0.0
H2744 H 0.39237 0.83291 0.33286 0.0
H2745 H 0.41132 0.84392 0.32949 0.0
H2746 H 0.36899 0.83744 0.33905 0.0
H2747 H 0.35936 0.84231 0.356 0.0
C2748 C 0.34025 0.11938 0.58977 0.0
C2749 C 0.34094 0.13618 0.59429 0.0
C2750 C 0.33998 0.13104 0.62168 0.0
C2751 C 0.34117 0.11452 0.61735 0.0
N2752 N 0.34496 0.09331 0.59749 0.0
N2753 N 0.34472 0.1584 0.61475 0.0
C2754 C 0.34196 0.10875 0.60143 0.0
C2755 C 0.34171 0.14213 0.61031 0.0
N2756 N 0.3375 0.11353 0.57437 0.0
N2757 N 0.3366 0.13607 0.63653 0.0
H2758 H 0.34629 0.16697 0.60684 0.0
H2759 H 0.34723 0.16334 0.62633 0.0
H2760 H 0.3349 0.12828 0.64516 0.0
H2761 H 0.33385 0.1476 0.6399 0.0
H2762 H 0.33509 0.10125 0.57047 0.0
H2763 H 0.33621 0.12096 0.56555 0.0
H2764 H 0.34738 0.08893 0.58629 0.0
H2765 H 0.34645 0.08524 0.60571 0.0
C2766 C 0.09514 0.14666 0.82805 0.0
C2767 C 0.08235 0.13363 0.8292 0.0
C2768 C 0.09654 0.12745 0.85322 0.0
C2769 C 0.10975 0.13998 0.85169 0.0
N2770 N 0.12335 0.15943 0.83619 0.0
N2771 N 0.07266 0.10938 0.84066 0.0
C2772 C 0.10957 0.14896 0.83863 0.0
C2773 C 0.08363 0.12331 0.84111 0.0
N2774 N 0.0932 0.15721 0.81726 0.0
N2775 N 0.09589 0.12001 0.86658 0.0
H2776 H 0.06306 0.10593 0.83193 0.0
H2777 H 0.074 0.10052 0.84806 0.0
H2778 H 0.10502 0.12272 0.8758 0.0
H2779 H 0.08561 0.11212 0.8691 0.0
H2780 H 0.10116 0.16798 0.81698 0.0
H2781 H 0.08292 0.15578 0.80919 0.0
H2782 H 0.12467 0.16512 0.82609 0.0
H2783 H 0.13411 0.16137 0.84371 0.0
C2784 C 0.90549 0.37303 0.85721 0.0
C2785 C 0.90475 0.36295 0.84291 0.0
C2786 C 0.87748 0.349 0.8484 0.0
C2787 C 0.87885 0.35831 0.86317 0.0
N2788 N 0.89537 0.37703 0.88292 0.0
N2789 N 0.8914 0.33986 0.82575 0.0
C2790 C 0.89324 0.36968 0.86795 0.0
C2791 C 0.89111 0.3505 0.83873 0.0
N2792 N 0.91756 0.38619 0.86026 0.0
N2793 N 0.86298 0.33909 0.84345 0.0
H2794 H 0.90108 0.34073 0.81834 0.0
H2795 H 0.88273 0.32951 0.82292 0.0
H2796 H 0.85293 0.33744 0.85038 0.0
H2797 H 0.86045 0.33335 0.83216 0.0
H2798 H 0.91764 0.39501 0.86963 0.0
H2799 H 0.92675 0.38912 0.85268 0.0
H2800 H 0.90639 0.38409 0.88762 0.0
H2801 H 0.88666 0.37492 0.89113 0.0
C2802 C 0.8461 0.63954 0.12335 0.0
C2803 C 0.84292 0.63316 0.10746 0.0
C2804 C 0.84281 0.60571 0.11485 0.0
C2805 C 0.84424 0.61202 0.13081 0.0
N2806 N 0.84417 0.63463 0.15034 0.0
N2807 N 0.83592 0.61014 0.08808 0.0
C2808 C 0.84505 0.62886 0.13509 0.0
C2809 C 0.84065 0.61621 0.10318 0.0
N2810 N 0.85065 0.65579 0.12721 0.0
N2811 N 0.84398 0.58977 0.11085 0.0
H2812 H 0.83428 0.61749 0.07923 0.0
H2813 H 0.83231 0.59789 0.08454 0.0
H2814 H 0.84559 0.58174 0.11908 0.0
H2815 H 0.84477 0.58481 0.09944 0.0
H2816 H 0.85487 0.66093 0.13845 0.0
H2817 H 0.85171 0.66405 0.11896 0.0
H2818 H 0.84282 0.64656 0.15391 0.0
H2819 H 0.84324 0.62721 0.15932 0.0
C2820 C 0.59773 0.64728 0.33088 0.0
C2821 C 0.58121 0.6456 0.33559 0.0
C2822 C 0.5919 0.64797 0.36296 0.0
C2823 C 0.6084 0.65111 0.35837 0.0
N2824 N 0.62698 0.65656 0.33819 0.0
N2825 N 0.56259 0.64786 0.35617 0.0
C2826 C 0.61132 0.65156 0.34237 0.0
C2827 C 0.57831 0.647 0.35166 0.0
N2828 N 0.60045 0.64426 0.31548 0.0
N2829 N 0.58917 0.64524 0.37798 0.0
H2830 H 0.55231 0.64738 0.34825 0.0
H2831 H 0.56002 0.65063 0.36771 0.0
H2832 H 0.59878 0.6454 0.38655 0.0
H2833 H 0.57747 0.64123 0.38158 0.0
H2834 H 0.61219 0.64353 0.3115 0.0
H2835 H 0.59082 0.64117 0.30674 0.0
H2836 H 0.62959 0.65875 0.32688 0.0
H2837 H 0.6372 0.65991 0.34628 0.0
C2838 C 0.83954 0.38259 0.38329 0.0
C2839 C 0.85401 0.38322 0.39344 0.0
C2840 C 0.86734 0.40652 0.38156 0.0
C2841 C 0.85374 0.40451 0.37013 0.0
N2842 N 0.82802 0.38892 0.35857 0.0
N2843 N 0.88268 0.39426 0.40089 0.0
C2844 C 0.84009 0.39211 0.3706 0.0
C2845 C 0.86818 0.39482 0.39226 0.0
N2846 N 0.82516 0.37313 0.38598 0.0
N2847 N 0.8792 0.41985 0.38246 0.0
H2848 H 0.88384 0.3859 0.40888 0.0
H2849 H 0.89392 0.40121 0.39921 0.0
H2850 H 0.87891 0.42877 0.37492 0.0
H2851 H 0.88845 0.42282 0.39154 0.0
H2852 H 0.81377 0.37344 0.37996 0.0
H2853 H 0.82429 0.36609 0.39527 0.0
H2854 H 0.81874 0.37894 0.35751 0.0
H2855 H 0.82813 0.39536 0.34887 0.0
C2856 C 0.59625 0.60058 0.8846 0.0
C2857 C 0.60973 0.61328 0.88823 0.0
C2858 C 0.62524 0.60136 0.86768 0.0
C2859 C 0.61181 0.58857 0.86411 0.0
N2860 N 0.58659 0.5737 0.87156 0.0
N2861 N 0.63859 0.62352 0.88631 0.0
C2862 C 0.59798 0.58743 0.87341 0.0
C2863 C 0.62476 0.61289 0.88078 0.0
N2864 N 0.58152 0.60147 0.89125 0.0
N2865 N 0.63797 0.60307 0.85806 0.0
H2866 H 0.6386 0.6321 0.89591 0.0
H2867 H 0.65035 0.62283 0.88237 0.0
H2868 H 0.63883 0.59495 0.84831 0.0
H2869 H 0.64706 0.61321 0.85904 0.0
H2870 H 0.57064 0.59359 0.88771 0.0
H2871 H 0.57985 0.61079 0.89966 0.0
H2872 H 0.57705 0.57147 0.87892 0.0
H2873 H 0.58763 0.56383 0.86351 0.0
C2874 C 0.83876 0.58066 0.86664 0.0
C2875 C 0.83637 0.56826 0.87661 0.0
C2876 C 0.86051 0.58164 0.89364 0.0
C2877 C 0.86132 0.59514 0.88493 0.0
N2878 N 0.84995 0.60844 0.86414 0.0
N2879 N 0.84377 0.55762 0.90057 0.0
C2880 C 0.85018 0.59487 0.87161 0.0
C2881 C 0.847 0.56885 0.89034 0.0
N2882 N 0.83029 0.57872 0.85229 0.0
N2883 N 0.87286 0.58091 0.90487 0.0
H2884 H 0.83406 0.54801 0.89855 0.0
H2885 H 0.8499 0.55851 0.9116 0.0
H2886 H 0.88301 0.59001 0.9075 0.0
H2887 H 0.87386 0.57068 0.91052 0.0
H2888 H 0.83273 0.58657 0.84386 0.0
H2889 H 0.82189 0.5684 0.84826 0.0
H2890 H 0.84088 0.60953 0.85545 0.0
H2891 H 0.85801 0.61915 0.86747 0.0
C2892 C 0.1046 0.06121 0.6148 0.0
C2893 C 0.11746 0.06441 0.627 0.0
C2894 C 0.11107 0.09203 0.63238 0.0
C2895 C 0.09692 0.08813 0.62159 0.0
N2896 N 0.07889 0.06841 0.60381 0.0
N2897 N 0.13176 0.08213 0.64876 0.0
C2898 C 0.09336 0.07258 0.61306 0.0
C2899 C 0.12046 0.07967 0.63612 0.0
N2900 N 0.10339 0.04747 0.60465 0.0
N2901 N 0.11571 0.10765 0.63883 0.0
H2902 H 0.13889 0.07339 0.6519 0.0
H2903 H 0.13314 0.09233 0.65688 0.0
H2904 H 0.10914 0.11701 0.63631 0.0
H2905 H 0.12684 0.1116 0.64553 0.0
H2906 H 0.0954 0.04526 0.59458 0.0
H2907 H 0.11145 0.03891 0.60553 0.0
H2908 H 0.07468 0.05669 0.59874 0.0
H2909 H 0.07038 0.07641 0.60215 0.0
C2910 C 0.63979 0.41122 0.39134 0.0
C2911 C 0.6361 0.42703 0.38978 0.0
C2912 C 0.60661 0.41778 0.39263 0.0
C2913 C 0.60998 0.40163 0.39226 0.0
N2914 N 0.62947 0.38255 0.38908 0.0
N2915 N 0.61559 0.44481 0.38616 0.0
C2916 C 0.62651 0.39822 0.39109 0.0
C2917 C 0.61938 0.43018 0.38969 0.0
N2918 N 0.65598 0.40871 0.39341 0.0
N2919 N 0.59127 0.42135 0.39618 0.0
H2920 H 0.62453 0.45418 0.38372 0.0
H2921 H 0.60344 0.44715 0.38421 0.0
H2922 H 0.58167 0.41263 0.39869 0.0
H2923 H 0.5886 0.43312 0.39817 0.0
H2924 H 0.65944 0.39782 0.39626 0.0
H2925 H 0.66599 0.41795 0.39361 0.0
H2926 H 0.64096 0.37928 0.38646 0.0
H2927 H 0.62009 0.3727 0.38877 0.0
C2928 C 0.38196 0.94811 0.12075 0.0
C2929 C 0.36439 0.94395 0.11946 0.0
C2930 C 0.36724 0.91522 0.11826 0.0
C2931 C 0.38475 0.91927 0.11822 0.0
N2932 N 0.40876 0.93927 0.11697 0.0
N2933 N 0.34021 0.92363 0.11389 0.0
C2934 C 0.39213 0.93565 0.11879 0.0
C2935 C 0.357 0.92751 0.11731 0.0
N2936 N 0.38891 0.9639 0.12431 0.0
N2937 N 0.36041 0.8997 0.11977 0.0
H2938 H 0.33227 0.93229 0.113 0.0
H2939 H 0.33437 0.91187 0.11052 0.0
H2940 H 0.36749 0.89033 0.12067 0.0
H2941 H 0.34792 0.89638 0.12157 0.0
H2942 H 0.40158 0.96755 0.12709 0.0
H2943 H 0.38184 0.97334 0.12565 0.0
H2944 H 0.41456 0.95083 0.11561 0.0
H2945 H 0.41659 0.93046 0.11558 0.0
C2946 C 0.85285 0.45567 0.62455 0.0
C2947 C 0.85724 0.46908 0.61613 0.0
C2948 C 0.88179 0.45756 0.60764 0.0
C2949 C 0.87621 0.44329 0.61447 0.0
N2950 N 0.85527 0.42776 0.62767 0.0
N2951 N 0.87497 0.48246 0.59856 0.0
C2952 C 0.86147 0.4421 0.62253 0.0
C2953 C 0.87154 0.47 0.60743 0.0
N2954 N 0.84064 0.45605 0.63474 0.0
N2955 N 0.89703 0.4593 0.60163 0.0
H2956 H 0.8679 0.4919 0.59836 0.0
H2957 H 0.88411 0.48291 0.5906 0.0
H2958 H 0.90478 0.45038 0.60155 0.0
H2959 H 0.90259 0.47002 0.5979 0.0
H2960 H 0.83809 0.44743 0.64246 0.0
H2961 H 0.83403 0.46579 0.63654 0.0
H2962 H 0.84358 0.42559 0.63198 0.0
H2963 H 0.86119 0.4175 0.62647 0.0
C2964 C 0.36318 0.07754 0.38694 0.0
C2965 C 0.35177 0.07591 0.37364 0.0
C2966 C 0.36499 0.10171 0.36611 0.0
C2967 C 0.37677 0.1031 0.37913 0.0
N2968 N 0.38965 0.0906 0.39966 0.0
N2969 N 0.3444 0.0841 0.34853 0.0
C2970 C 0.37668 0.09043 0.38883 0.0
C2971 C 0.35355 0.08726 0.36255 0.0
N2972 N 0.3607 0.06724 0.39813 0.0
N2973 N 0.36407 0.11451 0.35765 0.0
H2974 H 0.33596 0.07356 0.34554 0.0
H2975 H 0.34635 0.09111 0.33935 0.0
H2976 H 0.37202 0.12543 0.35997 0.0
H2977 H 0.35453 0.1148 0.34916 0.0
H2978 H 0.36746 0.06898 0.40892 0.0
H2979 H 0.35106 0.05756 0.39712 0.0
H2980 H 0.39111 0.08095 0.40604 0.0
H2981 H 0.39983 0.09977 0.4012 0.0
C2982 C 0.62484 0.57782 0.12744 0.0
C2983 C 0.61753 0.56272 0.13176 0.0
C2984 C 0.58995 0.57128 0.12931 0.0
C2985 C 0.59744 0.58698 0.12674 0.0
N2986 N 0.62239 0.60606 0.12613 0.0
N2987 N 0.59353 0.54622 0.13977 0.0
C2988 C 0.61501 0.5905 0.12654 0.0
C2989 C 0.60018 0.55976 0.13353 0.0
N2990 N 0.64104 0.57989 0.12373 0.0
N2991 N 0.57305 0.56717 0.1272 0.0
H2992 H 0.60063 0.53759 0.14325 0.0
H2993 H 0.58129 0.5443 0.14289 0.0
H2994 H 0.56514 0.57513 0.12372 0.0
H2995 H 0.56704 0.55542 0.12738 0.0
H2996 H 0.64651 0.59001 0.1189 0.0
H2997 H 0.64861 0.57086 0.12415 0.0
H2998 H 0.63521 0.6096 0.12763 0.0
H2999 H 0.61567 0.61574 0.12571 0.0
C3000 C 0.12248 0.93101 0.90669 0.0
C3001 C 0.13893 0.92717 0.90629 0.0
C3002 C 0.12835 0.89855 0.90746 0.0
C3003 C 0.11203 0.90255 0.90867 0.0
N3004 N 0.0942 0.92292 0.91324 0.0
N3005 N 0.15803 0.90807 0.90969 0.0
C3006 C 0.10932 0.91892 0.90951 0.0
C3007 C 0.14202 0.91116 0.90775 0.0
N3008 N 0.11926 0.94597 0.90362 0.0
N3009 N 0.13071 0.88272 0.90527 0.0
H3010 H 0.1683 0.91704 0.90997 0.0
H3011 H 0.16108 0.897 0.91242 0.0
H3012 H 0.12106 0.87312 0.90497 0.0
H3013 H 0.14202 0.87907 0.90254 0.0
H3014 H 0.10727 0.94884 0.90201 0.0
H3015 H 0.12847 0.95516 0.90132 0.0
H3016 H 0.09196 0.9348 0.91555 0.0
H3017 H 0.08433 0.91437 0.91553 0.0
C3018 C 0.93017 0.93282 0.62172 0.0
C3019 C 0.92069 0.91744 0.6171 0.0
C3020 C 0.89942 0.92366 0.63479 0.0
C3021 C 0.90881 0.9391 0.63937 0.0
N3022 N 0.93116 0.95979 0.63522 0.0
N3023 N 0.89473 0.89958 0.61626 0.0
C3024 C 0.92357 0.94414 0.63214 0.0
C3025 C 0.90477 0.91334 0.62266 0.0
N3026 N 0.9457 0.93633 0.6166 0.0
N3027 N 0.88589 0.9185 0.64262 0.0
H3028 H 0.89833 0.89162 0.60748 0.0
H3029 H 0.88234 0.89676 0.61863 0.0
H3030 H 0.88136 0.92576 0.6514 0.0
H3031 H 0.87982 0.90666 0.64119 0.0
H3032 H 0.95405 0.94655 0.62086 0.0
H3033 H 0.95063 0.92848 0.6086 0.0
H3034 H 0.9411 0.96472 0.62934 0.0
H3035 H 0.92659 0.96828 0.64285 0.0
C3036 C 0.9161 0.1653 0.32521 0.0
C3037 C 0.93336 0.16709 0.32983 0.0
C3038 C 0.92722 0.17039 0.35734 0.0
C3039 C 0.91003 0.16906 0.35265 0.0
N3040 N 0.88844 0.16918 0.3324 0.0
N3041 N 0.95569 0.17462 0.34987 0.0
C3042 C 0.9046 0.16782 0.33664 0.0
C3043 C 0.93903 0.17069 0.3458 0.0
N3044 N 0.91058 0.16036 0.31001 0.0
N3045 N 0.93218 0.17067 0.37275 0.0
H3046 H 0.96462 0.1749 0.34167 0.0
H3047 H 0.96057 0.17892 0.36115 0.0
H3048 H 0.92392 0.17082 0.38154 0.0
H3049 H 0.94428 0.16972 0.37678 0.0
H3050 H 0.89806 0.15703 0.30629 0.0
H3051 H 0.91852 0.15826 0.30123 0.0
H3052 H 0.8841 0.17004 0.32099 0.0
H3053 H 0.8797 0.17102 0.34052 0.0
C3054 C 0.64476 0.11919 0.13191 0.0
C3055 C 0.63028 0.11666 0.12151 0.0
C3056 C 0.62067 0.09154 0.13253 0.0
C3057 C 0.63361 0.0956 0.14457 0.0
N3058 N 0.65767 0.11369 0.1564 0.0
N3059 N 0.60409 0.10076 0.11188 0.0
C3060 C 0.64576 0.1094 0.14432 0.0
C3061 C 0.61823 0.10278 0.12164 0.0
N3062 N 0.65755 0.13097 0.12984 0.0
N3063 N 0.61079 0.07689 0.13154 0.0
H3064 H 0.60209 0.10853 0.1035 0.0
H3065 H 0.59392 0.09197 0.11266 0.0
H3066 H 0.61235 0.06844 0.13937 0.0
H3067 H 0.60209 0.07251 0.12225 0.0
H3068 H 0.6691 0.13243 0.13605 0.0
H3069 H 0.65712 0.13834 0.12085 0.0
H3070 H 0.66559 0.12464 0.15785 0.0
H3071 H 0.65896 0.10676 0.16564 0.0
C3072 C 0.56805 0.85073 0.85212 0.0
C3073 C 0.57297 0.85536 0.83756 0.0
C3074 C 0.60161 0.85152 0.84495 0.0
C3075 C 0.59718 0.84951 0.86036 0.0
N3076 N 0.57639 0.84936 0.87922 0.0
N3077 N 0.59484 0.86192 0.82058 0.0
C3078 C 0.58041 0.84953 0.8641 0.0
C3079 C 0.58986 0.85612 0.83402 0.0
N3080 N 0.55152 0.84726 0.85444 0.0
N3081 N 0.61698 0.84877 0.8407 0.0
H3082 H 0.58663 0.8654 0.81227 0.0
H3083 H 0.60729 0.8645 0.81824 0.0
H3084 H 0.62578 0.8451 0.84833 0.0
H3085 H 0.62039 0.84856 0.82926 0.0
H3086 H 0.54718 0.84225 0.86423 0.0
H3087 H 0.54214 0.84789 0.84585 0.0
H3088 H 0.56473 0.85117 0.88282 0.0
H3089 H 0.58506 0.84886 0.88846 0.0
C3090 C 0.85757 0.13167 0.89653 0.0
C3091 C 0.8598 0.12607 0.91135 0.0
C3092 C 0.86098 0.09881 0.89876 0.0
C3093 C 0.85685 0.10402 0.8841 0.0
N3094 N 0.84876 0.1248 0.86914 0.0
N3095 N 0.86121 0.10389 0.92686 0.0
C3096 C 0.85453 0.12031 0.88299 0.0
C3097 C 0.86091 0.10952 0.91255 0.0
N3098 N 0.85878 0.14789 0.89537 0.0
N3099 N 0.86532 0.08373 0.89943 0.0
H3100 H 0.86109 0.11133 0.93725 0.0
H3101 H 0.86017 0.09167 0.92837 0.0
H3102 H 0.86553 0.07558 0.88954 0.0
H3103 H 0.87013 0.07983 0.90959 0.0
H3104 H 0.85904 0.1528 0.88478 0.0
H3105 H 0.86102 0.15657 0.90503 0.0
H3106 H 0.84503 0.13602 0.86803 0.0
H3107 H 0.84639 0.11687 0.85893 0.0
C3108 C 0.59888 0.16269 0.67508 0.0
C3109 C 0.58184 0.15958 0.66957 0.0
C3110 C 0.58965 0.16118 0.64274 0.0
C3111 C 0.60657 0.16568 0.64835 0.0
N3112 N 0.62704 0.17352 0.67006 0.0
N3113 N 0.56077 0.15924 0.64867 0.0
C3114 C 0.61113 0.16723 0.6646 0.0
C3115 C 0.57716 0.15983 0.65354 0.0
N3116 N 0.6034 0.16082 0.69019 0.0
N3117 N 0.58554 0.15753 0.6271 0.0
H3118 H 0.55124 0.15837 0.65624 0.0
H3119 H 0.55678 0.16115 0.63743 0.0
H3120 H 0.59432 0.15803 0.61878 0.0
H3121 H 0.57363 0.15252 0.62248 0.0
H3122 H 0.6157 0.16116 0.69445 0.0
H3123 H 0.59477 0.15763 0.69821 0.0
H3124 H 0.6307 0.17651 0.68186 0.0
H3125 H 0.6363 0.1771 0.66276 0.0
C3126 C 0.63884 0.87886 0.40397 0.0
C3127 C 0.63595 0.86235 0.39775 0.0
C3128 C 0.63573 0.87034 0.37123 0.0
C3129 C 0.63679 0.88676 0.37741 0.0
N3130 N 0.63689 0.90662 0.3996 0.0
N3131 N 0.62869 0.84228 0.37555 0.0
C3132 C 0.63772 0.89104 0.39379 0.0
C3133 C 0.63359 0.85806 0.38139 0.0
N3134 N 0.64312 0.8829 0.41953 0.0
N3135 N 0.63727 0.86649 0.35569 0.0
H3136 H 0.62681 0.83291 0.38259 0.0
H3137 H 0.62501 0.83866 0.36384 0.0
H3138 H 0.63906 0.87516 0.34788 0.0
H3139 H 0.63836 0.85488 0.35079 0.0
H3140 H 0.64713 0.89471 0.42448 0.0
H3141 H 0.64404 0.87431 0.42732 0.0
H3142 H 0.63568 0.91013 0.41133 0.0
H3143 H 0.63603 0.91587 0.39253 0.0
C3144 C 0.9168 0.86158 0.17299 0.0
C3145 C 0.92777 0.8755 0.17025 0.0
C3146 C 0.90856 0.88011 0.14875 0.0
C3147 C 0.89672 0.86745 0.15277 0.0
N3148 N 0.88858 0.84737 0.17002 0.0
N3149 N 0.93313 0.89947 0.15705 0.0
C3150 C 0.90059 0.85845 0.16521 0.0
C3151 C 0.92342 0.88514 0.15849 0.0
N3152 N 0.92202 0.85115 0.18274 0.0
N3153 N 0.90575 0.88708 0.13539 0.0
H3154 H 0.94407 0.90367 0.16402 0.0
H3155 H 0.92963 0.90786 0.14989 0.0
H3156 H 0.89506 0.8836 0.1279 0.0
H3157 H 0.91467 0.89519 0.13098 0.0
H3158 H 0.91528 0.83994 0.18393 0.0
H3159 H 0.93382 0.85306 0.18861 0.0
H3160 H 0.8901 0.84174 0.1801 0.0
H3161 H 0.87657 0.84472 0.16464 0.0
C3162 C 0.10364 0.64846 0.18157 0.0
C3163 C 0.08646 0.6454 0.17658 0.0
C3164 C 0.09326 0.64641 0.14944 0.0
C3165 C 0.11027 0.65123 0.15454 0.0
N3166 N 0.13155 0.65904 0.17558 0.0
N3167 N 0.06468 0.64453 0.15619 0.0
C3168 C 0.11547 0.65283 0.17065 0.0
C3169 C 0.0812 0.64524 0.16063 0.0
N3170 N 0.10867 0.6468 0.19661 0.0
N3171 N 0.08866 0.64243 0.13392 0.0
H3172 H 0.05541 0.64382 0.16404 0.0
H3173 H 0.06031 0.64619 0.14498 0.0
H3174 H 0.09717 0.6428 0.12534 0.0
H3175 H 0.07668 0.63724 0.12968 0.0
H3176 H 0.12107 0.64717 0.20053 0.0
H3177 H 0.10032 0.64375 0.20492 0.0
H3178 H 0.13567 0.6621 0.18726 0.0
H3179 H 0.14055 0.66238 0.16793 0.0
C3180 C 0.13341 0.35673 0.87404 0.0
C3181 C 0.12338 0.35727 0.88692 0.0
C3182 C 0.11649 0.38363 0.88093 0.0
C3183 C 0.12481 0.38206 0.867 0.0
N3184 N 0.13925 0.36607 0.84905 0.0
N3185 N 0.10383 0.37026 0.90181 0.0
C3186 C 0.13281 0.36835 0.86324 0.0
C3187 C 0.11455 0.37052 0.89021 0.0
N3188 N 0.14384 0.34533 0.87235 0.0
N3189 N 0.11075 0.3978 0.88543 0.0
H3190 H 0.10214 0.36091 0.90889 0.0
H3191 H 0.09566 0.37866 0.90365 0.0
H3192 H 0.11193 0.40762 0.87888 0.0
H3193 H 0.10612 0.40035 0.89624 0.0
H3194 H 0.15273 0.34537 0.86416 0.0
H3195 H 0.14471 0.33667 0.88009 0.0
H3196 H 0.14351 0.35542 0.84494 0.0
H3197 H 0.13906 0.37427 0.84077 0.0
C3198 C 0.40748 0.36554 0.66113 0.0
C3199 C 0.41809 0.37962 0.65819 0.0
C3200 C 0.39816 0.38385 0.63708 0.0
C3201 C 0.38672 0.37097 0.6413 0.0
N3202 N 0.37949 0.3508 0.65869 0.0
N3203 N 0.42255 0.40361 0.64491 0.0
C3204 C 0.39113 0.36209 0.65366 0.0
C3205 C 0.4132 0.38915 0.64653 0.0
N3206 N 0.4132 0.35525 0.67077 0.0
N3207 N 0.39482 0.39078 0.62381 0.0
H3208 H 0.43358 0.40801 0.65167 0.0
H3209 H 0.41867 0.41191 0.63783 0.0
H3210 H 0.38397 0.38714 0.61656 0.0
H3211 H 0.40343 0.39904 0.61922 0.0
H3212 H 0.40672 0.34394 0.67209 0.0
H3213 H 0.42511 0.35737 0.6764 0.0
H3214 H 0.38139 0.34524 0.66875 0.0
H3215 H 0.3674 0.3479 0.65352 0.0
C3216 C 0.12483 0.61853 0.64004 0.0
C3217 C 0.10946 0.61658 0.63097 0.0
C3218 C 0.10043 0.59148 0.64226 0.0
C3219 C 0.11453 0.59496 0.65313 0.0
N3220 N 0.13986 0.61225 0.66315 0.0
N3221 N 0.08233 0.60153 0.62332 0.0
C3222 C 0.12682 0.60847 0.65209 0.0
C3223 C 0.09724 0.603 0.63187 0.0
N3224 N 0.13752 0.63001 0.63708 0.0
N3225 N 0.09017 0.57712 0.64191 0.0
H3226 H 0.0798 0.6095 0.61529 0.0
H3227 H 0.07216 0.59299 0.62478 0.0
H3228 H 0.09228 0.56849 0.64939 0.0
H3229 H 0.08049 0.57313 0.6334 0.0
H3230 H 0.14957 0.631 0.64221 0.0
H3231 H 0.13638 0.63763 0.62838 0.0
H3232 H 0.14806 0.62303 0.66414 0.0
H3233 H 0.14192 0.60513 0.67207 0.0
C3234 C 0.41831 0.40669 0.10703 0.0
C3235 C 0.40864 0.39121 0.1036 0.0
C3236 C 0.39011 0.39778 0.12396 0.0
C3237 C 0.39962 0.41334 0.12726 0.0
N3238 N 0.42072 0.43389 0.12035 0.0
N3239 N 0.38355 0.37311 0.10628 0.0
C3240 C 0.41308 0.41821 0.11824 0.0
C3241 C 0.39395 0.38712 0.11128 0.0
N3242 N 0.4328 0.41012 0.09999 0.0
N3243 N 0.37785 0.39295 0.13337 0.0
H3244 H 0.38606 0.36494 0.09713 0.0
H3245 H 0.3718 0.37019 0.11027 0.0
H3246 H 0.37433 0.40055 0.14249 0.0
H3247 H 0.37185 0.38112 0.13282 0.0
H3248 H 0.44142 0.42043 0.10321 0.0
H3249 H 0.43672 0.40213 0.09142 0.0
H3250 H 0.42952 0.43869 0.11318 0.0
H3251 H 0.41729 0.44252 0.1286 0.0
C3252 C 0.57391 0.34622 0.1878 0.0
C3253 C 0.56256 0.35673 0.18361 0.0
C3254 C 0.5767 0.36086 0.15975 0.0
C3255 C 0.58932 0.35219 0.165 0.0
N3256 N 0.60107 0.33793 0.18481 0.0
N3257 N 0.55469 0.3762 0.16683 0.0
C3258 C 0.5882 0.34511 0.17921 0.0
C3259 C 0.5643 0.36458 0.16986 0.0
N3260 N 0.57083 0.33705 0.19979 0.0
N3261 N 0.57639 0.36531 0.14496 0.0
H3262 H 0.54564 0.37956 0.17405 0.0
H3263 H 0.55673 0.38357 0.15794 0.0
H3264 H 0.5852 0.36267 0.13716 0.0
H3265 H 0.56654 0.37019 0.13993 0.0
H3266 H 0.57771 0.32798 0.20243 0.0
H3267 H 0.56046 0.33756 0.20628 0.0
H3268 H 0.60182 0.33417 0.19591 0.0
H3269 H 0.61167 0.3368 0.1788 0.0
C3270 C 0.94771 0.67124 0.67345 0.0
C3271 C 0.94717 0.68137 0.68752 0.0
C3272 C 0.92932 0.69769 0.67398 0.0
C3273 C 0.93021 0.68778 0.65985 0.0
N3274 N 0.9436 0.66795 0.64523 0.0
N3275 N 0.94105 0.70641 0.70042 0.0
C3276 C 0.94055 0.67548 0.65931 0.0
C3277 C 0.93913 0.69533 0.68752 0.0
N3278 N 0.95422 0.6571 0.67369 0.0
N3279 N 0.9185 0.70877 0.6747 0.0
H3280 H 0.94825 0.70506 0.71047 0.0
H3281 H 0.93687 0.71759 0.70065 0.0
H3282 H 0.91119 0.71095 0.66504 0.0
H3283 H 0.91587 0.715 0.68508 0.0
H3284 H 0.95319 0.64835 0.66413 0.0
H3285 H 0.9595 0.65345 0.68378 0.0
H3286 H 0.9523 0.66 0.64395 0.0
H3287 H 0.9386 0.67087 0.63467 0.0
C3288 C 0.60965 0.39814 0.61216 0.0
C3289 C 0.62243 0.38855 0.60931 0.0
C3290 C 0.64044 0.40511 0.63042 0.0
C3291 C 0.6284 0.41577 0.63195 0.0
N3292 N 0.60307 0.42417 0.62322 0.0
N3293 N 0.6508 0.38395 0.61423 0.0
C3294 C 0.61333 0.41264 0.62247 0.0
C3295 C 0.63806 0.39229 0.61805 0.0
N3296 N 0.59393 0.39311 0.60541 0.0
N3297 N 0.65379 0.40685 0.64111 0.0
H3298 H 0.64949 0.3744 0.60535 0.0
H3299 H 0.66298 0.38729 0.61901 0.0
H3300 H 0.65568 0.41587 0.6505 0.0
H3301 H 0.66211 0.39851 0.64153 0.0
H3302 H 0.58364 0.39854 0.60842 0.0
H3303 H 0.59082 0.38249 0.59787 0.0
H3304 H 0.59228 0.4238 0.61598 0.0
H3305 H 0.59228 0.4238 0.61598 0.0
C3306 C 0.43371 0.65919 0.84299 0.0
C3307 C 0.42728 0.65715 0.82718 0.0
C3308 C 0.39909 0.65771 0.8356 0.0
C3309 C 0.40519 0.65721 0.8512 0.0
N3310 N 0.42812 0.65656 0.86997 0.0
N3311 N 0.40357 0.65244 0.80827 0.0
C3312 C 0.4225 0.65787 0.85501 0.0
C3313 C 0.4099 0.65602 0.82342 0.0
N3314 N 0.45051 0.66261 0.84646 0.0
N3315 N 0.38294 0.6599 0.83245 0.0
H3316 H 0.41096 0.65088 0.79894 0.0
H3317 H 0.39089 0.64962 0.80504 0.0
H3318 H 0.3747 0.66124 0.84115 0.0
H3319 H 0.37818 0.66198 0.82151 0.0
H3320 H 0.45594 0.66577 0.85775 0.0
H3321 H 0.45899 0.66364 0.8379 0.0
H3322 H 0.4403 0.65508 0.87317 0.0
H3323 H 0.4203 0.65593 0.8791 0.0
C3324 C 0.05957 0.34239 0.33532 0.0
C3325 C 0.06262 0.34568 0.3199 0.0
C3326 C 0.09191 0.34254 0.32495 0.0
C3327 C 0.08941 0.34215 0.34103 0.0
N3328 N 0.07102 0.34379 0.36195 0.0
N3329 N 0.08206 0.35037 0.30023 0.0
C3330 C 0.07324 0.34244 0.34634 0.0
C3331 C 0.07886 0.34598 0.31468 0.0
N3332 N 0.04358 0.33912 0.3394 0.0
N3333 N 0.1067 0.33943 0.31949 0.0
H3334 H 0.07287 0.35299 0.29235 0.0
H3335 H 0.09402 0.35263 0.29651 0.0
H3336 H 0.11641 0.33665 0.32669 0.0
H3337 H 0.10874 0.33806 0.30768 0.0
H3338 H 0.04056 0.33507 0.35002 0.0
H3339 H 0.03329 0.33886 0.33153 0.0
H3340 H 0.05981 0.34585 0.36647 0.0
H3341 H 0.08069 0.34432 0.37052 0.0
C3342 C 0.33174 0.62956 0.38739 0.0
C3343 C 0.33782 0.62424 0.40144 0.0
C3344 C 0.34317 0.59936 0.38651 0.0
C3345 C 0.34078 0.60637 0.37245 0.0
N3346 N 0.33233 0.62832 0.35935 0.0
N3347 N 0.3349 0.59905 0.41276 0.0
C3348 C 0.335 0.62157 0.37283 0.0
C3349 C 0.33956 0.60761 0.40074 0.0
N3350 N 0.32012 0.63982 0.38786 0.0
N3351 N 0.34902 0.58488 0.38637 0.0
H3352 H 0.32924 0.60422 0.42216 0.0
H3353 H 0.33442 0.58655 0.41227 0.0
H3354 H 0.35191 0.57844 0.37617 0.0
H3355 H 0.35233 0.58007 0.39657 0.0
H3356 H 0.31411 0.64304 0.37791 0.0
H3357 H 0.3146 0.64285 0.39814 0.0
H3358 H 0.3297 0.64011 0.35927 0.0
H3359 H 0.33393 0.62259 0.34838 0.0
C3360 C 0.10128 0.32811 0.04872 0.0
C3361 C 0.09618 0.33491 0.03517 0.0
C3362 C 0.08621 0.35669 0.05159 0.0
C3363 C 0.09346 0.35119 0.06501 0.0
N3364 N 0.10863 0.33217 0.07662 0.0
N3365 N 0.08486 0.35633 0.02346 0.0
C3366 C 0.10105 0.33692 0.06367 0.0
C3367 C 0.08873 0.34929 0.03653 0.0
N3368 N 0.10614 0.31313 0.04726 0.0
N3369 N 0.07683 0.36898 0.0533 0.0
H3370 H 0.08635 0.35125 0.01221 0.0
H3371 H 0.08127 0.36777 0.02374 0.0
H3372 H 0.0749 0.37472 0.06417 0.0
H3373 H 0.06979 0.37252 0.04415 0.0
H3374 H 0.10848 0.30676 0.05668 0.0
H3375 H 0.10648 0.30645 0.03647 0.0
H3376 H 0.11611 0.32306 0.07623 0.0
H3377 H 0.10825 0.33802 0.08779 0.0
C3378 C 0.96228 0.89078 0.329 0.0
C3379 C 0.97279 0.90391 0.324 0.0
C3380 C 0.97432 0.91844 0.35027 0.0
C3381 C 0.96183 0.90647 0.35445 0.0
N3382 N 0.94339 0.88139 0.34795 0.0
N3383 N 0.98874 0.93043 0.32949 0.0
C3384 C 0.95583 0.89254 0.34393 0.0
C3385 C 0.97901 0.91771 0.33461 0.0
N3386 N 0.95859 0.8766 0.31944 0.0
N3387 N 0.98166 0.93048 0.36133 0.0
H3388 H 0.99276 0.93012 0.31824 0.0
H3389 H 0.99211 0.94161 0.33604 0.0
H3390 H 0.97835 0.93132 0.37283 0.0
H3391 H 0.99191 0.93878 0.35953 0.0
H3392 H 0.95233 0.86603 0.32289 0.0
H3393 H 0.96309 0.87498 0.30842 0.0
H3394 H 0.93697 0.87205 0.34017 0.0
H3395 H 0.93879 0.88198 0.35898 0.0
C3396 C 0.38309 0.6688 0.56124 0.0
C3397 C 0.36673 0.66819 0.55432 0.0
C3398 C 0.35594 0.65043 0.57346 0.0
C3399 C 0.37249 0.64969 0.57932 0.0
N3400 N 0.402 0.65557 0.57647 0.0
N3401 N 0.33778 0.65665 0.5523 0.0
C3402 C 0.38614 0.65826 0.57267 0.0
C3403 C 0.3532 0.65851 0.56001 0.0
N3404 N 0.39571 0.67962 0.55702 0.0
N3405 N 0.34281 0.64392 0.58109 0.0
H3406 H 0.33522 0.66256 0.54258 0.0
H3407 H 0.32786 0.64829 0.55475 0.0
H3408 H 0.34425 0.63812 0.59109 0.0
H3409 H 0.33055 0.64555 0.57838 0.0
H3410 H 0.40749 0.68191 0.56286 0.0
H3411 H 0.39399 0.68737 0.54855 0.0
H3412 H 0.41225 0.6602 0.57079 0.0
H3413 H 0.40478 0.64736 0.58415 0.0
C3414 C 0.55917 0.14121 0.83435 0.0
C3415 C 0.55728 0.12939 0.82119 0.0
C3416 C 0.56886 0.1105 0.83724 0.0
C3417 C 0.57318 0.12312 0.84957 0.0
N3418 N 0.57402 0.15118 0.85932 0.0
N3419 N 0.56202 0.10321 0.80958 0.0
C3420 C 0.56855 0.13863 0.8481 0.0
C3421 C 0.56242 0.11407 0.82252 0.0
N3422 N 0.55189 0.15486 0.83368 0.0
N3423 N 0.5706 0.09498 0.83969 0.0
H3424 H 0.55745 0.10527 0.79855 0.0
H3425 H 0.56746 0.09269 0.80951 0.0
H3426 H 0.57504 0.09186 0.85039 0.0
H3427 H 0.56609 0.08502 0.83169 0.0
H3428 H 0.5514 0.16321 0.84333 0.0
H3429 H 0.54495 0.15705 0.82378 0.0
H3430 H 0.57263 0.16313 0.85805 0.0
H3431 H 0.5812 0.14995 0.86939 0.0
C3432 C 0.07648 0.64238 0.4687 0.0
C3433 C 0.08923 0.64006 0.47981 0.0
C3434 C 0.10253 0.62526 0.45926 0.0
C3435 C 0.08871 0.62582 0.4486 0.0
N3436 N 0.06107 0.63261 0.44397 0.0
N3437 N 0.11311 0.62718 0.48625 0.0
C3438 C 0.07533 0.63389 0.45346 0.0
C3439 C 0.10195 0.63097 0.47524 0.0
N3440 N 0.06557 0.65282 0.47268 0.0
N3441 N 0.11647 0.61973 0.45402 0.0
H3442 H 0.11319 0.63112 0.49809 0.0
H3443 H 0.12139 0.619 0.48385 0.0
H3444 H 0.11753 0.61571 0.44236 0.0
H3445 H 0.12756 0.62061 0.46091 0.0
H3446 H 0.05709 0.65632 0.46465 0.0
H3447 H 0.06601 0.65913 0.48376 0.0
H3448 H 0.05028 0.63679 0.44754 0.0
H3449 H 0.0594 0.62599 0.433 0.0
C3450 C 0.56844 0.86769 0.68021 0.0
C3451 C 0.55672 0.87809 0.68449 0.0
C3452 C 0.55888 0.88925 0.65936 0.0
C3453 C 0.57239 0.88065 0.65613 0.0
N3454 N 0.59144 0.86305 0.66456 0.0
N3455 N 0.54167 0.89982 0.67878 0.0
C3456 C 0.57742 0.87003 0.66673 0.0
C3457 C 0.55208 0.88908 0.67418 0.0
N3458 N 0.57093 0.85549 0.68902 0.0
N3459 N 0.55226 0.89726 0.64805 0.0
H3460 H 0.53614 0.89983 0.68937 0.0
H3461 H 0.53942 0.90943 0.67263 0.0
H3462 H 0.55665 0.89733 0.63696 0.0
H3463 H 0.54141 0.90245 0.6491 0.0
H3464 H 0.57799 0.84646 0.68567 0.0
H3465 H 0.56467 0.85354 0.69901 0.0
H3466 H 0.59678 0.85671 0.67281 0.0
H3467 H 0.59865 0.86472 0.65513 0.0
C3468 C 0.42761 0.37429 0.94789 0.0
C3469 C 0.44017 0.36487 0.95171 0.0
C3470 C 0.45391 0.37141 0.92805 0.0
C3471 C 0.44076 0.38001 0.92379 0.0
N3472 N 0.41317 0.38629 0.92776 0.0
N3473 N 0.4635 0.35188 0.94411 0.0
C3474 C 0.42703 0.38042 0.93315 0.0
C3475 C 0.45275 0.36259 0.94134 0.0
N3476 N 0.41664 0.37805 0.95861 0.0
N3477 N 0.46795 0.37244 0.92005 0.0
H3478 H 0.46303 0.34536 0.95377 0.0
H3479 H 0.47186 0.34842 0.9362 0.0
H3480 H 0.46947 0.37902 0.91052 0.0
H3481 H 0.47867 0.36793 0.92366 0.0
H3482 H 0.40853 0.38645 0.95717 0.0
H3483 H 0.41659 0.3739 0.96957 0.0
H3484 H 0.40211 0.38537 0.93331 0.0
H3485 H 0.4121 0.39058 0.91688 0.0
C3486 C 0.95009 0.15431 0.18217 0.0
C3487 C 0.96009 0.14181 0.18307 0.0
C3488 C 0.9479 0.12931 0.15735 0.0
C3489 C 0.93591 0.14006 0.15783 0.0
N3490 N 0.92481 0.16239 0.17113 0.0
N3491 N 0.96729 0.11627 0.17216 0.0
C3492 C 0.93691 0.15262 0.17025 0.0
C3493 C 0.95886 0.1291 0.17072 0.0
N3494 N 0.95331 0.16785 0.19264 0.0
N3495 N 0.94873 0.11926 0.14408 0.0
H3496 H 0.97521 0.11538 0.18186 0.0
H3497 H 0.96534 0.10582 0.16434 0.0
H3498 H 0.94088 0.11922 0.13407 0.0
H3499 H 0.9582 0.11221 0.14246 0.0
H3500 H 0.9475 0.17805 0.19175 0.0
H3501 H 0.96296 0.16946 0.2014 0.0
H3502 H 0.92376 0.17048 0.18084 0.0
H3503 H 0.91512 0.16168 0.16253 0.0
C3504 C 0.08861 0.09947 0.29603 0.0
C3505 C 0.07206 0.09165 0.29645 0.0
C3506 C 0.0822 0.0702 0.31001 0.0
C3507 C 0.09853 0.07879 0.31081 0.0
N3508 N 0.11821 0.09853 0.30093 0.0
N3509 N 0.05341 0.06759 0.29955 0.0
C3510 C 0.10202 0.09235 0.30241 0.0
C3511 C 0.069 0.07624 0.30193 0.0
N3512 N 0.09137 0.11417 0.29043 0.0
N3513 N 0.07923 0.05685 0.3178 0.0
H3514 H 0.04361 0.07187 0.29368 0.0
H3515 H 0.05048 0.05576 0.30216 0.0
H3516 H 0.08881 0.05187 0.32322 0.0
H3517 H 0.06739 0.05103 0.31933 0.0
H3518 H 0.10287 0.12147 0.29145 0.0
H3519 H 0.08186 0.11944 0.28525 0.0
H3520 H 0.12182 0.10766 0.29402 0.0
H3521 H 0.12813 0.09343 0.30561 0.0
C3522 C 0.11725 0.77923 0.61225 0.0
C3523 C 0.10161 0.76915 0.61002 0.0
C3524 C 0.09018 0.7871 0.62955 0.0
C3525 C 0.10554 0.79771 0.63119 0.0
N3526 N 0.13374 0.80425 0.62407 0.0
N3527 N 0.07265 0.76409 0.61495 0.0
C3528 C 0.11905 0.79394 0.62243 0.0
C3529 C 0.08794 0.77323 0.61829 0.0
N3530 N 0.13055 0.77435 0.60507 0.0
N3531 N 0.0777 0.79024 0.63884 0.0
H3532 H 0.07061 0.75369 0.60702 0.0
H3533 H 0.0617 0.7673 0.61914 0.0
H3534 H 0.07819 0.80083 0.64634 0.0
H3535 H 0.06712 0.78201 0.6398 0.0
H3536 H 0.14274 0.78006 0.60732 0.0
H3537 H 0.12961 0.76382 0.59738 0.0
H3538 H 0.14326 0.80353 0.61662 0.0
H3539 H 0.13639 0.81397 0.63272 0.0
C3540 C 0.42348 0.89379 0.80887 0.0
C3541 C 0.43284 0.9065 0.80212 0.0
C3542 C 0.41674 0.92601 0.81522 0.0
C3543 C 0.40882 0.91358 0.82336 0.0
N3544 N 0.40516 0.88578 0.82877 0.0
N3545 N 0.4396 0.93494 0.79979 0.0
C3546 C 0.41233 0.8975 0.82038 0.0
C3547 C 0.42967 0.92267 0.80541 0.0
N3548 N 0.42492 0.8781 0.80391 0.0
N3549 N 0.41206 0.94105 0.81702 0.0
H3550 H 0.44911 0.93299 0.79256 0.0
H3551 H 0.43928 0.94713 0.80313 0.0
H3552 H 0.40324 0.94412 0.82463 0.0
H3553 H 0.41598 0.95017 0.8102 0.0
H3554 H 0.41723 0.8682 0.80709 0.0
H3555 H 0.43293 0.87494 0.7955 0.0
H3556 H 0.4088 0.87437 0.8287 0.0
H3557 H 0.39608 0.88769 0.83649 0.0
C3558 C 0.40885 0.23252 0.06631 0.0
C3559 C 0.42437 0.24274 0.06721 0.0
C3560 C 0.43548 0.22698 0.08679 0.0
C3561 C 0.41943 0.21793 0.08718 0.0
N3562 N 0.39006 0.2142 0.07929 0.0
N3563 N 0.45188 0.25117 0.07971 0.0
C3564 C 0.4059 0.22115 0.07737 0.0
C3565 C 0.43755 0.24036 0.07783 0.0
N3566 N 0.39698 0.23357 0.05475 0.0
N3567 N 0.44889 0.22245 0.09459 0.0
H3568 H 0.45399 0.26093 0.07317 0.0
H3569 H 0.46114 0.25122 0.08856 0.0
H3570 H 0.44798 0.21258 0.10106 0.0
H3571 H 0.46114 0.22748 0.09346 0.0
H3572 H 0.38614 0.22528 0.05242 0.0
H3573 H 0.39861 0.2419 0.0466 0.0
H3574 H 0.37954 0.21742 0.07364 0.0
H3575 H 0.3872 0.20638 0.08768 0.0
C3576 C 0.08623 0.93261 0.18911 0.0
C3577 C 0.0891 0.93224 0.20542 0.0
C3578 C 0.11916 0.93414 0.20265 0.0
C3579 C 0.11631 0.93496 0.18641 0.0
N3580 N 0.09779 0.93926 0.16494 0.0
N3581 N 0.10834 0.93672 0.22822 0.0
C3582 C 0.10002 0.93561 0.17991 0.0
C3583 C 0.10562 0.93434 0.21235 0.0
N3584 N 0.07038 0.92925 0.18227 0.0
N3585 N 0.1346 0.9323 0.20871 0.0
H3586 H 0.09868 0.93699 0.23563 0.0
H3587 H 0.12012 0.93994 0.23395 0.0
H3588 H 0.14486 0.93214 0.20205 0.0
H3589 H 0.13697 0.92974 0.2201 0.0
H3590 H 0.06769 0.92748 0.17024 0.0
H3591 H 0.05992 0.92691 0.18855 0.0
H3592 H 0.08643 0.94141 0.16 0.0
H3593 H 0.10768 0.94171 0.15798 0.0
C3594 C 0.33553 0.78995 0.43138 0.0
C3595 C 0.34828 0.77997 0.43094 0.0
C3596 C 0.3641 0.79858 0.41521 0.0
C3597 C 0.35029 0.80709 0.41363 0.0
N3598 N 0.32172 0.80935 0.41854 0.0
N3599 N 0.37367 0.77347 0.4203 0.0
C3600 C 0.33574 0.80252 0.42142 0.0
C3601 C 0.36236 0.78399 0.42237 0.0
N3602 N 0.3233 0.78746 0.4414 0.0
N3603 N 0.37907 0.80463 0.41016 0.0
H3604 H 0.37283 0.76251 0.42508 0.0
H3605 H 0.38306 0.77493 0.41266 0.0
H3606 H 0.38097 0.81548 0.40517 0.0
H3607 H 0.39 0.79983 0.41243 0.0
H3608 H 0.31459 0.79529 0.4434 0.0
H3609 H 0.32283 0.77838 0.44883 0.0
H3610 H 0.31025 0.80524 0.42258 0.0
H3611 H 0.32108 0.81815 0.41095 0.0
C3612 C 0.40824 0.11277 0.70369 0.0
C3613 C 0.42224 0.12376 0.70076 0.0
C3614 C 0.40861 0.12566 0.67498 0.0
C3615 C 0.39739 0.1114 0.67651 0.0
N3616 N 0.38796 0.09042 0.69266 0.0
N3617 N 0.42706 0.14839 0.68875 0.0
C3618 C 0.39745 0.10476 0.691 0.0
C3619 C 0.42015 0.13254 0.68775 0.0
N3620 N 0.40353 0.11208 0.7185 0.0
N3621 N 0.40831 0.13274 0.66143 0.0
H3622 H 0.43315 0.15438 0.69911 0.0
H3623 H 0.4248 0.15602 0.68034 0.0
H3624 H 0.39922 0.12914 0.65229 0.0
H3625 H 0.41761 0.14179 0.65903 0.0
H3626 H 0.39254 0.10518 0.72103 0.0
H3627 H 0.40926 0.12036 0.7277 0.0
H3628 H 0.38875 0.08487 0.7029 0.0
H3629 H 0.38088 0.08325 0.68345 0.0
C3630 C 0.14528 0.20479 0.90848 0.0
C3631 C 0.13107 0.20512 0.91724 0.0
C3632 C 0.1221 0.17633 0.90859 0.0
C3633 C 0.1352 0.17651 0.89843 0.0
N3634 N 0.15822 0.19134 0.88724 0.0
N3635 N 0.1046 0.19188 0.9239 0.0
C3636 C 0.14658 0.19085 0.89803 0.0
C3637 C 0.11913 0.19104 0.91688 0.0
N3638 N 0.15774 0.21766 0.91045 0.0
N3639 N 0.11267 0.16199 0.91052 0.0
H3640 H 0.10187 0.20243 0.93 0.0
H3641 H 0.09462 0.18254 0.92255 0.0
H3642 H 0.11453 0.15098 0.90469 0.0
H3643 H 0.10407 0.16078 0.91894 0.0
H3644 H 0.16918 0.21752 0.90567 0.0
H3645 H 0.1572 0.22806 0.91797 0.0
H3646 H 0.16559 0.20192 0.88512 0.0
H3647 H 0.1597 0.18133 0.87957 0.0
C3648 C 0.37358 0.10836 0.09679 0.0
C3649 C 0.36204 0.10621 0.10836 0.0
C3650 C 0.36831 0.13511 0.11765 0.0
C3651 C 0.38178 0.13658 0.10793 0.0
N3652 N 0.39773 0.12469 0.08841 0.0
N3653 N 0.3483 0.11726 0.13001 0.0
C3654 C 0.38438 0.12329 0.09733 0.0
C3655 C 0.35916 0.11958 0.1187 0.0
N3656 N 0.37417 0.09606 0.08532 0.0
N3657 N 0.36434 0.14865 0.12586 0.0
H3658 H 0.34105 0.10617 0.13082 0.0
H3659 H 0.34709 0.12603 0.13911 0.0
H3660 H 0.37086 0.16014 0.12525 0.0
H3661 H 0.3538 0.14875 0.13211 0.0
H3662 H 0.38116 0.09728 0.07569 0.0
H3663 H 0.36646 0.08499 0.08472 0.0
H3664 H 0.40155 0.11495 0.08187 0.0
H3665 H 0.40563 0.13553 0.0882 0.0
C3666 C 0.80623 0.3944 0.88155 0.0
C3667 C 0.81539 0.41016 0.88269 0.0
C3668 C 0.84094 0.3991 0.88938 0.0
C3669 C 0.8323 0.38316 0.88578 0.0
N3670 N 0.8068 0.36555 0.87686 0.0
N3671 N 0.84194 0.42737 0.88569 0.0
C3672 C 0.8149 0.38075 0.8816 0.0
C3673 C 0.83288 0.41249 0.88614 0.0
N3674 N 0.78924 0.3925 0.88062 0.0
N3675 N 0.85679 0.40144 0.89622 0.0
H3676 H 0.83657 0.43754 0.88338 0.0
H3677 H 0.8549 0.42934 0.88629 0.0
H3678 H 0.86289 0.39192 0.89921 0.0
H3679 H 0.86319 0.4128 0.9004 0.0
H3680 H 0.78186 0.38152 0.88144 0.0
H3681 H 0.78256 0.40224 0.88043 0.0
H3682 H 0.79454 0.36325 0.87209 0.0
H3683 H 0.81268 0.35527 0.87653 0.0
C3684 C 0.78515 0.57119 0.1683 0.0
C3685 C 0.78107 0.55515 0.1609 0.0
C3686 C 0.80985 0.55528 0.15377 0.0
C3687 C 0.81384 0.57139 0.16098 0.0
N3688 N 0.80676 0.59338 0.17812 0.0
N3689 N 0.78993 0.53061 0.14979 0.0
C3690 C 0.80194 0.57889 0.16928 0.0
C3691 C 0.79361 0.54675 0.15469 0.0
N3692 N 0.77282 0.57933 0.17368 0.0
N3693 N 0.82137 0.54842 0.14548 0.0
H3694 H 0.77812 0.52412 0.15028 0.0
H3695 H 0.7988 0.52337 0.14648 0.0
H3696 H 0.83353 0.55412 0.14502 0.0
H3697 H 0.8187 0.53749 0.1384 0.0
H3698 H 0.77458 0.59164 0.17744 0.0
H3699 H 0.76045 0.57399 0.17353 0.0
H3700 H 0.79916 0.59881 0.18568 0.0
H3701 H 0.81895 0.59938 0.17893 0.0
C3702 C 0.69074 0.59169 0.36408 0.0
C3703 C 0.68803 0.5813 0.37595 0.0
C3704 C 0.66702 0.59725 0.38608 0.0
C3705 C 0.67063 0.6083 0.3749 0.0
N3706 N 0.68868 0.61802 0.35566 0.0
N3707 N 0.67615 0.57605 0.40014 0.0
C3708 C 0.68333 0.60609 0.36462 0.0
C3709 C 0.67697 0.58468 0.38756 0.0
N3710 N 0.6998 0.58746 0.35188 0.0
N3711 N 0.6535 0.59807 0.39463 0.0
H3712 H 0.68323 0.56678 0.40159 0.0
H3713 H 0.66964 0.57904 0.40978 0.0
H3714 H 0.64561 0.60674 0.39364 0.0
H3715 H 0.64921 0.58927 0.40168 0.0
H3716 H 0.70059 0.59362 0.34202 0.0
H3717 H 0.70531 0.57695 0.35091 0.0
H3718 H 0.69903 0.61783 0.34914 0.0
H3719 H 0.68386 0.62892 0.356 0.0
C3720 C 0.20706 0.99319 0.14845 0.0
C3721 C 0.21824 0.9877 0.13786 0.0
C3722 C 0.20349 0.96011 0.13793 0.0
C3723 C 0.19592 0.96524 0.15167 0.0
N3724 N 0.19191 0.98733 0.17074 0.0
N3725 N 0.21718 0.9684 0.11526 0.0
C3726 C 0.19796 0.98198 0.15708 0.0
C3727 C 0.21371 0.97173 0.1304 0.0
N3728 N 0.20263 0.0082 0.1481 0.0
N3729 N 0.20104 0.9442 0.13203 0.0
H3730 H 0.22254 0.97744 0.1089 0.0
H3731 H 0.21291 0.95748 0.10852 0.0
H3732 H 0.19252 0.93547 0.13613 0.0
H3733 H 0.20804 0.93953 0.12341 0.0
H3734 H 0.19349 0.01227 0.15483 0.0
H3735 H 0.20593 0.0152 0.13913 0.0
H3736 H 0.19433 0.99943 0.17541 0.0
H3737 H 0.18612 0.97961 0.17813 0.0
C3738 C 0.14162 0.9099 0.63788 0.0
C3739 C 0.15396 0.91641 0.65001 0.0
C3740 C 0.14758 0.892 0.66327 0.0
C3741 C 0.13401 0.8864 0.65211 0.0
N3742 N 0.11671 0.89082 0.62979 0.0
N3743 N 0.16734 0.91472 0.67532 0.0
C3744 C 0.13068 0.89554 0.63963 0.0
C3745 C 0.15665 0.9077 0.66297 0.0
N3746 N 0.14065 0.91724 0.62451 0.0
N3747 N 0.15196 0.88215 0.674 0.0
H3748 H 0.17417 0.92621 0.67559 0.0
H3749 H 0.16845 0.90977 0.68583 0.0
H3750 H 0.14555 0.87061 0.67458 0.0
H3751 H 0.16277 0.88479 0.68141 0.0
H3752 H 0.13313 0.91219 0.61459 0.0
H3753 H 0.14846 0.92775 0.62281 0.0
H3754 H 0.11253 0.89794 0.62163 0.0
H3755 H 0.10854 0.88026 0.63053 0.0
C3756 C 0.79924 0.4496 0.33631 0.0
C3757 C 0.79888 0.46054 0.34984 0.0
C3758 C 0.82851 0.45956 0.35619 0.0
C3759 C 0.82793 0.44638 0.34445 0.0
N3760 N 0.81257 0.42835 0.32344 0.0
N3761 N 0.81302 0.47609 0.37289 0.0
C3762 C 0.81334 0.44146 0.33431 0.0
C3763 C 0.81357 0.4658 0.35971 0.0
N3764 N 0.78601 0.44698 0.32542 0.0
N3765 N 0.84341 0.466 0.36397 0.0
H3766 H 0.80243 0.48121 0.3756 0.0
H3767 H 0.82271 0.47886 0.38156 0.0
H3768 H 0.8545 0.46165 0.36151 0.0
H3769 H 0.84507 0.47648 0.37174 0.0
H3770 H 0.78607 0.44034 0.3146 0.0
H3771 H 0.77553 0.45277 0.32666 0.0
H3772 H 0.80166 0.42294 0.31703 0.0
H3773 H 0.82266 0.42219 0.32145 0.0
C3774 C 0.67288 0.51432 0.85537 0.0
C3775 C 0.6822 0.51059 0.84244 0.0
C3776 C 0.6672 0.52778 0.82694 0.0
C3777 C 0.65788 0.53144 0.83987 0.0
N3778 N 0.64888 0.52542 0.86492 0.0
N3779 N 0.68601 0.51084 0.81506 0.0
C3780 C 0.6598 0.52379 0.85362 0.0
C3781 C 0.6786 0.51638 0.82792 0.0
N3782 N 0.67705 0.50948 0.86954 0.0
N3783 N 0.66579 0.53583 0.81406 0.0
H3784 H 0.69448 0.5026 0.81546 0.0
H3785 H 0.6828 0.51332 0.80381 0.0
H3786 H 0.65733 0.54396 0.81283 0.0
H3787 H 0.67363 0.53521 0.805 0.0
H3788 H 0.6721 0.51343 0.87983 0.0
H3789 H 0.68637 0.50234 0.87128 0.0
H3790 H 0.64847 0.5189 0.87454 0.0
H3791 H 0.63913 0.53222 0.86391 0.0
C3792 C 0.88386 0.64541 0.95316 0.0
C3793 C 0.87113 0.65539 0.95374 0.0
C3794 C 0.86906 0.65393 0.92515 0.0
C3795 C 0.88018 0.64231 0.92458 0.0
N3796 N 0.89755 0.62609 0.93776 0.0
N3797 N 0.85096 0.66879 0.94059 0.0
C3798 C 0.88756 0.63793 0.93852 0.0
C3799 C 0.86366 0.6597 0.93981 0.0
N3800 N 0.89252 0.64324 0.96665 0.0
N3801 N 0.86376 0.65946 0.91165 0.0
H3802 H 0.84706 0.67358 0.95113 0.0
H3803 H 0.84366 0.67086 0.93091 0.0
H3804 H 0.86739 0.65531 0.90077 0.0
H3805 H 0.8569 0.66901 0.91128 0.0
H3806 H 0.90307 0.63751 0.96695 0.0
H3807 H 0.88999 0.64837 0.97759 0.0
H3808 H 0.90161 0.62084 0.94743 0.0
H3809 H 0.90103 0.62074 0.92728 0.0
C3810 C 0.04925 0.13214 0.66959 0.0
C3811 C 0.03946 0.11822 0.67394 0.0
C3812 C 0.04099 0.10427 0.64784 0.0
C3813 C 0.05323 0.11701 0.64461 0.0
N3814 N 0.0697 0.14297 0.65264 0.0
N3815 N 0.02605 0.09078 0.66747 0.0
C3816 C 0.05733 0.13108 0.65542 0.0
C3817 C 0.03509 0.10428 0.66304 0.0
N3818 N 0.05082 0.14635 0.67909 0.0
N3819 N 0.03505 0.09218 0.6363 0.0
H3820 H 0.02116 0.0905 0.67835 0.0
H3821 H 0.02417 0.0796 0.66076 0.0
H3822 H 0.03911 0.09198 0.62506 0.0
H3823 H 0.0251 0.08325 0.63739 0.0
H3824 H 0.05645 0.15734 0.67594 0.0
H3825 H 0.04507 0.14743 0.68954 0.0
H3826 H 0.07465 0.15256 0.6609 0.0
H3827 H 0.07583 0.14275 0.64239 0.0
C3828 C 0.59278 0.34566 0.47059 0.0
C3829 C 0.58641 0.32892 0.46887 0.0
C3830 C 0.58099 0.32968 0.44067 0.0
C3831 C 0.58683 0.34653 0.44251 0.0
N3832 N 0.59433 0.37122 0.4596 0.0
N3833 N 0.57094 0.30588 0.45307 0.0
C3834 C 0.59147 0.35471 0.45762 0.0
C3835 C 0.57937 0.32122 0.45414 0.0
N3836 N 0.60086 0.35277 0.48439 0.0
N3837 N 0.57795 0.32152 0.42607 0.0
H3838 H 0.56952 0.29939 0.46271 0.0
H3839 H 0.56409 0.30018 0.443 0.0
H3840 H 0.57913 0.32717 0.41593 0.0
H3841 H 0.57555 0.30897 0.424 0.0
H3842 H 0.60742 0.36443 0.48578 0.0
H3843 H 0.60222 0.34662 0.49417 0.0
H3844 H 0.59606 0.37798 0.4705 0.0
H3845 H 0.59331 0.37823 0.45038 0.0
C3846 C 0.43405 0.90228 0.19955 0.0
C3847 C 0.44342 0.8897 0.20239 0.0
C3848 C 0.44558 0.88376 0.17422 0.0
C3849 C 0.43483 0.89528 0.17135 0.0
N3850 N 0.41638 0.91345 0.18123 0.0
N3851 N 0.45627 0.86693 0.19257 0.0
C3852 C 0.42843 0.90402 0.18401 0.0
C3853 C 0.44865 0.87997 0.18975 0.0
N3854 N 0.43084 0.91284 0.21171 0.0
N3855 N 0.45357 0.87707 0.16227 0.0
H3856 H 0.45903 0.86403 0.20379 0.0
H3857 H 0.45869 0.85831 0.18381 0.0
H3858 H 0.45205 0.87987 0.15085 0.0
H3859 H 0.46287 0.86991 0.1639 0.0
H3860 H 0.42574 0.92335 0.21023 0.0
H3861 H 0.4346 0.9119 0.22328 0.0
H3862 H 0.40993 0.91867 0.18998 0.0
H3863 H 0.41161 0.91483 0.17007 0.0
C3864 C 0.87115 0.37389 0.56348 0.0
C3865 C 0.88123 0.37837 0.55132 0.0
C3866 C 0.89967 0.3978 0.57001 0.0
C3867 C 0.88849 0.3947 0.5817 0.0
N3868 N 0.86312 0.38059 0.5897 0.0
N3869 N 0.90432 0.3954 0.54245 0.0
C3870 C 0.87415 0.38286 0.5785 0.0
C3871 C 0.8954 0.39044 0.55446 0.0
N3872 N 0.85889 0.36088 0.56067 0.0
N3873 N 0.91442 0.40774 0.57382 0.0
H3874 H 0.90179 0.39014 0.53096 0.0
H3875 H 0.91353 0.40544 0.54361 0.0
H3876 H 0.91776 0.41358 0.58501 0.0
H3877 H 0.92392 0.40921 0.56631 0.0
H3878 H 0.85214 0.35592 0.56933 0.0
H3879 H 0.85632 0.35416 0.54977 0.0
H3880 H 0.85145 0.37362 0.58762 0.0
H3881 H 0.86525 0.38646 0.601 0.0
C3882 C 0.458 0.12494 0.32616 0.0
C3883 C 0.46418 0.13993 0.32085 0.0
C3884 C 0.44566 0.15368 0.33738 0.0
C3885 C 0.4397 0.13872 0.34279 0.0
N3886 N 0.44272 0.11102 0.34533 0.0
N3887 N 0.46654 0.16897 0.32354 0.0
C3888 C 0.4467 0.12464 0.33811 0.0
C3889 C 0.45884 0.15445 0.32717 0.0
N3890 N 0.46229 0.11089 0.31923 0.0
N3891 N 0.4382 0.16696 0.34142 0.0
H3892 H 0.47615 0.16989 0.31605 0.0
H3893 H 0.4644 0.18008 0.32887 0.0
H3894 H 0.42884 0.1669 0.34916 0.0
H3895 H 0.44056 0.17774 0.33644 0.0
H3896 H 0.45671 0.09946 0.32129 0.0
H3897 H 0.47059 0.11054 0.31051 0.0
H3898 H 0.44866 0.10084 0.34365 0.0
H3899 H 0.43452 0.11045 0.35416 0.0
C3900 C 0.59952 0.64908 0.04965 0.0
C3901 C 0.58503 0.64596 0.03923 0.0
C3902 C 0.57033 0.63031 0.05812 0.0
C3903 C 0.58461 0.63408 0.06882 0.0
N3904 N 0.61105 0.65061 0.07632 0.0
N3905 N 0.55557 0.63691 0.03491 0.0
C3906 C 0.59865 0.64459 0.06505 0.0
C3907 C 0.57006 0.63767 0.04395 0.0
N3908 N 0.61436 0.65555 0.04465 0.0
N3909 N 0.55748 0.61893 0.06091 0.0
H3910 H 0.55499 0.64221 0.02451 0.0
H3911 H 0.54397 0.63243 0.03843 0.0
H3912 H 0.55731 0.61292 0.07088 0.0
H3913 H 0.54763 0.61441 0.05272 0.0
H3914 H 0.62568 0.65628 0.05116 0.0
H3915 H 0.61565 0.65897 0.03347 0.0
H3916 H 0.6208 0.65955 0.07467 0.0
H3917 H 0.61066 0.64794 0.08783 0.0
C3918 C 0.05846 0.86848 0.84957 0.0
C3919 C 0.04449 0.87689 0.84917 0.0
C3920 C 0.04711 0.88212 0.87775 0.0
C3921 C 0.06113 0.87376 0.87814 0.0
N3922 N 0.07793 0.85596 0.8651 0.0
N3923 N 0.02318 0.88851 0.8627 0.0
C3924 C 0.06604 0.86591 0.86422 0.0
C3925 C 0.03805 0.88265 0.86324 0.0
N3926 N 0.06493 0.86357 0.83594 0.0
N3927 N 0.04297 0.89021 0.89115 0.0
H3928 H 0.01635 0.88921 0.85225 0.0
H3929 H 0.01694 0.89141 0.87253 0.0
H3930 H 0.04899 0.88967 0.90204 0.0
H3931 H 0.03424 0.89817 0.89142 0.0
H3932 H 0.07622 0.8591 0.83542 0.0
H3933 H 0.05949 0.86488 0.825 0.0
H3934 H 0.08107 0.84866 0.85559 0.0
H3935 H 0.08369 0.85391 0.87568 0.0
C3936 C 0.94206 0.95748 0.7127 0.0
C3937 C 0.93562 0.94436 0.72078 0.0
C3938 C 0.90929 0.94094 0.70456 0.0
C3939 C 0.91577 0.95398 0.69641 0.0
N3940 N 0.93658 0.97683 0.6946 0.0
N3941 N 0.91214 0.92594 0.72693 0.0
C3942 C 0.93161 0.96299 0.70116 0.0
C3943 C 0.91888 0.93686 0.71752 0.0
N3944 N 0.95836 0.96423 0.71564 0.0
N3945 N 0.89432 0.93194 0.69942 0.0
H3946 H 0.9189 0.92249 0.73636 0.0
H3947 H 0.89956 0.92126 0.72623 0.0
H3948 H 0.88669 0.9349 0.69034 0.0
H3949 H 0.88983 0.92107 0.70352 0.0
H3950 H 0.96442 0.97255 0.70898 0.0
H3951 H 0.96622 0.96078 0.72427 0.0
H3952 H 0.9473 0.98483 0.69842 0.0
H3953 H 0.92915 0.98106 0.68611 0.0
C3954 C 0.87007 0.22886 0.43368 0.0
C3955 C 0.87261 0.24487 0.42951 0.0
C3956 C 0.88058 0.23465 0.40384 0.0
C3957 C 0.88026 0.21903 0.40881 0.0
N3958 N 0.87743 0.20189 0.42962 0.0
N3959 N 0.88263 0.26342 0.41141 0.0
C3960 C 0.87559 0.21622 0.42399 0.0
C3961 C 0.87842 0.24789 0.41476 0.0
N3962 N 0.86216 0.22569 0.44678 0.0
N3963 N 0.8825 0.23678 0.38854 0.0
H3964 H 0.88143 0.2735 0.4191 0.0
H3965 H 0.88868 0.26635 0.40156 0.0
H3966 H 0.88389 0.22735 0.38013 0.0
H3967 H 0.88107 0.24751 0.38388 0.0
H3968 H 0.85843 0.21402 0.44956 0.0
H3969 H 0.85791 0.23465 0.4541 0.0
H3970 H 0.8759 0.19986 0.44117 0.0
H3971 H 0.88208 0.19254 0.42323 0.0
C3972 C 0.59872 0.10405 0.21387 0.0
C3973 C 0.58201 0.098 0.2085 0.0
C3974 C 0.59169 0.0773 0.19058 0.0
C3975 C 0.60824 0.08517 0.19397 0.0
N3976 N 0.62794 0.10589 0.20879 0.0
N3977 N 0.56227 0.07912 0.19144 0.0
C3978 C 0.61192 0.09835 0.20581 0.0
C3979 C 0.57838 0.08448 0.19697 0.0
N3980 N 0.60188 0.11524 0.22667 0.0
N3981 N 0.58878 0.06303 0.18111 0.0
H3982 H 0.55215 0.08388 0.19594 0.0
H3983 H 0.55894 0.07065 0.18175 0.0
H3984 H 0.59835 0.05762 0.17621 0.0
H3985 H 0.57721 0.05584 0.17925 0.0
H3986 H 0.61371 0.11916 0.23207 0.0
H3987 H 0.5924 0.11958 0.23273 0.0
H3988 H 0.63127 0.11675 0.21589 0.0
H3989 H 0.63794 0.10162 0.20352 0.0
C3990 C 0.59563 0.77776 0.92934 0.0
C3991 C 0.60894 0.76849 0.92986 0.0
C3992 C 0.6234 0.78518 0.91158 0.0
C3993 C 0.61065 0.79517 0.91201 0.0
N3994 N 0.58661 0.8031 0.92411 0.0
N3995 N 0.6369 0.76514 0.92385 0.0
C3996 C 0.59734 0.79207 0.92172 0.0
C3997 C 0.62327 0.77276 0.9217 0.0
N3998 N 0.58104 0.77256 0.93558 0.0
N3999 N 0.63508 0.7869 0.90091 0.0
H4000 H 0.63722 0.75598 0.93112 0.0
H4001 H 0.64833 0.76885 0.91954 0.0
H4002 H 0.63542 0.79557 0.89307 0.0
H4003 H 0.64355 0.77882 0.89887 0.0
H4004 H 0.57027 0.7778 0.93397 0.0
H4005 H 0.5792 0.7621 0.94118 0.0
H4006 H 0.57773 0.80232 0.93231 0.0
H4007 H 0.58769 0.81395 0.9191 0.0
C4008 C 0.90454 0.10135 0.79212 0.0
C4009 C 0.92166 0.10433 0.79759 0.0
C4010 C 0.91316 0.10363 0.82435 0.0
C4011 C 0.89661 0.09743 0.81859 0.0
N4012 N 0.87645 0.08999 0.79655 0.0
N4013 N 0.93788 0.1208 0.81909 0.0
C4014 C 0.89231 0.09597 0.80232 0.0
C4015 C 0.925 0.10895 0.81387 0.0
N4016 N 0.8996 0.10704 0.77864 0.0
N4017 N 0.91769 0.10439 0.8399 0.0
H4018 H 0.94473 0.12739 0.81141 0.0
H4019 H 0.94 0.1257 0.83071 0.0
H4020 H 0.90941 0.1005 0.84798 0.0
H4021 H 0.93001 0.10746 0.84441 0.0
H4022 H 0.88716 0.1065 0.7747 0.0
H4023 H 0.90777 0.1148 0.77297 0.0
H4024 H 0.8732 0.0873 0.78463 0.0
H4025 H 0.86692 0.08659 0.80362 0.0
C4026 C 0.61384 0.21124 0.5889 0.0
C4027 C 0.62487 0.2259 0.59285 0.0
C4028 C 0.64112 0.21276 0.61143 0.0
C4029 C 0.63021 0.19805 0.60733 0.0
N4030 N 0.60834 0.18224 0.59011 0.0
N4031 N 0.65078 0.23993 0.60536 0.0
C4032 C 0.61725 0.19698 0.59537 0.0
C4033 C 0.63911 0.22641 0.60331 0.0
N4034 N 0.59976 0.21113 0.57943 0.0
N4035 N 0.65292 0.21388 0.62357 0.0
H4036 H 0.64958 0.2502 0.59977 0.0
H4037 H 0.66226 0.24056 0.61155 0.0
H4038 H 0.65503 0.20406 0.62951 0.0
H4039 H 0.65993 0.22472 0.62842 0.0
H4040 H 0.59018 0.20143 0.57755 0.0
H4041 H 0.59713 0.2212 0.57412 0.0
H4042 H 0.5998 0.18027 0.58044 0.0
H4043 H 0.61053 0.17161 0.59464 0.0
C4044 C 0.5775 0.91857 0.33317 0.0
C4045 C 0.57416 0.90722 0.31967 0.0
C4046 C 0.60277 0.90096 0.3223 0.0
C4047 C 0.60551 0.91103 0.33666 0.0
N4048 N 0.59539 0.92854 0.35659 0.0
N4049 N 0.5828 0.8863 0.30212 0.0
C4050 C 0.59286 0.91966 0.3423 0.0
C4051 C 0.58663 0.89814 0.31436 0.0
N4052 N 0.56612 0.92858 0.33702 0.0
N4053 N 0.61567 0.8942 0.31622 0.0
H4054 H 0.57118 0.88393 0.29594 0.0
H4055 H 0.59067 0.87801 0.29878 0.0
H4056 H 0.62753 0.89567 0.32191 0.0
H4057 H 0.61505 0.8882 0.30502 0.0
H4058 H 0.56843 0.93825 0.34574 0.0
H4059 H 0.55471 0.92802 0.33067 0.0
H4060 H 0.58605 0.93352 0.36226 0.0
H4061 H 0.60671 0.93017 0.36328 0.0
C4062 C 0.83767 0.78423 0.08623 0.0
C4063 C 0.85085 0.77978 0.07744 0.0
C4064 C 0.86952 0.80331 0.09054 0.0
C4065 C 0.85699 0.80658 0.10064 0.0
N4066 N 0.82963 0.79925 0.10936 0.0
N4067 N 0.87993 0.78385 0.07243 0.0
C4068 C 0.84111 0.79691 0.09874 0.0
C4069 C 0.86693 0.78905 0.07985 0.0
N4070 N 0.82184 0.77648 0.08246 0.0
N4071 N 0.88378 0.8141 0.09092 0.0
H4072 H 0.87861 0.77351 0.06446 0.0
H4073 H 0.89228 0.78902 0.07508 0.0
H4074 H 0.88606 0.82473 0.09854 0.0
H4075 H 0.89262 0.81333 0.08274 0.0
H4076 H 0.81141 0.78019 0.08733 0.0
H4077 H 0.81896 0.76709 0.07345 0.0
H4078 H 0.81858 0.79144 0.10967 0.0
H4079 H 0.83168 0.80837 0.11865 0.0
C4080 C 0.65992 0.90252 0.90574 0.0
C4081 C 0.66971 0.9062 0.89315 0.0
C4082 C 0.66035 0.87892 0.87999 0.0
C4083 C 0.64875 0.87615 0.8914 0.0
N4084 N 0.63652 0.88559 0.91469 0.0
N4085 N 0.67793 0.89858 0.86736 0.0
C4086 C 0.64838 0.88796 0.90427 0.0
C4087 C 0.66971 0.89452 0.88008 0.0
N4088 N 0.66187 0.91284 0.91919 0.0
N4089 N 0.66243 0.86654 0.86911 0.0
H4090 H 0.68485 0.90989 0.86685 0.0
H4091 H 0.67678 0.89123 0.85681 0.0
H4092 H 0.65576 0.85496 0.86876 0.0
H4093 H 0.67183 0.86728 0.86142 0.0
H4094 H 0.65635 0.91013 0.92935 0.0
H4095 H 0.6702 0.92358 0.9206 0.0
H4096 H 0.63429 0.8945 0.92325 0.0
H4097 H 0.62812 0.87495 0.91417 0.0
C4098 C 0.17099 0.58421 0.13305 0.0
C4099 C 0.18349 0.58337 0.12233 0.0
C4100 C 0.18316 0.61201 0.11863 0.0
C4101 C 0.16992 0.61253 0.12862 0.0
N4102 N 0.14895 0.59823 0.14274 0.0
N4103 N 0.19981 0.59551 0.1031 0.0
C4104 C 0.16323 0.59837 0.13513 0.0
C4105 C 0.18904 0.59699 0.11453 0.0
N4106 N 0.16671 0.57154 0.14149 0.0
N4107 N 0.19072 0.62598 0.11374 0.0
H4108 H 0.20476 0.58488 0.1002 0.0
H4109 H 0.20291 0.60437 0.09575 0.0
H4110 H 0.18692 0.63718 0.11664 0.0
H4111 H 0.20156 0.62673 0.10787 0.0
H4112 H 0.15926 0.57218 0.15086 0.0
H4113 H 0.17161 0.56071 0.13995 0.0
H4114 H 0.14241 0.58782 0.14624 0.0
H4115 H 0.14263 0.60819 0.14421 0.0
C4116 C 0.20804 0.45995 0.8575 0.0
C4117 C 0.21784 0.45164 0.84729 0.0
C4118 C 0.19381 0.4308 0.83918 0.0
C4119 C 0.1839 0.43933 0.84912 0.0
N4120 N 0.18037 0.46389 0.86464 0.0
N4121 N 0.2192 0.43157 0.82568 0.0
C4122 C 0.19066 0.45451 0.8573 0.0
C4123 C 0.2104 0.43785 0.8372 0.0
N4124 N 0.21545 0.47257 0.86791 0.0
N4125 N 0.18788 0.41551 0.83248 0.0
H4126 H 0.23137 0.43647 0.82396 0.0
H4127 H 0.21396 0.42253 0.81697 0.0
H4128 H 0.17598 0.40969 0.83386 0.0
H4129 H 0.19522 0.40802 0.82662 0.0
H4130 H 0.20933 0.47787 0.87689 0.0
H4131 H 0.22809 0.47705 0.86834 0.0
H4132 H 0.18422 0.47576 0.8695 0.0
H4133 H 0.16755 0.46036 0.86453 0.0
C4134 C 0.31534 0.40273 0.65036 0.0
C4135 C 0.31041 0.41181 0.63834 0.0
C4136 C 0.32653 0.39716 0.62005 0.0
C4137 C 0.33052 0.38732 0.63177 0.0
N4138 N 0.3261 0.3786 0.65711 0.0
N4139 N 0.30845 0.41552 0.61104 0.0
C4140 C 0.32412 0.38947 0.64665 0.0
C4141 C 0.31515 0.40836 0.62295 0.0
N4142 N 0.3122 0.40716 0.66542 0.0
N4143 N 0.33418 0.39632 0.60638 0.0
H4144 H 0.30007 0.42376 0.61271 0.0
H4145 H 0.31002 0.4122 0.59934 0.0
H4146 H 0.34266 0.38837 0.60381 0.0
H4147 H 0.33322 0.40444 0.59815 0.0
H4148 H 0.31712 0.40219 0.67492 0.0
H4149 H 0.30579 0.41677 0.66861 0.0
H4150 H 0.32029 0.37853 0.66752 0.0
H4151 H 0.33236 0.36869 0.65475 0.0
C4152 C 0.80326 0.03472 0.86154 0.0
C4153 C 0.7887 0.04189 0.85882 0.0
C4154 C 0.80534 0.06437 0.84818 0.0
C4155 C 0.82006 0.05853 0.85321 0.0
N4156 N 0.83347 0.03833 0.86474 0.0
N4157 N 0.77569 0.06394 0.85025 0.0
C4158 C 0.81914 0.0436 0.8597 0.0
C4159 C 0.78964 0.05672 0.85209 0.0
N4160 N 0.80182 0.01939 0.86578 0.0
N4161 N 0.80645 0.07735 0.83975 0.0
H4162 H 0.76392 0.05867 0.85277 0.0
H4163 H 0.77587 0.07563 0.84721 0.0
H4164 H 0.81782 0.08325 0.83686 0.0
H4165 H 0.7962 0.08134 0.83443 0.0
H4166 H 0.81174 0.01283 0.86658 0.0
H4167 H 0.79036 0.01268 0.86729 0.0
H4168 H 0.83377 0.02862 0.87129 0.0
H4169 H 0.84525 0.0442 0.86293 0.0
C4170 C 0.86265 0.10701 0.38763 0.0
C4171 C 0.85527 0.09878 0.37325 0.0
C4172 C 0.85741 0.12452 0.36188 0.0
C4173 C 0.8672 0.13221 0.3754 0.0
N4174 N 0.88054 0.13049 0.40075 0.0
N4175 N 0.84662 0.09931 0.34617 0.0
C4176 C 0.87003 0.12344 0.38828 0.0
C4177 C 0.85274 0.10745 0.36025 0.0
N4178 N 0.86248 0.09911 0.4007 0.0
N4179 N 0.85246 0.1336 0.35069 0.0
H4180 H 0.84284 0.08685 0.34456 0.0
H4181 H 0.84637 0.1047 0.33584 0.0
H4182 H 0.85556 0.14615 0.35164 0.0
H4183 H 0.84405 0.12896 0.34125 0.0
H4184 H 0.86615 0.10485 0.41184 0.0
H4185 H 0.85716 0.08706 0.40059 0.0
H4186 H 0.8846 0.12413 0.40962 0.0
H4187 H 0.88626 0.14246 0.4017 0.0
C4188 C 0.19244 0.54445 0.68018 0.0
C4189 C 0.19307 0.52907 0.67203 0.0
C4190 C 0.16261 0.52466 0.66797 0.0
C4191 C 0.16227 0.54104 0.67375 0.0
N4192 N 0.17732 0.56724 0.68373 0.0
N4193 N 0.17896 0.50456 0.65753 0.0
C4194 C 0.17726 0.55109 0.67969 0.0
C4195 C 0.17818 0.51909 0.66589 0.0
N4196 N 0.20643 0.55272 0.68833 0.0
N4197 N 0.148 0.51437 0.66477 0.0
H4198 H 0.19008 0.49987 0.65621 0.0
H4199 H 0.16877 0.4976 0.65113 0.0
H4200 H 0.13641 0.51801 0.66643 0.0
H4201 H 0.14739 0.50196 0.66195 0.0
H4202 H 0.20642 0.56324 0.69581 0.0
H4203 H 0.21776 0.54821 0.6888 0.0
H4204 H 0.18817 0.57543 0.68643 0.0
H4205 H 0.16669 0.57284 0.68303 0.0
C4206 C 0.31592 0.46109 0.12945 0.0
C4207 C 0.31588 0.47775 0.12773 0.0
C4208 C 0.34644 0.48177 0.13138 0.0
C4209 C 0.34606 0.46618 0.13642 0.0
N4210 N 0.32994 0.44063 0.14017 0.0
N4211 N 0.33234 0.49778 0.11482 0.0
C4212 C 0.33063 0.4558 0.13564 0.0
C4213 C 0.33153 0.4866 0.12526 0.0
N4214 N 0.30349 0.44993 0.12201 0.0
N4215 N 0.36101 0.4922 0.13265 0.0
H4216 H 0.32188 0.49937 0.10787 0.0
H4217 H 0.34352 0.50353 0.11142 0.0
H4218 H 0.3722 0.48927 0.13729 0.0
H4219 H 0.36154 0.50423 0.13046 0.0
H4220 H 0.30349 0.4375 0.12169 0.0
H4221 H 0.29489 0.45313 0.11387 0.0
H4222 H 0.3187 0.43335 0.14127 0.0
H4223 H 0.34043 0.43575 0.14377 0.0
C4224 C 0.592 0.84536 0.55225 0.0
C4225 C 0.60718 0.83998 0.54828 0.0
C4226 C 0.61874 0.84823 0.57523 0.0
C4227 C 0.60479 0.85619 0.57832 0.0
N4228 N 0.57845 0.86339 0.56928 0.0
N4229 N 0.63578 0.83773 0.5557 0.0
C4230 C 0.59136 0.85486 0.56677 0.0
C4231 C 0.62071 0.8416 0.55975 0.0
N4232 N 0.57818 0.84126 0.54215 0.0
N4233 N 0.63006 0.84692 0.58718 0.0
H4234 H 0.63786 0.83294 0.54452 0.0
H4235 H 0.64658 0.84048 0.56311 0.0
H4236 H 0.62879 0.85142 0.59868 0.0
H4237 H 0.63968 0.83999 0.58599 0.0
H4238 H 0.56636 0.84347 0.54494 0.0
H4239 H 0.57826 0.83422 0.5315 0.0
H4240 H 0.5693 0.86439 0.56063 0.0
H4241 H 0.57749 0.87047 0.57971 0.0
C4242 C 0.45477 0.38211 0.81392 0.0
C4243 C 0.46518 0.39597 0.8102 0.0
C4244 C 0.46658 0.40775 0.83749 0.0
C4245 C 0.45406 0.39519 0.84053 0.0
N4246 N 0.43574 0.37051 0.83178 0.0
N4247 N 0.48092 0.42225 0.81811 0.0
C4248 C 0.4482 0.38224 0.82885 0.0
C4249 C 0.47129 0.40877 0.82196 0.0
N4250 N 0.45123 0.36883 0.80316 0.0
N4251 N 0.47391 0.41868 0.84953 0.0
H4252 H 0.48494 0.42323 0.80697 0.0
H4253 H 0.48416 0.43281 0.82566 0.0
H4254 H 0.47064 0.41819 0.86098 0.0
H4255 H 0.48415 0.4273 0.84848 0.0
H4256 H 0.44503 0.35777 0.80556 0.0
H4257 H 0.45581 0.36843 0.79212 0.0
H4258 H 0.42945 0.36185 0.82323 0.0
H4259 H 0.43102 0.36994 0.8427 0.0
C4260 C 0.86766 0.16348 0.06622 0.0
C4261 C 0.88033 0.17446 0.06082 0.0
C4262 C 0.90103 0.16599 0.07896 0.0
C4263 C 0.88816 0.15584 0.08514 0.0
N4264 N 0.85882 0.14725 0.08671 0.0
N4265 N 0.90841 0.18846 0.0639 0.0
C4266 C 0.87135 0.15525 0.07933 0.0
C4267 C 0.89681 0.17645 0.06781 0.0
N4268 N 0.85221 0.16054 0.05851 0.0
N4269 N 0.91732 0.1649 0.08289 0.0
H4270 H 0.90583 0.19616 0.05561 0.0
H4271 H 0.92011 0.19169 0.06981 0.0
H4272 H 0.92101 0.15695 0.09046 0.0
H4273 H 0.9272 0.17072 0.07748 0.0
H4274 H 0.84304 0.15127 0.06068 0.0
H4275 H 0.84892 0.16658 0.04908 0.0
H4276 H 0.84627 0.14777 0.08407 0.0
H4277 H 0.86096 0.14129 0.09649 0.0
C4278 C 0.07325 0.63726 0.33979 0.0
C4279 C 0.05945 0.6267 0.3321 0.0
C4280 C 0.05691 0.61192 0.35516 0.0
C4281 C 0.07217 0.62089 0.36178 0.0
N4282 N 0.09528 0.64188 0.3606 0.0
N4283 N 0.03805 0.60383 0.33201 0.0
C4284 C 0.08035 0.63367 0.35424 0.0
C4285 C 0.05108 0.61412 0.33976 0.0
N4286 N 0.07946 0.65078 0.33326 0.0
N4287 N 0.04805 0.60132 0.36364 0.0
H4288 H 0.03317 0.60538 0.32092 0.0
H4289 H 0.03262 0.59328 0.33614 0.0
H4290 H 0.05215 0.59934 0.37486 0.0
H4291 H 0.03609 0.59548 0.36018 0.0
H4292 H 0.08848 0.65982 0.33888 0.0
H4293 H 0.07454 0.65368 0.32265 0.0
H4294 H 0.10294 0.64992 0.35481 0.0
H4295 H 0.10052 0.64002 0.37146 0.0
C4296 C 0.60447 0.14848 0.95613 0.0
C4297 C 0.59767 0.13897 0.96751 0.0
C4298 C 0.58545 0.11784 0.94679 0.0
C4299 C 0.5943 0.12626 0.9357 0.0
N4300 N 0.61365 0.14897 0.92997 0.0
N4301 N 0.58329 0.11367 0.97395 0.0
C4302 C 0.60408 0.14151 0.94037 0.0
C4303 C 0.58847 0.12343 0.96291 0.0
N4304 N 0.6111 0.16426 0.96038 0.0
N4305 N 0.57391 0.10462 0.94185 0.0
H4306 H 0.5852 0.11726 0.98589 0.0
H4307 H 0.57829 0.10155 0.97132 0.0
H4308 H 0.57122 0.10032 0.9301 0.0
H4309 H 0.56589 0.0989 0.9492 0.0
H4310 H 0.61472 0.17232 0.95241 0.0
H4311 H 0.61158 0.16969 0.97183 0.0
H4312 H 0.62245 0.15918 0.93312 0.0
H4313 H 0.61374 0.14427 0.91836 0.0
C4314 C 0.05563 0.35924 0.16578 0.0
C4315 C 0.04437 0.36995 0.17054 0.0
C4316 C 0.04764 0.38267 0.14632 0.0
C4317 C 0.06076 0.37368 0.14277 0.0
N4318 N 0.07871 0.35466 0.15024 0.0
N4319 N 0.03044 0.39275 0.16601 0.0
C4320 C 0.06501 0.3621 0.15266 0.0
C4321 C 0.04047 0.38183 0.16092 0.0
N4322 N 0.0573 0.34628 0.17382 0.0
N4323 N 0.04173 0.39171 0.13553 0.0
H4324 H 0.02464 0.39229 0.17643 0.0
H4325 H 0.02876 0.4029 0.16045 0.0
H4326 H 0.04643 0.39233 0.1246 0.0
H4327 H 0.03114 0.39728 0.13676 0.0
H4328 H 0.06398 0.3371 0.17003 0.0
H4329 H 0.05069 0.34393 0.18352 0.0
H4330 H 0.08349 0.34753 0.15808 0.0
H4331 H 0.08624 0.3567 0.1411 0.0
C4332 C 0.96502 0.88332 0.45799 0.0
C4333 C 0.95206 0.88465 0.46814 0.0
C4334 C 0.93699 0.89757 0.4486 0.0
C4335 C 0.95089 0.89818 0.43937 0.0
N4336 N 0.97927 0.89368 0.43642 0.0
N4337 N 0.92685 0.8954 0.47417 0.0
C4338 C 0.96518 0.89146 0.44427 0.0
C4339 C 0.9383 0.89235 0.4637 0.0
N4340 N 0.97709 0.87414 0.46141 0.0
N4341 N 0.9223 0.90156 0.44274 0.0
H4342 H 0.92732 0.8919 0.48541 0.0
H4343 H 0.91771 0.90266 0.47221 0.0
H4344 H 0.9207 0.90512 0.4316 0.0
H4345 H 0.91125 0.89974 0.44825 0.0
H4346 H 0.98592 0.87133 0.45373 0.0
H4347 H 0.97736 0.86813 0.4714 0.0
H4348 H 0.99062 0.89061 0.44041 0.0
H4349 H 0.98009 0.89992 0.4266 0.0
C4350 C 0.44415 0.62607 0.66458 0.0
C4351 C 0.44569 0.6385 0.67722 0.0
C4352 C 0.42214 0.6496 0.66536 0.0
C4353 C 0.42076 0.63726 0.65272 0.0
N4354 N 0.43306 0.61665 0.63809 0.0
N4355 N 0.43897 0.66422 0.68782 0.0
C4356 C 0.43274 0.62652 0.6516 0.0
C4357 C 0.43558 0.65099 0.67699 0.0
N4358 N 0.45272 0.61324 0.6654 0.0
N4359 N 0.41017 0.65949 0.66664 0.0
H4360 H 0.44879 0.66559 0.69639 0.0
H4361 H 0.43306 0.67443 0.68747 0.0
H4362 H 0.40048 0.65909 0.6581 0.0
H4363 H 0.40932 0.66744 0.6765 0.0
H4364 H 0.4506 0.60294 0.65738 0.0
H4365 H 0.46098 0.61218 0.67479 0.0
H4366 H 0.44245 0.60962 0.63597 0.0
H4367 H 0.42482 0.61674 0.62839 0.0
C4368 C 0.57652 0.58566 0.78977 0.0
C4369 C 0.56009 0.58354 0.79466 0.0
C4370 C 0.56861 0.56607 0.81386 0.0
C4371 C 0.58547 0.57074 0.81103 0.0
N4372 N 0.60584 0.58499 0.79634 0.0
N4373 N 0.54043 0.57233 0.81198 0.0
C4374 C 0.58953 0.5803 0.79878 0.0
C4375 C 0.55602 0.57364 0.80668 0.0
N4376 N 0.57962 0.59282 0.77653 0.0
N4377 N 0.56475 0.55452 0.82364 0.0
H4378 H 0.53081 0.57763 0.80708 0.0
H4379 H 0.53731 0.56694 0.82194 0.0
H4380 H 0.57382 0.54885 0.82904 0.0
H4381 H 0.55262 0.54948 0.8252 0.0
H4382 H 0.59098 0.59346 0.7715 0.0
H4383 H 0.57029 0.59683 0.76977 0.0
H4384 H 0.60975 0.59353 0.78891 0.0
H4385 H 0.61561 0.58088 0.8024 0.0
C4386 C 0.60168 0.26915 0.10513 0.0
C4387 C 0.61634 0.26549 0.09829 0.0
C4388 C 0.63241 0.28998 0.11271 0.0
C4389 C 0.61789 0.2932 0.12017 0.0
N4390 N 0.58912 0.28516 0.12484 0.0
N4391 N 0.64592 0.27112 0.0964 0.0
C4392 C 0.60266 0.28254 0.1168 0.0
C4393 C 0.63177 0.27562 0.10223 0.0
N4394 N 0.58671 0.26009 0.10005 0.0
N4395 N 0.64688 0.3005 0.11585 0.0
H4396 H 0.64586 0.26087 0.0885 0.0
H4397 H 0.65788 0.27686 0.09998 0.0
H4398 H 0.64844 0.31011 0.12465 0.0
H4399 H 0.65726 0.30013 0.10942 0.0
H4400 H 0.57527 0.26311 0.10316 0.0
H4401 H 0.58554 0.25003 0.09174 0.0
H4402 H 0.57839 0.27678 0.12452 0.0
H4403 H 0.5888 0.29542 0.1326 0.0
C4404 C 0.92533 0.42014 0.29485 0.0
C4405 C 0.92373 0.4037 0.28844 0.0
C4406 C 0.90005 0.39696 0.30419 0.0
C4407 C 0.9014 0.41344 0.31028 0.0
N4408 N 0.91312 0.4412 0.30955 0.0
N4409 N 0.90776 0.3771 0.28457 0.0
C4410 C 0.91333 0.42519 0.30495 0.0
C4411 C 0.91051 0.3923 0.29238 0.0
N4412 N 0.93877 0.43075 0.29185 0.0
N4413 N 0.88906 0.38568 0.31005 0.0
H4414 H 0.91522 0.37328 0.27592 0.0
H4415 H 0.89737 0.36869 0.28569 0.0
H4416 H 0.88069 0.38874 0.31815 0.0
H4417 H 0.88883 0.37327 0.30757 0.0
H4418 H 0.94175 0.44241 0.29751 0.0
H4419 H 0.94773 0.42756 0.28443 0.0
H4420 H 0.92034 0.45053 0.30493 0.0
H4421 H 0.90466 0.44522 0.31712 0.0
C4422 C 0.94573 0.76394 0.59817 0.0
C4423 C 0.9331 0.76745 0.58756 0.0
C4424 C 0.9128 0.74741 0.59777 0.0
C4425 C 0.92574 0.7429 0.60745 0.0
N4426 N 0.95507 0.74495 0.61489 0.0
N4427 N 0.90533 0.76069 0.57525 0.0
C4428 C 0.94237 0.75066 0.60711 0.0
C4429 C 0.91686 0.75858 0.58673 0.0
N4430 N 0.96083 0.77359 0.60004 0.0
N4431 N 0.89655 0.7419 0.59979 0.0
H4432 H 0.90776 0.76893 0.56712 0.0
H4433 H 0.89389 0.75332 0.57296 0.0
H4434 H 0.89296 0.73434 0.60821 0.0
H4435 H 0.88657 0.74612 0.59423 0.0
H4436 H 0.96987 0.77287 0.60888 0.0
H4437 H 0.96386 0.78322 0.59351 0.0
H4438 H 0.96759 0.74896 0.61377 0.0
H4439 H 0.95321 0.73511 0.62136 0.0
C4440 C 0.57775 0.44466 0.6788 0.0
C4441 C 0.58052 0.4426 0.69479 0.0
C4442 C 0.6107 0.44579 0.69225 0.0
C4443 C 0.6079 0.44789 0.67627 0.0
N4444 N 0.58946 0.45368 0.65544 0.0
N4445 N 0.59949 0.44523 0.71765 0.0
C4446 C 0.59161 0.44881 0.66995 0.0
C4447 C 0.597 0.4445 0.70181 0.0
N4448 N 0.56195 0.44178 0.67182 0.0
N4449 N 0.62629 0.44417 0.69808 0.0
H4450 H 0.5897 0.44435 0.72494 0.0
H4451 H 0.61117 0.44817 0.72365 0.0
H4452 H 0.63666 0.44535 0.69152 0.0
H4453 H 0.62879 0.44068 0.7091 0.0
H4454 H 0.55932 0.4412 0.65983 0.0
H4455 H 0.55145 0.43874 0.67786 0.0
H4456 H 0.5781 0.45606 0.6507 0.0
H4457 H 0.59942 0.45688 0.64874 0.0
C4458 C 0.84651 0.29386 0.93886 0.0
C4459 C 0.85219 0.27962 0.93228 0.0
C4460 C 0.85961 0.293 0.90913 0.0
C4461 C 0.85583 0.30779 0.9165 0.0
N4462 N 0.84756 0.3229 0.93923 0.0
N4463 N 0.86587 0.26601 0.91192 0.0
C4464 C 0.84961 0.30837 0.93154 0.0
C4465 C 0.85915 0.27928 0.91758 0.0
N4466 N 0.83799 0.29343 0.952 0.0
N4467 N 0.86312 0.29194 0.89381 0.0
H4468 H 0.86557 0.2556 0.91758 0.0
H4469 H 0.87288 0.26575 0.90223 0.0
H4470 H 0.86335 0.30166 0.88717 0.0
H4471 H 0.86423 0.2811 0.88725 0.0
H4472 H 0.83196 0.30285 0.95647 0.0
H4473 H 0.83579 0.28309 0.95776 0.0
H4474 H 0.84486 0.32438 0.95087 0.0
H4475 H 0.84985 0.33378 0.93438 0.0
C4476 C 0.92582 0.62122 0.19793 0.0
C4477 C 0.93199 0.6089 0.20565 0.0
C4478 C 0.90943 0.5888 0.19241 0.0
C4479 C 0.9041 0.60089 0.18374 0.0
N4480 N 0.90794 0.62826 0.17698 0.0
N4481 N 0.93119 0.58071 0.20908 0.0
C4482 C 0.91254 0.617 0.18612 0.0
C4483 C 0.92412 0.59263 0.20268 0.0
N4484 N 0.93233 0.63704 0.20227 0.0
N4485 N 0.90058 0.5736 0.19071 0.0
H4486 H 0.94189 0.58303 0.21668 0.0
H4487 H 0.92727 0.56843 0.20604 0.0
H4488 H 0.8906 0.5699 0.18243 0.0
H4489 H 0.9025 0.56484 0.19805 0.0
H4490 H 0.92727 0.64676 0.19835 0.0
H4491 H 0.94208 0.64056 0.21083 0.0
H4492 H 0.91486 0.63959 0.17671 0.0
H4493 H 0.89762 0.62601 0.16893 0.0
C4494 C 0.62286 0.69831 0.42562 0.0
C4495 C 0.6355 0.71189 0.42653 0.0
C4496 C 0.64975 0.69775 0.40614 0.0
C4497 C 0.6376 0.68387 0.40592 0.0
N4498 N 0.61477 0.66964 0.41785 0.0
N4499 N 0.66261 0.72347 0.41989 0.0
C4500 C 0.62483 0.68377 0.41644 0.0
C4501 C 0.64946 0.71128 0.41744 0.0
N4502 N 0.60857 0.69952 0.43295 0.0
N4503 N 0.66118 0.69826 0.39516 0.0
H4504 H 0.66282 0.73352 0.42807 0.0
H4505 H 0.67385 0.72299 0.41482 0.0
H4506 H 0.66194 0.68851 0.38689 0.0
H4507 H 0.66913 0.70867 0.39353 0.0
H4508 H 0.59814 0.69067 0.43127 0.0
H4509 H 0.60651 0.70998 0.43967 0.0
H4510 H 0.60633 0.66839 0.4264 0.0
H4511 H 0.616 0.65873 0.41144 0.0
C4512 C 0.87204 0.63523 0.61128 0.0
C4513 C 0.85957 0.63299 0.622 0.0
C4514 C 0.8673 0.6612 0.63337 0.0
C4515 C 0.88136 0.66257 0.62437 0.0
N4516 N 0.89772 0.65085 0.6051 0.0
N4517 N 0.84517 0.64353 0.64341 0.0
C4518 C 0.88375 0.64966 0.61321 0.0
C4519 C 0.857 0.64598 0.63297 0.0
N4520 N 0.87265 0.6235 0.59926 0.0
N4521 N 0.86382 0.67455 0.64226 0.0
H4522 H 0.83702 0.63274 0.64303 0.0
H4523 H 0.84394 0.6518 0.65291 0.0
H4524 H 0.87116 0.68582 0.64272 0.0
H4525 H 0.85301 0.67487 0.64807 0.0
H4526 H 0.88032 0.62498 0.59013 0.0
H4527 H 0.86441 0.6127 0.59768 0.0
H4528 H 0.9013 0.6412 0.59825 0.0
H4529 H 0.90637 0.66133 0.60593 0.0
C4530 C 0.31516 0.90111 0.37431 0.0
C4531 C 0.32049 0.91554 0.38436 0.0
C4532 C 0.34029 0.90188 0.39883 0.0
C4533 C 0.33516 0.88752 0.38863 0.0
N4534 N 0.31564 0.87223 0.36881 0.0
N4535 N 0.33531 0.92895 0.40806 0.0
C4536 C 0.32185 0.88674 0.37708 0.0
C4537 C 0.33214 0.91565 0.39727 0.0
N4538 N 0.30424 0.90136 0.36173 0.0
N4539 N 0.35343 0.90251 0.4096 0.0
H4540 H 0.32971 0.9393 0.40712 0.0
H4541 H 0.3424 0.92934 0.41854 0.0
H4542 H 0.3592 0.89247 0.41151 0.0
H4543 H 0.35921 0.9131 0.41609 0.0
H4544 H 0.30129 0.89188 0.35287 0.0
H4545 H 0.29866 0.91149 0.3597 0.0
H4546 H 0.30497 0.87039 0.36124 0.0
H4547 H 0.32046 0.86158 0.37044 0.0
C4548 C 0.28638 0.05573 0.62945 0.0
C4549 C 0.28005 0.05349 0.64417 0.0
C4550 C 0.30832 0.06078 0.6565 0.0
C4551 C 0.31363 0.06713 0.64271 0.0
N4552 N 0.31099 0.05995 0.61498 0.0
N4553 N 0.28519 0.05364 0.67198 0.0
C4554 C 0.30361 0.06138 0.62873 0.0
C4555 C 0.29107 0.05598 0.65779 0.0
N4556 N 0.27586 0.05316 0.61626 0.0
N4557 N 0.31958 0.05605 0.66671 0.0
H4558 H 0.27273 0.04952 0.67338 0.0
H4559 H 0.29262 0.05683 0.68237 0.0
H4560 H 0.33149 0.05456 0.6635 0.0
H4561 H 0.31624 0.05046 0.67653 0.0
H4562 H 0.27944 0.05642 0.6055 0.0
H4563 H 0.26323 0.04877 0.61626 0.0
H4564 H 0.30476 0.05452 0.60452 0.0
H4565 H 0.32388 0.0625 0.61458 0.0
C4566 C 0.19491 0.08537 0.86634 0.0
C4567 C 0.19189 0.07608 0.879 0.0
C4568 C 0.16997 0.09211 0.88665 0.0
C4569 C 0.17382 0.1021 0.87464 0.0
N4570 N 0.19266 0.11055 0.85553 0.0
N4571 N 0.17912 0.07281 0.90315 0.0
C4572 C 0.18712 0.09941 0.86524 0.0
C4573 C 0.18023 0.08017 0.88978 0.0
N4574 N 0.2046 0.08039 0.85493 0.0
N4575 N 0.15595 0.09325 0.89442 0.0
H4576 H 0.18645 0.06406 0.90582 0.0
H4577 H 0.1721 0.07645 0.91221 0.0
H4578 H 0.14778 0.10139 0.89219 0.0
H4579 H 0.15158 0.08508 0.90206 0.0
H4580 H 0.20569 0.08565 0.84456 0.0
H4581 H 0.21038 0.07007 0.85512 0.0
H4582 H 0.20339 0.11007 0.84958 0.0
H4583 H 0.18757 0.12119 0.85468 0.0
C4584 C 0.69896 0.50767 0.63566 0.0
C4585 C 0.71541 0.50552 0.64052 0.0
C4586 C 0.70449 0.48055 0.6513 0.0
C4587 C 0.68829 0.48169 0.64485 0.0
N4588 N 0.67033 0.49529 0.62914 0.0
N4589 N 0.73422 0.48923 0.65166 0.0
C4590 C 0.68552 0.49507 0.6367 0.0
C4591 C 0.71827 0.49177 0.64801 0.0
N4592 N 0.6962 0.52181 0.6301 0.0
N4593 N 0.7066 0.46905 0.66108 0.0
H4594 H 0.74463 0.49744 0.65 0.0
H4595 H 0.73722 0.47849 0.65532 0.0
H4596 H 0.69677 0.46086 0.66405 0.0
H4597 H 0.71776 0.46859 0.66745 0.0
H4598 H 0.68438 0.52491 0.62798 0.0
H4599 H 0.70579 0.53105 0.62875 0.0
H4600 H 0.66804 0.50373 0.62155 0.0
H4601 H 0.66025 0.48624 0.62942 0.0
C4602 C 0.66104 0.40324 0.1588 0.0
C4603 C 0.65835 0.41306 0.1467 0.0
C4604 C 0.63647 0.39201 0.13393 0.0
C4605 C 0.6398 0.38188 0.14557 0.0
N4606 N 0.65704 0.37647 0.16748 0.0
N4607 N 0.64586 0.41579 0.1213 0.0
C4608 C 0.65268 0.38708 0.1575 0.0
C4609 C 0.64674 0.40714 0.13383 0.0
N4610 N 0.67103 0.40959 0.17184 0.0
N4611 N 0.62313 0.3874 0.12329 0.0
H4612 H 0.65318 0.42691 0.12081 0.0
H4613 H 0.63894 0.41138 0.11087 0.0
H4614 H 0.6156 0.37623 0.12273 0.0
H4615 H 0.61882 0.39505 0.11572 0.0
H4616 H 0.67205 0.40369 0.1818 0.0
H4617 H 0.67734 0.42137 0.17325 0.0
H4618 H 0.66745 0.37893 0.17539 0.0
H4619 H 0.65103 0.36462 0.16696 0.0
C4620 C 0.31699 0.95948 0.87011 0.0
C4621 C 0.30173 0.95326 0.8614 0.0
C4622 C 0.31555 0.9333 0.84624 0.0
C4623 C 0.33068 0.93918 0.85529 0.0
N4624 N 0.34698 0.95992 0.8732 0.0
N4625 N 0.2871 0.93701 0.83899 0.0
C4626 C 0.33176 0.95302 0.86634 0.0
C4627 C 0.30126 0.94109 0.84869 0.0
N4628 N 0.31717 0.97107 0.88242 0.0
N4629 N 0.31465 0.91976 0.83588 0.0
H4630 H 0.27641 0.94236 0.84062 0.0
H4631 H 0.28633 0.92936 0.82866 0.0
H4632 H 0.32501 0.91415 0.83339 0.0
H4633 H 0.30359 0.91359 0.83029 0.0
H4634 H 0.32734 0.97482 0.89044 0.0
H4635 H 0.30673 0.97648 0.8851 0.0
H4636 H 0.349 0.97082 0.88035 0.0
H4637 H 0.35793 0.95536 0.87067 0.0
C4638 C 0.1907 0.02519 0.33139 0.0
C4639 C 0.19626 0.02241 0.34663 0.0
C4640 C 0.17624 0.0389 0.3577 0.0
C4641 C 0.17228 0.0434 0.34269 0.0
N4642 N 0.17672 0.04207 0.31529 0.0
N4643 N 0.1955 0.02763 0.3745 0.0
C4644 C 0.1796 0.03672 0.32948 0.0
C4645 C 0.18925 0.02945 0.35985 0.0
N4646 N 0.19594 0.01668 0.31876 0.0
N4647 N 0.16722 0.04338 0.36985 0.0
H4648 H 0.20478 0.02054 0.37659 0.0
H4649 H 0.19235 0.03404 0.38457 0.0
H4650 H 0.15748 0.05015 0.36864 0.0
H4651 H 0.16829 0.03915 0.38072 0.0
H4652 H 0.19109 0.01687 0.30738 0.0
H4653 H 0.20422 0.00833 0.31978 0.0
H4654 H 0.18316 0.03911 0.3056 0.0
H4655 H 0.16868 0.05044 0.31342 0.0
C4656 C 0.39707 0.15447 0.44448 0.0
C4657 C 0.38507 0.16527 0.44478 0.0
C4658 C 0.3833 0.16346 0.41617 0.0
C4659 C 0.39519 0.15257 0.4159 0.0
N4660 N 0.41603 0.14036 0.42945 0.0
N4661 N 0.36925 0.18266 0.43148 0.0
C4662 C 0.40299 0.14902 0.42999 0.0
C4663 C 0.379 0.17063 0.43076 0.0
N4664 N 0.40216 0.14878 0.45797 0.0
N4665 N 0.37566 0.16643 0.40246 0.0
H4666 H 0.36583 0.188 0.442 0.0
H4667 H 0.36564 0.18823 0.42188 0.0
H4668 H 0.37908 0.16197 0.39159 0.0
H4669 H 0.36547 0.17263 0.40178 0.0
H4670 H 0.40927 0.13942 0.45835 0.0
H4671 H 0.3984 0.15272 0.46886 0.0
H4672 H 0.42339 0.13868 0.43924 0.0
H4673 H 0.42045 0.13597 0.41901 0.0
C4674 C 0.53985 0.61148 0.16913 0.0
C4675 C 0.54373 0.62683 0.17802 0.0
C4676 C 0.56128 0.63667 0.15779 0.0
C4677 C 0.55732 0.62134 0.14887 0.0
N4678 N 0.53924 0.59591 0.14386 0.0
N4679 N 0.55421 0.65514 0.17898 0.0
C4680 C 0.54536 0.60934 0.15383 0.0
C4681 C 0.55313 0.63981 0.17168 0.0
N4682 N 0.53181 0.59868 0.17559 0.0
N4683 N 0.57353 0.64787 0.15357 0.0
H4684 H 0.54828 0.65776 0.18912 0.0
H4685 H 0.55955 0.66535 0.17421 0.0
H4686 H 0.57984 0.64607 0.14354 0.0
H4687 H 0.57829 0.6585 0.16059 0.0
H4688 H 0.53046 0.58681 0.17037 0.0
H4689 H 0.52752 0.59968 0.18672 0.0
H4690 H 0.52941 0.5874 0.14624 0.0
H4691 H 0.54289 0.59413 0.13251 0.0
C4692 C 0.07187 0.83391 0.9763 0.0
C4693 C 0.08362 0.82309 0.9782 0.0
C4694 C 0.09573 0.8304 0.95408 0.0
C4695 C 0.08564 0.84283 0.95341 0.0
N4696 N 0.06502 0.85755 0.9647 0.0
N4697 N 0.10827 0.81257 0.97002 0.0
C4698 C 0.07378 0.84479 0.96463 0.0
C4699 C 0.0959 0.82166 0.96732 0.0
N4700 N 0.05878 0.83362 0.98552 0.0
N4701 N 0.10488 0.82666 0.9418 0.0
H4702 H 0.10902 0.80604 0.97961 0.0
H4703 H 0.11863 0.81261 0.96348 0.0
H4704 H 0.10479 0.83258 0.93175 0.0
H4705 H 0.11114 0.81664 0.94087 0.0
H4706 H 0.04887 0.84002 0.98373 0.0
H4707 H 0.0571 0.82587 0.99417 0.0
H4708 H 0.05762 0.86071 0.97361 0.0
H4709 H 0.06607 0.86574 0.9564 0.0
C4710 C 0.93542 0.39338 0.68117 0.0
C4711 C 0.93264 0.40343 0.69468 0.0
C4712 C 0.92053 0.42164 0.67824 0.0
C4713 C 0.92455 0.41234 0.66469 0.0
N4714 N 0.9393 0.39146 0.6535 0.0
N4715 N 0.9257 0.42877 0.70613 0.0
C4716 C 0.93292 0.39874 0.66619 0.0
C4717 C 0.92615 0.41807 0.69321 0.0
N4718 N 0.94007 0.37856 0.68261 0.0
N4719 N 0.91065 0.43341 0.67687 0.0
H4720 H 0.92968 0.42658 0.71731 0.0
H4721 H 0.92285 0.44042 0.70559 0.0
H4722 H 0.90585 0.43621 0.66619 0.0
H4723 H 0.90583 0.43935 0.68636 0.0
H4724 H 0.94046 0.36996 0.67314 0.0
H4725 H 0.94226 0.37433 0.69337 0.0
H4726 H 0.94694 0.38254 0.6542 0.0
H4727 H 0.93846 0.39547 0.6425 0.0
C4728 C 0.3839 0.85106 0.06945 0.0
C4729 C 0.39368 0.8561 0.0573 0.0
C4730 C 0.41264 0.87461 0.07632 0.0
C4731 C 0.40146 0.87138 0.08796 0.0
N4732 N 0.37646 0.85669 0.09605 0.0
N4733 N 0.41715 0.87285 0.04873 0.0
C4734 C 0.38719 0.85946 0.0847 0.0
C4735 C 0.40817 0.86775 0.06065 0.0
N4736 N 0.37153 0.83817 0.06635 0.0
N4737 N 0.42749 0.88433 0.08029 0.0
H4738 H 0.41452 0.86784 0.03717 0.0
H4739 H 0.42662 0.88267 0.05006 0.0
H4740 H 0.43094 0.88972 0.09162 0.0
H4741 H 0.43695 0.886 0.07276 0.0
H4742 H 0.36486 0.83287 0.07488 0.0
H4743 H 0.36881 0.83188 0.05526 0.0
H4744 H 0.36481 0.84969 0.09403 0.0
H4745 H 0.37893 0.86205 0.10752 0.0
C4746 C 0.93748 0.6223 0.82851 0.0
C4747 C 0.9522 0.63363 0.83182 0.0
C4748 C 0.94551 0.63827 0.85912 0.0
C4749 C 0.93042 0.62747 0.85559 0.0
N4750 N 0.91016 0.61231 0.83625 0.0
N4751 N 0.96863 0.6548 0.84925 0.0
C4752 C 0.92585 0.62043 0.84006 0.0
C4753 C 0.95569 0.6424 0.84682 0.0
N4754 N 0.93494 0.61278 0.81456 0.0
N4755 N 0.95063 0.64381 0.87427 0.0
H4756 H 0.97636 0.65802 0.84051 0.0
H4757 H 0.97081 0.66274 0.85944 0.0
H4758 H 0.9437 0.64089 0.88361 0.0
H4759 H 0.96236 0.65024 0.87772 0.0
H4760 H 0.92547 0.603 0.81221 0.0
H4761 H 0.94308 0.61376 0.80571 0.0
H4762 H 0.9055 0.60837 0.82483 0.0
H4763 H 0.90117 0.61094 0.84433 0.0
C4764 C 0.07847 0.16004 0.55147 0.0
C4765 C 0.08396 0.15134 0.53829 0.0
C4766 C 0.08632 0.1284 0.5534 0.0
C4767 C 0.08298 0.13787 0.56707 0.0
N4768 N 0.07741 0.16333 0.5796 0.0
N4769 N 0.09469 0.12781 0.52693 0.0
C4770 C 0.07925 0.15381 0.56623 0.0
C4771 C 0.08821 0.13562 0.53929 0.0
N4772 N 0.07235 0.17417 0.54981 0.0
N4773 N 0.08725 0.11232 0.55385 0.0
H4774 H 0.09607 0.13252 0.51629 0.0
H4775 H 0.09988 0.11722 0.52755 0.0
H4776 H 0.08572 0.10659 0.56394 0.0
H4777 H 0.0879 0.10434 0.54396 0.0
H4778 H 0.06654 0.18026 0.55852 0.0
H4779 H 0.07186 0.17913 0.53923 0.0
H4780 H 0.07658 0.17561 0.57998 0.0
H4781 H 0.07793 0.15925 0.59059 0.0
C4782 C 0.54075 0.3852 0.34785 0.0
C4783 C 0.54044 0.37222 0.33596 0.0
C4784 C 0.55711 0.35827 0.35341 0.0
C4785 C 0.55767 0.37139 0.36521 0.0
N4786 N 0.54657 0.39512 0.37527 0.0
N4787 N 0.54442 0.34473 0.32855 0.0
C4788 C 0.54828 0.38412 0.36293 0.0
C4789 C 0.54731 0.35816 0.33917 0.0
N4790 N 0.53458 0.39889 0.3445 0.0
N4791 N 0.5667 0.34639 0.35543 0.0
H4792 H 0.53735 0.34437 0.31802 0.0
H4793 H 0.54768 0.33357 0.33075 0.0
H4794 H 0.57382 0.34591 0.36575 0.0
H4795 H 0.56842 0.33755 0.34659 0.0
H4796 H 0.53625 0.40955 0.35203 0.0
H4797 H 0.52856 0.39993 0.33374 0.0
H4798 H 0.53872 0.40388 0.37481 0.0
H4799 H 0.55186 0.39451 0.38644 0.0
C4800 C 0.41464 0.41972 0.20829 0.0
C4801 C 0.43218 0.42369 0.2084 0.0
C4802 C 0.42871 0.43797 0.18524 0.0
C4803 C 0.41148 0.43182 0.18373 0.0
N4804 N 0.38804 0.41578 0.19318 0.0
N4805 N 0.45622 0.43565 0.19642 0.0
C4806 C 0.40438 0.42258 0.1952 0.0
C4807 C 0.43931 0.43273 0.19681 0.0
N4808 N 0.40781 0.41335 0.22078 0.0
N4809 N 0.43488 0.44895 0.17563 0.0
H4810 H 0.4644 0.43223 0.20479 0.0
H4811 H 0.46217 0.44046 0.18723 0.0
H4812 H 0.42738 0.45308 0.16713 0.0
H4813 H 0.44699 0.45507 0.17701 0.0
H4814 H 0.39508 0.41172 0.22218 0.0
H4815 H 0.415 0.41102 0.23047 0.0
H4816 H 0.38264 0.40735 0.20011 0.0
H4817 H 0.38007 0.41769 0.18388 0.0
C4818 C 0.35655 0.72607 0.91423 0.0
C4819 C 0.36092 0.72614 0.93036 0.0
C4820 C 0.37201 0.70073 0.92472 0.0
C4821 C 0.37164 0.70306 0.90866 0.0
N4822 N 0.36206 0.7174 0.88775 0.0
N4823 N 0.35866 0.70613 0.94846 0.0
C4824 C 0.36341 0.71555 0.90327 0.0
C4825 C 0.36462 0.7113 0.93514 0.0
N4826 N 0.34387 0.73399 0.90964 0.0
N4827 N 0.38 0.68898 0.93026 0.0
H4828 H 0.35057 0.71243 0.95478 0.0
H4829 H 0.35971 0.69471 0.95178 0.0
H4830 H 0.38608 0.68124 0.92318 0.0
H4831 H 0.38179 0.68796 0.94214 0.0
H4832 H 0.33897 0.73318 0.89813 0.0
H4833 H 0.33683 0.73951 0.91776 0.0
H4834 H 0.35784 0.72743 0.88355 0.0
H4835 H 0.3659 0.70937 0.87919 0.0
C4836 C 0.06757 0.58397 0.71515 0.0
C4837 C 0.07066 0.60057 0.72099 0.0
C4838 C 0.09953 0.60186 0.71387 0.0
C4839 C 0.09539 0.58639 0.70532 0.0
N4840 N 0.07584 0.56222 0.69802 0.0
N4841 N 0.08956 0.6255 0.72637 0.0
C4842 C 0.07961 0.57714 0.7063 0.0
C4843 C 0.08677 0.60949 0.7208 0.0
N4844 N 0.05304 0.57488 0.71801 0.0
N4845 N 0.11566 0.60926 0.7151 0.0
H4846 H 0.08064 0.63136 0.73187 0.0
H4847 H 0.10036 0.63321 0.72486 0.0
H4848 H 0.12515 0.60384 0.71007 0.0
H4849 H 0.1199 0.61995 0.7222 0.0
H4850 H 0.0505 0.56241 0.71525 0.0
H4851 H 0.04408 0.57969 0.72447 0.0
H4852 H 0.06395 0.55563 0.69666 0.0
H4853 H 0.08457 0.5567 0.69188 0.0
C4854 C 0.09251 0.28323 0.41872 0.0
C4855 C 0.10154 0.27005 0.41573 0.0
C4856 C 0.11252 0.28276 0.39321 0.0
C4857 C 0.1062 0.29717 0.39829 0.0
N4858 N 0.09131 0.31155 0.41713 0.0
N4859 N 0.1072 0.25384 0.3926 0.0
C4860 C 0.09654 0.2975 0.41142 0.0
C4861 C 0.10834 0.26866 0.40091 0.0
N4862 N 0.07824 0.28112 0.42628 0.0
N4863 N 0.12194 0.28218 0.38067 0.0
H4864 H 0.09987 0.24377 0.39599 0.0
H4865 H 0.11071 0.25211 0.38122 0.0
H4866 H 0.12459 0.29189 0.37416 0.0
H4867 H 0.12812 0.27239 0.37753 0.0
H4868 H 0.07031 0.28984 0.42751 0.0
H4869 H 0.07316 0.2698 0.42915 0.0
H4870 H 0.08549 0.31267 0.42754 0.0
H4871 H 0.09428 0.32241 0.41234 0.0
C4872 C 0.41695 0.62136 0.30528 0.0
C4873 C 0.4216 0.6084 0.29548 0.0
C4874 C 0.40096 0.58926 0.30641 0.0
C4875 C 0.39563 0.60234 0.31555 0.0
N4876 N 0.39635 0.63108 0.32159 0.0
N4877 N 0.41624 0.58052 0.28457 0.0
C4878 C 0.40303 0.61847 0.31439 0.0
C4879 C 0.41299 0.59251 0.29535 0.0
N4880 N 0.42614 0.63637 0.30621 0.0
N4881 N 0.39538 0.57371 0.30896 0.0
H4882 H 0.42524 0.58237 0.27656 0.0
H4883 H 0.40914 0.56912 0.2827 0.0
H4884 H 0.38697 0.57078 0.31723 0.0
H4885 H 0.40019 0.56374 0.3039 0.0
H4886 H 0.42469 0.64585 0.31449 0.0
H4887 H 0.43608 0.63908 0.29937 0.0
H4888 H 0.40001 0.6431 0.31988 0.0
H4889 H 0.38603 0.62947 0.32819 0.0
C4890 C 0.13079 0.71514 0.11408 0.0
C4891 C 0.12054 0.71305 0.09993 0.0
C4892 C 0.11804 0.68345 0.09988 0.0
C4893 C 0.12897 0.68568 0.11362 0.0
N4894 N 0.14788 0.70324 0.13242 0.0
N4895 N 0.10379 0.69562 0.07942 0.0
C4896 C 0.13596 0.70143 0.12029 0.0
C4897 C 0.114 0.69727 0.09281 0.0
N4898 N 0.1348 0.73021 0.12206 0.0
N4899 N 0.11164 0.66808 0.09366 0.0
H4900 H 0.10094 0.70545 0.07386 0.0
H4901 H 0.09801 0.68469 0.07363 0.0
H4902 H 0.11444 0.65783 0.09855 0.0
H4903 H 0.10367 0.66516 0.08366 0.0
H4904 H 0.14055 0.73235 0.13329 0.0
H4905 H 0.13102 0.74054 0.11809 0.0
H4906 H 0.15483 0.71428 0.13676 0.0
H4907 H 0.1519 0.69346 0.13731 0.0
C4908 C 0.0698 0.41746 0.81728 0.0
C4909 C 0.06343 0.40296 0.80768 0.0
C4910 C 0.08908 0.39182 0.81392 0.0
C4911 C 0.09456 0.4055 0.82492 0.0
N4912 N 0.08924 0.43051 0.83861 0.0
N4913 N 0.06589 0.3754 0.79845 0.0
C4914 C 0.08472 0.41816 0.82697 0.0
C4915 C 0.0728 0.38989 0.80639 0.0
N4916 N 0.06177 0.43069 0.81685 0.0
N4917 N 0.09964 0.38087 0.8104 0.0
H4918 H 0.05402 0.3735 0.79275 0.0
H4919 H 0.07133 0.3649 0.79859 0.0
H4920 H 0.11172 0.38199 0.81556 0.0
H4921 H 0.09703 0.37154 0.80135 0.0
H4922 H 0.06671 0.44211 0.82226 0.0
H4923 H 0.05077 0.43058 0.80998 0.0
H4924 H 0.08164 0.4391 0.84184 0.0
H4925 H 0.10008 0.4315 0.84591 0.0
C4926 C 0.33413 0.28519 0.57832 0.0
C4927 C 0.33893 0.2856 0.56282 0.0
C4928 C 0.34778 0.31477 0.56843 0.0
C4929 C 0.34742 0.31327 0.58461 0.0
N4930 N 0.33906 0.29707 0.60514 0.0
N4931 N 0.33598 0.30315 0.54284 0.0
C4932 C 0.34 0.29856 0.58963 0.0
C4933 C 0.34169 0.30113 0.55755 0.0
N4934 N 0.32193 0.27345 0.58157 0.0
N4935 N 0.35395 0.32912 0.56337 0.0
H4936 H 0.32894 0.29364 0.53559 0.0
H4937 H 0.33621 0.31443 0.53877 0.0
H4938 H 0.35775 0.33964 0.57091 0.0
H4939 H 0.35606 0.33025 0.55172 0.0
H4940 H 0.31687 0.27334 0.59236 0.0
H4941 H 0.3153 0.26531 0.57272 0.0
H4942 H 0.33533 0.28603 0.60934 0.0
H4943 H 0.34307 0.3066 0.61379 0.0
C4944 C 0.14977 0.4018 0.37893 0.0
C4945 C 0.15718 0.40585 0.36513 0.0
C4946 C 0.15149 0.37734 0.3543 0.0
C4947 C 0.14152 0.37391 0.36684 0.0
N4948 N 0.13038 0.38303 0.39088 0.0
N4949 N 0.16497 0.39774 0.33938 0.0
C4950 C 0.14068 0.38611 0.37926 0.0
C4951 C 0.15825 0.39363 0.3528 0.0
N4952 N 0.15143 0.41302 0.39171 0.0
N4953 N 0.1544 0.36493 0.34383 0.0
H4954 H 0.17041 0.40946 0.33806 0.0
H4955 H 0.16434 0.38979 0.32926 0.0
H4956 H 0.14963 0.3529 0.34475 0.0
H4957 H 0.16268 0.36631 0.33517 0.0
H4958 H 0.14774 0.4104 0.40261 0.0
H4959 H 0.15794 0.42463 0.39176 0.0
H4960 H 0.12763 0.39194 0.39918 0.0
H4961 H 0.12367 0.37169 0.39168 0.0
C4962 C 0.6687 0.09687 0.63393 0.0
C4963 C 0.68208 0.09606 0.62419 0.0
C4964 C 0.68165 0.12444 0.61958 0.0
C4965 C 0.66751 0.12487 0.62846 0.0
N4966 N 0.64554 0.1105 0.64142 0.0
N4967 N 0.69974 0.10806 0.60581 0.0
C4968 C 0.6605 0.1108 0.63491 0.0
C4969 C 0.68806 0.10955 0.61639 0.0
N4970 N 0.66402 0.08441 0.64252 0.0
N4971 N 0.68952 0.13841 0.61494 0.0
H4972 H 0.70503 0.09751 0.60357 0.0
H4973 H 0.70327 0.11679 0.59844 0.0
H4974 H 0.68544 0.14956 0.61729 0.0
H4975 H 0.70089 0.13923 0.60991 0.0
H4976 H 0.65577 0.0851 0.65125 0.0
H4977 H 0.66934 0.07378 0.64182 0.0
H4978 H 0.63888 0.10008 0.64479 0.0
H4979 H 0.63891 0.12028 0.64206 0.0
C4980 C 0.71083 0.96983 0.35043 0.0
C4981 C 0.72527 0.9662 0.3586 0.0
C4982 C 0.70864 0.94265 0.36743 0.0
C4983 C 0.69388 0.94766 0.36122 0.0
N4984 N 0.68081 0.96786 0.34903 0.0
N4985 N 0.73752 0.95047 0.37686 0.0
C4986 C 0.69491 0.96166 0.35317 0.0
C4987 C 0.7241 0.95291 0.36759 0.0
N4988 N 0.71236 0.98094 0.33991 0.0
N4989 N 0.708 0.92784 0.37281 0.0
H4990 H 0.74904 0.95776 0.37747 0.0
H4991 H 0.73682 0.9421 0.38499 0.0
H4992 H 0.697 0.91979 0.37259 0.0
H4993 H 0.71857 0.92286 0.37598 0.0
H4994 H 0.70248 0.9829 0.33246 0.0
H4995 H 0.72384 0.98708 0.33758 0.0
H4996 H 0.68102 0.97896 0.34461 0.0
H4997 H 0.66896 0.96281 0.35146 0.0
C4998 C 0.82796 0.90255 0.16002 0.0
C4999 C 0.82419 0.9121 0.148 0.0
C5000 C 0.83901 0.89588 0.1298 0.0
C5001 C 0.84192 0.88575 0.14156 0.0
N5002 N 0.83622 0.87731 0.16677 0.0
N5003 N 0.82294 0.91581 0.12069 0.0
C5004 C 0.83546 0.88844 0.15635 0.0
C5005 C 0.82874 0.90812 0.13264 0.0
N5006 N 0.82501 0.90732 0.17506 0.0
N5007 N 0.84669 0.89435 0.11619 0.0
H5008 H 0.81538 0.92482 0.12232 0.0
H5009 H 0.82435 0.91228 0.109 0.0
H5010 H 0.85434 0.8856 0.11364 0.0
H5011 H 0.84658 0.90258 0.10795 0.0
H5012 H 0.82921 0.90191 0.18457 0.0
H5013 H 0.81954 0.91758 0.17823 0.0
H5014 H 0.83028 0.87774 0.17712 0.0
H5015 H 0.84149 0.86677 0.1644 0.0
C5016 C 0.28187 0.55486 0.33333 0.0
C5017 C 0.2833 0.53841 0.33472 0.0
C5018 C 0.31378 0.54485 0.33635 0.0
C5019 C 0.31234 0.56126 0.33478 0.0
N5020 N 0.29533 0.58103 0.32765 0.0
N5021 N 0.30022 0.51701 0.33342 0.0
C5022 C 0.29644 0.56594 0.33185 0.0
C5023 C 0.29917 0.53317 0.33486 0.0
N5024 N 0.26676 0.56012 0.3343 0.0
N5025 N 0.32898 0.54053 0.34016 0.0
H5026 H 0.28973 0.50819 0.33224 0.0
H5027 H 0.31131 0.51236 0.3319 0.0
H5028 H 0.33999 0.54865 0.34122 0.0
H5029 H 0.33055 0.52917 0.3433 0.0
H5030 H 0.26526 0.57228 0.33521 0.0
H5031 H 0.25578 0.55245 0.33541 0.0
H5032 H 0.28418 0.58471 0.32395 0.0
H5033 H 0.30582 0.58934 0.32639 0.0
C5034 C 0.35233 0.59295 0.88067 0.0
C5035 C 0.34272 0.58741 0.86642 0.0
C5036 C 0.35009 0.61391 0.85711 0.0
C5037 C 0.36105 0.61886 0.87064 0.0
N5038 N 0.37465 0.61231 0.89424 0.0
N5039 N 0.33471 0.59156 0.83998 0.0
C5040 C 0.36272 0.60817 0.88216 0.0
C5041 C 0.34222 0.59761 0.85432 0.0
N5042 N 0.35114 0.58386 0.89292 0.0
N5043 N 0.3468 0.62492 0.84715 0.0
H5044 H 0.32887 0.57966 0.83745 0.0
H5045 H 0.33555 0.59788 0.83023 0.0
H5046 H 0.35214 0.63703 0.84889 0.0
H5047 H 0.33763 0.62243 0.83797 0.0
H5048 H 0.35642 0.58802 0.90411 0.0
H5049 H 0.34367 0.57265 0.89226 0.0
H5050 H 0.37771 0.60432 0.90203 0.0
H5051 H 0.3825 0.62334 0.89573 0.0
C5052 C 0.70957 0.04667 0.18057 0.0
C5053 C 0.71156 0.03182 0.1721 0.0
C5054 C 0.68168 0.02699 0.16426 0.0
C5055 C 0.68035 0.04306 0.17036 0.0
N5056 N 0.69376 0.06903 0.18283 0.0
N5057 N 0.69979 0.00793 0.15519 0.0
C5058 C 0.6944 0.05307 0.17839 0.0
C5059 C 0.69764 0.02188 0.1639 0.0
N5060 N 0.72227 0.05469 0.19065 0.0
N5061 N 0.66762 0.01654 0.15905 0.0
H5062 H 0.7112 1.00358 0.15497 0.0
H5063 H 0.69055 1.00118 0.14743 0.0
H5064 H 0.65572 0.01982 0.15942 0.0
H5065 H 0.66758 1.00425 0.15584 0.0
H5066 H 0.72104 0.06476 0.19831 0.0
H5067 H 0.73355 0.05028 0.19241 0.0
H5068 H 0.70417 0.07725 0.18713 0.0
H5069 H 0.68321 0.07451 0.18092 0.0
C5070 C 0.83363 0.00788 0.6405 0.0
C5071 C 0.81883 0.99992 0.64587 0.0
C5072 C 0.83432 0.97885 0.65456 0.0
C5073 C 0.84935 0.98753 0.65034 0.0
N5074 N 0.86378 0.01207 0.64239 0.0
N5075 N 0.80571 0.97962 0.66076 0.0
C5076 C 0.84912 1.00257 0.64421 0.0
C5077 C 0.81938 0.98595 0.65376 0.0
N5078 N 0.83282 0.02011 0.63131 0.0
N5079 N 0.83402 0.96345 0.65843 0.0
H5080 H 0.79458 0.98448 0.66042 0.0
H5081 H 0.80588 0.97051 0.66807 0.0
H5082 H 0.84449 0.95758 0.65871 0.0
H5083 H 0.82308 0.95592 0.65993 0.0
H5084 H 0.84289 0.02513 0.62561 0.0
H5085 H 0.82173 0.02428 0.62818 0.0
H5086 H 0.86444 0.02387 0.63951 0.0
H5087 H 0.87539 0.00879 0.64529 0.0
loop_
_geom_bond_atom_site_label_1
_geom_bond_atom_site_label_2
_geom_bond_distance
_geom_bond_site_symmetry_2
_ccdc_geom_bond_type
C0 C1 1.264 . S
C0 C5 1.479 . S
C0 C10 1.465 . S
C1 C0 1.264 . S
C1 C3 1.339 . S
C1 H28 0.931 . S
C2 C3 1.395 . S
C2 C4 1.320 . S
C3 C1 1.339 . S
C3 C2 1.395 . S
C3 H29 0.929 . S
C4 C2 1.320 . S
C4 C5 1.405 . S
C4 H30 0.930 . S
C5 C0 1.479 . S
C5 C4 1.405 . S
C5 H31 0.931 . S
U6 O7 2.454 . S
U6 O8 2.458 1_655 S
U6 C9 2.984 1_655 S
U6 C10 2.847 . S
U6 C23 2.882 1_655 S
U6 O24 2.441 . S
U6 O25 2.420 . S
U6 O26 2.455 1_655 S
U6 O27 2.440 1_655 S
O7 U6 2.454 . S
O7 C9 1.353 1_655 S
O8 U6 2.458 1_455 S
O8 C9 1.286 . S
C9 U6 2.984 1_455 S
C9 O7 1.353 1_455 S
C9 O8 1.286 . S
C9 C11 1.363 . S
C10 C0 1.465 . S
C10 U6 2.847 . S
C10 O24 1.249 . S
C10 O25 1.202 . S
C11 C9 1.363 . S
C11 C13 1.431 . S
C11 C16 1.342 . S
C12 C13 1.324 . S
C12 C15 1.461 . S
C12 H32 0.932 1_455 S
C13 C11 1.431 . S
C13 C12 1.324 . S
C13 H33 0.894 1_455 S
C14 C15 1.474 . S
C14 C16 1.285 . S
C14 H34 0.929 . S
C15 C12 1.461 . S
C15 C14 1.474 . S
C16 C11 1.342 . S
C16 C14 1.285 . S
C16 H35 0.930 . S
C17 C20 1.424 . S
C17 C22 1.245 . S
C17 C23 1.428 . S
C18 C21 1.260 . S
C18 C22 1.477 . S
C18 H36 0.932 . S
C19 C20 1.384 . S
C19 C21 1.479 . S
C19 H37 0.929 . S
C20 C17 1.424 . S
C20 C19 1.384 . S
C20 H38 0.928 . S
C21 C18 1.260 . S
C21 C19 1.479 . S
C22 C17 1.245 . S
C22 C18 1.477 . S
C22 H39 0.932 . S
C23 U6 2.882 1_455 S
C23 C17 1.428 . S
C23 O26 1.301 . S
C23 O27 1.325 . S
O24 U6 2.441 . S
O24 C10 1.249 . S
O25 U6 2.420 . S
O25 C10 1.202 . S
O26 U6 2.455 1_455 S
O26 C23 1.301 . S
O27 U6 2.440 1_455 S
O27 C23 1.325 . S
H28 C1 0.931 . S
H29 C3 0.929 . S
H30 C4 0.930 . S
H31 C5 0.931 . S
H32 C12 0.932 1_655 S
H33 C13 0.894 1_655 S
H34 C14 0.929 . S
H35 C16 0.930 . S
H36 C18 0.932 . S
H37 C19 0.929 . S
H38 C20 0.928 . S
H39 C22 0.932 . S
C40 C41 1.264 . S
C40 C45 1.479 . S
C40 C50 1.465 . S
C41 C40 1.264 . S
C41 C43 1.339 . S
C41 H68 0.931 . S
C42 C43 1.395 . S
C42 C44 1.320 . S
C43 C41 1.339 . S
C43 C42 1.395 . S
C43 H69 0.929 . S
C44 C42 1.320 . S
C44 C45 1.405 . S
C44 H70 0.930 . S
C45 C40 1.479 . S
C45 C44 1.405 . S
C45 H71 0.931 . S
U46 O47 2.454 . S
U46 O48 2.458 . S
U46 C49 2.984 . S
U46 C50 2.847 . S
U46 C63 2.882 . S
U46 O64 2.441 . S
U46 O65 2.420 . S
U46 O66 2.455 . S
U46 O67 2.449 . S
O47 U46 2.454 . S
O47 C49 1.353 . S
O48 U46 2.458 . S
O48 C49 1.286 . S
C49 U46 2.984 . S
C49 O47 1.353 . S
C49 O48 1.286 . S
C49 C51 1.363 . S
C50 C40 1.465 . S
C50 U46 2.847 . S
C50 O64 1.249 . S
C50 O65 1.202 . S
C51 C49 1.363 . S
C51 C53 1.408 . S
C51 C56 1.342 . S
C52 C53 1.310 . S
C52 C55 1.461 . S
C52 H72 0.932 . S
C53 C51 1.408 . S
C53 C52 1.310 . S
C53 H73 0.930 . S
C54 C55 1.474 . S
C54 C56 1.285 . S
C54 H74 0.929 . S
C55 C52 1.461 . S
C55 C54 1.474 . S
C56 C51 1.342 . S
C56 C54 1.285 . S
C56 H75 0.930 . S
C57 C60 1.424 . S
C57 C62 1.245 . S
C57 C63 1.428 . S
C58 C61 1.260 . S
C58 C62 1.477 . S
C58 H76 0.932 . S
C59 C60 1.384 . S
C59 C61 1.479 . S
C59 H77 0.929 . S
C60 C57 1.424 . S
C60 C59 1.384 . S
C60 H78 0.928 . S
C61 C58 1.260 . S
C61 C59 1.479 . S
C62 C57 1.245 . S
C62 C58 1.477 . S
C62 H79 0.932 . S
C63 U46 2.882 . S
C63 C57 1.428 . S
C63 O66 1.301 . S
C63 O67 1.282 . S
O64 U46 2.441 . S
O64 C50 1.249 . S
O65 U46 2.420 . S
O65 C50 1.202 . S
O66 U46 2.455 . S
O66 C63 1.301 . S
O67 U46 2.449 . S
O67 C63 1.282 . S
H68 C41 0.931 . S
H69 C43 0.929 . S
H70 C44 0.930 . S
H71 C45 0.931 . S
H72 C52 0.932 . S
H73 C53 0.930 . S
H74 C54 0.929 . S
H75 C56 0.930 . S
H76 C58 0.932 . S
H77 C59 0.929 . S
H78 C60 0.928 . S
H79 C62 0.932 . S
C80 C81 1.264 . S
C80 C85 1.479 . S
C80 C90 1.465 . S
C81 C80 1.264 . S
C81 C83 1.339 . S
C81 H108 0.931 . S
C82 C83 1.395 . S
C82 C84 1.320 . S
C83 C81 1.339 . S
C83 C82 1.395 . S
C83 H109 0.929 . S
C84 C82 1.320 . S
C84 C85 1.405 . S
C84 H110 0.930 . S
C85 C80 1.479 . S
C85 C84 1.405 . S
C85 H111 0.931 . S
U86 O87 2.454 . S
U86 O88 2.458 . S
U86 C89 2.984 . S
U86 C90 2.847 . S
U86 C103 2.882 . S
U86 O104 2.441 . S
U86 O105 2.420 . S
U86 O106 2.455 . S
U86 O107 2.449 . S
O87 U86 2.454 . S
O87 C89 1.353 . S
O88 U86 2.458 . S
O88 C89 1.286 . S
C89 U86 2.984 . S
C89 O87 1.353 . S
C89 O88 1.286 . S
C89 C91 1.363 . S
C90 C80 1.465 . S
C90 U86 2.847 . S
C90 O104 1.249 . S
C90 O105 1.202 . S
C91 C89 1.363 . S
C91 C93 1.408 . S
C91 C96 1.342 . S
C92 C93 1.310 . S
C92 C95 1.461 . S
C92 H112 0.932 . S
C93 C91 1.408 . S
C93 C92 1.310 . S
C93 H113 0.930 . S
C94 C95 1.474 . S
C94 C96 1.285 . S
C94 H114 0.929 . S
C95 C92 1.461 . S
C95 C94 1.474 . S
C96 C91 1.342 . S
C96 C94 1.285 . S
C96 H115 0.930 . S
C97 C100 1.424 . S
C97 C102 1.245 . S
C97 C103 1.428 . S
C98 C101 1.260 . S
C98 C102 1.477 . S
C98 H116 0.932 . S
C99 C100 1.384 . S
C99 C101 1.479 . S
C99 H117 0.929 . S
C100 C97 1.424 . S
C100 C99 1.384 . S
C100 H118 0.928 . S
C101 C98 1.260 . S
C101 C99 1.479 . S
C102 C97 1.245 . S
C102 C98 1.477 . S
C102 H119 0.932 . S
C103 U86 2.882 . S
C103 C97 1.428 . S
C103 O106 1.301 . S
C103 O107 1.282 . S
O104 U86 2.441 . S
O104 C90 1.249 . S
O105 U86 2.420 . S
O105 C90 1.202 . S
O106 U86 2.455 . S
O106 C103 1.301 . S
O107 U86 2.449 . S
O107 C103 1.282 . S
H108 C81 0.931 . S
H109 C83 0.929 . S
H110 C84 0.930 . S
H111 C85 0.931 . S
H112 C92 0.932 . S
H113 C93 0.930 . S
H114 C94 0.929 . S
H115 C96 0.930 . S
H116 C98 0.932 . S
H117 C99 0.929 . S
H118 C100 0.928 . S
H119 C102 0.932 . S
C120 C121 1.264 . S
C120 C125 1.479 . S
C120 C130 1.465 . S
C121 C120 1.264 . S
C121 C123 1.339 . S
C121 H148 0.931 . S
C122 C123 1.395 . S
C122 C124 1.320 . S
C123 C121 1.339 . S
C123 C122 1.395 . S
C123 H149 0.929 . S
C124 C122 1.320 . S
C124 C125 1.405 . S
C124 H150 0.930 . S
C125 C120 1.479 . S
C125 C124 1.405 . S
C125 H151 0.931 . S
U126 O127 2.454 . S
U126 O128 2.458 . S
U126 C129 2.984 . S
U126 C130 2.847 . S
U126 C143 2.882 . S
U126 O144 2.441 . S
U126 O145 2.420 . S
U126 O146 2.455 . S
U126 O147 2.449 . S
O127 U126 2.454 . S
O127 C129 1.353 . S
O128 U126 2.458 . S
O128 C129 1.286 . S
C129 U126 2.984 . S
C129 O127 1.353 . S
C129 O128 1.286 . S
C129 C131 1.363 . S
C130 C120 1.465 . S
C130 U126 2.847 . S
C130 O144 1.249 . S
C130 O145 1.202 . S
C131 C129 1.363 . S
C131 C133 1.408 1_554 S
C131 C136 1.334 1_554 S
C132 C133 1.310 . S
C132 C135 1.461 . S
C132 H152 0.932 . S
C133 C131 1.408 1_556 S
C133 C132 1.310 . S
C133 H153 0.930 . S
C134 C135 1.474 . S
C134 C136 1.325 . S
C134 H154 0.929 . S
C135 C132 1.461 . S
C135 C134 1.474 . S
C136 C131 1.334 1_556 S
C136 C134 1.325 . S
C136 H155 0.900 1_556 S
C137 C140 1.424 . S
C137 C142 1.245 . S
C137 C143 1.428 . S
C138 C141 1.260 . S
C138 C142 1.477 . S
C138 H156 0.932 . S
C139 C140 1.384 . S
C139 C141 1.479 . S
C139 H157 0.929 . S
C140 C137 1.424 . S
C140 C139 1.384 . S
C140 H158 0.928 . S
C141 C138 1.260 . S
C141 C139 1.479 . S
C142 C137 1.245 . S
C142 C138 1.477 . S
C142 H159 0.932 . S
C143 U126 2.882 . S
C143 C137 1.428 . S
C143 O146 1.301 . S
C143 O147 1.282 . S
O144 U126 2.441 . S
O144 C130 1.249 . S
O145 U126 2.420 . S
O145 C130 1.202 . S
O146 U126 2.455 . S
O146 C143 1.301 . S
O147 U126 2.449 . S
O147 C143 1.282 . S
H148 C121 0.931 . S
H149 C123 0.929 . S
H150 C124 0.930 . S
H151 C125 0.931 . S
H152 C132 0.932 . S
H153 C133 0.930 . S
H154 C134 0.929 . S
H155 C136 0.900 1_554 S
H156 C138 0.932 . S
H157 C139 0.929 . S
H158 C140 0.928 . S
H159 C142 0.932 . S
C160 C161 1.264 . S
C160 C165 1.479 . S
C160 C170 1.465 . S
C161 C160 1.264 . S
C161 C163 1.339 . S
C161 H188 0.931 . S
C162 C163 1.395 . S
C162 C164 1.320 . S
C163 C161 1.339 . S
C163 C162 1.395 . S
C163 H189 0.929 . S
C164 C162 1.320 . S
C164 C165 1.405 . S
C164 H190 0.930 . S
C165 C160 1.479 . S
C165 C164 1.405 . S
C165 H191 0.931 . S
U166 O167 2.454 . S
U166 O168 2.458 . S
U166 C169 2.984 . S
U166 C170 2.847 1_455 S
U166 C183 2.882 . S
U166 O184 2.441 1_455 S
U166 O185 2.368 1_455 S
U166 O186 2.455 . S
U166 O187 2.449 . S
O167 U166 2.454 . S
O167 C169 1.353 . S
O168 U166 2.458 . S
O168 C169 1.286 . S
C169 U166 2.984 . S
C169 O167 1.353 . S
C169 O168 1.286 . S
C169 C171 1.363 . S
C170 C160 1.465 . S
C170 U166 2.847 1_655 S
C170 O184 1.249 . S
C170 O185 1.253 . S
C171 C169 1.363 . S
C171 C173 1.408 . S
C171 C176 1.342 . S
C172 C173 1.310 . S
C172 C175 1.461 . S
C172 H192 0.932 . S
C173 C171 1.408 . S
C173 C172 1.310 . S
C173 H193 0.930 . S
C174 C175 1.474 . S
C174 C176 1.285 . S
C174 H194 0.929 . S
C175 C172 1.461 . S
C175 C174 1.474 . S
C176 C171 1.342 . S
C176 C174 1.285 . S
C176 H195 0.930 . S
C177 C180 1.424 . S
C177 C182 1.245 . S
C177 C183 1.428 . S
C178 C181 1.260 . S
C178 C182 1.477 . S
C178 H196 0.932 . S
C179 C180 1.384 . S
C179 C181 1.479 . S
C179 H197 0.929 . S
C180 C177 1.424 . S
C180 C179 1.384 . S
C180 H198 0.928 . S
C181 C178 1.260 . S
C181 C179 1.479 . S
C182 C177 1.245 . S
C182 C178 1.477 . S
C182 H199 0.932 . S
C183 U166 2.882 . S
C183 C177 1.428 . S
C183 O186 1.301 . S
C183 O187 1.282 . S
O184 U166 2.441 1_655 S
O184 C170 1.249 . S
O185 U166 2.368 1_655 S
O185 C170 1.253 . S
O186 U166 2.455 . S
O186 C183 1.301 . S
O187 U166 2.449 . S
O187 C183 1.282 . S
H188 C161 0.931 . S
H189 C163 0.929 . S
H190 C164 0.930 . S
H191 C165 0.931 . S
H192 C172 0.932 . S
H193 C173 0.930 . S
H194 C174 0.929 . S
H195 C176 0.930 . S
H196 C178 0.932 . S
H197 C179 0.929 . S
H198 C180 0.928 . S
H199 C182 0.932 . S
C200 C201 1.264 . S
C200 C205 1.479 . S
C200 C210 1.465 . S
C201 C200 1.264 . S
C201 C203 1.339 . S
C201 H228 0.931 . S
C202 C203 1.395 . S
C202 C204 1.320 . S
C203 C201 1.339 . S
C203 C202 1.395 . S
C203 H229 0.929 . S
C204 C202 1.320 . S
C204 C205 1.405 . S
C204 H230 0.930 . S
C205 C200 1.479 . S
C205 C204 1.405 . S
C205 H231 0.931 . S
U206 O207 2.454 . S
U206 O208 2.458 . S
U206 C209 2.984 . S
U206 C210 2.847 . S
U206 C223 2.882 . S
U206 O224 2.441 . S
U206 O225 2.420 . S
U206 O226 2.455 . S
U206 O227 2.449 . S
O207 U206 2.454 . S
O207 C209 1.353 . S
O208 U206 2.458 . S
O208 C209 1.286 . S
C209 U206 2.984 . S
C209 O207 1.353 . S
C209 O208 1.286 . S
C209 C211 1.363 . S
C210 C200 1.465 . S
C210 U206 2.847 . S
C210 O224 1.249 . S
C210 O225 1.202 . S
C211 C209 1.363 . S
C211 C213 1.408 . S
C211 C216 1.342 . S
C212 C213 1.310 . S
C212 C215 1.461 . S
C212 H232 0.932 . S
C213 C211 1.408 . S
C213 C212 1.310 . S
C213 H233 0.930 . S
C214 C215 1.474 . S
C214 C216 1.285 . S
C214 H234 0.929 . S
C215 C212 1.461 . S
C215 C214 1.474 . S
C216 C211 1.342 . S
C216 C214 1.285 . S
C216 H235 0.930 . S
C217 C220 1.424 . S
C217 C222 1.245 . S
C217 C223 1.428 . S
C218 C221 1.260 . S
C218 C222 1.477 . S
C218 H236 0.932 . S
C219 C220 1.384 . S
C219 C221 1.479 . S
C219 H237 0.929 . S
C220 C217 1.424 . S
C220 C219 1.384 . S
C220 H238 0.928 . S
C221 C218 1.260 . S
C221 C219 1.479 . S
C222 C217 1.245 . S
C222 C218 1.477 . S
C222 H239 0.932 . S
C223 U206 2.882 . S
C223 C217 1.428 . S
C223 O226 1.301 . S
C223 O227 1.282 . S
O224 U206 2.441 . S
O224 C210 1.249 . S
O225 U206 2.420 . S
O225 C210 1.202 . S
O226 U206 2.455 . S
O226 C223 1.301 . S
O227 U206 2.449 . S
O227 C223 1.282 . S
H228 C201 0.931 . S
H229 C203 0.929 . S
H230 C204 0.930 . S
H231 C205 0.931 . S
H232 C212 0.932 . S
H233 C213 0.930 . S
H234 C214 0.929 . S
H235 C216 0.930 . S
H236 C218 0.932 . S
H237 C219 0.929 . S
H238 C220 0.928 . S
H239 C222 0.932 . S
C240 C241 1.264 . S
C240 C245 1.479 . S
C240 C250 1.465 . S
C241 C240 1.264 . S
C241 C243 1.339 . S
C241 H268 0.931 . S
C242 C243 1.395 . S
C242 C244 1.320 . S
C243 C241 1.339 . S
C243 C242 1.395 . S
C243 H269 0.929 . S
C244 C242 1.320 . S
C244 C245 1.405 . S
C244 H270 0.930 . S
C245 C240 1.479 . S
C245 C244 1.405 . S
C245 H271 0.931 . S
U246 O247 2.454 . S
U246 O248 2.458 . S
U246 C249 2.984 . S
U246 C250 2.847 . S
U246 C263 2.882 . S
U246 O264 2.441 . S
U246 O265 2.420 . S
U246 O266 2.455 . S
U246 O267 2.449 . S
O247 U246 2.454 . S
O247 C249 1.353 . S
O248 U246 2.458 . S
O248 C249 1.286 . S
C249 U246 2.984 . S
C249 O247 1.353 . S
C249 O248 1.286 . S
C249 C251 1.363 . S
C250 C240 1.465 . S
C250 U246 2.847 . S
C250 O264 1.249 . S
C250 O265 1.202 . S
C251 C249 1.363 . S
C251 C253 1.408 . S
C251 C256 1.342 . S
C252 C253 1.310 . S
C252 C255 1.461 . S
C252 H272 0.932 . S
C253 C251 1.408 . S
C253 C252 1.310 . S
C253 H273 0.930 . S
C254 C255 1.474 . S
C254 C256 1.285 . S
C254 H274 0.929 . S
C255 C252 1.461 . S
C255 C254 1.474 . S
C256 C251 1.342 . S
C256 C254 1.285 . S
C256 H275 0.930 . S
C257 C260 1.424 . S
C257 C262 1.245 . S
C257 C263 1.428 . S
C258 C261 1.260 . S
C258 C262 1.477 . S
C258 H276 0.932 . S
C259 C260 1.384 . S
C259 C261 1.479 . S
C259 H277 0.929 . S
C260 C257 1.424 . S
C260 C259 1.384 . S
C260 H278 0.928 . S
C261 C258 1.260 . S
C261 C259 1.479 . S
C262 C257 1.245 . S
C262 C258 1.477 . S
C262 H279 0.932 . S
C263 U246 2.882 . S
C263 C257 1.428 . S
C263 O266 1.301 . S
C263 O267 1.282 . S
O264 U246 2.441 . S
O264 C250 1.249 . S
O265 U246 2.420 . S
O265 C250 1.202 . S
O266 U246 2.455 . S
O266 C263 1.301 . S
O267 U246 2.449 . S
O267 C263 1.282 . S
H268 C241 0.931 . S
H269 C243 0.929 . S
H270 C244 0.930 . S
H271 C245 0.931 . S
H272 C252 0.932 . S
H273 C253 0.930 . S
H274 C254 0.929 . S
H275 C256 0.930 . S
H276 C258 0.932 . S
H277 C259 0.929 . S
H278 C260 0.928 . S
H279 C262 0.932 . S
C280 C281 1.264 . S
C280 C285 1.479 . S
C280 C290 1.465 1_554 S
C281 C280 1.264 . S
C281 C283 1.339 . S
C281 H308 0.931 . S
C282 C283 1.395 . S
C282 C284 1.320 . S
C283 C281 1.339 . S
C283 C282 1.395 . S
C283 H309 0.929 . S
C284 C282 1.320 . S
C284 C285 1.405 . S
C284 H310 0.930 . S
C285 C280 1.479 . S
C285 C284 1.405 . S
C285 H311 0.931 . S
U286 O287 2.454 . S
U286 O288 2.458 . S
U286 C289 2.984 . S
U286 C290 2.847 . S
U286 C303 2.882 . S
U286 O304 2.441 . S
U286 O305 2.420 . S
U286 O306 2.455 . S
U286 O307 2.449 . S
O287 U286 2.454 . S
O287 C289 1.353 . S
O288 U286 2.458 . S
O288 C289 1.286 . S
C289 U286 2.984 . S
C289 O287 1.353 . S
C289 O288 1.286 . S
C289 C291 1.363 . S
C290 C280 1.465 1_556 S
C290 U286 2.847 . S
C290 O304 1.249 . S
C290 O305 1.202 . S
C291 C289 1.363 . S
C291 C293 1.408 . S
C291 C296 1.342 . S
C292 C293 1.310 . S
C292 C295 1.461 . S
C292 H312 0.932 . S
C293 C291 1.408 . S
C293 C292 1.310 . S
C293 H313 0.930 . S
C294 C295 1.474 . S
C294 C296 1.285 . S
C294 H314 0.929 . S
C295 C292 1.461 . S
C295 C294 1.474 . S
C296 C291 1.342 . S
C296 C294 1.285 . S
C296 H315 0.930 . S
C297 C300 1.424 . S
C297 C302 1.245 . S
C297 C303 1.428 . S
C298 C301 1.260 . S
C298 C302 1.477 . S
C298 H316 0.932 . S
C299 C300 1.384 . S
C299 C301 1.479 . S
C299 H317 0.929 . S
C300 C297 1.424 . S
C300 C299 1.384 . S
C300 H318 0.928 . S
C301 C298 1.260 . S
C301 C299 1.479 . S
C302 C297 1.245 . S
C302 C298 1.477 . S
C302 H319 0.932 . S
C303 U286 2.882 . S
C303 C297 1.428 . S
C303 O306 1.301 . S
C303 O307 1.282 . S
O304 U286 2.441 . S
O304 C290 1.249 . S
O305 U286 2.420 . S
O305 C290 1.202 . S
O306 U286 2.455 . S
O306 C303 1.301 . S
O307 U286 2.449 . S
O307 C303 1.282 . S
H308 C281 0.931 . S
H309 C283 0.929 . S
H310 C284 0.930 . S
H311 C285 0.931 . S
H312 C292 0.932 . S
H313 C293 0.930 . S
H314 C294 0.929 . S
H315 C296 0.930 . S
H316 C298 0.932 . S
H317 C299 0.929 . S
H318 C300 0.928 . S
H319 C302 0.932 . S
C320 C321 1.264 . S
C320 C325 1.479 1_545 S
C320 C330 1.465 . S
C321 C320 1.264 . S
C321 C323 1.339 . S
C321 H348 0.931 . S
C322 C323 1.395 . S
C322 C324 1.320 1_545 S
C323 C321 1.339 . S
C323 C322 1.395 . S
C323 H349 0.929 . S
C324 C322 1.320 1_565 S
C324 C325 1.405 . S
C324 H350 0.930 . S
C325 C320 1.479 1_565 S
C325 C324 1.405 . S
C325 H351 0.931 . S
U326 O327 2.459 1_545 S
U326 O328 2.462 1_545 S
U326 C329 2.990 1_545 S
U326 C330 2.845 . S
U326 C343 2.879 . S
U326 O344 2.442 1_545 S
U326 O345 2.417 . S
U326 O346 2.453 . S
U326 O347 2.444 . S
O327 U326 2.459 1_565 S
O327 C329 1.353 . S
O328 U326 2.462 1_565 S
O328 C329 1.286 . S
C329 U326 2.990 1_565 S
C329 O327 1.353 . S
C329 O328 1.286 . S
C329 C331 1.363 . S
C330 C320 1.465 . S
C330 U326 2.845 . S
C330 O344 1.249 1_545 S
C330 O345 1.202 . S
C331 C329 1.363 . S
C331 C333 1.408 . S
C331 C336 1.342 . S
C332 C333 1.310 . S
C332 C335 1.461 . S
C332 H352 0.932 . S
C333 C331 1.408 . S
C333 C332 1.310 . S
C333 H353 0.930 . S
C334 C335 1.474 . S
C334 C336 1.285 . S
C334 H354 0.929 . S
C335 C332 1.461 . S
C335 C334 1.474 . S
C336 C331 1.342 . S
C336 C334 1.285 . S
C336 H355 0.930 . S
C337 C340 1.424 . S
C337 C342 1.245 . S
C337 C343 1.428 . S
C338 C341 1.260 . S
C338 C342 1.477 . S
C338 H356 0.932 . S
C339 C340 1.384 . S
C339 C341 1.479 . S
C339 H357 0.929 . S
C340 C337 1.424 . S
C340 C339 1.384 . S
C340 H358 0.928 . S
C341 C338 1.260 . S
C341 C339 1.479 . S
C342 C337 1.245 . S
C342 C338 1.477 . S
C342 H359 0.932 . S
C343 U326 2.879 . S
C343 C337 1.428 . S
C343 O346 1.301 . S
C343 O347 1.282 . S
O344 U326 2.442 1_565 S
O344 C330 1.249 1_565 S
O345 U326 2.417 . S
O345 C330 1.202 . S
O346 U326 2.453 . S
O346 C343 1.301 . S
O347 U326 2.444 . S
O347 C343 1.282 . S
H348 C321 0.931 . S
H349 C323 0.929 . S
H350 C324 0.930 . S
H351 C325 0.931 . S
H352 C332 0.932 . S
H353 C333 0.930 . S
H354 C334 0.929 . S
H355 C336 0.930 . S
H356 C338 0.932 . S
H357 C339 0.929 . S
H358 C340 0.928 . S
H359 C342 0.932 . S
C360 C361 1.264 . S
C360 C365 1.479 . S
C360 C370 1.465 . S
C361 C360 1.264 . S
C361 C363 1.339 . S
C361 H388 0.931 . S
C362 C363 1.395 . S
C362 C364 1.320 . S
C363 C361 1.339 . S
C363 C362 1.395 . S
C363 H389 0.929 . S
C364 C362 1.320 . S
C364 C365 1.405 . S
C364 H390 0.930 . S
C365 C360 1.479 . S
C365 C364 1.405 . S
C365 H391 0.931 . S
U366 O367 2.454 . S
U366 O368 2.458 . S
U366 C369 2.984 . S
U366 C370 2.847 1_545 S
U366 C383 2.882 . S
U366 O384 2.441 1_545 S
U366 O385 2.420 1_545 S
U366 O386 2.455 . S
U366 O387 2.449 . S
O367 U366 2.454 . S
O367 C369 1.353 . S
O368 U366 2.458 . S
O368 C369 1.286 . S
C369 U366 2.984 . S
C369 O367 1.353 . S
C369 O368 1.286 . S
C369 C371 1.363 . S
C370 C360 1.465 . S
C370 U366 2.847 1_565 S
C370 O384 1.249 . S
C370 O385 1.202 . S
C371 C369 1.363 . S
C371 C373 1.408 . S
C371 C376 1.342 . S
C372 C373 1.310 . S
C372 C375 1.461 . S
C372 H392 0.932 . S
C373 C371 1.408 . S
C373 C372 1.310 . S
C373 H393 0.930 . S
C374 C375 1.474 . S
C374 C376 1.285 . S
C374 H394 0.929 . S
C375 C372 1.461 . S
C375 C374 1.474 . S
C376 C371 1.342 . S
C376 C374 1.285 . S
C376 H395 0.930 . S
C377 C380 1.424 . S
C377 C382 1.245 . S
C377 C383 1.428 . S
C378 C381 1.260 . S
C378 C382 1.477 . S
C378 H396 0.932 . S
C379 C380 1.384 . S
C379 C381 1.479 . S
C379 H397 0.929 . S
C380 C377 1.424 . S
C380 C379 1.384 . S
C380 H398 0.928 . S
C381 C378 1.260 . S
C381 C379 1.479 . S
C382 C377 1.245 . S
C382 C378 1.477 . S
C382 H399 0.932 . S
C383 U366 2.882 . S
C383 C377 1.428 . S
C383 O386 1.301 . S
C383 O387 1.282 . S
O384 U366 2.441 1_565 S
O384 C370 1.249 . S
O385 U366 2.420 1_565 S
O385 C370 1.202 . S
O386 U366 2.455 . S
O386 C383 1.301 . S
O387 U366 2.449 . S
O387 C383 1.282 . S
H388 C361 0.931 . S
H389 C363 0.929 . S
H390 C364 0.930 . S
H391 C365 0.931 . S
H392 C372 0.932 . S
H393 C373 0.930 . S
H394 C374 0.929 . S
H395 C376 0.930 . S
H396 C378 0.932 . S
H397 C379 0.929 . S
H398 C380 0.928 . S
H399 C382 0.932 . S
C400 C401 1.264 . S
C400 C405 1.479 . S
C400 C410 1.465 . S
C401 C400 1.264 . S
C401 C403 1.339 . S
C401 H428 0.931 . S
C402 C403 1.395 . S
C402 C404 1.320 . S
C403 C401 1.339 . S
C403 C402 1.395 . S
C403 H429 0.929 . S
C404 C402 1.320 . S
C404 C405 1.405 . S
C404 H430 0.930 . S
C405 C400 1.479 . S
C405 C404 1.405 . S
C405 H431 0.931 . S
U406 O407 2.454 . S
U406 O408 2.458 . S
U406 C409 2.984 . S
U406 C410 2.847 1_565 S
U406 C423 2.882 . S
U406 O424 2.441 1_565 S
U406 O425 2.420 . S
U406 O426 2.455 . S
U406 O427 2.449 . S
O407 U406 2.454 . S
O407 C409 1.353 . S
O408 U406 2.458 . S
O408 C409 1.286 . S
C409 U406 2.984 . S
C409 O407 1.353 . S
C409 O408 1.286 . S
C409 C411 1.363 . S
C410 C400 1.465 . S
C410 U406 2.847 1_545 S
C410 O424 1.249 . S
C410 O425 1.202 1_545 S
C411 C409 1.363 . S
C411 C413 1.408 . S
C411 C416 1.342 . S
C412 C413 1.310 . S
C412 C415 1.461 . S
C412 H432 0.932 . S
C413 C411 1.408 . S
C413 C412 1.310 . S
C413 H433 0.930 . S
C414 C415 1.474 . S
C414 C416 1.285 . S
C414 H434 0.929 . S
C415 C412 1.461 . S
C415 C414 1.474 . S
C416 C411 1.342 . S
C416 C414 1.285 . S
C416 H435 0.930 . S
C417 C420 1.424 . S
C417 C422 1.245 . S
C417 C423 1.428 . S
C418 C421 1.260 . S
C418 C422 1.477 . S
C418 H436 0.932 . S
C419 C420 1.384 . S
C419 C421 1.479 . S
C419 H437 0.929 . S
C420 C417 1.424 . S
C420 C419 1.384 . S
C420 H438 0.928 . S
C421 C418 1.260 . S
C421 C419 1.479 . S
C422 C417 1.245 . S
C422 C418 1.477 . S
C422 H439 0.932 . S
C423 U406 2.882 . S
C423 C417 1.428 . S
C423 O426 1.301 . S
C423 O427 1.282 . S
O424 U406 2.441 1_545 S
O424 C410 1.249 . S
O425 U406 2.420 . S
O425 C410 1.202 1_565 S
O426 U406 2.455 . S
O426 C423 1.301 . S
O427 U406 2.449 . S
O427 C423 1.282 . S
H428 C401 0.931 . S
H429 C403 0.929 . S
H430 C404 0.930 . S
H431 C405 0.931 . S
H432 C412 0.932 . S
H433 C413 0.930 . S
H434 C414 0.929 . S
H435 C416 0.930 . S
H436 C418 0.932 . S
H437 C419 0.929 . S
H438 C420 0.928 . S
H439 C422 0.932 . S
C440 C441 1.264 . S
C440 C445 1.479 . S
C440 C450 1.465 . S
C441 C440 1.264 . S
C441 C443 1.339 . S
C441 H468 0.931 . S
C442 C443 1.395 . S
C442 C444 1.320 . S
C443 C441 1.339 . S
C443 C442 1.395 . S
C443 H469 0.929 . S
C444 C442 1.320 . S
C444 C445 1.405 . S
C444 H470 0.930 . S
C445 C440 1.479 . S
C445 C444 1.405 . S
C445 H471 0.931 1_565 S
U446 O447 2.448 1_565 S
U446 O448 2.454 1_565 S
U446 C449 2.979 1_565 S
U446 C450 2.848 . S
U446 C463 2.887 . S
U446 O464 2.439 1_565 S
U446 O465 2.424 . S
U446 O466 2.457 . S
U446 O467 2.455 . S
O447 U446 2.448 1_545 S
O447 C449 1.353 . S
O448 U446 2.454 1_545 S
O448 C449 1.286 . S
C449 U446 2.979 1_545 S
C449 O447 1.353 . S
C449 O448 1.286 . S
C449 C451 1.363 . S
C450 C440 1.465 . S
C450 U446 2.848 . S
C450 O464 1.249 1_565 S
C450 O465 1.202 . S
C451 C449 1.363 . S
C451 C453 1.408 . S
C451 C456 1.342 . S
C452 C453 1.310 . S
C452 C455 1.461 . S
C452 H472 0.932 . S
C453 C451 1.408 . S
C453 C452 1.310 . S
C453 H473 0.930 . S
C454 C455 1.474 . S
C454 C456 1.285 . S
C454 H474 0.929 . S
C455 C452 1.461 . S
C455 C454 1.474 . S
C456 C451 1.342 . S
C456 C454 1.285 . S
C456 H475 0.930 . S
C457 C460 1.424 . S
C457 C462 1.245 . S
C457 C463 1.428 . S
C458 C461 1.260 . S
C458 C462 1.477 . S
C458 H476 0.932 . S
C459 C460 1.384 . S
C459 C461 1.479 . S
C459 H477 0.929 . S
C460 C457 1.424 . S
C460 C459 1.384 . S
C460 H478 0.928 . S
C461 C458 1.260 . S
C461 C459 1.479 . S
C462 C457 1.245 . S
C462 C458 1.477 . S
C462 H479 0.932 . S
C463 U446 2.887 . S
C463 C457 1.428 . S
C463 O466 1.301 . S
C463 O467 1.282 . S
O464 U446 2.439 1_545 S
O464 C450 1.249 1_545 S
O465 U446 2.424 . S
O465 C450 1.202 . S
O466 U446 2.457 . S
O466 C463 1.301 . S
O467 U446 2.455 . S
O467 C463 1.282 . S
H468 C441 0.931 . S
H469 C443 0.929 . S
H470 C444 0.930 . S
H471 C445 0.931 1_545 S
H472 C452 0.932 . S
H473 C453 0.930 . S
H474 C454 0.929 . S
H475 C456 0.930 . S
H476 C458 0.932 . S
H477 C459 0.929 . S
H478 C460 0.928 . S
H479 C462 0.932 . S
C480 C481 1.264 . S
C480 C485 1.479 . S
C480 C490 1.465 . S
C481 C480 1.264 . S
C481 C483 1.339 . S
C481 H508 0.931 . S
C482 C483 1.395 . S
C482 C484 1.320 . S
C483 C481 1.339 . S
C483 C482 1.395 . S
C483 H509 0.929 . S
C484 C482 1.320 . S
C484 C485 1.405 . S
C484 H510 0.930 . S
C485 C480 1.479 . S
C485 C484 1.405 . S
C485 H511 0.931 . S
U486 O487 2.454 . S
U486 O488 2.458 . S
U486 C489 2.984 . S
U486 C490 2.847 . S
U486 C503 2.882 . S
U486 O504 2.441 . S
U486 O505 2.420 . S
U486 O506 2.455 . S
U486 O507 2.449 . S
O487 U486 2.454 . S
O487 C489 1.353 . S
O488 U486 2.458 . S
O488 C489 1.286 . S
C489 U486 2.984 . S
C489 O487 1.353 . S
C489 O488 1.286 . S
C489 C491 1.363 1_554 S
C490 C480 1.465 . S
C490 U486 2.847 . S
C490 O504 1.249 . S
C490 O505 1.202 . S
C491 C489 1.363 1_556 S
C491 C493 1.408 . S
C491 C496 1.342 . S
C492 C493 1.310 . S
C492 C495 1.461 . S
C492 H512 0.932 . S
C493 C491 1.408 . S
C493 C492 1.310 . S
C493 H513 0.930 . S
C494 C495 1.474 . S
C494 C496 1.285 . S
C494 H514 0.929 . S
C495 C492 1.461 . S
C495 C494 1.474 . S
C496 C491 1.342 . S
C496 C494 1.285 . S
C496 H515 0.930 . S
C497 C500 1.424 . S
C497 C502 1.245 . S
C497 C503 1.428 . S
C498 C501 1.260 . S
C498 C502 1.477 . S
C498 H516 0.932 . S
C499 C500 1.384 . S
C499 C501 1.479 . S
C499 H517 0.929 . S
C500 C497 1.424 . S
C500 C499 1.384 . S
C500 H518 0.928 . S
C501 C498 1.260 . S
C501 C499 1.479 . S
C502 C497 1.245 . S
C502 C498 1.477 . S
C502 H519 0.932 . S
C503 U486 2.882 . S
C503 C497 1.428 . S
C503 O506 1.301 . S
C503 O507 1.282 . S
O504 U486 2.441 . S
O504 C490 1.249 . S
O505 U486 2.420 . S
O505 C490 1.202 . S
O506 U486 2.455 . S
O506 C503 1.301 . S
O507 U486 2.449 . S
O507 C503 1.282 . S
H508 C481 0.931 . S
H509 C483 0.929 . S
H510 C484 0.930 . S
H511 C485 0.931 . S
H512 C492 0.932 . S
H513 C493 0.930 . S
H514 C494 0.929 . S
H515 C496 0.930 . S
H516 C498 0.932 . S
H517 C499 0.929 . S
H518 C500 0.928 . S
H519 C502 0.932 . S
C520 C521 1.264 . S
C520 C525 1.479 . S
C520 C530 1.465 . S
C521 C520 1.264 . S
C521 C523 1.339 . S
C521 H548 0.931 . S
C522 C523 1.395 . S
C522 C524 1.320 . S
C523 C521 1.339 . S
C523 C522 1.395 . S
C523 H549 0.929 . S
C524 C522 1.320 . S
C524 C525 1.405 . S
C524 H550 0.930 . S
C525 C520 1.479 . S
C525 C524 1.405 . S
C525 H551 0.931 . S
U526 O527 2.449 1_655 S
U526 O528 2.458 . S
U526 C529 2.984 . S
U526 C530 2.847 1_655 S
U526 C543 2.882 . S
U526 O544 2.441 1_655 S
U526 O545 2.420 1_655 S
U526 O546 2.455 . S
U526 O547 2.449 . S
O527 U526 2.449 1_455 S
O527 C529 1.318 1_455 S
O528 U526 2.458 . S
O528 C529 1.286 . S
C529 U526 2.984 . S
C529 O527 1.318 1_655 S
C529 O528 1.286 . S
C529 C531 1.363 . S
C530 C520 1.465 . S
C530 U526 2.847 1_455 S
C530 O544 1.249 . S
C530 O545 1.202 . S
C531 C529 1.363 . S
C531 C533 1.408 . S
C531 C536 1.342 . S
C532 C533 1.310 . S
C532 C535 1.461 . S
C532 H552 0.931 . S
C533 C531 1.408 . S
C533 C532 1.310 . S
C533 H553 0.930 1_655 S
C534 C535 1.474 . S
C534 C536 1.285 . S
C534 H554 0.929 . S
C535 C532 1.461 . S
C535 C534 1.474 . S
C536 C531 1.342 . S
C536 C534 1.285 . S
C536 H555 0.930 . S
C537 C540 1.424 . S
C537 C542 1.245 . S
C537 C543 1.428 . S
C538 C541 1.260 . S
C538 C542 1.477 . S
C538 H556 0.932 . S
C539 C540 1.384 . S
C539 C541 1.479 . S
C539 H557 0.929 . S
C540 C537 1.424 . S
C540 C539 1.384 . S
C540 H558 0.928 . S
C541 C538 1.260 . S
C541 C539 1.479 . S
C542 C537 1.245 . S
C542 C538 1.477 . S
C542 H559 0.932 . S
C543 U526 2.882 . S
C543 C537 1.428 . S
C543 O546 1.301 . S
C543 O547 1.282 . S
O544 U526 2.441 1_455 S
O544 C530 1.249 . S
O545 U526 2.420 1_455 S
O545 C530 1.202 . S
O546 U526 2.455 . S
O546 C543 1.301 . S
O547 U526 2.449 . S
O547 C543 1.282 . S
H548 C521 0.931 . S
H549 C523 0.929 . S
H550 C524 0.930 . S
H551 C525 0.931 . S
H552 C532 0.931 . S
H553 C533 0.930 1_455 S
H554 C534 0.929 . S
H555 C536 0.930 . S
H556 C538 0.932 . S
H557 C539 0.929 . S
H558 C540 0.928 . S
H559 C542 0.932 . S
C560 C561 1.264 . S
C560 C565 1.479 . S
C560 C570 1.465 . S
C561 C560 1.264 . S
C561 C563 1.339 . S
C561 H588 0.931 . S
C562 C563 1.395 . S
C562 C564 1.320 . S
C563 C561 1.339 . S
C563 C562 1.395 . S
C563 H589 0.929 . S
C564 C562 1.320 . S
C564 C565 1.405 . S
C564 H590 0.930 . S
C565 C560 1.479 . S
C565 C564 1.405 . S
C565 H591 0.931 . S
U566 O567 2.454 . S
U566 O568 2.458 . S
U566 C569 2.984 . S
U566 C570 2.847 . S
U566 C583 2.882 . S
U566 O584 2.441 . S
U566 O585 2.420 . S
U566 O586 2.455 . S
U566 O587 2.449 . S
O567 U566 2.454 . S
O567 C569 1.353 . S
O568 U566 2.458 . S
O568 C569 1.286 . S
C569 U566 2.984 . S
C569 O567 1.353 . S
C569 O568 1.286 . S
C569 C571 1.363 . S
C570 C560 1.465 . S
C570 U566 2.847 . S
C570 O584 1.249 . S
C570 O585 1.202 . S
C571 C569 1.363 . S
C571 C573 1.408 . S
C571 C576 1.342 . S
C572 C573 1.310 . S
C572 C575 1.461 . S
C572 H592 0.932 . S
C573 C571 1.408 . S
C573 C572 1.310 . S
C573 H593 0.930 . S
C574 C575 1.474 . S
C574 C576 1.285 . S
C574 H594 0.929 . S
C575 C572 1.461 . S
C575 C574 1.474 . S
C576 C571 1.342 . S
C576 C574 1.285 . S
C576 H595 0.930 . S
C577 C580 1.424 . S
C577 C582 1.245 . S
C577 C583 1.428 . S
C578 C581 1.260 . S
C578 C582 1.477 . S
C578 H596 0.932 . S
C579 C580 1.384 . S
C579 C581 1.479 . S
C579 H597 0.929 . S
C580 C577 1.424 . S
C580 C579 1.384 . S
C580 H598 0.928 . S
C581 C578 1.260 . S
C581 C579 1.479 . S
C582 C577 1.245 . S
C582 C578 1.477 . S
C582 H599 0.932 . S
C583 U566 2.882 . S
C583 C577 1.428 . S
C583 O586 1.301 . S
C583 O587 1.282 . S
O584 U566 2.441 . S
O584 C570 1.249 . S
O585 U566 2.420 . S
O585 C570 1.202 . S
O586 U566 2.455 . S
O586 C583 1.301 . S
O587 U566 2.449 . S
O587 C583 1.282 . S
H588 C561 0.931 . S
H589 C563 0.929 . S
H590 C564 0.930 . S
H591 C565 0.931 . S
H592 C572 0.932 . S
H593 C573 0.930 . S
H594 C574 0.929 . S
H595 C576 0.930 . S
H596 C578 0.932 . S
H597 C579 0.929 . S
H598 C580 0.928 . S
H599 C582 0.932 . S
C600 C601 1.264 . S
C600 C605 1.479 . S
C600 C610 1.465 . S
C601 C600 1.264 . S
C601 C603 1.339 . S
C601 H628 0.931 . S
C602 C603 1.395 . S
C602 C604 1.320 . S
C603 C601 1.339 . S
C603 C602 1.395 . S
C603 H629 0.929 . S
C604 C602 1.320 . S
C604 C605 1.405 . S
C604 H630 0.930 . S
C605 C600 1.479 . S
C605 C604 1.405 . S
C605 H631 0.931 1_655 S
U606 O607 2.454 . S
U606 O608 2.458 . S
U606 C609 2.984 . S
U606 C610 2.847 1_455 S
U606 C623 2.882 1_455 S
U606 O624 2.441 . S
U606 O625 2.420 1_455 S
U606 O626 2.455 . S
U606 O627 2.449 1_455 S
O607 U606 2.454 . S
O607 C609 1.353 . S
O608 U606 2.458 . S
O608 C609 1.286 . S
C609 U606 2.984 . S
C609 O607 1.353 . S
C609 O608 1.286 . S
C609 C611 1.363 . S
C610 C600 1.465 . S
C610 U606 2.847 1_655 S
C610 O624 1.249 1_655 S
C610 O625 1.202 . S
C611 C609 1.363 . S
C611 C613 1.408 . S
C611 C616 1.342 . S
C612 C613 1.310 . S
C612 C615 1.461 . S
C612 H632 0.932 . S
C613 C611 1.408 . S
C613 C612 1.310 . S
C613 H633 0.930 . S
C614 C615 1.474 . S
C614 C616 1.285 . S
C614 H634 0.929 . S
C615 C612 1.461 . S
C615 C614 1.474 . S
C616 C611 1.342 . S
C616 C614 1.285 . S
C616 H635 0.930 . S
C617 C620 1.424 . S
C617 C622 1.245 . S
C617 C623 1.428 . S
C618 C621 1.260 . S
C618 C622 1.477 . S
C618 H636 0.932 . S
C619 C620 1.384 . S
C619 C621 1.479 . S
C619 H637 0.929 . S
C620 C617 1.424 . S
C620 C619 1.384 . S
C620 H638 0.928 . S
C621 C618 1.260 . S
C621 C619 1.479 . S
C622 C617 1.245 . S
C622 C618 1.477 . S
C622 H639 0.932 . S
C623 U606 2.882 1_655 S
C623 C617 1.428 . S
C623 O626 1.301 1_655 S
C623 O627 1.282 . S
O624 U606 2.441 . S
O624 C610 1.249 1_455 S
O625 U606 2.420 1_655 S
O625 C610 1.202 . S
O626 U606 2.455 . S
O626 C623 1.301 1_455 S
O627 U606 2.449 1_655 S
O627 C623 1.282 . S
H628 C601 0.931 . S
H629 C603 0.929 . S
H630 C604 0.930 . S
H631 C605 0.931 1_455 S
H632 C612 0.932 . S
H633 C613 0.930 . S
H634 C614 0.929 . S
H635 C616 0.930 . S
H636 C618 0.932 . S
H637 C619 0.929 . S
H638 C620 0.928 . S
H639 C622 0.932 . S
C640 C641 1.264 . S
C640 C645 1.479 . S
C640 C650 1.465 . S
C641 C640 1.264 . S
C641 C643 1.339 . S
C641 H668 0.931 . S
C642 C643 1.395 . S
C642 C644 1.320 . S
C643 C641 1.339 . S
C643 C642 1.395 . S
C643 H669 0.929 . S
C644 C642 1.320 . S
C644 C645 1.405 . S
C644 H670 0.930 . S
C645 C640 1.479 . S
C645 C644 1.405 . S
C645 H671 0.931 . S
U646 O647 2.454 . S
U646 O648 2.458 . S
U646 C649 2.984 . S
U646 C650 2.847 . S
U646 C663 2.882 . S
U646 O664 2.441 . S
U646 O665 2.420 . S
U646 O666 2.455 . S
U646 O667 2.449 . S
O647 U646 2.454 . S
O647 C649 1.353 . S
O648 U646 2.458 . S
O648 C649 1.286 . S
C649 U646 2.984 . S
C649 O647 1.353 . S
C649 O648 1.286 . S
C649 C651 1.363 . S
C650 C640 1.465 . S
C650 U646 2.847 . S
C650 O664 1.249 . S
C650 O665 1.202 . S
C651 C649 1.363 . S
C651 C653 1.408 . S
C651 C656 1.342 . S
C652 C653 1.310 . S
C652 C655 1.461 . S
C652 H672 0.932 . S
C653 C651 1.408 . S
C653 C652 1.310 . S
C653 H673 0.930 . S
C654 C655 1.474 . S
C654 C656 1.285 . S
C654 H674 0.929 . S
C655 C652 1.461 . S
C655 C654 1.474 . S
C656 C651 1.342 . S
C656 C654 1.285 . S
C656 H675 0.930 . S
C657 C660 1.424 . S
C657 C662 1.245 . S
C657 C663 1.428 . S
C658 C661 1.260 . S
C658 C662 1.477 . S
C658 H676 0.932 . S
C659 C660 1.384 . S
C659 C661 1.479 . S
C659 H677 0.929 . S
C660 C657 1.424 . S
C660 C659 1.384 . S
C660 H678 0.928 . S
C661 C658 1.260 . S
C661 C659 1.479 . S
C662 C657 1.245 . S
C662 C658 1.477 . S
C662 H679 0.932 . S
C663 U646 2.882 . S
C663 C657 1.428 . S
C663 O666 1.301 . S
C663 O667 1.282 . S
O664 U646 2.441 . S
O664 C650 1.249 . S
O665 U646 2.420 . S
O665 C650 1.202 . S
O666 U646 2.455 . S
O666 C663 1.301 . S
O667 U646 2.449 . S
O667 C663 1.282 . S
H668 C641 0.931 . S
H669 C643 0.929 . S
H670 C644 0.930 . S
H671 C645 0.931 . S
H672 C652 0.932 . S
H673 C653 0.930 . S
H674 C654 0.929 . S
H675 C656 0.930 . S
H676 C658 0.932 . S
H677 C659 0.929 . S
H678 C660 0.928 . S
H679 C662 0.932 . S
C680 C681 1.264 . S
C680 C685 1.479 . S
C680 C690 1.465 . S
C681 C680 1.264 . S
C681 C683 1.339 . S
C681 H708 0.931 . S
C682 C683 1.395 . S
C682 C684 1.320 . S
C683 C681 1.339 . S
C683 C682 1.395 . S
C683 H709 0.929 . S
C684 C682 1.320 . S
C684 C685 1.405 . S
C684 H710 0.930 . S
C685 C680 1.479 . S
C685 C684 1.405 . S
C685 H711 0.931 . S
U686 O687 2.454 . S
U686 O688 2.458 . S
U686 C689 2.984 . S
U686 C690 2.847 . S
U686 C703 2.882 . S
U686 O704 2.441 . S
U686 O705 2.420 . S
U686 O706 2.455 . S
U686 O707 2.449 . S
O687 U686 2.454 . S
O687 C689 1.353 . S
O688 U686 2.458 . S
O688 C689 1.286 . S
C689 U686 2.984 . S
C689 O687 1.353 . S
C689 O688 1.286 . S
C689 C691 1.363 . S
C690 C680 1.465 . S
C690 U686 2.847 . S
C690 O704 1.249 . S
C690 O705 1.202 . S
C691 C689 1.363 . S
C691 C693 1.408 . S
C691 C696 1.342 . S
C692 C693 1.310 . S
C692 C695 1.461 . S
C692 H712 0.932 . S
C693 C691 1.408 . S
C693 C692 1.310 . S
C693 H713 0.930 . S
C694 C695 1.474 . S
C694 C696 1.285 . S
C694 H714 0.929 . S
C695 C692 1.461 . S
C695 C694 1.474 . S
C696 C691 1.342 . S
C696 C694 1.285 . S
C696 H715 0.930 . S
C697 C700 1.424 . S
C697 C702 1.245 . S
C697 C703 1.428 . S
C698 C701 1.260 . S
C698 C702 1.477 . S
C698 H716 0.932 . S
C699 C700 1.384 . S
C699 C701 1.479 . S
C699 H717 0.929 . S
C700 C697 1.424 . S
C700 C699 1.384 . S
C700 H718 0.928 . S
C701 C698 1.260 . S
C701 C699 1.479 . S
C702 C697 1.245 . S
C702 C698 1.477 . S
C702 H719 0.932 . S
C703 U686 2.882 . S
C703 C697 1.428 . S
C703 O706 1.301 . S
C703 O707 1.282 . S
O704 U686 2.441 . S
O704 C690 1.249 . S
O705 U686 2.420 . S
O705 C690 1.202 . S
O706 U686 2.455 . S
O706 C703 1.301 . S
O707 U686 2.449 . S
O707 C703 1.282 . S
H708 C681 0.931 . S
H709 C683 0.929 . S
H710 C684 0.930 . S
H711 C685 0.931 . S
H712 C692 0.932 . S
H713 C693 0.930 . S
H714 C694 0.929 . S
H715 C696 0.930 . S
H716 C698 0.932 . S
H717 C699 0.929 . S
H718 C700 0.928 . S
H719 C702 0.932 . S
C720 C721 1.264 . S
C720 C725 1.479 . S
C720 C730 1.465 . S
C721 C720 1.264 . S
C721 C723 1.339 . S
C721 H748 0.931 . S
C722 C723 1.395 . S
C722 C724 1.320 . S
C723 C721 1.339 . S
C723 C722 1.395 . S
C723 H749 0.929 . S
C724 C722 1.320 . S
C724 C725 1.405 . S
C724 H750 0.930 . S
C725 C720 1.479 . S
C725 C724 1.405 . S
C725 H751 0.931 . S
U726 O727 2.454 . S
U726 O728 2.458 . S
U726 C729 2.984 . S
U726 C730 2.847 . S
U726 C743 2.882 . S
U726 O744 2.441 . S
U726 O745 2.420 . S
U726 O746 2.455 . S
U726 O747 2.449 . S
O727 U726 2.454 . S
O727 C729 1.353 . S
O728 U726 2.458 . S
O728 C729 1.286 . S
C729 U726 2.984 . S
C729 O727 1.353 . S
C729 O728 1.286 . S
C729 C731 1.363 1_556 S
C730 C720 1.465 . S
C730 U726 2.847 . S
C730 O744 1.249 . S
C730 O745 1.202 . S
C731 C729 1.363 1_554 S
C731 C733 1.408 . S
C731 C736 1.342 . S
C732 C733 1.310 . S
C732 C735 1.461 . S
C732 H752 0.932 . S
C733 C731 1.408 . S
C733 C732 1.310 . S
C733 H753 0.930 . S
C734 C735 1.474 . S
C734 C736 1.285 . S
C734 H754 0.929 . S
C735 C732 1.461 . S
C735 C734 1.474 . S
C736 C731 1.342 . S
C736 C734 1.285 . S
C736 H755 0.930 . S
C737 C740 1.424 . S
C737 C742 1.245 . S
C737 C743 1.428 . S
C738 C741 1.260 . S
C738 C742 1.477 . S
C738 H756 0.932 . S
C739 C740 1.384 . S
C739 C741 1.479 . S
C739 H757 0.929 . S
C740 C737 1.424 . S
C740 C739 1.384 . S
C740 H758 0.928 . S
C741 C738 1.260 . S
C741 C739 1.479 . S
C742 C737 1.245 . S
C742 C738 1.477 . S
C742 H759 0.932 . S
C743 U726 2.882 . S
C743 C737 1.428 . S
C743 O746 1.301 . S
C743 O747 1.282 . S
O744 U726 2.441 . S
O744 C730 1.249 . S
O745 U726 2.420 . S
O745 C730 1.202 . S
O746 U726 2.455 . S
O746 C743 1.301 . S
O747 U726 2.449 . S
O747 C743 1.282 . S
H748 C721 0.931 . S
H749 C723 0.929 . S
H750 C724 0.930 . S
H751 C725 0.931 . S
H752 C732 0.932 . S
H753 C733 0.930 . S
H754 C734 0.929 . S
H755 C736 0.930 . S
H756 C738 0.932 . S
H757 C739 0.929 . S
H758 C740 0.928 . S
H759 C742 0.932 . S
C760 C761 1.264 . S
C760 C765 1.479 . S
C760 C770 1.461 . S
C761 C760 1.264 . S
C761 C763 1.339 . S
C761 H788 0.931 . S
C762 C763 1.395 . S
C762 C764 1.320 . S
C763 C761 1.339 . S
C763 C762 1.395 . S
C763 H789 0.929 . S
C764 C762 1.320 . S
C764 C765 1.405 . S
C764 H790 0.930 . S
C765 C760 1.479 . S
C765 C764 1.405 . S
C765 H791 0.931 . S
U766 O767 2.454 . S
U766 O768 2.458 . S
U766 C769 2.984 . S
U766 C770 2.850 1_655 S
U766 C783 2.882 . S
U766 O784 2.441 . S
U766 O785 2.420 . S
U766 O786 2.455 . S
U766 O787 2.449 . S
O767 U766 2.454 . S
O767 C769 1.353 . S
O768 U766 2.458 . S
O768 C769 1.286 . S
C769 U766 2.984 . S
C769 O767 1.353 . S
C769 O768 1.286 . S
C769 C771 1.363 . S
C770 C760 1.461 . S
C770 U766 2.850 1_455 S
C770 O784 1.250 1_455 S
C770 O785 1.205 1_455 S
C771 C769 1.363 . S
C771 C773 1.408 . S
C771 C776 1.342 . S
C772 C773 1.310 . S
C772 C775 1.461 . S
C772 H792 0.932 . S
C773 C771 1.408 . S
C773 C772 1.310 . S
C773 H793 0.930 . S
C774 C775 1.474 . S
C774 C776 1.285 . S
C774 H794 0.929 . S
C775 C772 1.461 . S
C775 C774 1.474 . S
C776 C771 1.342 . S
C776 C774 1.285 . S
C776 H795 0.930 . S
C777 C780 1.424 . S
C777 C782 1.245 . S
C777 C783 1.428 . S
C778 C781 1.260 . S
C778 C782 1.477 . S
C778 H796 0.932 . S
C779 C780 1.384 . S
C779 C781 1.479 . S
C779 H797 0.929 . S
C780 C777 1.424 . S
C780 C779 1.384 . S
C780 H798 0.928 . S
C781 C778 1.260 . S
C781 C779 1.479 . S
C782 C777 1.245 . S
C782 C778 1.477 . S
C782 H799 0.932 . S
C783 U766 2.882 . S
C783 C777 1.428 . S
C783 O786 1.301 . S
C783 O787 1.282 . S
O784 U766 2.441 . S
O784 C770 1.250 1_655 S
O785 U766 2.420 . S
O785 C770 1.205 1_655 S
O786 U766 2.455 . S
O786 C783 1.301 . S
O787 U766 2.449 . S
O787 C783 1.282 . S
H788 C761 0.931 . S
H789 C763 0.929 . S
H790 C764 0.930 . S
H791 C765 0.931 . S
H792 C772 0.932 . S
H793 C773 0.930 . S
H794 C774 0.929 . S
H795 C776 0.930 . S
H796 C778 0.932 . S
H797 C779 0.929 . S
H798 C780 0.928 . S
H799 C782 0.932 . S
C800 C801 1.264 . S
C800 C805 1.479 . S
C800 C810 1.465 . S
C801 C800 1.264 . S
C801 C803 1.339 . S
C801 H828 0.931 . S
C802 C803 1.395 . S
C802 C804 1.320 . S
C803 C801 1.339 . S
C803 C802 1.395 . S
C803 H829 0.929 . S
C804 C802 1.320 . S
C804 C805 1.405 . S
C804 H830 0.930 . S
C805 C800 1.479 . S
C805 C804 1.405 . S
C805 H831 0.931 . S
U806 O807 2.454 . S
U806 O808 2.458 . S
U806 C809 2.984 . S
U806 C810 2.847 . S
U806 C823 2.882 . S
U806 O824 2.441 . S
U806 O825 2.420 . S
U806 O826 2.455 . S
U806 O827 2.449 . S
O807 U806 2.454 . S
O807 C809 1.353 . S
O808 U806 2.458 . S
O808 C809 1.286 . S
C809 U806 2.984 . S
C809 O807 1.353 . S
C809 O808 1.286 . S
C809 C811 1.363 . S
C810 C800 1.465 . S
C810 U806 2.847 . S
C810 O824 1.249 . S
C810 O825 1.202 . S
C811 C809 1.363 . S
C811 C813 1.408 . S
C811 C816 1.342 . S
C812 C813 1.310 . S
C812 C815 1.461 . S
C812 H832 0.932 . S
C813 C811 1.408 . S
C813 C812 1.310 . S
C813 H833 0.930 . S
C814 C815 1.474 . S
C814 C816 1.285 . S
C814 H834 0.929 . S
C815 C812 1.461 . S
C815 C814 1.474 . S
C816 C811 1.342 . S
C816 C814 1.285 . S
C816 H835 0.930 . S
C817 C820 1.424 . S
C817 C822 1.245 . S
C817 C823 1.428 . S
C818 C821 1.260 . S
C818 C822 1.477 . S
C818 H836 0.932 . S
C819 C820 1.384 . S
C819 C821 1.479 . S
C819 H837 0.929 . S
C820 C817 1.424 . S
C820 C819 1.384 . S
C820 H838 0.928 . S
C821 C818 1.260 . S
C821 C819 1.479 . S
C822 C817 1.245 . S
C822 C818 1.477 . S
C822 H839 0.932 . S
C823 U806 2.882 . S
C823 C817 1.428 . S
C823 O826 1.301 . S
C823 O827 1.282 . S
O824 U806 2.441 . S
O824 C810 1.249 . S
O825 U806 2.420 . S
O825 C810 1.202 . S
O826 U806 2.455 . S
O826 C823 1.301 . S
O827 U806 2.449 . S
O827 C823 1.282 . S
H828 C801 0.931 . S
H829 C803 0.929 . S
H830 C804 0.930 . S
H831 C805 0.931 . S
H832 C812 0.932 . S
H833 C813 0.930 . S
H834 C814 0.929 . S
H835 C816 0.930 . S
H836 C818 0.932 . S
H837 C819 0.929 . S
H838 C820 0.928 . S
H839 C822 0.932 . S
C840 C841 1.264 . S
C840 C845 1.479 . S
C840 C850 1.465 . S
C841 C840 1.264 . S
C841 C843 1.339 . S
C841 H868 0.931 . S
C842 C843 1.395 . S
C842 C844 1.320 . S
C843 C841 1.339 . S
C843 C842 1.395 . S
C843 H869 0.929 . S
C844 C842 1.320 . S
C844 C845 1.405 . S
C844 H870 0.930 . S
C845 C840 1.479 . S
C845 C844 1.405 . S
C845 H871 0.931 . S
U846 O847 2.454 . S
U846 O848 2.458 . S
U846 C849 2.984 . S
U846 C850 2.847 . S
U846 C863 2.882 . S
U846 O864 2.441 . S
U846 O865 2.420 . S
U846 O866 2.455 . S
U846 O867 2.449 . S
O847 U846 2.454 . S
O847 C849 1.353 . S
O848 U846 2.458 . S
O848 C849 1.286 . S
C849 U846 2.984 . S
C849 O847 1.353 . S
C849 O848 1.286 . S
C849 C851 1.363 . S
C850 C840 1.465 . S
C850 U846 2.847 . S
C850 O864 1.249 . S
C850 O865 1.202 . S
C851 C849 1.363 . S
C851 C853 1.408 . S
C851 C856 1.342 . S
C852 C853 1.310 . S
C852 C855 1.461 . S
C852 H872 0.932 . S
C853 C851 1.408 . S
C853 C852 1.310 . S
C853 H873 0.930 . S
C854 C855 1.474 . S
C854 C856 1.285 . S
C854 H874 0.929 . S
C855 C852 1.461 . S
C855 C854 1.474 . S
C856 C851 1.342 . S
C856 C854 1.285 . S
C856 H875 0.930 . S
C857 C860 1.424 . S
C857 C862 1.245 . S
C857 C863 1.428 . S
C858 C861 1.260 . S
C858 C862 1.477 . S
C858 H876 0.932 . S
C859 C860 1.384 . S
C859 C861 1.479 . S
C859 H877 0.929 . S
C860 C857 1.424 . S
C860 C859 1.384 . S
C860 H878 0.928 . S
C861 C858 1.260 . S
C861 C859 1.479 . S
C862 C857 1.245 . S
C862 C858 1.477 . S
C862 H879 0.932 . S
C863 U846 2.882 . S
C863 C857 1.428 . S
C863 O866 1.301 . S
C863 O867 1.282 . S
O864 U846 2.441 . S
O864 C850 1.249 . S
O865 U846 2.420 . S
O865 C850 1.202 . S
O866 U846 2.455 . S
O866 C863 1.301 . S
O867 U846 2.449 . S
O867 C863 1.282 . S
H868 C841 0.931 . S
H869 C843 0.929 . S
H870 C844 0.930 . S
H871 C845 0.931 . S
H872 C852 0.932 . S
H873 C853 0.930 . S
H874 C854 0.929 . S
H875 C856 0.930 . S
H876 C858 0.932 . S
H877 C859 0.929 . S
H878 C860 0.928 . S
H879 C862 0.932 . S
C880 C881 1.264 . S
C880 C885 1.479 . S
C880 C890 1.465 . S
C881 C880 1.264 . S
C881 C883 1.339 . S
C881 H908 0.931 . S
C882 C883 1.395 1_556 S
C882 C884 1.320 . S
C883 C881 1.339 . S
C883 C882 1.395 1_554 S
C883 H909 0.929 . S
C884 C882 1.320 . S
C884 C885 1.405 1_556 S
C884 H910 0.930 . S
C885 C880 1.479 . S
C885 C884 1.405 1_554 S
C885 H911 0.931 . S
U886 O887 2.454 . S
U886 O888 2.458 . S
U886 C889 2.984 . S
U886 C890 2.847 . S
U886 C903 2.882 . S
U886 O904 2.441 . S
U886 O905 2.420 . S
U886 O906 2.455 . S
U886 O907 2.449 . S
O887 U886 2.454 . S
O887 C889 1.353 . S
O888 U886 2.458 . S
O888 C889 1.286 . S
C889 U886 2.984 . S
C889 O887 1.353 . S
C889 O888 1.286 . S
C889 C891 1.363 . S
C890 C880 1.465 . S
C890 U886 2.847 . S
C890 O904 1.249 . S
C890 O905 1.202 . S
C891 C889 1.363 . S
C891 C893 1.408 . S
C891 C896 1.342 . S
C892 C893 1.310 . S
C892 C895 1.461 . S
C892 H912 0.932 . S
C893 C891 1.408 . S
C893 C892 1.310 . S
C893 H913 0.930 . S
C894 C895 1.474 . S
C894 C896 1.285 . S
C894 H914 0.929 . S
C895 C892 1.461 . S
C895 C894 1.474 . S
C896 C891 1.342 . S
C896 C894 1.285 . S
C896 H915 0.930 . S
C897 C900 1.424 . S
C897 C902 1.245 . S
C897 C903 1.428 . S
C898 C901 1.260 . S
C898 C902 1.477 . S
C898 H916 0.932 . S
C899 C900 1.384 . S
C899 C901 1.479 . S
C899 H917 0.929 . S
C900 C897 1.424 . S
C900 C899 1.384 . S
C900 H918 0.928 . S
C901 C898 1.260 . S
C901 C899 1.479 . S
C902 C897 1.245 . S
C902 C898 1.477 . S
C902 H919 0.932 . S
C903 U886 2.882 . S
C903 C897 1.428 . S
C903 O906 1.301 . S
C903 O907 1.282 . S
O904 U886 2.441 . S
O904 C890 1.249 . S
O905 U886 2.420 . S
O905 C890 1.202 . S
O906 U886 2.455 . S
O906 C903 1.301 . S
O907 U886 2.449 . S
O907 C903 1.282 . S
H908 C881 0.931 . S
H909 C883 0.929 . S
H910 C884 0.930 . S
H911 C885 0.931 . S
H912 C892 0.932 . S
H913 C893 0.930 . S
H914 C894 0.929 . S
H915 C896 0.930 . S
H916 C898 0.932 . S
H917 C899 0.929 . S
H918 C900 0.928 . S
H919 C902 0.932 . S
C920 C921 1.264 . S
C920 C925 1.479 1_565 S
C920 C930 1.468 . S
C921 C920 1.264 . S
C921 C923 1.339 . S
C921 H948 0.931 . S
C922 C923 1.395 . S
C922 C924 1.320 1_565 S
C923 C921 1.339 . S
C923 C922 1.395 . S
C923 H949 0.929 . S
C924 C922 1.320 1_545 S
C924 C925 1.405 . S
C924 H950 0.930 . S
C925 C920 1.479 1_545 S
C925 C924 1.405 . S
C925 H951 0.931 . S
U926 O927 2.454 . S
U926 O928 2.458 . S
U926 C929 2.984 . S
U926 C930 2.845 1_545 S
U926 C943 2.882 1_545 S
U926 O944 2.441 . S
U926 O945 2.420 1_545 S
U926 O946 2.455 1_545 S
U926 O947 2.449 1_545 S
O927 U926 2.454 . S
O927 C929 1.353 . S
O928 U926 2.458 . S
O928 C929 1.286 . S
C929 U926 2.984 . S
C929 O927 1.353 . S
C929 O928 1.286 . S
C929 C931 1.363 . S
C930 C920 1.468 . S
C930 U926 2.845 1_565 S
C930 O944 1.241 1_565 S
C930 O945 1.208 . S
C931 C929 1.363 . S
C931 C933 1.408 . S
C931 C936 1.342 . S
C932 C933 1.310 . S
C932 C935 1.461 . S
C932 H952 0.932 . S
C933 C931 1.408 . S
C933 C932 1.310 . S
C933 H953 0.930 . S
C934 C935 1.474 . S
C934 C936 1.285 . S
C934 H954 0.929 . S
C935 C932 1.461 . S
C935 C934 1.474 . S
C936 C931 1.342 . S
C936 C934 1.285 . S
C936 H955 0.930 . S
C937 C940 1.424 . S
C937 C942 1.245 . S
C937 C943 1.428 . S
C938 C941 1.260 . S
C938 C942 1.477 . S
C938 H956 0.932 . S
C939 C940 1.384 . S
C939 C941 1.479 . S
C939 H957 0.929 . S
C940 C937 1.424 . S
C940 C939 1.384 . S
C940 H958 0.928 . S
C941 C938 1.260 . S
C941 C939 1.479 . S
C942 C937 1.245 . S
C942 C938 1.477 . S
C942 H959 0.932 . S
C943 U926 2.882 1_565 S
C943 C937 1.428 . S
C943 O946 1.301 . S
C943 O947 1.282 . S
O944 U926 2.441 . S
O944 C930 1.241 1_545 S
O945 U926 2.420 1_565 S
O945 C930 1.208 . S
O946 U926 2.455 1_565 S
O946 C943 1.301 . S
O947 U926 2.449 1_565 S
O947 C943 1.282 . S
H948 C921 0.931 . S
H949 C923 0.929 . S
H950 C924 0.930 . S
H951 C925 0.931 . S
H952 C932 0.932 . S
H953 C933 0.930 . S
H954 C934 0.929 . S
H955 C936 0.930 . S
H956 C938 0.932 . S
H957 C939 0.929 . S
H958 C940 0.928 . S
H959 C942 0.932 . S
C960 C961 1.264 . S
C960 C965 1.479 . S
C960 C970 1.465 . S
C961 C960 1.264 . S
C961 C963 1.339 . S
C961 H988 0.931 . S
C962 C963 1.395 . S
C962 C964 1.320 . S
C963 C961 1.339 . S
C963 C962 1.395 . S
C963 H989 0.929 . S
C964 C962 1.320 . S
C964 C965 1.405 . S
C964 H990 0.930 . S
C965 C960 1.479 . S
C965 C964 1.405 . S
C965 H991 0.931 1_565 S
U966 O967 2.512 . S
U966 O968 2.501 . S
U966 C969 3.041 . S
U966 C970 2.834 1_545 S
U966 C983 2.839 1_545 S
U966 O984 2.454 . S
U966 O985 2.385 1_545 S
U966 O986 2.436 1_545 S
U966 O987 2.392 1_545 S
O967 U966 2.512 . S
O967 C969 1.353 . S
O968 U966 2.501 . S
O968 C969 1.286 . S
C969 U966 3.041 . S
C969 O967 1.353 . S
C969 O968 1.286 . S
C969 C971 1.363 . S
C970 C960 1.465 . S
C970 U966 2.834 1_565 S
C970 O984 1.249 1_565 S
C970 O985 1.202 . S
C971 C969 1.363 . S
C971 C973 1.408 . S
C971 C976 1.342 . S
C972 C973 1.310 . S
C972 C975 1.461 . S
C972 H992 0.932 . S
C973 C971 1.408 . S
C973 C972 1.310 . S
C973 H993 0.930 . S
C974 C975 1.474 . S
C974 C976 1.285 . S
C974 H994 0.929 . S
C975 C972 1.461 . S
C975 C974 1.474 . S
C976 C971 1.342 . S
C976 C974 1.285 . S
C976 H995 0.930 . S
C977 C980 1.424 . S
C977 C982 1.245 . S
C977 C983 1.428 . S
C978 C981 1.260 . S
C978 C982 1.477 . S
C978 H996 0.932 . S
C979 C980 1.384 . S
C979 C981 1.479 . S
C979 H997 0.929 . S
C980 C977 1.424 . S
C980 C979 1.384 . S
C980 H998 0.928 . S
C981 C978 1.260 . S
C981 C979 1.479 . S
C982 C977 1.245 . S
C982 C978 1.477 . S
C982 H999 0.932 . S
C983 U966 2.839 1_565 S
C983 C977 1.428 . S
C983 O986 1.301 . S
C983 O987 1.282 . S
O984 U966 2.454 . S
O984 C970 1.249 1_545 S
O985 U966 2.385 1_565 S
O985 C970 1.202 . S
O986 U966 2.436 1_565 S
O986 C983 1.301 . S
O987 U966 2.392 1_565 S
O987 C983 1.282 . S
H988 C961 0.931 . S
H989 C963 0.929 . S
H990 C964 0.930 . S
H991 C965 0.931 1_545 S
H992 C972 0.932 . S
H993 C973 0.930 . S
H994 C974 0.929 . S
H995 C976 0.930 . S
H996 C978 0.932 . S
H997 C979 0.929 . S
H998 C980 0.928 . S
H999 C982 0.932 . S
C1000 C1001 1.264 . S
C1000 C1005 1.479 . S
C1000 C1010 1.465 . S
C1001 C1000 1.264 . S
C1001 C1003 1.339 . S
C1001 H1028 0.931 . S
C1002 C1003 1.395 . S
C1002 C1004 1.320 . S
C1003 C1001 1.339 . S
C1003 C1002 1.395 . S
C1003 H1029 0.929 . S
C1004 C1002 1.320 . S
C1004 C1005 1.405 . S
C1004 H1030 0.930 . S
C1005 C1000 1.479 . S
C1005 C1004 1.405 . S
C1005 H1031 0.931 . S
U1006 O1007 2.454 . S
U1006 O1008 2.458 1_565 S
U1006 C1009 2.984 1_565 S
U1006 C1010 2.847 . S
U1006 C1023 2.882 1_565 S
U1006 O1024 2.441 . S
U1006 O1025 2.420 . S
U1006 O1026 2.455 1_565 S
U1006 O1027 2.449 1_565 S
O1007 U1006 2.454 . S
O1007 C1009 1.353 1_565 S
O1008 U1006 2.458 1_545 S
O1008 C1009 1.286 . S
C1009 U1006 2.984 1_545 S
C1009 O1007 1.353 1_545 S
C1009 O1008 1.286 . S
C1009 C1011 1.363 . S
C1010 C1000 1.465 . S
C1010 U1006 2.847 . S
C1010 O1024 1.249 . S
C1010 O1025 1.202 . S
C1011 C1009 1.363 . S
C1011 C1013 1.408 1_545 S
C1011 C1016 1.342 . S
C1012 C1013 1.310 . S
C1012 C1015 1.461 1_565 S
C1012 H1032 0.932 . S
C1013 C1011 1.408 1_565 S
C1013 C1012 1.310 . S
C1013 H1033 0.930 . S
C1014 C1015 1.474 . S
C1014 C1016 1.285 . S
C1014 H1034 0.929 . S
C1015 C1012 1.461 1_545 S
C1015 C1014 1.474 . S
C1016 C1011 1.342 . S
C1016 C1014 1.285 . S
C1016 H1035 0.930 . S
C1017 C1020 1.424 . S
C1017 C1022 1.245 . S
C1017 C1023 1.428 . S
C1018 C1021 1.260 . S
C1018 C1022 1.477 . S
C1018 H1036 0.932 . S
C1019 C1020 1.384 . S
C1019 C1021 1.479 . S
C1019 H1037 0.929 . S
C1020 C1017 1.424 . S
C1020 C1019 1.384 . S
C1020 H1038 0.928 . S
C1021 C1018 1.260 . S
C1021 C1019 1.479 . S
C1022 C1017 1.245 . S
C1022 C1018 1.477 . S
C1022 H1039 0.932 . S
C1023 U1006 2.882 1_545 S
C1023 C1017 1.428 . S
C1023 O1026 1.301 . S
C1023 O1027 1.282 . S
O1024 U1006 2.441 . S
O1024 C1010 1.249 . S
O1025 U1006 2.420 . S
O1025 C1010 1.202 . S
O1026 U1006 2.455 1_545 S
O1026 C1023 1.301 . S
O1027 U1006 2.449 1_545 S
O1027 C1023 1.282 . S
H1028 C1001 0.931 . S
H1029 C1003 0.929 . S
H1030 C1004 0.930 . S
H1031 C1005 0.931 . S
H1032 C1012 0.932 . S
H1033 C1013 0.930 . S
H1034 C1014 0.929 . S
H1035 C1016 0.930 . S
H1036 C1018 0.932 . S
H1037 C1019 0.929 . S
H1038 C1020 0.928 . S
H1039 C1022 0.932 . S
C1040 C1041 1.264 . S
C1040 C1045 1.479 . S
C1040 C1050 1.465 . S
C1041 C1040 1.264 . S
C1041 C1043 1.339 . S
C1041 H1068 0.931 . S
C1042 C1043 1.395 . S
C1042 C1044 1.320 . S
C1043 C1041 1.339 . S
C1043 C1042 1.395 . S
C1043 H1069 0.929 . S
C1044 C1042 1.320 . S
C1044 C1045 1.405 . S
C1044 H1070 0.930 . S
C1045 C1040 1.479 . S
C1045 C1044 1.405 . S
C1045 H1071 0.931 . S
U1046 O1047 2.449 1_545 S
U1046 O1048 2.474 . S
U1046 C1049 2.991 . S
U1046 C1050 2.822 1_545 S
U1046 C1063 2.901 . S
U1046 O1064 2.415 1_545 S
U1046 O1065 2.401 1_545 S
U1046 O1066 2.479 . S
U1046 O1067 2.458 . S
O1047 U1046 2.449 1_565 S
O1047 C1049 1.353 1_565 S
O1048 U1046 2.474 . S
O1048 C1049 1.286 . S
C1049 U1046 2.991 . S
C1049 O1047 1.353 1_545 S
C1049 O1048 1.286 . S
C1049 C1051 1.363 . S
C1050 C1040 1.465 . S
C1050 U1046 2.822 1_565 S
C1050 O1064 1.249 . S
C1050 O1065 1.202 . S
C1051 C1049 1.363 . S
C1051 C1053 1.408 . S
C1051 C1056 1.342 . S
C1052 C1053 1.310 . S
C1052 C1055 1.461 . S
C1052 H1072 0.932 . S
C1053 C1051 1.408 . S
C1053 C1052 1.310 . S
C1053 H1073 0.930 1_545 S
C1054 C1055 1.474 . S
C1054 C1056 1.285 . S
C1054 H1074 0.929 . S
C1055 C1052 1.461 . S
C1055 C1054 1.474 . S
C1056 C1051 1.342 . S
C1056 C1054 1.285 . S
C1056 H1075 0.930 . S
C1057 C1060 1.424 . S
C1057 C1062 1.245 . S
C1057 C1063 1.428 . S
C1058 C1061 1.260 . S
C1058 C1062 1.477 . S
C1058 H1076 0.932 . S
C1059 C1060 1.384 . S
C1059 C1061 1.479 . S
C1059 H1077 0.929 . S
C1060 C1057 1.424 . S
C1060 C1059 1.384 . S
C1060 H1078 0.928 . S
C1061 C1058 1.260 . S
C1061 C1059 1.479 . S
C1062 C1057 1.245 . S
C1062 C1058 1.477 . S
C1062 H1079 0.932 . S
C1063 U1046 2.901 . S
C1063 C1057 1.428 . S
C1063 O1066 1.301 . S
C1063 O1067 1.282 . S
O1064 U1046 2.415 1_565 S
O1064 C1050 1.249 . S
O1065 U1046 2.401 1_565 S
O1065 C1050 1.202 . S
O1066 U1046 2.479 . S
O1066 C1063 1.301 . S
O1067 U1046 2.458 . S
O1067 C1063 1.282 . S
H1068 C1041 0.931 . S
H1069 C1043 0.929 . S
H1070 C1044 0.930 . S
H1071 C1045 0.931 . S
H1072 C1052 0.932 . S
H1073 C1053 0.930 1_565 S
H1074 C1054 0.929 . S
H1075 C1056 0.930 . S
H1076 C1058 0.932 . S
H1077 C1059 0.929 . S
H1078 C1060 0.928 . S
H1079 C1062 0.932 . S
C1080 C1081 1.264 . S
C1080 C1085 1.479 . S
C1080 C1090 1.465 . S
C1081 C1080 1.264 . S
C1081 C1083 1.339 . S
C1081 H1108 0.931 . S
C1082 C1083 1.395 . S
C1082 C1084 1.320 . S
C1083 C1081 1.339 . S
C1083 C1082 1.395 . S
C1083 H1109 0.929 . S
C1084 C1082 1.320 . S
C1084 C1085 1.405 . S
C1084 H1110 0.930 . S
C1085 C1080 1.479 . S
C1085 C1084 1.405 . S
C1085 H1111 0.931 . S
U1086 O1087 2.454 . S
U1086 O1088 2.458 . S
U1086 C1089 2.984 . S
U1086 C1090 2.847 . S
U1086 C1103 2.882 . S
U1086 O1104 2.441 . S
U1086 O1105 2.420 . S
U1086 O1106 2.455 . S
U1086 O1107 2.449 . S
O1087 U1086 2.454 . S
O1087 C1089 1.353 . S
O1088 U1086 2.458 . S
O1088 C1089 1.286 . S
C1089 U1086 2.984 . S
C1089 O1087 1.353 . S
C1089 O1088 1.286 . S
C1089 C1091 1.363 . S
C1090 C1080 1.465 . S
C1090 U1086 2.847 . S
C1090 O1104 1.249 . S
C1090 O1105 1.202 . S
C1091 C1089 1.363 . S
C1091 C1093 1.432 . S
C1091 C1096 1.342 . S
C1092 C1093 1.276 1_554 S
C1092 C1095 1.461 . S
C1092 H1112 0.932 . S
C1093 C1091 1.432 . S
C1093 C1092 1.276 1_556 S
C1093 H1113 0.941 . S
C1094 C1095 1.474 . S
C1094 C1096 1.285 1_554 S
C1094 H1114 0.929 . S
C1095 C1092 1.461 . S
C1095 C1094 1.474 . S
C1096 C1091 1.342 . S
C1096 C1094 1.285 1_556 S
C1096 H1115 0.930 . S
C1097 C1100 1.424 . S
C1097 C1102 1.245 . S
C1097 C1103 1.428 . S
C1098 C1101 1.260 . S
C1098 C1102 1.477 . S
C1098 H1116 0.932 . S
C1099 C1100 1.384 . S
C1099 C1101 1.479 . S
C1099 H1117 0.929 . S
C1100 C1097 1.424 . S
C1100 C1099 1.384 . S
C1100 H1118 0.928 . S
C1101 C1098 1.260 . S
C1101 C1099 1.479 . S
C1102 C1097 1.245 . S
C1102 C1098 1.477 . S
C1102 H1119 0.932 . S
C1103 U1086 2.882 . S
C1103 C1097 1.428 . S
C1103 O1106 1.301 . S
C1103 O1107 1.282 . S
O1104 U1086 2.441 . S
O1104 C1090 1.249 . S
O1105 U1086 2.420 . S
O1105 C1090 1.202 . S
O1106 U1086 2.455 . S
O1106 C1103 1.301 . S
O1107 U1086 2.449 . S
O1107 C1103 1.282 . S
H1108 C1081 0.931 . S
H1109 C1083 0.929 . S
H1110 C1084 0.930 . S
H1111 C1085 0.931 . S
H1112 C1092 0.932 . S
H1113 C1093 0.941 . S
H1114 C1094 0.929 . S
H1115 C1096 0.930 . S
H1116 C1098 0.932 . S
H1117 C1099 0.929 . S
H1118 C1100 0.928 . S
H1119 C1102 0.932 . S
C1120 C1121 1.264 . S
C1120 C1125 1.479 . S
C1120 C1130 1.465 . S
C1121 C1120 1.264 . S
C1121 C1123 1.339 . S
C1121 H1148 0.931 . S
C1122 C1123 1.395 . S
C1122 C1124 1.320 . S
C1123 C1121 1.339 . S
C1123 C1122 1.395 . S
C1123 H1149 0.929 . S
C1124 C1122 1.320 . S
C1124 C1125 1.405 . S
C1124 H1150 0.930 . S
C1125 C1120 1.479 . S
C1125 C1124 1.405 . S
C1125 H1151 0.931 . S
U1126 O1127 2.443 1_455 S
U1126 O1128 2.458 . S
U1126 C1129 2.984 . S
U1126 C1130 2.847 1_455 S
U1126 C1143 2.882 . S
U1126 O1144 2.441 1_455 S
U1126 O1145 2.420 1_455 S
U1126 O1146 2.455 . S
U1126 O1147 2.449 . S
O1127 U1126 2.443 1_655 S
O1127 C1129 1.319 1_655 S
O1128 U1126 2.458 . S
O1128 C1129 1.286 . S
C1129 U1126 2.984 . S
C1129 O1127 1.319 1_455 S
C1129 O1128 1.286 . S
C1129 C1131 1.363 . S
C1130 C1120 1.465 . S
C1130 U1126 2.847 1_655 S
C1130 O1144 1.249 . S
C1130 O1145 1.202 . S
C1131 C1129 1.363 . S
C1131 C1133 1.408 . S
C1131 C1136 1.342 . S
C1132 C1133 1.310 . S
C1132 C1135 1.461 . S
C1132 H1152 0.932 1_455 S
C1133 C1131 1.408 . S
C1133 C1132 1.310 . S
C1133 H1153 0.930 1_455 S
C1134 C1135 1.474 . S
C1134 C1136 1.285 . S
C1134 H1154 0.929 . S
C1135 C1132 1.461 . S
C1135 C1134 1.474 . S
C1136 C1131 1.342 . S
C1136 C1134 1.285 . S
C1136 H1155 0.930 . S
C1137 C1140 1.424 . S
C1137 C1142 1.245 . S
C1137 C1143 1.428 . S
C1138 C1141 1.260 . S
C1138 C1142 1.477 . S
C1138 H1156 0.932 . S
C1139 C1140 1.384 . S
C1139 C1141 1.479 . S
C1139 H1157 0.929 . S
C1140 C1137 1.424 . S
C1140 C1139 1.384 . S
C1140 H1158 0.928 . S
C1141 C1138 1.260 . S
C1141 C1139 1.479 . S
C1142 C1137 1.245 . S
C1142 C1138 1.477 . S
C1142 H1159 0.932 . S
C1143 U1126 2.882 . S
C1143 C1137 1.428 . S
C1143 O1146 1.301 . S
C1143 O1147 1.282 . S
O1144 U1126 2.441 1_655 S
O1144 C1130 1.249 . S
O1145 U1126 2.420 1_655 S
O1145 C1130 1.202 . S
O1146 U1126 2.455 . S
O1146 C1143 1.301 . S
O1147 U1126 2.449 . S
O1147 C1143 1.282 . S
H1148 C1121 0.931 . S
H1149 C1123 0.929 . S
H1150 C1124 0.930 . S
H1151 C1125 0.931 . S
H1152 C1132 0.932 1_655 S
H1153 C1133 0.930 1_655 S
H1154 C1134 0.929 . S
H1155 C1136 0.930 . S
H1156 C1138 0.932 . S
H1157 C1139 0.929 . S
H1158 C1140 0.928 . S
H1159 C1142 0.932 . S
C1160 C1161 1.264 . S
C1160 C1165 1.479 . S
C1160 C1170 1.465 . S
C1161 C1160 1.264 . S
C1161 C1163 1.339 . S
C1161 H1188 0.931 . S
C1162 C1163 1.395 . S
C1162 C1164 1.320 . S
C1163 C1161 1.339 . S
C1163 C1162 1.395 . S
C1163 H1189 0.929 . S
C1164 C1162 1.320 . S
C1164 C1165 1.405 . S
C1164 H1190 0.930 . S
C1165 C1160 1.479 . S
C1165 C1164 1.405 . S
C1165 H1191 0.931 . S
U1166 O1167 2.454 . S
U1166 O1168 2.458 . S
U1166 C1169 2.984 . S
U1166 C1170 2.847 . S
U1166 C1183 2.882 . S
U1166 O1184 2.441 . S
U1166 O1185 2.420 . S
U1166 O1186 2.455 . S
U1166 O1187 2.449 . S
O1167 U1166 2.454 . S
O1167 C1169 1.353 . S
O1168 U1166 2.458 . S
O1168 C1169 1.286 . S
C1169 U1166 2.984 . S
C1169 O1167 1.353 . S
C1169 O1168 1.286 . S
C1169 C1171 1.363 . S
C1170 C1160 1.465 . S
C1170 U1166 2.847 . S
C1170 O1184 1.249 . S
C1170 O1185 1.202 . S
C1171 C1169 1.363 . S
C1171 C1173 1.408 . S
C1171 C1176 1.342 . S
C1172 C1173 1.310 . S
C1172 C1175 1.461 . S
C1172 H1192 0.932 . S
C1173 C1171 1.408 . S
C1173 C1172 1.310 . S
C1173 H1193 0.930 . S
C1174 C1175 1.474 . S
C1174 C1176 1.285 . S
C1174 H1194 0.929 . S
C1175 C1172 1.461 . S
C1175 C1174 1.474 . S
C1176 C1171 1.342 . S
C1176 C1174 1.285 . S
C1176 H1195 0.930 . S
C1177 C1180 1.424 . S
C1177 C1182 1.245 . S
C1177 C1183 1.428 . S
C1178 C1181 1.260 . S
C1178 C1182 1.477 . S
C1178 H1196 0.932 . S
C1179 C1180 1.384 . S
C1179 C1181 1.479 . S
C1179 H1197 0.929 . S
C1180 C1177 1.424 . S
C1180 C1179 1.384 . S
C1180 H1198 0.928 . S
C1181 C1178 1.260 . S
C1181 C1179 1.479 . S
C1182 C1177 1.245 . S
C1182 C1178 1.477 . S
C1182 H1199 0.932 . S
C1183 U1166 2.882 . S
C1183 C1177 1.428 . S
C1183 O1186 1.301 . S
C1183 O1187 1.282 . S
O1184 U1166 2.441 . S
O1184 C1170 1.249 . S
O1185 U1166 2.420 . S
O1185 C1170 1.202 . S
O1186 U1166 2.455 . S
O1186 C1183 1.301 . S
O1187 U1166 2.449 . S
O1187 C1183 1.282 . S
H1188 C1161 0.931 . S
H1189 C1163 0.929 . S
H1190 C1164 0.930 . S
H1191 C1165 0.931 . S
H1192 C1172 0.932 . S
H1193 C1173 0.930 . S
H1194 C1174 0.929 . S
H1195 C1176 0.930 . S
H1196 C1178 0.932 . S
H1197 C1179 0.929 . S
H1198 C1180 0.928 . S
H1199 C1182 0.932 . S
C1200 C1201 1.264 . S
C1200 C1205 1.479 . S
C1200 C1210 1.465 . S
C1201 C1200 1.264 . S
C1201 C1203 1.339 . S
C1201 H1228 0.931 . S
C1202 C1203 1.395 . S
C1202 C1204 1.320 . S
C1203 C1201 1.339 . S
C1203 C1202 1.395 . S
C1203 H1229 0.929 . S
C1204 C1202 1.320 . S
C1204 C1205 1.405 . S
C1204 H1230 0.930 . S
C1205 C1200 1.479 . S
C1205 C1204 1.405 . S
C1205 H1231 0.931 . S
U1206 O1207 2.454 . S
U1206 O1208 2.458 . S
U1206 C1209 2.984 . S
U1206 C1210 2.847 . S
U1206 C1223 2.882 . S
U1206 O1224 2.441 . S
U1206 O1225 2.420 . S
U1206 O1226 2.455 . S
U1206 O1227 2.449 . S
O1207 U1206 2.454 . S
O1207 C1209 1.353 . S
O1208 U1206 2.458 . S
O1208 C1209 1.286 . S
C1209 U1206 2.984 . S
C1209 O1207 1.353 . S
C1209 O1208 1.286 . S
C1209 C1211 1.363 . S
C1210 C1200 1.465 . S
C1210 U1206 2.847 . S
C1210 O1224 1.249 . S
C1210 O1225 1.202 . S
C1211 C1209 1.363 . S
C1211 C1213 1.408 . S
C1211 C1216 1.342 . S
C1212 C1213 1.310 . S
C1212 C1215 1.461 . S
C1212 H1232 0.932 . S
C1213 C1211 1.408 . S
C1213 C1212 1.310 . S
C1213 H1233 0.930 . S
C1214 C1215 1.474 . S
C1214 C1216 1.285 . S
C1214 H1234 0.929 . S
C1215 C1212 1.461 . S
C1215 C1214 1.474 . S
C1216 C1211 1.342 . S
C1216 C1214 1.285 . S
C1216 H1235 0.930 . S
C1217 C1220 1.424 . S
C1217 C1222 1.245 . S
C1217 C1223 1.428 . S
C1218 C1221 1.260 . S
C1218 C1222 1.477 . S
C1218 H1236 0.932 . S
C1219 C1220 1.384 . S
C1219 C1221 1.479 . S
C1219 H1237 0.929 . S
C1220 C1217 1.424 . S
C1220 C1219 1.384 . S
C1220 H1238 0.928 . S
C1221 C1218 1.260 . S
C1221 C1219 1.479 . S
C1222 C1217 1.245 . S
C1222 C1218 1.477 . S
C1222 H1239 0.932 . S
C1223 U1206 2.882 . S
C1223 C1217 1.428 . S
C1223 O1226 1.301 . S
C1223 O1227 1.282 . S
O1224 U1206 2.441 . S
O1224 C1210 1.249 . S
O1225 U1206 2.420 . S
O1225 C1210 1.202 . S
O1226 U1206 2.455 . S
O1226 C1223 1.301 . S
O1227 U1206 2.449 . S
O1227 C1223 1.282 . S
H1228 C1201 0.931 . S
H1229 C1203 0.929 . S
H1230 C1204 0.930 . S
H1231 C1205 0.931 . S
H1232 C1212 0.932 . S
H1233 C1213 0.930 . S
H1234 C1214 0.929 . S
H1235 C1216 0.930 . S
H1236 C1218 0.932 . S
H1237 C1219 0.929 . S
H1238 C1220 0.928 . S
H1239 C1222 0.932 . S
C1240 C1241 1.264 . S
C1240 C1245 1.479 . S
C1240 C1250 1.465 . S
C1241 C1240 1.264 . S
C1241 C1243 1.339 . S
C1241 H1268 0.931 . S
C1242 C1243 1.395 . S
C1242 C1244 1.320 . S
C1243 C1241 1.339 . S
C1243 C1242 1.395 . S
C1243 H1269 0.929 . S
C1244 C1242 1.320 . S
C1244 C1245 1.405 . S
C1244 H1270 0.930 . S
C1245 C1240 1.479 . S
C1245 C1244 1.405 . S
C1245 H1271 0.931 . S
U1246 O1247 2.454 1_655 S
U1246 O1248 2.458 1_655 S
U1246 C1249 2.984 1_655 S
U1246 C1250 2.847 . S
U1246 C1263 2.882 . S
U1246 O1264 2.441 . S
U1246 O1265 2.420 . S
U1246 O1266 2.455 . S
U1246 O1267 2.449 . S
O1247 U1246 2.454 1_455 S
O1247 C1249 1.353 . S
O1248 U1246 2.458 1_455 S
O1248 C1249 1.286 . S
C1249 U1246 2.984 1_455 S
C1249 O1247 1.353 . S
C1249 O1248 1.286 . S
C1249 C1251 1.363 . S
C1250 C1240 1.465 . S
C1250 U1246 2.847 . S
C1250 O1264 1.249 . S
C1250 O1265 1.202 . S
C1251 C1249 1.363 . S
C1251 C1253 1.408 . S
C1251 C1256 1.342 . S
C1252 C1253 1.310 . S
C1252 C1255 1.461 . S
C1252 H1272 0.932 . S
C1253 C1251 1.408 . S
C1253 C1252 1.310 . S
C1253 H1273 0.930 . S
C1254 C1255 1.474 . S
C1254 C1256 1.285 . S
C1254 H1274 0.929 . S
C1255 C1252 1.461 . S
C1255 C1254 1.474 . S
C1256 C1251 1.342 . S
C1256 C1254 1.285 . S
C1256 H1275 0.930 . S
C1257 C1260 1.424 . S
C1257 C1262 1.245 . S
C1257 C1263 1.428 . S
C1258 C1261 1.260 . S
C1258 C1262 1.477 . S
C1258 H1276 0.932 . S
C1259 C1260 1.384 . S
C1259 C1261 1.479 . S
C1259 H1277 0.929 . S
C1260 C1257 1.424 . S
C1260 C1259 1.384 . S
C1260 H1278 0.928 . S
C1261 C1258 1.260 . S
C1261 C1259 1.479 . S
C1262 C1257 1.245 . S
C1262 C1258 1.477 . S
C1262 H1279 0.932 . S
C1263 U1246 2.882 . S
C1263 C1257 1.428 . S
C1263 O1266 1.301 . S
C1263 O1267 1.282 . S
O1264 U1246 2.441 . S
O1264 C1250 1.249 . S
O1265 U1246 2.420 . S
O1265 C1250 1.202 . S
O1266 U1246 2.455 . S
O1266 C1263 1.301 . S
O1267 U1246 2.449 . S
O1267 C1263 1.282 . S
H1268 C1241 0.931 . S
H1269 C1243 0.929 . S
H1270 C1244 0.930 . S
H1271 C1245 0.931 . S
H1272 C1252 0.932 . S
H1273 C1253 0.930 . S
H1274 C1254 0.929 . S
H1275 C1256 0.930 . S
H1276 C1258 0.932 . S
H1277 C1259 0.929 . S
H1278 C1260 0.928 . S
H1279 C1262 0.932 . S
C1280 C1281 1.264 . S
C1280 C1285 1.479 . S
C1280 C1290 1.465 . S
C1281 C1280 1.264 . S
C1281 C1283 1.339 . S
C1281 H1308 0.931 . S
C1282 C1283 1.395 . S
C1282 C1284 1.320 . S
C1283 C1281 1.339 . S
C1283 C1282 1.395 . S
C1283 H1309 0.929 . S
C1284 C1282 1.320 . S
C1284 C1285 1.405 . S
C1284 H1310 0.930 . S
C1285 C1280 1.479 . S
C1285 C1284 1.405 . S
C1285 H1311 0.931 . S
U1286 O1287 2.454 . S
U1286 O1288 2.458 . S
U1286 C1289 2.984 . S
U1286 C1290 2.847 . S
U1286 C1303 2.882 . S
U1286 O1304 2.441 . S
U1286 O1305 2.420 . S
U1286 O1306 2.455 . S
U1286 O1307 2.449 . S
O1287 U1286 2.454 . S
O1287 C1289 1.353 . S
O1288 U1286 2.458 . S
O1288 C1289 1.286 . S
C1289 U1286 2.984 . S
C1289 O1287 1.353 . S
C1289 O1288 1.286 . S
C1289 C1291 1.363 . S
C1290 C1280 1.465 . S
C1290 U1286 2.847 . S
C1290 O1304 1.249 . S
C1290 O1305 1.202 . S
C1291 C1289 1.363 . S
C1291 C1293 1.408 . S
C1291 C1296 1.342 . S
C1292 C1293 1.310 . S
C1292 C1295 1.461 . S
C1292 H1312 0.932 . S
C1293 C1291 1.408 . S
C1293 C1292 1.310 . S
C1293 H1313 0.930 . S
C1294 C1295 1.474 . S
C1294 C1296 1.285 . S
C1294 H1314 0.929 . S
C1295 C1292 1.461 . S
C1295 C1294 1.474 . S
C1296 C1291 1.342 . S
C1296 C1294 1.285 . S
C1296 H1315 0.930 . S
C1297 C1300 1.424 . S
C1297 C1302 1.245 . S
C1297 C1303 1.428 . S
C1298 C1301 1.260 . S
C1298 C1302 1.477 . S
C1298 H1316 0.932 . S
C1299 C1300 1.384 . S
C1299 C1301 1.479 . S
C1299 H1317 0.929 . S
C1300 C1297 1.424 . S
C1300 C1299 1.384 . S
C1300 H1318 0.928 . S
C1301 C1298 1.260 . S
C1301 C1299 1.479 . S
C1302 C1297 1.245 . S
C1302 C1298 1.477 . S
C1302 H1319 0.932 . S
C1303 U1286 2.882 . S
C1303 C1297 1.428 . S
C1303 O1306 1.301 . S
C1303 O1307 1.282 . S
O1304 U1286 2.441 . S
O1304 C1290 1.249 . S
O1305 U1286 2.420 . S
O1305 C1290 1.202 . S
O1306 U1286 2.455 . S
O1306 C1303 1.301 . S
O1307 U1286 2.449 . S
O1307 C1303 1.282 . S
H1308 C1281 0.931 . S
H1309 C1283 0.929 . S
H1310 C1284 0.930 . S
H1311 C1285 0.931 . S
H1312 C1292 0.932 . S
H1313 C1293 0.930 . S
H1314 C1294 0.929 . S
H1315 C1296 0.930 . S
H1316 C1298 0.932 . S
H1317 C1299 0.929 . S
H1318 C1300 0.928 . S
H1319 C1302 0.932 . S
C1320 C1321 1.264 . S
C1320 C1325 1.479 . S
C1320 C1330 1.465 . S
C1321 C1320 1.264 . S
C1321 C1323 1.339 . S
C1321 H1348 0.931 . S
C1322 C1323 1.395 . S
C1322 C1324 1.320 . S
C1323 C1321 1.339 . S
C1323 C1322 1.395 . S
C1323 H1349 0.929 . S
C1324 C1322 1.320 . S
C1324 C1325 1.405 . S
C1324 H1350 0.930 . S
C1325 C1320 1.479 . S
C1325 C1324 1.405 . S
C1325 H1351 0.931 . S
U1326 O1327 2.454 . S
U1326 O1328 2.458 . S
U1326 C1329 2.984 . S
U1326 C1330 2.847 . S
U1326 C1343 2.882 . S
U1326 O1344 2.441 . S
U1326 O1345 2.420 . S
U1326 O1346 2.455 . S
U1326 O1347 2.449 . S
O1327 U1326 2.454 . S
O1327 C1329 1.353 . S
O1328 U1326 2.458 . S
O1328 C1329 1.286 . S
C1329 U1326 2.984 . S
C1329 O1327 1.353 . S
C1329 O1328 1.286 . S
C1329 C1331 1.363 . S
C1330 C1320 1.465 . S
C1330 U1326 2.847 . S
C1330 O1344 1.249 . S
C1330 O1345 1.202 . S
C1331 C1329 1.363 . S
C1331 C1333 1.408 . S
C1331 C1336 1.342 . S
C1332 C1333 1.310 1_554 S
C1332 C1335 1.461 . S
C1332 H1352 0.932 . S
C1333 C1331 1.408 . S
C1333 C1332 1.310 1_556 S
C1333 H1353 0.930 . S
C1334 C1335 1.474 . S
C1334 C1336 1.285 1_554 S
C1334 H1354 0.929 . S
C1335 C1332 1.461 . S
C1335 C1334 1.474 . S
C1336 C1331 1.342 . S
C1336 C1334 1.285 1_556 S
C1336 H1355 0.930 . S
C1337 C1340 1.424 . S
C1337 C1342 1.245 . S
C1337 C1343 1.428 . S
C1338 C1341 1.260 . S
C1338 C1342 1.477 . S
C1338 H1356 0.932 . S
C1339 C1340 1.384 . S
C1339 C1341 1.479 . S
C1339 H1357 0.929 . S
C1340 C1337 1.424 . S
C1340 C1339 1.384 . S
C1340 H1358 0.928 . S
C1341 C1338 1.260 . S
C1341 C1339 1.479 . S
C1342 C1337 1.245 . S
C1342 C1338 1.477 . S
C1342 H1359 0.932 . S
C1343 U1326 2.882 . S
C1343 C1337 1.428 . S
C1343 O1346 1.301 . S
C1343 O1347 1.282 . S
O1344 U1326 2.441 . S
O1344 C1330 1.249 . S
O1345 U1326 2.420 . S
O1345 C1330 1.202 . S
O1346 U1326 2.455 . S
O1346 C1343 1.301 . S
O1347 U1326 2.449 . S
O1347 C1343 1.282 . S
H1348 C1321 0.931 . S
H1349 C1323 0.929 . S
H1350 C1324 0.930 . S
H1351 C1325 0.931 . S
H1352 C1332 0.932 . S
H1353 C1333 0.930 . S
H1354 C1334 0.929 . S
H1355 C1336 0.930 . S
H1356 C1338 0.932 . S
H1357 C1339 0.929 . S
H1358 C1340 0.928 . S
H1359 C1342 0.932 . S
C1360 C1361 1.264 . S
C1360 C1365 1.479 . S
C1360 C1370 1.465 . S
C1361 C1360 1.264 . S
C1361 C1363 1.339 . S
C1361 H1388 0.931 . S
C1362 C1363 1.395 . S
C1362 C1364 1.320 . S
C1363 C1361 1.339 . S
C1363 C1362 1.395 . S
C1363 H1389 0.929 . S
C1364 C1362 1.320 . S
C1364 C1365 1.405 . S
C1364 H1390 0.930 . S
C1365 C1360 1.479 . S
C1365 C1364 1.405 . S
C1365 H1391 0.931 . S
U1366 O1367 2.454 . S
U1366 O1368 2.458 . S
U1366 C1369 2.984 . S
U1366 C1370 2.847 . S
U1366 C1383 2.882 . S
U1366 O1384 2.441 . S
U1366 O1385 2.420 . S
U1366 O1386 2.455 . S
U1366 O1387 2.449 . S
O1367 U1366 2.454 . S
O1367 C1369 1.353 . S
O1368 U1366 2.458 . S
O1368 C1369 1.286 . S
C1369 U1366 2.984 . S
C1369 O1367 1.353 . S
C1369 O1368 1.286 . S
C1369 C1371 1.363 . S
C1370 C1360 1.465 . S
C1370 U1366 2.847 . S
C1370 O1384 1.249 . S
C1370 O1385 1.202 . S
C1371 C1369 1.363 . S
C1371 C1373 1.408 . S
C1371 C1376 1.342 . S
C1372 C1373 1.310 . S
C1372 C1375 1.461 . S
C1372 H1392 0.932 . S
C1373 C1371 1.408 . S
C1373 C1372 1.310 . S
C1373 H1393 0.930 . S
C1374 C1375 1.474 . S
C1374 C1376 1.285 . S
C1374 H1394 0.929 . S
C1375 C1372 1.461 . S
C1375 C1374 1.474 . S
C1376 C1371 1.342 . S
C1376 C1374 1.285 . S
C1376 H1395 0.930 . S
C1377 C1380 1.424 . S
C1377 C1382 1.245 . S
C1377 C1383 1.428 . S
C1378 C1381 1.260 . S
C1378 C1382 1.477 . S
C1378 H1396 0.932 . S
C1379 C1380 1.384 . S
C1379 C1381 1.479 . S
C1379 H1397 0.929 . S
C1380 C1377 1.424 . S
C1380 C1379 1.384 . S
C1380 H1398 0.928 . S
C1381 C1378 1.260 . S
C1381 C1379 1.479 . S
C1382 C1377 1.245 . S
C1382 C1378 1.477 . S
C1382 H1399 0.932 . S
C1383 U1366 2.882 . S
C1383 C1377 1.428 . S
C1383 O1386 1.301 . S
C1383 O1387 1.282 . S
O1384 U1366 2.441 . S
O1384 C1370 1.249 . S
O1385 U1366 2.420 . S
O1385 C1370 1.202 . S
O1386 U1366 2.455 . S
O1386 C1383 1.301 . S
O1387 U1366 2.449 . S
O1387 C1383 1.282 . S
H1388 C1361 0.931 . S
H1389 C1363 0.929 . S
H1390 C1364 0.930 . S
H1391 C1365 0.931 . S
H1392 C1372 0.932 . S
H1393 C1373 0.930 . S
H1394 C1374 0.929 . S
H1395 C1376 0.930 . S
H1396 C1378 0.932 . S
H1397 C1379 0.929 . S
H1398 C1380 0.928 . S
H1399 C1382 0.932 . S
C1400 C1401 1.264 . S
C1400 C1405 1.479 . S
C1400 C1410 1.465 . S
C1401 C1400 1.264 . S
C1401 C1403 1.339 . S
C1401 H1428 0.931 . S
C1402 C1403 1.395 . S
C1402 C1404 1.320 . S
C1403 C1401 1.339 . S
C1403 C1402 1.395 . S
C1403 H1429 0.929 . S
C1404 C1402 1.320 . S
C1404 C1405 1.405 . S
C1404 H1430 0.930 . S
C1405 C1400 1.479 . S
C1405 C1404 1.405 . S
C1405 H1431 0.931 . S
U1406 O1407 2.454 . S
U1406 O1408 2.458 . S
U1406 C1409 2.984 . S
U1406 C1410 2.847 . S
U1406 C1423 2.882 . S
U1406 O1424 2.441 . S
U1406 O1425 2.420 . S
U1406 O1426 2.455 . S
U1406 O1427 2.449 . S
O1407 U1406 2.454 . S
O1407 C1409 1.353 . S
O1408 U1406 2.458 . S
O1408 C1409 1.286 . S
C1409 U1406 2.984 . S
C1409 O1407 1.353 . S
C1409 O1408 1.286 . S
C1409 C1411 1.363 . S
C1410 C1400 1.465 . S
C1410 U1406 2.847 . S
C1410 O1424 1.249 . S
C1410 O1425 1.202 . S
C1411 C1409 1.363 . S
C1411 C1413 1.408 . S
C1411 C1416 1.342 . S
C1412 C1413 1.310 . S
C1412 C1415 1.461 . S
C1412 H1432 0.932 . S
C1413 C1411 1.408 . S
C1413 C1412 1.310 . S
C1413 H1433 0.930 . S
C1414 C1415 1.474 . S
C1414 C1416 1.285 . S
C1414 H1434 0.929 . S
C1415 C1412 1.461 . S
C1415 C1414 1.474 . S
C1416 C1411 1.342 . S
C1416 C1414 1.285 . S
C1416 H1435 0.930 . S
C1417 C1420 1.424 . S
C1417 C1422 1.245 . S
C1417 C1423 1.428 . S
C1418 C1421 1.260 . S
C1418 C1422 1.477 . S
C1418 H1436 0.932 . S
C1419 C1420 1.384 . S
C1419 C1421 1.479 . S
C1419 H1437 0.929 . S
C1420 C1417 1.424 . S
C1420 C1419 1.384 . S
C1420 H1438 0.928 . S
C1421 C1418 1.260 . S
C1421 C1419 1.479 . S
C1422 C1417 1.245 . S
C1422 C1418 1.477 . S
C1422 H1439 0.932 . S
C1423 U1406 2.882 . S
C1423 C1417 1.428 . S
C1423 O1426 1.301 . S
C1423 O1427 1.282 . S
O1424 U1406 2.441 . S
O1424 C1410 1.249 . S
O1425 U1406 2.420 . S
O1425 C1410 1.202 . S
O1426 U1406 2.455 . S
O1426 C1423 1.301 . S
O1427 U1406 2.449 . S
O1427 C1423 1.282 . S
H1428 C1401 0.931 . S
H1429 C1403 0.929 . S
H1430 C1404 0.930 . S
H1431 C1405 0.931 . S
H1432 C1412 0.932 . S
H1433 C1413 0.930 . S
H1434 C1414 0.929 . S
H1435 C1416 0.930 . S
H1436 C1418 0.932 . S
H1437 C1419 0.929 . S
H1438 C1420 0.928 . S
H1439 C1422 0.932 . S
C1440 C1441 1.264 . S
C1440 C1445 1.479 . S
C1440 C1450 1.465 . S
C1441 C1440 1.264 . S
C1441 C1443 1.339 . S
C1441 H1468 0.931 . S
C1442 C1443 1.395 . S
C1442 C1444 1.320 . S
C1443 C1441 1.339 . S
C1443 C1442 1.395 . S
C1443 H1469 0.929 . S
C1444 C1442 1.320 . S
C1444 C1445 1.405 . S
C1444 H1470 0.930 . S
C1445 C1440 1.479 . S
C1445 C1444 1.405 . S
C1445 H1471 0.931 . S
U1446 O1447 2.454 . S
U1446 O1448 2.458 . S
U1446 C1449 2.984 . S
U1446 C1450 2.847 . S
U1446 C1463 2.882 . S
U1446 O1464 2.441 . S
U1446 O1465 2.420 . S
U1446 O1466 2.455 . S
U1446 O1467 2.449 . S
O1447 U1446 2.454 . S
O1447 C1449 1.353 . S
O1448 U1446 2.458 . S
O1448 C1449 1.286 . S
C1449 U1446 2.984 . S
C1449 O1447 1.353 . S
C1449 O1448 1.286 . S
C1449 C1451 1.363 . S
C1450 C1440 1.465 . S
C1450 U1446 2.847 . S
C1450 O1464 1.249 . S
C1450 O1465 1.202 . S
C1451 C1449 1.363 . S
C1451 C1453 1.408 . S
C1451 C1456 1.342 . S
C1452 C1453 1.310 . S
C1452 C1455 1.461 . S
C1452 H1472 0.932 . S
C1453 C1451 1.408 . S
C1453 C1452 1.310 . S
C1453 H1473 0.930 . S
C1454 C1455 1.474 . S
C1454 C1456 1.285 . S
C1454 H1474 0.929 . S
C1455 C1452 1.461 . S
C1455 C1454 1.474 . S
C1456 C1451 1.342 . S
C1456 C1454 1.285 . S
C1456 H1475 0.930 . S
C1457 C1460 1.424 . S
C1457 C1462 1.245 . S
C1457 C1463 1.428 . S
C1458 C1461 1.260 . S
C1458 C1462 1.477 . S
C1458 H1476 0.932 . S
C1459 C1460 1.384 . S
C1459 C1461 1.479 . S
C1459 H1477 0.929 . S
C1460 C1457 1.424 . S
C1460 C1459 1.384 . S
C1460 H1478 0.928 . S
C1461 C1458 1.260 . S
C1461 C1459 1.479 . S
C1462 C1457 1.245 . S
C1462 C1458 1.477 . S
C1462 H1479 0.932 . S
C1463 U1446 2.882 . S
C1463 C1457 1.428 . S
C1463 O1466 1.301 . S
C1463 O1467 1.282 . S
O1464 U1446 2.441 . S
O1464 C1450 1.249 . S
O1465 U1446 2.420 . S
O1465 C1450 1.202 . S
O1466 U1446 2.455 . S
O1466 C1463 1.301 . S
O1467 U1446 2.449 . S
O1467 C1463 1.282 . S
H1468 C1441 0.931 . S
H1469 C1443 0.929 . S
H1470 C1444 0.930 . S
H1471 C1445 0.931 . S
H1472 C1452 0.932 . S
H1473 C1453 0.930 . S
H1474 C1454 0.929 . S
H1475 C1456 0.930 . S
H1476 C1458 0.932 . S
H1477 C1459 0.929 . S
H1478 C1460 0.928 . S
H1479 C1462 0.932 . S
C1480 C1481 1.264 . S
C1480 C1485 1.479 . S
C1480 C1490 1.465 . S
C1481 C1480 1.264 . S
C1481 C1483 1.339 . S
C1481 H1508 0.931 . S
C1482 C1483 1.395 . S
C1482 C1484 1.320 . S
C1483 C1481 1.339 . S
C1483 C1482 1.395 . S
C1483 H1509 0.929 . S
C1484 C1482 1.320 . S
C1484 C1485 1.405 . S
C1484 H1510 0.930 . S
C1485 C1480 1.479 . S
C1485 C1484 1.405 . S
C1485 H1511 0.931 . S
U1486 O1487 2.454 . S
U1486 O1488 2.458 . S
U1486 C1489 2.984 . S
U1486 C1490 2.847 . S
U1486 C1503 2.882 . S
U1486 O1504 2.441 . S
U1486 O1505 2.420 . S
U1486 O1506 2.455 . S
U1486 O1507 2.449 . S
O1487 U1486 2.454 . S
O1487 C1489 1.353 . S
O1488 U1486 2.458 . S
O1488 C1489 1.286 . S
C1489 U1486 2.984 . S
C1489 O1487 1.353 . S
C1489 O1488 1.286 . S
C1489 C1491 1.363 . S
C1490 C1480 1.465 . S
C1490 U1486 2.847 . S
C1490 O1504 1.249 . S
C1490 O1505 1.202 . S
C1491 C1489 1.363 . S
C1491 C1493 1.408 . S
C1491 C1496 1.342 . S
C1492 C1493 1.310 . S
C1492 C1495 1.461 . S
C1492 H1512 0.932 . S
C1493 C1491 1.408 . S
C1493 C1492 1.310 . S
C1493 H1513 0.930 . S
C1494 C1495 1.474 . S
C1494 C1496 1.285 . S
C1494 H1514 0.929 . S
C1495 C1492 1.461 . S
C1495 C1494 1.474 . S
C1496 C1491 1.342 . S
C1496 C1494 1.285 . S
C1496 H1515 0.930 . S
C1497 C1500 1.424 . S
C1497 C1502 1.245 . S
C1497 C1503 1.428 . S
C1498 C1501 1.260 . S
C1498 C1502 1.477 . S
C1498 H1516 0.932 . S
C1499 C1500 1.384 . S
C1499 C1501 1.479 . S
C1499 H1517 0.929 . S
C1500 C1497 1.424 . S
C1500 C1499 1.384 . S
C1500 H1518 0.928 . S
C1501 C1498 1.260 . S
C1501 C1499 1.479 . S
C1502 C1497 1.245 . S
C1502 C1498 1.477 . S
C1502 H1519 0.932 . S
C1503 U1486 2.882 . S
C1503 C1497 1.428 . S
C1503 O1506 1.301 . S
C1503 O1507 1.282 . S
O1504 U1486 2.441 . S
O1504 C1490 1.249 . S
O1505 U1486 2.420 . S
O1505 C1490 1.202 . S
O1506 U1486 2.455 . S
O1506 C1503 1.301 . S
O1507 U1486 2.449 . S
O1507 C1503 1.282 . S
H1508 C1481 0.931 . S
H1509 C1483 0.929 . S
H1510 C1484 0.930 . S
H1511 C1485 0.931 . S
H1512 C1492 0.932 . S
H1513 C1493 0.930 . S
H1514 C1494 0.929 . S
H1515 C1496 0.930 . S
H1516 C1498 0.932 . S
H1517 C1499 0.929 . S
H1518 C1500 0.928 . S
H1519 C1502 0.932 . S
C1520 C1521 1.264 . S
C1520 C1525 1.479 . S
C1520 C1530 1.465 . S
C1521 C1520 1.264 . S
C1521 C1523 1.339 . S
C1521 H1548 0.931 . S
C1522 C1523 1.395 . S
C1522 C1524 1.320 . S
C1523 C1521 1.339 . S
C1523 C1522 1.395 . S
C1523 H1549 0.929 . S
C1524 C1522 1.320 . S
C1524 C1525 1.405 . S
C1524 H1550 0.930 . S
C1525 C1520 1.479 . S
C1525 C1524 1.405 . S
C1525 H1551 0.931 . S
U1526 O1527 2.454 . S
U1526 O1528 2.458 . S
U1526 C1529 2.984 . S
U1526 C1530 2.847 . S
U1526 C1543 2.882 . S
U1526 O1544 2.441 . S
U1526 O1545 2.420 . S
U1526 O1546 2.455 . S
U1526 O1547 2.449 . S
O1527 U1526 2.454 . S
O1527 C1529 1.353 . S
O1528 U1526 2.458 . S
O1528 C1529 1.286 . S
C1529 U1526 2.984 . S
C1529 O1527 1.353 . S
C1529 O1528 1.286 . S
C1529 C1531 1.363 . S
C1530 C1520 1.465 . S
C1530 U1526 2.847 . S
C1530 O1544 1.249 . S
C1530 O1545 1.202 . S
C1531 C1529 1.363 . S
C1531 C1533 1.408 . S
C1531 C1536 1.342 . S
C1532 C1533 1.310 . S
C1532 C1535 1.461 . S
C1532 H1552 0.932 . S
C1533 C1531 1.408 . S
C1533 C1532 1.310 . S
C1533 H1553 0.930 . S
C1534 C1535 1.474 . S
C1534 C1536 1.285 . S
C1534 H1554 0.929 . S
C1535 C1532 1.461 . S
C1535 C1534 1.474 . S
C1536 C1531 1.342 . S
C1536 C1534 1.285 . S
C1536 H1555 0.930 . S
C1537 C1540 1.424 . S
C1537 C1542 1.245 . S
C1537 C1543 1.428 . S
C1538 C1541 1.260 . S
C1538 C1542 1.477 . S
C1538 H1556 0.932 . S
C1539 C1540 1.384 . S
C1539 C1541 1.479 . S
C1539 H1557 0.929 . S
C1540 C1537 1.424 . S
C1540 C1539 1.384 . S
C1540 H1558 0.928 . S
C1541 C1538 1.260 . S
C1541 C1539 1.479 . S
C1542 C1537 1.245 . S
C1542 C1538 1.477 . S
C1542 H1559 0.932 . S
C1543 U1526 2.882 . S
C1543 C1537 1.428 . S
C1543 O1546 1.301 . S
C1543 O1547 1.282 . S
O1544 U1526 2.441 . S
O1544 C1530 1.249 . S
O1545 U1526 2.420 . S
O1545 C1530 1.202 . S
O1546 U1526 2.455 . S
O1546 C1543 1.301 . S
O1547 U1526 2.449 . S
O1547 C1543 1.282 . S
H1548 C1521 0.931 . S
H1549 C1523 0.929 . S
H1550 C1524 0.930 . S
H1551 C1525 0.931 . S
H1552 C1532 0.932 . S
H1553 C1533 0.930 . S
H1554 C1534 0.929 . S
H1555 C1536 0.930 . S
H1556 C1538 0.932 . S
H1557 C1539 0.929 . S
H1558 C1540 0.928 . S
H1559 C1542 0.932 . S
C1560 C1561 1.264 . S
C1560 C1565 1.479 . S
C1560 C1570 1.465 . S
C1561 C1560 1.264 . S
C1561 C1563 1.339 . S
C1561 H1588 0.931 . S
C1562 C1563 1.395 . S
C1562 C1564 1.320 . S
C1563 C1561 1.339 . S
C1563 C1562 1.395 . S
C1563 H1589 0.929 . S
C1564 C1562 1.320 . S
C1564 C1565 1.405 . S
C1564 H1590 0.930 . S
C1565 C1560 1.479 . S
C1565 C1564 1.405 . S
C1565 H1591 0.931 . S
U1566 O1567 2.454 . S
U1566 O1568 2.458 . S
U1566 C1569 2.984 . S
U1566 C1570 2.847 . S
U1566 C1583 2.882 . S
U1566 O1584 2.441 . S
U1566 O1585 2.420 . S
U1566 O1586 2.455 . S
U1566 O1587 2.449 . S
O1567 U1566 2.454 . S
O1567 C1569 1.353 . S
O1568 U1566 2.458 . S
O1568 C1569 1.286 . S
C1569 U1566 2.984 . S
C1569 O1567 1.353 . S
C1569 O1568 1.286 . S
C1569 C1571 1.363 . S
C1570 C1560 1.465 . S
C1570 U1566 2.847 . S
C1570 O1584 1.249 . S
C1570 O1585 1.202 . S
C1571 C1569 1.363 . S
C1571 C1573 1.408 . S
C1571 C1576 1.342 . S
C1572 C1573 1.310 . S
C1572 C1575 1.461 . S
C1572 H1592 0.932 . S
C1573 C1571 1.408 . S
C1573 C1572 1.310 . S
C1573 H1593 0.930 . S
C1574 C1575 1.474 . S
C1574 C1576 1.285 . S
C1574 H1594 0.929 . S
C1575 C1572 1.461 . S
C1575 C1574 1.474 . S
C1576 C1571 1.342 . S
C1576 C1574 1.285 . S
C1576 H1595 0.930 . S
C1577 C1580 1.424 . S
C1577 C1582 1.245 . S
C1577 C1583 1.428 . S
C1578 C1581 1.260 . S
C1578 C1582 1.477 . S
C1578 H1596 0.932 . S
C1579 C1580 1.384 . S
C1579 C1581 1.479 . S
C1579 H1597 0.929 . S
C1580 C1577 1.424 . S
C1580 C1579 1.384 . S
C1580 H1598 0.928 . S
C1581 C1578 1.260 . S
C1581 C1579 1.479 . S
C1582 C1577 1.245 . S
C1582 C1578 1.477 . S
C1582 H1599 0.932 . S
C1583 U1566 2.882 . S
C1583 C1577 1.428 . S
C1583 O1586 1.301 . S
C1583 O1587 1.282 . S
O1584 U1566 2.441 . S
O1584 C1570 1.249 . S
O1585 U1566 2.420 . S
O1585 C1570 1.202 . S
O1586 U1566 2.455 . S
O1586 C1583 1.301 . S
O1587 U1566 2.449 . S
O1587 C1583 1.282 . S
H1588 C1561 0.931 . S
H1589 C1563 0.929 . S
H1590 C1564 0.930 . S
H1591 C1565 0.931 . S
H1592 C1572 0.932 . S
H1593 C1573 0.930 . S
H1594 C1574 0.929 . S
H1595 C1576 0.930 . S
H1596 C1578 0.932 . S
H1597 C1579 0.929 . S
H1598 C1580 0.928 . S
H1599 C1582 0.932 . S
C1600 C1601 1.264 . S
C1600 C1605 1.479 . S
C1600 C1610 1.465 . S
C1601 C1600 1.264 . S
C1601 C1603 1.339 . S
C1601 H1628 0.931 . S
C1602 C1603 1.395 . S
C1602 C1604 1.320 . S
C1603 C1601 1.339 . S
C1603 C1602 1.395 . S
C1603 H1629 0.929 . S
C1604 C1602 1.320 . S
C1604 C1605 1.405 . S
C1604 H1630 0.930 . S
C1605 C1600 1.479 . S
C1605 C1604 1.405 . S
C1605 H1631 0.931 . S
U1606 O1607 2.454 1_455 S
U1606 O1608 2.458 . S
U1606 C1609 2.984 . S
U1606 C1610 2.847 1_455 S
U1606 C1623 2.882 . S
U1606 O1624 2.441 1_455 S
U1606 O1625 2.420 1_455 S
U1606 O1626 2.455 . S
U1606 O1627 2.449 . S
O1607 U1606 2.454 1_655 S
O1607 C1609 1.353 1_655 S
O1608 U1606 2.458 . S
O1608 C1609 1.286 . S
C1609 U1606 2.984 . S
C1609 O1607 1.353 1_455 S
C1609 O1608 1.286 . S
C1609 C1611 1.363 . S
C1610 C1600 1.465 . S
C1610 U1606 2.847 1_655 S
C1610 O1624 1.249 . S
C1610 O1625 1.202 . S
C1611 C1609 1.363 . S
C1611 C1613 1.446 . S
C1611 C1616 1.342 . S
C1612 C1613 1.317 . S
C1612 C1615 1.461 . S
C1612 H1632 0.932 1_455 S
C1613 C1611 1.446 . S
C1613 C1612 1.317 . S
C1613 H1633 0.888 1_455 S
C1614 C1615 1.474 . S
C1614 C1616 1.285 . S
C1614 H1634 0.929 . S
C1615 C1612 1.461 . S
C1615 C1614 1.474 . S
C1616 C1611 1.342 . S
C1616 C1614 1.285 . S
C1616 H1635 0.930 . S
C1617 C1620 1.424 . S
C1617 C1622 1.245 . S
C1617 C1623 1.428 . S
C1618 C1621 1.260 . S
C1618 C1622 1.477 . S
C1618 H1636 0.932 . S
C1619 C1620 1.384 . S
C1619 C1621 1.479 . S
C1619 H1637 0.929 . S
C1620 C1617 1.424 . S
C1620 C1619 1.384 . S
C1620 H1638 0.928 . S
C1621 C1618 1.260 . S
C1621 C1619 1.479 . S
C1622 C1617 1.245 . S
C1622 C1618 1.477 . S
C1622 H1639 0.932 . S
C1623 U1606 2.882 . S
C1623 C1617 1.428 . S
C1623 O1626 1.301 . S
C1623 O1627 1.282 . S
O1624 U1606 2.441 1_655 S
O1624 C1610 1.249 . S
O1625 U1606 2.420 1_655 S
O1625 C1610 1.202 . S
O1626 U1606 2.455 . S
O1626 C1623 1.301 . S
O1627 U1606 2.449 . S
O1627 C1623 1.282 . S
H1628 C1601 0.931 . S
H1629 C1603 0.929 . S
H1630 C1604 0.930 . S
H1631 C1605 0.931 . S
H1632 C1612 0.932 1_655 S
H1633 C1613 0.888 1_655 S
H1634 C1614 0.929 . S
H1635 C1616 0.930 . S
H1636 C1618 0.932 . S
H1637 C1619 0.929 . S
H1638 C1620 0.928 . S
H1639 C1622 0.932 . S
C1640 C1641 1.264 . S
C1640 C1645 1.479 . S
C1640 C1650 1.465 . S
C1641 C1640 1.264 . S
C1641 C1643 1.339 . S
C1641 H1668 0.931 . S
C1642 C1643 1.395 . S
C1642 C1644 1.320 . S
C1643 C1641 1.339 . S
C1643 C1642 1.395 . S
C1643 H1669 0.929 . S
C1644 C1642 1.320 . S
C1644 C1645 1.405 . S
C1644 H1670 0.930 . S
C1645 C1640 1.479 . S
C1645 C1644 1.405 . S
C1645 H1671 0.931 . S
U1646 O1647 2.454 . S
U1646 O1648 2.458 . S
U1646 C1649 2.984 . S
U1646 C1650 2.847 . S
U1646 C1663 2.882 . S
U1646 O1664 2.441 . S
U1646 O1665 2.420 . S
U1646 O1666 2.455 . S
U1646 O1667 2.449 . S
O1647 U1646 2.454 . S
O1647 C1649 1.353 . S
O1648 U1646 2.458 . S
O1648 C1649 1.286 . S
C1649 U1646 2.984 . S
C1649 O1647 1.353 . S
C1649 O1648 1.286 . S
C1649 C1651 1.363 . S
C1650 C1640 1.465 . S
C1650 U1646 2.847 . S
C1650 O1664 1.249 . S
C1650 O1665 1.202 . S
C1651 C1649 1.363 . S
C1651 C1653 1.408 . S
C1651 C1656 1.342 . S
C1652 C1653 1.310 . S
C1652 C1655 1.461 . S
C1652 H1672 0.932 . S
C1653 C1651 1.408 . S
C1653 C1652 1.310 . S
C1653 H1673 0.930 . S
C1654 C1655 1.474 . S
C1654 C1656 1.285 . S
C1654 H1674 0.929 . S
C1655 C1652 1.461 . S
C1655 C1654 1.474 . S
C1656 C1651 1.342 . S
C1656 C1654 1.285 . S
C1656 H1675 0.930 . S
C1657 C1660 1.424 . S
C1657 C1662 1.245 . S
C1657 C1663 1.428 . S
C1658 C1661 1.260 . S
C1658 C1662 1.477 . S
C1658 H1676 0.932 . S
C1659 C1660 1.384 . S
C1659 C1661 1.479 . S
C1659 H1677 0.929 . S
C1660 C1657 1.424 . S
C1660 C1659 1.384 . S
C1660 H1678 0.928 . S
C1661 C1658 1.260 . S
C1661 C1659 1.479 . S
C1662 C1657 1.245 . S
C1662 C1658 1.477 . S
C1662 H1679 0.932 . S
C1663 U1646 2.882 . S
C1663 C1657 1.428 . S
C1663 O1666 1.301 . S
C1663 O1667 1.282 . S
O1664 U1646 2.441 . S
O1664 C1650 1.249 . S
O1665 U1646 2.420 . S
O1665 C1650 1.202 . S
O1666 U1646 2.455 . S
O1666 C1663 1.301 . S
O1667 U1646 2.449 . S
O1667 C1663 1.282 . S
H1668 C1641 0.931 . S
H1669 C1643 0.929 . S
H1670 C1644 0.930 . S
H1671 C1645 0.931 . S
H1672 C1652 0.932 . S
H1673 C1653 0.930 . S
H1674 C1654 0.929 . S
H1675 C1656 0.930 . S
H1676 C1658 0.932 . S
H1677 C1659 0.929 . S
H1678 C1660 0.928 . S
H1679 C1662 0.932 . S
C1680 C1681 1.264 . S
C1680 C1685 1.479 . S
C1680 C1690 1.465 . S
C1681 C1680 1.264 . S
C1681 C1683 1.339 . S
C1681 H1708 0.931 . S
C1682 C1683 1.395 . S
C1682 C1684 1.320 . S
C1683 C1681 1.339 . S
C1683 C1682 1.395 . S
C1683 H1709 0.929 . S
C1684 C1682 1.320 . S
C1684 C1685 1.405 . S
C1684 H1710 0.930 . S
C1685 C1680 1.479 . S
C1685 C1684 1.405 . S
C1685 H1711 0.931 . S
U1686 O1687 2.487 . S
U1686 O1688 2.458 . S
U1686 C1689 2.984 1_554 S
U1686 C1690 2.847 . S
U1686 C1703 2.882 . S
U1686 O1704 2.441 . S
U1686 O1705 2.420 . S
U1686 O1706 2.455 . S
U1686 O1707 2.449 . S
O1687 U1686 2.487 . S
O1687 C1689 1.344 1_554 S
O1688 U1686 2.458 . S
O1688 C1689 1.286 1_554 S
C1689 U1686 2.984 1_556 S
C1689 O1687 1.344 1_556 S
C1689 O1688 1.286 1_556 S
C1689 C1691 1.363 . S
C1690 C1680 1.465 . S
C1690 U1686 2.847 . S
C1690 O1704 1.249 . S
C1690 O1705 1.202 . S
C1691 C1689 1.363 . S
C1691 C1693 1.408 . S
C1691 C1696 1.342 . S
C1692 C1693 1.310 . S
C1692 C1695 1.461 . S
C1692 H1712 0.932 . S
C1693 C1691 1.408 . S
C1693 C1692 1.310 . S
C1693 H1713 0.930 . S
C1694 C1695 1.474 . S
C1694 C1696 1.285 . S
C1694 H1714 0.929 . S
C1695 C1692 1.461 . S
C1695 C1694 1.474 . S
C1696 C1691 1.342 . S
C1696 C1694 1.285 . S
C1696 H1715 0.930 . S
C1697 C1700 1.424 . S
C1697 C1702 1.245 . S
C1697 C1703 1.428 . S
C1698 C1701 1.260 . S
C1698 C1702 1.477 . S
C1698 H1716 0.932 . S
C1699 C1700 1.384 . S
C1699 C1701 1.479 . S
C1699 H1717 0.929 . S
C1700 C1697 1.424 . S
C1700 C1699 1.384 . S
C1700 H1718 0.928 . S
C1701 C1698 1.260 . S
C1701 C1699 1.479 . S
C1702 C1697 1.245 . S
C1702 C1698 1.477 . S
C1702 H1719 0.932 . S
C1703 U1686 2.882 . S
C1703 C1697 1.428 . S
C1703 O1706 1.301 . S
C1703 O1707 1.282 . S
O1704 U1686 2.441 . S
O1704 C1690 1.249 . S
O1705 U1686 2.420 . S
O1705 C1690 1.202 . S
O1706 U1686 2.455 . S
O1706 C1703 1.301 . S
O1707 U1686 2.449 . S
O1707 C1703 1.282 . S
H1708 C1681 0.931 . S
H1709 C1683 0.929 . S
H1710 C1684 0.930 . S
H1711 C1685 0.931 . S
H1712 C1692 0.932 . S
H1713 C1693 0.930 . S
H1714 C1694 0.929 . S
H1715 C1696 0.930 . S
H1716 C1698 0.932 . S
H1717 C1699 0.929 . S
H1718 C1700 0.928 . S
H1719 C1702 0.932 . S
C1720 C1721 1.264 . S
C1720 C1725 1.479 . S
C1720 C1730 1.465 . S
C1721 C1720 1.264 . S
C1721 C1723 1.339 . S
C1721 H1748 0.931 . S
C1722 C1723 1.395 . S
C1722 C1724 1.320 . S
C1723 C1721 1.339 . S
C1723 C1722 1.395 . S
C1723 H1749 0.929 . S
C1724 C1722 1.320 . S
C1724 C1725 1.405 . S
C1724 H1750 0.930 . S
C1725 C1720 1.479 . S
C1725 C1724 1.405 . S
C1725 H1751 0.931 . S
U1726 O1727 2.454 . S
U1726 O1728 2.458 . S
U1726 C1729 2.984 . S
U1726 C1730 2.847 . S
U1726 C1743 2.882 . S
U1726 O1744 2.441 . S
U1726 O1745 2.420 . S
U1726 O1746 2.455 . S
U1726 O1747 2.449 . S
O1727 U1726 2.454 . S
O1727 C1729 1.353 . S
O1728 U1726 2.458 . S
O1728 C1729 1.286 . S
C1729 U1726 2.984 . S
C1729 O1727 1.353 . S
C1729 O1728 1.286 . S
C1729 C1731 1.363 . S
C1730 C1720 1.465 . S
C1730 U1726 2.847 . S
C1730 O1744 1.249 . S
C1730 O1745 1.202 . S
C1731 C1729 1.363 . S
C1731 C1733 1.408 . S
C1731 C1736 1.342 . S
C1732 C1733 1.310 . S
C1732 C1735 1.461 . S
C1732 H1752 0.932 . S
C1733 C1731 1.408 . S
C1733 C1732 1.310 . S
C1733 H1753 0.930 . S
C1734 C1735 1.474 . S
C1734 C1736 1.285 . S
C1734 H1754 0.929 . S
C1735 C1732 1.461 . S
C1735 C1734 1.474 . S
C1736 C1731 1.342 . S
C1736 C1734 1.285 . S
C1736 H1755 0.930 . S
C1737 C1740 1.424 . S
C1737 C1742 1.245 . S
C1737 C1743 1.428 . S
C1738 C1741 1.260 . S
C1738 C1742 1.477 . S
C1738 H1756 0.932 . S
C1739 C1740 1.384 . S
C1739 C1741 1.479 . S
C1739 H1757 0.929 . S
C1740 C1737 1.424 . S
C1740 C1739 1.384 . S
C1740 H1758 0.928 . S
C1741 C1738 1.260 . S
C1741 C1739 1.479 . S
C1742 C1737 1.245 . S
C1742 C1738 1.477 . S
C1742 H1759 0.932 . S
C1743 U1726 2.882 . S
C1743 C1737 1.428 . S
C1743 O1746 1.301 . S
C1743 O1747 1.282 . S
O1744 U1726 2.441 . S
O1744 C1730 1.249 . S
O1745 U1726 2.420 . S
O1745 C1730 1.202 . S
O1746 U1726 2.455 . S
O1746 C1743 1.301 . S
O1747 U1726 2.449 . S
O1747 C1743 1.282 . S
H1748 C1721 0.931 . S
H1749 C1723 0.929 . S
H1750 C1724 0.930 . S
H1751 C1725 0.931 . S
H1752 C1732 0.932 . S
H1753 C1733 0.930 . S
H1754 C1734 0.929 . S
H1755 C1736 0.930 . S
H1756 C1738 0.932 . S
H1757 C1739 0.929 . S
H1758 C1740 0.928 . S
H1759 C1742 0.932 . S
C1760 C1761 1.264 . S
C1760 C1765 1.479 . S
C1760 C1770 1.465 . S
C1761 C1760 1.264 . S
C1761 C1763 1.339 . S
C1761 H1788 0.931 . S
C1762 C1763 1.395 . S
C1762 C1764 1.320 . S
C1763 C1761 1.339 . S
C1763 C1762 1.395 . S
C1763 H1789 0.929 . S
C1764 C1762 1.320 . S
C1764 C1765 1.405 . S
C1764 H1790 0.930 . S
C1765 C1760 1.479 . S
C1765 C1764 1.405 . S
C1765 H1791 0.931 . S
U1766 O1767 2.454 . S
U1766 O1768 2.458 . S
U1766 C1769 2.984 . S
U1766 C1770 2.847 . S
U1766 C1783 2.882 . S
U1766 O1784 2.441 . S
U1766 O1785 2.420 . S
U1766 O1786 2.455 . S
U1766 O1787 2.449 . S
O1767 U1766 2.454 . S
O1767 C1769 1.353 . S
O1768 U1766 2.458 . S
O1768 C1769 1.286 . S
C1769 U1766 2.984 . S
C1769 O1767 1.353 . S
C1769 O1768 1.286 . S
C1769 C1771 1.363 . S
C1770 C1760 1.465 . S
C1770 U1766 2.847 . S
C1770 O1784 1.249 . S
C1770 O1785 1.202 . S
C1771 C1769 1.363 . S
C1771 C1773 1.408 . S
C1771 C1776 1.342 . S
C1772 C1773 1.310 . S
C1772 C1775 1.461 . S
C1772 H1792 0.932 . S
C1773 C1771 1.408 . S
C1773 C1772 1.310 . S
C1773 H1793 0.930 . S
C1774 C1775 1.474 . S
C1774 C1776 1.285 . S
C1774 H1794 0.929 . S
C1775 C1772 1.461 . S
C1775 C1774 1.474 . S
C1776 C1771 1.342 . S
C1776 C1774 1.285 . S
C1776 H1795 0.930 . S
C1777 C1780 1.424 . S
C1777 C1782 1.245 . S
C1777 C1783 1.428 . S
C1778 C1781 1.260 . S
C1778 C1782 1.477 . S
C1778 H1796 0.932 . S
C1779 C1780 1.384 . S
C1779 C1781 1.479 . S
C1779 H1797 0.929 . S
C1780 C1777 1.424 . S
C1780 C1779 1.384 . S
C1780 H1798 0.928 . S
C1781 C1778 1.260 . S
C1781 C1779 1.479 . S
C1782 C1777 1.245 . S
C1782 C1778 1.477 . S
C1782 H1799 0.932 . S
C1783 U1766 2.882 . S
C1783 C1777 1.428 . S
C1783 O1786 1.301 . S
C1783 O1787 1.282 . S
O1784 U1766 2.441 . S
O1784 C1770 1.249 . S
O1785 U1766 2.420 . S
O1785 C1770 1.202 . S
O1786 U1766 2.455 . S
O1786 C1783 1.301 . S
O1787 U1766 2.449 . S
O1787 C1783 1.282 . S
H1788 C1761 0.931 . S
H1789 C1763 0.929 . S
H1790 C1764 0.930 . S
H1791 C1765 0.931 . S
H1792 C1772 0.932 . S
H1793 C1773 0.930 . S
H1794 C1774 0.929 . S
H1795 C1776 0.930 . S
H1796 C1778 0.932 . S
H1797 C1779 0.929 . S
H1798 C1780 0.928 . S
H1799 C1782 0.932 . S
C1800 C1801 1.264 . S
C1800 C1805 1.479 . S
C1800 C1810 1.465 . S
C1801 C1800 1.264 . S
C1801 C1803 1.339 . S
C1801 H1828 0.931 . S
C1802 C1803 1.395 . S
C1802 C1804 1.320 . S
C1803 C1801 1.339 . S
C1803 C1802 1.395 . S
C1803 H1829 0.929 . S
C1804 C1802 1.320 . S
C1804 C1805 1.405 . S
C1804 H1830 0.930 . S
C1805 C1800 1.479 . S
C1805 C1804 1.405 . S
C1805 H1831 0.931 . S
U1806 O1807 2.454 . S
U1806 O1808 2.458 . S
U1806 C1809 2.984 . S
U1806 C1810 2.847 . S
U1806 C1823 2.882 . S
U1806 O1824 2.441 . S
U1806 O1825 2.420 . S
U1806 O1826 2.455 . S
U1806 O1827 2.449 . S
O1807 U1806 2.454 . S
O1807 C1809 1.353 . S
O1808 U1806 2.458 . S
O1808 C1809 1.286 . S
C1809 U1806 2.984 . S
C1809 O1807 1.353 . S
C1809 O1808 1.286 . S
C1809 C1811 1.363 . S
C1810 C1800 1.465 . S
C1810 U1806 2.847 . S
C1810 O1824 1.249 . S
C1810 O1825 1.202 . S
C1811 C1809 1.363 . S
C1811 C1813 1.408 . S
C1811 C1816 1.342 . S
C1812 C1813 1.310 . S
C1812 C1815 1.461 . S
C1812 H1832 0.932 . S
C1813 C1811 1.408 . S
C1813 C1812 1.310 . S
C1813 H1833 0.930 . S
C1814 C1815 1.474 . S
C1814 C1816 1.285 . S
C1814 H1834 0.929 . S
C1815 C1812 1.461 . S
C1815 C1814 1.474 . S
C1816 C1811 1.342 . S
C1816 C1814 1.285 . S
C1816 H1835 0.930 . S
C1817 C1820 1.424 . S
C1817 C1822 1.245 . S
C1817 C1823 1.428 . S
C1818 C1821 1.260 . S
C1818 C1822 1.477 . S
C1818 H1836 0.932 . S
C1819 C1820 1.384 . S
C1819 C1821 1.479 . S
C1819 H1837 0.929 . S
C1820 C1817 1.424 . S
C1820 C1819 1.384 . S
C1820 H1838 0.928 . S
C1821 C1818 1.260 . S
C1821 C1819 1.479 . S
C1822 C1817 1.245 . S
C1822 C1818 1.477 . S
C1822 H1839 0.932 . S
C1823 U1806 2.882 . S
C1823 C1817 1.428 . S
C1823 O1826 1.301 . S
C1823 O1827 1.282 . S
O1824 U1806 2.441 . S
O1824 C1810 1.249 . S
O1825 U1806 2.420 . S
O1825 C1810 1.202 . S
O1826 U1806 2.455 . S
O1826 C1823 1.301 . S
O1827 U1806 2.449 . S
O1827 C1823 1.282 . S
H1828 C1801 0.931 . S
H1829 C1803 0.929 . S
H1830 C1804 0.930 . S
H1831 C1805 0.931 . S
H1832 C1812 0.932 . S
H1833 C1813 0.930 . S
H1834 C1814 0.929 . S
H1835 C1816 0.930 . S
H1836 C1818 0.932 . S
H1837 C1819 0.929 . S
H1838 C1820 0.928 . S
H1839 C1822 0.932 . S
C1840 C1841 1.264 . S
C1840 C1845 1.479 . S
C1840 C1850 1.465 . S
C1841 C1840 1.264 . S
C1841 C1843 1.339 . S
C1841 H1868 0.931 . S
C1842 C1843 1.395 . S
C1842 C1844 1.320 . S
C1843 C1841 1.339 . S
C1843 C1842 1.395 . S
C1843 H1869 0.929 . S
C1844 C1842 1.320 . S
C1844 C1845 1.405 . S
C1844 H1870 0.930 . S
C1845 C1840 1.479 . S
C1845 C1844 1.405 . S
C1845 H1871 0.931 . S
U1846 O1847 2.454 . S
U1846 O1848 2.458 . S
U1846 C1849 2.984 . S
U1846 C1850 2.847 . S
U1846 C1863 2.882 . S
U1846 O1864 2.441 . S
U1846 O1865 2.420 . S
U1846 O1866 2.455 . S
U1846 O1867 2.449 . S
O1847 U1846 2.454 . S
O1847 C1849 1.353 . S
O1848 U1846 2.458 . S
O1848 C1849 1.286 . S
C1849 U1846 2.984 . S
C1849 O1847 1.353 . S
C1849 O1848 1.286 . S
C1849 C1851 1.363 . S
C1850 C1840 1.465 . S
C1850 U1846 2.847 . S
C1850 O1864 1.249 . S
C1850 O1865 1.202 . S
C1851 C1849 1.363 . S
C1851 C1853 1.408 . S
C1851 C1856 1.342 . S
C1852 C1853 1.310 . S
C1852 C1855 1.461 . S
C1852 H1872 0.932 . S
C1853 C1851 1.408 . S
C1853 C1852 1.310 . S
C1853 H1873 0.930 . S
C1854 C1855 1.474 . S
C1854 C1856 1.285 . S
C1854 H1874 0.929 . S
C1855 C1852 1.461 . S
C1855 C1854 1.474 . S
C1856 C1851 1.342 . S
C1856 C1854 1.285 . S
C1856 H1875 0.930 . S
C1857 C1860 1.424 . S
C1857 C1862 1.245 . S
C1857 C1863 1.428 . S
C1858 C1861 1.260 . S
C1858 C1862 1.477 . S
C1858 H1876 0.932 . S
C1859 C1860 1.384 . S
C1859 C1861 1.479 . S
C1859 H1877 0.929 . S
C1860 C1857 1.424 . S
C1860 C1859 1.384 . S
C1860 H1878 0.928 . S
C1861 C1858 1.260 . S
C1861 C1859 1.479 . S
C1862 C1857 1.245 . S
C1862 C1858 1.477 . S
C1862 H1879 0.932 . S
C1863 U1846 2.882 . S
C1863 C1857 1.428 . S
C1863 O1866 1.301 . S
C1863 O1867 1.282 . S
O1864 U1846 2.441 . S
O1864 C1850 1.249 . S
O1865 U1846 2.420 . S
O1865 C1850 1.202 . S
O1866 U1846 2.455 . S
O1866 C1863 1.301 . S
O1867 U1846 2.449 . S
O1867 C1863 1.282 . S
H1868 C1841 0.931 . S
H1869 C1843 0.929 . S
H1870 C1844 0.930 . S
H1871 C1845 0.931 . S
H1872 C1852 0.932 . S
H1873 C1853 0.930 . S
H1874 C1854 0.929 . S
H1875 C1856 0.930 . S
H1876 C1858 0.932 . S
H1877 C1859 0.929 . S
H1878 C1860 0.928 . S
H1879 C1862 0.932 . S
C1880 C1881 1.264 . S
C1880 C1885 1.479 . S
C1880 C1890 1.465 . S
C1881 C1880 1.264 . S
C1881 C1883 1.339 . S
C1881 H1908 0.931 . S
C1882 C1883 1.395 . S
C1882 C1884 1.320 . S
C1883 C1881 1.339 . S
C1883 C1882 1.395 . S
C1883 H1909 0.929 . S
C1884 C1882 1.320 . S
C1884 C1885 1.405 . S
C1884 H1910 0.930 . S
C1885 C1880 1.479 . S
C1885 C1884 1.405 . S
C1885 H1911 0.931 . S
U1886 O1887 2.454 . S
U1886 O1888 2.458 . S
U1886 C1889 2.984 . S
U1886 C1890 2.847 . S
U1886 C1903 2.882 . S
U1886 O1904 2.441 . S
U1886 O1905 2.420 . S
U1886 O1906 2.455 . S
U1886 O1907 2.449 . S
O1887 U1886 2.454 . S
O1887 C1889 1.353 . S
O1888 U1886 2.458 . S
O1888 C1889 1.286 . S
C1889 U1886 2.984 . S
C1889 O1887 1.353 . S
C1889 O1888 1.286 . S
C1889 C1891 1.363 . S
C1890 C1880 1.465 . S
C1890 U1886 2.847 . S
C1890 O1904 1.249 . S
C1890 O1905 1.202 . S
C1891 C1889 1.363 . S
C1891 C1893 1.408 . S
C1891 C1896 1.342 . S
C1892 C1893 1.310 . S
C1892 C1895 1.461 . S
C1892 H1912 0.932 . S
C1893 C1891 1.408 . S
C1893 C1892 1.310 . S
C1893 H1913 0.930 . S
C1894 C1895 1.474 . S
C1894 C1896 1.285 . S
C1894 H1914 0.929 . S
C1895 C1892 1.461 . S
C1895 C1894 1.474 . S
C1896 C1891 1.342 . S
C1896 C1894 1.285 . S
C1896 H1915 0.930 . S
C1897 C1900 1.424 . S
C1897 C1902 1.245 . S
C1897 C1903 1.428 . S
C1898 C1901 1.260 . S
C1898 C1902 1.477 . S
C1898 H1916 0.932 . S
C1899 C1900 1.384 . S
C1899 C1901 1.479 . S
C1899 H1917 0.929 . S
C1900 C1897 1.424 . S
C1900 C1899 1.384 . S
C1900 H1918 0.928 . S
C1901 C1898 1.260 . S
C1901 C1899 1.479 . S
C1902 C1897 1.245 . S
C1902 C1898 1.477 . S
C1902 H1919 0.932 . S
C1903 U1886 2.882 . S
C1903 C1897 1.428 . S
C1903 O1906 1.301 . S
C1903 O1907 1.282 . S
O1904 U1886 2.441 . S
O1904 C1890 1.249 . S
O1905 U1886 2.420 . S
O1905 C1890 1.202 . S
O1906 U1886 2.455 . S
O1906 C1903 1.301 . S
O1907 U1886 2.449 . S
O1907 C1903 1.282 . S
H1908 C1881 0.931 . S
H1909 C1883 0.929 . S
H1910 C1884 0.930 . S
H1911 C1885 0.931 . S
H1912 C1892 0.932 . S
H1913 C1893 0.930 . S
H1914 C1894 0.929 . S
H1915 C1896 0.930 . S
H1916 C1898 0.932 . S
H1917 C1899 0.929 . S
H1918 C1900 0.928 . S
H1919 C1902 0.932 . S
H1920 C1925 0.930 . S
H1921 C1928 0.930 . S
H1922 C1930 0.930 . S
H1923 C1924 1.016 . S
C1924 H1923 1.016 . S
C1924 N1931 1.286 . S
C1925 H1920 0.930 . S
C1925 C1926 1.397 . S
C1925 C1927 1.361 . S
C1926 C1925 1.397 . S
C1926 C1930 1.390 . S
C1927 C1925 1.361 . S
C1927 C1928 1.393 . S
C1927 N1931 1.413 . S
C1928 H1921 0.930 . S
C1928 C1927 1.393 . S
C1928 C1929 1.399 . S
C1929 C1928 1.399 . S
C1929 C1930 1.381 . S
C1930 H1922 0.930 . S
C1930 C1926 1.390 . S
C1930 C1929 1.381 . S
N1931 C1924 1.286 . S
N1931 C1927 1.413 . S
H1932 C1937 0.930 . S
H1933 C1940 0.930 . S
H1934 C1942 0.930 . S
H1935 C1936 1.016 . S
C1936 H1935 1.016 . S
C1936 N1943 1.286 . S
C1937 H1932 0.930 . S
C1937 C1938 1.397 . S
C1937 C1939 1.361 . S
C1938 C1937 1.397 . S
C1938 C1942 1.390 . S
C1939 C1937 1.361 . S
C1939 C1940 1.393 . S
C1939 N1943 1.413 . S
C1940 H1933 0.930 . S
C1940 C1939 1.393 . S
C1940 C1941 1.399 . S
C1941 C1940 1.399 . S
C1941 C1942 1.381 . S
C1942 H1934 0.930 . S
C1942 C1938 1.390 . S
C1942 C1941 1.381 . S
N1943 C1936 1.286 . S
N1943 C1939 1.413 . S
H1944 C1949 0.930 . S
H1945 C1952 0.930 . S
H1946 C1954 0.930 . S
H1947 C1948 1.016 . S
C1948 H1947 1.016 . S
C1948 N1955 1.286 . S
C1949 H1944 0.930 . S
C1949 C1950 1.397 . S
C1949 C1951 1.361 . S
C1950 C1949 1.397 . S
C1950 C1954 1.390 . S
C1951 C1949 1.361 . S
C1951 C1952 1.393 . S
C1951 N1955 1.413 . S
C1952 H1945 0.930 . S
C1952 C1951 1.393 . S
C1952 C1953 1.399 . S
C1953 C1952 1.399 . S
C1953 C1954 1.381 . S
C1954 H1946 0.930 . S
C1954 C1950 1.390 . S
C1954 C1953 1.381 . S
N1955 C1948 1.286 . S
N1955 C1951 1.413 . S
H1956 C1961 0.930 . S
H1957 C1964 0.930 . S
H1958 C1966 0.930 . S
H1959 C1960 1.016 . S
C1960 H1959 1.016 . S
C1960 N1967 1.286 . S
C1961 H1956 0.930 . S
C1961 C1962 1.397 . S
C1961 C1963 1.361 . S
C1962 C1961 1.397 . S
C1962 C1966 1.390 . S
C1963 C1961 1.361 . S
C1963 C1964 1.393 . S
C1963 N1967 1.413 . S
C1964 H1957 0.930 . S
C1964 C1963 1.393 . S
C1964 C1965 1.399 . S
C1965 C1964 1.399 . S
C1965 C1966 1.381 . S
C1966 H1958 0.930 . S
C1966 C1962 1.390 . S
C1966 C1965 1.381 . S
N1967 C1960 1.286 . S
N1967 C1963 1.413 . S
H1968 C1973 0.930 . S
H1969 C1976 0.930 . S
H1970 C1978 0.930 . S
H1971 C1972 1.016 . S
C1972 H1971 1.016 . S
C1972 N1979 1.286 . S
C1973 H1968 0.930 . S
C1973 C1974 1.397 . S
C1973 C1975 1.361 . S
C1974 C1973 1.397 . S
C1974 C1978 1.390 . S
C1975 C1973 1.361 . S
C1975 C1976 1.393 . S
C1975 N1979 1.413 . S
C1976 H1969 0.930 . S
C1976 C1975 1.393 . S
C1976 C1977 1.399 . S
C1977 C1976 1.399 . S
C1977 C1978 1.381 . S
C1978 H1970 0.930 . S
C1978 C1974 1.390 . S
C1978 C1977 1.381 . S
N1979 C1972 1.286 . S
N1979 C1975 1.413 . S
H1980 C1985 0.930 . S
H1981 C1988 0.930 . S
H1982 C1990 0.930 . S
H1983 C1984 1.016 . S
C1984 H1983 1.016 . S
C1984 N1991 1.286 . S
C1985 H1980 0.930 . S
C1985 C1986 1.397 . S
C1985 C1987 1.361 . S
C1986 C1985 1.397 . S
C1986 C1990 1.390 . S
C1987 C1985 1.361 . S
C1987 C1988 1.393 . S
C1987 N1991 1.413 . S
C1988 H1981 0.930 . S
C1988 C1987 1.393 . S
C1988 C1989 1.399 . S
C1989 C1988 1.399 . S
C1989 C1990 1.381 . S
C1990 H1982 0.930 . S
C1990 C1986 1.390 . S
C1990 C1989 1.381 . S
N1991 C1984 1.286 . S
N1991 C1987 1.413 . S
H1992 C1997 0.930 . S
H1993 C2000 0.930 . S
H1994 C2002 0.930 . S
H1995 C1996 1.016 . S
C1996 H1995 1.016 . S
C1996 N2003 1.286 . S
C1997 H1992 0.930 . S
C1997 C1998 1.397 . S
C1997 C1999 1.361 . S
C1998 C1997 1.397 . S
C1998 C2002 1.390 . S
C1999 C1997 1.361 . S
C1999 C2000 1.393 . S
C1999 N2003 1.413 . S
C2000 H1993 0.930 . S
C2000 C1999 1.393 . S
C2000 C2001 1.399 . S
C2001 C2000 1.399 . S
C2001 C2002 1.381 . S
C2002 H1994 0.930 . S
C2002 C1998 1.390 . S
C2002 C2001 1.381 . S
N2003 C1996 1.286 . S
N2003 C1999 1.413 . S
H2004 C2009 0.930 . S
H2005 C2012 0.930 . S
H2006 C2014 0.930 . S
H2007 C2008 1.016 . S
C2008 H2007 1.016 . S
C2008 N2015 1.286 . S
C2009 H2004 0.930 . S
C2009 C2010 1.397 . S
C2009 C2011 1.361 . S
C2010 C2009 1.397 . S
C2010 C2014 1.390 . S
C2011 C2009 1.361 . S
C2011 C2012 1.393 . S
C2011 N2015 1.413 . S
C2012 H2005 0.930 . S
C2012 C2011 1.393 . S
C2012 C2013 1.399 . S
C2013 C2012 1.399 . S
C2013 C2014 1.381 . S
C2014 H2006 0.930 . S
C2014 C2010 1.390 . S
C2014 C2013 1.381 . S
N2015 C2008 1.286 . S
N2015 C2011 1.413 . S
H2016 C2021 0.930 . S
H2017 C2024 0.930 . S
H2018 C2026 0.930 . S
H2019 C2020 1.016 . S
C2020 H2019 1.016 . S
C2020 N2027 1.286 . S
C2021 H2016 0.930 . S
C2021 C2022 1.397 . S
C2021 C2023 1.361 . S
C2022 C2021 1.397 . S
C2022 C2026 1.390 . S
C2023 C2021 1.361 . S
C2023 C2024 1.393 . S
C2023 N2027 1.413 . S
C2024 H2017 0.930 . S
C2024 C2023 1.393 . S
C2024 C2025 1.399 . S
C2025 C2024 1.399 . S
C2025 C2026 1.381 . S
C2026 H2018 0.930 . S
C2026 C2022 1.390 . S
C2026 C2025 1.381 . S
N2027 C2020 1.286 . S
N2027 C2023 1.413 . S
H2028 C2033 0.930 . S
H2029 C2036 0.930 . S
H2030 C2038 0.930 . S
H2031 C2032 1.016 . S
C2032 H2031 1.016 . S
C2032 N2039 1.286 . S
C2033 H2028 0.930 . S
C2033 C2034 1.397 . S
C2033 C2035 1.361 . S
C2034 C2033 1.397 . S
C2034 C2038 1.390 . S
C2035 C2033 1.361 . S
C2035 C2036 1.393 . S
C2035 N2039 1.413 . S
C2036 H2029 0.930 . S
C2036 C2035 1.393 . S
C2036 C2037 1.399 . S
C2037 C2036 1.399 . S
C2037 C2038 1.381 . S
C2038 H2030 0.930 . S
C2038 C2034 1.390 . S
C2038 C2037 1.381 . S
N2039 C2032 1.286 . S
N2039 C2035 1.413 . S
H2040 C2045 0.930 . S
H2041 C2048 0.930 . S
H2042 C2050 0.930 . S
H2043 C2044 1.016 . S
C2044 H2043 1.016 . S
C2044 N2051 1.286 . S
C2045 H2040 0.930 . S
C2045 C2046 1.397 . S
C2045 C2047 1.361 . S
C2046 C2045 1.397 . S
C2046 C2050 1.390 . S
C2047 C2045 1.361 . S
C2047 C2048 1.393 . S
C2047 N2051 1.413 . S
C2048 H2041 0.930 . S
C2048 C2047 1.393 . S
C2048 C2049 1.399 . S
C2049 C2048 1.399 . S
C2049 C2050 1.381 . S
C2050 H2042 0.930 . S
C2050 C2046 1.390 . S
C2050 C2049 1.381 . S
N2051 C2044 1.286 . S
N2051 C2047 1.413 . S
H2052 C2057 0.930 . S
H2053 C2060 0.930 . S
H2054 C2062 0.930 . S
H2055 C2056 1.016 . S
C2056 H2055 1.016 . S
C2056 N2063 1.286 . S
C2057 H2052 0.930 . S
C2057 C2058 1.397 . S
C2057 C2059 1.361 . S
C2058 C2057 1.397 . S
C2058 C2062 1.390 . S
C2059 C2057 1.361 . S
C2059 C2060 1.393 . S
C2059 N2063 1.413 . S
C2060 H2053 0.930 . S
C2060 C2059 1.393 . S
C2060 C2061 1.399 . S
C2061 C2060 1.399 . S
C2061 C2062 1.381 . S
C2062 H2054 0.930 . S
C2062 C2058 1.390 . S
C2062 C2061 1.381 . S
N2063 C2056 1.286 . S
N2063 C2059 1.413 . S
H2064 C2069 0.930 . S
H2065 C2072 0.930 . S
H2066 C2074 0.930 . S
H2067 C2068 1.016 . S
C2068 H2067 1.016 . S
C2068 N2075 1.286 . S
C2069 H2064 0.930 . S
C2069 C2070 1.397 . S
C2069 C2071 1.361 . S
C2070 C2069 1.397 . S
C2070 C2074 1.390 . S
C2071 C2069 1.361 . S
C2071 C2072 1.393 . S
C2071 N2075 1.413 . S
C2072 H2065 0.930 . S
C2072 C2071 1.393 . S
C2072 C2073 1.399 . S
C2073 C2072 1.399 . S
C2073 C2074 1.381 . S
C2074 H2066 0.930 . S
C2074 C2070 1.390 . S
C2074 C2073 1.381 . S
N2075 C2068 1.286 . S
N2075 C2071 1.413 . S
H2076 C2081 0.930 . S
H2077 C2084 0.930 . S
H2078 C2086 0.930 . S
H2079 C2080 1.016 . S
C2080 H2079 1.016 . S
C2080 N2087 1.286 . S
C2081 H2076 0.930 . S
C2081 C2082 1.397 . S
C2081 C2083 1.361 . S
C2082 C2081 1.397 . S
C2082 C2086 1.390 . S
C2083 C2081 1.361 . S
C2083 C2084 1.393 . S
C2083 N2087 1.413 . S
C2084 H2077 0.930 . S
C2084 C2083 1.393 . S
C2084 C2085 1.399 . S
C2085 C2084 1.399 . S
C2085 C2086 1.381 . S
C2086 H2078 0.930 . S
C2086 C2082 1.390 . S
C2086 C2085 1.381 . S
N2087 C2080 1.286 . S
N2087 C2083 1.413 . S
H2088 C2093 0.930 . S
H2089 C2096 0.930 . S
H2090 C2098 0.930 . S
H2091 C2092 1.016 . S
C2092 H2091 1.016 . S
C2092 N2099 1.286 . S
C2093 H2088 0.930 . S
C2093 C2094 1.397 . S
C2093 C2095 1.361 . S
C2094 C2093 1.397 . S
C2094 C2098 1.390 . S
C2095 C2093 1.361 . S
C2095 C2096 1.393 . S
C2095 N2099 1.413 . S
C2096 H2089 0.930 . S
C2096 C2095 1.393 . S
C2096 C2097 1.399 . S
C2097 C2096 1.399 . S
C2097 C2098 1.381 . S
C2098 H2090 0.930 . S
C2098 C2094 1.390 . S
C2098 C2097 1.381 . S
N2099 C2092 1.286 . S
N2099 C2095 1.413 . S
H2100 C2105 0.930 . S
H2101 C2108 0.930 . S
H2102 C2110 0.930 . S
H2103 C2104 1.016 . S
C2104 H2103 1.016 . S
C2104 N2111 1.286 . S
C2105 H2100 0.930 . S
C2105 C2106 1.397 . S
C2105 C2107 1.361 . S
C2106 C2105 1.397 . S
C2106 C2110 1.390 . S
C2107 C2105 1.361 . S
C2107 C2108 1.393 . S
C2107 N2111 1.413 . S
C2108 H2101 0.930 . S
C2108 C2107 1.393 . S
C2108 C2109 1.399 . S
C2109 C2108 1.399 . S
C2109 C2110 1.381 . S
C2110 H2102 0.930 . S
C2110 C2106 1.390 . S
C2110 C2109 1.381 . S
N2111 C2104 1.286 . S
N2111 C2107 1.413 . S
H2112 C2117 0.930 . S
H2113 C2120 0.930 . S
H2114 C2122 0.930 . S
H2115 C2116 1.016 . S
C2116 H2115 1.016 . S
C2116 N2123 1.286 . S
C2117 H2112 0.930 . S
C2117 C2118 1.397 . S
C2117 C2119 1.361 . S
C2118 C2117 1.397 . S
C2118 C2122 1.390 . S
C2119 C2117 1.361 . S
C2119 C2120 1.393 . S
C2119 N2123 1.413 . S
C2120 H2113 0.930 . S
C2120 C2119 1.393 . S
C2120 C2121 1.399 . S
C2121 C2120 1.399 . S
C2121 C2122 1.381 . S
C2122 H2114 0.930 . S
C2122 C2118 1.390 . S
C2122 C2121 1.381 . S
N2123 C2116 1.286 . S
N2123 C2119 1.413 . S
H2124 C2129 0.930 . S
H2125 C2132 0.930 . S
H2126 C2134 0.930 . S
H2127 C2128 1.016 . S
C2128 H2127 1.016 . S
C2128 N2135 1.286 . S
C2129 H2124 0.930 . S
C2129 C2130 1.397 . S
C2129 C2131 1.361 . S
C2130 C2129 1.397 . S
C2130 C2134 1.390 . S
C2131 C2129 1.361 . S
C2131 C2132 1.393 . S
C2131 N2135 1.413 . S
C2132 H2125 0.930 . S
C2132 C2131 1.393 . S
C2132 C2133 1.399 . S
C2133 C2132 1.399 . S
C2133 C2134 1.381 . S
C2134 H2126 0.930 . S
C2134 C2130 1.390 . S
C2134 C2133 1.381 . S
N2135 C2128 1.286 . S
N2135 C2131 1.413 . S
H2136 C2141 0.930 . S
H2137 C2144 0.930 . S
H2138 C2146 0.930 . S
H2139 C2140 1.016 . S
C2140 H2139 1.016 . S
C2140 N2147 1.286 . S
C2141 H2136 0.930 . S
C2141 C2142 1.397 . S
C2141 C2143 1.361 . S
C2142 C2141 1.397 . S
C2142 C2146 1.390 . S
C2143 C2141 1.361 . S
C2143 C2144 1.393 . S
C2143 N2147 1.413 . S
C2144 H2137 0.930 . S
C2144 C2143 1.393 . S
C2144 C2145 1.399 . S
C2145 C2144 1.399 . S
C2145 C2146 1.381 . S
C2146 H2138 0.930 . S
C2146 C2142 1.390 . S
C2146 C2145 1.381 . S
N2147 C2140 1.286 . S
N2147 C2143 1.413 . S
H2148 C2153 0.930 . S
H2149 C2156 0.930 . S
H2150 C2158 0.930 . S
H2151 C2152 1.016 . S
C2152 H2151 1.016 . S
C2152 N2159 1.286 . S
C2153 H2148 0.930 . S
C2153 C2154 1.397 . S
C2153 C2155 1.361 . S
C2154 C2153 1.397 . S
C2154 C2158 1.390 . S
C2155 C2153 1.361 . S
C2155 C2156 1.393 . S
C2155 N2159 1.413 . S
C2156 H2149 0.930 . S
C2156 C2155 1.393 . S
C2156 C2157 1.399 . S
C2157 C2156 1.399 . S
C2157 C2158 1.381 . S
C2158 H2150 0.930 . S
C2158 C2154 1.390 . S
C2158 C2157 1.381 . S
N2159 C2152 1.286 . S
N2159 C2155 1.413 . S
H2160 C2165 0.930 . S
H2161 C2168 0.930 . S
H2162 C2170 0.930 . S
H2163 C2164 1.016 . S
C2164 H2163 1.016 . S
C2164 N2171 1.286 . S
C2165 H2160 0.930 . S
C2165 C2166 1.397 . S
C2165 C2167 1.361 . S
C2166 C2165 1.397 . S
C2166 C2170 1.390 . S
C2167 C2165 1.361 . S
C2167 C2168 1.393 . S
C2167 N2171 1.413 . S
C2168 H2161 0.930 . S
C2168 C2167 1.393 . S
C2168 C2169 1.399 . S
C2169 C2168 1.399 . S
C2169 C2170 1.381 . S
C2170 H2162 0.930 . S
C2170 C2166 1.390 . S
C2170 C2169 1.381 . S
N2171 C2164 1.286 . S
N2171 C2167 1.413 . S
H2172 C2177 0.930 . S
H2173 C2180 0.930 . S
H2174 C2182 0.930 . S
H2175 C2176 1.016 . S
C2176 H2175 1.016 . S
C2176 N2183 1.286 . S
C2177 H2172 0.930 . S
C2177 C2178 1.397 . S
C2177 C2179 1.361 . S
C2178 C2177 1.397 . S
C2178 C2182 1.390 . S
C2179 C2177 1.361 . S
C2179 C2180 1.393 . S
C2179 N2183 1.413 . S
C2180 H2173 0.930 . S
C2180 C2179 1.393 . S
C2180 C2181 1.399 . S
C2181 C2180 1.399 . S
C2181 C2182 1.381 . S
C2182 H2174 0.930 . S
C2182 C2178 1.390 . S
C2182 C2181 1.381 . S
N2183 C2176 1.286 . S
N2183 C2179 1.413 . S
H2184 C2189 0.930 . S
H2185 C2192 0.930 . S
H2186 C2194 0.930 . S
H2187 C2188 1.016 . S
C2188 H2187 1.016 . S
C2188 N2195 1.286 . S
C2189 H2184 0.930 . S
C2189 C2190 1.397 . S
C2189 C2191 1.361 . S
C2190 C2189 1.397 . S
C2190 C2194 1.390 . S
C2191 C2189 1.361 . S
C2191 C2192 1.393 . S
C2191 N2195 1.413 . S
C2192 H2185 0.930 . S
C2192 C2191 1.393 . S
C2192 C2193 1.399 . S
C2193 C2192 1.399 . S
C2193 C2194 1.381 . S
C2194 H2186 0.930 . S
C2194 C2190 1.390 . S
C2194 C2193 1.381 . S
N2195 C2188 1.286 . S
N2195 C2191 1.413 . S
H2196 C2201 0.930 . S
H2197 C2204 0.930 . S
H2198 C2206 0.930 . S
H2199 C2200 1.016 . S
C2200 H2199 1.016 . S
C2200 N2207 1.286 . S
C2201 H2196 0.930 . S
C2201 C2202 1.397 . S
C2201 C2203 1.361 . S
C2202 C2201 1.397 . S
C2202 C2206 1.390 . S
C2203 C2201 1.361 . S
C2203 C2204 1.393 . S
C2203 N2207 1.413 . S
C2204 H2197 0.930 . S
C2204 C2203 1.393 . S
C2204 C2205 1.399 . S
C2205 C2204 1.399 . S
C2205 C2206 1.381 . S
C2206 H2198 0.930 . S
C2206 C2202 1.390 . S
C2206 C2205 1.381 . S
N2207 C2200 1.286 . S
N2207 C2203 1.413 . S
H2208 C2213 0.930 . S
H2209 C2216 0.930 . S
H2210 C2218 0.930 . S
H2211 C2212 1.016 . S
C2212 H2211 1.016 . S
C2212 N2219 1.286 . S
C2213 H2208 0.930 . S
C2213 C2214 1.397 . S
C2213 C2215 1.361 . S
C2214 C2213 1.397 . S
C2214 C2218 1.390 . S
C2215 C2213 1.361 . S
C2215 C2216 1.393 . S
C2215 N2219 1.413 . S
C2216 H2209 0.930 . S
C2216 C2215 1.393 . S
C2216 C2217 1.399 . S
C2217 C2216 1.399 . S
C2217 C2218 1.381 . S
C2218 H2210 0.930 . S
C2218 C2214 1.390 . S
C2218 C2217 1.381 . S
N2219 C2212 1.286 . S
N2219 C2215 1.413 . S
H2220 C2225 0.930 . S
H2221 C2228 0.930 . S
H2222 C2230 0.930 . S
H2223 C2224 1.016 . S
C2224 H2223 1.016 . S
C2224 N2231 1.286 . S
C2225 H2220 0.930 . S
C2225 C2226 1.397 . S
C2225 C2227 1.361 . S
C2226 C2225 1.397 . S
C2226 C2230 1.390 . S
C2227 C2225 1.361 . S
C2227 C2228 1.393 . S
C2227 N2231 1.413 . S
C2228 H2221 0.930 . S
C2228 C2227 1.393 . S
C2228 C2229 1.399 . S
C2229 C2228 1.399 . S
C2229 C2230 1.381 . S
C2230 H2222 0.930 . S
C2230 C2226 1.390 . S
C2230 C2229 1.381 . S
N2231 C2224 1.286 . S
N2231 C2227 1.413 . S
H2232 C2237 0.930 . S
H2233 C2240 0.930 . S
H2234 C2242 0.930 . S
H2235 C2236 1.016 . S
C2236 H2235 1.016 . S
C2236 N2243 1.286 . S
C2237 H2232 0.930 . S
C2237 C2238 1.397 . S
C2237 C2239 1.361 . S
C2238 C2237 1.397 . S
C2238 C2242 1.390 . S
C2239 C2237 1.361 . S
C2239 C2240 1.393 . S
C2239 N2243 1.413 . S
C2240 H2233 0.930 . S
C2240 C2239 1.393 . S
C2240 C2241 1.399 . S
C2241 C2240 1.399 . S
C2241 C2242 1.381 . S
C2242 H2234 0.930 . S
C2242 C2238 1.390 . S
C2242 C2241 1.381 . S
N2243 C2236 1.286 . S
N2243 C2239 1.413 . S
H2244 C2249 0.930 . S
H2245 C2252 0.930 . S
H2246 C2254 0.930 . S
H2247 C2248 1.016 . S
C2248 H2247 1.016 . S
C2248 N2255 1.286 . S
C2249 H2244 0.930 . S
C2249 C2250 1.397 . S
C2249 C2251 1.361 . S
C2250 C2249 1.397 . S
C2250 C2254 1.390 . S
C2251 C2249 1.361 . S
C2251 C2252 1.393 . S
C2251 N2255 1.413 . S
C2252 H2245 0.930 . S
C2252 C2251 1.393 . S
C2252 C2253 1.399 . S
C2253 C2252 1.399 . S
C2253 C2254 1.381 . S
C2254 H2246 0.930 . S
C2254 C2250 1.390 . S
C2254 C2253 1.381 . S
N2255 C2248 1.286 . S
N2255 C2251 1.413 . S
H2256 C2261 0.930 . S
H2257 C2264 0.930 . S
H2258 C2266 0.930 . S
H2259 C2260 1.016 . S
C2260 H2259 1.016 . S
C2260 N2267 1.286 . S
C2261 H2256 0.930 . S
C2261 C2262 1.397 . S
C2261 C2263 1.361 . S
C2262 C2261 1.397 . S
C2262 C2266 1.390 . S
C2263 C2261 1.361 . S
C2263 C2264 1.393 . S
C2263 N2267 1.413 . S
C2264 H2257 0.930 . S
C2264 C2263 1.393 . S
C2264 C2265 1.399 . S
C2265 C2264 1.399 . S
C2265 C2266 1.381 . S
C2266 H2258 0.930 . S
C2266 C2262 1.390 . S
C2266 C2265 1.381 . S
N2267 C2260 1.286 . S
N2267 C2263 1.413 . S
H2268 C2273 0.930 . S
H2269 C2276 0.930 . S
H2270 C2278 0.930 . S
H2271 C2272 1.016 . S
C2272 H2271 1.016 . S
C2272 N2279 1.286 . S
C2273 H2268 0.930 . S
C2273 C2274 1.397 . S
C2273 C2275 1.361 . S
C2274 C2273 1.397 . S
C2274 C2278 1.390 . S
C2275 C2273 1.361 . S
C2275 C2276 1.393 . S
C2275 N2279 1.413 . S
C2276 H2269 0.930 . S
C2276 C2275 1.393 . S
C2276 C2277 1.399 . S
C2277 C2276 1.399 . S
C2277 C2278 1.381 . S
C2278 H2270 0.930 . S
C2278 C2274 1.390 . S
C2278 C2277 1.381 . S
N2279 C2272 1.286 . S
N2279 C2275 1.413 . S
H2280 C2285 0.930 . S
H2281 C2288 0.930 . S
H2282 C2290 0.930 . S
H2283 C2284 1.016 . S
C2284 H2283 1.016 . S
C2284 N2291 1.286 . S
C2285 H2280 0.930 . S
C2285 C2286 1.397 . S
C2285 C2287 1.361 . S
C2286 C2285 1.397 . S
C2286 C2290 1.390 . S
C2287 C2285 1.361 . S
C2287 C2288 1.393 . S
C2287 N2291 1.413 . S
C2288 H2281 0.930 . S
C2288 C2287 1.393 . S
C2288 C2289 1.399 . S
C2289 C2288 1.399 . S
C2289 C2290 1.381 . S
C2290 H2282 0.930 . S
C2290 C2286 1.390 . S
C2290 C2289 1.381 . S
N2291 C2284 1.286 . S
N2291 C2287 1.413 . S
H2292 C2297 0.930 . S
H2293 C2300 0.930 . S
H2294 C2302 0.930 . S
H2295 C2296 1.016 . S
C2296 H2295 1.016 . S
C2296 N2303 1.286 . S
C2297 H2292 0.930 . S
C2297 C2298 1.397 . S
C2297 C2299 1.361 . S
C2298 C2297 1.397 . S
C2298 C2302 1.390 . S
C2299 C2297 1.361 . S
C2299 C2300 1.393 . S
C2299 N2303 1.413 . S
C2300 H2293 0.930 . S
C2300 C2299 1.393 . S
C2300 C2301 1.399 . S
C2301 C2300 1.399 . S
C2301 C2302 1.381 . S
C2302 H2294 0.930 . S
C2302 C2298 1.390 . S
C2302 C2301 1.381 . S
N2303 C2296 1.286 . S
N2303 C2299 1.413 . S
H2304 C2309 0.930 . S
H2305 C2312 0.930 . S
H2306 C2314 0.930 . S
H2307 C2308 1.016 . S
C2308 H2307 1.016 . S
C2308 N2315 1.286 . S
C2309 H2304 0.930 . S
C2309 C2310 1.397 . S
C2309 C2311 1.361 . S
C2310 C2309 1.397 . S
C2310 C2314 1.390 . S
C2311 C2309 1.361 . S
C2311 C2312 1.393 . S
C2311 N2315 1.413 . S
C2312 H2305 0.930 . S
C2312 C2311 1.393 . S
C2312 C2313 1.399 . S
C2313 C2312 1.399 . S
C2313 C2314 1.381 . S
C2314 H2306 0.930 . S
C2314 C2310 1.390 . S
C2314 C2313 1.381 . S
N2315 C2308 1.286 . S
N2315 C2311 1.413 . S
H2316 C2321 0.930 . S
H2317 C2324 0.930 . S
H2318 C2326 0.930 . S
H2319 C2320 1.016 . S
C2320 H2319 1.016 . S
C2320 N2327 1.286 . S
C2321 H2316 0.930 . S
C2321 C2322 1.397 . S
C2321 C2323 1.361 . S
C2322 C2321 1.397 . S
C2322 C2326 1.390 . S
C2323 C2321 1.361 . S
C2323 C2324 1.393 . S
C2323 N2327 1.413 . S
C2324 H2317 0.930 . S
C2324 C2323 1.393 . S
C2324 C2325 1.399 . S
C2325 C2324 1.399 . S
C2325 C2326 1.381 . S
C2326 H2318 0.930 . S
C2326 C2322 1.390 . S
C2326 C2325 1.381 . S
N2327 C2320 1.286 . S
N2327 C2323 1.413 . S
H2328 C2333 0.930 . S
H2329 C2336 0.930 . S
H2330 C2338 0.930 . S
H2331 C2332 1.016 . S
C2332 H2331 1.016 . S
C2332 N2339 1.286 . S
C2333 H2328 0.930 . S
C2333 C2334 1.397 . S
C2333 C2335 1.361 . S
C2334 C2333 1.397 . S
C2334 C2338 1.390 . S
C2335 C2333 1.361 . S
C2335 C2336 1.393 . S
C2335 N2339 1.413 . S
C2336 H2329 0.930 . S
C2336 C2335 1.393 . S
C2336 C2337 1.399 . S
C2337 C2336 1.399 . S
C2337 C2338 1.381 . S
C2338 H2330 0.930 . S
C2338 C2334 1.390 . S
C2338 C2337 1.381 . S
N2339 C2332 1.286 . S
N2339 C2335 1.413 . S
H2340 C2345 0.930 . S
H2341 C2348 0.930 . S
H2342 C2350 0.930 . S
H2343 C2344 1.016 . S
C2344 H2343 1.016 . S
C2344 N2351 1.286 . S
C2345 H2340 0.930 . S
C2345 C2346 1.397 . S
C2345 C2347 1.361 . S
C2346 C2345 1.397 . S
C2346 C2350 1.390 . S
C2347 C2345 1.361 . S
C2347 C2348 1.393 . S
C2347 N2351 1.413 . S
C2348 H2341 0.930 . S
C2348 C2347 1.393 . S
C2348 C2349 1.399 . S
C2349 C2348 1.399 . S
C2349 C2350 1.381 . S
C2350 H2342 0.930 . S
C2350 C2346 1.390 . S
C2350 C2349 1.381 . S
N2351 C2344 1.286 . S
N2351 C2347 1.413 . S
H2352 C2357 0.930 . S
H2353 C2360 0.930 . S
H2354 C2362 0.930 . S
H2355 C2356 1.016 . S
C2356 H2355 1.016 . S
C2356 N2363 1.286 . S
C2357 H2352 0.930 . S
C2357 C2358 1.397 . S
C2357 C2359 1.361 . S
C2358 C2357 1.397 . S
C2358 C2362 1.390 . S
C2359 C2357 1.361 . S
C2359 C2360 1.393 . S
C2359 N2363 1.413 . S
C2360 H2353 0.930 . S
C2360 C2359 1.393 . S
C2360 C2361 1.399 . S
C2361 C2360 1.399 . S
C2361 C2362 1.381 . S
C2362 H2354 0.930 . S
C2362 C2358 1.390 . S
C2362 C2361 1.381 . S
N2363 C2356 1.286 . S
N2363 C2359 1.413 . S
H2364 C2369 0.930 . S
H2365 C2372 0.930 . S
H2366 C2374 0.930 . S
H2367 C2368 1.016 . S
C2368 H2367 1.016 . S
C2368 N2375 1.286 . S
C2369 H2364 0.930 . S
C2369 C2370 1.397 . S
C2369 C2371 1.361 . S
C2370 C2369 1.397 . S
C2370 C2374 1.390 . S
C2371 C2369 1.361 . S
C2371 C2372 1.393 . S
C2371 N2375 1.413 . S
C2372 H2365 0.930 . S
C2372 C2371 1.393 . S
C2372 C2373 1.399 . S
C2373 C2372 1.399 . S
C2373 C2374 1.381 . S
C2374 H2366 0.930 . S
C2374 C2370 1.390 . S
C2374 C2373 1.381 . S
N2375 C2368 1.286 . S
N2375 C2371 1.413 . S
H2376 C2381 0.930 . S
H2377 C2384 0.930 . S
H2378 C2386 0.930 . S
H2379 C2380 1.016 . S
C2380 H2379 1.016 . S
C2380 N2387 1.286 . S
C2381 H2376 0.930 . S
C2381 C2382 1.397 . S
C2381 C2383 1.361 . S
C2382 C2381 1.397 . S
C2382 C2386 1.390 . S
C2383 C2381 1.361 . S
C2383 C2384 1.393 . S
C2383 N2387 1.413 . S
C2384 H2377 0.930 . S
C2384 C2383 1.393 . S
C2384 C2385 1.399 . S
C2385 C2384 1.399 . S
C2385 C2386 1.381 . S
C2386 H2378 0.930 . S
C2386 C2382 1.390 . S
C2386 C2385 1.381 . S
N2387 C2380 1.286 . S
N2387 C2383 1.413 . S
H2388 C2393 0.930 . S
H2389 C2396 0.930 . S
H2390 C2398 0.930 . S
H2391 C2392 1.016 . S
C2392 H2391 1.016 . S
C2392 N2399 1.286 . S
C2393 H2388 0.930 . S
C2393 C2394 1.397 . S
C2393 C2395 1.361 . S
C2394 C2393 1.397 . S
C2394 C2398 1.390 . S
C2395 C2393 1.361 . S
C2395 C2396 1.393 . S
C2395 N2399 1.413 . S
C2396 H2389 0.930 . S
C2396 C2395 1.393 . S
C2396 C2397 1.399 . S
C2397 C2396 1.399 . S
C2397 C2398 1.381 . S
C2398 H2390 0.930 . S
C2398 C2394 1.390 . S
C2398 C2397 1.381 . S
N2399 C2392 1.286 . S
N2399 C2395 1.413 . S
H2400 C2405 0.930 . S
H2401 C2408 0.930 . S
H2402 C2410 0.930 . S
H2403 C2404 1.016 . S
C2404 H2403 1.016 . S
C2404 N2411 1.286 . S
C2405 H2400 0.930 . S
C2405 C2406 1.397 . S
C2405 C2407 1.361 . S
C2406 C2405 1.397 . S
C2406 C2410 1.390 . S
C2407 C2405 1.361 . S
C2407 C2408 1.393 . S
C2407 N2411 1.413 . S
C2408 H2401 0.930 . S
C2408 C2407 1.393 . S
C2408 C2409 1.399 . S
C2409 C2408 1.399 . S
C2409 C2410 1.381 . S
C2410 H2402 0.930 . S
C2410 C2406 1.390 . S
C2410 C2409 1.381 . S
N2411 C2404 1.286 . S
N2411 C2407 1.413 . S
H2412 C2417 0.930 . S
H2413 C2420 0.930 . S
H2414 C2422 0.930 . S
H2415 C2416 1.016 . S
C2416 H2415 1.016 . S
C2416 N2423 1.286 . S
C2417 H2412 0.930 . S
C2417 C2418 1.397 . S
C2417 C2419 1.361 . S
C2418 C2417 1.397 . S
C2418 C2422 1.390 . S
C2419 C2417 1.361 . S
C2419 C2420 1.393 . S
C2419 N2423 1.413 . S
C2420 H2413 0.930 . S
C2420 C2419 1.393 . S
C2420 C2421 1.399 . S
C2421 C2420 1.399 . S
C2421 C2422 1.381 . S
C2422 H2414 0.930 . S
C2422 C2418 1.390 . S
C2422 C2421 1.381 . S
N2423 C2416 1.286 . S
N2423 C2419 1.413 . S
H2424 C2429 0.930 . S
H2425 C2432 0.930 . S
H2426 C2434 0.930 . S
H2427 C2428 1.016 . S
C2428 H2427 1.016 . S
C2428 N2435 1.286 . S
C2429 H2424 0.930 . S
C2429 C2430 1.397 . S
C2429 C2431 1.361 . S
C2430 C2429 1.397 . S
C2430 C2434 1.390 . S
C2431 C2429 1.361 . S
C2431 C2432 1.393 . S
C2431 N2435 1.413 . S
C2432 H2425 0.930 . S
C2432 C2431 1.393 . S
C2432 C2433 1.399 . S
C2433 C2432 1.399 . S
C2433 C2434 1.381 . S
C2434 H2426 0.930 . S
C2434 C2430 1.390 . S
C2434 C2433 1.381 . S
N2435 C2428 1.286 . S
N2435 C2431 1.413 . S
H2436 C2441 0.930 . S
H2437 C2444 0.930 . S
H2438 C2446 0.930 . S
H2439 C2440 1.016 . S
C2440 H2439 1.016 . S
C2440 N2447 1.286 . S
C2441 H2436 0.930 . S
C2441 C2442 1.397 . S
C2441 C2443 1.361 . S
C2442 C2441 1.397 . S
C2442 C2446 1.390 . S
C2443 C2441 1.361 . S
C2443 C2444 1.393 . S
C2443 N2447 1.413 . S
C2444 H2437 0.930 . S
C2444 C2443 1.393 . S
C2444 C2445 1.399 . S
C2445 C2444 1.399 . S
C2445 C2446 1.381 . S
C2446 H2438 0.930 . S
C2446 C2442 1.390 . S
C2446 C2445 1.381 . S
N2447 C2440 1.286 . S
N2447 C2443 1.413 . S
H2448 C2453 0.930 . S
H2449 C2456 0.930 . S
H2450 C2458 0.930 . S
H2451 C2452 1.016 . S
C2452 H2451 1.016 . S
C2452 N2459 1.286 . S
C2453 H2448 0.930 . S
C2453 C2454 1.397 . S
C2453 C2455 1.361 . S
C2454 C2453 1.397 . S
C2454 C2458 1.390 . S
C2455 C2453 1.361 . S
C2455 C2456 1.393 . S
C2455 N2459 1.413 . S
C2456 H2449 0.930 . S
C2456 C2455 1.393 . S
C2456 C2457 1.399 . S
C2457 C2456 1.399 . S
C2457 C2458 1.381 . S
C2458 H2450 0.930 . S
C2458 C2454 1.390 . S
C2458 C2457 1.381 . S
N2459 C2452 1.286 . S
N2459 C2455 1.413 . S
H2460 C2465 0.930 . S
H2461 C2468 0.930 . S
H2462 C2470 0.930 . S
H2463 C2464 1.016 . S
C2464 H2463 1.016 . S
C2464 N2471 1.286 . S
C2465 H2460 0.930 . S
C2465 C2466 1.397 . S
C2465 C2467 1.361 . S
C2466 C2465 1.397 . S
C2466 C2470 1.390 . S
C2467 C2465 1.361 . S
C2467 C2468 1.393 . S
C2467 N2471 1.413 . S
C2468 H2461 0.930 . S
C2468 C2467 1.393 . S
C2468 C2469 1.399 . S
C2469 C2468 1.399 . S
C2469 C2470 1.381 . S
C2470 H2462 0.930 . S
C2470 C2466 1.390 . S
C2470 C2469 1.381 . S
N2471 C2464 1.286 . S
N2471 C2467 1.413 . S
H2472 C2477 0.930 . S
H2473 C2480 0.930 . S
H2474 C2482 0.930 . S
H2475 C2476 1.016 . S
C2476 H2475 1.016 . S
C2476 N2483 1.286 . S
C2477 H2472 0.930 . S
C2477 C2478 1.397 . S
C2477 C2479 1.361 . S
C2478 C2477 1.397 . S
C2478 C2482 1.390 . S
C2479 C2477 1.361 . S
C2479 C2480 1.393 . S
C2479 N2483 1.413 . S
C2480 H2473 0.930 . S
C2480 C2479 1.393 . S
C2480 C2481 1.399 . S
C2481 C2480 1.399 . S
C2481 C2482 1.381 . S
C2482 H2474 0.930 . S
C2482 C2478 1.390 . S
C2482 C2481 1.381 . S
N2483 C2476 1.286 . S
N2483 C2479 1.413 . S
H2484 C2489 0.930 . S
H2485 C2492 0.930 . S
H2486 C2494 0.930 . S
H2487 C2488 1.016 . S
C2488 H2487 1.016 . S
C2488 N2495 1.286 . S
C2489 H2484 0.930 . S
C2489 C2490 1.397 . S
C2489 C2491 1.361 . S
C2490 C2489 1.397 . S
C2490 C2494 1.390 . S
C2491 C2489 1.361 . S
C2491 C2492 1.393 . S
C2491 N2495 1.413 . S
C2492 H2485 0.930 . S
C2492 C2491 1.393 . S
C2492 C2493 1.399 . S
C2493 C2492 1.399 . S
C2493 C2494 1.381 . S
C2494 H2486 0.930 . S
C2494 C2490 1.390 . S
C2494 C2493 1.381 . S
N2495 C2488 1.286 . S
N2495 C2491 1.413 . S
C2496 C2497 1.363 . S
C2496 C2502 1.379 . S
C2496 N2504 1.356 . S
C2497 C2496 1.363 . S
C2497 C2503 1.363 . S
C2498 C2499 1.363 . S
C2498 C2503 1.379 . S
C2498 N2505 1.356 . S
C2499 C2498 1.363 . S
C2499 C2502 1.363 . S
N2500 C2502 1.356 . S
N2500 H2512 0.984 . S
N2500 H2513 0.985 . S
N2501 C2503 1.356 . S
N2501 H2506 0.984 . S
N2501 H2507 0.985 . S
C2502 C2496 1.379 . S
C2502 C2499 1.363 . S
C2502 N2500 1.356 . S
C2503 C2497 1.363 . S
C2503 C2498 1.379 . S
C2503 N2501 1.356 . S
N2504 C2496 1.356 . S
N2504 H2510 0.984 . S
N2504 H2511 0.984 . S
N2505 C2498 1.356 . S
N2505 H2508 0.984 . S
N2505 H2509 0.985 . S
H2506 N2501 0.984 . S
H2507 N2501 0.985 . S
H2508 N2505 0.984 . S
H2509 N2505 0.985 . S
H2510 N2504 0.984 . S
H2511 N2504 0.984 . S
H2512 N2500 0.984 . S
H2513 N2500 0.985 . S
C2514 C2515 1.363 . S
C2514 C2520 1.379 . S
C2514 N2522 1.356 . S
C2515 C2514 1.363 . S
C2515 C2521 1.363 . S
C2516 C2517 1.363 . S
C2516 C2521 1.379 . S
C2516 N2523 1.356 . S
C2517 C2516 1.363 . S
C2517 C2520 1.363 . S
N2518 C2520 1.356 . S
N2518 H2530 0.984 . S
N2518 H2531 0.985 . S
N2519 C2521 1.356 . S
N2519 H2524 0.984 . S
N2519 H2525 0.985 . S
C2520 C2514 1.379 . S
C2520 C2517 1.363 . S
C2520 N2518 1.356 . S
C2521 C2515 1.363 . S
C2521 C2516 1.379 . S
C2521 N2519 1.356 . S
N2522 C2514 1.356 . S
N2522 H2528 0.984 . S
N2522 H2529 0.984 . S
N2523 C2516 1.356 . S
N2523 H2526 0.984 . S
N2523 H2527 0.985 . S
H2524 N2519 0.984 . S
H2525 N2519 0.985 . S
H2526 N2523 0.984 . S
H2527 N2523 0.985 . S
H2528 N2522 0.984 . S
H2529 N2522 0.984 . S
H2530 N2518 0.984 . S
H2531 N2518 0.985 . S
C2532 C2533 1.363 . S
C2532 C2538 1.379 . S
C2532 N2540 1.356 . S
C2533 C2532 1.363 . S
C2533 C2539 1.363 . S
C2534 C2535 1.363 . S
C2534 C2539 1.379 . S
C2534 N2541 1.356 . S
C2535 C2534 1.363 . S
C2535 C2538 1.363 . S
N2536 C2538 1.356 . S
N2536 H2548 0.984 . S
N2536 H2549 0.985 . S
N2537 C2539 1.356 . S
N2537 H2542 0.984 . S
N2537 H2543 0.985 . S
C2538 C2532 1.379 . S
C2538 C2535 1.363 . S
C2538 N2536 1.356 . S
C2539 C2533 1.363 . S
C2539 C2534 1.379 . S
C2539 N2537 1.356 . S
N2540 C2532 1.356 . S
N2540 H2546 0.984 . S
N2540 H2547 0.984 . S
N2541 C2534 1.356 . S
N2541 H2544 0.984 . S
N2541 H2545 0.985 . S
H2542 N2537 0.984 . S
H2543 N2537 0.985 . S
H2544 N2541 0.984 . S
H2545 N2541 0.985 . S
H2546 N2540 0.984 . S
H2547 N2540 0.984 . S
H2548 N2536 0.984 . S
H2549 N2536 0.985 . S
C2550 C2551 1.363 . S
C2550 C2556 1.379 . S
C2550 N2558 1.356 . S
C2551 C2550 1.363 . S
C2551 C2557 1.363 . S
C2552 C2553 1.363 . S
C2552 C2557 1.379 . S
C2552 N2559 1.356 . S
C2553 C2552 1.363 . S
C2553 C2556 1.363 . S
N2554 C2556 1.356 . S
N2554 H2566 0.984 . S
N2554 H2567 0.985 . S
N2555 C2557 1.356 . S
N2555 H2560 0.984 . S
N2555 H2561 0.985 . S
C2556 C2550 1.379 . S
C2556 C2553 1.363 . S
C2556 N2554 1.356 . S
C2557 C2551 1.363 . S
C2557 C2552 1.379 . S
C2557 N2555 1.356 . S
N2558 C2550 1.356 . S
N2558 H2564 0.984 . S
N2558 H2565 0.984 . S
N2559 C2552 1.356 . S
N2559 H2562 0.984 . S
N2559 H2563 0.985 . S
H2560 N2555 0.984 . S
H2561 N2555 0.985 . S
H2562 N2559 0.984 . S
H2563 N2559 0.985 . S
H2564 N2558 0.984 . S
H2565 N2558 0.984 . S
H2566 N2554 0.984 . S
H2567 N2554 0.985 . S
C2568 C2569 1.363 . S
C2568 C2574 1.379 . S
C2568 N2576 1.356 . S
C2569 C2568 1.363 . S
C2569 C2575 1.363 . S
C2570 C2571 1.363 . S
C2570 C2575 1.379 . S
C2570 N2577 1.356 . S
C2571 C2570 1.363 . S
C2571 C2574 1.363 . S
N2572 C2574 1.356 . S
N2572 H2584 0.984 . S
N2572 H2585 0.985 . S
N2573 C2575 1.356 . S
N2573 H2578 0.984 . S
N2573 H2579 0.985 . S
C2574 C2568 1.379 . S
C2574 C2571 1.363 . S
C2574 N2572 1.356 . S
C2575 C2569 1.363 . S
C2575 C2570 1.379 . S
C2575 N2573 1.356 . S
N2576 C2568 1.356 . S
N2576 H2582 0.984 . S
N2576 H2583 0.984 . S
N2577 C2570 1.356 . S
N2577 H2580 0.984 . S
N2577 H2581 0.985 . S
H2578 N2573 0.984 . S
H2579 N2573 0.985 . S
H2580 N2577 0.984 . S
H2581 N2577 0.985 . S
H2582 N2576 0.984 . S
H2583 N2576 0.984 . S
H2584 N2572 0.984 . S
H2585 N2572 0.985 . S
C2586 C2587 1.363 . S
C2586 C2592 1.379 . S
C2586 N2594 1.356 . S
C2587 C2586 1.363 . S
C2587 C2593 1.363 . S
C2588 C2589 1.363 . S
C2588 C2593 1.379 . S
C2588 N2595 1.356 . S
C2589 C2588 1.363 . S
C2589 C2592 1.363 . S
N2590 C2592 1.356 . S
N2590 H2602 0.984 . S
N2590 H2603 0.985 . S
N2591 C2593 1.356 . S
N2591 H2596 0.984 . S
N2591 H2597 0.985 . S
C2592 C2586 1.379 . S
C2592 C2589 1.363 . S
C2592 N2590 1.356 . S
C2593 C2587 1.363 . S
C2593 C2588 1.379 . S
C2593 N2591 1.356 . S
N2594 C2586 1.356 . S
N2594 H2600 0.984 . S
N2594 H2601 0.984 . S
N2595 C2588 1.356 . S
N2595 H2598 0.984 . S
N2595 H2599 0.985 . S
H2596 N2591 0.984 . S
H2597 N2591 0.985 . S
H2598 N2595 0.984 . S
H2599 N2595 0.985 . S
H2600 N2594 0.984 . S
H2601 N2594 0.984 . S
H2602 N2590 0.984 . S
H2603 N2590 0.985 . S
C2604 C2605 1.363 . S
C2604 C2610 1.379 . S
C2604 N2612 1.356 . S
C2605 C2604 1.363 . S
C2605 C2611 1.363 . S
C2606 C2607 1.363 . S
C2606 C2611 1.379 . S
C2606 N2613 1.356 . S
C2607 C2606 1.363 . S
C2607 C2610 1.363 . S
N2608 C2610 1.356 . S
N2608 H2620 0.984 . S
N2608 H2621 0.985 . S
N2609 C2611 1.356 . S
N2609 H2614 0.984 . S
N2609 H2615 0.985 . S
C2610 C2604 1.379 . S
C2610 C2607 1.363 . S
C2610 N2608 1.356 . S
C2611 C2605 1.363 . S
C2611 C2606 1.379 . S
C2611 N2609 1.356 . S
N2612 C2604 1.356 . S
N2612 H2618 0.984 . S
N2612 H2619 0.984 . S
N2613 C2606 1.356 . S
N2613 H2616 0.984 . S
N2613 H2617 0.985 . S
H2614 N2609 0.984 . S
H2615 N2609 0.985 . S
H2616 N2613 0.984 . S
H2617 N2613 0.985 . S
H2618 N2612 0.984 . S
H2619 N2612 0.984 . S
H2620 N2608 0.984 . S
H2621 N2608 0.985 . S
C2622 C2623 1.363 . S
C2622 C2628 1.379 . S
C2622 N2630 1.356 . S
C2623 C2622 1.363 . S
C2623 C2629 1.363 . S
C2624 C2625 1.363 . S
C2624 C2629 1.379 . S
C2624 N2631 1.356 . S
C2625 C2624 1.363 . S
C2625 C2628 1.363 . S
N2626 C2628 1.356 . S
N2626 H2638 0.984 . S
N2626 H2639 0.985 . S
N2627 C2629 1.356 . S
N2627 H2632 0.984 . S
N2627 H2633 0.985 . S
C2628 C2622 1.379 . S
C2628 C2625 1.363 . S
C2628 N2626 1.356 . S
C2629 C2623 1.363 . S
C2629 C2624 1.379 . S
C2629 N2627 1.356 . S
N2630 C2622 1.356 . S
N2630 H2636 0.984 . S
N2630 H2637 0.984 . S
N2631 C2624 1.356 . S
N2631 H2634 0.984 . S
N2631 H2635 0.985 . S
H2632 N2627 0.984 . S
H2633 N2627 0.985 . S
H2634 N2631 0.984 . S
H2635 N2631 0.985 . S
H2636 N2630 0.984 . S
H2637 N2630 0.984 . S
H2638 N2626 0.984 . S
H2639 N2626 0.985 . S
C2640 C2641 1.363 . S
C2640 C2646 1.379 . S
C2640 N2648 1.356 . S
C2641 C2640 1.363 . S
C2641 C2647 1.363 . S
C2642 C2643 1.363 . S
C2642 C2647 1.379 . S
C2642 N2649 1.356 . S
C2643 C2642 1.363 . S
C2643 C2646 1.363 . S
N2644 C2646 1.356 . S
N2644 H2656 0.984 . S
N2644 H2657 0.985 . S
N2645 C2647 1.356 . S
N2645 H2650 0.984 . S
N2645 H2651 0.985 . S
C2646 C2640 1.379 . S
C2646 C2643 1.363 . S
C2646 N2644 1.356 . S
C2647 C2641 1.363 . S
C2647 C2642 1.379 . S
C2647 N2645 1.356 . S
N2648 C2640 1.356 . S
N2648 H2654 0.984 . S
N2648 H2655 0.984 . S
N2649 C2642 1.356 . S
N2649 H2652 0.984 . S
N2649 H2653 0.985 . S
H2650 N2645 0.984 . S
H2651 N2645 0.985 . S
H2652 N2649 0.984 . S
H2653 N2649 0.985 . S
H2654 N2648 0.984 . S
H2655 N2648 0.984 . S
H2656 N2644 0.984 . S
H2657 N2644 0.985 . S
C2658 C2659 1.363 . S
C2658 C2664 1.379 . S
C2658 N2666 1.356 . S
C2659 C2658 1.363 . S
C2659 C2665 1.363 . S
C2660 C2661 1.363 . S
C2660 C2665 1.379 . S
C2660 N2667 1.356 . S
C2661 C2660 1.363 . S
C2661 C2664 1.363 . S
N2662 C2664 1.356 . S
N2662 H2674 0.984 . S
N2662 H2675 0.985 . S
N2663 C2665 1.356 . S
N2663 H2668 0.984 . S
N2663 H2669 0.985 . S
C2664 C2658 1.379 . S
C2664 C2661 1.363 . S
C2664 N2662 1.356 . S
C2665 C2659 1.363 . S
C2665 C2660 1.379 . S
C2665 N2663 1.356 . S
N2666 C2658 1.356 . S
N2666 H2672 0.984 . S
N2666 H2673 0.984 . S
N2667 C2660 1.356 . S
N2667 H2670 0.984 . S
N2667 H2671 0.985 . S
H2668 N2663 0.984 . S
H2669 N2663 0.985 . S
H2670 N2667 0.984 . S
H2671 N2667 0.985 . S
H2672 N2666 0.984 . S
H2673 N2666 0.984 . S
H2674 N2662 0.984 . S
H2675 N2662 0.985 . S
C2676 C2677 1.363 . S
C2676 C2682 1.379 . S
C2676 N2684 1.356 . S
C2677 C2676 1.363 . S
C2677 C2683 1.363 . S
C2678 C2679 1.363 . S
C2678 C2683 1.379 . S
C2678 N2685 1.356 . S
C2679 C2678 1.363 . S
C2679 C2682 1.363 . S
N2680 C2682 1.356 . S
N2680 H2692 0.984 . S
N2680 H2693 0.985 . S
N2681 C2683 1.356 . S
N2681 H2686 0.984 . S
N2681 H2687 0.985 . S
C2682 C2676 1.379 . S
C2682 C2679 1.363 . S
C2682 N2680 1.356 . S
C2683 C2677 1.363 . S
C2683 C2678 1.379 . S
C2683 N2681 1.356 . S
N2684 C2676 1.356 . S
N2684 H2690 0.984 . S
N2684 H2691 0.984 . S
N2685 C2678 1.356 . S
N2685 H2688 0.984 . S
N2685 H2689 0.985 . S
H2686 N2681 0.984 . S
H2687 N2681 0.985 . S
H2688 N2685 0.984 . S
H2689 N2685 0.985 . S
H2690 N2684 0.984 . S
H2691 N2684 0.984 . S
H2692 N2680 0.984 . S
H2693 N2680 0.985 . S
C2694 C2695 1.363 . S
C2694 C2700 1.379 . S
C2694 N2702 1.356 . S
C2695 C2694 1.363 . S
C2695 C2701 1.363 . S
C2696 C2697 1.363 . S
C2696 C2701 1.379 . S
C2696 N2703 1.356 . S
C2697 C2696 1.363 . S
C2697 C2700 1.363 . S
N2698 C2700 1.356 . S
N2698 H2710 0.984 . S
N2698 H2711 0.985 . S
N2699 C2701 1.356 . S
N2699 H2704 0.984 . S
N2699 H2705 0.985 . S
C2700 C2694 1.379 . S
C2700 C2697 1.363 . S
C2700 N2698 1.356 . S
C2701 C2695 1.363 . S
C2701 C2696 1.379 . S
C2701 N2699 1.356 . S
N2702 C2694 1.356 . S
N2702 H2708 0.984 . S
N2702 H2709 0.984 . S
N2703 C2696 1.356 . S
N2703 H2706 0.984 . S
N2703 H2707 0.985 . S
H2704 N2699 0.984 . S
H2705 N2699 0.985 . S
H2706 N2703 0.984 . S
H2707 N2703 0.985 . S
H2708 N2702 0.984 . S
H2709 N2702 0.984 . S
H2710 N2698 0.984 . S
H2711 N2698 0.985 . S
C2712 C2713 1.363 . S
C2712 C2718 1.379 . S
C2712 N2720 1.356 . S
C2713 C2712 1.363 . S
C2713 C2719 1.363 . S
C2714 C2715 1.363 . S
C2714 C2719 1.379 . S
C2714 N2721 1.356 . S
C2715 C2714 1.363 . S
C2715 C2718 1.363 . S
N2716 C2718 1.356 . S
N2716 H2728 0.984 . S
N2716 H2729 0.985 . S
N2717 C2719 1.356 . S
N2717 H2722 0.984 . S
N2717 H2723 0.985 . S
C2718 C2712 1.379 . S
C2718 C2715 1.363 . S
C2718 N2716 1.356 . S
C2719 C2713 1.363 . S
C2719 C2714 1.379 . S
C2719 N2717 1.356 . S
N2720 C2712 1.356 . S
N2720 H2726 0.984 . S
N2720 H2727 0.984 . S
N2721 C2714 1.356 . S
N2721 H2724 0.984 . S
N2721 H2725 0.985 . S
H2722 N2717 0.984 . S
H2723 N2717 0.985 . S
H2724 N2721 0.984 . S
H2725 N2721 0.985 . S
H2726 N2720 0.984 . S
H2727 N2720 0.984 . S
H2728 N2716 0.984 . S
H2729 N2716 0.985 . S
C2730 C2731 1.363 . S
C2730 C2736 1.379 . S
C2730 N2738 1.356 . S
C2731 C2730 1.363 . S
C2731 C2737 1.363 . S
C2732 C2733 1.363 . S
C2732 C2737 1.379 . S
C2732 N2739 1.356 . S
C2733 C2732 1.363 . S
C2733 C2736 1.363 . S
N2734 C2736 1.356 . S
N2734 H2746 0.984 . S
N2734 H2747 0.985 . S
N2735 C2737 1.356 . S
N2735 H2740 0.984 . S
N2735 H2741 0.985 . S
C2736 C2730 1.379 . S
C2736 C2733 1.363 . S
C2736 N2734 1.356 . S
C2737 C2731 1.363 . S
C2737 C2732 1.379 . S
C2737 N2735 1.356 . S
N2738 C2730 1.356 . S
N2738 H2744 0.984 . S
N2738 H2745 0.984 . S
N2739 C2732 1.356 . S
N2739 H2742 0.984 . S
N2739 H2743 0.985 . S
H2740 N2735 0.984 . S
H2741 N2735 0.985 . S
H2742 N2739 0.984 . S
H2743 N2739 0.985 . S
H2744 N2738 0.984 . S
H2745 N2738 0.984 . S
H2746 N2734 0.984 . S
H2747 N2734 0.985 . S
C2748 C2749 1.363 . S
C2748 C2754 1.379 . S
C2748 N2756 1.356 . S
C2749 C2748 1.363 . S
C2749 C2755 1.363 . S
C2750 C2751 1.363 . S
C2750 C2755 1.379 . S
C2750 N2757 1.356 . S
C2751 C2750 1.363 . S
C2751 C2754 1.363 . S
N2752 C2754 1.356 . S
N2752 H2764 0.984 . S
N2752 H2765 0.985 . S
N2753 C2755 1.356 . S
N2753 H2758 0.984 . S
N2753 H2759 0.985 . S
C2754 C2748 1.379 . S
C2754 C2751 1.363 . S
C2754 N2752 1.356 . S
C2755 C2749 1.363 . S
C2755 C2750 1.379 . S
C2755 N2753 1.356 . S
N2756 C2748 1.356 . S
N2756 H2762 0.984 . S
N2756 H2763 0.984 . S
N2757 C2750 1.356 . S
N2757 H2760 0.984 . S
N2757 H2761 0.985 . S
H2758 N2753 0.984 . S
H2759 N2753 0.985 . S
H2760 N2757 0.984 . S
H2761 N2757 0.985 . S
H2762 N2756 0.984 . S
H2763 N2756 0.984 . S
H2764 N2752 0.984 . S
H2765 N2752 0.985 . S
C2766 C2767 1.363 . S
C2766 C2772 1.379 . S
C2766 N2774 1.356 . S
C2767 C2766 1.363 . S
C2767 C2773 1.363 . S
C2768 C2769 1.363 . S
C2768 C2773 1.379 . S
C2768 N2775 1.356 . S
C2769 C2768 1.363 . S
C2769 C2772 1.363 . S
N2770 C2772 1.356 . S
N2770 H2782 0.984 . S
N2770 H2783 0.985 . S
N2771 C2773 1.356 . S
N2771 H2776 0.984 . S
N2771 H2777 0.985 . S
C2772 C2766 1.379 . S
C2772 C2769 1.363 . S
C2772 N2770 1.356 . S
C2773 C2767 1.363 . S
C2773 C2768 1.379 . S
C2773 N2771 1.356 . S
N2774 C2766 1.356 . S
N2774 H2780 0.984 . S
N2774 H2781 0.984 . S
N2775 C2768 1.356 . S
N2775 H2778 0.984 . S
N2775 H2779 0.985 . S
H2776 N2771 0.984 . S
H2777 N2771 0.985 . S
H2778 N2775 0.984 . S
H2779 N2775 0.985 . S
H2780 N2774 0.984 . S
H2781 N2774 0.984 . S
H2782 N2770 0.984 . S
H2783 N2770 0.985 . S
C2784 C2785 1.363 . S
C2784 C2790 1.379 . S
C2784 N2792 1.356 . S
C2785 C2784 1.363 . S
C2785 C2791 1.363 . S
C2786 C2787 1.363 . S
C2786 C2791 1.379 . S
C2786 N2793 1.356 . S
C2787 C2786 1.363 . S
C2787 C2790 1.363 . S
N2788 C2790 1.356 . S
N2788 H2800 0.984 . S
N2788 H2801 0.985 . S
N2789 C2791 1.356 . S
N2789 H2794 0.984 . S
N2789 H2795 0.985 . S
C2790 C2784 1.379 . S
C2790 C2787 1.363 . S
C2790 N2788 1.356 . S
C2791 C2785 1.363 . S
C2791 C2786 1.379 . S
C2791 N2789 1.356 . S
N2792 C2784 1.356 . S
N2792 H2798 0.984 . S
N2792 H2799 0.984 . S
N2793 C2786 1.356 . S
N2793 H2796 0.984 . S
N2793 H2797 0.985 . S
H2794 N2789 0.984 . S
H2795 N2789 0.985 . S
H2796 N2793 0.984 . S
H2797 N2793 0.985 . S
H2798 N2792 0.984 . S
H2799 N2792 0.984 . S
H2800 N2788 0.984 . S
H2801 N2788 0.985 . S
C2802 C2803 1.363 . S
C2802 C2808 1.379 . S
C2802 N2810 1.356 . S
C2803 C2802 1.363 . S
C2803 C2809 1.363 . S
C2804 C2805 1.363 . S
C2804 C2809 1.379 . S
C2804 N2811 1.356 . S
C2805 C2804 1.363 . S
C2805 C2808 1.363 . S
N2806 C2808 1.356 . S
N2806 H2818 0.984 . S
N2806 H2819 0.985 . S
N2807 C2809 1.356 . S
N2807 H2812 0.984 . S
N2807 H2813 0.985 . S
C2808 C2802 1.379 . S
C2808 C2805 1.363 . S
C2808 N2806 1.356 . S
C2809 C2803 1.363 . S
C2809 C2804 1.379 . S
C2809 N2807 1.356 . S
N2810 C2802 1.356 . S
N2810 H2816 0.984 . S
N2810 H2817 0.984 . S
N2811 C2804 1.356 . S
N2811 H2814 0.984 . S
N2811 H2815 0.985 . S
H2812 N2807 0.984 . S
H2813 N2807 0.985 . S
H2814 N2811 0.984 . S
H2815 N2811 0.985 . S
H2816 N2810 0.984 . S
H2817 N2810 0.984 . S
H2818 N2806 0.984 . S
H2819 N2806 0.985 . S
C2820 C2821 1.363 . S
C2820 C2826 1.379 . S
C2820 N2828 1.356 . S
C2821 C2820 1.363 . S
C2821 C2827 1.363 . S
C2822 C2823 1.363 . S
C2822 C2827 1.379 . S
C2822 N2829 1.356 . S
C2823 C2822 1.363 . S
C2823 C2826 1.363 . S
N2824 C2826 1.356 . S
N2824 H2836 0.984 . S
N2824 H2837 0.985 . S
N2825 C2827 1.356 . S
N2825 H2830 0.984 . S
N2825 H2831 0.985 . S
C2826 C2820 1.379 . S
C2826 C2823 1.363 . S
C2826 N2824 1.356 . S
C2827 C2821 1.363 . S
C2827 C2822 1.379 . S
C2827 N2825 1.356 . S
N2828 C2820 1.356 . S
N2828 H2834 0.984 . S
N2828 H2835 0.984 . S
N2829 C2822 1.356 . S
N2829 H2832 0.984 . S
N2829 H2833 0.985 . S
H2830 N2825 0.984 . S
H2831 N2825 0.985 . S
H2832 N2829 0.984 . S
H2833 N2829 0.985 . S
H2834 N2828 0.984 . S
H2835 N2828 0.984 . S
H2836 N2824 0.984 . S
H2837 N2824 0.985 . S
C2838 C2839 1.363 . S
C2838 C2844 1.379 . S
C2838 N2846 1.356 . S
C2839 C2838 1.363 . S
C2839 C2845 1.363 . S
C2840 C2841 1.363 . S
C2840 C2845 1.379 . S
C2840 N2847 1.356 . S
C2841 C2840 1.363 . S
C2841 C2844 1.363 . S
N2842 C2844 1.356 . S
N2842 H2854 0.984 . S
N2842 H2855 0.985 . S
N2843 C2845 1.356 . S
N2843 H2848 0.984 . S
N2843 H2849 0.985 . S
C2844 C2838 1.379 . S
C2844 C2841 1.363 . S
C2844 N2842 1.356 . S
C2845 C2839 1.363 . S
C2845 C2840 1.379 . S
C2845 N2843 1.356 . S
N2846 C2838 1.356 . S
N2846 H2852 0.984 . S
N2846 H2853 0.984 . S
N2847 C2840 1.356 . S
N2847 H2850 0.984 . S
N2847 H2851 0.985 . S
H2848 N2843 0.984 . S
H2849 N2843 0.985 . S
H2850 N2847 0.984 . S
H2851 N2847 0.985 . S
H2852 N2846 0.984 . S
H2853 N2846 0.984 . S
H2854 N2842 0.984 . S
H2855 N2842 0.985 . S
C2856 C2857 1.363 . S
C2856 C2862 1.379 . S
C2856 N2864 1.356 . S
C2857 C2856 1.363 . S
C2857 C2863 1.363 . S
C2858 C2859 1.363 . S
C2858 C2863 1.379 . S
C2858 N2865 1.356 . S
C2859 C2858 1.363 . S
C2859 C2862 1.363 . S
N2860 C2862 1.356 . S
N2860 H2872 0.984 . S
N2860 H2873 0.985 . S
N2861 C2863 1.356 . S
N2861 H2866 0.984 . S
N2861 H2867 0.985 . S
C2862 C2856 1.379 . S
C2862 C2859 1.363 . S
C2862 N2860 1.356 . S
C2863 C2857 1.363 . S
C2863 C2858 1.379 . S
C2863 N2861 1.356 . S
N2864 C2856 1.356 . S
N2864 H2870 0.984 . S
N2864 H2871 0.984 . S
N2865 C2858 1.356 . S
N2865 H2868 0.984 . S
N2865 H2869 0.985 . S
H2866 N2861 0.984 . S
H2867 N2861 0.985 . S
H2868 N2865 0.984 . S
H2869 N2865 0.985 . S
H2870 N2864 0.984 . S
H2871 N2864 0.984 . S
H2872 N2860 0.984 . S
H2873 N2860 0.985 . S
C2874 C2875 1.363 . S
C2874 C2880 1.379 . S
C2874 N2882 1.356 . S
C2875 C2874 1.363 . S
C2875 C2881 1.363 . S
C2876 C2877 1.363 . S
C2876 C2881 1.379 . S
C2876 N2883 1.356 . S
C2877 C2876 1.363 . S
C2877 C2880 1.363 . S
N2878 C2880 1.356 . S
N2878 H2890 0.984 . S
N2878 H2891 0.985 . S
N2879 C2881 1.356 . S
N2879 H2884 0.984 . S
N2879 H2885 0.985 . S
C2880 C2874 1.379 . S
C2880 C2877 1.363 . S
C2880 N2878 1.356 . S
C2881 C2875 1.363 . S
C2881 C2876 1.379 . S
C2881 N2879 1.356 . S
N2882 C2874 1.356 . S
N2882 H2888 0.984 . S
N2882 H2889 0.984 . S
N2883 C2876 1.356 . S
N2883 H2886 0.984 . S
N2883 H2887 0.985 . S
H2884 N2879 0.984 . S
H2885 N2879 0.985 . S
H2886 N2883 0.984 . S
H2887 N2883 0.985 . S
H2888 N2882 0.984 . S
H2889 N2882 0.984 . S
H2890 N2878 0.984 . S
H2891 N2878 0.985 . S
C2892 C2893 1.363 . S
C2892 C2898 1.379 . S
C2892 N2900 1.356 . S
C2893 C2892 1.363 . S
C2893 C2899 1.363 . S
C2894 C2895 1.363 . S
C2894 C2899 1.379 . S
C2894 N2901 1.356 . S
C2895 C2894 1.363 . S
C2895 C2898 1.363 . S
N2896 C2898 1.356 . S
N2896 H2908 0.984 . S
N2896 H2909 0.985 . S
N2897 C2899 1.356 . S
N2897 H2902 0.984 . S
N2897 H2903 0.985 . S
C2898 C2892 1.379 . S
C2898 C2895 1.363 . S
C2898 N2896 1.356 . S
C2899 C2893 1.363 . S
C2899 C2894 1.379 . S
C2899 N2897 1.356 . S
N2900 C2892 1.356 . S
N2900 H2906 0.984 . S
N2900 H2907 0.984 . S
N2901 C2894 1.356 . S
N2901 H2904 0.984 . S
N2901 H2905 0.985 . S
H2902 N2897 0.984 . S
H2903 N2897 0.985 . S
H2904 N2901 0.984 . S
H2905 N2901 0.985 . S
H2906 N2900 0.984 . S
H2907 N2900 0.984 . S
H2908 N2896 0.984 . S
H2909 N2896 0.985 . S
C2910 C2911 1.363 . S
C2910 C2916 1.379 . S
C2910 N2918 1.356 . S
C2911 C2910 1.363 . S
C2911 C2917 1.363 . S
C2912 C2913 1.363 . S
C2912 C2917 1.379 . S
C2912 N2919 1.356 . S
C2913 C2912 1.363 . S
C2913 C2916 1.363 . S
N2914 C2916 1.356 . S
N2914 H2926 0.984 . S
N2914 H2927 0.985 . S
N2915 C2917 1.356 . S
N2915 H2920 0.984 . S
N2915 H2921 0.985 . S
C2916 C2910 1.379 . S
C2916 C2913 1.363 . S
C2916 N2914 1.356 . S
C2917 C2911 1.363 . S
C2917 C2912 1.379 . S
C2917 N2915 1.356 . S
N2918 C2910 1.356 . S
N2918 H2924 0.984 . S
N2918 H2925 0.984 . S
N2919 C2912 1.356 . S
N2919 H2922 0.984 . S
N2919 H2923 0.985 . S
H2920 N2915 0.984 . S
H2921 N2915 0.985 . S
H2922 N2919 0.984 . S
H2923 N2919 0.985 . S
H2924 N2918 0.984 . S
H2925 N2918 0.984 . S
H2926 N2914 0.984 . S
H2927 N2914 0.985 . S
C2928 C2929 1.363 . S
C2928 C2934 1.379 . S
C2928 N2936 1.356 . S
C2929 C2928 1.363 . S
C2929 C2935 1.363 . S
C2930 C2931 1.363 . S
C2930 C2935 1.379 . S
C2930 N2937 1.356 . S
C2931 C2930 1.363 . S
C2931 C2934 1.363 . S
N2932 C2934 1.356 . S
N2932 H2944 0.984 . S
N2932 H2945 0.985 . S
N2933 C2935 1.356 . S
N2933 H2938 0.984 . S
N2933 H2939 0.985 . S
C2934 C2928 1.379 . S
C2934 C2931 1.363 . S
C2934 N2932 1.356 . S
C2935 C2929 1.363 . S
C2935 C2930 1.379 . S
C2935 N2933 1.356 . S
N2936 C2928 1.356 . S
N2936 H2942 0.984 . S
N2936 H2943 0.984 . S
N2937 C2930 1.356 . S
N2937 H2940 0.984 . S
N2937 H2941 0.985 . S
H2938 N2933 0.984 . S
H2939 N2933 0.985 . S
H2940 N2937 0.984 . S
H2941 N2937 0.985 . S
H2942 N2936 0.984 . S
H2943 N2936 0.984 . S
H2944 N2932 0.984 . S
H2945 N2932 0.985 . S
C2946 C2947 1.363 . S
C2946 C2952 1.379 . S
C2946 N2954 1.356 . S
C2947 C2946 1.363 . S
C2947 C2953 1.363 . S
C2948 C2949 1.363 . S
C2948 C2953 1.379 . S
C2948 N2955 1.356 . S
C2949 C2948 1.363 . S
C2949 C2952 1.363 . S
N2950 C2952 1.356 . S
N2950 H2962 0.984 . S
N2950 H2963 0.985 . S
N2951 C2953 1.356 . S
N2951 H2956 0.984 . S
N2951 H2957 0.985 . S
C2952 C2946 1.379 . S
C2952 C2949 1.363 . S
C2952 N2950 1.356 . S
C2953 C2947 1.363 . S
C2953 C2948 1.379 . S
C2953 N2951 1.356 . S
N2954 C2946 1.356 . S
N2954 H2960 0.984 . S
N2954 H2961 0.984 . S
N2955 C2948 1.356 . S
N2955 H2958 0.984 . S
N2955 H2959 0.985 . S
H2956 N2951 0.984 . S
H2957 N2951 0.985 . S
H2958 N2955 0.984 . S
H2959 N2955 0.985 . S
H2960 N2954 0.984 . S
H2961 N2954 0.984 . S
H2962 N2950 0.984 . S
H2963 N2950 0.985 . S
C2964 C2965 1.363 . S
C2964 C2970 1.379 . S
C2964 N2972 1.356 . S
C2965 C2964 1.363 . S
C2965 C2971 1.363 . S
C2966 C2967 1.363 . S
C2966 C2971 1.379 . S
C2966 N2973 1.356 . S
C2967 C2966 1.363 . S
C2967 C2970 1.363 . S
N2968 C2970 1.356 . S
N2968 H2980 0.984 . S
N2968 H2981 0.985 . S
N2969 C2971 1.356 . S
N2969 H2974 0.984 . S
N2969 H2975 0.985 . S
C2970 C2964 1.379 . S
C2970 C2967 1.363 . S
C2970 N2968 1.356 . S
C2971 C2965 1.363 . S
C2971 C2966 1.379 . S
C2971 N2969 1.356 . S
N2972 C2964 1.356 . S
N2972 H2978 0.984 . S
N2972 H2979 0.984 . S
N2973 C2966 1.356 . S
N2973 H2976 0.984 . S
N2973 H2977 0.985 . S
H2974 N2969 0.984 . S
H2975 N2969 0.985 . S
H2976 N2973 0.984 . S
H2977 N2973 0.985 . S
H2978 N2972 0.984 . S
H2979 N2972 0.984 . S
H2980 N2968 0.984 . S
H2981 N2968 0.985 . S
C2982 C2983 1.363 . S
C2982 C2988 1.379 . S
C2982 N2990 1.356 . S
C2983 C2982 1.363 . S
C2983 C2989 1.363 . S
C2984 C2985 1.363 . S
C2984 C2989 1.379 . S
C2984 N2991 1.356 . S
C2985 C2984 1.363 . S
C2985 C2988 1.363 . S
N2986 C2988 1.356 . S
N2986 H2998 0.984 . S
N2986 H2999 0.985 . S
N2987 C2989 1.356 . S
N2987 H2992 0.984 . S
N2987 H2993 0.985 . S
C2988 C2982 1.379 . S
C2988 C2985 1.363 . S
C2988 N2986 1.356 . S
C2989 C2983 1.363 . S
C2989 C2984 1.379 . S
C2989 N2987 1.356 . S
N2990 C2982 1.356 . S
N2990 H2996 0.984 . S
N2990 H2997 0.984 . S
N2991 C2984 1.356 . S
N2991 H2994 0.984 . S
N2991 H2995 0.985 . S
H2992 N2987 0.984 . S
H2993 N2987 0.985 . S
H2994 N2991 0.984 . S
H2995 N2991 0.985 . S
H2996 N2990 0.984 . S
H2997 N2990 0.984 . S
H2998 N2986 0.984 . S
H2999 N2986 0.985 . S
C3000 C3001 1.363 . S
C3000 C3006 1.379 . S
C3000 N3008 1.356 . S
C3001 C3000 1.363 . S
C3001 C3007 1.363 . S
C3002 C3003 1.363 . S
C3002 C3007 1.379 . S
C3002 N3009 1.356 . S
C3003 C3002 1.363 . S
C3003 C3006 1.363 . S
N3004 C3006 1.356 . S
N3004 H3016 0.984 . S
N3004 H3017 0.985 . S
N3005 C3007 1.356 . S
N3005 H3010 0.984 . S
N3005 H3011 0.985 . S
C3006 C3000 1.379 . S
C3006 C3003 1.363 . S
C3006 N3004 1.356 . S
C3007 C3001 1.363 . S
C3007 C3002 1.379 . S
C3007 N3005 1.356 . S
N3008 C3000 1.356 . S
N3008 H3014 0.984 . S
N3008 H3015 0.984 . S
N3009 C3002 1.356 . S
N3009 H3012 0.984 . S
N3009 H3013 0.985 . S
H3010 N3005 0.984 . S
H3011 N3005 0.985 . S
H3012 N3009 0.984 . S
H3013 N3009 0.985 . S
H3014 N3008 0.984 . S
H3015 N3008 0.984 . S
H3016 N3004 0.984 . S
H3017 N3004 0.985 . S
C3018 C3019 1.363 . S
C3018 C3024 1.379 . S
C3018 N3026 1.356 . S
C3019 C3018 1.363 . S
C3019 C3025 1.363 . S
C3020 C3021 1.363 . S
C3020 C3025 1.379 . S
C3020 N3027 1.356 . S
C3021 C3020 1.363 . S
C3021 C3024 1.363 . S
N3022 C3024 1.356 . S
N3022 H3034 0.984 . S
N3022 H3035 0.985 . S
N3023 C3025 1.356 . S
N3023 H3028 0.984 . S
N3023 H3029 0.985 . S
C3024 C3018 1.379 . S
C3024 C3021 1.363 . S
C3024 N3022 1.356 . S
C3025 C3019 1.363 . S
C3025 C3020 1.379 . S
C3025 N3023 1.356 . S
N3026 C3018 1.356 . S
N3026 H3032 0.984 . S
N3026 H3033 0.984 . S
N3027 C3020 1.356 . S
N3027 H3030 0.984 . S
N3027 H3031 0.985 . S
H3028 N3023 0.984 . S
H3029 N3023 0.985 . S
H3030 N3027 0.984 . S
H3031 N3027 0.985 . S
H3032 N3026 0.984 . S
H3033 N3026 0.984 . S
H3034 N3022 0.984 . S
H3035 N3022 0.985 . S
C3036 C3037 1.363 . S
C3036 C3042 1.379 . S
C3036 N3044 1.356 . S
C3037 C3036 1.363 . S
C3037 C3043 1.363 . S
C3038 C3039 1.363 . S
C3038 C3043 1.379 . S
C3038 N3045 1.356 . S
C3039 C3038 1.363 . S
C3039 C3042 1.363 . S
N3040 C3042 1.356 . S
N3040 H3052 0.984 . S
N3040 H3053 0.985 . S
N3041 C3043 1.356 . S
N3041 H3046 0.984 . S
N3041 H3047 0.985 . S
C3042 C3036 1.379 . S
C3042 C3039 1.363 . S
C3042 N3040 1.356 . S
C3043 C3037 1.363 . S
C3043 C3038 1.379 . S
C3043 N3041 1.356 . S
N3044 C3036 1.356 . S
N3044 H3050 0.984 . S
N3044 H3051 0.984 . S
N3045 C3038 1.356 . S
N3045 H3048 0.984 . S
N3045 H3049 0.985 . S
H3046 N3041 0.984 . S
H3047 N3041 0.985 . S
H3048 N3045 0.984 . S
H3049 N3045 0.985 . S
H3050 N3044 0.984 . S
H3051 N3044 0.984 . S
H3052 N3040 0.984 . S
H3053 N3040 0.985 . S
C3054 C3055 1.363 . S
C3054 C3060 1.379 . S
C3054 N3062 1.356 . S
C3055 C3054 1.363 . S
C3055 C3061 1.363 . S
C3056 C3057 1.363 . S
C3056 C3061 1.379 . S
C3056 N3063 1.356 . S
C3057 C3056 1.363 . S
C3057 C3060 1.363 . S
N3058 C3060 1.356 . S
N3058 H3070 0.984 . S
N3058 H3071 0.985 . S
N3059 C3061 1.356 . S
N3059 H3064 0.984 . S
N3059 H3065 0.985 . S
C3060 C3054 1.379 . S
C3060 C3057 1.363 . S
C3060 N3058 1.356 . S
C3061 C3055 1.363 . S
C3061 C3056 1.379 . S
C3061 N3059 1.356 . S
N3062 C3054 1.356 . S
N3062 H3068 0.984 . S
N3062 H3069 0.984 . S
N3063 C3056 1.356 . S
N3063 H3066 0.984 . S
N3063 H3067 0.985 . S
H3064 N3059 0.984 . S
H3065 N3059 0.985 . S
H3066 N3063 0.984 . S
H3067 N3063 0.985 . S
H3068 N3062 0.984 . S
H3069 N3062 0.984 . S
H3070 N3058 0.984 . S
H3071 N3058 0.985 . S
C3072 C3073 1.363 . S
C3072 C3078 1.379 . S
C3072 N3080 1.356 . S
C3073 C3072 1.363 . S
C3073 C3079 1.363 . S
C3074 C3075 1.363 . S
C3074 C3079 1.379 . S
C3074 N3081 1.356 . S
C3075 C3074 1.363 . S
C3075 C3078 1.363 . S
N3076 C3078 1.356 . S
N3076 H3088 0.984 . S
N3076 H3089 0.985 . S
N3077 C3079 1.356 . S
N3077 H3082 0.984 . S
N3077 H3083 0.985 . S
C3078 C3072 1.379 . S
C3078 C3075 1.363 . S
C3078 N3076 1.356 . S
C3079 C3073 1.363 . S
C3079 C3074 1.379 . S
C3079 N3077 1.356 . S
N3080 C3072 1.356 . S
N3080 H3086 0.984 . S
N3080 H3087 0.984 . S
N3081 C3074 1.356 . S
N3081 H3084 0.984 . S
N3081 H3085 0.985 . S
H3082 N3077 0.984 . S
H3083 N3077 0.985 . S
H3084 N3081 0.984 . S
H3085 N3081 0.985 . S
H3086 N3080 0.984 . S
H3087 N3080 0.984 . S
H3088 N3076 0.984 . S
H3089 N3076 0.985 . S
C3090 C3091 1.363 . S
C3090 C3096 1.379 . S
C3090 N3098 1.356 . S
C3091 C3090 1.363 . S
C3091 C3097 1.363 . S
C3092 C3093 1.363 . S
C3092 C3097 1.379 . S
C3092 N3099 1.356 . S
C3093 C3092 1.363 . S
C3093 C3096 1.363 . S
N3094 C3096 1.356 . S
N3094 H3106 0.984 . S
N3094 H3107 0.985 . S
N3095 C3097 1.356 . S
N3095 H3100 0.984 . S
N3095 H3101 0.985 . S
C3096 C3090 1.379 . S
C3096 C3093 1.363 . S
C3096 N3094 1.356 . S
C3097 C3091 1.363 . S
C3097 C3092 1.379 . S
C3097 N3095 1.356 . S
N3098 C3090 1.356 . S
N3098 H3104 0.984 . S
N3098 H3105 0.984 . S
N3099 C3092 1.356 . S
N3099 H3102 0.984 . S
N3099 H3103 0.985 . S
H3100 N3095 0.984 . S
H3101 N3095 0.985 . S
H3102 N3099 0.984 . S
H3103 N3099 0.985 . S
H3104 N3098 0.984 . S
H3105 N3098 0.984 . S
H3106 N3094 0.984 . S
H3107 N3094 0.985 . S
C3108 C3109 1.363 . S
C3108 C3114 1.379 . S
C3108 N3116 1.356 . S
C3109 C3108 1.363 . S
C3109 C3115 1.363 . S
C3110 C3111 1.363 . S
C3110 C3115 1.379 . S
C3110 N3117 1.356 . S
C3111 C3110 1.363 . S
C3111 C3114 1.363 . S
N3112 C3114 1.356 . S
N3112 H3124 0.984 . S
N3112 H3125 0.985 . S
N3113 C3115 1.356 . S
N3113 H3118 0.984 . S
N3113 H3119 0.985 . S
C3114 C3108 1.379 . S
C3114 C3111 1.363 . S
C3114 N3112 1.356 . S
C3115 C3109 1.363 . S
C3115 C3110 1.379 . S
C3115 N3113 1.356 . S
N3116 C3108 1.356 . S
N3116 H3122 0.984 . S
N3116 H3123 0.984 . S
N3117 C3110 1.356 . S
N3117 H3120 0.984 . S
N3117 H3121 0.985 . S
H3118 N3113 0.984 . S
H3119 N3113 0.985 . S
H3120 N3117 0.984 . S
H3121 N3117 0.985 . S
H3122 N3116 0.984 . S
H3123 N3116 0.984 . S
H3124 N3112 0.984 . S
H3125 N3112 0.985 . S
C3126 C3127 1.363 . S
C3126 C3132 1.379 . S
C3126 N3134 1.356 . S
C3127 C3126 1.363 . S
C3127 C3133 1.363 . S
C3128 C3129 1.363 . S
C3128 C3133 1.379 . S
C3128 N3135 1.356 . S
C3129 C3128 1.363 . S
C3129 C3132 1.363 . S
N3130 C3132 1.356 . S
N3130 H3142 0.984 . S
N3130 H3143 0.985 . S
N3131 C3133 1.356 . S
N3131 H3136 0.984 . S
N3131 H3137 0.985 . S
C3132 C3126 1.379 . S
C3132 C3129 1.363 . S
C3132 N3130 1.356 . S
C3133 C3127 1.363 . S
C3133 C3128 1.379 . S
C3133 N3131 1.356 . S
N3134 C3126 1.356 . S
N3134 H3140 0.984 . S
N3134 H3141 0.984 . S
N3135 C3128 1.356 . S
N3135 H3138 0.984 . S
N3135 H3139 0.985 . S
H3136 N3131 0.984 . S
H3137 N3131 0.985 . S
H3138 N3135 0.984 . S
H3139 N3135 0.985 . S
H3140 N3134 0.984 . S
H3141 N3134 0.984 . S
H3142 N3130 0.984 . S
H3143 N3130 0.985 . S
C3144 C3145 1.363 . S
C3144 C3150 1.379 . S
C3144 N3152 1.356 . S
C3145 C3144 1.363 . S
C3145 C3151 1.363 . S
C3146 C3147 1.363 . S
C3146 C3151 1.379 . S
C3146 N3153 1.356 . S
C3147 C3146 1.363 . S
C3147 C3150 1.363 . S
N3148 C3150 1.356 . S
N3148 H3160 0.984 . S
N3148 H3161 0.985 . S
N3149 C3151 1.356 . S
N3149 H3154 0.984 . S
N3149 H3155 0.985 . S
C3150 C3144 1.379 . S
C3150 C3147 1.363 . S
C3150 N3148 1.356 . S
C3151 C3145 1.363 . S
C3151 C3146 1.379 . S
C3151 N3149 1.356 . S
N3152 C3144 1.356 . S
N3152 H3158 0.984 . S
N3152 H3159 0.984 . S
N3153 C3146 1.356 . S
N3153 H3156 0.984 . S
N3153 H3157 0.985 . S
H3154 N3149 0.984 . S
H3155 N3149 0.985 . S
H3156 N3153 0.984 . S
H3157 N3153 0.985 . S
H3158 N3152 0.984 . S
H3159 N3152 0.984 . S
H3160 N3148 0.984 . S
H3161 N3148 0.985 . S
C3162 C3163 1.363 . S
C3162 C3168 1.379 . S
C3162 N3170 1.356 . S
C3163 C3162 1.363 . S
C3163 C3169 1.363 . S
C3164 C3165 1.363 . S
C3164 C3169 1.379 . S
C3164 N3171 1.356 . S
C3165 C3164 1.363 . S
C3165 C3168 1.363 . S
N3166 C3168 1.356 . S
N3166 H3178 0.984 . S
N3166 H3179 0.985 . S
N3167 C3169 1.356 . S
N3167 H3172 0.984 . S
N3167 H3173 0.985 . S
C3168 C3162 1.379 . S
C3168 C3165 1.363 . S
C3168 N3166 1.356 . S
C3169 C3163 1.363 . S
C3169 C3164 1.379 . S
C3169 N3167 1.356 . S
N3170 C3162 1.356 . S
N3170 H3176 0.984 . S
N3170 H3177 0.984 . S
N3171 C3164 1.356 . S
N3171 H3174 0.984 . S
N3171 H3175 0.985 . S
H3172 N3167 0.984 . S
H3173 N3167 0.985 . S
H3174 N3171 0.984 . S
H3175 N3171 0.985 . S
H3176 N3170 0.984 . S
H3177 N3170 0.984 . S
H3178 N3166 0.984 . S
H3179 N3166 0.985 . S
C3180 C3181 1.363 . S
C3180 C3186 1.379 . S
C3180 N3188 1.356 . S
C3181 C3180 1.363 . S
C3181 C3187 1.363 . S
C3182 C3183 1.363 . S
C3182 C3187 1.379 . S
C3182 N3189 1.356 . S
C3183 C3182 1.363 . S
C3183 C3186 1.363 . S
N3184 C3186 1.356 . S
N3184 H3196 0.984 . S
N3184 H3197 0.985 . S
N3185 C3187 1.356 . S
N3185 H3190 0.984 . S
N3185 H3191 0.985 . S
C3186 C3180 1.379 . S
C3186 C3183 1.363 . S
C3186 N3184 1.356 . S
C3187 C3181 1.363 . S
C3187 C3182 1.379 . S
C3187 N3185 1.356 . S
N3188 C3180 1.356 . S
N3188 H3194 0.984 . S
N3188 H3195 0.984 . S
N3189 C3182 1.356 . S
N3189 H3192 0.984 . S
N3189 H3193 0.985 . S
H3190 N3185 0.984 . S
H3191 N3185 0.985 . S
H3192 N3189 0.984 . S
H3193 N3189 0.985 . S
H3194 N3188 0.984 . S
H3195 N3188 0.984 . S
H3196 N3184 0.984 . S
H3197 N3184 0.985 . S
C3198 C3199 1.363 . S
C3198 C3204 1.379 . S
C3198 N3206 1.356 . S
C3199 C3198 1.363 . S
C3199 C3205 1.363 . S
C3200 C3201 1.363 . S
C3200 C3205 1.379 . S
C3200 N3207 1.356 . S
C3201 C3200 1.363 . S
C3201 C3204 1.363 . S
N3202 C3204 1.356 . S
N3202 H3214 0.984 . S
N3202 H3215 0.985 . S
N3203 C3205 1.356 . S
N3203 H3208 0.984 . S
N3203 H3209 0.985 . S
C3204 C3198 1.379 . S
C3204 C3201 1.363 . S
C3204 N3202 1.356 . S
C3205 C3199 1.363 . S
C3205 C3200 1.379 . S
C3205 N3203 1.356 . S
N3206 C3198 1.356 . S
N3206 H3212 0.984 . S
N3206 H3213 0.984 . S
N3207 C3200 1.356 . S
N3207 H3210 0.984 . S
N3207 H3211 0.985 . S
H3208 N3203 0.984 . S
H3209 N3203 0.985 . S
H3210 N3207 0.984 . S
H3211 N3207 0.985 . S
H3212 N3206 0.984 . S
H3213 N3206 0.984 . S
H3214 N3202 0.984 . S
H3215 N3202 0.985 . S
C3216 C3217 1.363 . S
C3216 C3222 1.379 . S
C3216 N3224 1.356 . S
C3217 C3216 1.363 . S
C3217 C3223 1.363 . S
C3218 C3219 1.363 . S
C3218 C3223 1.379 . S
C3218 N3225 1.356 . S
C3219 C3218 1.363 . S
C3219 C3222 1.363 . S
N3220 C3222 1.356 . S
N3220 H3232 0.984 . S
N3220 H3233 0.985 . S
N3221 C3223 1.356 . S
N3221 H3226 0.984 . S
N3221 H3227 0.985 . S
C3222 C3216 1.379 . S
C3222 C3219 1.363 . S
C3222 N3220 1.356 . S
C3223 C3217 1.363 . S
C3223 C3218 1.379 . S
C3223 N3221 1.356 . S
N3224 C3216 1.356 . S
N3224 H3230 0.984 . S
N3224 H3231 0.984 . S
N3225 C3218 1.356 . S
N3225 H3228 0.984 . S
N3225 H3229 0.985 . S
H3226 N3221 0.984 . S
H3227 N3221 0.985 . S
H3228 N3225 0.984 . S
H3229 N3225 0.985 . S
H3230 N3224 0.984 . S
H3231 N3224 0.984 . S
H3232 N3220 0.984 . S
H3233 N3220 0.985 . S
C3234 C3235 1.363 . S
C3234 C3240 1.379 . S
C3234 N3242 1.356 . S
C3235 C3234 1.363 . S
C3235 C3241 1.363 . S
C3236 C3237 1.363 . S
C3236 C3241 1.379 . S
C3236 N3243 1.356 . S
C3237 C3236 1.363 . S
C3237 C3240 1.363 . S
N3238 C3240 1.356 . S
N3238 H3250 0.984 . S
N3238 H3251 0.985 . S
N3239 C3241 1.356 . S
N3239 H3244 0.984 . S
N3239 H3245 0.985 . S
C3240 C3234 1.379 . S
C3240 C3237 1.363 . S
C3240 N3238 1.356 . S
C3241 C3235 1.363 . S
C3241 C3236 1.379 . S
C3241 N3239 1.356 . S
N3242 C3234 1.356 . S
N3242 H3248 0.984 . S
N3242 H3249 0.984 . S
N3243 C3236 1.356 . S
N3243 H3246 0.984 . S
N3243 H3247 0.985 . S
H3244 N3239 0.984 . S
H3245 N3239 0.985 . S
H3246 N3243 0.984 . S
H3247 N3243 0.985 . S
H3248 N3242 0.984 . S
H3249 N3242 0.984 . S
H3250 N3238 0.984 . S
H3251 N3238 0.985 . S
C3252 C3253 1.363 . S
C3252 C3258 1.379 . S
C3252 N3260 1.356 . S
C3253 C3252 1.363 . S
C3253 C3259 1.363 . S
C3254 C3255 1.363 . S
C3254 C3259 1.379 . S
C3254 N3261 1.356 . S
C3255 C3254 1.363 . S
C3255 C3258 1.363 . S
N3256 C3258 1.356 . S
N3256 H3268 0.984 . S
N3256 H3269 0.985 . S
N3257 C3259 1.356 . S
N3257 H3262 0.984 . S
N3257 H3263 0.985 . S
C3258 C3252 1.379 . S
C3258 C3255 1.363 . S
C3258 N3256 1.356 . S
C3259 C3253 1.363 . S
C3259 C3254 1.379 . S
C3259 N3257 1.356 . S
N3260 C3252 1.356 . S
N3260 H3266 0.984 . S
N3260 H3267 0.984 . S
N3261 C3254 1.356 . S
N3261 H3264 0.984 . S
N3261 H3265 0.985 . S
H3262 N3257 0.984 . S
H3263 N3257 0.985 . S
H3264 N3261 0.984 . S
H3265 N3261 0.985 . S
H3266 N3260 0.984 . S
H3267 N3260 0.984 . S
H3268 N3256 0.984 . S
H3269 N3256 0.985 . S
C3270 C3271 1.363 . S
C3270 C3276 1.379 . S
C3270 N3278 1.356 . S
C3271 C3270 1.363 . S
C3271 C3277 1.363 . S
C3272 C3273 1.363 . S
C3272 C3277 1.379 . S
C3272 N3279 1.356 . S
C3273 C3272 1.363 . S
C3273 C3276 1.363 . S
N3274 C3276 1.356 . S
N3274 H3286 0.984 . S
N3274 H3287 0.985 . S
N3275 C3277 1.356 . S
N3275 H3280 0.984 . S
N3275 H3281 0.985 . S
C3276 C3270 1.379 . S
C3276 C3273 1.363 . S
C3276 N3274 1.356 . S
C3277 C3271 1.363 . S
C3277 C3272 1.379 . S
C3277 N3275 1.356 . S
N3278 C3270 1.356 . S
N3278 H3284 0.984 . S
N3278 H3285 0.984 . S
N3279 C3272 1.356 . S
N3279 H3282 0.984 . S
N3279 H3283 0.985 . S
H3280 N3275 0.984 . S
H3281 N3275 0.985 . S
H3282 N3279 0.984 . S
H3283 N3279 0.985 . S
H3284 N3278 0.984 . S
H3285 N3278 0.984 . S
H3286 N3274 0.984 . S
H3287 N3274 0.985 . S
C3288 C3289 1.363 . S
C3288 C3294 1.379 . S
C3288 N3296 1.356 . S
C3289 C3288 1.363 . S
C3289 C3295 1.363 . S
C3290 C3291 1.363 . S
C3290 C3295 1.379 . S
C3290 N3297 1.356 . S
C3291 C3290 1.363 . S
C3291 C3294 1.363 . S
N3292 C3294 1.356 . S
N3292 H3304 0.984 . S
N3292 H3305 0.985 . S
N3293 C3295 1.356 . S
N3293 H3298 0.984 . S
N3293 H3299 0.985 . S
C3294 C3288 1.379 . S
C3294 C3291 1.363 . S
C3294 N3292 1.356 . S
C3295 C3289 1.363 . S
C3295 C3290 1.379 . S
C3295 N3293 1.356 . S
N3296 C3288 1.356 . S
N3296 H3302 0.984 . S
N3296 H3303 0.984 . S
N3297 C3290 1.356 . S
N3297 H3300 0.984 . S
N3297 H3301 0.985 . S
H3298 N3293 0.984 . S
H3299 N3293 0.985 . S
H3300 N3297 0.984 . S
H3301 N3297 0.985 . S
H3302 N3296 0.984 . S
H3303 N3296 0.984 . S
H3304 N3292 0.984 . S
H3305 N3292 0.985 . S
C3306 C3307 1.363 . S
C3306 C3312 1.379 . S
C3306 N3314 1.356 . S
C3307 C3306 1.363 . S
C3307 C3313 1.363 . S
C3308 C3309 1.363 . S
C3308 C3313 1.379 . S
C3308 N3315 1.356 . S
C3309 C3308 1.363 . S
C3309 C3312 1.363 . S
N3310 C3312 1.356 . S
N3310 H3322 0.984 . S
N3310 H3323 0.985 . S
N3311 C3313 1.356 . S
N3311 H3316 0.984 . S
N3311 H3317 0.985 . S
C3312 C3306 1.379 . S
C3312 C3309 1.363 . S
C3312 N3310 1.356 . S
C3313 C3307 1.363 . S
C3313 C3308 1.379 . S
C3313 N3311 1.356 . S
N3314 C3306 1.356 . S
N3314 H3320 0.984 . S
N3314 H3321 0.984 . S
N3315 C3308 1.356 . S
N3315 H3318 0.984 . S
N3315 H3319 0.985 . S
H3316 N3311 0.984 . S
H3317 N3311 0.985 . S
H3318 N3315 0.984 . S
H3319 N3315 0.985 . S
H3320 N3314 0.984 . S
H3321 N3314 0.984 . S
H3322 N3310 0.984 . S
H3323 N3310 0.985 . S
C3324 C3325 1.363 . S
C3324 C3330 1.379 . S
C3324 N3332 1.356 . S
C3325 C3324 1.363 . S
C3325 C3331 1.363 . S
C3326 C3327 1.363 . S
C3326 C3331 1.379 . S
C3326 N3333 1.356 . S
C3327 C3326 1.363 . S
C3327 C3330 1.363 . S
N3328 C3330 1.356 . S
N3328 H3340 0.984 . S
N3328 H3341 0.985 . S
N3329 C3331 1.356 . S
N3329 H3334 0.984 . S
N3329 H3335 0.985 . S
C3330 C3324 1.379 . S
C3330 C3327 1.363 . S
C3330 N3328 1.356 . S
C3331 C3325 1.363 . S
C3331 C3326 1.379 . S
C3331 N3329 1.356 . S
N3332 C3324 1.356 . S
N3332 H3338 0.984 . S
N3332 H3339 0.984 . S
N3333 C3326 1.356 . S
N3333 H3336 0.984 . S
N3333 H3337 0.985 . S
H3334 N3329 0.984 . S
H3335 N3329 0.985 . S
H3336 N3333 0.984 . S
H3337 N3333 0.985 . S
H3338 N3332 0.984 . S
H3339 N3332 0.984 . S
H3340 N3328 0.984 . S
H3341 N3328 0.985 . S
C3342 C3343 1.363 . S
C3342 C3348 1.379 . S
C3342 N3350 1.356 . S
C3343 C3342 1.363 . S
C3343 C3349 1.363 . S
C3344 C3345 1.363 . S
C3344 C3349 1.379 . S
C3344 N3351 1.356 . S
C3345 C3344 1.363 . S
C3345 C3348 1.363 . S
N3346 C3348 1.356 . S
N3346 H3358 0.984 . S
N3346 H3359 0.985 . S
N3347 C3349 1.356 . S
N3347 H3352 0.984 . S
N3347 H3353 0.985 . S
C3348 C3342 1.379 . S
C3348 C3345 1.363 . S
C3348 N3346 1.356 . S
C3349 C3343 1.363 . S
C3349 C3344 1.379 . S
C3349 N3347 1.356 . S
N3350 C3342 1.356 . S
N3350 H3356 0.984 . S
N3350 H3357 0.984 . S
N3351 C3344 1.356 . S
N3351 H3354 0.984 . S
N3351 H3355 0.985 . S
H3352 N3347 0.984 . S
H3353 N3347 0.985 . S
H3354 N3351 0.984 . S
H3355 N3351 0.985 . S
H3356 N3350 0.984 . S
H3357 N3350 0.984 . S
H3358 N3346 0.984 . S
H3359 N3346 0.985 . S
C3360 C3361 1.363 . S
C3360 C3366 1.379 . S
C3360 N3368 1.356 . S
C3361 C3360 1.363 . S
C3361 C3367 1.363 . S
C3362 C3363 1.363 . S
C3362 C3367 1.379 . S
C3362 N3369 1.356 . S
C3363 C3362 1.363 . S
C3363 C3366 1.363 . S
N3364 C3366 1.356 . S
N3364 H3376 0.984 . S
N3364 H3377 0.985 . S
N3365 C3367 1.356 . S
N3365 H3370 0.984 . S
N3365 H3371 0.985 . S
C3366 C3360 1.379 . S
C3366 C3363 1.363 . S
C3366 N3364 1.356 . S
C3367 C3361 1.363 . S
C3367 C3362 1.379 . S
C3367 N3365 1.356 . S
N3368 C3360 1.356 . S
N3368 H3374 0.984 . S
N3368 H3375 0.984 . S
N3369 C3362 1.356 . S
N3369 H3372 0.984 . S
N3369 H3373 0.985 . S
H3370 N3365 0.984 . S
H3371 N3365 0.985 . S
H3372 N3369 0.984 . S
H3373 N3369 0.985 . S
H3374 N3368 0.984 . S
H3375 N3368 0.984 . S
H3376 N3364 0.984 . S
H3377 N3364 0.985 . S
C3378 C3379 1.363 . S
C3378 C3384 1.379 . S
C3378 N3386 1.356 . S
C3379 C3378 1.363 . S
C3379 C3385 1.363 . S
C3380 C3381 1.363 . S
C3380 C3385 1.379 . S
C3380 N3387 1.356 . S
C3381 C3380 1.363 . S
C3381 C3384 1.363 . S
N3382 C3384 1.356 . S
N3382 H3394 0.984 . S
N3382 H3395 0.985 . S
N3383 C3385 1.356 . S
N3383 H3388 0.984 . S
N3383 H3389 0.985 . S
C3384 C3378 1.379 . S
C3384 C3381 1.363 . S
C3384 N3382 1.356 . S
C3385 C3379 1.363 . S
C3385 C3380 1.379 . S
C3385 N3383 1.356 . S
N3386 C3378 1.356 . S
N3386 H3392 0.984 . S
N3386 H3393 0.984 . S
N3387 C3380 1.356 . S
N3387 H3390 0.984 . S
N3387 H3391 0.985 . S
H3388 N3383 0.984 . S
H3389 N3383 0.985 . S
H3390 N3387 0.984 . S
H3391 N3387 0.985 . S
H3392 N3386 0.984 . S
H3393 N3386 0.984 . S
H3394 N3382 0.984 . S
H3395 N3382 0.985 . S
C3396 C3397 1.363 . S
C3396 C3402 1.379 . S
C3396 N3404 1.356 . S
C3397 C3396 1.363 . S
C3397 C3403 1.363 . S
C3398 C3399 1.363 . S
C3398 C3403 1.379 . S
C3398 N3405 1.356 . S
C3399 C3398 1.363 . S
C3399 C3402 1.363 . S
N3400 C3402 1.356 . S
N3400 H3412 0.984 . S
N3400 H3413 0.985 . S
N3401 C3403 1.356 . S
N3401 H3406 0.984 . S
N3401 H3407 0.985 . S
C3402 C3396 1.379 . S
C3402 C3399 1.363 . S
C3402 N3400 1.356 . S
C3403 C3397 1.363 . S
C3403 C3398 1.379 . S
C3403 N3401 1.356 . S
N3404 C3396 1.356 . S
N3404 H3410 0.984 . S
N3404 H3411 0.984 . S
N3405 C3398 1.356 . S
N3405 H3408 0.984 . S
N3405 H3409 0.985 . S
H3406 N3401 0.984 . S
H3407 N3401 0.985 . S
H3408 N3405 0.984 . S
H3409 N3405 0.985 . S
H3410 N3404 0.984 . S
H3411 N3404 0.984 . S
H3412 N3400 0.984 . S
H3413 N3400 0.985 . S
C3414 C3415 1.363 . S
C3414 C3420 1.379 . S
C3414 N3422 1.356 . S
C3415 C3414 1.363 . S
C3415 C3421 1.363 . S
C3416 C3417 1.363 . S
C3416 C3421 1.379 . S
C3416 N3423 1.356 . S
C3417 C3416 1.363 . S
C3417 C3420 1.363 . S
N3418 C3420 1.356 . S
N3418 H3430 0.984 . S
N3418 H3431 0.985 . S
N3419 C3421 1.356 . S
N3419 H3424 0.984 . S
N3419 H3425 0.985 . S
C3420 C3414 1.379 . S
C3420 C3417 1.363 . S
C3420 N3418 1.356 . S
C3421 C3415 1.363 . S
C3421 C3416 1.379 . S
C3421 N3419 1.356 . S
N3422 C3414 1.356 . S
N3422 H3428 0.984 . S
N3422 H3429 0.984 . S
N3423 C3416 1.356 . S
N3423 H3426 0.984 . S
N3423 H3427 0.985 . S
H3424 N3419 0.984 . S
H3425 N3419 0.985 . S
H3426 N3423 0.984 . S
H3427 N3423 0.985 . S
H3428 N3422 0.984 . S
H3429 N3422 0.984 . S
H3430 N3418 0.984 . S
H3431 N3418 0.985 . S
C3432 C3433 1.363 . S
C3432 C3438 1.379 . S
C3432 N3440 1.356 . S
C3433 C3432 1.363 . S
C3433 C3439 1.363 . S
C3434 C3435 1.363 . S
C3434 C3439 1.379 . S
C3434 N3441 1.356 . S
C3435 C3434 1.363 . S
C3435 C3438 1.363 . S
N3436 C3438 1.356 . S
N3436 H3448 0.984 . S
N3436 H3449 0.985 . S
N3437 C3439 1.356 . S
N3437 H3442 0.984 . S
N3437 H3443 0.985 . S
C3438 C3432 1.379 . S
C3438 C3435 1.363 . S
C3438 N3436 1.356 . S
C3439 C3433 1.363 . S
C3439 C3434 1.379 . S
C3439 N3437 1.356 . S
N3440 C3432 1.356 . S
N3440 H3446 0.984 . S
N3440 H3447 0.984 . S
N3441 C3434 1.356 . S
N3441 H3444 0.984 . S
N3441 H3445 0.985 . S
H3442 N3437 0.984 . S
H3443 N3437 0.985 . S
H3444 N3441 0.984 . S
H3445 N3441 0.985 . S
H3446 N3440 0.984 . S
H3447 N3440 0.984 . S
H3448 N3436 0.984 . S
H3449 N3436 0.985 . S
C3450 C3451 1.363 . S
C3450 C3456 1.379 . S
C3450 N3458 1.356 . S
C3451 C3450 1.363 . S
C3451 C3457 1.363 . S
C3452 C3453 1.363 . S
C3452 C3457 1.379 . S
C3452 N3459 1.356 . S
C3453 C3452 1.363 . S
C3453 C3456 1.363 . S
N3454 C3456 1.356 . S
N3454 H3466 0.984 . S
N3454 H3467 0.985 . S
N3455 C3457 1.356 . S
N3455 H3460 0.984 . S
N3455 H3461 0.985 . S
C3456 C3450 1.379 . S
C3456 C3453 1.363 . S
C3456 N3454 1.356 . S
C3457 C3451 1.363 . S
C3457 C3452 1.379 . S
C3457 N3455 1.356 . S
N3458 C3450 1.356 . S
N3458 H3464 0.984 . S
N3458 H3465 0.984 . S
N3459 C3452 1.356 . S
N3459 H3462 0.984 . S
N3459 H3463 0.985 . S
H3460 N3455 0.984 . S
H3461 N3455 0.985 . S
H3462 N3459 0.984 . S
H3463 N3459 0.985 . S
H3464 N3458 0.984 . S
H3465 N3458 0.984 . S
H3466 N3454 0.984 . S
H3467 N3454 0.985 . S
C3468 C3469 1.363 . S
C3468 C3474 1.379 . S
C3468 N3476 1.356 . S
C3469 C3468 1.363 . S
C3469 C3475 1.363 . S
C3470 C3471 1.363 . S
C3470 C3475 1.379 . S
C3470 N3477 1.356 . S
C3471 C3470 1.363 . S
C3471 C3474 1.363 . S
N3472 C3474 1.356 . S
N3472 H3484 0.984 . S
N3472 H3485 0.985 . S
N3473 C3475 1.356 . S
N3473 H3478 0.984 . S
N3473 H3479 0.985 . S
C3474 C3468 1.379 . S
C3474 C3471 1.363 . S
C3474 N3472 1.356 . S
C3475 C3469 1.363 . S
C3475 C3470 1.379 . S
C3475 N3473 1.356 . S
N3476 C3468 1.356 . S
N3476 H3482 0.984 . S
N3476 H3483 0.984 . S
N3477 C3470 1.356 . S
N3477 H3480 0.984 . S
N3477 H3481 0.985 . S
H3478 N3473 0.984 . S
H3479 N3473 0.985 . S
H3480 N3477 0.984 . S
H3481 N3477 0.985 . S
H3482 N3476 0.984 . S
H3483 N3476 0.984 . S
H3484 N3472 0.984 . S
H3485 N3472 0.985 . S
C3486 C3487 1.363 . S
C3486 C3492 1.379 . S
C3486 N3494 1.356 . S
C3487 C3486 1.363 . S
C3487 C3493 1.363 . S
C3488 C3489 1.363 . S
C3488 C3493 1.379 . S
C3488 N3495 1.356 . S
C3489 C3488 1.363 . S
C3489 C3492 1.363 . S
N3490 C3492 1.356 . S
N3490 H3502 0.984 . S
N3490 H3503 0.985 . S
N3491 C3493 1.356 . S
N3491 H3496 0.984 . S
N3491 H3497 0.985 . S
C3492 C3486 1.379 . S
C3492 C3489 1.363 . S
C3492 N3490 1.356 . S
C3493 C3487 1.363 . S
C3493 C3488 1.379 . S
C3493 N3491 1.356 . S
N3494 C3486 1.356 . S
N3494 H3500 0.984 . S
N3494 H3501 0.984 . S
N3495 C3488 1.356 . S
N3495 H3498 0.984 . S
N3495 H3499 0.985 . S
H3496 N3491 0.984 . S
H3497 N3491 0.985 . S
H3498 N3495 0.984 . S
H3499 N3495 0.985 . S
H3500 N3494 0.984 . S
H3501 N3494 0.984 . S
H3502 N3490 0.984 . S
H3503 N3490 0.985 . S
C3504 C3505 1.363 . S
C3504 C3510 1.379 . S
C3504 N3512 1.356 . S
C3505 C3504 1.363 . S
C3505 C3511 1.363 . S
C3506 C3507 1.363 . S
C3506 C3511 1.379 . S
C3506 N3513 1.356 . S
C3507 C3506 1.363 . S
C3507 C3510 1.363 . S
N3508 C3510 1.356 . S
N3508 H3520 0.984 . S
N3508 H3521 0.985 . S
N3509 C3511 1.356 . S
N3509 H3514 0.984 . S
N3509 H3515 0.985 . S
C3510 C3504 1.379 . S
C3510 C3507 1.363 . S
C3510 N3508 1.356 . S
C3511 C3505 1.363 . S
C3511 C3506 1.379 . S
C3511 N3509 1.356 . S
N3512 C3504 1.356 . S
N3512 H3518 0.984 . S
N3512 H3519 0.984 . S
N3513 C3506 1.356 . S
N3513 H3516 0.984 . S
N3513 H3517 0.985 . S
H3514 N3509 0.984 . S
H3515 N3509 0.985 . S
H3516 N3513 0.984 . S
H3517 N3513 0.985 . S
H3518 N3512 0.984 . S
H3519 N3512 0.984 . S
H3520 N3508 0.984 . S
H3521 N3508 0.985 . S
C3522 C3523 1.363 . S
C3522 C3528 1.379 . S
C3522 N3530 1.356 . S
C3523 C3522 1.363 . S
C3523 C3529 1.363 . S
C3524 C3525 1.363 . S
C3524 C3529 1.379 . S
C3524 N3531 1.356 . S
C3525 C3524 1.363 . S
C3525 C3528 1.363 . S
N3526 C3528 1.356 . S
N3526 H3538 0.984 . S
N3526 H3539 0.985 . S
N3527 C3529 1.356 . S
N3527 H3532 0.984 . S
N3527 H3533 0.985 . S
C3528 C3522 1.379 . S
C3528 C3525 1.363 . S
C3528 N3526 1.356 . S
C3529 C3523 1.363 . S
C3529 C3524 1.379 . S
C3529 N3527 1.356 . S
N3530 C3522 1.356 . S
N3530 H3536 0.984 . S
N3530 H3537 0.984 . S
N3531 C3524 1.356 . S
N3531 H3534 0.984 . S
N3531 H3535 0.985 . S
H3532 N3527 0.984 . S
H3533 N3527 0.985 . S
H3534 N3531 0.984 . S
H3535 N3531 0.985 . S
H3536 N3530 0.984 . S
H3537 N3530 0.984 . S
H3538 N3526 0.984 . S
H3539 N3526 0.985 . S
C3540 C3541 1.363 . S
C3540 C3546 1.379 . S
C3540 N3548 1.356 . S
C3541 C3540 1.363 . S
C3541 C3547 1.363 . S
C3542 C3543 1.363 . S
C3542 C3547 1.379 . S
C3542 N3549 1.356 . S
C3543 C3542 1.363 . S
C3543 C3546 1.363 . S
N3544 C3546 1.356 . S
N3544 H3556 0.984 . S
N3544 H3557 0.985 . S
N3545 C3547 1.356 . S
N3545 H3550 0.984 . S
N3545 H3551 0.985 . S
C3546 C3540 1.379 . S
C3546 C3543 1.363 . S
C3546 N3544 1.356 . S
C3547 C3541 1.363 . S
C3547 C3542 1.379 . S
C3547 N3545 1.356 . S
N3548 C3540 1.356 . S
N3548 H3554 0.984 . S
N3548 H3555 0.984 . S
N3549 C3542 1.356 . S
N3549 H3552 0.984 . S
N3549 H3553 0.985 . S
H3550 N3545 0.984 . S
H3551 N3545 0.985 . S
H3552 N3549 0.984 . S
H3553 N3549 0.985 . S
H3554 N3548 0.984 . S
H3555 N3548 0.984 . S
H3556 N3544 0.984 . S
H3557 N3544 0.985 . S
C3558 C3559 1.363 . S
C3558 C3564 1.379 . S
C3558 N3566 1.356 . S
C3559 C3558 1.363 . S
C3559 C3565 1.363 . S
C3560 C3561 1.363 . S
C3560 C3565 1.379 . S
C3560 N3567 1.356 . S
C3561 C3560 1.363 . S
C3561 C3564 1.363 . S
N3562 C3564 1.356 . S
N3562 H3574 0.984 . S
N3562 H3575 0.985 . S
N3563 C3565 1.356 . S
N3563 H3568 0.984 . S
N3563 H3569 0.985 . S
C3564 C3558 1.379 . S
C3564 C3561 1.363 . S
C3564 N3562 1.356 . S
C3565 C3559 1.363 . S
C3565 C3560 1.379 . S
C3565 N3563 1.356 . S
N3566 C3558 1.356 . S
N3566 H3572 0.984 . S
N3566 H3573 0.984 . S
N3567 C3560 1.356 . S
N3567 H3570 0.984 . S
N3567 H3571 0.985 . S
H3568 N3563 0.984 . S
H3569 N3563 0.985 . S
H3570 N3567 0.984 . S
H3571 N3567 0.985 . S
H3572 N3566 0.984 . S
H3573 N3566 0.984 . S
H3574 N3562 0.984 . S
H3575 N3562 0.985 . S
C3576 C3577 1.363 . S
C3576 C3582 1.379 . S
C3576 N3584 1.356 . S
C3577 C3576 1.363 . S
C3577 C3583 1.363 . S
C3578 C3579 1.363 . S
C3578 C3583 1.379 . S
C3578 N3585 1.356 . S
C3579 C3578 1.363 . S
C3579 C3582 1.363 . S
N3580 C3582 1.356 . S
N3580 H3592 0.984 . S
N3580 H3593 0.985 . S
N3581 C3583 1.356 . S
N3581 H3586 0.984 . S
N3581 H3587 0.985 . S
C3582 C3576 1.379 . S
C3582 C3579 1.363 . S
C3582 N3580 1.356 . S
C3583 C3577 1.363 . S
C3583 C3578 1.379 . S
C3583 N3581 1.356 . S
N3584 C3576 1.356 . S
N3584 H3590 0.984 . S
N3584 H3591 0.984 . S
N3585 C3578 1.356 . S
N3585 H3588 0.984 . S
N3585 H3589 0.985 . S
H3586 N3581 0.984 . S
H3587 N3581 0.985 . S
H3588 N3585 0.984 . S
H3589 N3585 0.985 . S
H3590 N3584 0.984 . S
H3591 N3584 0.984 . S
H3592 N3580 0.984 . S
H3593 N3580 0.985 . S
C3594 C3595 1.363 . S
C3594 C3600 1.379 . S
C3594 N3602 1.356 . S
C3595 C3594 1.363 . S
C3595 C3601 1.363 . S
C3596 C3597 1.363 . S
C3596 C3601 1.379 . S
C3596 N3603 1.356 . S
C3597 C3596 1.363 . S
C3597 C3600 1.363 . S
N3598 C3600 1.356 . S
N3598 H3610 0.984 . S
N3598 H3611 0.985 . S
N3599 C3601 1.356 . S
N3599 H3604 0.984 . S
N3599 H3605 0.985 . S
C3600 C3594 1.379 . S
C3600 C3597 1.363 . S
C3600 N3598 1.356 . S
C3601 C3595 1.363 . S
C3601 C3596 1.379 . S
C3601 N3599 1.356 . S
N3602 C3594 1.356 . S
N3602 H3608 0.984 . S
N3602 H3609 0.984 . S
N3603 C3596 1.356 . S
N3603 H3606 0.984 . S
N3603 H3607 0.985 . S
H3604 N3599 0.984 . S
H3605 N3599 0.985 . S
H3606 N3603 0.984 . S
H3607 N3603 0.985 . S
H3608 N3602 0.984 . S
H3609 N3602 0.984 . S
H3610 N3598 0.984 . S
H3611 N3598 0.985 . S
C3612 C3613 1.363 . S
C3612 C3618 1.379 . S
C3612 N3620 1.356 . S
C3613 C3612 1.363 . S
C3613 C3619 1.363 . S
C3614 C3615 1.363 . S
C3614 C3619 1.379 . S
C3614 N3621 1.356 . S
C3615 C3614 1.363 . S
C3615 C3618 1.363 . S
N3616 C3618 1.356 . S
N3616 H3628 0.984 . S
N3616 H3629 0.985 . S
N3617 C3619 1.356 . S
N3617 H3622 0.984 . S
N3617 H3623 0.985 . S
C3618 C3612 1.379 . S
C3618 C3615 1.363 . S
C3618 N3616 1.356 . S
C3619 C3613 1.363 . S
C3619 C3614 1.379 . S
C3619 N3617 1.356 . S
N3620 C3612 1.356 . S
N3620 H3626 0.984 . S
N3620 H3627 0.984 . S
N3621 C3614 1.356 . S
N3621 H3624 0.984 . S
N3621 H3625 0.985 . S
H3622 N3617 0.984 . S
H3623 N3617 0.985 . S
H3624 N3621 0.984 . S
H3625 N3621 0.985 . S
H3626 N3620 0.984 . S
H3627 N3620 0.984 . S
H3628 N3616 0.984 . S
H3629 N3616 0.985 . S
C3630 C3631 1.363 . S
C3630 C3636 1.379 . S
C3630 N3638 1.356 . S
C3631 C3630 1.363 . S
C3631 C3637 1.363 . S
C3632 C3633 1.363 . S
C3632 C3637 1.379 . S
C3632 N3639 1.356 . S
C3633 C3632 1.363 . S
C3633 C3636 1.363 . S
N3634 C3636 1.356 . S
N3634 H3646 0.984 . S
N3634 H3647 0.985 . S
N3635 C3637 1.356 . S
N3635 H3640 0.984 . S
N3635 H3641 0.985 . S
C3636 C3630 1.379 . S
C3636 C3633 1.363 . S
C3636 N3634 1.356 . S
C3637 C3631 1.363 . S
C3637 C3632 1.379 . S
C3637 N3635 1.356 . S
N3638 C3630 1.356 . S
N3638 H3644 0.984 . S
N3638 H3645 0.984 . S
N3639 C3632 1.356 . S
N3639 H3642 0.984 . S
N3639 H3643 0.985 . S
H3640 N3635 0.984 . S
H3641 N3635 0.985 . S
H3642 N3639 0.984 . S
H3643 N3639 0.985 . S
H3644 N3638 0.984 . S
H3645 N3638 0.984 . S
H3646 N3634 0.984 . S
H3647 N3634 0.985 . S
C3648 C3649 1.363 . S
C3648 C3654 1.379 . S
C3648 N3656 1.356 . S
C3649 C3648 1.363 . S
C3649 C3655 1.363 . S
C3650 C3651 1.363 . S
C3650 C3655 1.379 . S
C3650 N3657 1.356 . S
C3651 C3650 1.363 . S
C3651 C3654 1.363 . S
N3652 C3654 1.356 . S
N3652 H3664 0.984 . S
N3652 H3665 0.985 . S
N3653 C3655 1.356 . S
N3653 H3658 0.984 . S
N3653 H3659 0.985 . S
C3654 C3648 1.379 . S
C3654 C3651 1.363 . S
C3654 N3652 1.356 . S
C3655 C3649 1.363 . S
C3655 C3650 1.379 . S
C3655 N3653 1.356 . S
N3656 C3648 1.356 . S
N3656 H3662 0.984 . S
N3656 H3663 0.984 . S
N3657 C3650 1.356 . S
N3657 H3660 0.984 . S
N3657 H3661 0.985 . S
H3658 N3653 0.984 . S
H3659 N3653 0.985 . S
H3660 N3657 0.984 . S
H3661 N3657 0.985 . S
H3662 N3656 0.984 . S
H3663 N3656 0.984 . S
H3664 N3652 0.984 . S
H3665 N3652 0.985 . S
C3666 C3667 1.363 . S
C3666 C3672 1.379 . S
C3666 N3674 1.356 . S
C3667 C3666 1.363 . S
C3667 C3673 1.363 . S
C3668 C3669 1.363 . S
C3668 C3673 1.379 . S
C3668 N3675 1.356 . S
C3669 C3668 1.363 . S
C3669 C3672 1.363 . S
N3670 C3672 1.356 . S
N3670 H3682 0.984 . S
N3670 H3683 0.985 . S
N3671 C3673 1.356 . S
N3671 H3676 0.984 . S
N3671 H3677 0.985 . S
C3672 C3666 1.379 . S
C3672 C3669 1.363 . S
C3672 N3670 1.356 . S
C3673 C3667 1.363 . S
C3673 C3668 1.379 . S
C3673 N3671 1.356 . S
N3674 C3666 1.356 . S
N3674 H3680 0.984 . S
N3674 H3681 0.984 . S
N3675 C3668 1.356 . S
N3675 H3678 0.984 . S
N3675 H3679 0.985 . S
H3676 N3671 0.984 . S
H3677 N3671 0.985 . S
H3678 N3675 0.984 . S
H3679 N3675 0.985 . S
H3680 N3674 0.984 . S
H3681 N3674 0.984 . S
H3682 N3670 0.984 . S
H3683 N3670 0.985 . S
C3684 C3685 1.363 . S
C3684 C3690 1.379 . S
C3684 N3692 1.356 . S
C3685 C3684 1.363 . S
C3685 C3691 1.363 . S
C3686 C3687 1.363 . S
C3686 C3691 1.379 . S
C3686 N3693 1.356 . S
C3687 C3686 1.363 . S
C3687 C3690 1.363 . S
N3688 C3690 1.356 . S
N3688 H3700 0.984 . S
N3688 H3701 0.985 . S
N3689 C3691 1.356 . S
N3689 H3694 0.984 . S
N3689 H3695 0.985 . S
C3690 C3684 1.379 . S
C3690 C3687 1.363 . S
C3690 N3688 1.356 . S
C3691 C3685 1.363 . S
C3691 C3686 1.379 . S
C3691 N3689 1.356 . S
N3692 C3684 1.356 . S
N3692 H3698 0.984 . S
N3692 H3699 0.984 . S
N3693 C3686 1.356 . S
N3693 H3696 0.984 . S
N3693 H3697 0.985 . S
H3694 N3689 0.984 . S
H3695 N3689 0.985 . S
H3696 N3693 0.984 . S
H3697 N3693 0.985 . S
H3698 N3692 0.984 . S
H3699 N3692 0.984 . S
H3700 N3688 0.984 . S
H3701 N3688 0.985 . S
C3702 C3703 1.363 . S
C3702 C3708 1.379 . S
C3702 N3710 1.356 . S
C3703 C3702 1.363 . S
C3703 C3709 1.363 . S
C3704 C3705 1.363 . S
C3704 C3709 1.379 . S
C3704 N3711 1.356 . S
C3705 C3704 1.363 . S
C3705 C3708 1.363 . S
N3706 C3708 1.356 . S
N3706 H3718 0.984 . S
N3706 H3719 0.985 . S
N3707 C3709 1.356 . S
N3707 H3712 0.984 . S
N3707 H3713 0.985 . S
C3708 C3702 1.379 . S
C3708 C3705 1.363 . S
C3708 N3706 1.356 . S
C3709 C3703 1.363 . S
C3709 C3704 1.379 . S
C3709 N3707 1.356 . S
N3710 C3702 1.356 . S
N3710 H3716 0.984 . S
N3710 H3717 0.984 . S
N3711 C3704 1.356 . S
N3711 H3714 0.984 . S
N3711 H3715 0.985 . S
H3712 N3707 0.984 . S
H3713 N3707 0.985 . S
H3714 N3711 0.984 . S
H3715 N3711 0.985 . S
H3716 N3710 0.984 . S
H3717 N3710 0.984 . S
H3718 N3706 0.984 . S
H3719 N3706 0.985 . S
C3720 C3721 1.363 . S
C3720 C3726 1.379 . S
C3720 N3728 1.356 . S
C3721 C3720 1.363 . S
C3721 C3727 1.363 . S
C3722 C3723 1.363 . S
C3722 C3727 1.379 . S
C3722 N3729 1.356 . S
C3723 C3722 1.363 . S
C3723 C3726 1.363 . S
N3724 C3726 1.356 . S
N3724 H3736 0.984 . S
N3724 H3737 0.985 . S
N3725 C3727 1.356 . S
N3725 H3730 0.984 . S
N3725 H3731 0.985 . S
C3726 C3720 1.379 . S
C3726 C3723 1.363 . S
C3726 N3724 1.356 . S
C3727 C3721 1.363 . S
C3727 C3722 1.379 . S
C3727 N3725 1.356 . S
N3728 C3720 1.356 . S
N3728 H3734 0.984 1_565 S
N3728 H3735 0.984 . S
N3729 C3722 1.356 . S
N3729 H3732 0.984 . S
N3729 H3733 0.985 . S
H3730 N3725 0.984 . S
H3731 N3725 0.985 . S
H3732 N3729 0.984 . S
H3733 N3729 0.985 . S
H3734 N3728 0.984 1_545 S
H3735 N3728 0.984 . S
H3736 N3724 0.984 . S
H3737 N3724 0.985 . S
C3738 C3739 1.363 . S
C3738 C3744 1.379 . S
C3738 N3746 1.356 . S
C3739 C3738 1.363 . S
C3739 C3745 1.363 . S
C3740 C3741 1.363 . S
C3740 C3745 1.379 . S
C3740 N3747 1.356 . S
C3741 C3740 1.363 . S
C3741 C3744 1.363 . S
N3742 C3744 1.356 . S
N3742 H3754 0.984 . S
N3742 H3755 0.985 . S
N3743 C3745 1.356 . S
N3743 H3748 0.984 . S
N3743 H3749 0.985 . S
C3744 C3738 1.379 . S
C3744 C3741 1.363 . S
C3744 N3742 1.356 . S
C3745 C3739 1.363 . S
C3745 C3740 1.379 . S
C3745 N3743 1.356 . S
N3746 C3738 1.356 . S
N3746 H3752 0.984 . S
N3746 H3753 0.984 . S
N3747 C3740 1.356 . S
N3747 H3750 0.984 . S
N3747 H3751 0.985 . S
H3748 N3743 0.984 . S
H3749 N3743 0.985 . S
H3750 N3747 0.984 . S
H3751 N3747 0.985 . S
H3752 N3746 0.984 . S
H3753 N3746 0.984 . S
H3754 N3742 0.984 . S
H3755 N3742 0.985 . S
C3756 C3757 1.363 . S
C3756 C3762 1.379 . S
C3756 N3764 1.356 . S
C3757 C3756 1.363 . S
C3757 C3763 1.363 . S
C3758 C3759 1.363 . S
C3758 C3763 1.379 . S
C3758 N3765 1.356 . S
C3759 C3758 1.363 . S
C3759 C3762 1.363 . S
N3760 C3762 1.356 . S
N3760 H3772 0.984 . S
N3760 H3773 0.985 . S
N3761 C3763 1.356 . S
N3761 H3766 0.984 . S
N3761 H3767 0.985 . S
C3762 C3756 1.379 . S
C3762 C3759 1.363 . S
C3762 N3760 1.356 . S
C3763 C3757 1.363 . S
C3763 C3758 1.379 . S
C3763 N3761 1.356 . S
N3764 C3756 1.356 . S
N3764 H3770 0.984 . S
N3764 H3771 0.984 . S
N3765 C3758 1.356 . S
N3765 H3768 0.984 . S
N3765 H3769 0.985 . S
H3766 N3761 0.984 . S
H3767 N3761 0.985 . S
H3768 N3765 0.984 . S
H3769 N3765 0.985 . S
H3770 N3764 0.984 . S
H3771 N3764 0.984 . S
H3772 N3760 0.984 . S
H3773 N3760 0.985 . S
C3774 C3775 1.363 . S
C3774 C3780 1.379 . S
C3774 N3782 1.356 . S
C3775 C3774 1.363 . S
C3775 C3781 1.363 . S
C3776 C3777 1.363 . S
C3776 C3781 1.379 . S
C3776 N3783 1.356 . S
C3777 C3776 1.363 . S
C3777 C3780 1.363 . S
N3778 C3780 1.356 . S
N3778 H3790 0.984 . S
N3778 H3791 0.985 . S
N3779 C3781 1.356 . S
N3779 H3784 0.984 . S
N3779 H3785 0.985 . S
C3780 C3774 1.379 . S
C3780 C3777 1.363 . S
C3780 N3778 1.356 . S
C3781 C3775 1.363 . S
C3781 C3776 1.379 . S
C3781 N3779 1.356 . S
N3782 C3774 1.356 . S
N3782 H3788 0.984 . S
N3782 H3789 0.984 . S
N3783 C3776 1.356 . S
N3783 H3786 0.984 . S
N3783 H3787 0.985 . S
H3784 N3779 0.984 . S
H3785 N3779 0.985 . S
H3786 N3783 0.984 . S
H3787 N3783 0.985 . S
H3788 N3782 0.984 . S
H3789 N3782 0.984 . S
H3790 N3778 0.984 . S
H3791 N3778 0.985 . S
C3792 C3793 1.363 . S
C3792 C3798 1.379 . S
C3792 N3800 1.356 . S
C3793 C3792 1.363 . S
C3793 C3799 1.363 . S
C3794 C3795 1.363 . S
C3794 C3799 1.379 . S
C3794 N3801 1.356 . S
C3795 C3794 1.363 . S
C3795 C3798 1.363 . S
N3796 C3798 1.356 . S
N3796 H3808 0.984 . S
N3796 H3809 0.985 . S
N3797 C3799 1.356 . S
N3797 H3802 0.984 . S
N3797 H3803 0.985 . S
C3798 C3792 1.379 . S
C3798 C3795 1.363 . S
C3798 N3796 1.356 . S
C3799 C3793 1.363 . S
C3799 C3794 1.379 . S
C3799 N3797 1.356 . S
N3800 C3792 1.356 . S
N3800 H3806 0.984 . S
N3800 H3807 0.984 . S
N3801 C3794 1.356 . S
N3801 H3804 0.984 . S
N3801 H3805 0.985 . S
H3802 N3797 0.984 . S
H3803 N3797 0.985 . S
H3804 N3801 0.984 . S
H3805 N3801 0.985 . S
H3806 N3800 0.984 . S
H3807 N3800 0.984 . S
H3808 N3796 0.984 . S
H3809 N3796 0.985 . S
C3810 C3811 1.363 . S
C3810 C3816 1.379 . S
C3810 N3818 1.356 . S
C3811 C3810 1.363 . S
C3811 C3817 1.363 . S
C3812 C3813 1.363 . S
C3812 C3817 1.379 . S
C3812 N3819 1.356 . S
C3813 C3812 1.363 . S
C3813 C3816 1.363 . S
N3814 C3816 1.356 . S
N3814 H3826 0.984 . S
N3814 H3827 0.985 . S
N3815 C3817 1.356 . S
N3815 H3820 0.984 . S
N3815 H3821 0.985 . S
C3816 C3810 1.379 . S
C3816 C3813 1.363 . S
C3816 N3814 1.356 . S
C3817 C3811 1.363 . S
C3817 C3812 1.379 . S
C3817 N3815 1.356 . S
N3818 C3810 1.356 . S
N3818 H3824 0.984 . S
N3818 H3825 0.984 . S
N3819 C3812 1.356 . S
N3819 H3822 0.984 . S
N3819 H3823 0.985 . S
H3820 N3815 0.984 . S
H3821 N3815 0.985 . S
H3822 N3819 0.984 . S
H3823 N3819 0.985 . S
H3824 N3818 0.984 . S
H3825 N3818 0.984 . S
H3826 N3814 0.984 . S
H3827 N3814 0.985 . S
C3828 C3829 1.363 . S
C3828 C3834 1.379 . S
C3828 N3836 1.356 . S
C3829 C3828 1.363 . S
C3829 C3835 1.363 . S
C3830 C3831 1.363 . S
C3830 C3835 1.379 . S
C3830 N3837 1.356 . S
C3831 C3830 1.363 . S
C3831 C3834 1.363 . S
N3832 C3834 1.356 . S
N3832 H3844 0.984 . S
N3832 H3845 0.985 . S
N3833 C3835 1.356 . S
N3833 H3838 0.984 . S
N3833 H3839 0.985 . S
C3834 C3828 1.379 . S
C3834 C3831 1.363 . S
C3834 N3832 1.356 . S
C3835 C3829 1.363 . S
C3835 C3830 1.379 . S
C3835 N3833 1.356 . S
N3836 C3828 1.356 . S
N3836 H3842 0.984 . S
N3836 H3843 0.984 . S
N3837 C3830 1.356 . S
N3837 H3840 0.984 . S
N3837 H3841 0.985 . S
H3838 N3833 0.984 . S
H3839 N3833 0.985 . S
H3840 N3837 0.984 . S
H3841 N3837 0.985 . S
H3842 N3836 0.984 . S
H3843 N3836 0.984 . S
H3844 N3832 0.984 . S
H3845 N3832 0.985 . S
C3846 C3847 1.363 . S
C3846 C3852 1.379 . S
C3846 N3854 1.356 . S
C3847 C3846 1.363 . S
C3847 C3853 1.363 . S
C3848 C3849 1.363 . S
C3848 C3853 1.379 . S
C3848 N3855 1.356 . S
C3849 C3848 1.363 . S
C3849 C3852 1.363 . S
N3850 C3852 1.356 . S
N3850 H3862 0.984 . S
N3850 H3863 0.985 . S
N3851 C3853 1.356 . S
N3851 H3856 0.984 . S
N3851 H3857 0.985 . S
C3852 C3846 1.379 . S
C3852 C3849 1.363 . S
C3852 N3850 1.356 . S
C3853 C3847 1.363 . S
C3853 C3848 1.379 . S
C3853 N3851 1.356 . S
N3854 C3846 1.356 . S
N3854 H3860 0.984 . S
N3854 H3861 0.984 . S
N3855 C3848 1.356 . S
N3855 H3858 0.984 . S
N3855 H3859 0.985 . S
H3856 N3851 0.984 . S
H3857 N3851 0.985 . S
H3858 N3855 0.984 . S
H3859 N3855 0.985 . S
H3860 N3854 0.984 . S
H3861 N3854 0.984 . S
H3862 N3850 0.984 . S
H3863 N3850 0.985 . S
C3864 C3865 1.363 . S
C3864 C3870 1.379 . S
C3864 N3872 1.356 . S
C3865 C3864 1.363 . S
C3865 C3871 1.363 . S
C3866 C3867 1.363 . S
C3866 C3871 1.379 . S
C3866 N3873 1.356 . S
C3867 C3866 1.363 . S
C3867 C3870 1.363 . S
N3868 C3870 1.356 . S
N3868 H3880 0.984 . S
N3868 H3881 0.985 . S
N3869 C3871 1.356 . S
N3869 H3874 0.984 . S
N3869 H3875 0.985 . S
C3870 C3864 1.379 . S
C3870 C3867 1.363 . S
C3870 N3868 1.356 . S
C3871 C3865 1.363 . S
C3871 C3866 1.379 . S
C3871 N3869 1.356 . S
N3872 C3864 1.356 . S
N3872 H3878 0.984 . S
N3872 H3879 0.984 . S
N3873 C3866 1.356 . S
N3873 H3876 0.984 . S
N3873 H3877 0.985 . S
H3874 N3869 0.984 . S
H3875 N3869 0.985 . S
H3876 N3873 0.984 . S
H3877 N3873 0.985 . S
H3878 N3872 0.984 . S
H3879 N3872 0.984 . S
H3880 N3868 0.984 . S
H3881 N3868 0.985 . S
C3882 C3883 1.363 . S
C3882 C3888 1.379 . S
C3882 N3890 1.356 . S
C3883 C3882 1.363 . S
C3883 C3889 1.363 . S
C3884 C3885 1.363 . S
C3884 C3889 1.379 . S
C3884 N3891 1.356 . S
C3885 C3884 1.363 . S
C3885 C3888 1.363 . S
N3886 C3888 1.356 . S
N3886 H3898 0.984 . S
N3886 H3899 0.985 . S
N3887 C3889 1.356 . S
N3887 H3892 0.984 . S
N3887 H3893 0.985 . S
C3888 C3882 1.379 . S
C3888 C3885 1.363 . S
C3888 N3886 1.356 . S
C3889 C3883 1.363 . S
C3889 C3884 1.379 . S
C3889 N3887 1.356 . S
N3890 C3882 1.356 . S
N3890 H3896 0.984 . S
N3890 H3897 0.984 . S
N3891 C3884 1.356 . S
N3891 H3894 0.984 . S
N3891 H3895 0.985 . S
H3892 N3887 0.984 . S
H3893 N3887 0.985 . S
H3894 N3891 0.984 . S
H3895 N3891 0.985 . S
H3896 N3890 0.984 . S
H3897 N3890 0.984 . S
H3898 N3886 0.984 . S
H3899 N3886 0.985 . S
C3900 C3901 1.363 . S
C3900 C3906 1.379 . S
C3900 N3908 1.356 . S
C3901 C3900 1.363 . S
C3901 C3907 1.363 . S
C3902 C3903 1.363 . S
C3902 C3907 1.379 . S
C3902 N3909 1.356 . S
C3903 C3902 1.363 . S
C3903 C3906 1.363 . S
N3904 C3906 1.356 . S
N3904 H3916 0.984 . S
N3904 H3917 0.985 . S
N3905 C3907 1.356 . S
N3905 H3910 0.984 . S
N3905 H3911 0.985 . S
C3906 C3900 1.379 . S
C3906 C3903 1.363 . S
C3906 N3904 1.356 . S
C3907 C3901 1.363 . S
C3907 C3902 1.379 . S
C3907 N3905 1.356 . S
N3908 C3900 1.356 . S
N3908 H3914 0.984 . S
N3908 H3915 0.984 . S
N3909 C3902 1.356 . S
N3909 H3912 0.984 . S
N3909 H3913 0.985 . S
H3910 N3905 0.984 . S
H3911 N3905 0.985 . S
H3912 N3909 0.984 . S
H3913 N3909 0.985 . S
H3914 N3908 0.984 . S
H3915 N3908 0.984 . S
H3916 N3904 0.984 . S
H3917 N3904 0.985 . S
C3918 C3919 1.363 . S
C3918 C3924 1.379 . S
C3918 N3926 1.356 . S
C3919 C3918 1.363 . S
C3919 C3925 1.363 . S
C3920 C3921 1.363 . S
C3920 C3925 1.379 . S
C3920 N3927 1.356 . S
C3921 C3920 1.363 . S
C3921 C3924 1.363 . S
N3922 C3924 1.356 . S
N3922 H3934 0.984 . S
N3922 H3935 0.985 . S
N3923 C3925 1.356 . S
N3923 H3928 0.984 1_455 S
N3923 H3929 0.985 1_455 S
C3924 C3918 1.379 . S
C3924 C3921 1.363 . S
C3924 N3922 1.356 . S
C3925 C3919 1.363 . S
C3925 C3920 1.379 . S
C3925 N3923 1.356 . S
N3926 C3918 1.356 . S
N3926 H3932 0.984 . S
N3926 H3933 0.984 . S
N3927 C3920 1.356 . S
N3927 H3930 0.984 . S
N3927 H3931 0.985 . S
H3928 N3923 0.984 1_655 S
H3929 N3923 0.985 1_655 S
H3930 N3927 0.984 . S
H3931 N3927 0.985 . S
H3932 N3926 0.984 . S
H3933 N3926 0.984 . S
H3934 N3922 0.984 . S
H3935 N3922 0.985 . S
C3936 C3937 1.363 . S
C3936 C3942 1.379 . S
C3936 N3944 1.356 . S
C3937 C3936 1.363 . S
C3937 C3943 1.363 . S
C3938 C3939 1.363 . S
C3938 C3943 1.379 . S
C3938 N3945 1.356 . S
C3939 C3938 1.363 . S
C3939 C3942 1.363 . S
N3940 C3942 1.356 . S
N3940 H3952 0.984 . S
N3940 H3953 0.985 . S
N3941 C3943 1.356 . S
N3941 H3946 0.984 . S
N3941 H3947 0.985 . S
C3942 C3936 1.379 . S
C3942 C3939 1.363 . S
C3942 N3940 1.356 . S
C3943 C3937 1.363 . S
C3943 C3938 1.379 . S
C3943 N3941 1.356 . S
N3944 C3936 1.356 . S
N3944 H3950 0.984 . S
N3944 H3951 0.984 . S
N3945 C3938 1.356 . S
N3945 H3948 0.984 . S
N3945 H3949 0.985 . S
H3946 N3941 0.984 . S
H3947 N3941 0.985 . S
H3948 N3945 0.984 . S
H3949 N3945 0.985 . S
H3950 N3944 0.984 . S
H3951 N3944 0.984 . S
H3952 N3940 0.984 . S
H3953 N3940 0.985 . S
C3954 C3955 1.363 . S
C3954 C3960 1.379 . S
C3954 N3962 1.356 . S
C3955 C3954 1.363 . S
C3955 C3961 1.363 . S
C3956 C3957 1.363 . S
C3956 C3961 1.379 . S
C3956 N3963 1.356 . S
C3957 C3956 1.363 . S
C3957 C3960 1.363 . S
N3958 C3960 1.356 . S
N3958 H3970 0.984 . S
N3958 H3971 0.985 . S
N3959 C3961 1.356 . S
N3959 H3964 0.984 . S
N3959 H3965 0.985 . S
C3960 C3954 1.379 . S
C3960 C3957 1.363 . S
C3960 N3958 1.356 . S
C3961 C3955 1.363 . S
C3961 C3956 1.379 . S
C3961 N3959 1.356 . S
N3962 C3954 1.356 . S
N3962 H3968 0.984 . S
N3962 H3969 0.984 . S
N3963 C3956 1.356 . S
N3963 H3966 0.984 . S
N3963 H3967 0.985 . S
H3964 N3959 0.984 . S
H3965 N3959 0.985 . S
H3966 N3963 0.984 . S
H3967 N3963 0.985 . S
H3968 N3962 0.984 . S
H3969 N3962 0.984 . S
H3970 N3958 0.984 . S
H3971 N3958 0.985 . S
C3972 C3973 1.363 . S
C3972 C3978 1.379 . S
C3972 N3980 1.356 . S
C3973 C3972 1.363 . S
C3973 C3979 1.363 . S
C3974 C3975 1.363 . S
C3974 C3979 1.379 . S
C3974 N3981 1.356 . S
C3975 C3974 1.363 . S
C3975 C3978 1.363 . S
N3976 C3978 1.356 . S
N3976 H3988 0.984 . S
N3976 H3989 0.985 . S
N3977 C3979 1.356 . S
N3977 H3982 0.984 . S
N3977 H3983 0.985 . S
C3978 C3972 1.379 . S
C3978 C3975 1.363 . S
C3978 N3976 1.356 . S
C3979 C3973 1.363 . S
C3979 C3974 1.379 . S
C3979 N3977 1.356 . S
N3980 C3972 1.356 . S
N3980 H3986 0.984 . S
N3980 H3987 0.984 . S
N3981 C3974 1.356 . S
N3981 H3984 0.984 . S
N3981 H3985 0.985 . S
H3982 N3977 0.984 . S
H3983 N3977 0.985 . S
H3984 N3981 0.984 . S
H3985 N3981 0.985 . S
H3986 N3980 0.984 . S
H3987 N3980 0.984 . S
H3988 N3976 0.984 . S
H3989 N3976 0.985 . S
C3990 C3991 1.363 . S
C3990 C3996 1.379 . S
C3990 N3998 1.356 . S
C3991 C3990 1.363 . S
C3991 C3997 1.363 . S
C3992 C3993 1.363 . S
C3992 C3997 1.379 . S
C3992 N3999 1.356 . S
C3993 C3992 1.363 . S
C3993 C3996 1.363 . S
N3994 C3996 1.356 . S
N3994 H4006 0.984 . S
N3994 H4007 0.985 . S
N3995 C3997 1.356 . S
N3995 H4000 0.984 . S
N3995 H4001 0.985 . S
C3996 C3990 1.379 . S
C3996 C3993 1.363 . S
C3996 N3994 1.356 . S
C3997 C3991 1.363 . S
C3997 C3992 1.379 . S
C3997 N3995 1.356 . S
N3998 C3990 1.356 . S
N3998 H4004 0.984 . S
N3998 H4005 0.984 . S
N3999 C3992 1.356 . S
N3999 H4002 0.984 . S
N3999 H4003 0.985 . S
H4000 N3995 0.984 . S
H4001 N3995 0.985 . S
H4002 N3999 0.984 . S
H4003 N3999 0.985 . S
H4004 N3998 0.984 . S
H4005 N3998 0.984 . S
H4006 N3994 0.984 . S
H4007 N3994 0.985 . S
C4008 C4009 1.363 . S
C4008 C4014 1.379 . S
C4008 N4016 1.356 . S
C4009 C4008 1.363 . S
C4009 C4015 1.363 . S
C4010 C4011 1.363 . S
C4010 C4015 1.379 . S
C4010 N4017 1.356 . S
C4011 C4010 1.363 . S
C4011 C4014 1.363 . S
N4012 C4014 1.356 . S
N4012 H4024 0.984 . S
N4012 H4025 0.985 . S
N4013 C4015 1.356 . S
N4013 H4018 0.984 . S
N4013 H4019 0.985 . S
C4014 C4008 1.379 . S
C4014 C4011 1.363 . S
C4014 N4012 1.356 . S
C4015 C4009 1.363 . S
C4015 C4010 1.379 . S
C4015 N4013 1.356 . S
N4016 C4008 1.356 . S
N4016 H4022 0.984 . S
N4016 H4023 0.984 . S
N4017 C4010 1.356 . S
N4017 H4020 0.984 . S
N4017 H4021 0.985 . S
H4018 N4013 0.984 . S
H4019 N4013 0.985 . S
H4020 N4017 0.984 . S
H4021 N4017 0.985 . S
H4022 N4016 0.984 . S
H4023 N4016 0.984 . S
H4024 N4012 0.984 . S
H4025 N4012 0.985 . S
C4026 C4027 1.363 . S
C4026 C4032 1.379 . S
C4026 N4034 1.356 . S
C4027 C4026 1.363 . S
C4027 C4033 1.363 . S
C4028 C4029 1.363 . S
C4028 C4033 1.379 . S
C4028 N4035 1.356 . S
C4029 C4028 1.363 . S
C4029 C4032 1.363 . S
N4030 C4032 1.356 . S
N4030 H4042 0.984 . S
N4030 H4043 0.985 . S
N4031 C4033 1.356 . S
N4031 H4036 0.984 . S
N4031 H4037 0.985 . S
C4032 C4026 1.379 . S
C4032 C4029 1.363 . S
C4032 N4030 1.356 . S
C4033 C4027 1.363 . S
C4033 C4028 1.379 . S
C4033 N4031 1.356 . S
N4034 C4026 1.356 . S
N4034 H4040 0.984 . S
N4034 H4041 0.984 . S
N4035 C4028 1.356 . S
N4035 H4038 0.984 . S
N4035 H4039 0.985 . S
H4036 N4031 0.984 . S
H4037 N4031 0.985 . S
H4038 N4035 0.984 . S
H4039 N4035 0.985 . S
H4040 N4034 0.984 . S
H4041 N4034 0.984 . S
H4042 N4030 0.984 . S
H4043 N4030 0.985 . S
C4044 C4045 1.363 . S
C4044 C4050 1.379 . S
C4044 N4052 1.356 . S
C4045 C4044 1.363 . S
C4045 C4051 1.363 . S
C4046 C4047 1.363 . S
C4046 C4051 1.379 . S
C4046 N4053 1.356 . S
C4047 C4046 1.363 . S
C4047 C4050 1.363 . S
N4048 C4050 1.356 . S
N4048 H4060 0.984 . S
N4048 H4061 0.985 . S
N4049 C4051 1.356 . S
N4049 H4054 0.984 . S
N4049 H4055 0.985 . S
C4050 C4044 1.379 . S
C4050 C4047 1.363 . S
C4050 N4048 1.356 . S
C4051 C4045 1.363 . S
C4051 C4046 1.379 . S
C4051 N4049 1.356 . S
N4052 C4044 1.356 . S
N4052 H4058 0.984 . S
N4052 H4059 0.984 . S
N4053 C4046 1.356 . S
N4053 H4056 0.984 . S
N4053 H4057 0.985 . S
H4054 N4049 0.984 . S
H4055 N4049 0.985 . S
H4056 N4053 0.984 . S
H4057 N4053 0.985 . S
H4058 N4052 0.984 . S
H4059 N4052 0.984 . S
H4060 N4048 0.984 . S
H4061 N4048 0.985 . S
C4062 C4063 1.363 . S
C4062 C4068 1.379 . S
C4062 N4070 1.356 . S
C4063 C4062 1.363 . S
C4063 C4069 1.363 . S
C4064 C4065 1.363 . S
C4064 C4069 1.379 . S
C4064 N4071 1.356 . S
C4065 C4064 1.363 . S
C4065 C4068 1.363 . S
N4066 C4068 1.356 . S
N4066 H4078 0.984 . S
N4066 H4079 0.985 . S
N4067 C4069 1.356 . S
N4067 H4072 0.984 . S
N4067 H4073 0.985 . S
C4068 C4062 1.379 . S
C4068 C4065 1.363 . S
C4068 N4066 1.356 . S
C4069 C4063 1.363 . S
C4069 C4064 1.379 . S
C4069 N4067 1.356 . S
N4070 C4062 1.356 . S
N4070 H4076 0.984 . S
N4070 H4077 0.984 . S
N4071 C4064 1.356 . S
N4071 H4074 0.984 . S
N4071 H4075 0.985 . S
H4072 N4067 0.984 . S
H4073 N4067 0.985 . S
H4074 N4071 0.984 . S
H4075 N4071 0.985 . S
H4076 N4070 0.984 . S
H4077 N4070 0.984 . S
H4078 N4066 0.984 . S
H4079 N4066 0.985 . S
C4080 C4081 1.363 . S
C4080 C4086 1.379 . S
C4080 N4088 1.356 . S
C4081 C4080 1.363 . S
C4081 C4087 1.363 . S
C4082 C4083 1.363 . S
C4082 C4087 1.379 . S
C4082 N4089 1.356 . S
C4083 C4082 1.363 . S
C4083 C4086 1.363 . S
N4084 C4086 1.356 . S
N4084 H4096 0.984 . S
N4084 H4097 0.985 . S
N4085 C4087 1.356 . S
N4085 H4090 0.984 . S
N4085 H4091 0.985 . S
C4086 C4080 1.379 . S
C4086 C4083 1.363 . S
C4086 N4084 1.356 . S
C4087 C4081 1.363 . S
C4087 C4082 1.379 . S
C4087 N4085 1.356 . S
N4088 C4080 1.356 . S
N4088 H4094 0.984 . S
N4088 H4095 0.984 . S
N4089 C4082 1.356 . S
N4089 H4092 0.984 . S
N4089 H4093 0.985 . S
H4090 N4085 0.984 . S
H4091 N4085 0.985 . S
H4092 N4089 0.984 . S
H4093 N4089 0.985 . S
H4094 N4088 0.984 . S
H4095 N4088 0.984 . S
H4096 N4084 0.984 . S
H4097 N4084 0.985 . S
C4098 C4099 1.363 . S
C4098 C4104 1.379 . S
C4098 N4106 1.356 . S
C4099 C4098 1.363 . S
C4099 C4105 1.363 . S
C4100 C4101 1.363 . S
C4100 C4105 1.379 . S
C4100 N4107 1.356 . S
C4101 C4100 1.363 . S
C4101 C4104 1.363 . S
N4102 C4104 1.356 . S
N4102 H4114 0.984 . S
N4102 H4115 0.985 . S
N4103 C4105 1.356 . S
N4103 H4108 0.984 . S
N4103 H4109 0.985 . S
C4104 C4098 1.379 . S
C4104 C4101 1.363 . S
C4104 N4102 1.356 . S
C4105 C4099 1.363 . S
C4105 C4100 1.379 . S
C4105 N4103 1.356 . S
N4106 C4098 1.356 . S
N4106 H4112 0.984 . S
N4106 H4113 0.984 . S
N4107 C4100 1.356 . S
N4107 H4110 0.984 . S
N4107 H4111 0.985 . S
H4108 N4103 0.984 . S
H4109 N4103 0.985 . S
H4110 N4107 0.984 . S
H4111 N4107 0.985 . S
H4112 N4106 0.984 . S
H4113 N4106 0.984 . S
H4114 N4102 0.984 . S
H4115 N4102 0.985 . S
C4116 C4117 1.363 . S
C4116 C4122 1.379 . S
C4116 N4124 1.356 . S
C4117 C4116 1.363 . S
C4117 C4123 1.363 . S
C4118 C4119 1.363 . S
C4118 C4123 1.379 . S
C4118 N4125 1.356 . S
C4119 C4118 1.363 . S
C4119 C4122 1.363 . S
N4120 C4122 1.356 . S
N4120 H4132 0.984 . S
N4120 H4133 0.985 . S
N4121 C4123 1.356 . S
N4121 H4126 0.984 . S
N4121 H4127 0.985 . S
C4122 C4116 1.379 . S
C4122 C4119 1.363 . S
C4122 N4120 1.356 . S
C4123 C4117 1.363 . S
C4123 C4118 1.379 . S
C4123 N4121 1.356 . S
N4124 C4116 1.356 . S
N4124 H4130 0.984 . S
N4124 H4131 0.984 . S
N4125 C4118 1.356 . S
N4125 H4128 0.984 . S
N4125 H4129 0.985 . S
H4126 N4121 0.984 . S
H4127 N4121 0.985 . S
H4128 N4125 0.984 . S
H4129 N4125 0.985 . S
H4130 N4124 0.984 . S
H4131 N4124 0.984 . S
H4132 N4120 0.984 . S
H4133 N4120 0.985 . S
C4134 C4135 1.363 . S
C4134 C4140 1.379 . S
C4134 N4142 1.356 . S
C4135 C4134 1.363 . S
C4135 C4141 1.363 . S
C4136 C4137 1.363 . S
C4136 C4141 1.379 . S
C4136 N4143 1.356 . S
C4137 C4136 1.363 . S
C4137 C4140 1.363 . S
N4138 C4140 1.356 . S
N4138 H4150 0.984 . S
N4138 H4151 0.985 . S
N4139 C4141 1.356 . S
N4139 H4144 0.984 . S
N4139 H4145 0.985 . S
C4140 C4134 1.379 . S
C4140 C4137 1.363 . S
C4140 N4138 1.356 . S
C4141 C4135 1.363 . S
C4141 C4136 1.379 . S
C4141 N4139 1.356 . S
N4142 C4134 1.356 . S
N4142 H4148 0.984 . S
N4142 H4149 0.984 . S
N4143 C4136 1.356 . S
N4143 H4146 0.984 . S
N4143 H4147 0.985 . S
H4144 N4139 0.984 . S
H4145 N4139 0.985 . S
H4146 N4143 0.984 . S
H4147 N4143 0.985 . S
H4148 N4142 0.984 . S
H4149 N4142 0.984 . S
H4150 N4138 0.984 . S
H4151 N4138 0.985 . S
C4152 C4153 1.363 . S
C4152 C4158 1.379 . S
C4152 N4160 1.356 . S
C4153 C4152 1.363 . S
C4153 C4159 1.363 . S
C4154 C4155 1.363 . S
C4154 C4159 1.379 . S
C4154 N4161 1.356 . S
C4155 C4154 1.363 . S
C4155 C4158 1.363 . S
N4156 C4158 1.356 . S
N4156 H4168 0.984 . S
N4156 H4169 0.985 . S
N4157 C4159 1.356 . S
N4157 H4162 0.984 . S
N4157 H4163 0.985 . S
C4158 C4152 1.379 . S
C4158 C4155 1.363 . S
C4158 N4156 1.356 . S
C4159 C4153 1.363 . S
C4159 C4154 1.379 . S
C4159 N4157 1.356 . S
N4160 C4152 1.356 . S
N4160 H4166 0.984 . S
N4160 H4167 0.984 . S
N4161 C4154 1.356 . S
N4161 H4164 0.984 . S
N4161 H4165 0.985 . S
H4162 N4157 0.984 . S
H4163 N4157 0.985 . S
H4164 N4161 0.984 . S
H4165 N4161 0.985 . S
H4166 N4160 0.984 . S
H4167 N4160 0.984 . S
H4168 N4156 0.984 . S
H4169 N4156 0.985 . S
C4170 C4171 1.363 . S
C4170 C4176 1.379 . S
C4170 N4178 1.356 . S
C4171 C4170 1.363 . S
C4171 C4177 1.363 . S
C4172 C4173 1.363 . S
C4172 C4177 1.379 . S
C4172 N4179 1.356 . S
C4173 C4172 1.363 . S
C4173 C4176 1.363 . S
N4174 C4176 1.356 . S
N4174 H4186 0.984 . S
N4174 H4187 0.985 . S
N4175 C4177 1.356 . S
N4175 H4180 0.984 . S
N4175 H4181 0.985 . S
C4176 C4170 1.379 . S
C4176 C4173 1.363 . S
C4176 N4174 1.356 . S
C4177 C4171 1.363 . S
C4177 C4172 1.379 . S
C4177 N4175 1.356 . S
N4178 C4170 1.356 . S
N4178 H4184 0.984 . S
N4178 H4185 0.984 . S
N4179 C4172 1.356 . S
N4179 H4182 0.984 . S
N4179 H4183 0.985 . S
H4180 N4175 0.984 . S
H4181 N4175 0.985 . S
H4182 N4179 0.984 . S
H4183 N4179 0.985 . S
H4184 N4178 0.984 . S
H4185 N4178 0.984 . S
H4186 N4174 0.984 . S
H4187 N4174 0.985 . S
C4188 C4189 1.363 . S
C4188 C4194 1.379 . S
C4188 N4196 1.356 . S
C4189 C4188 1.363 . S
C4189 C4195 1.363 . S
C4190 C4191 1.363 . S
C4190 C4195 1.379 . S
C4190 N4197 1.356 . S
C4191 C4190 1.363 . S
C4191 C4194 1.363 . S
N4192 C4194 1.356 . S
N4192 H4204 0.984 . S
N4192 H4205 0.985 . S
N4193 C4195 1.356 . S
N4193 H4198 0.984 . S
N4193 H4199 0.985 . S
C4194 C4188 1.379 . S
C4194 C4191 1.363 . S
C4194 N4192 1.356 . S
C4195 C4189 1.363 . S
C4195 C4190 1.379 . S
C4195 N4193 1.356 . S
N4196 C4188 1.356 . S
N4196 H4202 0.984 . S
N4196 H4203 0.984 . S
N4197 C4190 1.356 . S
N4197 H4200 0.984 . S
N4197 H4201 0.985 . S
H4198 N4193 0.984 . S
H4199 N4193 0.985 . S
H4200 N4197 0.984 . S
H4201 N4197 0.985 . S
H4202 N4196 0.984 . S
H4203 N4196 0.984 . S
H4204 N4192 0.984 . S
H4205 N4192 0.985 . S
C4206 C4207 1.363 . S
C4206 C4212 1.379 . S
C4206 N4214 1.356 . S
C4207 C4206 1.363 . S
C4207 C4213 1.363 . S
C4208 C4209 1.363 . S
C4208 C4213 1.379 . S
C4208 N4215 1.356 . S
C4209 C4208 1.363 . S
C4209 C4212 1.363 . S
N4210 C4212 1.356 . S
N4210 H4222 0.984 . S
N4210 H4223 0.985 . S
N4211 C4213 1.356 . S
N4211 H4216 0.984 . S
N4211 H4217 0.985 . S
C4212 C4206 1.379 . S
C4212 C4209 1.363 . S
C4212 N4210 1.356 . S
C4213 C4207 1.363 . S
C4213 C4208 1.379 . S
C4213 N4211 1.356 . S
N4214 C4206 1.356 . S
N4214 H4220 0.984 . S
N4214 H4221 0.984 . S
N4215 C4208 1.356 . S
N4215 H4218 0.984 . S
N4215 H4219 0.985 . S
H4216 N4211 0.984 . S
H4217 N4211 0.985 . S
H4218 N4215 0.984 . S
H4219 N4215 0.985 . S
H4220 N4214 0.984 . S
H4221 N4214 0.984 . S
H4222 N4210 0.984 . S
H4223 N4210 0.985 . S
C4224 C4225 1.363 . S
C4224 C4230 1.379 . S
C4224 N4232 1.356 . S
C4225 C4224 1.363 . S
C4225 C4231 1.363 . S
C4226 C4227 1.363 . S
C4226 C4231 1.379 . S
C4226 N4233 1.356 . S
C4227 C4226 1.363 . S
C4227 C4230 1.363 . S
N4228 C4230 1.356 . S
N4228 H4240 0.984 . S
N4228 H4241 0.985 . S
N4229 C4231 1.356 . S
N4229 H4234 0.984 . S
N4229 H4235 0.985 . S
C4230 C4224 1.379 . S
C4230 C4227 1.363 . S
C4230 N4228 1.356 . S
C4231 C4225 1.363 . S
C4231 C4226 1.379 . S
C4231 N4229 1.356 . S
N4232 C4224 1.356 . S
N4232 H4238 0.984 . S
N4232 H4239 0.984 . S
N4233 C4226 1.356 . S
N4233 H4236 0.984 . S
N4233 H4237 0.985 . S
H4234 N4229 0.984 . S
H4235 N4229 0.985 . S
H4236 N4233 0.984 . S
H4237 N4233 0.985 . S
H4238 N4232 0.984 . S
H4239 N4232 0.984 . S
H4240 N4228 0.984 . S
H4241 N4228 0.985 . S
C4242 C4243 1.363 . S
C4242 C4248 1.379 . S
C4242 N4250 1.356 . S
C4243 C4242 1.363 . S
C4243 C4249 1.363 . S
C4244 C4245 1.363 . S
C4244 C4249 1.379 . S
C4244 N4251 1.356 . S
C4245 C4244 1.363 . S
C4245 C4248 1.363 . S
N4246 C4248 1.356 . S
N4246 H4258 0.984 . S
N4246 H4259 0.985 . S
N4247 C4249 1.356 . S
N4247 H4252 0.984 . S
N4247 H4253 0.985 . S
C4248 C4242 1.379 . S
C4248 C4245 1.363 . S
C4248 N4246 1.356 . S
C4249 C4243 1.363 . S
C4249 C4244 1.379 . S
C4249 N4247 1.356 . S
N4250 C4242 1.356 . S
N4250 H4256 0.984 . S
N4250 H4257 0.984 . S
N4251 C4244 1.356 . S
N4251 H4254 0.984 . S
N4251 H4255 0.985 . S
H4252 N4247 0.984 . S
H4253 N4247 0.985 . S
H4254 N4251 0.984 . S
H4255 N4251 0.985 . S
H4256 N4250 0.984 . S
H4257 N4250 0.984 . S
H4258 N4246 0.984 . S
H4259 N4246 0.985 . S
C4260 C4261 1.363 . S
C4260 C4266 1.379 . S
C4260 N4268 1.356 . S
C4261 C4260 1.363 . S
C4261 C4267 1.363 . S
C4262 C4263 1.363 . S
C4262 C4267 1.379 . S
C4262 N4269 1.356 . S
C4263 C4262 1.363 . S
C4263 C4266 1.363 . S
N4264 C4266 1.356 . S
N4264 H4276 0.984 . S
N4264 H4277 0.985 . S
N4265 C4267 1.356 . S
N4265 H4270 0.984 . S
N4265 H4271 0.985 . S
C4266 C4260 1.379 . S
C4266 C4263 1.363 . S
C4266 N4264 1.356 . S
C4267 C4261 1.363 . S
C4267 C4262 1.379 . S
C4267 N4265 1.356 . S
N4268 C4260 1.356 . S
N4268 H4274 0.984 . S
N4268 H4275 0.984 . S
N4269 C4262 1.356 . S
N4269 H4272 0.984 . S
N4269 H4273 0.985 . S
H4270 N4265 0.984 . S
H4271 N4265 0.985 . S
H4272 N4269 0.984 . S
H4273 N4269 0.985 . S
H4274 N4268 0.984 . S
H4275 N4268 0.984 . S
H4276 N4264 0.984 . S
H4277 N4264 0.985 . S
C4278 C4279 1.363 . S
C4278 C4284 1.379 . S
C4278 N4286 1.356 . S
C4279 C4278 1.363 . S
C4279 C4285 1.363 . S
C4280 C4281 1.363 . S
C4280 C4285 1.379 . S
C4280 N4287 1.356 . S
C4281 C4280 1.363 . S
C4281 C4284 1.363 . S
N4282 C4284 1.356 . S
N4282 H4294 0.984 . S
N4282 H4295 0.985 . S
N4283 C4285 1.356 . S
N4283 H4288 0.984 . S
N4283 H4289 0.985 . S
C4284 C4278 1.379 . S
C4284 C4281 1.363 . S
C4284 N4282 1.356 . S
C4285 C4279 1.363 . S
C4285 C4280 1.379 . S
C4285 N4283 1.356 . S
N4286 C4278 1.356 . S
N4286 H4292 0.984 . S
N4286 H4293 0.984 . S
N4287 C4280 1.356 . S
N4287 H4290 0.984 . S
N4287 H4291 0.985 . S
H4288 N4283 0.984 . S
H4289 N4283 0.985 . S
H4290 N4287 0.984 . S
H4291 N4287 0.985 . S
H4292 N4286 0.984 . S
H4293 N4286 0.984 . S
H4294 N4282 0.984 . S
H4295 N4282 0.985 . S
C4296 C4297 1.363 . S
C4296 C4302 1.379 . S
C4296 N4304 1.356 . S
C4297 C4296 1.363 . S
C4297 C4303 1.363 . S
C4298 C4299 1.363 . S
C4298 C4303 1.379 . S
C4298 N4305 1.356 . S
C4299 C4298 1.363 . S
C4299 C4302 1.363 . S
N4300 C4302 1.356 . S
N4300 H4312 0.984 . S
N4300 H4313 0.985 . S
N4301 C4303 1.356 . S
N4301 H4306 0.984 . S
N4301 H4307 0.985 . S
C4302 C4296 1.379 . S
C4302 C4299 1.363 . S
C4302 N4300 1.356 . S
C4303 C4297 1.363 . S
C4303 C4298 1.379 . S
C4303 N4301 1.356 . S
N4304 C4296 1.356 . S
N4304 H4310 0.984 . S
N4304 H4311 0.984 . S
N4305 C4298 1.356 . S
N4305 H4308 0.984 . S
N4305 H4309 0.985 . S
H4306 N4301 0.984 . S
H4307 N4301 0.985 . S
H4308 N4305 0.984 . S
H4309 N4305 0.985 . S
H4310 N4304 0.984 . S
H4311 N4304 0.984 . S
H4312 N4300 0.984 . S
H4313 N4300 0.985 . S
C4314 C4315 1.363 . S
C4314 C4320 1.379 . S
C4314 N4322 1.356 . S
C4315 C4314 1.363 . S
C4315 C4321 1.363 . S
C4316 C4317 1.363 . S
C4316 C4321 1.379 . S
C4316 N4323 1.356 . S
C4317 C4316 1.363 . S
C4317 C4320 1.363 . S
N4318 C4320 1.356 . S
N4318 H4330 0.984 . S
N4318 H4331 0.985 . S
N4319 C4321 1.356 . S
N4319 H4324 0.984 . S
N4319 H4325 0.985 . S
C4320 C4314 1.379 . S
C4320 C4317 1.363 . S
C4320 N4318 1.356 . S
C4321 C4315 1.363 . S
C4321 C4316 1.379 . S
C4321 N4319 1.356 . S
N4322 C4314 1.356 . S
N4322 H4328 0.984 . S
N4322 H4329 0.984 . S
N4323 C4316 1.356 . S
N4323 H4326 0.984 . S
N4323 H4327 0.985 . S
H4324 N4319 0.984 . S
H4325 N4319 0.985 . S
H4326 N4323 0.984 . S
H4327 N4323 0.985 . S
H4328 N4322 0.984 . S
H4329 N4322 0.984 . S
H4330 N4318 0.984 . S
H4331 N4318 0.985 . S
C4332 C4333 1.363 . S
C4332 C4338 1.379 . S
C4332 N4340 1.356 . S
C4333 C4332 1.363 . S
C4333 C4339 1.363 . S
C4334 C4335 1.363 . S
C4334 C4339 1.379 . S
C4334 N4341 1.356 . S
C4335 C4334 1.363 . S
C4335 C4338 1.363 . S
N4336 C4338 1.356 . S
N4336 H4348 0.984 . S
N4336 H4349 0.985 . S
N4337 C4339 1.356 . S
N4337 H4342 0.984 . S
N4337 H4343 0.985 . S
C4338 C4332 1.379 . S
C4338 C4335 1.363 . S
C4338 N4336 1.356 . S
C4339 C4333 1.363 . S
C4339 C4334 1.379 . S
C4339 N4337 1.356 . S
N4340 C4332 1.356 . S
N4340 H4346 0.984 . S
N4340 H4347 0.984 . S
N4341 C4334 1.356 . S
N4341 H4344 0.984 . S
N4341 H4345 0.985 . S
H4342 N4337 0.984 . S
H4343 N4337 0.985 . S
H4344 N4341 0.984 . S
H4345 N4341 0.985 . S
H4346 N4340 0.984 . S
H4347 N4340 0.984 . S
H4348 N4336 0.984 . S
H4349 N4336 0.985 . S
C4350 C4351 1.363 . S
C4350 C4356 1.379 . S
C4350 N4358 1.356 . S
C4351 C4350 1.363 . S
C4351 C4357 1.363 . S
C4352 C4353 1.363 . S
C4352 C4357 1.379 . S
C4352 N4359 1.356 . S
C4353 C4352 1.363 . S
C4353 C4356 1.363 . S
N4354 C4356 1.356 . S
N4354 H4366 0.984 . S
N4354 H4367 0.985 . S
N4355 C4357 1.356 . S
N4355 H4360 0.984 . S
N4355 H4361 0.985 . S
C4356 C4350 1.379 . S
C4356 C4353 1.363 . S
C4356 N4354 1.356 . S
C4357 C4351 1.363 . S
C4357 C4352 1.379 . S
C4357 N4355 1.356 . S
N4358 C4350 1.356 . S
N4358 H4364 0.984 . S
N4358 H4365 0.984 . S
N4359 C4352 1.356 . S
N4359 H4362 0.984 . S
N4359 H4363 0.985 . S
H4360 N4355 0.984 . S
H4361 N4355 0.985 . S
H4362 N4359 0.984 . S
H4363 N4359 0.985 . S
H4364 N4358 0.984 . S
H4365 N4358 0.984 . S
H4366 N4354 0.984 . S
H4367 N4354 0.985 . S
C4368 C4369 1.363 . S
C4368 C4374 1.379 . S
C4368 N4376 1.356 . S
C4369 C4368 1.363 . S
C4369 C4375 1.363 . S
C4370 C4371 1.363 . S
C4370 C4375 1.379 . S
C4370 N4377 1.356 . S
C4371 C4370 1.363 . S
C4371 C4374 1.363 . S
N4372 C4374 1.356 . S
N4372 H4384 0.984 . S
N4372 H4385 0.985 . S
N4373 C4375 1.356 . S
N4373 H4378 0.984 . S
N4373 H4379 0.985 . S
C4374 C4368 1.379 . S
C4374 C4371 1.363 . S
C4374 N4372 1.356 . S
C4375 C4369 1.363 . S
C4375 C4370 1.379 . S
C4375 N4373 1.356 . S
N4376 C4368 1.356 . S
N4376 H4382 0.984 . S
N4376 H4383 0.984 . S
N4377 C4370 1.356 . S
N4377 H4380 0.984 . S
N4377 H4381 0.985 . S
H4378 N4373 0.984 . S
H4379 N4373 0.985 . S
H4380 N4377 0.984 . S
H4381 N4377 0.985 . S
H4382 N4376 0.984 . S
H4383 N4376 0.984 . S
H4384 N4372 0.984 . S
H4385 N4372 0.985 . S
C4386 C4387 1.363 . S
C4386 C4392 1.379 . S
C4386 N4394 1.356 . S
C4387 C4386 1.363 . S
C4387 C4393 1.363 . S
C4388 C4389 1.363 . S
C4388 C4393 1.379 . S
C4388 N4395 1.356 . S
C4389 C4388 1.363 . S
C4389 C4392 1.363 . S
N4390 C4392 1.356 . S
N4390 H4402 0.984 . S
N4390 H4403 0.985 . S
N4391 C4393 1.356 . S
N4391 H4396 0.984 . S
N4391 H4397 0.985 . S
C4392 C4386 1.379 . S
C4392 C4389 1.363 . S
C4392 N4390 1.356 . S
C4393 C4387 1.363 . S
C4393 C4388 1.379 . S
C4393 N4391 1.356 . S
N4394 C4386 1.356 . S
N4394 H4400 0.984 . S
N4394 H4401 0.984 . S
N4395 C4388 1.356 . S
N4395 H4398 0.984 . S
N4395 H4399 0.985 . S
H4396 N4391 0.984 . S
H4397 N4391 0.985 . S
H4398 N4395 0.984 . S
H4399 N4395 0.985 . S
H4400 N4394 0.984 . S
H4401 N4394 0.984 . S
H4402 N4390 0.984 . S
H4403 N4390 0.985 . S
C4404 C4405 1.363 . S
C4404 C4410 1.379 . S
C4404 N4412 1.356 . S
C4405 C4404 1.363 . S
C4405 C4411 1.363 . S
C4406 C4407 1.363 . S
C4406 C4411 1.379 . S
C4406 N4413 1.356 . S
C4407 C4406 1.363 . S
C4407 C4410 1.363 . S
N4408 C4410 1.356 . S
N4408 H4420 0.984 . S
N4408 H4421 0.985 . S
N4409 C4411 1.356 . S
N4409 H4414 0.984 . S
N4409 H4415 0.985 . S
C4410 C4404 1.379 . S
C4410 C4407 1.363 . S
C4410 N4408 1.356 . S
C4411 C4405 1.363 . S
C4411 C4406 1.379 . S
C4411 N4409 1.356 . S
N4412 C4404 1.356 . S
N4412 H4418 0.984 . S
N4412 H4419 0.984 . S
N4413 C4406 1.356 . S
N4413 H4416 0.984 . S
N4413 H4417 0.985 . S
H4414 N4409 0.984 . S
H4415 N4409 0.985 . S
H4416 N4413 0.984 . S
H4417 N4413 0.985 . S
H4418 N4412 0.984 . S
H4419 N4412 0.984 . S
H4420 N4408 0.984 . S
H4421 N4408 0.985 . S
C4422 C4423 1.363 . S
C4422 C4428 1.379 . S
C4422 N4430 1.356 . S
C4423 C4422 1.363 . S
C4423 C4429 1.363 . S
C4424 C4425 1.363 . S
C4424 C4429 1.379 . S
C4424 N4431 1.356 . S
C4425 C4424 1.363 . S
C4425 C4428 1.363 . S
N4426 C4428 1.356 . S
N4426 H4438 0.984 . S
N4426 H4439 0.985 . S
N4427 C4429 1.356 . S
N4427 H4432 0.984 . S
N4427 H4433 0.985 . S
C4428 C4422 1.379 . S
C4428 C4425 1.363 . S
C4428 N4426 1.356 . S
C4429 C4423 1.363 . S
C4429 C4424 1.379 . S
C4429 N4427 1.356 . S
N4430 C4422 1.356 . S
N4430 H4436 0.984 . S
N4430 H4437 0.984 . S
N4431 C4424 1.356 . S
N4431 H4434 0.984 . S
N4431 H4435 0.985 . S
H4432 N4427 0.984 . S
H4433 N4427 0.985 . S
H4434 N4431 0.984 . S
H4435 N4431 0.985 . S
H4436 N4430 0.984 . S
H4437 N4430 0.984 . S
H4438 N4426 0.984 . S
H4439 N4426 0.985 . S
C4440 C4441 1.363 . S
C4440 C4446 1.379 . S
C4440 N4448 1.356 . S
C4441 C4440 1.363 . S
C4441 C4447 1.363 . S
C4442 C4443 1.363 . S
C4442 C4447 1.379 . S
C4442 N4449 1.356 . S
C4443 C4442 1.363 . S
C4443 C4446 1.363 . S
N4444 C4446 1.356 . S
N4444 H4456 0.984 . S
N4444 H4457 0.985 . S
N4445 C4447 1.356 . S
N4445 H4450 0.984 . S
N4445 H4451 0.985 . S
C4446 C4440 1.379 . S
C4446 C4443 1.363 . S
C4446 N4444 1.356 . S
C4447 C4441 1.363 . S
C4447 C4442 1.379 . S
C4447 N4445 1.356 . S
N4448 C4440 1.356 . S
N4448 H4454 0.984 . S
N4448 H4455 0.984 . S
N4449 C4442 1.356 . S
N4449 H4452 0.984 . S
N4449 H4453 0.985 . S
H4450 N4445 0.984 . S
H4451 N4445 0.985 . S
H4452 N4449 0.984 . S
H4453 N4449 0.985 . S
H4454 N4448 0.984 . S
H4455 N4448 0.984 . S
H4456 N4444 0.984 . S
H4457 N4444 0.985 . S
C4458 C4459 1.363 . S
C4458 C4464 1.379 . S
C4458 N4466 1.356 . S
C4459 C4458 1.363 . S
C4459 C4465 1.363 . S
C4460 C4461 1.363 . S
C4460 C4465 1.379 . S
C4460 N4467 1.356 . S
C4461 C4460 1.363 . S
C4461 C4464 1.363 . S
N4462 C4464 1.356 . S
N4462 H4474 0.984 . S
N4462 H4475 0.985 . S
N4463 C4465 1.356 . S
N4463 H4468 0.984 . S
N4463 H4469 0.985 . S
C4464 C4458 1.379 . S
C4464 C4461 1.363 . S
C4464 N4462 1.356 . S
C4465 C4459 1.363 . S
C4465 C4460 1.379 . S
C4465 N4463 1.356 . S
N4466 C4458 1.356 . S
N4466 H4472 0.984 . S
N4466 H4473 0.984 . S
N4467 C4460 1.356 . S
N4467 H4470 0.984 . S
N4467 H4471 0.985 . S
H4468 N4463 0.984 . S
H4469 N4463 0.985 . S
H4470 N4467 0.984 . S
H4471 N4467 0.985 . S
H4472 N4466 0.984 . S
H4473 N4466 0.984 . S
H4474 N4462 0.984 . S
H4475 N4462 0.985 . S
C4476 C4477 1.363 . S
C4476 C4482 1.379 . S
C4476 N4484 1.356 . S
C4477 C4476 1.363 . S
C4477 C4483 1.363 . S
C4478 C4479 1.363 . S
C4478 C4483 1.379 . S
C4478 N4485 1.356 . S
C4479 C4478 1.363 . S
C4479 C4482 1.363 . S
N4480 C4482 1.356 . S
N4480 H4492 0.984 . S
N4480 H4493 0.985 . S
N4481 C4483 1.356 . S
N4481 H4486 0.984 . S
N4481 H4487 0.985 . S
C4482 C4476 1.379 . S
C4482 C4479 1.363 . S
C4482 N4480 1.356 . S
C4483 C4477 1.363 . S
C4483 C4478 1.379 . S
C4483 N4481 1.356 . S
N4484 C4476 1.356 . S
N4484 H4490 0.984 . S
N4484 H4491 0.984 . S
N4485 C4478 1.356 . S
N4485 H4488 0.984 . S
N4485 H4489 0.985 . S
H4486 N4481 0.984 . S
H4487 N4481 0.985 . S
H4488 N4485 0.984 . S
H4489 N4485 0.985 . S
H4490 N4484 0.984 . S
H4491 N4484 0.984 . S
H4492 N4480 0.984 . S
H4493 N4480 0.985 . S
C4494 C4495 1.363 . S
C4494 C4500 1.379 . S
C4494 N4502 1.356 . S
C4495 C4494 1.363 . S
C4495 C4501 1.363 . S
C4496 C4497 1.363 . S
C4496 C4501 1.379 . S
C4496 N4503 1.356 . S
C4497 C4496 1.363 . S
C4497 C4500 1.363 . S
N4498 C4500 1.356 . S
N4498 H4510 0.984 . S
N4498 H4511 0.985 . S
N4499 C4501 1.356 . S
N4499 H4504 0.984 . S
N4499 H4505 0.985 . S
C4500 C4494 1.379 . S
C4500 C4497 1.363 . S
C4500 N4498 1.356 . S
C4501 C4495 1.363 . S
C4501 C4496 1.379 . S
C4501 N4499 1.356 . S
N4502 C4494 1.356 . S
N4502 H4508 0.984 . S
N4502 H4509 0.984 . S
N4503 C4496 1.356 . S
N4503 H4506 0.984 . S
N4503 H4507 0.985 . S
H4504 N4499 0.984 . S
H4505 N4499 0.985 . S
H4506 N4503 0.984 . S
H4507 N4503 0.985 . S
H4508 N4502 0.984 . S
H4509 N4502 0.984 . S
H4510 N4498 0.984 . S
H4511 N4498 0.985 . S
C4512 C4513 1.363 . S
C4512 C4518 1.379 . S
C4512 N4520 1.356 . S
C4513 C4512 1.363 . S
C4513 C4519 1.363 . S
C4514 C4515 1.363 . S
C4514 C4519 1.379 . S
C4514 N4521 1.356 . S
C4515 C4514 1.363 . S
C4515 C4518 1.363 . S
N4516 C4518 1.356 . S
N4516 H4528 0.984 . S
N4516 H4529 0.985 . S
N4517 C4519 1.356 . S
N4517 H4522 0.984 . S
N4517 H4523 0.985 . S
C4518 C4512 1.379 . S
C4518 C4515 1.363 . S
C4518 N4516 1.356 . S
C4519 C4513 1.363 . S
C4519 C4514 1.379 . S
C4519 N4517 1.356 . S
N4520 C4512 1.356 . S
N4520 H4526 0.984 . S
N4520 H4527 0.984 . S
N4521 C4514 1.356 . S
N4521 H4524 0.984 . S
N4521 H4525 0.985 . S
H4522 N4517 0.984 . S
H4523 N4517 0.985 . S
H4524 N4521 0.984 . S
H4525 N4521 0.985 . S
H4526 N4520 0.984 . S
H4527 N4520 0.984 . S
H4528 N4516 0.984 . S
H4529 N4516 0.985 . S
C4530 C4531 1.363 . S
C4530 C4536 1.379 . S
C4530 N4538 1.356 . S
C4531 C4530 1.363 . S
C4531 C4537 1.363 . S
C4532 C4533 1.363 . S
C4532 C4537 1.379 . S
C4532 N4539 1.356 . S
C4533 C4532 1.363 . S
C4533 C4536 1.363 . S
N4534 C4536 1.356 . S
N4534 H4546 0.984 . S
N4534 H4547 0.985 . S
N4535 C4537 1.356 . S
N4535 H4540 0.984 . S
N4535 H4541 0.985 . S
C4536 C4530 1.379 . S
C4536 C4533 1.363 . S
C4536 N4534 1.356 . S
C4537 C4531 1.363 . S
C4537 C4532 1.379 . S
C4537 N4535 1.356 . S
N4538 C4530 1.356 . S
N4538 H4544 0.984 . S
N4538 H4545 0.984 . S
N4539 C4532 1.356 . S
N4539 H4542 0.984 . S
N4539 H4543 0.985 . S
H4540 N4535 0.984 . S
H4541 N4535 0.985 . S
H4542 N4539 0.984 . S
H4543 N4539 0.985 . S
H4544 N4538 0.984 . S
H4545 N4538 0.984 . S
H4546 N4534 0.984 . S
H4547 N4534 0.985 . S
C4548 C4549 1.363 . S
C4548 C4554 1.379 . S
C4548 N4556 1.356 . S
C4549 C4548 1.363 . S
C4549 C4555 1.363 . S
C4550 C4551 1.363 . S
C4550 C4555 1.379 . S
C4550 N4557 1.356 . S
C4551 C4550 1.363 . S
C4551 C4554 1.363 . S
N4552 C4554 1.356 . S
N4552 H4564 0.984 . S
N4552 H4565 0.985 . S
N4553 C4555 1.356 . S
N4553 H4558 0.984 . S
N4553 H4559 0.985 . S
C4554 C4548 1.379 . S
C4554 C4551 1.363 . S
C4554 N4552 1.356 . S
C4555 C4549 1.363 . S
C4555 C4550 1.379 . S
C4555 N4553 1.356 . S
N4556 C4548 1.356 . S
N4556 H4562 0.984 . S
N4556 H4563 0.984 . S
N4557 C4550 1.356 . S
N4557 H4560 0.984 . S
N4557 H4561 0.985 . S
H4558 N4553 0.984 . S
H4559 N4553 0.985 . S
H4560 N4557 0.984 . S
H4561 N4557 0.985 . S
H4562 N4556 0.984 . S
H4563 N4556 0.984 . S
H4564 N4552 0.984 . S
H4565 N4552 0.985 . S
C4566 C4567 1.363 . S
C4566 C4572 1.379 . S
C4566 N4574 1.356 . S
C4567 C4566 1.363 . S
C4567 C4573 1.363 . S
C4568 C4569 1.363 . S
C4568 C4573 1.379 . S
C4568 N4575 1.356 . S
C4569 C4568 1.363 . S
C4569 C4572 1.363 . S
N4570 C4572 1.356 . S
N4570 H4582 0.984 . S
N4570 H4583 0.985 . S
N4571 C4573 1.356 . S
N4571 H4576 0.984 . S
N4571 H4577 0.985 . S
C4572 C4566 1.379 . S
C4572 C4569 1.363 . S
C4572 N4570 1.356 . S
C4573 C4567 1.363 . S
C4573 C4568 1.379 . S
C4573 N4571 1.356 . S
N4574 C4566 1.356 . S
N4574 H4580 0.984 . S
N4574 H4581 0.984 . S
N4575 C4568 1.356 . S
N4575 H4578 0.984 . S
N4575 H4579 0.985 . S
H4576 N4571 0.984 . S
H4577 N4571 0.985 . S
H4578 N4575 0.984 . S
H4579 N4575 0.985 . S
H4580 N4574 0.984 . S
H4581 N4574 0.984 . S
H4582 N4570 0.984 . S
H4583 N4570 0.985 . S
C4584 C4585 1.363 . S
C4584 C4590 1.379 . S
C4584 N4592 1.356 . S
C4585 C4584 1.363 . S
C4585 C4591 1.363 . S
C4586 C4587 1.363 . S
C4586 C4591 1.379 . S
C4586 N4593 1.356 . S
C4587 C4586 1.363 . S
C4587 C4590 1.363 . S
N4588 C4590 1.356 . S
N4588 H4600 0.984 . S
N4588 H4601 0.985 . S
N4589 C4591 1.356 . S
N4589 H4594 0.984 . S
N4589 H4595 0.985 . S
C4590 C4584 1.379 . S
C4590 C4587 1.363 . S
C4590 N4588 1.356 . S
C4591 C4585 1.363 . S
C4591 C4586 1.379 . S
C4591 N4589 1.356 . S
N4592 C4584 1.356 . S
N4592 H4598 0.984 . S
N4592 H4599 0.984 . S
N4593 C4586 1.356 . S
N4593 H4596 0.984 . S
N4593 H4597 0.985 . S
H4594 N4589 0.984 . S
H4595 N4589 0.985 . S
H4596 N4593 0.984 . S
H4597 N4593 0.985 . S
H4598 N4592 0.984 . S
H4599 N4592 0.984 . S
H4600 N4588 0.984 . S
H4601 N4588 0.985 . S
C4602 C4603 1.363 . S
C4602 C4608 1.379 . S
C4602 N4610 1.356 . S
C4603 C4602 1.363 . S
C4603 C4609 1.363 . S
C4604 C4605 1.363 . S
C4604 C4609 1.379 . S
C4604 N4611 1.356 . S
C4605 C4604 1.363 . S
C4605 C4608 1.363 . S
N4606 C4608 1.356 . S
N4606 H4618 0.984 . S
N4606 H4619 0.985 . S
N4607 C4609 1.356 . S
N4607 H4612 0.984 . S
N4607 H4613 0.985 . S
C4608 C4602 1.379 . S
C4608 C4605 1.363 . S
C4608 N4606 1.356 . S
C4609 C4603 1.363 . S
C4609 C4604 1.379 . S
C4609 N4607 1.356 . S
N4610 C4602 1.356 . S
N4610 H4616 0.984 . S
N4610 H4617 0.984 . S
N4611 C4604 1.356 . S
N4611 H4614 0.984 . S
N4611 H4615 0.985 . S
H4612 N4607 0.984 . S
H4613 N4607 0.985 . S
H4614 N4611 0.984 . S
H4615 N4611 0.985 . S
H4616 N4610 0.984 . S
H4617 N4610 0.984 . S
H4618 N4606 0.984 . S
H4619 N4606 0.985 . S
C4620 C4621 1.363 . S
C4620 C4626 1.379 . S
C4620 N4628 1.356 . S
C4621 C4620 1.363 . S
C4621 C4627 1.363 . S
C4622 C4623 1.363 . S
C4622 C4627 1.379 . S
C4622 N4629 1.356 . S
C4623 C4622 1.363 . S
C4623 C4626 1.363 . S
N4624 C4626 1.356 . S
N4624 H4636 0.984 . S
N4624 H4637 0.985 . S
N4625 C4627 1.356 . S
N4625 H4630 0.984 . S
N4625 H4631 0.985 . S
C4626 C4620 1.379 . S
C4626 C4623 1.363 . S
C4626 N4624 1.356 . S
C4627 C4621 1.363 . S
C4627 C4622 1.379 . S
C4627 N4625 1.356 . S
N4628 C4620 1.356 . S
N4628 H4634 0.984 . S
N4628 H4635 0.984 . S
N4629 C4622 1.356 . S
N4629 H4632 0.984 . S
N4629 H4633 0.985 . S
H4630 N4625 0.984 . S
H4631 N4625 0.985 . S
H4632 N4629 0.984 . S
H4633 N4629 0.985 . S
H4634 N4628 0.984 . S
H4635 N4628 0.984 . S
H4636 N4624 0.984 . S
H4637 N4624 0.985 . S
C4638 C4639 1.363 . S
C4638 C4644 1.379 . S
C4638 N4646 1.356 . S
C4639 C4638 1.363 . S
C4639 C4645 1.363 . S
C4640 C4641 1.363 . S
C4640 C4645 1.379 . S
C4640 N4647 1.356 . S
C4641 C4640 1.363 . S
C4641 C4644 1.363 . S
N4642 C4644 1.356 . S
N4642 H4654 0.984 . S
N4642 H4655 0.985 . S
N4643 C4645 1.356 . S
N4643 H4648 0.984 . S
N4643 H4649 0.985 . S
C4644 C4638 1.379 . S
C4644 C4641 1.363 . S
C4644 N4642 1.356 . S
C4645 C4639 1.363 . S
C4645 C4640 1.379 . S
C4645 N4643 1.356 . S
N4646 C4638 1.356 . S
N4646 H4652 0.984 . S
N4646 H4653 0.984 . S
N4647 C4640 1.356 . S
N4647 H4650 0.984 . S
N4647 H4651 0.985 . S
H4648 N4643 0.984 . S
H4649 N4643 0.985 . S
H4650 N4647 0.984 . S
H4651 N4647 0.985 . S
H4652 N4646 0.984 . S
H4653 N4646 0.984 . S
H4654 N4642 0.984 . S
H4655 N4642 0.985 . S
C4656 C4657 1.363 . S
C4656 C4662 1.379 . S
C4656 N4664 1.356 . S
C4657 C4656 1.363 . S
C4657 C4663 1.363 . S
C4658 C4659 1.363 . S
C4658 C4663 1.379 . S
C4658 N4665 1.356 . S
C4659 C4658 1.363 . S
C4659 C4662 1.363 . S
N4660 C4662 1.356 . S
N4660 H4672 0.984 . S
N4660 H4673 0.985 . S
N4661 C4663 1.356 . S
N4661 H4666 0.984 . S
N4661 H4667 0.985 . S
C4662 C4656 1.379 . S
C4662 C4659 1.363 . S
C4662 N4660 1.356 . S
C4663 C4657 1.363 . S
C4663 C4658 1.379 . S
C4663 N4661 1.356 . S
N4664 C4656 1.356 . S
N4664 H4670 0.984 . S
N4664 H4671 0.984 . S
N4665 C4658 1.356 . S
N4665 H4668 0.984 . S
N4665 H4669 0.985 . S
H4666 N4661 0.984 . S
H4667 N4661 0.985 . S
H4668 N4665 0.984 . S
H4669 N4665 0.985 . S
H4670 N4664 0.984 . S
H4671 N4664 0.984 . S
H4672 N4660 0.984 . S
H4673 N4660 0.985 . S
C4674 C4675 1.363 . S
C4674 C4680 1.379 . S
C4674 N4682 1.356 . S
C4675 C4674 1.363 . S
C4675 C4681 1.363 . S
C4676 C4677 1.363 . S
C4676 C4681 1.379 . S
C4676 N4683 1.356 . S
C4677 C4676 1.363 . S
C4677 C4680 1.363 . S
N4678 C4680 1.356 . S
N4678 H4690 0.984 . S
N4678 H4691 0.985 . S
N4679 C4681 1.356 . S
N4679 H4684 0.984 . S
N4679 H4685 0.985 . S
C4680 C4674 1.379 . S
C4680 C4677 1.363 . S
C4680 N4678 1.356 . S
C4681 C4675 1.363 . S
C4681 C4676 1.379 . S
C4681 N4679 1.356 . S
N4682 C4674 1.356 . S
N4682 H4688 0.984 . S
N4682 H4689 0.984 . S
N4683 C4676 1.356 . S
N4683 H4686 0.984 . S
N4683 H4687 0.985 . S
H4684 N4679 0.984 . S
H4685 N4679 0.985 . S
H4686 N4683 0.984 . S
H4687 N4683 0.985 . S
H4688 N4682 0.984 . S
H4689 N4682 0.984 . S
H4690 N4678 0.984 . S
H4691 N4678 0.985 . S
C4692 C4693 1.363 . S
C4692 C4698 1.379 . S
C4692 N4700 1.356 . S
C4693 C4692 1.363 . S
C4693 C4699 1.363 . S
C4694 C4695 1.363 . S
C4694 C4699 1.379 . S
C4694 N4701 1.356 . S
C4695 C4694 1.363 . S
C4695 C4698 1.363 . S
N4696 C4698 1.356 . S
N4696 H4708 0.984 . S
N4696 H4709 0.985 . S
N4697 C4699 1.356 . S
N4697 H4702 0.984 . S
N4697 H4703 0.985 . S
C4698 C4692 1.379 . S
C4698 C4695 1.363 . S
C4698 N4696 1.356 . S
C4699 C4693 1.363 . S
C4699 C4694 1.379 . S
C4699 N4697 1.356 . S
N4700 C4692 1.356 . S
N4700 H4706 0.984 . S
N4700 H4707 0.984 . S
N4701 C4694 1.356 . S
N4701 H4704 0.984 . S
N4701 H4705 0.985 . S
H4702 N4697 0.984 . S
H4703 N4697 0.985 . S
H4704 N4701 0.984 . S
H4705 N4701 0.985 . S
H4706 N4700 0.984 . S
H4707 N4700 0.984 . S
H4708 N4696 0.984 . S
H4709 N4696 0.985 . S
C4710 C4711 1.363 . S
C4710 C4716 1.379 . S
C4710 N4718 1.356 . S
C4711 C4710 1.363 . S
C4711 C4717 1.363 . S
C4712 C4713 1.363 . S
C4712 C4717 1.379 . S
C4712 N4719 1.356 . S
C4713 C4712 1.363 . S
C4713 C4716 1.363 . S
N4714 C4716 1.356 . S
N4714 H4726 0.984 . S
N4714 H4727 0.985 . S
N4715 C4717 1.356 . S
N4715 H4720 0.984 . S
N4715 H4721 0.985 . S
C4716 C4710 1.379 . S
C4716 C4713 1.363 . S
C4716 N4714 1.356 . S
C4717 C4711 1.363 . S
C4717 C4712 1.379 . S
C4717 N4715 1.356 . S
N4718 C4710 1.356 . S
N4718 H4724 0.984 . S
N4718 H4725 0.984 . S
N4719 C4712 1.356 . S
N4719 H4722 0.984 . S
N4719 H4723 0.985 . S
H4720 N4715 0.984 . S
H4721 N4715 0.985 . S
H4722 N4719 0.984 . S
H4723 N4719 0.985 . S
H4724 N4718 0.984 . S
H4725 N4718 0.984 . S
H4726 N4714 0.984 . S
H4727 N4714 0.985 . S
C4728 C4729 1.363 . S
C4728 C4734 1.379 . S
C4728 N4736 1.356 . S
C4729 C4728 1.363 . S
C4729 C4735 1.363 . S
C4730 C4731 1.363 . S
C4730 C4735 1.379 . S
C4730 N4737 1.356 . S
C4731 C4730 1.363 . S
C4731 C4734 1.363 . S
N4732 C4734 1.356 . S
N4732 H4744 0.984 . S
N4732 H4745 0.985 . S
N4733 C4735 1.356 . S
N4733 H4738 0.984 . S
N4733 H4739 0.985 . S
C4734 C4728 1.379 . S
C4734 C4731 1.363 . S
C4734 N4732 1.356 . S
C4735 C4729 1.363 . S
C4735 C4730 1.379 . S
C4735 N4733 1.356 . S
N4736 C4728 1.356 . S
N4736 H4742 0.984 . S
N4736 H4743 0.984 . S
N4737 C4730 1.356 . S
N4737 H4740 0.984 . S
N4737 H4741 0.985 . S
H4738 N4733 0.984 . S
H4739 N4733 0.985 . S
H4740 N4737 0.984 . S
H4741 N4737 0.985 . S
H4742 N4736 0.984 . S
H4743 N4736 0.984 . S
H4744 N4732 0.984 . S
H4745 N4732 0.985 . S
C4746 C4747 1.363 . S
C4746 C4752 1.379 . S
C4746 N4754 1.356 . S
C4747 C4746 1.363 . S
C4747 C4753 1.363 . S
C4748 C4749 1.363 . S
C4748 C4753 1.379 . S
C4748 N4755 1.356 . S
C4749 C4748 1.363 . S
C4749 C4752 1.363 . S
N4750 C4752 1.356 . S
N4750 H4762 0.984 . S
N4750 H4763 0.985 . S
N4751 C4753 1.356 . S
N4751 H4756 0.984 . S
N4751 H4757 0.985 . S
C4752 C4746 1.379 . S
C4752 C4749 1.363 . S
C4752 N4750 1.356 . S
C4753 C4747 1.363 . S
C4753 C4748 1.379 . S
C4753 N4751 1.356 . S
N4754 C4746 1.356 . S
N4754 H4760 0.984 . S
N4754 H4761 0.984 . S
N4755 C4748 1.356 . S
N4755 H4758 0.984 . S
N4755 H4759 0.985 . S
H4756 N4751 0.984 . S
H4757 N4751 0.985 . S
H4758 N4755 0.984 . S
H4759 N4755 0.985 . S
H4760 N4754 0.984 . S
H4761 N4754 0.984 . S
H4762 N4750 0.984 . S
H4763 N4750 0.985 . S
C4764 C4765 1.363 . S
C4764 C4770 1.379 . S
C4764 N4772 1.356 . S
C4765 C4764 1.363 . S
C4765 C4771 1.363 . S
C4766 C4767 1.363 . S
C4766 C4771 1.379 . S
C4766 N4773 1.356 . S
C4767 C4766 1.363 . S
C4767 C4770 1.363 . S
N4768 C4770 1.356 . S
N4768 H4780 0.984 . S
N4768 H4781 0.985 . S
N4769 C4771 1.356 . S
N4769 H4774 0.984 . S
N4769 H4775 0.985 . S
C4770 C4764 1.379 . S
C4770 C4767 1.363 . S
C4770 N4768 1.356 . S
C4771 C4765 1.363 . S
C4771 C4766 1.379 . S
C4771 N4769 1.356 . S
N4772 C4764 1.356 . S
N4772 H4778 0.984 . S
N4772 H4779 0.984 . S
N4773 C4766 1.356 . S
N4773 H4776 0.984 . S
N4773 H4777 0.985 . S
H4774 N4769 0.984 . S
H4775 N4769 0.985 . S
H4776 N4773 0.984 . S
H4777 N4773 0.985 . S
H4778 N4772 0.984 . S
H4779 N4772 0.984 . S
H4780 N4768 0.984 . S
H4781 N4768 0.985 . S
C4782 C4783 1.363 . S
C4782 C4788 1.379 . S
C4782 N4790 1.356 . S
C4783 C4782 1.363 . S
C4783 C4789 1.363 . S
C4784 C4785 1.363 . S
C4784 C4789 1.379 . S
C4784 N4791 1.356 . S
C4785 C4784 1.363 . S
C4785 C4788 1.363 . S
N4786 C4788 1.356 . S
N4786 H4798 0.984 . S
N4786 H4799 0.985 . S
N4787 C4789 1.356 . S
N4787 H4792 0.984 . S
N4787 H4793 0.985 . S
C4788 C4782 1.379 . S
C4788 C4785 1.363 . S
C4788 N4786 1.356 . S
C4789 C4783 1.363 . S
C4789 C4784 1.379 . S
C4789 N4787 1.356 . S
N4790 C4782 1.356 . S
N4790 H4796 0.984 . S
N4790 H4797 0.984 . S
N4791 C4784 1.356 . S
N4791 H4794 0.984 . S
N4791 H4795 0.985 . S
H4792 N4787 0.984 . S
H4793 N4787 0.985 . S
H4794 N4791 0.984 . S
H4795 N4791 0.985 . S
H4796 N4790 0.984 . S
H4797 N4790 0.984 . S
H4798 N4786 0.984 . S
H4799 N4786 0.985 . S
C4800 C4801 1.363 . S
C4800 C4806 1.379 . S
C4800 N4808 1.356 . S
C4801 C4800 1.363 . S
C4801 C4807 1.363 . S
C4802 C4803 1.363 . S
C4802 C4807 1.379 . S
C4802 N4809 1.356 . S
C4803 C4802 1.363 . S
C4803 C4806 1.363 . S
N4804 C4806 1.356 . S
N4804 H4816 0.984 . S
N4804 H4817 0.985 . S
N4805 C4807 1.356 . S
N4805 H4810 0.984 . S
N4805 H4811 0.985 . S
C4806 C4800 1.379 . S
C4806 C4803 1.363 . S
C4806 N4804 1.356 . S
C4807 C4801 1.363 . S
C4807 C4802 1.379 . S
C4807 N4805 1.356 . S
N4808 C4800 1.356 . S
N4808 H4814 0.984 . S
N4808 H4815 0.984 . S
N4809 C4802 1.356 . S
N4809 H4812 0.984 . S
N4809 H4813 0.985 . S
H4810 N4805 0.984 . S
H4811 N4805 0.985 . S
H4812 N4809 0.984 . S
H4813 N4809 0.985 . S
H4814 N4808 0.984 . S
H4815 N4808 0.984 . S
H4816 N4804 0.984 . S
H4817 N4804 0.985 . S
C4818 C4819 1.363 . S
C4818 C4824 1.379 . S
C4818 N4826 1.356 . S
C4819 C4818 1.363 . S
C4819 C4825 1.363 . S
C4820 C4821 1.363 . S
C4820 C4825 1.379 . S
C4820 N4827 1.356 . S
C4821 C4820 1.363 . S
C4821 C4824 1.363 . S
N4822 C4824 1.356 . S
N4822 H4834 0.984 . S
N4822 H4835 0.985 . S
N4823 C4825 1.356 . S
N4823 H4828 0.984 . S
N4823 H4829 0.985 . S
C4824 C4818 1.379 . S
C4824 C4821 1.363 . S
C4824 N4822 1.356 . S
C4825 C4819 1.363 . S
C4825 C4820 1.379 . S
C4825 N4823 1.356 . S
N4826 C4818 1.356 . S
N4826 H4832 0.984 . S
N4826 H4833 0.984 . S
N4827 C4820 1.356 . S
N4827 H4830 0.984 . S
N4827 H4831 0.985 . S
H4828 N4823 0.984 . S
H4829 N4823 0.985 . S
H4830 N4827 0.984 . S
H4831 N4827 0.985 . S
H4832 N4826 0.984 . S
H4833 N4826 0.984 . S
H4834 N4822 0.984 . S
H4835 N4822 0.985 . S
C4836 C4837 1.363 . S
C4836 C4842 1.379 . S
C4836 N4844 1.356 . S
C4837 C4836 1.363 . S
C4837 C4843 1.363 . S
C4838 C4839 1.363 . S
C4838 C4843 1.379 . S
C4838 N4845 1.356 . S
C4839 C4838 1.363 . S
C4839 C4842 1.363 . S
N4840 C4842 1.356 . S
N4840 H4852 0.984 . S
N4840 H4853 0.985 . S
N4841 C4843 1.356 . S
N4841 H4846 0.984 . S
N4841 H4847 0.985 . S
C4842 C4836 1.379 . S
C4842 C4839 1.363 . S
C4842 N4840 1.356 . S
C4843 C4837 1.363 . S
C4843 C4838 1.379 . S
C4843 N4841 1.356 . S
N4844 C4836 1.356 . S
N4844 H4850 0.984 . S
N4844 H4851 0.984 . S
N4845 C4838 1.356 . S
N4845 H4848 0.984 . S
N4845 H4849 0.985 . S
H4846 N4841 0.984 . S
H4847 N4841 0.985 . S
H4848 N4845 0.984 . S
H4849 N4845 0.985 . S
H4850 N4844 0.984 . S
H4851 N4844 0.984 . S
H4852 N4840 0.984 . S
H4853 N4840 0.985 . S
C4854 C4855 1.363 . S
C4854 C4860 1.379 . S
C4854 N4862 1.356 . S
C4855 C4854 1.363 . S
C4855 C4861 1.363 . S
C4856 C4857 1.363 . S
C4856 C4861 1.379 . S
C4856 N4863 1.356 . S
C4857 C4856 1.363 . S
C4857 C4860 1.363 . S
N4858 C4860 1.356 . S
N4858 H4870 0.984 . S
N4858 H4871 0.985 . S
N4859 C4861 1.356 . S
N4859 H4864 0.984 . S
N4859 H4865 0.985 . S
C4860 C4854 1.379 . S
C4860 C4857 1.363 . S
C4860 N4858 1.356 . S
C4861 C4855 1.363 . S
C4861 C4856 1.379 . S
C4861 N4859 1.356 . S
N4862 C4854 1.356 . S
N4862 H4868 0.984 . S
N4862 H4869 0.984 . S
N4863 C4856 1.356 . S
N4863 H4866 0.984 . S
N4863 H4867 0.985 . S
H4864 N4859 0.984 . S
H4865 N4859 0.985 . S
H4866 N4863 0.984 . S
H4867 N4863 0.985 . S
H4868 N4862 0.984 . S
H4869 N4862 0.984 . S
H4870 N4858 0.984 . S
H4871 N4858 0.985 . S
C4872 C4873 1.363 . S
C4872 C4878 1.379 . S
C4872 N4880 1.356 . S
C4873 C4872 1.363 . S
C4873 C4879 1.363 . S
C4874 C4875 1.363 . S
C4874 C4879 1.379 . S
C4874 N4881 1.356 . S
C4875 C4874 1.363 . S
C4875 C4878 1.363 . S
N4876 C4878 1.356 . S
N4876 H4888 0.984 . S
N4876 H4889 0.985 . S
N4877 C4879 1.356 . S
N4877 H4882 0.984 . S
N4877 H4883 0.985 . S
C4878 C4872 1.379 . S
C4878 C4875 1.363 . S
C4878 N4876 1.356 . S
C4879 C4873 1.363 . S
C4879 C4874 1.379 . S
C4879 N4877 1.356 . S
N4880 C4872 1.356 . S
N4880 H4886 0.984 . S
N4880 H4887 0.984 . S
N4881 C4874 1.356 . S
N4881 H4884 0.984 . S
N4881 H4885 0.985 . S
H4882 N4877 0.984 . S
H4883 N4877 0.985 . S
H4884 N4881 0.984 . S
H4885 N4881 0.985 . S
H4886 N4880 0.984 . S
H4887 N4880 0.984 . S
H4888 N4876 0.984 . S
H4889 N4876 0.985 . S
C4890 C4891 1.363 . S
C4890 C4896 1.379 . S
C4890 N4898 1.356 . S
C4891 C4890 1.363 . S
C4891 C4897 1.363 . S
C4892 C4893 1.363 . S
C4892 C4897 1.379 . S
C4892 N4899 1.356 . S
C4893 C4892 1.363 . S
C4893 C4896 1.363 . S
N4894 C4896 1.356 . S
N4894 H4906 0.984 . S
N4894 H4907 0.985 . S
N4895 C4897 1.356 . S
N4895 H4900 0.984 . S
N4895 H4901 0.985 . S
C4896 C4890 1.379 . S
C4896 C4893 1.363 . S
C4896 N4894 1.356 . S
C4897 C4891 1.363 . S
C4897 C4892 1.379 . S
C4897 N4895 1.356 . S
N4898 C4890 1.356 . S
N4898 H4904 0.984 . S
N4898 H4905 0.984 . S
N4899 C4892 1.356 . S
N4899 H4902 0.984 . S
N4899 H4903 0.985 . S
H4900 N4895 0.984 . S
H4901 N4895 0.985 . S
H4902 N4899 0.984 . S
H4903 N4899 0.985 . S
H4904 N4898 0.984 . S
H4905 N4898 0.984 . S
H4906 N4894 0.984 . S
H4907 N4894 0.985 . S
C4908 C4909 1.363 . S
C4908 C4914 1.379 . S
C4908 N4916 1.356 . S
C4909 C4908 1.363 . S
C4909 C4915 1.363 . S
C4910 C4911 1.363 . S
C4910 C4915 1.379 . S
C4910 N4917 1.356 . S
C4911 C4910 1.363 . S
C4911 C4914 1.363 . S
N4912 C4914 1.356 . S
N4912 H4924 0.984 . S
N4912 H4925 0.985 . S
N4913 C4915 1.356 . S
N4913 H4918 0.984 . S
N4913 H4919 0.985 . S
C4914 C4908 1.379 . S
C4914 C4911 1.363 . S
C4914 N4912 1.356 . S
C4915 C4909 1.363 . S
C4915 C4910 1.379 . S
C4915 N4913 1.356 . S
N4916 C4908 1.356 . S
N4916 H4922 0.984 . S
N4916 H4923 0.984 . S
N4917 C4910 1.356 . S
N4917 H4920 0.984 . S
N4917 H4921 0.985 . S
H4918 N4913 0.984 . S
H4919 N4913 0.985 . S
H4920 N4917 0.984 . S
H4921 N4917 0.985 . S
H4922 N4916 0.984 . S
H4923 N4916 0.984 . S
H4924 N4912 0.984 . S
H4925 N4912 0.985 . S
C4926 C4927 1.363 . S
C4926 C4932 1.379 . S
C4926 N4934 1.356 . S
C4927 C4926 1.363 . S
C4927 C4933 1.363 . S
C4928 C4929 1.363 . S
C4928 C4933 1.379 . S
C4928 N4935 1.356 . S
C4929 C4928 1.363 . S
C4929 C4932 1.363 . S
N4930 C4932 1.356 . S
N4930 H4942 0.984 . S
N4930 H4943 0.985 . S
N4931 C4933 1.356 . S
N4931 H4936 0.984 . S
N4931 H4937 0.985 . S
C4932 C4926 1.379 . S
C4932 C4929 1.363 . S
C4932 N4930 1.356 . S
C4933 C4927 1.363 . S
C4933 C4928 1.379 . S
C4933 N4931 1.356 . S
N4934 C4926 1.356 . S
N4934 H4940 0.984 . S
N4934 H4941 0.984 . S
N4935 C4928 1.356 . S
N4935 H4938 0.984 . S
N4935 H4939 0.985 . S
H4936 N4931 0.984 . S
H4937 N4931 0.985 . S
H4938 N4935 0.984 . S
H4939 N4935 0.985 . S
H4940 N4934 0.984 . S
H4941 N4934 0.984 . S
H4942 N4930 0.984 . S
H4943 N4930 0.985 . S
C4944 C4945 1.363 . S
C4944 C4950 1.379 . S
C4944 N4952 1.356 . S
C4945 C4944 1.363 . S
C4945 C4951 1.363 . S
C4946 C4947 1.363 . S
C4946 C4951 1.379 . S
C4946 N4953 1.356 . S
C4947 C4946 1.363 . S
C4947 C4950 1.363 . S
N4948 C4950 1.356 . S
N4948 H4960 0.984 . S
N4948 H4961 0.985 . S
N4949 C4951 1.356 . S
N4949 H4954 0.984 . S
N4949 H4955 0.985 . S
C4950 C4944 1.379 . S
C4950 C4947 1.363 . S
C4950 N4948 1.356 . S
C4951 C4945 1.363 . S
C4951 C4946 1.379 . S
C4951 N4949 1.356 . S
N4952 C4944 1.356 . S
N4952 H4958 0.984 . S
N4952 H4959 0.984 . S
N4953 C4946 1.356 . S
N4953 H4956 0.984 . S
N4953 H4957 0.985 . S
H4954 N4949 0.984 . S
H4955 N4949 0.985 . S
H4956 N4953 0.984 . S
H4957 N4953 0.985 . S
H4958 N4952 0.984 . S
H4959 N4952 0.984 . S
H4960 N4948 0.984 . S
H4961 N4948 0.985 . S
C4962 C4963 1.363 . S
C4962 C4968 1.379 . S
C4962 N4970 1.356 . S
C4963 C4962 1.363 . S
C4963 C4969 1.363 . S
C4964 C4965 1.363 . S
C4964 C4969 1.379 . S
C4964 N4971 1.356 . S
C4965 C4964 1.363 . S
C4965 C4968 1.363 . S
N4966 C4968 1.356 . S
N4966 H4978 0.984 . S
N4966 H4979 0.985 . S
N4967 C4969 1.356 . S
N4967 H4972 0.984 . S
N4967 H4973 0.985 . S
C4968 C4962 1.379 . S
C4968 C4965 1.363 . S
C4968 N4966 1.356 . S
C4969 C4963 1.363 . S
C4969 C4964 1.379 . S
C4969 N4967 1.356 . S
N4970 C4962 1.356 . S
N4970 H4976 0.984 . S
N4970 H4977 0.984 . S
N4971 C4964 1.356 . S
N4971 H4974 0.984 . S
N4971 H4975 0.985 . S
H4972 N4967 0.984 . S
H4973 N4967 0.985 . S
H4974 N4971 0.984 . S
H4975 N4971 0.985 . S
H4976 N4970 0.984 . S
H4977 N4970 0.984 . S
H4978 N4966 0.984 . S
H4979 N4966 0.985 . S
C4980 C4981 1.363 . S
C4980 C4986 1.379 . S
C4980 N4988 1.356 . S
C4981 C4980 1.363 . S
C4981 C4987 1.363 . S
C4982 C4983 1.363 . S
C4982 C4987 1.379 . S
C4982 N4989 1.356 . S
C4983 C4982 1.363 . S
C4983 C4986 1.363 . S
N4984 C4986 1.356 . S
N4984 H4996 0.984 . S
N4984 H4997 0.985 . S
N4985 C4987 1.356 . S
N4985 H4990 0.984 . S
N4985 H4991 0.985 . S
C4986 C4980 1.379 . S
C4986 C4983 1.363 . S
C4986 N4984 1.356 . S
C4987 C4981 1.363 . S
C4987 C4982 1.379 . S
C4987 N4985 1.356 . S
N4988 C4980 1.356 . S
N4988 H4994 0.984 . S
N4988 H4995 0.984 . S
N4989 C4982 1.356 . S
N4989 H4992 0.984 . S
N4989 H4993 0.985 . S
H4990 N4985 0.984 . S
H4991 N4985 0.985 . S
H4992 N4989 0.984 . S
H4993 N4989 0.985 . S
H4994 N4988 0.984 . S
H4995 N4988 0.984 . S
H4996 N4984 0.984 . S
H4997 N4984 0.985 . S
C4998 C4999 1.363 . S
C4998 C5004 1.379 . S
C4998 N5006 1.356 . S
C4999 C4998 1.363 . S
C4999 C5005 1.363 . S
C5000 C5001 1.363 . S
C5000 C5005 1.379 . S
C5000 N5007 1.356 . S
C5001 C5000 1.363 . S
C5001 C5004 1.363 . S
N5002 C5004 1.356 . S
N5002 H5014 0.984 . S
N5002 H5015 0.985 . S
N5003 C5005 1.356 . S
N5003 H5008 0.984 . S
N5003 H5009 0.985 . S
C5004 C4998 1.379 . S
C5004 C5001 1.363 . S
C5004 N5002 1.356 . S
C5005 C4999 1.363 . S
C5005 C5000 1.379 . S
C5005 N5003 1.356 . S
N5006 C4998 1.356 . S
N5006 H5012 0.984 . S
N5006 H5013 0.984 . S
N5007 C5000 1.356 . S
N5007 H5010 0.984 . S
N5007 H5011 0.985 . S
H5008 N5003 0.984 . S
H5009 N5003 0.985 . S
H5010 N5007 0.984 . S
H5011 N5007 0.985 . S
H5012 N5006 0.984 . S
H5013 N5006 0.984 . S
H5014 N5002 0.984 . S
H5015 N5002 0.985 . S
C5016 C5017 1.363 . S
C5016 C5022 1.379 . S
C5016 N5024 1.356 . S
C5017 C5016 1.363 . S
C5017 C5023 1.363 . S
C5018 C5019 1.363 . S
C5018 C5023 1.379 . S
C5018 N5025 1.356 . S
C5019 C5018 1.363 . S
C5019 C5022 1.363 . S
N5020 C5022 1.356 . S
N5020 H5032 0.984 . S
N5020 H5033 0.985 . S
N5021 C5023 1.356 . S
N5021 H5026 0.984 . S
N5021 H5027 0.985 . S
C5022 C5016 1.379 . S
C5022 C5019 1.363 . S
C5022 N5020 1.356 . S
C5023 C5017 1.363 . S
C5023 C5018 1.379 . S
C5023 N5021 1.356 . S
N5024 C5016 1.356 . S
N5024 H5030 0.984 . S
N5024 H5031 0.984 . S
N5025 C5018 1.356 . S
N5025 H5028 0.984 . S
N5025 H5029 0.985 . S
H5026 N5021 0.984 . S
H5027 N5021 0.985 . S
H5028 N5025 0.984 . S
H5029 N5025 0.985 . S
H5030 N5024 0.984 . S
H5031 N5024 0.984 . S
H5032 N5020 0.984 . S
H5033 N5020 0.985 . S
C5034 C5035 1.363 . S
C5034 C5040 1.379 . S
C5034 N5042 1.356 . S
C5035 C5034 1.363 . S
C5035 C5041 1.363 . S
C5036 C5037 1.363 . S
C5036 C5041 1.379 . S
C5036 N5043 1.356 . S
C5037 C5036 1.363 . S
C5037 C5040 1.363 . S
N5038 C5040 1.356 . S
N5038 H5050 0.984 . S
N5038 H5051 0.985 . S
N5039 C5041 1.356 . S
N5039 H5044 0.984 . S
N5039 H5045 0.985 . S
C5040 C5034 1.379 . S
C5040 C5037 1.363 . S
C5040 N5038 1.356 . S
C5041 C5035 1.363 . S
C5041 C5036 1.379 . S
C5041 N5039 1.356 . S
N5042 C5034 1.356 . S
N5042 H5048 0.984 . S
N5042 H5049 0.984 . S
N5043 C5036 1.356 . S
N5043 H5046 0.984 . S
N5043 H5047 0.985 . S
H5044 N5039 0.984 . S
H5045 N5039 0.985 . S
H5046 N5043 0.984 . S
H5047 N5043 0.985 . S
H5048 N5042 0.984 . S
H5049 N5042 0.984 . S
H5050 N5038 0.984 . S
H5051 N5038 0.985 . S
C5052 C5053 1.363 . S
C5052 C5058 1.379 . S
C5052 N5060 1.356 . S
C5053 C5052 1.363 . S
C5053 C5059 1.363 . S
C5054 C5055 1.363 . S
C5054 C5059 1.379 . S
C5054 N5061 1.356 . S
C5055 C5054 1.363 . S
C5055 C5058 1.363 . S
N5056 C5058 1.356 . S
N5056 H5068 0.984 . S
N5056 H5069 0.985 . S
N5057 C5059 1.356 1_565 S
N5057 H5062 0.984 . S
N5057 H5063 0.985 . S
C5058 C5052 1.379 . S
C5058 C5055 1.363 . S
C5058 N5056 1.356 . S
C5059 C5053 1.363 . S
C5059 C5054 1.379 . S
C5059 N5057 1.356 1_545 S
N5060 C5052 1.356 . S
N5060 H5066 0.984 . S
N5060 H5067 0.984 . S
N5061 C5054 1.356 . S
N5061 H5064 0.984 . S
N5061 H5065 0.985 1_545 S
H5062 N5057 0.984 . S
H5063 N5057 0.985 . S
H5064 N5061 0.984 . S
H5065 N5061 0.985 1_565 S
H5066 N5060 0.984 . S
H5067 N5060 0.984 . S
H5068 N5056 0.984 . S
H5069 N5056 0.985 . S
C5070 C5071 1.363 1_545 S
C5070 C5076 1.379 . S
C5070 N5078 1.356 . S
C5071 C5070 1.363 1_565 S
C5071 C5077 1.363 . S
C5072 C5073 1.363 . S
C5072 C5077 1.379 . S
C5072 N5079 1.356 . S
C5073 C5072 1.363 . S
C5073 C5076 1.363 1_565 S
N5074 C5076 1.356 . S
N5074 H5086 0.984 . S
N5074 H5087 0.985 . S
N5075 C5077 1.356 . S
N5075 H5080 0.984 . S
N5075 H5081 0.985 . S
C5076 C5070 1.379 . S
C5076 C5073 1.363 1_545 S
C5076 N5074 1.356 . S
C5077 C5071 1.363 . S
C5077 C5072 1.379 . S
C5077 N5075 1.356 . S
N5078 C5070 1.356 . S
N5078 H5084 0.984 . S
N5078 H5085 0.984 . S
N5079 C5072 1.356 . S
N5079 H5082 0.984 . S
N5079 H5083 0.985 . S
H5080 N5075 0.984 . S
H5081 N5075 0.985 . S
H5082 N5079 0.984 . S
H5083 N5079 0.985 . S
H5084 N5078 0.984 . S
H5085 N5078 0.984 . S
H5086 N5074 0.984 . S
H5087 N5074 0.985 . S
C2497 C1781 1.733 . S
C2499 C1929 1.811 . S
C2515 C981 1.733 . S
C2517 C1941 1.672 . S
C2535 C1953 1.711 . S
C2533 C1861 1.638 . S
C2551 C1061 1.720 . S
C2553 C1965 1.656 . S
C2569 C1901 1.667 . S
C2571 C1977 1.626 . S
C2587 C941 1.717 . S
C2589 C1989 1.791 . S
C2605 C1821 1.622 . S
C2607 C2001 1.673 . S
C2623 C1021 1.683 . S
C2625 C2013 1.758 . S
C2641 C661 1.316 . S
C2643 C2025 1.295 . S
C2659 C1621 1.501 . S
C2661 C2037 1.539 . S
C2677 C741 1.873 . S
C2679 C2049 1.843 . S
C2695 C1581 1.801 . S
C2697 C2061 1.819 . S
C2713 C901 1.789 . S
C2715 C2073 1.739 . S
C2733 C2085 1.757 . S
C2731 C1661 1.699 . S
C2751 C2097 1.954 . S
C2749 C821 1.995 . S
C2767 C1141 1.571 . S
C2769 C2109 1.595 . S
C2787 C2121 1.733 . S
C2785 C781 1.677 . S
C2805 C2133 1.918 . S
C2803 C1701 1.965 . S
C2821 C861 1.611 . S
C2823 C2145 1.678 . S
C2839 C1181 1.850 . S
C2841 C2157 1.799 . S
C2859 C2169 1.427 . S
C2857 C1101 1.434 . S
C2875 C1421 1.396 . S
C2877 C2181 1.425 . S
C2895 C2193 1.609 . S
C2893 C381 1.641 . S
C2913 C2205 1.625 . S
C2911 C1501 1.603 . S
C2931 C2217 1.408 . S
C2929 C461 1.469 . S
C2949 C2229 1.579 . S
C2947 C1541 1.633 . S
C2965 C341 1.232 . S
C2967 C2241 1.241 . S
C2985 C2253 1.690 . S
C2983 C1461 1.733 . S
C3001 C421 1.649 . S
C3003 C2265 1.719 . S
C3021 C2277 1.659 . S
C3019 C61 1.688 . S
C3039 C2289 1.892 . S
C3037 C1261 1.759 . S
C3055 C141 1.544 . S
C3057 C2301 1.548 . S
C3075 C2313 1.511 . S
C3073 C1221 1.514 . S
C3093 C2325 1.541 . S
C3091 C301 1.589 . S
C3109 C1301 1.890 . S
C3111 C2337 1.853 . S
C3129 C2349 1.465 . S
C3127 C221 1.512 . S
C3147 C2361 1.556 . S
C3145 C541 1.570 . S
C3163 C181 1.706 . S
C3165 C2373 1.671 . S
C3183 C2385 1.463 . S
C3181 C1341 1.512 . S
C3199 C261 1.605 . S
C3201 C2397 1.596 . S
C3219 C2409 1.507 . S
C3217 C581 1.573 . S
C3235 C501 1.629 . S
C3237 C2421 1.595 . S
C3253 C701 1.481 . S
C3255 C2433 1.543 . S
C3273 C2445 1.886 . S
C3271 C621 1.852 . S
C3289 C1741 1.800 . S
C3291 C2457 1.746 . S
C3307 C101 1.671 . S
C3309 C2469 1.799 . S
C3327 C2481 1.571 . S
C3325 C21 1.561 . S
C3345 C2493 1.789 . S
C3343 C1381 1.833 . S
C3361 C1335 1.555 . S
C3363 C1926 1.601 . S
C3379 C535 1.446 . S
C3381 C1938 1.443 . S
C3397 C1362 1.991 . S
C3399 C1948 1.896 . S
C3417 C1960 1.745 . S
C3415 C1295 1.695 . S
C3433 C575 1.382 . S
C3435 C1972 1.386 . S
C3451 C1215 1.447 . S
C3453 C1984 1.437 . S
C3471 C1996 1.601 . S
C3469 C495 1.577 . S
C3487 C1242 1.556 . S
C3489 C2010 1.661 . S
C3505 C1255 1.863 . S
C3507 C2022 1.829 . S
C3525 C2032 1.544 . S
C3523 C562 1.608 . S
C3541 C1202 1.518 . S
C3543 C2044 1.463 . S
C3561 C2056 1.698 . S
C3559 C482 1.778 . S
C3577 C522 1.335 . S
C3579 C2070 1.289 . S
C3595 C1375 1.743 . S
C3597 C2080 1.814 . S
C3615 C2092 1.881 . S
C3613 C1282 1.964 . S
C3633 C2106 1.725 . S
C3631 C1322 1.782 . S
C3649 C455 1.736 . S
C3651 C2058 1.781 . S
C3667 C1415 1.505 . S
C3669 C2118 1.537 . S
C3685 C1455 1.633 . S
C3687 C2130 1.635 . S
C3705 C2140 1.442 . S
C3703 C1482 1.486 . S
C3723 C2068 1.707 . S
C3721 C442 1.833 . S
C3739 C362 1.594 . S
C3741 C2034 1.556 . S
C3757 C1495 1.420 . S
C3759 C2154 1.362 . S
C3777 C2164 1.525 . S
C3775 C1402 1.575 . S
C3795 C2178 2.009 . S
C3793 C1695 2.020 . S
C3811 C1135 1.493 . S
C3813 C2190 1.530 . S
C3831 C2200 1.772 . S
C3829 C1722 1.751 . S
C3849 C2212 1.493 . S
C3847 C1655 1.522 . S
C3865 C1175 1.984 . S
C3867 C2226 1.957 . S
C3883 C1562 1.568 . S
C3885 C2236 1.550 . S
C3901 C1095 1.435 . S
C3903 C2248 1.436 . S
C3921 C2262 1.727 . S
C3919 C1615 1.688 . S
C3939 C2274 1.746 . S
C3937 C1602 1.738 . S
C3955 C1162 1.887 . S
C3957 C2284 1.924 . S
C3975 C2298 1.756 . S
C3973 C1575 1.819 . S
C3991 C1082 1.544 . S
C3993 C2308 1.527 . S
C4011 C2320 1.625 . S
C4009 C1122 1.659 . S
C4027 C1735 1.956 . S
C4029 C2334 1.913 . S
C4047 C2346 1.409 . S
C4045 C1642 1.410 . S
C4063 C1682 1.919 . S
C4065 C2356 1.958 . S
C4081 C1042 1.642 . S
C4083 C2310 1.653 . S
C4099 C1775 1.681 . S
C4101 C2368 1.730 . S
C4117 C1815 1.503 . S
C4119 C2380 1.544 . S
C4137 C2394 1.774 . S
C4135 C1842 1.726 . S
C4153 C1055 1.635 . S
C4155 C2322 1.541 . S
C4171 C975 1.672 . S
C4173 C2286 1.641 . S
C4191 C2404 1.850 . S
C4189 C1855 1.800 . S
C4207 C1762 1.857 . S
C4209 C2416 1.846 . S
C4227 C1986 1.607 . S
C4225 C215 1.567 . S
C4245 C1998 1.416 . S
C4243 C255 1.425 . S
C4263 C2008 1.803 . S
C4261 C282 1.898 . S
C4281 C1974 1.588 . S
C4279 C175 1.552 . S
C4299 C1962 1.449 . S
C4297 C135 1.460 . S
C4315 C15 1.464 . S
C4317 C1924 1.493 . S
C4333 C55 1.673 . S
C4335 C1936 1.720 . S
C4351 C82 1.590 . S
C4353 C1950 1.700 . S
C4369 C95 1.841 . S
C4371 C2166 1.835 . S
C4387 C122 1.437 . S
C4389 C2428 1.438 . S
C4405 C2 1.770 . S
C4407 C2152 1.677 . S
C4423 C42 1.903 . S
C4425 C2440 1.830 . S
C4441 C242 1.356 . S
C4443 C2454 1.314 . S
C4461 C2116 1.652 . S
C4459 C295 1.585 . S
C4477 C162 1.788 . S
C4479 C2128 1.707 . S
C4495 C202 1.745 . S
C4497 C2142 1.703 . S
C4515 C2442 1.687 . S
C4513 C1535 1.635 . S
C4531 C335 1.628 . S
C4533 C2082 1.642 . S
C4549 C375 1.646 . S
C4551 C2094 1.635 . S
C4567 C402 1.501 . S
C4569 C2104 1.510 . S
C4587 C2452 1.765 . S
C4585 C1522 1.844 . S
C4605 C2430 1.614 . S
C4603 C1442 1.659 . S
C4623 C2046 1.465 . S
C4621 C415 1.498 . S
C4639 C322 1.575 . S
C4641 C2020 1.499 . S
C4657 C815 2.071 . S
C4659 C2238 2.020 . S
C4675 C855 1.611 . S
C4677 C2250 1.685 . S
C4693 C882 1.861 . S
C4695 C2260 1.901 . S
C4711 C775 1.557 . S
C4713 C2224 1.544 . S
C4731 C2214 1.907 . S
C4729 C735 1.958 . S
C4749 C2176 1.580 . S
C4747 C602 1.569 . S
C4767 C2188 1.444 . S
C4765 C655 1.456 . S
C4783 C695 1.690 . S
C4785 C2202 1.737 . S
C4803 C2418 1.714 . S
C4801 C682 1.696 . S
C4819 C722 1.796 . S
C4821 C2464 1.837 . S
C4837 C615 1.878 . S
C4839 C2406 1.818 . S
C4857 C2476 1.481 . S
C4855 C642 1.502 . S
C4873 C842 1.754 . S
C4875 C2488 1.757 . S
C4893 C2370 2.045 . S
C4891 C895 2.076 . S
C4909 C762 1.374 . S
C4911 C2382 1.380 . S
C4927 C802 1.905 . S
C4929 C2392 1.946 . S
C4945 C1895 1.650 . S
C4947 C2478 1.594 . S
C4965 C2332 1.825 . S
C4963 C935 1.787 . S
C4981 C962 1.587 . S
C4983 C2344 1.584 . S
C4999 C1002 1.739 . S
C5001 C2358 1.800 . S
C5017 C1882 1.573 . S
C5019 C2490 1.572 . S
C5035 C1802 1.527 . S
C5037 C2466 1.557 . S
C5055 C2296 1.798 . S
C5053 C1015 1.741 . S
C5073 C2272 1.916 . S
C5071 C922 1.933 . S
