# Generated by pormake.
# Topology ftw, (4,12)-cn, num edge types: 1
# Building blocks:
#     Node 0, Type 0, BuildingBlock: NAHDIM_clean_linker_0, # of connection points: 4
#     Node 1, Type 0, BuildingBlock: NAHDIM_clean_linker_0, # of connection points: 4
#     Node 2, Type 0, BuildingBlock: NAHDIM_clean_linker_0, # of connection points: 4
#     Node 3, Type 1, BuildingBlock: EZIPEK_clean_sbu_0, # of connection points: 12
#     Edge 4, Type (0, 1), BuildingBlock: ZUJKAS_clean_linker_0, # of connection points: 2
#     Edge 5, Type (0, 1), BuildingBlock: ZUJKAS_clean_linker_0, # of connection points: 2
#     Edge 6, Type (0, 1), BuildingBlock: ZUJKAS_clean_linker_0, # of connection points: 2
#     Edge 7, Type (0, 1), BuildingBlock: ZUJKAS_clean_linker_0, # of connection points: 2
#     Edge 8, Type (0, 1), BuildingBlock: ZUJKAS_clean_linker_0, # of connection points: 2
#     Edge 9, Type (0, 1), BuildingBlock: ZUJKAS_clean_linker_0, # of connection points: 2
#     Edge 10, Type (0, 1), BuildingBlock: ZUJKAS_clean_linker_0, # of connection points: 2
#     Edge 11, Type (0, 1), BuildingBlock: ZUJKAS_clean_linker_0, # of connection points: 2
#     Edge 12, Type (0, 1), BuildingBlock: ZUJKAS_clean_linker_0, # of connection points: 2
#     Edge 13, Type (0, 1), BuildingBlock: ZUJKAS_clean_linker_0, # of connection points: 2
#     Edge 14, Type (0, 1), BuildingBlock: ZUJKAS_clean_linker_0, # of connection points: 2
#     Edge 15, Type (0, 1), BuildingBlock: ZUJKAS_clean_linker_0, # of connection points: 2
# Relax obj value: 0.006
# Max RMSD: 0.061
# Mean RMSD: 0.047
data_MOF--net-ftw--node1-EZIPEK_clean_sbu_0--node2-NAHDIM_clean_linker_0--edge1-ZUJKAS_clean_linker_0
_symmetry_space_group_name_H-M    P1
_symmetry_Int_Tables_number       1
_symmetry_cell_setting            triclinic
loop_
_symmetry_equiv_pos_as_xyz
'x, y, z'
_cell_length_a     39.551894
_cell_length_b     38.908189
_cell_length_c     38.280349
_cell_angle_alpha  90.35697
_cell_angle_beta   89.687954
_cell_angle_gamma 89.605212
loop_
_atom_site_label
_atom_site_type_symbol
_atom_site_fract_x
_atom_site_fract_y
_atom_site_fract_z
_atom_type_partial_charge
C0 C 0.07673 0.61302 0.27786 0.0
C1 C 0.05165 0.63357 0.30044 0.0
C2 C 0.05303 0.61353 0.35996 0.0
C3 C 0.0187 0.61042 0.36844 0.0
C4 C 0.00793 0.58625 0.39306 0.0
C5 C 0.03207 0.56461 0.4092 0.0
C6 C 0.06689 0.56866 0.4016 0.0
C7 C 0.07697 0.59355 0.37736 0.0
C8 C 0.97071 0.58329 0.40122 0.0
C9 C 0.09331 0.54598 0.41822 0.0
C10 C 0.90124 0.33935 0.36294 0.0
C11 C 0.93235 0.35161 0.34259 0.0
C12 C 0.96762 0.38658 0.38164 0.0
C13 C -8e-05 0.38873 0.39599 0.0
C14 C 0.01062 0.4186 0.41324 0.0
C15 C 0.98798 0.4467 0.41698 0.0
C16 C 0.95506 0.44462 0.4029 0.0
C17 C 0.94525 0.41465 0.38518 0.0
C18 C 0.0461 0.4201 0.42747 0.0
C19 C 0.93019 0.47401 0.40674 0.0
C20 C 0.96516 0.39716 0.63615 0.0
C21 C 0.99965 0.40067 0.62822 0.0
C22 C 0.01181 0.43087 0.61291 0.0
C23 C 0.989 0.45803 0.60562 0.0
C24 C 0.95473 0.45547 0.61597 0.0
C25 C 0.9433 0.42505 0.63142 0.0
C26 C 0.04873 0.43323 0.60315 0.0
C27 C 0.92989 0.48421 0.60912 0.0
C28 C 0.08414 0.72351 0.59743 0.0
C29 C 0.06009 0.7025 0.62024 0.0
C30 C 0.06129 0.63963 0.62024 0.0
C31 C 0.0833 0.61223 0.61317 0.0
C32 C 0.07096 0.58028 0.6021 0.0
C33 C 0.03571 0.57581 0.59823 0.0
C34 C 0.01318 0.60257 0.60811 0.0
C35 C 0.02621 0.63419 0.61932 0.0
C36 C 0.09563 0.55188 0.59282 0.0
C37 C 0.97542 0.59821 0.60532 0.0
C38 C 0.02066 0.53632 0.43216 0.0
C39 C 0.00988 0.50598 0.41611 0.0
C40 C 0.99867 0.47819 0.43585 0.0
C41 C 0.9982 0.48048 0.4727 0.0
C42 C 0.98667 0.45314 0.49332 0.0
C43 C 0.98708 0.4553 0.52957 0.0
C44 C 0.99894 0.48496 0.54667 0.0
C45 C 5e-05 0.48713 0.58356 0.0
C46 C 0.01202 0.51693 0.59977 0.0
C47 C 0.02276 0.54493 0.57994 0.0
C48 C 0.02159 0.54334 0.54301 0.0
C49 C 0.03176 0.57126 0.5223 0.0
C50 C 0.03117 0.56919 0.48602 0.0
C51 C 0.02058 0.53906 0.46901 0.0
C52 C 0.00955 0.51089 0.48934 0.0
C53 C 0.00997 0.51309 0.52637 0.0
C54 C 0.93192 0.3188 0.6166 0.0
C55 C 0.96136 0.3346 0.63672 0.0
O56 O 0.06341 0.63508 0.33446 0.0
O57 O 0.07483 0.67089 0.62726 0.0
O58 O 0.95215 0.36727 0.64816 0.0
O59 O 0.95915 0.35689 0.3651 0.0
H60 H 0.02701 0.61988 0.29934 0.0
H61 H 0.07904 0.58641 0.28797 0.0
H62 H 0.10213 0.62504 0.2783 0.0
H63 H 0.06776 0.61162 0.25043 0.0
H64 H 0.00037 0.62672 0.3555 0.0
H65 H 0.10347 0.59652 0.37077 0.0
H66 H 0.96109 0.55879 0.39023 0.0
H67 H 0.95577 0.60483 0.39008 0.0
H68 H 0.96655 0.58273 0.42993 0.0
H69 H 0.1192 0.55148 0.40843 0.0
H70 H 0.08754 0.51855 0.41295 0.0
H71 H 0.09286 0.54979 0.44698 0.0
H72 H 0.92573 0.37596 0.32904 0.0
H73 H 0.88003 0.33433 0.34472 0.0
H74 H 0.89286 0.35929 0.38199 0.0
H75 H 0.90701 0.31546 0.37756 0.0
H76 H 0.01695 0.36693 0.39323 0.0
H77 H 0.91999 0.41329 0.37462 0.0
H78 H 0.0451 0.42105 0.45644 0.0
H79 H 0.05882 0.44383 0.41845 0.0
H80 H 0.06161 0.39748 0.41935 0.0
H81 H 0.90463 0.46726 0.39708 0.0
H82 H 0.93949 0.49642 0.39178 0.0
H83 H 0.92811 0.48198 0.43459 0.0
H84 H 0.98301 0.33556 0.61807 0.0
H85 H 0.01701 0.37974 0.63358 0.0
H86 H 0.91687 0.42232 0.63842 0.0
H87 H 0.05135 0.4333 0.57426 0.0
H88 H 0.06379 0.41143 0.61361 0.0
H89 H 0.05939 0.4577 0.61314 0.0
H90 H 0.90464 0.47918 0.6208 0.0
H91 H 0.92695 0.48753 0.58051 0.0
H92 H 0.93968 0.50874 0.61991 0.0
H93 H 0.03675 0.69957 0.6044 0.0
H94 H 0.0734 0.74954 0.59276 0.0
H95 H 0.08766 0.71046 0.57175 0.0
H96 H 0.10934 0.72607 0.60977 0.0
H97 H 0.11031 0.61641 0.61485 0.0
H98 H 0.00893 0.65469 0.62676 0.0
H99 H 0.09589 0.54796 0.56407 0.0
H100 H 0.0876 0.52738 0.60495 0.0
H101 H 0.12174 0.55785 0.60141 0.0
H102 H 0.96122 0.62089 0.61556 0.0
H103 H 0.96745 0.57509 0.62001 0.0
H104 H 0.96848 0.59412 0.57754 0.0
H105 H 0.01026 0.50396 0.38782 0.0
H106 H 0.97733 0.42965 0.48167 0.0
H107 H 0.97807 0.43331 0.54397 0.0
H108 H 0.01304 0.51833 0.62805 0.0
H109 H 0.04039 0.59507 0.53386 0.0
H110 H 0.03935 0.59143 0.47145 0.0
H111 H 0.93865 0.29244 0.60749 0.0
H112 H 0.92616 0.33473 0.59336 0.0
H113 H 0.90884 0.31759 0.63322 0.0
C114 C 0.6986 0.09282 0.62481 0.0
C115 C 0.68316 0.06967 0.65289 0.0
C116 C 0.64202 0.03291 0.62255 0.0
C117 C 0.63472 0.99904 0.61311 0.0
C118 C 0.60413 0.99062 0.59686 0.0
C119 C 0.5805 0.01696 0.58938 0.0
C120 C 0.58769 0.05136 0.59872 0.0
C121 C 0.61828 0.059 0.61537 0.0
C122 C 0.59712 0.95361 0.58758 0.0
C123 C 0.56309 0.08011 0.59092 0.0
C124 C 0.32447 0.02441 0.69712 0.0
C125 C 0.35277 0.03167 0.67265 0.0
C126 C 0.40144 0.00346 0.64505 0.0
C127 C 0.41004 0.03178 0.62421 0.0
C128 C 0.43809 0.03038 0.60172 0.0
C129 C 0.45756 -0.0002 0.59938 0.0
C130 C 0.44866 0.97103 0.61978 0.0
C131 C 0.42075 0.97333 0.64252 0.0
C132 C 0.44712 0.0618 0.58073 0.0
C133 C 0.46872 0.93797 0.61762 0.0
C134 C 0.38452 0.95872 0.38189 0.0
C135 C 0.39294 0.99339 0.38713 0.0
C136 C 0.42403 0.0024 0.40206 0.0
C137 C 0.44718 0.97624 0.41154 0.0
C138 C 0.43933 0.94141 0.40487 0.0
C139 C 0.40813 0.93315 0.38988 0.0
C140 C 0.43205 0.03982 0.40805 0.0
C141 C 0.46369 0.91293 0.41415 0.0
C142 C 0.70495 0.02643 0.39592 0.0
C143 C 0.6921 0.00797 0.36315 0.0
C144 C 0.63089 0.01521 0.36711 0.0
C145 C 0.60823 0.04236 0.37288 0.0
C146 C 0.57732 0.03701 0.39011 0.0
C147 C 0.56886 0.00353 0.40124 0.0
C148 C 0.59064 0.97557 0.39327 0.0
C149 C 0.62144 0.98168 0.37617 0.0
C150 C 0.55434 0.06727 0.39772 0.0
C151 C 0.58183 0.93942 0.40388 0.0
C152 C 0.54839 0.00867 0.57142 0.0
C153 C 0.51923 0.00521 0.5918 0.0
C154 C 0.48792 0.99865 0.57649 0.0
C155 C 0.48563 0.99426 0.53989 0.0
C156 C 0.45476 0.98635 0.52376 0.0
C157 C 0.4526 0.98308 0.48761 0.0
C158 C 0.48119 0.98786 0.46619 0.0
C159 C 0.47919 0.98516 0.42937 0.0
C160 C 0.50801 0.99053 0.40883 0.0
C161 C 0.53904 0.99827 0.42416 0.0
C162 C 0.54165 0.00065 0.46093 0.0
C163 C 0.57263 0.0081 0.47714 0.0
C164 C 0.57495 0.01055 0.51329 0.0
C165 C 0.54638 0.00576 0.53466 0.0
C166 C 0.51491 0.99831 0.51888 0.0
C167 C 0.51259 0.99554 0.48197 0.0
C168 C 0.30082 0.9414 0.39575 0.0
C169 C 0.32326 0.96489 0.37385 0.0
O170 O 0.67223 0.0391 0.63814 0.0
O171 O 0.66156 0.02228 0.35285 0.0
O172 O 0.35433 0.94889 0.36854 0.0
O173 O 0.375 0.0043 0.66792 0.0
H174 H 0.66149 0.08347 0.6654 0.0
H175 H 0.67935 0.09987 0.6051 0.0
H176 H 0.71982 0.07953 0.61107 0.0
H177 H 0.70812 0.11691 0.63687 0.0
H178 H 0.65313 0.97909 0.61871 0.0
H179 H 0.62342 0.08541 0.62228 0.0
H180 H 0.57227 0.94587 0.59854 0.0
H181 H 0.61695 0.93586 0.59746 0.0
H182 H 0.59573 0.95076 0.55875 0.0
H183 H 0.57345 0.1058 0.5975 0.0
H184 H 0.53947 0.07634 0.60618 0.0
H185 H 0.55631 0.07965 0.5628 0.0
H186 H 0.36578 0.05656 0.67761 0.0
H187 H 0.32821 0.04256 0.71978 0.0
H188 H 0.33197 0.00079 0.71221 0.0
H189 H 0.2816 0.02633 0.66516 0.0
H190 H 0.39522 0.05522 0.62554 0.0
H191 H 0.41387 0.95157 0.65853 0.0
H192 H 0.44363 0.05628 0.5525 0.0
H193 H 0.47411 0.06838 0.58468 0.0
H194 H 0.43131 0.0845 0.58789 0.0
H195 H 0.45685 0.91703 0.63289 0.0
H196 H 0.49459 0.94234 0.62777 0.0
H197 H 0.47124 0.92956 0.58995 0.0
H198 H 0.3259 0.98924 0.38892 0.0
H199 H 0.37557 0.01348 0.37929 0.0
H200 H 0.40165 0.90653 0.38505 0.0
H201 H 0.43546 0.04469 0.43643 0.0
H202 H 0.41183 0.05717 0.39829 0.0
H203 H 0.45621 0.04628 0.39478 0.0
H204 H 0.45399 0.88715 0.40683 0.0
H205 H 0.46854 0.91344 0.44269 0.0
H206 H 0.48825 0.91699 0.40066 0.0
H207 H 0.68908 0.98047 0.36996 0.0
H208 H 0.73008 0.01603 0.40351 0.0
H209 H 0.68707 0.02232 0.41797 0.0
H210 H 0.70706 0.05453 0.39149 0.0
H211 H 0.61546 0.06803 0.36511 0.0
H212 H 0.63792 0.96017 0.37001 0.0
H213 H 0.55275 0.07155 0.42639 0.0
H214 H 0.52841 0.06177 0.38833 0.0
H215 H 0.56342 0.09124 0.38525 0.0
H216 H 0.60035 0.92016 0.39375 0.0
H217 H 0.5563 0.93276 0.39411 0.0
H218 H 0.58107 0.93777 0.43282 0.0
H219 H 0.52077 0.00863 0.61991 0.0
H220 H 0.43192 0.98259 0.53896 0.0
H221 H 0.42816 0.97701 0.47667 0.0
H222 H 0.5063 0.98849 0.38062 0.0
H223 H 0.59549 0.01218 0.46211 0.0
H224 H 0.59942 0.01645 0.52424 0.0
H225 H 0.27572 0.95367 0.40044 0.0
H226 H 0.31285 0.93666 0.42145 0.0
H227 H 0.29716 0.91629 0.38236 0.0
C228 C 0.62131 0.7316 0.99338 0.0
C229 C 0.64884 0.70664 0.00575 0.0
C230 C 0.62752 0.65101 0.98817 0.0
C231 C 0.62182 0.63555 0.02066 0.0
C232 C 0.59666 0.61065 0.02467 0.0
C233 C 0.57704 0.60091 0.99551 0.0
C234 C 0.58421 0.61487 0.96226 0.0
C235 C 0.6097 0.63961 0.95896 0.0
C236 C 0.59022 0.59564 0.06033 0.0
C237 C 0.56404 0.60465 0.93058 0.0
C238 C 0.40366 0.7211 0.06934 0.0
C239 C 0.38457 0.70163 0.04081 0.0
C240 C 0.40366 0.64279 0.04214 0.0
C241 C 0.41105 0.63493 0.00718 0.0
C242 C 0.43713 0.61176 0.99851 0.0
C243 C 0.45631 0.59648 0.02547 0.0
C244 C 0.44781 0.60324 0.06085 0.0
C245 C 0.42114 0.62605 0.06874 0.0
C246 C 0.44504 0.60464 0.96054 0.0
C247 C 0.46788 0.58762 0.09023 0.0
C248 C 0.40514 0.37181 0.03711 0.0
C249 C 0.40814 0.38507 0.00327 0.0
C250 C 0.43685 0.40378 0.99339 0.0
C251 C 0.46276 0.40959 0.01807 0.0
C252 C 0.46013 0.39535 0.05191 0.0
C253 C 0.43147 0.37618 0.0608 0.0
C254 C 0.43942 0.41751 0.95671 0.0
C255 C 0.48734 0.40084 0.07882 0.0
C256 C 0.72237 0.39737 0.92709 0.0
C257 C 0.70483 0.37771 0.95643 0.0
C258 C 0.64319 0.38335 0.95771 0.0
C259 C 0.61731 0.38943 0.93384 0.0
C260 C 0.58696 0.40534 0.94435 0.0
C261 C 0.58226 0.41466 0.97984 0.0
C262 C 0.60769 0.40692 0.0045 0.0
C263 C 0.63797 0.39131 0.99316 0.0
C264 C 0.5602 0.41285 0.91746 0.0
C265 C 0.603 0.41553 0.04271 0.0
C266 C 0.54697 0.5789 0.00064 0.0
C267 C 0.51666 0.59531 0.00973 0.0
C268 C 0.48737 0.57662 0.01655 0.0
C269 C 0.48824 0.54034 0.0146 0.0
C270 C 0.45944 0.52067 0.02197 0.0
C271 C 0.46075 0.48494 0.02047 0.0
C272 C 0.49071 0.46754 0.01079 0.0
C273 C 0.49223 0.43122 0.0089 0.0
C274 C 0.52233 0.41479 0.99885 0.0
C275 C 0.55127 0.43366 0.99084 0.0
C276 C 0.5504 0.46997 0.993 0.0
C277 C 0.57918 0.48974 0.98549 0.0
C278 C 0.57819 0.52542 0.98811 0.0
C279 C 0.54826 0.54271 0.99784 0.0
C280 C 0.5188 0.52334 0.00508 0.0
C281 C 0.51996 0.48692 0.00291 0.0
C282 C 0.33199 0.38164 0.07675 0.0
C283 C 0.34433 0.36431 0.04298 0.0
O284 O 0.64932 0.67755 0.98459 0.0
O285 O 0.67249 0.36912 0.94575 0.0
O286 O 0.37761 0.35382 0.04729 0.0
O287 O 0.38078 0.66759 0.05054 0.0
H288 H 0.64259 0.69973 0.03317 0.0
H289 H 0.59608 0.7195 0.99607 0.0
H290 H 0.62522 0.73845 0.96552 0.0
H291 H 0.62142 0.75544 0.00952 0.0
H292 H 0.63672 0.64321 0.043 0.0
H293 H 0.61473 0.65133 0.93387 0.0
H294 H 0.56484 0.6039 0.06982 0.0
H295 H 0.60938 0.60383 0.07974 0.0
H296 H 0.59029 0.56713 0.05869 0.0
H297 H 0.57408 0.61622 0.90621 0.0
H298 H 0.53733 0.61301 0.93415 0.0
H299 H 0.56416 0.57624 0.92762 0.0
H300 H 0.39987 0.70327 0.01633 0.0
H301 H 0.42921 0.70961 0.07271 0.0
H302 H 0.40673 0.7485 0.06199 0.0
H303 H 0.3899 0.71976 0.09468 0.0
H304 H 0.39682 0.64753 0.98675 0.0
H305 H 0.41495 0.63224 0.09567 0.0
H306 H 0.4479 0.57655 0.95596 0.0
H307 H 0.46941 0.61688 0.95353 0.0
H308 H 0.42511 0.61478 0.94297 0.0
H309 H 0.45802 0.59547 0.11634 0.0
H310 H 0.49473 0.59555 0.08808 0.0
H311 H 0.46727 0.55917 0.08822 0.0
H312 H 0.3422 0.38343 0.02157 0.0
H313 H 0.3883 0.38043 0.98447 0.0
H314 H 0.42906 0.36525 0.08667 0.0
H315 H 0.43798 0.446 0.95743 0.0
H316 H 0.4189 0.4078 0.93966 0.0
H317 H 0.4642 0.41023 0.94495 0.0
H318 H 0.48057 0.38969 0.10456 0.0
H319 H 0.49201 0.42876 0.0823 0.0
H320 H 0.51131 0.38879 0.06957 0.0
H321 H 0.70407 0.39504 0.97966 0.0
H322 H 0.7483 0.40483 0.93507 0.0
H323 H 0.70784 0.42116 0.92121 0.0
H324 H 0.72398 0.38141 0.90295 0.0
H325 H 0.62138 0.38252 0.90666 0.0
H326 H 0.65732 0.38508 0.01204 0.0
H327 H 0.55471 0.44087 0.91702 0.0
H328 H 0.53641 0.3996 0.92465 0.0
H329 H 0.56795 0.4044 0.8908 0.0
H330 H 0.62401 0.4055 0.05896 0.0
H331 H 0.57881 0.40471 0.05239 0.0
H332 H 0.60155 0.44386 0.04612 0.0
H333 H 0.51588 0.62316 0.01171 0.0
H334 H 0.43565 0.53271 0.02927 0.0
H335 H 0.43787 0.47115 0.02683 0.0
H336 H 0.52327 0.38694 0.99733 0.0
H337 H 0.60289 0.47785 0.9777 0.0
H338 H 0.60113 0.53932 0.98225 0.0
H339 H 0.33312 0.36333 0.0989 0.0
H340 H 0.30556 0.39105 0.07385 0.0
H341 H 0.34823 0.40403 0.08293 0.0
C342 C 0.0189 0.09412 0.91376 0.0
C343 C 0.01799 0.09614 0.0831 0.0
C344 C 0.01853 0.92782 0.91464 0.0
C345 C 0.01949 0.92952 0.08403 0.0
C346 C 0.09993 0.92688 2e-05 0.0
C347 C 0.10231 0.09361 0.9979 0.0
C348 C 0.93584 0.93038 0.99948 0.0
C349 C 0.93836 0.09698 0.99917 0.0
C350 C 0.93802 0.01516 0.08474 0.0
C351 C 0.10172 0.01042 0.08259 0.0
C352 C 0.93661 0.01439 0.91547 0.0
C353 C 0.10013 0.00936 0.913 0.0
Eu354 Eu 0.02012 0.07693 0.99856 0.0
O355 O 0.05011 0.04239 0.02964 0.0
O356 O 0.98936 0.04265 0.96838 0.0
Eu357 Eu 0.0832 0.01065 0.99806 0.0
Eu358 Eu 0.95513 0.01325 -0.00014 0.0
O359 O 0.04952 0.04157 0.96725 0.0
O360 O 0.98992 0.04326 0.03003 0.0
Eu361 Eu 0.01857 0.01117 0.93313 0.0
Eu362 Eu 0.01968 0.01264 0.06493 0.0
O363 O 0.0485 0.98033 0.9678 0.0
O364 O 0.04872 0.98123 0.02934 0.0
O365 O 0.98876 0.98213 0.03069 0.0
O366 O 0.98819 0.98145 0.96838 0.0
Eu367 Eu 0.01807 0.9467 0.9992 0.0
O368 O 0.01962 0.10513 0.94687 0.0
O369 O 0.01841 0.10625 0.04983 0.0
O370 O 0.01759 0.91734 0.94778 0.0
O371 O 0.01846 0.91883 0.05085 0.0
O372 O 0.11051 0.95938 0.99911 0.0
O373 O 0.11221 0.06071 0.99781 0.0
O374 O 0.92616 0.96331 0.99889 0.0
O375 O 0.92757 0.06455 0.00021 0.0
O376 O 0.97025 0.01492 0.09484 0.0
O377 O 0.0696 0.01183 0.09342 0.0
O378 O 0.96864 0.01218 0.90444 0.0
O379 O 0.06786 0.01066 0.90316 0.0
O380 O 0.96777 0.91902 0.00024 0.0
O381 O 0.06765 0.91693 -9e-05 0.0
O382 O 0.97069 0.10665 0.99829 0.0
O383 O 0.07028 0.10468 0.99815 0.0
O384 O 0.01908 0.06359 0.09388 0.0
O385 O 0.01996 0.9623 0.09461 0.0
O386 O 0.01855 0.06127 0.90354 0.0
O387 O 0.01913 0.96044 0.90411 0.0
O388 O 0.11104 0.0087 0.94598 0.0
O389 O 0.11193 0.00986 0.04926 0.0
O390 O 0.92653 0.01527 0.9488 0.0
O391 O 0.92723 0.01406 0.05176 0.0
H392 H 0.95929 0.28728 0.35329 0.0
H393 H 0.97669 0.24443 0.30941 0.0
H394 H 0.94686 0.31342 0.22726 0.0
H395 H 0.92913 0.3563 0.27098 0.0
H396 H 0.93345 0.21602 0.25402 0.0
H397 H 0.04709 0.28375 0.20396 0.0
H398 H 0.02839 0.29332 0.24611 0.0
H399 H 0.00876 0.30878 0.20703 0.0
C400 C 0.95642 0.29324 0.32586 0.0
C401 C 0.94292 0.32512 0.31551 0.0
C402 C 0.96641 0.26884 0.3009 0.0
C403 C 0.9634 0.27603 0.26521 0.0
C404 C 0.9498 0.30768 0.25473 0.0
H405 H 0.00484 0.16474 0.07373 0.0
H406 H 0.99292 0.20798 0.11866 0.0
C407 C 0.93958 0.33204 0.27968 0.0
C408 C 0.9736 0.24995 0.23893 0.0
H409 H 0.03083 0.23322 0.17387 0.0
C410 C 0.95482 0.21961 0.23658 0.0
C411 C 0.0014 0.25497 0.21623 0.0
C412 C 0.02283 0.28682 0.21845 0.0
C413 C 0.96271 0.19429 0.21154 0.0
C414 C 0.99066 0.19917 0.18891 0.0
C415 C 0.0095 0.22953 0.19135 0.0
C416 C 0.00021 0.17334 0.162 0.0
C417 C 0.94044 0.16302 0.20891 0.0
C418 C 0.00923 0.13978 0.17154 0.0
C419 C 0.01594 0.11488 0.14594 0.0
C420 C 0.0141 0.12321 0.11027 0.0
C421 C 0.00649 0.15731 0.10089 0.0
C422 C 0.99962 0.18212 0.12653 0.0
H423 H 0.91546 0.16741 0.22163 0.0
H424 H 0.93628 0.15562 0.18121 0.0
H425 H 0.95293 0.14113 0.22222 0.0
H426 H 0.01062 0.1327 0.19882 0.0
H427 H 0.02205 0.089 0.15419 0.0
H428 H 0.7277 0.95583 0.33095 0.0
H429 H 0.76899 0.95986 0.28347 0.0
H430 H 0.7554 0.06995 0.28161 0.0
H431 H 0.71298 0.06589 0.32833 0.0
H432 H 0.75704 0.04331 0.21673 0.0
H433 H 0.86509 0.99202 0.29201 0.0
H434 H 0.83005 0.96302 0.29151 0.0
H435 H 0.82561 0.0044 0.31243 0.0
C436 C 0.73352 0.98089 0.32042 0.0
C437 C 0.71741 0.0106 0.33357 0.0
C438 C 0.75731 0.98319 0.29349 0.0
C439 C 0.76587 0.01528 0.27958 0.0
C440 C 0.74938 0.04496 0.2922 0.0
H441 H 0.9447 0.0426 0.14998 0.0
H442 H 0.90218 0.0454 0.19644 0.0
C443 C 0.7253 0.04264 0.31892 0.0
C444 C 0.79159 0.01773 0.25144 0.0
H445 H 0.87269 0.99528 0.23022 0.0
C446 C 0.78243 0.03306 0.21973 0.0
C447 C 0.82488 0.00492 0.25563 0.0
C448 C 0.83713 0.99051 0.28986 0.0
C449 C 0.80541 0.03515 0.19177 0.0
C450 C 0.83811 0.02061 0.19532 0.0
C451 C 0.84749 0.00603 0.22733 0.0
C452 C 0.86317 0.02027 0.16635 0.0
C453 C 0.79454 0.05341 0.15898 0.0
C454 C 0.85543 0.00512 0.13399 0.0
C455 C 0.87957 0.00391 0.1072 0.0
C456 C 0.91213 0.01709 0.11262 0.0
C457 C 0.9199 0.03197 0.14512 0.0
C458 C 0.89561 0.03366 0.17166 0.0
H459 H 0.77374 0.07207 0.1644 0.0
H460 H 0.81594 0.06735 0.14681 0.0
H461 H 0.78503 0.03425 0.13991 0.0
H462 H 0.83092 0.9937 0.12961 0.0
H463 H 0.87299 0.99194 0.08255 0.0
H464 H 0.999 0.65828 0.26167 0.0
H465 H 0.9943 0.7138 0.23236 0.0
H466 H 0.0897 0.74463 0.2762 0.0
H467 H 0.09469 0.68884 0.30541 0.0
H468 H 0.99586 0.78363 0.25779 0.0
H469 H 0.10332 0.75038 0.16899 0.0
H470 H 0.08244 0.71869 0.19554 0.0
H471 H 0.11173 0.74809 0.21503 0.0
C472 C 0.01869 0.67712 0.26552 0.0
C473 C 0.0471 0.66937 0.28598 0.0
C474 C 0.01597 0.70879 0.24881 0.0
C475 C 0.04176 0.73314 0.25194 0.0
C476 C 0.06967 0.72601 0.27326 0.0
H477 H 0.02986 0.93743 0.15465 0.0
H478 H 0.03552 0.89202 0.19829 0.0
C479 C 0.07241 0.69429 0.29004 0.0
C480 C 0.04028 0.76487 0.23088 0.0
H481 H 0.07652 0.80371 0.16045 0.0
C482 C 0.01366 0.7883 0.23672 0.0
C483 C 0.06338 0.77056 0.20322 0.0
C484 C 0.09172 0.74556 0.19499 0.0
C485 C 0.0092 0.81706 0.21517 0.0
C486 C 0.03211 0.8225 0.18731 0.0
C487 C 0.05911 0.79946 0.18196 0.0
C488 C 0.02725 0.85038 0.16168 0.0
C489 C 0.97932 0.84066 0.22144 0.0
C490 C 0.02092 0.84195 0.12669 0.0
C491 C 0.01779 0.86768 0.10171 0.0
C492 C 0.02106 0.90251 0.11116 0.0
C493 C 0.027 0.91093 0.14643 0.0
C494 C 0.03016 0.88504 0.17147 0.0
H495 H 0.96086 0.82961 0.24017 0.0
H496 H 0.98833 0.86544 0.23231 0.0
H497 H 0.96617 0.84615 0.19651 0.0
H498 H 0.0186 0.81532 0.11865 0.0
H499 H 0.0131 0.86011 0.07491 0.0
H500 H 0.32233 0.92422 0.31468 0.0
H501 H 0.29092 0.93388 0.26063 0.0
H502 H 0.25293 0.03008 0.30208 0.0
H503 H 0.28489 0.02087 0.35585 0.0
H504 H 0.22288 0.93928 0.25589 0.0
H505 H 0.28172 0.05743 0.20405 0.0
H506 H 0.30121 0.03175 0.23764 0.0
H507 H 0.26805 0.06187 0.24865 0.0
C508 C 0.30795 0.94782 0.31187 0.0
C509 C 0.30662 0.97218 0.33916 0.0
C510 C 0.28992 0.95324 0.28108 0.0
C511 C 0.27009 0.983 0.27705 0.0
C512 C 0.26883 0.00742 0.30419 0.0
H513 H 0.09237 0.01057 0.15351 0.0
H514 H 0.13502 0.00394 0.19863 0.0
C515 C 0.28694 0.00207 0.33495 0.0
C516 C 0.24837 0.987 0.24587 0.0
H517 H 0.2282 0.0418 0.17966 0.0
C518 C 0.2243 0.96153 0.23901 0.0
C519 C 0.25048 0.01586 0.22366 0.0
C520 C 0.27699 0.04312 0.22861 0.0
C521 C 0.20153 0.96467 0.21127 0.0
C522 C 0.2025 0.99435 0.19018 0.0
C523 C 0.22731 0.01927 0.19617 0.0
C524 C 0.17716 0.00028 0.16254 0.0
C525 C 0.17652 0.93623 0.20482 0.0
C526 C 0.1869 0.0015 0.12729 0.0
C527 C 0.16252 0.00538 0.10121 0.0
C528 C 0.12799 0.00832 0.11003 0.0
C529 C 0.11861 0.00813 0.14557 0.0
C530 C 0.14295 0.00422 0.1715 0.0
H531 H 0.18474 0.91174 0.21702 0.0
H532 H 0.1517 0.94364 0.21635 0.0
H533 H 0.17295 0.93177 0.17639 0.0
H534 H 0.21326 0.99869 0.11993 0.0
H535 H 0.17074 0.00554 0.07418 0.0
H536 H 0.99777 0.72166 0.64606 0.0
H537 H 0.98481 0.75374 0.69978 0.0
H538 H 0.09114 0.75716 0.72413 0.0
H539 H 0.10395 0.7234 0.67163 0.0
H540 H 0.05505 0.74671 0.78139 0.0
H541 H 0.998 0.85519 0.70816 0.0
H542 H 0.97702 0.81499 0.70151 0.0
H543 H 0.01991 0.82022 0.68661 0.0
C544 C 0.01831 0.72918 0.66299 0.0
C545 C 0.05196 0.72095 0.65416 0.0
C546 C 0.01091 0.74767 0.69354 0.0
C547 C 0.03709 0.75879 0.71543 0.0
C548 C 0.07055 0.74921 0.70744 0.0
H549 H 0.04474 0.93388 0.84921 0.0
H550 H 0.04698 0.89047 0.80314 0.0
C551 C 0.07789 0.73021 0.67728 0.0
C552 C 0.03008 0.78132 0.74607 0.0
H553 H 0.99762 0.85967 0.76948 0.0
C554 C 0.04239 0.77139 0.77887 0.0
C555 C 0.01378 0.81363 0.74262 0.0
C556 C 0.00169 0.82685 0.7078 0.0
C557 C 0.03973 0.79324 0.8081 0.0
C558 C 0.02333 0.82547 0.80464 0.0
C559 C 0.01008 0.8349 0.7721 0.0
C560 C 0.02202 0.85115 0.83343 0.0
C561 C 0.05592 0.78222 0.84189 0.0
C562 C 0.00718 0.84355 0.86588 0.0
C563 C 0.00636 0.86828 0.8926 0.0
C564 C 0.01965 0.90122 0.88696 0.0
C565 C 0.03405 0.90883 0.8543 0.0
C566 C 0.03536 0.88402 0.82792 0.0
H567 H 0.07458 0.76109 0.83773 0.0
H568 H 0.06891 0.80408 0.85474 0.0
H569 H 0.03607 0.77274 0.85993 0.0
H570 H 0.99596 0.81867 0.87046 0.0
H571 H 0.99478 0.86184 0.9174 0.0
H572 H 0.3219 0.96584 0.639 0.0
H573 H 0.2739 0.95594 0.69523 0.0
H574 H 0.26421 0.08314 0.71521 0.0
H575 H 0.31253 0.09631 0.66011 0.0
H576 H 0.27231 0.04692 0.77464 0.0
H577 H 0.1745 0.97071 0.70732 0.0
H578 H 0.21475 0.94937 0.70638 0.0
H579 H 0.20936 0.98979 0.68421 0.0
C580 C 0.30996 0.98757 0.65196 0.0
C581 C 0.32671 0.03206 0.6479 0.0
C582 C 0.28097 0.98168 0.68787 0.0
C583 C 0.26494 0.01828 0.71237 0.0
C584 C 0.2752 0.06191 0.70064 0.0
H585 H 0.09127 0.02793 0.84509 0.0
H586 H 0.13307 0.02769 0.79817 0.0
C587 C 0.30395 0.07049 0.66529 0.0
C588 C 0.24239 0.01327 0.74263 0.0
H589 H 0.16916 0.97543 0.76919 0.0
C590 C 0.24978 0.03122 0.77351 0.0
C591 C 0.2129 0.99302 0.74088 0.0
C592 C 0.20225 0.97495 0.70777 0.0
C593 C 0.22829 0.02979 0.80273 0.0
C594 C 0.19899 0.00922 0.8012 0.0
C595 C 0.19186 0.99088 0.77042 0.0
C596 C 0.17395 0.00853 0.83012 0.0
C597 C 0.23651 0.05139 0.83443 0.0
C598 C 0.183 0.9976 0.86372 0.0
C599 C 0.15915 0.99805 0.89087 0.0
C600 C 0.12573 0.00892 0.88467 0.0
C601 C 0.11672 0.01926 0.85081 0.0
C602 C 0.14059 0.01912 0.82389 0.0
H603 H 0.25521 0.07169 0.8283 0.0
H604 H 0.21338 0.06383 0.84533 0.0
H605 H 0.24751 0.03468 0.85488 0.0
H606 H 0.20844 0.98861 0.86892 0.0
H607 H 0.16679 0.98953 0.91654 0.0
H608 H 0.01709 0.29292 0.64446 0.0
H609 H 0.0299 0.25375 0.69264 0.0
H610 H 0.93889 0.28661 0.74603 0.0
H611 H 0.92596 0.32585 0.69796 0.0
H612 H 0.03643 0.26819 0.76779 0.0
H613 H 0.93138 0.17976 0.73455 0.0
H614 H 0.94753 0.21108 0.70422 0.0
H615 H 0.9198 0.22435 0.73914 0.0
C616 C 3e-05 0.29201 0.66666 0.0
C617 C 0.97057 0.31244 0.66757 0.0
C618 C 0.00737 0.26969 0.69409 0.0
C619 C 0.98517 0.26716 0.72263 0.0
C620 C 0.95614 0.28803 0.72401 0.0
H621 H 0.01122 0.164 0.92118 0.0
H622 H 0.00534 0.2065 0.87482 0.0
C623 C 0.94886 0.31046 0.69669 0.0
C624 C 0.9918 0.24189 0.75047 0.0
H625 H 0.96109 0.16848 0.7867 0.0
C626 C 0.02005 0.24635 0.772 0.0
C627 C 0.97057 0.21324 0.75542 0.0
C628 C 0.94075 0.20649 0.73199 0.0
C629 C 0.02731 0.22308 0.79889 0.0
C630 C 0.00553 0.19494 0.80443 0.0
C631 C 0.9776 0.19025 0.78251 0.0
C632 C 0.01127 0.1697 0.83258 0.0
C633 C 0.05845 0.22848 0.82077 0.0
C634 C 0.01625 0.13492 0.82417 0.0
C635 C 0.01942 0.11051 0.85053 0.0
C636 C 0.0175 0.1204 0.88592 0.0
C637 C 0.01302 0.15544 0.89426 0.0
C638 C 0.0098 0.17984 0.8678 0.0
H639 H 0.07668 0.24599 0.80789 0.0
H640 H 0.05094 0.24017 0.84619 0.0
H641 H 0.07137 0.20364 0.8261 0.0
H642 H 0.01735 0.12659 0.79711 0.0
H643 H 0.02298 0.08384 0.84303 0.0
H644 H 0.74071 0.02993 0.64691 0.0
H645 H 0.78349 0.01833 0.6916 0.0
H646 H 0.72671 0.07952 0.76593 0.0
H647 H 0.68411 0.09169 0.72129 0.0
H648 H 0.81889 0.07635 0.73428 0.0
H649 H 0.74712 0.9795 0.8108 0.0
H650 H 0.73923 0.98702 0.765 0.0
H651 H 0.72506 0.01773 0.79706 0.0
C652 C 0.73738 0.04085 0.6728 0.0
C653 C 0.70907 0.06166 0.68066 0.0
C654 C 0.76174 0.0342 0.69822 0.0
C655 C 0.75798 0.0479 0.73197 0.0
C656 C 0.72977 0.06852 0.74002 0.0
H657 H 0.87062 0.03453 0.92419 0.0
H658 H 0.82789 0.04216 0.87905 0.0
C659 C 0.70554 0.07545 0.71454 0.0
C660 C 0.7841 0.0415 0.75858 0.0
H661 H 0.79978 0.99691 0.83325 0.0
C662 C 0.81489 0.05889 0.75588 0.0
C663 C 0.77847 0.01893 0.7867 0.0
C664 C 0.74579 0.99947 0.79023 0.0
C665 C 0.8402 0.05474 0.78108 0.0
C666 C 0.83479 0.03181 0.80912 0.0
C667 C 0.80391 0.01436 0.81169 0.0
C668 C 0.86061 0.02606 0.83642 0.0
C669 C 0.87203 0.07573 0.77797 0.0
C670 C 0.89298 0.01378 0.82751 0.0
C671 C 0.91759 0.00961 0.85322 0.0
C672 C 0.91011 0.01715 0.88842 0.0
C673 C 0.87728 0.0284 0.89737 0.0
C674 C 0.8528 0.03283 0.8716 0.0
H675 H 0.86824 0.09857 0.76112 0.0
H676 H 0.88078 0.08457 0.80401 0.0
H677 H 0.89231 0.05966 0.76597 0.0
H678 H 0.89928 0.00752 0.80064 0.0
H679 H 0.94247 0.00051 0.84543 0.0
H680 H 0.28244 0.36561 0.01204 0.0
H681 H 0.24354 0.31791 0.00189 0.0
H682 H 0.31717 0.24708 0.04354 0.0
H683 H 0.35531 0.29472 0.0554 0.0
H684 H 0.24749 0.26087 0.96264 0.0
H685 H 0.23645 0.22434 0.10206 0.0
H686 H 0.25681 0.26337 0.08839 0.0
H687 H 0.27915 0.22293 0.08614 0.0
C688 C 0.29031 0.3398 0.01888 0.0
C689 C 0.32203 0.33397 0.03421 0.0
C690 C 0.26812 0.3126 0.01307 0.0
C691 C 0.2772 0.27898 0.02248 0.0
C692 C 0.30925 0.2729 0.03687 0.0
H693 H 0.17023 0.08446 0.00905 0.0
H694 H 0.21373 0.12871 0.01238 0.0
C695 C 0.33124 0.30016 0.04322 0.0
C696 C 0.25291 0.25047 0.01756 0.0
H697 H 0.21083 0.18712 0.06088 0.0
C698 C 0.23945 0.24479 0.98414 0.0
C699 C 0.2423 0.22955 0.04568 0.0
C700 C 0.25415 0.23552 0.08263 0.0
C701 C 0.21585 0.21866 0.97805 0.0
C702 C 0.20546 0.19776 0.00612 0.0
C703 C 0.21911 0.20312 0.0394 0.0
C704 C 0.1795 0.17091 0.00189 0.0
C705 C 0.20232 0.21341 0.94165 0.0
C706 C 0.14588 0.18012 0.99497 0.0
C707 C 0.12089 0.15498 0.99323 0.0
C708 C 0.12908 0.12011 0.99837 0.0
C709 C 0.16297 0.111 0.00483 0.0
C710 C 0.1879 0.13622 0.00679 0.0
H711 H 0.2181 0.22644 0.92169 0.0
H712 H 0.201 0.18561 0.93512 0.0
H713 H 0.17632 0.22421 0.94027 0.0
H714 H 0.13886 0.20685 0.99163 0.0
H715 H 0.09512 0.163 0.98813 0.0
H716 H 0.36656 0.74523 0.98822 0.0
H717 H 0.31362 0.77734 0.98148 0.0
H718 H 0.27322 0.72877 0.07351 0.0
H719 H 0.32643 0.69676 0.08061 0.0
H720 H 0.24514 0.75567 0.97491 0.0
H721 H 0.26764 0.83272 0.09546 0.0
H722 H 0.30033 0.80689 0.075 0.0
H723 H 0.26797 0.78685 0.10071 0.0
C724 C 0.34619 0.741 0.00669 0.0
C725 C 0.35046 0.71827 0.03474 0.0
C726 C 0.316 0.75934 0.00282 0.0
C727 C 0.28966 0.7556 0.02714 0.0
C728 C 0.29341 0.73223 0.05466 0.0
H729 H 0.09153 0.85688 0.00452 0.0
H730 H 0.1356 0.81295 0.0111 0.0
C731 C 0.32366 0.71383 0.05856 0.0
C732 C 0.25914 0.77764 0.02447 0.0
H733 H 0.21799 0.84481 0.06416 0.0
C734 C 0.23894 0.77497 0.99453 0.0
C735 C 0.25146 0.80301 0.04998 0.0
C736 C 0.27306 0.80788 0.08201 0.0
C737 C 0.21147 0.79736 0.98921 0.0
C738 C 0.20395 0.82281 0.01465 0.0
C739 C 0.2238 0.8251 0.04482 0.0
C740 C 0.17705 0.84889 0.0095 0.0
C741 C 0.19147 0.79451 0.95588 0.0
C742 C 0.18579 0.88362 0.00671 0.0
C743 C 0.16079 0.90877 0.00303 0.0
C744 C 0.12639 0.89976 0.00227 0.0
C745 C 0.11772 0.86481 0.00484 0.0
C746 C 0.14286 0.83961 0.00849 0.0
H747 H 0.20423 0.77768 0.93624 0.0
H748 H 0.16629 0.78348 0.9618 0.0
H749 H 0.1874 0.82029 0.94427 0.0
H750 H 0.21207 0.89128 0.00749 0.0
H751 H 0.16857 0.93534 0.00116 0.0
H752 H 0.70254 0.31383 0.92473 0.0
H753 H 0.73848 0.2637 0.93599 0.0
H754 H 0.7906 0.32036 0.0163 0.0
H755 H 0.75404 0.37025 0.0058 0.0
H756 H 0.80644 0.26026 0.9283 0.0
H757 H 0.77214 0.23038 0.06542 0.0
H758 H 0.747 0.25869 0.03866 0.0
H759 H 0.78478 0.27415 0.05928 0.0
C760 C 0.72109 0.31528 0.94538 0.0
C761 C 0.72491 0.34565 0.96507 0.0
C762 C 0.74173 0.28672 0.95166 0.0
C763 C 0.76677 0.28804 0.97746 0.0
C764 C 0.77077 0.31838 0.997 0.0
H765 H 0.94827 0.16667 0.99891 0.0
H766 H 0.90551 0.21198 0.99449 0.0
C767 C 0.75 0.34689 0.99089 0.0
C768 C 0.79029 0.2586 0.98211 0.0
H769 H 0.82162 0.20251 0.04242 0.0
C770 C 0.80955 0.2475 0.95319 0.0
C771 C 0.79421 0.24184 0.01459 0.0
C772 C 0.77321 0.25162 0.04618 0.0
C773 C 0.83315 0.22062 0.95608 0.0
C774 C 0.83772 0.20463 0.98872 0.0
C775 C 0.81809 0.21513 0.01751 0.0
C776 C 0.8632 0.17716 0.99326 0.0
C777 C 0.85315 0.20937 0.9243 0.0
C778 C 0.85334 0.14267 0.99448 0.0
C779 C 0.87769 0.11658 0.99685 0.0
C780 C 0.91234 0.12461 0.9982 0.0
C781 C 0.92192 0.1594 0.99774 0.0
C782 C 0.89755 0.1854 0.99526 0.0
H783 H 0.84389 0.2217 0.90003 0.0
H784 H 0.88013 0.21618 0.92786 0.0
H785 H 0.85182 0.18102 0.92109 0.0
H786 H 0.82685 0.13594 0.9929 0.0
H787 H 0.8693 0.09014 0.99712 0.0
H788 H 0.68625 0.72703 0.94868 0.0
H789 H 0.73851 0.76047 0.9483 0.0
H790 H 0.74068 0.75798 0.06095 0.0
H791 H 0.6879 0.72571 0.06144 0.0
H792 H 0.7484 0.82129 0.03792 0.0
H793 H 0.83602 0.73539 0.96479 0.0
H794 H 0.79794 0.74405 0.94109 0.0
H795 H 0.79588 0.72092 0.98162 0.0
C796 C 0.69819 0.73328 0.97329 0.0
C797 C 0.68305 0.72377 0.00508 0.0
C798 C 0.72818 0.75212 0.97306 0.0
C799 C 0.74381 0.76132 0.0046 0.0
C800 C 0.72916 0.75104 0.0363 0.0
H801 H 0.93982 0.86295 0.0196 0.0
H802 H 0.89388 0.82111 0.02176 0.0
C803 C 0.69906 0.73254 0.03656 0.0
C804 C 0.77371 0.78414 0.00478 0.0
H805 H 0.85333 0.79401 0.97151 0.0
C806 C 0.77145 0.81514 0.02365 0.0
C807 C 0.80395 0.77595 0.98655 0.0
C808 C 0.80879 0.7421 0.96768 0.0
C809 C 0.79824 0.83852 0.02415 0.0
C810 C 0.82778 0.8312 0.00437 0.0
C811 C 0.83047 0.79979 0.98626 0.0
C812 C 0.85589 0.85608 0.00191 0.0
C813 C 0.79471 0.87065 0.04623 0.0
C814 C 0.84993 0.88935 0.98932 0.0
C815 C 0.87594 0.91337 0.98841 0.0
C816 C 0.90867 0.90442 0.99948 0.0
C817 C 0.9149 0.87068 0.01092 0.0
C818 C 0.88869 0.84674 0.01217 0.0
H819 H 0.77591 0.86727 0.0676 0.0
H820 H 0.81925 0.87803 0.05796 0.0
H821 H 0.78577 0.89211 0.02962 0.0
H822 H 0.82505 0.89682 0.9803 0.0
H823 H 0.87038 0.93894 0.97888 0.0
loop_
_geom_bond_atom_site_label_1
_geom_bond_atom_site_label_2
_geom_bond_distance
_geom_bond_site_symmetry_2
_ccdc_geom_bond_type
C0 C1 1.560 . S
C0 H61 0.959 . S
C0 H62 0.959 . S
C0 H63 0.960 . S
C1 C0 1.560 . S
C1 O56 1.426 . S
C1 H60 0.980 . S
C2 C3 1.407 . S
C2 C7 1.418 . S
C2 O56 1.334 . S
C3 C2 1.407 . S
C3 C4 1.360 1_455 S
C3 H64 0.929 1_455 S
C4 C3 1.360 1_655 S
C4 C5 1.401 1_655 S
C4 C8 1.527 . S
C5 C4 1.401 1_455 S
C5 C6 1.405 . S
C5 C38 1.587 . S
C6 C5 1.405 . S
C6 C7 1.332 . S
C6 C9 1.496 . S
C7 C2 1.418 . S
C7 C6 1.332 . S
C7 H65 0.929 . S
C8 C4 1.527 . S
C8 H66 0.959 . S
C8 H67 0.961 . S
C8 H68 0.961 . S
C9 C6 1.496 . S
C9 H69 0.960 . S
C9 H70 0.960 . S
C9 H71 0.961 . S
C10 C11 1.513 1_655 S
C10 H73 0.961 1_655 S
C10 H74 0.960 . S
C10 H75 0.959 . S
C11 C10 1.513 1_455 S
C11 O59 1.455 1_455 S
C11 H72 0.988 . S
C12 C13 1.349 1_655 S
C12 C17 1.367 . S
C12 O59 1.408 . S
C13 C12 1.349 1_455 S
C13 C14 1.407 . S
C13 H76 0.930 . S
C14 C13 1.407 . S
C14 C15 1.449 1_455 S
C14 C18 1.535 . S
C15 C14 1.449 1_655 S
C15 C16 1.384 . S
C15 C40 1.553 . S
C16 C15 1.384 . S
C16 C17 1.364 . S
C16 C19 1.450 . S
C17 C12 1.367 . S
C17 C16 1.364 . S
C17 H77 0.931 . S
C18 C14 1.535 . S
C18 H78 0.959 . S
C18 H79 0.961 . S
C18 H80 0.959 . S
C19 C16 1.450 . S
C19 H81 0.960 . S
C19 H82 0.960 . S
C19 H83 0.960 . S
C20 C21 1.309 1_655 S
C20 C25 1.304 . S
C20 O58 1.435 . S
C21 C20 1.309 1_455 S
C21 C22 1.476 . S
C21 H85 0.930 . S
C22 C21 1.476 . S
C22 C23 1.400 1_455 S
C22 C26 1.567 . S
C23 C22 1.400 1_655 S
C23 C24 1.373 . S
C23 C45 1.431 . S
C24 C23 1.373 . S
C24 C25 1.339 . S
C24 C27 1.530 . S
C25 C20 1.304 . S
C25 C24 1.339 . S
C25 H86 0.930 . S
C26 C22 1.567 . S
C26 H87 0.961 . S
C26 H88 0.960 . S
C26 H89 0.958 . S
C27 C24 1.530 . S
C27 H90 0.961 . S
C27 H91 0.960 . S
C27 H92 0.960 . S
C28 C29 1.530 . S
C28 H94 0.961 . S
C28 H95 0.961 . S
C28 H96 0.959 . S
C29 C28 1.530 . S
C29 O57 1.412 . S
C29 H93 0.980 . S
C30 C31 1.288 . S
C30 C35 1.377 . S
C30 O57 1.393 . S
C31 C30 1.288 . S
C31 C32 1.369 . S
C31 H97 0.932 . S
C32 C31 1.369 . S
C32 C33 1.398 . S
C32 C36 1.527 . S
C33 C32 1.398 . S
C33 C34 1.380 1_455 S
C33 C47 1.497 . S
C34 C33 1.380 1_655 S
C34 C35 1.383 1_655 S
C34 C37 1.603 . S
C35 C30 1.377 . S
C35 C34 1.383 1_455 S
C35 H98 0.929 1_455 S
C36 C32 1.527 . S
C36 H99 0.961 . S
C36 H100 0.959 . S
C36 H101 0.959 . S
C37 C34 1.603 . S
C37 H102 0.960 . S
C37 H103 0.962 . S
C37 H104 0.961 . S
C38 C5 1.587 . S
C38 C39 1.360 1_455 S
C38 C51 1.412 . S
C39 C38 1.360 1_655 S
C39 C40 1.365 . S
C39 H105 0.929 . S
C40 C15 1.553 . S
C40 C39 1.365 . S
C40 C41 1.404 . S
C41 C40 1.404 . S
C41 C42 1.395 . S
C41 C52 1.451 . S
C42 C41 1.395 . S
C42 C43 1.322 . S
C42 H106 0.930 . S
C43 C42 1.322 . S
C43 C44 1.459 . S
C43 H107 0.929 . S
C44 C43 1.459 . S
C44 C45 1.445 . S
C44 C53 1.396 . S
C45 C23 1.431 . S
C45 C44 1.445 . S
C45 C46 1.371 1_655 S
C46 C45 1.371 1_455 S
C46 C47 1.438 . S
C46 H108 0.930 . S
C47 C33 1.497 . S
C47 C46 1.438 . S
C47 C48 1.360 . S
C48 C47 1.360 . S
C48 C49 1.401 . S
C48 C53 1.444 1_455 S
C49 C48 1.401 . S
C49 C50 1.347 . S
C49 H109 0.929 . S
C50 C49 1.347 . S
C50 C51 1.455 . S
C50 H110 0.930 . S
C51 C38 1.412 . S
C51 C50 1.455 . S
C51 C52 1.331 1_455 S
C52 C41 1.451 . S
C52 C51 1.331 1_655 S
C52 C53 1.497 . S
C53 C44 1.396 . S
C53 C48 1.444 1_655 S
C53 C52 1.497 . S
C54 C55 1.582 1_655 S
C54 H111 0.962 1_655 S
C54 H112 0.959 . S
C54 H113 0.958 . S
C55 C54 1.582 1_455 S
C55 O58 1.458 1_455 S
C55 H84 0.980 . S
O56 C1 1.426 . S
O56 C2 1.334 . S
O57 C29 1.412 . S
O57 C30 1.393 . S
O58 C20 1.435 . S
O58 C55 1.458 1_655 S
O59 C11 1.455 1_655 S
O59 C12 1.408 . S
H60 C1 0.980 . S
H61 C0 0.959 . S
H62 C0 0.959 . S
H63 C0 0.960 . S
H64 C3 0.929 1_655 S
H65 C7 0.929 . S
H66 C8 0.959 . S
H67 C8 0.961 . S
H68 C8 0.961 . S
H69 C9 0.960 . S
H70 C9 0.960 . S
H71 C9 0.961 . S
H72 C11 0.988 . S
H73 C10 0.961 1_455 S
H74 C10 0.960 . S
H75 C10 0.959 . S
H76 C13 0.930 . S
H77 C17 0.931 . S
H78 C18 0.959 . S
H79 C18 0.961 . S
H80 C18 0.959 . S
H81 C19 0.960 . S
H82 C19 0.960 . S
H83 C19 0.960 . S
H84 C55 0.980 . S
H85 C21 0.930 . S
H86 C25 0.930 . S
H87 C26 0.961 . S
H88 C26 0.960 . S
H89 C26 0.958 . S
H90 C27 0.961 . S
H91 C27 0.960 . S
H92 C27 0.960 . S
H93 C29 0.980 . S
H94 C28 0.961 . S
H95 C28 0.961 . S
H96 C28 0.959 . S
H97 C31 0.932 . S
H98 C35 0.929 1_655 S
H99 C36 0.961 . S
H100 C36 0.959 . S
H101 C36 0.959 . S
H102 C37 0.960 . S
H103 C37 0.962 . S
H104 C37 0.961 . S
H105 C39 0.929 . S
H106 C42 0.930 . S
H107 C43 0.929 . S
H108 C46 0.930 . S
H109 C49 0.929 . S
H110 C50 0.930 . S
H111 C54 0.962 1_455 S
H112 C54 0.959 . S
H113 C54 0.958 . S
C114 C115 1.560 . S
C114 H175 0.959 . S
C114 H176 0.959 . S
C114 H177 0.960 . S
C115 C114 1.560 . S
C115 O170 1.426 . S
C115 H174 0.980 . S
C116 C117 1.377 1_545 S
C116 C121 1.418 . S
C116 O170 1.334 . S
C117 C116 1.377 1_565 S
C117 C118 1.370 . S
C117 H178 0.949 . S
C118 C117 1.370 . S
C118 C119 1.401 1_565 S
C118 C122 1.527 . S
C119 C118 1.401 1_545 S
C119 C120 1.405 . S
C119 C152 1.587 1_545 S
C120 C119 1.405 . S
C120 C121 1.332 . S
C120 C123 1.496 . S
C121 C116 1.418 . S
C121 C120 1.332 . S
C121 H179 0.929 . S
C122 C118 1.527 . S
C122 H180 0.959 . S
C122 H181 0.961 . S
C122 H182 0.961 . S
C123 C120 1.496 . S
C123 H183 0.960 . S
C123 H184 0.960 . S
C123 H185 0.961 . S
C124 C125 1.517 . S
C124 H187 0.961 1_565 S
C124 H188 0.960 . S
C124 H189 0.959 . S
C125 C124 1.517 . S
C125 O173 1.468 . S
C125 H186 0.980 1_565 S
C126 C127 1.349 1_565 S
C126 C131 1.367 . S
C126 O173 1.408 . S
C127 C126 1.349 1_545 S
C127 C128 1.407 . S
C127 H190 0.930 . S
C128 C127 1.407 . S
C128 C129 1.449 1_545 S
C128 C132 1.535 . S
C129 C128 1.449 1_565 S
C129 C130 1.384 . S
C129 C154 1.553 . S
C130 C129 1.384 . S
C130 C131 1.364 . S
C130 C133 1.450 . S
C131 C126 1.367 . S
C131 C130 1.364 . S
C131 H191 0.931 . S
C132 C128 1.535 . S
C132 H192 0.959 . S
C132 H193 0.961 . S
C132 H194 0.959 . S
C133 C130 1.450 . S
C133 H195 0.960 . S
C133 H196 0.960 . S
C133 H197 0.960 . S
C134 C135 1.309 1_565 S
C134 C139 1.304 . S
C134 O172 1.435 . S
C135 C134 1.309 1_545 S
C135 C136 1.476 . S
C135 H199 0.930 . S
C136 C135 1.476 . S
C136 C137 1.400 1_545 S
C136 C140 1.567 . S
C137 C136 1.400 1_565 S
C137 C138 1.373 . S
C137 C159 1.432 . S
C138 C137 1.373 . S
C138 C139 1.339 . S
C138 C141 1.530 . S
C139 C134 1.304 . S
C139 C138 1.339 . S
C139 H200 0.930 . S
C140 C136 1.567 . S
C140 H201 0.961 . S
C140 H202 0.960 . S
C140 H203 0.958 . S
C141 C138 1.530 . S
C141 H204 0.961 . S
C141 H205 0.960 . S
C141 H206 0.960 . S
C142 C143 1.530 . S
C142 H208 0.961 . S
C142 H209 0.961 . S
C142 H210 0.959 . S
C143 C142 1.530 . S
C143 O171 1.412 . S
C143 H207 0.980 . S
C144 C145 1.288 . S
C144 C149 1.358 1_545 S
C144 O171 1.393 . S
C145 C144 1.288 . S
C145 C146 1.369 . S
C145 H211 0.932 . S
C146 C145 1.369 . S
C146 C147 1.398 . S
C146 C150 1.527 . S
C147 C146 1.398 . S
C147 C148 1.380 1_545 S
C147 C161 1.497 . S
C148 C147 1.380 1_565 S
C148 C149 1.388 . S
C148 C151 1.603 . S
C149 C144 1.358 1_565 S
C149 C148 1.388 . S
C149 H212 0.942 . S
C150 C146 1.527 . S
C150 H213 0.961 . S
C150 H214 0.959 . S
C150 H215 0.959 . S
C151 C148 1.603 . S
C151 H216 0.960 . S
C151 H217 0.962 . S
C151 H218 0.961 . S
C152 C119 1.587 1_565 S
C152 C153 1.360 . S
C152 C165 1.412 . S
C153 C152 1.360 . S
C153 C154 1.365 . S
C153 H219 0.929 . S
C154 C129 1.553 . S
C154 C153 1.365 . S
C154 C155 1.404 . S
C155 C154 1.404 . S
C155 C156 1.395 . S
C155 C166 1.451 . S
C156 C155 1.395 . S
C156 C157 1.322 . S
C156 H220 0.930 . S
C157 C156 1.322 . S
C157 C158 1.459 . S
C157 H221 0.929 . S
C158 C157 1.459 . S
C158 C159 1.445 . S
C158 C167 1.395 . S
C159 C137 1.432 . S
C159 C158 1.445 . S
C159 C160 1.370 1_565 S
C160 C159 1.370 1_545 S
C160 C161 1.438 . S
C160 H222 0.930 . S
C161 C147 1.497 . S
C161 C160 1.438 . S
C161 C162 1.360 . S
C162 C161 1.360 . S
C162 C163 1.401 . S
C162 C167 1.446 1_545 S
C163 C162 1.401 . S
C163 C164 1.347 . S
C163 H223 0.929 . S
C164 C163 1.347 . S
C164 C165 1.455 1_545 S
C164 H224 0.930 . S
C165 C152 1.412 . S
C165 C164 1.455 1_565 S
C165 C166 1.331 . S
C166 C155 1.451 . S
C166 C165 1.331 . S
C166 C167 1.497 . S
C167 C158 1.395 . S
C167 C162 1.446 1_565 S
C167 C166 1.497 . S
C168 C169 1.582 1_565 S
C168 H225 0.961 1_565 S
C168 H226 0.959 . S
C168 H227 0.958 . S
C169 C168 1.582 1_545 S
C169 O172 1.458 1_545 S
C169 H198 0.980 . S
O170 C115 1.426 . S
O170 C116 1.334 . S
O171 C143 1.412 . S
O171 C144 1.393 . S
O172 C134 1.435 . S
O172 C169 1.458 1_565 S
O173 C125 1.468 . S
O173 C126 1.408 . S
H174 C115 0.980 . S
H175 C114 0.959 . S
H176 C114 0.959 . S
H177 C114 0.960 . S
H178 C117 0.949 . S
H179 C121 0.929 . S
H180 C122 0.959 . S
H181 C122 0.961 . S
H182 C122 0.961 . S
H183 C123 0.960 . S
H184 C123 0.960 . S
H185 C123 0.961 . S
H186 C125 0.980 1_545 S
H187 C124 0.961 1_545 S
H188 C124 0.960 . S
H189 C124 0.959 . S
H190 C127 0.930 . S
H191 C131 0.931 . S
H192 C132 0.959 . S
H193 C132 0.961 . S
H194 C132 0.959 . S
H195 C133 0.960 . S
H196 C133 0.960 . S
H197 C133 0.960 . S
H198 C169 0.980 . S
H199 C135 0.930 . S
H200 C139 0.930 . S
H201 C140 0.961 . S
H202 C140 0.960 . S
H203 C140 0.958 . S
H204 C141 0.961 . S
H205 C141 0.960 . S
H206 C141 0.960 . S
H207 C143 0.980 . S
H208 C142 0.961 . S
H209 C142 0.961 . S
H210 C142 0.959 . S
H211 C145 0.932 . S
H212 C149 0.942 . S
H213 C150 0.961 . S
H214 C150 0.959 . S
H215 C150 0.959 . S
H216 C151 0.960 . S
H217 C151 0.962 . S
H218 C151 0.961 . S
H219 C153 0.929 . S
H220 C156 0.930 . S
H221 C157 0.929 . S
H222 C160 0.930 . S
H223 C163 0.929 . S
H224 C164 0.930 . S
H225 C168 0.961 1_545 S
H226 C168 0.959 . S
H227 C168 0.958 . S
C228 C229 1.560 . S
C228 H289 0.959 . S
C228 H290 0.959 . S
C228 H291 0.960 . S
C229 C228 1.560 . S
C229 O284 1.426 . S
C229 H288 0.980 . S
C230 C231 1.407 1_556 S
C230 C235 1.418 . S
C230 O284 1.334 . S
C231 C230 1.407 1_554 S
C231 C232 1.360 . S
C231 H292 0.929 . S
C232 C231 1.360 . S
C232 C233 1.401 . S
C232 C236 1.527 . S
C233 C232 1.401 . S
C233 C234 1.405 1_554 S
C233 C266 1.587 . S
C234 C233 1.405 1_556 S
C234 C235 1.332 . S
C234 C237 1.496 . S
C235 C230 1.418 . S
C235 C234 1.332 . S
C235 H293 0.929 . S
C236 C232 1.527 . S
C236 H294 0.959 . S
C236 H295 0.961 . S
C236 H296 0.961 . S
C237 C234 1.496 . S
C237 H297 0.960 . S
C237 H298 0.960 . S
C237 H299 0.961 . S
C238 C239 1.517 . S
C238 H301 0.961 . S
C238 H302 0.960 . S
C238 H303 0.959 . S
C239 C238 1.517 . S
C239 O287 1.468 . S
C239 H300 0.980 . S
C240 C241 1.349 . S
C240 C245 1.367 . S
C240 O287 1.408 . S
C241 C240 1.349 . S
C241 C242 1.407 . S
C241 H304 0.930 1_554 S
C242 C241 1.407 . S
C242 C243 1.449 . S
C242 C246 1.535 1_554 S
C243 C242 1.449 . S
C243 C244 1.384 . S
C243 C268 1.553 . S
C244 C243 1.384 . S
C244 C245 1.364 . S
C244 C247 1.450 . S
C245 C240 1.367 . S
C245 C244 1.364 . S
C245 H305 0.931 . S
C246 C242 1.535 1_556 S
C246 H306 0.959 . S
C246 H307 0.961 . S
C246 H308 0.959 . S
C247 C244 1.450 . S
C247 H309 0.960 . S
C247 H310 0.960 . S
C247 H311 0.960 . S
C248 C249 1.289 1_554 S
C248 C253 1.304 . S
C248 O286 1.435 . S
C249 C248 1.289 1_556 S
C249 C250 1.479 . S
C249 H313 0.945 . S
C250 C249 1.479 . S
C250 C251 1.400 1_556 S
C250 C254 1.567 . S
C251 C250 1.400 1_554 S
C251 C252 1.373 . S
C251 C273 1.432 . S
C252 C251 1.373 . S
C252 C253 1.339 . S
C252 C255 1.530 . S
C253 C248 1.304 . S
C253 C252 1.339 . S
C253 H314 0.930 . S
C254 C250 1.567 . S
C254 H315 0.961 . S
C254 H316 0.960 . S
C254 H317 0.958 . S
C255 C252 1.530 . S
C255 H318 0.961 . S
C255 H319 0.960 . S
C255 H320 0.960 . S
C256 C257 1.530 . S
C256 H322 0.961 . S
C256 H323 0.961 . S
C256 H324 0.959 . S
C257 C256 1.530 . S
C257 O285 1.412 . S
C257 H321 0.980 1_556 S
C258 C259 1.288 . S
C258 C263 1.377 1_556 S
C258 O285 1.393 . S
C259 C258 1.288 . S
C259 C260 1.369 . S
C259 H325 0.932 . S
C260 C259 1.369 . S
C260 C261 1.425 . S
C260 C264 1.527 . S
C261 C260 1.425 . S
C261 C262 1.360 1_556 S
C261 C275 1.492 1_556 S
C262 C261 1.360 1_554 S
C262 C263 1.383 . S
C262 C265 1.603 . S
C263 C258 1.377 1_554 S
C263 C262 1.383 . S
C263 H326 0.929 . S
C264 C260 1.527 . S
C264 H327 0.961 . S
C264 H328 0.959 . S
C264 H329 0.959 . S
C265 C262 1.603 . S
C265 H330 0.960 . S
C265 H331 0.962 . S
C265 H332 0.961 . S
C266 C233 1.587 . S
C266 C267 1.360 . S
C266 C279 1.412 . S
C267 C266 1.360 . S
C267 C268 1.365 . S
C267 H333 0.929 . S
C268 C243 1.553 . S
C268 C267 1.365 . S
C268 C269 1.404 . S
C269 C268 1.404 . S
C269 C270 1.395 . S
C269 C280 1.451 . S
C270 C269 1.395 . S
C270 C271 1.322 . S
C270 H334 0.930 . S
C271 C270 1.322 . S
C271 C272 1.459 . S
C271 H335 0.929 . S
C272 C271 1.459 . S
C272 C273 1.445 . S
C272 C281 1.395 . S
C273 C251 1.432 . S
C273 C272 1.445 . S
C273 C274 1.370 . S
C274 C273 1.370 . S
C274 C275 1.438 . S
C274 H336 0.930 . S
C275 C261 1.492 1_554 S
C275 C274 1.438 . S
C275 C276 1.360 . S
C276 C275 1.360 . S
C276 C277 1.401 . S
C276 C281 1.446 . S
C277 C276 1.401 . S
C277 C278 1.347 . S
C277 H337 0.929 . S
C278 C277 1.347 . S
C278 C279 1.455 . S
C278 H338 0.930 . S
C279 C266 1.412 . S
C279 C278 1.455 . S
C279 C280 1.331 . S
C280 C269 1.451 . S
C280 C279 1.331 . S
C280 C281 1.497 . S
C281 C272 1.395 . S
C281 C276 1.446 . S
C281 C280 1.497 . S
C282 C283 1.582 . S
C282 H339 0.962 . S
C282 H340 0.959 . S
C282 H341 0.958 . S
C283 C282 1.582 . S
C283 O286 1.458 . S
C283 H312 0.980 . S
O284 C229 1.426 . S
O284 C230 1.334 . S
O285 C257 1.412 . S
O285 C258 1.393 . S
O286 C248 1.435 . S
O286 C283 1.458 . S
O287 C239 1.468 . S
O287 C240 1.408 . S
H288 C229 0.980 . S
H289 C228 0.959 . S
H290 C228 0.959 . S
H291 C228 0.960 . S
H292 C231 0.929 . S
H293 C235 0.929 . S
H294 C236 0.959 . S
H295 C236 0.961 . S
H296 C236 0.961 . S
H297 C237 0.960 . S
H298 C237 0.960 . S
H299 C237 0.961 . S
H300 C239 0.980 . S
H301 C238 0.961 . S
H302 C238 0.960 . S
H303 C238 0.959 . S
H304 C241 0.930 1_556 S
H305 C245 0.931 . S
H306 C246 0.959 . S
H307 C246 0.961 . S
H308 C246 0.959 . S
H309 C247 0.960 . S
H310 C247 0.960 . S
H311 C247 0.960 . S
H312 C283 0.980 . S
H313 C249 0.945 . S
H314 C253 0.930 . S
H315 C254 0.961 . S
H316 C254 0.960 . S
H317 C254 0.958 . S
H318 C255 0.961 . S
H319 C255 0.960 . S
H320 C255 0.960 . S
H321 C257 0.980 1_554 S
H322 C256 0.961 . S
H323 C256 0.961 . S
H324 C256 0.959 . S
H325 C259 0.932 . S
H326 C263 0.929 . S
H327 C264 0.961 . S
H328 C264 0.959 . S
H329 C264 0.959 . S
H330 C265 0.960 . S
H331 C265 0.962 . S
H332 C265 0.961 . S
H333 C267 0.929 . S
H334 C270 0.930 . S
H335 C271 0.929 . S
H336 C274 0.930 . S
H337 C277 0.929 . S
H338 C278 0.930 . S
H339 C282 0.962 . S
H340 C282 0.959 . S
H341 C282 0.958 . S
C342 O368 1.283 . S
C342 O386 1.283 . S
C343 O369 1.283 . S
C343 O384 1.283 . S
C344 O370 1.283 . S
C344 O387 1.283 . S
C345 O371 1.283 . S
C345 O385 1.283 . S
C346 O372 1.283 . S
C346 O381 1.283 . S
C347 O373 1.283 1_554 S
C347 O383 1.283 . S
C348 O374 1.283 . S
C348 O380 1.283 1_554 S
C349 O375 1.283 . S
C349 O382 1.283 . S
C350 O376 1.283 . S
C350 O391 1.283 . S
C351 O377 1.283 . S
C351 O389 1.283 . S
C352 O378 1.283 . S
C352 O390 1.283 . S
C353 O379 1.283 . S
C353 O388 1.283 . S
Eu354 O355 2.375 . S
Eu354 O356 2.365 1_454 S
Eu354 O359 2.365 1_554 S
Eu354 O360 2.375 1_455 S
Eu354 O368 2.354 1_554 S
Eu354 O369 2.371 . S
Eu354 O382 2.363 1_455 S
Eu354 O383 2.363 . S
O355 Eu354 2.375 . S
O355 Eu357 2.369 1_554 S
O355 Eu362 2.370 . S
O356 Eu354 2.365 1_656 S
O356 Eu358 2.365 1_556 S
O356 Eu361 2.370 1_655 S
Eu357 O355 2.369 1_556 S
Eu357 O359 2.371 . S
Eu357 O363 2.371 1_545 S
Eu357 O364 2.369 1_546 S
Eu357 O372 2.363 1_545 S
Eu357 O373 2.363 . S
Eu357 O388 2.364 . S
Eu357 O389 2.362 1_556 S
Eu358 O356 2.365 1_554 S
Eu358 O360 2.375 . S
Eu358 O365 2.375 1_545 S
Eu358 O366 2.365 1_544 S
Eu358 O374 2.363 1_545 S
Eu358 O375 2.363 . S
Eu358 O390 2.355 1_554 S
Eu358 O391 2.371 . S
O359 Eu354 2.365 1_556 S
O359 Eu357 2.371 . S
O359 Eu361 2.370 . S
O360 Eu354 2.375 1_655 S
O360 Eu358 2.375 . S
O360 Eu362 2.370 1_655 S
Eu361 O356 2.370 1_455 S
Eu361 O359 2.370 . S
Eu361 O363 2.370 1_545 S
Eu361 O366 2.370 1_445 S
Eu361 O378 2.363 1_455 S
Eu361 O379 2.363 . S
Eu361 O386 2.363 . S
Eu361 O387 2.363 1_545 S
Eu362 O355 2.370 . S
Eu362 O360 2.370 1_455 S
Eu362 O364 2.370 1_545 S
Eu362 O365 2.370 1_445 S
Eu362 O376 2.363 1_455 S
Eu362 O377 2.363 . S
Eu362 O384 2.363 . S
Eu362 O385 2.363 1_545 S
O363 Eu357 2.371 1_565 S
O363 Eu361 2.370 1_565 S
O363 Eu367 2.371 . S
O364 Eu357 2.369 1_564 S
O364 Eu362 2.370 1_565 S
O364 Eu367 2.369 1_554 S
O365 Eu358 2.375 1_565 S
O365 Eu362 2.370 1_665 S
O365 Eu367 2.369 1_654 S
O366 Eu358 2.365 1_566 S
O366 Eu361 2.370 1_665 S
O366 Eu367 2.371 1_655 S
Eu367 O363 2.371 . S
Eu367 O364 2.369 1_556 S
Eu367 O365 2.369 1_456 S
Eu367 O366 2.371 1_455 S
Eu367 O370 2.365 . S
Eu367 O371 2.361 1_556 S
Eu367 O380 2.363 1_455 S
Eu367 O381 2.363 . S
O368 C342 1.283 . S
O368 Eu354 2.354 1_556 S
O369 C343 1.283 . S
O369 Eu354 2.371 . S
O370 C344 1.283 . S
O370 Eu367 2.365 . S
O371 C345 1.283 . S
O371 Eu367 2.361 1_554 S
O372 C346 1.283 . S
O372 Eu357 2.363 1_565 S
O373 C347 1.283 1_556 S
O373 Eu357 2.363 . S
O374 C348 1.283 . S
O374 Eu358 2.363 1_565 S
O375 C349 1.283 . S
O375 Eu358 2.363 . S
O376 C350 1.283 . S
O376 Eu362 2.363 1_655 S
O377 C351 1.283 . S
O377 Eu362 2.363 . S
O378 C352 1.283 . S
O378 Eu361 2.363 1_655 S
O379 C353 1.283 . S
O379 Eu361 2.363 . S
O380 C348 1.283 1_556 S
O380 Eu367 2.363 1_655 S
O381 C346 1.283 . S
O381 Eu367 2.363 . S
O382 C349 1.283 . S
O382 Eu354 2.363 1_655 S
O383 C347 1.283 . S
O383 Eu354 2.363 . S
O384 C343 1.283 . S
O384 Eu362 2.363 . S
O385 C345 1.283 . S
O385 Eu362 2.363 1_565 S
O386 C342 1.283 . S
O386 Eu361 2.363 . S
O387 C344 1.283 . S
O387 Eu361 2.363 1_565 S
O388 C353 1.283 . S
O388 Eu357 2.364 . S
O389 C351 1.283 . S
O389 Eu357 2.362 1_554 S
O390 C352 1.283 . S
O390 Eu358 2.355 1_556 S
O391 C350 1.283 . S
O391 Eu358 2.371 . S
H392 C400 0.929 . S
H393 C402 0.930 . S
H394 C404 0.930 . S
H395 C407 0.929 . S
H396 C410 0.930 . S
H397 C412 0.960 . S
H398 C412 0.960 . S
H399 C412 0.960 . S
C400 H392 0.929 . S
C400 C401 1.377 . S
C400 C402 1.384 . S
C401 C400 1.377 . S
C401 C407 1.390 . S
C402 H393 0.930 . S
C402 C400 1.384 . S
C402 C403 1.372 . S
C403 C402 1.372 . S
C403 C404 1.400 . S
C403 C408 1.490 . S
C404 H394 0.930 . S
C404 C403 1.400 . S
C404 C407 1.386 . S
H405 C421 0.930 . S
H406 C422 0.931 . S
C407 H395 0.929 . S
C407 C401 1.390 . S
C407 C404 1.386 . S
C408 C403 1.490 . S
C408 C410 1.395 1_455 S
C408 C411 1.403 . S
H409 C415 0.930 . S
C410 H396 0.930 . S
C410 C408 1.395 1_655 S
C410 C413 1.403 . S
C411 C408 1.403 . S
C411 C412 1.524 . S
C411 C415 1.400 . S
C412 H397 0.960 . S
C412 H398 0.960 . S
C412 H399 0.960 . S
C412 C411 1.524 . S
C413 C410 1.403 . S
C413 C414 1.392 1_655 S
C413 C417 1.495 . S
C414 C413 1.392 1_455 S
C414 C415 1.385 . S
C414 C416 1.478 . S
C415 H409 0.930 . S
C415 C411 1.400 . S
C415 C414 1.385 . S
C416 C414 1.478 . S
C416 C418 1.381 . S
C416 C422 1.383 . S
C417 C413 1.495 . S
C417 H423 0.959 . S
C417 H424 0.961 . S
C417 H425 0.960 . S
C418 C416 1.381 . S
C418 C419 1.394 . S
C418 H426 0.930 . S
C419 C418 1.394 . S
C419 C420 1.383 . S
C419 H427 0.929 . S
C420 C419 1.383 . S
C420 C421 1.377 . S
C421 H405 0.930 . S
C421 C420 1.377 . S
C421 C422 1.379 . S
C422 H406 0.931 . S
C422 C416 1.383 . S
C422 C421 1.379 . S
H423 C417 0.959 . S
H424 C417 0.961 . S
H425 C417 0.960 . S
H426 C418 0.930 . S
H427 C419 0.929 . S
H428 C436 0.929 . S
H429 C438 0.930 . S
H430 C440 0.930 . S
H431 C443 0.929 . S
H432 C446 0.932 . S
H433 C448 0.960 . S
H434 C448 0.960 . S
H435 C448 0.960 . S
C436 H428 0.929 . S
C436 C437 1.377 1_565 S
C436 C438 1.384 . S
C437 C436 1.377 1_545 S
C437 C443 1.390 . S
C438 H429 0.930 . S
C438 C436 1.384 . S
C438 C439 1.372 1_565 S
C439 C438 1.372 1_545 S
C439 C440 1.400 . S
C439 C444 1.490 . S
C440 H430 0.930 . S
C440 C439 1.400 . S
C440 C443 1.386 . S
H441 C457 0.930 . S
H442 C458 0.931 . S
C443 H431 0.929 . S
C443 C437 1.390 . S
C443 C440 1.386 . S
C444 C439 1.490 . S
C444 C446 1.393 1_545 S
C444 C447 1.403 . S
H445 C451 0.930 . S
C446 H432 0.932 . S
C446 C444 1.393 1_565 S
C446 C449 1.403 1_565 S
C447 C444 1.403 . S
C447 C448 1.524 . S
C447 C451 1.400 . S
C448 H433 0.960 . S
C448 H434 0.960 . S
C448 H435 0.960 . S
C448 C447 1.524 . S
C449 C446 1.403 1_545 S
C449 C450 1.393 . S
C449 C453 1.495 1_545 S
C450 C449 1.393 . S
C450 C451 1.385 . S
C450 C452 1.478 . S
C451 H445 0.930 . S
C451 C447 1.400 . S
C451 C450 1.385 . S
C452 C450 1.478 . S
C452 C454 1.381 1_545 S
C452 C458 1.383 . S
C453 C449 1.495 1_565 S
C453 H459 0.959 . S
C453 H460 0.961 1_565 S
C453 H461 0.960 . S
C454 C452 1.381 1_565 S
C454 C455 1.394 . S
C454 H462 0.930 . S
C455 C454 1.394 . S
C455 C456 1.383 1_565 S
C455 H463 0.929 . S
C456 C455 1.383 1_545 S
C456 C457 1.377 . S
C457 H441 0.930 . S
C457 C456 1.377 . S
C457 C458 1.379 . S
C458 H442 0.931 . S
C458 C452 1.383 . S
C458 C457 1.379 . S
H459 C453 0.959 . S
H460 C453 0.961 1_545 S
H461 C453 0.960 . S
H462 C454 0.930 . S
H463 C455 0.929 . S
H464 C472 0.929 . S
H465 C474 0.930 . S
H466 C476 0.930 . S
H467 C479 0.929 . S
H468 C482 0.930 1_655 S
H469 C484 0.960 . S
H470 C484 0.960 . S
H471 C484 0.960 . S
C472 H464 0.929 . S
C472 C473 1.377 1_655 S
C472 C474 1.384 . S
C473 C472 1.377 1_455 S
C473 C479 1.390 . S
C474 H465 0.930 . S
C474 C472 1.384 . S
C474 C475 1.372 1_655 S
C475 C474 1.372 1_455 S
C475 C476 1.400 . S
C475 C480 1.490 . S
C476 H466 0.930 . S
C476 C475 1.400 . S
C476 C479 1.386 . S
H477 C493 0.930 . S
H478 C494 0.931 . S
C479 H467 0.929 . S
C479 C473 1.390 . S
C479 C476 1.386 . S
C480 C475 1.490 . S
C480 C482 1.395 . S
C480 C483 1.403 . S
H481 C487 0.930 . S
C482 H468 0.930 1_455 S
C482 C480 1.395 . S
C482 C485 1.404 . S
C483 C480 1.403 . S
C483 C484 1.524 . S
C483 C487 1.400 . S
C484 H469 0.960 . S
C484 H470 0.960 . S
C484 H471 0.960 . S
C484 C483 1.524 . S
C485 C482 1.404 . S
C485 C486 1.395 . S
C485 C489 1.492 1_455 S
C486 C485 1.395 . S
C486 C487 1.385 . S
C486 C488 1.478 . S
C487 H481 0.930 . S
C487 C483 1.400 . S
C487 C486 1.385 . S
C488 C486 1.478 . S
C488 C490 1.381 1_455 S
C488 C494 1.383 . S
C489 C485 1.492 1_655 S
C489 H495 0.959 . S
C489 H496 0.961 . S
C489 H497 0.960 . S
C490 C488 1.381 1_655 S
C490 C491 1.394 . S
C490 H498 0.930 . S
C491 C490 1.394 . S
C491 C492 1.383 1_655 S
C491 H499 0.929 . S
C492 C491 1.383 1_455 S
C492 C493 1.377 . S
C493 H477 0.930 . S
C493 C492 1.377 . S
C493 C494 1.379 . S
C494 H478 0.931 . S
C494 C488 1.383 . S
C494 C493 1.379 . S
H495 C489 0.959 . S
H496 C489 0.961 . S
H497 C489 0.960 . S
H498 C490 0.930 . S
H499 C491 0.929 . S
H500 C508 0.937 . S
H501 C510 0.930 . S
H502 C512 0.930 . S
H503 C515 0.929 . S
H504 C518 0.930 . S
H505 C520 0.960 . S
H506 C520 0.960 . S
H507 C520 0.960 . S
C508 H500 0.937 . S
C508 C509 1.370 1_565 S
C508 C510 1.384 . S
C509 C508 1.370 1_545 S
C509 C515 1.390 . S
C510 H501 0.930 . S
C510 C508 1.384 . S
C510 C511 1.372 1_565 S
C511 C510 1.372 1_545 S
C511 C512 1.400 . S
C511 C516 1.490 . S
C512 H502 0.930 . S
C512 C511 1.400 . S
C512 C515 1.386 . S
H513 C529 0.930 . S
H514 C530 0.931 . S
C515 H503 0.929 . S
C515 C509 1.390 . S
C515 C512 1.386 . S
C516 C511 1.490 . S
C516 C518 1.395 1_545 S
C516 C519 1.403 . S
H517 C523 0.930 . S
C518 H504 0.930 . S
C518 C516 1.395 1_565 S
C518 C521 1.403 . S
C519 C516 1.403 . S
C519 C520 1.524 . S
C519 C523 1.400 . S
C520 H505 0.960 . S
C520 H506 0.960 . S
C520 H507 0.960 . S
C520 C519 1.524 . S
C521 C518 1.403 . S
C521 C522 1.392 1_565 S
C521 C525 1.495 . S
C522 C521 1.392 1_545 S
C522 C523 1.385 . S
C522 C524 1.478 . S
C523 H517 0.930 . S
C523 C519 1.400 . S
C523 C522 1.385 . S
C524 C522 1.478 . S
C524 C526 1.381 1_545 S
C524 C530 1.383 . S
C525 C521 1.495 . S
C525 H531 0.959 . S
C525 H532 0.961 . S
C525 H533 0.960 . S
C526 C524 1.381 1_565 S
C526 C527 1.394 . S
C526 H534 0.930 . S
C527 C526 1.394 . S
C527 C528 1.383 1_565 S
C527 H535 0.929 . S
C528 C527 1.383 1_545 S
C528 C529 1.377 . S
C529 H513 0.930 . S
C529 C528 1.377 . S
C529 C530 1.379 . S
C530 H514 0.931 . S
C530 C524 1.383 . S
C530 C529 1.379 . S
H531 C525 0.959 . S
H532 C525 0.961 . S
H533 C525 0.960 . S
H534 C526 0.930 . S
H535 C527 0.929 . S
H536 C544 0.929 . S
H537 C546 0.930 . S
H538 C548 0.930 . S
H539 C551 0.929 . S
H540 C554 0.930 . S
H541 C556 0.960 . S
H542 C556 0.960 1_655 S
H543 C556 0.960 . S
C544 H536 0.929 . S
C544 C545 1.377 1_655 S
C544 C546 1.384 . S
C545 C544 1.377 1_455 S
C545 C551 1.390 . S
C546 H537 0.930 . S
C546 C544 1.384 . S
C546 C547 1.372 1_655 S
C547 C546 1.372 1_455 S
C547 C548 1.400 . S
C547 C552 1.490 . S
C548 H538 0.930 . S
C548 C547 1.400 . S
C548 C551 1.386 . S
H549 C565 0.930 . S
H550 C566 0.931 . S
C551 H539 0.929 . S
C551 C545 1.390 . S
C551 C548 1.386 . S
C552 C547 1.490 . S
C552 C554 1.395 . S
C552 C555 1.403 . S
H553 C559 0.930 . S
C554 H540 0.930 . S
C554 C552 1.395 . S
C554 C557 1.403 . S
C555 C552 1.403 . S
C555 C556 1.524 . S
C555 C559 1.400 . S
C556 H541 0.960 . S
C556 H542 0.960 1_455 S
C556 H543 0.960 . S
C556 C555 1.524 . S
C557 C554 1.403 . S
C557 C558 1.392 . S
C557 C561 1.495 . S
C558 C557 1.392 . S
C558 C559 1.385 . S
C558 C560 1.478 . S
C559 H553 0.930 . S
C559 C555 1.400 . S
C559 C558 1.385 . S
C560 C558 1.478 . S
C560 C562 1.381 1_455 S
C560 C566 1.383 . S
C561 C557 1.495 . S
C561 H567 0.959 . S
C561 H568 0.961 . S
C561 H569 0.960 . S
C562 C560 1.381 1_655 S
C562 C563 1.394 . S
C562 H570 0.930 . S
C563 C562 1.394 . S
C563 C564 1.383 1_655 S
C563 H571 0.929 . S
C564 C563 1.383 1_455 S
C564 C565 1.377 . S
C565 H549 0.930 . S
C565 C564 1.377 . S
C565 C566 1.379 . S
C566 H550 0.931 . S
C566 C560 1.383 . S
C566 C565 1.379 . S
H567 C561 0.959 . S
H568 C561 0.961 . S
H569 C561 0.960 . S
H570 C562 0.930 . S
H571 C563 0.929 . S
H572 C580 0.929 . S
H573 C582 0.930 . S
H574 C584 0.930 . S
H575 C587 0.929 . S
H576 C590 0.930 . S
H577 C592 0.960 . S
H578 C592 0.960 . S
H579 C592 0.960 . S
C580 H572 0.929 . S
C580 C581 1.377 1_565 S
C580 C582 1.384 . S
C581 C580 1.377 1_545 S
C581 C587 1.390 . S
C582 H573 0.930 . S
C582 C580 1.384 . S
C582 C583 1.372 1_565 S
C583 C582 1.372 1_545 S
C583 C584 1.400 . S
C583 C588 1.490 . S
C584 H574 0.930 . S
C584 C583 1.400 . S
C584 C587 1.386 . S
H585 C601 0.930 . S
H586 C602 0.931 . S
C587 H575 0.929 . S
C587 C581 1.390 . S
C587 C584 1.386 . S
C588 C583 1.490 . S
C588 C590 1.395 1_545 S
C588 C591 1.403 . S
H589 C595 0.930 . S
C590 H576 0.930 . S
C590 C588 1.395 1_565 S
C590 C593 1.403 . S
C591 C588 1.403 . S
C591 C592 1.524 . S
C591 C595 1.400 . S
C592 H577 0.960 . S
C592 H578 0.960 . S
C592 H579 0.960 . S
C592 C591 1.524 . S
C593 C590 1.403 . S
C593 C594 1.392 1_565 S
C593 C597 1.495 . S
C594 C593 1.392 1_545 S
C594 C595 1.385 . S
C594 C596 1.478 . S
C595 H589 0.930 . S
C595 C591 1.400 . S
C595 C594 1.385 . S
C596 C594 1.478 . S
C596 C598 1.381 1_545 S
C596 C602 1.383 . S
C597 C593 1.495 . S
C597 H603 0.959 . S
C597 H604 0.961 1_565 S
C597 H605 0.960 . S
C598 C596 1.381 1_565 S
C598 C599 1.394 . S
C598 H606 0.930 . S
C599 C598 1.394 . S
C599 C600 1.383 1_565 S
C599 H607 0.929 . S
C600 C599 1.383 1_545 S
C600 C601 1.377 . S
C601 H585 0.930 . S
C601 C600 1.377 . S
C601 C602 1.379 . S
C602 H586 0.931 . S
C602 C596 1.383 . S
C602 C601 1.379 . S
H603 C597 0.959 . S
H604 C597 0.961 1_545 S
H605 C597 0.960 . S
H606 C598 0.930 . S
H607 C599 0.929 . S
H608 C616 0.929 . S
H609 C618 0.930 . S
H610 C620 0.930 . S
H611 C623 0.929 . S
H612 C626 0.930 . S
H613 C628 0.960 . S
H614 C628 0.960 . S
H615 C628 0.960 . S
C616 H608 0.929 . S
C616 C617 1.377 . S
C616 C618 1.384 . S
C617 C616 1.377 . S
C617 C623 1.390 1_455 S
C618 H609 0.930 . S
C618 C616 1.384 . S
C618 C619 1.372 . S
C619 C618 1.372 . S
C619 C620 1.400 1_455 S
C619 C624 1.490 . S
C620 H610 0.930 . S
C620 C619 1.400 1_655 S
C620 C623 1.386 . S
H621 C637 0.930 . S
H622 C638 0.931 . S
C623 H611 0.929 . S
C623 C617 1.390 1_655 S
C623 C620 1.386 . S
C624 C619 1.490 . S
C624 C626 1.395 . S
C624 C627 1.389 1_455 S
H625 C631 0.930 1_655 S
C626 H612 0.930 . S
C626 C624 1.395 . S
C626 C629 1.403 . S
C627 C624 1.389 1_655 S
C627 C628 1.538 . S
C627 C631 1.399 1_655 S
C628 H613 0.960 . S
C628 H614 0.960 . S
C628 H615 0.960 . S
C628 C627 1.538 . S
C629 C626 1.403 . S
C629 C630 1.392 . S
C629 C633 1.495 . S
C630 C629 1.392 . S
C630 C631 1.385 . S
C630 C632 1.478 . S
C631 H625 0.930 1_455 S
C631 C627 1.399 1_455 S
C631 C630 1.385 . S
C632 C630 1.478 . S
C632 C634 1.381 . S
C632 C638 1.383 1_455 S
C633 C629 1.495 . S
C633 H639 0.959 . S
C633 H640 0.961 . S
C633 H641 0.960 . S
C634 C632 1.381 . S
C634 C635 1.394 . S
C634 H642 0.930 . S
C635 C634 1.394 . S
C635 C636 1.383 . S
C635 H643 0.929 . S
C636 C635 1.383 . S
C636 C637 1.377 1_455 S
C637 H621 0.930 . S
C637 C636 1.377 1_655 S
C637 C638 1.379 . S
C638 H622 0.931 . S
C638 C632 1.383 1_655 S
C638 C637 1.379 . S
H639 C633 0.959 . S
H640 C633 0.961 . S
H641 C633 0.960 . S
H642 C634 0.930 . S
H643 C635 0.929 . S
H644 C652 0.929 1_565 S
H645 C654 0.930 1_565 S
H646 C656 0.930 . S
H647 C659 0.929 . S
H648 C662 0.930 . S
H649 C664 0.960 . S
H650 C664 0.960 . S
H651 C664 0.960 . S
C652 H644 0.929 1_545 S
C652 C653 1.377 . S
C652 C654 1.384 . S
C653 C652 1.377 . S
C653 C659 1.390 . S
C654 H645 0.930 1_545 S
C654 C652 1.384 . S
C654 C655 1.372 . S
C655 C654 1.372 . S
C655 C656 1.400 . S
C655 C660 1.490 . S
C656 H646 0.930 . S
C656 C655 1.400 . S
C656 C659 1.386 . S
H657 C673 0.930 . S
H658 C674 0.931 . S
C659 H647 0.929 . S
C659 C653 1.390 . S
C659 C656 1.386 . S
C660 C655 1.490 . S
C660 C662 1.395 . S
C660 C663 1.398 1_545 S
H661 C667 0.930 1_565 S
C662 H648 0.930 . S
C662 C660 1.395 . S
C662 C665 1.403 . S
C663 C660 1.398 1_565 S
C663 C664 1.529 . S
C663 C667 1.399 1_565 S
C664 H649 0.960 . S
C664 H650 0.960 . S
C664 H651 0.960 . S
C664 C663 1.529 . S
C665 C662 1.403 . S
C665 C666 1.392 . S
C665 C669 1.495 . S
C666 C665 1.392 . S
C666 C667 1.385 . S
C666 C668 1.478 . S
C667 H661 0.930 1_545 S
C667 C663 1.399 1_545 S
C667 C666 1.385 . S
C668 C666 1.478 . S
C668 C670 1.381 . S
C668 C674 1.383 . S
C669 C665 1.495 . S
C669 H675 0.959 . S
C669 H676 0.961 . S
C669 H677 0.960 . S
C670 C668 1.381 . S
C670 C671 1.394 1_545 S
C670 H678 0.930 1_545 S
C671 C670 1.394 1_565 S
C671 C672 1.381 1_565 S
C671 H679 0.932 . S
C672 C671 1.381 1_545 S
C672 C673 1.377 . S
C673 H657 0.930 . S
C673 C672 1.377 . S
C673 C674 1.379 . S
C674 H658 0.931 . S
C674 C668 1.383 . S
C674 C673 1.379 . S
H675 C669 0.959 . S
H676 C669 0.961 . S
H677 C669 0.960 . S
H678 C670 0.930 1_565 S
H679 C671 0.932 . S
H680 C688 0.929 . S
H681 C690 0.930 . S
H682 C692 0.930 . S
H683 C695 0.929 . S
H684 C698 0.930 . S
H685 C700 0.960 . S
H686 C700 0.960 . S
H687 C700 0.960 1_556 S
C688 H680 0.929 . S
C688 C689 1.377 1_554 S
C688 C690 1.384 . S
C689 C688 1.377 1_556 S
C689 C695 1.390 . S
C690 H681 0.930 . S
C690 C688 1.384 . S
C690 C691 1.372 1_554 S
C691 C690 1.372 1_556 S
C691 C692 1.400 . S
C691 C696 1.490 . S
C692 H682 0.930 . S
C692 C691 1.400 . S
C692 C695 1.386 . S
H693 C709 0.930 . S
H694 C710 0.931 . S
C695 H683 0.929 . S
C695 C689 1.390 . S
C695 C692 1.386 . S
C696 C691 1.490 . S
C696 C698 1.395 . S
C696 C699 1.403 1_556 S
H697 C703 0.930 . S
C698 H684 0.930 . S
C698 C696 1.395 . S
C698 C701 1.403 . S
C699 C696 1.403 1_554 S
C699 C700 1.524 . S
C699 C703 1.400 . S
C700 H685 0.960 . S
C700 H686 0.960 . S
C700 H687 0.960 1_554 S
C700 C699 1.524 . S
C701 C698 1.403 . S
C701 C702 1.392 . S
C701 C705 1.495 . S
C702 C701 1.392 . S
C702 C703 1.385 1_556 S
C702 C704 1.478 . S
C703 H697 0.930 . S
C703 C699 1.400 . S
C703 C702 1.385 1_554 S
C704 C702 1.478 . S
C704 C706 1.381 1_556 S
C704 C710 1.383 . S
C705 C701 1.495 . S
C705 H711 0.959 . S
C705 H712 0.961 . S
C705 H713 0.960 1_556 S
C706 C704 1.381 1_554 S
C706 C707 1.394 . S
C706 H714 0.930 . S
C707 C706 1.394 . S
C707 C708 1.383 1_554 S
C707 H715 0.929 . S
C708 C707 1.383 1_556 S
C708 C709 1.377 . S
C709 H693 0.930 . S
C709 C708 1.377 . S
C709 C710 1.379 . S
C710 H694 0.931 . S
C710 C704 1.383 . S
C710 C709 1.379 . S
H711 C705 0.959 . S
H712 C705 0.961 . S
H713 C705 0.960 1_554 S
H714 C706 0.930 . S
H715 C707 0.929 . S
H716 C724 0.929 . S
H717 C726 0.930 . S
H718 C728 0.930 . S
H719 C731 0.929 . S
H720 C734 0.930 . S
H721 C736 0.960 . S
H722 C736 0.960 . S
H723 C736 0.960 . S
C724 H716 0.929 . S
C724 C725 1.377 1_556 S
C724 C726 1.384 . S
C725 C724 1.377 1_554 S
C725 C731 1.390 . S
C726 H717 0.930 . S
C726 C724 1.384 . S
C726 C727 1.372 1_556 S
C727 C726 1.372 1_554 S
C727 C728 1.400 . S
C727 C732 1.490 . S
C728 H718 0.930 . S
C728 C727 1.400 . S
C728 C731 1.386 . S
H729 C745 0.930 . S
H730 C746 0.931 . S
C731 H719 0.929 . S
C731 C725 1.390 . S
C731 C728 1.386 . S
C732 C727 1.490 . S
C732 C734 1.395 1_554 S
C732 C735 1.403 . S
H733 C739 0.930 . S
C734 H720 0.930 . S
C734 C732 1.395 1_556 S
C734 C737 1.403 . S
C735 C732 1.403 . S
C735 C736 1.524 . S
C735 C739 1.400 . S
C736 H721 0.960 . S
C736 H722 0.960 . S
C736 H723 0.960 . S
C736 C735 1.524 . S
C737 C734 1.403 . S
C737 C738 1.392 . S
C737 C741 1.495 . S
C738 C737 1.392 . S
C738 C739 1.385 1_556 S
C738 C740 1.478 . S
C739 H733 0.930 . S
C739 C735 1.400 . S
C739 C738 1.385 1_554 S
C740 C738 1.478 . S
C740 C742 1.381 . S
C740 C746 1.383 1_556 S
C741 C737 1.495 . S
C741 H747 0.959 . S
C741 H748 0.961 . S
C741 H749 0.960 . S
C742 C740 1.381 . S
C742 C743 1.394 . S
C742 H750 0.930 . S
C743 C742 1.394 . S
C743 C744 1.383 . S
C743 H751 0.929 . S
C744 C743 1.383 . S
C744 C745 1.377 1_556 S
C745 H729 0.930 . S
C745 C744 1.377 1_554 S
C745 C746 1.379 . S
C746 H730 0.931 . S
C746 C740 1.383 1_554 S
C746 C745 1.379 . S
H747 C741 0.959 . S
H748 C741 0.961 . S
H749 C741 0.960 . S
H750 C742 0.930 . S
H751 C743 0.929 . S
H752 C760 0.926 1_556 S
H753 C762 0.930 . S
H754 C764 0.930 . S
H755 C767 0.929 . S
H756 C770 0.930 . S
H757 C772 0.960 . S
H758 C772 0.960 . S
H759 C772 0.960 . S
C760 H752 0.926 1_554 S
C760 C761 1.383 . S
C760 C762 1.384 1_554 S
C761 C760 1.383 . S
C761 C767 1.390 . S
C762 H753 0.930 . S
C762 C760 1.384 1_556 S
C762 C763 1.372 1_556 S
C763 C762 1.372 1_554 S
C763 C764 1.400 . S
C763 C768 1.490 . S
C764 H754 0.930 . S
C764 C763 1.400 . S
C764 C767 1.386 . S
H765 C781 0.930 . S
H766 C782 0.932 . S
C767 H755 0.929 . S
C767 C761 1.390 . S
C767 C764 1.386 . S
C768 C763 1.490 . S
C768 C770 1.395 1_554 S
C768 C771 1.403 . S
H769 C775 0.930 . S
C770 H756 0.930 . S
C770 C768 1.395 1_556 S
C770 C773 1.403 . S
C771 C768 1.403 . S
C771 C772 1.524 . S
C771 C775 1.400 . S
C772 H757 0.960 . S
C772 H758 0.960 . S
C772 H759 0.960 . S
C772 C771 1.524 . S
C773 C770 1.403 . S
C773 C774 1.392 . S
C773 C777 1.495 . S
C774 C773 1.392 . S
C774 C775 1.385 1_556 S
C774 C776 1.478 . S
C775 H769 0.930 . S
C775 C771 1.400 . S
C775 C774 1.385 1_554 S
C776 C774 1.478 . S
C776 C778 1.381 . S
C776 C782 1.383 . S
C777 C773 1.495 . S
C777 H783 0.959 . S
C777 H784 0.961 . S
C777 H785 0.960 . S
C778 C776 1.381 . S
C778 C779 1.394 . S
C778 H786 0.930 . S
C779 C778 1.394 . S
C779 C780 1.383 . S
C779 H787 0.929 . S
C780 C779 1.383 . S
C780 C781 1.377 1_556 S
C781 H765 0.930 . S
C781 C780 1.377 1_554 S
C781 C782 1.379 1_554 S
C782 H766 0.932 . S
C782 C776 1.383 . S
C782 C781 1.379 1_556 S
H783 C777 0.959 . S
H784 C777 0.961 . S
H785 C777 0.960 . S
H786 C778 0.930 . S
H787 C779 0.929 . S
H788 C796 0.929 . S
H789 C798 0.930 . S
H790 C800 0.930 . S
H791 C803 0.929 . S
H792 C806 0.930 . S
H793 C808 0.960 . S
H794 C808 0.960 . S
H795 C808 0.960 1_554 S
C796 H788 0.929 . S
C796 C797 1.377 . S
C796 C798 1.384 . S
C797 C796 1.377 . S
C797 C803 1.390 1_556 S
C798 H789 0.930 . S
C798 C796 1.384 . S
C798 C799 1.372 . S
C799 C798 1.372 . S
C799 C800 1.400 1_556 S
C799 C804 1.490 . S
C800 H790 0.930 . S
C800 C799 1.400 1_554 S
C800 C803 1.386 . S
H801 C817 0.930 . S
H802 C818 0.931 . S
C803 H791 0.929 . S
C803 C797 1.390 1_554 S
C803 C800 1.386 . S
C804 C799 1.490 . S
C804 C806 1.395 . S
C804 C807 1.403 . S
H805 C811 0.930 . S
C806 H792 0.930 . S
C806 C804 1.395 . S
C806 C809 1.403 . S
C807 C804 1.403 . S
C807 C808 1.524 . S
C807 C811 1.400 . S
C808 H793 0.960 . S
C808 H794 0.960 . S
C808 H795 0.960 1_556 S
C808 C807 1.524 . S
C809 C806 1.403 . S
C809 C810 1.392 . S
C809 C813 1.495 . S
C810 C809 1.392 . S
C810 C811 1.385 . S
C810 C812 1.478 . S
C811 H805 0.930 . S
C811 C807 1.400 . S
C811 C810 1.385 . S
C812 C810 1.478 . S
C812 C814 1.381 . S
C812 C818 1.383 1_556 S
C813 C809 1.495 . S
C813 H819 0.959 . S
C813 H820 0.961 1_556 S
C813 H821 0.960 . S
C814 C812 1.381 . S
C814 C815 1.394 . S
C814 H822 0.930 . S
C815 C814 1.394 . S
C815 C816 1.380 . S
C815 H823 0.929 . S
C816 C815 1.380 . S
C816 C817 1.380 1_556 S
C817 H801 0.930 . S
C817 C816 1.380 1_554 S
C817 C818 1.379 . S
C818 H802 0.931 . S
C818 C812 1.383 1_554 S
C818 C817 1.379 . S
H819 C813 0.959 . S
H820 C813 0.961 1_554 S
H821 C813 0.960 . S
H822 C814 0.930 . S
H823 C815 0.929 . S
C420 C343 1.479 . S
C401 C11 0.886 . S
C456 C350 1.469 . S
C437 C143 1.206 . S
C492 C345 1.237 . S
C473 C1 0.951 . S
C528 C351 1.615 . S
C509 C169 1.223 . S
C545 C29 1.125 . S
C564 C344 1.357 . S
C600 C353 1.590 . S
C581 C125 0.936 1_545 S
C617 C55 1.129 . S
C636 C342 1.506 . S
C653 C115 1.048 . S
C672 C352 1.349 . S
C689 C283 1.307 1_556 S
C708 C347 1.729 1_556 S
C725 C239 0.999 . S
C744 C346 1.707 . S
C780 C349 1.582 1_556 S
C761 C257 1.316 1_554 S
C816 C348 1.461 1_556 S
C797 C229 1.111 . S
