# Generated by pormake.
# Topology pyr, (3,6)-cn, num edge types: 1
# Building blocks:
#     Node 0, Type 0, BuildingBlock: CUQRIR_clean_linker_1, # of connection points: 3
#     Node 1, Type 0, BuildingBlock: CUQRIR_clean_linker_1, # of connection points: 3
#     Node 2, Type 0, BuildingBlock: CUQRIR_clean_linker_1, # of connection points: 3
#     Node 3, Type 0, BuildingBlock: CUQRIR_clean_linker_1, # of connection points: 3
#     Node 4, Type 0, BuildingBlock: CUQRIR_clean_linker_1, # of connection points: 3
#     Node 5, Type 0, BuildingBlock: CUQRIR_clean_linker_1, # of connection points: 3
#     Node 6, Type 0, BuildingBlock: CUQRIR_clean_linker_1, # of connection points: 3
#     Node 7, Type 0, BuildingBlock: CUQRIR_clean_linker_1, # of connection points: 3
#     Node 8, Type 1, BuildingBlock: JUFBIX_clean_sbu_0, # of connection points: 6
#     Node 9, Type 1, BuildingBlock: JUFBIX_clean_sbu_0, # of connection points: 6
#     Node 10, Type 1, BuildingBlock: JUFBIX_clean_sbu_0, # of connection points: 6
#     Node 11, Type 1, BuildingBlock: JUFBIX_clean_sbu_0, # of connection points: 6
#     Edge 12, Type (0, 1), BuildingBlock: MIFKUJ_clean_linker_0, # of connection points: 2
#     Edge 13, Type (0, 1), BuildingBlock: MIFKUJ_clean_linker_0, # of connection points: 2
#     Edge 14, Type (0, 1), BuildingBlock: MIFKUJ_clean_linker_0, # of connection points: 2
#     Edge 15, Type (0, 1), BuildingBlock: MIFKUJ_clean_linker_0, # of connection points: 2
#     Edge 16, Type (0, 1), BuildingBlock: MIFKUJ_clean_linker_0, # of connection points: 2
#     Edge 17, Type (0, 1), BuildingBlock: MIFKUJ_clean_linker_0, # of connection points: 2
#     Edge 18, Type (0, 1), BuildingBlock: MIFKUJ_clean_linker_0, # of connection points: 2
#     Edge 19, Type (0, 1), BuildingBlock: MIFKUJ_clean_linker_0, # of connection points: 2
#     Edge 20, Type (0, 1), BuildingBlock: MIFKUJ_clean_linker_0, # of connection points: 2
#     Edge 21, Type (0, 1), BuildingBlock: MIFKUJ_clean_linker_0, # of connection points: 2
#     Edge 22, Type (0, 1), BuildingBlock: MIFKUJ_clean_linker_0, # of connection points: 2
#     Edge 23, Type (0, 1), BuildingBlock: MIFKUJ_clean_linker_0, # of connection points: 2
#     Edge 24, Type (0, 1), BuildingBlock: MIFKUJ_clean_linker_0, # of connection points: 2
#     Edge 25, Type (0, 1), BuildingBlock: MIFKUJ_clean_linker_0, # of connection points: 2
#     Edge 26, Type (0, 1), BuildingBlock: MIFKUJ_clean_linker_0, # of connection points: 2
#     Edge 27, Type (0, 1), BuildingBlock: MIFKUJ_clean_linker_0, # of connection points: 2
#     Edge 28, Type (0, 1), BuildingBlock: MIFKUJ_clean_linker_0, # of connection points: 2
#     Edge 29, Type (0, 1), BuildingBlock: MIFKUJ_clean_linker_0, # of connection points: 2
#     Edge 30, Type (0, 1), BuildingBlock: MIFKUJ_clean_linker_0, # of connection points: 2
#     Edge 31, Type (0, 1), BuildingBlock: MIFKUJ_clean_linker_0, # of connection points: 2
#     Edge 32, Type (0, 1), BuildingBlock: MIFKUJ_clean_linker_0, # of connection points: 2
#     Edge 33, Type (0, 1), BuildingBlock: MIFKUJ_clean_linker_0, # of connection points: 2
#     Edge 34, Type (0, 1), BuildingBlock: MIFKUJ_clean_linker_0, # of connection points: 2
#     Edge 35, Type (0, 1), BuildingBlock: MIFKUJ_clean_linker_0, # of connection points: 2
# Relax obj value: 0.121
# Max RMSD: 0.216
# Mean RMSD: 0.151
data_MOF--net-pyr--node1-JUFBIX_clean_sbu_0--node2-CUQRIR_clean_linker_1--edge1-MIFKUJ_clean_linker_0
_symmetry_space_group_name_H-M    P1
_symmetry_Int_Tables_number       1
_symmetry_cell_setting            triclinic
loop_
_symmetry_equiv_pos_as_xyz
'x, y, z'
_cell_length_a     45.842142
_cell_length_b     43.773652
_cell_length_c     44.978099
_cell_angle_alpha  83.897771
_cell_angle_beta   91.491934
_cell_angle_gamma 94.700561
loop_
_atom_site_label
_atom_site_type_symbol
_atom_site_fract_x
_atom_site_fract_y
_atom_site_fract_z
_atom_type_partial_charge
C0 C 0.1738 0.20346 0.1835 0.0
N1 N 0.19187 0.18041 0.19045 0.0
N2 N 0.18184 0.22125 0.15796 0.0
C3 C 0.14872 0.20938 0.20254 0.0
C4 C 0.20595 0.20813 0.14967 0.0
N5 N 0.21223 0.18324 0.16921 0.0
C6 C 0.22337 0.21984 0.12232 0.0
H7 H 0.12877 0.1955 0.19579 0.0
H8 H 0.14433 0.23408 0.19968 0.0
H9 H 0.15334 0.20246 0.22654 0.0
H10 H 0.24047 0.23764 0.12843 0.0
H11 H 0.20912 0.23058 0.10454 0.0
H12 H 0.23441 0.20129 0.11337 0.0
C13 C 0.38418 0.84636 0.64115 0.0
N14 N 0.3805 0.86945 0.658 0.0
N15 N 0.41173 0.83753 0.64452 0.0
C16 C 0.3614 0.83346 0.62015 0.0
C17 C 0.42488 0.85633 0.66377 0.0
N18 N 0.40589 0.87602 0.67172 0.0
C19 C 0.45504 0.85322 0.67719 0.0
H20 H 0.34786 0.81426 0.63243 0.0
H21 H 0.37183 0.82442 0.60125 0.0
H22 H 0.3468 0.85138 0.61122 0.0
H23 H 0.47087 0.86934 0.66389 0.0
H24 H 0.46171 0.82947 0.67686 0.0
H25 H 0.45607 0.85923 0.70057 0.0
C26 C 0.66585 0.36049 0.83247 0.0
N27 N 0.68128 0.35213 0.85766 0.0
N28 N 0.67674 0.3882 0.81944 0.0
C29 C 0.63883 0.34265 0.82175 0.0
C30 C 0.69927 0.39654 0.8377 0.0
N31 N 0.7019 0.37467 0.86106 0.0
C32 C 0.71887 0.42581 0.83243 0.0
H33 H 0.64534 0.32617 0.80651 0.0
H34 H 0.62372 0.35826 0.80942 0.0
H35 H 0.62718 0.32935 0.84081 0.0
H36 H 0.7086 0.44445 0.84219 0.0
H37 H 0.72154 0.43267 0.80813 0.0
H38 H 0.7407 0.42346 0.8432 0.0
C39 C 0.94091 0.63242 0.3976 0.0
N40 N 0.96468 0.65226 0.39112 0.0
N41 N 0.9272 0.63974 0.42191 0.0
C42 C 0.92925 0.60801 0.37823 0.0
C43 C 0.94353 0.6648 0.42999 0.0
N44 N 0.96619 0.67244 0.41125 0.0
C45 C 0.93491 0.68415 0.45358 0.0
H46 H 0.92126 0.61925 0.3566 0.0
H47 H 0.91117 0.59284 0.38914 0.0
H48 H 0.94698 0.59361 0.37338 0.0
H49 H 0.92909 0.66923 0.4744 0.0
H50 H 0.91522 0.69603 0.44566 0.0
H51 H 0.9527 0.70162 0.45874 0.0
C52 C 0.82157 0.86776 0.87941 0.0
N53 N 0.84283 0.86244 0.86031 0.0
N54 N 0.80611 0.89183 0.86827 0.0
C55 C 0.81541 0.84884 0.90885 0.0
C56 C 0.81898 0.90095 0.84141 0.0
N57 N 0.84121 0.88316 0.83629 0.0
C58 C 0.81122 0.92889 0.82127 0.0
H59 H 0.82097 0.82472 0.90836 0.0
H60 H 0.79207 0.84883 0.91478 0.0
H61 H 0.8291 0.85903 0.92656 0.0
H62 H 0.80147 0.94565 0.83413 0.0
H63 H 0.79493 0.92163 0.80421 0.0
H64 H 0.83084 0.94039 0.80961 0.0
C65 C 0.67013 0.18293 0.44458 0.0
N66 N 0.67148 0.16189 0.42479 0.0
N67 N 0.64414 0.19564 0.44208 0.0
C68 C 0.69381 0.19084 0.46691 0.0
C69 C 0.62948 0.18114 0.42039 0.0
N70 N 0.64596 0.16039 0.41018 0.0
C71 C 0.60121 0.19097 0.40599 0.0
H72 H 0.68416 0.19854 0.48696 0.0
H73 H 0.70896 0.20996 0.45683 0.0
H74 H 0.70654 0.17065 0.47369 0.0
H75 H 0.60366 0.21599 0.39844 0.0
H76 H 0.58361 0.18713 0.42274 0.0
H77 H 0.59441 0.17822 0.38662 0.0
C78 C 0.32863 0.66193 0.17536 0.0
N79 N 0.35157 0.67885 0.18656 0.0
N80 N 0.31482 0.67907 0.15343 0.0
C81 C 0.31826 0.62953 0.18727 0.0
C82 C 0.32985 0.70703 0.15179 0.0
N83 N 0.3521 0.70701 0.17218 0.0
C84 C 0.32398 0.73351 0.12883 0.0
H85 H 0.33011 0.61315 0.17584 0.0
H86 H 0.29445 0.62483 0.18296 0.0
H87 H 0.3228 0.62544 0.21166 0.0
H88 H 0.31035 0.74934 0.13895 0.0
H89 H 0.31202 0.72531 0.10905 0.0
H90 H 0.34474 0.7466 0.12146 0.0
C91 C 0.1133 0.35648 0.64569 0.0
N92 N 0.12549 0.35369 0.61914 0.0
N93 N 0.12544 0.38179 0.6575 0.0
C94 C 0.08902 0.33493 0.65966 0.0
C95 C 0.14546 0.39433 0.63718 0.0
N96 N 0.14523 0.37746 0.61358 0.0
C97 C 0.16771 0.42069 0.64226 0.0
H98 H 0.07578 0.34691 0.67442 0.0
H99 H 0.09868 0.31553 0.67331 0.0
H100 H 0.07459 0.32526 0.64219 0.0
H101 H 0.17098 0.42327 0.66642 0.0
H102 H 0.15987 0.44236 0.63099 0.0
H103 H 0.18914 0.41724 0.63277 0.0
Co104 Co 1.00871 0.01627 0.50212 0.0
C105 C 0.03685 0.96135 0.50026 0.0
Co106 Co 0.05102 0.0139 0.52584 0.0
C107 C 0.95836 0.0336 0.46497 0.0
C108 C 0.95405 0.98729 0.48606 0.0
N109 N 0.97251 0.013 0.48329 0.0
N110 N 0.93181 0.02155 0.45614 0.0
C111 C 0.92916 0.99243 0.46947 0.0
H112 H 0.96727 0.05695 0.4585 0.0
H113 H 0.95822 0.96622 0.4998 0.0
C114 C 0.02353 0.06909 0.52696 0.0
N115 N 0.08702 0.01709 0.54482 0.0
C116 C 0.0994 0.99705 0.56522 0.0
C117 C 0.10672 0.04171 0.54098 0.0
N118 N 0.1262 0.0082 0.57424 0.0
C119 C 0.13078 0.03632 0.55889 0.0
C120 C 0.05499 0.03808 0.46399 0.0
O121 O 1.00343 0.05724 0.51078 0.0
O122 O 0.04495 0.05365 0.53568 0.0
O123 O 0.06936 0.03181 0.48826 0.0
O124 O 0.0272 0.0328 0.46451 0.0
O125 O 0.05715 0.97368 0.51585 0.0
H126 H 0.10382 0.06225 0.52593 0.0
H127 H 0.08882 0.97482 0.57324 0.0
O128 O 0.01452 0.97597 0.49308 0.0
O129 O 0.99023 0.9995 0.54015 0.0
O130 O 0.03254 0.99616 0.56321 0.0
C131 C 1.00467 0.99207 0.56414 0.0
H132 H 0.91005 0.97631 0.4684 0.0
H133 H 0.15042 0.0517 0.55977 0.0
Co134 Co 0.50022 0.02959 0.01435 0.0
C135 C 0.50101 0.98309 0.06248 0.0
Co136 Co 0.52873 0.04037 0.05243 0.0
C137 C 0.47806 0.01748 0.95547 0.0
C138 C 0.44524 0.00979 0.98902 0.0
N139 N 0.47377 0.01894 0.98483 0.0
N140 N 0.45329 0.00766 0.94117 0.0
C141 C 0.4326 1.00301 0.96231 0.0
H142 H 0.49914 0.02272 0.94505 0.0
H143 H 0.43435 0.00775 1.01027 0.0
C144 C 0.52842 0.08687 1.00461 0.0
N145 N 0.55551 0.05138 0.08152 0.0
C146 C 0.55244 0.05238 0.11115 0.0
C147 C 0.5834 0.06239 0.07591 0.0
N148 N 0.57736 0.06381 0.12409 0.0
C149 C 0.59685 0.06997 0.10195 0.0
C150 C 0.55686 0.01133 1.0073 0.0
O151 O 0.5108 0.06818 0.99191 0.0
O152 O 0.53793 0.07907 0.03079 0.0
O153 O 0.56025 0.02277 0.03222 0.0
O154 O 0.53147 0.01132 0.995 0.0
O155 O 0.51951 1.00165 0.0742 0.0
H156 H 0.59319 0.06547 0.05406 0.0
H157 H 0.5321 0.04596 0.12273 0.0
O158 O 0.49006 0.99103 0.03683 0.0
O159 O 0.46903 0.04796 0.03385 0.0
O160 O 0.49681 0.0577 0.0724 0.0
C161 C 0.47172 0.05837 0.05931 0.0
H162 H 0.40988 0.99518 0.95888 0.0
H163 H 0.6192 0.07961 0.10431 0.0
Co164 Co 0.54354 0.54586 0.49045 0.0
C165 C 0.49826 0.54819 0.44777 0.0
Co166 Co 0.50302 0.51745 0.50378 0.0
C167 C 0.60425 0.56805 0.48288 0.0
C168 C 0.57487 0.60048 0.46333 0.0
N169 N 0.57555 0.57233 0.47869 0.0
N170 N 0.6214 0.59229 0.47044 0.0
C171 C 0.60304 0.61272 0.45804 0.0
H172 H 0.61239 0.54729 0.49422 0.0
H173 H 0.55511 0.61135 0.45631 0.0
C174 C 0.54872 0.51594 0.54654 0.0
N175 N 0.47124 0.49015 0.51546 0.0
C176 C 0.44224 0.49115 0.50944 0.0
C177 C 0.47387 0.46208 0.53039 0.0
N178 N 0.42689 0.46459 0.51981 0.0
C179 C 0.4468 0.44644 0.53316 0.0
C180 C 0.54413 0.48773 0.47477 0.0
O181 O 0.56241 0.53447 0.52715 0.0
O182 O 0.52261 0.50587 0.5408 0.0
O183 O 0.51909 0.48548 0.4865 0.0
O184 O 0.55961 0.51323 0.47362 0.0
O185 O 0.48393 0.52957 0.46674 0.0
H186 H 0.49435 0.45312 0.5381 0.0
H187 H 0.43274 0.51047 0.49684 0.0
O188 O 0.52451 0.5573 0.45384 0.0
O189 O 0.52734 0.57806 0.50746 0.0
O190 O 0.48717 0.54973 0.5211 0.0
C191 C 0.50255 0.57535 0.51988 0.0
H192 H 0.60958 0.63494 0.44615 0.0
H193 H 0.44216 0.4234 0.54416 0.0
Co194 Co 1.01138 0.53299 0.98431 0.0
C195 C 0.95574 0.50327 0.99472 0.0
Co196 Co 0.99368 0.53787 0.02848 0.0
C197 C 0.04636 0.51644 0.93619 0.0
C198 C 1.0094 0.54092 0.92066 0.0
N199 N 0.02353 0.53015 0.94583 0.0
N200 N 0.04705 0.51858 0.90603 0.0
C201 C 0.02384 0.53401 0.89627 0.0
H202 H 0.06192 0.50478 0.95093 0.0
H203 H 0.98927 0.55225 0.91997 0.0
C204 C 0.04936 0.567 0.01795 0.0
N205 N 0.98125 0.54067 0.06691 0.0
C206 C 0.98702 0.56393 0.08423 0.0
C207 C 0.96808 0.51747 0.08517 0.0
N208 N 0.97847 0.55588 0.11267 0.0
C209 C 0.96641 0.52672 0.1133 0.0
C210 C 0.02745 0.48553 0.02668 0.0
O211 O 0.04678 0.55592 0.99295 0.0
O212 O 0.0285 0.56219 0.0363 0.0
O213 O 0.01307 0.50061 0.04332 0.0
O214 O 0.02904 0.49521 0.99896 0.0
O215 O 0.95886 0.51343 0.02012 0.0
H216 H 0.96143 0.49475 0.07881 0.0
H217 H 0.99887 0.58565 0.07662 0.0
O218 O 0.97597 0.50962 0.97576 0.0
O219 O 0.99386 0.57125 0.97028 0.0
O220 O 0.97465 0.57511 0.01351 0.0
C221 C 0.97845 0.58588 0.98626 0.0
H222 H 0.01699 0.53868 0.87313 0.0
H223 H 0.95776 0.51278 0.13292 0.0
H224 H 0.21966 0.17646 0.24467 0.0
H225 H 0.19939 0.14916 0.2913 0.0
H226 H 0.1291 0.10677 0.24062 0.0
H227 H 0.14964 0.13384 0.19433 0.0
H228 H 0.10734 0.13352 0.28583 0.0
H229 H 0.18245 0.06448 0.27782 0.0
H230 H 0.23308 0.05075 0.2729 0.0
H231 H 0.25783 0.08914 0.35472 0.0
H232 H 0.20743 0.10352 0.3599 0.0
H233 H 0.03452 0.04032 0.40547 0.0
H234 H 0.06024 0.06021 0.35957 0.0
H235 H 0.13663 0.08668 0.41174 0.0
H236 H 0.11137 0.06527 0.45759 0.0
H237 H 0.15639 0.06849 0.36581 0.0
H238 H 0.08418 0.13965 0.3742 0.0
H239 H 0.03481 0.15659 0.37988 0.0
H240 H 1.00613 0.11896 0.29873 0.0
H241 H 0.05525 0.10144 0.29275 0.0
C242 C 0.2008 0.16004 0.24339 0.0
C243 C 0.18692 0.15661 0.21548 0.0
C244 C 0.18883 0.14471 0.27021 0.0
C245 C 0.16237 0.12571 0.26998 0.0
C246 C 0.14939 0.12115 0.24189 0.0
C247 C 0.1615 0.13619 0.2152 0.0
C248 C 0.14711 0.11236 0.29869 0.0
C249 C 0.11803 0.11892 0.30308 0.0
C250 C 0.16097 0.09412 0.32209 0.0
C251 C 0.19123 0.08536 0.31909 0.0
C252 C 0.19874 0.07023 0.29464 0.0
C253 C 0.22739 0.06228 0.29182 0.0
C254 C 0.24868 0.06914 0.31344 0.0
C255 C 0.24133 0.08388 0.33797 0.0
C256 C 0.21272 0.09192 0.34087 0.0
C257 C 0.05678 0.05043 0.40727 0.0
C258 C 0.07062 0.05114 0.43559 0.0
C259 C 0.07159 0.06214 0.38077 0.0
C260 C 0.10058 0.0759 0.38152 0.0
C261 C 0.11443 0.07641 0.4099 0.0
C262 C 0.09981 0.06417 0.43637 0.0
C263 C 0.11638 0.08947 0.353 0.0
C264 C 0.1456 0.08305 0.34864 0.0
C265 C 0.10282 0.10835 0.32976 0.0
C266 C 0.07331 0.11896 0.3332 0.0
C267 C 0.06729 0.13482 0.35766 0.0
C268 C 0.03936 0.14455 0.36093 0.0
C269 C 0.01732 0.13878 0.33973 0.0
C270 C 0.0232 0.12337 0.31516 0.0
C271 C 0.05109 0.11356 0.31181 0.0
H272 H 0.99571 0.14632 0.3423 0.0
H273 H 0.27084 0.06297 0.31123 0.0
H274 H 0.44772 0.92281 0.67241 0.0
H275 H 0.45793 0.95621 0.71277 0.0
H276 H 0.38489 0.90888 0.76179 0.0
H277 H 0.37501 0.8756 0.72164 0.0
H278 H 0.38777 0.97128 0.7645 0.0
H279 H 0.45303 0.88863 0.77604 0.0
H280 H 0.49129 0.85849 0.75887 0.0
H281 H 0.55093 0.93971 0.74957 0.0
H282 H 0.51279 0.97047 0.76618 0.0
H283 H 0.41122 0.96955 0.91777 0.0
H284 H 0.40541 0.95855 0.86615 0.0
H285 H 0.48198 0.01929 0.84242 0.0
H286 H 0.4877 0.0312 0.89436 0.0
H287 H 0.48195 0.96218 0.82048 0.0
H288 H 0.41794 0.04231 0.81906 0.0
H289 H 0.37899 0.07092 0.83714 0.0
H290 H 0.3165 0.99365 0.82847 0.0
H291 H 0.35515 0.96436 0.81078 0.0
C292 C 0.43387 0.91991 0.6918 0.0
C293 C 0.41065 0.89689 0.69421 0.0
C294 C 0.43961 0.93889 0.71468 0.0
C295 C 0.42222 0.93487 0.74026 0.0
C296 C 0.39842 0.91248 0.74213 0.0
C297 C 0.39277 0.89353 0.71931 0.0
C298 C 0.42971 0.95231 0.76615 0.0
C299 C 0.40835 0.96938 0.77677 0.0
C300 C 0.45694 0.95049 0.78154 0.0
C301 C 0.47997 0.93192 0.77197 0.0
C302 C 0.47423 0.90011 0.77011 0.0
C303 C 0.4959 0.88291 0.7605 0.0
C304 C 0.5235 0.89719 0.75305 0.0
C305 C 0.52952 0.9287 0.75528 0.0
C306 C 0.50789 0.94603 0.76477 0.0
C307 C 0.42658 0.98116 0.90166 0.0
C308 C 0.44982 1.00151 0.91036 0.0
C309 C 0.42324 0.97473 0.87207 0.0
C310 C 0.443 0.98847 0.85043 0.0
C311 C 0.46641 0.00861 0.85885 0.0
C312 C 0.46971 0.01524 0.88857 0.0
C313 C 0.43958 0.98029 0.81942 0.0
C314 C 0.46169 0.9649 0.80782 0.0
C315 C 0.41296 0.98351 0.80321 0.0
C316 C 0.38953 1.00108 0.81371 0.0
C317 C 0.39594 0.03133 0.8212 0.0
C318 C 0.37389 0.04768 0.83135 0.0
C319 C 0.34529 0.0341 0.83398 0.0
C320 C 0.33866 1.00415 0.82641 0.0
C321 C 0.36063 0.98767 0.81627 0.0
H322 H 0.32826 0.0468 0.84185 0.0
H323 H 0.54025 0.88384 0.74562 0.0
H324 H 0.66952 0.3661 0.76607 0.0
H325 H 0.64999 0.39251 0.72001 0.0
H326 H 0.64305 0.47387 0.76507 0.0
H327 H 0.66132 0.4467 0.81157 0.0
H328 H 0.59534 0.46276 0.73367 0.0
H329 H 0.69732 0.47002 0.71394 0.0
H330 H 0.74628 0.45139 0.71023 0.0
H331 H 0.71364 0.39333 0.6436 0.0
H332 H 0.66437 0.41126 0.64724 0.0
H333 H 0.60287 0.53588 0.56691 0.0
H334 H 0.62678 0.51912 0.61434 0.0
H335 H 0.55164 0.45608 0.63803 0.0
H336 H 0.52731 0.47318 0.59096 0.0
H337 H 0.6438 0.46527 0.63597 0.0
H338 H 0.54234 0.44888 0.71262 0.0
H339 H 0.49537 0.47174 0.71676 0.0
H340 H 0.53121 0.55688 0.67056 0.0
H341 H 0.57851 0.5347 0.66652 0.0
C342 C 0.66374 0.3896 0.76599 0.0
C343 C 0.66687 0.40451 0.79211 0.0
C344 C 0.65288 0.40477 0.7397 0.0
C345 C 0.64544 0.43534 0.73897 0.0
C346 C 0.64876 0.45034 0.7651 0.0
C347 C 0.65941 0.43501 0.79149 0.0
C348 C 0.63322 0.45113 0.71118 0.0
C349 C 0.60601 0.46345 0.71233 0.0
C350 C 0.64741 0.45257 0.68343 0.0
C351 C 0.67708 0.44183 0.68104 0.0
C352 C 0.70053 0.45312 0.69865 0.0
C353 C 0.72835 0.4427 0.69654 0.0
C354 C 0.73306 0.42115 0.67673 0.0
C355 C 0.70996 0.41001 0.65895 0.0
C356 C 0.68208 0.42032 0.66101 0.0
C357 C 0.59136 0.51857 0.58229 0.0
C358 C 0.56312 0.50597 0.57527 0.0
C359 C 0.6051 0.50897 0.60934 0.0
C360 C 0.59087 0.48663 0.62986 0.0
C361 C 0.5628 0.47379 0.62277 0.0
C362 C 0.54897 0.4835 0.5958 0.0
C363 C 0.60562 0.4762 0.65839 0.0
C364 C 0.63327 0.46482 0.65736 0.0
C365 C 0.59215 0.47629 0.68634 0.0
C366 C 0.5639 0.49 0.68905 0.0
C367 C 0.54024 0.47252 0.70348 0.0
C368 C 0.51355 0.48536 0.70578 0.0
C369 C 0.51029 0.51571 0.69385 0.0
C370 C 0.53374 0.53334 0.67969 0.0
C371 C 0.56048 0.52063 0.67736 0.0
H372 H 0.4896 0.52559 0.69563 0.0
H373 H 0.75461 0.41311 0.67513 0.0
H374 H 1.00121 0.61354 0.37297 0.0
H375 H 0.01421 0.61009 0.32114 0.0
H376 H 0.97403 0.69476 0.29409 0.0
H377 H 0.95976 0.69697 0.3459 0.0
H378 H 0.95165 0.65393 0.26284 0.0
H379 H 0.04953 0.68649 0.2839 0.0
H380 H 0.09684 0.6898 0.31113 0.0
H381 H 0.10815 0.59552 0.29909 0.0
H382 H 0.06067 0.59143 0.27222 0.0
H383 H 0.97665 0.61743 0.11365 0.0
H384 H 0.98412 0.64639 0.15761 0.0
H385 H 1.00117 0.56248 0.21226 0.0
H386 H 0.99349 0.53361 0.16869 0.0
H387 H 0.04039 0.61591 0.22331 0.0
H388 H 0.9359 0.58377 0.2124 0.0
H389 H 0.88894 0.58247 0.18433 0.0
H390 H 0.8925 0.68135 0.17588 0.0
H391 H 0.93972 0.6832 0.20359 0.0
C392 C 0.99624 0.63193 0.35601 0.0
C393 C 0.97979 0.65561 0.36323 0.0
C394 C 1.00371 0.63009 0.32638 0.0
C395 C 0.99524 0.65226 0.30351 0.0
C396 C 0.98086 0.67739 0.31125 0.0
C397 C 0.97306 0.67893 0.34087 0.0
C398 C 0.99719 0.64638 0.27163 0.0
C399 C 0.97141 0.64656 0.25399 0.0
C400 C 0.02276 0.63641 0.2599 0.0
C401 C 0.05139 0.63863 0.27612 0.0
C402 C 0.06198 0.66637 0.28724 0.0
C403 C 0.08886 0.6684 0.30259 0.0
C404 C 0.10547 0.64287 0.30686 0.0
C405 C 0.09525 0.61528 0.29575 0.0
C406 C 0.06837 0.61311 0.28041 0.0
C407 C 0.98227 0.60534 0.13503 0.0
C408 C 0.98413 0.57327 0.13792 0.0
C409 C 0.98654 0.62184 0.16003 0.0
C410 C 0.99321 0.60652 0.18813 0.0
C411 C 0.99616 0.57472 0.19075 0.0
C412 C 0.99144 0.55821 0.16595 0.0
C413 C 0.9948 0.62277 0.21545 0.0
C414 C 0.0211 0.62433 0.23209 0.0
C415 C 0.96989 0.63481 0.22615 0.0
C416 C 0.94147 0.63364 0.20969 0.0
C417 C 0.92678 0.60523 0.20432 0.0
C418 C 0.9001 0.60439 0.18853 0.0
C419 C 0.88779 0.63181 0.17824 0.0
C420 C 0.9021 0.66013 0.18381 0.0
C421 C 0.9288 0.66109 0.19955 0.0
H422 H 0.86713 0.63112 0.16602 0.0
H423 H 0.12628 0.64449 0.31875 0.0
H424 H 0.21472 0.1404 0.13038 0.0
H425 H 0.25835 0.11783 0.11498 0.0
H426 H 0.30928 0.16086 0.18336 0.0
H427 H 0.26544 0.18454 0.19765 0.0
H428 H 0.34164 0.16753 0.13854 0.0
H429 H 0.28914 0.07622 0.18232 0.0
H430 H 0.24726 0.0376 0.19167 0.0
H431 H 0.24638 0.01939 0.09969 0.0
H432 H 0.28803 0.05822 0.08969 0.0
H433 H 0.46874 0.08648 0.11193 0.0
H434 H 0.42584 0.105 0.13405 0.0
H435 H 0.37172 0.07579 0.06095 0.0
H436 H 0.41434 0.05726 0.03891 0.0
H437 H 0.3423 0.06086 0.11125 0.0
H438 H 0.39519 0.15462 0.06877 0.0
H439 H 0.43839 0.19196 0.06185 0.0
H440 H 0.43998 0.20334 0.15555 0.0
H441 H 0.39695 0.16579 0.16308 0.0
C442 C 0.235 0.14413 0.14283 0.0
C443 C 0.23615 0.16363 0.16592 0.0
C444 C 0.26029 0.13124 0.13391 0.0
C445 C 0.28786 0.13684 0.14803 0.0
C446 C 0.28875 0.15573 0.17178 0.0
C447 C 0.26342 0.16895 0.18045 0.0
C448 C 0.31565 0.12438 0.13712 0.0
C449 C 0.34165 0.14397 0.13315 0.0
C450 C 0.31655 0.09374 0.1293 0.0
C451 C 0.29154 0.07034 0.1352 0.0
C452 C 0.27989 0.06413 0.16404 0.0
C453 C 0.25621 0.04218 0.16946 0.0
C454 C 0.24412 0.02611 0.14627 0.0
C455 C 0.25574 0.03189 0.11762 0.0
C456 C 0.27941 0.05385 0.11207 0.0
C457 C 0.44777 0.08405 0.10043 0.0
C458 C 0.44551 0.07034 0.07331 0.0
C459 C 0.42301 0.09485 0.11314 0.0
C460 C 0.39494 0.09233 0.09931 0.0
C461 C 0.39271 0.07829 0.07243 0.0
C462 C 0.4174 0.06771 0.05965 0.0
C463 C 0.368 0.10406 0.11254 0.0
C464 C 0.34219 0.08434 0.11685 0.0
C465 C 0.36741 0.13439 0.12108 0.0
C466 C 0.39304 0.15719 0.11653 0.0
C467 C 0.40486 0.16496 0.08792 0.0
C468 C 0.42929 0.18618 0.08389 0.0
C469 C 0.44197 0.19995 0.10826 0.0
C470 C 0.43016 0.19262 0.1367 0.0
C471 C 0.40573 0.1714 0.14086 0.0
H472 H 0.4609 0.21635 0.10509 0.0
H473 H 0.22579 0.00912 0.15051 0.0
H474 H 0.32877 0.8402 0.67443 0.0
H475 H 0.2814 0.86266 0.67234 0.0
H476 H 0.32481 0.9528 0.64836 0.0
H477 H 0.37224 0.93001 0.64964 0.0
H478 H 0.27247 0.94756 0.69058 0.0
H479 H 0.30379 0.92265 0.59315 0.0
H480 H 0.32231 0.8873 0.56016 0.0
H481 H 0.24941 0.82152 0.58238 0.0
H482 H 0.2306 0.85646 0.61571 0.0
H483 H 0.17318 0.03442 0.60289 0.0
H484 H 0.21222 0.00797 0.62916 0.0
H485 H 0.16469 0.92029 0.61914 0.0
H486 H 0.12635 0.94655 0.59094 0.0
H487 H 0.21637 0.91938 0.60027 0.0
H488 H 0.17906 0.94844 0.68943 0.0
H489 H 0.16008 0.98242 0.72345 0.0
H490 H 0.24179 0.03802 0.71999 0.0
H491 H 0.26114 1.00466 0.68558 0.0
C492 C 0.32807 0.86482 0.66904 0.0
C493 C 0.35372 0.88344 0.66148 0.0
C494 C 0.30121 0.87763 0.66818 0.0
C495 C 0.29978 0.90927 0.66006 0.0
C496 C 0.32565 0.92832 0.65482 0.0
C497 C 0.35257 0.9154 0.65542 0.0
C498 C 0.27121 0.92147 0.65262 0.0
C499 C 0.26011 0.94169 0.67081 0.0
C500 C 0.25491 0.9128 0.62738 0.0
C501 C 0.26599 0.89197 0.60712 0.0
C502 C 0.29183 0.90056 0.59114 0.0
C503 C 0.30232 0.88065 0.57232 0.0
C504 C 0.28709 0.85214 0.56925 0.0
C505 C 0.26122 0.84358 0.58484 0.0
C506 C 0.2506 0.86344 0.60364 0.0
C507 C 0.17088 0.00952 0.60622 0.0
C508 C 0.14681 0.99269 0.59406 0.0
C509 C 0.19307 0.99439 0.62185 0.0
C510 C 0.19137 0.9621 0.62631 0.0
C511 C 0.16648 0.94526 0.61594 0.0
C512 C 0.14444 0.96037 0.5999 0.0
C513 C 0.21721 0.9461 0.63802 0.0
C514 C 0.22809 0.92507 0.62047 0.0
C515 C 0.23302 0.95391 0.66404 0.0
C516 C 0.22149 0.97412 0.68473 0.0
C517 C 0.19292 0.96805 0.69572 0.0
C518 C 0.1821 0.98719 0.71512 0.0
C519 C 0.1997 0.01239 0.72383 0.0
C520 C 0.22818 0.01849 0.71321 0.0
C521 C 0.2391 0.99944 0.69379 0.0
H522 H 0.19129 0.02718 0.73886 0.0
H523 H 0.29531 0.83672 0.55474 0.0
H524 H 0.69875 0.39402 0.91545 0.0
H525 H 0.74051 0.40674 0.94839 0.0
H526 H 0.79847 0.37247 0.88774 0.0
H527 H 0.75626 0.35814 0.85604 0.0
H528 H 0.82066 0.3639 0.94137 0.0
H529 H 0.78278 0.45025 0.88175 0.0
H530 H 0.74543 0.48521 0.86259 0.0
H531 H 0.73163 0.50729 0.95165 0.0
H532 H 0.76893 0.47243 0.97134 0.0
H533 H 0.94684 0.46937 0.94733 0.0
H534 H 0.90209 0.43949 0.93356 0.0
H535 H 0.85912 0.46459 0.01055 0.0
H536 H 0.904 0.49442 0.02472 0.0
H537 H 0.82793 0.47513 0.95582 0.0
H538 H 0.87602 0.39335 0.01164 0.0
H539 H 0.91788 0.36228 0.02483 0.0
H540 H 0.91653 0.33445 0.93607 0.0
H541 H 0.87494 0.36573 0.92219 0.0
C542 C 0.72028 0.38793 0.91012 0.0
C543 C 0.72455 0.37483 0.88366 0.0
C544 C 0.74418 0.3956 0.92859 0.0
C545 C 0.77279 0.39134 0.92015 0.0
C546 C 0.77669 0.37606 0.89477 0.0
C547 C 0.75269 0.3678 0.8767 0.0
C548 C 0.79867 0.40587 0.9355 0.0
C549 C 0.82224 0.38821 0.9445 0.0
C550 C 0.80083 0.43763 0.93976 0.0
C551 C 0.77834 0.45848 0.92804 0.0
C552 C 0.77163 0.46242 0.89725 0.0
C553 C 0.75051 0.48223 0.8863 0.0
C554 C 0.73603 0.4983 0.90591 0.0
C555 C 0.74279 0.49475 0.9365 0.0
C556 C 0.76395 0.47502 0.94757 0.0
C557 C 0.92795 0.4684 0.96147 0.0
C558 C 0.92892 0.48434 0.98707 0.0
C559 C 0.90246 0.45115 0.95366 0.0
C560 C 0.87742 0.44963 0.97119 0.0
C561 C 0.87831 0.46537 0.99684 0.0
C562 C 0.90394 0.48237 1.00489 0.0
C563 C 0.84983 0.43322 0.96151 0.0
C564 C 0.82604 0.45064 0.95335 0.0
C565 C 0.84788 0.40153 0.95732 0.0
C566 C 0.87244 0.38206 0.96583 0.0
C567 C 0.88474 0.38074 0.99488 0.0
C568 C 0.90842 0.36307 1.00248 0.0
C569 C 0.9199 0.34644 0.98129 0.0
C570 C 0.90762 0.34734 0.95247 0.0
C571 C 0.88396 0.365 0.94474 0.0
H572 H 0.93828 0.33284 0.9872 0.0
H573 H 0.71967 0.51361 0.89739 0.0
H574 H 0.87985 0.64596 0.38633 0.0
H575 H 0.82863 0.63539 0.40068 0.0
H576 H 0.85605 0.60525 0.49084 0.0
H577 H 0.90763 0.61477 0.47589 0.0
H578 H 0.80917 0.5691 0.47291 0.0
H579 H 0.83426 0.67615 0.4752 0.0
H580 H 0.8551 0.72808 0.45636 0.0
H581 H 0.79293 0.73066 0.38324 0.0
H582 H 0.77206 0.67848 0.40131 0.0
H583 H 0.65934 0.57553 0.51502 0.0
H584 H 0.713 0.58274 0.51353 0.0
H585 H 0.7074 0.62219 0.42156 0.0
H586 H 0.65405 0.61631 0.42365 0.0
H587 H 0.74552 0.65525 0.45007 0.0
H588 H 0.72492 0.54346 0.44702 0.0
H589 H 0.70473 0.49209 0.46867 0.0
H590 H 0.759 0.50004 0.54717 0.0
H591 H 0.77922 0.55155 0.52616 0.0
C592 C 0.87482 0.63648 0.40901 0.0
C593 C 0.89737 0.63101 0.43007 0.0
C594 C 0.84567 0.63075 0.41729 0.0
C595 C 0.83856 0.62008 0.44697 0.0
C596 C 0.8611 0.61362 0.46787 0.0
C597 C 0.89039 0.61914 0.45945 0.0
C598 C 0.80753 0.61685 0.45601 0.0
C599 C 0.79528 0.58801 0.46832 0.0
C600 C 0.78952 0.64163 0.45024 0.0
C601 C 0.80169 0.67328 0.43954 0.0
C602 C 0.82513 0.6877 0.455 0.0
C603 C 0.83696 0.7172 0.44446 0.0
C604 C 0.82537 0.73265 0.4186 0.0
C605 C 0.80189 0.71866 0.40327 0.0
C606 C 0.79003 0.68913 0.41366 0.0
C607 C 0.66976 0.58561 0.49455 0.0
C608 C 0.65277 0.59543 0.46945 0.0
C609 C 0.70033 0.58964 0.49365 0.0
C610 C 0.71432 0.60268 0.4673 0.0
C611 C 0.69718 0.61221 0.44219 0.0
C612 C 0.66674 0.60884 0.44334 0.0
C613 C 0.74671 0.60703 0.46547 0.0
C614 C 0.75936 0.63631 0.45481 0.0
C615 C 0.76504 0.58273 0.47307 0.0
C616 C 0.75336 0.55144 0.48516 0.0
C617 C 0.73245 0.53427 0.46893 0.0
C618 C 0.72101 0.50515 0.48109 0.0
C619 C 0.73052 0.4929 0.50931 0.0
C620 C 0.75162 0.5096 0.52535 0.0
C621 C 0.76309 0.53873 0.51332 0.0
H622 H 0.7216 0.47047 0.5188 0.0
H623 H 0.83455 0.75549 0.41047 0.0
H624 H 0.20573 0.27915 0.13907 0.0
H625 H 0.18035 0.3231 0.11559 0.0
H626 H 0.09852 0.26689 0.12022 0.0
H627 H 0.1242 0.22274 0.14239 0.0
H628 H 0.09693 0.30133 0.07077 0.0
H629 H 0.12088 0.3242 0.17068 0.0
H630 H 0.15311 0.33237 0.21437 0.0
H631 H 0.20204 0.40681 0.16311 0.0
H632 H 0.17032 0.39881 0.11898 0.0
H633 H 0.03166 0.46079 0.08568 0.0
H634 H 0.05742 0.4163 0.10676 0.0
H635 H 0.0848 0.40249 0.01858 0.0
H636 H 0.05889 0.44681 0.99737 0.0
H637 H 0.1122 0.40277 0.11083 0.0
H638 H 0.09301 0.32623 0.01359 0.0
H639 H 0.05605 0.31677 0.97403 0.0
H640 H 0.9896 0.34709 0.02702 0.0
H641 H 0.02606 0.35635 0.06704 0.0
C642 C 0.1824 0.27606 0.13473 0.0
C643 C 0.1671 0.24725 0.14286 0.0
C644 C 0.16769 0.30144 0.12156 0.0
C645 C 0.13706 0.29903 0.11635 0.0
C646 C 0.12198 0.26994 0.12386 0.0
C647 C 0.1367 0.24458 0.13684 0.0
C648 C 0.1207 0.32656 0.10351 0.0
C649 C 0.10053 0.32348 0.07956 0.0
C650 C 0.1244 0.35575 0.11496 0.0
C651 C 0.14341 0.36071 0.14146 0.0
C652 C 0.13863 0.34218 0.16868 0.0
C653 C 0.15679 0.34679 0.19352 0.0
C654 C 0.17965 0.37004 0.19149 0.0
C655 C 0.18435 0.38878 0.16463 0.0
C656 C 0.16628 0.38423 0.1397 0.0
C657 C 0.04302 0.44826 0.07065 0.0
C658 C 0.04284 0.45764 0.03963 0.0
C659 C 0.05799 0.42272 0.08284 0.0
C660 C 0.07314 0.40537 0.0645 0.0
C661 C 0.07308 0.41481 0.03349 0.0
C662 C 0.05821 0.44042 0.02129 0.0
C663 C 0.08893 0.37766 0.07776 0.0
C664 C 0.10887 0.38069 0.10187 0.0
C665 C 0.08453 0.34826 0.06689 0.0
C666 C 0.06236 0.34229 0.04316 0.0
C667 C 0.07049 0.33076 0.01684 0.0
C668 C 0.04963 0.32545 0.99433 0.0
C669 C 0.02052 0.33143 0.99797 0.0
C670 C 1.01218 0.34259 0.02418 0.0
C671 C 0.03294 0.3479 0.04677 0.0
H672 H 1.00442 0.32734 0.98051 0.0
H673 H 0.19368 0.37358 0.21075 0.0
H674 H 0.68265 0.29438 0.8436 0.0
H675 H 0.65883 0.24809 0.87132 0.0
H676 H 0.64131 0.30135 0.94324 0.0
H677 H 0.6643 0.34786 0.91492 0.0
H678 H 0.66039 0.23234 0.95702 0.0
H679 H 0.5867 0.29737 0.90767 0.0
H680 H 0.56685 0.32898 0.86426 0.0
H681 H 0.56909 0.25352 0.81087 0.0
H682 H 0.58882 0.22145 0.85409 0.0
H683 H 0.5478 0.13858 0.02952 0.0
H684 H 0.57526 0.18419 1.00538 0.0
H685 H 0.56508 0.14662 0.92046 0.0
H686 H 0.53649 0.1012 0.9445 0.0
H687 H 0.56196 0.20715 0.91294 0.0
H688 H 0.62772 0.13916 0.9637 0.0
H689 H 0.64617 0.10613 1.00678 0.0
H690 H 0.66154 0.18478 0.0562 0.0
H691 H 0.64268 0.21821 0.01358 0.0
C692 C 0.67462 0.29581 0.8658 0.0
C693 C 0.67542 0.3244 0.87737 0.0
C694 C 0.66096 0.26954 0.8815 0.0
C695 C 0.64826 0.27148 0.90918 0.0
C696 C 0.6512 0.29947 0.92196 0.0
C697 C 0.66456 0.3259 0.906 0.0
C698 C 0.62888 0.24537 0.92271 0.0
C699 C 0.63873 0.22695 0.94771 0.0
C700 C 0.60105 0.23798 0.90993 0.0
C701 C 0.58942 0.25718 0.88394 0.0
C702 C 0.58307 0.28762 0.88661 0.0
C703 C 0.57169 0.30554 0.86212 0.0
C704 C 0.56675 0.29328 0.83481 0.0
C705 C 0.57297 0.263 0.83202 0.0
C706 C 0.58412 0.2449 0.85653 0.0
C707 C 0.55094 0.14032 1.00559 0.0
C708 C 0.54023 0.11633 0.98887 0.0
C709 C 0.56682 0.16627 0.99187 0.0
C710 C 0.57299 0.16838 0.9613 0.0
C711 C 0.56079 0.14532 0.94415 0.0
C712 C 0.54439 0.11947 0.95784 0.0
C713 C 0.59316 0.194 0.94768 0.0
C714 C 0.58357 0.21234 0.92244 0.0
C715 C 0.62138 0.20103 0.96016 0.0
C716 C 0.63356 0.18116 0.98552 0.0
C717 C 0.63491 0.14939 0.9838 0.0
C718 C 0.64543 0.13059 1.00814 0.0
C719 C 0.65496 0.14334 0.03423 0.0
C720 C 0.65412 0.17494 0.03598 0.0
C721 C 0.64354 0.19383 0.01173 0.0
H722 H 0.66304 0.12873 0.05308 0.0
H723 H 0.55811 0.30725 0.81582 0.0
H724 H 0.95425 0.72891 0.38807 0.0
H725 H 0.98124 0.77733 0.39846 0.0
H726 H 0.04713 0.72619 0.44704 0.0
H727 H 0.01984 0.67764 0.4362 0.0
H728 H 0.02389 0.76607 0.48043 0.0
H729 H 0.06609 0.77263 0.38456 0.0
H730 H 0.0668 0.77002 0.33012 0.0
H731 H 1.01068 0.84428 0.31606 0.0
H732 H 1.00918 0.84701 0.37045 0.0
H733 H 0.0764 0.91809 0.51674 0.0
H734 H 0.07811 0.8675 0.49786 0.0
H735 H 1.00399 0.88621 0.43965 0.0
H736 H 1.00204 0.93609 0.4582 0.0
H737 H 0.04653 0.8604 0.41101 0.0
H738 H 0.99365 0.84354 0.50436 0.0
H739 H 0.9884 0.84552 0.55853 0.0
H740 H 0.06138 0.79035 0.57643 0.0
H741 H 0.06727 0.78839 0.52225 0.0
C742 C 0.9752 0.72824 0.39972 0.0
C743 C 0.98551 0.69993 0.41081 0.0
C744 C 0.99055 0.75578 0.40582 0.0
C745 C 0.01637 0.7554 0.42334 0.0
C746 C 0.0274 0.727 0.43328 0.0
C747 C 1.01207 0.69941 0.42693 0.0
C748 C 0.02926 0.78442 0.4343 0.0
C749 C 0.02978 0.78649 0.46527 0.0
C750 C 0.03635 0.81118 0.41452 0.0
C751 C 0.03748 0.80996 0.38167 0.0
C752 C 0.05376 0.7883 0.36989 0.0
C753 C 0.05431 0.78681 0.33902 0.0
C754 C 0.03879 0.80696 0.31964 0.0
C755 C 0.02272 0.8287 0.3311 0.0
C756 C 0.02206 0.83027 0.36196 0.0
C757 C 0.0606 0.91138 0.49984 0.0
C758 C 0.03897 0.93099 0.48915 0.0
C759 C 0.06162 0.88256 0.48906 0.0
C760 C 0.0412 0.87318 0.4673 0.0
C761 C 0.02009 0.89306 0.45624 0.0
C762 C 0.01888 0.92152 0.46712 0.0
C763 C 0.04019 0.84207 0.45693 0.0
C764 C 0.04176 0.83968 0.42613 0.0
C765 C 0.03468 0.81505 0.47679 0.0
C766 C 0.03117 0.81619 0.5093 0.0
C767 C 1.00874 0.83207 0.51985 0.0
C768 C 1.00561 0.83314 0.55055 0.0
C769 C 0.02462 0.81817 0.57092 0.0
C770 C 0.04674 0.80201 0.56062 0.0
C771 C 0.04998 0.80091 0.52993 0.0
H772 H 0.02216 0.81901 0.59468 0.0
H773 H 0.03923 0.80576 0.29575 0.0
H774 H 0.38758 0.77958 0.65319 0.0
H775 H 0.4038 0.73446 0.63251 0.0
H776 H 0.47704 0.79059 0.59197 0.0
H777 H 0.46002 0.83609 0.6121 0.0
H778 H 0.44904 0.75471 0.55312 0.0
H779 H 0.48714 0.7404 0.65329 0.0
H780 H 0.48517 0.73654 0.70829 0.0
H781 H 0.42184 0.65863 0.70823 0.0
H782 H 0.4231 0.66231 0.65316 0.0
H783 H 0.52896 0.63344 0.51686 0.0
H784 H 0.51287 0.67751 0.53886 0.0
H785 H 0.43701 0.622 0.57424 0.0
H786 H 0.4531 0.57734 0.55235 0.0
H787 H 0.46614 0.65719 0.61571 0.0
H788 H 0.42827 0.67184 0.51522 0.0
H789 H 0.43102 0.67562 0.46026 0.0
H790 H 0.49489 0.75294 0.46112 0.0
H791 H 0.49284 0.74938 0.51615 0.0
C792 C 0.40709 0.78211 0.63981 0.0
C793 C 0.42257 0.81099 0.6339 0.0
C794 C 0.41647 0.75642 0.62826 0.0
C795 C 0.44175 0.75919 0.61096 0.0
C796 C 0.45749 0.78806 0.60533 0.0
C797 C 0.44798 0.81385 0.61686 0.0
C798 C 0.45103 0.73205 0.59798 0.0
C799 C 0.45324 0.73354 0.56682 0.0
C800 C 0.45567 0.70423 0.6159 0.0
C801 C 0.45503 0.7018 0.64906 0.0
C802 C 0.47263 0.72258 0.66498 0.0
C803 C 0.47167 0.7204 0.69618 0.0
C804 C 0.45335 0.69739 0.71174 0.0
C805 C 0.436 0.67646 0.69614 0.0
C806 C 0.43685 0.67856 0.66493 0.0
C807 C 0.50881 0.63052 0.52926 0.0
C808 C 0.49223 0.60193 0.53285 0.0
C809 C 0.49963 0.65577 0.54172 0.0
C810 C 0.47367 0.65298 0.55786 0.0
C811 C 0.4571 0.62449 0.56174 0.0
C812 C 0.46625 0.59911 0.54916 0.0
C813 C 0.46418 0.67994 0.57092 0.0
C814 C 0.46193 0.67839 0.60206 0.0
C815 C 0.45958 0.70773 0.553 0.0
C816 C 0.46058 0.71018 0.51985 0.0
C817 C 0.44306 0.68952 0.50372 0.0
C818 C 0.44447 0.69164 0.47255 0.0
C819 C 0.46317 0.71445 0.45722 0.0
C820 C 0.48043 0.73526 0.47303 0.0
C821 C 0.47913 0.73323 0.50421 0.0
H822 H 0.46424 0.71603 0.43309 0.0
H823 H 0.45263 0.69575 0.7359 0.0
H824 H 0.90099 0.89149 0.83382 0.0
H825 H 0.93081 0.90641 0.78906 0.0
H826 H 0.8528 0.90129 0.73358 0.0
H827 H 0.82347 0.8852 0.77812 0.0
H828 H 0.89308 0.88279 0.70354 0.0
H829 H 0.89081 0.97237 0.7565 0.0
H830 H 0.89833 1.0026 0.7997 0.0
H831 H 0.99033 0.99023 0.8006 0.0
H832 H 0.98328 0.95957 0.75762 0.0
H833 H 0.94552 0.9767 0.57276 0.0
H834 H 0.92022 0.95586 0.6187 0.0
H835 H 1.00261 0.95666 0.667 0.0
H836 H 0.02806 0.97773 0.621 0.0
H837 H 0.96255 0.97592 0.7013 0.0
H838 H 0.96487 0.88818 0.6468 0.0
H839 H 0.95718 0.85851 0.60324 0.0
H840 H 0.86477 0.86806 0.60488 0.0
H841 H 0.87195 0.89811 0.64827 0.0
C842 C 0.89033 0.8928 0.81202 0.0
C843 C 0.85969 0.88708 0.80979 0.0
C844 C 0.90739 0.90193 0.78624 0.0
C845 C 0.89435 0.90599 0.75733 0.0
C846 C 0.86386 0.89876 0.75517 0.0
C847 C 0.84693 0.88952 0.78083 0.0
C848 C 0.91191 0.91829 0.72949 0.0
C849 C 0.90797 0.90338 0.70318 0.0
C850 C 0.93216 0.94487 0.72836 0.0
C851 C 0.93647 0.96342 0.75406 0.0
C852 C 0.91261 0.97594 0.76603 0.0
C853 C 0.91679 0.99316 0.79047 0.0
C854 C 0.94478 0.99826 0.80294 0.0
C855 C 0.96865 0.98622 0.79095 0.0
C856 C 0.96458 0.96893 0.76654 0.0
C857 C 0.95841 0.97244 0.59308 0.0
C858 C 0.98909 0.979 0.59271 0.0
C859 C 0.94379 0.96026 0.61957 0.0
C860 C 0.95921 0.95406 0.64686 0.0
C861 C 0.98984 0.96098 0.64661 0.0
C862 C 1.00451 0.97303 0.62005 0.0
C863 C 0.94345 0.94057 0.67538 0.0
C864 C 0.94772 0.95527 0.70176 0.0
C865 C 0.92343 0.91387 0.67656 0.0
C866 C 0.91899 0.89563 0.65062 0.0
C867 C 0.94293 0.88412 0.63775 0.0
C868 C 0.93866 0.86721 0.61311 0.0
C869 C 0.91051 0.86148 0.60124 0.0
C870 C 0.88656 0.87255 0.61407 0.0
C871 C 0.89071 0.88949 0.63871 0.0
H872 H 0.90725 0.84839 0.58215 0.0
H873 H 0.94797 0.0116 0.82186 0.0
H874 H 0.60909 0.1107 0.40359 0.0
H875 H 0.59514 0.08941 0.35619 0.0
H876 H 0.65511 0.15801 0.30923 0.0
H877 H 0.66912 0.17881 0.35673 0.0
H878 H 0.597 0.15444 0.28527 0.0
H879 H 0.67336 0.08894 0.31863 0.0
H880 H 0.69757 0.05257 0.35492 0.0
H881 H 0.62282 0.98698 0.35219 0.0
H882 H 0.59787 0.02328 0.31632 0.0
H883 H 0.61313 0.1099 0.14337 0.0
H884 H 0.6216 0.12154 0.19472 0.0
H885 H 0.56005 0.04562 0.22549 0.0
H886 H 0.55181 0.03335 0.17365 0.0
H887 H 0.61295 0.04941 0.26015 0.0
H888 H 0.53785 0.11368 0.22401 0.0
H889 H 0.51357 0.15049 0.1882 0.0
H890 H 0.58552 0.21845 0.19658 0.0
H891 H 0.61046 0.18189 0.23211 0.0
C892 C 0.61949 0.12064 0.38307 0.0
C893 C 0.64019 0.14599 0.3833 0.0
C894 C 0.61157 0.10866 0.35619 0.0
C895 C 0.62413 0.12224 0.32936 0.0
C896 C 0.64521 0.14732 0.32977 0.0
C897 C 0.65333 0.15901 0.35668 0.0
C898 C 0.61446 0.11122 0.30057 0.0
C899 C 0.60065 0.13157 0.27965 0.0
C900 C 0.61843 0.08103 0.29387 0.0
C901 C 0.63359 0.05898 0.31505 0.0
C902 C 0.66195 0.06688 0.32597 0.0
C903 C 0.67583 0.04627 0.34644 0.0
C904 C 0.66171 0.01751 0.35592 0.0
C905 C 0.63371 0.00929 0.34487 0.0
C906 C 0.61968 0.02988 0.32447 0.0
C907 C 0.6016 0.09542 0.16101 0.0
C908 C 0.58188 0.07063 0.15451 0.0
C909 C 0.60629 0.10226 0.19033 0.0
C910 C 0.59127 0.08457 0.21377 0.0
C911 C 0.57177 0.05954 0.20758 0.0
C912 C 0.56693 0.05274 0.17805 0.0
C913 C 0.59606 0.0929 0.24458 0.0
C914 C 0.60891 0.07211 0.26592 0.0
C915 C 0.59116 0.12272 0.25178 0.0
C916 C 0.57612 0.14494 0.2306 0.0
C917 C 0.5486 0.1364 0.21806 0.0
C918 C 0.5347 0.15723 0.19783 0.0
C919 C 0.54802 0.18677 0.19008 0.0
C920 C 0.57523 0.19556 0.2026 0.0
C921 C 0.58925 0.1748 0.22282 0.0
H922 H 0.53722 0.20287 0.17441 0.0
H923 H 0.67249 1.00158 0.37177 0.0
H924 H 0.36133 0.70634 0.23697 0.0
H925 H 0.38948 0.6871 0.28132 0.0
H926 H 0.41046 0.60952 0.23635 0.0
H927 H 0.38314 0.62942 0.19187 0.0
H928 H 0.37949 0.63511 0.31663 0.0
H929 H 0.47674 0.58693 0.2602 0.0
H930 H 0.50696 0.59988 0.21533 0.0
H931 H 0.48785 0.69459 0.21215 0.0
H932 H 0.45799 0.68234 0.25728 0.0
H933 H 0.44555 0.52929 0.4225 0.0
H934 H 0.42246 0.55304 0.37695 0.0
H935 H 0.49623 0.62086 0.36538 0.0
H936 H 0.51976 0.59669 0.4098 0.0
H937 H 0.48109 0.60427 0.31423 0.0
H938 H 0.43015 0.63626 0.39564 0.0
H939 H 0.40202 0.62906 0.44222 0.0
H940 H 0.33235 0.5784 0.39847 0.0
H941 H 0.36028 0.5848 0.35176 0.0
C942 C 0.37253 0.68556 0.23655 0.0
C943 C 0.37022 0.6692 0.21133 0.0
C944 C 0.3883 0.67444 0.26184 0.0
C945 C 0.40207 0.64691 0.2621 0.0
C946 C 0.40028 0.63098 0.23653 0.0
C947 C 0.38461 0.64216 0.21128 0.0
C948 C 0.41734 0.63407 0.28944 0.0
C949 C 0.40175 0.62845 0.31616 0.0
C950 C 0.44653 0.62593 0.2889 0.0
C951 C 0.46487 0.63361 0.26198 0.0
C952 C 0.47911 0.61054 0.25002 0.0
C953 C 0.49617 0.61777 0.22453 0.0
C954 C 0.49925 0.64802 0.21085 0.0
C955 C 0.48537 0.67115 0.2227 0.0
C956 C 0.46835 0.66406 0.24823 0.0
C957 C 0.45687 0.54911 0.41006 0.0
C958 C 0.48443 0.56111 0.41973 0.0
C959 C 0.44362 0.56277 0.38416 0.0
C960 C 0.45745 0.58902 0.36798 0.0
C961 C 0.48516 0.60062 0.37741 0.0
C962 C 0.49856 0.58676 0.40291 0.0
C963 C 0.4431 0.60482 0.34139 0.0
C964 C 0.45885 0.61096 0.31476 0.0
C965 C 0.4144 0.61438 0.34229 0.0
C966 C 0.39743 0.61077 0.37027 0.0
C967 C 0.40891 0.62341 0.396 0.0
C968 C 0.393 0.6195 0.42242 0.0
C969 C 0.36544 0.60326 0.42331 0.0
C970 C 0.35371 0.59095 0.39776 0.0
C971 C 0.36957 0.59472 0.3713 0.0
H972 H 0.35316 0.60025 0.44378 0.0
H973 H 0.51244 0.65355 0.1911 0.0
H974 H 0.11173 0.43793 0.66822 0.0
H975 H 0.10691 0.45653 0.71727 0.0
H976 H 0.1233 0.36657 0.76046 0.0
H977 H 0.12839 0.34813 0.71118 0.0
H978 H 0.07732 0.39213 0.78545 0.0
H979 H 0.17651 0.42103 0.76046 0.0
H980 H 0.21706 0.44306 0.72793 0.0
H981 H 0.18371 0.53229 0.72363 0.0
H982 H 0.14262 0.51069 0.75569 0.0
H983 H 0.07086 0.46388 0.91888 0.0
H984 H 0.09488 0.43573 0.88329 0.0
H985 H 0.08855 0.5126 0.81553 0.0
H986 H 0.06538 0.54087 0.8511 0.0
H987 H 0.1384 0.48533 0.81015 0.0
H988 H 0.0343 0.45355 0.8238 0.0
H989 H 0.99196 0.43234 0.85435 0.0
H990 H 0.03427 0.34912 0.87891 0.0
H991 H 0.07701 0.37004 0.84874 0.0
C992 C 0.11417 0.42225 0.68827 0.0
C993 C 0.1204 0.39175 0.6862 0.0
C994 C 0.11156 0.4328 0.71617 0.0
C995 C 0.11523 0.41301 0.74245 0.0
C996 C 0.12053 0.38219 0.74042 0.0
C997 C 0.12326 0.37166 0.71242 0.0
C998 C 0.11341 0.42485 0.77188 0.0
C999 C 0.09114 0.41203 0.79126 0.0
C1000 C 0.13138 0.4509 0.77928 0.0
C1001 C 0.15637 0.46417 0.7604 0.0
C1002 C 0.17771 0.44532 0.75245 0.0
C1003 C 0.2008 0.45773 0.73408 0.0
C1004 C 0.20294 0.48905 0.7237 0.0
C1005 C 0.18202 0.50803 0.73171 0.0
C1006 C 0.15884 0.49572 0.75001 0.0
C1007 C 0.07545 0.47504 0.89666 0.0
C1008 C 0.06587 0.50432 0.88751 0.0
C1009 C 0.08897 0.4589 0.87632 0.0
C1010 C 0.09298 0.47188 0.84662 0.0
C1011 C 0.08556 0.50208 0.83828 0.0
C1012 C 0.0721 0.51812 0.85851 0.0
C1013 C 0.10161 0.45332 0.82311 0.0
C1014 C 0.12517 0.46487 0.8048 0.0
C1015 C 0.08475 0.42619 0.81659 0.0
C1016 C 0.05893 0.41347 0.83434 0.0
C1017 C 0.03461 0.4308 0.83585 0.0
C1018 C 1.01055 0.41883 0.85308 0.0
C1019 C 1.01046 0.38944 0.86863 0.0
C1020 C 0.03439 0.37191 0.8669 0.0
C1021 C 0.05853 0.3838 0.84974 0.0
H1022 H 0.99182 0.38022 0.88197 0.0
H1023 H 0.22083 0.49862 0.70947 0.0
H1024 H 0.80398 0.91192 0.92351 0.0
H1025 H 0.76267 0.93231 0.94647 0.0
H1026 H 0.71019 0.92045 0.86696 0.0
H1027 H 0.75198 0.90085 0.84382 0.0
H1028 H 0.69611 0.97036 0.88511 0.0
H1029 H 0.70382 0.87075 0.93853 0.0
H1030 H 0.7284 0.8294 0.96832 0.0
H1031 H 0.7466 0.8879 0.03846 0.0
H1032 H 0.72249 0.92978 1.00888 0.0
H1033 H 0.55848 0.98752 0.95259 0.0
H1034 H 0.59976 0.96757 0.9292 0.0
H1035 H 0.65489 0.98636 1.0052 0.0
H1036 H 0.61361 0.00607 0.02877 0.0
H1037 H 0.66709 0.93264 0.98879 0.0
H1038 H 0.65874 0.03219 0.93453 0.0
H1039 H 0.63334 0.07273 0.90445 0.0
H1040 H 0.61499 0.01274 0.83554 0.0
H1041 H 0.63996 0.97168 0.86541 0.0
C1042 C 0.7836 0.91354 0.91097 0.0
C1043 C 0.78147 0.90446 0.88178 0.0
C1044 C 0.75969 0.92514 0.92422 0.0
C1045 C 0.73241 0.9276 0.90905 0.0
C1046 C 0.73054 0.91897 0.8796 0.0
C1047 C 0.75458 0.90766 0.86624 0.0
C1048 C 0.70613 0.93917 0.92365 0.0
C1049 C 0.68968 0.96162 0.90765 0.0
C1050 C 0.69733 0.92871 0.95341 0.0
C1051 C 0.7116 0.9035 0.97136 0.0
C1052 C 0.71322 0.87486 0.96023 0.0
C1053 C 0.72706 0.85132 0.97708 0.0
C1054 C 0.73912 0.85605 1.00523 0.0
C1055 C 0.73729 0.88429 0.01663 0.0
C1056 C 0.72352 0.90793 0.99984 0.0
C1057 C 0.57935 0.98746 0.96444 0.0
C1058 C 0.58231 0.99864 0.99278 0.0
C1059 C 0.60323 0.9761 0.95085 0.0
C1060 C 0.63113 0.97554 0.96496 0.0
C1061 C 0.63396 0.98633 0.99346 0.0
C1062 C 0.61013 0.99778 1.00701 0.0
C1063 C 0.65717 0.96377 0.95025 0.0
C1064 C 0.67355 0.9413 0.96624 0.0
C1065 C 0.66577 0.97405 0.92043 0.0
C1066 C 0.65098 0.99876 0.90233 0.0
C1067 C 0.64913 0.02757 0.91305 0.0
C1068 C 0.63483 0.05065 0.89603 0.0
C1069 C 0.62249 0.04528 0.86814 0.0
C1070 C 0.62452 0.01685 0.85717 0.0
C1071 C 0.63876 0.99368 0.87412 0.0
H1072 H 0.61142 0.06318 0.855 0.0
H1073 H 0.74983 0.8378 0.01824 0.0
H1074 H 0.67465 0.10197 0.41705 0.0
H1075 H 0.71887 0.07684 0.40758 0.0
H1076 H 0.77001 0.16426 0.40738 0.0
H1077 H 0.72544 0.18957 0.41378 0.0
H1078 H 0.79375 0.13302 0.37135 0.0
H1079 H 0.76022 0.11146 0.47232 0.0
H1080 H 0.72474 0.09323 0.51187 0.0
H1081 H 0.7193 1.00241 0.48318 0.0
H1082 H 0.7545 0.02025 0.44319 0.0
H1083 H 0.92368 0.08273 0.45087 0.0
H1084 H 0.87975 0.10645 0.43096 0.0
H1085 H 0.84396 0.01896 0.40471 0.0
H1086 H 0.88811 0.99532 0.42354 0.0
H1087 H 0.81161 0.04636 0.4483 0.0
H1088 H 0.85562 0.07127 0.35197 0.0
H1089 H 0.89461 0.09364 0.31761 0.0
H1090 H 0.88478 0.1835 0.34428 0.0
H1091 H 0.84601 0.1616 0.37915 0.0
C1092 C 0.69529 0.11575 0.41434 0.0
C1093 C 0.69699 0.14741 0.4173 0.0
C1094 C 0.72054 0.10145 0.40913 0.0
C1095 C 0.74796 0.11849 0.4078 0.0
C1096 C 0.74924 0.15051 0.40872 0.0
C1097 C 0.7239 0.16487 0.41305 0.0
C1098 C 0.7755 0.10286 0.40849 0.0
C1099 C 0.79767 0.11409 0.3882 0.0
C1100 C 0.78068 0.07811 0.43043 0.0
C1101 C 0.75971 0.06725 0.45458 0.0
C1102 C 0.75132 0.08765 0.47436 0.0
C1103 C 0.73128 0.07739 0.49685 0.0
C1104 C 0.71971 0.0467 0.49998 0.0
C1105 C 0.72823 0.02619 0.48068 0.0
C1106 C 0.74823 0.03635 0.45811 0.0
C1107 C 0.90696 0.06877 0.43994 0.0
C1108 C 0.90909 0.03697 0.4394 0.0
C1109 C 0.88186 0.08236 0.42859 0.0
C1110 C 0.85866 0.06432 0.4166 0.0
C1111 C 0.86166 0.03316 0.41401 0.0
C1112 C 0.88678 0.01967 0.42504 0.0
C1113 C 0.82976 0.07661 0.41132 0.0
C1114 C 0.80743 0.06484 0.43102 0.0
C1115 C 0.82493 0.10145 0.38955 0.0
C1116 C 0.84804 0.11473 0.36836 0.0
C1117 C 0.86192 0.09576 0.3507 0.0
C1118 C 0.88396 0.10837 0.33109 0.0
C1119 C 0.89221 0.13996 0.32881 0.0
C1120 C 0.87837 0.15903 0.34607 0.0
C1121 C 0.85634 0.14653 0.36574 0.0
H1122 H 0.90929 0.14967 0.31363 0.0
H1123 H 0.70418 0.0388 0.51741 0.0
H1124 H 0.26284 0.70272 0.15393 0.0
H1125 H 0.21797 0.68584 0.12701 0.0
H1126 H 0.26482 0.61865 0.08825 0.0
H1127 H 0.30954 0.6353 0.11573 0.0
H1128 H 0.22607 0.65643 0.04725 0.0
H1129 H 0.22733 0.59161 0.14108 0.0
H1130 H 0.23131 0.58192 0.19597 0.0
H1131 H 0.15625 0.63262 0.20491 0.0
H1132 H 0.15219 0.64317 0.15002 0.0
H1133 H 0.10404 0.5624 0.99725 0.0
H1134 H 0.15031 0.58455 0.01699 0.0
H1135 H 0.10292 0.63146 0.07782 0.0
H1136 H 0.05677 0.60818 0.05912 0.0
H1137 H 0.14339 0.6042 0.107 0.0
H1138 H 0.14076 0.66962 0.01469 0.0
H1139 H 0.13657 0.68211 0.96006 0.0
H1140 H 0.21269 0.63406 0.94805 0.0
H1141 H 0.21711 0.62091 1.00261 0.0
C1142 C 0.26336 0.68452 0.13946 0.0
C1143 C 0.28916 0.67008 0.1367 0.0
C1144 C 0.23796 0.67494 0.12419 0.0
C1145 C 0.23828 0.65105 0.10577 0.0
C1146 C 0.26433 0.6372 0.10233 0.0
C1147 C 0.28963 0.64649 0.118 0.0
C1148 C 0.21096 0.63957 0.09131 0.0
C1149 C 0.20802 0.64468 0.06013 0.0
C1150 C 0.18739 0.62501 0.10842 0.0
C1151 C 0.18967 0.61849 0.14144 0.0
C1152 C 0.21186 0.60098 0.15474 0.0
C1153 C 0.2141 0.59528 0.18586 0.0
C1154 C 0.19409 0.60672 0.20392 0.0
C1155 C 0.17177 0.62383 0.19089 0.0
C1156 C 0.16949 0.62967 0.15978 0.0
C1157 C 0.10355 0.57784 0.01449 0.0
C1158 C 0.07692 0.58355 0.02675 0.0
C1159 C 0.12998 0.59059 0.02569 0.0
C1160 C 0.13012 0.60987 0.04877 0.0
C1161 C 0.10338 0.61654 0.06012 0.0
C1162 C 0.07704 0.60332 0.04937 0.0
C1163 C 0.15802 0.62132 0.06264 0.0
C1164 C 0.16123 0.61607 0.09387 0.0
C1165 C 0.18165 0.6361 0.04554 0.0
C1166 C 0.17909 0.64404 0.01273 0.0
C1167 C 0.15647 0.66151 1.00039 0.0
C1168 C 0.15408 0.66875 0.96944 0.0
C1169 C 0.17431 0.65882 0.95059 0.0
C1170 C 0.19702 0.6417 0.96267 0.0
C1171 C 0.1995 0.63438 0.99361 0.0
H1172 H 0.17242 0.66444 0.92664 0.0
H1173 H 0.19584 0.60226 0.22801 0.0
H1174 H 0.15671 0.42824 0.5754 0.0
H1175 H 0.20156 0.44086 0.54687 0.0
H1176 H 0.22634 0.34818 0.57034 0.0
H1177 H 0.18223 0.33637 0.60028 0.0
H1178 H 0.26692 0.3865 0.58706 0.0
H1179 H 0.21313 0.38014 0.49554 0.0
H1180 H 0.17353 0.39023 0.45857 0.0
H1181 H 0.20039 0.487 0.45102 0.0
H1182 H 0.23991 0.47757 0.4883 0.0
H1183 H 0.40067 0.40769 0.51566 0.0
H1184 H 0.34856 0.39203 0.51991 0.0
H1185 H 0.33024 0.4868 0.52201 0.0
H1186 H 0.38284 0.50272 0.51821 0.0
H1187 H 0.28649 0.44662 0.48876 0.0
H1188 H 0.33656 0.45208 0.58454 0.0
H1189 H 0.37654 0.44122 0.6209 0.0
H1190 H 0.35561 0.34398 0.61922 0.0
H1191 H 0.31579 0.3543 0.58244 0.0
C1192 C 0.17138 0.41039 0.57355 0.0
C1193 C 0.16628 0.38147 0.59005 0.0
C1194 C 0.19692 0.41751 0.55713 0.0
C1195 C 0.21749 0.39551 0.55645 0.0
C1196 C 0.21089 0.36559 0.5706 0.0
C1197 C 0.18554 0.35867 0.58741 0.0
C1198 C 0.24753 0.40503 0.54545 0.0
C1199 C 0.27106 0.39902 0.56524 0.0
C1200 C 0.25308 0.42237 0.51743 0.0
C1201 C 0.22937 0.42815 0.49492 0.0
C1202 C 0.21047 0.40361 0.48619 0.0
C1203 C 0.18805 0.40921 0.46513 0.0
C1204 C 0.1844 0.43924 0.4525 0.0
C1205 C 0.20322 0.46374 0.46084 0.0
C1206 C 0.22567 0.45828 0.4819 0.0
C1207 C 0.38559 0.42528 0.51677 0.0
C1208 C 0.39591 0.45637 0.51734 0.0
C1209 C 0.3558 0.41631 0.51887 0.0
C1210 C 0.33567 0.43822 0.52156 0.0
C1211 C 0.34552 0.46958 0.51986 0.0
C1212 C 0.37551 0.47863 0.51777 0.0
C1213 C 0.30531 0.42769 0.5303 0.0
C1214 C 0.28198 0.43373 0.51032 0.0
C1215 C 0.29974 0.41021 0.55811 0.0
C1216 C 0.32342 0.40397 0.58051 0.0
C1217 C 0.34065 0.42839 0.59174 0.0
C1218 C 0.36326 0.42233 0.61245 0.0
C1219 C 0.36867 0.39193 0.6223 0.0
C1220 C 0.35143 0.36752 0.61153 0.0
C1221 C 0.32883 0.37346 0.59076 0.0
H1222 H 0.38618 0.38728 0.63834 0.0
H1223 H 0.16703 0.44353 0.4362 0.0
H1224 H 0.83082 0.80485 0.84446 0.0
H1225 H 0.85464 0.75841 0.86423 0.0
H1226 H 0.91979 0.815 0.90879 0.0
H1227 H 0.89495 0.86106 0.88994 0.0
H1228 H 0.90136 0.73177 0.86313 0.0
H1229 H 0.94422 0.77848 0.9738 0.0
H1230 H 0.93151 0.8165 1.00712 0.0
H1231 H 0.84225 0.80857 0.97561 0.0
H1232 H 0.8543 0.77012 0.94254 0.0
H1233 H 0.99284 0.62144 0.93378 0.0
H1234 H 0.9721 0.66827 0.91134 0.0
H1235 H 0.91256 0.66325 0.98467 0.0
H1236 H 0.93452 0.61707 1.00804 0.0
H1237 H 0.92548 0.71943 0.97162 0.0
H1238 H 0.8932 0.6427 0.90831 0.0
H1239 H 0.89747 0.60096 0.8763 0.0
H1240 H 0.95124 0.66231 0.81565 0.0
H1241 H 0.9476 0.70434 0.84751 0.0
C1242 C 0.85078 0.80736 0.85769 0.0
C1243 C 0.86138 0.83679 0.86497 0.0
C1244 C 0.86436 0.78069 0.86932 0.0
C1245 C 0.88896 0.78253 0.88879 0.0
C1246 C 0.90053 0.8123 0.89457 0.0
C1247 C 0.88668 0.83888 0.88326 0.0
C1248 C 0.90155 0.75349 0.90387 0.0
C1249 C 0.90674 0.72931 0.88684 0.0
C1250 C 0.90787 0.74907 0.93513 0.0
C1251 C 0.90027 0.77166 0.95546 0.0
C1252 C 0.92186 0.78473 0.97411 0.0
C1253 C 0.91476 0.80636 0.99294 0.0
C1254 C 0.88611 0.81501 0.99341 0.0
C1255 C 0.86445 0.80191 0.97518 0.0
C1256 C 0.8714 0.78019 0.9564 0.0
C1257 C 0.97533 0.63022 0.94526 0.0
C1258 C 0.96539 0.61501 0.97282 0.0
C1259 C 0.96316 0.65713 0.93215 0.0
C1260 C 0.93993 0.66956 0.94558 0.0
C1261 C 0.93027 0.6546 0.97341 0.0
C1262 C 0.94285 0.62791 0.98685 0.0
C1263 C 0.92598 0.69795 0.93074 0.0
C1264 C 0.92037 0.72196 0.94786 0.0
C1265 C 0.91821 0.7017 0.89976 0.0
C1266 C 0.92035 0.67658 0.88045 0.0
C1267 C 0.90608 0.64724 0.88824 0.0
C1268 C 0.90838 0.62353 0.87011 0.0
C1269 C 0.92468 0.62896 0.844 0.0
C1270 C 0.93866 0.65813 0.8359 0.0
C1271 C 0.93646 0.68191 0.85397 0.0
H1272 H 0.92644 0.61058 0.83 0.0
H1273 H 0.88069 0.83182 1.00795 0.0
H1274 H 0.34356 0.76478 0.18286 0.0
H1275 H 0.37902 0.80961 0.17439 0.0
H1276 H 0.44635 0.74954 0.16018 0.0
H1277 H 0.41033 0.7048 0.16751 0.0
H1278 H 0.43104 0.8344 0.19199 0.0
H1279 H 0.48221 0.77954 0.09784 0.0
H1280 H 0.47112 0.73702 0.06632 0.0
H1281 H 0.37905 0.74594 0.07361 0.0
H1282 H 0.38965 0.78873 0.10483 0.0
H1283 H 0.52415 0.95548 0.11444 0.0
H1284 H 0.50776 0.90549 0.14106 0.0
H1285 H 0.4402 0.89293 0.07381 0.0
H1286 H 0.45686 0.94216 0.04682 0.0
H1287 H 0.46442 0.84144 0.08722 0.0
H1288 H 0.42671 0.91811 0.14279 0.0
H1289 H 0.431 0.96316 0.17169 0.0
H1290 H 0.48525 0.91527 0.23729 0.0
H1291 H 0.48156 0.87005 0.20854 0.0
C1292 C 0.36613 0.76128 0.17863 0.0
C1293 C 0.37427 0.73173 0.1751 0.0
C1294 C 0.38642 0.78677 0.17404 0.0
C1295 C 0.41518 0.78296 0.16602 0.0
C1296 C 0.42414 0.75301 0.1659 0.0
C1297 C 0.40369 0.7275 0.17022 0.0
C1298 C 0.4337 0.8102 0.153 0.0
C1299 C 0.43882 0.83581 0.16927 0.0
C1300 C 0.44332 0.81227 0.12314 0.0
C1301 C 0.43673 0.78699 0.10394 0.0
C1302 C 0.45963 0.77244 0.09262 0.0
C1303 C 0.45342 0.74832 0.07483 0.0
C1304 C 0.4244 0.73871 0.06807 0.0
C1305 C 0.40151 0.75332 0.07895 0.0
C1306 C 0.4076 0.7775 0.09669 0.0
C1307 C 0.50588 0.94195 0.1053 0.0
C1308 C 0.49176 0.95278 0.07855 0.0
C1309 C 0.49651 0.91345 0.12057 0.0
C1310 C 0.47262 0.89555 0.10954 0.0
C1311 C 0.45878 0.90624 0.08267 0.0
C1312 C 0.46827 0.93448 0.06731 0.0
C1313 C 0.46129 0.86596 0.12597 0.0
C1314 C 0.45753 0.83984 0.11028 0.0
C1315 C 0.45209 0.86383 0.15599 0.0
C1316 C 0.45416 0.89089 0.17336 0.0
C1317 C 0.43972 0.91729 0.16327 0.0
C1318 C 0.44202 0.94283 0.17964 0.0
C1319 C 0.45847 0.94212 0.20626 0.0
C1320 C 0.47257 0.91581 0.21663 0.0
C1321 C 0.47038 0.89022 0.20032 0.0
H1322 H 0.46023 0.96192 0.2189 0.0
H1323 H 0.41964 0.71999 0.05434 0.0
H1324 H 0.10044 0.35656 0.5642 0.0
H1325 H 0.08138 0.31214 0.53797 0.0
H1326 H 0.11675 0.25046 0.6086 0.0
H1327 H 0.13546 0.29475 0.6345 0.0
H1328 H 0.12294 0.23089 0.55294 0.0
H1329 H 0.04802 0.26821 0.61141 0.0
H1330 H 0.01687 0.30783 0.62479 0.0
H1331 H 0.98039 0.31618 0.53565 0.0
H1332 H 1.0117 0.27688 0.52163 0.0
H1333 H 0.04612 0.09147 0.57687 0.0
H1334 H 0.05985 0.14526 0.58361 0.0
H1335 H 0.01854 0.17363 0.49906 0.0
H1336 H 1.00429 0.11923 0.49227 0.0
H1337 H 0.01445 0.21465 0.54851 0.0
H1338 H 0.08463 0.16867 0.49379 0.0
H1339 H 0.11414 0.12617 0.48434 0.0
H1340 H 0.15917 0.13279 0.56859 0.0
H1341 H 0.12953 0.17494 0.57882 0.0
C1342 C 0.10465 0.33345 0.57348 0.0
C1343 C 0.1192 0.32868 0.60118 0.0
C1344 C 0.09371 0.3082 0.55871 0.0
C1345 C 0.09743 0.27801 0.57152 0.0
C1346 C 0.11367 0.27352 0.59829 0.0
C1347 C 0.12429 0.29867 0.61309 0.0
C1348 C 0.08237 0.25085 0.55896 0.0
C1349 C 0.09925 0.22747 0.5517 0.0
C1350 C 0.05143 0.24658 0.55687 0.0
C1351 C 0.03244 0.26993 0.56537 0.0
C1352 C 0.03351 0.27867 0.59461 0.0
C1353 C 0.01582 0.30104 0.60231 0.0
C1354 C 0.99673 0.31458 0.58105 0.0
C1355 C 0.99524 0.30571 0.55207 0.0
C1356 C 0.01295 0.2834 0.54423 0.0
C1357 C 0.03916 0.10917 0.56011 0.0
C1358 C 0.02439 0.10127 0.53393 0.0
C1359 C 0.04707 0.13987 0.56396 0.0
C1360 C 0.04071 0.16326 0.54155 0.0
C1361 C 0.0237 0.15578 0.51652 0.0
C1362 C 0.0155 0.12481 0.51273 0.0
C1363 C 0.05507 0.19458 0.54323 0.0
C1364 C 0.03813 0.21857 0.54863 0.0
C1365 C 0.08599 0.19943 0.54371 0.0
C1366 C 0.10477 0.17494 0.5371 0.0
C1367 C 0.10076 0.16101 0.51034 0.0
C1368 C 0.1175 0.13697 0.50485 0.0
C1369 C 0.13853 0.12681 0.52584 0.0
C1370 C 0.14291 0.14073 0.55233 0.0
C1371 C 0.12617 0.16474 0.55796 0.0
H1372 H 0.15142 0.10815 0.52158 0.0
H1373 H 0.98304 0.33189 0.58706 0.0
H1374 H 0.5965 0.2093 0.47023 0.0
H1375 H 0.58222 0.26142 0.47526 0.0
H1376 H 0.66433 0.30026 0.4375 0.0
H1377 H 0.67806 0.24844 0.4316 0.0
H1378 H 0.64524 0.33036 0.48644 0.0
H1379 H 0.61089 0.29759 0.39154 0.0
H1380 H 0.58523 0.26168 0.35906 0.0
H1381 H 0.50496 0.2671 0.40463 0.0
H1382 H 0.53021 0.30294 0.43751 0.0
H1383 H 0.59881 0.48141 0.45379 0.0
H1384 H 0.61921 0.43305 0.44533 0.0
H1385 H 0.53624 0.38307 0.46777 0.0
H1386 H 0.5156 0.4309 0.47525 0.0
H1387 H 0.5593 0.35985 0.42363 0.0
H1388 H 0.5933 0.39223 0.51916 0.0
H1389 H 0.61896 0.42732 0.55245 0.0
H1390 H 0.69968 0.42107 0.5079 0.0
H1391 H 0.67435 0.38674 0.47387 0.0
C1392 C 0.61158 0.22905 0.46362 0.0
C1393 C 0.63833 0.22511 0.45071 0.0
C1394 C 0.6035 0.25863 0.46644 0.0
C1395 C 0.62221 0.28449 0.45649 0.0
C1396 C 0.64974 0.2805 0.44541 0.0
C1397 C 0.65765 0.25098 0.44229 0.0
C1398 C 0.61207 0.31566 0.45514 0.0
C1399 C 0.62666 0.33705 0.47251 0.0
C1400 C 0.58777 0.32403 0.43702 0.0
C1401 C 0.57249 0.30272 0.41713 0.0
C1402 C 0.58781 0.29098 0.39474 0.0
C1403 C 0.57333 0.27071 0.37622 0.0
C1404 C 0.54351 0.26203 0.37985 0.0
C1405 C 0.52807 0.27379 0.40188 0.0
C1406 C 0.54243 0.29415 0.42041 0.0
C1407 C 0.58483 0.46015 0.45633 0.0
C1408 C 0.55572 0.45989 0.46548 0.0
C1409 C 0.59653 0.43257 0.45169 0.0
C1410 C 0.57936 0.40446 0.45652 0.0
C1411 C 0.5499 0.40448 0.46403 0.0
C1412 C 0.53817 0.4319 0.4684 0.0
C1413 C 0.59205 0.37465 0.45548 0.0
C1414 C 0.57799 0.3534 0.43751 0.0
C1415 C 0.61673 0.3664 0.47324 0.0
C1416 C 0.63185 0.38724 0.4937 0.0
C1417 C 0.61645 0.39865 0.51625 0.0
C1418 C 0.63094 0.41843 0.53526 0.0
C1419 C 0.66091 0.42662 0.5322 0.0
C1420 C 0.67644 0.41498 0.51016 0.0
C1421 C 0.66202 0.39538 0.49097 0.0
H1422 H 0.67211 0.44187 0.54698 0.0
H1423 H 0.53236 0.24626 0.36554 0.0
loop_
_geom_bond_atom_site_label_1
_geom_bond_atom_site_label_2
_geom_bond_distance
_geom_bond_site_symmetry_2
_ccdc_geom_bond_type
C0 N1 1.317 . S
C0 N2 1.348 . S
C0 C3 1.485 . S
N1 C0 1.317 . S
N1 N5 1.370 . S
N2 C0 1.348 . S
N2 C4 1.346 . S
C3 C0 1.485 . S
C3 H7 0.960 . S
C3 H8 0.961 . S
C3 H9 0.960 . S
C4 N2 1.346 . S
C4 N5 1.307 . S
C4 C6 1.486 . S
N5 N1 1.370 . S
N5 C4 1.307 . S
C6 C4 1.486 . S
C6 H10 0.960 . S
C6 H11 0.960 . S
C6 H12 0.959 . S
H7 C3 0.960 . S
H8 C3 0.961 . S
H9 C3 0.960 . S
H10 C6 0.960 . S
H11 C6 0.960 . S
H12 C6 0.959 . S
C13 N14 1.317 . S
C13 N15 1.348 . S
C13 C16 1.485 . S
N14 C13 1.317 . S
N14 N18 1.370 . S
N15 C13 1.348 . S
N15 C17 1.346 . S
C16 C13 1.485 . S
C16 H20 0.960 . S
C16 H21 0.961 . S
C16 H22 0.960 . S
C17 N15 1.346 . S
C17 N18 1.307 . S
C17 C19 1.486 . S
N18 N14 1.370 . S
N18 C17 1.307 . S
C19 C17 1.486 . S
C19 H23 0.960 . S
C19 H24 0.960 . S
C19 H25 0.959 . S
H20 C16 0.960 . S
H21 C16 0.961 . S
H22 C16 0.960 . S
H23 C19 0.960 . S
H24 C19 0.960 . S
H25 C19 0.959 . S
C26 N27 1.317 . S
C26 N28 1.348 . S
C26 C29 1.485 . S
N27 C26 1.317 . S
N27 N31 1.370 . S
N28 C26 1.348 . S
N28 C30 1.346 . S
C29 C26 1.485 . S
C29 H33 0.960 . S
C29 H34 0.961 . S
C29 H35 0.960 . S
C30 N28 1.346 . S
C30 N31 1.307 . S
C30 C32 1.486 . S
N31 N27 1.370 . S
N31 C30 1.307 . S
C32 C30 1.486 . S
C32 H36 0.960 . S
C32 H37 0.960 . S
C32 H38 0.959 . S
H33 C29 0.960 . S
H34 C29 0.961 . S
H35 C29 0.960 . S
H36 C32 0.960 . S
H37 C32 0.960 . S
H38 C32 0.959 . S
C39 N40 1.317 . S
C39 N41 1.348 . S
C39 C42 1.485 . S
N40 C39 1.317 . S
N40 N44 1.370 . S
N41 C39 1.348 . S
N41 C43 1.346 . S
C42 C39 1.485 . S
C42 H46 0.960 . S
C42 H47 0.961 . S
C42 H48 0.960 . S
C43 N41 1.346 . S
C43 N44 1.307 . S
C43 C45 1.486 . S
N44 N40 1.370 . S
N44 C43 1.307 . S
C45 C43 1.486 . S
C45 H49 0.960 . S
C45 H50 0.960 . S
C45 H51 0.959 . S
H46 C42 0.960 . S
H47 C42 0.961 . S
H48 C42 0.960 . S
H49 C45 0.960 . S
H50 C45 0.960 . S
H51 C45 0.959 . S
C52 N53 1.317 . S
C52 N54 1.348 . S
C52 C55 1.485 . S
N53 C52 1.317 . S
N53 N57 1.370 . S
N54 C52 1.348 . S
N54 C56 1.346 . S
C55 C52 1.485 . S
C55 H59 0.960 . S
C55 H60 0.961 . S
C55 H61 0.960 . S
C56 N54 1.346 . S
C56 N57 1.307 . S
C56 C58 1.486 . S
N57 N53 1.370 . S
N57 C56 1.307 . S
C58 C56 1.486 . S
C58 H62 0.960 . S
C58 H63 0.960 . S
C58 H64 0.959 . S
H59 C55 0.960 . S
H60 C55 0.961 . S
H61 C55 0.960 . S
H62 C58 0.960 . S
H63 C58 0.960 . S
H64 C58 0.959 . S
C65 N66 1.317 . S
C65 N67 1.348 . S
C65 C68 1.485 . S
N66 C65 1.317 . S
N66 N70 1.370 . S
N67 C65 1.348 . S
N67 C69 1.346 . S
C68 C65 1.485 . S
C68 H72 0.960 . S
C68 H73 0.961 . S
C68 H74 0.960 . S
C69 N67 1.346 . S
C69 N70 1.307 . S
C69 C71 1.486 . S
N70 N66 1.370 . S
N70 C69 1.307 . S
C71 C69 1.486 . S
C71 H75 0.960 . S
C71 H76 0.960 . S
C71 H77 0.959 . S
H72 C68 0.960 . S
H73 C68 0.961 . S
H74 C68 0.960 . S
H75 C71 0.960 . S
H76 C71 0.960 . S
H77 C71 0.959 . S
C78 N79 1.317 . S
C78 N80 1.348 . S
C78 C81 1.485 . S
N79 C78 1.317 . S
N79 N83 1.370 . S
N80 C78 1.348 . S
N80 C82 1.346 . S
C81 C78 1.485 . S
C81 H85 0.960 . S
C81 H86 0.961 . S
C81 H87 0.960 . S
C82 N80 1.346 . S
C82 N83 1.307 . S
C82 C84 1.486 . S
N83 N79 1.370 . S
N83 C82 1.307 . S
C84 C82 1.486 . S
C84 H88 0.960 . S
C84 H89 0.960 . S
C84 H90 0.959 . S
H85 C81 0.960 . S
H86 C81 0.961 . S
H87 C81 0.960 . S
H88 C84 0.960 . S
H89 C84 0.960 . S
H90 C84 0.959 . S
C91 N92 1.317 . S
C91 N93 1.348 . S
C91 C94 1.485 . S
N92 C91 1.317 . S
N92 N96 1.370 . S
N93 C91 1.348 . S
N93 C95 1.346 . S
C94 C91 1.485 . S
C94 H98 0.960 . S
C94 H99 0.961 . S
C94 H100 0.960 . S
C95 N93 1.346 . S
C95 N96 1.307 . S
C95 C97 1.486 . S
N96 N92 1.370 . S
N96 C95 1.307 . S
C97 C95 1.486 . S
C97 H101 0.960 . S
C97 H102 0.960 . S
C97 H103 0.959 . S
H98 C94 0.960 . S
H99 C94 0.961 . S
H100 C94 0.960 . S
H101 C97 0.960 . S
H102 C97 0.960 . S
H103 C97 0.959 . S
Co104 N109 2.057 1_455 S
Co104 O121 2.021 . S
Co104 O124 2.062 . S
Co104 O128 2.117 1_545 S
Co104 O129 2.020 . S
C105 O125 1.259 . S
C105 O128 1.258 . S
Co106 N115 2.057 1_545 S
Co106 O122 2.117 . S
Co106 O123 2.020 . S
Co106 O125 2.021 1_545 S
Co106 O130 2.062 1_545 S
C107 N109 1.316 . S
C107 N110 1.347 . S
C107 H112 0.931 . S
C108 N109 1.375 . S
C108 C111 1.350 . S
C108 H113 0.930 1_545 S
N109 Co104 2.057 1_655 S
N109 C107 1.316 . S
N109 C108 1.375 . S
N110 C107 1.347 . S
N110 C111 1.373 . S
C111 C108 1.350 . S
C111 N110 1.373 . S
C111 H132 0.931 . S
H112 C107 0.931 . S
H113 C108 0.930 1_565 S
C114 O121 1.259 . S
C114 O122 1.258 . S
N115 Co106 2.057 1_565 S
N115 C116 1.316 . S
N115 C117 1.375 1_565 S
C116 N115 1.316 . S
C116 N118 1.347 . S
C116 H127 0.931 . S
C117 N115 1.375 1_545 S
C117 C119 1.350 . S
C117 H126 0.930 . S
N118 C116 1.347 . S
N118 C119 1.373 1_565 S
C119 C117 1.350 . S
C119 N118 1.373 1_545 S
C119 H133 0.931 . S
C120 O123 1.256 . S
C120 O124 1.255 . S
O121 Co104 2.021 . S
O121 C114 1.259 . S
O122 Co106 2.117 . S
O122 C114 1.258 . S
O123 Co106 2.020 . S
O123 C120 1.256 . S
O124 Co104 2.062 . S
O124 C120 1.255 . S
O125 C105 1.259 . S
O125 Co106 2.021 1_565 S
H126 C117 0.930 . S
H127 C116 0.931 . S
O128 Co104 2.117 1_565 S
O128 C105 1.258 . S
O129 Co104 2.020 . S
O129 C131 1.256 1_545 S
O130 Co106 2.062 1_565 S
O130 C131 1.255 . S
C131 O129 1.256 1_565 S
C131 O130 1.255 . S
H132 C111 0.931 . S
H133 C119 0.931 . S
Co134 N139 2.057 1_545 S
Co134 O151 2.021 . S
Co134 O154 2.062 . S
Co134 O158 2.117 1_546 S
Co134 O159 2.020 1_556 S
C135 O155 1.259 . S
C135 O158 1.258 . S
Co136 N145 2.057 . S
Co136 O152 2.117 . S
Co136 O153 2.020 . S
Co136 O155 2.021 1_545 S
Co136 O160 2.062 . S
C137 N139 1.316 1_545 S
C137 N140 1.347 1_545 S
C137 H142 0.931 . S
C138 N139 1.375 . S
C138 C141 1.350 . S
C138 H143 0.930 . S
N139 Co134 2.057 1_565 S
N139 C137 1.316 1_565 S
N139 C138 1.375 . S
N140 C137 1.347 1_565 S
N140 C141 1.373 . S
C141 C138 1.350 . S
C141 N140 1.373 . S
C141 H162 0.931 . S
H142 C137 0.931 . S
H143 C138 0.930 . S
C144 O151 1.259 1_554 S
C144 O152 1.258 . S
N145 Co136 2.057 . S
N145 C146 1.316 . S
N145 C147 1.375 . S
C146 N145 1.316 . S
C146 N148 1.347 . S
C146 H157 0.931 . S
C147 N145 1.375 . S
C147 C149 1.350 . S
C147 H156 0.930 . S
N148 C146 1.347 . S
N148 C149 1.373 . S
C149 C147 1.350 . S
C149 N148 1.373 . S
C149 H163 0.931 . S
C150 O153 1.256 . S
C150 O154 1.255 1_554 S
O151 Co134 2.021 . S
O151 C144 1.259 1_556 S
O152 Co136 2.117 . S
O152 C144 1.258 . S
O153 Co136 2.020 . S
O153 C150 1.256 . S
O154 Co134 2.062 . S
O154 C150 1.255 1_556 S
O155 C135 1.259 . S
O155 Co136 2.021 1_565 S
H156 C147 0.930 . S
H157 C146 0.931 . S
O158 Co134 2.117 1_564 S
O158 C135 1.258 . S
O159 Co134 2.020 1_554 S
O159 C161 1.256 . S
O160 Co136 2.062 . S
O160 C161 1.255 . S
C161 O159 1.256 . S
C161 O160 1.255 . S
H162 C141 0.931 . S
H163 C149 0.931 . S
Co164 N169 2.057 . S
Co164 O181 2.021 . S
Co164 O184 2.062 . S
Co164 O188 2.117 . S
Co164 O189 2.020 . S
C165 O185 1.259 . S
C165 O188 1.258 . S
Co166 N175 2.057 . S
Co166 O182 2.117 . S
Co166 O183 2.020 . S
Co166 O185 2.021 . S
Co166 O190 2.062 . S
C167 N169 1.316 . S
C167 N170 1.347 . S
C167 H172 0.931 . S
C168 N169 1.375 . S
C168 C171 1.350 . S
C168 H173 0.930 . S
N169 Co164 2.057 . S
N169 C167 1.316 . S
N169 C168 1.375 . S
N170 C167 1.347 . S
N170 C171 1.373 . S
C171 C168 1.350 . S
C171 N170 1.373 . S
C171 H192 0.931 . S
H172 C167 0.931 . S
H173 C168 0.930 . S
C174 O181 1.259 . S
C174 O182 1.258 . S
N175 Co166 2.057 . S
N175 C176 1.316 . S
N175 C177 1.375 . S
C176 N175 1.316 . S
C176 N178 1.347 . S
C176 H187 0.931 . S
C177 N175 1.375 . S
C177 C179 1.350 . S
C177 H186 0.930 . S
N178 C176 1.347 . S
N178 C179 1.373 . S
C179 C177 1.350 . S
C179 N178 1.373 . S
C179 H193 0.931 . S
C180 O183 1.256 . S
C180 O184 1.255 . S
O181 Co164 2.021 . S
O181 C174 1.259 . S
O182 Co166 2.117 . S
O182 C174 1.258 . S
O183 Co166 2.020 . S
O183 C180 1.256 . S
O184 Co164 2.062 . S
O184 C180 1.255 . S
O185 C165 1.259 . S
O185 Co166 2.021 . S
H186 C177 0.930 . S
H187 C176 0.931 . S
O188 Co164 2.117 . S
O188 C165 1.258 . S
O189 Co164 2.020 . S
O189 C191 1.256 . S
O190 Co166 2.062 . S
O190 C191 1.255 . S
C191 O189 1.256 . S
C191 O190 1.255 . S
H192 C171 0.931 . S
H193 C179 0.931 . S
Co194 N199 2.057 . S
Co194 O211 2.021 . S
Co194 O214 2.062 . S
Co194 O218 2.117 1_455 S
Co194 O219 2.020 1_455 S
C195 O215 1.259 1_556 S
C195 O218 1.258 . S
Co196 N205 2.057 . S
Co196 O212 2.117 1_655 S
Co196 O213 2.020 1_655 S
Co196 O215 2.021 . S
Co196 O220 2.062 . S
C197 N199 1.316 . S
C197 N200 1.347 . S
C197 H202 0.931 . S
C198 N199 1.375 1_655 S
C198 C201 1.350 1_655 S
C198 H203 0.930 . S
N199 Co194 2.057 . S
N199 C197 1.316 . S
N199 C198 1.375 1_455 S
N200 C197 1.347 . S
N200 C201 1.373 . S
C201 C198 1.350 1_455 S
C201 N200 1.373 . S
C201 H222 0.931 1_455 S
H202 C197 0.931 . S
H203 C198 0.930 . S
C204 O211 1.259 1_554 S
C204 O212 1.258 . S
N205 Co196 2.057 . S
N205 C206 1.316 . S
N205 C207 1.375 1_655 S
C206 N205 1.316 . S
C206 N208 1.347 . S
C206 H217 0.931 . S
C207 N205 1.375 1_455 S
C207 C209 1.350 1_455 S
C207 H216 0.930 . S
N208 C206 1.347 . S
N208 C209 1.373 . S
C209 C207 1.350 1_655 S
C209 N208 1.373 . S
C209 H223 0.931 1_655 S
C210 O213 1.256 . S
C210 O214 1.255 1_554 S
O211 Co194 2.021 . S
O211 C204 1.259 1_556 S
O212 Co196 2.117 1_455 S
O212 C204 1.258 . S
O213 Co196 2.020 1_455 S
O213 C210 1.256 . S
O214 Co194 2.062 . S
O214 C210 1.255 1_556 S
O215 C195 1.259 1_554 S
O215 Co196 2.021 . S
H216 C207 0.930 . S
H217 C206 0.931 . S
O218 Co194 2.117 1_655 S
O218 C195 1.258 . S
O219 Co194 2.020 1_655 S
O219 C221 1.256 . S
O220 Co196 2.062 . S
O220 C221 1.255 1_554 S
C221 O219 1.256 . S
C221 O220 1.255 1_556 S
H222 C201 0.931 1_655 S
H223 C209 0.931 1_455 S
H224 C242 0.951 . S
H225 C244 0.951 . S
H226 C246 0.950 . S
H227 C247 0.950 . S
H228 C249 0.950 . S
H229 C252 0.950 . S
H230 C253 0.950 . S
H231 C255 0.950 . S
H232 C256 0.950 . S
H233 C257 0.951 . S
H234 C259 0.951 . S
H235 C261 0.950 . S
H236 C262 0.950 . S
H237 C264 0.950 . S
H238 C267 0.950 . S
H239 C268 0.950 . S
H240 C270 0.950 . S
H241 C271 0.950 . S
C242 H224 0.951 . S
C242 C243 1.366 . S
C242 C244 1.388 . S
C243 C242 1.366 . S
C243 C247 1.385 . S
C244 H225 0.951 . S
C244 C242 1.388 . S
C244 C245 1.366 . S
C245 C244 1.366 . S
C245 C246 1.414 . S
C245 C248 1.499 . S
C246 H226 0.950 . S
C246 C245 1.414 . S
C246 C247 1.374 . S
C247 H227 0.950 . S
C247 C243 1.385 . S
C247 C246 1.374 . S
C248 C245 1.499 . S
C248 C249 1.373 . S
C248 C250 1.389 . S
C249 H228 0.950 . S
C249 C248 1.373 . S
C249 C265 1.377 . S
C250 C248 1.389 . S
C250 C251 1.524 . S
C250 C264 1.377 . S
C251 C250 1.524 . S
C251 C252 1.397 . S
C251 C256 1.363 . S
C252 H229 0.950 . S
C252 C251 1.397 . S
C252 C253 1.334 . S
C253 H230 0.950 . S
C253 C252 1.334 . S
C253 C254 1.287 . S
C254 C253 1.287 . S
C254 C255 1.524 . S
C254 H273 0.913 . S
C255 H231 0.950 . S
C255 C254 1.524 . S
C255 C256 1.415 . S
C256 H232 0.950 . S
C256 C251 1.363 . S
C256 C255 1.415 . S
C257 H233 0.951 . S
C257 C258 1.366 . S
C257 C259 1.388 . S
C258 C257 1.366 . S
C258 C262 1.385 . S
C259 H234 0.951 . S
C259 C257 1.388 . S
C259 C260 1.366 . S
C260 C259 1.366 . S
C260 C261 1.414 . S
C260 C263 1.499 . S
C261 H235 0.950 . S
C261 C260 1.414 . S
C261 C262 1.374 . S
C262 H236 0.950 . S
C262 C258 1.385 . S
C262 C261 1.374 . S
C263 C260 1.499 . S
C263 C264 1.373 . S
C263 C265 1.389 . S
C264 H237 0.950 . S
C264 C250 1.377 . S
C264 C263 1.373 . S
C265 C249 1.377 . S
C265 C263 1.389 . S
C265 C266 1.524 . S
C266 C265 1.524 . S
C266 C267 1.397 . S
C266 C271 1.363 . S
C267 H238 0.950 . S
C267 C266 1.397 . S
C267 C268 1.334 1_455 S
C268 H239 0.950 . S
C268 C267 1.334 1_655 S
C268 C269 1.287 . S
C269 C268 1.287 . S
C269 C270 1.524 . S
C269 H272 0.999 . S
C270 H240 0.950 . S
C270 C269 1.524 . S
C270 C271 1.415 1_655 S
C271 H241 0.950 . S
C271 C266 1.363 . S
C271 C270 1.415 1_455 S
H272 C269 0.999 . S
H273 C254 0.913 . S
H274 C292 0.951 . S
H275 C294 0.951 . S
H276 C296 0.950 . S
H277 C297 0.950 . S
H278 C299 0.950 . S
H279 C302 0.950 . S
H280 C303 0.950 . S
H281 C305 0.950 1_545 S
H282 C306 0.950 . S
H283 C307 0.951 . S
H284 C309 0.951 . S
H285 C311 0.950 1_545 S
H286 C312 0.950 1_545 S
H287 C314 0.950 . S
H288 C317 0.950 . S
H289 C318 0.950 . S
H290 C320 0.950 . S
H291 C321 0.950 . S
C292 H274 0.951 . S
C292 C293 1.366 . S
C292 C294 1.388 . S
C293 C292 1.366 . S
C293 C297 1.385 . S
C294 H275 0.951 . S
C294 C292 1.388 . S
C294 C295 1.366 . S
C295 C294 1.366 . S
C295 C296 1.414 . S
C295 C298 1.499 . S
C296 H276 0.950 . S
C296 C295 1.414 . S
C296 C297 1.374 . S
C297 H277 0.950 . S
C297 C293 1.385 . S
C297 C296 1.374 . S
C298 C295 1.499 . S
C298 C299 1.373 . S
C298 C300 1.389 . S
C299 H278 0.950 . S
C299 C298 1.373 . S
C299 C315 1.377 . S
C300 C298 1.389 . S
C300 C301 1.524 . S
C300 C314 1.377 . S
C301 C300 1.524 . S
C301 C302 1.397 . S
C301 C306 1.363 . S
C302 H279 0.950 . S
C302 C301 1.397 . S
C302 C303 1.334 . S
C303 H280 0.950 . S
C303 C302 1.334 . S
C303 C304 1.287 . S
C304 C303 1.287 . S
C304 C305 1.524 . S
C304 H323 0.913 . S
C305 H281 0.950 1_565 S
C305 C304 1.524 . S
C305 C306 1.415 . S
C306 H282 0.950 . S
C306 C301 1.363 . S
C306 C305 1.415 . S
C307 H283 0.951 . S
C307 C308 1.366 . S
C307 C309 1.388 . S
C308 C307 1.366 . S
C308 C312 1.385 . S
C309 H284 0.951 . S
C309 C307 1.388 . S
C309 C310 1.366 . S
C310 C309 1.366 . S
C310 C311 1.414 . S
C310 C313 1.499 . S
C311 H285 0.950 1_565 S
C311 C310 1.414 . S
C311 C312 1.374 . S
C312 H286 0.950 1_565 S
C312 C308 1.385 . S
C312 C311 1.374 . S
C313 C310 1.499 . S
C313 C314 1.373 . S
C313 C315 1.389 . S
C314 H287 0.950 . S
C314 C300 1.377 . S
C314 C313 1.373 . S
C315 C299 1.377 . S
C315 C313 1.389 . S
C315 C316 1.524 . S
C316 C315 1.524 . S
C316 C317 1.397 . S
C316 C321 1.363 . S
C317 H288 0.950 . S
C317 C316 1.397 . S
C317 C318 1.334 . S
C318 H289 0.950 . S
C318 C317 1.334 . S
C318 C319 1.287 . S
C319 C318 1.287 . S
C319 C320 1.524 . S
C319 H322 0.999 . S
C320 H290 0.950 . S
C320 C319 1.524 . S
C320 C321 1.415 . S
C321 H291 0.950 . S
C321 C316 1.363 . S
C321 C320 1.415 . S
H322 C319 0.999 . S
H323 C304 0.913 . S
H324 C342 0.951 . S
H325 C344 0.951 . S
H326 C346 0.950 . S
H327 C347 0.950 . S
H328 C349 0.950 . S
H329 C352 0.950 . S
H330 C353 0.950 . S
H331 C355 0.950 . S
H332 C356 0.950 . S
H333 C357 0.951 . S
H334 C359 0.951 . S
H335 C361 0.950 . S
H336 C362 0.950 . S
H337 C364 0.950 . S
H338 C367 0.950 . S
H339 C368 0.950 . S
H340 C370 0.950 . S
H341 C371 0.950 . S
C342 H324 0.951 . S
C342 C343 1.366 . S
C342 C344 1.388 . S
C343 C342 1.366 . S
C343 C347 1.385 . S
C344 H325 0.951 . S
C344 C342 1.388 . S
C344 C345 1.366 . S
C345 C344 1.366 . S
C345 C346 1.414 . S
C345 C348 1.499 . S
C346 H326 0.950 . S
C346 C345 1.414 . S
C346 C347 1.374 . S
C347 H327 0.950 . S
C347 C343 1.385 . S
C347 C346 1.374 . S
C348 C345 1.499 . S
C348 C349 1.373 . S
C348 C350 1.389 . S
C349 H328 0.950 . S
C349 C348 1.373 . S
C349 C365 1.377 . S
C350 C348 1.389 . S
C350 C351 1.524 . S
C350 C364 1.377 . S
C351 C350 1.524 . S
C351 C352 1.397 . S
C351 C356 1.363 . S
C352 H329 0.950 . S
C352 C351 1.397 . S
C352 C353 1.334 . S
C353 H330 0.950 . S
C353 C352 1.334 . S
C353 C354 1.287 . S
C354 C353 1.287 . S
C354 C355 1.524 . S
C354 H373 0.913 . S
C355 H331 0.950 . S
C355 C354 1.524 . S
C355 C356 1.415 . S
C356 H332 0.950 . S
C356 C351 1.363 . S
C356 C355 1.415 . S
C357 H333 0.951 . S
C357 C358 1.366 . S
C357 C359 1.388 . S
C358 C357 1.366 . S
C358 C362 1.385 . S
C359 H334 0.951 . S
C359 C357 1.388 . S
C359 C360 1.366 . S
C360 C359 1.366 . S
C360 C361 1.414 . S
C360 C363 1.499 . S
C361 H335 0.950 . S
C361 C360 1.414 . S
C361 C362 1.374 . S
C362 H336 0.950 . S
C362 C358 1.385 . S
C362 C361 1.374 . S
C363 C360 1.499 . S
C363 C364 1.373 . S
C363 C365 1.389 . S
C364 H337 0.950 . S
C364 C350 1.377 . S
C364 C363 1.373 . S
C365 C349 1.377 . S
C365 C363 1.389 . S
C365 C366 1.524 . S
C366 C365 1.524 . S
C366 C367 1.397 . S
C366 C371 1.363 . S
C367 H338 0.950 . S
C367 C366 1.397 . S
C367 C368 1.334 . S
C368 H339 0.950 . S
C368 C367 1.334 . S
C368 C369 1.287 . S
C369 C368 1.287 . S
C369 C370 1.524 . S
C369 H372 0.999 . S
C370 H340 0.950 . S
C370 C369 1.524 . S
C370 C371 1.415 . S
C371 H341 0.950 . S
C371 C366 1.363 . S
C371 C370 1.415 . S
H372 C369 0.999 . S
H373 C354 0.913 . S
H374 C392 0.951 . S
H375 C394 0.951 . S
H376 C396 0.950 . S
H377 C397 0.950 . S
H378 C399 0.950 . S
H379 C402 0.950 . S
H380 C403 0.950 . S
H381 C405 0.950 . S
H382 C406 0.950 . S
H383 C407 0.951 . S
H384 C409 0.951 . S
H385 C411 0.950 . S
H386 C412 0.950 . S
H387 C414 0.950 . S
H388 C417 0.950 . S
H389 C418 0.950 . S
H390 C420 0.950 . S
H391 C421 0.950 . S
C392 H374 0.951 . S
C392 C393 1.366 . S
C392 C394 1.388 . S
C393 C392 1.366 . S
C393 C397 1.385 . S
C394 H375 0.951 . S
C394 C392 1.388 . S
C394 C395 1.366 . S
C395 C394 1.366 . S
C395 C396 1.414 . S
C395 C398 1.499 . S
C396 H376 0.950 . S
C396 C395 1.414 . S
C396 C397 1.374 . S
C397 H377 0.950 . S
C397 C393 1.385 . S
C397 C396 1.374 . S
C398 C395 1.499 . S
C398 C399 1.373 . S
C398 C400 1.389 . S
C399 H378 0.950 . S
C399 C398 1.373 . S
C399 C415 1.377 . S
C400 C398 1.389 . S
C400 C401 1.524 . S
C400 C414 1.377 . S
C401 C400 1.524 . S
C401 C402 1.397 . S
C401 C406 1.363 . S
C402 H379 0.950 . S
C402 C401 1.397 . S
C402 C403 1.334 1_655 S
C403 H380 0.950 . S
C403 C402 1.334 1_455 S
C403 C404 1.287 . S
C404 C403 1.287 . S
C404 C405 1.524 1_455 S
C404 H423 0.913 . S
C405 H381 0.950 . S
C405 C404 1.524 1_655 S
C405 C406 1.415 . S
C406 H382 0.950 . S
C406 C401 1.363 . S
C406 C405 1.415 . S
C407 H383 0.951 . S
C407 C408 1.366 . S
C407 C409 1.388 . S
C408 C407 1.366 . S
C408 C412 1.385 . S
C409 H384 0.951 . S
C409 C407 1.388 . S
C409 C410 1.366 . S
C410 C409 1.366 . S
C410 C411 1.414 . S
C410 C413 1.499 . S
C411 H385 0.950 . S
C411 C410 1.414 . S
C411 C412 1.374 . S
C412 H386 0.950 . S
C412 C408 1.385 . S
C412 C411 1.374 . S
C413 C410 1.499 . S
C413 C414 1.373 . S
C413 C415 1.389 . S
C414 H387 0.950 . S
C414 C400 1.377 . S
C414 C413 1.373 . S
C415 C399 1.377 . S
C415 C413 1.389 . S
C415 C416 1.524 . S
C416 C415 1.524 . S
C416 C417 1.397 . S
C416 C421 1.363 . S
C417 H388 0.950 . S
C417 C416 1.397 . S
C417 C418 1.334 . S
C418 H389 0.950 . S
C418 C417 1.334 . S
C418 C419 1.287 . S
C419 C418 1.287 . S
C419 C420 1.524 . S
C419 H422 0.999 . S
C420 H390 0.950 . S
C420 C419 1.524 . S
C420 C421 1.415 . S
C421 H391 0.950 . S
C421 C416 1.363 . S
C421 C420 1.415 . S
H422 C419 0.999 . S
H423 C404 0.913 . S
H424 C442 0.951 . S
H425 C444 0.951 . S
H426 C446 0.950 . S
H427 C447 0.950 . S
H428 C449 0.950 . S
H429 C452 0.950 . S
H430 C453 0.950 . S
H431 C455 0.950 . S
H432 C456 0.950 . S
H433 C457 0.951 . S
H434 C459 0.951 . S
H435 C461 0.950 . S
H436 C462 0.950 . S
H437 C464 0.950 . S
H438 C467 0.950 . S
H439 C468 0.950 . S
H440 C470 0.950 . S
H441 C471 0.950 . S
C442 H424 0.951 . S
C442 C443 1.366 . S
C442 C444 1.388 . S
C443 C442 1.366 . S
C443 C447 1.385 . S
C444 H425 0.951 . S
C444 C442 1.388 . S
C444 C445 1.366 . S
C445 C444 1.366 . S
C445 C446 1.414 . S
C445 C448 1.499 . S
C446 H426 0.950 . S
C446 C445 1.414 . S
C446 C447 1.374 . S
C447 H427 0.950 . S
C447 C443 1.385 . S
C447 C446 1.374 . S
C448 C445 1.499 . S
C448 C449 1.373 . S
C448 C450 1.389 . S
C449 H428 0.950 . S
C449 C448 1.373 . S
C449 C465 1.377 . S
C450 C448 1.389 . S
C450 C451 1.524 . S
C450 C464 1.377 . S
C451 C450 1.524 . S
C451 C452 1.397 . S
C451 C456 1.363 . S
C452 H429 0.950 . S
C452 C451 1.397 . S
C452 C453 1.334 . S
C453 H430 0.950 . S
C453 C452 1.334 . S
C453 C454 1.287 . S
C454 C453 1.287 . S
C454 C455 1.524 . S
C454 H473 0.913 1_545 S
C455 H431 0.950 . S
C455 C454 1.524 . S
C455 C456 1.415 . S
C456 H432 0.950 . S
C456 C451 1.363 . S
C456 C455 1.415 . S
C457 H433 0.951 . S
C457 C458 1.366 . S
C457 C459 1.388 . S
C458 C457 1.366 . S
C458 C462 1.385 . S
C459 H434 0.951 . S
C459 C457 1.388 . S
C459 C460 1.366 . S
C460 C459 1.366 . S
C460 C461 1.414 . S
C460 C463 1.499 . S
C461 H435 0.950 . S
C461 C460 1.414 . S
C461 C462 1.374 . S
C462 H436 0.950 . S
C462 C458 1.385 . S
C462 C461 1.374 . S
C463 C460 1.499 . S
C463 C464 1.373 . S
C463 C465 1.389 . S
C464 H437 0.950 . S
C464 C450 1.377 . S
C464 C463 1.373 . S
C465 C449 1.377 . S
C465 C463 1.389 . S
C465 C466 1.524 . S
C466 C465 1.524 . S
C466 C467 1.397 . S
C466 C471 1.363 . S
C467 H438 0.950 . S
C467 C466 1.397 . S
C467 C468 1.334 . S
C468 H439 0.950 . S
C468 C467 1.334 . S
C468 C469 1.287 . S
C469 C468 1.287 . S
C469 C470 1.524 . S
C469 H472 0.999 . S
C470 H440 0.950 . S
C470 C469 1.524 . S
C470 C471 1.415 . S
C471 H441 0.950 . S
C471 C466 1.363 . S
C471 C470 1.415 . S
H472 C469 0.999 . S
H473 C454 0.913 1_565 S
H474 C492 0.951 . S
H475 C494 0.951 . S
H476 C496 0.950 . S
H477 C497 0.950 . S
H478 C499 0.950 . S
H479 C502 0.950 . S
H480 C503 0.950 . S
H481 C505 0.950 . S
H482 C506 0.950 . S
H483 C507 0.951 1_545 S
H484 C509 0.951 . S
H485 C511 0.950 . S
H486 C512 0.950 . S
H487 C514 0.950 . S
H488 C517 0.950 . S
H489 C518 0.950 . S
H490 C520 0.950 . S
H491 C521 0.950 . S
C492 H474 0.951 . S
C492 C493 1.366 . S
C492 C494 1.388 . S
C493 C492 1.366 . S
C493 C497 1.385 . S
C494 H475 0.951 . S
C494 C492 1.388 . S
C494 C495 1.366 . S
C495 C494 1.366 . S
C495 C496 1.414 . S
C495 C498 1.499 . S
C496 H476 0.950 . S
C496 C495 1.414 . S
C496 C497 1.374 . S
C497 H477 0.950 . S
C497 C493 1.385 . S
C497 C496 1.374 . S
C498 C495 1.499 . S
C498 C499 1.373 . S
C498 C500 1.389 . S
C499 H478 0.950 . S
C499 C498 1.373 . S
C499 C515 1.377 . S
C500 C498 1.389 . S
C500 C501 1.524 . S
C500 C514 1.377 . S
C501 C500 1.524 . S
C501 C502 1.397 . S
C501 C506 1.363 . S
C502 H479 0.950 . S
C502 C501 1.397 . S
C502 C503 1.334 . S
C503 H480 0.950 . S
C503 C502 1.334 . S
C503 C504 1.287 . S
C504 C503 1.287 . S
C504 C505 1.524 . S
C504 H523 0.913 . S
C505 H481 0.950 . S
C505 C504 1.524 . S
C505 C506 1.415 . S
C506 H482 0.950 . S
C506 C501 1.363 . S
C506 C505 1.415 . S
C507 H483 0.951 1_565 S
C507 C508 1.366 . S
C507 C509 1.388 . S
C508 C507 1.366 . S
C508 C512 1.385 . S
C509 H484 0.951 . S
C509 C507 1.388 . S
C509 C510 1.366 . S
C510 C509 1.366 . S
C510 C511 1.414 . S
C510 C513 1.499 . S
C511 H485 0.950 . S
C511 C510 1.414 . S
C511 C512 1.374 . S
C512 H486 0.950 . S
C512 C508 1.385 . S
C512 C511 1.374 . S
C513 C510 1.499 . S
C513 C514 1.373 . S
C513 C515 1.389 . S
C514 H487 0.950 . S
C514 C500 1.377 . S
C514 C513 1.373 . S
C515 C499 1.377 . S
C515 C513 1.389 . S
C515 C516 1.524 . S
C516 C515 1.524 . S
C516 C517 1.397 . S
C516 C521 1.363 . S
C517 H488 0.950 . S
C517 C516 1.397 . S
C517 C518 1.334 . S
C518 H489 0.950 . S
C518 C517 1.334 . S
C518 C519 1.287 . S
C519 C518 1.287 . S
C519 C520 1.524 . S
C519 H522 0.999 . S
C520 H490 0.950 . S
C520 C519 1.524 . S
C520 C521 1.415 . S
C521 H491 0.950 . S
C521 C516 1.363 . S
C521 C520 1.415 . S
H522 C519 0.999 . S
H523 C504 0.913 . S
H524 C542 0.951 . S
H525 C544 0.951 . S
H526 C546 0.950 . S
H527 C547 0.950 . S
H528 C549 0.950 . S
H529 C552 0.950 . S
H530 C553 0.950 . S
H531 C555 0.950 . S
H532 C556 0.950 . S
H533 C557 0.951 . S
H534 C559 0.951 . S
H535 C561 0.950 . S
H536 C562 0.950 1_554 S
H537 C564 0.950 . S
H538 C567 0.950 . S
H539 C568 0.950 . S
H540 C570 0.950 . S
H541 C571 0.950 . S
C542 H524 0.951 . S
C542 C543 1.366 . S
C542 C544 1.388 . S
C543 C542 1.366 . S
C543 C547 1.385 . S
C544 H525 0.951 . S
C544 C542 1.388 . S
C544 C545 1.366 . S
C545 C544 1.366 . S
C545 C546 1.414 . S
C545 C548 1.499 . S
C546 H526 0.950 . S
C546 C545 1.414 . S
C546 C547 1.374 . S
C547 H527 0.950 . S
C547 C543 1.385 . S
C547 C546 1.374 . S
C548 C545 1.499 . S
C548 C549 1.373 . S
C548 C550 1.389 . S
C549 H528 0.950 . S
C549 C548 1.373 . S
C549 C565 1.377 . S
C550 C548 1.389 . S
C550 C551 1.524 . S
C550 C564 1.377 . S
C551 C550 1.524 . S
C551 C552 1.397 . S
C551 C556 1.363 . S
C552 H529 0.950 . S
C552 C551 1.397 . S
C552 C553 1.334 . S
C553 H530 0.950 . S
C553 C552 1.334 . S
C553 C554 1.287 . S
C554 C553 1.287 . S
C554 C555 1.524 . S
C554 H573 0.913 . S
C555 H531 0.950 . S
C555 C554 1.524 . S
C555 C556 1.415 . S
C556 H532 0.950 . S
C556 C551 1.363 . S
C556 C555 1.415 . S
C557 H533 0.951 . S
C557 C558 1.366 . S
C557 C559 1.388 . S
C558 C557 1.366 . S
C558 C562 1.385 . S
C559 H534 0.951 . S
C559 C557 1.388 . S
C559 C560 1.366 . S
C560 C559 1.366 . S
C560 C561 1.414 . S
C560 C563 1.499 . S
C561 H535 0.950 . S
C561 C560 1.414 . S
C561 C562 1.374 . S
C562 H536 0.950 1_556 S
C562 C558 1.385 . S
C562 C561 1.374 . S
C563 C560 1.499 . S
C563 C564 1.373 . S
C563 C565 1.389 . S
C564 H537 0.950 . S
C564 C550 1.377 . S
C564 C563 1.373 . S
C565 C549 1.377 . S
C565 C563 1.389 . S
C565 C566 1.524 . S
C566 C565 1.524 . S
C566 C567 1.397 . S
C566 C571 1.363 . S
C567 H538 0.950 . S
C567 C566 1.397 . S
C567 C568 1.334 . S
C568 H539 0.950 . S
C568 C567 1.334 . S
C568 C569 1.287 . S
C569 C568 1.287 . S
C569 C570 1.524 . S
C569 H572 0.999 . S
C570 H540 0.950 . S
C570 C569 1.524 . S
C570 C571 1.415 . S
C571 H541 0.950 . S
C571 C566 1.363 . S
C571 C570 1.415 . S
H572 C569 0.999 . S
H573 C554 0.913 . S
H574 C592 0.951 . S
H575 C594 0.951 . S
H576 C596 0.950 . S
H577 C597 0.950 . S
H578 C599 0.950 . S
H579 C602 0.950 . S
H580 C603 0.950 . S
H581 C605 0.950 . S
H582 C606 0.950 . S
H583 C607 0.951 . S
H584 C609 0.951 . S
H585 C611 0.950 . S
H586 C612 0.950 . S
H587 C614 0.950 . S
H588 C617 0.950 . S
H589 C618 0.950 . S
H590 C620 0.950 . S
H591 C621 0.950 . S
C592 H574 0.951 . S
C592 C593 1.366 . S
C592 C594 1.388 . S
C593 C592 1.366 . S
C593 C597 1.385 . S
C594 H575 0.951 . S
C594 C592 1.388 . S
C594 C595 1.366 . S
C595 C594 1.366 . S
C595 C596 1.414 . S
C595 C598 1.499 . S
C596 H576 0.950 . S
C596 C595 1.414 . S
C596 C597 1.374 . S
C597 H577 0.950 . S
C597 C593 1.385 . S
C597 C596 1.374 . S
C598 C595 1.499 . S
C598 C599 1.373 . S
C598 C600 1.389 . S
C599 H578 0.950 . S
C599 C598 1.373 . S
C599 C615 1.377 . S
C600 C598 1.389 . S
C600 C601 1.524 . S
C600 C614 1.377 . S
C601 C600 1.524 . S
C601 C602 1.397 . S
C601 C606 1.363 . S
C602 H579 0.950 . S
C602 C601 1.397 . S
C602 C603 1.334 . S
C603 H580 0.950 . S
C603 C602 1.334 . S
C603 C604 1.287 . S
C604 C603 1.287 . S
C604 C605 1.524 . S
C604 H623 0.913 . S
C605 H581 0.950 . S
C605 C604 1.524 . S
C605 C606 1.415 . S
C606 H582 0.950 . S
C606 C601 1.363 . S
C606 C605 1.415 . S
C607 H583 0.951 . S
C607 C608 1.366 . S
C607 C609 1.388 . S
C608 C607 1.366 . S
C608 C612 1.385 . S
C609 H584 0.951 . S
C609 C607 1.388 . S
C609 C610 1.366 . S
C610 C609 1.366 . S
C610 C611 1.414 . S
C610 C613 1.499 . S
C611 H585 0.950 . S
C611 C610 1.414 . S
C611 C612 1.374 . S
C612 H586 0.950 . S
C612 C608 1.385 . S
C612 C611 1.374 . S
C613 C610 1.499 . S
C613 C614 1.373 . S
C613 C615 1.389 . S
C614 H587 0.950 . S
C614 C600 1.377 . S
C614 C613 1.373 . S
C615 C599 1.377 . S
C615 C613 1.389 . S
C615 C616 1.524 . S
C616 C615 1.524 . S
C616 C617 1.397 . S
C616 C621 1.363 . S
C617 H588 0.950 . S
C617 C616 1.397 . S
C617 C618 1.334 . S
C618 H589 0.950 . S
C618 C617 1.334 . S
C618 C619 1.287 . S
C619 C618 1.287 . S
C619 C620 1.524 . S
C619 H622 0.999 . S
C620 H590 0.950 . S
C620 C619 1.524 . S
C620 C621 1.415 . S
C621 H591 0.950 . S
C621 C616 1.363 . S
C621 C620 1.415 . S
H622 C619 0.999 . S
H623 C604 0.913 . S
H624 C642 0.951 . S
H625 C644 0.951 . S
H626 C646 0.950 . S
H627 C647 0.950 . S
H628 C649 0.950 . S
H629 C652 0.950 . S
H630 C653 0.950 . S
H631 C655 0.950 . S
H632 C656 0.950 . S
H633 C657 0.951 1_655 S
H634 C659 0.951 . S
H635 C661 0.950 . S
H636 C662 0.950 1_556 S
H637 C664 0.950 . S
H638 C667 0.950 1_556 S
H639 C668 0.950 . S
H640 C670 0.950 . S
H641 C671 0.950 . S
C642 H624 0.951 . S
C642 C643 1.366 . S
C642 C644 1.388 . S
C643 C642 1.366 . S
C643 C647 1.385 . S
C644 H625 0.951 . S
C644 C642 1.388 . S
C644 C645 1.366 . S
C645 C644 1.366 . S
C645 C646 1.414 . S
C645 C648 1.499 . S
C646 H626 0.950 . S
C646 C645 1.414 . S
C646 C647 1.374 . S
C647 H627 0.950 . S
C647 C643 1.385 . S
C647 C646 1.374 . S
C648 C645 1.499 . S
C648 C649 1.373 . S
C648 C650 1.389 . S
C649 H628 0.950 . S
C649 C648 1.373 . S
C649 C665 1.377 . S
C650 C648 1.389 . S
C650 C651 1.524 . S
C650 C664 1.377 . S
C651 C650 1.524 . S
C651 C652 1.397 . S
C651 C656 1.363 . S
C652 H629 0.950 . S
C652 C651 1.397 . S
C652 C653 1.334 . S
C653 H630 0.950 . S
C653 C652 1.334 . S
C653 C654 1.287 . S
C654 C653 1.287 . S
C654 C655 1.524 . S
C654 H673 0.913 . S
C655 H631 0.950 . S
C655 C654 1.524 . S
C655 C656 1.415 . S
C656 H632 0.950 . S
C656 C651 1.363 . S
C656 C655 1.415 . S
C657 H633 0.951 1_455 S
C657 C658 1.366 . S
C657 C659 1.388 . S
C658 C657 1.366 . S
C658 C662 1.385 . S
C659 H634 0.951 . S
C659 C657 1.388 . S
C659 C660 1.366 . S
C660 C659 1.366 . S
C660 C661 1.414 . S
C660 C663 1.499 . S
C661 H635 0.950 . S
C661 C660 1.414 . S
C661 C662 1.374 . S
C662 H636 0.950 1_554 S
C662 C658 1.385 . S
C662 C661 1.374 . S
C663 C660 1.499 . S
C663 C664 1.373 . S
C663 C665 1.389 . S
C664 H637 0.950 . S
C664 C650 1.377 . S
C664 C663 1.373 . S
C665 C649 1.377 . S
C665 C663 1.389 . S
C665 C666 1.524 . S
C666 C665 1.524 . S
C666 C667 1.397 . S
C666 C671 1.363 1_455 S
C667 H638 0.950 1_554 S
C667 C666 1.397 . S
C667 C668 1.334 1_454 S
C668 H639 0.950 . S
C668 C667 1.334 1_656 S
C668 C669 1.287 1_556 S
C669 C668 1.287 1_554 S
C669 C670 1.524 . S
C669 H672 0.999 . S
C670 H640 0.950 . S
C670 C669 1.524 . S
C670 C671 1.415 . S
C671 H641 0.950 . S
C671 C666 1.363 1_655 S
C671 C670 1.415 . S
H672 C669 0.999 . S
H673 C654 0.913 . S
H674 C692 0.951 . S
H675 C694 0.951 . S
H676 C696 0.950 . S
H677 C697 0.950 . S
H678 C699 0.950 . S
H679 C702 0.950 . S
H680 C703 0.950 . S
H681 C705 0.950 . S
H682 C706 0.950 . S
H683 C707 0.951 . S
H684 C709 0.951 1_554 S
H685 C711 0.950 . S
H686 C712 0.950 . S
H687 C714 0.950 . S
H688 C717 0.950 1_556 S
H689 C718 0.950 . S
H690 C720 0.950 . S
H691 C721 0.950 . S
C692 H674 0.951 . S
C692 C693 1.366 . S
C692 C694 1.388 . S
C693 C692 1.366 . S
C693 C697 1.385 . S
C694 H675 0.951 . S
C694 C692 1.388 . S
C694 C695 1.366 . S
C695 C694 1.366 . S
C695 C696 1.414 . S
C695 C698 1.499 . S
C696 H676 0.950 . S
C696 C695 1.414 . S
C696 C697 1.374 . S
C697 H677 0.950 . S
C697 C693 1.385 . S
C697 C696 1.374 . S
C698 C695 1.499 . S
C698 C699 1.373 . S
C698 C700 1.389 . S
C699 H678 0.950 . S
C699 C698 1.373 . S
C699 C715 1.377 . S
C700 C698 1.389 . S
C700 C701 1.524 . S
C700 C714 1.377 . S
C701 C700 1.524 . S
C701 C702 1.397 . S
C701 C706 1.363 . S
C702 H679 0.950 . S
C702 C701 1.397 . S
C702 C703 1.334 . S
C703 H680 0.950 . S
C703 C702 1.334 . S
C703 C704 1.287 . S
C704 C703 1.287 . S
C704 C705 1.524 . S
C704 H723 0.913 . S
C705 H681 0.950 . S
C705 C704 1.524 . S
C705 C706 1.415 . S
C706 H682 0.950 . S
C706 C701 1.363 . S
C706 C705 1.415 . S
C707 H683 0.951 . S
C707 C708 1.366 1_554 S
C707 C709 1.388 1_554 S
C708 C707 1.366 1_556 S
C708 C712 1.385 . S
C709 H684 0.951 1_556 S
C709 C707 1.388 1_556 S
C709 C710 1.366 . S
C710 C709 1.366 . S
C710 C711 1.414 . S
C710 C713 1.499 . S
C711 H685 0.950 . S
C711 C710 1.414 . S
C711 C712 1.374 . S
C712 H686 0.950 . S
C712 C708 1.385 . S
C712 C711 1.374 . S
C713 C710 1.499 . S
C713 C714 1.373 . S
C713 C715 1.389 . S
C714 H687 0.950 . S
C714 C700 1.377 . S
C714 C713 1.373 . S
C715 C699 1.377 . S
C715 C713 1.389 . S
C715 C716 1.524 1_556 S
C716 C715 1.524 1_554 S
C716 C717 1.397 . S
C716 C721 1.363 . S
C717 H688 0.950 1_554 S
C717 C716 1.397 . S
C717 C718 1.334 . S
C718 H689 0.950 . S
C718 C717 1.334 . S
C718 C719 1.287 . S
C719 C718 1.287 . S
C719 C720 1.524 . S
C719 H722 0.999 . S
C720 H690 0.950 . S
C720 C719 1.524 . S
C720 C721 1.415 . S
C721 H691 0.950 . S
C721 C716 1.363 . S
C721 C720 1.415 . S
H722 C719 0.999 . S
H723 C704 0.913 . S
H724 C742 0.951 . S
H725 C744 0.951 . S
H726 C746 0.950 . S
H727 C747 0.950 . S
H728 C749 0.950 . S
H729 C752 0.950 . S
H730 C753 0.950 . S
H731 C755 0.950 . S
H732 C756 0.950 . S
H733 C757 0.951 . S
H734 C759 0.951 . S
H735 C761 0.950 . S
H736 C762 0.950 . S
H737 C764 0.950 . S
H738 C767 0.950 1_655 S
H739 C768 0.950 . S
H740 C770 0.950 . S
H741 C771 0.950 . S
C742 H724 0.951 . S
C742 C743 1.366 . S
C742 C744 1.388 . S
C743 C742 1.366 . S
C743 C747 1.385 . S
C744 H725 0.951 . S
C744 C742 1.388 . S
C744 C745 1.366 . S
C745 C744 1.366 . S
C745 C746 1.414 . S
C745 C748 1.499 . S
C746 H726 0.950 . S
C746 C745 1.414 . S
C746 C747 1.374 . S
C747 H727 0.950 . S
C747 C743 1.385 . S
C747 C746 1.374 . S
C748 C745 1.499 . S
C748 C749 1.373 . S
C748 C750 1.389 . S
C749 H728 0.950 . S
C749 C748 1.373 . S
C749 C765 1.377 . S
C750 C748 1.389 . S
C750 C751 1.524 . S
C750 C764 1.377 . S
C751 C750 1.524 . S
C751 C752 1.397 . S
C751 C756 1.363 . S
C752 H729 0.950 . S
C752 C751 1.397 . S
C752 C753 1.334 . S
C753 H730 0.950 . S
C753 C752 1.334 . S
C753 C754 1.287 . S
C754 C753 1.287 . S
C754 C755 1.524 . S
C754 H773 0.913 . S
C755 H731 0.950 . S
C755 C754 1.524 . S
C755 C756 1.415 . S
C756 H732 0.950 . S
C756 C751 1.363 . S
C756 C755 1.415 . S
C757 H733 0.951 . S
C757 C758 1.366 . S
C757 C759 1.388 . S
C758 C757 1.366 . S
C758 C762 1.385 1_455 S
C759 H734 0.951 . S
C759 C757 1.388 . S
C759 C760 1.366 1_455 S
C760 C759 1.366 1_655 S
C760 C761 1.414 . S
C760 C763 1.499 . S
C761 H735 0.950 . S
C761 C760 1.414 . S
C761 C762 1.374 . S
C762 H736 0.950 . S
C762 C758 1.385 1_655 S
C762 C761 1.374 . S
C763 C760 1.499 . S
C763 C764 1.373 . S
C763 C765 1.389 . S
C764 H737 0.950 . S
C764 C750 1.377 . S
C764 C763 1.373 . S
C765 C749 1.377 . S
C765 C763 1.389 . S
C765 C766 1.524 1_655 S
C766 C765 1.524 1_455 S
C766 C767 1.397 . S
C766 C771 1.363 . S
C767 H738 0.950 1_455 S
C767 C766 1.397 . S
C767 C768 1.334 . S
C768 H739 0.950 . S
C768 C767 1.334 . S
C768 C769 1.287 . S
C769 C768 1.287 . S
C769 C770 1.524 . S
C769 H772 0.999 . S
C770 H740 0.950 . S
C770 C769 1.524 . S
C770 C771 1.415 . S
C771 H741 0.950 . S
C771 C766 1.363 . S
C771 C770 1.415 . S
H772 C769 0.999 . S
H773 C754 0.913 . S
H774 C792 0.951 . S
H775 C794 0.951 . S
H776 C796 0.950 . S
H777 C797 0.950 . S
H778 C799 0.950 . S
H779 C802 0.950 . S
H780 C803 0.950 . S
H781 C805 0.950 . S
H782 C806 0.950 . S
H783 C807 0.951 . S
H784 C809 0.951 . S
H785 C811 0.950 . S
H786 C812 0.950 . S
H787 C814 0.950 . S
H788 C817 0.950 . S
H789 C818 0.950 . S
H790 C820 0.950 . S
H791 C821 0.950 . S
C792 H774 0.951 . S
C792 C793 1.366 . S
C792 C794 1.388 . S
C793 C792 1.366 . S
C793 C797 1.385 . S
C794 H775 0.951 . S
C794 C792 1.388 . S
C794 C795 1.366 . S
C795 C794 1.366 . S
C795 C796 1.414 . S
C795 C798 1.499 . S
C796 H776 0.950 . S
C796 C795 1.414 . S
C796 C797 1.374 . S
C797 H777 0.950 . S
C797 C793 1.385 . S
C797 C796 1.374 . S
C798 C795 1.499 . S
C798 C799 1.373 . S
C798 C800 1.389 . S
C799 H778 0.950 . S
C799 C798 1.373 . S
C799 C815 1.377 . S
C800 C798 1.389 . S
C800 C801 1.524 . S
C800 C814 1.377 . S
C801 C800 1.524 . S
C801 C802 1.397 . S
C801 C806 1.363 . S
C802 H779 0.950 . S
C802 C801 1.397 . S
C802 C803 1.334 . S
C803 H780 0.950 . S
C803 C802 1.334 . S
C803 C804 1.287 . S
C804 C803 1.287 . S
C804 C805 1.524 . S
C804 H823 0.913 . S
C805 H781 0.950 . S
C805 C804 1.524 . S
C805 C806 1.415 . S
C806 H782 0.950 . S
C806 C801 1.363 . S
C806 C805 1.415 . S
C807 H783 0.951 . S
C807 C808 1.366 . S
C807 C809 1.388 . S
C808 C807 1.366 . S
C808 C812 1.385 . S
C809 H784 0.951 . S
C809 C807 1.388 . S
C809 C810 1.366 . S
C810 C809 1.366 . S
C810 C811 1.414 . S
C810 C813 1.499 . S
C811 H785 0.950 . S
C811 C810 1.414 . S
C811 C812 1.374 . S
C812 H786 0.950 . S
C812 C808 1.385 . S
C812 C811 1.374 . S
C813 C810 1.499 . S
C813 C814 1.373 . S
C813 C815 1.389 . S
C814 H787 0.950 . S
C814 C800 1.377 . S
C814 C813 1.373 . S
C815 C799 1.377 . S
C815 C813 1.389 . S
C815 C816 1.524 . S
C816 C815 1.524 . S
C816 C817 1.397 . S
C816 C821 1.363 . S
C817 H788 0.950 . S
C817 C816 1.397 . S
C817 C818 1.334 . S
C818 H789 0.950 . S
C818 C817 1.334 . S
C818 C819 1.287 . S
C819 C818 1.287 . S
C819 C820 1.524 . S
C819 H822 0.999 . S
C820 H790 0.950 . S
C820 C819 1.524 . S
C820 C821 1.415 . S
C821 H791 0.950 . S
C821 C816 1.363 . S
C821 C820 1.415 . S
H822 C819 0.999 . S
H823 C804 0.913 . S
H824 C842 0.951 . S
H825 C844 0.951 . S
H826 C846 0.950 . S
H827 C847 0.950 . S
H828 C849 0.950 . S
H829 C852 0.950 1_655 S
H830 C853 0.950 1_545 S
H831 C855 0.950 . S
H832 C856 0.950 . S
H833 C857 0.951 1_545 S
H834 C859 0.951 . S
H835 C861 0.950 . S
H836 C862 0.950 . S
H837 C864 0.950 1_455 S
H838 C867 0.950 . S
H839 C868 0.950 . S
H840 C870 0.950 . S
H841 C871 0.950 . S
C842 H824 0.951 . S
C842 C843 1.366 . S
C842 C844 1.388 . S
C843 C842 1.366 . S
C843 C847 1.385 . S
C844 H825 0.951 . S
C844 C842 1.388 . S
C844 C845 1.366 . S
C845 C844 1.366 . S
C845 C846 1.414 . S
C845 C848 1.499 . S
C846 H826 0.950 . S
C846 C845 1.414 . S
C846 C847 1.374 . S
C847 H827 0.950 . S
C847 C843 1.385 . S
C847 C846 1.374 . S
C848 C845 1.499 . S
C848 C849 1.373 . S
C848 C850 1.389 . S
C849 H828 0.950 . S
C849 C848 1.373 . S
C849 C865 1.377 . S
C850 C848 1.389 . S
C850 C851 1.524 1_655 S
C850 C864 1.377 . S
C851 C850 1.524 1_455 S
C851 C852 1.397 . S
C851 C856 1.363 . S
C852 H829 0.950 1_455 S
C852 C851 1.397 . S
C852 C853 1.334 . S
C853 H830 0.950 1_565 S
C853 C852 1.334 . S
C853 C854 1.287 . S
C854 C853 1.287 . S
C854 C855 1.524 . S
C854 H873 0.913 . S
C855 H831 0.950 . S
C855 C854 1.524 . S
C855 C856 1.415 . S
C856 H832 0.950 . S
C856 C851 1.363 . S
C856 C855 1.415 . S
C857 H833 0.951 1_565 S
C857 C858 1.366 1_655 S
C857 C859 1.388 . S
C858 C857 1.366 1_455 S
C858 C862 1.385 . S
C859 H834 0.951 . S
C859 C857 1.388 . S
C859 C860 1.366 . S
C860 C859 1.366 . S
C860 C861 1.414 1_655 S
C860 C863 1.499 . S
C861 H835 0.950 . S
C861 C860 1.414 1_455 S
C861 C862 1.374 . S
C862 H836 0.950 . S
C862 C858 1.385 . S
C862 C861 1.374 . S
C863 C860 1.499 . S
C863 C864 1.373 . S
C863 C865 1.389 . S
C864 H837 0.950 1_655 S
C864 C850 1.377 . S
C864 C863 1.373 . S
C865 C849 1.377 . S
C865 C863 1.389 . S
C865 C866 1.524 . S
C866 C865 1.524 . S
C866 C867 1.397 . S
C866 C871 1.363 . S
C867 H838 0.950 . S
C867 C866 1.397 . S
C867 C868 1.334 . S
C868 H839 0.950 . S
C868 C867 1.334 . S
C868 C869 1.287 . S
C869 C868 1.287 . S
C869 C870 1.524 . S
C869 H872 0.999 . S
C870 H840 0.950 . S
C870 C869 1.524 . S
C870 C871 1.415 . S
C871 H841 0.950 . S
C871 C866 1.363 . S
C871 C870 1.415 . S
H872 C869 0.999 . S
H873 C854 0.913 . S
H874 C892 0.951 . S
H875 C894 0.951 . S
H876 C896 0.950 . S
H877 C897 0.950 . S
H878 C899 0.950 . S
H879 C902 0.950 . S
H880 C903 0.950 . S
H881 C905 0.950 . S
H882 C906 0.950 . S
H883 C907 0.951 . S
H884 C909 0.951 . S
H885 C911 0.950 . S
H886 C912 0.950 . S
H887 C914 0.950 . S
H888 C917 0.950 . S
H889 C918 0.950 . S
H890 C920 0.950 . S
H891 C921 0.950 . S
C892 H874 0.951 . S
C892 C893 1.366 . S
C892 C894 1.388 . S
C893 C892 1.366 . S
C893 C897 1.385 . S
C894 H875 0.951 . S
C894 C892 1.388 . S
C894 C895 1.366 . S
C895 C894 1.366 . S
C895 C896 1.414 . S
C895 C898 1.499 . S
C896 H876 0.950 . S
C896 C895 1.414 . S
C896 C897 1.374 . S
C897 H877 0.950 . S
C897 C893 1.385 . S
C897 C896 1.374 . S
C898 C895 1.499 . S
C898 C899 1.373 . S
C898 C900 1.389 . S
C899 H878 0.950 . S
C899 C898 1.373 . S
C899 C915 1.377 . S
C900 C898 1.389 . S
C900 C901 1.524 . S
C900 C914 1.377 . S
C901 C900 1.524 . S
C901 C902 1.397 . S
C901 C906 1.363 . S
C902 H879 0.950 . S
C902 C901 1.397 . S
C902 C903 1.334 . S
C903 H880 0.950 . S
C903 C902 1.334 . S
C903 C904 1.287 . S
C904 C903 1.287 . S
C904 C905 1.524 . S
C904 H923 0.913 . S
C905 H881 0.950 . S
C905 C904 1.524 . S
C905 C906 1.415 . S
C906 H882 0.950 . S
C906 C901 1.363 . S
C906 C905 1.415 . S
C907 H883 0.951 . S
C907 C908 1.366 . S
C907 C909 1.388 . S
C908 C907 1.366 . S
C908 C912 1.385 . S
C909 H884 0.951 . S
C909 C907 1.388 . S
C909 C910 1.366 . S
C910 C909 1.366 . S
C910 C911 1.414 . S
C910 C913 1.499 . S
C911 H885 0.950 . S
C911 C910 1.414 . S
C911 C912 1.374 . S
C912 H886 0.950 . S
C912 C908 1.385 . S
C912 C911 1.374 . S
C913 C910 1.499 . S
C913 C914 1.373 . S
C913 C915 1.389 . S
C914 H887 0.950 . S
C914 C900 1.377 . S
C914 C913 1.373 . S
C915 C899 1.377 . S
C915 C913 1.389 . S
C915 C916 1.524 . S
C916 C915 1.524 . S
C916 C917 1.397 . S
C916 C921 1.363 . S
C917 H888 0.950 . S
C917 C916 1.397 . S
C917 C918 1.334 . S
C918 H889 0.950 . S
C918 C917 1.334 . S
C918 C919 1.287 . S
C919 C918 1.287 . S
C919 C920 1.524 . S
C919 H922 0.999 . S
C920 H890 0.950 . S
C920 C919 1.524 . S
C920 C921 1.415 . S
C921 H891 0.950 . S
C921 C916 1.363 . S
C921 C920 1.415 . S
H922 C919 0.999 . S
H923 C904 0.913 . S
H924 C942 0.951 . S
H925 C944 0.951 . S
H926 C946 0.950 . S
H927 C947 0.950 . S
H928 C949 0.950 . S
H929 C952 0.950 . S
H930 C953 0.950 . S
H931 C955 0.950 . S
H932 C956 0.950 . S
H933 C957 0.951 . S
H934 C959 0.951 . S
H935 C961 0.950 . S
H936 C962 0.950 . S
H937 C964 0.950 . S
H938 C967 0.950 . S
H939 C968 0.950 . S
H940 C970 0.950 . S
H941 C971 0.950 . S
C942 H924 0.951 . S
C942 C943 1.366 . S
C942 C944 1.388 . S
C943 C942 1.366 . S
C943 C947 1.385 . S
C944 H925 0.951 . S
C944 C942 1.388 . S
C944 C945 1.366 . S
C945 C944 1.366 . S
C945 C946 1.414 . S
C945 C948 1.499 . S
C946 H926 0.950 . S
C946 C945 1.414 . S
C946 C947 1.374 . S
C947 H927 0.950 . S
C947 C943 1.385 . S
C947 C946 1.374 . S
C948 C945 1.499 . S
C948 C949 1.373 . S
C948 C950 1.389 . S
C949 H928 0.950 . S
C949 C948 1.373 . S
C949 C965 1.377 . S
C950 C948 1.389 . S
C950 C951 1.524 . S
C950 C964 1.377 . S
C951 C950 1.524 . S
C951 C952 1.397 . S
C951 C956 1.363 . S
C952 H929 0.950 . S
C952 C951 1.397 . S
C952 C953 1.334 . S
C953 H930 0.950 . S
C953 C952 1.334 . S
C953 C954 1.287 . S
C954 C953 1.287 . S
C954 C955 1.524 . S
C954 H973 0.913 . S
C955 H931 0.950 . S
C955 C954 1.524 . S
C955 C956 1.415 . S
C956 H932 0.950 . S
C956 C951 1.363 . S
C956 C955 1.415 . S
C957 H933 0.951 . S
C957 C958 1.366 . S
C957 C959 1.388 . S
C958 C957 1.366 . S
C958 C962 1.385 . S
C959 H934 0.951 . S
C959 C957 1.388 . S
C959 C960 1.366 . S
C960 C959 1.366 . S
C960 C961 1.414 . S
C960 C963 1.499 . S
C961 H935 0.950 . S
C961 C960 1.414 . S
C961 C962 1.374 . S
C962 H936 0.950 . S
C962 C958 1.385 . S
C962 C961 1.374 . S
C963 C960 1.499 . S
C963 C964 1.373 . S
C963 C965 1.389 . S
C964 H937 0.950 . S
C964 C950 1.377 . S
C964 C963 1.373 . S
C965 C949 1.377 . S
C965 C963 1.389 . S
C965 C966 1.524 . S
C966 C965 1.524 . S
C966 C967 1.397 . S
C966 C971 1.363 . S
C967 H938 0.950 . S
C967 C966 1.397 . S
C967 C968 1.334 . S
C968 H939 0.950 . S
C968 C967 1.334 . S
C968 C969 1.287 . S
C969 C968 1.287 . S
C969 C970 1.524 . S
C969 H972 0.999 . S
C970 H940 0.950 . S
C970 C969 1.524 . S
C970 C971 1.415 . S
C971 H941 0.950 . S
C971 C966 1.363 . S
C971 C970 1.415 . S
H972 C969 0.999 . S
H973 C954 0.913 . S
H974 C992 0.951 . S
H975 C994 0.951 . S
H976 C996 0.950 . S
H977 C997 0.950 . S
H978 C999 0.950 . S
H979 C1002 0.950 . S
H980 C1003 0.950 . S
H981 C1005 0.950 . S
H982 C1006 0.950 . S
H983 C1007 0.951 . S
H984 C1009 0.951 . S
H985 C1011 0.950 . S
H986 C1012 0.950 . S
H987 C1014 0.950 . S
H988 C1017 0.950 1_455 S
H989 C1018 0.950 . S
H990 C1020 0.950 . S
H991 C1021 0.950 1_455 S
C992 H974 0.951 . S
C992 C993 1.366 . S
C992 C994 1.388 . S
C993 C992 1.366 . S
C993 C997 1.385 . S
C994 H975 0.951 . S
C994 C992 1.388 . S
C994 C995 1.366 . S
C995 C994 1.366 . S
C995 C996 1.414 . S
C995 C998 1.499 . S
C996 H976 0.950 . S
C996 C995 1.414 . S
C996 C997 1.374 . S
C997 H977 0.950 . S
C997 C993 1.385 . S
C997 C996 1.374 . S
C998 C995 1.499 . S
C998 C999 1.373 . S
C998 C1000 1.389 . S
C999 H978 0.950 . S
C999 C998 1.373 . S
C999 C1015 1.377 . S
C1000 C998 1.389 . S
C1000 C1001 1.524 . S
C1000 C1014 1.377 . S
C1001 C1000 1.524 . S
C1001 C1002 1.397 . S
C1001 C1006 1.363 . S
C1002 H979 0.950 . S
C1002 C1001 1.397 . S
C1002 C1003 1.334 . S
C1003 H980 0.950 . S
C1003 C1002 1.334 . S
C1003 C1004 1.287 . S
C1004 C1003 1.287 . S
C1004 C1005 1.524 . S
C1004 H1023 0.913 . S
C1005 H981 0.950 . S
C1005 C1004 1.524 . S
C1005 C1006 1.415 . S
C1006 H982 0.950 . S
C1006 C1001 1.363 . S
C1006 C1005 1.415 . S
C1007 H983 0.951 . S
C1007 C1008 1.366 . S
C1007 C1009 1.388 . S
C1008 C1007 1.366 . S
C1008 C1012 1.385 . S
C1009 H984 0.951 . S
C1009 C1007 1.388 . S
C1009 C1010 1.366 . S
C1010 C1009 1.366 . S
C1010 C1011 1.414 . S
C1010 C1013 1.499 . S
C1011 H985 0.950 . S
C1011 C1010 1.414 . S
C1011 C1012 1.374 . S
C1012 H986 0.950 . S
C1012 C1008 1.385 . S
C1012 C1011 1.374 . S
C1013 C1010 1.499 . S
C1013 C1014 1.373 . S
C1013 C1015 1.389 . S
C1014 H987 0.950 . S
C1014 C1000 1.377 . S
C1014 C1013 1.373 . S
C1015 C999 1.377 . S
C1015 C1013 1.389 . S
C1015 C1016 1.524 . S
C1016 C1015 1.524 . S
C1016 C1017 1.397 1_455 S
C1016 C1021 1.363 1_455 S
C1017 H988 0.950 1_655 S
C1017 C1016 1.397 1_655 S
C1017 C1018 1.334 . S
C1018 H989 0.950 . S
C1018 C1017 1.334 . S
C1018 C1019 1.287 . S
C1019 C1018 1.287 . S
C1019 C1020 1.524 . S
C1019 H1022 0.999 . S
C1020 H990 0.950 . S
C1020 C1019 1.524 . S
C1020 C1021 1.415 . S
C1021 H991 0.950 1_655 S
C1021 C1016 1.363 1_655 S
C1021 C1020 1.415 . S
H1022 C1019 0.999 . S
H1023 C1004 0.913 . S
H1024 C1042 0.951 . S
H1025 C1044 0.951 . S
H1026 C1046 0.950 . S
H1027 C1047 0.950 . S
H1028 C1049 0.950 . S
H1029 C1052 0.950 . S
H1030 C1053 0.950 . S
H1031 C1055 0.950 . S
H1032 C1056 0.949 1_545 S
H1033 C1057 0.951 . S
H1034 C1059 0.951 . S
H1035 C1061 0.950 . S
H1036 C1062 0.950 . S
H1037 C1064 0.950 1_554 S
H1038 C1067 0.950 1_545 S
H1039 C1068 0.950 1_545 S
H1040 C1070 0.950 . S
H1041 C1071 0.950 . S
C1042 H1024 0.951 . S
C1042 C1043 1.366 . S
C1042 C1044 1.388 . S
C1043 C1042 1.366 . S
C1043 C1047 1.385 . S
C1044 H1025 0.951 . S
C1044 C1042 1.388 . S
C1044 C1045 1.366 . S
C1045 C1044 1.366 . S
C1045 C1046 1.414 . S
C1045 C1048 1.499 . S
C1046 H1026 0.950 . S
C1046 C1045 1.414 . S
C1046 C1047 1.374 . S
C1047 H1027 0.950 . S
C1047 C1043 1.385 . S
C1047 C1046 1.374 . S
C1048 C1045 1.499 . S
C1048 C1049 1.373 . S
C1048 C1050 1.389 . S
C1049 H1028 0.950 . S
C1049 C1048 1.373 . S
C1049 C1065 1.377 . S
C1050 C1048 1.389 . S
C1050 C1051 1.524 1_556 S
C1050 C1064 1.377 . S
C1051 C1050 1.524 1_554 S
C1051 C1052 1.397 . S
C1051 C1056 1.364 . S
C1052 H1029 0.950 . S
C1052 C1051 1.397 . S
C1052 C1053 1.334 . S
C1053 H1030 0.950 . S
C1053 C1052 1.334 . S
C1053 C1054 1.287 . S
C1054 C1053 1.287 . S
C1054 C1055 1.524 1_565 S
C1054 H1073 0.913 . S
C1055 H1031 0.950 . S
C1055 C1054 1.524 1_545 S
C1055 C1056 1.415 1_545 S
C1056 H1032 0.949 1_565 S
C1056 C1051 1.364 . S
C1056 C1055 1.415 1_565 S
C1057 H1033 0.951 . S
C1057 C1058 1.351 1_556 S
C1057 C1059 1.388 . S
C1058 C1057 1.351 1_554 S
C1058 C1062 1.386 1_565 S
C1059 H1034 0.951 . S
C1059 C1057 1.388 . S
C1059 C1060 1.366 . S
C1060 C1059 1.366 . S
C1060 C1061 1.414 1_565 S
C1060 C1063 1.499 . S
C1061 H1035 0.950 . S
C1061 C1060 1.414 1_545 S
C1061 C1062 1.374 1_556 S
C1062 H1036 0.950 . S
C1062 C1058 1.386 1_545 S
C1062 C1061 1.374 1_554 S
C1063 C1060 1.499 . S
C1063 C1064 1.373 . S
C1063 C1065 1.389 . S
C1064 H1037 0.950 1_556 S
C1064 C1050 1.377 . S
C1064 C1063 1.373 . S
C1065 C1049 1.377 . S
C1065 C1063 1.389 . S
C1065 C1066 1.524 . S
C1066 C1065 1.524 . S
C1066 C1067 1.397 . S
C1066 C1071 1.363 . S
C1067 H1038 0.950 1_565 S
C1067 C1066 1.397 . S
C1067 C1068 1.334 . S
C1068 H1039 0.950 1_565 S
C1068 C1067 1.334 . S
C1068 C1069 1.287 . S
C1069 C1068 1.287 . S
C1069 C1070 1.524 . S
C1069 H1072 0.999 . S
C1070 H1040 0.950 . S
C1070 C1069 1.524 . S
C1070 C1071 1.415 . S
C1071 H1041 0.950 . S
C1071 C1066 1.363 . S
C1071 C1070 1.415 . S
H1072 C1069 0.999 . S
H1073 C1054 0.913 . S
H1074 C1092 0.951 . S
H1075 C1094 0.951 . S
H1076 C1096 0.950 . S
H1077 C1097 0.950 . S
H1078 C1099 0.950 . S
H1079 C1102 0.950 . S
H1080 C1103 0.950 . S
H1081 C1105 0.950 . S
H1082 C1106 0.950 . S
H1083 C1107 0.951 . S
H1084 C1109 0.951 . S
H1085 C1111 0.950 . S
H1086 C1112 0.950 . S
H1087 C1114 0.950 . S
H1088 C1117 0.950 . S
H1089 C1118 0.950 . S
H1090 C1120 0.950 . S
H1091 C1121 0.950 . S
C1092 H1074 0.951 . S
C1092 C1093 1.366 . S
C1092 C1094 1.388 . S
C1093 C1092 1.366 . S
C1093 C1097 1.385 . S
C1094 H1075 0.951 . S
C1094 C1092 1.388 . S
C1094 C1095 1.366 . S
C1095 C1094 1.366 . S
C1095 C1096 1.414 . S
C1095 C1098 1.499 . S
C1096 H1076 0.950 . S
C1096 C1095 1.414 . S
C1096 C1097 1.374 . S
C1097 H1077 0.950 . S
C1097 C1093 1.385 . S
C1097 C1096 1.374 . S
C1098 C1095 1.499 . S
C1098 C1099 1.373 . S
C1098 C1100 1.389 . S
C1099 H1078 0.950 . S
C1099 C1098 1.373 . S
C1099 C1115 1.377 . S
C1100 C1098 1.389 . S
C1100 C1101 1.524 . S
C1100 C1114 1.377 . S
C1101 C1100 1.524 . S
C1101 C1102 1.397 . S
C1101 C1106 1.363 . S
C1102 H1079 0.950 . S
C1102 C1101 1.397 . S
C1102 C1103 1.334 . S
C1103 H1080 0.950 . S
C1103 C1102 1.334 . S
C1103 C1104 1.287 . S
C1104 C1103 1.287 . S
C1104 C1105 1.524 . S
C1104 H1123 0.913 . S
C1105 H1081 0.950 . S
C1105 C1104 1.524 . S
C1105 C1106 1.415 . S
C1106 H1082 0.950 . S
C1106 C1101 1.363 . S
C1106 C1105 1.415 . S
C1107 H1083 0.951 . S
C1107 C1108 1.366 . S
C1107 C1109 1.388 . S
C1108 C1107 1.366 . S
C1108 C1112 1.385 . S
C1109 H1084 0.951 . S
C1109 C1107 1.388 . S
C1109 C1110 1.366 . S
C1110 C1109 1.366 . S
C1110 C1111 1.414 . S
C1110 C1113 1.499 . S
C1111 H1085 0.950 . S
C1111 C1110 1.414 . S
C1111 C1112 1.374 . S
C1112 H1086 0.950 . S
C1112 C1108 1.385 . S
C1112 C1111 1.374 . S
C1113 C1110 1.499 . S
C1113 C1114 1.373 . S
C1113 C1115 1.389 . S
C1114 H1087 0.950 . S
C1114 C1100 1.377 . S
C1114 C1113 1.373 . S
C1115 C1099 1.377 . S
C1115 C1113 1.389 . S
C1115 C1116 1.524 . S
C1116 C1115 1.524 . S
C1116 C1117 1.397 . S
C1116 C1121 1.363 . S
C1117 H1088 0.950 . S
C1117 C1116 1.397 . S
C1117 C1118 1.334 . S
C1118 H1089 0.950 . S
C1118 C1117 1.334 . S
C1118 C1119 1.287 . S
C1119 C1118 1.287 . S
C1119 C1120 1.524 . S
C1119 H1122 0.999 . S
C1120 H1090 0.950 . S
C1120 C1119 1.524 . S
C1120 C1121 1.415 . S
C1121 H1091 0.950 . S
C1121 C1116 1.363 . S
C1121 C1120 1.415 . S
H1122 C1119 0.999 . S
H1123 C1104 0.913 . S
H1124 C1142 0.951 . S
H1125 C1144 0.951 . S
H1126 C1146 0.950 . S
H1127 C1147 0.950 . S
H1128 C1149 0.950 . S
H1129 C1152 0.950 . S
H1130 C1153 0.950 . S
H1131 C1155 0.950 . S
H1132 C1156 0.950 . S
H1133 C1157 0.951 . S
H1134 C1159 0.951 . S
H1135 C1161 0.950 . S
H1136 C1162 0.950 . S
H1137 C1164 0.950 . S
H1138 C1167 0.950 . S
H1139 C1168 0.950 . S
H1140 C1170 0.950 . S
H1141 C1171 0.950 . S
C1142 H1124 0.951 . S
C1142 C1143 1.366 . S
C1142 C1144 1.388 . S
C1143 C1142 1.366 . S
C1143 C1147 1.385 . S
C1144 H1125 0.951 . S
C1144 C1142 1.388 . S
C1144 C1145 1.366 . S
C1145 C1144 1.366 . S
C1145 C1146 1.414 . S
C1145 C1148 1.499 . S
C1146 H1126 0.950 . S
C1146 C1145 1.414 . S
C1146 C1147 1.374 . S
C1147 H1127 0.950 . S
C1147 C1143 1.385 . S
C1147 C1146 1.374 . S
C1148 C1145 1.499 . S
C1148 C1149 1.373 . S
C1148 C1150 1.389 . S
C1149 H1128 0.950 . S
C1149 C1148 1.373 . S
C1149 C1165 1.377 . S
C1150 C1148 1.389 . S
C1150 C1151 1.524 . S
C1150 C1164 1.377 . S
C1151 C1150 1.524 . S
C1151 C1152 1.397 . S
C1151 C1156 1.363 . S
C1152 H1129 0.950 . S
C1152 C1151 1.397 . S
C1152 C1153 1.334 . S
C1153 H1130 0.950 . S
C1153 C1152 1.334 . S
C1153 C1154 1.287 . S
C1154 C1153 1.287 . S
C1154 C1155 1.524 . S
C1154 H1173 0.913 . S
C1155 H1131 0.950 . S
C1155 C1154 1.524 . S
C1155 C1156 1.415 . S
C1156 H1132 0.950 . S
C1156 C1151 1.363 . S
C1156 C1155 1.415 . S
C1157 H1133 0.951 . S
C1157 C1158 1.366 . S
C1157 C1159 1.388 . S
C1158 C1157 1.366 . S
C1158 C1162 1.385 . S
C1159 H1134 0.951 . S
C1159 C1157 1.388 . S
C1159 C1160 1.366 . S
C1160 C1159 1.366 . S
C1160 C1161 1.414 . S
C1160 C1163 1.499 . S
C1161 H1135 0.950 . S
C1161 C1160 1.414 . S
C1161 C1162 1.374 . S
C1162 H1136 0.950 . S
C1162 C1158 1.385 . S
C1162 C1161 1.374 . S
C1163 C1160 1.499 . S
C1163 C1164 1.373 . S
C1163 C1165 1.389 . S
C1164 H1137 0.950 . S
C1164 C1150 1.377 . S
C1164 C1163 1.373 . S
C1165 C1149 1.377 . S
C1165 C1163 1.389 . S
C1165 C1166 1.524 . S
C1166 C1165 1.524 . S
C1166 C1167 1.397 1_554 S
C1166 C1171 1.363 . S
C1167 H1138 0.950 . S
C1167 C1166 1.397 1_556 S
C1167 C1168 1.334 . S
C1168 H1139 0.950 . S
C1168 C1167 1.334 . S
C1168 C1169 1.287 . S
C1169 C1168 1.287 . S
C1169 C1170 1.524 . S
C1169 H1172 0.999 . S
C1170 H1140 0.950 . S
C1170 C1169 1.524 . S
C1170 C1171 1.415 1_556 S
C1171 H1141 0.950 . S
C1171 C1166 1.363 . S
C1171 C1170 1.415 1_554 S
H1172 C1169 0.999 . S
H1173 C1154 0.913 . S
H1174 C1192 0.951 . S
H1175 C1194 0.951 . S
H1176 C1196 0.950 . S
H1177 C1197 0.950 . S
H1178 C1199 0.950 . S
H1179 C1202 0.950 . S
H1180 C1203 0.950 . S
H1181 C1205 0.950 . S
H1182 C1206 0.950 . S
H1183 C1207 0.951 . S
H1184 C1209 0.951 . S
H1185 C1211 0.950 . S
H1186 C1212 0.950 . S
H1187 C1214 0.950 . S
H1188 C1217 0.950 . S
H1189 C1218 0.950 . S
H1190 C1220 0.950 . S
H1191 C1221 0.950 . S
C1192 H1174 0.951 . S
C1192 C1193 1.366 . S
C1192 C1194 1.388 . S
C1193 C1192 1.366 . S
C1193 C1197 1.385 . S
C1194 H1175 0.951 . S
C1194 C1192 1.388 . S
C1194 C1195 1.366 . S
C1195 C1194 1.366 . S
C1195 C1196 1.414 . S
C1195 C1198 1.499 . S
C1196 H1176 0.950 . S
C1196 C1195 1.414 . S
C1196 C1197 1.374 . S
C1197 H1177 0.950 . S
C1197 C1193 1.385 . S
C1197 C1196 1.374 . S
C1198 C1195 1.499 . S
C1198 C1199 1.373 . S
C1198 C1200 1.389 . S
C1199 H1178 0.950 . S
C1199 C1198 1.373 . S
C1199 C1215 1.377 . S
C1200 C1198 1.389 . S
C1200 C1201 1.524 . S
C1200 C1214 1.377 . S
C1201 C1200 1.524 . S
C1201 C1202 1.397 . S
C1201 C1206 1.363 . S
C1202 H1179 0.950 . S
C1202 C1201 1.397 . S
C1202 C1203 1.334 . S
C1203 H1180 0.950 . S
C1203 C1202 1.334 . S
C1203 C1204 1.287 . S
C1204 C1203 1.287 . S
C1204 C1205 1.524 . S
C1204 H1223 0.913 . S
C1205 H1181 0.950 . S
C1205 C1204 1.524 . S
C1205 C1206 1.415 . S
C1206 H1182 0.950 . S
C1206 C1201 1.363 . S
C1206 C1205 1.415 . S
C1207 H1183 0.951 . S
C1207 C1208 1.366 . S
C1207 C1209 1.388 . S
C1208 C1207 1.366 . S
C1208 C1212 1.385 . S
C1209 H1184 0.951 . S
C1209 C1207 1.388 . S
C1209 C1210 1.366 . S
C1210 C1209 1.366 . S
C1210 C1211 1.414 . S
C1210 C1213 1.499 . S
C1211 H1185 0.950 . S
C1211 C1210 1.414 . S
C1211 C1212 1.374 . S
C1212 H1186 0.950 . S
C1212 C1208 1.385 . S
C1212 C1211 1.374 . S
C1213 C1210 1.499 . S
C1213 C1214 1.373 . S
C1213 C1215 1.389 . S
C1214 H1187 0.950 . S
C1214 C1200 1.377 . S
C1214 C1213 1.373 . S
C1215 C1199 1.377 . S
C1215 C1213 1.389 . S
C1215 C1216 1.524 . S
C1216 C1215 1.524 . S
C1216 C1217 1.397 . S
C1216 C1221 1.363 . S
C1217 H1188 0.950 . S
C1217 C1216 1.397 . S
C1217 C1218 1.334 . S
C1218 H1189 0.950 . S
C1218 C1217 1.334 . S
C1218 C1219 1.287 . S
C1219 C1218 1.287 . S
C1219 C1220 1.524 . S
C1219 H1222 0.999 . S
C1220 H1190 0.950 . S
C1220 C1219 1.524 . S
C1220 C1221 1.415 . S
C1221 H1191 0.950 . S
C1221 C1216 1.363 . S
C1221 C1220 1.415 . S
H1222 C1219 0.999 . S
H1223 C1204 0.913 . S
H1224 C1242 0.951 . S
H1225 C1244 0.951 . S
H1226 C1246 0.950 . S
H1227 C1247 0.950 . S
H1228 C1249 0.950 . S
H1229 C1252 0.950 . S
H1230 C1253 0.950 . S
H1231 C1255 0.950 . S
H1232 C1256 0.950 . S
H1233 C1257 0.951 1_455 S
H1234 C1259 0.951 1_455 S
H1235 C1261 0.950 . S
H1236 C1262 0.950 . S
H1237 C1264 0.950 . S
H1238 C1267 0.950 . S
H1239 C1268 0.950 . S
H1240 C1270 0.950 . S
H1241 C1271 0.950 . S
C1242 H1224 0.951 . S
C1242 C1243 1.366 . S
C1242 C1244 1.388 . S
C1243 C1242 1.366 . S
C1243 C1247 1.385 . S
C1244 H1225 0.951 . S
C1244 C1242 1.388 . S
C1244 C1245 1.366 . S
C1245 C1244 1.366 . S
C1245 C1246 1.414 . S
C1245 C1248 1.499 . S
C1246 H1226 0.950 . S
C1246 C1245 1.414 . S
C1246 C1247 1.374 . S
C1247 H1227 0.950 . S
C1247 C1243 1.385 . S
C1247 C1246 1.374 . S
C1248 C1245 1.499 . S
C1248 C1249 1.373 . S
C1248 C1250 1.389 . S
C1249 H1228 0.950 . S
C1249 C1248 1.373 . S
C1249 C1265 1.377 . S
C1250 C1248 1.389 . S
C1250 C1251 1.524 . S
C1250 C1264 1.377 . S
C1251 C1250 1.524 . S
C1251 C1252 1.397 . S
C1251 C1256 1.363 . S
C1252 H1229 0.950 . S
C1252 C1251 1.397 . S
C1252 C1253 1.334 1_556 S
C1253 H1230 0.950 . S
C1253 C1252 1.334 1_554 S
C1253 C1254 1.287 . S
C1254 C1253 1.287 . S
C1254 C1255 1.524 . S
C1254 H1273 0.913 . S
C1255 H1231 0.950 . S
C1255 C1254 1.524 . S
C1255 C1256 1.415 1_554 S
C1256 H1232 0.950 . S
C1256 C1251 1.363 . S
C1256 C1255 1.415 1_556 S
C1257 H1233 0.951 1_655 S
C1257 C1258 1.366 . S
C1257 C1259 1.388 . S
C1258 C1257 1.366 . S
C1258 C1262 1.385 . S
C1259 H1234 0.951 1_655 S
C1259 C1257 1.388 . S
C1259 C1260 1.366 . S
C1260 C1259 1.366 . S
C1260 C1261 1.414 . S
C1260 C1263 1.499 . S
C1261 H1235 0.950 . S
C1261 C1260 1.414 . S
C1261 C1262 1.374 . S
C1262 H1236 0.950 . S
C1262 C1258 1.385 . S
C1262 C1261 1.374 . S
C1263 C1260 1.499 . S
C1263 C1264 1.373 . S
C1263 C1265 1.389 . S
C1264 H1237 0.950 . S
C1264 C1250 1.377 . S
C1264 C1263 1.373 . S
C1265 C1249 1.377 . S
C1265 C1263 1.389 . S
C1265 C1266 1.524 . S
C1266 C1265 1.524 . S
C1266 C1267 1.397 . S
C1266 C1271 1.363 1_655 S
C1267 H1238 0.950 . S
C1267 C1266 1.397 . S
C1267 C1268 1.334 . S
C1268 H1239 0.950 . S
C1268 C1267 1.334 . S
C1268 C1269 1.287 1_655 S
C1269 C1268 1.287 1_455 S
C1269 C1270 1.524 . S
C1269 H1272 0.999 . S
C1270 H1240 0.950 . S
C1270 C1269 1.524 . S
C1270 C1271 1.415 . S
C1271 H1241 0.950 . S
C1271 C1266 1.363 1_455 S
C1271 C1270 1.415 . S
H1272 C1269 0.999 . S
H1273 C1254 0.913 . S
H1274 C1292 0.951 . S
H1275 C1294 0.951 . S
H1276 C1296 0.950 . S
H1277 C1297 0.950 . S
H1278 C1299 0.950 . S
H1279 C1302 0.950 . S
H1280 C1303 0.950 . S
H1281 C1305 0.950 . S
H1282 C1306 0.950 . S
H1283 C1307 0.951 . S
H1284 C1309 0.951 . S
H1285 C1311 0.950 . S
H1286 C1312 0.950 . S
H1287 C1314 0.950 . S
H1288 C1317 0.950 . S
H1289 C1318 0.950 . S
H1290 C1320 0.950 . S
H1291 C1321 0.950 . S
C1292 H1274 0.951 . S
C1292 C1293 1.366 . S
C1292 C1294 1.388 . S
C1293 C1292 1.366 . S
C1293 C1297 1.385 . S
C1294 H1275 0.951 . S
C1294 C1292 1.388 . S
C1294 C1295 1.366 . S
C1295 C1294 1.366 . S
C1295 C1296 1.414 . S
C1295 C1298 1.499 . S
C1296 H1276 0.950 . S
C1296 C1295 1.414 . S
C1296 C1297 1.374 . S
C1297 H1277 0.950 . S
C1297 C1293 1.385 . S
C1297 C1296 1.374 . S
C1298 C1295 1.499 . S
C1298 C1299 1.373 . S
C1298 C1300 1.389 . S
C1299 H1278 0.950 . S
C1299 C1298 1.373 . S
C1299 C1315 1.377 . S
C1300 C1298 1.389 . S
C1300 C1301 1.524 . S
C1300 C1314 1.377 . S
C1301 C1300 1.524 . S
C1301 C1302 1.397 . S
C1301 C1306 1.363 . S
C1302 H1279 0.950 . S
C1302 C1301 1.397 . S
C1302 C1303 1.334 . S
C1303 H1280 0.950 . S
C1303 C1302 1.334 . S
C1303 C1304 1.287 1_554 S
C1304 C1303 1.287 1_556 S
C1304 C1305 1.524 . S
C1304 H1323 0.913 . S
C1305 H1281 0.950 . S
C1305 C1304 1.524 . S
C1305 C1306 1.415 1_556 S
C1306 H1282 0.950 . S
C1306 C1301 1.363 . S
C1306 C1305 1.415 1_554 S
C1307 H1283 0.951 . S
C1307 C1308 1.366 . S
C1307 C1309 1.388 . S
C1308 C1307 1.366 . S
C1308 C1312 1.385 . S
C1309 H1284 0.951 . S
C1309 C1307 1.388 . S
C1309 C1310 1.366 . S
C1310 C1309 1.366 . S
C1310 C1311 1.414 . S
C1310 C1313 1.499 . S
C1311 H1285 0.950 . S
C1311 C1310 1.414 . S
C1311 C1312 1.374 . S
C1312 H1286 0.950 . S
C1312 C1308 1.385 . S
C1312 C1311 1.374 . S
C1313 C1310 1.499 . S
C1313 C1314 1.373 . S
C1313 C1315 1.389 . S
C1314 H1287 0.950 . S
C1314 C1300 1.377 . S
C1314 C1313 1.373 . S
C1315 C1299 1.377 . S
C1315 C1313 1.389 . S
C1315 C1316 1.524 . S
C1316 C1315 1.524 . S
C1316 C1317 1.397 . S
C1316 C1321 1.363 . S
C1317 H1288 0.950 . S
C1317 C1316 1.397 . S
C1317 C1318 1.334 . S
C1318 H1289 0.950 . S
C1318 C1317 1.334 . S
C1318 C1319 1.287 . S
C1319 C1318 1.287 . S
C1319 C1320 1.524 . S
C1319 H1322 0.999 . S
C1320 H1290 0.950 . S
C1320 C1319 1.524 . S
C1320 C1321 1.415 . S
C1321 H1291 0.950 . S
C1321 C1316 1.363 . S
C1321 C1320 1.415 . S
H1322 C1319 0.999 . S
H1323 C1304 0.913 . S
H1324 C1342 0.951 . S
H1325 C1344 0.951 . S
H1326 C1346 0.950 . S
H1327 C1347 0.950 . S
H1328 C1349 0.950 . S
H1329 C1352 0.950 . S
H1330 C1353 0.950 1_655 S
H1331 C1355 0.950 . S
H1332 C1356 0.950 . S
H1333 C1357 0.951 . S
H1334 C1359 0.951 . S
H1335 C1361 0.950 . S
H1336 C1362 0.950 . S
H1337 C1364 0.950 . S
H1338 C1367 0.950 . S
H1339 C1368 0.950 . S
H1340 C1370 0.950 . S
H1341 C1371 0.950 . S
C1342 H1324 0.951 . S
C1342 C1343 1.366 . S
C1342 C1344 1.388 . S
C1343 C1342 1.366 . S
C1343 C1347 1.385 . S
C1344 H1325 0.951 . S
C1344 C1342 1.388 . S
C1344 C1345 1.366 . S
C1345 C1344 1.366 . S
C1345 C1346 1.414 . S
C1345 C1348 1.499 . S
C1346 H1326 0.950 . S
C1346 C1345 1.414 . S
C1346 C1347 1.374 . S
C1347 H1327 0.950 . S
C1347 C1343 1.385 . S
C1347 C1346 1.374 . S
C1348 C1345 1.499 . S
C1348 C1349 1.373 . S
C1348 C1350 1.389 . S
C1349 H1328 0.950 . S
C1349 C1348 1.373 . S
C1349 C1365 1.377 . S
C1350 C1348 1.389 . S
C1350 C1351 1.524 . S
C1350 C1364 1.377 . S
C1351 C1350 1.524 . S
C1351 C1352 1.397 . S
C1351 C1356 1.363 . S
C1352 H1329 0.950 . S
C1352 C1351 1.397 . S
C1352 C1353 1.334 . S
C1353 H1330 0.950 1_455 S
C1353 C1352 1.334 . S
C1353 C1354 1.287 . S
C1354 C1353 1.287 . S
C1354 C1355 1.524 . S
C1354 H1373 0.913 1_455 S
C1355 H1331 0.950 . S
C1355 C1354 1.524 . S
C1355 C1356 1.415 . S
C1356 H1332 0.950 . S
C1356 C1351 1.363 . S
C1356 C1355 1.415 . S
C1357 H1333 0.951 . S
C1357 C1358 1.366 . S
C1357 C1359 1.388 . S
C1358 C1357 1.366 . S
C1358 C1362 1.385 . S
C1359 H1334 0.951 . S
C1359 C1357 1.388 . S
C1359 C1360 1.366 . S
C1360 C1359 1.366 . S
C1360 C1361 1.414 . S
C1360 C1363 1.499 . S
C1361 H1335 0.950 . S
C1361 C1360 1.414 . S
C1361 C1362 1.374 . S
C1362 H1336 0.950 . S
C1362 C1358 1.385 . S
C1362 C1361 1.374 . S
C1363 C1360 1.499 . S
C1363 C1364 1.373 . S
C1363 C1365 1.389 . S
C1364 H1337 0.950 . S
C1364 C1350 1.377 . S
C1364 C1363 1.373 . S
C1365 C1349 1.377 . S
C1365 C1363 1.389 . S
C1365 C1366 1.524 . S
C1366 C1365 1.524 . S
C1366 C1367 1.397 . S
C1366 C1371 1.363 . S
C1367 H1338 0.950 . S
C1367 C1366 1.397 . S
C1367 C1368 1.334 . S
C1368 H1339 0.950 . S
C1368 C1367 1.334 . S
C1368 C1369 1.287 . S
C1369 C1368 1.287 . S
C1369 C1370 1.524 . S
C1369 H1372 0.999 . S
C1370 H1340 0.950 . S
C1370 C1369 1.524 . S
C1370 C1371 1.415 . S
C1371 H1341 0.950 . S
C1371 C1366 1.363 . S
C1371 C1370 1.415 . S
H1372 C1369 0.999 . S
H1373 C1354 0.913 1_655 S
H1374 C1392 0.951 . S
H1375 C1394 0.951 . S
H1376 C1396 0.950 . S
H1377 C1397 0.950 . S
H1378 C1399 0.950 . S
H1379 C1402 0.950 . S
H1380 C1403 0.950 . S
H1381 C1405 0.950 . S
H1382 C1406 0.950 . S
H1383 C1407 0.951 . S
H1384 C1409 0.951 . S
H1385 C1411 0.950 . S
H1386 C1412 0.950 . S
H1387 C1414 0.950 . S
H1388 C1417 0.950 . S
H1389 C1418 0.950 . S
H1390 C1420 0.950 . S
H1391 C1421 0.950 . S
C1392 H1374 0.951 . S
C1392 C1393 1.366 . S
C1392 C1394 1.388 . S
C1393 C1392 1.366 . S
C1393 C1397 1.385 . S
C1394 H1375 0.951 . S
C1394 C1392 1.388 . S
C1394 C1395 1.366 . S
C1395 C1394 1.366 . S
C1395 C1396 1.414 . S
C1395 C1398 1.499 . S
C1396 H1376 0.950 . S
C1396 C1395 1.414 . S
C1396 C1397 1.374 . S
C1397 H1377 0.950 . S
C1397 C1393 1.385 . S
C1397 C1396 1.374 . S
C1398 C1395 1.499 . S
C1398 C1399 1.373 . S
C1398 C1400 1.389 . S
C1399 H1378 0.950 . S
C1399 C1398 1.373 . S
C1399 C1415 1.377 . S
C1400 C1398 1.389 . S
C1400 C1401 1.524 . S
C1400 C1414 1.377 . S
C1401 C1400 1.524 . S
C1401 C1402 1.397 . S
C1401 C1406 1.363 . S
C1402 H1379 0.950 . S
C1402 C1401 1.397 . S
C1402 C1403 1.334 . S
C1403 H1380 0.950 . S
C1403 C1402 1.334 . S
C1403 C1404 1.287 . S
C1404 C1403 1.287 . S
C1404 C1405 1.524 . S
C1404 H1423 0.913 . S
C1405 H1381 0.950 . S
C1405 C1404 1.524 . S
C1405 C1406 1.415 . S
C1406 H1382 0.950 . S
C1406 C1401 1.363 . S
C1406 C1405 1.415 . S
C1407 H1383 0.951 . S
C1407 C1408 1.366 . S
C1407 C1409 1.388 . S
C1408 C1407 1.366 . S
C1408 C1412 1.385 . S
C1409 H1384 0.951 . S
C1409 C1407 1.388 . S
C1409 C1410 1.366 . S
C1410 C1409 1.366 . S
C1410 C1411 1.414 . S
C1410 C1413 1.499 . S
C1411 H1385 0.950 . S
C1411 C1410 1.414 . S
C1411 C1412 1.374 . S
C1412 H1386 0.950 . S
C1412 C1408 1.385 . S
C1412 C1411 1.374 . S
C1413 C1410 1.499 . S
C1413 C1414 1.373 . S
C1413 C1415 1.389 . S
C1414 H1387 0.950 . S
C1414 C1400 1.377 . S
C1414 C1413 1.373 . S
C1415 C1399 1.377 . S
C1415 C1413 1.389 . S
C1415 C1416 1.524 . S
C1416 C1415 1.524 . S
C1416 C1417 1.397 . S
C1416 C1421 1.363 . S
C1417 H1388 0.950 . S
C1417 C1416 1.397 . S
C1417 C1418 1.334 . S
C1418 H1389 0.950 . S
C1418 C1417 1.334 . S
C1418 C1419 1.287 . S
C1419 C1418 1.287 . S
C1419 C1420 1.524 . S
C1419 H1422 0.999 . S
C1420 H1390 0.950 . S
C1420 C1419 1.524 . S
C1420 C1421 1.415 . S
C1421 H1391 0.950 . S
C1421 C1416 1.363 . S
C1421 C1420 1.415 . S
H1422 C1419 0.999 . S
H1423 C1404 0.913 . S
C243 N1 2.049 . S
C258 C120 2.116 . S
C293 N18 1.452 . S
C308 N140 1.427 . S
C358 C174 1.383 . S
C343 N28 1.382 . S
C393 N40 1.408 . S
C408 N208 1.388 . S
C458 C161 2.756 . S
C443 N5 2.715 . S
C508 N118 1.199 . S
C493 N14 1.219 . S
C558 C195 1.879 . S
C543 N31 1.844 . S
C608 N170 0.584 . S
C593 N41 0.576 . S
C643 N2 1.699 . S
C658 C210 1.715 . S
C708 C144 1.742 1_556 S
C693 N27 1.714 . S
C743 N44 1.558 . S
C758 C105 1.602 . S
C793 N15 1.188 . S
C808 C191 1.193 . S
C858 C131 2.525 . S
C843 N57 2.508 . S
C893 N70 0.913 . S
C908 N148 0.904 . S
C943 N79 1.726 . S
C958 C165 1.774 . S
C993 N93 1.053 . S
C1008 N200 1.031 . S
C1043 N54 2.263 . S
C1058 C150 2.279 1_565 S
C1108 N110 1.642 . S
C1093 N66 1.673 . S
C1158 C204 1.283 . S
C1143 N80 1.275 . S
C1208 N178 0.940 . S
C1193 N96 0.940 . S
C1243 N53 1.753 . S
C1258 C221 1.780 . S
C1308 C135 1.593 . S
C1293 N83 1.559 . S
C1358 C114 1.611 . S
C1343 N92 1.589 . S
C1393 N67 1.210 . S
C1408 C180 1.219 . S
