# Generated by pormake.
# Topology pts, (4,4)-cn, num edge types: 1
# Building blocks:
#     Node 0, Type 0, BuildingBlock: MIFKUJ_clean_linker_1, # of connection points: 4
#     Node 1, Type 0, BuildingBlock: MIFKUJ_clean_linker_1, # of connection points: 4
#     Node 2, Type 1, BuildingBlock: QUQFOY_clean_sbu_1, # of connection points: 4
#     Node 3, Type 1, BuildingBlock: QUQFOY_clean_sbu_1, # of connection points: 4
#     Edge 4, Type (0, 1), BuildingBlock: FUNLAD_clean_linker_1, # of connection points: 2
#     Edge 5, Type (0, 1), BuildingBlock: FUNLAD_clean_linker_1, # of connection points: 2
#     Edge 6, Type (0, 1), BuildingBlock: FUNLAD_clean_linker_1, # of connection points: 2
#     Edge 7, Type (0, 1), BuildingBlock: FUNLAD_clean_linker_1, # of connection points: 2
#     Edge 8, Type (0, 1), BuildingBlock: FUNLAD_clean_linker_1, # of connection points: 2
#     Edge 9, Type (0, 1), BuildingBlock: FUNLAD_clean_linker_1, # of connection points: 2
#     Edge 10, Type (0, 1), BuildingBlock: FUNLAD_clean_linker_1, # of connection points: 2
#     Edge 11, Type (0, 1), BuildingBlock: FUNLAD_clean_linker_1, # of connection points: 2
# Relax obj value: 0.096
# Max RMSD: 0.259
# Mean RMSD: 0.154
data_MOF--net-pts--node1-QUQFOY_clean_sbu_1--node2-MIFKUJ_clean_linker_1--edge1-FUNLAD_clean_linker_1
_symmetry_space_group_name_H-M    P1
_symmetry_Int_Tables_number       1
_symmetry_cell_setting            triclinic
loop_
_symmetry_equiv_pos_as_xyz
'x, y, z'
_cell_length_a     29.628689
_cell_length_b     32.063334
_cell_length_c     44.565664
_cell_angle_alpha  90.109841
_cell_angle_beta   90.014389
_cell_angle_gamma 90.12036
loop_
_atom_site_label
_atom_site_type_symbol
_atom_site_fract_x
_atom_site_fract_y
_atom_site_fract_z
_atom_type_partial_charge
H0 H 0.56392 0.94822 0.06973 0.0
H1 H 0.62917 0.95579 0.10231 0.0
H2 H 0.66186 0.07308 0.05963 0.0
H3 H 0.59522 0.06572 0.02753 0.0
H4 H 0.49222 0.9965 0.06814 0.0
H5 H 0.60917 0.9586 0.99832 0.0
H6 H 0.67152 0.9594 0.96207 0.0
H7 H 0.60757 0.06023 0.91446 0.0
H8 H 0.54708 0.06164 0.95164 0.0
H9 H 0.4271 0.05753 0.95375 0.0
H10 H 0.3655 0.0524 0.91755 0.0
H11 H 0.31348 0.94451 0.96374 0.0
H12 H 0.37723 0.94758 0.99897 0.0
H13 H 0.48977 1.00614 0.95738 0.0
H14 H 0.38041 0.05414 0.03112 0.0
H15 H 0.3138 0.05139 0.06331 0.0
H16 H 0.36032 0.93474 0.10059 0.0
H17 H 0.42653 0.93739 0.06786 0.0
C18 C 0.57494 1.00613 0.04595 0.0
C19 C 0.58546 0.97533 0.06714 0.0
C20 C 0.62327 0.97957 0.08561 0.0
C21 C 0.65149 0.01481 0.08318 0.0
C22 C 0.641 0.04544 0.0618 0.0
C23 C 0.60313 0.04116 0.04333 0.0
C24 C 0.53271 1.00297 0.02825 0.0
C25 C 0.49175 0.99841 0.04384 0.0
C26 C 0.53196 1.00639 0.99662 0.0
C27 C 0.5733 0.01016 0.97787 0.0
C28 C 0.60937 0.982 0.98084 0.0
C29 C 0.6448 0.98223 0.96003 0.0
C30 C 0.64388 0.00985 0.93562 0.0
C31 C 0.60871 0.03865 0.93314 0.0
C32 C 0.5742 0.03933 0.95434 0.0
C33 C 0.40706 1.00292 0.97918 0.0
C34 C 0.4024 0.03283 0.95635 0.0
C35 C 0.36725 0.03002 0.93571 0.0
C36 C 0.33515 0.99818 0.93809 0.0
C37 C 0.33789 0.96957 0.96182 0.0
C38 C 0.37405 0.97156 0.98204 0.0
C39 C 0.44926 1.00231 0.99725 0.0
C40 C 0.49029 1.00523 0.98171 0.0
C41 C 0.45003 0.99844 0.02883 0.0
C42 C 0.40836 0.99595 0.04709 0.0
C43 C 0.37604 0.02785 0.04608 0.0
C44 C 0.33824 0.02647 0.06485 0.0
C45 C 0.33237 0.99322 0.08511 0.0
C46 C 0.36421 0.96088 0.08543 0.0
C47 C 0.40202 0.96238 0.06679 0.0
H48 H 0.08032 0.45 0.46415 0.0
H49 H 0.08283 0.38281 0.43786 0.0
H50 H 0.94847 0.35459 0.46971 0.0
H51 H 0.94614 0.42177 0.49573 0.0
H52 H 0.01947 0.51652 0.45731 0.0
H53 H 0.06787 0.42022 0.53339 0.0
H54 H 0.06351 0.35744 0.56382 0.0
H55 H 0.93505 0.39815 0.59924 0.0
H56 H 0.93977 0.46124 0.56849 0.0
H57 H 0.94582 0.59063 0.56544 0.0
H58 H 0.94645 0.65697 0.59166 0.0
H59 H 0.07612 0.6862 0.55207 0.0
H60 H 0.07503 0.61914 0.52594 0.0
H61 H 0.00127 0.52414 0.56786 0.0
H62 H 0.95416 0.62228 0.49421 0.0
H63 H 0.95688 0.68453 0.46298 0.0
H64 H 0.07957 0.63998 0.4216 0.0
H65 H 0.07712 0.57785 0.45343 0.0
C66 C 0.01303 0.44087 0.4818 0.0
C67 C 0.05132 0.42942 0.46525 0.0
C68 C 0.05279 0.39102 0.4504 0.0
C69 C 0.01567 0.36375 0.45128 0.0
C70 C 0.97727 0.37525 0.46793 0.0
C71 C 0.97601 0.41351 0.48304 0.0
C72 C 0.01212 0.48126 0.49806 0.0
C73 C 0.01608 0.51828 0.48151 0.0
C74 C 0.00639 0.48336 0.52954 0.0
C75 C 0.0038 0.44516 0.54827 0.0
C76 C 0.03842 0.41533 0.54737 0.0
C77 C 0.03568 0.37915 0.56474 0.0
C78 C -0.00183 0.37213 0.5835 0.0
C79 C 0.96406 0.40247 0.58477 0.0
C80 C 0.96679 0.43858 0.56732 0.0
C81 C 0.01017 0.59998 0.54357 0.0
C82 C 0.97449 0.61127 0.56258 0.0
C83 C 0.97502 0.6496 0.57762 0.0
C84 C 0.01164 0.6774 0.57413 0.0
C85 C 0.0474 0.66569 0.5552 0.0
C86 C 0.0468 0.62739 0.54019 0.0
C87 C 0.00905 0.55962 0.52715 0.0
C88 C 0.00462 0.52253 0.54365 0.0
C89 C 0.01412 0.55751 0.49556 0.0
C90 C 0.01587 0.59562 0.4766 0.0
C91 C 0.98218 0.62626 0.47887 0.0
C92 C 0.9839 0.66204 0.46102 0.0
C93 C 0.01918 0.66769 0.44027 0.0
C94 C 0.05231 0.63665 0.43764 0.0
C95 C 0.05083 0.60107 0.4557 0.0
O96 O 0.93963 0.97897 0.24591 0.0
Cd97 Cd -0.00083 0.98207 0.26978 0.0
Cd98 Cd 0.98432 0.06683 0.26519 0.0
O99 O 0.92637 0.04667 0.24387 0.0
O100 O 0.00918 0.92426 0.28458 0.0
O101 O -0.00227 0.97794 0.31491 0.0
C102 C 0.00469 0.93848 0.31148 0.0
C103 C 0.97866 0.12019 0.30063 0.0
C104 C 0.9152 0.00934 0.23767 0.0
C105 C 0.06789 0.03279 0.23596 0.0
O106 O 0.04348 0.06455 0.24092 0.0
O107 O 0.05691 0.99719 0.2462 0.0
O108 O 0.9734 0.12726 0.27243 0.0
O109 O 0.98656 0.08238 0.30909 0.0
O110 O 0.93277 0.05818 0.78115 0.0
Cd111 Cd 0.9926 0.06238 0.75816 0.0
Cd112 Cd 0.9896 0.97649 0.76097 0.0
O113 O 0.92929 0.98936 0.78246 0.0
O114 O -0.00439 0.12054 0.74272 0.0
O115 O -0.00489 0.06509 0.71303 0.0
C116 C -0.00348 0.10515 0.71598 0.0
C117 C 0.98999 0.92128 0.72668 0.0
C118 C 0.91292 0.02486 0.789 0.0
C119 C 0.06621 0.02046 0.79259 0.0
O120 O 0.04815 0.98586 0.78538 0.0
O121 O 0.0495 0.05475 0.78385 0.0
O122 O 0.98735 0.91492 0.75511 0.0
O123 O 0.99225 0.95934 0.71732 0.0
H124 H 0.28509 0.96057 0.1155 0.0
C125 C 0.29363 0.99092 0.10617 0.0
H126 H 0.28019 0.05568 0.10887 0.0
H127 H 0.09308 0.968 0.16337 0.0
H128 H 0.08049 0.94277 0.11275 0.0
H129 H 0.13767 0.95356 0.07328 0.0
H130 H 0.20786 0.98944 0.08426 0.0
C131 C 0.27055 0.02446 0.11575 0.0
C132 C 0.23465 0.02019 0.13888 0.0
C133 C 0.19356 0.99953 0.13196 0.0
C134 C 0.16033 0.99387 0.15461 0.0
C135 C 0.11959 0.9731 0.14709 0.0
C136 C 0.11184 0.95854 0.11807 0.0
C137 C 0.14405 0.96456 0.09587 0.0
C138 C 0.18438 0.98496 0.10255 0.0
H139 H 0.11629 0.06847 0.20848 0.0
C140 C 0.10793 0.03744 0.21661 0.0
H141 H 0.12296 0.97317 0.2139 0.0
H142 H 0.3093 0.062 0.15938 0.0
H143 H 0.32168 0.08766 0.20994 0.0
H144 H 0.26435 0.07719 0.24935 0.0
H145 H 0.19422 0.04113 0.23841 0.0
C146 C 0.13215 1.0046 0.20713 0.0
C147 C 0.16785 0.00963 0.18395 0.0
C148 C 0.2088 0.03055 0.19082 0.0
C149 C 0.24208 0.03613 0.16818 0.0
C150 C 0.28277 0.05698 0.17566 0.0
C151 C 0.29039 0.0718 0.20463 0.0
C152 C 0.25809 0.06595 0.22681 0.0
C153 C 0.21782 0.04543 0.22016 0.0
H154 H 0.97124 0.33654 0.62206 0.0
C155 C -0.0057 0.33477 0.6031 0.0
H156 H 0.04005 0.29537 0.57989 0.0
H157 H 0.08493 0.19214 0.69751 0.0
H158 H 0.1551 0.22988 0.69002 0.0
H159 H 0.16148 0.28368 0.65074 0.0
H160 H 0.09782 0.30001 0.61865 0.0
C161 C 0.01704 0.29898 0.59863 0.0
C162 C 0.0139 0.26416 0.62061 0.0
C163 C 0.05155 0.25479 0.639 0.0
C164 C 0.04773 0.22408 0.66184 0.0
C165 C 0.08582 0.21551 0.68003 0.0
C166 C 0.12634 0.23686 0.67592 0.0
C167 C 0.12995 0.26712 0.65379 0.0
C168 C 0.09311 0.27616 0.6355 0.0
H169 H -0.0001 0.11857 0.66727 0.0
C170 C -0.00072 0.13263 0.68948 0.0
H171 H 0.00225 0.18851 0.71457 0.0
H172 H 0.93771 0.26993 0.58617 0.0
H173 H 0.86745 0.23227 0.59361 0.0
H174 H 0.85956 0.18143 0.63478 0.0
H175 H 0.92199 0.16749 0.66846 0.0
C176 C 0.00134 0.17434 0.6924 0.0
C177 C 0.00632 0.20271 0.66623 0.0
C178 C 0.96913 0.21096 0.6471 0.0
C179 C 0.97316 0.24131 0.62397 0.0
C180 C 0.93599 0.24814 0.60464 0.0
C181 C 0.89557 0.22657 0.60856 0.0
C182 C 0.89116 0.19788 0.6317 0.0
C183 C 0.92736 0.19007 0.65083 0.0
H184 H 0.70276 0.05374 0.1061 0.0
C185 C 0.69037 0.02194 0.10365 0.0
H186 H 0.70044 0.9592 0.11708 0.0
H187 H 0.89236 0.05178 0.15744 0.0
H188 H 0.90599 0.06023 0.10415 0.0
H189 H 0.84786 0.04063 0.06705 0.0
H190 H 0.77568 0.01278 0.08302 0.0
C191 C 0.71114 0.99145 0.11904 0.0
C192 C 0.74748 1.00115 0.14102 0.0
C193 C 0.78975 0.01686 0.13121 0.0
C194 C 0.82357 0.02742 0.15258 0.0
C195 C 0.86544 0.04323 0.14221 0.0
C196 C 0.87378 0.04815 0.11166 0.0
C197 C 0.84103 0.03718 0.09077 0.0
C198 C 0.79956 0.02152 0.10028 0.0
H199 H 0.86552 0.96838 0.21534 0.0
C200 C 0.87488 1.00075 0.21928 0.0
H201 H 0.86193 0.06361 0.20806 0.0
H202 H 0.67052 0.97083 0.16726 0.0
H203 H 0.65739 0.96143 0.22053 0.0
H204 H 0.71604 0.97992 0.25756 0.0
H205 H 0.78824 0.00783 0.24153 0.0
C206 C 0.85166 0.03122 0.20561 0.0
C207 C 0.81547 0.02126 0.18361 0.0
C208 C 0.77341 1.00514 0.19341 0.0
C209 C 0.73946 0.99485 0.17206 0.0
C210 C 0.69761 0.97903 0.18246 0.0
C211 C 0.68956 0.97356 0.213 0.0
C212 C 0.7226 0.98393 0.23384 0.0
C213 C 0.76401 0.99971 0.22431 0.0
H214 H 0.04311 0.73854 0.58441 0.0
C215 C 0.01448 0.71856 0.58972 0.0
H216 H 0.95532 0.71431 0.61651 0.0
H217 H 0.07342 0.85483 0.69213 0.0
H218 H 0.12655 0.79896 0.70173 0.0
H219 H 0.11716 0.73016 0.67761 0.0
H220 H 0.05531 0.71714 0.6433 0.0
C221 C 0.98501 0.73216 0.61054 0.0
C222 C 0.99081 0.77336 0.6256 0.0
C223 C 0.02632 0.77984 0.64649 0.0
C224 C 0.03038 0.81878 0.66163 0.0
C225 C 0.06754 0.82522 0.68111 0.0
C226 C 0.0985 0.79353 0.68663 0.0
C227 C 0.09332 0.75486 0.67297 0.0
C228 C 0.05773 0.7479 0.65314 0.0
H229 H 0.986 0.85453 0.71596 0.0
C230 C 0.99056 0.88526 0.70611 0.0
H231 H 0.00108 0.91888 0.66597 0.0
H232 H 0.92094 0.77223 0.58549 0.0
H233 H 0.86725 0.82789 0.57649 0.0
H234 H 0.87234 0.89426 0.6044 0.0
H235 H 0.93131 0.90553 0.64132 0.0
C236 C -0.00258 0.88847 0.67642 0.0
C237 C -0.00248 0.85034 0.65715 0.0
C238 C 0.96291 0.84432 0.6356 0.0
C239 C 0.95961 0.80583 0.61979 0.0
C240 C 0.9247 0.80066 0.59838 0.0
C241 C 0.89371 0.83238 0.59295 0.0
C242 C 0.8966 0.86976 0.60865 0.0
C243 C 0.93065 0.87582 0.62978 0.0
H244 H 0.31355 0.99294 0.89108 0.0
C245 C 0.3014 0.99361 0.9141 0.0
H246 H 0.24464 0.99656 0.94245 0.0
H247 H 0.1881 0.04203 0.79918 0.0
H248 H 0.24174 0.09905 0.80276 0.0
H249 H 0.2844 0.11141 0.84952 0.0
H250 H 0.27531 0.06556 0.89225 0.0
C251 C 0.25692 0.99518 0.91948 0.0
C252 C 0.22372 0.99415 0.89431 0.0
C253 C 0.22621 0.02389 0.87076 0.0
C254 C 0.19824 0.01945 0.84505 0.0
C255 C 0.20579 0.04609 0.82021 0.0
C256 C 0.23686 0.07866 0.82183 0.0
C257 C 0.2611 0.08544 0.84805 0.0
C258 C 0.25593 0.05853 0.87231 0.0
H259 H 0.11121 0.0509 0.82509 0.0
C260 C 0.10446 0.02159 0.81362 0.0
H261 H 0.1225 0.95845 0.80871 0.0
H262 H 0.21005 0.93183 0.93535 0.0
H263 H 0.15166 0.87891 0.93377 0.0
H264 H 0.09705 0.87633 0.89204 0.0
H265 H 0.10104 0.92605 0.85138 0.0
C266 C 0.12951 0.98784 0.81997 0.0
C267 C 0.16369 0.98869 0.84458 0.0
C268 C 0.15999 0.95994 0.86868 0.0
C269 C 0.19057 0.96223 0.89328 0.0
C270 C 0.18719 0.93215 0.91644 0.0
C271 C 0.15383 0.90151 0.91581 0.0
C272 C 0.12315 0.90002 0.8923 0.0
C273 C 0.12596 0.92879 0.86899 0.0
H274 H 0.05176 0.3105 0.43078 0.0
C275 C 0.01844 0.32355 0.4348 0.0
H276 H 0.9487 0.31722 0.42555 0.0
H277 H 0.05304 0.19914 0.32301 0.0
H278 H 0.08817 0.26309 0.30582 0.0
H279 H 0.07476 0.32962 0.33221 0.0
H280 H 0.02753 0.33224 0.37645 0.0
C281 C 0.98235 0.30462 0.42243 0.0
C282 C 0.98684 0.2656 0.40439 0.0
C283 C 0.01212 0.26533 0.37731 0.0
C284 C 0.01697 0.22766 0.36072 0.0
C285 C 0.04581 0.22741 0.33536 0.0
C286 C 0.06658 0.26383 0.3254 0.0
C287 C 0.05924 0.30122 0.34035 0.0
C288 C 0.03234 0.30217 0.36596 0.0
H289 H 0.96377 0.18483 0.31351 0.0
C290 C 0.97656 0.15531 0.32192 0.0
H291 H 0.00559 0.12414 0.35889 0.0
H292 H 0.93752 0.25479 0.45573 0.0
H293 H 0.89959 0.19143 0.47153 0.0
H294 H 0.90343 0.1275 0.44077 0.0
H295 H 0.94566 0.12637 0.39417 0.0
C296 C 0.99286 0.15339 0.35002 0.0
C297 C -0.00678 0.1912 0.36967 0.0
C298 C 0.96807 0.19144 0.39672 0.0
C299 C 0.96515 0.22857 0.41419 0.0
C300 C 0.94033 0.22769 0.44135 0.0
C301 C 0.91844 0.1915 0.45073 0.0
C302 C 0.92065 0.15549 0.43342 0.0
C303 C 0.94506 0.15528 0.40671 0.0
H304 H 0.66404 1.00653 0.8882 0.0
C305 C 0.67694 1.00688 0.91104 0.0
H306 H 0.73459 0.00874 0.93862 0.0
H307 H 0.8747 0.93408 0.84778 0.0
H308 H 0.87822 0.88565 0.88921 0.0
H309 H 0.8242 0.89025 0.93115 0.0
H310 H 0.76694 0.94393 0.93218 0.0
C311 C 0.72163 0.00778 0.9158 0.0
C312 C 0.75415 1.00539 0.8903 0.0
C313 C 0.78653 0.97289 0.88955 0.0
C314 C 0.81666 0.96934 0.86481 0.0
C315 C 0.85006 0.93774 0.86546 0.0
C316 C 0.85261 0.90969 0.88921 0.0
C317 C 0.82227 0.91232 0.91285 0.0
C318 C 0.78957 0.94344 0.91315 0.0
H319 H 0.86746 0.05781 0.81981 0.0
C320 C 0.87339 0.028 0.80884 0.0
H321 H 0.85332 0.96521 0.80481 0.0
H322 H 0.70397 0.07739 0.88727 0.0
H323 H 0.69538 0.12204 0.84385 0.0
H324 H 0.73737 0.10773 0.79715 0.0
H325 H 0.78982 0.04988 0.79426 0.0
C326 C 0.84704 0.99513 0.81549 0.0
C327 C 0.81321 0.99734 0.84025 0.0
C328 C 0.77945 0.0287 0.84044 0.0
C329 C 0.75192 0.03436 0.86624 0.0
C330 C 0.72296 0.06947 0.86736 0.0
C331 C 0.71811 0.0957 0.8427 0.0
C332 C 0.74197 0.08782 0.8165 0.0
C333 C 0.77232 0.05477 0.81526 0.0
H334 H 0.03928 0.70068 0.39879 0.0
C335 C 0.02105 0.70421 0.41983 0.0
H336 H 0.98593 0.74719 0.44751 0.0
H337 H 0.07891 0.89408 0.37059 0.0
H338 H 0.12758 0.895 0.4143 0.0
H339 H 0.11969 0.84184 0.45391 0.0
H340 H 0.06324 0.78707 0.44983 0.0
C341 C 0.00204 0.74129 0.42606 0.0
C342 C 0.00361 0.77575 0.40378 0.0
C343 C 0.03562 0.80834 0.40696 0.0
C344 C 0.03942 0.83958 0.38442 0.0
C345 C 0.07347 0.87037 0.38742 0.0
C346 C 0.10189 0.8711 0.41233 0.0
C347 C 0.0975 0.84112 0.43461 0.0
C348 C 0.06496 0.8099 0.43201 0.0
H349 H -0.00325 0.92235 0.3595 0.0
C350 C 0.00561 0.91008 0.33754 0.0
H351 H 0.02298 0.85691 0.31216 0.0
H352 H 0.93601 0.71964 0.39236 0.0
H353 H 0.88571 0.71946 0.34941 0.0
H354 H 0.89134 0.77403 0.31064 0.0
H355 H 0.94724 0.82906 0.31456 0.0
C356 C 0.0153 0.86935 0.33428 0.0
C357 C 0.01021 0.83872 0.35916 0.0
C358 C 0.97717 0.80678 0.35656 0.0
C359 C 0.97386 0.77532 0.3789 0.0
C360 C 0.94035 0.74401 0.37585 0.0
C361 C 0.91112 0.74363 0.35137 0.0
C362 C 0.91429 0.77435 0.32955 0.0
C363 C 0.94673 0.80567 0.33202 0.0
loop_
_geom_bond_atom_site_label_1
_geom_bond_atom_site_label_2
_geom_bond_distance
_geom_bond_site_symmetry_2
_ccdc_geom_bond_type
H0 C19 0.949 . S
H1 C20 0.950 . S
H2 C22 0.950 . S
H3 C23 0.950 . S
H4 C25 0.954 . S
H5 C28 0.950 . S
H6 C29 0.950 . S
H7 C31 0.951 . S
H8 C32 0.949 . S
H9 C34 0.949 . S
H10 C35 0.950 . S
H11 C37 0.950 . S
H12 C38 0.950 . S
H13 C40 0.950 . S
H14 C43 0.950 . S
H15 C44 0.950 . S
H16 C46 0.951 . S
H17 C47 0.949 . S
C18 C19 1.376 1_545 S
C18 C23 1.386 . S
C18 C24 1.483 . S
C19 H0 0.949 . S
C19 C18 1.376 1_565 S
C19 C20 1.397 . S
C20 H1 0.950 . S
C20 C19 1.397 . S
C20 C21 1.391 1_565 S
C21 C20 1.391 1_545 S
C21 C22 1.405 . S
C22 H2 0.950 . S
C22 C21 1.405 . S
C22 C23 1.367 . S
C23 H3 0.950 . S
C23 C18 1.386 . S
C23 C22 1.367 . S
C24 C18 1.483 . S
C24 C25 1.380 1_545 S
C24 C26 1.403 1_554 S
C25 H4 0.954 . S
C25 C24 1.380 1_565 S
C25 C41 1.410 1_565 S
C26 C24 1.403 1_556 S
C26 C27 1.489 . S
C26 C40 1.411 . S
C27 C26 1.489 . S
C27 C28 1.383 1_545 S
C27 C32 1.382 . S
C28 H5 0.950 . S
C28 C27 1.383 1_565 S
C28 C29 1.395 . S
C29 H6 0.950 . S
C29 C28 1.395 . S
C29 C30 1.288 1_565 S
C30 C29 1.288 1_545 S
C30 C31 1.392 . S
C31 H7 0.951 . S
C31 C30 1.392 . S
C31 C32 1.392 . S
C32 H8 0.949 . S
C32 C27 1.382 . S
C32 C31 1.392 . S
C33 C34 1.376 . S
C33 C38 1.386 1_545 S
C33 C39 1.483 . S
C34 H9 0.949 . S
C34 C33 1.376 . S
C34 C35 1.397 . S
C35 H10 0.950 . S
C35 C34 1.397 . S
C35 C36 1.391 . S
C36 C35 1.391 . S
C36 C37 1.405 1_545 S
C37 H11 0.950 . S
C37 C36 1.405 1_565 S
C37 C38 1.367 . S
C38 H12 0.950 . S
C38 C33 1.386 1_565 S
C38 C37 1.367 . S
C39 C33 1.483 . S
C39 C40 1.382 . S
C39 C41 1.403 1_556 S
C40 H13 0.950 . S
C40 C26 1.411 . S
C40 C39 1.382 . S
C41 C25 1.410 1_545 S
C41 C39 1.403 1_554 S
C41 C42 1.489 . S
C42 C41 1.489 . S
C42 C43 1.383 . S
C42 C47 1.382 1_545 S
C43 H14 0.950 . S
C43 C42 1.383 . S
C43 C44 1.395 . S
C44 H15 0.950 . S
C44 C43 1.395 . S
C44 C45 1.288 . S
C45 C44 1.288 . S
C45 C46 1.392 1_545 S
C46 H16 0.951 . S
C46 C45 1.392 1_565 S
C46 C47 1.392 . S
C47 H17 0.949 . S
C47 C42 1.382 1_565 S
C47 C46 1.392 . S
H48 C67 0.949 . S
H49 C68 0.950 . S
H50 C70 0.950 . S
H51 C71 0.950 . S
H52 C73 0.950 . S
H53 C76 0.950 . S
H54 C77 0.950 . S
H55 C79 0.951 . S
H56 C80 0.949 . S
H57 C82 0.949 . S
H58 C83 0.950 . S
H59 C85 0.950 . S
H60 C86 0.950 . S
H61 C88 0.950 . S
H62 C91 0.950 . S
H63 C92 0.950 . S
H64 C94 0.951 . S
H65 C95 0.949 . S
C66 C67 1.376 . S
C66 C71 1.386 1_455 S
C66 C72 1.483 . S
C67 H48 0.949 . S
C67 C66 1.376 . S
C67 C68 1.397 . S
C68 H49 0.950 . S
C68 C67 1.397 . S
C68 C69 1.391 . S
C69 C68 1.391 . S
C69 C70 1.405 1_455 S
C70 H50 0.950 . S
C70 C69 1.405 1_655 S
C70 C71 1.367 . S
C71 H51 0.950 . S
C71 C66 1.386 1_655 S
C71 C70 1.367 . S
C72 C66 1.483 . S
C72 C73 1.382 . S
C72 C74 1.403 1_455 S
C73 H52 0.950 . S
C73 C72 1.382 . S
C73 C89 1.411 . S
C74 C72 1.403 1_655 S
C74 C75 1.489 . S
C74 C88 1.411 . S
C75 C74 1.489 . S
C75 C76 1.383 1_655 S
C75 C80 1.382 . S
C76 H53 0.950 . S
C76 C75 1.383 1_455 S
C76 C77 1.395 . S
C77 H54 0.950 . S
C77 C76 1.395 . S
C77 C78 1.278 1_455 S
C78 C77 1.278 1_655 S
C78 C79 1.401 . S
C79 H55 0.951 . S
C79 C78 1.401 . S
C79 C80 1.392 . S
C80 H56 0.949 . S
C80 C75 1.382 . S
C80 C79 1.392 . S
C81 C82 1.375 1_455 S
C81 C86 1.387 . S
C81 C87 1.483 . S
C82 H57 0.949 . S
C82 C81 1.375 1_655 S
C82 C83 1.397 . S
C83 H58 0.950 . S
C83 C82 1.397 . S
C83 C84 1.391 1_655 S
C84 C83 1.391 1_455 S
C84 C85 1.405 . S
C85 H59 0.950 . S
C85 C84 1.405 . S
C85 C86 1.367 . S
C86 H60 0.950 . S
C86 C81 1.387 . S
C86 C85 1.367 . S
C87 C81 1.483 . S
C87 C88 1.381 1_455 S
C87 C89 1.404 . S
C88 H61 0.950 . S
C88 C74 1.411 . S
C88 C87 1.381 1_655 S
C89 C73 1.411 . S
C89 C87 1.404 . S
C89 C90 1.489 . S
C90 C89 1.489 . S
C90 C91 1.383 1_455 S
C90 C95 1.382 . S
C91 H62 0.950 . S
C91 C90 1.383 1_655 S
C91 C92 1.395 . S
C92 H63 0.950 . S
C92 C91 1.395 . S
C92 C93 1.288 1_655 S
C93 C92 1.288 1_455 S
C93 C94 1.392 . S
C94 H64 0.951 . S
C94 C93 1.392 . S
C94 C95 1.392 . S
C95 H65 0.949 . S
C95 C90 1.382 . S
C95 C94 1.392 . S
O96 Cd97 2.223 1_655 S
O96 C104 1.315 . S
Cd97 O96 2.223 1_455 S
Cd97 O100 2.297 1_455 S
Cd97 O101 2.439 1_455 S
Cd97 O107 2.240 1_565 S
Cd98 O99 2.263 . S
Cd98 O106 2.223 1_655 S
Cd98 O108 2.297 1_655 S
Cd98 O109 2.439 1_655 S
O99 Cd98 2.263 . S
O99 C104 1.266 1_545 S
O100 Cd97 2.297 1_655 S
O100 C102 1.247 . S
O101 Cd97 2.439 1_655 S
O101 C102 1.208 . S
C102 O100 1.247 . S
C102 O101 1.208 . S
C103 O108 1.247 . S
C103 O109 1.208 . S
C104 O96 1.315 . S
C104 O99 1.266 1_565 S
C105 O106 1.315 . S
C105 O107 1.279 . S
O106 Cd98 2.223 1_455 S
O106 C105 1.315 . S
O107 Cd97 2.240 1_545 S
O107 C105 1.279 . S
O108 Cd98 2.297 1_455 S
O108 C103 1.247 . S
O109 Cd98 2.439 1_455 S
O109 C103 1.208 . S
O110 Cd111 2.223 1_655 S
O110 C118 1.315 . S
Cd111 O110 2.223 1_455 S
Cd111 O114 2.297 1_455 S
Cd111 O115 2.439 1_455 S
Cd111 O121 2.259 . S
Cd112 O113 2.240 1_565 S
Cd112 O120 2.223 1_655 S
Cd112 O122 2.297 1_655 S
Cd112 O123 2.439 1_655 S
O113 Cd112 2.240 1_545 S
O113 C118 1.279 . S
O114 Cd111 2.297 1_655 S
O114 C116 1.247 . S
O115 Cd111 2.439 1_655 S
O115 C116 1.208 . S
C116 O114 1.247 . S
C116 O115 1.208 . S
C117 O122 1.247 . S
C117 O123 1.208 . S
C118 O110 1.315 . S
C118 O113 1.279 . S
C119 O120 1.315 . S
C119 O121 1.268 1_565 S
O120 Cd112 2.223 1_455 S
O120 C119 1.315 . S
O121 Cd111 2.259 . S
O121 C119 1.268 1_545 S
O122 Cd112 2.297 1_455 S
O122 C117 1.247 . S
O123 Cd112 2.439 1_455 S
O123 C117 1.208 . S
H124 C125 0.951 . S
C125 H124 0.951 . S
C125 C131 1.265 . S
H126 C131 0.950 1_565 S
H127 C135 0.949 . S
H128 C136 0.950 . S
H129 C137 0.951 . S
H130 C138 0.951 . S
C131 C125 1.265 . S
C131 H126 0.950 1_545 S
C131 C132 1.478 . S
C132 C131 1.478 . S
C132 C133 1.397 1_545 S
C132 C149 1.394 . S
C133 C132 1.397 1_565 S
C133 C134 1.438 . S
C133 C138 1.429 . S
C134 C133 1.438 . S
C134 C135 1.428 . S
C134 C147 1.394 1_565 S
C135 H127 0.949 . S
C135 C134 1.428 . S
C135 C136 1.345 . S
C136 H128 0.950 . S
C136 C135 1.345 . S
C136 C137 1.424 . S
C137 H129 0.951 . S
C137 C136 1.424 . S
C137 C138 1.347 . S
C138 H130 0.951 . S
C138 C133 1.429 . S
C138 C137 1.347 . S
H139 C140 0.951 . S
C140 H139 0.951 . S
C140 C146 1.265 . S
H141 C146 0.950 . S
H142 C150 0.949 . S
H143 C151 0.950 . S
H144 C152 0.951 . S
H145 C153 0.951 . S
C146 C140 1.265 . S
C146 H141 0.950 . S
C146 C147 1.478 . S
C147 C134 1.394 1_545 S
C147 C146 1.478 . S
C147 C148 1.397 . S
C148 C147 1.397 . S
C148 C149 1.438 . S
C148 C153 1.429 . S
C149 C132 1.394 . S
C149 C148 1.438 . S
C149 C150 1.428 . S
C150 H142 0.949 . S
C150 C149 1.428 . S
C150 C151 1.345 . S
C151 H143 0.950 . S
C151 C150 1.345 . S
C151 C152 1.424 . S
C152 H144 0.951 . S
C152 C151 1.424 . S
C152 C153 1.347 . S
C153 H145 0.951 . S
C153 C148 1.429 . S
C153 C152 1.347 . S
H154 C155 0.951 . S
C155 H154 0.951 . S
C155 C161 1.265 1_655 S
H156 C161 0.950 . S
H157 C165 0.949 . S
H158 C166 0.950 . S
H159 C167 0.951 . S
H160 C168 0.951 . S
C161 C155 1.265 1_455 S
C161 H156 0.950 . S
C161 C162 1.478 . S
C162 C161 1.478 . S
C162 C163 1.397 . S
C162 C179 1.393 1_455 S
C163 C162 1.397 . S
C163 C164 1.438 . S
C163 C168 1.429 . S
C164 C163 1.438 . S
C164 C165 1.428 . S
C164 C177 1.394 1_455 S
C165 H157 0.949 . S
C165 C164 1.428 . S
C165 C166 1.345 . S
C166 H158 0.950 . S
C166 C165 1.345 . S
C166 C167 1.424 . S
C167 H159 0.951 . S
C167 C166 1.424 . S
C167 C168 1.347 . S
C168 H160 0.951 . S
C168 C163 1.429 . S
C168 C167 1.347 . S
H169 C170 0.951 1_455 S
C170 H169 0.951 1_655 S
C170 C176 1.265 . S
H171 C176 0.950 . S
H172 C180 0.949 . S
H173 C181 0.950 . S
H174 C182 0.951 . S
H175 C183 0.951 . S
C176 C170 1.265 . S
C176 H171 0.950 . S
C176 C177 1.478 . S
C177 C164 1.394 1_655 S
C177 C176 1.478 . S
C177 C178 1.397 . S
C178 C177 1.397 . S
C178 C179 1.438 . S
C178 C183 1.429 . S
C179 C162 1.393 1_655 S
C179 C178 1.438 . S
C179 C180 1.428 . S
C180 H172 0.949 . S
C180 C179 1.428 . S
C180 C181 1.345 . S
C181 H173 0.950 . S
C181 C180 1.345 . S
C181 C182 1.424 . S
C182 H174 0.951 . S
C182 C181 1.424 . S
C182 C183 1.347 . S
C183 H175 0.951 . S
C183 C178 1.429 . S
C183 C182 1.347 . S
H184 C185 0.951 . S
C185 H184 0.951 . S
C185 C191 1.265 1_545 S
H186 C191 0.950 . S
H187 C195 0.949 . S
H188 C196 0.950 . S
H189 C197 0.951 . S
H190 C198 0.951 . S
C191 C185 1.265 1_565 S
C191 H186 0.950 . S
C191 C192 1.478 . S
C192 C191 1.478 . S
C192 C193 1.397 1_565 S
C192 C209 1.394 . S
C193 C192 1.397 1_545 S
C193 C194 1.438 . S
C193 C198 1.429 . S
C194 C193 1.438 . S
C194 C195 1.428 . S
C194 C207 1.394 1_545 S
C195 H187 0.949 . S
C195 C194 1.428 . S
C195 C196 1.345 . S
C196 H188 0.950 . S
C196 C195 1.345 . S
C196 C197 1.424 . S
C197 H189 0.951 . S
C197 C196 1.424 . S
C197 C198 1.347 . S
C198 H190 0.951 . S
C198 C193 1.429 . S
C198 C197 1.347 . S
H199 C200 0.951 . S
C200 H199 0.951 . S
C200 C206 1.265 . S
H201 C206 0.950 1_545 S
H202 C210 0.949 . S
H203 C211 0.950 . S
H204 C212 0.951 . S
H205 C213 0.951 . S
C206 C200 1.265 . S
C206 H201 0.950 1_565 S
C206 C207 1.478 . S
C207 C194 1.394 1_565 S
C207 C206 1.478 . S
C207 C208 1.397 . S
C208 C207 1.397 . S
C208 C209 1.438 . S
C208 C213 1.429 . S
C209 C192 1.394 . S
C209 C208 1.438 . S
C209 C210 1.428 . S
C210 H202 0.949 . S
C210 C209 1.428 . S
C210 C211 1.345 . S
C211 H203 0.950 . S
C211 C210 1.345 . S
C211 C212 1.424 . S
C212 H204 0.951 . S
C212 C211 1.424 . S
C212 C213 1.347 . S
C213 H205 0.951 . S
C213 C208 1.429 . S
C213 C212 1.347 . S
H214 C215 0.951 . S
C215 H214 0.951 . S
C215 C221 1.265 1_455 S
H216 C221 0.950 . S
H217 C225 0.949 . S
H218 C226 0.950 . S
H219 C227 0.951 . S
H220 C228 0.951 . S
C221 C215 1.265 1_655 S
C221 H216 0.950 . S
C221 C222 1.478 1_655 S
C222 C221 1.478 1_455 S
C222 C223 1.397 . S
C222 C239 1.394 . S
C223 C222 1.397 . S
C223 C224 1.438 . S
C223 C228 1.429 1_455 S
C224 C223 1.438 . S
C224 C225 1.428 . S
C224 C237 1.394 . S
C225 H217 0.949 . S
C225 C224 1.428 . S
C225 C226 1.345 . S
C226 H218 0.950 . S
C226 C225 1.345 . S
C226 C227 1.424 1_455 S
C227 H219 0.951 . S
C227 C226 1.424 1_655 S
C227 C228 1.347 . S
C228 H220 0.951 . S
C228 C223 1.429 1_655 S
C228 C227 1.347 . S
H229 C230 0.951 1_655 S
C230 H229 0.951 1_455 S
C230 C236 1.265 . S
H231 C236 0.950 . S
H232 C240 0.949 . S
H233 C241 0.950 . S
H234 C242 0.951 . S
H235 C243 0.951 . S
C236 C230 1.265 . S
C236 H231 0.950 . S
C236 C237 1.478 . S
C237 C224 1.394 . S
C237 C236 1.478 . S
C237 C238 1.397 . S
C238 C237 1.397 . S
C238 C239 1.438 . S
C238 C243 1.429 . S
C239 C222 1.394 . S
C239 C238 1.438 . S
C239 C240 1.428 . S
C240 H232 0.949 . S
C240 C239 1.428 . S
C240 C241 1.345 . S
C241 H233 0.950 . S
C241 C240 1.345 . S
C241 C242 1.424 . S
C242 H234 0.951 . S
C242 C241 1.424 . S
C242 C243 1.347 . S
C243 H235 0.951 . S
C243 C238 1.429 . S
C243 C242 1.347 . S
H244 C245 0.951 1_565 S
C245 H244 0.951 1_545 S
C245 C251 1.265 . S
H246 C251 0.950 . S
H247 C255 0.949 . S
H248 C256 0.950 . S
H249 C257 0.951 . S
H250 C258 0.951 . S
C251 C245 1.265 . S
C251 H246 0.950 . S
C251 C252 1.478 . S
C252 C251 1.478 . S
C252 C253 1.397 . S
C252 C269 1.394 1_545 S
C253 C252 1.397 . S
C253 C254 1.438 . S
C253 C258 1.429 . S
C254 C253 1.438 . S
C254 C255 1.428 . S
C254 C267 1.394 1_545 S
C255 H247 0.949 . S
C255 C254 1.428 . S
C255 C256 1.345 . S
C256 H248 0.950 . S
C256 C255 1.345 . S
C256 C257 1.424 . S
C257 H249 0.951 . S
C257 C256 1.424 . S
C257 C258 1.347 . S
C258 H250 0.951 . S
C258 C253 1.429 . S
C258 C257 1.347 . S
H259 C260 0.951 . S
C260 H259 0.951 . S
C260 C266 1.265 . S
H261 C266 0.950 . S
H262 C270 0.949 . S
H263 C271 0.950 . S
H264 C272 0.951 . S
H265 C273 0.951 . S
C266 C260 1.265 . S
C266 H261 0.950 . S
C266 C267 1.478 . S
C267 C254 1.394 1_565 S
C267 C266 1.478 . S
C267 C268 1.397 . S
C268 C267 1.397 . S
C268 C269 1.438 . S
C268 C273 1.429 . S
C269 C252 1.394 1_565 S
C269 C268 1.438 . S
C269 C270 1.428 . S
C270 H262 0.949 . S
C270 C269 1.428 . S
C270 C271 1.345 . S
C271 H263 0.950 . S
C271 C270 1.345 . S
C271 C272 1.424 . S
C272 H264 0.951 . S
C272 C271 1.424 . S
C272 C273 1.347 . S
C273 H265 0.951 . S
C273 C268 1.429 . S
C273 C272 1.347 . S
H274 C275 0.951 . S
C275 H274 0.951 . S
C275 C281 1.265 1_455 S
H276 C281 0.950 . S
H277 C285 0.944 1_455 S
H278 C286 0.950 . S
H279 C287 0.951 . S
H280 C288 0.951 . S
C281 C275 1.265 1_655 S
C281 H276 0.950 . S
C281 C282 1.478 1_655 S
C282 C281 1.478 1_455 S
C282 C283 1.397 1_455 S
C282 C299 1.394 . S
C283 C282 1.397 1_655 S
C283 C284 1.438 1_655 S
C283 C288 1.429 . S
C284 C283 1.438 1_455 S
C284 C285 1.425 1_455 S
C284 C297 1.394 . S
C285 H277 0.944 1_655 S
C285 C284 1.425 1_655 S
C285 C286 1.353 . S
C286 H278 0.950 . S
C286 C285 1.353 . S
C286 C287 1.424 . S
C287 H279 0.951 . S
C287 C286 1.424 . S
C287 C288 1.347 . S
C288 H280 0.951 . S
C288 C283 1.429 . S
C288 C287 1.347 . S
H289 C290 0.951 1_655 S
C290 H289 0.951 1_455 S
C290 C296 1.265 . S
H291 C296 0.950 . S
H292 C300 0.949 . S
H293 C301 0.950 . S
H294 C302 0.951 . S
H295 C303 0.951 . S
C296 C290 1.265 . S
C296 H291 0.950 . S
C296 C297 1.478 . S
C297 C284 1.394 . S
C297 C296 1.478 . S
C297 C298 1.397 . S
C298 C297 1.397 . S
C298 C299 1.438 . S
C298 C303 1.429 . S
C299 C282 1.394 . S
C299 C298 1.438 . S
C299 C300 1.428 . S
C300 H292 0.949 . S
C300 C299 1.428 . S
C300 C301 1.345 . S
C301 H293 0.950 . S
C301 C300 1.345 . S
C301 C302 1.424 . S
C302 H294 0.951 . S
C302 C301 1.424 . S
C302 C303 1.347 . S
C303 H295 0.951 . S
C303 C298 1.429 . S
C303 C302 1.347 . S
H304 C305 0.952 . S
C305 H304 0.952 . S
C305 C311 1.265 . S
H306 C311 0.950 . S
H307 C315 0.949 . S
H308 C316 0.950 . S
H309 C317 0.951 . S
H310 C318 0.951 . S
C311 C305 1.265 . S
C311 H306 0.950 . S
C311 C312 1.478 . S
C312 C311 1.478 . S
C312 C313 1.397 1_545 S
C312 C329 1.394 . S
C313 C312 1.397 1_565 S
C313 C314 1.438 . S
C313 C318 1.429 . S
C314 C313 1.438 . S
C314 C315 1.428 . S
C314 C327 1.394 1_565 S
C315 H307 0.949 . S
C315 C314 1.428 . S
C315 C316 1.345 . S
C316 H308 0.950 . S
C316 C315 1.345 . S
C316 C317 1.424 . S
C317 H309 0.951 . S
C317 C316 1.424 . S
C317 C318 1.347 . S
C318 H310 0.951 . S
C318 C313 1.429 . S
C318 C317 1.347 . S
H319 C320 0.951 . S
C320 H319 0.951 . S
C320 C326 1.265 . S
H321 C326 0.950 . S
H322 C330 0.949 . S
H323 C331 0.950 . S
H324 C332 0.951 . S
H325 C333 0.951 . S
C326 C320 1.265 . S
C326 H321 0.950 . S
C326 C327 1.478 . S
C327 C314 1.394 1_545 S
C327 C326 1.478 . S
C327 C328 1.397 . S
C328 C327 1.397 . S
C328 C329 1.438 . S
C328 C333 1.429 . S
C329 C312 1.394 . S
C329 C328 1.438 . S
C329 C330 1.428 . S
C330 H322 0.949 . S
C330 C329 1.428 . S
C330 C331 1.345 . S
C331 H323 0.950 . S
C331 C330 1.345 . S
C331 C332 1.424 . S
C332 H324 0.951 . S
C332 C331 1.424 . S
C332 C333 1.347 . S
C333 H325 0.951 . S
C333 C328 1.429 . S
C333 C332 1.347 . S
H334 C335 0.951 . S
C335 H334 0.951 . S
C335 C341 1.265 1_455 S
H336 C341 0.950 . S
H337 C345 0.949 . S
H338 C346 0.950 . S
H339 C347 0.951 . S
H340 C348 0.951 . S
C341 C335 1.265 1_655 S
C341 H336 0.950 . S
C341 C342 1.478 . S
C342 C341 1.478 . S
C342 C343 1.397 . S
C342 C359 1.394 . S
C343 C342 1.397 . S
C343 C344 1.438 . S
C343 C348 1.429 . S
C344 C343 1.438 . S
C344 C345 1.428 . S
C344 C357 1.394 . S
C345 H337 0.949 . S
C345 C344 1.428 . S
C345 C346 1.345 . S
C346 H338 0.950 . S
C346 C345 1.345 . S
C346 C347 1.424 . S
C347 H339 0.951 . S
C347 C346 1.424 . S
C347 C348 1.347 . S
C348 H340 0.951 . S
C348 C343 1.429 . S
C348 C347 1.347 . S
H349 C350 0.951 . S
C350 H349 0.951 . S
C350 C356 1.265 . S
H351 C356 0.950 1_455 S
H352 C360 0.949 . S
H353 C361 0.950 . S
H354 C362 0.951 . S
H355 C363 0.951 . S
C356 C350 1.265 . S
C356 H351 0.950 1_655 S
C356 C357 1.478 . S
C357 C344 1.394 . S
C357 C356 1.478 . S
C357 C358 1.397 . S
C358 C357 1.397 . S
C358 C359 1.438 . S
C358 C363 1.429 . S
C359 C342 1.394 . S
C359 C358 1.438 . S
C359 C360 1.428 . S
C360 H352 0.949 . S
C360 C359 1.428 . S
C360 C361 1.345 . S
C361 H353 0.950 . S
C361 C360 1.345 . S
C361 C362 1.424 . S
C362 H354 0.951 . S
C362 C361 1.424 . S
C362 C363 1.347 . S
C363 H355 0.951 . S
C363 C358 1.429 . S
C363 C362 1.347 . S
C140 C105 1.630 . S
C125 C45 1.612 . S
C170 C116 1.531 . S
C155 C78 1.580 . S
C200 C104 1.626 . S
C185 C21 1.625 . S
C230 C117 1.492 . S
C215 C84 1.605 . S
C260 C119 1.631 . S
C245 C36 1.623 . S
C290 C103 1.499 . S
C275 C69 1.592 . S
C320 C118 1.628 . S
C305 C30 1.607 . S
C335 C93 1.603 . S
C350 C102 1.586 . S
