# Generated by pormake.
# Topology pts, (4,4)-cn, num edge types: 1
# Building blocks:
#     Node 0, Type 0, BuildingBlock: GIZVER_clean_linker_0, # of connection points: 4
#     Node 1, Type 0, BuildingBlock: GIZVER_clean_linker_0, # of connection points: 4
#     Node 2, Type 1, BuildingBlock: AZAVOO_clean_sbu_0, # of connection points: 4
#     Node 3, Type 1, BuildingBlock: AZAVOO_clean_sbu_0, # of connection points: 4
#     Edge 4, Type (0, 1), BuildingBlock: UVAHIK_clean_linker_0, # of connection points: 2
#     Edge 5, Type (0, 1), BuildingBlock: UVAHIK_clean_linker_0, # of connection points: 2
#     Edge 6, Type (0, 1), BuildingBlock: UVAHIK_clean_linker_0, # of connection points: 2
#     Edge 7, Type (0, 1), BuildingBlock: UVAHIK_clean_linker_0, # of connection points: 2
#     Edge 8, Type (0, 1), BuildingBlock: UVAHIK_clean_linker_0, # of connection points: 2
#     Edge 9, Type (0, 1), BuildingBlock: UVAHIK_clean_linker_0, # of connection points: 2
#     Edge 10, Type (0, 1), BuildingBlock: UVAHIK_clean_linker_0, # of connection points: 2
#     Edge 11, Type (0, 1), BuildingBlock: UVAHIK_clean_linker_0, # of connection points: 2
# Relax obj value: 0.014
# Max RMSD: 0.078
# Mean RMSD: 0.071
data_MOF--net-pts--node1-AZAVOO_clean_sbu_0--node2-GIZVER_clean_linker_0--edge1-UVAHIK_clean_linker_0
_symmetry_space_group_name_H-M    P1
_symmetry_Int_Tables_number       1
_symmetry_cell_setting            triclinic
loop_
_symmetry_equiv_pos_as_xyz
'x, y, z'
_cell_length_a     32.296167
_cell_length_b     33.849715
_cell_length_c     44.648704
_cell_angle_alpha  90.319355
_cell_angle_beta   96.008744
_cell_angle_gamma 89.743173
loop_
_atom_site_label
_atom_site_type_symbol
_atom_site_fract_x
_atom_site_fract_y
_atom_site_fract_z
_atom_type_partial_charge
H0 H 0.58669 0.0851 0.03333 0.0
H1 H 0.5801 0.10673 0.9379 0.0
H2 H 0.68236 0.04069 0.9816 0.0
H3 H 0.54512 0.14211 0.00825 0.0
H4 H 0.53586 0.14376 0.96817 0.0
H5 H 0.50055 0.10417 0.03676 0.0
H6 H 0.397 0.04306 -0.00976 0.0
H7 H 0.49305 0.08932 0.94039 0.0
C8 C 0.59929 0.08095 0.01197 0.0
C9 C 0.6368 0.0599 0.01077 0.0
C10 C 0.57846 0.09771 -0.01427 0.0
C11 C 0.59534 0.09317 0.95809 0.0
C12 C 0.63236 0.07184 0.95661 0.0
C13 C 0.65262 0.05527 -0.01716 0.0
C14 C 0.5404 0.12329 -0.01233 0.0
C15 C 0.50158 0.09877 -0.0115 0.0
C16 C 0.48494 0.09239 0.01597 0.0
C17 C 0.44762 0.07159 0.01652 0.0
C18 C 0.42693 0.05723 -0.01041 0.0
C19 C 0.44265 0.06351 0.96187 0.0
C20 C 0.48046 0.08399 0.96156 0.0
H21 H 0.11011 0.52998 0.44215 0.0
H22 H 0.12142 0.55451 0.53756 0.0
H23 H 0.06185 0.63837 0.4751 0.0
H24 H 0.16418 0.49596 0.4804 0.0
H25 H 0.1568 0.49834 0.5195 0.0
H26 H 0.12159 0.45331 0.4461 0.0
H27 H 0.03583 0.37471 0.4823 0.0
H28 H 0.09479 0.46664 0.53818 0.0
C29 C 0.10372 0.54878 0.46086 0.0
C30 C 0.08318 0.58498 0.45523 0.0
C31 C 0.11676 0.53717 0.49061 0.0
C32 C 0.11002 0.5626 0.51471 0.0
C33 C 0.09083 0.59946 0.50912 0.0
C34 C 0.07643 0.60975 0.47948 0.0
C35 C 0.14012 0.49888 0.4964 0.0
C36 C 0.11062 0.46447 0.49237 0.0
C37 C 0.1045 0.44445 0.46459 0.0
C38 C 0.07705 0.41244 0.4608 0.0
C39 C 0.05547 0.40069 0.48487 0.0
C40 C 0.06209 0.41962 0.513 0.0
C41 C 0.08935 0.4519 0.51652 0.0
Mg42 Mg 0.07684 0.98151 0.25602 0.0
O43 O 1.01094 0.98733 0.23078 0.0
O44 O 0.96675 0.97935 0.2658 0.0
Mg45 Mg 1.00284 0.96515 0.31132 0.0
C46 C 0.97399 0.98621 0.23872 0.0
C47 C 0.13963 0.98557 0.21137 0.0
O48 O 0.14543 0.95166 0.22538 0.0
O49 O 0.06962 0.04233 0.27737 0.0
O50 O 0.02779 0.02878 0.31279 0.0
O51 O 0.0766 0.91643 0.24708 0.0
O52 O 0.05437 0.94405 0.28729 0.0
C53 C 0.05009 0.05291 0.29955 0.0
C54 C 0.06004 0.91248 0.27203 0.0
O55 O 0.10969 0.00759 0.21771 0.0
Mg56 Mg 1.00266 0.00337 0.71088 0.0
O57 O 0.06763 0.00979 0.73762 0.0
O58 O 0.11323 0.00737 0.70306 0.0
Mg59 Mg 0.0796 0.99499 0.65643 0.0
C60 C 0.10487 0.0113 0.73026 0.0
C61 C 0.93914 1.00148 0.75582 0.0
O62 O 0.93525 0.96772 0.74118 0.0
O63 O 1.00708 0.06619 0.69259 0.0
O64 O 0.05001 0.05661 0.65705 0.0
O65 O 1.00551 0.93736 0.71596 0.0
O66 O 0.02847 0.96975 0.67842 0.0
C67 C 0.02605 0.07881 0.67084 0.0
C68 C 0.02362 0.93656 0.69146 0.0
O69 O 0.96763 0.02511 0.74981 0.0
C70 C 0.4122 0.10056 0.0587 0.0
C71 C 0.42735 0.0672 0.04446 0.0
C72 C 0.38493 0.09613 0.08085 0.0
C73 C 0.3444 0.02437 0.13243 0.0
H74 H 0.23963 0.08065 0.11598 0.0
C75 C 0.19778 0.97082 0.18058 0.0
C76 C 0.17038 0.99866 0.19121 0.0
C77 C 0.23021 0.98278 0.16449 0.0
C78 C 0.26889 0.0652 0.12126 0.0
H79 H 0.42795 0.00332 0.04296 0.0
H80 H 0.38132 0.99542 0.08218 0.0
H81 H 0.29775 0.09599 0.08716 0.0
H82 H 0.1547 0.06092 0.19249 0.0
H83 H 0.212 0.08208 0.16449 0.0
H84 H 0.31578 0.99333 0.16629 0.0
C85 C 0.39027 0.02496 0.07631 0.0
C86 C 0.30221 0.07403 0.10477 0.0
C87 C 0.41693 0.02941 0.05391 0.0
C88 C 0.17524 0.03877 0.18446 0.0
C89 C 0.20808 0.05086 0.16846 0.0
C90 C 0.31131 0.01578 0.14905 0.0
C91 C 0.37296 0.05825 0.08935 0.0
C92 C 0.33995 0.05301 0.10971 0.0
C93 C 0.23645 0.023 0.15882 0.0
C94 C 0.27275 0.03528 0.14312 0.0
H95 H 0.41943 0.12998 0.05141 0.0
H96 H 0.37223 0.12226 0.09067 0.0
H97 H 0.37331 0.00809 0.13699 0.0
H98 H 0.1946 0.93963 0.1851 0.0
H99 H 0.2506 0.96037 0.15664 0.0
C100 C 0.07187 0.39071 0.56458 0.0
C101 C 0.04493 0.40157 0.5392 0.0
C102 C 0.0587 0.36435 0.5856 0.0
C103 C 0.02374 0.3078 0.62921 0.0
H104 H 0.9705 0.22019 0.58425 0.0
C105 C 1.00327 0.14936 0.6782 0.0
C106 C 0.01965 0.12002 0.66028 0.0
C107 C 0.99798 0.18821 0.6676 0.0
C108 C 0.98491 0.24456 0.59723 0.0
H109 H 0.98186 0.39728 0.51767 0.0
H110 H 0.95838 0.35208 0.55479 0.0
H111 H 0.97525 0.28366 0.55994 0.0
H112 H 0.04275 0.10844 0.61709 0.0
H113 H 0.03309 0.17544 0.59875 0.0
H114 H 0.0356 0.26718 0.66594 0.0
C115 C 0.99006 0.3629 0.55804 0.0
C116 C 0.98728 0.28117 0.58342 0.0
C117 C 1.00337 0.38892 0.53687 0.0
C118 C 0.03018 0.13022 0.63157 0.0
C119 C 0.02434 0.1686 0.62091 0.0
C120 C 0.02122 0.27098 0.64311 0.0
C121 C 0.01823 0.34858 0.58171 0.0
C122 C 1.00808 0.31289 0.59883 0.0
C123 C 1.00817 0.19799 0.63872 0.0
C124 C 1.00324 0.23868 0.62678 0.0
H125 H 0.10417 0.39981 0.56682 0.0
H126 H 0.08137 0.35386 0.60339 0.0
H127 H 0.03952 0.33175 0.64182 0.0
H128 H 0.995 0.14242 0.70046 0.0
H129 H 0.98555 0.21045 0.68177 0.0
C130 C 0.66741 0.0699 0.06455 0.0
C131 C 0.66227 0.046 0.03852 0.0
C132 C 0.69757 0.06044 0.08832 0.0
C133 C 0.79997 0.02244 0.09965 0.0
H134 H 0.78439 1.00084 0.18283 0.0
C135 C 0.93944 0.98197 0.18583 0.0
C136 C 0.938 0.99306 0.21603 0.0
C137 C 0.90447 0.9869 0.16485 0.0
C138 C 0.78952 0.00755 0.15984 0.0
H139 H 0.68218 0.99141 0.01849 0.0
H140 H 0.73589 0.97609 0.05943 0.0
H141 H 0.72381 0.0121 0.14628 0.0
H142 H 0.89942 0.01921 0.2478 0.0
H143 H 0.83947 0.02999 0.21113 0.0
H144 H 0.86532 0.0201 0.11289 0.0
C145 C 0.7166 1.00209 0.06125 0.0
C146 C 0.75468 0.01362 0.13893 0.0
C147 C 0.68599 0.01104 0.03781 0.0
C148 C 0.90127 0.00998 0.2247 0.0
C149 C 0.86669 0.01581 0.20364 0.0
C150 C 0.8348 0.01732 0.1206 0.0
C151 C 0.72335 0.02726 0.08627 0.0
C152 C 0.75971 0.02084 0.10867 0.0
C153 C 0.86753 0.00398 0.17342 0.0
C154 C 0.83018 0.00959 0.15104 0.0
H155 H 0.65001 0.09716 0.06583 0.0
H156 H 0.70241 0.08027 0.10749 0.0
H157 H 0.80447 0.02843 0.07639 0.0
H158 H 0.96723 0.96849 0.1786 0.0
H159 H 0.90633 0.97662 0.14204 0.0
C160 C 0.10256 0.66799 0.52829 0.0
C161 C 0.08918 0.6294 0.53329 0.0
C162 C 0.09728 0.69792 0.54901 0.0
C163 C 0.07939 0.72242 0.62637 0.0
H164 H 0.03018 0.8169 0.58858 0.0
C165 C 0.02816 0.86244 0.69105 0.0
C166 C 0.03669 0.89897 0.67816 0.0
C167 C 0.03601 0.82698 0.67627 0.0
C168 C 0.04431 0.79092 0.59949 0.0
H169 H 0.06229 0.59119 0.56478 0.0
H170 H 0.05292 0.64423 0.60151 0.0
H171 H 0.04107 0.75904 0.55795 0.0
H172 H 0.06194 0.92673 0.64038 0.0
H173 H 0.07638 0.86539 0.61516 0.0
H174 H 0.08295 0.75496 0.66802 0.0
C175 C 0.06733 0.65102 0.58133 0.0
C176 C 0.05042 0.75773 0.58195 0.0
C177 C 0.07264 0.62079 0.56039 0.0
C178 C 0.05493 0.89926 0.65098 0.0
C179 C 0.06286 0.86402 0.63634 0.0
C180 C 0.07332 0.75591 0.64406 0.0
C181 C 0.07854 0.69007 0.5753 0.0
C182 C 0.06886 0.72346 0.59503 0.0
C183 C 0.05243 0.82754 0.64834 0.0
C184 C 0.05658 0.79079 0.63061 0.0
H185 H 0.11642 0.67523 0.50794 0.0
H186 H 0.10716 0.72755 0.54414 0.0
H187 H 0.09362 0.69629 0.63698 0.0
H188 H 1.01408 0.86124 0.712 0.0
H189 H 0.02762 0.79931 0.68605 0.0
C190 C 0.41183 0.07775 0.9088 0.0
C191 C 0.41679 0.05198 0.93357 0.0
C192 C 0.38132 0.07052 0.88475 0.0
C193 C 0.27828 0.0327 0.87197 0.0
H194 H 0.29312 0.02408 0.78721 0.0
C195 C 0.13893 1.00178 0.78284 0.0
C196 C 0.14007 0.01708 0.7538 0.0
C197 C 0.17375 0.00479 0.80421 0.0
C198 C 0.28818 0.02718 0.8107 0.0
H199 H 0.39615 0.99642 0.95094 0.0
H200 H 0.34191 0.98489 0.90956 0.0
H201 H 0.35389 0.03118 0.82422 0.0
H202 H 0.17772 0.04895 0.72467 0.0
H203 H 0.23729 0.05637 0.76221 0.0
H204 H 0.21285 0.03083 0.85892 0.0
C205 C 0.36155 0.01068 0.90896 0.0
C206 C 0.32313 0.03087 0.83185 0.0
C207 C 0.3925 0.01744 0.93265 0.0
C208 C 0.17614 0.03649 0.74682 0.0
C209 C 0.21053 0.04036 0.76834 0.0
C210 C 0.24329 0.02995 0.85085 0.0
C211 C 0.35497 0.03771 0.88526 0.0
C212 C 0.31842 0.03343 0.86264 0.0
C213 C 0.21018 0.02404 0.79724 0.0
C214 C 0.24764 0.02702 0.81986 0.0
H215 H 0.42967 0.10476 0.9088 0.0
H216 H 0.37668 0.09176 0.86663 0.0
H217 H 0.27395 0.03513 0.89565 0.0
H218 H 0.11165 0.9863 0.78871 0.0
H219 H 0.17228 0.99118 0.82594 0.0
C220 C 0.10983 0.36771 0.42551 0.0
C221 C 0.07435 0.38772 0.4333 0.0
C222 C 0.10609 0.33756 0.40389 0.0
C223 C 0.09316 0.27696 0.35362 0.0
H224 H 0.99638 0.21169 0.36052 0.0
C225 C 0.06921 0.12434 0.29348 0.0
C226 C 0.05271 0.0944 0.31041 0.0
C227 C 0.0704 0.16355 0.3038 0.0
C228 C 0.02374 0.22942 0.3584 0.0
H229 H 1.00779 0.39461 0.42313 0.0
H230 H 1.00128 0.34352 0.38413 0.0
H231 H 1.00177 0.27516 0.38564 0.0
H232 H 0.02554 0.08215 0.35184 0.0
H233 H 0.02867 0.14968 0.37004 0.0
H234 H 0.11625 0.22951 0.32801 0.0
C235 C 0.03186 0.34978 0.39545 0.0
C236 C 0.02652 0.26637 0.3724 0.0
C237 C 0.03553 0.37935 0.41752 0.0
C238 C 0.03803 0.10446 0.338 0.0
C239 C 0.03952 0.14338 0.34837 0.0
C240 C 0.09058 0.23963 0.33987 0.0
C241 C 0.06679 0.32721 0.38932 0.0
C242 C 0.06166 0.29038 0.37078 0.0
C243 C 0.0553 0.17356 0.33132 0.0
C244 C 0.05629 0.21499 0.34278 0.0
H245 H 0.14004 0.37343 0.43768 0.0
H246 H 0.13369 0.32076 0.40014 0.0
H247 H 0.12035 0.29484 0.35138 0.0
H248 H 0.08068 0.11761 0.27209 0.0
H249 H 0.08255 0.18607 0.29001 0.0
C250 C 0.66365 0.03195 0.91763 0.0
C251 C 0.65276 0.06911 0.92854 0.0
C252 C 0.69008 0.02894 0.89491 0.0
C253 C 0.7767 0.08048 0.8674 0.0
H254 H 0.76326 0.00301 0.80291 0.0
C255 C 0.90223 0.05221 0.78492 0.0
C256 C 0.90798 0.01267 0.77644 0.0
C257 C 0.86944 0.06265 0.8017 0.0
C258 C 0.76771 0.02454 0.82097 0.0
H259 H 0.6596 0.13227 0.92382 0.0
H260 H 0.70636 0.12706 0.88399 0.0
H261 H 0.70627 0.01529 0.83349 0.0
H262 H 0.88521 0.95289 0.78014 0.0
H263 H 0.82925 0.97077 0.80993 0.0
H264 H 0.83872 0.08867 0.85568 0.0
C265 C 0.69424 0.10032 0.89295 0.0
C266 C 0.73492 0.03173 0.83833 0.0
C267 C 0.66722 0.10332 0.91544 0.0
C268 C 0.88137 0.98369 0.78601 0.0
C269 C 0.84896 0.99402 0.80288 0.0
C270 C 0.80971 0.07306 0.85016 0.0
C271 C 0.70665 0.06305 0.88296 0.0
C272 C 0.73932 0.05922 0.86209 0.0
C273 C 0.84197 0.0337 0.81041 0.0
C274 C 0.80592 0.04434 0.82715 0.0
H275 H 0.65312 0.0052 0.92764 0.0
H276 H 0.69937 0.99982 0.88788 0.0
H277 H 0.78113 0.10155 0.88579 0.0
H278 H 0.92213 0.07523 0.77775 0.0
H279 H 0.86492 0.0935 0.80705 0.0
C280 C 0.10591 0.60537 0.406 0.0
C281 C 0.07361 0.60044 0.42435 0.0
C282 C 0.10064 0.63071 0.38127 0.0
C283 C 0.02618 0.69275 0.33301 0.0
H284 H 0.11137 0.77301 0.34798 0.0
C285 C 0.05249 0.8392 0.26531 0.0
C286 C 0.05112 0.873 0.28368 0.0
C287 C 0.05043 0.80142 0.27766 0.0
C288 C 0.08762 0.75063 0.34339 0.0
H289 H 1.00925 0.61434 0.42955 0.0
H290 H 0.99981 0.65824 0.3861 0.0
H291 H 0.11848 0.71079 0.37534 0.0
H292 H 0.04455 0.89379 0.329 0.0
H293 H 0.04205 0.82779 0.35058 0.0
H294 H 0.99513 0.73359 0.30129 0.0
C295 C 0.0292 0.64279 0.3908 0.0
C296 C 0.09184 0.71491 0.35877 0.0
C297 C 0.03461 0.61778 0.4157 0.0
C298 C 0.0456 0.86837 0.31425 0.0
C299 C 0.04427 0.83069 0.32664 0.0
C300 C 0.02235 0.72842 0.31714 0.0
C301 C 0.06286 0.65115 0.37438 0.0
C302 C 0.06082 0.68588 0.35422 0.0
C303 C 0.0476 0.79702 0.30858 0.0
C304 C 0.05263 0.75788 0.32283 0.0
H305 H 0.13634 0.59253 0.41231 0.0
H306 H 0.12697 0.63643 0.36877 0.0
H307 H 1.00177 0.6709 0.32921 0.0
H308 H 0.05665 0.84189 0.24165 0.0
H309 H 0.05321 0.77572 0.26343 0.0
loop_
_geom_bond_atom_site_label_1
_geom_bond_atom_site_label_2
_geom_bond_distance
_geom_bond_site_symmetry_2
_ccdc_geom_bond_type
H0 C8 0.930 . S
H1 C11 0.930 . S
H2 C13 0.921 1_565 S
H3 C14 0.970 . S
H4 C14 0.970 1_556 S
H5 C16 0.930 . S
H6 C18 0.931 . S
H7 C20 0.930 . S
C8 H0 0.930 . S
C8 C9 1.382 . S
C8 C10 1.426 . S
C9 C8 1.382 . S
C9 C13 1.394 . S
C10 C8 1.426 . S
C10 C11 1.375 1_554 S
C10 C14 1.532 . S
C11 H1 0.930 . S
C11 C10 1.375 1_556 S
C11 C12 1.416 . S
C12 C11 1.416 . S
C12 C13 1.375 1_556 S
C13 H2 0.921 1_545 S
C13 C9 1.394 . S
C13 C12 1.375 1_554 S
C14 H3 0.970 . S
C14 H4 0.970 1_554 S
C14 C10 1.532 . S
C14 C15 1.498 . S
C15 C14 1.498 . S
C15 C16 1.393 . S
C15 C20 1.395 1_554 S
C16 H5 0.930 . S
C16 C15 1.393 . S
C16 C17 1.407 . S
C17 C16 1.407 . S
C17 C18 1.365 1_544 S
C18 H6 0.931 . S
C18 C17 1.365 1_566 S
C18 C19 1.392 1_565 S
C19 C18 1.392 1_545 S
C19 C20 1.387 . S
C20 H7 0.930 . S
C20 C15 1.395 1_556 S
C20 C19 1.387 . S
H21 C29 0.930 . S
H22 C32 0.930 . S
H23 C34 0.930 . S
H24 C35 0.970 . S
H25 C35 0.970 . S
H26 C37 0.930 . S
H27 C39 0.930 . S
H28 C41 0.930 . S
C29 H21 0.930 . S
C29 C30 1.382 . S
C29 C31 1.426 . S
C30 C29 1.382 . S
C30 C34 1.389 . S
C31 C29 1.426 . S
C31 C32 1.375 . S
C31 C35 1.532 . S
C32 H22 0.930 . S
C32 C31 1.375 . S
C32 C33 1.416 . S
C33 C32 1.416 . S
C33 C34 1.371 . S
C34 H23 0.930 . S
C34 C30 1.389 . S
C34 C33 1.371 . S
C35 H24 0.970 . S
C35 H25 0.970 . S
C35 C31 1.532 . S
C35 C36 1.499 . S
C36 C35 1.499 . S
C36 C37 1.370 . S
C36 C41 1.415 . S
C37 H26 0.930 . S
C37 C36 1.370 . S
C37 C38 1.407 . S
C38 C37 1.407 . S
C38 C39 1.365 . S
C39 H27 0.930 . S
C39 C38 1.365 . S
C39 C40 1.393 . S
C40 C39 1.393 . S
C40 C41 1.387 . S
C41 H28 0.930 . S
C41 C36 1.415 . S
C41 C40 1.387 . S
Mg42 O43 2.028 . S
Mg42 O49 1.986 . S
Mg42 O51 2.114 1_545 S
Mg42 O52 2.251 1_545 S
Mg42 O55 2.010 . S
O43 Mg42 2.028 . S
O43 C46 1.250 1_455 S
O44 Mg45 2.028 . S
O44 C46 1.248 . S
Mg45 O44 2.028 . S
Mg45 O50 2.032 1_655 S
Mg45 O52 2.079 1_645 S
C46 O43 1.250 1_655 S
C46 O44 1.248 . S
C47 O48 1.264 . S
C47 O55 1.249 . S
O48 C47 1.264 . S
O49 Mg42 1.986 . S
O49 C53 1.246 . S
O50 Mg45 2.032 1_455 S
O50 C53 1.259 . S
O51 Mg42 2.114 1_565 S
O51 C54 1.252 . S
O52 Mg42 2.251 1_565 S
O52 Mg45 2.079 1_465 S
O52 C54 1.273 . S
C53 O49 1.246 . S
C53 O50 1.259 . S
C54 O51 1.252 . S
C54 O52 1.273 . S
O55 Mg42 2.010 . S
O55 C47 1.249 . S
Mg56 O57 2.028 1_655 S
Mg56 O63 1.986 . S
Mg56 O65 2.114 1_545 S
Mg56 O66 2.251 1_645 S
Mg56 O69 2.010 . S
O57 Mg56 2.028 1_455 S
O57 C60 1.250 . S
O58 Mg59 2.028 . S
O58 C60 1.248 . S
Mg59 O58 2.028 . S
Mg59 O64 2.032 . S
Mg59 O66 2.079 1_545 S
C60 O57 1.250 . S
C60 O58 1.248 . S
C61 O62 1.264 . S
C61 O69 1.249 . S
O62 C61 1.264 . S
O63 Mg56 1.986 . S
O63 C67 1.246 1_655 S
O64 Mg59 2.032 . S
O64 C67 1.259 . S
O65 Mg56 2.114 1_565 S
O65 C68 1.252 1_655 S
O66 Mg56 2.251 1_465 S
O66 Mg59 2.079 1_565 S
O66 C68 1.273 . S
C67 O63 1.246 1_455 S
C67 O64 1.259 . S
C68 O65 1.252 1_455 S
C68 O66 1.273 . S
O69 Mg56 2.010 . S
O69 C61 1.249 . S
C70 C71 1.349 . S
C70 C72 1.327 . S
C70 H95 0.950 . S
C71 C70 1.349 . S
C71 C87 1.349 1_545 S
C72 C70 1.327 . S
C72 C91 1.429 . S
C72 H96 0.950 . S
C73 C90 1.574 . S
C73 C92 1.368 1_565 S
C73 H97 0.949 . S
H74 C78 0.949 . S
C75 C76 1.349 1_565 S
C75 C77 1.327 . S
C75 H98 0.950 . S
C76 C75 1.349 1_545 S
C76 C88 1.349 . S
C77 C75 1.327 . S
C77 C93 1.429 1_565 S
C77 H99 0.950 . S
C78 H74 0.949 . S
C78 C86 1.574 . S
C78 C94 1.368 . S
H79 C87 0.950 . S
H80 C85 0.950 . S
H81 C86 0.949 . S
H82 C88 0.950 . S
H83 C89 0.950 . S
H84 C90 0.949 . S
C85 H80 0.950 . S
C85 C87 1.327 . S
C85 C91 1.429 1_565 S
C86 C78 1.574 . S
C86 H81 0.949 . S
C86 C92 1.368 . S
C87 C71 1.349 1_565 S
C87 H79 0.950 . S
C87 C85 1.327 . S
C88 C76 1.349 . S
C88 H82 0.950 . S
C88 C89 1.327 . S
C89 H83 0.950 . S
C89 C88 1.327 . S
C89 C93 1.429 . S
C90 C73 1.574 . S
C90 H84 0.949 . S
C90 C94 1.368 1_565 S
C91 C72 1.429 . S
C91 C85 1.429 1_545 S
C91 C92 1.523 . S
C92 C73 1.368 1_545 S
C92 C86 1.368 . S
C92 C91 1.523 . S
C93 C77 1.429 1_545 S
C93 C89 1.429 . S
C93 C94 1.523 . S
C94 C78 1.368 . S
C94 C90 1.368 1_545 S
C94 C93 1.523 . S
H95 C70 0.950 . S
H96 C72 0.950 . S
H97 C73 0.949 . S
H98 C75 0.950 . S
H99 C77 0.950 . S
C100 C101 1.349 . S
C100 C102 1.327 . S
C100 H125 0.950 . S
C101 C100 1.349 . S
C101 C117 1.349 . S
C102 C100 1.327 . S
C102 C121 1.429 . S
C102 H126 0.950 . S
C103 C120 1.574 . S
C103 C122 1.368 1_655 S
C103 H127 0.949 . S
H104 C108 0.949 . S
C105 C106 1.349 1_655 S
C105 C107 1.327 . S
C105 H128 0.950 . S
C106 C105 1.349 1_455 S
C106 C118 1.349 . S
C107 C105 1.327 . S
C107 C123 1.429 1_655 S
C107 H129 0.950 . S
C108 H104 0.949 . S
C108 C116 1.574 . S
C108 C124 1.368 . S
H109 C117 0.950 1_655 S
H110 C115 0.950 1_655 S
H111 C116 0.949 . S
H112 C118 0.950 . S
H113 C119 0.950 . S
H114 C120 0.949 . S
C115 H110 0.950 1_455 S
C115 C117 1.327 . S
C115 C121 1.429 . S
C116 C108 1.574 . S
C116 H111 0.949 . S
C116 C122 1.368 . S
C117 C101 1.349 . S
C117 H109 0.950 1_455 S
C117 C115 1.327 . S
C118 C106 1.349 . S
C118 H112 0.950 . S
C118 C119 1.327 . S
C119 H113 0.950 . S
C119 C118 1.327 . S
C119 C123 1.429 . S
C120 C103 1.574 . S
C120 H114 0.949 . S
C120 C124 1.368 1_655 S
C121 C102 1.429 . S
C121 C115 1.429 . S
C121 C122 1.523 . S
C122 C103 1.368 1_455 S
C122 C116 1.368 . S
C122 C121 1.523 . S
C123 C107 1.429 1_455 S
C123 C119 1.429 . S
C123 C124 1.523 . S
C124 C108 1.368 . S
C124 C120 1.368 1_455 S
C124 C123 1.523 . S
H125 C100 0.950 . S
H126 C102 0.950 . S
H127 C103 0.949 . S
H128 C105 0.950 . S
H129 C107 0.950 . S
C130 C131 1.349 . S
C130 C132 1.327 . S
C130 H155 0.950 . S
C131 C130 1.349 . S
C131 C147 1.349 1_545 S
C132 C130 1.327 . S
C132 C151 1.429 . S
C132 H156 0.950 . S
C133 C150 1.574 . S
C133 C152 1.368 1_565 S
C133 H157 0.949 . S
H134 C138 0.949 . S
C135 C136 1.349 1_565 S
C135 C137 1.327 . S
C135 H158 0.950 . S
C136 C135 1.349 1_545 S
C136 C148 1.349 . S
C137 C135 1.327 . S
C137 C153 1.429 1_565 S
C137 H159 0.950 . S
C138 H134 0.949 . S
C138 C146 1.574 . S
C138 C154 1.368 . S
H139 C147 0.950 . S
H140 C145 0.950 . S
H141 C146 0.949 . S
H142 C148 0.950 . S
H143 C149 0.950 . S
H144 C150 0.949 . S
C145 H140 0.950 . S
C145 C147 1.327 . S
C145 C151 1.429 1_565 S
C146 C138 1.574 . S
C146 H141 0.949 . S
C146 C152 1.368 . S
C147 C131 1.349 1_565 S
C147 H139 0.950 . S
C147 C145 1.327 . S
C148 C136 1.349 . S
C148 H142 0.950 . S
C148 C149 1.327 . S
C149 H143 0.950 . S
C149 C148 1.327 . S
C149 C153 1.429 . S
C150 C133 1.574 . S
C150 H144 0.949 . S
C150 C154 1.368 1_565 S
C151 C132 1.429 . S
C151 C145 1.429 1_545 S
C151 C152 1.523 . S
C152 C133 1.368 1_545 S
C152 C146 1.368 . S
C152 C151 1.523 . S
C153 C137 1.429 1_545 S
C153 C149 1.429 . S
C153 C154 1.523 . S
C154 C138 1.368 . S
C154 C150 1.368 1_545 S
C154 C153 1.523 . S
H155 C130 0.950 . S
H156 C132 0.950 . S
H157 C133 0.949 . S
H158 C135 0.950 . S
H159 C137 0.950 . S
C160 C161 1.349 . S
C160 C162 1.327 . S
C160 H185 0.950 . S
C161 C160 1.349 . S
C161 C177 1.349 . S
C162 C160 1.327 . S
C162 C181 1.429 . S
C162 H186 0.950 . S
C163 C180 1.574 . S
C163 C182 1.368 . S
C163 H187 0.949 . S
H164 C168 0.949 . S
C165 C166 1.349 . S
C165 C167 1.327 . S
C165 H188 0.950 . S
C166 C165 1.349 . S
C166 C178 1.349 . S
C167 C165 1.327 . S
C167 C183 1.429 . S
C167 H189 0.950 . S
C168 H164 0.949 . S
C168 C176 1.574 . S
C168 C184 1.368 . S
H169 C177 0.950 . S
H170 C175 0.950 . S
H171 C176 0.949 . S
H172 C178 0.950 . S
H173 C179 0.950 . S
H174 C180 0.949 . S
C175 H170 0.950 . S
C175 C177 1.327 . S
C175 C181 1.429 . S
C176 C168 1.574 . S
C176 H171 0.949 . S
C176 C182 1.368 . S
C177 C161 1.349 . S
C177 H169 0.950 . S
C177 C175 1.327 . S
C178 C166 1.349 . S
C178 H172 0.950 . S
C178 C179 1.327 . S
C179 H173 0.950 . S
C179 C178 1.327 . S
C179 C183 1.429 . S
C180 C163 1.574 . S
C180 H174 0.949 . S
C180 C184 1.368 . S
C181 C162 1.429 . S
C181 C175 1.429 . S
C181 C182 1.523 . S
C182 C163 1.368 . S
C182 C176 1.368 . S
C182 C181 1.523 . S
C183 C167 1.429 . S
C183 C179 1.429 . S
C183 C184 1.523 . S
C184 C168 1.368 . S
C184 C180 1.368 . S
C184 C183 1.523 . S
H185 C160 0.950 . S
H186 C162 0.950 . S
H187 C163 0.949 . S
H188 C165 0.950 . S
H189 C167 0.950 . S
C190 C191 1.349 . S
C190 C192 1.327 . S
C190 H215 0.950 . S
C191 C190 1.349 . S
C191 C207 1.349 1_545 S
C192 C190 1.327 . S
C192 C211 1.429 . S
C192 H216 0.950 . S
C193 C210 1.574 . S
C193 C212 1.368 1_565 S
C193 H217 0.949 . S
H194 C198 0.949 . S
C195 C196 1.349 1_565 S
C195 C197 1.327 . S
C195 H218 0.950 . S
C196 C195 1.349 1_545 S
C196 C208 1.349 . S
C197 C195 1.327 . S
C197 C213 1.429 1_565 S
C197 H219 0.950 . S
C198 H194 0.949 . S
C198 C206 1.574 . S
C198 C214 1.368 . S
H199 C207 0.950 . S
H200 C205 0.950 . S
H201 C206 0.949 . S
H202 C208 0.950 . S
H203 C209 0.950 . S
H204 C210 0.949 . S
C205 H200 0.950 . S
C205 C207 1.327 . S
C205 C211 1.429 1_565 S
C206 C198 1.574 . S
C206 H201 0.949 . S
C206 C212 1.368 . S
C207 C191 1.349 1_565 S
C207 H199 0.950 . S
C207 C205 1.327 . S
C208 C196 1.349 . S
C208 H202 0.950 . S
C208 C209 1.327 . S
C209 H203 0.950 . S
C209 C208 1.327 . S
C209 C213 1.429 . S
C210 C193 1.574 . S
C210 H204 0.949 . S
C210 C214 1.368 1_565 S
C211 C192 1.429 . S
C211 C205 1.429 1_545 S
C211 C212 1.523 . S
C212 C193 1.368 1_545 S
C212 C206 1.368 . S
C212 C211 1.523 . S
C213 C197 1.429 1_545 S
C213 C209 1.429 . S
C213 C214 1.523 . S
C214 C198 1.368 . S
C214 C210 1.368 1_545 S
C214 C213 1.523 . S
H215 C190 0.950 . S
H216 C192 0.950 . S
H217 C193 0.949 . S
H218 C195 0.950 . S
H219 C197 0.950 . S
C220 C221 1.349 . S
C220 C222 1.327 . S
C220 H245 0.950 . S
C221 C220 1.349 . S
C221 C237 1.349 . S
C222 C220 1.327 . S
C222 C241 1.429 . S
C222 H246 0.950 . S
C223 C240 1.574 . S
C223 C242 1.368 . S
C223 H247 0.949 . S
H224 C228 0.949 . S
C225 C226 1.349 . S
C225 C227 1.327 . S
C225 H248 0.950 . S
C226 C225 1.349 . S
C226 C238 1.349 . S
C227 C225 1.327 . S
C227 C243 1.429 . S
C227 H249 0.950 . S
C228 H224 0.949 . S
C228 C236 1.574 . S
C228 C244 1.368 . S
H229 C237 0.950 . S
H230 C235 0.950 . S
H231 C236 0.949 . S
H232 C238 0.950 . S
H233 C239 0.950 . S
H234 C240 0.949 . S
C235 H230 0.950 . S
C235 C237 1.327 . S
C235 C241 1.429 . S
C236 C228 1.574 . S
C236 H231 0.949 . S
C236 C242 1.368 . S
C237 C221 1.349 . S
C237 H229 0.950 . S
C237 C235 1.327 . S
C238 C226 1.349 . S
C238 H232 0.950 . S
C238 C239 1.327 . S
C239 H233 0.950 . S
C239 C238 1.327 . S
C239 C243 1.429 . S
C240 C223 1.574 . S
C240 H234 0.949 . S
C240 C244 1.368 . S
C241 C222 1.429 . S
C241 C235 1.429 . S
C241 C242 1.523 . S
C242 C223 1.368 . S
C242 C236 1.368 . S
C242 C241 1.523 . S
C243 C227 1.429 . S
C243 C239 1.429 . S
C243 C244 1.523 . S
C244 C228 1.368 . S
C244 C240 1.368 . S
C244 C243 1.523 . S
H245 C220 0.950 . S
H246 C222 0.950 . S
H247 C223 0.949 . S
H248 C225 0.950 . S
H249 C227 0.950 . S
C250 C251 1.349 1_565 S
C250 C252 1.327 . S
C250 H275 0.950 . S
C251 C250 1.349 1_545 S
C251 C267 1.349 . S
C252 C250 1.327 . S
C252 C271 1.429 1_565 S
C252 H276 0.950 . S
C253 C270 1.574 . S
C253 C272 1.368 . S
C253 H277 0.949 . S
H254 C258 0.949 . S
C255 C256 1.349 . S
C255 C257 1.327 . S
C255 H278 0.950 . S
C256 C255 1.349 . S
C256 C268 1.349 1_545 S
C257 C255 1.327 . S
C257 C273 1.429 . S
C257 H279 0.950 . S
C258 H254 0.949 . S
C258 C266 1.574 . S
C258 C274 1.368 1_565 S
H259 C267 0.950 . S
H260 C265 0.950 . S
H261 C266 0.949 . S
H262 C268 0.950 . S
H263 C269 0.950 . S
H264 C270 0.949 . S
C265 H260 0.950 . S
C265 C267 1.327 . S
C265 C271 1.429 . S
C266 C258 1.574 . S
C266 H261 0.949 . S
C266 C272 1.368 1_565 S
C267 C251 1.349 . S
C267 H259 0.950 . S
C267 C265 1.327 . S
C268 C256 1.349 1_565 S
C268 H262 0.950 . S
C268 C269 1.327 . S
C269 H263 0.950 . S
C269 C268 1.327 . S
C269 C273 1.429 1_565 S
C270 C253 1.574 . S
C270 H264 0.949 . S
C270 C274 1.368 . S
C271 C252 1.429 1_545 S
C271 C265 1.429 . S
C271 C272 1.523 . S
C272 C253 1.368 . S
C272 C266 1.368 1_545 S
C272 C271 1.523 . S
C273 C257 1.429 . S
C273 C269 1.429 1_545 S
C273 C274 1.523 . S
C274 C258 1.368 1_545 S
C274 C270 1.368 . S
C274 C273 1.523 . S
H275 C250 0.950 . S
H276 C252 0.950 . S
H277 C253 0.949 . S
H278 C255 0.950 . S
H279 C257 0.950 . S
C280 C281 1.349 . S
C280 C282 1.327 . S
C280 H305 0.950 . S
C281 C280 1.349 . S
C281 C297 1.349 . S
C282 C280 1.327 . S
C282 C301 1.429 . S
C282 H306 0.950 . S
C283 C300 1.574 . S
C283 C302 1.368 . S
C283 H307 0.949 . S
H284 C288 0.949 . S
C285 C286 1.349 . S
C285 C287 1.327 . S
C285 H308 0.950 . S
C286 C285 1.349 . S
C286 C298 1.349 . S
C287 C285 1.327 . S
C287 C303 1.429 . S
C287 H309 0.950 . S
C288 H284 0.949 . S
C288 C296 1.574 . S
C288 C304 1.368 . S
H289 C297 0.950 . S
H290 C295 0.950 . S
H291 C296 0.949 . S
H292 C298 0.950 . S
H293 C299 0.950 . S
H294 C300 0.949 . S
C295 H290 0.950 . S
C295 C297 1.327 . S
C295 C301 1.429 . S
C296 C288 1.574 . S
C296 H291 0.949 . S
C296 C302 1.368 . S
C297 C281 1.349 . S
C297 H289 0.950 . S
C297 C295 1.327 . S
C298 C286 1.349 . S
C298 H292 0.950 . S
C298 C299 1.327 . S
C299 H293 0.950 . S
C299 C298 1.327 . S
C299 C303 1.429 . S
C300 C283 1.574 . S
C300 H294 0.949 . S
C300 C304 1.368 . S
C301 C282 1.429 . S
C301 C295 1.429 . S
C301 C302 1.523 . S
C302 C283 1.368 . S
C302 C296 1.368 . S
C302 C301 1.523 . S
C303 C287 1.429 . S
C303 C299 1.429 . S
C303 C304 1.523 . S
C304 C288 1.368 . S
C304 C300 1.368 . S
C304 C303 1.523 . S
H305 C280 0.950 . S
H306 C282 0.950 . S
H307 C283 0.949 . S
H308 C285 0.950 . S
H309 C287 0.950 . S
C76 C47 1.295 . S
C71 C17 1.486 . S
C106 C67 1.533 . S
C101 C40 1.492 . S
C136 C46 1.509 . S
C131 C9 1.485 . S
C166 C68 1.562 . S
C161 C33 1.463 . S
C196 C60 1.496 . S
C191 C19 1.485 . S
C226 C53 1.544 . S
C221 C38 1.475 . S
C256 C61 1.291 . S
C251 C12 1.471 . S
C281 C30 1.495 . S
C286 C54 1.571 . S
