# Generated by pormake.
# Topology tsx, (6,3)-cn, num edge types: 1
# Building blocks:
#     Node 0, Type 0, BuildingBlock: CIFDUS_clean_sbu_1, # of connection points: 6
#     Node 1, Type 0, BuildingBlock: CIFDUS_clean_sbu_1, # of connection points: 6
#     Node 2, Type 1, BuildingBlock: BELTOD_clean_linker_0, # of connection points: 3
#     Node 3, Type 1, BuildingBlock: BELTOD_clean_linker_0, # of connection points: 3
#     Node 4, Type 1, BuildingBlock: BELTOD_clean_linker_0, # of connection points: 3
#     Node 5, Type 1, BuildingBlock: BELTOD_clean_linker_0, # of connection points: 3
#     Edge 6, Type (0, 1), BuildingBlock: AJUNOK_clean_linker_0, # of connection points: 2
#     Edge 7, Type (0, 1), BuildingBlock: AJUNOK_clean_linker_0, # of connection points: 2
#     Edge 8, Type (0, 1), BuildingBlock: AJUNOK_clean_linker_0, # of connection points: 2
#     Edge 9, Type (0, 1), BuildingBlock: AJUNOK_clean_linker_0, # of connection points: 2
#     Edge 10, Type (0, 1), BuildingBlock: AJUNOK_clean_linker_0, # of connection points: 2
#     Edge 11, Type (0, 1), BuildingBlock: AJUNOK_clean_linker_0, # of connection points: 2
#     Edge 12, Type (0, 1), BuildingBlock: AJUNOK_clean_linker_0, # of connection points: 2
#     Edge 13, Type (0, 1), BuildingBlock: AJUNOK_clean_linker_0, # of connection points: 2
#     Edge 14, Type (0, 1), BuildingBlock: AJUNOK_clean_linker_0, # of connection points: 2
#     Edge 15, Type (0, 1), BuildingBlock: AJUNOK_clean_linker_0, # of connection points: 2
#     Edge 16, Type (0, 1), BuildingBlock: AJUNOK_clean_linker_0, # of connection points: 2
#     Edge 17, Type (0, 1), BuildingBlock: AJUNOK_clean_linker_0, # of connection points: 2
# Relax obj value: 0.115
# Max RMSD: 0.149
# Mean RMSD: 0.109
data_MOF--net-tsx--node1-CIFDUS_clean_sbu_1--node2-BELTOD_clean_linker_0--edge1-AJUNOK_clean_linker_0
_symmetry_space_group_name_H-M    P1
_symmetry_Int_Tables_number       1
_symmetry_cell_setting            triclinic
loop_
_symmetry_equiv_pos_as_xyz
'x, y, z'
_cell_length_a     15.354041
_cell_length_b     19.311223
_cell_length_c     32.329086
_cell_angle_alpha  98.181965
_cell_angle_beta   95.630008
_cell_angle_gamma 92.082826
loop_
_atom_site_label
_atom_site_type_symbol
_atom_site_fract_x
_atom_site_fract_y
_atom_site_fract_z
_atom_type_partial_charge
O0 O 0.97603 0.11567 0.9897 0.0
Mn1 Mn 0.0492 0.02621 -0.00679 0.0
O2 O 0.85263 0.08052 0.94696 0.0
Mn3 Mn 0.88613 0.99162 0.92777 0.0
O4 O 0.12218 0.93614 -0.00506 0.0
O5 O 0.15607 0.09066 0.01533 0.0
Mn6 Mn 0.2108 0.05499 0.0576 0.0
O7 O 1.01461 0.02284 0.05442 0.0
O8 O 0.24657 0.96823 0.03697 0.0
O9 O 0.0836 0.02801 0.93202 0.0
O10 O 0.96478 0.9856 0.88787 0.0
O11 O 0.2767 0.13377 0.0539 0.0
O12 O 0.13645 0.05482 0.09865 0.0
C13 C 0.88409 0.91177 0.96719 0.0
C14 C 0.90035 0.12737 0.97173 0.0
C15 C 0.19805 0.92286 0.01182 0.0
C16 C 0.21807 0.13975 0.02312 0.0
C17 C 0.0555 0.03645 0.09156 0.0
C18 C 0.04539 0.00602 0.895 0.0
O19 O 0.94251 0.96283 0.97163 0.0
O20 O 0.82401 0.91218 0.93627 0.0
O21 O 0.44078 0.62766 0.49382 0.0
Mn22 Mn 0.51726 0.53878 0.49477 0.0
O23 O 0.31564 0.58922 0.45319 0.0
Mn24 Mn 0.348 0.50058 0.43328 0.0
O25 O 0.58939 0.44771 0.49265 0.0
O26 O 0.62622 0.60431 0.51451 0.0
Mn27 Mn 0.68502 0.56144 0.55285 0.0
O28 O 0.49076 0.53347 0.55701 0.0
O29 O 0.71999 0.47667 0.52916 0.0
O30 O 0.54277 0.54248 0.43237 0.0
O31 O 0.42185 0.49532 0.39135 0.0
O32 O 0.75323 0.63895 0.55191 0.0
O33 O 0.61948 0.55733 0.59696 0.0
C34 C 0.35577 0.42235 0.47388 0.0
C35 C 0.36337 0.6377 0.47673 0.0
C36 C 0.66702 0.43259 0.50581 0.0
C37 C 0.69134 0.65125 0.52404 0.0
C38 C 0.53765 0.54232 0.59274 0.0
C39 C 0.50128 0.51912 0.39621 0.0
O40 O 0.41102 0.47477 0.47588 0.0
O41 O 0.29126 0.42043 0.44481 0.0
P42 P 0.12114 0.10303 0.4048 0.0
H43 H 0.10715 0.21765 0.47238 0.0
H44 H 0.98193 0.27849 0.49766 0.0
H45 H 0.80559 0.12717 0.41602 0.0
H46 H 0.93173 0.0662 0.39076 0.0
H47 H 0.29764 0.05398 0.41872 0.0
H48 H 0.3544 0.95075 0.44537 0.0
H49 H 0.09257 0.88712 0.46806 0.0
H50 H 0.03597 0.98867 0.43907 0.0
H51 H 0.11759 0.18677 0.33714 0.0
H52 H 0.0454 0.97418 0.35112 0.0
O53 O 0.20121 0.16569 0.41146 0.0
H54 H 0.068 0.16223 0.26245 0.0
H55 H 0.9922 0.94961 0.27613 0.0
C56 C 0.02879 0.13837 0.42913 0.0
C57 C 0.04168 0.19675 0.46045 0.0
C58 C 0.96993 0.23138 0.4749 0.0
C59 C 0.88398 0.20816 0.45823 0.0
C60 C 0.87111 0.14696 0.42873 0.0
C61 C 0.94317 0.11205 0.41444 0.0
C62 C 0.16275 0.02954 0.4276 0.0
C63 C 0.25267 0.01831 0.43003 0.0
C64 C 0.28529 0.95961 0.4459 0.0
C65 C 0.22847 0.9111 0.45985 0.0
C66 C 0.13838 0.92341 0.45778 0.0
C67 C 0.1058 0.9816 0.44134 0.0
C68 C 0.08756 0.0818 0.34938 0.0
C69 C 0.09081 0.13471 0.32407 0.0
C70 C 0.06041 0.121 0.28148 0.0
C71 C 0.02414 0.05432 0.26342 0.0
C72 C 1.01935 0.00158 0.28915 0.0
C73 C 0.05054 0.01534 0.33187 0.0
P74 P 0.16137 0.98088 0.5898 0.0
H75 H 0.03893 0.00526 0.51706 0.0
H76 H 0.89676 0.94641 0.48725 0.0
H77 H 0.89139 0.84343 0.59709 0.0
H78 H 0.03393 0.89836 0.62504 0.0
H79 H 0.33395 0.01708 0.56735 0.0
H80 H 0.39857 0.12273 0.54679 0.0
H81 H 0.14939 0.21901 0.55181 0.0
H82 H 0.08589 0.11361 0.5737 0.0
H83 H 0.25881 0.90941 0.65262 0.0
H84 H 0.0935 0.08511 0.65126 0.0
O85 O 0.21886 0.9128 0.57272 0.0
H86 H 0.25791 0.91887 0.72888 0.0
H87 H 0.09193 0.09437 0.72755 0.0
C88 C 0.04749 0.95588 0.57306 0.0
C89 C 1.00656 0.97049 0.53471 0.0
C90 C 0.92514 0.93743 0.51793 0.0
C91 C 0.88288 0.89076 0.54003 0.0
C92 C 0.92171 0.88002 0.57965 0.0
C93 C 1.00346 0.91152 0.59571 0.0
C94 C 0.20445 0.0568 0.57079 0.0
C95 C 0.29286 0.06057 0.56345 0.0
C96 C 0.32981 0.12101 0.55168 0.0
C97 C 0.27886 0.17893 0.54707 0.0
C98 C 0.19042 0.17526 0.55512 0.0
C99 C 0.15368 0.11482 0.56713 0.0
C100 C 0.17578 0.9964 0.64632 0.0
C101 C 0.22389 0.95097 0.66878 0.0
C102 C 0.22337 0.95635 0.71234 0.0
C103 C 0.17432 0.007 0.73395 0.0
C104 C 0.13086 0.05526 0.71168 0.0
C105 C 0.13138 0.04981 0.66811 0.0
P106 P 0.64758 0.59245 0.90501 0.0
H107 H 0.64306 0.71018 0.97218 0.0
H108 H 0.52148 0.77215 0.00066 0.0
H109 H 0.33812 0.61378 0.92966 0.0
H110 H 0.46058 0.55153 0.90127 0.0
H111 H 0.78048 0.50116 0.87413 0.0
H112 H 0.84569 0.39773 0.89801 0.0
H113 H 0.68431 0.41476 0.00012 0.0
H114 H 0.61827 0.51792 0.97634 0.0
H115 H 0.634 0.68143 0.83978 0.0
H116 H 0.5609 0.46799 0.85142 0.0
O117 O 0.7289 0.65366 0.90978 0.0
H118 H 0.5741 0.66174 0.76629 0.0
H119 H 0.49726 0.44831 0.77773 0.0
C120 C 0.56063 0.62733 0.93382 0.0
C121 C 0.57697 0.68793 0.96336 0.0
C122 C 0.50733 0.72323 0.97967 0.0
C123 C 0.42024 0.6985 0.96657 0.0
C124 C 0.40449 0.63473 0.93949 0.0
C125 C 0.47442 0.59911 0.92343 0.0
C126 C 0.69319 0.51613 0.92288 0.0
C127 C 0.75884 0.48245 0.90165 0.0
C128 C 0.79666 0.42392 0.91553 0.0
C129 C 0.76918 0.39813 0.95087 0.0
C130 C 0.70505 0.4332 0.97258 0.0
C131 C 0.66737 0.49187 0.95885 0.0
C132 C 0.6042 0.5756 0.85059 0.0
C133 C 0.60459 0.63029 0.82647 0.0
C134 C 0.56839 0.61936 0.78463 0.0
C135 C 0.52912 0.55379 0.76627 0.0
C136 C 0.52672 0.49946 0.791 0.0
C137 C 0.56373 0.51041 0.83291 0.0
P138 P 0.67308 0.48181 0.09356 0.0
H139 H 0.62698 0.33381 0.07025 0.0
H140 H 0.49787 0.26806 0.03368 0.0
H141 H 0.38051 0.46045 0.01047 0.0
H142 H 0.51225 0.52731 0.0475 0.0
H143 H 0.83113 0.50588 0.05328 0.0
H144 H 0.89612 0.60891 0.03034 0.0
H145 H 0.67327 0.72611 0.06488 0.0
H146 H 0.61024 0.62309 0.08982 0.0
H147 H 0.50828 0.48254 0.13327 0.0
H148 H 0.78317 0.53357 0.17117 0.0
O149 O 0.75301 0.42567 0.09585 0.0
H150 H 0.4794 0.49795 0.20664 0.0
H151 H 0.75419 0.54856 0.24526 0.0
C152 C 0.58009 0.43558 0.06132 0.0
C153 C 0.57476 0.36231 0.05661 0.0
C154 C 0.5009 0.32454 0.0353 0.0
C155 C 0.42959 0.35894 0.01854 0.0
C156 C 0.43494 0.43257 0.02268 0.0
C157 C 0.51007 0.4707 0.04384 0.0
C158 C 0.71592 0.5569 0.07345 0.0
C159 C 0.79629 0.55377 0.05627 0.0
C160 C 0.83354 0.61281 0.0431 0.0
C161 C 0.79097 0.67623 0.04665 0.0
C162 C 0.70929 0.67878 0.06308 0.0
C163 C 0.67235 0.61963 0.07662 0.0
C164 C 0.64818 0.50605 0.14675 0.0
C165 C 0.56238 0.49807 0.15722 0.0
C166 C 0.54586 0.50677 0.19926 0.0
C167 C 0.61474 0.52379 0.23155 0.0
C168 C 0.69994 0.53583 0.22096 0.0
C169 C 0.71647 0.52701 0.17874 0.0
C170 C 0.29289 0.19686 0.9732 0.0
C171 C 0.2272 0.20014 0.00067 0.0
C172 C 0.35267 0.25398 0.97413 0.0
C173 C 0.34757 0.31624 0.0022 0.0
H174 H 0.30711 0.14679 0.9561 0.0
H175 H 0.40943 0.24622 0.95688 0.0
S176 S 0.16954 0.35764 0.06981 0.0
N177 N 0.14683 0.27537 0.04823 0.0
N178 N 0.25859 0.38309 0.05008 0.0
C179 C 0.27242 0.32419 0.02364 0.0
C180 C 0.21172 0.26591 0.02257 0.0
C181 C 0.29182 0.82825 0.03148 0.0
C182 C 0.23545 0.85404 0.00083 0.0
C183 C 0.3467 0.77385 0.02056 0.0
C184 C 0.34748 0.74321 0.97853 0.0
H185 H 0.29719 0.85303 0.06395 0.0
H186 H 0.39234 0.75824 0.04488 0.0
S187 S 0.20634 0.78712 0.8869 0.0
N188 N 0.17806 0.8409 0.92727 0.0
N189 N 0.28215 0.73876 0.90644 0.0
C190 C 0.28663 0.76475 0.94796 0.0
C191 C 0.23023 0.82016 0.9592 0.0
C192 C 0.88637 0.78584 0.97201 0.0
C193 C 0.88351 0.85464 -0.00736 0.0
C194 C 0.86066 0.72845 0.99075 0.0
C195 C 0.82917 0.73779 0.03051 0.0
H196 H 0.90412 0.7765 0.94013 0.0
H197 H 0.86078 0.67659 0.97287 0.0
S198 S 0.8164 0.90784 0.09897 0.0
N199 N 0.85251 0.92941 0.05579 0.0
N200 N 0.80475 0.82142 0.09159 0.0
C201 C 0.83062 0.80641 0.05245 0.0
C202 C 0.85768 0.86491 0.03337 0.0
C203 C 0.92607 0.25682 0.9741 0.0
C204 C 0.86847 0.19923 0.9759 0.0
C205 C 0.89382 0.32208 0.96754 0.0
C206 C 0.8031 0.33208 0.96322 0.0
H207 H 0.996 0.25032 0.97503 0.0
H208 H 0.94 0.36438 0.96453 0.0
S209 S 0.62587 0.19962 0.96997 0.0
N210 N 0.71714 0.15804 0.97644 0.0
N211 N 0.65681 0.28004 0.96401 0.0
C212 C 0.7454 0.27606 0.96766 0.0
C213 C 0.77805 0.20982 0.97404 0.0
C214 C 0.67962 0.77727 0.53772 0.0
C215 C 0.69706 0.71918 0.50883 0.0
C216 C 0.73325 0.83901 0.54372 0.0
C217 C 0.80571 0.84463 0.52073 0.0
H218 H 0.6337 0.77112 0.5605 0.0
H219 H 0.72468 0.87885 0.57 0.0
S220 S 0.86572 0.71365 0.43432 0.0
N221 N 0.78084 0.6761 0.45168 0.0
N222 N 0.88135 0.79232 0.46242 0.0
C223 C 0.81485 0.79141 0.48718 0.0
C224 C 0.76017 0.72853 0.48123 0.0
C225 C 0.75168 0.33278 0.524 0.0
C226 C 0.69973 0.36267 0.49358 0.0
C227 C 0.80549 0.27804 0.51241 0.0
C228 C 0.80995 0.25159 0.46993 0.0
H229 H 0.75505 0.35498 0.55689 0.0
H230 H 0.84818 0.25935 0.53672 0.0
S231 S 0.67817 0.30623 0.37861 0.0
N232 N 0.64811 0.35711 0.41975 0.0
N233 N 0.7508 0.25459 0.39751 0.0
C234 C 0.75239 0.2768 0.4394 0.0
C235 C 0.69676 0.33238 0.45137 0.0
C236 C 0.32175 0.37026 0.53627 0.0
C237 C 0.36384 0.3657 0.49946 0.0
C238 C 0.29878 0.30969 0.55294 0.0
C239 C 0.31657 0.24264 0.53306 0.0
H240 H 0.30074 0.4203 0.55049 0.0
H241 H 0.2632 0.31516 0.58045 0.0
S242 S 0.43201 0.20448 0.43732 0.0
N243 N 0.42799 0.29064 0.44519 0.0
N244 N 0.3844 0.17647 0.47593 0.0
C245 C 0.36389 0.2382 0.49768 0.0
C246 C 0.38744 0.29991 0.48097 0.0
C247 C 0.24313 0.71591 0.4599 0.0
C248 C 0.32752 0.70896 0.48011 0.0
C249 C 0.21099 0.78123 0.45517 0.0
C250 C 0.26063 0.84347 0.47105 0.0
H251 H 0.20203 0.67031 0.44563 0.0
H252 H 0.14811 0.78238 0.43696 0.0
S253 S 0.4776 0.85635 0.53407 0.0
N254 N 0.45563 0.77119 0.52092 0.0
N255 N 0.39316 0.89485 0.51333 0.0
C256 C 0.34216 0.83809 0.49429 0.0
C257 C 0.37583 0.77085 0.49869 0.0
C258 C 0.04278 0.97377 0.15166 0.0
C259 C 1.01224 0.02637 0.12887 0.0
C260 C 0.03794 0.97946 0.19502 0.0
C261 C 1.00271 0.03827 0.21703 0.0
H262 H 0.07894 0.93172 0.1367 0.0
H263 H 0.07001 0.94114 0.21181 0.0
S264 S 0.89517 0.18151 0.16955 0.0
N265 N 0.93275 0.13256 0.12962 0.0
N266 N 0.92092 0.14278 0.21119 0.0
C267 C 0.96192 0.08653 0.19353 0.0
C268 C 0.9673 0.08068 0.14933 0.0
C269 C 0.13811 0.06277 0.84844 0.0
C270 C 0.09501 0.00256 0.85809 0.0
C271 C 0.16791 0.06331 0.80868 0.0
C272 C 0.15713 0.00323 0.77794 0.0
H273 H 0.14372 0.11077 0.87063 0.0
H274 H 0.19664 0.11161 0.80137 0.0
S275 S 0.05465 0.83112 0.78965 0.0
N276 N 0.04762 0.8807 0.83509 0.0
N277 N 0.10473 0.88117 0.76099 0.0
C278 C 0.11887 0.94171 0.78842 0.0
C279 C 0.08754 0.94154 0.82839 0.0
C280 C 0.53276 0.47764 0.65252 0.0
C281 C 0.50013 0.53166 0.63149 0.0
C282 C 0.53365 0.4817 0.69613 0.0
C283 C 0.50227 0.54025 0.72021 0.0
H284 H 0.56608 0.43555 0.63575 0.0
H285 H 0.56703 0.44212 0.7113 0.0
S286 S 0.39236 0.68773 0.67842 0.0
N287 N 0.42351 0.63956 0.6365 0.0
N288 N 0.42249 0.64674 0.71863 0.0
C289 C 0.45979 0.59032 0.69876 0.0
C290 C 0.45929 0.58611 0.65427 0.0
C291 C 0.52636 0.46121 0.32544 0.0
C292 C 0.54492 0.51857 0.35752 0.0
C293 C 0.55231 0.4628 0.2854 0.0
C294 C 0.59755 0.52197 0.2757 0.0
H295 H 0.48891 0.41536 0.33098 0.0
H296 H 0.53481 0.4179 0.26146 0.0
S297 S 0.66631 0.68449 0.34915 0.0
N298 N 0.61507 0.6349 0.37777 0.0
N299 N 0.66398 0.63813 0.30192 0.0
C300 C 0.62062 0.57845 0.30799 0.0
C301 C 0.59426 0.57669 0.3491 0.0
loop_
_geom_bond_atom_site_label_1
_geom_bond_atom_site_label_2
_geom_bond_distance
_geom_bond_site_symmetry_2
_ccdc_geom_bond_type
O0 Mn1 2.163 1_654 S
O0 C14 1.244 1_554 S
Mn1 O0 2.163 1_456 S
Mn1 O4 2.160 1_545 S
Mn1 O5 2.221 1_556 S
Mn1 O7 2.163 1_556 S
Mn1 O9 2.160 . S
Mn1 O19 2.221 1_445 S
O2 Mn3 2.087 . S
O2 C14 1.256 . S
Mn3 O2 2.087 . S
Mn3 O10 2.089 . S
Mn3 O19 2.290 1_545 S
Mn3 O20 2.251 1_545 S
O4 Mn1 2.160 1_565 S
O4 C15 1.239 1_556 S
O5 Mn1 2.221 1_554 S
O5 Mn6 2.290 . S
O5 C16 1.278 . S
Mn6 O5 2.290 . S
Mn6 O8 2.089 1_545 S
Mn6 O11 2.251 . S
Mn6 O12 2.087 . S
O7 Mn1 2.163 1_554 S
O7 C17 1.244 . S
O8 Mn6 2.089 1_565 S
O8 C15 1.256 . S
O9 Mn1 2.160 . S
O9 C18 1.239 . S
O10 Mn3 2.089 . S
O10 C18 1.256 1_655 S
O11 Mn6 2.251 . S
O11 C16 1.241 . S
O12 Mn6 2.087 . S
O12 C17 1.256 . S
C13 O19 1.280 . S
C13 O20 1.242 . S
C14 O0 1.244 1_556 S
C14 O2 1.256 . S
C15 O4 1.239 1_554 S
C15 O8 1.256 . S
C16 O5 1.278 . S
C16 O11 1.241 . S
C17 O7 1.244 . S
C17 O12 1.256 . S
C18 O9 1.239 . S
C18 O10 1.256 1_455 S
O19 Mn1 2.221 1_665 S
O19 Mn3 2.290 1_565 S
O19 C13 1.280 . S
O20 Mn3 2.251 1_565 S
O20 C13 1.242 . S
O21 Mn22 2.163 . S
O21 C35 1.244 . S
Mn22 O21 2.163 . S
Mn22 O25 2.160 . S
Mn22 O26 2.221 . S
Mn22 O28 2.163 . S
Mn22 O30 2.160 . S
Mn22 O40 2.221 . S
O23 Mn24 2.087 . S
O23 C35 1.256 . S
Mn24 O23 2.087 . S
Mn24 O31 2.089 . S
Mn24 O40 2.290 . S
Mn24 O41 2.251 . S
O25 Mn22 2.160 . S
O25 C36 1.239 . S
O26 Mn22 2.221 . S
O26 Mn27 2.290 . S
O26 C37 1.278 . S
Mn27 O26 2.290 . S
Mn27 O29 2.089 . S
Mn27 O32 2.251 . S
Mn27 O33 2.087 . S
O28 Mn22 2.163 . S
O28 C38 1.244 . S
O29 Mn27 2.089 . S
O29 C36 1.256 . S
O30 Mn22 2.160 . S
O30 C39 1.239 . S
O31 Mn24 2.089 . S
O31 C39 1.256 . S
O32 Mn27 2.251 . S
O32 C37 1.241 . S
O33 Mn27 2.087 . S
O33 C38 1.256 . S
C34 O40 1.278 . S
C34 O41 1.241 . S
C35 O21 1.244 . S
C35 O23 1.256 . S
C36 O25 1.239 . S
C36 O29 1.256 . S
C37 O26 1.278 . S
C37 O32 1.241 . S
C38 O28 1.244 . S
C38 O33 1.256 . S
C39 O30 1.239 . S
C39 O31 1.256 . S
O40 Mn22 2.221 . S
O40 Mn24 2.290 . S
O40 C34 1.278 . S
O41 Mn24 2.251 . S
O41 C34 1.241 . S
P42 O53 1.490 . S
P42 C56 1.812 . S
P42 C62 1.803 1_545 S
P42 C68 1.819 . S
H43 C57 0.941 . S
H44 C58 0.939 . S
H45 C60 0.940 . S
H46 C61 0.940 . S
H47 C63 0.939 . S
H48 C64 0.942 . S
H49 C66 0.940 . S
H50 C67 0.939 . S
H51 C69 0.941 . S
H52 C73 0.939 . S
O53 P42 1.490 . S
H54 C70 0.939 . S
H55 C72 0.940 . S
C56 P42 1.812 . S
C56 C57 1.389 . S
C56 C61 1.391 1_455 S
C57 H43 0.941 . S
C57 C56 1.389 . S
C57 C58 1.397 1_455 S
C58 H44 0.939 . S
C58 C57 1.397 1_655 S
C58 C59 1.378 . S
C59 C58 1.378 . S
C59 C60 1.378 . S
C60 H45 0.940 . S
C60 C59 1.378 . S
C60 C61 1.396 . S
C61 H46 0.940 . S
C61 C56 1.391 1_655 S
C61 C60 1.396 . S
C62 P42 1.803 1_565 S
C62 C63 1.378 . S
C62 C67 1.400 . S
C63 H47 0.939 . S
C63 C62 1.378 . S
C63 C64 1.361 . S
C64 H48 0.942 . S
C64 C63 1.361 . S
C64 C65 1.369 . S
C65 C64 1.369 . S
C65 C66 1.404 . S
C66 H49 0.940 . S
C66 C65 1.404 . S
C66 C67 1.389 . S
C67 H50 0.939 . S
C67 C62 1.400 . S
C67 C66 1.389 . S
C68 P42 1.819 . S
C68 C69 1.391 . S
C68 C73 1.391 1_545 S
C69 H51 0.941 . S
C69 C68 1.391 . S
C69 C70 1.396 . S
C70 H54 0.939 . S
C70 C69 1.396 . S
C70 C71 1.397 . S
C71 C70 1.397 . S
C71 C72 1.385 1_545 S
C72 H55 0.940 . S
C72 C71 1.385 1_565 S
C72 C73 1.388 . S
C73 H52 0.939 . S
C73 C68 1.391 1_565 S
C73 C72 1.388 . S
P74 O85 1.490 1_545 S
P74 C88 1.802 1_445 S
P74 C94 1.803 . S
P74 C100 1.819 . S
H75 C89 0.941 . S
H76 C90 0.939 . S
H77 C92 0.940 . S
H78 C93 0.940 1_545 S
H79 C95 0.939 . S
H80 C96 0.942 . S
H81 C98 0.940 . S
H82 C99 0.939 . S
H83 C101 0.941 . S
H84 C105 0.939 . S
O85 P74 1.490 1_565 S
H86 C102 0.939 1_565 S
H87 C104 0.940 . S
C88 P74 1.802 1_665 S
C88 C89 1.388 1_655 S
C88 C93 1.402 . S
C89 H75 0.941 . S
C89 C88 1.388 1_455 S
C89 C90 1.397 1_455 S
C90 H76 0.939 . S
C90 C89 1.397 1_655 S
C90 C91 1.378 . S
C91 C90 1.378 . S
C91 C92 1.378 . S
C92 H77 0.940 . S
C92 C91 1.378 . S
C92 C93 1.396 . S
C93 H78 0.940 1_565 S
C93 C88 1.402 . S
C93 C92 1.396 . S
C94 P74 1.803 . S
C94 C95 1.378 . S
C94 C99 1.400 . S
C95 H79 0.939 . S
C95 C94 1.378 . S
C95 C96 1.361 . S
C96 H80 0.942 . S
C96 C95 1.361 . S
C96 C97 1.369 . S
C97 C96 1.369 . S
C97 C98 1.404 . S
C98 H81 0.940 . S
C98 C97 1.404 . S
C98 C99 1.389 . S
C99 H82 0.939 . S
C99 C94 1.400 . S
C99 C98 1.389 . S
C100 P74 1.819 . S
C100 C101 1.391 1_545 S
C100 C105 1.391 . S
C101 H83 0.941 . S
C101 C100 1.391 1_565 S
C101 C102 1.396 1_565 S
C102 H86 0.939 1_545 S
C102 C101 1.396 1_545 S
C102 C103 1.397 . S
C103 C102 1.397 . S
C103 C104 1.385 . S
C104 H87 0.940 . S
C104 C103 1.385 . S
C104 C105 1.388 . S
C105 H84 0.939 . S
C105 C100 1.391 . S
C105 C104 1.388 . S
P106 O117 1.490 . S
P106 C120 1.812 . S
P106 C126 1.803 . S
P106 C132 1.819 . S
H107 C121 0.941 . S
H108 C122 0.925 1_554 S
H109 C124 0.940 . S
H110 C125 0.940 . S
H111 C127 0.939 . S
H112 C128 0.942 . S
H113 C130 0.940 . S
H114 C131 0.939 . S
H115 C133 0.941 . S
H116 C137 0.939 . S
O117 P106 1.490 . S
H118 C134 0.939 . S
H119 C136 0.940 . S
C120 P106 1.812 . S
C120 C121 1.389 . S
C120 C125 1.391 . S
C121 H107 0.941 . S
C121 C120 1.389 . S
C121 C122 1.405 . S
C122 H108 0.925 1_556 S
C122 C121 1.405 . S
C122 C123 1.385 . S
C123 C122 1.385 . S
C123 C124 1.378 . S
C124 H109 0.940 . S
C124 C123 1.378 . S
C124 C125 1.396 . S
C125 H110 0.940 . S
C125 C120 1.391 . S
C125 C124 1.396 . S
C126 P106 1.803 . S
C126 C127 1.378 . S
C126 C131 1.400 . S
C127 H111 0.939 . S
C127 C126 1.378 . S
C127 C128 1.361 . S
C128 H112 0.942 . S
C128 C127 1.361 . S
C128 C129 1.369 . S
C129 C128 1.369 . S
C129 C130 1.404 . S
C130 H113 0.940 . S
C130 C129 1.404 . S
C130 C131 1.389 . S
C131 H114 0.939 . S
C131 C126 1.400 . S
C131 C130 1.389 . S
C132 P106 1.819 . S
C132 C133 1.391 . S
C132 C137 1.391 . S
C133 H115 0.941 . S
C133 C132 1.391 . S
C133 C134 1.396 . S
C134 H118 0.939 . S
C134 C133 1.396 . S
C134 C135 1.397 . S
C135 C134 1.397 . S
C135 C136 1.385 . S
C136 H119 0.940 . S
C136 C135 1.385 . S
C136 C137 1.388 . S
C137 H116 0.939 . S
C137 C132 1.391 . S
C137 C136 1.388 . S
P138 O149 1.490 . S
P138 C152 1.812 . S
P138 C158 1.803 . S
P138 C164 1.819 . S
H139 C153 0.941 . S
H140 C154 0.939 1_556 S
H141 C156 0.940 . S
H142 C157 0.940 . S
H143 C159 0.939 . S
H144 C160 0.942 . S
H145 C162 0.940 . S
H146 C163 0.939 . S
H147 C165 0.941 . S
H148 C169 0.939 . S
O149 P138 1.490 . S
H150 C166 0.939 . S
H151 C168 0.940 . S
C152 P138 1.812 . S
C152 C153 1.389 . S
C152 C157 1.391 . S
C153 H139 0.941 . S
C153 C152 1.389 . S
C153 C154 1.397 . S
C154 H140 0.939 1_554 S
C154 C153 1.397 . S
C154 C155 1.378 . S
C155 C154 1.378 . S
C155 C156 1.378 . S
C156 H141 0.940 . S
C156 C155 1.378 . S
C156 C157 1.396 . S
C157 H142 0.940 . S
C157 C152 1.391 . S
C157 C156 1.396 . S
C158 P138 1.803 . S
C158 C159 1.378 . S
C158 C163 1.400 . S
C159 H143 0.939 . S
C159 C158 1.378 . S
C159 C160 1.361 . S
C160 H144 0.942 . S
C160 C159 1.361 . S
C160 C161 1.369 . S
C161 C160 1.369 . S
C161 C162 1.404 . S
C162 H145 0.940 . S
C162 C161 1.404 . S
C162 C163 1.389 . S
C163 H146 0.939 . S
C163 C158 1.400 . S
C163 C162 1.389 . S
C164 P138 1.819 . S
C164 C165 1.391 . S
C164 C169 1.391 . S
C165 H147 0.941 . S
C165 C164 1.391 . S
C165 C166 1.396 . S
C166 H150 0.939 . S
C166 C165 1.396 . S
C166 C167 1.397 . S
C167 C166 1.397 . S
C167 C168 1.385 . S
C168 H151 0.940 . S
C168 C167 1.385 . S
C168 C169 1.388 . S
C169 H148 0.939 . S
C169 C164 1.391 . S
C169 C168 1.388 . S
C170 C171 1.369 1_556 S
C170 C172 1.419 . S
C170 H174 0.930 . S
C171 C170 1.369 1_554 S
C171 C180 1.429 . S
C172 C170 1.419 . S
C172 C173 1.363 1_556 S
C172 H175 0.929 . S
C173 C172 1.363 1_554 S
C173 C179 1.428 . S
H174 C170 0.930 . S
H175 C172 0.929 . S
S176 N177 1.613 . S
S176 N178 1.610 . S
N177 S176 1.613 . S
N177 C180 1.350 . S
N178 S176 1.610 . S
N178 C179 1.351 . S
C179 C173 1.428 . S
C179 N178 1.351 . S
C179 C180 1.434 . S
C180 C171 1.429 . S
C180 N177 1.350 . S
C180 C179 1.434 . S
C181 C182 1.380 . S
C181 C183 1.419 . S
C181 H185 0.930 . S
C182 C181 1.380 . S
C182 C191 1.419 1_554 S
C183 C181 1.419 . S
C183 C184 1.363 1_554 S
C183 H186 0.929 . S
C184 C183 1.363 1_556 S
C184 C190 1.428 . S
H185 C181 0.930 . S
H186 C183 0.929 . S
S187 N188 1.613 . S
S187 N189 1.610 . S
N188 S187 1.613 . S
N188 C191 1.350 . S
N189 S187 1.610 . S
N189 C190 1.351 . S
C190 C184 1.428 . S
C190 N189 1.351 . S
C190 C191 1.434 . S
C191 C182 1.419 1_556 S
C191 N188 1.350 . S
C191 C190 1.434 . S
C192 C193 1.369 . S
C192 C194 1.419 . S
C192 H196 0.930 1_554 S
C193 C192 1.369 . S
C193 C202 1.429 . S
C194 C192 1.419 . S
C194 C195 1.363 . S
C194 H197 0.932 . S
C195 C194 1.363 . S
C195 C201 1.428 . S
H196 C192 0.930 1_556 S
H197 C194 0.932 . S
S198 N199 1.613 . S
S198 N200 1.610 . S
N199 S198 1.613 . S
N199 C202 1.350 . S
N200 S198 1.610 . S
N200 C201 1.351 . S
C201 C195 1.428 . S
C201 N200 1.351 . S
C201 C202 1.434 . S
C202 C193 1.429 . S
C202 N199 1.350 . S
C202 C201 1.434 . S
C203 C204 1.369 . S
C203 C205 1.419 . S
C203 H207 0.930 . S
C204 C203 1.369 . S
C204 C213 1.429 . S
C205 C203 1.419 . S
C205 C206 1.363 . S
C205 H208 0.929 . S
C206 C205 1.363 . S
C206 C212 1.428 . S
H207 C203 0.930 . S
H208 C205 0.929 . S
S209 N210 1.613 . S
S209 N211 1.610 . S
N210 S209 1.613 . S
N210 C213 1.350 . S
N211 S209 1.610 . S
N211 C212 1.351 . S
C212 C206 1.428 . S
C212 N211 1.351 . S
C212 C213 1.434 . S
C213 C204 1.429 . S
C213 N210 1.350 . S
C213 C212 1.434 . S
C214 C215 1.369 . S
C214 C216 1.419 . S
C214 H218 0.930 . S
C215 C214 1.369 . S
C215 C224 1.429 . S
C216 C214 1.419 . S
C216 C217 1.363 . S
C216 H219 0.929 . S
C217 C216 1.363 . S
C217 C223 1.428 . S
H218 C214 0.930 . S
H219 C216 0.929 . S
S220 N221 1.613 . S
S220 N222 1.610 . S
N221 S220 1.613 . S
N221 C224 1.350 . S
N222 S220 1.610 . S
N222 C223 1.351 . S
C223 C217 1.428 . S
C223 N222 1.351 . S
C223 C224 1.434 . S
C224 C215 1.429 . S
C224 N221 1.350 . S
C224 C223 1.434 . S
C225 C226 1.369 . S
C225 C227 1.419 . S
C225 H229 0.930 . S
C226 C225 1.369 . S
C226 C235 1.429 . S
C227 C225 1.419 . S
C227 C228 1.363 . S
C227 H230 0.929 . S
C228 C227 1.363 . S
C228 C234 1.428 . S
H229 C225 0.930 . S
H230 C227 0.929 . S
S231 N232 1.613 . S
S231 N233 1.610 . S
N232 S231 1.613 . S
N232 C235 1.350 . S
N233 S231 1.610 . S
N233 C234 1.351 . S
C234 C228 1.428 . S
C234 N233 1.351 . S
C234 C235 1.434 . S
C235 C226 1.429 . S
C235 N232 1.350 . S
C235 C234 1.434 . S
C236 C237 1.369 . S
C236 C238 1.419 . S
C236 H240 0.930 . S
C237 C236 1.369 . S
C237 C246 1.429 . S
C238 C236 1.419 . S
C238 C239 1.363 . S
C238 H241 0.929 . S
C239 C238 1.363 . S
C239 C245 1.428 . S
H240 C236 0.930 . S
H241 C238 0.929 . S
S242 N243 1.613 . S
S242 N244 1.610 . S
N243 S242 1.613 . S
N243 C246 1.350 . S
N244 S242 1.610 . S
N244 C245 1.351 . S
C245 C239 1.428 . S
C245 N244 1.351 . S
C245 C246 1.434 . S
C246 C237 1.429 . S
C246 N243 1.350 . S
C246 C245 1.434 . S
C247 C248 1.369 . S
C247 C249 1.419 . S
C247 H251 0.930 . S
C248 C247 1.369 . S
C248 C257 1.429 . S
C249 C247 1.419 . S
C249 C250 1.363 . S
C249 H252 0.929 . S
C250 C249 1.363 . S
C250 C256 1.428 . S
H251 C247 0.930 . S
H252 C249 0.929 . S
S253 N254 1.613 . S
S253 N255 1.610 . S
N254 S253 1.613 . S
N254 C257 1.350 . S
N255 S253 1.610 . S
N255 C256 1.351 . S
C256 C250 1.428 . S
C256 N255 1.351 . S
C256 C257 1.434 . S
C257 C248 1.429 . S
C257 N254 1.350 . S
C257 C256 1.434 . S
C258 C259 1.369 1_565 S
C258 C260 1.419 . S
C258 H262 0.930 . S
C259 C258 1.369 1_545 S
C259 C268 1.429 . S
C260 C258 1.419 . S
C260 C261 1.372 . S
C260 H263 0.929 . S
C261 C260 1.372 . S
C261 C267 1.416 1_565 S
H262 C258 0.930 . S
H263 C260 0.929 . S
S264 N265 1.613 1_655 S
S264 N266 1.610 1_655 S
N265 S264 1.613 1_455 S
N265 C268 1.350 . S
N266 S264 1.610 1_455 S
N266 C267 1.351 . S
C267 C261 1.416 1_545 S
C267 N266 1.351 . S
C267 C268 1.434 . S
C268 C259 1.429 . S
C268 N265 1.350 . S
C268 C267 1.434 . S
C269 C270 1.369 . S
C269 C271 1.419 . S
C269 H273 0.930 . S
C270 C269 1.369 . S
C270 C279 1.429 1_545 S
C271 C269 1.419 . S
C271 C272 1.363 . S
C271 H274 0.929 . S
C272 C271 1.363 . S
C272 C278 1.428 1_455 S
H273 C269 0.930 . S
H274 C271 0.929 . S
S275 N276 1.613 . S
S275 N277 1.610 . S
N276 S275 1.613 . S
N276 C279 1.350 1_655 S
N277 S275 1.610 . S
N277 C278 1.351 1_565 S
C278 C272 1.428 1_655 S
C278 N277 1.351 1_545 S
C278 C279 1.434 1_645 S
C279 C270 1.429 1_565 S
C279 N276 1.350 1_455 S
C279 C278 1.434 1_465 S
C280 C281 1.369 . S
C280 C282 1.419 . S
C280 H284 0.930 . S
C281 C280 1.369 . S
C281 C290 1.429 . S
C282 C280 1.419 . S
C282 C283 1.363 . S
C282 H285 0.929 . S
C283 C282 1.363 . S
C283 C289 1.428 . S
H284 C280 0.930 . S
H285 C282 0.929 . S
S286 N287 1.613 . S
S286 N288 1.610 . S
N287 S286 1.613 . S
N287 C290 1.350 . S
N288 S286 1.610 . S
N288 C289 1.351 . S
C289 C283 1.428 . S
C289 N288 1.351 . S
C289 C290 1.434 . S
C290 C281 1.429 . S
C290 N287 1.350 . S
C290 C289 1.434 . S
C291 C292 1.369 . S
C291 C293 1.419 . S
C291 H295 0.930 . S
C292 C291 1.369 . S
C292 C301 1.429 . S
C293 C291 1.419 . S
C293 C294 1.363 . S
C293 H296 0.929 . S
C294 C293 1.363 . S
C294 C300 1.428 . S
H295 C291 0.930 . S
H296 C293 0.929 . S
S297 N298 1.613 . S
S297 N299 1.610 . S
N298 S297 1.613 . S
N298 C301 1.350 . S
N299 S297 1.610 . S
N299 C300 1.351 . S
C300 C294 1.428 . S
C300 N299 1.351 . S
C300 C301 1.434 . S
C301 C292 1.429 . S
C301 N298 1.350 . S
C301 C300 1.434 . S
C173 C155 1.456 . S
C171 C16 1.395 . S
C182 C15 1.548 . S
C184 C123 1.503 . S
C193 C13 1.288 1_554 S
C195 C161 1.452 . S
C204 C14 1.384 . S
C206 C129 1.402 . S
C215 C37 1.385 . S
C217 C91 1.450 . S
C226 C36 1.545 . S
C228 C59 1.499 . S
C239 C97 1.448 . S
C237 C34 1.296 . S
C250 C65 1.396 . S
C248 C35 1.395 . S
C259 C17 1.510 . S
C261 C71 1.513 1_565 S
C270 C18 1.395 . S
C272 C103 1.385 . S
C283 C135 1.513 . S
C281 C38 1.510 . S
C292 C39 1.392 . S
C294 C167 1.391 . S
