# Generated by pormake.
# Topology apo, (3,6)-cn, num edge types: 1
# Building blocks:
#     Node 0, Type 0, BuildingBlock: MIDCAF_clean_linker_0, # of connection points: 3
#     Node 1, Type 0, BuildingBlock: MIDCAF_clean_linker_0, # of connection points: 3
#     Node 2, Type 0, BuildingBlock: MIDCAF_clean_linker_0, # of connection points: 3
#     Node 3, Type 0, BuildingBlock: MIDCAF_clean_linker_0, # of connection points: 3
#     Node 4, Type 0, BuildingBlock: MIDCAF_clean_linker_0, # of connection points: 3
#     Node 5, Type 0, BuildingBlock: MIDCAF_clean_linker_0, # of connection points: 3
#     Node 6, Type 0, BuildingBlock: MIDCAF_clean_linker_0, # of connection points: 3
#     Node 7, Type 0, BuildingBlock: MIDCAF_clean_linker_0, # of connection points: 3
#     Node 8, Type 1, BuildingBlock: KUMBUR_clean_sbu_1, # of connection points: 6
#     Node 9, Type 1, BuildingBlock: KUMBUR_clean_sbu_1, # of connection points: 6
#     Node 10, Type 1, BuildingBlock: KUMBUR_clean_sbu_1, # of connection points: 6
#     Node 11, Type 1, BuildingBlock: KUMBUR_clean_sbu_1, # of connection points: 6
#     Edge 12, Type (0, 1), BuildingBlock: UVAHIK_clean_linker_0, # of connection points: 2
#     Edge 13, Type (0, 1), BuildingBlock: UVAHIK_clean_linker_0, # of connection points: 2
#     Edge 14, Type (0, 1), BuildingBlock: UVAHIK_clean_linker_0, # of connection points: 2
#     Edge 15, Type (0, 1), BuildingBlock: UVAHIK_clean_linker_0, # of connection points: 2
#     Edge 16, Type (0, 1), BuildingBlock: UVAHIK_clean_linker_0, # of connection points: 2
#     Edge 17, Type (0, 1), BuildingBlock: UVAHIK_clean_linker_0, # of connection points: 2
#     Edge 18, Type (0, 1), BuildingBlock: UVAHIK_clean_linker_0, # of connection points: 2
#     Edge 19, Type (0, 1), BuildingBlock: UVAHIK_clean_linker_0, # of connection points: 2
#     Edge 20, Type (0, 1), BuildingBlock: UVAHIK_clean_linker_0, # of connection points: 2
#     Edge 21, Type (0, 1), BuildingBlock: UVAHIK_clean_linker_0, # of connection points: 2
#     Edge 22, Type (0, 1), BuildingBlock: UVAHIK_clean_linker_0, # of connection points: 2
#     Edge 23, Type (0, 1), BuildingBlock: UVAHIK_clean_linker_0, # of connection points: 2
#     Edge 24, Type (0, 1), BuildingBlock: UVAHIK_clean_linker_0, # of connection points: 2
#     Edge 25, Type (0, 1), BuildingBlock: UVAHIK_clean_linker_0, # of connection points: 2
#     Edge 26, Type (0, 1), BuildingBlock: UVAHIK_clean_linker_0, # of connection points: 2
#     Edge 27, Type (0, 1), BuildingBlock: UVAHIK_clean_linker_0, # of connection points: 2
#     Edge 28, Type (0, 1), BuildingBlock: UVAHIK_clean_linker_0, # of connection points: 2
#     Edge 29, Type (0, 1), BuildingBlock: UVAHIK_clean_linker_0, # of connection points: 2
#     Edge 30, Type (0, 1), BuildingBlock: UVAHIK_clean_linker_0, # of connection points: 2
#     Edge 31, Type (0, 1), BuildingBlock: UVAHIK_clean_linker_0, # of connection points: 2
#     Edge 32, Type (0, 1), BuildingBlock: UVAHIK_clean_linker_0, # of connection points: 2
#     Edge 33, Type (0, 1), BuildingBlock: UVAHIK_clean_linker_0, # of connection points: 2
#     Edge 34, Type (0, 1), BuildingBlock: UVAHIK_clean_linker_0, # of connection points: 2
#     Edge 35, Type (0, 1), BuildingBlock: UVAHIK_clean_linker_0, # of connection points: 2
# Relax obj value: 0.010
# Max RMSD: 0.084
# Mean RMSD: 0.068
data_MOF--net-apo--node1-KUMBUR_clean_sbu_1--node2-MIDCAF_clean_linker_0--edge1-UVAHIK_clean_linker_0
_symmetry_space_group_name_H-M    P1
_symmetry_Int_Tables_number       1
_symmetry_cell_setting            triclinic
loop_
_symmetry_equiv_pos_as_xyz
'x, y, z'
_cell_length_a     35.774533
_cell_length_b     65.122156
_cell_length_c     77.618969
_cell_angle_alpha  90.049288
_cell_angle_beta   90.006254
_cell_angle_gamma 90.351896
loop_
_atom_site_label
_atom_site_type_symbol
_atom_site_fract_x
_atom_site_fract_y
_atom_site_fract_z
_atom_type_partial_charge
C0 C 0.2965 0.39484 0.47878 0.0
C1 C 0.30254 0.3756 0.48639 0.0
C2 C 0.29933 0.35782 0.47624 0.0
C3 C 0.29031 0.35927 0.45874 0.0
H4 H 0.21166 0.33454 0.41886 0.0
H5 H 0.18276 0.30636 0.40259 0.0
H6 H 0.23273 0.32944 0.3558 0.0
H7 H 0.26116 0.35769 0.37187 0.0
H8 H 0.26045 0.41116 0.37414 0.0
H9 H 0.28238 0.4409 0.35785 0.0
H10 H 0.35323 0.4587 0.4004 0.0
H11 H 0.33127 0.429 0.41682 0.0
H12 H 0.28435 0.41141 0.45565 0.0
H13 H 0.29906 0.40878 0.48633 0.0
H14 H 0.30377 0.34281 0.48186 0.0
H15 H 0.28827 0.3453 0.4512 0.0
N16 N 0.26175 0.36433 0.42354 0.0
N17 N 0.2661 0.38305 0.3978 0.0
N18 N 0.28791 0.39751 0.42359 0.0
C19 C 0.25576 0.36569 0.40628 0.0
C20 C 0.28214 0.39903 0.40634 0.0
C21 C 0.27779 0.38022 0.43228 0.0
C22 C 0.23866 0.34837 0.39665 0.0
C23 C 0.21654 0.33357 0.40511 0.0
C24 C 0.19987 0.31751 0.39582 0.0
C25 C 0.20564 0.31574 0.37798 0.0
C26 C 0.22808 0.33038 0.36957 0.0
C27 C 0.24416 0.34661 0.37878 0.0
C28 C 0.29419 0.41763 0.39678 0.0
C29 C 0.28059 0.42144 0.38009 0.0
C30 C 0.29295 0.43854 0.37078 0.0
C31 C 0.31955 0.45207 0.37785 0.0
C32 C 0.33291 0.44842 0.39459 0.0
C33 C 0.32016 0.43147 0.40401 0.0
C34 C 0.2852 0.37856 0.45099 0.0
C35 C 0.2883 0.39633 0.46121 0.0
C36 C 0.20622 0.0983 0.97757 0.0
C37 C 0.20023 0.1174 0.98548 0.0
C38 C 0.20359 0.13537 0.97561 0.0
C39 C 0.21273 0.13427 0.95812 0.0
H40 H 0.29244 0.1598 0.91881 0.0
H41 H 0.32198 0.18812 0.90296 0.0
H42 H 0.27092 0.16652 0.85589 0.0
H43 H 0.24189 0.13816 0.87152 0.0
H44 H 0.23988 0.08628 0.87177 0.0
H45 H 0.21919 0.05699 0.85482 0.0
H46 H 0.15532 0.03458 0.89823 0.0
H47 H 0.17696 0.06365 0.91543 0.0
H48 H 0.2185 0.0822 0.95419 0.0
H49 H 0.20357 0.08422 0.9849 0.0
H50 H 0.19921 0.15028 0.98146 0.0
H51 H 0.21491 0.1484 0.95081 0.0
N52 N 0.24158 0.13006 0.92296 0.0
N53 N 0.23757 0.11204 0.89686 0.0
N54 N 0.21569 0.09681 0.9223 0.0
C55 C 0.24772 0.12918 0.9057 0.0
C56 C 0.22163 0.09578 0.90502 0.0
C57 C 0.22556 0.11391 0.93135 0.0
C58 C 0.26488 0.14672 0.89642 0.0
C59 C 0.28743 0.16115 0.90509 0.0
C60 C 0.30447 0.17728 0.89604 0.0
C61 C 0.2986 0.17948 0.87824 0.0
C62 C 0.27564 0.16524 0.86964 0.0
C63 C 0.25922 0.14895 0.87859 0.0
C64 C 0.20998 0.07742 0.89498 0.0
C65 C 0.22151 0.0751 0.87777 0.0
C66 C 0.20944 0.05833 0.86798 0.0
C67 C 0.18529 0.04348 0.87508 0.0
C68 C 0.17423 0.0456 0.89239 0.0
C69 C 0.18652 0.06234 0.90224 0.0
C70 C 0.21785 0.11514 0.95007 0.0
C71 C 0.21456 0.09716 0.95999 0.0
C72 C 0.83004 0.10396 0.52551 0.0
C73 C 0.8228 0.12234 0.51666 0.0
C74 C 0.80536 0.13846 0.5256 0.0
C75 C 0.79574 0.13635 0.54298 0.0
H76 H 0.72375 0.16037 0.58311 0.0
H77 H 0.68973 0.18646 0.59934 0.0
H78 H 0.7358 0.16269 0.64675 0.0
H79 H 0.76813 0.13632 0.63071 0.0
H80 H 0.77285 0.08472 0.62816 0.0
H81 H 0.79383 0.05567 0.64506 0.0
H82 H 0.87149 0.03943 0.60469 0.0
H83 H 0.84939 0.0682 0.58743 0.0
H84 H 0.82695 0.08755 0.54933 0.0
H85 H 0.84371 0.09131 0.51907 0.0
H86 H 0.79887 0.15271 0.51911 0.0
H87 H 0.78251 0.14915 0.54941 0.0
N88 N 0.77555 0.13122 0.57898 0.0
N89 N 0.77897 0.1125 0.6047 0.0
N90 N 0.80521 0.09909 0.57948 0.0
C91 C 0.76793 0.12955 0.5961 0.0
C92 C 0.79747 0.09719 0.59655 0.0
C93 C 0.79427 0.11603 0.57056 0.0
C94 C 0.74838 0.14611 0.6056 0.0
C95 C 0.72654 0.16076 0.597 0.0
C96 C 0.70717 0.17579 0.60633 0.0
C97 C 0.70959 0.17664 0.62444 0.0
C98 C 0.73227 0.16225 0.6329 0.0
C99 C 0.75112 0.14714 0.62365 0.0
C100 C 0.80958 0.07891 0.60645 0.0
C101 C 0.79435 0.07495 0.62282 0.0
C102 C 0.80658 0.05831 0.6326 0.0
C103 C 0.83472 0.04527 0.62638 0.0
C104 C 0.84952 0.049 0.60985 0.0
C105 C 0.83696 0.06558 0.59997 0.0
C106 C 0.80345 0.11808 0.55193 0.0
C107 C 0.82058 0.10188 0.54293 0.0
C108 C 0.68202 0.38928 0.02443 0.0
C109 C 0.68865 0.37074 0.0157 0.0
C110 C 0.7056 0.35456 0.02474 0.0
C111 C 0.71527 0.35677 0.04212 0.0
H112 H 0.78582 0.33258 0.08276 0.0
H113 H 0.81635 0.30525 0.09922 0.0
H114 H 0.76953 0.32945 0.14621 0.0
H115 H 0.73953 0.35676 0.12999 0.0
H116 H 0.73624 0.40875 0.12754 0.0
H117 H 0.71551 0.4384 0.14385 0.0
H118 H 0.64275 0.45561 0.10189 0.0
H119 H 0.66456 0.42626 0.08526 0.0
H120 H 0.68561 0.40593 0.04814 0.0
H121 H 0.66873 0.402 0.01792 0.0
H122 H 0.71162 0.34016 0.01835 0.0
H123 H 0.72807 0.3439 0.04864 0.0
N124 N 0.73485 0.362 0.07822 0.0
N125 N 0.73138 0.38099 0.10384 0.0
N126 N 0.7066 0.39448 0.07835 0.0
C127 C 0.742 0.36374 0.09538 0.0
C128 C 0.71382 0.39646 0.09546 0.0
C129 C 0.71706 0.37734 0.0696 0.0
C130 C 0.76028 0.34689 0.10505 0.0
C131 C 0.78201 0.33203 0.0966 0.0
C132 C 0.79961 0.31646 0.106 0.0
C133 C 0.79517 0.31521 0.12397 0.0
C134 C 0.77317 0.32993 0.13236 0.0
C135 C 0.75618 0.34565 0.12305 0.0
C136 C 0.70194 0.41501 0.10509 0.0
C137 C 0.71589 0.41886 0.12173 0.0
C138 C 0.7038 0.43585 0.13116 0.0
C139 C 0.67713 0.44935 0.1243 0.0
C140 C 0.66362 0.4457 0.10753 0.0
C141 C 0.676 0.42878 0.09801 0.0
C142 C 0.70811 0.3752 0.05095 0.0
C143 C 0.69155 0.39148 0.04183 0.0
C144 C 0.67586 0.60483 0.52517 0.0
C145 C 0.68817 0.62175 0.51542 0.0
C146 C 0.71035 0.63683 0.52351 0.0
C147 C 0.7197 0.63513 0.54097 0.0
H148 H 0.7834 0.66296 0.58135 0.0
H149 H 0.81716 0.68975 0.59717 0.0
H150 H 0.77613 0.66463 0.64516 0.0
H151 H 0.74386 0.63769 0.62953 0.0
H152 H 0.70855 0.59518 0.6308 0.0
H153 H 0.68832 0.56586 0.6478 0.0
H154 H 0.66779 0.53129 0.60124 0.0
H155 H 0.68817 0.5608 0.584 0.0
H156 H 0.67523 0.58982 0.54965 0.0
H157 H 0.65919 0.59279 0.51929 0.0
H158 H 0.72003 0.65015 0.51642 0.0
H159 H 0.73658 0.64714 0.54677 0.0
N160 N 0.73468 0.63221 0.57768 0.0
N161 N 0.73032 0.61426 0.60375 0.0
N162 N 0.70532 0.59982 0.5786 0.0
C163 C 0.74172 0.6311 0.59488 0.0
C164 C 0.71231 0.59852 0.59578 0.0
C165 C 0.71631 0.61664 0.56944 0.0
C166 C 0.76116 0.64803 0.60415 0.0
C167 C 0.78162 0.66321 0.59528 0.0
C168 C 0.80085 0.67862 0.60436 0.0
C169 C 0.79977 0.6793 0.6225 0.0
C170 C 0.77853 0.66436 0.63126 0.0
C171 C 0.75974 0.64891 0.62224 0.0
C172 C 0.69994 0.58042 0.60598 0.0
C173 C 0.69981 0.58137 0.62409 0.0
C174 C 0.688 0.56459 0.63388 0.0
C175 C 0.6763 0.54632 0.62586 0.0
C176 C 0.67683 0.54517 0.60777 0.0
C177 C 0.68829 0.56211 0.59791 0.0
C178 C 0.70725 0.61824 0.55077 0.0
C179 C 0.68534 0.60307 0.5426 0.0
C180 C 0.82953 0.89011 0.02556 0.0
C181 C 0.81524 0.87419 0.01519 0.0
C182 C 0.7914 0.85949 0.02274 0.0
C183 C 0.78217 0.86065 0.04025 0.0
H184 H 0.74505 0.82432 0.08304 0.0
H185 H 0.71248 0.79681 0.09859 0.0
H186 H 0.69136 0.83842 0.14077 0.0
H187 H 0.72344 0.86576 0.12538 0.0
H188 H 0.79023 0.89941 0.1307 0.0
H189 H 0.81116 0.92838 0.14805 0.0
H190 H 0.83581 0.96274 0.10186 0.0
H191 H 0.81488 0.9336 0.08429 0.0
H192 H 0.83159 0.90393 0.05053 0.0
H193 H 0.84759 0.90182 0.0201 0.0
H194 H 0.78016 0.84694 0.01513 0.0
H195 H 0.7638 0.84902 0.04561 0.0
N196 N 0.76692 0.86265 0.07708 0.0
N197 N 0.76906 0.88073 0.1032 0.0
N198 N 0.7971 0.89478 0.0786 0.0
C199 C 0.75803 0.86394 0.0941 0.0
C200 C 0.78856 0.89619 0.09562 0.0
C201 C 0.78643 0.87806 0.06922 0.0
C202 C 0.73701 0.84727 0.10295 0.0
C203 C 0.73323 0.82762 0.09557 0.0
C204 C 0.71478 0.81183 0.10452 0.0
C205 C 0.6993 0.81546 0.1209 0.0
C206 C 0.70257 0.83517 0.12809 0.0
C207 C 0.72126 0.85083 0.11928 0.0
C208 C 0.80093 0.91411 0.10605 0.0
C209 C 0.8 0.91311 0.12416 0.0
C210 C 0.8122 0.92968 0.13415 0.0
C211 C 0.82526 0.94778 0.12632 0.0
C212 C 0.8257 0.94899 0.10823 0.0
C213 C 0.81392 0.93227 0.09819 0.0
C214 C 0.79632 0.87665 0.05062 0.0
C215 C 0.8201 0.89137 0.04301 0.0
C216 C 0.17403 0.88735 0.47453 0.0
C217 C 0.18468 0.86992 0.48396 0.0
C218 C 0.20609 0.85479 0.47569 0.0
C219 C 0.21644 0.85699 0.45839 0.0
H220 H 0.28384 0.83133 0.41906 0.0
H221 H 0.31795 0.80473 0.40354 0.0
H222 H 0.28498 0.83205 0.35517 0.0
H223 H 0.25241 0.85887 0.37058 0.0
H224 H 0.23548 0.90714 0.37202 0.0
H225 H 0.21459 0.9365 0.35542 0.0
H226 H 0.14526 0.95569 0.39799 0.0
H227 H 0.16694 0.92653 0.41486 0.0
H228 H 0.17564 0.90326 0.45048 0.0
H229 H 0.15803 0.89945 0.48056 0.0
H230 H 0.21447 0.84107 0.48251 0.0
H231 H 0.23277 0.84496 0.45244 0.0
N232 N 0.23596 0.86183 0.42227 0.0
N233 N 0.23421 0.88086 0.39666 0.0
N234 N 0.2057 0.89373 0.42155 0.0
C235 C 0.24496 0.86377 0.40532 0.0
C236 C 0.2147 0.89594 0.40464 0.0
C237 C 0.21625 0.87675 0.43049 0.0
C238 C 0.26551 0.84734 0.3961 0.0
C239 C 0.28399 0.83166 0.40511 0.0
C240 C 0.30341 0.81633 0.39619 0.0
C241 C 0.30451 0.81623 0.37805 0.0
C242 C 0.28563 0.83183 0.36911 0.0
C243 C 0.26664 0.84721 0.37799 0.0
C244 C 0.20276 0.91433 0.39479 0.0
C245 C 0.21585 0.91761 0.37792 0.0
C246 C 0.2037 0.93444 0.36833 0.0
C247 C 0.17797 0.94841 0.37529 0.0
C248 C 0.16538 0.94537 0.39227 0.0
C249 C 0.17768 0.92855 0.40192 0.0
C250 C 0.2057 0.87442 0.44893 0.0
C251 C 0.1844 0.88958 0.45726 0.0
C252 C 0.32491 0.60292 0.97729 0.0
C253 C 0.31808 0.62153 0.98588 0.0
C254 C 0.30034 0.63743 0.97682 0.0
C255 C 0.29003 0.63488 0.95956 0.0
H256 H 0.22303 0.6603 0.91955 0.0
H257 H 0.18984 0.68658 0.90321 0.0
H258 H 0.22173 0.65676 0.85571 0.0
H259 H 0.25346 0.63035 0.8719 0.0
H260 H 0.26939 0.58275 0.87416 0.0
H261 H 0.29137 0.55364 0.85756 0.0
H262 H 0.36103 0.53511 0.90021 0.0
H263 H 0.33825 0.56408 0.91711 0.0
H264 H 0.32086 0.58588 0.95379 0.0
H265 H 0.33881 0.59042 0.98384 0.0
H266 H 0.29419 0.65187 0.98312 0.0
H267 H 0.27659 0.64753 0.95302 0.0
N268 N 0.26869 0.62885 0.92379 0.0
N269 N 0.27128 0.60945 0.89838 0.0
N270 N 0.29817 0.59667 0.92365 0.0
C271 C 0.2605 0.62672 0.90675 0.0
C272 C 0.29 0.59434 0.90666 0.0
C273 C 0.28755 0.61385 0.93235 0.0
C274 C 0.24076 0.6431 0.89709 0.0
C275 C 0.22286 0.65937 0.90562 0.0
C276 C 0.20397 0.67449 0.89623 0.0
C277 C 0.20279 0.67376 0.8781 0.0
C278 C 0.22117 0.65762 0.86964 0.0
C279 C 0.23967 0.64247 0.87898 0.0
C280 C 0.30223 0.5759 0.89697 0.0
C281 C 0.2893 0.57247 0.88009 0.0
C282 C 0.30207 0.5558 0.8705 0.0
C283 C 0.3283 0.54214 0.87746 0.0
C284 C 0.34059 0.54524 0.89449 0.0
C285 C 0.32765 0.56191 0.90416 0.0
C286 C 0.29735 0.61637 0.95087 0.0
C287 C 0.31477 0.60038 0.96 0.0
Tb288 Tb 0.04667 0.1349 0.23524 0.0
C289 C 0.88529 0.11409 0.25195 0.0
N290 N 0.90055 0.13323 0.25105 0.0
C291 C 0.84998 0.14438 0.23314 0.0
C292 C 0.85217 0.10917 0.24299 0.0
C293 C 0.88315 0.14847 0.24208 0.0
C294 C 0.83452 0.12462 0.23351 0.0
C295 C 0.8895 0.07911 0.2623 0.0
C296 C 0.90412 0.09923 0.26127 0.0
C297 C 0.85673 0.07401 0.25323 0.0
C298 C 0.83811 0.089 0.2436 0.0
Tb299 Tb 0.95518 0.13808 0.2657 0.0
N300 N 0.93627 0.10462 0.26959 0.0
C301 C 0.90779 0.06484 0.27273 0.0
C302 C 0.95173 0.09133 0.28115 0.0
C303 C 0.93856 0.07113 0.28249 0.0
H304 H 0.89483 0.16379 0.24186 0.0
H305 H 0.95164 0.06055 0.29136 0.0
H306 H 0.09881 0.09547 0.24738 0.0
H307 H 0.07556 0.21627 0.2302 0.0
H308 H 0.97331 0.09627 0.28989 0.0
H309 H 0.89747 0.04923 0.27389 0.0
H310 H 0.03694 0.18508 0.22775 0.0
H311 H 0.83641 0.15645 0.22594 0.0
H312 H 0.8453 0.05858 0.25375 0.0
H313 H 0.81281 0.08486 0.23672 0.0
H314 H 0.16281 0.09011 0.25833 0.0
H315 H 0.809 0.12146 0.22645 0.0
H316 H 0.14092 0.21393 0.24039 0.0
N317 N 0.10522 0.12783 0.2451 0.0
C318 C 0.12879 0.14419 0.24641 0.0
C319 C 0.15352 0.10542 0.25512 0.0
C320 C 0.16574 0.14183 0.25233 0.0
C321 C 0.1171 0.10854 0.24915 0.0
C322 C 0.17794 0.12214 0.25675 0.0
N323 N 0.07901 0.16518 0.23733 0.0
C324 C 0.06494 0.18377 0.23258 0.0
C325 C 0.13871 0.18093 0.24362 0.0
C326 C 0.11544 0.16348 0.24214 0.0
C327 C 0.12397 0.20013 0.23942 0.0
C328 C 0.08701 0.20153 0.23376 0.0
H329 H 0.20614 0.11967 0.26137 0.0
H330 H 0.21764 0.15767 0.2583 0.0
H331 H 0.19398 0.19189 0.25065 0.0
O332 O 0.04547 0.14267 0.20898 0.0
O333 O 0.05355 0.15127 0.2599 0.0
O334 O 0.99523 0.16345 0.26762 0.0
O335 O 0.08092 0.11849 0.21801 0.0
O336 O 0.99795 0.15217 0.22598 0.0
O337 O 0.96588 0.16509 0.24962 0.0
O338 O 0.94502 0.13712 0.29278 0.0
O339 O 0.95175 0.12545 0.2394 0.0
O340 O 0.0074 0.109 0.23541 0.0
O341 O 0.91349 0.15709 0.2758 0.0
O342 O 0.00633 0.12368 0.27596 0.0
O343 O 0.03424 0.10894 0.25214 0.0
C344 C 0.0318 0.16318 0.2692 0.0
C345 C 0.05719 0.11568 0.18972 0.0
C346 C 0.06129 0.10814 0.15899 0.0
C347 C 0.03199 0.09383 0.16076 0.0
C348 C 0.02853 0.10103 0.19129 0.0
C349 C 0.01592 0.0902 0.17687 0.0
C350 C 0.07388 0.11902 0.17358 0.0
C351 C 0.97476 0.16535 0.23313 0.0
C352 C 0.06863 0.12825 0.20459 0.0
C353 C 0.18914 0.15916 0.25377 0.0
C354 C 0.17567 0.17866 0.2494 0.0
C355 C 0.97111 0.11014 0.2332 0.0
C356 C 0.8968 0.15891 0.30604 0.0
C357 C 0.88217 0.16082 0.33678 0.0
C358 C 0.85684 0.17669 0.33333 0.0
C359 C 0.87102 0.17471 0.30297 0.0
C360 C 0.90197 0.15177 0.32305 0.0
C361 C 0.85119 0.18347 0.31653 0.0
C362 C 0.02914 0.1102 0.2689 0.0
C363 C 0.91889 0.15082 0.29144 0.0
H364 H 0.0219 0.08526 0.14971 0.0
H365 H 0.01584 0.09808 0.20362 0.0
H366 H 0.99357 0.07903 0.17819 0.0
H367 H 0.09603 0.13035 0.17228 0.0
H368 H 0.84119 0.18377 0.34368 0.0
H369 H 0.8664 0.18052 0.29008 0.0
H370 H 0.92181 0.13965 0.32566 0.0
H371 H 0.83153 0.19568 0.31401 0.0
Tb372 Tb 0.46073 0.35857 0.73527 0.0
C373 C 0.62289 0.37841 0.75156 0.0
N374 N 0.60722 0.35937 0.75057 0.0
C375 C 0.6573 0.34804 0.73245 0.0
C376 C 0.656 0.38318 0.74255 0.0
C377 C 0.62416 0.34409 0.74145 0.0
C378 C 0.67319 0.3677 0.73292 0.0
C379 C 0.61951 0.41336 0.76213 0.0
C380 C 0.60447 0.39333 0.76102 0.0
C381 C 0.65231 0.4183 0.75303 0.0
C382 C 0.6705 0.40325 0.74326 0.0
Tb383 Tb 0.55272 0.35476 0.76535 0.0
N384 N 0.57228 0.3881 0.76936 0.0
C385 C 0.60161 0.42768 0.77267 0.0
C386 C 0.55715 0.40144 0.781 0.0
C387 C 0.57077 0.42155 0.78243 0.0
H388 H 0.61215 0.32885 0.74116 0.0
H389 H 0.55796 0.43216 0.79136 0.0
H390 H 0.40924 0.39809 0.74783 0.0
H391 H 0.43091 0.2773 0.72995 0.0
H392 H 0.5355 0.39661 0.78974 0.0
H393 H 0.61227 0.44322 0.77389 0.0
H394 H 0.46978 0.3084 0.72748 0.0
H395 H 0.67052 0.33594 0.72513 0.0
H396 H 0.66407 0.43366 0.75362 0.0
H397 H 0.69581 0.40728 0.73635 0.0
H398 H 0.34552 0.40359 0.75907 0.0
H399 H 0.6987 0.37075 0.72582 0.0
H400 H 0.36578 0.27979 0.74043 0.0
N401 N 0.40244 0.36576 0.7454 0.0
C402 C 0.37873 0.34947 0.74673 0.0
C403 C 0.35458 0.38827 0.75574 0.0
C404 C 0.34192 0.35191 0.75282 0.0
C405 C 0.39085 0.38507 0.74961 0.0
C406 C 0.33002 0.37162 0.75739 0.0
N407 N 0.42812 0.32837 0.73734 0.0
C408 C 0.4419 0.30976 0.73244 0.0
C409 C 0.36838 0.31278 0.7438 0.0
C410 C 0.3918 0.33016 0.74231 0.0
C411 C 0.38285 0.29354 0.73945 0.0
C412 C 0.41967 0.29207 0.73363 0.0
H413 H 0.30194 0.37415 0.76214 0.0
H414 H 0.29 0.33621 0.75893 0.0
H415 H 0.31316 0.30194 0.75102 0.0
O416 O 0.46105 0.35086 0.70899 0.0
O417 O 0.45408 0.34212 0.75987 0.0
O418 O 0.51231 0.32955 0.76722 0.0
O419 O 0.42649 0.37531 0.71829 0.0
O420 O 0.50915 0.3413 0.72568 0.0
O421 O 0.54122 0.32796 0.74913 0.0
O422 O 0.56321 0.35553 0.7924 0.0
O423 O 0.55594 0.36771 0.73916 0.0
O424 O 0.50031 0.38431 0.73547 0.0
O425 O 0.59422 0.33549 0.77524 0.0
O426 O 0.50201 0.36929 0.7759 0.0
O427 O 0.47378 0.38434 0.75231 0.0
C428 C 0.47581 0.33005 0.76902 0.0
C429 C 0.44959 0.37799 0.68989 0.0
C430 C 0.44512 0.38546 0.65917 0.0
C431 C 0.47466 0.39965 0.66084 0.0
C432 C 0.4785 0.3925 0.69136 0.0
C433 C 0.49103 0.40324 0.67691 0.0
C434 C 0.43261 0.37468 0.6738 0.0
C435 C 0.53219 0.32794 0.73266 0.0
C436 C 0.43818 0.36548 0.70477 0.0
C437 C 0.31838 0.33465 0.75427 0.0
C438 C 0.33157 0.31513 0.74976 0.0
C439 C 0.53656 0.3831 0.73312 0.0
C440 C 0.61115 0.33343 0.80545 0.0
C441 C 0.62608 0.33143 0.83615 0.0
C442 C 0.65088 0.31532 0.83263 0.0
C443 C 0.63642 0.3174 0.80231 0.0
C444 C 0.60639 0.34063 0.82247 0.0
C445 C 0.65615 0.30848 0.81581 0.0
C446 C 0.47916 0.38288 0.76904 0.0
C447 C 0.58908 0.3417 0.79092 0.0
H448 H 0.48469 0.40815 0.64976 0.0
H449 H 0.49143 0.39541 0.70365 0.0
H450 H 0.51357 0.41432 0.67815 0.0
H451 H 0.41029 0.36343 0.67259 0.0
H452 H 0.66645 0.30811 0.84294 0.0
H453 H 0.6407 0.31154 0.78939 0.0
H454 H 0.58694 0.35293 0.82514 0.0
H455 H 0.67541 0.29609 0.81324 0.0
Tb456 Tb 0.04894 0.85409 0.73622 0.0
C457 C 0.88896 0.82959 0.75967 0.0
N458 N 0.90367 0.84839 0.75623 0.0
C459 C 0.8489 0.85733 0.74017 0.0
C460 C 0.85406 0.82356 0.75289 0.0
C461 C 0.88376 0.86256 0.74715 0.0
C462 C 0.83413 0.83767 0.7429 0.0
C463 C 0.8943 0.79709 0.7745 0.0
C464 C 0.90889 0.81661 0.77029 0.0
C465 C 0.86023 0.79058 0.76722 0.0
C466 C 0.84009 0.80382 0.75647 0.0
Tb467 Tb 0.9598 0.85585 0.76858 0.0
N468 N 0.9413 0.82368 0.77735 0.0
C469 C 0.91366 0.78503 0.78639 0.0
C470 C 0.95823 0.81271 0.79015 0.0
C471 C 0.9454 0.79305 0.79448 0.0
H472 H 0.89487 0.87784 0.74522 0.0
H473 H 0.95952 0.78428 0.80435 0.0
H474 H 0.10444 0.81881 0.75452 0.0
H475 H 0.08063 0.93158 0.71685 0.0
H476 H 0.98101 0.81918 0.79749 0.0
H477 H 0.90344 0.76993 0.78997 0.0
H478 H 0.04501 0.89882 0.71685 0.0
H479 H 0.83342 0.86847 0.73275 0.0
H480 H 0.84873 0.77557 0.77021 0.0
H481 H 0.81348 0.79878 0.75126 0.0
H482 H 0.1606 0.81869 0.77274 0.0
H483 H 0.80715 0.83365 0.73748 0.0
H484 H 0.13647 0.9355 0.73547 0.0
N485 N 0.10301 0.85141 0.75205 0.0
C486 C 0.12306 0.86907 0.75397 0.0
C487 C 0.14996 0.83306 0.76782 0.0
C488 C 0.15647 0.86962 0.76359 0.0
C489 C 0.11741 0.83328 0.75783 0.0
C490 C 0.16921 0.85139 0.77101 0.0
N491 N 0.07973 0.88485 0.73565 0.0
C492 C 0.06922 0.90054 0.72506 0.0
C493 C 0.1326 0.90459 0.74563 0.0
C494 C 0.11147 0.8863 0.74516 0.0
C495 C 0.12094 0.92117 0.73552 0.0
C496 C 0.08939 0.91902 0.725 0.0
H497 H 0.19474 0.85113 0.77852 0.0
H498 H 0.20236 0.88888 0.77235 0.0
H499 H 0.1814 0.91955 0.7566 0.0
O500 O 0.0454 0.8554 0.70905 0.0
O501 O 0.03847 0.88068 0.75308 0.0
O502 O 0.01478 0.866 0.77744 0.0
O503 O 0.09009 0.83947 0.72139 0.0
O504 O 0.99827 0.86874 0.72626 0.0
O505 O 0.96581 0.88132 0.75011 0.0
O506 O 0.93212 0.85677 0.79274 0.0
O507 O 0.95248 0.84231 0.74268 0.0
O508 O 0.00991 0.82824 0.73753 0.0
O509 O 0.93844 0.88424 0.77697 0.0
O510 O 0.01169 0.84135 0.77764 0.0
O511 O 0.03964 0.82749 0.75341 0.0
C512 C 0.03476 0.88028 0.76987 0.0
C513 C 0.10462 0.85693 0.69559 0.0
C514 C 0.12582 0.86696 0.6668 0.0
C515 C 0.1562 0.87743 0.67435 0.0
C516 C 0.13554 0.86728 0.70273 0.0
C517 C 0.16095 0.87755 0.69217 0.0
C518 C 0.09998 0.8567 0.67757 0.0
C519 C 0.9748 0.8817 0.73356 0.0
C520 C 0.07732 0.84637 0.70687 0.0
C521 C 0.17681 0.8881 0.76488 0.0
C522 C 0.16494 0.90556 0.75587 0.0
C523 C 0.97396 0.82927 0.7344 0.0
C524 C 0.90557 0.88849 0.80423 0.0
C525 C 0.88194 0.89321 0.83352 0.0
C526 C 0.86474 0.9115 0.82827 0.0
C527 C 0.88855 0.90697 0.79936 0.0
C528 C 0.90249 0.88173 0.82143 0.0
C529 C 0.86825 0.91836 0.81133 0.0
C530 C 0.03279 0.82744 0.77012 0.0
C531 C 0.9257 0.87628 0.79118 0.0
H532 H 0.17684 0.88519 0.66645 0.0
H533 H 0.14033 0.86732 0.71647 0.0
H534 H 0.18466 0.88547 0.69782 0.0
H535 H 0.07625 0.8487 0.67198 0.0
H536 H 0.84892 0.92061 0.83736 0.0
H537 H 0.89052 0.9125 0.78623 0.0
H538 H 0.91562 0.86753 0.82537 0.0
H539 H 0.85506 0.93254 0.80744 0.0
Tb540 Tb 0.45645 0.64052 0.23607 0.0
C541 C 0.62082 0.65842 0.25203 0.0
N542 N 0.60442 0.63963 0.25041 0.0
C543 C 0.65438 0.62845 0.23215 0.0
C544 C 0.65438 0.66313 0.24335 0.0
C545 C 0.62085 0.62455 0.24086 0.0
C546 C 0.67115 0.64784 0.23334 0.0
C547 C 0.6187 0.69294 0.26363 0.0
C548 C 0.60276 0.67319 0.26182 0.0
C549 C 0.65197 0.69781 0.25487 0.0
C550 C 0.66975 0.68295 0.24475 0.0
Tb551 Tb 0.55 0.63489 0.26522 0.0
N552 N 0.57023 0.668 0.26994 0.0
C553 C 0.60129 0.70703 0.27454 0.0
C554 C 0.55562 0.68104 0.28197 0.0
C555 C 0.57007 0.70089 0.28403 0.0
H556 H 0.60816 0.6095 0.24003 0.0
H557 H 0.55769 0.71126 0.29329 0.0
H558 H 0.40245 0.67248 0.25795 0.0
H559 H 0.43403 0.56245 0.2137 0.0
H560 H 0.53388 0.67613 0.29062 0.0
H561 H 0.61266 0.72235 0.27631 0.0
H562 H 0.4673 0.59525 0.21554 0.0
H563 H 0.66723 0.6165 0.22451 0.0
H564 H 0.66444 0.71295 0.25602 0.0
H565 H 0.69544 0.68692 0.23811 0.0
H566 H 0.34078 0.67143 0.27216 0.0
H567 H 0.69697 0.65085 0.22647 0.0
H568 H 0.37288 0.55803 0.22809 0.0
N569 N 0.39965 0.64152 0.24938 0.0
C570 C 0.37849 0.62418 0.24814 0.0
C571 C 0.35117 0.65798 0.26555 0.0
C572 C 0.3429 0.62295 0.25587 0.0
C573 C 0.38637 0.65844 0.25773 0.0
C574 C 0.32936 0.64014 0.26467 0.0
N575 N 0.42828 0.60901 0.23274 0.0
C576 C 0.44207 0.59342 0.22286 0.0
C577 C 0.37261 0.58892 0.23843 0.0
C578 C 0.39338 0.60734 0.23966 0.0
C579 C 0.38796 0.57244 0.22936 0.0
C580 C 0.42259 0.57482 0.22134 0.0
H581 H 0.30215 0.63981 0.2708 0.0
H582 H 0.29494 0.60329 0.26071 0.0
H583 H 0.32084 0.57354 0.24535 0.0
O584 O 0.45176 0.64055 0.20856 0.0
O585 O 0.45053 0.62345 0.26045 0.0
O586 O 0.50888 0.60989 0.26609 0.0
O587 O 0.41884 0.66084 0.22479 0.0
O588 O 0.50423 0.62371 0.22506 0.0
O589 O 0.5361 0.60926 0.24812 0.0
O590 O 0.5626 0.63444 0.29211 0.0
O591 O 0.55395 0.64893 0.23943 0.0
O592 O 0.49796 0.66524 0.2371 0.0
O593 O 0.59077 0.61442 0.27396 0.0
O594 O 0.5003 0.64898 0.27704 0.0
O595 O 0.47192 0.66502 0.25405 0.0
C596 C 0.47249 0.61041 0.26846 0.0
C597 C 0.40824 0.66453 0.19425 0.0
C598 C 0.39459 0.66647 0.16341 0.0
C599 C 0.37436 0.68457 0.16637 0.0
C600 C 0.38769 0.68263 0.19677 0.0
C601 C 0.37088 0.69251 0.18293 0.0
C602 C 0.41137 0.65632 0.17747 0.0
C603 C 0.5273 0.61 0.23164 0.0
C604 C 0.42663 0.65493 0.20927 0.0
C605 C 0.3223 0.60456 0.25481 0.0
C606 C 0.33711 0.5876 0.24611 0.0
C607 C 0.53307 0.66331 0.23269 0.0
C608 C 0.61051 0.61114 0.3037 0.0
C609 C 0.63204 0.60972 0.3336 0.0
C610 C 0.65725 0.5942 0.32898 0.0
C611 C 0.63591 0.59551 0.2995 0.0
C612 C 0.6083 0.61806 0.32091 0.0
C613 C 0.65897 0.5871 0.31208 0.0
C614 C 0.47712 0.66272 0.27072 0.0
C615 C 0.58764 0.62031 0.28983 0.0
H616 H 0.36087 0.69251 0.15582 0.0
H617 H 0.3848 0.68932 0.20948 0.0
H618 H 0.35516 0.70644 0.18504 0.0
H619 H 0.42713 0.6424 0.17531 0.0
H620 H 0.67552 0.58745 0.33854 0.0
H621 H 0.63821 0.58983 0.28643 0.0
H622 H 0.58898 0.63014 0.32436 0.0
H623 H 0.67843 0.57509 0.30869 0.0
C624 C 0.15553 0.96276 0.3471 0.0
C625 C 0.16363 0.96571 0.36466 0.0
C626 C 0.14167 0.97881 0.33709 0.0
C627 C 0.13301 0.03547 0.33547 0.0
H628 H 0.05582 0.02308 0.30188 0.0
C629 C 0.05275 0.09826 0.29761 0.0
C630 C 0.04632 0.09441 0.28004 0.0
C631 C 0.06776 0.083 0.3082 0.0
C632 C 0.07764 0.02677 0.31108 0.0
H633 H 0.16386 0.9881 0.38537 0.0
H634 H 0.13878 0.01602 0.36798 0.0
H635 H 0.08035 0.99574 0.31992 0.0
H636 H 0.05025 0.07154 0.25982 0.0
H637 H 0.07685 0.04507 0.27819 0.0
H638 H 0.12998 0.0666 0.32661 0.0
C639 C 0.14361 0.00129 0.36191 0.0
C640 C 0.09175 0.01108 0.32142 0.0
C641 C 0.15758 0.98521 0.37194 0.0
C642 C 0.0553 0.07506 0.27326 0.0
C643 C 0.07015 0.05981 0.28384 0.0
C644 C 0.11877 0.05121 0.32513 0.0
C645 C 0.13533 -0.00174 0.34436 0.0
C646 C 0.1198 0.01518 0.33367 0.0
C647 C 0.07635 0.06354 0.30145 0.0
C648 C 0.09109 0.047 0.31274 0.0
H649 H 0.15938 0.94791 0.34109 0.0
H650 H 0.13611 0.97598 0.32357 0.0
H651 H 0.1549 0.03914 0.34462 0.0
H652 H 0.04601 0.11304 0.30318 0.0
H653 H 0.07189 0.0863 0.32175 0.0
C654 C 0.3518 0.52844 0.84925 0.0
C655 C 0.34348 0.52514 0.86675 0.0
C656 C 0.36616 0.51264 0.8391 0.0
C657 C 0.37538 0.45613 0.83673 0.0
H658 H 0.45263 0.46931 0.80341 0.0
C659 C 0.45581 0.39427 0.79793 0.0
C660 C 0.46209 0.39846 0.78041 0.0
C661 C 0.44083 0.40931 0.80876 0.0
C662 C 0.43081 0.46541 0.81253 0.0
H663 H 0.34357 0.50249 0.88721 0.0
H664 H 0.3695 0.47499 0.86954 0.0
H665 H 0.42797 0.49624 0.82188 0.0
H666 H 0.45801 0.4217 0.76052 0.0
H667 H 0.43146 0.44781 0.77933 0.0
H668 H 0.37849 0.42522 0.82735 0.0
C669 C 0.36443 0.48978 0.86365 0.0
C670 C 0.41663 0.48086 0.82312 0.0
C671 C 0.34997 0.50561 0.87383 0.0
C672 C 0.45305 0.41793 0.77392 0.0
C673 C 0.43823 0.43296 0.78474 0.0
C674 C 0.38968 0.44064 0.82615 0.0
C675 C 0.37279 0.49313 0.84616 0.0
C676 C 0.38854 0.47646 0.83527 0.0
C677 C 0.43214 0.42888 0.8023 0.0
C678 C 0.41737 0.44515 0.81384 0.0
H679 H 0.34765 0.54334 0.8434 0.0
H680 H 0.37179 0.51571 0.82563 0.0
H681 H 0.35344 0.45226 0.8458 0.0
H682 H 0.4626 0.37939 0.80327 0.0
H683 H 0.43679 0.40575 0.82226 0.0
C684 C 0.67619 0.50872 0.6333 0.0
C685 C 0.66333 0.52871 0.63649 0.0
C686 C 0.66523 0.49241 0.64396 0.0
C687 C 0.62491 0.482 0.68736 0.0
H688 H 0.60385 0.42804 0.66843 0.0
C689 C 0.54213 0.41962 0.72392 0.0
C690 C 0.55557 0.39944 0.72325 0.0
C691 C 0.55858 0.435 0.71389 0.0
C692 C 0.61011 0.44297 0.67392 0.0
H693 H 0.6278 0.54715 0.65288 0.0
H694 H 0.60798 0.51879 0.67116 0.0
H695 H 0.62525 0.45556 0.6494 0.0
H696 H 0.59692 0.37945 0.71183 0.0
H697 H 0.62568 0.40642 0.69412 0.0
H698 H 0.60866 0.4695 0.71178 0.0
C699 C 0.62747 0.51569 0.66082 0.0
C700 C 0.62241 0.45875 0.66303 0.0
C701 C 0.63866 0.53197 0.65028 0.0
C702 C 0.58617 0.39494 0.71261 0.0
C703 C 0.6024 0.4103 0.7024 0.0
C704 C 0.6123 0.46629 0.69819 0.0
C705 C 0.64093 0.49572 0.65795 0.0
C706 C 0.62955 0.47856 0.66958 0.0
C707 C 0.58857 0.43046 0.70287 0.0
C708 C 0.60442 0.44668 0.69156 0.0
H709 H 0.69548 0.50579 0.62284 0.0
H710 H 0.67648 0.4773 0.64145 0.0
H711 H 0.63099 0.49688 0.69297 0.0
H712 H 0.51864 0.42348 0.73209 0.0
H713 H 0.54715 0.45035 0.71442 0.0
C714 C 0.863 0.96149 0.15099 0.0
C715 C 0.83876 0.96514 0.13711 0.0
C716 C 0.87506 0.97761 0.16152 0.0
C717 C 0.88323 0.03454 0.16346 0.0
H718 H 0.89731 0.02403 0.2122 0.0
C719 C 0.9213 0.09839 0.21276 0.0
C720 C 0.95198 0.09383 0.22333 0.0
C721 C 0.90476 0.08304 0.20262 0.0
C722 C 0.89358 0.02716 0.19861 0.0
H723 H 0.80806 0.98855 0.12338 0.0
H724 H 0.82841 0.01675 0.14201 0.0
H725 H 0.87356 0.99677 0.19359 0.0
H726 H 0.98882 0.06971 0.23207 0.0
H727 H 0.95971 0.04284 0.21452 0.0
H728 H 0.90299 0.06508 0.16867 0.0
C729 C 0.83878 0.00148 0.14457 0.0
C730 C 0.88017 0.01152 0.18789 0.0
C731 C 0.82703 0.98532 0.1339 0.0
C732 C 0.96526 0.07361 0.22396 0.0
C733 C 0.94848 0.05824 0.21401 0.0
C734 C 0.89628 0.05026 0.17424 0.0
C735 C 0.86285 -0.00218 0.15858 0.0
C736 C 0.87532 0.01488 0.17011 0.0
C737 C 0.91835 0.06284 0.20308 0.0
C738 C 0.90204 0.04664 0.19187 0.0
H739 H 0.87297 0.94613 0.15361 0.0
H740 H 0.8943 0.97422 0.17189 0.0
H741 H 0.88034 0.03767 0.14983 0.0
H742 H 0.91067 0.1139 0.21201 0.0
H743 H 0.88138 0.08696 0.19442 0.0
C744 C 0.85883 0.00918 0.62996 0.0
C745 C 0.84891 0.02815 0.63728 0.0
C746 C 0.87209 0.9932 0.64029 0.0
C747 C 0.91264 0.98293 0.68363 0.0
H748 H 0.88506 0.92659 0.67324 0.0
C749 C 0.9424 0.91551 0.73005 0.0
C750 C 0.95867 0.89802 0.72261 0.0
C751 C 0.92846 0.93125 0.71965 0.0
C752 C 0.89316 0.94225 0.67623 0.0
H753 H 0.84586 0.04514 0.66132 0.0
H754 H 0.86735 0.01715 0.67931 0.0
H755 H 0.86184 0.9543 0.65508 0.0
H756 H 0.97237 0.88319 0.69838 0.0
H757 H 0.94762 0.91054 0.6803 0.0
H758 H 0.94338 0.97081 0.70497 0.0
C759 C 0.86557 0.01467 0.66554 0.0
C760 C 0.88001 0.95815 0.66578 0.0
C761 C 0.85263 0.03068 0.65521 0.0
C762 C 0.96011 0.89647 0.70455 0.0
C763 C 0.94576 0.91208 0.69417 0.0
C764 C 0.92543 0.96706 0.69416 0.0
C765 C 0.87559 0.99572 0.65823 0.0
C766 C 0.88963 0.97872 0.66932 0.0
C767 C 0.93005 0.9297 0.70161 0.0
C768 C 0.9159 0.94655 0.69055 0.0
H769 H 0.856 0.00657 0.61624 0.0
H770 H 0.87996 0.97893 0.63415 0.0
H771 H 0.92128 -0.0015 0.68659 0.0
H772 H 0.9409 0.91722 0.74392 0.0
H773 H 0.91623 0.94459 0.72574 0.0
C774 C 0.65476 0.48589 0.12713 0.0
C775 C 0.66294 0.46685 0.13479 0.0
C776 C 0.64117 0.50218 0.13706 0.0
C777 C 0.63761 0.52161 0.18155 0.0
H778 H 0.55139 0.55225 0.16599 0.0
C779 C 0.55833 0.57613 0.22686 0.0
C780 C 0.54368 0.59437 0.22006 0.0
C781 C 0.57378 0.56131 0.21602 0.0
C782 C 0.57584 0.54409 0.17043 0.0
H783 H 0.66238 0.45004 0.15894 0.0
H784 H 0.63953 0.47852 0.17621 0.0
H785 H 0.57719 0.52528 0.14775 0.0
H786 H 0.5341 0.61146 0.19653 0.0
H787 H 0.56178 0.58577 0.1776 0.0
H788 H 0.63668 0.54043 0.20412 0.0
C789 C 0.64399 0.48089 0.16255 0.0
C790 C 0.59056 0.5286 0.15997 0.0
C791 C 0.65722 0.46457 0.15262 0.0
C792 C 0.54493 0.59749 0.20215 0.0
C793 C 0.56066 0.58271 0.1913 0.0
C794 C 0.62314 0.5372 0.19193 0.0
C795 C 0.63578 0.49986 0.15488 0.0
C796 C 0.62132 0.51704 0.16552 0.0
C797 C 0.57529 0.56441 0.1981 0.0
C798 C 0.59176 0.54848 0.18661 0.0
H799 H 0.6593 0.48833 0.11349 0.0
H800 H 0.63541 0.5167 0.13083 0.0
H801 H 0.66171 0.51317 0.18605 0.0
H802 H 0.55751 0.57316 0.24059 0.0
H803 H 0.58405 0.54726 0.22172 0.0
C804 C 0.37275 0.47319 0.36642 0.0
C805 C 0.33411 0.46956 0.36757 0.0
C806 C 0.38669 0.48912 0.35616 0.0
C807 C 0.35984 0.52353 0.32001 0.0
H808 H 0.44962 0.55296 0.3337 0.0
C809 C 0.41721 0.59525 0.28408 0.0
C810 C 0.45552 0.59481 0.28004 0.0
C811 C 0.40142 0.58041 0.29492 0.0
C812 C 0.42462 0.54479 0.32969 0.0
H813 H 0.27967 0.48004 0.35928 0.0
H814 H 0.3038 0.50826 0.34177 0.0
H815 H 0.42347 0.52677 0.35267 0.0
H816 H 0.50745 0.57859 0.28471 0.0
H817 H 0.47998 0.55306 0.30389 0.0
H818 H 0.36083 0.54199 0.29715 0.0
C819 C 0.32352 0.49848 0.34838 0.0
C820 C 0.40968 0.5297 0.34051 0.0
C821 C 0.30962 0.48238 0.35848 0.0
C822 C 0.4778 0.57941 0.28743 0.0
C823 C 0.46214 0.56479 0.29848 0.0
C824 C 0.37454 0.53883 0.3093 0.0
C825 C 0.36228 0.50198 0.34697 0.0
C826 C 0.37729 0.51869 0.33575 0.0
C827 C 0.42378 0.56509 0.30229 0.0
C828 C 0.40729 0.54945 0.31395 0.0
H829 H 0.39229 0.46337 0.37311 0.0
H830 H 0.41669 0.49101 0.35516 0.0
H831 H 0.33526 0.51519 0.31574 0.0
H832 H 0.39942 0.60717 0.2791 0.0
H833 H 0.37183 0.58115 0.29782 0.0
C834 C 0.16704 0.00631 0.87132 0.0
C835 C 0.17124 0.02612 0.86433 0.0
C836 C 0.15363 0.9901 0.86117 0.0
C837 C 0.14231 0.97352 0.816 0.0
H838 H 0.0667 0.93685 0.8346 0.0
C839 C 0.06047 0.91584 0.77351 0.0
C840 C 0.05226 0.89647 0.78052 0.0
C841 C 0.07656 0.93122 0.78371 0.0
C842 C 0.08821 0.94675 0.82928 0.0
H843 H 0.16389 0.04439 0.84121 0.0
H844 H 0.14103 0.01608 0.82352 0.0
H845 H 0.09203 0.96435 0.85253 0.0
H846 H 0.05462 0.8779 0.80365 0.0
H847 H 0.0829 0.90467 0.82146 0.0
H848 H 0.1386 0.95591 0.79275 0.0
C849 C 0.14856 0.01305 0.83679 0.0
C850 C 0.10267 0.96254 0.83956 0.0
C851 C 0.16174 0.02927 0.84694 0.0
C852 C 0.06043 0.89275 0.79793 0.0
C853 C 0.07654 0.90811 0.80814 0.0
C854 C 0.12797 0.95767 0.80573 0.0
C855 C 0.1443 0.99329 0.84379 0.0
C856 C 0.12973 0.97616 0.83301 0.0
C857 C 0.08461 0.92758 0.80119 0.0
C858 C 0.1006 0.94415 0.81222 0.0
H859 H 0.17457 0.00325 0.88458 0.0
H860 H 0.15105 0.97499 0.86688 0.0
H861 H 0.16352 0.9836 0.81066 0.0
H862 H 0.05375 0.91925 0.76023 0.0
H863 H 0.08184 0.94612 0.778 0.0
C864 C 0.21071 0.10858 0.01652 0.0
C865 C 0.18938 0.11848 0.00387 0.0
C866 C 0.19981 0.10916 0.03382 0.0
C867 C 0.13416 0.1357 0.06417 0.0
H868 H 0.15219 0.08763 0.09236 0.0
C869 C 0.05601 0.1167 0.12768 0.0
C870 C 0.07846 0.11168 0.14189 0.0
C871 C 0.0719 0.1192 0.11136 0.0
C872 C 0.1473 0.10122 0.08467 0.0
H873 H 0.13989 0.13658 0.99924 0.0
H874 H 0.11973 0.13686 0.02921 0.0
H875 H 0.17497 0.08848 0.06281 0.0
H876 H 0.13494 0.10539 0.15031 0.0
H877 H 0.16269 0.10915 0.12153 0.0
H878 H 0.10468 0.14782 0.08597 0.0
C879 C 0.14566 0.12926 0.02604 0.0
C880 C 0.16053 0.10181 0.06772 0.0
C881 C 0.15701 0.12901 0.00881 0.0
C882 C 0.11713 0.10935 0.13954 0.0
C883 C 0.13291 0.11141 0.12313 0.0
C884 C 0.12029 0.1349 0.08101 0.0
C885 C 0.16684 0.1193 0.03883 0.0
C886 C 0.15401 0.11903 0.05717 0.0
C887 C 0.1104 0.1163 0.10889 0.0
C888 C 0.12663 0.11763 0.09137 0.0
H889 H 0.23599 0.10051 0.01302 0.0
H890 H 0.21738 0.1017 0.04324 0.0
H891 H 0.12926 0.14943 0.05668 0.0
H892 H 0.02614 0.11864 0.12921 0.0
H893 H 0.05394 0.12286 0.10056 0.0
C894 C 0.29218 0.38396 0.51753 0.0
C895 C 0.31343 0.37421 0.50476 0.0
C896 C 0.30338 0.38335 0.53478 0.0
C897 C 0.37013 0.35721 0.56482 0.0
H898 H 0.35242 0.40544 0.59293 0.0
C899 C 0.44977 0.37684 0.62784 0.0
C900 C 0.42762 0.38191 0.64214 0.0
C901 C 0.43351 0.37421 0.6116 0.0
C902 C 0.35723 0.3918 0.58526 0.0
H903 H 0.36302 0.35627 0.49988 0.0
H904 H 0.38367 0.35593 0.52977 0.0
H905 H 0.32879 0.40428 0.56352 0.0
H906 H 0.37131 0.38819 0.65081 0.0
H907 H 0.3429 0.38418 0.62219 0.0
H908 H 0.40037 0.34535 0.58648 0.0
C909 C 0.3576 0.36345 0.52673 0.0
C910 C 0.34351 0.39103 0.56841 0.0
C911 C 0.34595 0.36372 0.50954 0.0
C912 C 0.38889 0.38419 0.63997 0.0
C913 C 0.37273 0.38199 0.62365 0.0
C914 C 0.38448 0.35818 0.58157 0.0
C915 C 0.33658 0.37334 0.53962 0.0
C916 C 0.34989 0.37376 0.55788 0.0
C917 C 0.39493 0.37702 0.60932 0.0
C918 C 0.37827 0.37552 0.5919 0.0
H919 H 0.26678 0.39199 0.51415 0.0
H920 H 0.28591 0.39074 0.5443 0.0
H921 H 0.37497 0.34344 0.55735 0.0
H922 H 0.47968 0.37493 0.62924 0.0
H923 H 0.45122 0.3705 0.60073 0.0
C924 C 0.68329 0.38399 0.98527 0.0
C925 C 0.6775 0.36814 0.99732 0.0
C926 C 0.6735 0.38126 0.96793 0.0
C927 C 0.65711 0.34012 0.93599 0.0
H928 H 0.61272 0.38327 0.90847 0.0
C929 C 0.61139 0.32354 0.86683 0.0
C930 C 0.62126 0.33808 0.85428 0.0
C931 C 0.61331 0.32846 0.88431 0.0
C932 C 0.62535 0.37111 0.91595 0.0
H933 H 0.65543 0.33732 1.00065 0.0
H934 H 0.63841 0.33256 0.97053 0.0
H935 H 0.62639 0.38943 0.93895 0.0
H936 H 0.6391 0.36946 0.85002 0.0
H937 H 0.64319 0.37811 0.88073 0.0
H938 H 0.65678 0.32189 0.91313 0.0
C939 C 0.65122 0.34696 0.97438 0.0
C940 C 0.63321 0.37465 0.93342 0.0
C941 C 0.66103 0.34968 0.99167 0.0
C942 C 0.63111 0.35804 0.85949 0.0
C943 C 0.63344 0.36295 0.87707 0.0
C944 C 0.64936 0.33662 0.9186 0.0
C945 C 0.65768 0.36262 0.96224 0.0
C946 C 0.64908 0.35914 0.94366 0.0
C947 C 0.62573 0.34798 0.88971 0.0
C948 C 0.63321 0.352 0.90833 0.0
H949 H 0.69621 0.39834 0.98916 0.0
H950 H 0.67925 0.39355 0.95891 0.0
H951 H 0.67011 0.32798 0.94335 0.0
H952 H 0.60343 0.30808 0.8631 0.0
H953 H 0.60613 0.31672 0.89364 0.0
C954 C 0.84957 0.14337 0.49243 0.0
C955 C 0.83372 0.12482 0.49823 0.0
C956 C 0.85904 0.14601 0.4751 0.0
C957 C 0.87708 0.1181 0.43418 0.0
H958 H 0.85207 0.17054 0.41378 0.0
C959 C 0.87794 0.13428 0.36018 0.0
C960 C 0.88739 0.15426 0.3549 0.0
C961 C 0.87588 0.12945 0.37778 0.0
C962 C 0.85988 0.15591 0.41928 0.0
H963 H 0.81577 0.09439 0.49029 0.0
H964 H 0.83211 0.09904 0.45996 0.0
H965 H 0.83928 0.16458 0.44405 0.0
H966 H 0.90478 0.1844 0.36362 0.0
H967 H 0.90253 0.17591 0.39419 0.0
H968 H 0.89739 0.10944 0.4092 0.0
C969 C 0.83765 0.11147 0.4689 0.0
C970 C 0.85245 0.15248 0.4367 0.0
C971 C 0.82822 0.10882 0.48629 0.0
C972 C 0.89714 0.16892 0.3674 0.0
C973 C 0.89547 0.16408 0.3849 0.0
C974 C 0.8846 0.12156 0.41667 0.0
C975 C 0.85283 0.13019 0.46305 0.0
C976 C 0.86103 0.13358 0.44442 0.0
C977 C 0.88345 0.14453 0.39036 0.0
C978 C 0.87624 0.14057 0.40902 0.0
H979 H 0.85493 0.15586 0.50133 0.0
H980 H 0.87138 0.16048 0.47114 0.0
H981 H 0.88431 0.10341 0.43975 0.0
H982 H 0.87003 0.12277 0.35075 0.0
H983 H 0.86643 0.11426 0.38149 0.0
C984 C 0.86163 0.87674 0.99089 0.0
C985 C 0.82482 0.87315 0.99653 0.0
C986 C 0.87043 0.87633 0.97332 0.0
C987 C 0.83306 0.8597 0.93046 0.0
H988 H 0.90421 0.89974 0.913 0.0
C989 C 0.84246 0.88416 0.85901 0.0
C990 C 0.87813 0.88645 0.85168 0.0
C991 C 0.83844 0.87985 0.87656 0.0
C992 C 0.88467 0.88828 0.91771 0.0
H993 H 0.76835 0.8664 0.98807 0.0
H994 H 0.78336 0.86611 0.95748 0.0
H995 H 0.89211 0.8978 0.94387 0.0
H996 H 0.93757 0.88578 0.8568 0.0
H997 H 0.93058 0.87864 0.88772 0.0
H998 H 0.82461 0.85084 0.90411 0.0
C999 C 0.80578 0.86874 0.9666 0.0
C1000 C 0.87774 0.88711 0.93544 0.0
C1001 C 0.79708 0.86897 0.98418 0.0
C1002 C 0.90979 0.88393 0.86215 0.0
C1003 C 0.90577 0.88 0.87981 0.0
C1004 C 0.83967 0.86106 0.91272 0.0
C1005 C 0.84257 0.87249 0.96089 0.0
C1006 C 0.85151 0.87295 0.94207 0.0
C1007 C 0.87001 0.87812 0.88723 0.0
C1008 C 0.86528 0.87549 0.90614 0.0
H1009 H 0.88377 0.87972 1.0001 0.0
H1010 H 0.89919 0.87891 0.96951 0.0
H1011 H 0.81332 0.84829 0.93504 0.0
H1012 H 0.81764 0.88606 0.85119 0.0
H1013 H 0.81055 0.87866 0.88191 0.0
C1014 C 0.70464 0.63007 0.48468 0.0
C1015 C 0.67801 0.62358 0.49686 0.0
C1016 C 0.69538 0.63138 0.4672 0.0
C1017 C 0.62701 0.61179 0.43513 0.0
H1018 H 0.67119 0.65409 0.40635 0.0
C1019 C 0.59877 0.61571 0.36167 0.0
C1020 C 0.63149 0.61697 0.35172 0.0
C1021 C 0.60009 0.61943 0.37947 0.0
C1022 C 0.65861 0.64219 0.41422 0.0
H1023 H 0.62038 0.61391 0.50021 0.0
H1024 H 0.60409 0.61633 0.46976 0.0
H1025 H 0.68187 0.65471 0.43739 0.0
H1026 H 0.69064 0.62415 0.35226 0.0
H1027 H 0.69293 0.63092 0.38314 0.0
H1028 H 0.60411 0.59917 0.41188 0.0
C1029 C 0.6324 0.62005 0.47366 0.0
C1030 C 0.66488 0.64247 0.43202 0.0
C1031 C 0.64173 0.61866 0.49114 0.0
C1032 C 0.66503 0.62307 0.35967 0.0
C1033 C 0.66627 0.62703 0.37734 0.0
C1034 C 0.62056 0.61159 0.41734 0.0
C1035 C 0.65915 0.62632 0.46143 0.0
C1036 C 0.64982 0.62703 0.44268 0.0
C1037 C 0.63405 0.62478 0.38754 0.0
C1038 C 0.63691 0.62654 0.40663 0.0
H1039 H 0.73298 0.63371 0.48859 0.0
H1040 H 0.71696 0.63588 0.45816 0.0
H1041 H 0.61527 0.59951 0.44286 0.0
H1042 H 0.57263 0.61091 0.35584 0.0
H1043 H 0.57475 0.61772 0.38697 0.0
C1044 C 0.32465 0.60887 0.01642 0.0
C1045 C 0.32986 0.6245 0.00413 0.0
C1046 C 0.33508 0.61195 0.03364 0.0
C1047 C 0.35364 0.65381 0.06483 0.0
H1048 H 0.39856 0.61101 0.09255 0.0
C1049 C 0.40796 0.67209 0.13223 0.0
C1050 C 0.39732 0.65862 0.1455 0.0
C1051 C 0.40392 0.66638 0.11501 0.0
C1052 C 0.38581 0.62306 0.08499 0.0
H1053 H 0.35154 0.65529 1.00019 0.0
H1054 H 0.36988 0.66063 0.03007 0.0
H1055 H 0.38267 0.60415 0.06238 0.0
H1056 H 0.37623 0.62816 0.15121 0.0
H1057 H 0.36884 0.61809 0.1209 0.0
H1058 H 0.35647 0.6727 0.08729 0.0
C1059 C 0.35692 0.64615 0.02655 0.0
C1060 C 0.37664 0.61913 0.06771 0.0
C1061 C 0.3464 0.6431 0.00939 0.0
C1062 C 0.38481 0.63878 0.1412 0.0
C1063 C 0.38054 0.63306 0.12387 0.0
C1064 C 0.36283 0.65773 0.08199 0.0
C1065 C 0.35105 0.63071 0.03895 0.0
C1066 C 0.36063 0.63453 0.05739 0.0
C1067 C 0.38884 0.64709 0.11058 0.0
C1068 C 0.37929 0.64249 0.09228 0.0
H1069 H 0.3117 0.59442 0.01283 0.0
H1070 H 0.32976 0.59982 0.04286 0.0
H1071 H 0.3405 0.66588 0.05744 0.0
H1072 H 0.41811 0.6874 0.13521 0.0
H1073 H 0.41153 0.67736 0.10512 0.0
C1074 C 0.13785 0.87341 0.50799 0.0
C1075 C 0.17371 0.86767 0.50239 0.0
C1076 C 0.12792 0.87191 0.52538 0.0
C1077 C 0.15542 0.84759 0.56675 0.0
H1078 H 0.10097 0.89285 0.58707 0.0
C1079 C 0.1147 0.84803 0.63894 0.0
C1080 C 0.12223 0.8665 0.6477 0.0
C1081 C 0.11582 0.84727 0.6209 0.0
C1082 C 0.11621 0.88008 0.58161 0.0
H1083 H 0.2272 0.85582 0.5108 0.0
H1084 H 0.20997 0.85327 0.5411 0.0
H1085 H 0.1143 0.89299 0.55629 0.0
H1086 H 0.13468 0.89887 0.64437 0.0
H1087 H 0.13705 0.89753 0.61306 0.0
H1088 H 0.15855 0.83506 0.59221 0.0
C1089 C 0.18927 0.85863 0.532 0.0
C1090 C 0.12352 0.88006 0.56391 0.0
C1091 C 0.19919 0.86011 0.5146 0.0
C1092 C 0.1292 0.88435 0.63801 0.0
C1093 C 0.13019 0.88361 0.62003 0.0
C1094 C 0.14808 0.8476 0.58447 0.0
C1095 C 0.15359 0.86464 0.53763 0.0
C1096 C 0.1437 0.86395 0.55629 0.0
C1097 C 0.12422 0.86499 0.61124 0.0
C1098 C 0.12887 0.86401 0.59217 0.0
H1099 H 0.1173 0.87895 0.49889 0.0
H1100 H 0.10001 0.87637 0.5292 0.0
H1101 H 0.17058 0.8348 0.56128 0.0
H1102 H 0.1094 0.834 0.64603 0.0
H1103 H 0.11062 0.83273 0.61452 0.0
C1104 C 0.20962 0.28698 0.35667 0.0
C1105 C 0.18809 0.29883 0.36801 0.0
C1106 C 0.19292 0.27159 0.3467 0.0
C1107 C 0.1053 0.2405 0.34218 0.0
H1108 H 0.14324 0.23177 0.29595 0.0
C1109 C 0.02794 0.19279 0.28987 0.0
C1110 C 0.04963 0.17818 0.28108 0.0
C1111 C 0.04478 0.20702 0.30097 0.0
C1112 C 0.13254 0.23396 0.30888 0.0
H1113 H 0.13233 0.30397 0.37787 0.0
H1114 H 0.10275 0.27761 0.36004 0.0
H1115 H 0.17239 0.25762 0.31433 0.0
H1116 H 0.10597 0.1666 0.27782 0.0
H1117 H 0.13538 0.19202 0.29651 0.0
H1118 H 0.06458 0.21721 0.33632 0.0
C1119 C 0.13273 0.2797 0.35915 0.0
C1120 C 0.14935 0.2487 0.31948 0.0
C1121 C 0.14959 0.29489 0.36933 0.0
C1122 C 0.08848 0.17799 0.28387 0.0
C1123 C 0.10537 0.19247 0.2947 0.0
C1124 C 0.08813 0.22599 0.33145 0.0
C1125 C 0.15414 0.26791 0.34761 0.0
C1126 C 0.1361 0.25214 0.33633 0.0
C1127 C 0.08368 0.20711 0.30335 0.0
C1128 C 0.10169 0.22254 0.31473 0.0
H1129 H 0.23947 0.28958 0.35558 0.0
H1130 H 0.21055 0.26254 0.33832 0.0
H1131 H 0.09466 0.2424 0.35513 0.0
H1132 H 0.99791 0.19332 0.28816 0.0
H1133 H 0.02744 0.2182 0.30745 0.0
C1134 C 0.35538 0.19975 0.86967 0.0
C1135 C 0.31668 0.19636 0.86848 0.0
C1136 C 0.37275 0.21474 0.85949 0.0
C1137 C 0.3568 0.24584 0.81991 0.0
H1138 H 0.44328 0.27628 0.83629 0.0
C1139 C 0.41917 0.31573 0.78399 0.0
C1140 C 0.45792 0.3152 0.78099 0.0
C1141 C 0.40216 0.30143 0.79491 0.0
C1142 C 0.41926 0.26779 0.83154 0.0
H1143 H 0.26553 0.20644 0.85633 0.0
H1144 H 0.29538 0.23314 0.83909 0.0
H1145 H 0.41257 0.25153 0.85528 0.0
H1146 H 0.5094 0.29965 0.78779 0.0
H1147 H 0.47965 0.27504 0.80724 0.0
H1148 H 0.36308 0.2626 0.79633 0.0
C1149 C 0.31273 0.22381 0.84736 0.0
C1150 C 0.40171 0.25353 0.84238 0.0
C1151 C 0.2955 0.20861 0.85733 0.0
C1152 C 0.47944 0.30043 0.78966 0.0
C1153 C 0.46248 0.28636 0.80085 0.0
C1154 C 0.374 0.26031 0.8092 0.0
C1155 C 0.35169 0.22688 0.84808 0.0
C1156 C 0.37025 0.24232 0.83669 0.0
C1157 C 0.42364 0.28661 0.80344 0.0
C1158 C 0.40544 0.27137 0.81489 0.0
H1159 H 0.37236 0.19035 0.87807 0.0
H1160 H 0.40284 0.21639 0.86026 0.0
H1161 H 0.33325 0.23721 0.81487 0.0
H1162 H 0.40184 0.32726 0.77803 0.0
H1163 H 0.37222 0.30215 0.79689 0.0
C1164 C 0.68368 0.21237 0.62841 0.0
C1165 C 0.68858 0.19227 0.63462 0.0
C1166 C 0.6651 0.2271 0.63835 0.0
C1167 C 0.60322 0.23254 0.67701 0.0
H1168 H 0.63835 0.28897 0.67589 0.0
C1169 C 0.56208 0.29366 0.72783 0.0
C1170 C 0.54932 0.31243 0.72121 0.0
C1171 C 0.57803 0.27904 0.71689 0.0
C1172 C 0.62813 0.27328 0.67624 0.0
H1173 H 0.67634 0.17187 0.65604 0.0
H1174 H 0.64603 0.1976 0.67359 0.0
H1175 H 0.66776 0.26343 0.6574 0.0
H1176 H 0.54387 0.33077 0.69804 0.0
H1177 H 0.57248 0.30537 0.67903 0.0
H1178 H 0.56447 0.24243 0.69634 0.0
C1179 C 0.65579 0.20201 0.66091 0.0
C1180 C 0.64479 0.25862 0.66556 0.0
C1181 C 0.67388 0.18726 0.65091 0.0
C1182 C 0.55322 0.31638 0.7035 0.0
C1183 C 0.56979 0.30192 0.69263 0.0
C1184 C 0.58701 0.24713 0.68787 0.0
C1185 C 0.65121 0.22218 0.65483 0.0
C1186 C 0.63265 0.23801 0.66581 0.0
C1187 C 0.58217 0.28306 0.6992 0.0
C1188 C 0.59932 0.26763 0.68761 0.0
H1189 H 0.6948 0.2169 0.61601 0.0
H1190 H 0.66164 0.24234 0.63306 0.0
H1191 H 0.59243 0.21698 0.67734 0.0
H1192 H 0.55938 0.29019 0.74142 0.0
H1193 H 0.58758 0.26466 0.72229 0.0
C1194 C 0.79304 0.28746 0.1463 0.0
C1195 C 0.81355 0.2988 0.13412 0.0
C1196 C 0.81055 0.27271 0.15654 0.0
C1197 C 0.89829 0.24219 0.1606 0.0
H1198 H 0.86316 0.23521 0.20747 0.0
C1199 C 0.95373 0.17717 0.20406 0.0
C1200 C 0.95705 0.18082 0.22184 0.0
C1201 C 0.93642 0.19149 0.19333 0.0
C1202 C 0.87376 0.23709 0.19451 0.0
H1203 H 0.86843 0.30358 0.12305 0.0
H1204 H 0.89944 0.27834 0.14126 0.0
H1205 H 0.83369 0.26035 0.18898 0.0
H1206 H 0.9454 0.2025 0.24228 0.0
H1207 H 0.91651 0.22789 0.22354 0.0
H1208 H 0.93957 0.21965 0.16641 0.0
C1209 C 0.86958 0.28037 0.14266 0.0
C1210 C 0.85632 0.25133 0.18373 0.0
C1211 C 0.85189 0.29491 0.13223 0.0
C1212 C 0.94301 0.1992 0.22865 0.0
C1213 C 0.92619 0.21369 0.21788 0.0
C1214 C 0.91608 0.22815 0.17145 0.0
C1215 C 0.84921 0.26914 0.15506 0.0
C1216 C 0.86815 0.25402 0.16658 0.0
C1217 C 0.92248 0.21002 0.20006 0.0
C1218 C 0.90396 0.2253 0.18855 0.0
H1219 H 0.76333 0.28998 0.14788 0.0
H1220 H 0.79363 0.26408 0.16558 0.0
H1221 H 0.90803 0.24358 0.14745 0.0
H1222 H 0.96388 0.16303 0.19843 0.0
H1223 H 0.93346 0.18782 0.1798 0.0
C1224 C 0.83746 0.69036 0.64828 0.0
C1225 C 0.82073 0.6953 0.63242 0.0
C1226 C 0.8555 0.7054 0.65811 0.0
C1227 C 0.86254 0.76202 0.66381 0.0
H1228 H 0.94678 0.74694 0.69241 0.0
C1229 C 0.9193 0.81575 0.71732 0.0
C1230 C 0.9575 0.81509 0.72144 0.0
C1231 C 0.90373 0.80179 0.70559 0.0
C1232 C 0.92367 0.75161 0.68435 0.0
H1233 H 0.81077 0.72007 0.61436 0.0
H1234 H 0.8437 0.74615 0.63116 0.0
H1235 H 0.91968 0.72179 0.67302 0.0
H1236 H 0.00982 0.79991 0.71554 0.0
H1237 H 0.98325 0.77634 0.69457 0.0
H1238 H 0.86758 0.79212 0.67464 0.0
C1239 C 0.84196 0.73069 0.63622 0.0
C1240 C 0.90762 0.737 0.67338 0.0
C1241 C 0.8235 0.71564 0.62644 0.0
C1242 C 0.9801 0.80068 0.71295 0.0
C1243 C 0.96474 0.78698 0.70098 0.0
C1244 C 0.87895 0.77676 0.67462 0.0
C1245 C 0.85795 0.72581 0.65228 0.0
C1246 C 0.87648 0.74188 0.66313 0.0
C1247 C 0.9262 0.7871 0.69731 0.0
C1248 C 0.90951 0.77171 0.6852 0.0
H1249 H 0.8366 0.67481 0.65319 0.0
H1250 H 0.86691 0.70101 0.67048 0.0
H1251 H 0.8384 0.76637 0.65627 0.0
H1252 H 0.90129 0.82701 0.72316 0.0
H1253 H 0.87391 0.80235 0.70328 0.0
C1254 C 0.69676 0.77923 0.13209 0.0
C1255 C 0.68053 0.79876 0.13078 0.0
C1256 C 0.68055 0.76409 0.14256 0.0
C1257 C 0.6158 0.75839 0.17962 0.0
H1258 H 0.61533 0.70088 0.16667 0.0
C1259 C 0.53238 0.69722 0.21753 0.0
C1260 C 0.55006 0.6784 0.22073 0.0
C1261 C 0.54855 0.71162 0.2064 0.0
C1262 C 0.61559 0.71686 0.17054 0.0
H1263 H 0.6336 0.8174 0.13874 0.0
H1264 H 0.60502 0.79099 0.15671 0.0
H1265 H 0.64229 0.72634 0.14714 0.0
H1266 H 0.598 0.65968 0.21437 0.0
H1267 H 0.62658 0.68495 0.19515 0.0
H1268 H 0.58885 0.74893 0.20295 0.0
C1269 C 0.63083 0.78748 0.15008 0.0
C1270 C 0.63106 0.73147 0.15935 0.0
C1271 C 0.64712 0.80261 0.13971 0.0
C1272 C 0.58402 0.67418 0.21239 0.0
C1273 C 0.60017 0.68856 0.20122 0.0
C1274 C 0.6002 0.74382 0.19075 0.0
C1275 C 0.64762 0.76812 0.15187 0.0
C1276 C 0.63126 0.75244 0.16372 0.0
C1277 C 0.58267 0.70748 0.19813 0.0
C1278 C 0.5998 0.72289 0.18634 0.0
H1279 H 0.7227 0.77586 0.12551 0.0
H1280 H 0.69449 0.74945 0.14375 0.0
H1281 H 0.61616 0.77433 0.18362 0.0
H1282 H 0.50612 0.70093 0.22371 0.0
H1283 H 0.5341 0.72593 0.20413 0.0
C1284 C 0.34343 0.80471 0.35286 0.0
C1285 C 0.32484 0.79995 0.36835 0.0
C1286 C 0.36034 0.78934 0.34308 0.0
C1287 C 0.40043 0.73787 0.34467 0.0
H1288 H 0.37575 0.73632 0.29604 0.0
C1289 C 0.45104 0.67248 0.29955 0.0
C1290 C 0.46014 0.67784 0.28254 0.0
C1291 C 0.43434 0.68683 0.31054 0.0
C1292 C 0.38349 0.73667 0.30953 0.0
H1293 H 0.31059 0.7751 0.38585 0.0
H1294 H 0.3412 0.74835 0.36893 0.0
H1295 H 0.34836 0.76253 0.31439 0.0
H1296 H 0.46026 0.70251 0.26384 0.0
H1297 H 0.43244 0.72765 0.28303 0.0
H1298 H 0.43641 0.71237 0.33976 0.0
C1299 C 0.34231 0.76407 0.36439 0.0
C1300 C 0.36759 0.75166 0.32005 0.0
C1301 C 0.32491 0.77944 0.3741 0.0
C1302 C 0.45298 0.69786 0.27682 0.0
C1303 C 0.4368 0.71225 0.28783 0.0
C1304 C 0.4168 0.723 0.33408 0.0
C1305 C 0.35963 0.76884 0.34864 0.0
C1306 C 0.37604 0.7525 0.3377 0.0
C1307 C 0.42687 0.70691 0.3048 0.0
C1308 C 0.40873 0.72228 0.31632 0.0
H1309 H 0.34491 0.82037 0.34821 0.0
H1310 H 0.37407 0.79351 0.33113 0.0
H1311 H 0.40757 0.73826 0.35823 0.0
H1312 H 0.45621 0.6571 0.30425 0.0
H1313 H 0.42674 0.68204 0.32344 0.0
C1314 C 0.16362 0.68433 0.8527 0.0
C1315 C 0.18281 0.68972 0.86789 0.0
C1316 C 0.14671 0.69932 0.84252 0.0
C1317 C 0.14808 0.75557 0.8342 0.0
H1318 H 0.05704 0.74324 0.80899 0.0
C1319 C 0.06192 0.81686 0.79792 0.0
C1320 C 0.0507 0.81181 0.78109 0.0
C1321 C 0.0783 0.8021 0.80851 0.0
C1322 C 0.08263 0.74683 0.81586 0.0
H1323 H 0.19837 0.71527 0.8844 0.0
H1324 H 0.1675 0.7413 0.86706 0.0
H1325 H 0.08345 0.71749 0.82817 0.0
H1326 H 0.04769 0.7875 0.76209 0.0
H1327 H 0.07582 0.76146 0.78079 0.0
H1328 H 0.1465 0.78514 0.82211 0.0
C1329 C 0.16639 0.72549 0.86276 0.0
C1330 C 0.09789 0.73206 0.82683 0.0
C1331 C 0.18366 0.71049 0.87288 0.0
C1332 C 0.05621 0.79175 0.77501 0.0
C1333 C 0.07206 0.77688 0.78572 0.0
C1334 C 0.13252 0.77042 0.8234 0.0
C1335 C 0.14803 0.72014 0.84733 0.0
C1336 C 0.13098 0.73616 0.83609 0.0
C1337 C 0.08326 0.78192 0.80258 0.0
C1338 C 0.09977 0.76616 0.81404 0.0
H1339 H 0.16171 0.66847 0.84858 0.0
H1340 H 0.13326 0.69455 0.83067 0.0
H1341 H 0.17393 0.75921 0.84082 0.0
H1342 H 0.05815 0.83227 0.80287 0.0
H1343 H 0.08647 0.80638 0.82147 0.0
loop_
_geom_bond_atom_site_label_1
_geom_bond_atom_site_label_2
_geom_bond_distance
_geom_bond_site_symmetry_2
_ccdc_geom_bond_type
C0 C1 1.384 . S
C0 H13 0.947 . S
C0 C35 1.382 . S
C1 C0 1.384 . S
C1 C2 1.378 . S
C2 C1 1.378 . S
C2 C3 1.378 . S
C2 H14 0.952 . S
C3 C2 1.378 . S
C3 H15 0.950 . S
C3 C34 1.383 . S
H4 C23 0.947 . S
H5 C24 0.946 . S
H6 C26 0.953 . S
H7 C27 0.945 . S
H8 C29 0.952 . S
H9 C30 0.949 . S
H10 C32 0.950 . S
H11 C33 0.948 . S
H12 C35 0.951 . S
H13 C0 0.947 . S
H14 C2 0.952 . S
H15 C3 0.950 . S
N16 C19 1.382 . S
N16 C21 1.363 . S
N17 C19 1.371 . S
N17 C20 1.372 . S
N18 C20 1.361 . S
N18 C21 1.377 . S
C19 N16 1.382 . S
C19 N17 1.371 . S
C19 C22 1.480 . S
C20 N17 1.372 . S
C20 N18 1.361 . S
C20 C28 1.457 . S
C21 N16 1.363 . S
C21 N18 1.377 . S
C21 C34 1.479 . S
C22 C19 1.480 . S
C22 C23 1.383 . S
C22 C27 1.385 . S
C23 H4 0.947 . S
C23 C22 1.383 . S
C23 C24 1.388 . S
C24 H5 0.946 . S
C24 C23 1.388 . S
C24 C25 1.384 . S
C25 C24 1.384 . S
C25 C26 1.377 . S
C26 H6 0.953 . S
C26 C25 1.377 . S
C26 C27 1.369 . S
C27 H7 0.945 . S
C27 C22 1.385 . S
C27 C26 1.369 . S
C28 C20 1.457 . S
C28 C29 1.372 . S
C28 C33 1.364 . S
C29 H8 0.952 . S
C29 C28 1.372 . S
C29 C30 1.389 . S
C30 H9 0.949 . S
C30 C29 1.389 . S
C30 C31 1.387 . S
C31 C30 1.387 . S
C31 C32 1.372 . S
C32 H10 0.950 . S
C32 C31 1.372 . S
C32 C33 1.379 . S
C33 H11 0.948 . S
C33 C28 1.364 . S
C33 C32 1.379 . S
C34 C3 1.383 . S
C34 C21 1.479 . S
C34 C35 1.398 . S
C35 C0 1.382 . S
C35 H12 0.951 . S
C35 C34 1.398 . S
C36 C37 1.384 . S
C36 H49 0.947 . S
C36 C71 1.382 . S
C37 C36 1.384 . S
C37 C38 1.378 . S
C38 C37 1.378 . S
C38 C39 1.378 . S
C38 H50 0.952 . S
C39 C38 1.378 . S
C39 H51 0.950 . S
C39 C70 1.383 . S
H40 C59 0.947 . S
H41 C60 0.946 . S
H42 C62 0.953 . S
H43 C63 0.945 . S
H44 C65 0.952 . S
H45 C66 0.949 . S
H46 C68 0.950 . S
H47 C69 0.948 . S
H48 C71 0.951 . S
H49 C36 0.947 . S
H50 C38 0.952 . S
H51 C39 0.950 . S
N52 C55 1.382 . S
N52 C57 1.363 . S
N53 C55 1.371 . S
N53 C56 1.372 . S
N54 C56 1.361 . S
N54 C57 1.377 . S
C55 N52 1.382 . S
C55 N53 1.371 . S
C55 C58 1.480 . S
C56 N53 1.372 . S
C56 N54 1.361 . S
C56 C64 1.457 . S
C57 N52 1.363 . S
C57 N54 1.377 . S
C57 C70 1.479 . S
C58 C55 1.480 . S
C58 C59 1.383 . S
C58 C63 1.385 . S
C59 H40 0.947 . S
C59 C58 1.383 . S
C59 C60 1.388 . S
C60 H41 0.946 . S
C60 C59 1.388 . S
C60 C61 1.384 . S
C61 C60 1.384 . S
C61 C62 1.377 . S
C62 H42 0.953 . S
C62 C61 1.377 . S
C62 C63 1.369 . S
C63 H43 0.945 . S
C63 C58 1.385 . S
C63 C62 1.369 . S
C64 C56 1.457 . S
C64 C65 1.372 . S
C64 C69 1.364 . S
C65 H44 0.952 . S
C65 C64 1.372 . S
C65 C66 1.389 . S
C66 H45 0.949 . S
C66 C65 1.389 . S
C66 C67 1.387 . S
C67 C66 1.387 . S
C67 C68 1.372 . S
C68 H46 0.950 . S
C68 C67 1.372 . S
C68 C69 1.379 . S
C69 H47 0.948 . S
C69 C64 1.364 . S
C69 C68 1.379 . S
C70 C39 1.383 . S
C70 C57 1.479 . S
C70 C71 1.398 . S
C71 C36 1.382 . S
C71 H48 0.951 . S
C71 C70 1.398 . S
C72 C73 1.384 . S
C72 H85 0.947 . S
C72 C107 1.382 . S
C73 C72 1.384 . S
C73 C74 1.378 . S
C74 C73 1.378 . S
C74 C75 1.378 . S
C74 H86 0.952 . S
C75 C74 1.378 . S
C75 H87 0.950 . S
C75 C106 1.383 . S
H76 C95 0.947 . S
H77 C96 0.946 . S
H78 C98 0.953 . S
H79 C99 0.945 . S
H80 C101 0.952 . S
H81 C102 0.949 . S
H82 C104 0.950 . S
H83 C105 0.948 . S
H84 C107 0.951 . S
H85 C72 0.947 . S
H86 C74 0.952 . S
H87 C75 0.950 . S
N88 C91 1.382 . S
N88 C93 1.363 . S
N89 C91 1.371 . S
N89 C92 1.372 . S
N90 C92 1.361 . S
N90 C93 1.377 . S
C91 N88 1.382 . S
C91 N89 1.371 . S
C91 C94 1.480 . S
C92 N89 1.372 . S
C92 N90 1.361 . S
C92 C100 1.457 . S
C93 N88 1.363 . S
C93 N90 1.377 . S
C93 C106 1.479 . S
C94 C91 1.480 . S
C94 C95 1.383 . S
C94 C99 1.385 . S
C95 H76 0.947 . S
C95 C94 1.383 . S
C95 C96 1.388 . S
C96 H77 0.946 . S
C96 C95 1.388 . S
C96 C97 1.384 . S
C97 C96 1.384 . S
C97 C98 1.377 . S
C98 H78 0.953 . S
C98 C97 1.377 . S
C98 C99 1.369 . S
C99 H79 0.945 . S
C99 C94 1.385 . S
C99 C98 1.369 . S
C100 C92 1.457 . S
C100 C101 1.372 . S
C100 C105 1.364 . S
C101 H80 0.952 . S
C101 C100 1.372 . S
C101 C102 1.389 . S
C102 H81 0.949 . S
C102 C101 1.389 . S
C102 C103 1.387 . S
C103 C102 1.387 . S
C103 C104 1.372 . S
C104 H82 0.950 . S
C104 C103 1.372 . S
C104 C105 1.379 . S
C105 H83 0.948 . S
C105 C100 1.364 . S
C105 C104 1.379 . S
C106 C75 1.383 . S
C106 C93 1.479 . S
C106 C107 1.398 . S
C107 C72 1.382 . S
C107 H84 0.951 . S
C107 C106 1.398 . S
C108 C109 1.384 . S
C108 H121 0.947 . S
C108 C143 1.382 . S
C109 C108 1.384 . S
C109 C110 1.378 . S
C110 C109 1.378 . S
C110 C111 1.378 . S
C110 H122 0.952 . S
C111 C110 1.378 . S
C111 H123 0.950 . S
C111 C142 1.383 . S
H112 C131 0.947 . S
H113 C132 0.946 . S
H114 C134 0.953 . S
H115 C135 0.945 . S
H116 C137 0.952 . S
H117 C138 0.949 . S
H118 C140 0.950 . S
H119 C141 0.948 . S
H120 C143 0.951 . S
H121 C108 0.947 . S
H122 C110 0.952 . S
H123 C111 0.950 . S
N124 C127 1.382 . S
N124 C129 1.363 . S
N125 C127 1.371 . S
N125 C128 1.372 . S
N126 C128 1.361 . S
N126 C129 1.377 . S
C127 N124 1.382 . S
C127 N125 1.371 . S
C127 C130 1.480 . S
C128 N125 1.372 . S
C128 N126 1.361 . S
C128 C136 1.457 . S
C129 N124 1.363 . S
C129 N126 1.377 . S
C129 C142 1.479 . S
C130 C127 1.480 . S
C130 C131 1.383 . S
C130 C135 1.385 . S
C131 H112 0.947 . S
C131 C130 1.383 . S
C131 C132 1.388 . S
C132 H113 0.946 . S
C132 C131 1.388 . S
C132 C133 1.384 . S
C133 C132 1.384 . S
C133 C134 1.377 . S
C134 H114 0.953 . S
C134 C133 1.377 . S
C134 C135 1.369 . S
C135 H115 0.945 . S
C135 C130 1.385 . S
C135 C134 1.369 . S
C136 C128 1.457 . S
C136 C137 1.372 . S
C136 C141 1.364 . S
C137 H116 0.952 . S
C137 C136 1.372 . S
C137 C138 1.389 . S
C138 H117 0.949 . S
C138 C137 1.389 . S
C138 C139 1.387 . S
C139 C138 1.387 . S
C139 C140 1.372 . S
C140 H118 0.950 . S
C140 C139 1.372 . S
C140 C141 1.379 . S
C141 H119 0.948 . S
C141 C136 1.364 . S
C141 C140 1.379 . S
C142 C111 1.383 . S
C142 C129 1.479 . S
C142 C143 1.398 . S
C143 C108 1.382 . S
C143 H120 0.951 . S
C143 C142 1.398 . S
C144 C145 1.384 . S
C144 H157 0.947 . S
C144 C179 1.382 . S
C145 C144 1.384 . S
C145 C146 1.378 . S
C146 C145 1.378 . S
C146 C147 1.378 . S
C146 H158 0.952 . S
C147 C146 1.378 . S
C147 H159 0.950 . S
C147 C178 1.383 . S
H148 C167 0.947 . S
H149 C168 0.946 . S
H150 C170 0.953 . S
H151 C171 0.945 . S
H152 C173 0.952 . S
H153 C174 0.949 . S
H154 C176 0.950 . S
H155 C177 0.948 . S
H156 C179 0.951 . S
H157 C144 0.947 . S
H158 C146 0.952 . S
H159 C147 0.950 . S
N160 C163 1.382 . S
N160 C165 1.363 . S
N161 C163 1.371 . S
N161 C164 1.372 . S
N162 C164 1.361 . S
N162 C165 1.377 . S
C163 N160 1.382 . S
C163 N161 1.371 . S
C163 C166 1.480 . S
C164 N161 1.372 . S
C164 N162 1.361 . S
C164 C172 1.457 . S
C165 N160 1.363 . S
C165 N162 1.377 . S
C165 C178 1.479 . S
C166 C163 1.480 . S
C166 C167 1.383 . S
C166 C171 1.385 . S
C167 H148 0.947 . S
C167 C166 1.383 . S
C167 C168 1.388 . S
C168 H149 0.946 . S
C168 C167 1.388 . S
C168 C169 1.384 . S
C169 C168 1.384 . S
C169 C170 1.377 . S
C170 H150 0.953 . S
C170 C169 1.377 . S
C170 C171 1.369 . S
C171 H151 0.945 . S
C171 C166 1.385 . S
C171 C170 1.369 . S
C172 C164 1.457 . S
C172 C173 1.372 . S
C172 C177 1.364 . S
C173 H152 0.952 . S
C173 C172 1.372 . S
C173 C174 1.389 . S
C174 H153 0.949 . S
C174 C173 1.389 . S
C174 C175 1.387 . S
C175 C174 1.387 . S
C175 C176 1.372 . S
C176 H154 0.950 . S
C176 C175 1.372 . S
C176 C177 1.379 . S
C177 H155 0.948 . S
C177 C172 1.364 . S
C177 C176 1.379 . S
C178 C147 1.383 . S
C178 C165 1.479 . S
C178 C179 1.398 . S
C179 C144 1.382 . S
C179 H156 0.951 . S
C179 C178 1.398 . S
C180 C181 1.384 . S
C180 H193 0.947 . S
C180 C215 1.382 . S
C181 C180 1.384 . S
C181 C182 1.378 . S
C182 C181 1.378 . S
C182 C183 1.378 . S
C182 H194 0.952 . S
C183 C182 1.378 . S
C183 H195 0.950 . S
C183 C214 1.383 . S
H184 C203 0.947 . S
H185 C204 0.946 . S
H186 C206 0.953 . S
H187 C207 0.945 . S
H188 C209 0.952 . S
H189 C210 0.949 . S
H190 C212 0.950 . S
H191 C213 0.948 . S
H192 C215 0.951 . S
H193 C180 0.947 . S
H194 C182 0.952 . S
H195 C183 0.950 . S
N196 C199 1.382 . S
N196 C201 1.363 . S
N197 C199 1.371 . S
N197 C200 1.372 . S
N198 C200 1.361 . S
N198 C201 1.377 . S
C199 N196 1.382 . S
C199 N197 1.371 . S
C199 C202 1.480 . S
C200 N197 1.372 . S
C200 N198 1.361 . S
C200 C208 1.457 . S
C201 N196 1.363 . S
C201 N198 1.377 . S
C201 C214 1.479 . S
C202 C199 1.480 . S
C202 C203 1.383 . S
C202 C207 1.385 . S
C203 H184 0.947 . S
C203 C202 1.383 . S
C203 C204 1.388 . S
C204 H185 0.946 . S
C204 C203 1.388 . S
C204 C205 1.384 . S
C205 C204 1.384 . S
C205 C206 1.377 . S
C206 H186 0.953 . S
C206 C205 1.377 . S
C206 C207 1.369 . S
C207 H187 0.945 . S
C207 C202 1.385 . S
C207 C206 1.369 . S
C208 C200 1.457 . S
C208 C209 1.372 . S
C208 C213 1.364 . S
C209 H188 0.952 . S
C209 C208 1.372 . S
C209 C210 1.389 . S
C210 H189 0.949 . S
C210 C209 1.389 . S
C210 C211 1.387 . S
C211 C210 1.387 . S
C211 C212 1.372 . S
C212 H190 0.950 . S
C212 C211 1.372 . S
C212 C213 1.379 . S
C213 H191 0.948 . S
C213 C208 1.364 . S
C213 C212 1.379 . S
C214 C183 1.383 . S
C214 C201 1.479 . S
C214 C215 1.398 . S
C215 C180 1.382 . S
C215 H192 0.951 . S
C215 C214 1.398 . S
C216 C217 1.384 . S
C216 H229 0.947 . S
C216 C251 1.382 . S
C217 C216 1.384 . S
C217 C218 1.378 . S
C218 C217 1.378 . S
C218 C219 1.378 . S
C218 H230 0.952 . S
C219 C218 1.378 . S
C219 H231 0.950 . S
C219 C250 1.383 . S
H220 C239 0.947 . S
H221 C240 0.946 . S
H222 C242 0.953 . S
H223 C243 0.945 . S
H224 C245 0.952 . S
H225 C246 0.949 . S
H226 C248 0.950 . S
H227 C249 0.948 . S
H228 C251 0.951 . S
H229 C216 0.947 . S
H230 C218 0.952 . S
H231 C219 0.950 . S
N232 C235 1.382 . S
N232 C237 1.363 . S
N233 C235 1.371 . S
N233 C236 1.372 . S
N234 C236 1.361 . S
N234 C237 1.377 . S
C235 N232 1.382 . S
C235 N233 1.371 . S
C235 C238 1.480 . S
C236 N233 1.372 . S
C236 N234 1.361 . S
C236 C244 1.457 . S
C237 N232 1.363 . S
C237 N234 1.377 . S
C237 C250 1.479 . S
C238 C235 1.480 . S
C238 C239 1.383 . S
C238 C243 1.385 . S
C239 H220 0.947 . S
C239 C238 1.383 . S
C239 C240 1.388 . S
C240 H221 0.946 . S
C240 C239 1.388 . S
C240 C241 1.384 . S
C241 C240 1.384 . S
C241 C242 1.377 . S
C242 H222 0.953 . S
C242 C241 1.377 . S
C242 C243 1.369 . S
C243 H223 0.945 . S
C243 C238 1.385 . S
C243 C242 1.369 . S
C244 C236 1.457 . S
C244 C245 1.372 . S
C244 C249 1.364 . S
C245 H224 0.952 . S
C245 C244 1.372 . S
C245 C246 1.389 . S
C246 H225 0.949 . S
C246 C245 1.389 . S
C246 C247 1.387 . S
C247 C246 1.387 . S
C247 C248 1.372 . S
C248 H226 0.950 . S
C248 C247 1.372 . S
C248 C249 1.379 . S
C249 H227 0.948 . S
C249 C244 1.364 . S
C249 C248 1.379 . S
C250 C219 1.383 . S
C250 C237 1.479 . S
C250 C251 1.398 . S
C251 C216 1.382 . S
C251 H228 0.951 . S
C251 C250 1.398 . S
C252 C253 1.384 . S
C252 H265 0.947 . S
C252 C287 1.382 . S
C253 C252 1.384 . S
C253 C254 1.378 . S
C254 C253 1.378 . S
C254 C255 1.378 . S
C254 H266 0.952 . S
C255 C254 1.378 . S
C255 H267 0.950 . S
C255 C286 1.383 . S
H256 C275 0.947 . S
H257 C276 0.946 . S
H258 C278 0.953 . S
H259 C279 0.945 . S
H260 C281 0.952 . S
H261 C282 0.949 . S
H262 C284 0.950 . S
H263 C285 0.948 . S
H264 C287 0.951 . S
H265 C252 0.947 . S
H266 C254 0.952 . S
H267 C255 0.950 . S
N268 C271 1.382 . S
N268 C273 1.363 . S
N269 C271 1.371 . S
N269 C272 1.372 . S
N270 C272 1.361 . S
N270 C273 1.377 . S
C271 N268 1.382 . S
C271 N269 1.371 . S
C271 C274 1.480 . S
C272 N269 1.372 . S
C272 N270 1.361 . S
C272 C280 1.457 . S
C273 N268 1.363 . S
C273 N270 1.377 . S
C273 C286 1.479 . S
C274 C271 1.480 . S
C274 C275 1.383 . S
C274 C279 1.385 . S
C275 H256 0.947 . S
C275 C274 1.383 . S
C275 C276 1.388 . S
C276 H257 0.946 . S
C276 C275 1.388 . S
C276 C277 1.384 . S
C277 C276 1.384 . S
C277 C278 1.377 . S
C278 H258 0.953 . S
C278 C277 1.377 . S
C278 C279 1.369 . S
C279 H259 0.945 . S
C279 C274 1.385 . S
C279 C278 1.369 . S
C280 C272 1.457 . S
C280 C281 1.372 . S
C280 C285 1.364 . S
C281 H260 0.952 . S
C281 C280 1.372 . S
C281 C282 1.389 . S
C282 H261 0.949 . S
C282 C281 1.389 . S
C282 C283 1.387 . S
C283 C282 1.387 . S
C283 C284 1.372 . S
C284 H262 0.950 . S
C284 C283 1.372 . S
C284 C285 1.379 . S
C285 H263 0.948 . S
C285 C280 1.364 . S
C285 C284 1.379 . S
C286 C255 1.383 . S
C286 C273 1.479 . S
C286 C287 1.398 . S
C287 C252 1.382 . S
C287 H264 0.951 . S
C287 C286 1.398 . S
Tb288 N317 2.617 . S
Tb288 N323 2.572 . S
Tb288 O332 2.465 . S
Tb288 O333 2.387 . S
Tb288 O335 2.428 . S
Tb288 O336 2.308 . S
Tb288 O340 2.349 . S
Tb288 O343 2.393 . S
Tb288 C352 2.802 . S
C289 N290 1.379 . S
C289 C292 1.416 . S
C289 C296 1.424 . S
N290 C289 1.379 . S
N290 C293 1.334 . S
N290 Tb299 2.617 . S
C291 C293 1.390 . S
C291 C294 1.339 . S
C291 H311 0.930 . S
C292 C289 1.416 . S
C292 C294 1.416 . S
C292 C298 1.448 . S
C293 N290 1.334 . S
C293 C291 1.390 . S
C293 H304 0.930 . S
C294 C291 1.339 . S
C294 C292 1.416 . S
C294 H315 0.930 . S
C295 C296 1.413 . S
C295 C297 1.427 . S
C295 C301 1.416 . S
C296 C289 1.424 . S
C296 C295 1.413 . S
C296 N300 1.361 . S
C297 C295 1.427 . S
C297 C298 1.328 . S
C297 H312 0.929 . S
C298 C292 1.448 . S
C298 C297 1.328 . S
C298 H313 0.930 . S
Tb299 N290 2.617 . S
Tb299 N300 2.572 . S
Tb299 O334 2.349 1_655 S
Tb299 O337 2.393 . S
Tb299 O338 2.465 . S
Tb299 O339 2.387 . S
Tb299 O341 2.428 . S
Tb299 O342 2.308 1_655 S
Tb299 C363 2.802 . S
N300 C296 1.361 . S
N300 Tb299 2.572 . S
N300 C302 1.340 . S
C301 C295 1.416 . S
C301 C303 1.332 . S
C301 H309 0.931 . S
C302 N300 1.340 . S
C302 C303 1.407 . S
C302 H308 0.930 . S
C303 C301 1.332 . S
C303 C302 1.407 . S
C303 H305 0.929 . S
H304 C293 0.930 . S
H305 C303 0.929 . S
H306 C321 0.930 . S
H307 C328 0.929 . S
H308 C302 0.930 . S
H309 C301 0.931 . S
H310 C324 0.930 . S
H311 C291 0.930 . S
H312 C297 0.929 . S
H313 C298 0.930 . S
H314 C319 0.930 . S
H315 C294 0.930 . S
H316 C327 0.931 . S
N317 Tb288 2.617 . S
N317 C318 1.379 . S
N317 C321 1.334 . S
C318 N317 1.379 . S
C318 C320 1.416 . S
C318 C326 1.424 . S
C319 H314 0.930 . S
C319 C321 1.390 . S
C319 C322 1.339 . S
C320 C318 1.416 . S
C320 C322 1.416 . S
C320 C353 1.448 . S
C321 H306 0.930 . S
C321 N317 1.334 . S
C321 C319 1.390 . S
C322 C319 1.339 . S
C322 C320 1.416 . S
C322 H329 0.930 . S
N323 Tb288 2.572 . S
N323 C324 1.340 . S
N323 C326 1.361 . S
C324 H310 0.930 . S
C324 N323 1.340 . S
C324 C328 1.407 . S
C325 C326 1.413 . S
C325 C327 1.416 . S
C325 C354 1.427 . S
C326 C318 1.424 . S
C326 N323 1.361 . S
C326 C325 1.413 . S
C327 H316 0.931 . S
C327 C325 1.416 . S
C327 C328 1.332 . S
C328 H307 0.929 . S
C328 C324 1.407 . S
C328 C327 1.332 . S
H329 C322 0.930 . S
H330 C353 0.930 . S
H331 C354 0.929 . S
O332 Tb288 2.465 . S
O332 C352 1.264 . S
O333 Tb288 2.387 . S
O333 C344 1.264 . S
O334 Tb299 2.349 1_455 S
O334 C344 1.243 . S
O335 Tb288 2.428 . S
O335 C352 1.256 . S
O336 Tb288 2.308 . S
O336 C351 1.266 1_455 S
O337 Tb299 2.393 . S
O337 C351 1.248 . S
O338 Tb299 2.465 . S
O338 C363 1.264 . S
O339 Tb299 2.387 . S
O339 C355 1.264 . S
O340 Tb288 2.349 . S
O340 C355 1.243 1_455 S
O341 Tb299 2.428 . S
O341 C363 1.256 . S
O342 Tb299 2.308 1_455 S
O342 C362 1.266 . S
O343 Tb288 2.393 . S
O343 C362 1.248 . S
C344 O333 1.264 . S
C344 O334 1.243 . S
C345 C348 1.399 . S
C345 C350 1.383 . S
C345 C352 1.496 . S
C346 C347 1.399 . S
C346 C350 1.389 . S
C347 C346 1.399 . S
C347 C349 1.380 . S
C347 H364 0.929 . S
C348 C345 1.399 . S
C348 C349 1.392 . S
C348 H365 0.929 . S
C349 C347 1.380 . S
C349 C348 1.392 . S
C349 H366 0.929 . S
C350 C345 1.383 . S
C350 C346 1.389 . S
C350 H367 0.931 . S
C351 O336 1.266 1_655 S
C351 O337 1.248 . S
C352 Tb288 2.802 . S
C352 O332 1.264 . S
C352 O335 1.256 . S
C352 C345 1.496 . S
C353 C320 1.448 . S
C353 H330 0.930 . S
C353 C354 1.328 . S
C354 C325 1.427 . S
C354 H331 0.929 . S
C354 C353 1.328 . S
C355 O339 1.264 . S
C355 O340 1.243 1_655 S
C356 C359 1.399 . S
C356 C360 1.383 . S
C356 C363 1.496 . S
C357 C358 1.399 . S
C357 C360 1.389 . S
C358 C357 1.399 . S
C358 C361 1.380 . S
C358 H368 0.929 . S
C359 C356 1.399 . S
C359 C361 1.392 . S
C359 H369 0.929 . S
C360 C356 1.383 . S
C360 C357 1.389 . S
C360 H370 0.931 . S
C361 C358 1.380 . S
C361 C359 1.392 . S
C361 H371 0.929 . S
C362 O342 1.266 . S
C362 O343 1.248 . S
C363 Tb299 2.802 . S
C363 O338 1.264 . S
C363 O341 1.256 . S
C363 C356 1.496 . S
H364 C347 0.929 . S
H365 C348 0.929 . S
H366 C349 0.929 . S
H367 C350 0.931 . S
H368 C358 0.929 . S
H369 C359 0.929 . S
H370 C360 0.931 . S
H371 C361 0.929 . S
Tb372 N401 2.617 . S
Tb372 N407 2.572 . S
Tb372 O416 2.465 . S
Tb372 O417 2.387 . S
Tb372 O419 2.428 . S
Tb372 O420 2.308 . S
Tb372 O424 2.349 . S
Tb372 O427 2.393 . S
Tb372 C436 2.802 . S
C373 N374 1.379 . S
C373 C376 1.416 . S
C373 C380 1.424 . S
N374 C373 1.379 . S
N374 C377 1.334 . S
N374 Tb383 2.617 . S
C375 C377 1.390 . S
C375 C378 1.339 . S
C375 H395 0.930 . S
C376 C373 1.416 . S
C376 C378 1.416 . S
C376 C382 1.448 . S
C377 N374 1.334 . S
C377 C375 1.390 . S
C377 H388 0.930 . S
C378 C375 1.339 . S
C378 C376 1.416 . S
C378 H399 0.930 . S
C379 C380 1.413 . S
C379 C381 1.427 . S
C379 C385 1.416 . S
C380 C373 1.424 . S
C380 C379 1.413 . S
C380 N384 1.361 . S
C381 C379 1.427 . S
C381 C382 1.328 . S
C381 H396 0.929 . S
C382 C376 1.448 . S
C382 C381 1.328 . S
C382 H397 0.930 . S
Tb383 N374 2.617 . S
Tb383 N384 2.572 . S
Tb383 O418 2.349 . S
Tb383 O421 2.393 . S
Tb383 O422 2.465 . S
Tb383 O423 2.387 . S
Tb383 O425 2.428 . S
Tb383 O426 2.308 . S
Tb383 C447 2.802 . S
N384 C380 1.361 . S
N384 Tb383 2.572 . S
N384 C386 1.340 . S
C385 C379 1.416 . S
C385 C387 1.332 . S
C385 H393 0.931 . S
C386 N384 1.340 . S
C386 C387 1.407 . S
C386 H392 0.930 . S
C387 C385 1.332 . S
C387 C386 1.407 . S
C387 H389 0.929 . S
H388 C377 0.930 . S
H389 C387 0.929 . S
H390 C405 0.930 . S
H391 C412 0.929 . S
H392 C386 0.930 . S
H393 C385 0.931 . S
H394 C408 0.930 . S
H395 C375 0.930 . S
H396 C381 0.929 . S
H397 C382 0.930 . S
H398 C403 0.930 . S
H399 C378 0.930 . S
H400 C411 0.931 . S
N401 Tb372 2.617 . S
N401 C402 1.379 . S
N401 C405 1.334 . S
C402 N401 1.379 . S
C402 C404 1.416 . S
C402 C410 1.424 . S
C403 H398 0.930 . S
C403 C405 1.390 . S
C403 C406 1.339 . S
C404 C402 1.416 . S
C404 C406 1.416 . S
C404 C437 1.448 . S
C405 H390 0.930 . S
C405 N401 1.334 . S
C405 C403 1.390 . S
C406 C403 1.339 . S
C406 C404 1.416 . S
C406 H413 0.930 . S
N407 Tb372 2.572 . S
N407 C408 1.340 . S
N407 C410 1.361 . S
C408 H394 0.930 . S
C408 N407 1.340 . S
C408 C412 1.407 . S
C409 C410 1.413 . S
C409 C411 1.416 . S
C409 C438 1.427 . S
C410 C402 1.424 . S
C410 N407 1.361 . S
C410 C409 1.413 . S
C411 H400 0.931 . S
C411 C409 1.416 . S
C411 C412 1.332 . S
C412 H391 0.929 . S
C412 C408 1.407 . S
C412 C411 1.332 . S
H413 C406 0.930 . S
H414 C437 0.930 . S
H415 C438 0.929 . S
O416 Tb372 2.465 . S
O416 C436 1.264 . S
O417 Tb372 2.387 . S
O417 C428 1.264 . S
O418 Tb383 2.349 . S
O418 C428 1.243 . S
O419 Tb372 2.428 . S
O419 C436 1.256 . S
O420 Tb372 2.308 . S
O420 C435 1.266 . S
O421 Tb383 2.393 . S
O421 C435 1.248 . S
O422 Tb383 2.465 . S
O422 C447 1.264 . S
O423 Tb383 2.387 . S
O423 C439 1.264 . S
O424 Tb372 2.349 . S
O424 C439 1.243 . S
O425 Tb383 2.428 . S
O425 C447 1.256 . S
O426 Tb383 2.308 . S
O426 C446 1.266 . S
O427 Tb372 2.393 . S
O427 C446 1.248 . S
C428 O417 1.264 . S
C428 O418 1.243 . S
C429 C432 1.399 . S
C429 C434 1.383 . S
C429 C436 1.496 . S
C430 C431 1.399 . S
C430 C434 1.389 . S
C431 C430 1.399 . S
C431 C433 1.380 . S
C431 H448 0.929 . S
C432 C429 1.399 . S
C432 C433 1.392 . S
C432 H449 0.929 . S
C433 C431 1.380 . S
C433 C432 1.392 . S
C433 H450 0.929 . S
C434 C429 1.383 . S
C434 C430 1.389 . S
C434 H451 0.931 . S
C435 O420 1.266 . S
C435 O421 1.248 . S
C436 Tb372 2.802 . S
C436 O416 1.264 . S
C436 O419 1.256 . S
C436 C429 1.496 . S
C437 C404 1.448 . S
C437 H414 0.930 . S
C437 C438 1.328 . S
C438 C409 1.427 . S
C438 H415 0.929 . S
C438 C437 1.328 . S
C439 O423 1.264 . S
C439 O424 1.243 . S
C440 C443 1.399 . S
C440 C444 1.383 . S
C440 C447 1.496 . S
C441 C442 1.399 . S
C441 C444 1.389 . S
C442 C441 1.399 . S
C442 C445 1.380 . S
C442 H452 0.929 . S
C443 C440 1.399 . S
C443 C445 1.392 . S
C443 H453 0.929 . S
C444 C440 1.383 . S
C444 C441 1.389 . S
C444 H454 0.931 . S
C445 C442 1.380 . S
C445 C443 1.392 . S
C445 H455 0.929 . S
C446 O426 1.266 . S
C446 O427 1.248 . S
C447 Tb383 2.802 . S
C447 O422 1.264 . S
C447 O425 1.256 . S
C447 C440 1.496 . S
H448 C431 0.929 . S
H449 C432 0.929 . S
H450 C433 0.929 . S
H451 C434 0.931 . S
H452 C442 0.929 . S
H453 C443 0.929 . S
H454 C444 0.931 . S
H455 C445 0.929 . S
Tb456 N485 2.617 . S
Tb456 N491 2.572 . S
Tb456 O500 2.465 . S
Tb456 O501 2.387 . S
Tb456 O503 2.428 . S
Tb456 O504 2.308 . S
Tb456 O508 2.349 . S
Tb456 O511 2.393 . S
Tb456 C520 2.802 . S
C457 N458 1.379 . S
C457 C460 1.416 . S
C457 C464 1.424 . S
N458 C457 1.379 . S
N458 C461 1.334 . S
N458 Tb467 2.617 . S
C459 C461 1.390 . S
C459 C462 1.339 . S
C459 H479 0.930 . S
C460 C457 1.416 . S
C460 C462 1.416 . S
C460 C466 1.448 . S
C461 N458 1.334 . S
C461 C459 1.390 . S
C461 H472 0.930 . S
C462 C459 1.339 . S
C462 C460 1.416 . S
C462 H483 0.930 . S
C463 C464 1.413 . S
C463 C465 1.427 . S
C463 C469 1.416 . S
C464 C457 1.424 . S
C464 C463 1.413 . S
C464 N468 1.361 . S
C465 C463 1.427 . S
C465 C466 1.328 . S
C465 H480 0.929 . S
C466 C460 1.448 . S
C466 C465 1.328 . S
C466 H481 0.930 . S
Tb467 N458 2.617 . S
Tb467 N468 2.572 . S
Tb467 O502 2.349 1_655 S
Tb467 O505 2.393 . S
Tb467 O506 2.465 . S
Tb467 O507 2.387 . S
Tb467 O509 2.428 . S
Tb467 O510 2.308 1_655 S
Tb467 C531 2.802 . S
N468 C464 1.361 . S
N468 Tb467 2.572 . S
N468 C470 1.340 . S
C469 C463 1.416 . S
C469 C471 1.332 . S
C469 H477 0.931 . S
C470 N468 1.340 . S
C470 C471 1.407 . S
C470 H476 0.930 . S
C471 C469 1.332 . S
C471 C470 1.407 . S
C471 H473 0.929 . S
H472 C461 0.930 . S
H473 C471 0.929 . S
H474 C489 0.930 . S
H475 C496 0.929 . S
H476 C470 0.930 . S
H477 C469 0.931 . S
H478 C492 0.930 . S
H479 C459 0.930 . S
H480 C465 0.929 . S
H481 C466 0.930 . S
H482 C487 0.930 . S
H483 C462 0.930 . S
H484 C495 0.931 . S
N485 Tb456 2.617 . S
N485 C486 1.379 . S
N485 C489 1.334 . S
C486 N485 1.379 . S
C486 C488 1.416 . S
C486 C494 1.424 . S
C487 H482 0.930 . S
C487 C489 1.390 . S
C487 C490 1.339 . S
C488 C486 1.416 . S
C488 C490 1.416 . S
C488 C521 1.448 . S
C489 H474 0.930 . S
C489 N485 1.334 . S
C489 C487 1.390 . S
C490 C487 1.339 . S
C490 C488 1.416 . S
C490 H497 0.930 . S
N491 Tb456 2.572 . S
N491 C492 1.340 . S
N491 C494 1.361 . S
C492 H478 0.930 . S
C492 N491 1.340 . S
C492 C496 1.407 . S
C493 C494 1.413 . S
C493 C495 1.416 . S
C493 C522 1.427 . S
C494 C486 1.424 . S
C494 N491 1.361 . S
C494 C493 1.413 . S
C495 H484 0.931 . S
C495 C493 1.416 . S
C495 C496 1.332 . S
C496 H475 0.929 . S
C496 C492 1.407 . S
C496 C495 1.332 . S
H497 C490 0.930 . S
H498 C521 0.930 . S
H499 C522 0.929 . S
O500 Tb456 2.465 . S
O500 C520 1.264 . S
O501 Tb456 2.387 . S
O501 C512 1.264 . S
O502 Tb467 2.349 1_455 S
O502 C512 1.243 . S
O503 Tb456 2.428 . S
O503 C520 1.256 . S
O504 Tb456 2.308 . S
O504 C519 1.266 1_455 S
O505 Tb467 2.393 . S
O505 C519 1.248 . S
O506 Tb467 2.465 . S
O506 C531 1.264 . S
O507 Tb467 2.387 . S
O507 C523 1.264 . S
O508 Tb456 2.349 . S
O508 C523 1.243 1_455 S
O509 Tb467 2.428 . S
O509 C531 1.256 . S
O510 Tb467 2.308 1_455 S
O510 C530 1.266 . S
O511 Tb456 2.393 . S
O511 C530 1.248 . S
C512 O501 1.264 . S
C512 O502 1.243 . S
C513 C516 1.399 . S
C513 C518 1.383 . S
C513 C520 1.496 . S
C514 C515 1.399 . S
C514 C518 1.389 . S
C515 C514 1.399 . S
C515 C517 1.380 . S
C515 H532 0.929 . S
C516 C513 1.399 . S
C516 C517 1.392 . S
C516 H533 0.929 . S
C517 C515 1.380 . S
C517 C516 1.392 . S
C517 H534 0.929 . S
C518 C513 1.383 . S
C518 C514 1.389 . S
C518 H535 0.931 . S
C519 O504 1.266 1_655 S
C519 O505 1.248 . S
C520 Tb456 2.802 . S
C520 O500 1.264 . S
C520 O503 1.256 . S
C520 C513 1.496 . S
C521 C488 1.448 . S
C521 H498 0.930 . S
C521 C522 1.328 . S
C522 C493 1.427 . S
C522 H499 0.929 . S
C522 C521 1.328 . S
C523 O507 1.264 . S
C523 O508 1.243 1_655 S
C524 C527 1.399 . S
C524 C528 1.383 . S
C524 C531 1.496 . S
C525 C526 1.399 . S
C525 C528 1.389 . S
C526 C525 1.399 . S
C526 C529 1.380 . S
C526 H536 0.929 . S
C527 C524 1.399 . S
C527 C529 1.392 . S
C527 H537 0.929 . S
C528 C524 1.383 . S
C528 C525 1.389 . S
C528 H538 0.931 . S
C529 C526 1.380 . S
C529 C527 1.392 . S
C529 H539 0.929 . S
C530 O510 1.266 . S
C530 O511 1.248 . S
C531 Tb467 2.802 . S
C531 O506 1.264 . S
C531 O509 1.256 . S
C531 C524 1.496 . S
H532 C515 0.929 . S
H533 C516 0.929 . S
H534 C517 0.929 . S
H535 C518 0.931 . S
H536 C526 0.929 . S
H537 C527 0.929 . S
H538 C528 0.931 . S
H539 C529 0.929 . S
Tb540 N569 2.617 . S
Tb540 N575 2.572 . S
Tb540 O584 2.465 . S
Tb540 O585 2.387 . S
Tb540 O587 2.428 . S
Tb540 O588 2.308 . S
Tb540 O592 2.349 . S
Tb540 O595 2.393 . S
Tb540 C604 2.802 . S
C541 N542 1.379 . S
C541 C544 1.416 . S
C541 C548 1.424 . S
N542 C541 1.379 . S
N542 C545 1.334 . S
N542 Tb551 2.617 . S
C543 C545 1.390 . S
C543 C546 1.339 . S
C543 H563 0.930 . S
C544 C541 1.416 . S
C544 C546 1.416 . S
C544 C550 1.448 . S
C545 N542 1.334 . S
C545 C543 1.390 . S
C545 H556 0.930 . S
C546 C543 1.339 . S
C546 C544 1.416 . S
C546 H567 0.930 . S
C547 C548 1.413 . S
C547 C549 1.427 . S
C547 C553 1.416 . S
C548 C541 1.424 . S
C548 C547 1.413 . S
C548 N552 1.361 . S
C549 C547 1.427 . S
C549 C550 1.328 . S
C549 H564 0.929 . S
C550 C544 1.448 . S
C550 C549 1.328 . S
C550 H565 0.930 . S
Tb551 N542 2.617 . S
Tb551 N552 2.572 . S
Tb551 O586 2.349 . S
Tb551 O589 2.393 . S
Tb551 O590 2.465 . S
Tb551 O591 2.387 . S
Tb551 O593 2.428 . S
Tb551 O594 2.308 . S
Tb551 C615 2.802 . S
N552 C548 1.361 . S
N552 Tb551 2.572 . S
N552 C554 1.340 . S
C553 C547 1.416 . S
C553 C555 1.332 . S
C553 H561 0.931 . S
C554 N552 1.340 . S
C554 C555 1.407 . S
C554 H560 0.930 . S
C555 C553 1.332 . S
C555 C554 1.407 . S
C555 H557 0.929 . S
H556 C545 0.930 . S
H557 C555 0.929 . S
H558 C573 0.930 . S
H559 C580 0.929 . S
H560 C554 0.930 . S
H561 C553 0.931 . S
H562 C576 0.930 . S
H563 C543 0.930 . S
H564 C549 0.929 . S
H565 C550 0.930 . S
H566 C571 0.930 . S
H567 C546 0.930 . S
H568 C579 0.931 . S
N569 Tb540 2.617 . S
N569 C570 1.379 . S
N569 C573 1.334 . S
C570 N569 1.379 . S
C570 C572 1.416 . S
C570 C578 1.424 . S
C571 H566 0.930 . S
C571 C573 1.390 . S
C571 C574 1.339 . S
C572 C570 1.416 . S
C572 C574 1.416 . S
C572 C605 1.448 . S
C573 H558 0.930 . S
C573 N569 1.334 . S
C573 C571 1.390 . S
C574 C571 1.339 . S
C574 C572 1.416 . S
C574 H581 0.930 . S
N575 Tb540 2.572 . S
N575 C576 1.340 . S
N575 C578 1.361 . S
C576 H562 0.930 . S
C576 N575 1.340 . S
C576 C580 1.407 . S
C577 C578 1.413 . S
C577 C579 1.416 . S
C577 C606 1.427 . S
C578 C570 1.424 . S
C578 N575 1.361 . S
C578 C577 1.413 . S
C579 H568 0.931 . S
C579 C577 1.416 . S
C579 C580 1.332 . S
C580 H559 0.929 . S
C580 C576 1.407 . S
C580 C579 1.332 . S
H581 C574 0.930 . S
H582 C605 0.930 . S
H583 C606 0.929 . S
O584 Tb540 2.465 . S
O584 C604 1.264 . S
O585 Tb540 2.387 . S
O585 C596 1.264 . S
O586 Tb551 2.349 . S
O586 C596 1.243 . S
O587 Tb540 2.428 . S
O587 C604 1.256 . S
O588 Tb540 2.308 . S
O588 C603 1.266 . S
O589 Tb551 2.393 . S
O589 C603 1.248 . S
O590 Tb551 2.465 . S
O590 C615 1.264 . S
O591 Tb551 2.387 . S
O591 C607 1.264 . S
O592 Tb540 2.349 . S
O592 C607 1.243 . S
O593 Tb551 2.428 . S
O593 C615 1.256 . S
O594 Tb551 2.308 . S
O594 C614 1.266 . S
O595 Tb540 2.393 . S
O595 C614 1.248 . S
C596 O585 1.264 . S
C596 O586 1.243 . S
C597 C600 1.399 . S
C597 C602 1.383 . S
C597 C604 1.496 . S
C598 C599 1.399 . S
C598 C602 1.389 . S
C599 C598 1.399 . S
C599 C601 1.380 . S
C599 H616 0.929 . S
C600 C597 1.399 . S
C600 C601 1.392 . S
C600 H617 0.929 . S
C601 C599 1.380 . S
C601 C600 1.392 . S
C601 H618 0.929 . S
C602 C597 1.383 . S
C602 C598 1.389 . S
C602 H619 0.931 . S
C603 O588 1.266 . S
C603 O589 1.248 . S
C604 Tb540 2.802 . S
C604 O584 1.264 . S
C604 O587 1.256 . S
C604 C597 1.496 . S
C605 C572 1.448 . S
C605 H582 0.930 . S
C605 C606 1.328 . S
C606 C577 1.427 . S
C606 H583 0.929 . S
C606 C605 1.328 . S
C607 O591 1.264 . S
C607 O592 1.243 . S
C608 C611 1.399 . S
C608 C612 1.383 . S
C608 C615 1.496 . S
C609 C610 1.399 . S
C609 C612 1.389 . S
C610 C609 1.399 . S
C610 C613 1.380 . S
C610 H620 0.929 . S
C611 C608 1.399 . S
C611 C613 1.392 . S
C611 H621 0.929 . S
C612 C608 1.383 . S
C612 C609 1.389 . S
C612 H622 0.931 . S
C613 C610 1.380 . S
C613 C611 1.392 . S
C613 H623 0.929 . S
C614 O594 1.266 . S
C614 O595 1.248 . S
C615 Tb551 2.802 . S
C615 O590 1.264 . S
C615 O593 1.256 . S
C615 C608 1.496 . S
H616 C599 0.929 . S
H617 C600 0.929 . S
H618 C601 0.929 . S
H619 C602 0.931 . S
H620 C610 0.929 . S
H621 C611 0.929 . S
H622 C612 0.931 . S
H623 C613 0.929 . S
C624 C625 1.349 . S
C624 C626 1.327 . S
C624 H649 0.950 . S
C625 C624 1.349 . S
C625 C641 1.349 . S
C626 C624 1.327 . S
C626 C645 1.460 . S
C626 H650 0.950 . S
C627 C644 1.574 . S
C627 C646 1.368 . S
C627 H651 0.949 . S
H628 C632 0.949 . S
C629 C630 1.349 . S
C629 C631 1.327 . S
C629 H652 0.950 . S
C630 C629 1.349 . S
C630 C642 1.349 . S
C631 C629 1.327 . S
C631 C647 1.429 . S
C631 H653 0.950 . S
C632 H628 0.949 . S
C632 C640 1.574 . S
C632 C648 1.368 . S
H633 C641 0.950 . S
H634 C639 0.950 . S
H635 C640 0.949 1_565 S
H636 C642 0.950 . S
H637 C643 0.950 . S
H638 C644 0.949 . S
C639 H634 0.950 . S
C639 C641 1.327 1_545 S
C639 C645 1.423 1_545 S
C640 C632 1.574 . S
C640 H635 0.949 1_545 S
C640 C646 1.368 . S
C641 C625 1.349 . S
C641 H633 0.950 . S
C641 C639 1.327 1_565 S
C642 C630 1.349 . S
C642 H636 0.950 . S
C642 C643 1.327 . S
C643 H637 0.950 . S
C643 C642 1.327 . S
C643 C647 1.429 . S
C644 C627 1.574 . S
C644 H638 0.949 . S
C644 C648 1.368 . S
C645 C626 1.460 . S
C645 C639 1.423 1_565 S
C645 C646 1.500 1_565 S
C646 C627 1.368 . S
C646 C640 1.368 . S
C646 C645 1.500 1_545 S
C647 C631 1.429 . S
C647 C643 1.429 . S
C647 C648 1.523 . S
C648 C632 1.368 . S
C648 C644 1.368 . S
C648 C647 1.523 . S
H649 C624 0.950 . S
H650 C626 0.950 . S
H651 C627 0.949 . S
H652 C629 0.950 . S
H653 C631 0.950 . S
C654 C655 1.349 . S
C654 C656 1.327 . S
C654 H679 0.950 . S
C655 C654 1.349 . S
C655 C671 1.349 . S
C656 C654 1.327 . S
C656 C675 1.429 . S
C656 H680 0.950 . S
C657 C674 1.574 . S
C657 C676 1.368 . S
C657 H681 0.949 . S
H658 C662 0.949 . S
C659 C660 1.349 . S
C659 C661 1.327 . S
C659 H682 0.950 . S
C660 C659 1.349 . S
C660 C672 1.349 . S
C661 C659 1.327 . S
C661 C677 1.429 . S
C661 H683 0.950 . S
C662 H658 0.949 . S
C662 C670 1.574 . S
C662 C678 1.368 . S
H663 C671 0.950 . S
H664 C669 0.950 . S
H665 C670 0.949 . S
H666 C672 0.950 . S
H667 C673 0.950 . S
H668 C674 0.949 . S
C669 H664 0.950 . S
C669 C671 1.327 . S
C669 C675 1.429 . S
C670 C662 1.574 . S
C670 H665 0.949 . S
C670 C676 1.368 . S
C671 C655 1.349 . S
C671 H663 0.950 . S
C671 C669 1.327 . S
C672 C660 1.349 . S
C672 H666 0.950 . S
C672 C673 1.327 . S
C673 H667 0.950 . S
C673 C672 1.327 . S
C673 C677 1.429 . S
C674 C657 1.574 . S
C674 H668 0.949 . S
C674 C678 1.368 . S
C675 C656 1.429 . S
C675 C669 1.429 . S
C675 C676 1.523 . S
C676 C657 1.368 . S
C676 C670 1.368 . S
C676 C675 1.523 . S
C677 C661 1.429 . S
C677 C673 1.429 . S
C677 C678 1.523 . S
C678 C662 1.368 . S
C678 C674 1.368 . S
C678 C677 1.523 . S
H679 C654 0.950 . S
H680 C656 0.950 . S
H681 C657 0.949 . S
H682 C659 0.950 . S
H683 C661 0.950 . S
C684 C685 1.349 . S
C684 C686 1.327 . S
C684 H709 0.950 . S
C685 C684 1.349 . S
C685 C701 1.349 . S
C686 C684 1.327 . S
C686 C705 1.429 . S
C686 H710 0.950 . S
C687 C704 1.574 . S
C687 C706 1.368 . S
C687 H711 0.949 . S
H688 C692 0.949 . S
C689 C690 1.349 . S
C689 C691 1.327 . S
C689 H712 0.950 . S
C690 C689 1.349 . S
C690 C702 1.349 . S
C691 C689 1.327 . S
C691 C707 1.429 . S
C691 H713 0.950 . S
C692 H688 0.949 . S
C692 C700 1.574 . S
C692 C708 1.368 . S
H693 C701 0.950 . S
H694 C699 0.950 . S
H695 C700 0.949 . S
H696 C702 0.950 . S
H697 C703 0.950 . S
H698 C704 0.949 . S
C699 H694 0.950 . S
C699 C701 1.327 . S
C699 C705 1.429 . S
C700 C692 1.574 . S
C700 H695 0.949 . S
C700 C706 1.368 . S
C701 C685 1.349 . S
C701 H693 0.950 . S
C701 C699 1.327 . S
C702 C690 1.349 . S
C702 H696 0.950 . S
C702 C703 1.327 . S
C703 H697 0.950 . S
C703 C702 1.327 . S
C703 C707 1.429 . S
C704 C687 1.574 . S
C704 H698 0.949 . S
C704 C708 1.368 . S
C705 C686 1.429 . S
C705 C699 1.429 . S
C705 C706 1.523 . S
C706 C687 1.368 . S
C706 C700 1.368 . S
C706 C705 1.523 . S
C707 C691 1.429 . S
C707 C703 1.429 . S
C707 C708 1.523 . S
C708 C692 1.368 . S
C708 C704 1.368 . S
C708 C707 1.523 . S
H709 C684 0.950 . S
H710 C686 0.950 . S
H711 C687 0.949 . S
H712 C689 0.950 . S
H713 C691 0.950 . S
C714 C715 1.349 . S
C714 C716 1.327 . S
C714 H739 0.950 . S
C715 C714 1.349 . S
C715 C731 1.349 . S
C716 C714 1.327 . S
C716 C735 1.429 1_565 S
C716 H740 0.950 . S
C717 C734 1.574 . S
C717 C736 1.368 . S
C717 H741 0.949 . S
H718 C722 0.949 . S
C719 C720 1.349 . S
C719 C721 1.327 . S
C719 H742 0.950 . S
C720 C719 1.349 . S
C720 C732 1.349 . S
C721 C719 1.327 . S
C721 C737 1.429 . S
C721 H743 0.950 . S
C722 H718 0.949 . S
C722 C730 1.574 . S
C722 C738 1.368 . S
H723 C731 0.950 . S
H724 C729 0.950 . S
H725 C730 0.949 1_565 S
H726 C732 0.950 . S
H727 C733 0.950 . S
H728 C734 0.949 . S
C729 H724 0.950 . S
C729 C731 1.327 1_545 S
C729 C735 1.429 . S
C730 C722 1.574 . S
C730 H725 0.949 1_545 S
C730 C736 1.368 . S
C731 C715 1.349 . S
C731 H723 0.950 . S
C731 C729 1.327 1_565 S
C732 C720 1.349 . S
C732 H726 0.950 . S
C732 C733 1.327 . S
C733 H727 0.950 . S
C733 C732 1.327 . S
C733 C737 1.429 . S
C734 C717 1.574 . S
C734 H728 0.949 . S
C734 C738 1.368 . S
C735 C716 1.429 1_545 S
C735 C729 1.429 . S
C735 C736 1.523 . S
C736 C717 1.368 . S
C736 C730 1.368 . S
C736 C735 1.523 . S
C737 C721 1.429 . S
C737 C733 1.429 . S
C737 C738 1.523 . S
C738 C722 1.368 . S
C738 C734 1.368 . S
C738 C737 1.523 . S
H739 C714 0.950 . S
H740 C716 0.950 . S
H741 C717 0.949 . S
H742 C719 0.950 . S
H743 C721 0.950 . S
C744 C745 1.349 . S
C744 C746 1.327 1_545 S
C744 H769 0.950 . S
C745 C744 1.349 . S
C745 C761 1.349 . S
C746 C744 1.327 1_565 S
C746 C765 1.423 1_565 S
C746 H770 0.950 . S
C747 C764 1.574 . S
C747 C766 1.368 . S
C747 H771 0.949 1_565 S
H748 C752 0.949 . S
C749 C750 1.349 . S
C749 C751 1.327 . S
C749 H772 0.950 . S
C750 C749 1.349 . S
C750 C762 1.349 . S
C751 C749 1.327 . S
C751 C767 1.429 . S
C751 H773 0.950 . S
C752 H748 0.949 . S
C752 C760 1.574 . S
C752 C768 1.368 . S
H753 C761 0.950 . S
H754 C759 0.950 . S
H755 C760 0.949 . S
H756 C762 0.950 . S
H757 C763 0.950 . S
H758 C764 0.949 . S
C759 H754 0.950 . S
C759 C761 1.327 . S
C759 C765 1.460 . S
C760 C752 1.574 . S
C760 H755 0.949 . S
C760 C766 1.368 . S
C761 C745 1.349 . S
C761 H753 0.950 . S
C761 C759 1.327 . S
C762 C750 1.349 . S
C762 H756 0.950 . S
C762 C763 1.327 . S
C763 H757 0.950 . S
C763 C762 1.327 . S
C763 C767 1.429 . S
C764 C747 1.574 . S
C764 H758 0.949 . S
C764 C768 1.368 . S
C765 C746 1.423 1_545 S
C765 C759 1.460 . S
C765 C766 1.500 1_545 S
C766 C747 1.368 . S
C766 C760 1.368 . S
C766 C765 1.500 1_565 S
C767 C751 1.429 . S
C767 C763 1.429 . S
C767 C768 1.523 . S
C768 C752 1.368 . S
C768 C764 1.368 . S
C768 C767 1.523 . S
H769 C744 0.950 . S
H770 C746 0.950 . S
H771 C747 0.949 1_545 S
H772 C749 0.950 . S
H773 C751 0.950 . S
C774 C775 1.349 . S
C774 C776 1.327 . S
C774 H799 0.950 . S
C775 C774 1.349 . S
C775 C791 1.349 . S
C776 C774 1.327 . S
C776 C795 1.429 . S
C776 H800 0.950 . S
C777 C794 1.574 . S
C777 C796 1.368 . S
C777 H801 0.949 . S
H778 C782 0.949 . S
C779 C780 1.349 . S
C779 C781 1.327 . S
C779 H802 0.950 . S
C780 C779 1.349 . S
C780 C792 1.349 . S
C781 C779 1.327 . S
C781 C797 1.429 . S
C781 H803 0.950 . S
C782 H778 0.949 . S
C782 C790 1.574 . S
C782 C798 1.368 . S
H783 C791 0.950 . S
H784 C789 0.950 . S
H785 C790 0.949 . S
H786 C792 0.950 . S
H787 C793 0.950 . S
H788 C794 0.949 . S
C789 H784 0.950 . S
C789 C791 1.327 . S
C789 C795 1.429 . S
C790 C782 1.574 . S
C790 H785 0.949 . S
C790 C796 1.368 . S
C791 C775 1.349 . S
C791 H783 0.950 . S
C791 C789 1.327 . S
C792 C780 1.349 . S
C792 H786 0.950 . S
C792 C793 1.327 . S
C793 H787 0.950 . S
C793 C792 1.327 . S
C793 C797 1.429 . S
C794 C777 1.574 . S
C794 H788 0.949 . S
C794 C798 1.368 . S
C795 C776 1.429 . S
C795 C789 1.429 . S
C795 C796 1.523 . S
C796 C777 1.368 . S
C796 C790 1.368 . S
C796 C795 1.523 . S
C797 C781 1.429 . S
C797 C793 1.429 . S
C797 C798 1.523 . S
C798 C782 1.368 . S
C798 C794 1.368 . S
C798 C797 1.523 . S
H799 C774 0.950 . S
H800 C776 0.950 . S
H801 C777 0.949 . S
H802 C779 0.950 . S
H803 C781 0.950 . S
C804 C805 1.349 . S
C804 C806 1.327 . S
C804 H829 0.950 . S
C805 C804 1.349 . S
C805 C821 1.349 . S
C806 C804 1.327 . S
C806 C825 1.429 . S
C806 H830 0.950 . S
C807 C824 1.574 . S
C807 C826 1.368 . S
C807 H831 0.949 . S
H808 C812 0.949 . S
C809 C810 1.349 . S
C809 C811 1.327 . S
C809 H832 0.950 . S
C810 C809 1.349 . S
C810 C822 1.349 . S
C811 C809 1.327 . S
C811 C827 1.429 . S
C811 H833 0.950 . S
C812 H808 0.949 . S
C812 C820 1.574 . S
C812 C828 1.368 . S
H813 C821 0.950 . S
H814 C819 0.950 . S
H815 C820 0.949 . S
H816 C822 0.950 . S
H817 C823 0.950 . S
H818 C824 0.949 . S
C819 H814 0.950 . S
C819 C821 1.327 . S
C819 C825 1.429 . S
C820 C812 1.574 . S
C820 H815 0.949 . S
C820 C826 1.368 . S
C821 C805 1.349 . S
C821 H813 0.950 . S
C821 C819 1.327 . S
C822 C810 1.349 . S
C822 H816 0.950 . S
C822 C823 1.327 . S
C823 H817 0.950 . S
C823 C822 1.327 . S
C823 C827 1.429 . S
C824 C807 1.574 . S
C824 H818 0.949 . S
C824 C828 1.368 . S
C825 C806 1.429 . S
C825 C819 1.429 . S
C825 C826 1.523 . S
C826 C807 1.368 . S
C826 C820 1.368 . S
C826 C825 1.523 . S
C827 C811 1.429 . S
C827 C823 1.429 . S
C827 C828 1.523 . S
C828 C812 1.368 . S
C828 C824 1.368 . S
C828 C827 1.523 . S
H829 C804 0.950 . S
H830 C806 0.950 . S
H831 C807 0.949 . S
H832 C809 0.950 . S
H833 C811 0.950 . S
C834 C835 1.349 . S
C834 C836 1.327 1_545 S
C834 H859 0.950 . S
C835 C834 1.349 . S
C835 C851 1.349 . S
C836 C834 1.327 1_565 S
C836 C855 1.429 . S
C836 H860 0.950 . S
C837 C854 1.574 . S
C837 C856 1.368 . S
C837 H861 0.931 1_565 S
H838 C842 0.949 . S
C839 C840 1.349 . S
C839 C841 1.327 . S
C839 H862 0.950 . S
C840 C839 1.349 . S
C840 C852 1.349 . S
C841 C839 1.327 . S
C841 C857 1.429 . S
C841 H863 0.950 . S
C842 H838 0.949 . S
C842 C850 1.574 . S
C842 C858 1.368 . S
H843 C851 0.950 . S
H844 C849 0.950 . S
H845 C850 0.949 . S
H846 C852 0.950 . S
H847 C853 0.950 . S
H848 C854 0.949 . S
C849 H844 0.950 . S
C849 C851 1.327 . S
C849 C855 1.429 1_545 S
C850 C842 1.574 . S
C850 H845 0.949 . S
C850 C856 1.368 . S
C851 C835 1.349 . S
C851 H843 0.950 . S
C851 C849 1.327 . S
C852 C840 1.349 . S
C852 H846 0.950 . S
C852 C853 1.327 . S
C853 H847 0.950 . S
C853 C852 1.327 . S
C853 C857 1.429 . S
C854 C837 1.574 . S
C854 H848 0.949 . S
C854 C858 1.368 . S
C855 C836 1.429 . S
C855 C849 1.429 1_565 S
C855 C856 1.523 . S
C856 C837 1.368 . S
C856 C850 1.368 . S
C856 C855 1.523 . S
C857 C841 1.429 . S
C857 C853 1.429 . S
C857 C858 1.523 . S
C858 C842 1.368 . S
C858 C854 1.368 . S
C858 C857 1.523 . S
H859 C834 0.950 . S
H860 C836 0.950 . S
H861 C837 0.931 1_545 S
H862 C839 0.950 . S
H863 C841 0.950 . S
C864 C865 1.349 . S
C864 C866 1.327 . S
C864 H889 0.950 . S
C865 C864 1.349 . S
C865 C881 1.349 . S
C866 C864 1.327 . S
C866 C885 1.429 . S
C866 H890 0.950 . S
C867 C884 1.574 . S
C867 C886 1.368 . S
C867 H891 0.949 . S
H868 C872 0.949 . S
C869 C870 1.349 . S
C869 C871 1.327 . S
C869 H892 0.950 . S
C870 C869 1.349 . S
C870 C882 1.349 . S
C871 C869 1.327 . S
C871 C887 1.429 . S
C871 H893 0.950 . S
C872 H868 0.949 . S
C872 C880 1.574 . S
C872 C888 1.368 . S
H873 C881 0.950 1_556 S
H874 C879 0.950 . S
H875 C880 0.949 . S
H876 C882 0.950 . S
H877 C883 0.950 . S
H878 C884 0.949 . S
C879 H874 0.950 . S
C879 C881 1.327 . S
C879 C885 1.429 . S
C880 C872 1.574 . S
C880 H875 0.949 . S
C880 C886 1.368 . S
C881 C865 1.349 . S
C881 H873 0.950 1_554 S
C881 C879 1.327 . S
C882 C870 1.349 . S
C882 H876 0.950 . S
C882 C883 1.327 . S
C883 H877 0.950 . S
C883 C882 1.327 . S
C883 C887 1.429 . S
C884 C867 1.574 . S
C884 H878 0.949 . S
C884 C888 1.368 . S
C885 C866 1.429 . S
C885 C879 1.429 . S
C885 C886 1.523 . S
C886 C867 1.368 . S
C886 C880 1.368 . S
C886 C885 1.523 . S
C887 C871 1.429 . S
C887 C883 1.429 . S
C887 C888 1.523 . S
C888 C872 1.368 . S
C888 C884 1.368 . S
C888 C887 1.523 . S
H889 C864 0.950 . S
H890 C866 0.950 . S
H891 C867 0.949 . S
H892 C869 0.950 . S
H893 C871 0.950 . S
C894 C895 1.349 . S
C894 C896 1.327 . S
C894 H919 0.950 . S
C895 C894 1.349 . S
C895 C911 1.349 . S
C896 C894 1.327 . S
C896 C915 1.429 . S
C896 H920 0.950 . S
C897 C914 1.574 . S
C897 C916 1.368 . S
C897 H921 0.949 . S
H898 C902 0.949 . S
C899 C900 1.349 . S
C899 C901 1.327 . S
C899 H922 0.950 . S
C900 C899 1.349 . S
C900 C912 1.349 . S
C901 C899 1.327 . S
C901 C917 1.429 . S
C901 H923 0.950 . S
C902 H898 0.949 . S
C902 C910 1.574 . S
C902 C918 1.368 . S
H903 C911 0.950 . S
H904 C909 0.950 . S
H905 C910 0.949 . S
H906 C912 0.950 . S
H907 C913 0.950 . S
H908 C914 0.949 . S
C909 H904 0.950 . S
C909 C911 1.327 . S
C909 C915 1.429 . S
C910 C902 1.574 . S
C910 H905 0.949 . S
C910 C916 1.368 . S
C911 C895 1.349 . S
C911 H903 0.950 . S
C911 C909 1.327 . S
C912 C900 1.349 . S
C912 H906 0.950 . S
C912 C913 1.327 . S
C913 H907 0.950 . S
C913 C912 1.327 . S
C913 C917 1.429 . S
C914 C897 1.574 . S
C914 H908 0.949 . S
C914 C918 1.368 . S
C915 C896 1.429 . S
C915 C909 1.429 . S
C915 C916 1.523 . S
C916 C897 1.368 . S
C916 C910 1.368 . S
C916 C915 1.523 . S
C917 C901 1.429 . S
C917 C913 1.429 . S
C917 C918 1.523 . S
C918 C902 1.368 . S
C918 C914 1.368 . S
C918 C917 1.523 . S
H919 C894 0.950 . S
H920 C896 0.950 . S
H921 C897 0.949 . S
H922 C899 0.950 . S
H923 C901 0.950 . S
C924 C925 1.308 1_556 S
C924 C926 1.327 . S
C924 H949 0.950 . S
C925 C924 1.308 1_554 S
C925 C941 1.333 1_554 S
C926 C924 1.327 . S
C926 C945 1.429 . S
C926 H950 0.950 . S
C927 C944 1.574 . S
C927 C946 1.368 . S
C927 H951 0.949 . S
H928 C932 0.949 . S
C929 C930 1.349 . S
C929 C931 1.327 . S
C929 H952 0.950 . S
C930 C929 1.349 . S
C930 C942 1.349 . S
C931 C929 1.327 . S
C931 C947 1.429 . S
C931 H953 0.950 . S
C932 H928 0.949 . S
C932 C940 1.574 . S
C932 C948 1.368 . S
H933 C941 0.950 1_554 S
H934 C939 0.950 . S
H935 C940 0.949 . S
H936 C942 0.950 . S
H937 C943 0.950 . S
H938 C944 0.949 . S
C939 H934 0.950 . S
C939 C941 1.327 . S
C939 C945 1.429 . S
C940 C932 1.574 . S
C940 H935 0.949 . S
C940 C946 1.368 . S
C941 C925 1.333 1_556 S
C941 H933 0.950 1_556 S
C941 C939 1.327 . S
C942 C930 1.349 . S
C942 H936 0.950 . S
C942 C943 1.327 . S
C943 H937 0.950 . S
C943 C942 1.327 . S
C943 C947 1.429 . S
C944 C927 1.574 . S
C944 H938 0.949 . S
C944 C948 1.368 . S
C945 C926 1.429 . S
C945 C939 1.429 . S
C945 C946 1.523 . S
C946 C927 1.368 . S
C946 C940 1.368 . S
C946 C945 1.523 . S
C947 C931 1.429 . S
C947 C943 1.429 . S
C947 C948 1.523 . S
C948 C932 1.368 . S
C948 C944 1.368 . S
C948 C947 1.523 . S
H949 C924 0.950 . S
H950 C926 0.950 . S
H951 C927 0.949 . S
H952 C929 0.950 . S
H953 C931 0.950 . S
C954 C955 1.349 . S
C954 C956 1.327 . S
C954 H979 0.950 . S
C955 C954 1.349 . S
C955 C971 1.349 . S
C956 C954 1.327 . S
C956 C975 1.429 . S
C956 H980 0.950 . S
C957 C974 1.574 . S
C957 C976 1.368 . S
C957 H981 0.949 . S
H958 C962 0.949 . S
C959 C960 1.349 . S
C959 C961 1.327 . S
C959 H982 0.950 . S
C960 C959 1.349 . S
C960 C972 1.349 . S
C961 C959 1.327 . S
C961 C977 1.429 . S
C961 H983 0.950 . S
C962 H958 0.949 . S
C962 C970 1.574 . S
C962 C978 1.368 . S
H963 C971 0.950 . S
H964 C969 0.950 . S
H965 C970 0.949 . S
H966 C972 0.950 . S
H967 C973 0.950 . S
H968 C974 0.949 . S
C969 H964 0.950 . S
C969 C971 1.327 . S
C969 C975 1.429 . S
C970 C962 1.574 . S
C970 H965 0.949 . S
C970 C976 1.368 . S
C971 C955 1.349 . S
C971 H963 0.950 . S
C971 C969 1.327 . S
C972 C960 1.349 . S
C972 H966 0.950 . S
C972 C973 1.327 . S
C973 H967 0.950 . S
C973 C972 1.327 . S
C973 C977 1.429 . S
C974 C957 1.574 . S
C974 H968 0.949 . S
C974 C978 1.368 . S
C975 C956 1.429 . S
C975 C969 1.429 . S
C975 C976 1.523 . S
C976 C957 1.368 . S
C976 C970 1.368 . S
C976 C975 1.523 . S
C977 C961 1.429 . S
C977 C973 1.429 . S
C977 C978 1.523 . S
C978 C962 1.368 . S
C978 C974 1.368 . S
C978 C977 1.523 . S
H979 C954 0.950 . S
H980 C956 0.950 . S
H981 C957 0.949 . S
H982 C959 0.950 . S
H983 C961 0.950 . S
C984 C985 1.349 . S
C984 C986 1.327 . S
C984 H1009 0.956 . S
C985 C984 1.349 . S
C985 C1001 1.349 . S
C986 C984 1.327 . S
C986 C1005 1.429 . S
C986 H1010 0.950 . S
C987 C1004 1.574 . S
C987 C1006 1.368 . S
C987 H1011 0.949 . S
H988 C992 0.949 . S
C989 C990 1.349 . S
C989 C991 1.327 . S
C989 H1012 0.950 . S
C990 C989 1.349 . S
C990 C1002 1.349 . S
C991 C989 1.327 . S
C991 C1007 1.429 . S
C991 H1013 0.950 . S
C992 H988 0.949 . S
C992 C1000 1.574 . S
C992 C1008 1.368 . S
H993 C1001 0.950 . S
H994 C999 0.950 . S
H995 C1000 0.949 . S
H996 C1002 0.950 . S
H997 C1003 0.950 . S
H998 C1004 0.949 . S
C999 H994 0.950 . S
C999 C1001 1.327 . S
C999 C1005 1.429 . S
C1000 C992 1.574 . S
C1000 H995 0.949 . S
C1000 C1006 1.368 . S
C1001 C985 1.349 . S
C1001 H993 0.950 . S
C1001 C999 1.327 . S
C1002 C990 1.349 . S
C1002 H996 0.950 . S
C1002 C1003 1.327 . S
C1003 H997 0.950 . S
C1003 C1002 1.327 . S
C1003 C1007 1.429 . S
C1004 C987 1.574 . S
C1004 H998 0.949 . S
C1004 C1008 1.368 . S
C1005 C986 1.429 . S
C1005 C999 1.429 . S
C1005 C1006 1.523 . S
C1006 C987 1.368 . S
C1006 C1000 1.368 . S
C1006 C1005 1.523 . S
C1007 C991 1.429 . S
C1007 C1003 1.429 . S
C1007 C1008 1.523 . S
C1008 C992 1.368 . S
C1008 C1004 1.368 . S
C1008 C1007 1.523 . S
H1009 C984 0.956 . S
H1010 C986 0.950 . S
H1011 C987 0.949 . S
H1012 C989 0.950 . S
H1013 C991 0.950 . S
C1014 C1015 1.349 . S
C1014 C1016 1.327 . S
C1014 H1039 0.950 . S
C1015 C1014 1.349 . S
C1015 C1031 1.349 . S
C1016 C1014 1.327 . S
C1016 C1035 1.429 . S
C1016 H1040 0.950 . S
C1017 C1034 1.574 . S
C1017 C1036 1.368 . S
C1017 H1041 0.949 . S
H1018 C1022 0.949 . S
C1019 C1020 1.349 . S
C1019 C1021 1.327 . S
C1019 H1042 0.950 . S
C1020 C1019 1.349 . S
C1020 C1032 1.349 . S
C1021 C1019 1.327 . S
C1021 C1037 1.429 . S
C1021 H1043 0.950 . S
C1022 H1018 0.949 . S
C1022 C1030 1.574 . S
C1022 C1038 1.368 . S
H1023 C1031 0.950 . S
H1024 C1029 0.950 . S
H1025 C1030 0.949 . S
H1026 C1032 0.950 . S
H1027 C1033 0.950 . S
H1028 C1034 0.949 . S
C1029 H1024 0.950 . S
C1029 C1031 1.327 . S
C1029 C1035 1.429 . S
C1030 C1022 1.574 . S
C1030 H1025 0.949 . S
C1030 C1036 1.368 . S
C1031 C1015 1.349 . S
C1031 H1023 0.950 . S
C1031 C1029 1.327 . S
C1032 C1020 1.349 . S
C1032 H1026 0.950 . S
C1032 C1033 1.327 . S
C1033 H1027 0.950 . S
C1033 C1032 1.327 . S
C1033 C1037 1.429 . S
C1034 C1017 1.574 . S
C1034 H1028 0.949 . S
C1034 C1038 1.368 . S
C1035 C1016 1.429 . S
C1035 C1029 1.429 . S
C1035 C1036 1.523 . S
C1036 C1017 1.368 . S
C1036 C1030 1.368 . S
C1036 C1035 1.523 . S
C1037 C1021 1.429 . S
C1037 C1033 1.429 . S
C1037 C1038 1.523 . S
C1038 C1022 1.368 . S
C1038 C1034 1.368 . S
C1038 C1037 1.523 . S
H1039 C1014 0.950 . S
H1040 C1016 0.950 . S
H1041 C1017 0.949 . S
H1042 C1019 0.950 . S
H1043 C1021 0.950 . S
C1044 C1045 1.349 1_554 S
C1044 C1046 1.327 . S
C1044 H1069 0.950 1_554 S
C1045 C1044 1.349 1_556 S
C1045 C1061 1.349 1_556 S
C1046 C1044 1.327 . S
C1046 C1065 1.429 . S
C1046 H1070 0.950 . S
C1047 C1064 1.574 . S
C1047 C1066 1.368 . S
C1047 H1071 0.949 . S
H1048 C1052 0.949 . S
C1049 C1050 1.349 . S
C1049 C1051 1.327 . S
C1049 H1072 0.950 . S
C1050 C1049 1.349 . S
C1050 C1062 1.349 . S
C1051 C1049 1.327 . S
C1051 C1067 1.429 . S
C1051 H1073 0.950 . S
C1052 H1048 0.949 . S
C1052 C1060 1.574 . S
C1052 C1068 1.368 . S
H1053 C1061 0.950 . S
H1054 C1059 0.950 . S
H1055 C1060 0.949 . S
H1056 C1062 0.950 . S
H1057 C1063 0.950 . S
H1058 C1064 0.949 . S
C1059 H1054 0.950 . S
C1059 C1061 1.327 . S
C1059 C1065 1.429 . S
C1060 C1052 1.574 . S
C1060 H1055 0.949 . S
C1060 C1066 1.368 . S
C1061 C1045 1.349 1_554 S
C1061 H1053 0.950 . S
C1061 C1059 1.327 . S
C1062 C1050 1.349 . S
C1062 H1056 0.950 . S
C1062 C1063 1.327 . S
C1063 H1057 0.950 . S
C1063 C1062 1.327 . S
C1063 C1067 1.429 . S
C1064 C1047 1.574 . S
C1064 H1058 0.949 . S
C1064 C1068 1.368 . S
C1065 C1046 1.429 . S
C1065 C1059 1.429 . S
C1065 C1066 1.523 . S
C1066 C1047 1.368 . S
C1066 C1060 1.368 . S
C1066 C1065 1.523 . S
C1067 C1051 1.429 . S
C1067 C1063 1.429 . S
C1067 C1068 1.523 . S
C1068 C1052 1.368 . S
C1068 C1064 1.368 . S
C1068 C1067 1.523 . S
H1069 C1044 0.950 1_556 S
H1070 C1046 0.950 . S
H1071 C1047 0.949 . S
H1072 C1049 0.950 . S
H1073 C1051 0.950 . S
C1074 C1075 1.349 . S
C1074 C1076 1.327 . S
C1074 H1099 0.950 . S
C1075 C1074 1.349 . S
C1075 C1091 1.349 . S
C1076 C1074 1.327 . S
C1076 C1095 1.429 . S
C1076 H1100 0.950 . S
C1077 C1094 1.574 . S
C1077 C1096 1.368 . S
C1077 H1101 0.949 . S
H1078 C1082 0.949 . S
C1079 C1080 1.349 . S
C1079 C1081 1.327 . S
C1079 H1102 0.950 . S
C1080 C1079 1.349 . S
C1080 C1092 1.349 . S
C1081 C1079 1.327 . S
C1081 C1097 1.429 . S
C1081 H1103 0.950 . S
C1082 H1078 0.949 . S
C1082 C1090 1.574 . S
C1082 C1098 1.368 . S
H1083 C1091 0.950 . S
H1084 C1089 0.950 . S
H1085 C1090 0.949 . S
H1086 C1092 0.950 . S
H1087 C1093 0.950 . S
H1088 C1094 0.949 . S
C1089 H1084 0.950 . S
C1089 C1091 1.327 . S
C1089 C1095 1.429 . S
C1090 C1082 1.574 . S
C1090 H1085 0.949 . S
C1090 C1096 1.368 . S
C1091 C1075 1.349 . S
C1091 H1083 0.950 . S
C1091 C1089 1.327 . S
C1092 C1080 1.349 . S
C1092 H1086 0.950 . S
C1092 C1093 1.327 . S
C1093 H1087 0.950 . S
C1093 C1092 1.327 . S
C1093 C1097 1.429 . S
C1094 C1077 1.574 . S
C1094 H1088 0.949 . S
C1094 C1098 1.368 . S
C1095 C1076 1.429 . S
C1095 C1089 1.429 . S
C1095 C1096 1.523 . S
C1096 C1077 1.368 . S
C1096 C1090 1.368 . S
C1096 C1095 1.523 . S
C1097 C1081 1.429 . S
C1097 C1093 1.429 . S
C1097 C1098 1.523 . S
C1098 C1082 1.368 . S
C1098 C1094 1.368 . S
C1098 C1097 1.523 . S
H1099 C1074 0.950 . S
H1100 C1076 0.950 . S
H1101 C1077 0.949 . S
H1102 C1079 0.950 . S
H1103 C1081 0.950 . S
C1104 C1105 1.349 . S
C1104 C1106 1.327 . S
C1104 H1129 0.950 . S
C1105 C1104 1.349 . S
C1105 C1121 1.349 . S
C1106 C1104 1.327 . S
C1106 C1125 1.429 . S
C1106 H1130 0.950 . S
C1107 C1124 1.574 . S
C1107 C1126 1.368 . S
C1107 H1131 0.949 . S
H1108 C1112 0.949 . S
C1109 C1110 1.349 . S
C1109 C1111 1.327 . S
C1109 H1132 0.950 . S
C1110 C1109 1.349 . S
C1110 C1122 1.349 . S
C1111 C1109 1.327 . S
C1111 C1127 1.429 . S
C1111 H1133 0.950 . S
C1112 H1108 0.949 . S
C1112 C1120 1.574 . S
C1112 C1128 1.368 . S
H1113 C1121 0.950 . S
H1114 C1119 0.950 . S
H1115 C1120 0.949 . S
H1116 C1122 0.950 . S
H1117 C1123 0.950 . S
H1118 C1124 0.949 . S
C1119 H1114 0.950 . S
C1119 C1121 1.327 . S
C1119 C1125 1.429 . S
C1120 C1112 1.574 . S
C1120 H1115 0.949 . S
C1120 C1126 1.368 . S
C1121 C1105 1.349 . S
C1121 H1113 0.950 . S
C1121 C1119 1.327 . S
C1122 C1110 1.349 . S
C1122 H1116 0.950 . S
C1122 C1123 1.327 . S
C1123 H1117 0.950 . S
C1123 C1122 1.327 . S
C1123 C1127 1.429 . S
C1124 C1107 1.574 . S
C1124 H1118 0.949 . S
C1124 C1128 1.368 . S
C1125 C1106 1.429 . S
C1125 C1119 1.429 . S
C1125 C1126 1.523 . S
C1126 C1107 1.368 . S
C1126 C1120 1.368 . S
C1126 C1125 1.523 . S
C1127 C1111 1.429 . S
C1127 C1123 1.429 . S
C1127 C1128 1.523 . S
C1128 C1112 1.368 . S
C1128 C1124 1.368 . S
C1128 C1127 1.523 . S
H1129 C1104 0.950 . S
H1130 C1106 0.950 . S
H1131 C1107 0.949 . S
H1132 C1109 0.950 . S
H1133 C1111 0.950 . S
C1134 C1135 1.349 . S
C1134 C1136 1.327 . S
C1134 H1159 0.950 . S
C1135 C1134 1.349 . S
C1135 C1151 1.349 . S
C1136 C1134 1.327 . S
C1136 C1155 1.429 . S
C1136 H1160 0.950 . S
C1137 C1154 1.574 . S
C1137 C1156 1.368 . S
C1137 H1161 0.949 . S
H1138 C1142 0.949 . S
C1139 C1140 1.349 . S
C1139 C1141 1.327 . S
C1139 H1162 0.950 . S
C1140 C1139 1.349 . S
C1140 C1152 1.349 . S
C1141 C1139 1.327 . S
C1141 C1157 1.429 . S
C1141 H1163 0.950 . S
C1142 H1138 0.949 . S
C1142 C1150 1.574 . S
C1142 C1158 1.368 . S
H1143 C1151 0.950 . S
H1144 C1149 0.950 . S
H1145 C1150 0.949 . S
H1146 C1152 0.950 . S
H1147 C1153 0.950 . S
H1148 C1154 0.949 . S
C1149 H1144 0.950 . S
C1149 C1151 1.327 . S
C1149 C1155 1.429 . S
C1150 C1142 1.574 . S
C1150 H1145 0.949 . S
C1150 C1156 1.368 . S
C1151 C1135 1.349 . S
C1151 H1143 0.950 . S
C1151 C1149 1.327 . S
C1152 C1140 1.349 . S
C1152 H1146 0.950 . S
C1152 C1153 1.327 . S
C1153 H1147 0.950 . S
C1153 C1152 1.327 . S
C1153 C1157 1.429 . S
C1154 C1137 1.574 . S
C1154 H1148 0.949 . S
C1154 C1158 1.368 . S
C1155 C1136 1.429 . S
C1155 C1149 1.429 . S
C1155 C1156 1.523 . S
C1156 C1137 1.368 . S
C1156 C1150 1.368 . S
C1156 C1155 1.523 . S
C1157 C1141 1.429 . S
C1157 C1153 1.429 . S
C1157 C1158 1.523 . S
C1158 C1142 1.368 . S
C1158 C1154 1.368 . S
C1158 C1157 1.523 . S
H1159 C1134 0.950 . S
H1160 C1136 0.950 . S
H1161 C1137 0.949 . S
H1162 C1139 0.950 . S
H1163 C1141 0.950 . S
C1164 C1165 1.349 . S
C1164 C1166 1.327 . S
C1164 H1189 0.950 . S
C1165 C1164 1.349 . S
C1165 C1181 1.349 . S
C1166 C1164 1.327 . S
C1166 C1185 1.429 . S
C1166 H1190 0.950 . S
C1167 C1184 1.574 . S
C1167 C1186 1.368 . S
C1167 H1191 0.949 . S
H1168 C1172 0.949 . S
C1169 C1170 1.349 . S
C1169 C1171 1.327 . S
C1169 H1192 0.950 . S
C1170 C1169 1.349 . S
C1170 C1182 1.349 . S
C1171 C1169 1.327 . S
C1171 C1187 1.429 . S
C1171 H1193 0.950 . S
C1172 H1168 0.949 . S
C1172 C1180 1.574 . S
C1172 C1188 1.368 . S
H1173 C1181 0.950 . S
H1174 C1179 0.950 . S
H1175 C1180 0.949 . S
H1176 C1182 0.950 . S
H1177 C1183 0.950 . S
H1178 C1184 0.949 . S
C1179 H1174 0.950 . S
C1179 C1181 1.327 . S
C1179 C1185 1.429 . S
C1180 C1172 1.574 . S
C1180 H1175 0.949 . S
C1180 C1186 1.368 . S
C1181 C1165 1.349 . S
C1181 H1173 0.950 . S
C1181 C1179 1.327 . S
C1182 C1170 1.349 . S
C1182 H1176 0.950 . S
C1182 C1183 1.327 . S
C1183 H1177 0.950 . S
C1183 C1182 1.327 . S
C1183 C1187 1.429 . S
C1184 C1167 1.574 . S
C1184 H1178 0.949 . S
C1184 C1188 1.368 . S
C1185 C1166 1.429 . S
C1185 C1179 1.429 . S
C1185 C1186 1.523 . S
C1186 C1167 1.368 . S
C1186 C1180 1.368 . S
C1186 C1185 1.523 . S
C1187 C1171 1.429 . S
C1187 C1183 1.429 . S
C1187 C1188 1.523 . S
C1188 C1172 1.368 . S
C1188 C1184 1.368 . S
C1188 C1187 1.523 . S
H1189 C1164 0.950 . S
H1190 C1166 0.950 . S
H1191 C1167 0.949 . S
H1192 C1169 0.950 . S
H1193 C1171 0.950 . S
C1194 C1195 1.349 . S
C1194 C1196 1.327 . S
C1194 H1219 0.950 . S
C1195 C1194 1.349 . S
C1195 C1211 1.349 . S
C1196 C1194 1.327 . S
C1196 C1215 1.429 . S
C1196 H1220 0.950 . S
C1197 C1214 1.574 . S
C1197 C1216 1.368 . S
C1197 H1221 0.949 . S
H1198 C1202 0.949 . S
C1199 C1200 1.349 . S
C1199 C1201 1.327 . S
C1199 H1222 0.950 . S
C1200 C1199 1.349 . S
C1200 C1212 1.349 . S
C1201 C1199 1.327 . S
C1201 C1217 1.429 . S
C1201 H1223 0.950 . S
C1202 H1198 0.949 . S
C1202 C1210 1.574 . S
C1202 C1218 1.368 . S
H1203 C1211 0.950 . S
H1204 C1209 0.950 . S
H1205 C1210 0.949 . S
H1206 C1212 0.950 . S
H1207 C1213 0.950 . S
H1208 C1214 0.949 . S
C1209 H1204 0.950 . S
C1209 C1211 1.327 . S
C1209 C1215 1.429 . S
C1210 C1202 1.574 . S
C1210 H1205 0.949 . S
C1210 C1216 1.368 . S
C1211 C1195 1.349 . S
C1211 H1203 0.950 . S
C1211 C1209 1.327 . S
C1212 C1200 1.349 . S
C1212 H1206 0.950 . S
C1212 C1213 1.327 . S
C1213 H1207 0.950 . S
C1213 C1212 1.327 . S
C1213 C1217 1.429 . S
C1214 C1197 1.574 . S
C1214 H1208 0.949 . S
C1214 C1218 1.368 . S
C1215 C1196 1.429 . S
C1215 C1209 1.429 . S
C1215 C1216 1.523 . S
C1216 C1197 1.368 . S
C1216 C1210 1.368 . S
C1216 C1215 1.523 . S
C1217 C1201 1.429 . S
C1217 C1213 1.429 . S
C1217 C1218 1.523 . S
C1218 C1202 1.368 . S
C1218 C1214 1.368 . S
C1218 C1217 1.523 . S
H1219 C1194 0.950 . S
H1220 C1196 0.950 . S
H1221 C1197 0.949 . S
H1222 C1199 0.950 . S
H1223 C1201 0.950 . S
C1224 C1225 1.349 . S
C1224 C1226 1.327 . S
C1224 H1249 0.950 . S
C1225 C1224 1.349 . S
C1225 C1241 1.349 . S
C1226 C1224 1.327 . S
C1226 C1245 1.429 . S
C1226 H1250 0.950 . S
C1227 C1244 1.574 . S
C1227 C1246 1.368 . S
C1227 H1251 0.949 . S
H1228 C1232 0.949 . S
C1229 C1230 1.349 . S
C1229 C1231 1.327 . S
C1229 H1252 0.950 . S
C1230 C1229 1.349 . S
C1230 C1242 1.349 . S
C1231 C1229 1.327 . S
C1231 C1247 1.429 . S
C1231 H1253 0.950 . S
C1232 H1228 0.949 . S
C1232 C1240 1.574 . S
C1232 C1248 1.368 . S
H1233 C1241 0.950 . S
H1234 C1239 0.950 . S
H1235 C1240 0.949 . S
H1236 C1242 0.950 1_455 S
H1237 C1243 0.950 . S
H1238 C1244 0.949 . S
C1239 H1234 0.950 . S
C1239 C1241 1.327 . S
C1239 C1245 1.429 . S
C1240 C1232 1.574 . S
C1240 H1235 0.949 . S
C1240 C1246 1.368 . S
C1241 C1225 1.349 . S
C1241 H1233 0.950 . S
C1241 C1239 1.327 . S
C1242 C1230 1.349 . S
C1242 H1236 0.950 1_655 S
C1242 C1243 1.327 . S
C1243 H1237 0.950 . S
C1243 C1242 1.327 . S
C1243 C1247 1.429 . S
C1244 C1227 1.574 . S
C1244 H1238 0.949 . S
C1244 C1248 1.368 . S
C1245 C1226 1.429 . S
C1245 C1239 1.429 . S
C1245 C1246 1.523 . S
C1246 C1227 1.368 . S
C1246 C1240 1.368 . S
C1246 C1245 1.523 . S
C1247 C1231 1.429 . S
C1247 C1243 1.429 . S
C1247 C1248 1.523 . S
C1248 C1232 1.368 . S
C1248 C1244 1.368 . S
C1248 C1247 1.523 . S
H1249 C1224 0.950 . S
H1250 C1226 0.950 . S
H1251 C1227 0.949 . S
H1252 C1229 0.950 . S
H1253 C1231 0.950 . S
C1254 C1255 1.349 . S
C1254 C1256 1.327 . S
C1254 H1279 0.950 . S
C1255 C1254 1.349 . S
C1255 C1271 1.349 . S
C1256 C1254 1.327 . S
C1256 C1275 1.429 . S
C1256 H1280 0.950 . S
C1257 C1274 1.574 . S
C1257 C1276 1.368 . S
C1257 H1281 0.949 . S
H1258 C1262 0.949 . S
C1259 C1260 1.349 . S
C1259 C1261 1.327 . S
C1259 H1282 0.950 . S
C1260 C1259 1.349 . S
C1260 C1272 1.349 . S
C1261 C1259 1.327 . S
C1261 C1277 1.429 . S
C1261 H1283 0.950 . S
C1262 H1258 0.949 . S
C1262 C1270 1.574 . S
C1262 C1278 1.368 . S
H1263 C1271 0.950 . S
H1264 C1269 0.950 . S
H1265 C1270 0.949 . S
H1266 C1272 0.950 . S
H1267 C1273 0.950 . S
H1268 C1274 0.949 . S
C1269 H1264 0.950 . S
C1269 C1271 1.327 . S
C1269 C1275 1.429 . S
C1270 C1262 1.574 . S
C1270 H1265 0.949 . S
C1270 C1276 1.368 . S
C1271 C1255 1.349 . S
C1271 H1263 0.950 . S
C1271 C1269 1.327 . S
C1272 C1260 1.349 . S
C1272 H1266 0.950 . S
C1272 C1273 1.327 . S
C1273 H1267 0.950 . S
C1273 C1272 1.327 . S
C1273 C1277 1.429 . S
C1274 C1257 1.574 . S
C1274 H1268 0.949 . S
C1274 C1278 1.368 . S
C1275 C1256 1.429 . S
C1275 C1269 1.429 . S
C1275 C1276 1.523 . S
C1276 C1257 1.368 . S
C1276 C1270 1.368 . S
C1276 C1275 1.523 . S
C1277 C1261 1.429 . S
C1277 C1273 1.429 . S
C1277 C1278 1.523 . S
C1278 C1262 1.368 . S
C1278 C1274 1.368 . S
C1278 C1277 1.523 . S
H1279 C1254 0.950 . S
H1280 C1256 0.950 . S
H1281 C1257 0.949 . S
H1282 C1259 0.950 . S
H1283 C1261 0.950 . S
C1284 C1285 1.349 . S
C1284 C1286 1.327 . S
C1284 H1309 0.950 . S
C1285 C1284 1.349 . S
C1285 C1301 1.349 . S
C1286 C1284 1.327 . S
C1286 C1305 1.429 . S
C1286 H1310 0.950 . S
C1287 C1304 1.574 . S
C1287 C1306 1.368 . S
C1287 H1311 0.949 . S
H1288 C1292 0.949 . S
C1289 C1290 1.349 . S
C1289 C1291 1.327 . S
C1289 H1312 0.950 . S
C1290 C1289 1.349 . S
C1290 C1302 1.349 . S
C1291 C1289 1.327 . S
C1291 C1307 1.429 . S
C1291 H1313 0.950 . S
C1292 H1288 0.949 . S
C1292 C1300 1.574 . S
C1292 C1308 1.368 . S
H1293 C1301 0.950 . S
H1294 C1299 0.950 . S
H1295 C1300 0.949 . S
H1296 C1302 0.950 . S
H1297 C1303 0.950 . S
H1298 C1304 0.949 . S
C1299 H1294 0.950 . S
C1299 C1301 1.327 . S
C1299 C1305 1.429 . S
C1300 C1292 1.574 . S
C1300 H1295 0.949 . S
C1300 C1306 1.368 . S
C1301 C1285 1.349 . S
C1301 H1293 0.950 . S
C1301 C1299 1.327 . S
C1302 C1290 1.349 . S
C1302 H1296 0.950 . S
C1302 C1303 1.327 . S
C1303 H1297 0.950 . S
C1303 C1302 1.327 . S
C1303 C1307 1.429 . S
C1304 C1287 1.574 . S
C1304 H1298 0.949 . S
C1304 C1308 1.368 . S
C1305 C1286 1.429 . S
C1305 C1299 1.429 . S
C1305 C1306 1.523 . S
C1306 C1287 1.368 . S
C1306 C1300 1.368 . S
C1306 C1305 1.523 . S
C1307 C1291 1.429 . S
C1307 C1303 1.429 . S
C1307 C1308 1.523 . S
C1308 C1292 1.368 . S
C1308 C1304 1.368 . S
C1308 C1307 1.523 . S
H1309 C1284 0.950 . S
H1310 C1286 0.950 . S
H1311 C1287 0.949 . S
H1312 C1289 0.950 . S
H1313 C1291 0.950 . S
C1314 C1315 1.349 . S
C1314 C1316 1.327 . S
C1314 H1339 0.950 . S
C1315 C1314 1.349 . S
C1315 C1331 1.349 . S
C1316 C1314 1.327 . S
C1316 C1335 1.429 . S
C1316 H1340 0.950 . S
C1317 C1334 1.574 . S
C1317 C1336 1.368 . S
C1317 H1341 0.949 . S
H1318 C1322 0.949 . S
C1319 C1320 1.349 . S
C1319 C1321 1.327 . S
C1319 H1342 0.950 . S
C1320 C1319 1.349 . S
C1320 C1332 1.349 . S
C1321 C1319 1.327 . S
C1321 C1337 1.429 . S
C1321 H1343 0.950 . S
C1322 H1318 0.949 . S
C1322 C1330 1.574 . S
C1322 C1338 1.368 . S
H1323 C1331 0.950 . S
H1324 C1329 0.950 . S
H1325 C1330 0.949 . S
H1326 C1332 0.950 . S
H1327 C1333 0.950 . S
H1328 C1334 0.949 . S
C1329 H1324 0.950 . S
C1329 C1331 1.327 . S
C1329 C1335 1.429 . S
C1330 C1322 1.574 . S
C1330 H1325 0.949 . S
C1330 C1336 1.368 . S
C1331 C1315 1.349 . S
C1331 H1323 0.950 . S
C1331 C1329 1.327 . S
C1332 C1320 1.349 . S
C1332 H1326 0.950 . S
C1332 C1333 1.327 . S
C1333 H1327 0.950 . S
C1333 C1332 1.327 . S
C1333 C1337 1.429 . S
C1334 C1317 1.574 . S
C1334 H1328 0.949 . S
C1334 C1338 1.368 . S
C1335 C1316 1.429 . S
C1335 C1329 1.429 . S
C1335 C1336 1.523 . S
C1336 C1317 1.368 . S
C1336 C1330 1.368 . S
C1336 C1335 1.523 . S
C1337 C1321 1.429 . S
C1337 C1333 1.429 . S
C1337 C1338 1.523 . S
C1338 C1322 1.368 . S
C1338 C1334 1.368 . S
C1338 C1337 1.523 . S
H1339 C1314 0.950 . S
H1340 C1316 0.950 . S
H1341 C1317 0.949 . S
H1342 C1319 0.950 . S
H1343 C1321 0.950 . S
C625 C247 1.473 . S
C630 C362 1.453 . S
C660 C446 1.452 . S
C655 C283 1.473 . S
C690 C439 1.459 . S
C685 C175 1.463 . S
C715 C211 1.463 . S
C720 C355 1.459 . S
C750 C519 1.453 . S
C745 C103 1.461 . S
C780 C603 1.453 . S
C775 C139 1.461 . S
C805 C31 1.449 . S
C810 C596 1.459 . S
C835 C67 1.449 . S
C840 C512 1.459 . S
C870 C346 1.345 . S
C865 C37 1.509 1_554 S
C900 C430 1.344 . S
C895 C1 1.509 . S
C930 C441 1.407 . S
C925 C109 1.596 . S
C960 C357 1.407 . S
C955 C73 1.535 . S
C990 C525 1.345 . S
C985 C181 1.521 1_556 S
C1015 C145 1.520 . S
C1020 C609 1.344 . S
C1050 C598 1.407 . S
C1045 C253 1.545 . S
C1075 C217 1.545 . S
C1080 C514 1.407 . S
C1110 C344 1.590 . S
C1105 C25 1.568 . S
C1140 C428 1.590 . S
C1135 C61 1.568 . S
C1165 C97 1.558 . S
C1170 C435 1.563 . S
C1200 C351 1.563 . S
C1195 C133 1.558 . S
C1230 C523 1.590 . S
C1225 C169 1.585 . S
C1255 C205 1.585 . S
C1260 C607 1.590 . S
C1285 C241 1.573 . S
C1290 C614 1.563 . S
C1315 C277 1.573 . S
C1320 C530 1.563 . S
