# Generated by pormake.
# Topology myd, (4,6)-cn, num edge types: 1
# Building blocks:
#     Node 0, Type 0, BuildingBlock: IZENUY_clean_linker_0, # of connection points: 4
#     Node 1, Type 0, BuildingBlock: IZENUY_clean_linker_0, # of connection points: 4
#     Node 2, Type 0, BuildingBlock: IZENUY_clean_linker_0, # of connection points: 4
#     Node 3, Type 0, BuildingBlock: IZENUY_clean_linker_0, # of connection points: 4
#     Node 4, Type 0, BuildingBlock: IZENUY_clean_linker_0, # of connection points: 4
#     Node 5, Type 0, BuildingBlock: IZENUY_clean_linker_0, # of connection points: 4
#     Node 6, Type 0, BuildingBlock: IZENUY_clean_linker_0, # of connection points: 4
#     Node 7, Type 0, BuildingBlock: IZENUY_clean_linker_0, # of connection points: 4
#     Node 8, Type 0, BuildingBlock: IZENUY_clean_linker_0, # of connection points: 4
#     Node 9, Type 0, BuildingBlock: IZENUY_clean_linker_0, # of connection points: 4
#     Node 10, Type 0, BuildingBlock: IZENUY_clean_linker_0, # of connection points: 4
#     Node 11, Type 0, BuildingBlock: IZENUY_clean_linker_0, # of connection points: 4
#     Node 12, Type 1, BuildingBlock: JUFBIX_clean_sbu_0, # of connection points: 6
#     Node 13, Type 1, BuildingBlock: JUFBIX_clean_sbu_0, # of connection points: 6
#     Node 14, Type 1, BuildingBlock: JUFBIX_clean_sbu_0, # of connection points: 6
#     Node 15, Type 1, BuildingBlock: JUFBIX_clean_sbu_0, # of connection points: 6
#     Node 16, Type 1, BuildingBlock: JUFBIX_clean_sbu_0, # of connection points: 6
#     Node 17, Type 1, BuildingBlock: JUFBIX_clean_sbu_0, # of connection points: 6
#     Node 18, Type 1, BuildingBlock: JUFBIX_clean_sbu_0, # of connection points: 6
#     Node 19, Type 1, BuildingBlock: JUFBIX_clean_sbu_0, # of connection points: 6
#     Edge 20, Type (0, 1), None
#     Edge 21, Type (0, 1), None
#     Edge 22, Type (0, 1), None
#     Edge 23, Type (0, 1), None
#     Edge 24, Type (0, 1), None
#     Edge 25, Type (0, 1), None
#     Edge 26, Type (0, 1), None
#     Edge 27, Type (0, 1), None
#     Edge 28, Type (0, 1), None
#     Edge 29, Type (0, 1), None
#     Edge 30, Type (0, 1), None
#     Edge 31, Type (0, 1), None
#     Edge 32, Type (0, 1), None
#     Edge 33, Type (0, 1), None
#     Edge 34, Type (0, 1), None
#     Edge 35, Type (0, 1), None
#     Edge 36, Type (0, 1), None
#     Edge 37, Type (0, 1), None
#     Edge 38, Type (0, 1), None
#     Edge 39, Type (0, 1), None
#     Edge 40, Type (0, 1), None
#     Edge 41, Type (0, 1), None
#     Edge 42, Type (0, 1), None
#     Edge 43, Type (0, 1), None
#     Edge 44, Type (0, 1), None
#     Edge 45, Type (0, 1), None
#     Edge 46, Type (0, 1), None
#     Edge 47, Type (0, 1), None
#     Edge 48, Type (0, 1), None
#     Edge 49, Type (0, 1), None
#     Edge 50, Type (0, 1), None
#     Edge 51, Type (0, 1), None
#     Edge 52, Type (0, 1), None
#     Edge 53, Type (0, 1), None
#     Edge 54, Type (0, 1), None
#     Edge 55, Type (0, 1), None
#     Edge 56, Type (0, 1), None
#     Edge 57, Type (0, 1), None
#     Edge 58, Type (0, 1), None
#     Edge 59, Type (0, 1), None
#     Edge 60, Type (0, 1), None
#     Edge 61, Type (0, 1), None
#     Edge 62, Type (0, 1), None
#     Edge 63, Type (0, 1), None
#     Edge 64, Type (0, 1), None
#     Edge 65, Type (0, 1), None
#     Edge 66, Type (0, 1), None
#     Edge 67, Type (0, 1), None
# Relax obj value: 0.290
# Max RMSD: 0.280
# Mean RMSD: 0.222
data_MOF--net-myd--node1-JUFBIX_clean_sbu_0--node2-IZENUY_clean_linker_0--edge1-none
_symmetry_space_group_name_H-M    P1
_symmetry_Int_Tables_number       1
_symmetry_cell_setting            triclinic
loop_
_symmetry_equiv_pos_as_xyz
'x, y, z'
_cell_length_a     22.654292
_cell_length_b     25.501732
_cell_length_c     25.041309
_cell_angle_alpha  92.099007
_cell_angle_beta   86.008971
_cell_angle_gamma 92.572638
loop_
_atom_site_label
_atom_site_type_symbol
_atom_site_fract_x
_atom_site_fract_y
_atom_site_fract_z
_atom_type_partial_charge
H0 H 0.08502 0.35371 0.45467 0.0
H1 H 0.95588 0.26329 0.36785 0.0
H2 H 0.93398 0.42397 0.39423 0.0
H3 H 0.07053 0.21466 0.28464 0.0
H4 H 0.08283 0.1286 0.42721 0.0
H5 H 0.12086 0.05433 0.27165 0.0
N6 N 0.06275 0.26013 0.40135 0.0
N7 N 1.04245 0.21531 0.38881 0.0
C8 C 1.04271 0.35017 0.43698 0.0
C9 C 1.00867 0.39519 0.43261 0.0
C10 C 1.02287 0.3012 0.41448 0.0
C11 C 0.96924 0.29916 0.38913 0.0
C12 C 0.95111 0.34578 0.36945 0.0
C13 C 0.95884 0.39031 0.40199 0.0
C14 C 0.08178 0.17938 0.3035 0.0
C15 C 0.09585 0.13494 0.27128 0.0
C16 C 0.07633 0.1771 0.35971 0.0
C17 C 0.08916 0.13069 0.38402 0.0
C18 C 0.10692 0.08636 0.35273 0.0
C19 C 0.1086 0.0885 0.29628 0.0
H20 H 1.01256 0.64304 0.15261 0.0
H21 H 1.00249 0.72746 0.30467 0.0
H22 H 0.99332 0.55883 0.3 0.0
H23 H 0.13808 0.76855 0.1776 0.0
H24 H 0.99757 0.83756 0.10138 0.0
H25 H 0.13095 0.93461 0.17391 0.0
N26 N 1.02629 0.73939 0.20274 0.0
N27 N 1.03013 0.74981 0.15405 0.0
C28 C 1.00659 0.64278 0.1959 0.0
C29 C 1.00148 0.59451 0.22227 0.0
C30 C 1.00708 0.69077 0.22573 0.0
C31 C 1.00085 0.69037 0.28211 0.0
C32 C 0.99679 0.64327 0.3097 0.0
C33 C 0.9974 0.59548 0.2792 0.0
C34 C 0.11928 0.80284 0.16223 0.0
C35 C 0.13457 0.85189 0.18485 0.0
C36 C 0.06437 0.79631 0.1399 0.0
C37 C 1.03974 0.841 0.11931 0.0
C38 C 0.0695 0.891 0.12576 0.0
C39 C 0.11605 0.89583 0.1602 0.0
H40 H 0.26313 1.01559 0.19133 0.0
H41 H 0.44874 0.05845 0.1596 0.0
H42 H 0.31637 0.1386 0.08468 0.0
H43 H 0.4696 1.03885 0.3485 0.0
H44 H 0.29778 0.97942 0.30352 0.0
H45 H 0.33309 0.99178 0.46802 0.0
N46 N 0.3649 1.01 0.23003 0.0
N47 N 0.39738 1.028 0.26529 0.0
C48 C 0.29786 1.03732 0.1684 0.0
C49 C 0.28242 0.07419 0.1329 0.0
C50 C 0.35702 1.03502 0.18169 0.0
C51 C 0.40283 0.0633 0.1521 0.0
C52 C 0.38794 0.09837 0.1132 0.0
C53 C 0.32783 0.10658 0.10844 0.0
C54 C 0.42564 1.02237 0.35903 0.0
C55 C 0.40739 1.0127 0.41319 0.0
C56 C 0.38606 1.01021 0.31864 0.0
C57 C 0.32943 0.98794 0.33352 0.0
C58 C 0.31035 0.98222 0.38718 0.0
C59 C 0.3489 0.99535 0.42642 0.0
H60 H 0.66125 0.53364 0.22291 0.0
H61 H 0.81984 0.45938 0.25873 0.0
H62 H 0.79624 0.49894 0.09795 0.0
H63 H 0.81733 0.54251 0.36232 0.0
H64 H 0.63636 0.58135 0.40864 0.0
H65 H 0.77401 0.61418 0.51515 0.0
N66 N 0.73564 0.50784 0.30316 0.0
N67 N 0.70865 0.5441 0.32703 0.0
C68 C 0.70309 0.51703 0.2096 0.0
C69 C 0.72144 0.51286 0.15415 0.0
C70 C 0.74019 0.4977 0.24718 0.0
C71 C 0.79209 0.47372 0.22926 0.0
C72 C 0.8133 0.4759 0.17602 0.0
C73 C 0.77867 0.49644 0.13915 0.0
C74 C 0.78411 0.55524 0.39271 0.0
C75 C 0.80271 0.57481 0.44192 0.0
C76 C 0.72398 0.55786 0.38006 0.0
C77 C 0.68216 0.57938 0.418 0.0
C78 C 0.70043 0.59928 0.46754 0.0
C79 C 0.76007 0.59665 0.47839 0.0
H80 H 0.45653 0.50191 1.00849 0.0
H81 H 0.30192 0.3986 0.99332 0.0
H82 H 0.46365 0.36503 0.90519 0.0
H83 H 0.31601 0.39244 0.08864 0.0
H84 H 0.18532 0.50953 0.08004 0.0
H85 H 0.13227 0.35357 0.12556 0.0
N86 N 0.34626 0.49614 1.0379 0.0
N87 N 0.29797 0.49629 0.06563 0.0
C88 C 0.43484 0.46681 0.99187 0.0
C89 C 0.46655 0.43417 0.95545 0.0
C90 C 0.37489 0.45575 1.00613 0.0
C91 C 0.34834 0.40833 0.98602 0.0
C92 C 0.38407 0.37191 0.95625 0.0
C93 C 0.4387 0.38988 0.93358 0.0
C94 C 0.27042 0.40366 0.09013 0.0
C95 C 0.22455 0.36625 0.10264 0.0
C96 C 0.25568 0.45484 0.07743 0.0
C97 C 0.1966 0.46941 0.08616 0.0
C98 C 0.15298 0.43345 0.10588 0.0
C99 C 0.16686 0.38203 0.11245 0.0
H100 H 0.36216 0.82002 0.55258 0.0
H101 H 0.41403 0.6584 0.55051 0.0
H102 H 0.53353 0.7862 0.59891 0.0
H103 H 0.17858 0.66777 0.53428 0.0
H104 H 0.25159 0.82622 0.51472 0.0
H105 H 0.07642 0.78736 0.4694 0.0
N106 N 0.3241 0.7238 0.52772 0.0
N107 N 0.27618 0.73684 0.55199 0.0
C108 C 0.39489 0.79135 0.55826 0.0
C109 C 0.45068 0.80884 0.57424 0.0
C110 C 0.38022 0.73733 0.54992 0.0
C111 C 0.42401 0.69981 0.55805 0.0
C112 C 0.48064 0.71677 0.57631 0.0
C113 C 0.49197 0.77155 0.58382 0.0
C114 C 0.17446 0.70731 0.52112 0.0
C115 C 0.11986 0.72209 0.50097 0.0
C116 C 0.22311 0.74517 0.52534 0.0
C117 C 0.21554 0.79718 0.51084 0.0
C118 C 0.16264 0.81243 0.49169 0.0
C119 C 0.11619 0.77485 0.48613 0.0
H120 H 0.81601 0.89245 0.5886 0.0
H121 H 0.68531 1.00953 0.58002 0.0
H122 H 0.63228 0.85359 0.62557 0.0
H123 H 0.95653 1.00189 0.50847 0.0
H124 H 0.80192 0.89859 0.49328 0.0
H125 H 0.96366 0.86501 0.40517 0.0
N126 N 0.79797 0.99629 0.56558 0.0
N127 N 0.84625 0.99614 0.53784 0.0
C128 C 0.77042 0.90366 0.5901 0.0
C129 C 0.72456 0.86626 0.60263 0.0
C130 C 0.75568 0.95484 0.5774 0.0
C131 C 0.6966 0.96941 0.58614 0.0
C132 C 0.65299 0.93346 0.60588 0.0
C133 C 0.66686 0.88204 0.61246 0.0
C134 C 0.93485 0.96679 0.49185 0.0
C135 C 0.96656 0.93415 0.45544 0.0
C136 C 0.87489 0.95574 0.5061 0.0
C137 C 0.84834 0.90831 0.48599 0.0
C138 C 0.88407 0.8719 0.45623 0.0
C139 C 0.93871 0.88986 0.43356 0.0
H140 H 0.58502 0.85372 0.95468 0.0
H141 H 0.45587 0.76331 0.86786 0.0
H142 H 0.43398 0.92399 0.89424 0.0
H143 H 0.57053 0.71468 0.78462 0.0
H144 H 0.58283 0.62862 0.9272 0.0
H145 H 0.62086 0.55434 0.77165 0.0
N146 N 0.56275 0.76015 0.90135 0.0
N147 N 0.54245 0.71533 0.8888 0.0
C148 C 0.54271 0.85018 0.93698 0.0
C149 C 0.50867 0.89521 0.93262 0.0
C150 C 0.52287 0.80121 0.91448 0.0
C151 C 0.46923 0.79918 0.88914 0.0
C152 C 0.45111 0.84579 0.86946 0.0
C153 C 0.45884 0.89033 0.902 0.0
C154 C 0.58179 0.6794 0.80349 0.0
C155 C 0.59585 0.63496 0.77127 0.0
C156 C 0.57633 0.67712 0.8597 0.0
C157 C 0.58916 0.63071 0.88402 0.0
C158 C 0.60692 0.58638 0.85272 0.0
C159 C 0.6086 0.58852 0.79627 0.0
H160 H 0.51256 0.14305 0.65262 0.0
H161 H 0.50248 0.22748 0.80467 0.0
H162 H 0.49333 0.05884 0.80001 0.0
H163 H 0.63807 0.26856 0.6776 0.0
H164 H 0.49756 0.33757 0.60138 0.0
H165 H 0.63094 0.43463 0.67391 0.0
N166 N 0.52628 0.2394 0.70274 0.0
N167 N 0.53013 0.24983 0.65405 0.0
C168 C 0.50659 0.1428 0.6959 0.0
C169 C 0.50149 0.09453 0.72228 0.0
C170 C 0.50707 0.19078 0.72573 0.0
C171 C 0.50085 0.19039 0.78211 0.0
C172 C 0.49679 0.14328 0.8097 0.0
C173 C 0.49741 0.09549 0.77921 0.0
C174 C 0.61927 0.30286 0.66223 0.0
C175 C 0.63456 0.3519 0.68486 0.0
C176 C 0.56436 0.29632 0.6399 0.0
C177 C 0.53974 0.34101 0.61931 0.0
C178 C 0.5695 0.39102 0.62576 0.0
C179 C 0.61604 0.39584 0.6602 0.0
H180 H 0.76312 0.51559 0.69133 0.0
H181 H 0.94874 0.55844 0.6596 0.0
H182 H 0.81637 0.6386 0.58468 0.0
H183 H 0.96959 0.53883 0.8485 0.0
H184 H 0.79777 0.47943 0.80352 0.0
H185 H 0.83308 0.49178 0.96802 0.0
N186 N 0.86489 0.51 0.73003 0.0
N187 N 0.89737 0.52799 0.76528 0.0
C188 C 0.79785 0.53732 0.6684 0.0
C189 C 0.78242 0.57419 0.6329 0.0
C190 C 0.85701 0.53501 0.68168 0.0
C191 C 0.90283 0.56329 0.6521 0.0
C192 C 0.88794 0.59837 0.6132 0.0
C193 C 0.82783 0.60657 0.60843 0.0
C194 C 0.92563 0.52235 0.85902 0.0
C195 C 0.90739 0.51269 0.91319 0.0
C196 C 0.88605 0.5102 0.81863 0.0
C197 C 0.82942 0.48794 0.83351 0.0
C198 C 0.81034 0.48223 0.88718 0.0
C199 C 0.84889 0.49535 0.92642 0.0
H200 H 0.31734 1.04252 0.86232 0.0
H201 H 0.13636 0.08135 0.90865 0.0
H202 H 0.27402 0.11419 1.01515 0.0
H203 H 0.16124 1.03363 0.72292 0.0
H204 H 0.31986 0.95939 0.75874 0.0
H205 H 0.29624 0.99894 0.59795 0.0
N206 N 0.20866 1.0441 0.82703 0.0
N207 N 0.23564 1.00784 0.80316 0.0
C208 C 0.28411 0.05525 0.89271 0.0
C209 C 0.30272 0.07482 0.94192 0.0
C210 C 0.22398 0.05786 0.88007 0.0
C211 C 0.18217 0.07938 0.918 0.0
C212 C 0.20043 0.09928 0.96755 0.0
C213 C 0.26008 0.09666 0.9784 0.0
C214 C 0.20309 1.01703 0.7096 0.0
C215 C 0.22144 1.01285 0.65415 0.0
C216 C 0.24019 0.9977 0.74719 0.0
C217 C 0.2921 0.97373 0.72927 0.0
C218 C 0.31331 0.97591 0.67602 0.0
C219 C 0.27867 0.99644 0.63915 0.0
H220 H 0.67859 0.16779 1.03429 0.0
H221 H 0.75156 0.32626 1.01475 0.0
H222 H 0.57642 0.28737 0.9694 0.0
H223 H 0.86215 0.32 0.0526 0.0
H224 H 0.91402 0.15838 0.05054 0.0
H225 H 1.03354 0.28619 0.0989 0.0
N226 N 0.77617 0.2369 0.05201 0.0
N227 N 0.82408 0.22377 1.02776 0.0
C228 C 0.67446 0.20734 1.02113 0.0
C229 C 0.61986 0.22211 1.00097 0.0
C230 C 0.72311 0.24521 1.02535 0.0
C231 C 0.71552 0.29722 1.01085 0.0
C232 C 0.66263 0.31246 0.9917 0.0
C233 C 0.61618 0.27487 0.98613 0.0
C234 C 0.89488 0.29133 0.05827 0.0
C235 C 0.95067 0.30882 0.07424 0.0
C236 C 0.88021 0.23731 0.04994 0.0
C237 C 0.924 0.19979 0.05806 0.0
C238 C 0.98064 0.21675 0.07631 0.0
C239 C 0.99197 0.27154 0.08381 0.0
Co240 Co 0.10032 0.09283 0.10682 0.0
C241 C 0.09908 0.13719 0.21174 0.0
Co242 Co 0.14855 0.1694 0.11376 0.0
C243 C 0.08397 0.98045 0.09269 0.0
C244 C 1.00376 1.01439 0.12353 0.0
N245 N 0.05929 1.02716 0.10389 0.0
N246 N 1.04772 0.93895 0.10722 0.0
C247 C 0.99669 0.96032 0.1259 0.0
H248 H 0.13047 0.97685 0.08064 0.0
H249 H 0.97268 1.04248 0.14045 0.0
C250 C 0.15911 0.11882 1.01159 0.0
N251 N 0.19439 0.23105 0.1192 0.0
C252 C 0.19749 0.27344 0.08883 0.0
C253 C 0.23262 0.24288 0.15749 0.0
N254 N 0.23441 0.31195 0.10765 0.0
C255 C 0.25711 0.29254 0.1505 0.0
C256 C 0.22048 0.08939 0.12944 0.0
O257 O 0.12086 0.08629 1.03217 0.0
O258 O 0.17482 0.15949 0.03936 0.0
O259 O 0.21379 0.13768 0.13056 0.0
O260 O 0.17597 0.05854 0.12017 0.0
O261 O 0.1244 0.17653 0.18855 0.0
H262 H 0.23971 0.2181 0.19041 0.0
H263 H 0.16849 0.27829 0.0569 0.0
O264 O 0.08243 0.09758 0.18328 0.0
O265 O 1.02643 0.13139 0.09233 0.0
O266 O 0.08119 0.20439 0.09554 0.0
C267 C 1.03101 0.18165 0.08798 0.0
H268 H 0.95992 0.93911 0.14649 0.0
H269 H 0.2837 0.31487 0.17837 0.0
Co270 Co 0.98428 0.43527 0.17854 0.0
C271 C 0.99911 0.54301 0.19124 0.0
Co272 Co 0.98161 0.47334 0.10152 0.0
C273 C 0.95524 0.39646 0.28526 0.0
C274 C 1.01835 0.35226 0.23695 0.0
N275 N 0.98852 0.39684 0.23841 0.0
N276 N 0.96276 0.3528 0.31281 0.0
C277 C 1.00231 0.3252 0.28177 0.0
H278 H 0.92623 0.42752 0.29892 0.0
H279 H 1.04831 0.33907 0.20417 0.0
C280 C 0.96206 0.36388 0.09398 0.0
N281 N 0.97751 0.5066 1.03755 0.0
C282 C 0.94069 0.48968 1.00042 0.0
C283 C 1.00902 0.54742 1.01521 0.0
N284 N 0.94659 0.51821 0.95598 0.0
C285 C 0.98988 0.55476 0.96467 0.0
C286 C 0.09222 0.44725 0.11978 0.0
O287 O 0.96891 0.3707 0.14307 0.0
O288 O 0.96722 0.40385 0.06463 0.0
O289 O 0.06321 0.46886 0.08608 0.0
O290 O 0.06595 0.42965 0.16224 0.0
O291 O 0.99435 0.54072 0.14044 0.0
H292 H 1.04349 0.57031 1.03433 0.0
H293 H 0.90939 0.45672 1.00615 0.0
O294 O 0.99826 0.50024 0.21615 0.0
O295 O 0.90416 0.44145 0.19397 0.0
O296 O 0.89953 0.4787 0.11687 0.0
C297 C 0.87437 0.46296 0.16065 0.0
H298 H 1.02141 0.28931 0.29214 0.0
H299 H 1.00509 0.58531 0.93748 0.0
Co300 Co 0.14175 0.97329 0.46453 0.0
C301 C 0.24853 0.96718 0.4024 0.0
Co302 Co 0.13745 0.93143 0.38622 0.0
C303 C 0.18964 0.99684 0.56273 0.0
C304 C 0.11402 1.04286 0.55961 0.0
N305 N 0.14847 1.00919 0.53001 0.0
N306 N 0.1834 1.02092 0.61156 0.0
C307 C 0.13546 0.05007 0.61019 0.0
H308 H 0.22211 0.96791 0.55144 0.0
H309 H 0.07461 0.05928 0.54623 0.0
C310 C 1.03035 0.94175 0.44507 0.0
N311 N 0.1312 0.8907 0.3247 0.0
C312 C 0.14917 0.89897 0.27305 0.0
C313 C 0.11159 0.84009 0.32545 0.0
N314 N 0.14183 0.85505 0.24164 0.0
C315 C 0.11954 0.81801 0.27556 0.0
C316 C 0.15755 0.86552 0.47027 0.0
O317 O 0.06067 0.96554 0.47968 0.0
O318 O 0.05591 0.92129 0.40314 0.0
O319 O 0.15298 0.86902 0.4208 0.0
O320 O 0.15346 0.90704 0.49969 0.0
O321 O 0.21758 0.94263 0.36877 0.0
H322 H 0.09187 0.82015 0.36013 0.0
H323 H 0.16565 0.93676 0.25871 0.0
O324 O 0.22461 0.98234 0.44751 0.0
O325 O 0.12917 1.03739 0.42881 0.0
O326 O 0.12226 0.99398 0.35159 0.0
C327 C 0.12046 1.03716 0.37884 0.0
H328 H 0.11694 0.07407 0.64319 0.0
H329 H 0.10518 0.77833 0.26489 0.0
Co330 Co 0.94333 0.67305 0.47238 0.0
C331 C 0.06419 0.68673 0.49481 0.0
Co332 Co 0.98686 0.5979 0.47157 0.0
C333 C 0.91769 0.78023 0.45444 0.0
C334 C 0.84586 0.74061 0.49768 0.0
N335 N 0.90155 0.73414 0.4761 0.0
N336 N 0.87481 0.81595 0.46182 0.0
C337 C 0.82944 0.79075 0.48909 0.0
H338 H 0.96158 0.78748 0.43577 0.0
H339 H 0.81882 0.71081 0.51858 0.0
C340 C 0.86544 0.59189 0.44867 0.0
N341 N 1.02243 0.53352 0.46991 0.0
C342 C 1.00863 0.49303 0.4367 0.0
C343 C 0.05386 0.51247 0.50707 0.0
N344 N 1.02718 0.44674 0.45272 0.0
C345 C 0.05687 0.45897 0.49655 0.0
C346 C 0.93081 0.62015 0.57062 0.0
O347 O 0.87462 0.64056 0.45276 0.0
O348 O 0.90807 0.56219 0.45615 0.0
O349 O 0.96677 0.58933 0.54644 0.0
O350 O 0.91803 0.66104 0.54663 0.0
O351 O 0.06409 0.63659 0.48708 0.0
H352 H 0.06923 0.5337 0.542 0.0
H353 H 0.98215 0.49758 0.40305 0.0
O354 O 1.01508 0.70899 0.49222 0.0
O355 O 0.96657 0.68195 0.39682 0.0
O356 O 1.00467 0.60428 0.3952 0.0
C357 C 0.99034 0.64382 0.36998 0.0
H358 H 0.78832 0.80782 0.50361 0.0
H359 H 0.07523 0.43093 0.52153 0.0
Co360 Co 0.48429 0.93528 0.67855 0.0
C361 C 0.49912 1.04302 0.69125 0.0
Co362 Co 0.48162 0.97335 0.60153 0.0
C363 C 0.45524 0.89647 0.78527 0.0
C364 C 0.51836 0.85227 0.73696 0.0
N365 N 0.48853 0.89686 0.73842 0.0
N366 N 0.46276 0.85282 0.81282 0.0
C367 C 0.50231 0.82521 0.78177 0.0
H368 H 0.42624 0.92754 0.79892 0.0
H369 H 0.54831 0.83908 0.70418 0.0
C370 C 0.46206 0.8639 0.59399 0.0
N371 N 0.47751 1.00661 0.53756 0.0
C372 C 0.44069 0.98969 0.50043 0.0
C373 C 0.50903 1.04744 0.51521 0.0
N374 N 0.44659 1.01822 0.45599 0.0
C375 C 0.48988 0.05477 0.46468 0.0
C376 C 0.59223 0.94726 0.61978 0.0
O377 O 0.46892 0.87071 0.64308 0.0
O378 O 0.46723 0.90387 0.56463 0.0
O379 O 0.56322 0.96888 0.58609 0.0
O380 O 0.56596 0.92966 0.66225 0.0
O381 O 0.49436 1.04073 0.64045 0.0
H382 H 0.54349 0.07032 0.53434 0.0
H383 H 0.40939 0.95673 0.50616 0.0
O384 O 0.49827 1.00026 0.71615 0.0
O385 O 0.40417 0.94147 0.69398 0.0
O386 O 0.39953 0.97872 0.61688 0.0
C387 C 0.37437 0.96297 0.66066 0.0
H388 H 0.52141 0.78932 0.79215 0.0
H389 H 0.50509 0.08532 0.43749 0.0
Co390 Co 0.60031 0.59284 0.60682 0.0
C391 C 0.59908 0.63721 0.71173 0.0
Co392 Co 0.64855 0.66941 0.61375 0.0
C393 C 0.58396 0.48046 0.59268 0.0
C394 C 0.50376 0.51441 0.62354 0.0
N395 N 0.55928 0.52717 0.60388 0.0
N396 N 0.54772 0.43896 0.60722 0.0
C397 C 0.49668 0.46034 0.62591 0.0
H398 H 0.63047 0.47685 0.58064 0.0
H399 H 0.47267 0.5425 0.64045 0.0
C400 C 0.65911 0.61882 0.51158 0.0
N401 N 0.69439 0.73106 0.61918 0.0
C402 C 0.69749 0.77345 0.58882 0.0
C403 C 0.73263 0.74289 0.65747 0.0
N404 N 0.73442 0.81195 0.60763 0.0
C405 C 0.75713 0.79254 0.65048 0.0
C406 C 0.72047 0.58939 0.62943 0.0
O407 O 0.62085 0.58629 0.53217 0.0
O408 O 0.67482 0.65949 0.53935 0.0
O409 O 0.71379 0.63769 0.63055 0.0
O410 O 0.67597 0.55855 0.62017 0.0
O411 O 0.62441 0.67654 0.68854 0.0
H412 H 0.73973 0.7181 0.69038 0.0
H413 H 0.66849 0.7783 0.5569 0.0
O414 O 0.58243 0.5976 0.68327 0.0
O415 O 0.52643 0.63141 0.59232 0.0
O416 O 0.58119 0.70441 0.59553 0.0
C417 C 0.53101 0.68166 0.58797 0.0
H418 H 0.45991 0.43913 0.64649 0.0
H419 H 0.78372 0.81487 0.67834 0.0
Co420 Co 0.64174 0.47331 0.96453 0.0
C421 C 0.74852 0.46719 0.9024 0.0
Co422 Co 0.63744 0.43145 0.88623 0.0
C423 C 0.68964 0.49686 0.06272 0.0
C424 C 0.61402 0.54288 0.05962 0.0
N425 N 0.64846 0.50921 1.03001 0.0
N426 N 0.68341 0.52094 0.11155 0.0
C427 C 0.63546 0.55009 0.1102 0.0
H428 H 0.72211 0.46793 0.05142 0.0
H429 H 0.5746 0.5593 0.04624 0.0
C430 C 0.53034 0.44178 0.94507 0.0
N431 N 0.63118 0.39072 0.8247 0.0
C432 C 0.64915 0.39899 0.77306 0.0
C433 C 0.61157 0.34011 0.82545 0.0
N434 N 0.64181 0.35506 0.74165 0.0
C435 C 0.61952 0.31803 0.77556 0.0
C436 C 0.65753 0.36555 0.97028 0.0
O437 O 0.56066 0.46557 0.97968 0.0
O438 O 0.55589 0.42132 0.90314 0.0
O439 O 0.65296 0.36904 0.92081 0.0
O440 O 0.65345 0.40707 0.99969 0.0
O441 O 0.71756 0.44264 0.86877 0.0
H442 H 0.59185 0.32017 0.86013 0.0
H443 H 0.66564 0.43677 0.75871 0.0
O444 O 0.72461 0.48236 0.9475 0.0
O445 O 0.62917 0.53741 0.92881 0.0
O446 O 0.62225 0.494 0.85159 0.0
C447 C 0.62045 0.53718 0.87883 0.0
H448 H 0.61694 0.57407 0.1432 0.0
H449 H 0.60516 0.27834 0.7649 0.0
Co450 Co 0.44333 0.17306 0.97239 0.0
C451 C 0.5642 0.18675 0.99482 0.0
Co452 Co 0.48687 0.09791 0.97157 0.0
C453 C 0.41769 0.28025 0.95446 0.0
C454 C 0.34586 0.24061 0.99768 0.0
N455 N 0.40155 0.23415 0.97611 0.0
N456 N 0.37481 0.31596 0.96184 0.0
C457 C 0.32944 0.29076 0.9891 0.0
H458 H 0.46158 0.28751 0.93579 0.0
H459 H 0.31882 0.21081 1.01858 0.0
C460 C 0.36545 0.0919 0.94867 0.0
N461 N 0.52244 1.03354 0.96992 0.0
C462 C 0.50864 0.99305 0.93671 0.0
C463 C 0.55387 1.01248 1.00707 0.0
N464 N 0.52718 0.94675 0.95273 0.0
C465 C 0.55688 0.95899 0.99655 0.0
C466 C 0.43081 0.12016 0.07063 0.0
O467 O 0.37462 0.14057 0.95276 0.0
O468 O 0.40807 0.0622 0.95616 0.0
O469 O 0.46678 0.08934 0.04644 0.0
O470 O 0.41803 0.16105 0.04664 0.0
O471 O 0.5641 0.1366 0.98709 0.0
H472 H 0.56923 1.03371 0.042 0.0
H473 H 0.48216 0.9976 0.90306 0.0
O474 O 0.51508 0.209 0.99223 0.0
O475 O 0.46657 0.18196 0.89683 0.0
O476 O 0.50468 0.10429 0.89521 0.0
C477 C 0.49034 0.14384 0.86998 0.0
H478 H 0.28831 0.30782 1.00362 0.0
H479 H 0.57524 0.93094 1.02153 0.0
loop_
_geom_bond_atom_site_label_1
_geom_bond_atom_site_label_2
_geom_bond_distance
_geom_bond_site_symmetry_2
_ccdc_geom_bond_type
H0 C8 0.940 . S
H1 C11 0.940 . S
H2 C13 0.940 . S
H3 C14 0.940 . S
H4 C17 0.940 . S
H5 C19 0.940 . S
N6 N7 1.190 . S
N6 C10 1.477 . S
N7 N6 1.190 . S
N7 C16 1.477 . S
C8 H0 0.940 . S
C8 C9 1.390 . S
C8 C10 1.322 . S
C9 C8 1.390 . S
C9 C13 1.370 1_455 S
C10 N6 1.477 . S
C10 C8 1.322 . S
C10 C11 1.447 1_455 S
C11 H1 0.940 . S
C11 C10 1.447 1_655 S
C11 C12 1.373 . S
C12 C11 1.373 . S
C12 C13 1.417 . S
C13 H2 0.940 . S
C13 C9 1.370 1_655 S
C13 C12 1.417 . S
C14 H3 0.940 . S
C14 C15 1.390 . S
C14 C16 1.322 . S
C15 C14 1.390 . S
C15 C19 1.370 . S
C16 N7 1.477 . S
C16 C14 1.322 . S
C16 C17 1.447 . S
C17 H4 0.940 . S
C17 C16 1.447 . S
C17 C18 1.373 . S
C18 C17 1.373 . S
C18 C19 1.417 . S
C19 H5 0.940 . S
C19 C15 1.370 . S
C19 C18 1.417 . S
H20 C28 0.940 . S
H21 C31 0.940 . S
H22 C33 0.940 . S
H23 C34 0.940 . S
H24 C37 0.940 1_655 S
H25 C39 0.940 . S
N26 N27 1.190 . S
N26 C30 1.477 . S
N27 N26 1.190 . S
N27 C36 1.477 1_655 S
C28 H20 0.940 . S
C28 C29 1.390 . S
C28 C30 1.322 . S
C29 C28 1.390 . S
C29 C33 1.370 . S
C30 N26 1.477 . S
C30 C28 1.322 . S
C30 C31 1.447 . S
C31 H21 0.940 . S
C31 C30 1.447 . S
C31 C32 1.373 . S
C32 C31 1.373 . S
C32 C33 1.417 . S
C33 H22 0.940 . S
C33 C29 1.370 . S
C33 C32 1.417 . S
C34 H23 0.940 . S
C34 C35 1.390 . S
C34 C36 1.322 . S
C35 C34 1.390 . S
C35 C39 1.370 . S
C36 N27 1.477 1_455 S
C36 C34 1.322 . S
C36 C37 1.447 . S
C37 H24 0.940 1_455 S
C37 C36 1.447 . S
C37 C38 1.373 . S
C38 C37 1.373 . S
C38 C39 1.417 . S
C39 H25 0.940 . S
C39 C35 1.370 . S
C39 C38 1.417 . S
H40 C48 0.940 . S
H41 C51 0.940 . S
H42 C53 0.940 . S
H43 C54 0.940 . S
H44 C57 0.940 . S
H45 C59 0.940 . S
N46 N47 1.190 . S
N46 C50 1.477 . S
N47 N46 1.190 . S
N47 C56 1.477 1_545 S
C48 H40 0.940 . S
C48 C49 1.390 . S
C48 C50 1.322 . S
C49 C48 1.390 . S
C49 C53 1.370 . S
C50 N46 1.477 . S
C50 C48 1.322 . S
C50 C51 1.447 . S
C51 H41 0.940 . S
C51 C50 1.447 . S
C51 C52 1.373 . S
C52 C51 1.373 . S
C52 C53 1.417 . S
C53 H42 0.940 . S
C53 C49 1.370 . S
C53 C52 1.417 . S
C54 H43 0.940 . S
C54 C55 1.390 . S
C54 C56 1.322 . S
C55 C54 1.390 . S
C55 C59 1.370 . S
C56 N47 1.477 1_565 S
C56 C54 1.322 . S
C56 C57 1.447 . S
C57 H44 0.940 . S
C57 C56 1.447 . S
C57 C58 1.373 . S
C58 C57 1.373 . S
C58 C59 1.417 . S
C59 H45 0.940 . S
C59 C55 1.370 . S
C59 C58 1.417 . S
H60 C68 0.940 . S
H61 C71 0.940 . S
H62 C73 0.940 . S
H63 C74 0.940 . S
H64 C77 0.940 . S
H65 C79 0.940 . S
N66 N67 1.190 . S
N66 C70 1.477 . S
N67 N66 1.190 . S
N67 C76 1.477 . S
C68 H60 0.940 . S
C68 C69 1.390 . S
C68 C70 1.322 . S
C69 C68 1.390 . S
C69 C73 1.370 . S
C70 N66 1.477 . S
C70 C68 1.322 . S
C70 C71 1.447 . S
C71 H61 0.940 . S
C71 C70 1.447 . S
C71 C72 1.373 . S
C72 C71 1.373 . S
C72 C73 1.417 . S
C73 H62 0.940 . S
C73 C69 1.370 . S
C73 C72 1.417 . S
C74 H63 0.940 . S
C74 C75 1.390 . S
C74 C76 1.322 . S
C75 C74 1.390 . S
C75 C79 1.370 . S
C76 N67 1.477 . S
C76 C74 1.322 . S
C76 C77 1.447 . S
C77 H64 0.940 . S
C77 C76 1.447 . S
C77 C78 1.373 . S
C78 C77 1.373 . S
C78 C79 1.417 . S
C79 H65 0.940 . S
C79 C75 1.370 . S
C79 C78 1.417 . S
H80 C88 0.940 . S
H81 C91 0.940 . S
H82 C93 0.940 . S
H83 C94 0.940 . S
H84 C97 0.940 . S
H85 C99 0.940 . S
N86 N87 1.190 1_556 S
N86 C90 1.477 . S
N87 N86 1.190 1_554 S
N87 C96 1.477 . S
C88 H80 0.940 . S
C88 C89 1.390 . S
C88 C90 1.322 . S
C89 C88 1.390 . S
C89 C93 1.370 . S
C90 N86 1.477 . S
C90 C88 1.322 . S
C90 C91 1.447 . S
C91 H81 0.940 . S
C91 C90 1.447 . S
C91 C92 1.373 . S
C92 C91 1.373 . S
C92 C93 1.417 . S
C93 H82 0.940 . S
C93 C89 1.370 . S
C93 C92 1.417 . S
C94 H83 0.940 . S
C94 C95 1.390 . S
C94 C96 1.322 . S
C95 C94 1.390 . S
C95 C99 1.370 . S
C96 N87 1.477 . S
C96 C94 1.322 . S
C96 C97 1.447 . S
C97 H84 0.940 . S
C97 C96 1.447 . S
C97 C98 1.373 . S
C98 C97 1.373 . S
C98 C99 1.417 . S
C99 H85 0.940 . S
C99 C95 1.370 . S
C99 C98 1.417 . S
H100 C108 0.940 . S
H101 C111 0.940 . S
H102 C113 0.940 . S
H103 C114 0.940 . S
H104 C117 0.940 . S
H105 C119 0.940 . S
N106 N107 1.190 . S
N106 C110 1.477 . S
N107 N106 1.190 . S
N107 C116 1.477 . S
C108 H100 0.940 . S
C108 C109 1.390 . S
C108 C110 1.322 . S
C109 C108 1.390 . S
C109 C113 1.370 . S
C110 N106 1.477 . S
C110 C108 1.322 . S
C110 C111 1.447 . S
C111 H101 0.940 . S
C111 C110 1.447 . S
C111 C112 1.373 . S
C112 C111 1.373 . S
C112 C113 1.417 . S
C113 H102 0.940 . S
C113 C109 1.370 . S
C113 C112 1.417 . S
C114 H103 0.940 . S
C114 C115 1.390 . S
C114 C116 1.322 . S
C115 C114 1.390 . S
C115 C119 1.370 . S
C116 N107 1.477 . S
C116 C114 1.322 . S
C116 C117 1.447 . S
C117 H104 0.940 . S
C117 C116 1.447 . S
C117 C118 1.373 . S
C118 C117 1.373 . S
C118 C119 1.417 . S
C119 H105 0.940 . S
C119 C115 1.370 . S
C119 C118 1.417 . S
H120 C128 0.940 . S
H121 C131 0.940 . S
H122 C133 0.940 . S
H123 C134 0.940 . S
H124 C137 0.940 . S
H125 C139 0.940 . S
N126 N127 1.190 . S
N126 C130 1.477 . S
N127 N126 1.190 . S
N127 C136 1.477 . S
C128 H120 0.940 . S
C128 C129 1.390 . S
C128 C130 1.322 . S
C129 C128 1.390 . S
C129 C133 1.370 . S
C130 N126 1.477 . S
C130 C128 1.322 . S
C130 C131 1.447 . S
C131 H121 0.940 . S
C131 C130 1.447 . S
C131 C132 1.373 . S
C132 C131 1.373 . S
C132 C133 1.417 . S
C133 H122 0.940 . S
C133 C129 1.370 . S
C133 C132 1.417 . S
C134 H123 0.940 . S
C134 C135 1.390 . S
C134 C136 1.322 . S
C135 C134 1.390 . S
C135 C139 1.370 . S
C136 N127 1.477 . S
C136 C134 1.322 . S
C136 C137 1.447 . S
C137 H124 0.940 . S
C137 C136 1.447 . S
C137 C138 1.373 . S
C138 C137 1.373 . S
C138 C139 1.417 . S
C139 H125 0.940 . S
C139 C135 1.370 . S
C139 C138 1.417 . S
H140 C148 0.940 . S
H141 C151 0.940 . S
H142 C153 0.940 . S
H143 C154 0.940 . S
H144 C157 0.940 . S
H145 C159 0.940 . S
N146 N147 1.190 . S
N146 C150 1.477 . S
N147 N146 1.190 . S
N147 C156 1.477 . S
C148 H140 0.940 . S
C148 C149 1.390 . S
C148 C150 1.322 . S
C149 C148 1.390 . S
C149 C153 1.370 . S
C150 N146 1.477 . S
C150 C148 1.322 . S
C150 C151 1.447 . S
C151 H141 0.940 . S
C151 C150 1.447 . S
C151 C152 1.373 . S
C152 C151 1.373 . S
C152 C153 1.417 . S
C153 H142 0.940 . S
C153 C149 1.370 . S
C153 C152 1.417 . S
C154 H143 0.940 . S
C154 C155 1.390 . S
C154 C156 1.322 . S
C155 C154 1.390 . S
C155 C159 1.370 . S
C156 N147 1.477 . S
C156 C154 1.322 . S
C156 C157 1.447 . S
C157 H144 0.940 . S
C157 C156 1.447 . S
C157 C158 1.373 . S
C158 C157 1.373 . S
C158 C159 1.417 . S
C159 H145 0.940 . S
C159 C155 1.370 . S
C159 C158 1.417 . S
H160 C168 0.940 . S
H161 C171 0.940 . S
H162 C173 0.940 1_565 S
H163 C174 0.940 . S
H164 C177 0.940 . S
H165 C179 0.940 . S
N166 N167 1.190 . S
N166 C170 1.477 . S
N167 N166 1.190 . S
N167 C176 1.477 . S
C168 H160 0.940 . S
C168 C169 1.390 . S
C168 C170 1.322 . S
C169 C168 1.390 . S
C169 C173 1.370 . S
C170 N166 1.477 . S
C170 C168 1.322 . S
C170 C171 1.447 . S
C171 H161 0.940 . S
C171 C170 1.447 . S
C171 C172 1.373 . S
C172 C171 1.373 . S
C172 C173 1.417 . S
C173 H162 0.940 1_545 S
C173 C169 1.370 . S
C173 C172 1.417 . S
C174 H163 0.940 . S
C174 C175 1.390 . S
C174 C176 1.322 . S
C175 C174 1.390 . S
C175 C179 1.370 . S
C176 N167 1.477 . S
C176 C174 1.322 . S
C176 C177 1.447 . S
C177 H164 0.940 . S
C177 C176 1.447 . S
C177 C178 1.373 . S
C178 C177 1.373 . S
C178 C179 1.417 . S
C179 H165 0.940 . S
C179 C175 1.370 . S
C179 C178 1.417 . S
H180 C188 0.940 . S
H181 C191 0.940 . S
H182 C193 0.940 . S
H183 C194 0.940 . S
H184 C197 0.940 . S
H185 C199 0.940 . S
N186 N187 1.190 . S
N186 C190 1.477 . S
N187 N186 1.190 . S
N187 C196 1.477 . S
C188 H180 0.940 . S
C188 C189 1.390 . S
C188 C190 1.322 . S
C189 C188 1.390 . S
C189 C193 1.370 . S
C190 N186 1.477 . S
C190 C188 1.322 . S
C190 C191 1.447 . S
C191 H181 0.940 . S
C191 C190 1.447 . S
C191 C192 1.373 . S
C192 C191 1.373 . S
C192 C193 1.417 . S
C193 H182 0.940 . S
C193 C189 1.370 . S
C193 C192 1.417 . S
C194 H183 0.940 . S
C194 C195 1.390 . S
C194 C196 1.322 . S
C195 C194 1.390 . S
C195 C199 1.370 . S
C196 N187 1.477 . S
C196 C194 1.322 . S
C196 C197 1.447 . S
C197 H184 0.940 . S
C197 C196 1.447 . S
C197 C198 1.373 . S
C198 C197 1.373 . S
C198 C199 1.417 . S
C199 H185 0.940 . S
C199 C195 1.370 . S
C199 C198 1.417 . S
H200 C208 0.940 . S
H201 C211 0.940 . S
H202 C213 0.940 . S
H203 C214 0.940 . S
H204 C217 0.940 . S
H205 C219 0.940 . S
N206 N207 1.190 1_545 S
N206 C210 1.477 . S
N207 N206 1.190 1_565 S
N207 C216 1.477 . S
C208 H200 0.940 . S
C208 C209 1.390 . S
C208 C210 1.322 . S
C209 C208 1.390 . S
C209 C213 1.370 . S
C210 N206 1.477 . S
C210 C208 1.322 . S
C210 C211 1.447 . S
C211 H201 0.940 . S
C211 C210 1.447 . S
C211 C212 1.373 . S
C212 C211 1.373 . S
C212 C213 1.417 . S
C213 H202 0.940 . S
C213 C209 1.370 . S
C213 C212 1.417 . S
C214 H203 0.940 . S
C214 C215 1.390 . S
C214 C216 1.322 . S
C215 C214 1.390 . S
C215 C219 1.370 . S
C216 N207 1.477 . S
C216 C214 1.322 . S
C216 C217 1.447 . S
C217 H204 0.940 . S
C217 C216 1.447 . S
C217 C218 1.373 . S
C218 C217 1.373 . S
C218 C219 1.417 . S
C219 H205 0.940 . S
C219 C215 1.370 . S
C219 C218 1.417 . S
H220 C228 0.940 . S
H221 C231 0.940 . S
H222 C233 0.940 . S
H223 C234 0.940 . S
H224 C237 0.940 . S
H225 C239 0.940 . S
N226 N227 1.190 . S
N226 C230 1.477 . S
N227 N226 1.190 . S
N227 C236 1.477 1_556 S
C228 H220 0.940 . S
C228 C229 1.390 . S
C228 C230 1.322 . S
C229 C228 1.390 . S
C229 C233 1.370 . S
C230 N226 1.477 . S
C230 C228 1.322 . S
C230 C231 1.447 . S
C231 H221 0.940 . S
C231 C230 1.447 . S
C231 C232 1.373 . S
C232 C231 1.373 . S
C232 C233 1.417 . S
C233 H222 0.940 . S
C233 C229 1.370 . S
C233 C232 1.417 . S
C234 H223 0.940 . S
C234 C235 1.390 . S
C234 C236 1.322 . S
C235 C234 1.390 . S
C235 C239 1.370 . S
C236 N227 1.477 1_554 S
C236 C234 1.322 . S
C236 C237 1.447 . S
C237 H224 0.940 . S
C237 C236 1.447 . S
C237 C238 1.373 . S
C238 C237 1.373 . S
C238 C239 1.417 . S
C239 H225 0.940 . S
C239 C235 1.370 . S
C239 C238 1.417 . S
Co240 N245 2.057 1_445 S
Co240 O257 2.016 1_545 S
Co240 O260 2.062 . S
Co240 O264 2.117 . S
Co240 O265 2.020 1_455 S
C241 O261 1.259 . S
C241 O264 1.258 . S
Co242 N251 2.057 . S
Co242 O258 2.117 . S
Co242 O259 2.020 . S
Co242 O261 2.021 . S
Co242 O266 2.062 . S
C243 N245 1.316 . S
C243 N246 1.347 . S
C243 H248 0.931 1_655 S
C244 N245 1.375 . S
C244 C247 1.350 . S
C244 H249 0.930 . S
N245 Co240 2.057 1_665 S
N245 C243 1.316 . S
N245 C244 1.375 . S
N246 C243 1.347 . S
N246 C247 1.373 . S
C247 C244 1.350 . S
C247 N246 1.373 . S
C247 H268 0.931 . S
H248 C243 0.931 1_455 S
H249 C244 0.930 . S
C250 O257 1.247 1_546 S
C250 O258 1.258 1_556 S
N251 Co242 2.057 . S
N251 C252 1.316 . S
N251 C253 1.375 1_554 S
C252 N251 1.316 . S
C252 N254 1.347 . S
C252 H263 0.931 . S
C253 N251 1.375 1_556 S
C253 C255 1.350 . S
C253 H262 0.930 . S
N254 C252 1.347 . S
N254 C255 1.373 1_554 S
C255 C253 1.350 . S
C255 N254 1.373 1_556 S
C255 H269 0.931 . S
C256 O259 1.256 . S
C256 O260 1.255 . S
O257 Co240 2.016 1_565 S
O257 C250 1.247 1_564 S
O258 Co242 2.117 . S
O258 C250 1.258 1_554 S
O259 Co242 2.020 . S
O259 C256 1.256 . S
O260 Co240 2.062 . S
O260 C256 1.255 . S
O261 C241 1.259 . S
O261 Co242 2.021 . S
H262 C253 0.930 . S
H263 C252 0.931 . S
O264 Co240 2.117 . S
O264 C241 1.258 . S
O265 Co240 2.020 1_655 S
O265 C267 1.256 . S
O266 Co242 2.062 . S
O266 C267 1.255 1_455 S
C267 O265 1.256 . S
C267 O266 1.255 1_655 S
H268 C247 0.931 . S
H269 C255 0.931 . S
Co270 N275 2.057 . S
Co270 O287 2.021 . S
Co270 O290 2.062 . S
Co270 O294 2.117 . S
Co270 O295 2.020 . S
C271 O291 1.259 . S
C271 O294 1.258 . S
Co272 N281 2.057 1_554 S
Co272 O288 2.117 . S
Co272 O289 2.020 . S
Co272 O291 2.021 . S
Co272 O296 2.062 . S
C273 N275 1.316 . S
C273 N276 1.347 . S
C273 H278 0.931 . S
C274 N275 1.375 . S
C274 C277 1.350 1_655 S
C274 H279 0.930 . S
N275 Co270 2.057 . S
N275 C273 1.316 . S
N275 C274 1.375 . S
N276 C273 1.347 . S
N276 C277 1.373 1_655 S
C277 C274 1.350 1_455 S
C277 N276 1.373 1_455 S
C277 H298 0.931 . S
H278 C273 0.931 . S
H279 C274 0.930 . S
C280 O287 1.259 . S
C280 O288 1.258 . S
N281 Co272 2.057 1_556 S
N281 C282 1.316 . S
N281 C283 1.375 . S
C282 N281 1.316 . S
C282 N284 1.347 . S
C282 H293 0.931 . S
C283 N281 1.375 . S
C283 C285 1.350 . S
C283 H292 0.930 . S
N284 C282 1.347 . S
N284 C285 1.373 . S
C285 C283 1.350 . S
C285 N284 1.373 . S
C285 H299 0.931 . S
C286 O289 1.256 1_455 S
C286 O290 1.255 1_455 S
O287 Co270 2.021 . S
O287 C280 1.259 . S
O288 Co272 2.117 . S
O288 C280 1.258 . S
O289 Co272 2.020 . S
O289 C286 1.256 1_655 S
O290 Co270 2.062 . S
O290 C286 1.255 1_655 S
O291 C271 1.259 . S
O291 Co272 2.021 . S
H292 C283 0.930 . S
H293 C282 0.931 . S
O294 Co270 2.117 . S
O294 C271 1.258 . S
O295 Co270 2.020 . S
O295 C297 1.256 . S
O296 Co272 2.062 . S
O296 C297 1.255 . S
C297 O295 1.256 . S
C297 O296 1.255 . S
H298 C277 0.931 . S
H299 C285 0.931 . S
Co300 N305 2.057 . S
Co300 O317 2.021 . S
Co300 O320 2.062 . S
Co300 O324 2.117 . S
Co300 O325 2.020 . S
C301 O321 1.259 . S
C301 O324 1.258 . S
Co302 N311 2.057 . S
Co302 O318 2.117 . S
Co302 O319 2.020 . S
Co302 O321 2.021 . S
Co302 O326 2.062 . S
C303 N305 1.316 . S
C303 N306 1.347 1_565 S
C303 H308 0.931 . S
C304 N305 1.375 1_545 S
C304 C307 1.350 . S
C304 H309 0.930 . S
N305 Co300 2.057 . S
N305 C303 1.316 . S
N305 C304 1.375 1_565 S
N306 C303 1.347 1_545 S
N306 C307 1.373 . S
C307 C304 1.350 . S
C307 N306 1.373 . S
C307 H328 0.931 . S
H308 C303 0.931 . S
H309 C304 0.930 . S
C310 O317 1.259 1_655 S
C310 O318 1.258 1_655 S
N311 Co302 2.057 . S
N311 C312 1.316 . S
N311 C313 1.375 1_455 S
C312 N311 1.316 . S
C312 N314 1.347 . S
C312 H323 0.931 . S
C313 N311 1.375 1_655 S
C313 C315 1.350 . S
C313 H322 0.930 . S
N314 C312 1.347 . S
N314 C315 1.373 1_455 S
C315 C313 1.350 . S
C315 N314 1.373 1_655 S
C315 H329 0.931 . S
C316 O319 1.256 . S
C316 O320 1.255 . S
O317 Co300 2.021 . S
O317 C310 1.259 1_455 S
O318 Co302 2.117 . S
O318 C310 1.258 1_455 S
O319 Co302 2.020 . S
O319 C316 1.256 . S
O320 Co300 2.062 . S
O320 C316 1.255 . S
O321 C301 1.259 . S
O321 Co302 2.021 . S
H322 C313 0.930 . S
H323 C312 0.931 . S
O324 Co300 2.117 . S
O324 C301 1.258 . S
O325 Co300 2.020 . S
O325 C327 1.256 . S
O326 Co302 2.062 . S
O326 C327 1.255 . S
C327 O325 1.256 . S
C327 O326 1.255 . S
H328 C307 0.931 . S
H329 C315 0.931 . S
Co330 N335 2.057 . S
Co330 O347 2.021 . S
Co330 O350 2.062 . S
Co330 O354 2.117 1_655 S
Co330 O355 2.020 . S
C331 O351 1.259 . S
C331 O354 1.258 . S
Co332 N341 2.057 . S
Co332 O348 2.117 . S
Co332 O349 2.020 . S
Co332 O351 2.021 1_655 S
Co332 O356 2.062 1_655 S
C333 N335 1.316 . S
C333 N336 1.347 . S
C333 H338 0.931 . S
C334 N335 1.375 . S
C334 C337 1.350 . S
C334 H339 0.930 . S
N335 Co330 2.057 . S
N335 C333 1.316 . S
N335 C334 1.375 . S
N336 C333 1.347 . S
N336 C337 1.373 . S
C337 C334 1.350 . S
C337 N336 1.373 . S
C337 H358 0.931 . S
H338 C333 0.931 . S
H339 C334 0.930 . S
C340 O347 1.259 . S
C340 O348 1.258 . S
N341 Co332 2.057 . S
N341 C342 1.316 1_655 S
N341 C343 1.375 . S
C342 N341 1.316 1_455 S
C342 N344 1.347 . S
C342 H353 0.931 . S
C343 N341 1.375 . S
C343 C345 1.350 . S
C343 H352 0.930 . S
N344 C342 1.347 . S
N344 C345 1.373 1_455 S
C345 C343 1.350 . S
C345 N344 1.373 1_655 S
C345 H359 0.931 . S
C346 O349 1.256 . S
C346 O350 1.255 . S
O347 Co330 2.021 . S
O347 C340 1.259 . S
O348 Co332 2.117 . S
O348 C340 1.258 . S
O349 Co332 2.020 . S
O349 C346 1.256 . S
O350 Co330 2.062 . S
O350 C346 1.255 . S
O351 C331 1.259 . S
O351 Co332 2.021 1_455 S
H352 C343 0.930 . S
H353 C342 0.931 . S
O354 Co330 2.117 1_455 S
O354 C331 1.258 . S
O355 Co330 2.020 . S
O355 C357 1.256 . S
O356 Co332 2.062 1_455 S
O356 C357 1.255 1_455 S
C357 O355 1.256 . S
C357 O356 1.255 1_655 S
H358 C337 0.931 . S
H359 C345 0.931 . S
Co360 N365 2.057 . S
Co360 O377 2.021 . S
Co360 O380 2.062 . S
Co360 O384 2.117 . S
Co360 O385 2.020 . S
C361 O381 1.259 . S
C361 O384 1.258 1_545 S
Co362 N371 2.057 . S
Co362 O378 2.117 . S
Co362 O379 2.020 . S
Co362 O381 2.021 1_565 S
Co362 O386 2.062 . S
C363 N365 1.316 . S
C363 N366 1.347 . S
C363 H368 0.931 . S
C364 N365 1.375 . S
C364 C367 1.350 . S
C364 H369 0.930 . S
N365 Co360 2.057 . S
N365 C363 1.316 . S
N365 C364 1.375 . S
N366 C363 1.347 . S
N366 C367 1.373 . S
C367 C364 1.350 . S
C367 N366 1.373 . S
C367 H388 0.931 . S
H368 C363 0.931 . S
H369 C364 0.930 . S
C370 O377 1.259 . S
C370 O378 1.258 . S
N371 Co362 2.057 . S
N371 C372 1.316 1_565 S
N371 C373 1.375 . S
C372 N371 1.316 1_545 S
C372 N374 1.347 . S
C372 H383 0.931 . S
C373 N371 1.375 . S
C373 C375 1.350 . S
C373 H382 0.930 . S
N374 C372 1.347 . S
N374 C375 1.373 1_545 S
C375 C373 1.350 . S
C375 N374 1.373 1_565 S
C375 H389 0.931 . S
C376 O379 1.256 . S
C376 O380 1.255 . S
O377 Co360 2.021 . S
O377 C370 1.259 . S
O378 Co362 2.117 . S
O378 C370 1.258 . S
O379 Co362 2.020 . S
O379 C376 1.256 . S
O380 Co360 2.062 . S
O380 C376 1.255 . S
O381 C361 1.259 . S
O381 Co362 2.021 1_545 S
H382 C373 0.930 . S
H383 C372 0.931 . S
O384 Co360 2.117 . S
O384 C361 1.258 1_565 S
O385 Co360 2.020 . S
O385 C387 1.256 . S
O386 Co362 2.062 . S
O386 C387 1.255 . S
C387 O385 1.256 . S
C387 O386 1.255 . S
H388 C367 0.931 . S
H389 C375 0.931 . S
Co390 N395 2.057 . S
Co390 O407 2.021 . S
Co390 O410 2.062 . S
Co390 O414 2.117 . S
Co390 O415 2.020 . S
C391 O411 1.259 . S
C391 O414 1.258 . S
Co392 N401 2.057 . S
Co392 O408 2.117 . S
Co392 O409 2.020 . S
Co392 O411 2.021 . S
Co392 O416 2.062 . S
C393 N395 1.316 . S
C393 N396 1.347 . S
C393 H398 0.931 . S
C394 N395 1.375 . S
C394 C397 1.350 . S
C394 H399 0.930 . S
N395 Co390 2.057 . S
N395 C393 1.316 . S
N395 C394 1.375 . S
N396 C393 1.347 . S
N396 C397 1.373 . S
C397 C394 1.350 . S
C397 N396 1.373 . S
C397 H418 0.931 . S
H398 C393 0.931 . S
H399 C394 0.930 . S
C400 O407 1.259 . S
C400 O408 1.258 . S
N401 Co392 2.057 . S
N401 C402 1.316 . S
N401 C403 1.375 . S
C402 N401 1.316 . S
C402 N404 1.347 . S
C402 H413 0.931 . S
C403 N401 1.375 . S
C403 C405 1.350 . S
C403 H412 0.930 . S
N404 C402 1.347 . S
N404 C405 1.373 . S
C405 C403 1.350 . S
C405 N404 1.373 . S
C405 H419 0.931 . S
C406 O409 1.256 . S
C406 O410 1.255 . S
O407 Co390 2.021 . S
O407 C400 1.259 . S
O408 Co392 2.117 . S
O408 C400 1.258 . S
O409 Co392 2.020 . S
O409 C406 1.256 . S
O410 Co390 2.062 . S
O410 C406 1.255 . S
O411 C391 1.259 . S
O411 Co392 2.021 . S
H412 C403 0.930 . S
H413 C402 0.931 . S
O414 Co390 2.117 . S
O414 C391 1.258 . S
O415 Co390 2.020 . S
O415 C417 1.256 . S
O416 Co392 2.062 . S
O416 C417 1.255 . S
C417 O415 1.256 . S
C417 O416 1.255 . S
H418 C397 0.931 . S
H419 C405 0.931 . S
Co420 N425 2.057 1_556 S
Co420 O437 2.021 . S
Co420 O440 2.062 . S
Co420 O444 2.117 . S
Co420 O445 2.020 . S
C421 O441 1.259 . S
C421 O444 1.258 . S
Co422 N431 2.057 . S
Co422 O438 2.117 . S
Co422 O439 2.020 . S
Co422 O441 2.021 . S
Co422 O446 2.062 . S
C423 N425 1.316 . S
C423 N426 1.347 . S
C423 H428 0.931 . S
C424 N425 1.375 . S
C424 C427 1.350 . S
C424 H429 0.930 1_554 S
N425 Co420 2.057 1_554 S
N425 C423 1.316 . S
N425 C424 1.375 . S
N426 C423 1.347 . S
N426 C427 1.373 . S
C427 C424 1.350 . S
C427 N426 1.373 . S
C427 H448 0.931 . S
H428 C423 0.931 . S
H429 C424 0.930 1_556 S
C430 O437 1.259 . S
C430 O438 1.258 . S
N431 Co422 2.057 . S
N431 C432 1.316 . S
N431 C433 1.375 . S
C432 N431 1.316 . S
C432 N434 1.347 . S
C432 H443 0.931 . S
C433 N431 1.375 . S
C433 C435 1.350 . S
C433 H442 0.930 . S
N434 C432 1.347 . S
N434 C435 1.373 . S
C435 C433 1.350 . S
C435 N434 1.373 . S
C435 H449 0.931 . S
C436 O439 1.256 . S
C436 O440 1.255 . S
O437 Co420 2.021 . S
O437 C430 1.259 . S
O438 Co422 2.117 . S
O438 C430 1.258 . S
O439 Co422 2.020 . S
O439 C436 1.256 . S
O440 Co420 2.062 . S
O440 C436 1.255 . S
O441 C421 1.259 . S
O441 Co422 2.021 . S
H442 C433 0.930 . S
H443 C432 0.931 . S
O444 Co420 2.117 . S
O444 C421 1.258 . S
O445 Co420 2.020 . S
O445 C447 1.256 . S
O446 Co422 2.062 . S
O446 C447 1.255 . S
C447 O445 1.256 . S
C447 O446 1.255 . S
H448 C427 0.931 . S
H449 C435 0.931 . S
Co450 N455 2.057 . S
Co450 O467 2.021 . S
Co450 O470 2.062 . S
Co450 O474 2.117 . S
Co450 O475 2.020 . S
C451 O471 1.259 . S
C451 O474 1.258 . S
Co452 N461 2.057 1_545 S
Co452 O468 2.117 . S
Co452 O469 2.020 . S
Co452 O471 2.021 . S
Co452 O476 2.062 . S
C453 N455 1.316 . S
C453 N456 1.347 . S
C453 H458 0.931 . S
C454 N455 1.375 . S
C454 C457 1.350 . S
C454 H459 0.930 . S
N455 Co450 2.057 . S
N455 C453 1.316 . S
N455 C454 1.375 . S
N456 C453 1.347 . S
N456 C457 1.373 . S
C457 C454 1.350 . S
C457 N456 1.373 . S
C457 H478 0.931 1_556 S
H458 C453 0.931 . S
H459 C454 0.930 . S
C460 O467 1.259 . S
C460 O468 1.258 . S
N461 Co452 2.057 1_565 S
N461 C462 1.316 . S
N461 C463 1.375 . S
C462 N461 1.316 . S
C462 N464 1.347 . S
C462 H473 0.931 . S
C463 N461 1.375 . S
C463 C465 1.350 . S
C463 H472 0.930 . S
N464 C462 1.347 . S
N464 C465 1.373 . S
C465 C463 1.350 . S
C465 N464 1.373 . S
C465 H479 0.931 . S
C466 O469 1.256 1_554 S
C466 O470 1.255 1_554 S
O467 Co450 2.021 . S
O467 C460 1.259 . S
O468 Co452 2.117 . S
O468 C460 1.258 . S
O469 Co452 2.020 . S
O469 C466 1.256 1_556 S
O470 Co450 2.062 . S
O470 C466 1.255 1_556 S
O471 C451 1.259 . S
O471 Co452 2.021 . S
H472 C463 0.930 . S
H473 C462 0.931 . S
O474 Co450 2.117 . S
O474 C451 1.258 . S
O475 Co450 2.020 . S
O475 C477 1.256 . S
O476 Co452 2.062 . S
O476 C477 1.255 . S
C477 O475 1.256 . S
C477 O476 1.255 . S
H478 C457 0.931 1_554 S
H479 C465 0.931 . S
C18 C327 1.895 1_545 S
N344 C9 1.973 . S
N246 C38 2.429 1_655 S
C29 C271 1.307 . S
C52 C466 2.482 . S
C69 N426 1.881 . S
N374 C55 1.807 1_545 S
C78 C400 2.418 . S
C286 C98 2.358 . S
C331 C115 2.400 . S
C135 C310 2.231 . S
C112 C417 2.366 . S
C447 C158 1.895 . S
N464 C149 1.974 . S
C178 N396 2.429 . S
C361 C169 1.307 . S
C192 C346 2.481 . S
C215 N306 1.881 1_565 S
N284 C195 1.807 . S
C212 C250 2.418 . S
C376 C132 2.358 . S
C451 C229 2.401 . S
C89 C430 2.230 . S
C238 C267 2.366 . S
C241 C15 3.366 . S
C12 N276 0.912 . S
N314 C35 1.508 . S
C357 C32 3.678 . S
C49 C256 2.807 . S
C72 C297 2.038 . S
C301 C58 1.782 . S
C75 C340 2.925 . S
C95 N254 2.044 . S
C316 C118 3.066 . S
C138 N336 2.124 . S
C109 C370 2.817 . S
C391 C155 3.366 . S
C152 N366 0.911 . S
C175 N434 1.507 . S
C172 C477 3.678 . S
C189 C406 2.807 . S
C387 C218 2.038 . S
C198 C421 1.782 . S
C460 C209 2.925 . S
N404 C129 2.044 . S
C436 C232 3.066 . S
N456 C92 2.124 . S
C235 C280 2.817 . S
