# Generated by pormake.
# Topology eea, (3,6)-cn, num edge types: 1
# Building blocks:
#     Node 0, Type 0, BuildingBlock: QEWDON_clean_linker_0, # of connection points: 3
#     Node 1, Type 0, BuildingBlock: QEWDON_clean_linker_0, # of connection points: 3
#     Node 2, Type 0, BuildingBlock: QEWDON_clean_linker_0, # of connection points: 3
#     Node 3, Type 0, BuildingBlock: QEWDON_clean_linker_0, # of connection points: 3
#     Node 4, Type 0, BuildingBlock: QEWDON_clean_linker_0, # of connection points: 3
#     Node 5, Type 0, BuildingBlock: QEWDON_clean_linker_0, # of connection points: 3
#     Node 6, Type 0, BuildingBlock: QEWDON_clean_linker_0, # of connection points: 3
#     Node 7, Type 0, BuildingBlock: QEWDON_clean_linker_0, # of connection points: 3
#     Node 8, Type 0, BuildingBlock: QEWDON_clean_linker_0, # of connection points: 3
#     Node 9, Type 0, BuildingBlock: QEWDON_clean_linker_0, # of connection points: 3
#     Node 10, Type 0, BuildingBlock: QEWDON_clean_linker_0, # of connection points: 3
#     Node 11, Type 0, BuildingBlock: QEWDON_clean_linker_0, # of connection points: 3
#     Node 12, Type 0, BuildingBlock: QEWDON_clean_linker_0, # of connection points: 3
#     Node 13, Type 0, BuildingBlock: QEWDON_clean_linker_0, # of connection points: 3
#     Node 14, Type 0, BuildingBlock: QEWDON_clean_linker_0, # of connection points: 3
#     Node 15, Type 0, BuildingBlock: QEWDON_clean_linker_0, # of connection points: 3
#     Node 16, Type 0, BuildingBlock: QEWDON_clean_linker_0, # of connection points: 3
#     Node 17, Type 0, BuildingBlock: QEWDON_clean_linker_0, # of connection points: 3
#     Node 18, Type 1, BuildingBlock: CIFDUS_clean_sbu_1, # of connection points: 6
#     Node 19, Type 1, BuildingBlock: CIFDUS_clean_sbu_1, # of connection points: 6
#     Node 20, Type 1, BuildingBlock: CIFDUS_clean_sbu_1, # of connection points: 6
#     Node 21, Type 1, BuildingBlock: CIFDUS_clean_sbu_1, # of connection points: 6
#     Node 22, Type 1, BuildingBlock: CIFDUS_clean_sbu_1, # of connection points: 6
#     Node 23, Type 1, BuildingBlock: CIFDUS_clean_sbu_1, # of connection points: 6
#     Node 24, Type 1, BuildingBlock: CIFDUS_clean_sbu_1, # of connection points: 6
#     Node 25, Type 1, BuildingBlock: CIFDUS_clean_sbu_1, # of connection points: 6
#     Node 26, Type 1, BuildingBlock: CIFDUS_clean_sbu_1, # of connection points: 6
#     Edge 27, Type (0, 1), None
#     Edge 28, Type (0, 1), None
#     Edge 29, Type (0, 1), None
#     Edge 30, Type (0, 1), None
#     Edge 31, Type (0, 1), None
#     Edge 32, Type (0, 1), None
#     Edge 33, Type (0, 1), None
#     Edge 34, Type (0, 1), None
#     Edge 35, Type (0, 1), None
#     Edge 36, Type (0, 1), None
#     Edge 37, Type (0, 1), None
#     Edge 38, Type (0, 1), None
#     Edge 39, Type (0, 1), None
#     Edge 40, Type (0, 1), None
#     Edge 41, Type (0, 1), None
#     Edge 42, Type (0, 1), None
#     Edge 43, Type (0, 1), None
#     Edge 44, Type (0, 1), None
#     Edge 45, Type (0, 1), None
#     Edge 46, Type (0, 1), None
#     Edge 47, Type (0, 1), None
#     Edge 48, Type (0, 1), None
#     Edge 49, Type (0, 1), None
#     Edge 50, Type (0, 1), None
#     Edge 51, Type (0, 1), None
#     Edge 52, Type (0, 1), None
#     Edge 53, Type (0, 1), None
#     Edge 54, Type (0, 1), None
#     Edge 55, Type (0, 1), None
#     Edge 56, Type (0, 1), None
#     Edge 57, Type (0, 1), None
#     Edge 58, Type (0, 1), None
#     Edge 59, Type (0, 1), None
#     Edge 60, Type (0, 1), None
#     Edge 61, Type (0, 1), None
#     Edge 62, Type (0, 1), None
#     Edge 63, Type (0, 1), None
#     Edge 64, Type (0, 1), None
#     Edge 65, Type (0, 1), None
#     Edge 66, Type (0, 1), None
#     Edge 67, Type (0, 1), None
#     Edge 68, Type (0, 1), None
#     Edge 69, Type (0, 1), None
#     Edge 70, Type (0, 1), None
#     Edge 71, Type (0, 1), None
#     Edge 72, Type (0, 1), None
#     Edge 73, Type (0, 1), None
#     Edge 74, Type (0, 1), None
#     Edge 75, Type (0, 1), None
#     Edge 76, Type (0, 1), None
#     Edge 77, Type (0, 1), None
#     Edge 78, Type (0, 1), None
#     Edge 79, Type (0, 1), None
#     Edge 80, Type (0, 1), None
# Relax obj value: 0.104
# Max RMSD: 0.121
# Mean RMSD: 0.104
data_MOF--net-eea--node1-CIFDUS_clean_sbu_1--node2-QEWDON_clean_linker_0--edge1-none
_symmetry_space_group_name_H-M    P1
_symmetry_Int_Tables_number       1
_symmetry_cell_setting            triclinic
loop_
_symmetry_equiv_pos_as_xyz
'x, y, z'
_cell_length_a     29.035861
_cell_length_b     28.404839
_cell_length_c     17.361779
_cell_angle_alpha  90.909615
_cell_angle_beta   90.955976
_cell_angle_gamma 120.18127
loop_
_atom_site_label
_atom_site_type_symbol
_atom_site_fract_x
_atom_site_fract_y
_atom_site_fract_z
_atom_type_partial_charge
H0 H 0.22906 0.15737 0.43277 0.0
C1 C 0.23067 0.12332 0.40644 0.0
C2 C 0.2674 0.10975 0.4352 0.0
C3 C 0.19812 0.09604 0.34172 0.0
H4 H 0.29663 0.05412 0.4273 0.0
C5 C 0.26735 0.06398 0.40525 0.0
C6 C 0.23597 0.03621 0.33935 0.0
C7 C 0.20111 0.05234 0.30717 0.0
C8 C 0.16864 0.12084 0.30663 0.0
H9 H 0.18022 0.03438 0.2528 0.0
C10 C 0.19628 0.17748 0.29679 0.0
C11 C 0.16949 0.20567 0.27965 0.0
C12 C 0.11328 0.09147 0.29366 0.0
H13 H 0.09096 0.04787 0.30144 0.0
C14 C 0.08624 0.11909 0.27371 0.0
H15 H 0.23927 0.20022 0.30552 0.0
C16 C 0.11402 0.17602 0.26772 0.0
H17 H 0.09251 0.19628 0.25106 0.0
H18 H 0.04352 0.09637 0.26346 0.0
H19 H 0.8848 0.11038 0.4564 0.0
C20 C 0.9111 0.1403 0.41622 0.0
C21 C 0.92913 0.19546 0.4305 0.0
C22 C 0.92888 0.12387 0.35147 0.0
H23 H 0.97001 0.27479 0.38599 0.0
C24 C 0.9603 0.23297 0.37627 0.0
C25 C 0.98603 0.22028 0.31901 0.0
C26 C 0.96978 0.16445 0.30598 0.0
C27 C 0.90361 0.06416 0.33449 0.0
H28 H 0.98731 0.15269 0.26044 0.0
C29 C 0.84858 0.03358 0.31606 0.0
C30 C 0.82113 0.97595 0.30986 0.0
C31 C 0.93151 0.03638 0.34655 0.0
H32 H 0.97348 0.05866 0.36278 0.0
C33 C 0.90466 0.97924 0.34112 0.0
H34 H 0.8269 0.05505 0.30754 0.0
C35 C 0.84977 0.9491 0.32347 0.0
H36 H 0.8302 0.90517 0.31888 0.0
H37 H 0.92647 0.95814 0.35121 0.0
H38 H 0.94289 0.78925 0.40901 0.0
C39 C 0.90583 0.78295 0.38354 0.0
C40 C 0.85861 0.74974 0.42147 0.0
C41 C 0.90665 0.80862 0.31449 0.0
H42 H 0.7747 0.71903 0.42151 0.0
C43 C 0.81124 0.74467 0.3919 0.0
C44 C 0.81046 0.77188 0.3244 0.0
C45 C 0.85855 0.80426 0.28603 0.0
C46 C 0.95894 0.83951 0.27534 0.0
H47 H 0.85813 0.82426 0.23365 0.0
C48 C 0.99599 0.82117 0.28086 0.0
C49 C 0.0501 0.85513 0.2641 0.0
C50 C 0.9753 0.89002 0.24197 0.0
H51 H 0.9482 0.90561 0.23672 0.0
C52 C 0.02807 0.92235 0.21895 0.0
H53 H 0.98329 0.78139 0.30388 0.0
C54 C 0.06559 0.90577 0.23162 0.0
H55 H 0.1068 0.93306 0.2178 0.0
H56 H 0.04058 0.96167 0.1945 0.0
H57 H 0.15023 0.24048 0.54638 0.0
C58 C 0.12341 0.24594 0.58313 0.0
C59 C 0.10262 0.27869 0.55832 0.0
C60 C 0.10786 0.219 0.65491 0.0
H61 H 0.05866 0.31665 0.5929 0.0
C62 C 0.06983 0.28685 0.60803 0.0
C63 C 0.04607 0.25419 0.67089 0.0
C64 C 0.06592 0.22053 0.69555 0.0
C65 C 0.13432 0.18866 0.68625 0.0
H66 H 0.05039 0.19801 0.74754 0.0
C67 C 0.18864 0.20582 0.67259 0.0
C68 C 0.21319 0.17693 0.70194 0.0
C69 C 0.10556 0.14233 0.73107 0.0
H70 H 0.06404 0.12692 0.74272 0.0
C71 C 0.12956 0.11418 0.76077 0.0
H72 H 0.21176 0.24139 0.63852 0.0
C73 C 0.18269 0.13103 0.74621 0.0
H74 H 0.19964 0.10755 0.76886 0.0
H75 H 0.1065 0.07849 0.79467 0.0
H76 H 0.78316 0.916 0.54062 0.0
C77 C 0.79111 0.8884 0.57297 0.0
C78 C 0.77015 0.83438 0.54661 0.0
C79 C 0.8236 0.90681 0.64072 0.0
H80 H 0.77272 0.76033 0.56266 0.0
C81 C 0.78618 0.80139 0.58423 0.0
C82 C 0.80835 0.81453 0.6579 0.0
C83 C 0.82858 0.86841 0.68634 0.0
C84 C 0.85283 0.96593 0.66176 0.0
H85 H 0.8467 0.87999 0.74366 0.0
C86 C 0.82586 0.99518 0.67157 0.0
C87 C 0.85433 0.05231 0.68499 0.0
C88 C 0.90873 0.99437 0.66532 0.0
H89 H 0.93048 0.973 0.65698 0.0
C90 C 0.93707 0.05093 0.67687 0.0
H91 H 0.78266 0.9733 0.66902 0.0
C92 C 0.91016 0.07978 0.68668 0.0
H93 H 0.9331 0.12304 0.69827 0.0
H94 H 0.98014 0.07249 0.67838 0.0
H95 H 0.0837 0.8691 0.56335 0.0
C96 C 0.12027 0.90189 0.58931 0.0
C97 C 0.16826 0.91718 0.55346 0.0
C98 C 0.11879 0.92604 0.6596 0.0
H99 H 0.25255 0.97424 0.55587 0.0
C100 C 0.21488 0.96299 0.58225 0.0
C101 C 0.21447 0.98955 0.65127 0.0
C102 C 0.16629 0.97058 0.6902 0.0
C103 C 0.06798 0.90021 0.70209 0.0
H104 H 0.16678 0.98729 0.74698 0.0
C105 C 0.03393 0.84324 0.69567 0.0
C106 C 0.9809 0.81839 0.7186 0.0
C107 C 0.0505 0.93141 0.74207 0.0
H108 H 0.07565 0.97522 0.74829 0.0
C109 C 0.99899 0.90632 0.771 0.0
H110 H 0.04766 0.81845 0.66742 0.0
C111 C 0.96391 0.85045 0.75781 0.0
H112 H 0.92319 0.83277 0.77629 0.0
H113 H 0.98536 0.93071 0.80056 0.0
H114 H 0.89594 0.49088 0.76593 0.0
C115 C 0.89752 0.4568 0.73962 0.0
C116 C 0.93422 0.4432 0.76842 0.0
C117 C 0.86494 0.4295 0.67494 0.0
H118 H 0.96338 0.38751 0.76056 0.0
C119 C 0.93412 0.39739 0.7385 0.0
C120 C 0.90272 0.36962 0.67263 0.0
C121 C 0.86788 0.38576 0.64044 0.0
C122 C 0.83545 0.45429 0.63985 0.0
H123 H 0.84695 0.36777 0.58609 0.0
C124 C 0.86306 0.51093 0.63 0.0
C125 C 0.83625 0.5391 0.61282 0.0
C126 C 0.78009 0.4249 0.62687 0.0
H127 H 0.75778 0.3813 0.63465 0.0
C128 C 0.75302 0.45249 0.60689 0.0
H129 H 0.90605 0.53369 0.63874 0.0
C130 C 0.78078 0.50942 0.60088 0.0
H131 H 0.75926 0.52966 0.5842 0.0
H132 H 0.71031 0.42975 0.59664 0.0
H133 H 0.5515 0.44373 0.78966 0.0
C134 C 0.57778 0.47364 0.74945 0.0
C135 C 0.59581 0.5288 0.76369 0.0
C136 C 0.59555 0.45718 0.68471 0.0
H137 H 0.63667 0.6081 0.71911 0.0
C138 C 0.62697 0.56629 0.70943 0.0
C139 C 0.65269 0.55357 0.65218 0.0
C140 C 0.63644 0.49774 0.63919 0.0
C141 C 0.57028 0.39747 0.66778 0.0
H142 H 0.65397 0.48596 0.59365 0.0
C143 C 0.51523 0.36687 0.64943 0.0
C144 C 0.48778 0.30924 0.64326 0.0
C145 C 0.59818 0.36968 0.67977 0.0
H146 H 0.64016 0.39197 0.69592 0.0
C147 C 0.57133 0.31254 0.67437 0.0
H148 H 0.49355 0.38834 0.64096 0.0
C149 C 0.51642 0.28239 0.65682 0.0
H150 H 0.49686 0.23846 0.65224 0.0
H151 H 0.59315 0.29145 0.68442 0.0
H152 H 0.60952 0.12252 0.74247 0.0
C153 C 0.57245 0.11622 0.71703 0.0
C154 C 0.52525 0.08303 0.75501 0.0
C155 C 0.57324 0.14188 0.64798 0.0
H156 H 0.44134 0.05235 0.75513 0.0
C157 C 0.47787 0.07797 0.72548 0.0
C158 C 0.47706 0.10514 0.65796 0.0
C159 C 0.52514 0.13751 0.61955 0.0
C160 C 0.62552 0.17277 0.60879 0.0
H161 H 0.52469 0.1575 0.56717 0.0
C162 C 0.66258 0.15445 0.61429 0.0
C163 C 0.71669 0.18841 0.59749 0.0
C164 C 0.64186 0.22328 0.57541 0.0
H165 H 0.61476 0.23886 0.57018 0.0
C166 C 0.69462 0.25562 0.55236 0.0
H167 H 0.64991 0.11468 0.63731 0.0
C168 C 0.73216 0.23905 0.56501 0.0
H169 H 0.77336 0.26636 0.55117 0.0
H170 H 0.70712 0.29494 0.52792 0.0
H171 H 0.8169 0.57386 0.87946 0.0
C172 C 0.79009 0.57933 0.91622 0.0
C173 C 0.7693 0.61209 0.89141 0.0
C174 C 0.77455 0.5524 0.98801 0.0
H175 H 0.72536 0.65007 0.926 0.0
C176 C 0.73654 0.62027 0.94114 0.0
C177 C 0.71279 0.58762 0.00401 0.0
C178 C 0.73263 0.55396 0.02866 0.0
C179 C 0.80099 0.52204 0.01932 0.0
H180 H 0.71711 0.53143 0.08065 0.0
C181 C 0.85532 0.5392 0.00571 0.0
C182 C 0.87985 0.51029 0.03506 0.0
C183 C 0.7722 0.47568 0.06408 0.0
H184 H 0.73067 0.46027 0.07568 0.0
C185 C 0.79618 0.44751 0.09378 0.0
H186 H 0.87846 0.57479 0.97168 0.0
C187 C 0.84931 0.46437 0.07927 0.0
H188 H 0.86625 0.44087 0.10192 0.0
H189 H 0.77309 0.4118 0.12763 0.0
H190 H 0.44982 0.2493 0.87404 0.0
C191 C 0.45778 0.22171 0.9064 0.0
C192 C 0.43677 0.16766 0.88012 0.0
C193 C 0.49033 0.24016 0.97408 0.0
H194 H 0.43927 0.09359 0.89624 0.0
C195 C 0.45279 0.13468 0.91776 0.0
C196 C 0.47505 0.14788 0.99137 0.0
C197 C 0.49535 0.20179 0.01972 0.0
C198 C 0.51959 0.2993 -0.00501 0.0
H199 H 0.51354 0.21341 0.077 0.0
C200 C 0.49262 0.32853 0.00495 0.0
C201 C 0.52108 0.38568 0.01814 0.0
C202 C 0.57549 0.32778 -0.00181 0.0
H203 H 0.59724 0.30641 0.98972 0.0
C204 C 0.60383 0.38435 0.0095 0.0
H205 H 0.44941 0.30662 0.00265 0.0
C206 C 0.57691 0.41319 0.01944 0.0
H207 H 0.59986 0.45647 0.0308 0.0
H208 H 0.6469 0.40594 0.01071 0.0
H209 H 0.75038 0.20234 0.89677 0.0
C210 C 0.78695 0.23514 0.9227 0.0
C211 C 0.83493 0.25046 0.88679 0.0
C212 C 0.78549 0.2593 0.993 0.0
H213 H 0.91921 0.30756 0.88914 0.0
C214 C 0.88155 0.29629 0.91555 0.0
C215 C 0.88115 0.32285 0.98458 0.0
C216 C 0.83299 0.30386 0.02356 0.0
C217 C 0.7347 0.23346 0.03554 0.0
H218 H 0.83349 0.32058 0.08034 0.0
C219 C 0.70064 0.17649 0.02911 0.0
C220 C 0.64762 0.15164 0.05213 0.0
C221 C 0.71725 0.26465 0.07562 0.0
H222 H 0.74241 0.30846 0.08187 0.0
C223 C 0.66577 0.23956 0.10464 0.0
H224 H 0.71434 0.1517 0.00079 0.0
C225 C 0.63067 0.18369 0.09144 0.0
H226 H 0.58997 0.16601 0.11 0.0
H227 H 0.65216 0.26395 0.13429 0.0
H228 H 0.56245 0.82407 0.09931 0.0
C229 C 0.56404 0.79002 0.07297 0.0
C230 C 0.60078 0.77646 0.10167 0.0
C231 C 0.53145 0.76272 0.00829 0.0
H232 H 0.63001 0.72082 0.09372 0.0
C233 C 0.60072 0.73067 0.07171 0.0
C234 C 0.5693 0.7029 0.00585 0.0
C235 C 0.53442 0.71901 0.97372 0.0
C236 C 0.50196 0.78752 0.97324 0.0
H237 H 0.51349 0.70104 0.91937 0.0
C238 C 0.5296 0.84416 0.96336 0.0
C239 C 0.50281 0.87236 0.94629 0.0
C240 C 0.44659 0.75817 0.9604 0.0
H241 H 0.42426 0.71457 0.96822 0.0
C242 C 0.41953 0.78579 0.94052 0.0
H243 H 0.57259 0.86689 0.97201 0.0
C244 C 0.44733 0.84272 0.93448 0.0
H245 H 0.42582 0.86299 0.91788 0.0
H246 H 0.37681 0.76308 0.93037 0.0
H247 H 0.21822 0.77708 0.12323 0.0
C248 C 0.24449 0.80699 0.08301 0.0
C249 C 0.26249 0.86215 0.09725 0.0
C250 C 0.26225 0.79055 0.01826 0.0
H251 H 0.30332 0.94145 0.05268 0.0
C252 C 0.29363 0.89964 0.04298 0.0
C253 C 0.31935 0.88694 0.98572 0.0
C254 C 0.30312 0.83112 0.97272 0.0
C255 C 0.23699 0.73083 0.00134 0.0
H256 H 0.32065 0.81935 0.92718 0.0
C257 C 0.18196 0.70025 0.98285 0.0
C258 C 0.15449 0.64262 0.97678 0.0
C259 C 0.26485 0.70303 0.0136 0.0
H260 H 0.30681 0.72531 0.02989 0.0
C261 C 0.23798 0.64589 0.00829 0.0
H262 H 0.16032 0.72175 0.9742 0.0
C263 C 0.18309 0.61575 0.99059 0.0
H264 H 0.1635 0.57182 0.98612 0.0
H265 H 0.25976 0.62478 0.01854 0.0
H266 H 0.27622 0.45584 0.07583 0.0
C267 C 0.23915 0.44957 0.05041 0.0
C268 C 0.19195 0.41639 0.0884 0.0
C269 C 0.23995 0.47524 0.98137 0.0
H270 H 0.10805 0.38574 0.08855 0.0
C271 C 0.14457 0.41135 0.05888 0.0
C272 C 0.14377 0.43853 0.99137 0.0
C273 C 0.19185 0.47088 0.95296 0.0
C274 C 0.29222 0.50612 0.94217 0.0
H275 H 0.1914 0.49087 0.90058 0.0
C276 C 0.32927 0.48779 0.94764 0.0
C277 C 0.38337 0.52173 0.93079 0.0
C278 C 0.30856 0.55664 0.9088 0.0
H279 H 0.28147 0.57223 0.90362 0.0
C280 C 0.36131 0.58896 0.88571 0.0
H281 H 0.31659 0.44802 0.97066 0.0
C282 C 0.39884 0.57237 0.8983 0.0
H283 H 0.44003 0.59967 0.88443 0.0
H284 H 0.37381 0.62828 0.86127 0.0
H285 H 0.48357 0.90718 0.21297 0.0
C286 C 0.45676 0.91264 0.24974 0.0
C287 C 0.43596 0.94541 0.22496 0.0
C288 C 0.44122 0.8857 0.32152 0.0
H289 H 0.39203 0.98338 0.2596 0.0
C290 C 0.4032 0.95357 0.27471 0.0
C291 C 0.37945 0.9209 0.33756 0.0
C292 C 0.39929 0.88724 0.36219 0.0
C293 C 0.46768 0.85535 0.3528 0.0
H294 H 0.38377 0.8647 0.41417 0.0
C295 C 0.522 0.8725 0.33911 0.0
C296 C 0.54655 0.8436 0.36841 0.0
C297 C 0.43893 0.809 0.39761 0.0
H298 H 0.39741 0.7936 0.40928 0.0
C299 C 0.46293 0.78084 0.42726 0.0
H300 H 0.54512 0.90808 0.30506 0.0
C301 C 0.51605 0.79769 0.41266 0.0
H302 H 0.533 0.77419 0.43527 0.0
H303 H 0.43986 0.74514 0.46114 0.0
H304 H 0.11641 0.58264 0.20753 0.0
C305 C 0.12437 0.55504 0.23987 0.0
C306 C 0.10337 0.501 0.21355 0.0
C307 C 0.15692 0.57348 0.30757 0.0
H308 H 0.10589 0.42693 0.22963 0.0
C309 C 0.1194 0.46801 0.25117 0.0
C310 C 0.14166 0.4812 0.32478 0.0
C311 C 0.16194 0.53509 0.35317 0.0
C312 C 0.18617 0.6326 0.32856 0.0
H313 H 0.18012 0.54669 0.41045 0.0
C314 C 0.1592 0.66186 0.33839 0.0
C315 C 0.18768 0.71899 0.35176 0.0
C316 C 0.24206 0.66104 0.33206 0.0
H317 H 0.26381 0.63966 0.32371 0.0
C318 C 0.27041 0.7176 0.34357 0.0
H319 H 0.116 0.63998 0.33588 0.0
C320 C 0.24351 0.74646 0.35339 0.0
H321 H 0.26646 0.78973 0.36493 0.0
H322 H 0.31348 0.73916 0.34503 0.0
H323 H 0.4171 0.53564 0.23008 0.0
C324 C 0.45368 0.56845 0.256 0.0
C325 C 0.50165 0.5838 0.22005 0.0
C326 C 0.45222 0.59259 0.32633 0.0
H327 H 0.58592 0.64092 0.22234 0.0
C328 C 0.54827 0.62963 0.24879 0.0
C329 C 0.54788 0.65617 0.31785 0.0
C330 C 0.49973 0.63715 0.35687 0.0
C331 C 0.40144 0.56674 0.36889 0.0
H332 H 0.50025 0.65386 0.41366 0.0
C333 C 0.36736 0.50977 0.36242 0.0
C334 C 0.31435 0.48494 0.3855 0.0
C335 C 0.38402 0.59793 0.40906 0.0
H336 H 0.4092 0.64173 0.41535 0.0
C337 C 0.33256 0.57284 0.43813 0.0
H338 H 0.38103 0.48498 0.33404 0.0
C339 C 0.29743 0.51698 0.4249 0.0
H340 H 0.25675 0.49931 0.4435 0.0
H341 H 0.31898 0.59723 0.46785 0.0
O342 O 0.41218 0.93973 0.96242 0.0
Mn343 Mn 0.48729 0.01076 0.98939 0.0
O344 O 0.3647 0.97894 0.95639 0.0
Mn345 Mn 0.3916 0.01502 0.05147 0.0
O346 O 0.55929 0.07986 0.02244 0.0
O347 O 0.52175 0.96751 0.95352 0.0
Mn348 Mn 0.58309 0.01629 0.91358 0.0
O349 O 0.49319 0.04136 0.87785 0.0
O350 O 0.62619 0.06813 0.98795 0.0
O351 O 0.47926 0.98065 0.10161 0.0
O352 O 0.40102 0.97555 0.12836 0.0
O353 O 0.58142 0.9513 0.9037 0.0
O354 O 0.56633 0.04499 0.82962 0.0
C355 C 0.45231 0.09992 0.04052 0.0
C356 C 0.36636 0.93531 0.95158 0.0
C357 C 0.60895 0.09548 0.02319 0.0
C358 C 0.5353 0.93167 0.93484 0.0
C359 C 0.52748 0.05392 0.82442 0.0
C360 C 0.43972 0.96776 0.14621 0.0
O361 O 0.45725 0.05779 0.02632 0.0
O362 O 0.40678 0.08622 0.06961 0.0
O363 O 0.08415 0.47195 0.96793 0.0
Mn364 Mn 0.01723 0.48109 0.99304 0.0
O365 O 0.05255 0.38339 0.97475 0.0
Mn366 Mn 0.01109 0.3788 0.0562 0.0
O367 O 0.95103 0.48996 0.02251 0.0
O368 O 0.06253 0.56183 0.96416 0.0
Mn369 Mn 0.01608 0.57504 0.91416 0.0
O370 O 0.98401 0.45639 0.88351 0.0
O371 O 0.96258 0.56825 0.97717 0.0
O372 O 0.05161 0.50285 0.10378 0.0
O373 O 0.04721 0.42454 0.13826 0.0
O374 O 0.07884 0.63909 0.91282 0.0
O375 O 0.988 0.52916 0.82836 0.0
C376 C 0.9316 0.35044 0.02876 0.0
C377 C 0.09129 0.43069 0.96444 0.0
C378 C 0.93507 0.52463 0.0132 0.0
C379 C 0.09726 0.61299 0.95118 0.0
C380 C 0.97283 0.47857 0.82853 0.0
C381 C 0.06451 0.47533 0.14846 0.0
O382 O 0.96925 0.40081 0.01987 0.0
O383 O 0.94549 0.31938 0.06379 0.0
O384 O 0.61957 0.55004 0.02334 0.0
Mn385 Mn 0.54519 0.54599 -0.0046 0.0
O386 O 0.67218 0.63773 0.03198 0.0
Mn387 Mn 0.64382 0.64619 0.93988 0.0
O388 O 0.47323 0.54277 0.96156 0.0
O389 O 0.50796 0.46554 0.02373 0.0
Mn390 Mn 0.44721 0.45305 0.06439 0.0
O391 O 0.53833 0.57042 0.10556 0.0
O392 O 0.40594 0.46115 0.98984 0.0
O393 O 0.55378 0.52472 0.88397 0.0
O394 O 0.63214 0.59907 0.85672 0.0
O395 O 0.44602 0.38822 0.06966 0.0
O396 O 0.46293 0.50034 0.14889 0.0
C397 C 0.59086 0.67561 0.95895 0.0
C398 C 0.66672 0.59092 0.03649 0.0
C399 C 0.42331 0.50683 0.95835 0.0
C400 C 0.4916 0.41439 0.03681 0.0
C401 C 0.5017 0.5494 0.15512 0.0
C402 C 0.59276 0.5516 0.83922 0.0
O403 O 0.57924 0.62561 0.9675 0.0
O404 O 0.63679 0.70637 0.92936 0.0
O405 O 0.07887 0.27305 0.29578 0.0
Mn406 Mn 0.15399 0.34408 0.32276 0.0
O407 O 0.0314 0.31227 0.28971 0.0
Mn408 Mn 0.05829 0.34832 0.38481 0.0
O409 O 0.226 0.41317 0.35582 0.0
O410 O 0.18844 0.30082 0.28688 0.0
Mn411 Mn 0.24977 0.3496 0.24693 0.0
O412 O 0.15989 0.3747 0.21123 0.0
O413 O 0.29289 0.40142 0.32129 0.0
O414 O 0.14595 0.31396 0.43498 0.0
O415 O 0.06769 0.30883 0.46168 0.0
O416 O 0.24809 0.2846 0.23703 0.0
O417 O 0.23302 0.37831 0.16297 0.0
C418 C 0.11896 0.43322 0.37391 0.0
C419 C 0.03306 0.26864 0.2849 0.0
C420 C 0.27566 0.42879 0.35655 0.0
C421 C 0.20198 0.26498 0.26819 0.0
C422 C 0.19417 0.38726 0.15779 0.0
C423 C 0.10639 0.30105 0.47956 0.0
O424 O 0.12395 0.39113 0.35969 0.0
O425 O 0.07342 0.41949 0.403 0.0
O426 O 0.75085 0.8053 0.30099 0.0
Mn427 Mn 0.68392 0.81442 0.32618 0.0
O428 O 0.71925 0.71675 0.30769 0.0
Mn429 Mn 0.67786 0.71215 0.38926 0.0
O430 O 0.61773 0.82328 0.35574 0.0
O431 O 0.72917 0.89515 0.29726 0.0
Mn432 Mn 0.6827 0.90834 0.24732 0.0
O433 O 0.65066 0.7897 0.21669 0.0
O434 O 0.62924 0.90155 0.31041 0.0
O435 O 0.71835 0.8362 0.43689 0.0
O436 O 0.71406 0.75792 0.47126 0.0
O437 O 0.74546 0.97241 0.24594 0.0
O438 O 0.65457 0.86243 0.16155 0.0
C439 C 0.59835 0.68377 0.36199 0.0
C440 C 0.75799 0.76404 0.29743 0.0
C441 C 0.60176 0.85794 0.34647 0.0
C442 C 0.7639 0.94631 0.28428 0.0
C443 C 0.63943 0.81185 0.16173 0.0
C444 C 0.73131 0.8087 0.4815 0.0
O445 O 0.63598 0.73414 0.35305 0.0
O446 O 0.61228 0.65273 0.39696 0.0
O447 O 0.28622 0.88332 0.35689 0.0
Mn448 Mn 0.21186 0.87932 0.32893 0.0
O449 O 0.33885 0.97101 0.36559 0.0
Mn450 Mn 0.31054 0.97952 0.27347 0.0
O451 O 0.13993 0.87615 0.29504 0.0
O452 O 0.17459 0.79887 0.35726 0.0
Mn453 Mn 0.11383 0.78641 0.39783 0.0
O454 O 0.205 0.90376 0.43907 0.0
O455 O 0.07262 0.79452 0.3232 0.0
O456 O 0.22046 0.85806 0.21751 0.0
O457 O 0.29885 0.93239 0.1903 0.0
O458 O 0.11261 0.72156 0.40316 0.0
O459 O 0.12953 0.83372 0.48231 0.0
C460 C 0.25757 0.00894 0.2925 0.0
C461 C 0.33338 0.9242 0.37007 0.0
C462 C 0.09001 0.84022 0.29175 0.0
C463 C 0.1582 0.74772 0.37035 0.0
C464 C 0.16833 0.88276 0.48857 0.0
C465 C 0.25945 0.88494 0.17279 0.0
O466 O 0.24595 0.95895 0.30104 0.0
O467 O 0.30352 0.03971 0.26296 0.0
O468 O 0.74552 0.60636 0.62886 0.0
Mn469 Mn 0.82062 0.67743 0.65584 0.0
O470 O 0.69802 0.64555 0.62277 0.0
Mn471 Mn 0.72487 0.68162 0.71787 0.0
O472 O 0.89259 0.74656 0.68889 0.0
O473 O 0.85513 0.63422 0.62 0.0
Mn474 Mn 0.91646 0.68303 0.58008 0.0
O475 O 0.82652 0.70802 0.54429 0.0
O476 O 0.95953 0.73488 0.65446 0.0
O477 O 0.8126 0.64734 0.76806 0.0
O478 O 0.73431 0.64216 0.79476 0.0
O479 O 0.91484 0.61806 0.57023 0.0
O480 O 0.89969 0.7117 0.4961 0.0
C481 C 0.78557 0.76653 0.70697 0.0
C482 C 0.6997 0.60193 0.618 0.0
C483 C 0.94226 0.76222 0.68966 0.0
C484 C 0.86871 0.5984 0.60135 0.0
C485 C 0.86082 0.72061 0.49088 0.0
C486 C 0.77304 0.63441 0.81264 0.0
O487 O 0.79053 0.72442 0.69275 0.0
O488 O 0.74002 0.75281 0.73602 0.0
O489 O 0.41744 0.13856 0.63452 0.0
Mn490 Mn 0.35053 0.14772 0.65971 0.0
O491 O 0.38584 0.05001 0.64136 0.0
Mn492 Mn 0.34441 0.04541 0.72288 0.0
O493 O 0.28435 0.15659 0.68927 0.0
O494 O 0.39581 0.22845 0.63077 0.0
Mn495 Mn 0.34933 0.24164 0.58087 0.0
O496 O 0.31727 0.12299 0.55022 0.0
O497 O 0.29589 0.23488 0.64399 0.0
O498 O 0.38497 0.16949 0.77041 0.0
O499 O 0.38057 0.09118 0.80489 0.0
O500 O 0.41208 0.30569 0.57943 0.0
O501 O 0.32116 0.19572 0.49511 0.0
C502 C 0.26491 0.0171 0.69549 0.0
C503 C 0.42458 0.0973 0.63104 0.0
C504 C 0.2684 0.19126 0.68002 0.0
C505 C 0.43053 0.2796 0.61775 0.0
C506 C 0.30602 0.14514 0.49528 0.0
C507 C 0.39788 0.14197 0.81507 0.0
O508 O 0.30258 0.06745 0.6866 0.0
O509 O 0.27879 0.98602 0.73049 0.0
O510 O 0.95284 0.21662 0.69015 0.0
Mn511 Mn 0.87849 0.21263 0.6622 0.0
O512 O 1.00548 0.3043 0.69889 0.0
Mn513 Mn 0.97716 0.3128 0.60678 0.0
O514 O 0.80654 0.20945 0.62835 0.0
O515 O 0.84122 0.13217 0.69052 0.0
Mn516 Mn 0.78048 0.1197 0.73114 0.0
O517 O 0.87164 0.23705 0.77236 0.0
O518 O 0.73924 0.12782 0.65655 0.0
O519 O 0.88707 0.19137 0.55076 0.0
O520 O 0.96549 0.26568 0.5236 0.0
O521 O 0.77926 0.05486 0.73642 0.0
O522 O 0.79619 0.167 0.81563 0.0
C523 C 0.92427 0.34228 0.62579 0.0
C524 C 1.0 0.25749 0.70336 0.0
C525 C 0.75662 0.17352 0.62509 0.0
C526 C 0.82484 0.08102 0.70359 0.0
C527 C 0.83498 0.21605 0.82189 0.0
C528 C 0.92608 0.21824 0.50605 0.0
O529 O 0.91258 0.29227 0.63434 0.0
O530 O 0.97021 0.37302 0.59623 0.0
loop_
_geom_bond_atom_site_label_1
_geom_bond_atom_site_label_2
_geom_bond_distance
_geom_bond_site_symmetry_2
_ccdc_geom_bond_type
H0 C1 0.949 . S
C1 H0 0.949 . S
C1 C2 1.395 . S
C1 C3 1.391 . S
C2 C1 1.395 . S
C2 C5 1.390 . S
C3 C1 1.391 . S
C3 C7 1.387 . S
C3 C8 1.491 . S
H4 C5 0.950 . S
C5 C2 1.390 . S
C5 H4 0.950 . S
C5 C6 1.378 . S
C6 C5 1.378 . S
C6 C7 1.409 . S
C7 C3 1.387 . S
C7 C6 1.409 . S
C7 H9 0.951 . S
C8 C3 1.491 . S
C8 C10 1.382 . S
C8 C12 1.404 . S
H9 C7 0.951 . S
C10 C8 1.382 . S
C10 C11 1.390 . S
C10 H15 0.949 . S
C11 C10 1.390 . S
C11 C16 1.399 . S
C12 C8 1.404 . S
C12 H13 0.950 . S
C12 C14 1.375 . S
H13 C12 0.950 . S
C14 C12 1.375 . S
C14 C16 1.382 . S
C14 H18 0.950 . S
H15 C10 0.949 . S
C16 C11 1.399 . S
C16 C14 1.382 . S
C16 H17 0.952 . S
H17 C16 0.952 . S
H18 C14 0.950 . S
H19 C20 0.949 . S
C20 H19 0.949 . S
C20 C21 1.395 . S
C20 C22 1.391 . S
C21 C20 1.395 . S
C21 C24 1.390 . S
C22 C20 1.391 . S
C22 C26 1.387 . S
C22 C27 1.491 . S
H23 C24 0.950 . S
C24 C21 1.390 . S
C24 H23 0.950 . S
C24 C25 1.378 . S
C25 C24 1.378 . S
C25 C26 1.409 . S
C26 C22 1.387 . S
C26 C25 1.409 . S
C26 H28 0.951 . S
C27 C22 1.491 . S
C27 C29 1.382 . S
C27 C31 1.404 . S
H28 C26 0.951 . S
C29 C27 1.382 . S
C29 C30 1.390 1_545 S
C29 H34 0.949 . S
C30 C29 1.390 1_565 S
C30 C35 1.399 . S
C31 C27 1.404 . S
C31 H32 0.950 . S
C31 C33 1.375 1_545 S
H32 C31 0.950 . S
C33 C31 1.375 1_565 S
C33 C35 1.382 . S
C33 H37 0.950 . S
H34 C29 0.949 . S
C35 C30 1.399 . S
C35 C33 1.382 . S
C35 H36 0.952 . S
H36 C35 0.952 . S
H37 C33 0.950 . S
H38 C39 0.949 . S
C39 H38 0.949 . S
C39 C40 1.395 . S
C39 C41 1.391 . S
C40 C39 1.395 . S
C40 C43 1.390 . S
C41 C39 1.391 . S
C41 C45 1.387 . S
C41 C46 1.491 . S
H42 C43 0.950 . S
C43 C40 1.390 . S
C43 H42 0.950 . S
C43 C44 1.378 . S
C44 C43 1.378 . S
C44 C45 1.409 . S
C45 C41 1.387 . S
C45 C44 1.409 . S
C45 H47 0.951 . S
C46 C41 1.491 . S
C46 C48 1.382 . S
C46 C50 1.404 . S
H47 C45 0.951 . S
C48 C46 1.382 . S
C48 C49 1.390 1_655 S
C48 H53 0.949 . S
C49 C48 1.390 1_455 S
C49 C54 1.399 . S
C50 C46 1.404 . S
C50 H51 0.950 . S
C50 C52 1.375 1_655 S
H51 C50 0.950 . S
C52 C50 1.375 1_455 S
C52 C54 1.382 . S
C52 H56 0.950 . S
H53 C48 0.949 . S
C54 C49 1.399 . S
C54 C52 1.382 . S
C54 H55 0.952 . S
H55 C54 0.952 . S
H56 C52 0.950 . S
H57 C58 0.949 . S
C58 H57 0.949 . S
C58 C59 1.395 . S
C58 C60 1.391 . S
C59 C58 1.395 . S
C59 C62 1.390 . S
C60 C58 1.391 . S
C60 C64 1.387 . S
C60 C65 1.491 . S
H61 C62 0.950 . S
C62 C59 1.390 . S
C62 H61 0.950 . S
C62 C63 1.378 . S
C63 C62 1.378 . S
C63 C64 1.409 . S
C64 C60 1.387 . S
C64 C63 1.409 . S
C64 H66 0.951 . S
C65 C60 1.491 . S
C65 C67 1.382 . S
C65 C69 1.404 . S
H66 C64 0.951 . S
C67 C65 1.382 . S
C67 C68 1.390 . S
C67 H72 0.949 . S
C68 C67 1.390 . S
C68 C73 1.399 . S
C69 C65 1.404 . S
C69 H70 0.950 . S
C69 C71 1.375 . S
H70 C69 0.950 . S
C71 C69 1.375 . S
C71 C73 1.382 . S
C71 H75 0.950 . S
H72 C67 0.949 . S
C73 C68 1.399 . S
C73 C71 1.382 . S
C73 H74 0.952 . S
H74 C73 0.952 . S
H75 C71 0.950 . S
H76 C77 0.949 . S
C77 H76 0.949 . S
C77 C78 1.395 . S
C77 C79 1.391 . S
C78 C77 1.395 . S
C78 C81 1.390 . S
C79 C77 1.391 . S
C79 C83 1.387 . S
C79 C84 1.491 . S
H80 C81 0.950 . S
C81 C78 1.390 . S
C81 H80 0.950 . S
C81 C82 1.378 . S
C82 C81 1.378 . S
C82 C83 1.409 . S
C83 C79 1.387 . S
C83 C82 1.409 . S
C83 H85 0.951 . S
C84 C79 1.491 . S
C84 C86 1.382 . S
C84 C88 1.404 . S
H85 C83 0.951 . S
C86 C84 1.382 . S
C86 C87 1.390 1_565 S
C86 H91 0.949 . S
C87 C86 1.390 1_545 S
C87 C92 1.399 . S
C88 C84 1.404 . S
C88 H89 0.950 . S
C88 C90 1.375 1_565 S
H89 C88 0.950 . S
C90 C88 1.375 1_545 S
C90 C92 1.382 . S
C90 H94 0.950 . S
H91 C86 0.949 . S
C92 C87 1.399 . S
C92 C90 1.382 . S
C92 H93 0.952 . S
H93 C92 0.952 . S
H94 C90 0.950 . S
H95 C96 0.949 . S
C96 H95 0.949 . S
C96 C97 1.395 . S
C96 C98 1.391 . S
C97 C96 1.395 . S
C97 C100 1.390 . S
C98 C96 1.391 . S
C98 C102 1.387 . S
C98 C103 1.491 . S
H99 C100 0.950 . S
C100 C97 1.390 . S
C100 H99 0.950 . S
C100 C101 1.378 . S
C101 C100 1.378 . S
C101 C102 1.409 . S
C102 C98 1.387 . S
C102 C101 1.409 . S
C102 H104 0.951 . S
C103 C98 1.491 . S
C103 C105 1.382 . S
C103 C107 1.404 . S
H104 C102 0.951 . S
C105 C103 1.382 . S
C105 C106 1.390 1_455 S
C105 H110 0.949 . S
C106 C105 1.390 1_655 S
C106 C111 1.399 . S
C107 C103 1.404 . S
C107 H108 0.950 . S
C107 C109 1.375 1_455 S
H108 C107 0.950 . S
C109 C107 1.375 1_655 S
C109 C111 1.382 . S
C109 H113 0.950 . S
H110 C105 0.949 . S
C111 C106 1.399 . S
C111 C109 1.382 . S
C111 H112 0.952 . S
H112 C111 0.952 . S
H113 C109 0.950 . S
H114 C115 0.949 . S
C115 H114 0.949 . S
C115 C116 1.395 . S
C115 C117 1.391 . S
C116 C115 1.395 . S
C116 C119 1.390 . S
C117 C115 1.391 . S
C117 C121 1.387 . S
C117 C122 1.491 . S
H118 C119 0.950 . S
C119 C116 1.390 . S
C119 H118 0.950 . S
C119 C120 1.378 . S
C120 C119 1.378 . S
C120 C121 1.409 . S
C121 C117 1.387 . S
C121 C120 1.409 . S
C121 H123 0.951 . S
C122 C117 1.491 . S
C122 C124 1.382 . S
C122 C126 1.404 . S
H123 C121 0.951 . S
C124 C122 1.382 . S
C124 C125 1.390 . S
C124 H129 0.949 . S
C125 C124 1.390 . S
C125 C130 1.399 . S
C126 C122 1.404 . S
C126 H127 0.950 . S
C126 C128 1.375 . S
H127 C126 0.950 . S
C128 C126 1.375 . S
C128 C130 1.382 . S
C128 H132 0.950 . S
H129 C124 0.949 . S
C130 C125 1.399 . S
C130 C128 1.382 . S
C130 H131 0.952 . S
H131 C130 0.952 . S
H132 C128 0.950 . S
H133 C134 0.949 . S
C134 H133 0.949 . S
C134 C135 1.395 . S
C134 C136 1.391 . S
C135 C134 1.395 . S
C135 C138 1.390 . S
C136 C134 1.391 . S
C136 C140 1.387 . S
C136 C141 1.491 . S
H137 C138 0.950 . S
C138 C135 1.390 . S
C138 H137 0.950 . S
C138 C139 1.378 . S
C139 C138 1.378 . S
C139 C140 1.409 . S
C140 C136 1.387 . S
C140 C139 1.409 . S
C140 H142 0.951 . S
C141 C136 1.491 . S
C141 C143 1.382 . S
C141 C145 1.404 . S
H142 C140 0.951 . S
C143 C141 1.382 . S
C143 C144 1.390 . S
C143 H148 0.949 . S
C144 C143 1.390 . S
C144 C149 1.399 . S
C145 C141 1.404 . S
C145 H146 0.950 . S
C145 C147 1.375 . S
H146 C145 0.950 . S
C147 C145 1.375 . S
C147 C149 1.382 . S
C147 H151 0.950 . S
H148 C143 0.949 . S
C149 C144 1.399 . S
C149 C147 1.382 . S
C149 H150 0.952 . S
H150 C149 0.952 . S
H151 C147 0.950 . S
H152 C153 0.949 . S
C153 H152 0.949 . S
C153 C154 1.395 . S
C153 C155 1.391 . S
C154 C153 1.395 . S
C154 C157 1.390 . S
C155 C153 1.391 . S
C155 C159 1.387 . S
C155 C160 1.491 . S
H156 C157 0.950 . S
C157 C154 1.390 . S
C157 H156 0.950 . S
C157 C158 1.378 . S
C158 C157 1.378 . S
C158 C159 1.409 . S
C159 C155 1.387 . S
C159 C158 1.409 . S
C159 H161 0.951 . S
C160 C155 1.491 . S
C160 C162 1.382 . S
C160 C164 1.404 . S
H161 C159 0.951 . S
C162 C160 1.382 . S
C162 C163 1.390 . S
C162 H167 0.949 . S
C163 C162 1.390 . S
C163 C168 1.399 . S
C164 C160 1.404 . S
C164 H165 0.950 . S
C164 C166 1.375 . S
H165 C164 0.950 . S
C166 C164 1.375 . S
C166 C168 1.382 . S
C166 H170 0.950 . S
H167 C162 0.949 . S
C168 C163 1.399 . S
C168 C166 1.382 . S
C168 H169 0.952 . S
H169 C168 0.952 . S
H170 C166 0.950 . S
H171 C172 0.949 . S
C172 H171 0.949 . S
C172 C173 1.395 . S
C172 C174 1.391 1_556 S
C173 C172 1.395 . S
C173 C176 1.390 . S
C174 C172 1.391 1_554 S
C174 C178 1.387 . S
C174 C179 1.491 . S
H175 C176 0.950 . S
C176 C173 1.390 . S
C176 H175 0.950 . S
C176 C177 1.378 1_556 S
C177 C176 1.378 1_554 S
C177 C178 1.409 . S
C178 C174 1.387 . S
C178 C177 1.409 . S
C178 H180 0.951 . S
C179 C174 1.491 . S
C179 C181 1.382 . S
C179 C183 1.404 . S
H180 C178 0.951 . S
C181 C179 1.382 . S
C181 C182 1.390 . S
C181 H186 0.949 . S
C182 C181 1.390 . S
C182 C187 1.399 . S
C183 C179 1.404 . S
C183 H184 0.950 . S
C183 C185 1.375 . S
H184 C183 0.950 . S
C185 C183 1.375 . S
C185 C187 1.382 . S
C185 H189 0.950 . S
H186 C181 0.949 . S
C187 C182 1.399 . S
C187 C185 1.382 . S
C187 H188 0.952 . S
H188 C187 0.952 . S
H189 C185 0.950 . S
H190 C191 0.949 . S
C191 H190 0.949 . S
C191 C192 1.395 . S
C191 C193 1.391 1_556 S
C192 C191 1.395 . S
C192 C195 1.390 . S
C193 C191 1.391 1_554 S
C193 C197 1.387 . S
C193 C198 1.491 . S
H194 C195 0.950 . S
C195 C192 1.390 . S
C195 H194 0.950 . S
C195 C196 1.378 1_556 S
C196 C195 1.378 1_554 S
C196 C197 1.409 . S
C197 C193 1.387 . S
C197 C196 1.409 . S
C197 H199 0.951 . S
C198 C193 1.491 . S
C198 C200 1.382 . S
C198 C202 1.404 . S
H199 C197 0.951 . S
C200 C198 1.382 . S
C200 C201 1.390 . S
C200 H205 0.949 . S
C201 C200 1.390 . S
C201 C206 1.399 . S
C202 C198 1.404 . S
C202 H203 0.950 . S
C202 C204 1.375 . S
H203 C202 0.950 . S
C204 C202 1.375 . S
C204 C206 1.382 . S
C204 H208 0.950 . S
H205 C200 0.949 . S
C206 C201 1.399 . S
C206 C204 1.382 . S
C206 H207 0.952 . S
H207 C206 0.952 . S
H208 C204 0.950 . S
H209 C210 0.949 . S
C210 H209 0.949 . S
C210 C211 1.395 . S
C210 C212 1.391 1_556 S
C211 C210 1.395 . S
C211 C214 1.390 . S
C212 C210 1.391 1_554 S
C212 C216 1.387 . S
C212 C217 1.491 . S
H213 C214 0.950 . S
C214 C211 1.390 . S
C214 H213 0.950 . S
C214 C215 1.378 1_556 S
C215 C214 1.378 1_554 S
C215 C216 1.409 . S
C216 C212 1.387 . S
C216 C215 1.409 . S
C216 H218 0.951 . S
C217 C212 1.491 . S
C217 C219 1.382 . S
C217 C221 1.404 . S
H218 C216 0.951 . S
C219 C217 1.382 . S
C219 C220 1.390 . S
C219 H224 0.949 . S
C220 C219 1.390 . S
C220 C225 1.399 . S
C221 C217 1.404 . S
C221 H222 0.950 . S
C221 C223 1.375 . S
H222 C221 0.950 . S
C223 C221 1.375 . S
C223 C225 1.382 . S
C223 H227 0.950 . S
H224 C219 0.949 . S
C225 C220 1.399 . S
C225 C223 1.382 . S
C225 H226 0.952 . S
H226 C225 0.952 . S
H227 C223 0.950 . S
H228 C229 0.949 . S
C229 H228 0.949 . S
C229 C230 1.395 . S
C229 C231 1.391 1_554 S
C230 C229 1.395 . S
C230 C233 1.390 . S
C231 C229 1.391 1_556 S
C231 C235 1.387 . S
C231 C236 1.491 . S
H232 C233 0.950 . S
C233 C230 1.390 . S
C233 H232 0.950 . S
C233 C234 1.378 1_554 S
C234 C233 1.378 1_556 S
C234 C235 1.409 . S
C235 C231 1.387 . S
C235 C234 1.409 . S
C235 H237 0.951 . S
C236 C231 1.491 . S
C236 C238 1.382 . S
C236 C240 1.404 . S
H237 C235 0.951 . S
C238 C236 1.382 . S
C238 C239 1.390 . S
C238 H243 0.949 . S
C239 C238 1.390 . S
C239 C244 1.399 . S
C240 C236 1.404 . S
C240 H241 0.950 . S
C240 C242 1.375 . S
H241 C240 0.950 . S
C242 C240 1.375 . S
C242 C244 1.382 . S
C242 H246 0.950 . S
H243 C238 0.949 . S
C244 C239 1.399 . S
C244 C242 1.382 . S
C244 H245 0.952 . S
H245 C244 0.952 . S
H246 C242 0.950 . S
H247 C248 0.949 . S
C248 H247 0.949 . S
C248 C249 1.395 . S
C248 C250 1.391 1_554 S
C249 C248 1.395 . S
C249 C252 1.390 . S
C250 C248 1.391 1_556 S
C250 C254 1.387 . S
C250 C255 1.491 . S
H251 C252 0.950 . S
C252 C249 1.390 . S
C252 H251 0.950 . S
C252 C253 1.378 1_554 S
C253 C252 1.378 1_556 S
C253 C254 1.409 . S
C254 C250 1.387 . S
C254 C253 1.409 . S
C254 H256 0.951 . S
C255 C250 1.491 . S
C255 C257 1.382 . S
C255 C259 1.404 . S
H256 C254 0.951 . S
C257 C255 1.382 . S
C257 C258 1.390 . S
C257 H262 0.949 . S
C258 C257 1.390 . S
C258 C263 1.399 . S
C259 C255 1.404 . S
C259 H260 0.950 . S
C259 C261 1.375 . S
H260 C259 0.950 . S
C261 C259 1.375 . S
C261 C263 1.382 . S
C261 H265 0.950 . S
H262 C257 0.949 . S
C263 C258 1.399 . S
C263 C261 1.382 . S
C263 H264 0.952 . S
H264 C263 0.952 . S
H265 C261 0.950 . S
H266 C267 0.949 . S
C267 H266 0.949 . S
C267 C268 1.395 . S
C267 C269 1.391 1_554 S
C268 C267 1.395 . S
C268 C271 1.390 . S
C269 C267 1.391 1_556 S
C269 C273 1.387 . S
C269 C274 1.491 . S
H270 C271 0.950 . S
C271 C268 1.390 . S
C271 H270 0.950 . S
C271 C272 1.378 1_554 S
C272 C271 1.378 1_556 S
C272 C273 1.409 . S
C273 C269 1.387 . S
C273 C272 1.409 . S
C273 H275 0.951 . S
C274 C269 1.491 . S
C274 C276 1.382 . S
C274 C278 1.404 . S
H275 C273 0.951 . S
C276 C274 1.382 . S
C276 C277 1.390 . S
C276 H281 0.949 . S
C277 C276 1.390 . S
C277 C282 1.399 . S
C278 C274 1.404 . S
C278 H279 0.950 . S
C278 C280 1.375 . S
H279 C278 0.950 . S
C280 C278 1.375 . S
C280 C282 1.382 . S
C280 H284 0.950 . S
H281 C276 0.949 . S
C282 C277 1.399 . S
C282 C280 1.382 . S
C282 H283 0.952 . S
H283 C282 0.952 . S
H284 C280 0.950 . S
H285 C286 0.949 . S
C286 H285 0.949 . S
C286 C287 1.395 . S
C286 C288 1.391 . S
C287 C286 1.395 . S
C287 C290 1.390 . S
C288 C286 1.391 . S
C288 C292 1.387 . S
C288 C293 1.491 . S
H289 C290 0.950 . S
C290 C287 1.390 . S
C290 H289 0.950 . S
C290 C291 1.378 . S
C291 C290 1.378 . S
C291 C292 1.409 . S
C292 C288 1.387 . S
C292 C291 1.409 . S
C292 H294 0.951 . S
C293 C288 1.491 . S
C293 C295 1.382 . S
C293 C297 1.404 . S
H294 C292 0.951 . S
C295 C293 1.382 . S
C295 C296 1.390 . S
C295 H300 0.949 . S
C296 C295 1.390 . S
C296 C301 1.399 . S
C297 C293 1.404 . S
C297 H298 0.950 . S
C297 C299 1.375 . S
H298 C297 0.950 . S
C299 C297 1.375 . S
C299 C301 1.382 . S
C299 H303 0.950 . S
H300 C295 0.949 . S
C301 C296 1.399 . S
C301 C299 1.382 . S
C301 H302 0.952 . S
H302 C301 0.952 . S
H303 C299 0.950 . S
H304 C305 0.949 . S
C305 H304 0.949 . S
C305 C306 1.395 . S
C305 C307 1.391 . S
C306 C305 1.395 . S
C306 C309 1.390 . S
C307 C305 1.391 . S
C307 C311 1.387 . S
C307 C312 1.491 . S
H308 C309 0.950 . S
C309 C306 1.390 . S
C309 H308 0.950 . S
C309 C310 1.378 . S
C310 C309 1.378 . S
C310 C311 1.409 . S
C311 C307 1.387 . S
C311 C310 1.409 . S
C311 H313 0.951 . S
C312 C307 1.491 . S
C312 C314 1.382 . S
C312 C316 1.404 . S
H313 C311 0.951 . S
C314 C312 1.382 . S
C314 C315 1.390 . S
C314 H319 0.949 . S
C315 C314 1.390 . S
C315 C320 1.399 . S
C316 C312 1.404 . S
C316 H317 0.950 . S
C316 C318 1.375 . S
H317 C316 0.950 . S
C318 C316 1.375 . S
C318 C320 1.382 . S
C318 H322 0.950 . S
H319 C314 0.949 . S
C320 C315 1.399 . S
C320 C318 1.382 . S
C320 H321 0.952 . S
H321 C320 0.952 . S
H322 C318 0.950 . S
H323 C324 0.949 . S
C324 H323 0.949 . S
C324 C325 1.395 . S
C324 C326 1.391 . S
C325 C324 1.395 . S
C325 C328 1.390 . S
C326 C324 1.391 . S
C326 C330 1.387 . S
C326 C331 1.491 . S
H327 C328 0.950 . S
C328 C325 1.390 . S
C328 H327 0.950 . S
C328 C329 1.378 . S
C329 C328 1.378 . S
C329 C330 1.409 . S
C330 C326 1.387 . S
C330 C329 1.409 . S
C330 H332 0.951 . S
C331 C326 1.491 . S
C331 C333 1.382 . S
C331 C335 1.404 . S
H332 C330 0.951 . S
C333 C331 1.382 . S
C333 C334 1.390 . S
C333 H338 0.949 . S
C334 C333 1.390 . S
C334 C339 1.399 . S
C335 C331 1.404 . S
C335 H336 0.950 . S
C335 C337 1.375 . S
H336 C335 0.950 . S
C337 C335 1.375 . S
C337 C339 1.382 . S
C337 H341 0.950 . S
H338 C333 0.949 . S
C339 C334 1.399 . S
C339 C337 1.382 . S
C339 H340 0.952 . S
H340 C339 0.952 . S
H341 C337 0.950 . S
O342 Mn343 2.163 1_566 S
O342 C356 1.244 1_556 S
Mn343 O342 2.163 1_544 S
Mn343 O346 2.160 . S
Mn343 O347 2.221 1_544 S
Mn343 O349 2.163 1_554 S
Mn343 O351 2.160 1_545 S
Mn343 O361 2.221 . S
O344 Mn345 2.087 1_565 S
O344 C356 1.256 . S
Mn345 O344 2.087 1_545 S
Mn345 O352 2.089 1_545 S
Mn345 O361 2.290 . S
Mn345 O362 2.251 . S
O346 Mn343 2.160 . S
O346 C357 1.239 . S
O347 Mn343 2.221 1_566 S
O347 Mn348 2.290 1_565 S
O347 C358 1.278 . S
Mn348 O347 2.290 1_545 S
Mn348 O350 2.089 . S
Mn348 O353 2.251 1_545 S
Mn348 O354 2.087 . S
O349 Mn343 2.163 1_556 S
O349 C359 1.244 . S
O350 Mn348 2.089 . S
O350 C357 1.256 1_556 S
O351 Mn343 2.160 1_565 S
O351 C360 1.239 . S
O352 Mn345 2.089 1_565 S
O352 C360 1.256 . S
O353 Mn348 2.251 1_565 S
O353 C358 1.241 . S
O354 Mn348 2.087 . S
O354 C359 1.256 . S
C355 O361 1.278 . S
C355 O362 1.241 . S
C356 O342 1.244 1_554 S
C356 O344 1.256 . S
C357 O346 1.239 . S
C357 O350 1.256 1_554 S
C358 O347 1.278 . S
C358 O353 1.241 . S
C359 O349 1.244 . S
C359 O354 1.256 . S
C360 O351 1.239 . S
C360 O352 1.256 . S
O361 Mn343 2.221 . S
O361 Mn345 2.290 . S
O361 C355 1.278 . S
O362 Mn345 2.251 . S
O362 C355 1.241 . S
O363 Mn364 2.163 1_556 S
O363 C377 1.244 1_556 S
Mn364 O363 2.163 1_554 S
Mn364 O367 2.160 1_455 S
Mn364 O368 2.221 1_554 S
Mn364 O370 2.163 1_454 S
Mn364 O372 2.160 . S
Mn364 O382 2.221 1_455 S
O365 Mn366 2.087 . S
O365 C377 1.256 . S
Mn366 O365 2.087 . S
Mn366 O373 2.089 . S
Mn366 O382 2.290 1_455 S
Mn366 O383 2.251 1_455 S
O367 Mn364 2.160 1_655 S
O367 C378 1.239 . S
O368 Mn364 2.221 1_556 S
O368 Mn369 2.290 . S
O368 C379 1.278 . S
Mn369 O368 2.290 . S
Mn369 O371 2.089 1_455 S
Mn369 O374 2.251 . S
Mn369 O375 2.087 1_455 S
O370 Mn364 2.163 1_656 S
O370 C380 1.244 . S
O371 Mn369 2.089 1_655 S
O371 C378 1.256 1_556 S
O372 Mn364 2.160 . S
O372 C381 1.239 . S
O373 Mn366 2.089 . S
O373 C381 1.256 . S
O374 Mn369 2.251 . S
O374 C379 1.241 . S
O375 Mn369 2.087 1_655 S
O375 C380 1.256 . S
C376 O382 1.278 . S
C376 O383 1.241 . S
C377 O363 1.244 1_554 S
C377 O365 1.256 . S
C378 O367 1.239 . S
C378 O371 1.256 1_554 S
C379 O368 1.278 . S
C379 O374 1.241 . S
C380 O370 1.244 . S
C380 O375 1.256 . S
C381 O372 1.239 . S
C381 O373 1.256 . S
O382 Mn364 2.221 1_655 S
O382 Mn366 2.290 1_655 S
O382 C376 1.278 . S
O383 Mn366 2.251 1_655 S
O383 C376 1.241 . S
O384 Mn385 2.163 1_554 S
O384 C398 1.244 1_554 S
Mn385 O384 2.163 1_556 S
Mn385 O388 2.160 . S
Mn385 O389 2.221 1_556 S
Mn385 O391 2.163 1_556 S
Mn385 O393 2.160 . S
Mn385 O403 2.221 . S
O386 Mn387 2.087 . S
O386 C398 1.256 . S
Mn387 O386 2.087 . S
Mn387 O394 2.089 . S
Mn387 O403 2.290 . S
Mn387 O404 2.251 . S
O388 Mn385 2.160 . S
O388 C399 1.239 . S
O389 Mn385 2.221 1_554 S
O389 Mn390 2.290 . S
O389 C400 1.278 . S
Mn390 O389 2.290 . S
Mn390 O392 2.089 . S
Mn390 O395 2.251 . S
Mn390 O396 2.087 . S
O391 Mn385 2.163 1_554 S
O391 C401 1.244 . S
O392 Mn390 2.089 . S
O392 C399 1.256 1_554 S
O393 Mn385 2.160 . S
O393 C402 1.239 . S
O394 Mn387 2.089 . S
O394 C402 1.256 . S
O395 Mn390 2.251 . S
O395 C400 1.241 . S
O396 Mn390 2.087 . S
O396 C401 1.256 . S
C397 O403 1.278 . S
C397 O404 1.241 . S
C398 O384 1.244 1_556 S
C398 O386 1.256 . S
C399 O388 1.239 . S
C399 O392 1.256 1_556 S
C400 O389 1.278 . S
C400 O395 1.241 . S
C401 O391 1.244 . S
C401 O396 1.256 . S
C402 O393 1.239 . S
C402 O394 1.256 . S
O403 Mn385 2.221 . S
O403 Mn387 2.290 . S
O403 C397 1.278 . S
O404 Mn387 2.251 . S
O404 C397 1.241 . S
O405 Mn406 2.163 . S
O405 C419 1.244 . S
Mn406 O405 2.163 . S
Mn406 O409 2.160 . S
Mn406 O410 2.221 . S
Mn406 O412 2.163 . S
Mn406 O414 2.160 . S
Mn406 O424 2.221 . S
O407 Mn408 2.087 . S
O407 C419 1.256 . S
Mn408 O407 2.087 . S
Mn408 O415 2.089 . S
Mn408 O424 2.290 . S
Mn408 O425 2.251 . S
O409 Mn406 2.160 . S
O409 C420 1.239 . S
O410 Mn406 2.221 . S
O410 Mn411 2.290 . S
O410 C421 1.278 . S
Mn411 O410 2.290 . S
Mn411 O413 2.089 . S
Mn411 O416 2.251 . S
Mn411 O417 2.087 . S
O412 Mn406 2.163 . S
O412 C422 1.244 . S
O413 Mn411 2.089 . S
O413 C420 1.256 . S
O414 Mn406 2.160 . S
O414 C423 1.239 . S
O415 Mn408 2.089 . S
O415 C423 1.256 . S
O416 Mn411 2.251 . S
O416 C421 1.241 . S
O417 Mn411 2.087 . S
O417 C422 1.256 . S
C418 O424 1.278 . S
C418 O425 1.241 . S
C419 O405 1.244 . S
C419 O407 1.256 . S
C420 O409 1.239 . S
C420 O413 1.256 . S
C421 O410 1.278 . S
C421 O416 1.241 . S
C422 O412 1.244 . S
C422 O417 1.256 . S
C423 O414 1.239 . S
C423 O415 1.256 . S
O424 Mn406 2.221 . S
O424 Mn408 2.290 . S
O424 C418 1.278 . S
O425 Mn408 2.251 . S
O425 C418 1.241 . S
O426 Mn427 2.163 . S
O426 C440 1.244 . S
Mn427 O426 2.163 . S
Mn427 O430 2.160 . S
Mn427 O431 2.221 . S
Mn427 O433 2.163 . S
Mn427 O435 2.160 . S
Mn427 O445 2.221 . S
O428 Mn429 2.087 . S
O428 C440 1.256 . S
Mn429 O428 2.087 . S
Mn429 O436 2.089 . S
Mn429 O445 2.290 . S
Mn429 O446 2.251 . S
O430 Mn427 2.160 . S
O430 C441 1.239 . S
O431 Mn427 2.221 . S
O431 Mn432 2.290 . S
O431 C442 1.278 . S
Mn432 O431 2.290 . S
Mn432 O434 2.089 . S
Mn432 O437 2.251 . S
Mn432 O438 2.087 . S
O433 Mn427 2.163 . S
O433 C443 1.244 . S
O434 Mn432 2.089 . S
O434 C441 1.256 . S
O435 Mn427 2.160 . S
O435 C444 1.239 . S
O436 Mn429 2.089 . S
O436 C444 1.256 . S
O437 Mn432 2.251 . S
O437 C442 1.241 . S
O438 Mn432 2.087 . S
O438 C443 1.256 . S
C439 O445 1.278 . S
C439 O446 1.241 . S
C440 O426 1.244 . S
C440 O428 1.256 . S
C441 O430 1.239 . S
C441 O434 1.256 . S
C442 O431 1.278 . S
C442 O437 1.241 . S
C443 O433 1.244 . S
C443 O438 1.256 . S
C444 O435 1.239 . S
C444 O436 1.256 . S
O445 Mn427 2.221 . S
O445 Mn429 2.290 . S
O445 C439 1.278 . S
O446 Mn429 2.251 . S
O446 C439 1.241 . S
O447 Mn448 2.163 . S
O447 C461 1.244 . S
Mn448 O447 2.163 . S
Mn448 O451 2.160 . S
Mn448 O452 2.221 . S
Mn448 O454 2.163 . S
Mn448 O456 2.160 . S
Mn448 O466 2.221 . S
O449 Mn450 2.087 . S
O449 C461 1.256 . S
Mn450 O449 2.087 . S
Mn450 O457 2.089 . S
Mn450 O466 2.290 . S
Mn450 O467 2.251 1_565 S
O451 Mn448 2.160 . S
O451 C462 1.239 . S
O452 Mn448 2.221 . S
O452 Mn453 2.290 . S
O452 C463 1.278 . S
Mn453 O452 2.290 . S
Mn453 O455 2.089 . S
Mn453 O458 2.251 . S
Mn453 O459 2.087 . S
O454 Mn448 2.163 . S
O454 C464 1.244 . S
O455 Mn453 2.089 . S
O455 C462 1.256 . S
O456 Mn448 2.160 . S
O456 C465 1.239 . S
O457 Mn450 2.089 . S
O457 C465 1.256 . S
O458 Mn453 2.251 . S
O458 C463 1.241 . S
O459 Mn453 2.087 . S
O459 C464 1.256 . S
C460 O466 1.278 1_545 S
C460 O467 1.241 . S
C461 O447 1.244 . S
C461 O449 1.256 . S
C462 O451 1.239 . S
C462 O455 1.256 . S
C463 O452 1.278 . S
C463 O458 1.241 . S
C464 O454 1.244 . S
C464 O459 1.256 . S
C465 O456 1.239 . S
C465 O457 1.256 . S
O466 Mn448 2.221 . S
O466 Mn450 2.290 . S
O466 C460 1.278 1_565 S
O467 Mn450 2.251 1_545 S
O467 C460 1.241 . S
O468 Mn469 2.163 . S
O468 C482 1.244 . S
Mn469 O468 2.163 . S
Mn469 O472 2.160 . S
Mn469 O473 2.221 . S
Mn469 O475 2.163 . S
Mn469 O477 2.160 . S
Mn469 O487 2.221 . S
O470 Mn471 2.087 . S
O470 C482 1.256 . S
Mn471 O470 2.087 . S
Mn471 O478 2.089 . S
Mn471 O487 2.290 . S
Mn471 O488 2.251 . S
O472 Mn469 2.160 . S
O472 C483 1.239 . S
O473 Mn469 2.221 . S
O473 Mn474 2.290 . S
O473 C484 1.278 . S
Mn474 O473 2.290 . S
Mn474 O476 2.089 . S
Mn474 O479 2.251 . S
Mn474 O480 2.087 . S
O475 Mn469 2.163 . S
O475 C485 1.244 . S
O476 Mn474 2.089 . S
O476 C483 1.256 . S
O477 Mn469 2.160 . S
O477 C486 1.239 . S
O478 Mn471 2.089 . S
O478 C486 1.256 . S
O479 Mn474 2.251 . S
O479 C484 1.241 . S
O480 Mn474 2.087 . S
O480 C485 1.256 . S
C481 O487 1.278 . S
C481 O488 1.241 . S
C482 O468 1.244 . S
C482 O470 1.256 . S
C483 O472 1.239 . S
C483 O476 1.256 . S
C484 O473 1.278 . S
C484 O479 1.241 . S
C485 O475 1.244 . S
C485 O480 1.256 . S
C486 O477 1.239 . S
C486 O478 1.256 . S
O487 Mn469 2.221 . S
O487 Mn471 2.290 . S
O487 C481 1.278 . S
O488 Mn471 2.251 . S
O488 C481 1.241 . S
O489 Mn490 2.163 . S
O489 C503 1.244 . S
Mn490 O489 2.163 . S
Mn490 O493 2.160 . S
Mn490 O494 2.221 . S
Mn490 O496 2.163 . S
Mn490 O498 2.160 . S
Mn490 O508 2.221 . S
O491 Mn492 2.087 . S
O491 C503 1.256 . S
Mn492 O491 2.087 . S
Mn492 O499 2.089 . S
Mn492 O508 2.290 . S
Mn492 O509 2.251 1_545 S
O493 Mn490 2.160 . S
O493 C504 1.239 . S
O494 Mn490 2.221 . S
O494 Mn495 2.290 . S
O494 C505 1.278 . S
Mn495 O494 2.290 . S
Mn495 O497 2.089 . S
Mn495 O500 2.251 . S
Mn495 O501 2.087 . S
O496 Mn490 2.163 . S
O496 C506 1.244 . S
O497 Mn495 2.089 . S
O497 C504 1.256 . S
O498 Mn490 2.160 . S
O498 C507 1.239 . S
O499 Mn492 2.089 . S
O499 C507 1.256 . S
O500 Mn495 2.251 . S
O500 C505 1.241 . S
O501 Mn495 2.087 . S
O501 C506 1.256 . S
C502 O508 1.278 . S
C502 O509 1.241 1_545 S
C503 O489 1.244 . S
C503 O491 1.256 . S
C504 O493 1.239 . S
C504 O497 1.256 . S
C505 O494 1.278 . S
C505 O500 1.241 . S
C506 O496 1.244 . S
C506 O501 1.256 . S
C507 O498 1.239 . S
C507 O499 1.256 . S
O508 Mn490 2.221 . S
O508 Mn492 2.290 . S
O508 C502 1.278 . S
O509 Mn492 2.251 1_565 S
O509 C502 1.241 1_565 S
O510 Mn511 2.163 . S
O510 C524 1.244 . S
Mn511 O510 2.163 . S
Mn511 O514 2.160 . S
Mn511 O515 2.221 . S
Mn511 O517 2.163 . S
Mn511 O519 2.160 . S
Mn511 O529 2.221 . S
O512 Mn513 2.087 1_455 S
O512 C524 1.256 1_455 S
Mn513 O512 2.087 1_655 S
Mn513 O520 2.089 . S
Mn513 O529 2.290 . S
Mn513 O530 2.251 . S
O514 Mn511 2.160 . S
O514 C525 1.239 . S
O515 Mn511 2.221 . S
O515 Mn516 2.290 . S
O515 C526 1.278 . S
Mn516 O515 2.290 . S
Mn516 O518 2.089 . S
Mn516 O521 2.251 . S
Mn516 O522 2.087 . S
O517 Mn511 2.163 . S
O517 C527 1.244 . S
O518 Mn516 2.089 . S
O518 C525 1.256 . S
O519 Mn511 2.160 . S
O519 C528 1.239 . S
O520 Mn513 2.089 . S
O520 C528 1.256 . S
O521 Mn516 2.251 . S
O521 C526 1.241 . S
O522 Mn516 2.087 . S
O522 C527 1.256 . S
C523 O529 1.278 . S
C523 O530 1.241 . S
C524 O510 1.244 . S
C524 O512 1.256 1_655 S
C525 O514 1.239 . S
C525 O518 1.256 . S
C526 O515 1.278 . S
C526 O521 1.241 . S
C527 O517 1.244 . S
C527 O522 1.256 . S
C528 O519 1.239 . S
C528 O520 1.256 . S
O529 Mn511 2.221 . S
O529 Mn513 2.290 . S
O529 C523 1.278 . S
O530 Mn513 2.251 . S
O530 C523 1.241 . S
C253 C356 1.508 1_556 S
C272 C377 1.444 1_556 S
C234 C397 1.359 . S
C215 C376 1.257 . S
C398 C177 1.452 1_556 S
C196 C355 1.356 . S
C357 C220 1.707 . S
C378 C182 1.767 . S
C201 C400 1.278 . S
C258 C379 1.331 . S
C277 C399 1.747 . S
C358 C239 1.285 . S
C419 C25 1.558 1_455 S
C44 C440 1.453 . S
C6 C460 1.370 . S
C329 C439 1.262 . S
C291 C461 1.489 . S
C310 C418 1.352 . S
C334 C420 1.702 . S
C296 C441 1.855 . S
C463 C315 1.329 . S
C30 C442 1.390 . S
C462 C49 1.766 . S
C11 C421 1.301 . S
C482 C139 1.533 . S
C158 C503 1.430 . S
C523 C120 1.345 . S
C502 C101 1.276 1_545 S
C524 C63 1.508 1_655 S
C82 C481 1.372 . S
C106 C483 1.732 . S
C68 C504 1.877 . S
C526 C87 1.345 . S
C144 C505 1.367 . S
C163 C525 1.731 . S
C125 C484 1.280 . S
C287 C360 1.583 . S
C381 C306 1.631 . S
C325 C401 1.642 . S
C116 C380 1.736 . S
C135 C402 1.693 . S
C359 C154 1.721 . S
C59 C423 1.564 . S
C78 C444 1.611 . S
C97 C464 1.617 . S
C230 C443 1.714 . S
C465 C249 1.573 . S
C268 C422 1.688 . S
C173 C486 1.501 . S
C192 C507 1.539 . S
C527 C211 1.649 . S
C2 C506 1.699 . S
C21 C528 1.665 . S
C40 C485 1.685 . S
