# Generated by pormake.
# Topology anh, (6,3)-cn, num edge types: 1
# Building blocks:
#     Node 0, Type 0, BuildingBlock: CUKXOW_clean_sbu_0, # of connection points: 6
#     Node 1, Type 0, BuildingBlock: CUKXOW_clean_sbu_0, # of connection points: 6
#     Node 2, Type 0, BuildingBlock: CUKXOW_clean_sbu_0, # of connection points: 6
#     Node 3, Type 1, BuildingBlock: PAMTOO_clean_linker_0, # of connection points: 3
#     Node 4, Type 1, BuildingBlock: PAMTOO_clean_linker_0, # of connection points: 3
#     Node 5, Type 1, BuildingBlock: PAMTOO_clean_linker_0, # of connection points: 3
#     Node 6, Type 1, BuildingBlock: PAMTOO_clean_linker_0, # of connection points: 3
#     Node 7, Type 1, BuildingBlock: PAMTOO_clean_linker_0, # of connection points: 3
#     Node 8, Type 1, BuildingBlock: PAMTOO_clean_linker_0, # of connection points: 3
#     Edge 9, Type (0, 1), BuildingBlock: CIFDUS_clean_linker_0, # of connection points: 2
#     Edge 10, Type (0, 1), BuildingBlock: CIFDUS_clean_linker_0, # of connection points: 2
#     Edge 11, Type (0, 1), BuildingBlock: CIFDUS_clean_linker_0, # of connection points: 2
#     Edge 12, Type (0, 1), BuildingBlock: CIFDUS_clean_linker_0, # of connection points: 2
#     Edge 13, Type (0, 1), BuildingBlock: CIFDUS_clean_linker_0, # of connection points: 2
#     Edge 14, Type (0, 1), BuildingBlock: CIFDUS_clean_linker_0, # of connection points: 2
#     Edge 15, Type (0, 1), BuildingBlock: CIFDUS_clean_linker_0, # of connection points: 2
#     Edge 16, Type (0, 1), BuildingBlock: CIFDUS_clean_linker_0, # of connection points: 2
#     Edge 17, Type (0, 1), BuildingBlock: CIFDUS_clean_linker_0, # of connection points: 2
#     Edge 18, Type (0, 1), BuildingBlock: CIFDUS_clean_linker_0, # of connection points: 2
#     Edge 19, Type (0, 1), BuildingBlock: CIFDUS_clean_linker_0, # of connection points: 2
#     Edge 20, Type (0, 1), BuildingBlock: CIFDUS_clean_linker_0, # of connection points: 2
#     Edge 21, Type (0, 1), BuildingBlock: CIFDUS_clean_linker_0, # of connection points: 2
#     Edge 22, Type (0, 1), BuildingBlock: CIFDUS_clean_linker_0, # of connection points: 2
#     Edge 23, Type (0, 1), BuildingBlock: CIFDUS_clean_linker_0, # of connection points: 2
#     Edge 24, Type (0, 1), BuildingBlock: CIFDUS_clean_linker_0, # of connection points: 2
#     Edge 25, Type (0, 1), BuildingBlock: CIFDUS_clean_linker_0, # of connection points: 2
#     Edge 26, Type (0, 1), BuildingBlock: CIFDUS_clean_linker_0, # of connection points: 2
# Relax obj value: 0.108
# Max RMSD: 0.158
# Mean RMSD: 0.124
data_MOF--net-anh--node1-CUKXOW_clean_sbu_0--node2-PAMTOO_clean_linker_0--edge1-CIFDUS_clean_linker_0
_symmetry_space_group_name_H-M    P1
_symmetry_Int_Tables_number       1
_symmetry_cell_setting            triclinic
loop_
_symmetry_equiv_pos_as_xyz
'x, y, z'
_cell_length_a     24.959572
_cell_length_b     24.34225
_cell_length_c     41.960215
_cell_angle_alpha  91.242373
_cell_angle_beta   91.48902
_cell_angle_gamma 111.0626
loop_
_atom_site_label
_atom_site_type_symbol
_atom_site_fract_x
_atom_site_fract_y
_atom_site_fract_z
_atom_type_partial_charge
Tb0 Tb 0.09967 0.54601 0.15179 0.0
C1 C 0.07581 0.50229 0.22322 0.0
Tb2 Tb 1.02189 0.41254 0.16486 0.0
O3 O 1.03051 0.5819 0.14846 0.0
O4 O 1.0115 0.49426 0.15636 0.0
O5 O 0.10238 0.54591 0.20402 0.0
C6 C 0.92713 0.32311 0.17769 0.0
O7 O 1.04208 0.44862 0.21313 0.0
C8 C 0.13467 0.43048 0.16142 0.0
C9 C 0.05059 0.45169 0.09541 0.0
O10 O 0.94233 0.37613 0.1899 0.0
O11 O 0.96581 0.31986 0.15827 0.0
O12 O 0.09543 0.37977 0.16758 0.0
O13 O 0.10745 0.46473 0.15847 0.0
O14 O 1.01043 0.41795 0.11391 0.0
O15 O 0.09452 0.49888 0.10622 0.0
C16 C 0.19453 0.63987 0.14575 0.0
O17 O 0.15139 0.62239 0.12517 0.0
O18 O 0.18397 0.60464 0.16946 0.0
C19 C 0.98823 0.53244 0.15263 0.0
Tb20 Tb 0.52315 0.02303 0.50599 0.0
C21 C 0.58164 0.05806 0.43975 0.0
Tb22 Tb 0.64809 0.09576 0.50537 0.0
O23 O 0.50401 0.09805 0.52477 0.0
O24 O 0.57192 0.1118 0.49451 0.0
O25 O 0.53845 0.0203 0.45487 0.0
C26 C 0.75242 0.18046 0.50833 0.0
O27 O 0.62568 0.09854 0.45518 0.0
C28 C 0.62271 0.98025 0.49953 0.0
C29 C 0.59035 0.05596 0.57169 0.0
O30 O 0.70459 0.1882 0.51356 0.0
O31 O 0.74141 0.12506 0.50208 0.0
O32 O 0.66589 0.0195 0.48661 0.0
O33 O 0.59947 1.00742 0.51694 0.0
O34 O 0.63317 0.0956 0.55699 0.0
O35 O 0.5466 0.01646 0.55546 0.0
C36 C 0.41877 0.93887 0.50071 0.0
O37 O 0.43033 0.99172 0.51237 0.0
O38 O 0.46598 0.93332 0.4918 0.0
C39 C 0.54744 0.13739 0.51219 0.0
Tb40 Tb 0.60275 0.56251 0.82224 0.0
C41 C 0.66043 0.5723 0.88881 0.0
Tb42 Tb 0.72613 0.58696 0.82351 0.0
O43 O 0.58731 0.47846 0.84508 0.0
O44 O 0.6537 0.51009 0.81373 0.0
O45 O 0.61662 0.57993 0.87348 0.0
C46 C 0.83028 0.58151 0.83018 0.0
O47 O 0.70444 0.56766 0.87333 0.0
C48 C 0.70209 0.68095 0.81163 0.0
C49 C 0.66518 0.57398 0.75725 0.0
O50 O 0.81383 0.62027 0.8444 0.0
O51 O 0.78816 0.546 0.81267 0.0
O52 O 0.74621 0.67081 0.80124 0.0
O53 O 0.67586 0.64164 0.83091 0.0
O54 O 0.70859 0.56647 0.77283 0.0
O55 O 0.62352 0.5833 0.77265 0.0
C56 C 0.49325 0.54196 0.80616 0.0
O57 O 0.5229 0.51086 0.79734 0.0
O58 O 0.52526 0.58573 0.82468 0.0
C59 C 0.63044 0.46952 0.83262 0.0
H60 H 0.6775 0.06378 0.25942 0.0
H61 H 0.52043 0.91574 0.24075 0.0
H62 H 0.63165 0.98968 0.16423 0.0
H63 H 0.50295 0.92542 0.1393 0.0
C64 C 0.49111 0.91332 0.16424 0.0
O65 O 0.53736 0.90609 0.17994 0.0
H66 H 0.47995 0.94935 0.17569 0.0
C67 C 0.64737 0.03196 0.24295 0.0
C68 C 0.65998 0.03285 0.2105 0.0
C69 C 0.59686 0.99048 0.25434 0.0
C70 C 0.55995 0.9478 0.23276 0.0
C71 C 0.57305 0.9473 0.20047 0.0
C72 C 0.62284 0.98972 0.18938 0.0
H73 H 0.60033 0.66974 0.57419 0.0
H74 H 0.62788 0.50744 0.55777 0.0
H75 H 0.63592 0.62078 0.47973 0.0
H76 H 0.60048 0.48462 0.45396 0.0
C77 C 0.59687 0.4751 0.47976 0.0
O78 O 0.64055 0.51897 0.49652 0.0
H79 H 0.55383 0.47478 0.48648 0.0
C80 C 0.60959 0.63957 0.55782 0.0
C81 C 0.61847 0.65329 0.52548 0.0
C82 C 0.61413 0.58802 0.5698 0.0
C83 C 0.62463 0.54766 0.54889 0.0
C84 C 0.63088 0.55882 0.51637 0.0
C85 C 0.62869 0.61186 0.50473 0.0
H86 H 1.02585 0.44122 0.91109 0.0
H87 H 0.15049 0.35716 0.90554 0.0
H88 H 0.10636 0.43467 0.82275 0.0
H89 H 0.13392 0.35939 0.80161 0.0
C90 C 0.16905 0.35483 0.81688 0.0
O91 O 0.17316 0.38192 0.84655 0.0
H92 H 0.16054 0.3072 0.81988 0.0
C93 C 0.0544 0.42631 0.89723 0.0
C94 C 0.06013 0.43865 0.86479 0.0
C95 C 0.08742 0.39781 0.91231 0.0
C96 C 0.12368 0.37804 0.89412 0.0
C97 C 0.12992 0.39058 0.86176 0.0
C98 C 0.09918 0.42215 0.84734 0.0
H99 H 0.99046 0.41928 0.41507 0.0
H100 H 0.14115 0.57792 0.41958 0.0
H101 H 1.04398 0.51986 0.5033 0.0
H102 H 0.10503 0.66024 0.50099 0.0
C103 C 0.12973 0.65582 0.48004 0.0
O104 O 0.13369 0.60068 0.47994 0.0
H105 H 0.10674 0.66184 0.45805 0.0
C106 C 1.02081 0.45657 0.42846 0.0
C107 C 1.01244 0.46399 0.46099 0.0
C108 C 0.06663 0.49774 0.41297 0.0
C109 C 0.10481 0.54617 0.43075 0.0
C110 C 0.09632 0.55418 0.46314 0.0
C111 C 0.04992 0.51352 0.47818 0.0
H112 H 0.64524 0.96878 0.75019 0.0
H113 H 0.65605 0.1439 0.77678 0.0
H114 H 0.66455 0.0252 0.84935 0.0
H115 H 0.60971 0.11733 0.8747 0.0
C116 C 0.6155 0.13718 0.85082 0.0
O117 O 0.66373 0.13123 0.83799 0.0
H118 H 0.57619 0.11294 0.83584 0.0
C119 C 0.64984 1.00227 0.76859 0.0
C120 C 0.65578 0.98973 0.8008 0.0
C121 C 0.65042 0.0577 0.75963 0.0
C122 C 0.65614 0.10111 0.78329 0.0
C123 C 0.66011 0.08906 0.81555 0.0
C124 C 0.66014 0.03354 0.82435 0.0
H125 H 0.69697 0.52035 0.0793 0.0
H126 H 0.5203 0.50744 0.08073 0.0
H127 H 0.59824 0.45728 0.16233 0.0
H128 H 0.45888 0.38327 0.13904 0.0
C129 C 0.45228 0.42378 0.13116 0.0
O130 O 0.5024 0.47195 0.13869 0.0
H131 H 0.44494 0.41883 0.10482 0.0
C132 C 0.65661 0.50857 0.09127 0.0
C133 C 0.65404 0.48759 0.12233 0.0
C134 C 0.60862 0.51459 0.07546 0.0
C135 C 0.55762 0.50254 0.09218 0.0
C136 C 0.55289 0.48166 0.12336 0.0
C137 C 0.60122 0.47311 0.13829 0.0
H138 H 0.20076 0.36931 0.18327 0.0
H139 H 0.21069 0.51954 0.12811 0.0
H140 H 0.31057 0.53469 0.11594 0.0
H141 H 0.39414 0.5003 0.1177 0.0
H142 H 0.38412 0.35286 0.17542 0.0
H143 H 0.28705 0.34241 0.19009 0.0
C144 C 0.22493 0.40576 0.16883 0.0
C145 C 0.19757 0.44295 0.1565 0.0
C146 C 0.28308 0.41487 0.16237 0.0
C147 C 0.23017 0.49019 0.13804 0.0
C148 C 0.28754 0.49878 0.13097 0.0
C149 C 0.37128 0.46692 0.13417 0.0
C150 C 0.39735 0.42764 0.14549 0.0
C151 C 0.31448 0.46092 0.14263 0.0
C152 C 0.36609 0.38412 0.16645 0.0
C153 C 0.31 0.37772 0.17468 0.0
H154 H 0.78006 0.29872 0.51709 0.0
H155 H 0.8499 0.16721 0.48915 0.0
H156 H 0.9385 0.24407 0.47389 0.0
H157 H 0.99256 0.34799 0.46393 0.0
H158 H 0.92486 0.4805 0.49247 0.0
H159 H 0.83913 0.40421 0.51235 0.0
C160 C 0.81513 0.28712 0.50816 0.0
C161 C 0.80844 0.22752 0.50398 0.0
C162 C 0.86603 0.33165 0.49932 0.0
C163 C 0.85408 0.21285 0.49248 0.0
C164 C 0.90466 0.25673 0.48363 0.0
C165 C 0.9592 0.35999 0.47485 0.0
C166 C 0.96434 0.41932 0.47655 0.0
C167 C 0.9105 0.31611 0.48621 0.0
C168 C 0.92149 0.43488 0.49101 0.0
C169 C 0.87252 0.39133 0.5022 0.0
H170 H 0.64108 0.73615 0.84618 0.0
H171 H 0.74588 0.75288 0.76408 0.0
H172 H 0.74256 0.84956 0.7545 0.0
H173 H 0.71312 0.93064 0.76965 0.0
H174 H 0.60623 0.91748 0.85033 0.0
H175 H 0.60866 0.81947 0.86084 0.0
C176 C 0.66263 0.76093 0.82611 0.0
C177 C 0.69389 0.73734 0.80593 0.0
C178 C 0.66101 0.81759 0.82073 0.0
C179 C 0.72186 0.77005 0.78009 0.0
C180 C 0.72012 0.82552 0.77457 0.0
C181 C 0.68958 0.90622 0.78934 0.0
C182 C 0.659 0.93139 0.8089 0.0
C183 C 0.69033 0.8499 0.79482 0.0
C184 C 0.63042 0.89948 0.83492 0.0
C185 C 0.6314 0.84315 0.84078 0.0
H186 H 0.88301 0.4332 0.15101 0.0
H187 H 0.95253 0.62345 0.15364 0.0
H188 H 0.857 0.62642 0.14834 0.0
H189 H 0.75362 0.57719 0.13834 0.0
H190 H 0.67896 0.38813 0.13539 0.0
H191 H 0.77452 0.38261 0.14592 0.0
C192 C 0.87715 0.47518 0.15088 0.0
C193 C 0.92617 0.52812 0.15253 0.0
C194 C 0.82042 0.47704 0.14777 0.0
C195 C 0.91668 0.58184 0.15218 0.0
C196 C 0.86156 0.58382 0.14917 0.0
C197 C 0.75793 0.53471 0.14092 0.0
C198 C 0.70856 0.48325 0.13664 0.0
C199 C 0.81315 0.53199 0.14638 0.0
C200 C 0.71564 0.4286 0.13931 0.0
C201 C 0.7707 0.42549 0.14492 0.0
H202 H 0.38841 0.83024 0.47251 0.0
H203 H 0.32086 0.94342 0.52523 0.0
H204 H 0.22584 0.86557 0.52391 0.0
H205 H 0.16203 0.76496 0.50798 0.0
H206 H 0.22865 0.65324 0.45336 0.0
H207 H 0.32379 0.73067 0.4551 0.0
C208 C 0.35279 0.83772 0.48365 0.0
C209 C 0.36142 0.89219 0.49903 0.0
C210 C 0.29824 0.79293 0.4826 0.0
C211 C 0.31506 0.9017 0.51326 0.0
C212 C 0.26081 0.85723 0.51255 0.0
C213 C 0.19761 0.75757 0.49673 0.0
C214 C 0.18885 0.70291 0.48154 0.0
C215 C 0.25195 0.80261 0.4974 0.0
C216 C 0.23471 0.69437 0.46605 0.0
C217 C 0.28906 0.73871 0.46689 0.0
H218 H 0.58476 0.38217 0.87359 0.0
H219 H 0.69707 0.42994 0.79434 0.0
H220 H 0.70529 0.33253 0.79373 0.0
H221 H 0.67535 0.23139 0.81378 0.0
H222 H 0.56338 0.18492 0.8933 0.0
H223 H 0.56012 0.28401 0.89575 0.0
C224 C 0.61135 0.37135 0.85633 0.0
C225 C 0.63985 0.4129 0.83387 0.0
C226 C 0.61581 0.31538 0.85614 0.0
C227 C 0.67461 0.39859 0.81183 0.0
C228 C 0.67915 0.34284 0.81142 0.0
C229 C 0.65109 0.24325 0.83199 0.0
C230 C 0.62045 0.20099 0.85377 0.0
C231 C 0.64927 0.30051 0.83319 0.0
C232 C 0.58816 0.21691 0.8767 0.0
C233 C 0.58605 0.27348 0.87801 0.0
H234 H 0.59382 0.8796 0.46233 0.0
H235 H 0.65755 0.95317 0.5562 0.0
H236 H 0.66573 0.86016 0.57159 0.0
H237 H 0.65567 0.75916 0.55847 0.0
H238 H 0.58167 0.67968 0.4669 0.0
H239 H 0.57862 0.77416 0.45009 0.0
C240 C 0.60929 0.87483 0.48612 0.0
C241 C 0.62514 0.92282 0.50819 0.0
C242 C 0.61263 0.82051 0.49507 0.0
C243 C 0.64498 0.91655 0.53897 0.0
C244 C 0.6498 0.86351 0.54771 0.0
C245 C 0.63755 0.76156 0.53503 0.0
C246 C 0.61823 0.71138 0.51426 0.0
C247 C 0.63363 0.81521 0.52601 0.0
C248 C 0.5974 0.71719 0.48347 0.0
C249 C 0.59511 0.77124 0.47389 0.0
H250 H 0.86889 0.50829 0.7975 0.0
H251 H 0.91275 0.63533 0.87619 0.0
H252 H 0.99444 0.60714 0.89155 0.0
H253 H 0.04459 0.53722 0.88651 0.0
H254 H 0.99749 0.40751 0.80904 0.0
H255 H 0.92637 0.44681 0.78866 0.0
C256 C 0.89699 0.53044 0.81769 0.0
C257 C 0.88477 0.57299 0.83607 0.0
C258 C 0.94286 0.51331 0.82659 0.0
C259 C 0.9215 0.60212 0.8619 0.0
C260 C 0.96789 0.58584 0.87073 0.0
C261 C 1.01908 0.5181 0.86498 0.0
C262 C 1.02518 0.469 0.84955 0.0
C263 C 0.97761 0.54004 0.8539 0.0
C264 C 0.99319 0.44528 0.82127 0.0
C265 C 0.95236 0.46743 0.80978 0.0
H266 H 0.28247 0.67848 0.18882 0.0
H267 H 0.22417 0.71777 0.09749 0.0
H268 H 0.31183 0.8054 0.09477 0.0
H269 H 0.40445 0.8716 0.11921 0.0
H270 H 0.45994 0.83154 0.21118 0.0
H271 H 0.37388 0.74359 0.21291 0.0
C272 C 0.28903 0.70617 0.16828 0.0
C273 C 0.24722 0.692 0.14339 0.0
C274 C 0.33901 0.75625 0.16703 0.0
C275 C 0.25599 0.72807 0.11692 0.0
C276 C 0.30599 0.77806 0.11539 0.0
C277 C 0.39778 0.84314 0.13942 0.0
C278 C 0.43916 0.85738 0.16465 0.0
C279 C 0.34774 0.79265 0.14039 0.0
C280 C 0.42941 0.82116 0.19116 0.0
C281 C 0.38009 0.77083 0.19223 0.0
H282 H 0.62063 0.2236 0.47638 0.0
H283 H 0.49407 0.19394 0.54849 0.0
H284 H 0.50143 0.29652 0.54674 0.0
H285 H 0.53889 0.39332 0.52225 0.0
H286 H 0.66388 0.42368 0.44948 0.0
H287 H 0.663 0.32304 0.45425 0.0
C288 C 0.59513 0.23985 0.49189 0.0
C289 C 0.55646 0.20104 0.51234 0.0
C290 C 0.59919 0.29911 0.49056 0.0
C291 C 0.5238 0.22275 0.53235 0.0
C292 C 0.52797 0.28147 0.53138 0.0
C293 C 0.56616 0.37787 0.50763 0.0
C294 C 0.60062 0.4153 0.48515 0.0
C295 C 0.56472 0.3198 0.5102 0.0
C296 C 0.6365 0.39525 0.46667 0.0
C297 C 0.63585 0.33772 0.46934 0.0
H298 H 0.42556 0.43794 0.78043 0.0
H299 H 0.42158 0.60166 0.81966 0.0
H300 H 0.31617 0.56006 0.81826 0.0
H301 H 0.22791 0.47234 0.81456 0.0
H302 H 0.23556 0.30471 0.78479 0.0
H303 H 0.33677 0.35292 0.77238 0.0
C304 C 0.4016 0.46493 0.78815 0.0
C305 C 0.43083 0.52242 0.80054 0.0
C306 C 0.34181 0.43972 0.78894 0.0
C307 C 0.39963 0.55709 0.81034 0.0
C308 C 0.33959 0.53327 0.80956 0.0
C309 C 0.25167 0.44665 0.80483 0.0
C310 C 0.22528 0.38495 0.80146 0.0
C311 C 0.31054 0.47389 0.80022 0.0
C312 C 0.25557 0.35206 0.78812 0.0
C313 C 0.31337 0.37956 0.78129 0.0
H314 H 0.89109 0.20843 0.15668 0.0
H315 H 0.84353 0.33067 0.21502 0.0
H316 H 0.75553 0.25194 0.22904 0.0
H317 H 0.69343 0.14857 0.22594 0.0
H318 H 0.74001 0.02419 0.16896 0.0
H319 H 0.82659 0.10369 0.15262 0.0
C320 C 0.86127 0.21759 0.17239 0.0
C321 C 0.87375 0.27494 0.18502 0.0
C322 C 0.81067 0.17192 0.18048 0.0
C323 C 0.8349 0.28666 0.2052 0.0
C324 C 0.78457 0.24175 0.2132 0.0
C325 C 0.72274 0.13876 0.2101 0.0
C326 C 0.71086 0.08063 0.19898 0.0
C327 C 0.77234 0.18424 0.20122 0.0
C328 C 0.74832 0.06873 0.1778 0.0
C329 C 0.79789 0.11406 0.16861 0.0
H330 H 0.13992 0.46543 0.05748 0.0
H331 H 0.95479 0.39544 0.05833 0.0
H332 H 0.94977 0.36512 0.00206 0.0
H333 H 0.99812 0.36454 0.95194 0.0
H334 H 0.18322 0.43437 0.95118 0.0
H335 H 0.18834 0.45676 0.00845 0.0
C336 C 0.09856 0.44374 0.04523 0.0
C337 C 0.04779 0.43361 0.06163 0.0
C338 C 0.09606 0.42555 0.01315 0.0
C339 C 0.9944 0.40408 0.04594 0.0
C340 C 0.99151 0.38661 0.01387 0.0
C341 C 1.0395 0.38371 0.96451 0.0
C342 C 0.09015 0.398 0.9475 0.0
C343 C 1.04206 0.39774 -0.00282 0.0
C344 C 0.14364 0.42236 0.96392 0.0
C345 C 0.14659 0.43596 -0.00346 0.0
H346 H 0.54102 0.96054 0.40077 0.0
H347 H 0.62278 0.14961 0.40041 0.0
H348 H 0.62973 0.14541 0.34249 0.0
H349 H 0.61693 0.08806 0.29267 0.0
H350 H 0.54534 0.89803 0.29334 0.0
H351 H 0.52838 0.90261 0.35023 0.0
C352 C 0.55963 1.00075 0.38786 0.0
C353 C 0.5812 0.05532 0.40465 0.0
C354 C 0.5653 0.99781 0.35468 0.0
C355 C 0.60606 0.10714 0.38789 0.0
C356 C 0.61004 0.10474 0.35483 0.0
C357 C 0.59827 0.04744 0.30521 0.0
C358 C 0.58316 0.99276 0.28861 0.0
C359 C 0.59076 0.05027 0.33809 0.0
C360 C 0.5571 0.94082 0.30528 0.0
C361 C 0.54779 0.94336 0.33793 0.0
H362 H 0.58165 0.58521 0.71803 0.0
H363 H 0.74289 0.55712 0.71699 0.0
H364 H 0.73876 0.55404 0.65874 0.0
H365 H 0.69136 0.56368 0.60803 0.0
H366 H 0.53161 0.59414 0.60942 0.0
H367 H 0.53283 0.59134 0.66766 0.0
C368 C 0.61595 0.57835 0.70514 0.0
C369 C 0.6627 0.5718 0.72193 0.0
C370 C 0.61341 0.57679 0.67168 0.0
C371 C 0.70653 0.56262 0.70473 0.0
C372 C 0.70416 0.56072 0.67138 0.0
C373 C 0.65638 0.56864 0.62114 0.0
C374 C 0.6114 0.57897 0.60459 0.0
C375 C 0.658 0.56813 0.65461 0.0
C376 C 0.56673 0.5863 0.62176 0.0
C377 C 0.5675 0.58485 0.65499 0.0
H378 H 0.66561 0.13222 0.6156 0.0
H379 H 0.52099 0.96769 0.60677 0.0
H380 H 0.52581 0.95533 0.66383 0.0
H381 H 0.572 0.98894 0.7162 0.0
H382 H 0.71599 0.15292 0.72657 0.0
H383 H 0.70992 0.16821 0.66921 0.0
C384 C 0.63513 0.09379 0.6262 0.0
C385 C 0.59325 0.05092 0.60676 0.0
C386 C 0.63784 0.08682 0.65937 0.0
C387 C 0.55377 1.00154 0.62098 0.0
C388 C 0.55642 0.99424 0.65371 0.0
C389 C 0.60212 0.02798 0.70586 0.0
C390 C 0.64467 0.06943 0.72543 0.0
C391 C 0.59846 0.03626 0.67307 0.0
C392 C 0.68271 0.12045 0.71192 0.0
C393 C 0.67945 0.12901 0.67913 0.0
H394 H 0.59693 0.60245 0.93419 0.0
H395 H 0.71696 0.5135 0.92122 0.0
H396 H 0.71024 0.48712 0.97682 0.0
H397 H 0.66876 0.48601 0.02856 0.0
H398 H 0.55529 0.58163 0.04447 0.0
H399 H 0.55977 0.60693 0.98831 0.0
C400 C 0.62179 0.57761 0.94364 0.0
C401 C 0.65753 0.56025 0.92342 0.0
C402 C 0.61848 0.56304 0.97614 0.0
C403 C 0.68955 0.52813 0.93613 0.0
C404 C 0.68554 0.51262 0.96799 0.0
C405 C 0.64588 0.51358 0.02021 0.0
C406 C 0.6119 0.53183 0.04122 0.0
C407 C 0.6501 0.52966 0.98818 0.0
C408 C 0.58121 0.56591 0.02907 0.0
C409 C 0.58412 0.58093 -0.00311 0.0
H410 H 0.0617 0.42117 0.26829 0.0
H411 H 0.10728 0.60799 0.25663 0.0
H412 H 0.11165 0.62367 0.31467 0.0
H413 H 0.09567 0.58292 0.36845 0.0
H414 H 0.05258 0.39604 0.37922 0.0
H415 H 0.05357 0.3818 0.32162 0.0
C416 C 0.07271 0.46543 0.27838 0.0
C417 C 0.08337 0.51326 0.25816 0.0
C418 C 0.07516 0.47402 0.31158 0.0
C419 C 0.09873 0.5704 0.27168 0.0
C420 C 0.10103 0.57934 0.30485 0.0
C421 C 0.0875 0.53923 0.35826 0.0
C422 C 0.07325 0.4905 0.37818 0.0
C423 C 0.08846 0.53131 0.32501 0.0
C424 C 0.06237 0.43413 0.36446 0.0
C425 C 0.06321 0.42595 0.33152 0.0
loop_
_geom_bond_atom_site_label_1
_geom_bond_atom_site_label_2
_geom_bond_distance
_geom_bond_site_symmetry_2
_ccdc_geom_bond_type
Tb0 O3 2.453 1_455 S
Tb0 O4 2.596 1_455 S
Tb0 O5 2.374 . S
Tb0 O13 2.343 . S
Tb0 O15 2.353 . S
Tb0 O17 2.427 . S
Tb0 O18 2.513 . S
C1 O5 1.251 1_655 S
C1 O7 1.263 . S
Tb2 O4 2.343 . S
Tb2 O7 2.353 . S
Tb2 O10 2.427 . S
Tb2 O11 2.513 . S
Tb2 O12 2.453 1_655 S
Tb2 O13 2.596 1_655 S
Tb2 O14 2.374 . S
O3 Tb0 2.453 1_655 S
O3 C19 1.245 . S
O4 Tb0 2.596 1_655 S
O4 Tb2 2.343 . S
O4 C19 1.259 . S
O5 Tb0 2.374 . S
O5 C1 1.251 1_455 S
C6 O10 1.275 . S
C6 O11 1.246 . S
O7 C1 1.263 . S
O7 Tb2 2.353 . S
C8 O12 1.245 . S
C8 O13 1.259 . S
C9 O14 1.250 1_455 S
C9 O15 1.263 . S
O10 Tb2 2.427 . S
O10 C6 1.275 . S
O11 Tb2 2.513 . S
O11 C6 1.246 . S
O12 Tb2 2.453 1_455 S
O12 C8 1.245 . S
O13 Tb0 2.343 . S
O13 Tb2 2.596 1_455 S
O13 C8 1.259 . S
O14 Tb2 2.374 . S
O14 C9 1.250 1_655 S
O15 Tb0 2.353 . S
O15 C9 1.263 . S
C16 O17 1.275 . S
C16 O18 1.246 . S
O17 Tb0 2.427 . S
O17 C16 1.275 . S
O18 Tb0 2.513 . S
O18 C16 1.246 . S
C19 O3 1.245 . S
C19 O4 1.259 . S
Tb20 O23 2.453 1_565 S
Tb20 O24 2.596 1_565 S
Tb20 O25 2.374 1_565 S
Tb20 O33 2.343 . S
Tb20 O35 2.353 1_565 S
Tb20 O37 2.427 . S
Tb20 O38 2.513 . S
C21 O25 1.251 . S
C21 O27 1.263 . S
Tb22 O24 2.343 . S
Tb22 O27 2.353 . S
Tb22 O30 2.427 . S
Tb22 O31 2.513 . S
Tb22 O32 2.453 1_545 S
Tb22 O33 2.596 1_545 S
Tb22 O34 2.374 . S
O23 Tb20 2.453 1_545 S
O23 C39 1.245 . S
O24 Tb20 2.596 1_545 S
O24 Tb22 2.343 . S
O24 C39 1.259 . S
O25 Tb20 2.374 1_545 S
O25 C21 1.251 . S
C26 O30 1.275 . S
C26 O31 1.246 . S
O27 C21 1.263 . S
O27 Tb22 2.353 . S
C28 O32 1.245 . S
C28 O33 1.259 . S
C29 O34 1.250 . S
C29 O35 1.263 . S
O30 Tb22 2.427 . S
O30 C26 1.275 . S
O31 Tb22 2.513 . S
O31 C26 1.246 . S
O32 Tb22 2.453 1_565 S
O32 C28 1.245 . S
O33 Tb20 2.343 . S
O33 Tb22 2.596 1_565 S
O33 C28 1.259 . S
O34 Tb22 2.374 . S
O34 C29 1.250 . S
O35 Tb20 2.353 1_545 S
O35 C29 1.263 . S
C36 O37 1.275 . S
C36 O38 1.246 . S
O37 Tb20 2.427 . S
O37 C36 1.275 . S
O38 Tb20 2.513 . S
O38 C36 1.246 . S
C39 O23 1.245 . S
C39 O24 1.259 . S
Tb40 O43 2.453 . S
Tb40 O44 2.596 . S
Tb40 O45 2.374 . S
Tb40 O53 2.343 . S
Tb40 O55 2.353 . S
Tb40 O57 2.427 . S
Tb40 O58 2.513 . S
C41 O45 1.251 . S
C41 O47 1.263 . S
Tb42 O44 2.343 . S
Tb42 O47 2.353 . S
Tb42 O50 2.427 . S
Tb42 O51 2.513 . S
Tb42 O52 2.453 . S
Tb42 O53 2.596 . S
Tb42 O54 2.374 . S
O43 Tb40 2.453 . S
O43 C59 1.245 . S
O44 Tb40 2.596 . S
O44 Tb42 2.343 . S
O44 C59 1.259 . S
O45 Tb40 2.374 . S
O45 C41 1.251 . S
C46 O50 1.275 . S
C46 O51 1.246 . S
O47 C41 1.263 . S
O47 Tb42 2.353 . S
C48 O52 1.245 . S
C48 O53 1.259 . S
C49 O54 1.250 . S
C49 O55 1.263 . S
O50 Tb42 2.427 . S
O50 C46 1.275 . S
O51 Tb42 2.513 . S
O51 C46 1.246 . S
O52 Tb42 2.453 . S
O52 C48 1.245 . S
O53 Tb40 2.343 . S
O53 Tb42 2.596 . S
O53 C48 1.259 . S
O54 Tb42 2.374 . S
O54 C49 1.250 . S
O55 Tb40 2.353 . S
O55 C49 1.263 . S
C56 O57 1.275 . S
C56 O58 1.246 . S
O57 Tb40 2.427 . S
O57 C56 1.275 . S
O58 Tb40 2.513 . S
O58 C56 1.246 . S
C59 O43 1.245 . S
C59 O44 1.259 . S
H60 C67 0.929 . S
H61 C70 0.930 . S
H62 C72 0.929 . S
H63 C64 0.969 . S
C64 H63 0.969 . S
C64 O65 1.550 . S
C64 H66 0.973 . S
O65 C64 1.550 . S
O65 C71 1.412 . S
H66 C64 0.973 . S
C67 H60 0.929 . S
C67 C68 1.400 . S
C67 C69 1.364 . S
C68 C67 1.400 . S
C68 C72 1.377 . S
C69 C67 1.364 . S
C69 C70 1.374 1_545 S
C70 H61 0.930 . S
C70 C69 1.374 1_565 S
C70 C71 1.383 . S
C71 O65 1.412 . S
C71 C70 1.383 . S
C71 C72 1.394 1_565 S
C72 H62 0.929 . S
C72 C68 1.377 . S
C72 C71 1.394 1_545 S
H73 C80 0.929 . S
H74 C83 0.930 . S
H75 C85 0.929 . S
H76 C77 0.969 . S
C77 H76 0.969 . S
C77 O78 1.550 . S
C77 H79 0.973 . S
O78 C77 1.550 . S
O78 C84 1.412 . S
H79 C77 0.973 . S
C80 H73 0.929 . S
C80 C81 1.400 . S
C80 C82 1.364 . S
C81 C80 1.400 . S
C81 C85 1.377 . S
C82 C80 1.364 . S
C82 C83 1.374 . S
C83 H74 0.930 . S
C83 C82 1.374 . S
C83 C84 1.383 . S
C84 O78 1.412 . S
C84 C83 1.383 . S
C84 C85 1.394 . S
C85 H75 0.929 . S
C85 C81 1.377 . S
C85 C84 1.394 . S
H86 C93 0.929 1_655 S
H87 C96 0.930 . S
H88 C98 0.929 . S
H89 C90 0.969 . S
C90 H89 0.969 . S
C90 O91 1.550 . S
C90 H92 0.973 . S
O91 C90 1.550 . S
O91 C97 1.412 . S
H92 C90 0.973 . S
C93 H86 0.929 1_455 S
C93 C94 1.400 . S
C93 C95 1.364 . S
C94 C93 1.400 . S
C94 C98 1.377 . S
C95 C93 1.364 . S
C95 C96 1.374 . S
C96 H87 0.930 . S
C96 C95 1.374 . S
C96 C97 1.383 . S
C97 O91 1.412 . S
C97 C96 1.383 . S
C97 C98 1.394 . S
C98 H88 0.929 . S
C98 C94 1.377 . S
C98 C97 1.394 . S
H99 C106 0.929 . S
H100 C109 0.930 . S
H101 C111 0.929 . S
H102 C103 0.969 . S
C103 H102 0.969 . S
C103 O104 1.550 . S
C103 H105 0.973 . S
O104 C103 1.550 . S
O104 C110 1.412 . S
H105 C103 0.973 . S
C106 H99 0.929 . S
C106 C107 1.400 . S
C106 C108 1.364 1_655 S
C107 C106 1.400 . S
C107 C111 1.377 1_655 S
C108 C106 1.364 1_455 S
C108 C109 1.374 . S
C109 H100 0.930 . S
C109 C108 1.374 . S
C109 C110 1.383 . S
C110 O104 1.412 . S
C110 C109 1.383 . S
C110 C111 1.394 . S
C111 H101 0.929 . S
C111 C107 1.377 1_455 S
C111 C110 1.394 . S
H112 C119 0.929 . S
H113 C122 0.930 . S
H114 C124 0.929 . S
H115 C116 0.969 . S
C116 H115 0.969 . S
C116 O117 1.550 . S
C116 H118 0.973 . S
O117 C116 1.550 . S
O117 C123 1.412 . S
H118 C116 0.973 . S
C119 H112 0.929 . S
C119 C120 1.400 . S
C119 C121 1.383 . S
C120 C119 1.400 . S
C120 C124 1.377 . S
C121 C119 1.383 . S
C121 C122 1.357 1_565 S
C122 H113 0.930 . S
C122 C121 1.357 1_545 S
C122 C123 1.383 . S
C123 O117 1.412 . S
C123 C122 1.383 . S
C123 C124 1.394 1_545 S
C124 H114 0.929 . S
C124 C120 1.377 . S
C124 C123 1.394 1_565 S
H125 C132 0.929 . S
H126 C135 0.930 . S
H127 C137 0.929 . S
H128 C129 0.969 . S
C129 H128 0.969 . S
C129 O130 1.550 . S
C129 H131 0.973 . S
O130 C129 1.550 . S
O130 C136 1.412 . S
H131 C129 0.973 . S
C132 H125 0.929 . S
C132 C133 1.400 . S
C132 C134 1.364 . S
C133 C132 1.400 . S
C133 C137 1.377 . S
C134 C132 1.364 . S
C134 C135 1.374 . S
C135 H126 0.930 . S
C135 C134 1.374 . S
C135 C136 1.383 . S
C136 O130 1.412 . S
C136 C135 1.383 . S
C136 C137 1.394 . S
C137 H127 0.929 . S
C137 C133 1.377 . S
C137 C136 1.394 . S
H138 C144 0.930 . S
H139 C147 0.930 . S
H140 C148 0.930 . S
H141 C149 0.930 . S
H142 C152 0.930 . S
H143 C153 0.930 . S
C144 H138 0.930 . S
C144 C145 1.355 . S
C144 C146 1.415 . S
C145 C144 1.355 . S
C145 C147 1.419 . S
C146 C144 1.415 . S
C146 C151 1.425 . S
C146 C153 1.409 . S
C147 H139 0.930 . S
C147 C145 1.419 . S
C147 C148 1.362 . S
C148 H140 0.930 . S
C148 C147 1.362 . S
C148 C151 1.409 . S
C149 H141 0.930 . S
C149 C150 1.355 . S
C149 C151 1.415 . S
C150 C149 1.355 . S
C150 C152 1.419 . S
C151 C146 1.425 . S
C151 C148 1.409 . S
C151 C149 1.415 . S
C152 H142 0.930 . S
C152 C150 1.419 . S
C152 C153 1.362 . S
C153 H143 0.930 . S
C153 C146 1.409 . S
C153 C152 1.362 . S
H154 C160 0.930 . S
H155 C163 0.930 . S
H156 C164 0.930 . S
H157 C165 0.930 . S
H158 C168 0.930 . S
H159 C169 0.930 . S
C160 H154 0.930 . S
C160 C161 1.355 . S
C160 C162 1.415 . S
C161 C160 1.355 . S
C161 C163 1.419 . S
C162 C160 1.415 . S
C162 C167 1.425 . S
C162 C169 1.409 . S
C163 H155 0.930 . S
C163 C161 1.419 . S
C163 C164 1.362 . S
C164 H156 0.930 . S
C164 C163 1.362 . S
C164 C167 1.409 . S
C165 H157 0.930 . S
C165 C166 1.355 . S
C165 C167 1.415 . S
C166 C165 1.355 . S
C166 C168 1.419 . S
C167 C162 1.425 . S
C167 C164 1.409 . S
C167 C165 1.415 . S
C168 H158 0.930 . S
C168 C166 1.419 . S
C168 C169 1.362 . S
C169 H159 0.930 . S
C169 C162 1.409 . S
C169 C168 1.362 . S
H170 C176 0.930 . S
H171 C179 0.930 . S
H172 C180 0.930 . S
H173 C181 0.930 . S
H174 C184 0.930 . S
H175 C185 0.930 . S
C176 H170 0.930 . S
C176 C177 1.355 . S
C176 C178 1.415 . S
C177 C176 1.355 . S
C177 C179 1.419 . S
C178 C176 1.415 . S
C178 C183 1.425 . S
C178 C185 1.409 . S
C179 H171 0.930 . S
C179 C177 1.419 . S
C179 C180 1.362 . S
C180 H172 0.930 . S
C180 C179 1.362 . S
C180 C183 1.409 . S
C181 H173 0.930 . S
C181 C182 1.355 . S
C181 C183 1.415 . S
C182 C181 1.355 . S
C182 C184 1.419 . S
C183 C178 1.425 . S
C183 C180 1.409 . S
C183 C181 1.415 . S
C184 H174 0.930 . S
C184 C182 1.419 . S
C184 C185 1.362 . S
C185 H175 0.930 . S
C185 C178 1.409 . S
C185 C184 1.362 . S
H186 C192 0.930 . S
H187 C195 0.930 . S
H188 C196 0.930 . S
H189 C197 0.930 . S
H190 C200 0.930 . S
H191 C201 0.930 . S
C192 H186 0.930 . S
C192 C193 1.355 . S
C192 C194 1.415 . S
C193 C192 1.355 . S
C193 C195 1.419 . S
C194 C192 1.415 . S
C194 C199 1.425 . S
C194 C201 1.409 . S
C195 H187 0.930 . S
C195 C193 1.419 . S
C195 C196 1.362 . S
C196 H188 0.930 . S
C196 C195 1.362 . S
C196 C199 1.409 . S
C197 H189 0.930 . S
C197 C198 1.355 . S
C197 C199 1.415 . S
C198 C197 1.355 . S
C198 C200 1.419 . S
C199 C194 1.425 . S
C199 C196 1.409 . S
C199 C197 1.415 . S
C200 H190 0.930 . S
C200 C198 1.419 . S
C200 C201 1.362 . S
C201 H191 0.930 . S
C201 C194 1.409 . S
C201 C200 1.362 . S
H202 C208 0.930 . S
H203 C211 0.930 . S
H204 C212 0.930 . S
H205 C213 0.930 . S
H206 C216 0.930 . S
H207 C217 0.930 . S
C208 H202 0.930 . S
C208 C209 1.355 . S
C208 C210 1.415 . S
C209 C208 1.355 . S
C209 C211 1.419 . S
C210 C208 1.415 . S
C210 C215 1.425 . S
C210 C217 1.409 . S
C211 H203 0.930 . S
C211 C209 1.419 . S
C211 C212 1.362 . S
C212 H204 0.930 . S
C212 C211 1.362 . S
C212 C215 1.409 . S
C213 H205 0.930 . S
C213 C214 1.355 . S
C213 C215 1.415 . S
C214 C213 1.355 . S
C214 C216 1.419 . S
C215 C210 1.425 . S
C215 C212 1.409 . S
C215 C213 1.415 . S
C216 H206 0.930 . S
C216 C214 1.419 . S
C216 C217 1.362 . S
C217 H207 0.930 . S
C217 C210 1.409 . S
C217 C216 1.362 . S
H218 C224 0.930 . S
H219 C227 0.930 . S
H220 C228 0.930 . S
H221 C229 0.930 . S
H222 C232 0.930 . S
H223 C233 0.930 . S
C224 H218 0.930 . S
C224 C225 1.355 . S
C224 C226 1.415 . S
C225 C224 1.355 . S
C225 C227 1.419 . S
C226 C224 1.415 . S
C226 C231 1.425 . S
C226 C233 1.409 . S
C227 H219 0.930 . S
C227 C225 1.419 . S
C227 C228 1.362 . S
C228 H220 0.930 . S
C228 C227 1.362 . S
C228 C231 1.409 . S
C229 H221 0.930 . S
C229 C230 1.355 . S
C229 C231 1.415 . S
C230 C229 1.355 . S
C230 C232 1.419 . S
C231 C226 1.425 . S
C231 C228 1.409 . S
C231 C229 1.415 . S
C232 H222 0.930 . S
C232 C230 1.419 . S
C232 C233 1.362 . S
C233 H223 0.930 . S
C233 C226 1.409 . S
C233 C232 1.362 . S
H234 C240 0.930 . S
H235 C243 0.930 . S
H236 C244 0.930 . S
H237 C245 0.930 . S
H238 C248 0.930 . S
H239 C249 0.930 . S
C240 H234 0.930 . S
C240 C241 1.355 . S
C240 C242 1.415 . S
C241 C240 1.355 . S
C241 C243 1.419 . S
C242 C240 1.415 . S
C242 C247 1.425 . S
C242 C249 1.409 . S
C243 H235 0.930 . S
C243 C241 1.419 . S
C243 C244 1.362 . S
C244 H236 0.930 . S
C244 C243 1.362 . S
C244 C247 1.409 . S
C245 H237 0.930 . S
C245 C246 1.355 . S
C245 C247 1.415 . S
C246 C245 1.355 . S
C246 C248 1.419 . S
C247 C242 1.425 . S
C247 C244 1.409 . S
C247 C245 1.415 . S
C248 H238 0.930 . S
C248 C246 1.419 . S
C248 C249 1.362 . S
C249 H239 0.930 . S
C249 C242 1.409 . S
C249 C248 1.362 . S
H250 C256 0.930 . S
H251 C259 0.930 . S
H252 C260 0.930 . S
H253 C261 0.930 . S
H254 C264 0.930 . S
H255 C265 0.930 . S
C256 H250 0.930 . S
C256 C257 1.355 . S
C256 C258 1.415 . S
C257 C256 1.355 . S
C257 C259 1.419 . S
C258 C256 1.415 . S
C258 C263 1.425 . S
C258 C265 1.409 . S
C259 H251 0.930 . S
C259 C257 1.419 . S
C259 C260 1.362 . S
C260 H252 0.930 . S
C260 C259 1.362 . S
C260 C263 1.409 . S
C261 H253 0.930 . S
C261 C262 1.355 . S
C261 C263 1.415 . S
C262 C261 1.355 . S
C262 C264 1.419 . S
C263 C258 1.425 . S
C263 C260 1.409 . S
C263 C261 1.415 . S
C264 H254 0.930 . S
C264 C262 1.419 . S
C264 C265 1.362 . S
C265 H255 0.930 . S
C265 C258 1.409 . S
C265 C264 1.362 . S
H266 C272 0.930 . S
H267 C275 0.930 . S
H268 C276 0.930 . S
H269 C277 0.930 . S
H270 C280 0.930 . S
H271 C281 0.930 . S
C272 H266 0.930 . S
C272 C273 1.355 . S
C272 C274 1.415 . S
C273 C272 1.355 . S
C273 C275 1.419 . S
C274 C272 1.415 . S
C274 C279 1.425 . S
C274 C281 1.409 . S
C275 H267 0.930 . S
C275 C273 1.419 . S
C275 C276 1.362 . S
C276 H268 0.930 . S
C276 C275 1.362 . S
C276 C279 1.409 . S
C277 H269 0.930 . S
C277 C278 1.355 . S
C277 C279 1.415 . S
C278 C277 1.355 . S
C278 C280 1.419 . S
C279 C274 1.425 . S
C279 C276 1.409 . S
C279 C277 1.415 . S
C280 H270 0.930 . S
C280 C278 1.419 . S
C280 C281 1.362 . S
C281 H271 0.930 . S
C281 C274 1.409 . S
C281 C280 1.362 . S
H282 C288 0.930 . S
H283 C291 0.930 . S
H284 C292 0.930 . S
H285 C293 0.930 . S
H286 C296 0.930 . S
H287 C297 0.930 . S
C288 H282 0.930 . S
C288 C289 1.355 . S
C288 C290 1.415 . S
C289 C288 1.355 . S
C289 C291 1.419 . S
C290 C288 1.415 . S
C290 C295 1.425 . S
C290 C297 1.409 . S
C291 H283 0.930 . S
C291 C289 1.419 . S
C291 C292 1.362 . S
C292 H284 0.930 . S
C292 C291 1.362 . S
C292 C295 1.409 . S
C293 H285 0.930 . S
C293 C294 1.355 . S
C293 C295 1.415 . S
C294 C293 1.355 . S
C294 C296 1.419 . S
C295 C290 1.425 . S
C295 C292 1.409 . S
C295 C293 1.415 . S
C296 H286 0.930 . S
C296 C294 1.419 . S
C296 C297 1.362 . S
C297 H287 0.930 . S
C297 C290 1.409 . S
C297 C296 1.362 . S
H298 C304 0.930 . S
H299 C307 0.930 . S
H300 C308 0.930 . S
H301 C309 0.930 . S
H302 C312 0.930 . S
H303 C313 0.930 . S
C304 H298 0.930 . S
C304 C305 1.355 . S
C304 C306 1.415 . S
C305 C304 1.355 . S
C305 C307 1.419 . S
C306 C304 1.415 . S
C306 C311 1.425 . S
C306 C313 1.409 . S
C307 H299 0.930 . S
C307 C305 1.419 . S
C307 C308 1.362 . S
C308 H300 0.930 . S
C308 C307 1.362 . S
C308 C311 1.409 . S
C309 H301 0.930 . S
C309 C310 1.355 . S
C309 C311 1.415 . S
C310 C309 1.355 . S
C310 C312 1.419 . S
C311 C306 1.425 . S
C311 C308 1.409 . S
C311 C309 1.415 . S
C312 H302 0.930 . S
C312 C310 1.419 . S
C312 C313 1.362 . S
C313 H303 0.930 . S
C313 C306 1.409 . S
C313 C312 1.362 . S
H314 C320 0.930 . S
H315 C323 0.930 . S
H316 C324 0.930 . S
H317 C325 0.930 . S
H318 C328 0.930 . S
H319 C329 0.930 . S
C320 H314 0.930 . S
C320 C321 1.355 . S
C320 C322 1.415 . S
C321 C320 1.355 . S
C321 C323 1.419 . S
C322 C320 1.415 . S
C322 C327 1.425 . S
C322 C329 1.409 . S
C323 H315 0.930 . S
C323 C321 1.419 . S
C323 C324 1.362 . S
C324 H316 0.930 . S
C324 C323 1.362 . S
C324 C327 1.409 . S
C325 H317 0.930 . S
C325 C326 1.355 . S
C325 C327 1.415 . S
C326 C325 1.355 . S
C326 C328 1.419 . S
C327 C322 1.425 . S
C327 C324 1.409 . S
C327 C325 1.415 . S
C328 H318 0.930 . S
C328 C326 1.419 . S
C328 C329 1.362 . S
C329 H319 0.930 . S
C329 C322 1.409 . S
C329 C328 1.362 . S
H330 C336 0.930 . S
H331 C339 0.930 . S
H332 C340 0.930 . S
H333 C341 0.930 . S
H334 C344 0.930 . S
H335 C345 0.930 . S
C336 H330 0.930 . S
C336 C337 1.355 . S
C336 C338 1.415 . S
C337 C336 1.355 . S
C337 C339 1.419 . S
C338 C336 1.415 . S
C338 C343 1.425 1_554 S
C338 C345 1.409 1_554 S
C339 H331 0.930 . S
C339 C337 1.419 . S
C339 C340 1.362 . S
C340 H332 0.930 . S
C340 C339 1.362 . S
C340 C343 1.409 1_554 S
C341 H333 0.930 . S
C341 C342 1.355 . S
C341 C343 1.415 . S
C342 C341 1.355 . S
C342 C344 1.419 . S
C343 C338 1.425 1_556 S
C343 C340 1.409 1_556 S
C343 C341 1.415 . S
C344 H334 0.930 . S
C344 C342 1.419 . S
C344 C345 1.362 . S
C345 H335 0.930 . S
C345 C338 1.409 1_556 S
C345 C344 1.362 . S
H346 C352 0.945 . S
H347 C355 0.930 . S
H348 C356 0.930 . S
H349 C357 0.930 . S
H350 C360 0.930 . S
H351 C361 0.930 . S
C352 H346 0.945 . S
C352 C353 1.343 1_565 S
C352 C354 1.411 1_565 S
C353 C352 1.343 1_545 S
C353 C355 1.419 . S
C354 C352 1.411 1_545 S
C354 C359 1.425 . S
C354 C361 1.409 1_545 S
C355 H347 0.930 . S
C355 C353 1.419 . S
C355 C356 1.362 . S
C356 H348 0.930 . S
C356 C355 1.362 . S
C356 C359 1.409 . S
C357 H349 0.930 . S
C357 C358 1.355 . S
C357 C359 1.415 . S
C358 C357 1.355 . S
C358 C360 1.419 1_545 S
C359 C354 1.425 . S
C359 C356 1.409 . S
C359 C357 1.415 . S
C360 H350 0.930 . S
C360 C358 1.419 1_565 S
C360 C361 1.362 . S
C361 H351 0.930 . S
C361 C354 1.409 1_565 S
C361 C360 1.362 . S
H362 C368 0.930 . S
H363 C371 0.930 . S
H364 C372 0.930 . S
H365 C373 0.930 . S
H366 C376 0.930 . S
H367 C377 0.930 . S
C368 H362 0.930 . S
C368 C369 1.355 . S
C368 C370 1.415 . S
C369 C368 1.355 . S
C369 C371 1.419 . S
C370 C368 1.415 . S
C370 C375 1.425 . S
C370 C377 1.409 . S
C371 H363 0.930 . S
C371 C369 1.419 . S
C371 C372 1.362 . S
C372 H364 0.930 . S
C372 C371 1.362 . S
C372 C375 1.409 . S
C373 H365 0.930 . S
C373 C374 1.355 . S
C373 C375 1.415 . S
C374 C373 1.355 . S
C374 C376 1.419 . S
C375 C370 1.425 . S
C375 C372 1.409 . S
C375 C373 1.415 . S
C376 H366 0.930 . S
C376 C374 1.419 . S
C376 C377 1.362 . S
C377 H367 0.930 . S
C377 C370 1.409 . S
C377 C376 1.362 . S
H378 C384 0.930 . S
H379 C387 0.930 . S
H380 C388 0.930 . S
H381 C389 0.930 . S
H382 C392 0.930 . S
H383 C393 0.930 . S
C384 H378 0.930 . S
C384 C385 1.355 1_565 S
C384 C386 1.415 . S
C385 C384 1.355 1_545 S
C385 C387 1.419 . S
C386 C384 1.415 . S
C386 C391 1.425 1_565 S
C386 C393 1.409 . S
C387 H379 0.930 . S
C387 C385 1.419 . S
C387 C388 1.362 . S
C388 H380 0.930 . S
C388 C387 1.362 . S
C388 C391 1.409 . S
C389 H381 0.930 . S
C389 C390 1.355 1_545 S
C389 C391 1.415 . S
C390 C389 1.355 1_565 S
C390 C392 1.419 . S
C391 C386 1.425 1_545 S
C391 C388 1.409 . S
C391 C389 1.415 . S
C392 H382 0.930 . S
C392 C390 1.419 . S
C392 C393 1.362 . S
C393 H383 0.930 . S
C393 C386 1.409 . S
C393 C392 1.362 . S
H394 C400 0.930 . S
H395 C403 0.930 . S
H396 C404 0.930 . S
H397 C405 0.930 . S
H398 C408 0.930 . S
H399 C409 0.930 . S
C400 H394 0.930 . S
C400 C401 1.355 . S
C400 C402 1.415 . S
C401 C400 1.355 . S
C401 C403 1.419 . S
C402 C400 1.415 . S
C402 C407 1.425 . S
C402 C409 1.409 1_556 S
C403 H395 0.930 . S
C403 C401 1.419 . S
C403 C404 1.362 . S
C404 H396 0.930 . S
C404 C403 1.362 . S
C404 C407 1.409 . S
C405 H397 0.930 . S
C405 C406 1.355 . S
C405 C407 1.415 1_554 S
C406 C405 1.355 . S
C406 C408 1.419 . S
C407 C402 1.425 . S
C407 C404 1.409 . S
C407 C405 1.415 1_556 S
C408 H398 0.930 . S
C408 C406 1.419 . S
C408 C409 1.362 . S
C409 H399 0.930 . S
C409 C402 1.409 1_554 S
C409 C408 1.362 . S
H410 C416 0.930 . S
H411 C419 0.930 . S
H412 C420 0.930 . S
H413 C421 0.930 . S
H414 C424 0.930 . S
H415 C425 0.930 . S
C416 H410 0.930 . S
C416 C417 1.355 . S
C416 C418 1.415 . S
C417 C416 1.355 . S
C417 C419 1.419 1_655 S
C418 C416 1.415 . S
C418 C423 1.425 1_655 S
C418 C425 1.409 . S
C419 H411 0.930 . S
C419 C417 1.419 1_455 S
C419 C420 1.362 . S
C420 H412 0.930 . S
C420 C419 1.362 . S
C420 C423 1.409 . S
C421 H413 0.930 . S
C421 C422 1.362 . S
C421 C423 1.415 . S
C422 C421 1.362 . S
C422 C424 1.411 1_455 S
C423 C418 1.425 1_455 S
C423 C420 1.409 . S
C423 C421 1.415 . S
C424 H414 0.930 . S
C424 C422 1.411 1_655 S
C424 C425 1.362 . S
C425 H415 0.930 . S
C425 C418 1.409 . S
C425 C424 1.362 . S
C145 C8 1.988 . S
C150 C129 1.944 . S
C161 C26 1.290 . S
C166 C107 1.302 . S
C177 C48 1.484 . S
C182 C120 1.532 . S
C193 C19 1.704 . S
C198 C133 1.791 . S
C214 C103 1.419 . S
C209 C36 1.533 . S
C230 C116 1.584 . S
C225 C59 1.674 . S
C241 C28 1.450 . S
C246 C81 1.515 . S
C257 C46 1.077 . S
C262 C94 1.122 1_655 S
C273 C16 1.489 . S
C278 C64 1.391 . S
C294 C77 1.634 . S
C289 C39 1.619 . S
C310 C90 1.026 . S
C305 C56 1.146 . S
C321 C6 1.336 . S
C326 C68 1.338 . S
C342 C95 1.483 . S
C337 C9 1.487 . S
C353 C21 1.546 . S
C358 C69 1.546 . S
C369 C49 1.541 . S
C374 C82 1.587 . S
C390 C121 1.540 . S
C385 C29 1.489 . S
C406 C134 1.617 . S
C401 C41 1.611 . S
C417 C1 1.522 . S
C422 C108 1.559 . S
