# Generated by pormake.
# Topology nom, (4,4)-cn, num edge types: 1
# Building blocks:
#     Node 0, Type 0, BuildingBlock: KUFVIS_clean_linker_0, # of connection points: 4
#     Node 1, Type 0, BuildingBlock: KUFVIS_clean_linker_0, # of connection points: 4
#     Node 2, Type 0, BuildingBlock: KUFVIS_clean_linker_0, # of connection points: 4
#     Node 3, Type 0, BuildingBlock: KUFVIS_clean_linker_0, # of connection points: 4
#     Node 4, Type 0, BuildingBlock: KUFVIS_clean_linker_0, # of connection points: 4
#     Node 5, Type 0, BuildingBlock: KUFVIS_clean_linker_0, # of connection points: 4
#     Node 6, Type 1, BuildingBlock: AZAVOO_clean_sbu_0, # of connection points: 4
#     Node 7, Type 1, BuildingBlock: AZAVOO_clean_sbu_0, # of connection points: 4
#     Node 8, Type 1, BuildingBlock: AZAVOO_clean_sbu_0, # of connection points: 4
#     Node 9, Type 1, BuildingBlock: AZAVOO_clean_sbu_0, # of connection points: 4
#     Node 10, Type 1, BuildingBlock: AZAVOO_clean_sbu_0, # of connection points: 4
#     Node 11, Type 1, BuildingBlock: AZAVOO_clean_sbu_0, # of connection points: 4
#     Edge 12, Type (0, 1), BuildingBlock: AJUNOK_clean_linker_0, # of connection points: 2
#     Edge 13, Type (0, 1), BuildingBlock: AJUNOK_clean_linker_0, # of connection points: 2
#     Edge 14, Type (0, 1), BuildingBlock: AJUNOK_clean_linker_0, # of connection points: 2
#     Edge 15, Type (0, 1), BuildingBlock: AJUNOK_clean_linker_0, # of connection points: 2
#     Edge 16, Type (0, 1), BuildingBlock: AJUNOK_clean_linker_0, # of connection points: 2
#     Edge 17, Type (0, 1), BuildingBlock: AJUNOK_clean_linker_0, # of connection points: 2
#     Edge 18, Type (0, 1), BuildingBlock: AJUNOK_clean_linker_0, # of connection points: 2
#     Edge 19, Type (0, 1), BuildingBlock: AJUNOK_clean_linker_0, # of connection points: 2
#     Edge 20, Type (0, 1), BuildingBlock: AJUNOK_clean_linker_0, # of connection points: 2
#     Edge 21, Type (0, 1), BuildingBlock: AJUNOK_clean_linker_0, # of connection points: 2
#     Edge 22, Type (0, 1), BuildingBlock: AJUNOK_clean_linker_0, # of connection points: 2
#     Edge 23, Type (0, 1), BuildingBlock: AJUNOK_clean_linker_0, # of connection points: 2
#     Edge 24, Type (0, 1), BuildingBlock: AJUNOK_clean_linker_0, # of connection points: 2
#     Edge 25, Type (0, 1), BuildingBlock: AJUNOK_clean_linker_0, # of connection points: 2
#     Edge 26, Type (0, 1), BuildingBlock: AJUNOK_clean_linker_0, # of connection points: 2
#     Edge 27, Type (0, 1), BuildingBlock: AJUNOK_clean_linker_0, # of connection points: 2
#     Edge 28, Type (0, 1), BuildingBlock: AJUNOK_clean_linker_0, # of connection points: 2
#     Edge 29, Type (0, 1), BuildingBlock: AJUNOK_clean_linker_0, # of connection points: 2
#     Edge 30, Type (0, 1), BuildingBlock: AJUNOK_clean_linker_0, # of connection points: 2
#     Edge 31, Type (0, 1), BuildingBlock: AJUNOK_clean_linker_0, # of connection points: 2
#     Edge 32, Type (0, 1), BuildingBlock: AJUNOK_clean_linker_0, # of connection points: 2
#     Edge 33, Type (0, 1), BuildingBlock: AJUNOK_clean_linker_0, # of connection points: 2
#     Edge 34, Type (0, 1), BuildingBlock: AJUNOK_clean_linker_0, # of connection points: 2
#     Edge 35, Type (0, 1), BuildingBlock: AJUNOK_clean_linker_0, # of connection points: 2
# Relax obj value: 0.031
# Max RMSD: 0.162
# Mean RMSD: 0.095
data_MOF--net-nom--node1-AZAVOO_clean_sbu_0--node2-KUFVIS_clean_linker_0--edge1-AJUNOK_clean_linker_0
_symmetry_space_group_name_H-M    P1
_symmetry_Int_Tables_number       1
_symmetry_cell_setting            triclinic
loop_
_symmetry_equiv_pos_as_xyz
'x, y, z'
_cell_length_a     33.77856
_cell_length_b     34.158945
_cell_length_c     34.48124
_cell_angle_alpha  92.079062
_cell_angle_beta   92.340561
_cell_angle_gamma 119.96082
loop_
_atom_site_label
_atom_site_type_symbol
_atom_site_fract_x
_atom_site_fract_y
_atom_site_fract_z
_atom_type_partial_charge
H0 H 0.17989 0.61738 0.34239 0.0
H1 H 0.07169 0.58035 0.25458 0.0
H2 H 0.04103 0.53131 0.36994 0.0
H3 H 0.97669 0.53515 0.35503 0.0
H4 H 0.86878 0.46211 0.26628 0.0
H5 H 1.00777 0.51339 0.23813 0.0
C6 C 0.14361 0.59902 0.33343 0.0
C7 C 0.11202 0.57495 0.36051 0.0
C8 C 0.12938 0.60003 0.29508 0.0
C9 C 0.0823 0.57769 0.28394 0.0
C10 C 0.04943 0.55218 0.31056 0.0
C11 C 0.06507 0.5508 0.34891 0.0
C12 C 0.99917 0.52701 0.29841 0.0
C13 C 0.96622 0.52081 0.32537 0.0
C14 C 0.91929 0.49651 0.31385 0.0
C15 C 0.90508 0.47992 0.27522 0.0
C16 C 0.93676 0.48684 0.24773 0.0
C17 C 0.98365 0.50935 0.25952 0.0
H18 H 0.58897 0.17746 0.50248 0.0
H19 H 0.52167 0.06998 0.41366 0.0
H20 H 0.5364 0.04074 0.53304 0.0
H21 H 0.47154 0.97634 0.51551 0.0
H22 H 0.4367 0.8692 0.42876 0.0
H23 H 0.52244 1.0062 0.40054 0.0
C24 C 0.57167 0.14157 0.49381 0.0
C25 C 0.5627 0.11051 0.52211 0.0
C26 C 0.55809 0.12721 0.45467 0.0
C27 C 0.53396 0.08058 0.4438 0.0
C28 C 0.52585 0.04824 0.47163 0.0
C29 C 0.54128 0.06411 0.5109 0.0
C30 C 0.50112 0.99834 0.45989 0.0
C31 C 0.47508 0.96582 0.48651 0.0
C32 C 0.45204 0.91921 0.47543 0.0
C33 C 0.45407 0.90511 0.43743 0.0
C34 C 0.47829 0.93626 0.41029 0.0
C35 C 0.50271 0.98267 0.42171 0.0
H36 H 0.58624 0.42192 0.57666 0.0
H37 H 0.53095 0.47191 0.66186 0.0
H38 H 0.54034 0.51328 0.54371 0.0
H39 H 0.47615 0.51693 0.56014 0.0
H40 H 0.46488 0.60358 0.64671 0.0
H41 H 0.54613 0.54337 0.67449 0.0
C42 C 0.57123 0.44256 0.5843 0.0
C43 C 0.56289 0.46591 0.55565 0.0
C44 C 0.56074 0.44544 0.62264 0.0
C45 C 0.54045 0.47135 0.63232 0.0
C46 C 0.53322 0.49679 0.60425 0.0
C47 C 0.54493 0.49387 0.56579 0.0
C48 C 0.51467 0.52703 0.61538 0.0
C49 C 0.48609 0.53421 0.58883 0.0
C50 C 0.46901 0.5628 0.59979 0.0
C51 C 0.48 0.58354 0.63743 0.0
C52 C 0.50665 0.57561 0.66447 0.0
C53 C 0.52465 0.5482 0.65329 0.0
H54 H 0.1828 0.59476 0.76925 0.0
H55 H 0.08333 0.5147 0.84865 0.0
H56 H 0.0401 0.53936 0.73666 0.0
H57 H 0.97952 0.46334 0.7482 0.0
H58 H 0.88024 0.44196 0.83106 0.0
H59 H 0.02276 0.5301 0.86378 0.0
C60 C 0.14733 0.57594 0.77657 0.0
C61 C 0.11263 0.5693 0.74915 0.0
C62 C 0.13706 0.55633 0.81227 0.0
C63 C 0.0912 0.53044 0.82114 0.0
C64 C 0.05565 0.52472 0.79425 0.0
C65 C 0.06678 0.54372 0.7579 0.0
C66 C 1.00719 0.50036 0.80447 0.0
C67 C 0.97165 0.47067 0.77679 0.0
C68 C 0.92581 0.45004 0.78628 0.0
C69 C 0.91561 0.45876 0.82334 0.0
C70 C 0.95043 0.48694 0.85128 0.0
C71 C 0.99612 0.50776 0.84198 0.0
H72 H 0.45982 0.87936 0.00516 0.0
H73 H 0.52752 0.9769 0.92057 0.0
H74 H 0.5067 0.01927 0.03394 0.0
H75 H 0.58094 0.08044 0.02107 0.0
H76 H 0.5982 0.17697 0.93776 0.0
H77 H 0.51225 0.03533 0.90595 0.0
C78 C 0.47609 0.91394 -0.00354 0.0
C79 C 0.4812 0.94821 0.02306 0.0
C80 C 0.4926 0.92373 0.95941 0.0
C81 C 0.51474 0.96901 0.94921 0.0
C82 C 0.52031 1.00405 0.97598 0.0
C83 C 0.5034 0.99314 0.01306 0.0
C84 C 0.54272 0.05185 0.96522 0.0
C85 C 0.57236 0.08758 -0.00744 0.0
C86 C 0.59156 0.13271 -0.01712 0.0
C87 C 0.5818 0.1421 0.94576 0.0
C88 C 0.55409 0.10719 0.91787 0.0
C89 C 0.5343 0.06211 0.92761 0.0
H90 H 0.46288 0.62324 0.0907 0.0
H91 H 0.5209 0.57538 0.1765 0.0
H92 H 0.50899 0.53192 0.05497 0.0
H93 H 0.57591 0.53295 0.07631 0.0
H94 H 0.58954 0.44614 0.15596 0.0
H95 H 0.50268 0.50025 0.18135 0.0
C96 C 0.47806 0.60272 0.09791 0.0
C97 C 0.486 0.579 0.06822 0.0
C98 C 0.49028 0.60117 0.13679 0.0
C99 C 0.51023 0.57508 0.14638 0.0
C100 C 0.51671 0.54917 0.11708 0.0
C101 C 0.50428 0.55138 0.07796 0.0
C102 C 0.53645 0.52006 0.12729 0.0
C103 C 0.56657 0.51521 0.10278 0.0
C104 C 0.58528 0.48792 0.11271 0.0
C105 C 0.57374 0.46567 0.14721 0.0
C106 C 0.54434 0.47021 0.17191 0.0
C107 C 0.52563 0.49724 0.162 0.0
Mg108 Mg 0.63655 0.37899 0.34034 0.0
O109 O 0.62177 0.40942 0.39427 0.0
O110 O 0.64637 0.4825 0.38614 0.0
Mg111 Mg 0.67596 0.49849 0.32654 0.0
C112 C 0.62705 0.44774 0.40609 0.0
C113 C 0.59092 0.27749 0.36176 0.0
O114 O 0.56096 0.27325 0.33401 0.0
O115 O 0.71327 0.41581 0.35822 0.0
O116 O 0.73538 0.48702 0.34525 0.0
O117 O 0.56798 0.36046 0.31267 0.0
O118 O 0.63107 0.42626 0.30788 0.0
C119 C 0.74468 0.45698 0.35616 0.0
C120 C 0.58745 0.40104 0.30076 0.0
O121 O 0.62493 0.31658 0.37157 0.0
Mg122 Mg 0.28422 0.66117 0.57755 0.0
O123 O 0.234 0.62794 0.52396 0.0
O124 O 0.19011 0.55407 0.53184 0.0
Mg125 Mg 0.21179 0.54037 0.5912 0.0
C126 C 0.20161 0.5885 0.51194 0.0
C127 C 0.35528 0.76221 0.56544 0.0
O128 O 0.36243 0.76183 0.60312 0.0
O129 O 0.32741 0.62999 0.55856 0.0
O130 O 0.28292 0.55786 0.57175 0.0
O131 O 0.23401 0.67467 0.60589 0.0
O132 O 0.23668 0.61161 0.61091 0.0
C133 C 0.32039 0.58971 0.56046 0.0
C134 C 0.2166 0.63448 0.6184 0.0
O135 O 0.32637 0.72559 0.5463 0.0
Mg136 Mg 0.64171 0.27345 0.74501 0.0
O137 O 0.62427 0.22651 0.69021 0.0
O138 O 0.65148 0.17983 0.70007 0.0
Mg139 Mg 0.68462 0.19606 0.7622 0.0
C140 C 0.63008 0.19391 0.67862 0.0
C141 C 0.59496 0.32915 0.71972 0.0
O142 O 0.56709 0.30614 0.74626 0.0
O143 O 0.71687 0.31311 0.7323 0.0
O144 O 0.74257 0.2666 0.74766 0.0
O145 O 0.5755 0.22502 0.76832 0.0
O146 O 0.63958 0.22307 0.7784 0.0
C147 C 0.7496 0.30487 0.73693 0.0
C148 C 0.59637 0.2053 0.78299 0.0
O149 O 0.62747 0.32208 0.71208 0.0
Mg150 Mg 0.42166 0.6612 0.84504 0.0
O151 O 0.4385 0.634 0.89937 0.0
O152 O 0.40997 0.5597 0.88758 0.0
Mg153 Mg 0.37791 0.54024 0.82519 0.0
C154 C 0.43133 0.59568 0.91005 0.0
C155 C 0.46828 0.76485 0.8695 0.0
O156 O 0.49396 0.7666 0.84127 0.0
O157 O 0.34667 0.6273 0.85853 0.0
O158 O 0.32048 0.55448 0.84156 0.0
O159 O 0.48747 0.67651 0.82039 0.0
O160 O 0.42319 0.61091 0.81028 0.0
C161 C 0.31384 0.58643 0.85366 0.0
C162 C 0.46615 0.6355 0.8048 0.0
O163 O 0.43653 0.72648 0.8786 0.0
Mg164 Mg 0.77819 0.41345 0.02192 0.0
O165 O 0.82424 0.42886 0.07811 0.0
O166 O 0.86791 0.39775 0.0685 0.0
Mg167 Mg 0.85216 0.36525 0.00656 0.0
C168 C 0.85527 0.42017 0.09001 0.0
C169 C 0.72605 0.46527 0.04179 0.0
O170 O 0.75359 0.49238 0.01686 0.0
O171 O 0.73487 0.33947 0.03527 0.0
O172 O 0.77942 0.31081 0.02069 0.0
O173 O 0.83017 0.4773 -0.00245 0.0
O174 O 0.82793 0.41177 -0.00995 0.0
C175 C 0.74133 0.30583 0.03106 0.0
C176 C 0.84779 0.45413 -0.01632 0.0
O177 O 0.7293 0.43122 0.0512 0.0
Mg178 Mg 0.38662 0.7736 0.18859 0.0
O179 O 0.42061 0.81939 0.24438 0.0
O180 O 0.49499 0.86414 0.23579 0.0
Mg181 Mg 0.50838 0.84832 0.17441 0.0
C182 C 0.46073 0.85092 0.25662 0.0
C183 C 0.28352 0.72037 0.20905 0.0
O184 O 0.28001 0.74545 0.18266 0.0
O185 O 0.41961 0.73099 0.20194 0.0
O186 O 0.49197 0.77654 0.18812 0.0
O187 O 0.37208 0.8252 0.16423 0.0
O188 O 0.43577 0.82319 0.15719 0.0
C189 C 0.4601 0.7383 0.19783 0.0
C190 C 0.41251 0.84312 0.15119 0.0
O191 O 0.32269 0.72555 0.21873 0.0
C192 C 0.16561 0.6621 0.24929 0.0
C193 C 0.16493 0.6258 0.26777 0.0
C194 C 0.20361 0.6919 0.22931 0.0
C195 C 0.24228 0.68656 0.2275 0.0
H196 H 0.13763 0.66877 0.25185 0.0
H197 H 0.20339 0.72031 0.21655 0.0
S198 S 0.25401 0.59258 0.26614 0.0
N199 N 0.20358 0.58298 0.27915 0.0
N200 N 0.2751 0.63914 0.24227 0.0
C201 C 0.24076 0.64886 0.24406 0.0
C202 C 0.20203 0.61842 0.26397 0.0
C203 C 0.53248 0.16144 0.40327 0.0
C204 C 0.56816 0.16205 0.42619 0.0
C205 C 0.54041 0.19841 0.38155 0.0
C206 C 0.58422 0.23735 0.38223 0.0
H207 H 0.49785 0.13321 0.40358 0.0
H208 H 0.51159 0.19711 0.36532 0.0
S209 S 0.69034 0.25251 0.43326 0.0
N210 N 0.64973 0.20234 0.44489 0.0
N211 N 0.66459 0.27193 0.40462 0.0
C212 C 0.6206 0.23718 0.40342 0.0
C213 C 0.61258 0.19949 0.4252 0.0
C214 C 0.4416 0.61128 0.57017 0.0
C215 C 0.43478 0.56765 0.57515 0.0
C216 C 0.40466 0.61799 0.56099 0.0
C217 C 0.35941 0.58127 0.5568 0.0
H218 H 0.47518 0.64073 0.57694 0.0
H219 H 0.41136 0.65248 0.56081 0.0
S220 S 0.325 0.45962 0.55788 0.0
N221 N 0.38085 0.48688 0.56863 0.0
N222 N 0.31131 0.49909 0.55082 0.0
C223 C 0.35304 0.53716 0.55683 0.0
C224 C 0.39079 0.53043 0.56613 0.0
C225 C 0.87828 0.37121 0.75793 0.0
C226 C 0.88741 0.41609 0.75987 0.0
C227 C 0.83427 0.33521 0.74647 0.0
C228 C 0.7978 0.3429 0.73679 0.0
H229 H 0.90406 0.36359 0.76883 0.0
H230 H 0.82811 0.30105 0.74833 0.0
S231 S 0.80767 0.45575 0.72955 0.0
N232 N 0.85928 0.46718 0.74571 0.0
N233 N 0.7767 0.40001 0.72338 0.0
C234 C 0.80826 0.3882 0.73424 0.0
C235 C 0.85304 0.42469 0.74612 0.0
C236 C 0.4441 0.84501 0.92921 0.0
C237 C 0.48645 0.88579 0.93242 0.0
C238 C 0.43858 0.80637 0.90859 0.0
C239 C 0.475 0.80699 0.88975 0.0
H240 H 0.41506 0.84264 0.9435 0.0
H241 H 0.40547 0.77569 0.90759 0.0
S242 S 0.59253 0.90553 0.88789 0.0
N243 N 0.56533 0.9246 0.91439 0.0
N244 N 0.55458 0.85229 0.87442 0.0
C245 C 0.51709 0.84797 0.89135 0.0
C246 C 0.52288 0.8873 0.91287 0.0
C247 C 0.61378 0.44 0.08234 0.0
C248 C 0.61865 0.48318 0.089 0.0
C249 C 0.64857 0.43467 0.06688 0.0
C250 C 0.68938 0.47221 0.05672 0.0
H251 H 0.58331 0.41008 0.09039 0.0
H252 H 0.64351 0.4008 0.06312 0.0
S253 S 0.71846 0.59236 0.06634 0.0
N254 N 0.66714 0.5641 0.08323 0.0
N255 N 0.73199 0.55392 0.05263 0.0
C256 C 0.69391 0.5154 0.06137 0.0
C257 C 0.65864 0.52093 0.07777 0.0
C258 C 0.38159 0.84791 0.48963 0.0
C259 C 0.42536 0.88381 0.50252 0.0
C260 C 0.35908 0.80918 0.5105 0.0
C261 C 0.37905 0.80497 0.5455 0.0
H262 H 0.3653 0.84905 0.46229 0.0
H263 H 0.32598 0.78204 0.49875 0.0
S264 S 0.4917 0.8907 0.59337 0.0
N265 N 0.48701 0.91362 0.55333 0.0
N266 N 0.44404 0.84124 0.59344 0.0
C267 C 0.42168 0.84165 0.55993 0.0
C268 C 0.44494 0.88103 0.5383 0.0
C269 C 0.53649 0.38774 0.67267 0.0
C270 C 0.57137 0.42072 0.65188 0.0
C271 C 0.54471 0.35902 0.69557 0.0
C272 C 0.58799 0.36222 0.69819 0.0
H273 H 0.50219 0.38278 0.66985 0.0
H274 H 0.51648 0.33305 0.7101 0.0
S275 S 0.69234 0.44777 0.65379 0.0
N276 N 0.65186 0.45845 0.63874 0.0
N277 N 0.6673 0.40439 0.68128 0.0
C278 C 0.62371 0.39678 0.67915 0.0
C279 C 0.6154 0.42607 0.65616 0.0
C280 C 0.18475 0.52476 0.83619 0.0
C281 C 0.17558 0.56054 0.83743 0.0
C282 C 0.22908 0.53264 0.8454 0.0
C283 C 0.2658 0.5767 0.85591 0.0
H284 H 0.15869 0.49141 0.82435 0.0
H285 H 0.23517 0.50457 0.84107 0.0
S286 S 0.25612 0.67975 0.87165 0.0
N287 N 0.20404 0.6397 0.85587 0.0
N288 N 0.28731 0.6549 0.8739 0.0
C289 C 0.25544 0.61161 0.86183 0.0
C290 C 0.21031 0.60343 0.85231 0.0
C291 C 0.67079 0.17845 0.01291 0.0
C292 C 0.62607 0.17113 0.00881 0.0
C293 C 0.70792 0.22161 0.02412 0.0
C294 C 0.70154 0.25896 0.03144 0.0
H295 H 0.67762 0.15179 0.00389 0.0
H296 H 0.74208 0.22631 0.02397 0.0
S297 S 0.58916 0.25407 0.0327 0.0
N298 N 0.57618 0.20205 0.01866 0.0
N299 N 0.64547 0.28312 0.04038 0.0
C300 C 0.65617 0.25047 0.03191 0.0
C301 C 0.61853 0.20655 0.02029 0.0
C302 C 0.52102 0.67364 0.17625 0.0
C303 C 0.48426 0.62998 0.16608 0.0
C304 C 0.51335 0.70781 0.1912 0.0
C305 C 0.46856 0.69949 0.1961 0.0
H306 H 0.55536 0.68251 0.16917 0.0
H307 H 0.54242 0.74184 0.19562 0.0
S308 S 0.36199 0.58744 0.1815 0.0
N309 N 0.4028 0.57791 0.16758 0.0
N310 N 0.3879 0.64164 0.1962 0.0
C311 C 0.43221 0.65434 0.19059 0.0
C312 C 0.44018 0.61971 0.17521 0.0
C313 C 0.8721 0.52429 0.34445 0.0
C314 C 0.88334 0.49009 0.34013 0.0
C315 C 0.82813 0.51404 0.35409 0.0
C316 C 0.79374 0.46909 0.35935 0.0
H317 H 0.8958 0.55824 0.33652 0.0
H318 H 0.82005 0.54099 0.35401 0.0
S319 S 0.81031 0.36943 0.3596 0.0
N320 N 0.86 0.41142 0.34797 0.0
N321 N 0.77744 0.39177 0.36658 0.0
C322 C 0.80672 0.43574 0.3599 0.0
C323 C 0.85151 0.44634 0.35002 0.0
C324 C 0.15979 0.61882 0.42028 0.0
C325 C 0.12958 0.57653 0.40094 0.0
C326 C 0.18242 0.62213 0.45615 0.0
C327 C 0.17579 0.58322 0.47431 0.0
H328 H 0.16677 0.64976 0.40709 0.0
H329 H 0.20567 0.65565 0.46947 0.0
S330 S 0.09891 0.46415 0.43577 0.0
N331 N 0.09325 0.49488 0.40246 0.0
N332 N 0.13534 0.50064 0.47032 0.0
C333 C 0.14448 0.5405 0.45571 0.0
C334 C 0.12143 0.53726 0.41898 0.0
C335 C 0.60601 0.11938 0.5857 0.0
C336 C 0.57568 0.12778 0.56337 0.0
C337 C 0.62312 0.14057 0.62307 0.0
C338 C 0.61052 0.17095 0.6394 0.0
H339 H 0.61779 0.09754 0.57369 0.0
H340 H 0.64716 0.13375 0.63889 0.0
S341 S 0.52784 0.20016 0.59364 0.0
N342 N 0.53076 0.16533 0.56097 0.0
N343 N 0.56283 0.20539 0.63084 0.0
C344 C 0.57876 0.17817 0.61766 0.0
C345 C 0.56134 0.1565 0.57979 0.0
C346 C 0.52618 0.63774 0.71483 0.0
C347 C 0.50943 0.59151 0.70544 0.0
C348 C 0.51587 0.65223 0.74955 0.0
C349 C 0.48763 0.62083 0.77553 0.0
H350 H 0.54438 0.66242 0.69387 0.0
H351 H 0.52663 0.68779 0.75425 0.0
S352 S 0.44251 0.49698 0.76749 0.0
N353 N 0.46899 0.51517 0.72716 0.0
N354 N 0.44948 0.54243 0.79246 0.0
C355 C 0.47451 0.57508 0.7682 0.0
C356 C 0.48553 0.5604 0.73309 0.0
C357 C 0.937 0.46092 0.9179 0.0
C358 C 0.9376 0.49085 0.89084 0.0
C359 C 0.91096 0.45222 0.95038 0.0
C360 C 0.88492 0.47332 0.95678 0.0
H361 H 0.95355 0.4413 0.91218 0.0
H362 H 0.90894 0.42664 0.96912 0.0
S363 S 0.88094 0.55948 0.89679 0.0
N364 N 0.91449 0.54518 0.87419 0.0
N365 N 0.8661 0.52974 0.9357 0.0
C366 C 0.88909 0.50675 0.93188 0.0
C367 C 0.91522 0.51517 0.89861 0.0
C368 C 0.49423 0.93546 0.0912 0.0
C369 C 0.46438 0.93555 0.06181 0.0
C370 C 0.47704 0.90877 0.12288 0.0
C371 C 0.42957 0.88141 0.12594 0.0
H372 H 0.53079 0.95282 0.0879 0.0
H373 H 0.50107 0.9072 0.14355 0.0
S374 S 0.33789 0.87636 0.05937 0.0
N375 N 0.38597 0.91123 0.03978 0.0
N376 N 0.35331 0.86127 0.09967 0.0
C377 C 0.39965 0.88534 0.09891 0.0
C378 C 0.41722 0.91229 0.06654 0.0
C379 C 0.52388 0.40361 0.21054 0.0
C380 C 0.53853 0.45001 0.20982 0.0
C381 C 0.53538 0.38657 0.24273 0.0
C382 C 0.56232 0.41564 0.2748 0.0
H383 H 0.50749 0.38134 0.1846 0.0
H384 H 0.5273 0.35158 0.2407 0.0
S385 S 0.5986 0.53707 0.291 0.0
N386 N 0.57352 0.52277 0.24657 0.0
N387 N 0.5946 0.49048 0.30744 0.0
C388 C 0.57184 0.46066 0.27645 0.0
C389 C 0.5599 0.47795 0.24378 0.0
C390 C 0.43252 0.8893 0.3509 0.0
C391 C 0.47575 0.91884 0.36976 0.0
C392 C 0.4282 0.86759 0.31454 0.0
C393 C 0.46699 0.87454 0.29538 0.0
H394 H 0.40162 0.88236 0.36473 0.0
H395 H 0.39401 0.84509 0.30147 0.0
S396 S 0.58825 0.94914 0.33273 0.0
N397 N 0.55812 0.95431 0.36701 0.0
N398 N 0.5505 0.91392 0.29824 0.0
C399 C 0.51064 0.90481 0.31371 0.0
C400 C 0.5149 0.92692 0.35094 0.0
C401 C 0.60599 0.49944 0.49701 0.0
C402 C 0.57461 0.4612 0.51552 0.0
C403 C 0.62258 0.49481 0.4615 0.0
C404 C 0.60849 0.45174 0.44337 0.0
H405 H 0.61907 0.53304 0.51076 0.0
H406 H 0.64743 0.52523 0.44867 0.0
S407 S 0.52265 0.34124 0.47853 0.0
N408 N 0.52706 0.37926 0.51199 0.0
N409 N 0.55829 0.37025 0.44558 0.0
C410 C 0.57571 0.41331 0.4611 0.0
C411 C 0.55873 0.41814 0.49703 0.0
C412 C 0.15616 0.633 0.70767 0.0
C413 C 0.12605 0.58648 0.71049 0.0
C414 C 0.18232 0.64883 0.6754 0.0
C415 C 0.17975 0.61848 0.64542 0.0
H416 H 0.16224 0.65679 0.73197 0.0
H417 H 0.20762 0.68451 0.67569 0.0
S418 S 0.09919 0.49468 0.63563 0.0
N419 N 0.08989 0.51116 0.67824 0.0
N420 N 0.13903 0.54102 0.61731 0.0
C421 C 0.14635 0.57255 0.64607 0.0
C422 C 0.11936 0.5565 0.67875 0.0
C423 C 0.53514 0.14958 0.87072 0.0
C424 C 0.55103 0.11936 0.87774 0.0
C425 C 0.54598 0.17398 0.83727 0.0
C426 C 0.57386 0.16954 0.81031 0.0
H427 H 0.51743 0.15706 0.89272 0.0
H428 H 0.53611 0.1995 0.83448 0.0
S429 S 0.61596 0.08807 0.81172 0.0
N430 N 0.58972 0.0811 0.85244 0.0
N431 N 0.6102 0.12711 0.78941 0.0
C432 C 0.5858 0.13601 0.81503 0.0
C433 C 0.57427 0.11076 0.84886 0.0
C434 C 0.4471 0.5454 0.00224 0.0
C435 C 0.47527 0.58385 0.02714 0.0
C436 C 0.43356 0.5496 0.96434 0.0
C437 C 0.44772 0.59245 0.94987 0.0
H438 H 0.43437 0.51183 0.01248 0.0
H439 H 0.41108 0.51888 0.94657 0.0
S440 S 0.52573 0.7037 0.00279 0.0
N441 N 0.51983 0.66602 0.03409 0.0
N442 N 0.49424 0.67418 0.96317 0.0
C443 C 0.47718 0.63119 0.97428 0.0
C444 C 0.49098 0.62682 0.01279 0.0
C445 C 0.89007 0.48485 0.18898 0.0
C446 C 0.91971 0.47185 0.20651 0.0
C447 C 0.8697 0.46813 0.15143 0.0
C448 C 0.87805 0.4376 0.12972 0.0
H449 H 0.88218 0.5079 0.20468 0.0
H450 H 0.84703 0.4792 0.13949 0.0
S451 S 0.95326 0.39294 0.1629 0.0
N452 N 0.95662 0.42688 0.1998 0.0
N453 N 0.91872 0.3953 0.12895 0.0
C454 C 0.90832 0.42483 0.14682 0.0
C455 C 0.92911 0.44204 0.18521 0.0
loop_
_geom_bond_atom_site_label_1
_geom_bond_atom_site_label_2
_geom_bond_distance
_geom_bond_site_symmetry_2
_ccdc_geom_bond_type
H0 C6 0.930 . S
H1 C9 0.931 . S
H2 C11 0.931 . S
H3 C13 0.930 . S
H4 C15 0.930 . S
H5 C17 0.931 . S
C6 H0 0.930 . S
C6 C7 1.380 . S
C6 C8 1.394 . S
C7 C6 1.380 . S
C7 C11 1.382 . S
C8 C6 1.394 . S
C8 C9 1.400 . S
C9 H1 0.931 . S
C9 C8 1.400 . S
C9 C10 1.375 . S
C10 C9 1.375 . S
C10 C11 1.415 . S
C10 C12 1.501 1_455 S
C11 H2 0.931 . S
C11 C7 1.382 . S
C11 C10 1.415 . S
C12 C10 1.501 1_655 S
C12 C13 1.384 . S
C12 C17 1.408 . S
C13 H3 0.930 . S
C13 C12 1.384 . S
C13 C14 1.389 . S
C14 C13 1.389 . S
C14 C15 1.405 . S
C15 H4 0.930 . S
C15 C14 1.405 . S
C15 C16 1.364 . S
C16 C15 1.364 . S
C16 C17 1.400 . S
C17 H5 0.931 . S
C17 C12 1.408 . S
C17 C16 1.400 . S
H18 C24 0.930 . S
H19 C27 0.931 . S
H20 C29 0.931 . S
H21 C31 0.930 . S
H22 C33 0.930 . S
H23 C35 0.931 . S
C24 H18 0.930 . S
C24 C25 1.380 . S
C24 C26 1.394 . S
C25 C24 1.380 . S
C25 C29 1.382 . S
C26 C24 1.394 . S
C26 C27 1.400 . S
C27 H19 0.931 . S
C27 C26 1.400 . S
C27 C28 1.375 . S
C28 C27 1.375 . S
C28 C29 1.415 . S
C28 C30 1.501 1_545 S
C29 H20 0.931 . S
C29 C25 1.382 . S
C29 C28 1.415 . S
C30 C28 1.501 1_565 S
C30 C31 1.384 . S
C30 C35 1.408 . S
C31 H21 0.930 . S
C31 C30 1.384 . S
C31 C32 1.389 . S
C32 C31 1.389 . S
C32 C33 1.405 . S
C33 H22 0.930 . S
C33 C32 1.405 . S
C33 C34 1.364 . S
C34 C33 1.364 . S
C34 C35 1.400 . S
C35 H23 0.931 . S
C35 C30 1.408 . S
C35 C34 1.400 . S
H36 C42 0.930 . S
H37 C45 0.931 . S
H38 C47 0.931 . S
H39 C49 0.930 . S
H40 C51 0.930 . S
H41 C53 0.931 . S
C42 H36 0.930 . S
C42 C43 1.380 . S
C42 C44 1.394 . S
C43 C42 1.380 . S
C43 C47 1.382 . S
C44 C42 1.394 . S
C44 C45 1.400 . S
C45 H37 0.931 . S
C45 C44 1.400 . S
C45 C46 1.375 . S
C46 C45 1.375 . S
C46 C47 1.415 . S
C46 C48 1.501 . S
C47 H38 0.931 . S
C47 C43 1.382 . S
C47 C46 1.415 . S
C48 C46 1.501 . S
C48 C49 1.384 . S
C48 C53 1.408 . S
C49 H39 0.930 . S
C49 C48 1.384 . S
C49 C50 1.389 . S
C50 C49 1.389 . S
C50 C51 1.405 . S
C51 H40 0.930 . S
C51 C50 1.405 . S
C51 C52 1.364 . S
C52 C51 1.364 . S
C52 C53 1.400 . S
C53 H41 0.931 . S
C53 C48 1.408 . S
C53 C52 1.400 . S
H54 C60 0.930 . S
H55 C63 0.931 . S
H56 C65 0.931 . S
H57 C67 0.930 . S
H58 C69 0.930 . S
H59 C71 0.931 . S
C60 H54 0.930 . S
C60 C61 1.380 . S
C60 C62 1.394 . S
C61 C60 1.380 . S
C61 C65 1.382 . S
C62 C60 1.394 . S
C62 C63 1.400 . S
C63 H55 0.931 . S
C63 C62 1.400 . S
C63 C64 1.375 . S
C64 C63 1.375 . S
C64 C65 1.415 . S
C64 C66 1.501 1_455 S
C65 H56 0.931 . S
C65 C61 1.382 . S
C65 C64 1.415 . S
C66 C64 1.501 1_655 S
C66 C67 1.384 . S
C66 C71 1.408 . S
C67 H57 0.930 . S
C67 C66 1.384 . S
C67 C68 1.389 . S
C68 C67 1.389 . S
C68 C69 1.405 . S
C69 H58 0.930 . S
C69 C68 1.405 . S
C69 C70 1.364 . S
C70 C69 1.364 . S
C70 C71 1.400 . S
C71 H59 0.931 . S
C71 C66 1.408 . S
C71 C70 1.400 . S
H72 C78 0.930 . S
H73 C81 0.931 . S
H74 C83 0.931 1_545 S
H75 C85 0.930 . S
H76 C87 0.930 . S
H77 C89 0.931 . S
C78 H72 0.930 . S
C78 C79 1.380 . S
C78 C80 1.394 1_554 S
C79 C78 1.380 . S
C79 C83 1.382 . S
C80 C78 1.394 1_556 S
C80 C81 1.400 . S
C81 H73 0.931 . S
C81 C80 1.400 . S
C81 C82 1.375 . S
C82 C81 1.375 . S
C82 C83 1.415 1_556 S
C82 C84 1.501 1_565 S
C83 H74 0.931 1_565 S
C83 C79 1.382 . S
C83 C82 1.415 1_554 S
C84 C82 1.501 1_545 S
C84 C85 1.384 1_556 S
C84 C89 1.408 . S
C85 H75 0.930 . S
C85 C84 1.384 1_554 S
C85 C86 1.394 . S
C86 C85 1.394 . S
C86 C87 1.390 1_554 S
C87 H76 0.930 . S
C87 C86 1.390 1_556 S
C87 C88 1.364 . S
C88 C87 1.364 . S
C88 C89 1.400 . S
C89 H77 0.931 . S
C89 C84 1.408 . S
C89 C88 1.400 . S
H90 C96 0.930 . S
H91 C99 0.931 . S
H92 C101 0.931 . S
H93 C103 0.930 . S
H94 C105 0.930 . S
H95 C107 0.931 . S
C96 H90 0.930 . S
C96 C97 1.380 . S
C96 C98 1.394 . S
C97 C96 1.380 . S
C97 C101 1.382 . S
C98 C96 1.394 . S
C98 C99 1.400 . S
C99 H91 0.931 . S
C99 C98 1.400 . S
C99 C100 1.375 . S
C100 C99 1.375 . S
C100 C101 1.415 . S
C100 C102 1.501 . S
C101 H92 0.931 . S
C101 C97 1.382 . S
C101 C100 1.415 . S
C102 C100 1.501 . S
C102 C103 1.384 . S
C102 C107 1.408 . S
C103 H93 0.930 . S
C103 C102 1.384 . S
C103 C104 1.389 . S
C104 C103 1.389 . S
C104 C105 1.405 . S
C105 H94 0.930 . S
C105 C104 1.405 . S
C105 C106 1.364 . S
C106 C105 1.364 . S
C106 C107 1.400 . S
C107 H95 0.931 . S
C107 C102 1.408 . S
C107 C106 1.400 . S
Mg108 O109 2.028 . S
Mg108 O115 1.986 . S
Mg108 O117 2.114 . S
Mg108 O118 2.251 . S
Mg108 O121 2.010 . S
O109 Mg108 2.028 . S
O109 C112 1.250 . S
O110 Mg111 2.028 . S
O110 C112 1.248 . S
Mg111 O110 2.028 . S
Mg111 O116 2.032 . S
Mg111 O118 2.079 . S
C112 O109 1.250 . S
C112 O110 1.248 . S
C113 O114 1.264 . S
C113 O121 1.249 . S
O114 C113 1.264 . S
O115 Mg108 1.986 . S
O115 C119 1.246 . S
O116 Mg111 2.032 . S
O116 C119 1.259 . S
O117 Mg108 2.114 . S
O117 C120 1.252 . S
O118 Mg108 2.251 . S
O118 Mg111 2.079 . S
O118 C120 1.273 . S
C119 O115 1.246 . S
C119 O116 1.259 . S
C120 O117 1.252 . S
C120 O118 1.273 . S
O121 Mg108 2.010 . S
O121 C113 1.249 . S
Mg122 O123 2.028 . S
Mg122 O129 1.986 . S
Mg122 O131 2.114 . S
Mg122 O132 2.251 . S
Mg122 O135 2.010 . S
O123 Mg122 2.028 . S
O123 C126 1.250 . S
O124 Mg125 2.028 . S
O124 C126 1.248 . S
Mg125 O124 2.028 . S
Mg125 O130 2.032 . S
Mg125 O132 2.079 . S
C126 O123 1.250 . S
C126 O124 1.248 . S
C127 O128 1.264 . S
C127 O135 1.249 . S
O128 C127 1.264 . S
O129 Mg122 1.986 . S
O129 C133 1.246 . S
O130 Mg125 2.032 . S
O130 C133 1.259 . S
O131 Mg122 2.114 . S
O131 C134 1.252 . S
O132 Mg122 2.251 . S
O132 Mg125 2.079 . S
O132 C134 1.273 . S
C133 O129 1.246 . S
C133 O130 1.259 . S
C134 O131 1.252 . S
C134 O132 1.273 . S
O135 Mg122 2.010 . S
O135 C127 1.249 . S
Mg136 O137 2.028 . S
Mg136 O143 1.986 . S
Mg136 O145 2.114 . S
Mg136 O146 2.251 . S
Mg136 O149 2.010 . S
O137 Mg136 2.028 . S
O137 C140 1.250 . S
O138 Mg139 2.028 . S
O138 C140 1.248 . S
Mg139 O138 2.028 . S
Mg139 O144 2.032 . S
Mg139 O146 2.079 . S
C140 O137 1.250 . S
C140 O138 1.248 . S
C141 O142 1.264 . S
C141 O149 1.249 . S
O142 C141 1.264 . S
O143 Mg136 1.986 . S
O143 C147 1.246 . S
O144 Mg139 2.032 . S
O144 C147 1.259 . S
O145 Mg136 2.114 . S
O145 C148 1.252 . S
O146 Mg136 2.251 . S
O146 Mg139 2.079 . S
O146 C148 1.273 . S
C147 O143 1.246 . S
C147 O144 1.259 . S
C148 O145 1.252 . S
C148 O146 1.273 . S
O149 Mg136 2.010 . S
O149 C141 1.249 . S
Mg150 O151 2.028 . S
Mg150 O157 1.986 . S
Mg150 O159 2.114 . S
Mg150 O160 2.251 . S
Mg150 O163 2.010 . S
O151 Mg150 2.028 . S
O151 C154 1.250 . S
O152 Mg153 2.028 . S
O152 C154 1.248 . S
Mg153 O152 2.028 . S
Mg153 O158 2.032 . S
Mg153 O160 2.079 . S
C154 O151 1.250 . S
C154 O152 1.248 . S
C155 O156 1.264 . S
C155 O163 1.249 . S
O156 C155 1.264 . S
O157 Mg150 1.986 . S
O157 C161 1.246 . S
O158 Mg153 2.032 . S
O158 C161 1.259 . S
O159 Mg150 2.114 . S
O159 C162 1.252 . S
O160 Mg150 2.251 . S
O160 Mg153 2.079 . S
O160 C162 1.273 . S
C161 O157 1.246 . S
C161 O158 1.259 . S
C162 O159 1.252 . S
C162 O160 1.273 . S
O163 Mg150 2.010 . S
O163 C155 1.249 . S
Mg164 O165 2.028 . S
Mg164 O171 1.986 . S
Mg164 O173 2.114 . S
Mg164 O174 2.251 . S
Mg164 O177 2.010 . S
O165 Mg164 2.028 . S
O165 C168 1.250 . S
O166 Mg167 2.028 . S
O166 C168 1.248 . S
Mg167 O166 2.028 . S
Mg167 O172 2.032 . S
Mg167 O174 2.079 . S
C168 O165 1.250 . S
C168 O166 1.248 . S
C169 O170 1.264 . S
C169 O177 1.249 . S
O170 C169 1.264 . S
O171 Mg164 1.986 . S
O171 C175 1.246 . S
O172 Mg167 2.032 . S
O172 C175 1.259 . S
O173 Mg164 2.114 . S
O173 C176 1.252 . S
O174 Mg164 2.251 . S
O174 Mg167 2.079 . S
O174 C176 1.273 . S
C175 O171 1.246 . S
C175 O172 1.259 . S
C176 O173 1.252 . S
C176 O174 1.273 . S
O177 Mg164 2.010 . S
O177 C169 1.249 . S
Mg178 O179 2.028 . S
Mg178 O185 1.986 . S
Mg178 O187 2.114 . S
Mg178 O188 2.251 . S
Mg178 O191 2.010 . S
O179 Mg178 2.028 . S
O179 C182 1.250 . S
O180 Mg181 2.028 . S
O180 C182 1.248 . S
Mg181 O180 2.028 . S
Mg181 O186 2.032 . S
Mg181 O188 2.079 . S
C182 O179 1.250 . S
C182 O180 1.248 . S
C183 O184 1.264 . S
C183 O191 1.249 . S
O184 C183 1.264 . S
O185 Mg178 1.986 . S
O185 C189 1.246 . S
O186 Mg181 2.032 . S
O186 C189 1.259 . S
O187 Mg178 2.114 . S
O187 C190 1.252 . S
O188 Mg178 2.251 . S
O188 Mg181 2.079 . S
O188 C190 1.273 . S
C189 O185 1.246 . S
C189 O186 1.259 . S
C190 O187 1.252 . S
C190 O188 1.273 . S
O191 Mg178 2.010 . S
O191 C183 1.249 . S
C192 C193 1.369 . S
C192 C194 1.419 . S
C192 H196 0.930 . S
C193 C192 1.369 . S
C193 C202 1.429 . S
C194 C192 1.419 . S
C194 C195 1.363 . S
C194 H197 0.929 . S
C195 C194 1.363 . S
C195 C201 1.428 . S
H196 C192 0.930 . S
H197 C194 0.929 . S
S198 N199 1.613 . S
S198 N200 1.610 . S
N199 S198 1.613 . S
N199 C202 1.350 . S
N200 S198 1.610 . S
N200 C201 1.351 . S
C201 C195 1.428 . S
C201 N200 1.351 . S
C201 C202 1.434 . S
C202 C193 1.429 . S
C202 N199 1.350 . S
C202 C201 1.434 . S
C203 C204 1.369 . S
C203 C205 1.419 . S
C203 H207 0.930 . S
C204 C203 1.369 . S
C204 C213 1.429 . S
C205 C203 1.419 . S
C205 C206 1.363 . S
C205 H208 0.929 . S
C206 C205 1.363 . S
C206 C212 1.428 . S
H207 C203 0.930 . S
H208 C205 0.929 . S
S209 N210 1.613 . S
S209 N211 1.610 . S
N210 S209 1.613 . S
N210 C213 1.350 . S
N211 S209 1.610 . S
N211 C212 1.351 . S
C212 C206 1.428 . S
C212 N211 1.351 . S
C212 C213 1.434 . S
C213 C204 1.429 . S
C213 N210 1.350 . S
C213 C212 1.434 . S
C214 C215 1.369 . S
C214 C216 1.419 . S
C214 H218 0.930 . S
C215 C214 1.369 . S
C215 C224 1.429 . S
C216 C214 1.419 . S
C216 C217 1.363 . S
C216 H219 0.929 . S
C217 C216 1.363 . S
C217 C223 1.428 . S
H218 C214 0.930 . S
H219 C216 0.929 . S
S220 N221 1.613 . S
S220 N222 1.610 . S
N221 S220 1.613 . S
N221 C224 1.350 . S
N222 S220 1.610 . S
N222 C223 1.351 . S
C223 C217 1.428 . S
C223 N222 1.351 . S
C223 C224 1.434 . S
C224 C215 1.429 . S
C224 N221 1.350 . S
C224 C223 1.434 . S
C225 C226 1.369 . S
C225 C227 1.419 . S
C225 H229 0.930 . S
C226 C225 1.369 . S
C226 C235 1.429 . S
C227 C225 1.419 . S
C227 C228 1.363 . S
C227 H230 0.929 . S
C228 C227 1.363 . S
C228 C234 1.428 . S
H229 C225 0.930 . S
H230 C227 0.929 . S
S231 N232 1.613 . S
S231 N233 1.610 . S
N232 S231 1.613 . S
N232 C235 1.350 . S
N233 S231 1.610 . S
N233 C234 1.351 . S
C234 C228 1.428 . S
C234 N233 1.351 . S
C234 C235 1.434 . S
C235 C226 1.429 . S
C235 N232 1.350 . S
C235 C234 1.434 . S
C236 C237 1.369 . S
C236 C238 1.419 . S
C236 H240 0.930 . S
C237 C236 1.369 . S
C237 C246 1.429 . S
C238 C236 1.419 . S
C238 C239 1.363 . S
C238 H241 0.929 . S
C239 C238 1.363 . S
C239 C245 1.428 . S
H240 C236 0.930 . S
H241 C238 0.929 . S
S242 N243 1.613 . S
S242 N244 1.610 . S
N243 S242 1.613 . S
N243 C246 1.350 . S
N244 S242 1.610 . S
N244 C245 1.351 . S
C245 C239 1.428 . S
C245 N244 1.351 . S
C245 C246 1.434 . S
C246 C237 1.429 . S
C246 N243 1.350 . S
C246 C245 1.434 . S
C247 C248 1.369 . S
C247 C249 1.419 . S
C247 H251 0.930 . S
C248 C247 1.369 . S
C248 C257 1.429 . S
C249 C247 1.419 . S
C249 C250 1.363 . S
C249 H252 0.929 . S
C250 C249 1.363 . S
C250 C256 1.428 . S
H251 C247 0.930 . S
H252 C249 0.929 . S
S253 N254 1.613 . S
S253 N255 1.610 . S
N254 S253 1.613 . S
N254 C257 1.350 . S
N255 S253 1.610 . S
N255 C256 1.351 . S
C256 C250 1.428 . S
C256 N255 1.351 . S
C256 C257 1.434 . S
C257 C248 1.429 . S
C257 N254 1.350 . S
C257 C256 1.434 . S
C258 C259 1.369 . S
C258 C260 1.419 . S
C258 H262 0.930 . S
C259 C258 1.369 . S
C259 C268 1.429 . S
C260 C258 1.419 . S
C260 C261 1.363 . S
C260 H263 0.929 . S
C261 C260 1.363 . S
C261 C267 1.428 . S
H262 C258 0.930 . S
H263 C260 0.929 . S
S264 N265 1.613 . S
S264 N266 1.610 . S
N265 S264 1.613 . S
N265 C268 1.350 . S
N266 S264 1.610 . S
N266 C267 1.351 . S
C267 C261 1.428 . S
C267 N266 1.351 . S
C267 C268 1.434 . S
C268 C259 1.429 . S
C268 N265 1.350 . S
C268 C267 1.434 . S
C269 C270 1.369 . S
C269 C271 1.419 . S
C269 H273 0.930 . S
C270 C269 1.369 . S
C270 C279 1.429 . S
C271 C269 1.419 . S
C271 C272 1.363 . S
C271 H274 0.929 . S
C272 C271 1.363 . S
C272 C278 1.428 . S
H273 C269 0.930 . S
H274 C271 0.929 . S
S275 N276 1.613 . S
S275 N277 1.610 . S
N276 S275 1.613 . S
N276 C279 1.350 . S
N277 S275 1.610 . S
N277 C278 1.351 . S
C278 C272 1.428 . S
C278 N277 1.351 . S
C278 C279 1.434 . S
C279 C270 1.429 . S
C279 N276 1.350 . S
C279 C278 1.434 . S
C280 C281 1.369 . S
C280 C282 1.419 . S
C280 H284 0.930 . S
C281 C280 1.369 . S
C281 C290 1.429 . S
C282 C280 1.419 . S
C282 C283 1.363 . S
C282 H285 0.929 . S
C283 C282 1.363 . S
C283 C289 1.428 . S
H284 C280 0.930 . S
H285 C282 0.929 . S
S286 N287 1.613 . S
S286 N288 1.610 . S
N287 S286 1.613 . S
N287 C290 1.350 . S
N288 S286 1.610 . S
N288 C289 1.351 . S
C289 C283 1.428 . S
C289 N288 1.351 . S
C289 C290 1.434 . S
C290 C281 1.429 . S
C290 N287 1.350 . S
C290 C289 1.434 . S
C291 C292 1.369 . S
C291 C293 1.419 . S
C291 H295 0.930 . S
C292 C291 1.369 . S
C292 C301 1.429 . S
C293 C291 1.419 . S
C293 C294 1.363 . S
C293 H296 0.929 . S
C294 C293 1.363 . S
C294 C300 1.428 . S
H295 C291 0.930 . S
H296 C293 0.929 . S
S297 N298 1.613 . S
S297 N299 1.610 . S
N298 S297 1.613 . S
N298 C301 1.350 1_556 S
N299 S297 1.610 . S
N299 C300 1.351 1_556 S
C300 C294 1.428 . S
C300 N299 1.351 1_554 S
C300 C301 1.434 . S
C301 C292 1.429 . S
C301 N298 1.350 1_554 S
C301 C300 1.434 . S
C302 C303 1.369 . S
C302 C304 1.419 . S
C302 H306 0.930 . S
C303 C302 1.369 . S
C303 C312 1.429 . S
C304 C302 1.419 . S
C304 C305 1.363 . S
C304 H307 0.929 . S
C305 C304 1.363 . S
C305 C311 1.428 . S
H306 C302 0.930 . S
H307 C304 0.929 . S
S308 N309 1.613 . S
S308 N310 1.610 . S
N309 S308 1.613 . S
N309 C312 1.350 . S
N310 S308 1.610 . S
N310 C311 1.351 . S
C311 C305 1.428 . S
C311 N310 1.351 . S
C311 C312 1.434 . S
C312 C303 1.429 . S
C312 N309 1.350 . S
C312 C311 1.434 . S
C313 C314 1.369 . S
C313 C315 1.419 . S
C313 H317 0.930 . S
C314 C313 1.369 . S
C314 C323 1.429 . S
C315 C313 1.419 . S
C315 C316 1.363 . S
C315 H318 0.929 . S
C316 C315 1.363 . S
C316 C322 1.428 . S
H317 C313 0.930 . S
H318 C315 0.929 . S
S319 N320 1.613 . S
S319 N321 1.610 . S
N320 S319 1.613 . S
N320 C323 1.350 . S
N321 S319 1.610 . S
N321 C322 1.351 . S
C322 C316 1.428 . S
C322 N321 1.351 . S
C322 C323 1.434 . S
C323 C314 1.429 . S
C323 N320 1.350 . S
C323 C322 1.434 . S
C324 C325 1.369 . S
C324 C326 1.419 . S
C324 H328 0.930 . S
C325 C324 1.369 . S
C325 C334 1.429 . S
C326 C324 1.419 . S
C326 C327 1.363 . S
C326 H329 0.929 . S
C327 C326 1.363 . S
C327 C333 1.428 . S
H328 C324 0.930 . S
H329 C326 0.929 . S
S330 N331 1.613 . S
S330 N332 1.610 . S
N331 S330 1.613 . S
N331 C334 1.350 . S
N332 S330 1.610 . S
N332 C333 1.351 . S
C333 C327 1.428 . S
C333 N332 1.351 . S
C333 C334 1.434 . S
C334 C325 1.429 . S
C334 N331 1.350 . S
C334 C333 1.434 . S
C335 C336 1.369 . S
C335 C337 1.419 . S
C335 H339 0.930 . S
C336 C335 1.369 . S
C336 C345 1.429 . S
C337 C335 1.419 . S
C337 C338 1.363 . S
C337 H340 0.929 . S
C338 C337 1.363 . S
C338 C344 1.428 . S
H339 C335 0.930 . S
H340 C337 0.929 . S
S341 N342 1.613 . S
S341 N343 1.610 . S
N342 S341 1.613 . S
N342 C345 1.350 . S
N343 S341 1.610 . S
N343 C344 1.351 . S
C344 C338 1.428 . S
C344 N343 1.351 . S
C344 C345 1.434 . S
C345 C336 1.429 . S
C345 N342 1.350 . S
C345 C344 1.434 . S
C346 C347 1.369 . S
C346 C348 1.419 . S
C346 H350 0.930 . S
C347 C346 1.369 . S
C347 C356 1.429 . S
C348 C346 1.419 . S
C348 C349 1.363 . S
C348 H351 0.929 . S
C349 C348 1.363 . S
C349 C355 1.428 . S
H350 C346 0.930 . S
H351 C348 0.929 . S
S352 N353 1.613 . S
S352 N354 1.610 . S
N353 S352 1.613 . S
N353 C356 1.350 . S
N354 S352 1.610 . S
N354 C355 1.351 . S
C355 C349 1.428 . S
C355 N354 1.351 . S
C355 C356 1.434 . S
C356 C347 1.429 . S
C356 N353 1.350 . S
C356 C355 1.434 . S
C357 C358 1.369 . S
C357 C359 1.419 . S
C357 H361 0.930 . S
C358 C357 1.369 . S
C358 C367 1.429 . S
C359 C357 1.419 . S
C359 C360 1.363 . S
C359 H362 0.929 . S
C360 C359 1.363 . S
C360 C366 1.428 . S
H361 C357 0.930 . S
H362 C359 0.929 . S
S363 N364 1.613 . S
S363 N365 1.610 . S
N364 S363 1.613 . S
N364 C367 1.350 . S
N365 S363 1.610 . S
N365 C366 1.351 . S
C366 C360 1.428 . S
C366 N365 1.351 . S
C366 C367 1.434 . S
C367 C358 1.429 . S
C367 N364 1.350 . S
C367 C366 1.434 . S
C368 C369 1.369 . S
C368 C370 1.419 . S
C368 H372 0.930 . S
C369 C368 1.369 . S
C369 C378 1.429 . S
C370 C368 1.419 . S
C370 C371 1.363 . S
C370 H373 0.929 . S
C371 C370 1.363 . S
C371 C377 1.428 . S
H372 C368 0.930 . S
H373 C370 0.929 . S
S374 N375 1.613 . S
S374 N376 1.610 . S
N375 S374 1.613 . S
N375 C378 1.350 . S
N376 S374 1.610 . S
N376 C377 1.351 . S
C377 C371 1.428 . S
C377 N376 1.351 . S
C377 C378 1.434 . S
C378 C369 1.429 . S
C378 N375 1.350 . S
C378 C377 1.434 . S
C379 C380 1.369 . S
C379 C381 1.419 . S
C379 H383 0.930 . S
C380 C379 1.369 . S
C380 C389 1.429 . S
C381 C379 1.419 . S
C381 C382 1.363 . S
C381 H384 0.929 . S
C382 C381 1.363 . S
C382 C388 1.428 . S
H383 C379 0.930 . S
H384 C381 0.929 . S
S385 N386 1.613 . S
S385 N387 1.610 . S
N386 S385 1.613 . S
N386 C389 1.350 . S
N387 S385 1.610 . S
N387 C388 1.351 . S
C388 C382 1.428 . S
C388 N387 1.351 . S
C388 C389 1.434 . S
C389 C380 1.429 . S
C389 N386 1.350 . S
C389 C388 1.434 . S
C390 C391 1.369 . S
C390 C392 1.419 . S
C390 H394 0.930 . S
C391 C390 1.369 . S
C391 C400 1.429 . S
C392 C390 1.419 . S
C392 C393 1.363 . S
C392 H395 0.929 . S
C393 C392 1.363 . S
C393 C399 1.428 . S
H394 C390 0.930 . S
H395 C392 0.929 . S
S396 N397 1.613 . S
S396 N398 1.610 . S
N397 S396 1.613 . S
N397 C400 1.350 . S
N398 S396 1.610 . S
N398 C399 1.351 . S
C399 C393 1.428 . S
C399 N398 1.351 . S
C399 C400 1.434 . S
C400 C391 1.429 . S
C400 N397 1.350 . S
C400 C399 1.434 . S
C401 C402 1.369 . S
C401 C403 1.419 . S
C401 H405 0.930 . S
C402 C401 1.369 . S
C402 C411 1.429 . S
C403 C401 1.419 . S
C403 C404 1.363 . S
C403 H406 0.929 . S
C404 C403 1.363 . S
C404 C410 1.428 . S
H405 C401 0.930 . S
H406 C403 0.929 . S
S407 N408 1.613 . S
S407 N409 1.610 . S
N408 S407 1.613 . S
N408 C411 1.350 . S
N409 S407 1.610 . S
N409 C410 1.351 . S
C410 C404 1.428 . S
C410 N409 1.351 . S
C410 C411 1.434 . S
C411 C402 1.429 . S
C411 N408 1.350 . S
C411 C410 1.434 . S
C412 C413 1.369 . S
C412 C414 1.419 . S
C412 H416 0.930 . S
C413 C412 1.369 . S
C413 C422 1.429 . S
C414 C412 1.419 . S
C414 C415 1.363 . S
C414 H417 0.929 . S
C415 C414 1.363 . S
C415 C421 1.428 . S
H416 C412 0.930 . S
H417 C414 0.929 . S
S418 N419 1.613 . S
S418 N420 1.610 . S
N419 S418 1.613 . S
N419 C422 1.350 . S
N420 S418 1.610 . S
N420 C421 1.351 . S
C421 C415 1.428 . S
C421 N420 1.351 . S
C421 C422 1.434 . S
C422 C413 1.429 . S
C422 N419 1.350 . S
C422 C421 1.434 . S
C423 C424 1.369 . S
C423 C425 1.419 . S
C423 H427 0.930 . S
C424 C423 1.369 . S
C424 C433 1.429 . S
C425 C423 1.419 . S
C425 C426 1.363 . S
C425 H428 0.929 . S
C426 C425 1.363 . S
C426 C432 1.428 . S
H427 C423 0.930 . S
H428 C425 0.929 . S
S429 N430 1.613 . S
S429 N431 1.610 . S
N430 S429 1.613 . S
N430 C433 1.350 . S
N431 S429 1.610 . S
N431 C432 1.351 . S
C432 C426 1.428 . S
C432 N431 1.351 . S
C432 C433 1.434 . S
C433 C424 1.429 . S
C433 N430 1.350 . S
C433 C432 1.434 . S
C434 C435 1.369 . S
C434 C436 1.419 1_554 S
C434 H438 0.930 . S
C435 C434 1.369 . S
C435 C444 1.429 . S
C436 C434 1.419 1_556 S
C436 C437 1.363 . S
C436 H439 0.929 . S
C437 C436 1.363 . S
C437 C443 1.428 1_556 S
H438 C434 0.930 . S
H439 C436 0.929 . S
S440 N441 1.613 . S
S440 N442 1.610 . S
N441 S440 1.613 . S
N441 C444 1.350 . S
N442 S440 1.610 . S
N442 C443 1.351 . S
C443 C437 1.428 1_554 S
C443 N442 1.351 . S
C443 C444 1.434 . S
C444 C435 1.429 . S
C444 N441 1.350 . S
C444 C443 1.434 . S
C445 C446 1.369 . S
C445 C447 1.419 . S
C445 H449 0.930 . S
C446 C445 1.369 . S
C446 C455 1.429 . S
C447 C445 1.419 . S
C447 C448 1.363 . S
C447 H450 0.929 . S
C448 C447 1.363 . S
C448 C454 1.428 . S
H449 C445 0.930 . S
H450 C447 0.929 . S
S451 N452 1.613 . S
S451 N453 1.610 . S
N452 S451 1.613 . S
N452 C455 1.350 . S
N453 S451 1.610 . S
N453 C454 1.351 . S
C454 C448 1.428 . S
C454 N453 1.351 . S
C454 C455 1.434 . S
C455 C446 1.429 . S
C455 N452 1.350 . S
C455 C454 1.434 . S
C195 C183 1.306 . S
C193 C8 1.484 . S
C204 C26 1.513 . S
C206 C113 1.320 . S
C215 C50 1.497 . S
C217 C133 1.538 . S
C226 C68 1.448 . S
C228 C147 1.484 . S
C239 C155 1.264 . S
C237 C80 1.465 . S
C248 C104 1.466 . S
C250 C169 1.286 . S
C259 C32 1.501 . S
C261 C127 1.308 . S
C270 C44 1.465 . S
C272 C141 1.275 . S
C281 C62 1.438 . S
C283 C161 1.470 . S
C294 C175 1.502 . S
C292 C86 1.463 . S
C305 C189 1.506 . S
C303 C98 1.478 . S
C316 C119 1.527 . S
C314 C14 1.493 . S
C325 C7 1.445 . S
C327 C126 1.470 . S
C336 C25 1.442 . S
C338 C140 1.473 . S
C349 C162 1.487 . S
C347 C52 1.431 . S
C358 C70 1.442 . S
C360 C176 1.498 1_556 S
C371 C190 1.465 . S
C369 C79 1.409 . S
C382 C120 1.458 . S
C380 C106 1.407 . S
C393 C182 1.455 . S
C391 C34 1.443 . S
C402 C43 1.441 . S
C404 C112 1.465 . S
C415 C134 1.488 . S
C413 C61 1.431 . S
C424 C88 1.439 . S
C426 C148 1.484 . S
C435 C97 1.472 . S
C437 C154 1.499 . S
C446 C16 1.471 . S
C448 C168 1.492 . S
