# Generated by pormake.
# Topology zzz, (3,6)-cn, num edge types: 1
# Building blocks:
#     Node 0, Type 0, BuildingBlock: QEWDON_clean_linker_0, # of connection points: 3
#     Node 1, Type 0, BuildingBlock: QEWDON_clean_linker_0, # of connection points: 3
#     Node 2, Type 0, BuildingBlock: QEWDON_clean_linker_0, # of connection points: 3
#     Node 3, Type 0, BuildingBlock: QEWDON_clean_linker_0, # of connection points: 3
#     Node 4, Type 0, BuildingBlock: QEWDON_clean_linker_0, # of connection points: 3
#     Node 5, Type 0, BuildingBlock: QEWDON_clean_linker_0, # of connection points: 3
#     Node 6, Type 0, BuildingBlock: QEWDON_clean_linker_0, # of connection points: 3
#     Node 7, Type 0, BuildingBlock: QEWDON_clean_linker_0, # of connection points: 3
#     Node 8, Type 1, BuildingBlock: LEVNOQ01_clean_sbu_1, # of connection points: 6
#     Node 9, Type 1, BuildingBlock: LEVNOQ01_clean_sbu_1, # of connection points: 6
#     Node 10, Type 1, BuildingBlock: LEVNOQ01_clean_sbu_1, # of connection points: 6
#     Node 11, Type 1, BuildingBlock: LEVNOQ01_clean_sbu_1, # of connection points: 6
#     Edge 12, Type (0, 1), BuildingBlock: KIFKEQ_clean_linker_1, # of connection points: 2
#     Edge 13, Type (0, 1), BuildingBlock: KIFKEQ_clean_linker_1, # of connection points: 2
#     Edge 14, Type (0, 1), BuildingBlock: KIFKEQ_clean_linker_1, # of connection points: 2
#     Edge 15, Type (0, 1), BuildingBlock: KIFKEQ_clean_linker_1, # of connection points: 2
#     Edge 16, Type (0, 1), BuildingBlock: KIFKEQ_clean_linker_1, # of connection points: 2
#     Edge 17, Type (0, 1), BuildingBlock: KIFKEQ_clean_linker_1, # of connection points: 2
#     Edge 18, Type (0, 1), BuildingBlock: KIFKEQ_clean_linker_1, # of connection points: 2
#     Edge 19, Type (0, 1), BuildingBlock: KIFKEQ_clean_linker_1, # of connection points: 2
#     Edge 20, Type (0, 1), BuildingBlock: KIFKEQ_clean_linker_1, # of connection points: 2
#     Edge 21, Type (0, 1), BuildingBlock: KIFKEQ_clean_linker_1, # of connection points: 2
#     Edge 22, Type (0, 1), BuildingBlock: KIFKEQ_clean_linker_1, # of connection points: 2
#     Edge 23, Type (0, 1), BuildingBlock: KIFKEQ_clean_linker_1, # of connection points: 2
#     Edge 24, Type (0, 1), BuildingBlock: KIFKEQ_clean_linker_1, # of connection points: 2
#     Edge 25, Type (0, 1), BuildingBlock: KIFKEQ_clean_linker_1, # of connection points: 2
#     Edge 26, Type (0, 1), BuildingBlock: KIFKEQ_clean_linker_1, # of connection points: 2
#     Edge 27, Type (0, 1), BuildingBlock: KIFKEQ_clean_linker_1, # of connection points: 2
#     Edge 28, Type (0, 1), BuildingBlock: KIFKEQ_clean_linker_1, # of connection points: 2
#     Edge 29, Type (0, 1), BuildingBlock: KIFKEQ_clean_linker_1, # of connection points: 2
#     Edge 30, Type (0, 1), BuildingBlock: KIFKEQ_clean_linker_1, # of connection points: 2
#     Edge 31, Type (0, 1), BuildingBlock: KIFKEQ_clean_linker_1, # of connection points: 2
#     Edge 32, Type (0, 1), BuildingBlock: KIFKEQ_clean_linker_1, # of connection points: 2
#     Edge 33, Type (0, 1), BuildingBlock: KIFKEQ_clean_linker_1, # of connection points: 2
#     Edge 34, Type (0, 1), BuildingBlock: KIFKEQ_clean_linker_1, # of connection points: 2
#     Edge 35, Type (0, 1), BuildingBlock: KIFKEQ_clean_linker_1, # of connection points: 2
# Relax obj value: 0.086
# Max RMSD: 0.176
# Mean RMSD: 0.065
data_MOF--net-zzz--node1-LEVNOQ01_clean_sbu_1--node2-QEWDON_clean_linker_0--edge1-KIFKEQ_clean_linker_1
_symmetry_space_group_name_H-M    P1
_symmetry_Int_Tables_number       1
_symmetry_cell_setting            triclinic
loop_
_symmetry_equiv_pos_as_xyz
'x, y, z'
_cell_length_a     54.694172
_cell_length_b     54.738503
_cell_length_c     15.852273
_cell_angle_alpha  89.971661
_cell_angle_beta   90.051765
_cell_angle_gamma 89.986061
loop_
_atom_site_label
_atom_site_type_symbol
_atom_site_fract_x
_atom_site_fract_y
_atom_site_fract_z
_atom_type_partial_charge
H0 H 0.78842 0.56559 0.00578 0.0
C1 C 0.79642 0.56465 0.06824 0.0
C2 C 0.81989 0.55467 0.07807 0.0
C3 C 0.78366 0.57383 0.13914 0.0
H4 H 0.84918 0.54689 0.16436 0.0
C5 C 0.83082 0.55424 0.15748 0.0
C6 C 0.81886 0.5633 0.22811 0.0
C7 C 0.79514 0.57288 0.21961 0.0
C8 C 0.75898 0.58536 0.12891 0.0
H9 H 0.7858 0.57955 0.27525 0.0
C10 C 0.74135 0.57597 0.0719 0.0
C11 C 0.71819 0.5873 0.06262 0.0
C12 C 0.7531 0.60634 0.17588 0.0
H13 H 0.76624 0.61443 0.21865 0.0
C14 C 0.73032 0.61748 0.16742 0.0
H15 H 0.74562 0.55989 0.03501 0.0
C16 C 0.71299 0.60807 0.11172 0.0
H17 H 0.69532 0.61693 0.10822 0.0
H18 H 0.72604 0.63354 0.20441 0.0
H19 H 0.96201 0.77927 0.0113 0.0
C20 C 0.96147 0.78874 0.07122 0.0
C21 C 0.96865 0.81331 0.07459 0.0
C22 C 0.95318 0.77678 0.14513 0.0
H23 H 0.97266 0.84519 0.15168 0.0
C24 C 0.96708 0.82614 0.15017 0.0
C25 C 0.959 0.81502 0.22396 0.0
C26 C 0.95257 0.79014 0.22219 0.0
C27 C 0.94409 0.75092 0.14129 0.0
H28 H 0.9469 0.78144 0.28031 0.0
C29 C 0.95438 0.73341 0.08566 0.0
C30 C 0.94512 0.70926 0.08195 0.0
C31 C 0.9243 0.74377 0.19235 0.0
H32 H 0.91536 0.75667 0.23386 0.0
C33 C 0.91522 0.72 0.18918 0.0
H34 H 0.96982 0.73833 0.04652 0.0
C35 C 0.92547 0.7029 0.13464 0.0
H36 H 0.91763 0.68474 0.13256 0.0
H37 H 0.8999 0.71488 0.2286 0.0
H38 H 0.74094 0.9596 0.018 0.0
C39 C 0.73272 0.96238 0.07942 0.0
C40 C 0.70839 0.97043 0.08467 0.0
C41 C 0.74597 0.95705 0.15393 0.0
H42 H 0.67837 0.97904 0.16664 0.0
C43 C 0.69733 0.97318 0.16321 0.0
C44 C 0.70978 0.96771 0.23725 0.0
C45 C 0.7342 0.95987 0.23319 0.0
C46 C 0.77138 0.94702 0.14928 0.0
H47 H 0.74382 0.95583 0.2913 0.0
C48 C 0.7888 0.95611 0.09108 0.0
C49 C 0.8128 0.94641 0.08846 0.0
C50 C 0.77824 0.92784 0.20341 0.0
H51 H 0.76527 0.92001 0.24737 0.0
C52 C 0.80176 0.91809 0.20051 0.0
H53 H 0.78392 0.97107 0.04962 0.0
C54 C 0.8189 0.92726 0.14379 0.0
H55 H 0.83692 0.91905 0.14248 0.0
H56 H 0.8067 0.90323 0.24225 0.0
H57 H 0.54816 0.73764 0.023 0.0
C58 C 0.55014 0.72849 0.08318 0.0
C59 C 0.54129 0.70455 0.09174 0.0
C60 C 0.56192 0.74017 0.1519 0.0
H61 H 0.53861 0.67311 0.17201 0.0
C62 C 0.54498 0.69185 0.16681 0.0
C63 C 0.55692 0.70248 0.23495 0.0
C64 C 0.56475 0.72689 0.22876 0.0
C65 C 0.57222 0.76553 0.14251 0.0
H66 H 0.57322 0.73523 0.28334 0.0
C67 C 0.56159 0.78321 0.08785 0.0
C68 C 0.57173 0.80692 0.08038 0.0
C69 C 0.59342 0.77212 0.18766 0.0
H70 H 0.60283 0.75911 0.22751 0.0
C71 C 0.6033 0.79551 0.18085 0.0
H72 H 0.54522 0.77886 0.05248 0.0
C73 C 0.59255 0.81279 0.1281 0.0
H74 H 0.60089 0.83068 0.12316 0.0
H75 H 0.6196 0.80019 0.21611 0.0
H76 H 0.24387 0.48003 0.30968 0.0
C77 C 0.23431 0.47395 0.25363 0.0
C78 C 0.20901 0.46947 0.25791 0.0
C79 C 0.24683 0.47169 0.17585 0.0
H80 H 0.17648 0.46162 0.18791 0.0
C81 C 0.19625 0.46317 0.18479 0.0
C82 C 0.20776 0.46194 0.10652 0.0
C83 C 0.23317 0.46557 0.10258 0.0
C84 C 0.27357 0.47758 0.16876 0.0
H85 H 0.24204 0.46415 0.04177 0.0
C86 C 0.29047 0.47216 0.23416 0.0
C87 C 0.31568 0.47722 0.22392 0.0
C88 C 0.2824 0.48893 0.09497 0.0
H89 H 0.27013 0.49444 0.04486 0.0
C90 C 0.30721 0.49379 0.08479 0.0
H91 H 0.28424 0.46363 0.29192 0.0
C92 C 0.32375 0.48786 0.14829 0.0
H93 H 0.34288 0.49225 0.13915 0.0
H94 H 0.31363 0.50246 0.02755 0.0
H95 H 0.03421 0.23878 0.31668 0.0
C96 C 0.04024 0.22978 0.25954 0.0
C97 C 0.04586 0.2047 0.26206 0.0
C98 C 0.04139 0.24276 0.18232 0.0
H99 H 0.0549 0.17291 0.18948 0.0
C100 C 0.05225 0.19257 0.18784 0.0
C101 C 0.05222 0.20447 0.11027 0.0
C102 C 0.04736 0.22966 0.10775 0.0
C103 C 0.0348 0.26939 0.17758 0.0
H104 H 0.04786 0.23874 0.04713 0.0
C105 C 0.03986 0.2859 0.24443 0.0
C106 C 0.03432 0.31104 0.23623 0.0
C107 C 0.02325 0.27858 0.10456 0.0
H108 H 0.01791 0.26663 0.05342 0.0
C109 C 0.01798 0.30337 0.09639 0.0
H110 H 0.04849 0.27946 0.30179 0.0
C111 C 0.02363 0.31952 0.16125 0.0
H112 H 0.01901 0.33865 0.15378 0.0
H113 H 0.00922 0.31007 0.03963 0.0
H114 H 0.28093 0.03674 0.31307 0.0
C115 C 0.29019 0.04258 0.25618 0.0
C116 C 0.31543 0.04738 0.25932 0.0
C117 C 0.27736 0.04433 0.17872 0.0
H118 H 0.34767 0.05507 0.18783 0.0
C119 C 0.32791 0.05329 0.18537 0.0
C120 C 0.31612 0.05402 0.10745 0.0
C121 C 0.29073 0.0502 0.1046 0.0
C122 C 0.25054 0.03848 0.17323 0.0
H123 H 0.28168 0.05141 0.04402 0.0
C124 C 0.23416 0.04335 0.24057 0.0
C125 C 0.20891 0.03832 0.23222 0.0
C126 C 0.24107 0.02771 0.09926 0.0
H127 H 0.25288 0.0225 0.04761 0.0
C128 C 0.21616 0.02301 0.09082 0.0
H129 H 0.24079 0.0514 0.29862 0.0
C130 C 0.20017 0.02842 0.15635 0.0
H131 H 0.18095 0.02413 0.14869 0.0
H132 H 0.20926 0.01483 0.03337 0.0
H133 H 0.4883 0.27744 0.32427 0.0
C134 C 0.48014 0.28742 0.2724 0.0
C135 C 0.47644 0.31271 0.28088 0.0
C136 C 0.47433 0.27545 0.19582 0.0
H137 H 0.46581 0.34586 0.21894 0.0
C138 C 0.46719 0.32613 0.21324 0.0
C139 C 0.46286 0.31527 0.13524 0.0
C140 C 0.46598 0.28988 0.12683 0.0
C141 C 0.47852 0.2484 0.18589 0.0
H142 H 0.46217 0.28171 0.06611 0.0
C143 C 0.47625 0.23188 0.25466 0.0
C144 C 0.47982 0.20648 0.24313 0.0
C145 C 0.48511 0.23884 0.10651 0.0
H146 H 0.4882 0.25064 0.05284 0.0
C147 C 0.48838 0.21382 0.09498 0.0
H148 H 0.47128 0.23853 0.31663 0.0
C149 C 0.48563 0.19775 0.16237 0.0
H150 H 0.48874 0.17844 0.15178 0.0
H151 H 0.49338 0.20685 0.03346 0.0
O152 O 0.04511 0.97473 0.83192 0.0
Mg153 Mg 0.05006 0.97612 0.70106 0.0
O154 O 0.0083 0.97849 0.78185 0.0
Mg155 Mg 0.01024 0.00757 0.67247 0.0
O156 O 0.05321 0.00903 0.64231 0.0
O157 O 0.08484 0.98386 0.66916 0.0
O158 O 0.01346 0.03599 0.5633 0.0
O159 O 0.01712 0.04047 0.76486 0.0
Mg160 Mg 0.97345 0.03799 0.63251 0.0
O161 O 0.96682 0.00672 0.70071 0.0
O162 O 0.97846 0.04065 0.50057 0.0
O163 O 0.9916 0.06577 0.70116 0.0
O164 O 0.93813 0.03427 0.6644 0.0
C165 C 0.01342 0.95369 0.57997 0.0
C166 C 0.02273 0.96949 0.83676 0.0
C167 C 0.07653 0.00392 0.63744 0.0
C168 C 0.00104 0.04537 0.50373 0.0
C169 C 0.00864 0.06205 0.75389 0.0
C170 C 0.94404 0.01415 0.70167 0.0
O171 O 0.03208 0.94943 0.62546 0.0
O172 O 0.0033 0.97479 0.58048 0.0
O173 O 0.45297 0.98472 0.71112 0.0
Mg174 Mg 0.47985 0.96877 0.63223 0.0
O175 O 0.4787 0.01203 0.76328 0.0
Mg176 Mg 0.51177 0.00621 0.67213 0.0
O177 O 0.51224 0.96239 0.69392 0.0
O178 O 0.48545 0.93317 0.65636 0.0
O179 O 0.54575 0.00153 0.58235 0.0
O180 O 0.53968 0.00149 0.78145 0.0
Mg181 Mg 0.54185 0.04433 0.72281 0.0
O182 O 0.51095 0.04966 0.65222 0.0
O183 O 0.56966 0.028 0.64876 0.0
O184 O 0.54334 0.03523 0.85235 0.0
O185 O 0.53499 0.08003 0.69958 0.0
C186 C 0.47326 0.9989 0.50384 0.0
C187 C 0.45746 0.00228 0.76094 0.0
C188 C 0.50558 0.93937 0.69304 0.0
C189 C 0.56684 0.01125 0.59411 0.0
C190 C 0.54848 0.01287 0.84437 0.0
C191 C 0.51628 0.07293 0.65642 0.0
O192 O 0.47627 0.97606 0.50222 0.0
O193 O 0.48366 0.01096 0.56227 0.0
O194 O 0.52934 0.47161 0.87892 0.0
Mg195 Mg 0.54579 0.48022 0.76402 0.0
O196 O 0.4998 0.47778 0.7893 0.0
Mg197 Mg 0.51365 0.5089 0.69342 0.0
O198 O 0.55617 0.51531 0.73936 0.0
O199 O 0.58135 0.48523 0.78339 0.0
O200 O 0.52364 0.5405 0.59745 0.0
O201 O 0.50844 0.53941 0.79658 0.0
Mg202 Mg 0.47362 0.53665 0.6946 0.0
O203 O 0.47241 0.50304 0.63881 0.0
O204 O 0.49189 0.56407 0.62486 0.0
O205 O 0.4697 0.5428 0.82441 0.0
O206 O 0.44061 0.52922 0.64678 0.0
C207 C 0.53147 0.45788 0.60251 0.0
C208 C 0.5076 0.4676 0.8567 0.0
C209 C 0.57776 0.50785 0.76489 0.0
C210 C 0.51229 0.56083 0.58864 0.0
C211 C 0.49143 0.54863 0.84116 0.0
C212 C 0.44955 0.50857 0.62304 0.0
O213 O 0.54275 0.45356 0.67029 0.0
O214 O 0.52101 0.47852 0.59196 0.0
O215 O 0.9841 0.48122 0.83765 0.0
Mg216 Mg 0.98317 0.47684 0.70607 0.0
O217 O 0.98439 0.517 0.77884 0.0
Mg218 Mg 0.01289 0.51403 0.66812 0.0
O219 O 0.01392 0.47081 0.6365 0.0
O220 O 0.9872 0.44148 0.67435 0.0
O221 O 0.04162 0.51095 0.5597 0.0
O222 O 0.04538 0.50628 0.76097 0.0
Mg223 Mg 0.04562 0.55181 0.63903 0.0
O224 O 0.01236 0.55742 0.69603 0.0
O225 O 0.05122 0.54654 0.50872 0.0
O226 O 0.07141 0.53473 0.71906 0.0
O227 O 0.03973 0.58699 0.66807 0.0
C228 C 0.95833 0.5126 0.58746 0.0
C229 C 0.97735 0.50322 0.8387 0.0
C230 C 0.00694 0.44794 0.63596 0.0
C231 C 0.05318 0.52361 0.50552 0.0
C232 C 0.06654 0.51619 0.76398 0.0
C233 C 0.019 0.58041 0.69957 0.0
O234 O 0.95479 0.49548 0.64014 0.0
O235 O 0.97991 0.5211 0.57622 0.0
H236 H 0.2116 0.01923 0.3906 0.0
H237 H 0.16611 0.06407 0.23136 0.0
H238 H 0.1791 0.01719 0.49492 0.0
H239 H 0.13381 0.06335 0.3375 0.0
H240 H 0.12179 0.01779 0.68672 0.0
H241 H 0.15449 0.0333 0.59761 0.0
H242 H 0.10397 0.03729 0.38782 0.0
H243 H 0.07101 0.02337 0.47969 0.0
C244 C 0.19491 0.0294 0.37946 0.0
C245 C 0.19138 0.04175 0.30293 0.0
C246 C 0.17613 0.02833 0.43946 0.0
C247 C 0.15343 0.03995 0.42513 0.0
C248 C 0.15064 0.05366 0.35049 0.0
C249 C 0.16928 0.05434 0.2899 0.0
C250 C 0.11758 0.02285 0.62222 0.0
C251 C 0.09391 0.01938 0.59001 0.0
C252 C 0.13643 0.03137 0.57048 0.0
C253 C 0.13232 0.03592 0.48418 0.0
C254 C 0.10808 0.03416 0.45371 0.0
C255 C 0.08903 0.02618 0.50637 0.0
H256 H 0.50439 0.2085 0.39306 0.0
H257 H 0.45385 0.16387 0.25259 0.0
H258 H 0.5087 0.17621 0.49766 0.0
H259 H 0.457 0.13183 0.35914 0.0
H260 H 0.49552 0.06809 0.49947 0.0
H261 H 0.48284 0.10115 0.40563 0.0
H262 H 0.49399 0.15316 0.6074 0.0
H263 H 0.50799 0.12027 0.6985 0.0
C264 C 0.4936 0.19204 0.38606 0.0
C265 C 0.47883 0.18874 0.31456 0.0
C266 C 0.49598 0.17338 0.44627 0.0
C267 C 0.48332 0.15102 0.43744 0.0
C268 C 0.46753 0.14838 0.36777 0.0
C269 C 0.46549 0.16688 0.30693 0.0
C270 C 0.49473 0.08655 0.52401 0.0
C271 C 0.50296 0.09159 0.60609 0.0
C272 C 0.48744 0.10564 0.47018 0.0
C273 C 0.48781 0.13021 0.4977 0.0
C274 C 0.49422 0.13478 0.5823 0.0
C275 C 0.50195 0.11582 0.63523 0.0
H276 H 0.31384 0.49262 0.3876 0.0
H277 H 0.35921 0.45293 0.21276 0.0
H278 H 0.34721 0.49322 0.48933 0.0
H279 H 0.39247 0.45247 0.31552 0.0
H280 H 0.45471 0.49319 0.46048 0.0
H281 H 0.42153 0.47959 0.36869 0.0
H282 H 0.37353 0.47483 0.58479 0.0
H283 H 0.40646 0.48979 0.67465 0.0
C284 C 0.33071 0.48327 0.37216 0.0
C285 C 0.33393 0.47285 0.29213 0.0
C286 C 0.34998 0.48354 0.43061 0.0
C287 C 0.3729 0.47308 0.41095 0.0
C288 C 0.37543 0.46122 0.33264 0.0
C289 C 0.35627 0.46126 0.27389 0.0
C290 C 0.43731 0.48832 0.48844 0.0
C291 C 0.43315 0.49238 0.57454 0.0
C292 C 0.41813 0.4806 0.43584 0.0
C293 C 0.39444 0.47655 0.46858 0.0
C294 C 0.39116 0.47844 0.55642 0.0
C295 C 0.41017 0.48658 0.60843 0.0
H296 H 0.06154 0.3528 0.23342 0.0
H297 H 0.01463 0.30998 0.39381 0.0
H298 H 0.06169 0.38572 0.33725 0.0
H299 H 0.01334 0.34318 0.49566 0.0
H300 H 0.01666 0.40159 0.68513 0.0
H301 H 0.02982 0.36762 0.59742 0.0
H302 H 0.03728 0.41696 0.38562 0.0
H303 H 0.02575 0.45113 0.47619 0.0
C304 C 0.05155 0.35035 0.2918 0.0
C305 C 0.0382 0.32879 0.30595 0.0
C306 C 0.05132 0.36937 0.35101 0.0
C307 C 0.03727 0.36757 0.42523 0.0
C308 C 0.02478 0.3454 0.44056 0.0
C309 C 0.02542 0.32622 0.38202 0.0
C310 C 0.02183 0.4052 0.62034 0.0
C311 C 0.02013 0.42896 0.58737 0.0
C312 C 0.02904 0.38563 0.5694 0.0
C313 C 0.03403 0.38911 0.48308 0.0
C314 C 0.03379 0.41329 0.45159 0.0
C315 C 0.02716 0.43302 0.50346 0.0
H316 H 0.8074 0.95865 0.9212 0.0
H317 H 0.86123 0.95538 0.12024 0.0
H318 H 0.83899 0.97206 0.82261 0.0
H319 H 0.8927 0.96891 0.0223 0.0
H320 H 0.94884 0.9752 0.81129 0.0
H321 H 0.91704 0.95736 0.90127 0.0
H322 H 0.86389 0.00663 0.79267 0.0
H323 H 0.8952 0.02382 0.70269 0.0
C324 C 0.82591 0.96104 0.94416 0.0
C325 C 0.83171 0.95588 0.02872 0.0
C326 C 0.84409 0.96865 0.88757 0.0
C327 C 0.86855 0.97146 0.9141 0.0
C328 C 0.87426 0.96646 -0.00113 0.0
C329 C 0.85612 0.95881 0.05528 0.0
C330 C 0.93031 0.98193 0.80611 0.0
C331 C 0.92473 0.00106 0.75015 0.0
C332 C 0.91207 0.97187 0.85808 0.0
C333 C 0.8878 0.98064 0.85488 0.0
C334 C 0.88219 0.99915 0.79659 0.0
C335 C 0.90032 0.00916 0.74511 0.0
H336 H 0.56014 0.80202 0.91299 0.0
H337 H 0.56079 0.85458 0.11538 0.0
H338 H 0.54757 0.83394 0.81448 0.0
H339 H 0.54722 0.88637 0.01845 0.0
H340 H 0.54046 0.94464 0.81798 0.0
H341 H 0.55775 0.91255 0.90759 0.0
H342 H 0.51573 0.85854 0.77121 0.0
H343 H 0.49999 0.89016 0.67963 0.0
C344 C 0.5571 0.82033 0.93669 0.0
C345 C 0.56139 0.82571 0.02202 0.0
C346 C 0.54991 0.83875 0.8802 0.0
C347 C 0.5464 0.86305 0.90772 0.0
C348 C 0.55024 0.86819 0.99378 0.0
C349 C 0.55776 0.84985 0.04985 0.0
C350 C 0.5356 0.92583 0.80567 0.0
C351 C 0.51899 0.92009 0.74103 0.0
C352 C 0.54512 0.90737 0.85814 0.0
C353 C 0.53805 0.8827 0.84783 0.0
C354 C 0.52203 0.87706 0.78118 0.0
C355 C 0.51279 0.89538 0.72858 0.0
H356 H 0.68552 0.61291 0.96393 0.0
H357 H 0.70699 0.5393 0.02888 0.0
H358 H 0.65206 0.59691 0.87824 0.0
H359 H 0.67389 0.5234 0.94207 0.0
H360 H 0.62546 0.49875 0.73547 0.0
H361 H 0.66046 0.51978 0.79617 0.0
H362 H 0.61239 0.57518 0.89661 0.0
H363 H 0.57713 0.55407 0.834 0.0
C364 C 0.68316 0.59331 0.96009 0.0
C365 C 0.69903 0.57743 0.00411 0.0
C366 C 0.66395 0.58416 0.91069 0.0
C367 C 0.66022 0.55888 0.90299 0.0
C368 C 0.67641 0.543 0.94531 0.0
C369 C 0.69551 0.55213 -0.00485 0.0
C370 C 0.6224 0.51582 0.76846 0.0
C371 C 0.59852 0.5247 0.78028 0.0
C372 C 0.64247 0.52772 0.80416 0.0
C373 C 0.63925 0.54883 0.85326 0.0
C374 C 0.61555 0.55892 0.8593 0.0
C375 C 0.59533 0.54695 0.82299 0.0
H376 H 0.95844 0.71515 0.91611 0.0
H377 H 0.95453 0.66085 0.11318 0.0
H378 H 0.97287 0.68403 0.81771 0.0
H379 H 0.96918 0.62981 0.01539 0.0
H380 H 0.97889 0.57427 0.80362 0.0
H381 H 0.95941 0.60538 0.89268 0.0
H382 H 0.00792 0.66007 0.78968 0.0
H383 H 0.02668 0.62949 0.70085 0.0
C384 C 0.96094 0.69664 0.93875 0.0
C385 C 0.95534 0.69059 0.02271 0.0
C386 C 0.96913 0.67871 0.88221 0.0
C387 C 0.97214 0.65424 0.90817 0.0
C388 C 0.96663 0.64826 0.99234 0.0
C389 C 0.95836 0.66616 0.0487 0.0
C390 C 0.98507 0.593 0.79945 0.0
C391 C 0.0045 0.59922 0.74564 0.0
C392 C 0.97408 0.61085 0.85091 0.0
C393 C 0.98218 0.63535 0.84915 0.0
C394 C 0.00092 0.64158 0.79255 0.0
C395 C 0.01184 0.62386 0.74167 0.0
H396 H 0.00223 0.19537 0.33676 0.0
H397 H 0.07869 0.17661 0.34531 0.0
H398 H 0.992 0.15638 0.40268 0.0
H399 H 0.06874 0.13724 0.40622 0.0
H400 H 0.04402 0.06855 0.53827 0.0
H401 H 0.05454 0.1104 0.5061 0.0
H402 H 0.99017 0.11644 0.34878 0.0
H403 H 0.97872 0.07478 0.38595 0.0
C404 C 0.01692 0.18339 0.3566 0.0
C405 C 0.04123 0.18892 0.33596 0.0
C406 C 0.01107 0.16069 0.39198 0.0
C407 C 0.02943 0.14311 0.40663 0.0
C408 C 0.054 0.15007 0.39572 0.0
C409 C 0.05982 0.17285 0.36163 0.0
C410 C 0.03222 0.0786 0.49568 0.0
C411 C 0.01039 0.06821 0.46496 0.0
C412 C 0.03827 0.1028 0.47742 0.0
C413 C 0.023 0.11719 0.42614 0.0
C414 C 0.00197 0.10629 0.39099 0.0
C415 C 0.99565 0.08216 0.41065 0.0
H416 H 0.34364 0.07977 0.34391 0.0
H417 H 0.32407 0.0036 0.33392 0.0
H418 H 0.38289 0.06928 0.40556 0.0
H419 H 0.36293 0.99285 0.40011 0.0
H420 H 0.44413 0.97858 0.38172 0.0
H421 H 0.40284 0.99113 0.3439 0.0
H422 H 0.40957 0.05417 0.50656 0.0
H423 H 0.45114 0.04237 0.54045 0.0
C424 C 0.34718 0.06085 0.36007 0.0
C425 C 0.33092 0.04248 0.33382 0.0
C426 C 0.36989 0.05474 0.39449 0.0
C427 C 0.37658 0.0301 0.40491 0.0
C428 C 0.3588 0.01197 0.38977 0.0
C429 C 0.33618 0.01812 0.35423 0.0
C430 C 0.43701 0.99546 0.40759 0.0
C431 C 0.45103 0.00939 0.46414 0.0
C432 C 0.41308 0.00241 0.38748 0.0
C433 C 0.40244 0.02331 0.42417 0.0
C434 C 0.41699 0.03795 0.47705 0.0
C435 C 0.44101 0.03121 0.49612 0.0
H436 H 0.4502 0.33958 0.39214 0.0
H437 H 0.52381 0.3201 0.32247 0.0
H438 H 0.46555 0.37521 0.46817 0.0
H439 H 0.53932 0.35602 0.39651 0.0
H440 H 0.55788 0.41598 0.59151 0.0
H441 H 0.54524 0.3778 0.52665 0.0
H442 H 0.48218 0.41399 0.41976 0.0
H443 H 0.4945 0.4522 0.48719 0.0
C444 C 0.46977 0.34241 0.39639 0.0
C445 C 0.48589 0.32701 0.35262 0.0
C446 C 0.47854 0.36311 0.43796 0.0
C447 C 0.50359 0.36887 0.43616 0.0
C448 C 0.51992 0.35218 0.39895 0.0
C449 C 0.51112 0.33139 0.35759 0.0
C450 C 0.54155 0.41594 0.55276 0.0
C451 C 0.52711 0.43711 0.54482 0.0
C452 C 0.53429 0.39399 0.51573 0.0
C453 C 0.51241 0.39267 0.46969 0.0
C454 C 0.4988 0.41424 0.45691 0.0
C455 C 0.50609 0.43627 0.49406 0.0
H456 H 0.20211 0.51383 0.33074 0.0
H457 H 0.17966 0.43851 0.34426 0.0
H458 H 0.16397 0.52625 0.39801 0.0
H459 H 0.14104 0.45064 0.40619 0.0
H460 H 0.07393 0.47936 0.53945 0.0
H461 H 0.11502 0.46637 0.50528 0.0
H462 H 0.12403 0.53015 0.3471 0.0
H463 H 0.08326 0.54399 0.38622 0.0
C464 C 0.1895 0.49985 0.35186 0.0
C465 C 0.19377 0.47523 0.33226 0.0
C466 C 0.16726 0.50697 0.388 0.0
C467 C 0.14882 0.48959 0.40436 0.0
C468 C 0.15453 0.46468 0.3944 0.0
C469 C 0.17689 0.4576 0.35969 0.0
C470 C 0.08446 0.49046 0.4961 0.0
C471 C 0.07522 0.51282 0.46569 0.0
C472 C 0.10823 0.48302 0.47674 0.0
C473 C 0.12329 0.4974 0.42475 0.0
C474 C 0.11343 0.51898 0.3899 0.0
C475 C 0.08978 0.52668 0.41068 0.0
H476 H 0.94273 0.83712 0.95384 0.0
H477 H 0.0158 0.82285 0.04222 0.0
H478 H 0.95675 0.87476 0.88673 0.0
H479 H 0.02973 0.86088 0.98137 0.0
H480 H 0.05161 0.92954 0.8497 0.0
H481 H 0.03922 0.88809 0.87918 0.0
H482 H 0.96616 0.91347 0.9368 0.0
H483 H 0.97846 0.95508 0.90074 0.0
C484 C 0.96205 0.84148 0.95511 0.0
C485 C 0.97828 0.82707 0.0022 0.0
C486 C 0.97 0.86344 0.91911 0.0
C487 C 0.99423 0.87151 0.93105 0.0
C488 C 0.01097 0.85553 0.97015 0.0
C489 C 0.0031 0.83342 0.00443 0.0
C490 C 0.033 0.9264 0.87038 0.0
C491 C 0.01605 0.94569 0.87411 0.0
C492 C 0.0258 0.90245 0.88689 0.0
C493 C 0.00158 0.89709 0.91003 0.0
C494 C 0.98481 0.91661 0.91685 0.0
C495 C 0.99191 0.94059 0.89795 0.0
H496 H 0.69785 0.01363 0.01046 0.0
H497 H 0.68098 0.93679 0.00459 0.0
H498 H 0.6582 0.02285 0.94695 0.0
H499 H 0.64107 0.94577 0.94367 0.0
H500 H 0.57365 0.97198 0.79815 0.0
H501 H 0.61527 0.96133 0.83459 0.0
H502 H 0.61789 0.02171 0.00977 0.0
H503 H 0.57607 0.03281 0.97179 0.0
C504 C 0.68615 0.99865 0.99118 0.0
C505 C 0.69249 0.97451 0.0112 0.0
C506 C 0.66317 0.00392 0.95714 0.0
C507 C 0.64613 0.98511 0.94302 0.0
C508 C 0.65367 0.96073 0.95398 0.0
C509 C 0.67671 0.9555 0.9876 0.0
C510 C 0.5827 0.98264 0.84641 0.0
C511 C 0.57129 0.00321 0.88257 0.0
C512 C 0.6068 0.97662 0.86655 0.0
C513 C 0.62015 0.99095 0.92368 0.0
C514 C 0.60836 0.01071 0.96348 0.0
C515 C 0.58422 0.01682 0.943 0.0
H516 H 0.56262 0.68477 0.95335 0.0
H517 H 0.49395 0.69119 0.08427 0.0
H518 H 0.54845 0.64712 0.88666 0.0
H519 H 0.4801 0.65313 0.0222 0.0
H520 H 0.45887 0.58491 0.87741 0.0
H521 H 0.46843 0.6268 0.91496 0.0
H522 H 0.54468 0.6073 0.9419 0.0
H523 H 0.53518 0.56559 0.89984 0.0
C524 C 0.54403 0.67874 0.96442 0.0
C525 C 0.5293 0.69082 0.02343 0.0
C526 C 0.53613 0.6568 0.92833 0.0
C527 C 0.51349 0.6465 0.95161 0.0
C528 C 0.49765 0.6603 0.00273 0.0
C529 C 0.50544 0.68235 0.0377 0.0
C530 C 0.47762 0.58941 0.89309 0.0
C531 C 0.49629 0.57186 0.88573 0.0
C532 C 0.48315 0.61358 0.91404 0.0
C533 C 0.50743 0.62072 0.92966 0.0
C534 C 0.52588 0.60276 0.92732 0.0
C535 C 0.5204 0.57868 0.90505 0.0
H536 H 0.83118 0.50768 0.0486 0.0
H537 H 0.84407 0.58081 0.95876 0.0
H538 H 0.86945 0.49431 0.98765 0.0
H539 H 0.88202 0.56733 0.8921 0.0
H540 H 0.9627 0.54669 0.90701 0.0
H541 H 0.92095 0.55834 0.94411 0.0
H542 H 0.89637 0.48532 0.88258 0.0
H543 H 0.93805 0.47362 0.85119 0.0
C544 C 0.84157 0.52052 0.01086 0.0
C545 C 0.83473 0.5452 0.00797 0.0
C546 C 0.86375 0.51296 0.97642 0.0
C547 C 0.87938 0.52988 0.93683 0.0
C548 C 0.87092 0.55397 0.92476 0.0
C549 C 0.84883 0.5616 0.96066 0.0
C550 C 0.94835 0.53311 0.90357 0.0
C551 C 0.95369 0.50919 0.87805 0.0
C552 C 0.92432 0.53983 0.92308 0.0
C553 C 0.905 0.52288 0.91536 0.0
C554 C 0.91061 0.49884 0.89081 0.0
C555 C 0.93464 0.49203 0.87342 0.0
H556 H 0.0856 0.16939 0.06758 0.0
H557 H 0.01848 0.20314 0.98466 0.0
H558 H 0.07842 0.13515 0.97178 0.0
H559 H 0.01099 0.16895 0.89019 0.0
H560 H 0.00634 0.10905 0.70128 0.0
H561 H 0.02169 0.1454 0.77043 0.0
H562 H 0.05037 0.10096 0.97308 0.0
H563 H 0.03552 0.06411 0.90155 0.0
C564 C 0.06973 0.16986 0.0266 0.0
C565 C 0.05259 0.18893 0.03351 0.0
C566 C 0.0654 0.15006 0.97281 0.0
C567 C 0.04386 0.14895 0.92454 0.0
C568 C 0.02785 0.16914 0.92599 0.0
C569 C 0.03222 0.18894 0.97969 0.0
C570 C 0.01592 0.10693 0.76069 0.0
C571 C 0.01929 0.08366 0.79684 0.0
C572 C 0.02475 0.12787 0.80035 0.0
C573 C 0.03703 0.12627 0.87789 0.0
C574 C 0.04118 0.1029 0.91292 0.0
C575 C 0.03251 0.08177 0.87247 0.0
H576 H 0.31313 0.02415 0.96961 0.0
H577 H 0.35528 0.08357 0.07361 0.0
H578 H 0.34654 0.0146 0.87382 0.0
H579 H 0.38945 0.07286 0.9837 0.0
H580 H 0.44873 0.05016 0.80007 0.0
H581 H 0.41157 0.06726 0.86193 0.0
H582 H 0.3829 0.99415 0.89419 0.0
H583 H 0.41923 0.97754 0.82786 0.0
C584 C 0.32924 0.03566 0.9703 0.0
C585 C 0.33176 0.05425 0.0306 0.0
C586 C 0.34873 0.02981 0.91679 0.0
C587 C 0.37129 0.04215 0.92345 0.0
C588 C 0.37262 0.06265 0.97674 0.0
C589 C 0.35296 0.06883 0.02874 0.0
C590 C 0.43452 0.03784 0.82145 0.0
C591 C 0.4369 0.01253 0.80987 0.0
C592 C 0.41311 0.04761 0.85657 0.0
C593 C 0.39382 0.03221 0.88231 0.0
C594 C 0.39678 0.00679 0.87275 0.0
C595 C 0.41786 0.99715 0.83612 0.0
H596 H 0.49436 0.32045 0.00514 0.0
H597 H 0.42741 0.34959 0.10738 0.0
H598 H 0.50084 0.35848 0.92734 0.0
H599 H 0.43374 0.38758 0.02818 0.0
H600 H 0.46397 0.44651 0.80732 0.0
H601 H 0.44751 0.40695 0.85478 0.0
H602 H 0.50583 0.40109 0.03668 0.0
H603 H 0.52188 0.44044 0.99203 0.0
C604 C 0.48027 0.33436 0.00689 0.0
C605 C 0.46035 0.33203 0.06209 0.0
C606 C 0.48414 0.35625 0.9632 0.0
C607 C 0.4679 0.37596 0.97272 0.0
C608 C 0.44643 0.37259 0.01959 0.0
C609 C 0.44272 0.35079 0.06426 0.0
C610 C 0.4729 0.43706 0.85888 0.0
C611 C 0.49436 0.44667 0.89549 0.0
C612 C 0.46359 0.41437 0.88536 0.0
C613 C 0.4758 0.40084 0.94783 0.0
C614 C 0.49638 0.41101 0.98723 0.0
C615 C 0.50543 0.43368 0.96197 0.0
H616 H 0.16811 0.43275 0.07481 0.0
H617 H 0.21061 0.4915 0.96792 0.0
H618 H 0.13369 0.44381 0.98574 0.0
H619 H 0.17687 0.50147 0.87378 0.0
H620 H 0.10459 0.53991 0.83614 0.0
H621 H 0.14069 0.52242 0.90123 0.0
H622 H 0.11151 0.44987 0.86144 0.0
H623 H 0.0746 0.46779 0.79955 0.0
C624 C 0.17045 0.4474 0.02952 0.0
C625 C 0.19185 0.4617 0.03023 0.0
C626 C 0.15065 0.45376 0.97815 0.0
C627 C 0.15204 0.47423 0.92472 0.0
C628 C 0.17472 0.48627 0.91686 0.0
C629 C 0.19437 0.48019 0.96947 0.0
C630 C 0.10576 0.52022 0.84228 0.0
C631 C 0.0867 0.50523 0.81342 0.0
C632 C 0.12671 0.5101 0.87827 0.0
C633 C 0.12949 0.48461 0.88503 0.0
C634 C 0.1101 0.46957 0.85767 0.0
C635 C 0.08884 0.4798 0.82268 0.0
H636 H 0.98561 0.80954 0.36896 0.0
H637 H 0.93297 0.85645 0.24768 0.0
H638 H 0.99589 0.84242 0.46723 0.0
H639 H 0.94403 0.8897 0.34121 0.0
H640 H 0.96565 0.94713 0.53159 0.0
H641 H 0.94765 0.9109 0.46649 0.0
H642 H 0.01929 0.87759 0.45419 0.0
H643 H 0.03678 0.91311 0.52283 0.0
C644 C 0.9756 0.82659 0.36547 0.0
C645 C 0.95853 0.83047 0.30083 0.0
C646 C 0.98187 0.84571 0.42036 0.0
C647 C 0.97144 0.86917 0.41075 0.0
C648 C 0.95255 0.87209 0.3513 0.0
C649 C 0.94608 0.85293 0.29755 0.0
C650 C 0.9775 0.93209 0.51425 0.0
C651 C 0.00266 0.93308 0.53183 0.0
C652 C 0.96719 0.91121 0.47714 0.0
C653 C 0.98187 0.89095 0.45547 0.0
C654 C 0.00713 0.89231 0.47197 0.0
C655 C 0.0173 0.91294 0.51021 0.0
H656 H 0.70589 0.00739 0.33785 0.0
H657 H 0.67963 0.93384 0.3051 0.0
H658 H 0.67153 0.01629 0.43083 0.0
H659 H 0.64528 0.94237 0.39958 0.0
H660 H 0.57042 0.97956 0.45849 0.0
H661 H 0.60788 0.96633 0.38687 0.0
H662 H 0.65096 0.00914 0.56101 0.0
H663 H 0.61403 0.02274 0.63022 0.0
C664 C 0.69343 0.99277 0.35437 0.0
C665 C 0.6957 0.96979 0.31626 0.0
C666 C 0.67352 0.99788 0.40687 0.0
C667 C 0.65537 0.98012 0.42192 0.0
C668 C 0.65866 0.95658 0.38827 0.0
C669 C 0.6786 0.95149 0.33581 0.0
C670 C 0.58789 0.98613 0.48115 0.0
C671 C 0.58906 0.00252 0.5492 0.0
C672 C 0.60941 0.97839 0.44077 0.0
C673 C 0.63252 0.98676 0.46798 0.0
C674 C 0.63357 0.00266 0.53725 0.0
C675 C 0.61223 0.01045 0.57697 0.0
H676 H 0.53451 0.70647 0.38807 0.0
H677 H 0.58497 0.66192 0.24736 0.0
H678 H 0.52752 0.67257 0.48573 0.0
H679 H 0.57741 0.6277 0.34204 0.0
H680 H 0.56026 0.56895 0.54003 0.0
H681 H 0.57687 0.6059 0.47335 0.0
H682 H 0.50418 0.63672 0.46325 0.0
H683 H 0.48796 0.60058 0.53046 0.0
C684 C 0.54492 0.68978 0.38033 0.0
C685 C 0.56034 0.68684 0.31052 0.0
C686 C 0.54056 0.67011 0.43507 0.0
C687 C 0.5513 0.64703 0.42035 0.0
C688 C 0.56876 0.64505 0.35569 0.0
C689 C 0.57324 0.66475 0.30155 0.0
C690 C 0.5479 0.5836 0.5229 0.0
C691 C 0.52278 0.58173 0.54067 0.0
C692 C 0.55741 0.60486 0.48513 0.0
C693 C 0.54199 0.62466 0.4643 0.0
C694 C 0.51684 0.62237 0.48074 0.0
C695 C 0.50744 0.60135 0.51842 0.0
H696 H 0.8522 0.59572 0.28665 0.0
H697 H 0.81845 0.52649 0.34175 0.0
H698 H 0.88565 0.5861 0.38376 0.0
H699 H 0.85194 0.51636 0.43692 0.0
H700 H 0.9106 0.50654 0.63012 0.0
H701 H 0.87451 0.52293 0.56182 0.0
H702 H 0.92019 0.559 0.37763 0.0
H703 H 0.9567 0.54312 0.44853 0.0
C704 C 0.8514 0.57893 0.32279 0.0
C705 C 0.83247 0.56209 0.30855 0.0
C706 C 0.87084 0.57313 0.37684 0.0
C707 C 0.87183 0.55025 0.41729 0.0
C708 C 0.85181 0.53424 0.40778 0.0
C709 C 0.83239 0.54011 0.35391 0.0
C710 C 0.91308 0.51795 0.57497 0.0
C711 C 0.93665 0.52319 0.54407 0.0
C712 C 0.89226 0.52738 0.53567 0.0
C713 C 0.89426 0.54219 0.46367 0.0
C714 C 0.91788 0.54791 0.43361 0.0
C715 C 0.93884 0.53862 0.47367 0.0
loop_
_geom_bond_atom_site_label_1
_geom_bond_atom_site_label_2
_geom_bond_distance
_geom_bond_site_symmetry_2
_ccdc_geom_bond_type
H0 C1 0.949 . S
C1 H0 0.949 . S
C1 C2 1.395 1_556 S
C1 C3 1.391 1_556 S
C2 C1 1.395 1_554 S
C2 C5 1.390 . S
C3 C1 1.391 1_554 S
C3 C7 1.387 . S
C3 C8 1.491 . S
H4 C5 0.950 . S
C5 C2 1.390 . S
C5 H4 0.950 . S
C5 C6 1.378 . S
C6 C5 1.378 . S
C6 C7 1.409 . S
C7 C3 1.387 . S
C7 C6 1.409 . S
C7 H9 0.951 . S
C8 C3 1.491 . S
C8 C10 1.382 . S
C8 C12 1.404 . S
H9 C7 0.951 . S
C10 C8 1.382 . S
C10 C11 1.390 . S
C10 H15 0.949 1_554 S
C11 C10 1.390 . S
C11 C16 1.402 . S
C12 C8 1.404 . S
C12 H13 0.950 . S
C12 C14 1.375 . S
H13 C12 0.950 . S
C14 C12 1.375 . S
C14 C16 1.382 . S
C14 H18 0.950 . S
H15 C10 0.949 1_556 S
C16 C11 1.402 . S
C16 C14 1.382 . S
C16 H17 0.952 . S
H17 C16 0.952 . S
H18 C14 0.950 . S
H19 C20 0.949 . S
C20 H19 0.949 . S
C20 C21 1.395 1_556 S
C20 C22 1.391 1_556 S
C21 C20 1.395 1_554 S
C21 C24 1.390 . S
C22 C20 1.391 1_554 S
C22 C26 1.387 . S
C22 C27 1.491 . S
H23 C24 0.950 . S
C24 C21 1.390 . S
C24 H23 0.950 . S
C24 C25 1.378 . S
C25 C24 1.378 . S
C25 C26 1.409 . S
C26 C22 1.387 . S
C26 C25 1.409 . S
C26 H28 0.951 . S
C27 C22 1.491 . S
C27 C29 1.382 . S
C27 C31 1.404 . S
H28 C26 0.951 . S
C29 C27 1.382 . S
C29 C30 1.390 . S
C29 H34 0.949 1_554 S
C30 C29 1.390 . S
C30 C35 1.403 . S
C31 C27 1.404 . S
C31 H32 0.950 . S
C31 C33 1.375 . S
H32 C31 0.950 . S
C33 C31 1.375 . S
C33 C35 1.382 . S
C33 H37 0.950 . S
H34 C29 0.949 1_556 S
C35 C30 1.403 . S
C35 C33 1.382 . S
C35 H36 0.952 . S
H36 C35 0.952 . S
H37 C33 0.950 . S
H38 C39 0.949 . S
C39 H38 0.949 . S
C39 C40 1.395 1_556 S
C39 C41 1.391 1_556 S
C40 C39 1.395 1_554 S
C40 C43 1.390 . S
C41 C39 1.391 1_554 S
C41 C45 1.387 . S
C41 C46 1.491 . S
H42 C43 0.950 . S
C43 C40 1.390 . S
C43 H42 0.950 . S
C43 C44 1.378 . S
C44 C43 1.378 . S
C44 C45 1.409 . S
C45 C41 1.387 . S
C45 C44 1.409 . S
C45 H47 0.951 . S
C46 C41 1.491 . S
C46 C48 1.382 . S
C46 C50 1.404 . S
H47 C45 0.951 . S
C48 C46 1.382 . S
C48 C49 1.390 . S
C48 H53 0.949 1_554 S
C49 C48 1.390 . S
C49 C54 1.403 . S
C50 C46 1.404 . S
C50 H51 0.950 . S
C50 C52 1.375 . S
H51 C50 0.950 . S
C52 C50 1.375 . S
C52 C54 1.382 . S
C52 H56 0.950 . S
H53 C48 0.949 1_556 S
C54 C49 1.403 . S
C54 C52 1.382 . S
C54 H55 0.952 . S
H55 C54 0.952 . S
H56 C52 0.950 . S
H57 C58 0.949 . S
C58 H57 0.949 . S
C58 C59 1.395 1_556 S
C58 C60 1.391 1_556 S
C59 C58 1.395 1_554 S
C59 C62 1.390 . S
C60 C58 1.391 1_554 S
C60 C64 1.387 . S
C60 C65 1.491 . S
H61 C62 0.950 . S
C62 C59 1.390 . S
C62 H61 0.950 . S
C62 C63 1.378 . S
C63 C62 1.378 . S
C63 C64 1.409 . S
C64 C60 1.387 . S
C64 C63 1.409 . S
C64 H66 0.951 . S
C65 C60 1.491 . S
C65 C67 1.382 . S
C65 C69 1.404 . S
H66 C64 0.951 . S
C67 C65 1.382 . S
C67 C68 1.390 . S
C67 H72 0.949 1_554 S
C68 C67 1.390 . S
C68 C73 1.402 . S
C69 C65 1.404 . S
C69 H70 0.950 . S
C69 C71 1.375 . S
H70 C69 0.950 . S
C71 C69 1.375 . S
C71 C73 1.382 . S
C71 H75 0.950 . S
H72 C67 0.949 1_556 S
C73 C68 1.402 . S
C73 C71 1.382 . S
C73 H74 0.952 . S
H74 C73 0.952 . S
H75 C71 0.950 . S
H76 C77 0.949 . S
C77 H76 0.949 . S
C77 C78 1.395 . S
C77 C79 1.391 . S
C78 C77 1.395 . S
C78 C81 1.390 . S
C79 C77 1.391 . S
C79 C83 1.387 . S
C79 C84 1.491 . S
H80 C81 0.950 . S
C81 C78 1.390 . S
C81 H80 0.950 . S
C81 C82 1.378 . S
C82 C81 1.378 . S
C82 C83 1.409 . S
C83 C79 1.387 . S
C83 C82 1.409 . S
C83 H85 0.951 . S
C84 C79 1.491 . S
C84 C86 1.382 . S
C84 C88 1.404 . S
H85 C83 0.951 . S
C86 C84 1.382 . S
C86 C87 1.390 . S
C86 H91 0.949 . S
C87 C86 1.390 . S
C87 C92 1.399 . S
C88 C84 1.404 . S
C88 H89 0.950 . S
C88 C90 1.375 . S
H89 C88 0.950 . S
C90 C88 1.375 . S
C90 C92 1.382 . S
C90 H94 0.950 . S
H91 C86 0.949 . S
C92 C87 1.399 . S
C92 C90 1.382 . S
C92 H93 0.952 . S
H93 C92 0.952 . S
H94 C90 0.950 . S
H95 C96 0.949 . S
C96 H95 0.949 . S
C96 C97 1.395 . S
C96 C98 1.391 . S
C97 C96 1.395 . S
C97 C100 1.390 . S
C98 C96 1.391 . S
C98 C102 1.387 . S
C98 C103 1.491 . S
H99 C100 0.950 . S
C100 C97 1.390 . S
C100 H99 0.950 . S
C100 C101 1.378 . S
C101 C100 1.378 . S
C101 C102 1.409 . S
C102 C98 1.387 . S
C102 C101 1.409 . S
C102 H104 0.951 . S
C103 C98 1.491 . S
C103 C105 1.382 . S
C103 C107 1.404 . S
H104 C102 0.951 . S
C105 C103 1.382 . S
C105 C106 1.390 . S
C105 H110 0.949 . S
C106 C105 1.390 . S
C106 C111 1.399 . S
C107 C103 1.404 . S
C107 H108 0.950 . S
C107 C109 1.375 . S
H108 C107 0.950 . S
C109 C107 1.375 . S
C109 C111 1.382 . S
C109 H113 0.980 . S
H110 C105 0.949 . S
C111 C106 1.399 . S
C111 C109 1.382 . S
C111 H112 0.952 . S
H112 C111 0.952 . S
H113 C109 0.980 . S
H114 C115 0.949 . S
C115 H114 0.949 . S
C115 C116 1.395 . S
C115 C117 1.391 . S
C116 C115 1.395 . S
C116 C119 1.390 . S
C117 C115 1.391 . S
C117 C121 1.387 . S
C117 C122 1.491 . S
H118 C119 0.950 . S
C119 C116 1.390 . S
C119 H118 0.950 . S
C119 C120 1.378 . S
C120 C119 1.378 . S
C120 C121 1.409 . S
C121 C117 1.387 . S
C121 C120 1.409 . S
C121 H123 0.951 . S
C122 C117 1.491 . S
C122 C124 1.382 . S
C122 C126 1.404 . S
H123 C121 0.951 . S
C124 C122 1.382 . S
C124 C125 1.390 . S
C124 H129 0.949 . S
C125 C124 1.390 . S
C125 C130 1.399 . S
C126 C122 1.404 . S
C126 H127 0.950 . S
C126 C128 1.375 . S
H127 C126 0.950 . S
C128 C126 1.375 . S
C128 C130 1.382 . S
C128 H132 0.943 1_545 S
H129 C124 0.949 . S
C130 C125 1.399 . S
C130 C128 1.382 . S
C130 H131 0.952 . S
H131 C130 0.952 . S
H132 C128 0.943 1_565 S
H133 C134 0.949 . S
C134 H133 0.949 . S
C134 C135 1.395 . S
C134 C136 1.391 . S
C135 C134 1.395 . S
C135 C138 1.390 . S
C136 C134 1.391 . S
C136 C140 1.387 . S
C136 C141 1.491 . S
H137 C138 0.950 . S
C138 C135 1.390 . S
C138 H137 0.950 . S
C138 C139 1.378 . S
C139 C138 1.378 . S
C139 C140 1.409 . S
C140 C136 1.387 . S
C140 C139 1.409 . S
C140 H142 0.951 . S
C141 C136 1.491 . S
C141 C143 1.382 . S
C141 C145 1.404 . S
H142 C140 0.951 . S
C143 C141 1.382 . S
C143 C144 1.390 . S
C143 H148 0.949 . S
C144 C143 1.390 . S
C144 C149 1.399 . S
C145 C141 1.404 . S
C145 H146 0.950 . S
C145 C147 1.375 . S
H146 C145 0.950 . S
C147 C145 1.375 . S
C147 C149 1.382 . S
C147 H151 0.950 . S
H148 C143 0.949 . S
C149 C144 1.399 . S
C149 C147 1.382 . S
C149 H150 0.952 . S
H150 C149 0.952 . S
H151 C147 0.950 . S
O152 Mg153 1.990 . S
O152 C166 1.253 . S
Mg153 O152 1.990 . S
Mg153 O156 2.144 1_565 S
Mg153 O157 2.117 . S
Mg153 O171 2.030 . S
O154 Mg155 2.072 1_565 S
O154 C166 1.260 . S
Mg155 O154 2.072 1_545 S
Mg155 O156 2.108 . S
Mg155 O158 2.079 . S
Mg155 O159 2.072 . S
Mg155 O161 2.099 1_455 S
Mg155 O172 2.066 1_445 S
O156 Mg153 2.144 1_545 S
O156 Mg155 2.108 . S
O156 C167 1.282 . S
O157 Mg153 2.117 . S
O157 C167 1.250 1_565 S
O158 Mg155 2.079 . S
O158 C168 1.264 . S
O159 Mg155 2.072 . S
O159 C169 1.260 . S
Mg160 O161 2.180 . S
Mg160 O162 2.030 . S
Mg160 O163 1.990 . S
Mg160 O164 2.117 . S
O161 Mg155 2.099 1_655 S
O161 Mg160 2.180 . S
O161 C170 1.279 . S
O162 Mg160 2.030 . S
O162 C168 1.248 1_655 S
O163 Mg160 1.990 . S
O163 C169 1.253 1_655 S
O164 Mg160 2.117 . S
O164 C170 1.250 . S
C165 O171 1.248 . S
C165 O172 1.257 1_455 S
C166 O152 1.253 . S
C166 O154 1.260 . S
C167 O156 1.282 . S
C167 O157 1.250 1_545 S
C168 O158 1.264 . S
C168 O162 1.248 1_455 S
C169 O159 1.260 . S
C169 O163 1.253 1_455 S
C170 O161 1.279 . S
C170 O164 1.250 . S
O171 Mg153 2.030 . S
O171 C165 1.248 . S
O172 Mg155 2.066 1_665 S
O172 C165 1.257 1_655 S
O173 Mg174 1.990 . S
O173 C187 1.253 1_565 S
Mg174 O173 1.990 . S
Mg174 O177 2.180 . S
Mg174 O178 2.117 . S
Mg174 O192 2.030 . S
O175 Mg176 2.072 . S
O175 C187 1.260 . S
Mg176 O175 2.072 . S
Mg176 O177 2.099 1_545 S
Mg176 O179 2.079 1_545 S
Mg176 O180 2.072 . S
Mg176 O182 2.099 . S
Mg176 O193 2.079 . S
O177 Mg174 2.180 . S
O177 Mg176 2.099 1_565 S
O177 C188 1.279 . S
O178 Mg174 2.117 . S
O178 C188 1.250 . S
O179 Mg176 2.079 1_565 S
O179 C189 1.264 1_565 S
O180 Mg176 2.072 . S
O180 C190 1.260 . S
Mg181 O182 2.180 . S
Mg181 O183 2.030 . S
Mg181 O184 1.990 . S
Mg181 O185 2.117 . S
O182 Mg176 2.099 . S
O182 Mg181 2.180 . S
O182 C191 1.279 . S
O183 Mg181 2.030 . S
O183 C189 1.248 . S
O184 Mg181 1.990 . S
O184 C190 1.253 . S
O185 Mg181 2.117 . S
O185 C191 1.250 . S
C186 O192 1.248 1_545 S
C186 O193 1.264 . S
C187 O173 1.253 1_545 S
C187 O175 1.260 . S
C188 O177 1.279 . S
C188 O178 1.250 . S
C189 O179 1.264 1_545 S
C189 O183 1.248 . S
C190 O180 1.260 . S
C190 O184 1.253 . S
C191 O182 1.279 . S
C191 O185 1.250 . S
O192 Mg174 2.030 . S
O192 C186 1.248 1_565 S
O193 Mg176 2.079 . S
O193 C186 1.264 . S
O194 Mg195 1.990 . S
O194 C208 1.253 . S
Mg195 O194 1.990 . S
Mg195 O198 2.180 . S
Mg195 O199 2.117 . S
Mg195 O213 2.030 . S
O196 Mg197 2.072 . S
O196 C208 1.260 . S
Mg197 O196 2.072 . S
Mg197 O198 2.099 . S
Mg197 O200 2.079 . S
Mg197 O201 2.072 . S
Mg197 O203 2.099 . S
Mg197 O214 2.079 . S
O198 Mg195 2.180 . S
O198 Mg197 2.099 . S
O198 C209 1.279 . S
O199 Mg195 2.117 . S
O199 C209 1.250 . S
O200 Mg197 2.079 . S
O200 C210 1.264 . S
O201 Mg197 2.072 . S
O201 C211 1.260 . S
Mg202 O203 2.180 . S
Mg202 O204 2.030 . S
Mg202 O205 1.990 . S
Mg202 O206 2.117 . S
O203 Mg197 2.099 . S
O203 Mg202 2.180 . S
O203 C212 1.279 . S
O204 Mg202 2.030 . S
O204 C210 1.248 . S
O205 Mg202 1.990 . S
O205 C211 1.253 . S
O206 Mg202 2.117 . S
O206 C212 1.250 . S
C207 O213 1.248 . S
C207 O214 1.264 . S
C208 O194 1.253 . S
C208 O196 1.260 . S
C209 O198 1.279 . S
C209 O199 1.250 . S
C210 O200 1.264 . S
C210 O204 1.248 . S
C211 O201 1.260 . S
C211 O205 1.253 . S
C212 O203 1.279 . S
C212 O206 1.250 . S
O213 Mg195 2.030 . S
O213 C207 1.248 . S
O214 Mg197 2.079 . S
O214 C207 1.264 . S
O215 Mg216 1.990 . S
O215 C229 1.253 . S
Mg216 O215 1.990 . S
Mg216 O219 2.180 1_655 S
Mg216 O220 2.117 . S
Mg216 O234 2.030 . S
O217 Mg218 2.072 1_655 S
O217 C229 1.260 . S
Mg218 O217 2.072 1_455 S
Mg218 O219 2.099 . S
Mg218 O221 2.079 . S
Mg218 O222 2.072 . S
Mg218 O224 2.099 . S
Mg218 O235 2.079 1_455 S
O219 Mg216 2.180 1_455 S
O219 Mg218 2.099 . S
O219 C230 1.279 . S
O220 Mg216 2.117 . S
O220 C230 1.250 1_655 S
O221 Mg218 2.079 . S
O221 C231 1.264 . S
O222 Mg218 2.072 . S
O222 C232 1.260 . S
Mg223 O224 2.180 . S
Mg223 O225 2.030 . S
Mg223 O226 1.990 . S
Mg223 O227 2.117 . S
O224 Mg218 2.099 . S
O224 Mg223 2.180 . S
O224 C233 1.279 . S
O225 Mg223 2.030 . S
O225 C231 1.248 . S
O226 Mg223 1.990 . S
O226 C232 1.253 . S
O227 Mg223 2.117 . S
O227 C233 1.250 . S
C228 O234 1.248 . S
C228 O235 1.264 . S
C229 O215 1.253 . S
C229 O217 1.260 . S
C230 O219 1.279 . S
C230 O220 1.250 1_455 S
C231 O221 1.264 . S
C231 O225 1.248 . S
C232 O222 1.260 . S
C232 O226 1.253 . S
C233 O224 1.279 . S
C233 O227 1.250 . S
O234 Mg216 2.030 . S
O234 C228 1.248 . S
O235 Mg218 2.079 1_655 S
O235 C228 1.264 . S
H236 C244 0.950 . S
H237 C249 0.950 . S
H238 C246 0.950 . S
H239 C248 0.950 . S
H240 C250 0.950 . S
H241 C252 0.950 . S
H242 C254 0.950 . S
H243 C255 0.950 1_565 S
C244 H236 0.950 . S
C244 C245 1.386 . S
C244 C246 1.391 . S
C245 C244 1.386 . S
C245 C249 1.393 . S
C246 H238 0.950 . S
C246 C244 1.391 . S
C246 C247 1.400 . S
C247 C246 1.400 . S
C247 C248 1.398 . S
C247 C253 1.491 . S
C248 H239 0.950 . S
C248 C247 1.398 . S
C248 C249 1.391 . S
C249 H237 0.950 . S
C249 C245 1.393 . S
C249 C248 1.391 . S
C250 H240 0.950 . S
C250 C251 1.386 . S
C250 C252 1.391 . S
C251 C250 1.386 . S
C251 C255 1.393 . S
C252 H241 0.950 . S
C252 C250 1.391 . S
C252 C253 1.400 . S
C253 C247 1.491 . S
C253 C252 1.400 . S
C253 C254 1.398 . S
C254 H242 0.950 . S
C254 C253 1.398 . S
C254 C255 1.391 . S
C255 H243 0.950 1_545 S
C255 C251 1.393 . S
C255 C254 1.391 . S
H256 C264 0.950 . S
H257 C269 0.950 . S
H258 C266 0.950 . S
H259 C268 0.950 . S
H260 C270 0.950 . S
H261 C272 0.950 . S
H262 C274 0.950 . S
H263 C275 0.950 . S
C264 H256 0.950 . S
C264 C265 1.386 . S
C264 C266 1.391 . S
C265 C264 1.386 . S
C265 C269 1.393 . S
C266 H258 0.950 . S
C266 C264 1.391 . S
C266 C267 1.400 . S
C267 C266 1.400 . S
C267 C268 1.398 . S
C267 C273 1.491 . S
C268 H259 0.950 . S
C268 C267 1.398 . S
C268 C269 1.391 . S
C269 H257 0.950 . S
C269 C265 1.393 . S
C269 C268 1.391 . S
C270 H260 0.950 . S
C270 C271 1.386 . S
C270 C272 1.391 . S
C271 C270 1.386 . S
C271 C275 1.393 . S
C272 H261 0.950 . S
C272 C270 1.391 . S
C272 C273 1.400 . S
C273 C267 1.491 . S
C273 C272 1.400 . S
C273 C274 1.398 . S
C274 H262 0.950 . S
C274 C273 1.398 . S
C274 C275 1.391 . S
C275 H263 0.950 . S
C275 C271 1.393 . S
C275 C274 1.391 . S
H276 C284 0.950 . S
H277 C289 0.950 . S
H278 C286 0.950 . S
H279 C288 0.950 . S
H280 C290 0.950 . S
H281 C292 0.950 . S
H282 C294 0.950 . S
H283 C295 0.950 . S
C284 H276 0.950 . S
C284 C285 1.386 . S
C284 C286 1.391 . S
C285 C284 1.386 . S
C285 C289 1.393 . S
C286 H278 0.950 . S
C286 C284 1.391 . S
C286 C287 1.400 . S
C287 C286 1.400 . S
C287 C288 1.398 . S
C287 C293 1.491 . S
C288 H279 0.950 . S
C288 C287 1.398 . S
C288 C289 1.391 . S
C289 H277 0.950 . S
C289 C285 1.393 . S
C289 C288 1.391 . S
C290 H280 0.950 . S
C290 C291 1.386 . S
C290 C292 1.391 . S
C291 C290 1.386 . S
C291 C295 1.393 . S
C292 H281 0.950 . S
C292 C290 1.391 . S
C292 C293 1.400 . S
C293 C287 1.491 . S
C293 C292 1.400 . S
C293 C294 1.398 . S
C294 H282 0.950 . S
C294 C293 1.398 . S
C294 C295 1.391 . S
C295 H283 0.950 . S
C295 C291 1.393 . S
C295 C294 1.391 . S
H296 C304 0.950 . S
H297 C309 0.950 . S
H298 C306 0.950 . S
H299 C308 0.950 . S
H300 C310 0.950 1_655 S
H301 C312 0.970 . S
H302 C314 0.950 . S
H303 C315 0.950 . S
C304 H296 0.950 . S
C304 C305 1.386 . S
C304 C306 1.391 . S
C305 C304 1.386 . S
C305 C309 1.393 . S
C306 H298 0.950 . S
C306 C304 1.391 . S
C306 C307 1.400 . S
C307 C306 1.400 . S
C307 C308 1.398 . S
C307 C313 1.491 . S
C308 H299 0.950 . S
C308 C307 1.398 . S
C308 C309 1.391 . S
C309 H297 0.950 . S
C309 C305 1.393 . S
C309 C308 1.391 . S
C310 H300 0.950 1_455 S
C310 C311 1.386 . S
C310 C312 1.391 . S
C311 C310 1.386 . S
C311 C315 1.393 . S
C312 H301 0.970 . S
C312 C310 1.391 . S
C312 C313 1.400 . S
C313 C307 1.491 . S
C313 C312 1.400 . S
C313 C314 1.398 . S
C314 H302 0.950 . S
C314 C313 1.398 . S
C314 C315 1.391 . S
C315 H303 0.950 . S
C315 C311 1.393 . S
C315 C314 1.391 . S
H316 C324 0.950 . S
H317 C329 0.950 1_554 S
H318 C326 0.950 . S
H319 C328 0.950 . S
H320 C330 0.950 . S
H321 C332 0.950 . S
H322 C334 0.953 . S
H323 C335 0.950 . S
C324 H316 0.950 . S
C324 C325 1.386 . S
C324 C326 1.391 . S
C325 C324 1.386 . S
C325 C329 1.393 . S
C326 H318 0.950 . S
C326 C324 1.391 . S
C326 C327 1.400 . S
C327 C326 1.400 . S
C327 C328 1.398 . S
C327 C333 1.491 . S
C328 H319 0.950 . S
C328 C327 1.398 . S
C328 C329 1.391 . S
C329 H317 0.950 1_556 S
C329 C325 1.393 . S
C329 C328 1.391 . S
C330 H320 0.950 . S
C330 C331 1.386 1_565 S
C330 C332 1.391 . S
C331 C330 1.386 1_545 S
C331 C335 1.393 . S
C332 H321 0.950 . S
C332 C330 1.391 . S
C332 C333 1.400 . S
C333 C327 1.491 . S
C333 C332 1.400 . S
C333 C334 1.398 . S
C334 H322 0.953 . S
C334 C333 1.398 . S
C334 C335 1.391 1_565 S
C335 H323 0.950 . S
C335 C331 1.393 . S
C335 C334 1.391 1_545 S
H336 C344 0.950 . S
H337 C349 0.950 1_554 S
H338 C346 0.950 . S
H339 C348 0.950 . S
H340 C350 0.950 . S
H341 C352 0.950 . S
H342 C354 0.950 . S
H343 C355 0.950 . S
C344 H336 0.950 . S
C344 C345 1.386 . S
C344 C346 1.391 . S
C345 C344 1.386 . S
C345 C349 1.393 . S
C346 H338 0.950 . S
C346 C344 1.391 . S
C346 C347 1.400 . S
C347 C346 1.400 . S
C347 C348 1.398 . S
C347 C353 1.491 . S
C348 H339 0.950 . S
C348 C347 1.398 . S
C348 C349 1.391 . S
C349 H337 0.950 1_556 S
C349 C345 1.393 . S
C349 C348 1.391 . S
C350 H340 0.950 . S
C350 C351 1.386 . S
C350 C352 1.391 . S
C351 C350 1.386 . S
C351 C355 1.393 . S
C352 H341 0.950 . S
C352 C350 1.391 . S
C352 C353 1.400 . S
C353 C347 1.491 . S
C353 C352 1.400 . S
C353 C354 1.398 . S
C354 H342 0.950 . S
C354 C353 1.398 . S
C354 C355 1.391 . S
C355 H343 0.950 . S
C355 C351 1.393 . S
C355 C354 1.391 . S
H356 C364 0.950 1_554 S
H357 C369 0.950 . S
H358 C366 0.950 . S
H359 C368 0.950 . S
H360 C370 0.950 . S
H361 C372 0.950 . S
H362 C374 0.950 . S
H363 C375 0.950 . S
C364 H356 0.950 1_556 S
C364 C365 1.386 . S
C364 C366 1.391 . S
C365 C364 1.386 . S
C365 C369 1.393 . S
C366 H358 0.950 . S
C366 C364 1.391 . S
C366 C367 1.400 . S
C367 C366 1.400 . S
C367 C368 1.398 . S
C367 C373 1.491 . S
C368 H359 0.950 . S
C368 C367 1.398 . S
C368 C369 1.391 . S
C369 H357 0.950 . S
C369 C365 1.393 . S
C369 C368 1.391 . S
C370 H360 0.950 . S
C370 C371 1.386 . S
C370 C372 1.391 . S
C371 C370 1.386 . S
C371 C375 1.393 . S
C372 H361 0.950 . S
C372 C370 1.391 . S
C372 C373 1.400 . S
C373 C367 1.491 . S
C373 C372 1.400 . S
C373 C374 1.398 . S
C374 H362 0.950 . S
C374 C373 1.398 . S
C374 C375 1.391 . S
C375 H363 0.950 . S
C375 C371 1.393 . S
C375 C374 1.391 . S
H376 C384 0.950 . S
H377 C389 0.950 1_454 S
H378 C386 0.950 . S
H379 C388 0.927 1_455 S
H380 C390 0.950 . S
H381 C392 0.950 . S
H382 C394 0.950 . S
H383 C395 0.950 . S
C384 H376 0.950 . S
C384 C385 1.386 . S
C384 C386 1.391 . S
C385 C384 1.386 . S
C385 C389 1.393 . S
C386 H378 0.950 . S
C386 C384 1.391 . S
C386 C387 1.400 . S
C387 C386 1.400 . S
C387 C388 1.415 . S
C387 C393 1.491 . S
C388 H379 0.927 1_655 S
C388 C387 1.415 . S
C388 C389 1.398 . S
C389 H377 0.950 1_656 S
C389 C385 1.393 . S
C389 C388 1.398 . S
C390 H380 0.950 . S
C390 C391 1.386 . S
C390 C392 1.391 . S
C391 C390 1.386 . S
C391 C395 1.393 1_455 S
C392 H381 0.950 . S
C392 C390 1.391 . S
C392 C393 1.400 1_455 S
C393 C387 1.491 . S
C393 C392 1.400 1_655 S
C393 C394 1.398 . S
C394 H382 0.950 . S
C394 C393 1.398 . S
C394 C395 1.391 . S
C395 H383 0.950 . S
C395 C391 1.393 1_655 S
C395 C394 1.391 . S
H396 C404 0.950 . S
H397 C409 0.950 . S
H398 C406 0.950 1_655 S
H399 C408 0.950 . S
H400 C410 0.950 . S
H401 C412 0.950 . S
H402 C414 0.982 . S
H403 C415 0.950 . S
C404 H396 0.950 . S
C404 C405 1.386 . S
C404 C406 1.391 . S
C405 C404 1.386 . S
C405 C409 1.393 . S
C406 H398 0.950 1_455 S
C406 C404 1.391 . S
C406 C407 1.400 . S
C407 C406 1.400 . S
C407 C408 1.398 . S
C407 C413 1.491 . S
C408 H399 0.950 . S
C408 C407 1.398 . S
C408 C409 1.391 . S
C409 H397 0.950 . S
C409 C405 1.393 . S
C409 C408 1.391 . S
C410 H400 0.950 . S
C410 C411 1.386 . S
C410 C412 1.391 . S
C411 C410 1.386 . S
C411 C415 1.393 1_455 S
C412 H401 0.950 . S
C412 C410 1.391 . S
C412 C413 1.400 . S
C413 C407 1.491 . S
C413 C412 1.400 . S
C413 C414 1.354 1_455 S
C414 H402 0.982 . S
C414 C413 1.354 1_655 S
C414 C415 1.405 . S
C415 H403 0.950 . S
C415 C411 1.393 1_655 S
C415 C414 1.405 . S
H416 C424 0.950 . S
H417 C429 0.950 . S
H418 C426 0.950 . S
H419 C428 0.950 1_565 S
H420 C430 0.950 . S
H421 C432 0.950 . S
H422 C434 0.950 . S
H423 C435 0.950 . S
C424 H416 0.950 . S
C424 C425 1.386 . S
C424 C426 1.391 . S
C425 C424 1.386 . S
C425 C429 1.393 . S
C426 H418 0.950 . S
C426 C424 1.391 . S
C426 C427 1.400 . S
C427 C426 1.400 . S
C427 C428 1.398 . S
C427 C433 1.491 . S
C428 H419 0.950 1_545 S
C428 C427 1.398 . S
C428 C429 1.391 . S
C429 H417 0.950 . S
C429 C425 1.393 . S
C429 C428 1.391 . S
C430 H420 0.950 . S
C430 C431 1.386 1_565 S
C430 C432 1.391 . S
C431 C430 1.386 1_545 S
C431 C435 1.393 . S
C432 H421 0.950 . S
C432 C430 1.391 . S
C432 C433 1.400 1_565 S
C433 C427 1.491 . S
C433 C432 1.400 1_545 S
C433 C434 1.398 . S
C434 H422 0.950 . S
C434 C433 1.398 . S
C434 C435 1.391 . S
C435 H423 0.950 . S
C435 C431 1.393 . S
C435 C434 1.391 . S
H436 C444 0.950 . S
H437 C449 0.950 . S
H438 C446 0.950 . S
H439 C448 0.950 . S
H440 C450 0.950 . S
H441 C452 0.950 . S
H442 C454 0.950 . S
H443 C455 0.950 . S
C444 H436 0.950 . S
C444 C445 1.386 . S
C444 C446 1.391 . S
C445 C444 1.386 . S
C445 C449 1.393 . S
C446 H438 0.950 . S
C446 C444 1.391 . S
C446 C447 1.400 . S
C447 C446 1.400 . S
C447 C448 1.398 . S
C447 C453 1.491 . S
C448 H439 0.950 . S
C448 C447 1.398 . S
C448 C449 1.391 . S
C449 H437 0.950 . S
C449 C445 1.393 . S
C449 C448 1.391 . S
C450 H440 0.950 . S
C450 C451 1.386 . S
C450 C452 1.391 . S
C451 C450 1.386 . S
C451 C455 1.393 . S
C452 H441 0.950 . S
C452 C450 1.391 . S
C452 C453 1.400 . S
C453 C447 1.491 . S
C453 C452 1.400 . S
C453 C454 1.398 . S
C454 H442 0.950 . S
C454 C453 1.398 . S
C454 C455 1.391 . S
C455 H443 0.950 . S
C455 C451 1.393 . S
C455 C454 1.391 . S
H456 C464 0.950 . S
H457 C469 0.950 . S
H458 C466 0.950 . S
H459 C468 0.950 . S
H460 C470 0.950 . S
H461 C472 0.950 . S
H462 C474 0.950 . S
H463 C475 0.950 . S
C464 H456 0.950 . S
C464 C465 1.386 . S
C464 C466 1.391 . S
C465 C464 1.386 . S
C465 C469 1.393 . S
C466 H458 0.950 . S
C466 C464 1.391 . S
C466 C467 1.400 . S
C467 C466 1.400 . S
C467 C468 1.398 . S
C467 C473 1.491 . S
C468 H459 0.950 . S
C468 C467 1.398 . S
C468 C469 1.391 . S
C469 H457 0.950 . S
C469 C465 1.393 . S
C469 C468 1.391 . S
C470 H460 0.950 . S
C470 C471 1.386 . S
C470 C472 1.391 . S
C471 C470 1.386 . S
C471 C475 1.393 . S
C472 H461 0.950 . S
C472 C470 1.391 . S
C472 C473 1.400 . S
C473 C467 1.491 . S
C473 C472 1.400 . S
C473 C474 1.398 . S
C474 H462 0.950 . S
C474 C473 1.398 . S
C474 C475 1.391 . S
C475 H463 0.950 . S
C475 C471 1.393 . S
C475 C474 1.391 . S
H476 C484 0.950 . S
H477 C489 0.950 . S
H478 C486 0.950 1_554 S
H479 C488 0.950 1_455 S
H480 C490 0.950 . S
H481 C492 0.950 . S
H482 C494 0.950 . S
H483 C495 0.950 . S
C484 H476 0.950 . S
C484 C485 1.386 1_554 S
C484 C486 1.391 1_554 S
C485 C484 1.386 1_556 S
C485 C489 1.393 . S
C486 H478 0.950 1_556 S
C486 C484 1.391 1_556 S
C486 C487 1.400 . S
C487 C486 1.400 . S
C487 C488 1.398 . S
C487 C493 1.491 . S
C488 H479 0.950 1_655 S
C488 C487 1.398 . S
C488 C489 1.391 . S
C489 H477 0.950 . S
C489 C485 1.393 . S
C489 C488 1.391 . S
C490 H480 0.950 . S
C490 C491 1.386 . S
C490 C492 1.391 . S
C491 C490 1.386 . S
C491 C495 1.393 1_455 S
C492 H481 0.950 . S
C492 C490 1.391 . S
C492 C493 1.400 1_455 S
C493 C487 1.491 . S
C493 C492 1.400 1_655 S
C493 C494 1.398 . S
C494 H482 0.950 . S
C494 C493 1.398 . S
C494 C495 1.391 . S
C495 H483 0.950 . S
C495 C491 1.393 1_655 S
C495 C494 1.391 . S
H496 C504 0.950 . S
H497 C509 0.950 . S
H498 C506 0.950 1_544 S
H499 C508 0.950 . S
H500 C510 0.950 . S
H501 C512 0.950 . S
H502 C514 0.950 . S
H503 C515 0.950 . S
C504 H496 0.950 . S
C504 C505 1.386 1_554 S
C504 C506 1.391 1_554 S
C505 C504 1.386 1_556 S
C505 C509 1.393 . S
C506 H498 0.950 1_566 S
C506 C504 1.391 1_556 S
C506 C507 1.400 . S
C507 C506 1.400 . S
C507 C508 1.398 . S
C507 C513 1.491 . S
C508 H499 0.950 . S
C508 C507 1.398 . S
C508 C509 1.391 . S
C509 H497 0.950 . S
C509 C505 1.393 . S
C509 C508 1.391 . S
C510 H500 0.950 . S
C510 C511 1.386 1_565 S
C510 C512 1.391 . S
C511 C510 1.386 1_545 S
C511 C515 1.393 . S
C512 H501 0.950 . S
C512 C510 1.391 . S
C512 C513 1.400 . S
C513 C507 1.491 . S
C513 C512 1.400 . S
C513 C514 1.398 1_565 S
C514 H502 0.950 . S
C514 C513 1.398 1_545 S
C514 C515 1.391 . S
C515 H503 0.950 . S
C515 C511 1.393 . S
C515 C514 1.391 . S
H516 C524 0.950 1_554 S
H517 C529 0.950 . S
H518 C526 0.950 . S
H519 C528 0.950 . S
H520 C530 0.950 . S
H521 C532 0.950 . S
H522 C534 0.950 . S
H523 C535 0.950 . S
C524 H516 0.950 1_556 S
C524 C525 1.386 . S
C524 C526 1.391 . S
C525 C524 1.386 . S
C525 C529 1.393 . S
C526 H518 0.950 . S
C526 C524 1.391 . S
C526 C527 1.400 . S
C527 C526 1.400 . S
C527 C528 1.398 . S
C527 C533 1.491 . S
C528 H519 0.950 . S
C528 C527 1.398 . S
C528 C529 1.391 . S
C529 H517 0.950 . S
C529 C525 1.393 . S
C529 C528 1.391 . S
C530 H520 0.950 . S
C530 C531 1.386 . S
C530 C532 1.391 . S
C531 C530 1.386 . S
C531 C535 1.393 . S
C532 H521 0.950 . S
C532 C530 1.391 . S
C532 C533 1.400 . S
C533 C527 1.491 . S
C533 C532 1.400 . S
C533 C534 1.398 . S
C534 H522 0.950 . S
C534 C533 1.398 . S
C534 C535 1.391 . S
C535 H523 0.950 . S
C535 C531 1.393 . S
C535 C534 1.391 . S
H536 C544 0.950 . S
H537 C549 0.950 1_554 S
H538 C546 0.950 . S
H539 C548 0.950 . S
H540 C550 0.950 . S
H541 C552 0.950 . S
H542 C554 0.950 . S
H543 C555 0.950 . S
C544 H536 0.950 . S
C544 C545 1.386 . S
C544 C546 1.391 . S
C545 C544 1.386 . S
C545 C549 1.393 . S
C546 H538 0.950 . S
C546 C544 1.391 . S
C546 C547 1.400 . S
C547 C546 1.400 . S
C547 C548 1.398 . S
C547 C553 1.491 . S
C548 H539 0.950 . S
C548 C547 1.398 . S
C548 C549 1.391 . S
C549 H537 0.950 1_556 S
C549 C545 1.393 . S
C549 C548 1.391 . S
C550 H540 0.950 . S
C550 C551 1.386 . S
C550 C552 1.391 . S
C551 C550 1.386 . S
C551 C555 1.393 . S
C552 H541 0.950 . S
C552 C550 1.391 . S
C552 C553 1.400 . S
C553 C547 1.491 . S
C553 C552 1.400 . S
C553 C554 1.398 . S
C554 H542 0.950 . S
C554 C553 1.398 . S
C554 C555 1.391 . S
C555 H543 0.950 . S
C555 C551 1.393 . S
C555 C554 1.391 . S
H556 C564 0.950 . S
H557 C569 0.950 . S
H558 C566 0.950 . S
H559 C568 0.950 . S
H560 C570 0.950 . S
H561 C572 0.950 . S
H562 C574 0.950 1_554 S
H563 C575 0.950 . S
C564 H556 0.950 . S
C564 C565 1.386 . S
C564 C566 1.391 . S
C565 C564 1.386 . S
C565 C569 1.393 . S
C566 H558 0.950 . S
C566 C564 1.391 . S
C566 C567 1.400 . S
C567 C566 1.400 . S
C567 C568 1.398 1_554 S
C567 C573 1.491 1_554 S
C568 H559 0.950 . S
C568 C567 1.398 1_556 S
C568 C569 1.391 1_556 S
C569 H557 0.950 . S
C569 C565 1.393 . S
C569 C568 1.391 1_554 S
C570 H560 0.950 . S
C570 C571 1.386 . S
C570 C572 1.391 . S
C571 C570 1.386 . S
C571 C575 1.393 . S
C572 H561 0.950 . S
C572 C570 1.391 . S
C572 C573 1.400 . S
C573 C567 1.491 1_556 S
C573 C572 1.400 . S
C573 C574 1.398 . S
C574 H562 0.950 1_556 S
C574 C573 1.398 . S
C574 C575 1.391 . S
C575 H563 0.950 . S
C575 C571 1.393 . S
C575 C574 1.391 . S
H576 C584 0.950 . S
H577 C589 0.950 . S
H578 C586 0.950 . S
H579 C588 0.950 1_556 S
H580 C590 0.950 . S
H581 C592 0.950 . S
H582 C594 0.922 1_564 S
H583 C595 0.950 1_565 S
C584 H576 0.950 . S
C584 C585 1.386 . S
C584 C586 1.391 . S
C585 C584 1.386 . S
C585 C589 1.393 . S
C586 H578 0.950 . S
C586 C584 1.391 . S
C586 C587 1.400 . S
C587 C586 1.400 . S
C587 C588 1.398 . S
C587 C593 1.491 1_554 S
C588 H579 0.950 1_554 S
C588 C587 1.398 . S
C588 C589 1.391 . S
C589 H577 0.950 . S
C589 C585 1.393 . S
C589 C588 1.391 . S
C590 H580 0.950 . S
C590 C591 1.386 . S
C590 C592 1.391 . S
C591 C590 1.386 . S
C591 C595 1.393 . S
C592 H581 0.950 . S
C592 C590 1.391 . S
C592 C593 1.400 . S
C593 C587 1.491 1_556 S
C593 C592 1.400 . S
C593 C594 1.398 . S
C594 H582 0.922 1_546 S
C594 C593 1.398 . S
C594 C595 1.391 . S
C595 H583 0.950 1_545 S
C595 C591 1.393 . S
C595 C594 1.391 . S
H596 C604 0.950 . S
H597 C609 0.950 . S
H598 C606 0.950 . S
H599 C608 0.950 . S
H600 C610 0.950 . S
H601 C612 0.950 . S
H602 C614 0.950 . S
H603 C615 0.950 . S
C604 H596 0.950 . S
C604 C605 1.386 . S
C604 C606 1.391 . S
C605 C604 1.386 . S
C605 C609 1.393 . S
C606 H598 0.950 . S
C606 C604 1.391 . S
C606 C607 1.400 . S
C607 C606 1.400 . S
C607 C608 1.398 . S
C607 C613 1.491 1_554 S
C608 H599 0.950 . S
C608 C607 1.398 . S
C608 C609 1.391 . S
C609 H597 0.950 . S
C609 C605 1.393 . S
C609 C608 1.391 . S
C610 H600 0.950 . S
C610 C611 1.386 . S
C610 C612 1.391 . S
C611 C610 1.386 . S
C611 C615 1.393 . S
C612 H601 0.950 . S
C612 C610 1.391 . S
C612 C613 1.400 . S
C613 C607 1.491 1_556 S
C613 C612 1.400 . S
C613 C614 1.398 . S
C614 H602 0.950 . S
C614 C613 1.398 . S
C614 C615 1.391 . S
C615 H603 0.950 . S
C615 C611 1.393 . S
C615 C614 1.391 . S
H616 C624 0.950 . S
H617 C629 0.950 . S
H618 C626 0.950 1_556 S
H619 C628 0.950 . S
H620 C630 0.950 . S
H621 C632 0.950 1_554 S
H622 C634 0.950 . S
H623 C635 0.950 . S
C624 H616 0.950 . S
C624 C625 1.386 . S
C624 C626 1.391 . S
C625 C624 1.386 . S
C625 C629 1.393 . S
C626 H618 0.950 1_554 S
C626 C624 1.391 . S
C626 C627 1.400 . S
C627 C626 1.400 . S
C627 C628 1.398 . S
C627 C633 1.491 1_554 S
C628 H619 0.950 . S
C628 C627 1.398 . S
C628 C629 1.391 . S
C629 H617 0.950 . S
C629 C625 1.393 . S
C629 C628 1.391 . S
C630 H620 0.950 . S
C630 C631 1.386 . S
C630 C632 1.391 . S
C631 C630 1.386 . S
C631 C635 1.393 . S
C632 H621 0.950 1_556 S
C632 C630 1.391 . S
C632 C633 1.400 . S
C633 C627 1.491 1_556 S
C633 C632 1.400 . S
C633 C634 1.398 . S
C634 H622 0.950 . S
C634 C633 1.398 . S
C634 C635 1.391 . S
C635 H623 0.950 . S
C635 C631 1.393 . S
C635 C634 1.391 . S
H636 C644 0.950 1_455 S
H637 C649 0.950 . S
H638 C646 0.950 . S
H639 C648 0.950 . S
H640 C650 0.950 . S
H641 C652 0.950 . S
H642 C654 0.950 . S
H643 C655 0.950 . S
C644 H636 0.950 1_655 S
C644 C645 1.386 . S
C644 C646 1.391 1_655 S
C645 C644 1.386 . S
C645 C649 1.393 . S
C646 H638 0.950 . S
C646 C644 1.391 1_455 S
C646 C647 1.400 1_455 S
C647 C646 1.400 1_655 S
C647 C648 1.398 . S
C647 C653 1.491 . S
C648 H639 0.950 . S
C648 C647 1.398 . S
C648 C649 1.391 . S
C649 H637 0.950 . S
C649 C645 1.393 . S
C649 C648 1.391 . S
C650 H640 0.950 . S
C650 C651 1.386 . S
C650 C652 1.391 . S
C651 C650 1.386 . S
C651 C655 1.393 1_655 S
C652 H641 0.950 . S
C652 C650 1.391 . S
C652 C653 1.400 . S
C653 C647 1.491 . S
C653 C652 1.400 . S
C653 C654 1.398 1_655 S
C654 H642 0.950 . S
C654 C653 1.398 1_455 S
C654 C655 1.391 . S
C655 H643 0.950 . S
C655 C651 1.393 1_455 S
C655 C654 1.391 . S
H656 C664 0.950 . S
H657 C669 0.950 . S
H658 C666 0.950 . S
H659 C668 0.950 . S
H660 C670 0.950 . S
H661 C672 0.950 . S
H662 C674 0.950 . S
H663 C675 0.950 1_545 S
C664 H656 0.950 . S
C664 C665 1.386 . S
C664 C666 1.391 . S
C665 C664 1.386 . S
C665 C669 1.393 . S
C666 H658 0.950 . S
C666 C664 1.391 . S
C666 C667 1.400 . S
C667 C666 1.400 . S
C667 C668 1.398 . S
C667 C673 1.491 . S
C668 H659 0.950 . S
C668 C667 1.398 . S
C668 C669 1.391 . S
C669 H657 0.950 . S
C669 C665 1.393 . S
C669 C668 1.391 . S
C670 H660 0.950 . S
C670 C671 1.386 . S
C670 C672 1.391 . S
C671 C670 1.386 . S
C671 C675 1.393 . S
C672 H661 0.950 . S
C672 C670 1.391 . S
C672 C673 1.400 . S
C673 C667 1.491 . S
C673 C672 1.400 . S
C673 C674 1.398 . S
C674 H662 0.950 . S
C674 C673 1.398 . S
C674 C675 1.391 . S
C675 H663 0.950 1_565 S
C675 C671 1.393 . S
C675 C674 1.391 . S
H676 C684 0.950 . S
H677 C689 0.950 . S
H678 C686 0.950 . S
H679 C688 0.950 . S
H680 C690 0.950 . S
H681 C692 0.950 . S
H682 C694 0.950 . S
H683 C695 0.950 . S
C684 H676 0.950 . S
C684 C685 1.386 . S
C684 C686 1.391 . S
C685 C684 1.386 . S
C685 C689 1.393 . S
C686 H678 0.950 . S
C686 C684 1.391 . S
C686 C687 1.400 . S
C687 C686 1.400 . S
C687 C688 1.398 . S
C687 C693 1.491 . S
C688 H679 0.950 . S
C688 C687 1.398 . S
C688 C689 1.391 . S
C689 H677 0.950 . S
C689 C685 1.393 . S
C689 C688 1.391 . S
C690 H680 0.950 . S
C690 C691 1.386 . S
C690 C692 1.391 . S
C691 C690 1.386 . S
C691 C695 1.393 . S
C692 H681 0.950 . S
C692 C690 1.391 . S
C692 C693 1.400 . S
C693 C687 1.491 . S
C693 C692 1.400 . S
C693 C694 1.398 . S
C694 H682 0.950 . S
C694 C693 1.398 . S
C694 C695 1.391 . S
C695 H683 0.950 . S
C695 C691 1.393 . S
C695 C694 1.391 . S
H696 C704 0.950 . S
H697 C709 0.950 . S
H698 C706 0.950 . S
H699 C708 0.950 . S
H700 C710 0.950 . S
H701 C712 0.950 . S
H702 C714 0.950 . S
H703 C715 0.950 . S
C704 H696 0.950 . S
C704 C705 1.386 . S
C704 C706 1.391 . S
C705 C704 1.386 . S
C705 C709 1.393 . S
C706 H698 0.950 . S
C706 C704 1.391 . S
C706 C707 1.400 . S
C707 C706 1.400 . S
C707 C708 1.398 . S
C707 C713 1.491 . S
C708 H699 0.950 . S
C708 C707 1.398 . S
C708 C709 1.391 . S
C709 H697 0.950 . S
C709 C705 1.393 . S
C709 C708 1.391 . S
C710 H700 0.950 . S
C710 C711 1.386 . S
C710 C712 1.391 . S
C711 C710 1.386 . S
C711 C715 1.393 . S
C712 H701 0.950 . S
C712 C710 1.391 . S
C712 C713 1.400 . S
C713 C707 1.491 . S
C713 C712 1.400 . S
C713 C714 1.398 . S
C714 H702 0.950 . S
C714 C713 1.398 . S
C714 C715 1.391 . S
C715 H703 0.950 . S
C715 C711 1.393 . S
C715 C714 1.391 . S
C245 C125 1.507 . S
C251 C167 1.444 . S
C271 C191 1.414 . S
C265 C144 1.525 . S
C291 C212 1.422 . S
C285 C87 1.517 . S
C311 C230 1.454 . S
C305 C106 1.493 . S
C331 C170 1.394 . S
C325 C49 1.504 1_556 S
C345 C68 1.514 1_556 S
C351 C188 1.381 . S
C365 C11 1.504 1_556 S
C371 C209 1.354 . S
C385 C30 1.512 1_556 S
C391 C233 1.388 . S
C411 C168 0.684 . S
C405 C97 0.685 . S
C431 C186 0.740 . S
C425 C116 0.745 . S
C451 C207 0.734 . S
C445 C135 0.749 . S
C465 C78 0.684 . S
C471 C231 0.694 . S
C485 C21 0.794 1_556 S
C491 C166 0.824 . S
C511 C190 0.839 . S
C505 C40 0.821 1_556 S
C531 C211 0.813 . S
C525 C59 0.785 1_556 S
C545 C2 0.832 1_556 S
C551 C229 0.819 . S
C565 C101 1.602 . S
C571 C169 1.570 . S
C585 C120 1.618 . S
C591 C187 1.564 . S
C611 C208 1.559 . S
C605 C139 1.619 . S
C631 C232 1.548 . S
C625 C82 1.598 . S
C645 C25 1.454 . S
C651 C165 1.411 1_655 S
C671 C189 1.424 1_565 S
C665 C44 1.459 . S
C691 C210 1.401 . S
C685 C63 1.456 . S
C705 C6 1.476 . S
C711 C228 1.412 . S
