# Generated by pormake.
# Topology eea, (3,6)-cn, num edge types: 1
# Building blocks:
#     Node 0, Type 0, BuildingBlock: BETDIP_clean_linker_0, # of connection points: 3
#     Node 1, Type 0, BuildingBlock: BETDIP_clean_linker_0, # of connection points: 3
#     Node 2, Type 0, BuildingBlock: BETDIP_clean_linker_0, # of connection points: 3
#     Node 3, Type 0, BuildingBlock: BETDIP_clean_linker_0, # of connection points: 3
#     Node 4, Type 0, BuildingBlock: BETDIP_clean_linker_0, # of connection points: 3
#     Node 5, Type 0, BuildingBlock: BETDIP_clean_linker_0, # of connection points: 3
#     Node 6, Type 0, BuildingBlock: BETDIP_clean_linker_0, # of connection points: 3
#     Node 7, Type 0, BuildingBlock: BETDIP_clean_linker_0, # of connection points: 3
#     Node 8, Type 0, BuildingBlock: BETDIP_clean_linker_0, # of connection points: 3
#     Node 9, Type 0, BuildingBlock: BETDIP_clean_linker_0, # of connection points: 3
#     Node 10, Type 0, BuildingBlock: BETDIP_clean_linker_0, # of connection points: 3
#     Node 11, Type 0, BuildingBlock: BETDIP_clean_linker_0, # of connection points: 3
#     Node 12, Type 0, BuildingBlock: BETDIP_clean_linker_0, # of connection points: 3
#     Node 13, Type 0, BuildingBlock: BETDIP_clean_linker_0, # of connection points: 3
#     Node 14, Type 0, BuildingBlock: BETDIP_clean_linker_0, # of connection points: 3
#     Node 15, Type 0, BuildingBlock: BETDIP_clean_linker_0, # of connection points: 3
#     Node 16, Type 0, BuildingBlock: BETDIP_clean_linker_0, # of connection points: 3
#     Node 17, Type 0, BuildingBlock: BETDIP_clean_linker_0, # of connection points: 3
#     Node 18, Type 1, BuildingBlock: HISSIN_clean_sbu_0, # of connection points: 6
#     Node 19, Type 1, BuildingBlock: HISSIN_clean_sbu_0, # of connection points: 6
#     Node 20, Type 1, BuildingBlock: HISSIN_clean_sbu_0, # of connection points: 6
#     Node 21, Type 1, BuildingBlock: HISSIN_clean_sbu_0, # of connection points: 6
#     Node 22, Type 1, BuildingBlock: HISSIN_clean_sbu_0, # of connection points: 6
#     Node 23, Type 1, BuildingBlock: HISSIN_clean_sbu_0, # of connection points: 6
#     Node 24, Type 1, BuildingBlock: HISSIN_clean_sbu_0, # of connection points: 6
#     Node 25, Type 1, BuildingBlock: HISSIN_clean_sbu_0, # of connection points: 6
#     Node 26, Type 1, BuildingBlock: HISSIN_clean_sbu_0, # of connection points: 6
#     Edge 27, Type (0, 1), BuildingBlock: MIFKUJ_clean_linker_0, # of connection points: 2
#     Edge 28, Type (0, 1), BuildingBlock: MIFKUJ_clean_linker_0, # of connection points: 2
#     Edge 29, Type (0, 1), BuildingBlock: MIFKUJ_clean_linker_0, # of connection points: 2
#     Edge 30, Type (0, 1), BuildingBlock: MIFKUJ_clean_linker_0, # of connection points: 2
#     Edge 31, Type (0, 1), BuildingBlock: MIFKUJ_clean_linker_0, # of connection points: 2
#     Edge 32, Type (0, 1), BuildingBlock: MIFKUJ_clean_linker_0, # of connection points: 2
#     Edge 33, Type (0, 1), BuildingBlock: MIFKUJ_clean_linker_0, # of connection points: 2
#     Edge 34, Type (0, 1), BuildingBlock: MIFKUJ_clean_linker_0, # of connection points: 2
#     Edge 35, Type (0, 1), BuildingBlock: MIFKUJ_clean_linker_0, # of connection points: 2
#     Edge 36, Type (0, 1), BuildingBlock: MIFKUJ_clean_linker_0, # of connection points: 2
#     Edge 37, Type (0, 1), BuildingBlock: MIFKUJ_clean_linker_0, # of connection points: 2
#     Edge 38, Type (0, 1), BuildingBlock: MIFKUJ_clean_linker_0, # of connection points: 2
#     Edge 39, Type (0, 1), BuildingBlock: MIFKUJ_clean_linker_0, # of connection points: 2
#     Edge 40, Type (0, 1), BuildingBlock: MIFKUJ_clean_linker_0, # of connection points: 2
#     Edge 41, Type (0, 1), BuildingBlock: MIFKUJ_clean_linker_0, # of connection points: 2
#     Edge 42, Type (0, 1), BuildingBlock: MIFKUJ_clean_linker_0, # of connection points: 2
#     Edge 43, Type (0, 1), BuildingBlock: MIFKUJ_clean_linker_0, # of connection points: 2
#     Edge 44, Type (0, 1), BuildingBlock: MIFKUJ_clean_linker_0, # of connection points: 2
#     Edge 45, Type (0, 1), BuildingBlock: MIFKUJ_clean_linker_0, # of connection points: 2
#     Edge 46, Type (0, 1), BuildingBlock: MIFKUJ_clean_linker_0, # of connection points: 2
#     Edge 47, Type (0, 1), BuildingBlock: MIFKUJ_clean_linker_0, # of connection points: 2
#     Edge 48, Type (0, 1), BuildingBlock: MIFKUJ_clean_linker_0, # of connection points: 2
#     Edge 49, Type (0, 1), BuildingBlock: MIFKUJ_clean_linker_0, # of connection points: 2
#     Edge 50, Type (0, 1), BuildingBlock: MIFKUJ_clean_linker_0, # of connection points: 2
#     Edge 51, Type (0, 1), BuildingBlock: MIFKUJ_clean_linker_0, # of connection points: 2
#     Edge 52, Type (0, 1), BuildingBlock: MIFKUJ_clean_linker_0, # of connection points: 2
#     Edge 53, Type (0, 1), BuildingBlock: MIFKUJ_clean_linker_0, # of connection points: 2
#     Edge 54, Type (0, 1), BuildingBlock: MIFKUJ_clean_linker_0, # of connection points: 2
#     Edge 55, Type (0, 1), BuildingBlock: MIFKUJ_clean_linker_0, # of connection points: 2
#     Edge 56, Type (0, 1), BuildingBlock: MIFKUJ_clean_linker_0, # of connection points: 2
#     Edge 57, Type (0, 1), BuildingBlock: MIFKUJ_clean_linker_0, # of connection points: 2
#     Edge 58, Type (0, 1), BuildingBlock: MIFKUJ_clean_linker_0, # of connection points: 2
#     Edge 59, Type (0, 1), BuildingBlock: MIFKUJ_clean_linker_0, # of connection points: 2
#     Edge 60, Type (0, 1), BuildingBlock: MIFKUJ_clean_linker_0, # of connection points: 2
#     Edge 61, Type (0, 1), BuildingBlock: MIFKUJ_clean_linker_0, # of connection points: 2
#     Edge 62, Type (0, 1), BuildingBlock: MIFKUJ_clean_linker_0, # of connection points: 2
#     Edge 63, Type (0, 1), BuildingBlock: MIFKUJ_clean_linker_0, # of connection points: 2
#     Edge 64, Type (0, 1), BuildingBlock: MIFKUJ_clean_linker_0, # of connection points: 2
#     Edge 65, Type (0, 1), BuildingBlock: MIFKUJ_clean_linker_0, # of connection points: 2
#     Edge 66, Type (0, 1), BuildingBlock: MIFKUJ_clean_linker_0, # of connection points: 2
#     Edge 67, Type (0, 1), BuildingBlock: MIFKUJ_clean_linker_0, # of connection points: 2
#     Edge 68, Type (0, 1), BuildingBlock: MIFKUJ_clean_linker_0, # of connection points: 2
#     Edge 69, Type (0, 1), BuildingBlock: MIFKUJ_clean_linker_0, # of connection points: 2
#     Edge 70, Type (0, 1), BuildingBlock: MIFKUJ_clean_linker_0, # of connection points: 2
#     Edge 71, Type (0, 1), BuildingBlock: MIFKUJ_clean_linker_0, # of connection points: 2
#     Edge 72, Type (0, 1), BuildingBlock: MIFKUJ_clean_linker_0, # of connection points: 2
#     Edge 73, Type (0, 1), BuildingBlock: MIFKUJ_clean_linker_0, # of connection points: 2
#     Edge 74, Type (0, 1), BuildingBlock: MIFKUJ_clean_linker_0, # of connection points: 2
#     Edge 75, Type (0, 1), BuildingBlock: MIFKUJ_clean_linker_0, # of connection points: 2
#     Edge 76, Type (0, 1), BuildingBlock: MIFKUJ_clean_linker_0, # of connection points: 2
#     Edge 77, Type (0, 1), BuildingBlock: MIFKUJ_clean_linker_0, # of connection points: 2
#     Edge 78, Type (0, 1), BuildingBlock: MIFKUJ_clean_linker_0, # of connection points: 2
#     Edge 79, Type (0, 1), BuildingBlock: MIFKUJ_clean_linker_0, # of connection points: 2
#     Edge 80, Type (0, 1), BuildingBlock: MIFKUJ_clean_linker_0, # of connection points: 2
# Relax obj value: 0.059
# Max RMSD: 0.198
# Mean RMSD: 0.138
data_MOF--net-eea--node1-HISSIN_clean_sbu_0--node2-BETDIP_clean_linker_0--edge1-MIFKUJ_clean_linker_0
_symmetry_space_group_name_H-M    P1
_symmetry_Int_Tables_number       1
_symmetry_cell_setting            triclinic
loop_
_symmetry_equiv_pos_as_xyz
'x, y, z'
_cell_length_a     71.585644
_cell_length_b     71.963231
_cell_length_c     85.482028
_cell_angle_alpha  93.35853
_cell_angle_beta   93.580106
_cell_angle_gamma 119.82045
loop_
_atom_site_label
_atom_site_type_symbol
_atom_site_fract_x
_atom_site_fract_y
_atom_site_fract_z
_atom_type_partial_charge
H0 H 0.24753 0.12019 0.388 0.0
H1 H 0.26581 0.16646 0.42839 0.0
H2 H 0.25952 0.10489 0.43416 0.0
H3 H 0.27942 0.19016 0.41011 0.0
C4 C 0.26624 0.18222 0.40068 0.0
C5 C 0.25223 0.1247 0.40055 0.0
C6 C 0.25256 0.10983 0.41035 0.0
C7 C 0.25759 0.14536 0.40686 0.0
C8 C 0.26281 0.151 0.42324 0.0
C9 C 0.26332 0.1364 0.43318 0.0
C10 C 0.25842 0.11597 0.4266 0.0
N11 N 0.25632 0.15965 0.39664 0.0
H12 H 0.89989 0.12298 0.39331 0.0
H13 H 0.86572 0.10695 0.4344 0.0
H14 H 0.92343 0.16837 0.435 0.0
H15 H 0.86148 0.07409 0.42621 0.0
C16 C 0.85687 0.0729 0.41368 0.0
C17 C 0.8985 0.12742 0.40533 0.0
C18 C 0.9137 0.14782 0.41305 0.0
C19 C 0.88168 0.11234 0.41314 0.0
C20 C 0.87934 0.11811 0.42857 0.0
C21 C 0.89424 0.13835 0.43649 0.0
C22 C 0.91142 0.15308 0.42868 0.0
N23 N 0.86747 0.09138 0.40538 0.0
H24 H 0.90407 0.8014 0.41074 0.0
H25 H 0.9226 0.77627 0.44954 0.0
H26 H 0.86124 0.77343 0.44643 0.0
H27 H 0.94446 0.77393 0.43349 0.0
C28 C 0.94933 0.78698 0.42608 0.0
C29 C 0.90044 0.79358 0.42149 0.0
C30 C 0.88083 0.78811 0.42774 0.0
C31 C 0.91554 0.78913 0.42908 0.0
C32 C 0.91102 0.77938 0.44327 0.0
C33 C 0.89134 0.77349 0.4495 0.0
C34 C 0.87643 0.77793 0.44165 0.0
N35 N 0.93518 0.79501 0.42226 0.0
H36 H 0.10047 0.20926 0.62939 0.0
H37 H 0.14106 0.23291 0.59193 0.0
H38 H 0.08311 0.23665 0.5915 0.0
H39 H 0.16716 0.24015 0.6116 0.0
C40 C 0.15969 0.22552 0.61746 0.0
C41 C 0.10381 0.21683 0.61853 0.0
C42 C 0.08927 0.22236 0.61128 0.0
C43 C 0.12278 0.22104 0.61185 0.0
C44 C 0.12683 0.23017 0.59746 0.0
C45 C 0.11257 0.23582 0.59006 0.0
C46 C 0.09399 0.23206 0.59713 0.0
N47 N 0.1373 0.21555 0.61963 0.0
H48 H 0.76694 0.88221 0.65354 0.0
H49 H 0.74844 0.90012 0.61076 0.0
H50 H 0.74131 0.83735 0.61162 0.0
H51 H 0.77956 0.932 0.62021 0.0
C52 C 0.77646 0.93334 0.6324 0.0
C53 C 0.76021 0.87807 0.64129 0.0
C54 C 0.75378 0.85762 0.6337 0.0
C55 C 0.75892 0.89364 0.63297 0.0
C56 C 0.75018 0.88839 0.6171 0.0
C57 C 0.74364 0.86805 0.60934 0.0
C58 C 0.74541 0.85273 0.61774 0.0
N59 N 0.76721 0.91469 0.64062 0.0
H60 H 0.11565 0.89442 0.63541 0.0
H61 H 0.08948 0.84824 0.59436 0.0
H62 H 0.15348 0.90321 0.59644 0.0
H63 H 0.05791 0.84681 0.60168 0.0
C64 C 0.06003 0.84579 0.61424 0.0
C65 C 0.11744 0.88902 0.62379 0.0
C66 C 0.13681 0.90093 0.61699 0.0
C67 C 0.10016 0.87029 0.61558 0.0
C68 C 0.10247 0.8631 0.60055 0.0
C69 C 0.12181 0.87474 0.59363 0.0
C70 C 0.13883 0.89366 0.60194 0.0
N71 N 0.08076 0.85881 0.62282 0.0
H72 H 0.92331 0.4642 0.71683 0.0
H73 H 0.94124 0.50636 0.75963 0.0
H74 H 0.93924 0.44592 0.76055 0.0
H75 H 0.95009 0.53186 0.74301 0.0
C76 C 0.93681 0.52356 0.7337 0.0
C77 C 0.92873 0.46782 0.72932 0.0
C78 C 0.93067 0.4526 0.73777 0.0
C79 C 0.93299 0.48747 0.737 0.0
C80 C 0.93906 0.49181 0.75336 0.0
C81 C 0.94125 0.47686 0.76194 0.0
C82 C 0.93721 0.45739 0.75403 0.0
N83 N 0.92937 0.50175 0.72822 0.0
H84 H 0.57411 0.46223 0.7288 0.0
H85 H 0.53356 0.44731 0.76657 0.0
H86 H 0.59363 0.50722 0.77034 0.0
H87 H 0.5072 0.43002 0.74547 0.0
C88 C 0.51426 0.42159 0.73955 0.0
C89 C 0.57112 0.46665 0.74033 0.0
C90 C 0.5862 0.4865 0.7488 0.0
C91 C 0.55177 0.45274 0.74642 0.0
C92 C 0.54793 0.4584 0.7614 0.0
C93 C 0.56297 0.47798 0.7701 0.0
C94 C 0.58201 0.492 0.76369 0.0
N95 N 0.53671 0.43284 0.73756 0.0
H96 H 0.56709 0.12272 0.74132 0.0
H97 H 0.59207 0.10852 0.78327 0.0
H98 H 0.5327 0.1091 0.7827 0.0
H99 H 0.61375 0.10508 0.76841 0.0
C100 C 0.61613 0.11468 0.75862 0.0
C101 C 0.56567 0.11885 0.7534 0.0
C102 C 0.5476 0.11613 0.76091 0.0
C103 C 0.58186 0.11614 0.76123 0.0
C104 C 0.57983 0.11048 0.7768 0.0
C105 C 0.56199 0.10773 0.78443 0.0
C106 C 0.54624 0.11096 0.77657 0.0
N107 N 0.60009 0.11971 0.75323 0.0
H108 H 0.76141 0.53927 0.95885 0.0
H109 H 0.79899 0.55924 0.9195 0.0
H110 H 0.74062 0.56201 0.91958 0.0
H111 H 0.82604 0.56571 0.93679 0.0
C112 C 0.81929 0.55314 0.94463 0.0
C113 C 0.76383 0.54567 0.94753 0.0
C114 C 0.7485 0.55008 0.94012 0.0
C115 C 0.78237 0.54936 0.94039 0.0
C116 C 0.78517 0.55688 0.9254 0.0
C117 C 0.77019 0.56149 0.91783 0.0
C118 C 0.75206 0.55823 0.92534 0.0
N119 N 0.79761 0.5449 0.94836 0.0
H120 H 0.41666 0.20512 0.99122 0.0
H121 H 0.40181 0.22669 0.94884 0.0
H122 H 0.40639 0.16947 0.94616 0.0
H123 H 0.38885 0.24167 0.96607 0.0
C124 C 0.40217 0.24847 0.9754 0.0
C125 C 0.41288 0.20289 0.97853 0.0
C126 C 0.41154 0.18511 0.96964 0.0
C127 C 0.40907 0.21777 0.97119 0.0
C128 C 0.40431 0.21507 0.95471 0.0
C129 C 0.403 0.1975 0.94565 0.0
C130 C 0.40664 0.18263 0.9532 0.0
N131 N 0.41122 0.23591 0.98049 0.0
H132 H 0.78039 0.22119 0.96923 0.0
H133 H 0.75542 0.17692 0.927 0.0
H134 H 0.8169 0.23514 0.92916 0.0
H135 H 0.72367 0.17108 0.9348 0.0
C136 C 0.72568 0.17103 0.94749 0.0
C137 C 0.78215 0.21669 0.95732 0.0
C138 C 0.80059 0.23041 0.95013 0.0
C139 C 0.76541 0.1977 0.94891 0.0
C140 C 0.76785 0.19184 0.93347 0.0
C141 C 0.78631 0.20534 0.92622 0.0
C142 C 0.8025 0.22466 0.93461 0.0
N143 N 0.74621 0.18504 0.95612 0.0
H144 H 0.58259 0.79055 0.05035 0.0
H145 H 0.61059 0.83838 0.09039 0.0
H146 H 0.61056 0.77883 0.09196 0.0
H147 H 0.61677 0.86067 0.07011 0.0
C148 C 0.60057 0.85179 0.0639 0.0
C149 C 0.59089 0.79579 0.06217 0.0
C150 C 0.59645 0.78241 0.07015 0.0
C151 C 0.59634 0.81614 0.06924 0.0
C152 C 0.60687 0.82293 0.08466 0.0
C153 C 0.61221 0.80962 0.09291 0.0
C154 C 0.60709 0.78948 0.0855 0.0
N155 N 0.59007 0.82902 0.06093 0.0
H156 H 0.23132 0.79352 0.05859 0.0
H157 H 0.19527 0.77665 0.09879 0.0
H158 H 0.25482 0.83679 0.10142 0.0
H159 H 0.16721 0.75816 0.07971 0.0
C160 C 0.17389 0.75093 0.072 0.0
C161 C 0.22968 0.79748 0.07065 0.0
C162 C 0.24553 0.81708 0.07912 0.0
C163 C 0.21127 0.78305 0.0775 0.0
C164 C 0.20889 0.78809 0.09312 0.0
C165 C 0.22441 0.80754 0.10175 0.0
C166 C 0.24272 0.82187 0.0947 0.0
N167 N 0.19575 0.7633 0.06864 0.0
H168 H 0.23054 0.4573 0.07516 0.0
H169 H 0.25285 0.44046 0.11707 0.0
H170 H 0.19086 0.43596 0.11346 0.0
H171 H 0.27587 0.43846 0.10287 0.0
C172 C 0.27899 0.44882 0.0935 0.0
C173 C 0.22799 0.45182 0.08679 0.0
C174 C 0.20861 0.44692 0.09326 0.0
C175 C 0.24398 0.44917 0.09505 0.0
C176 C 0.24058 0.44191 0.11016 0.0
C177 C 0.2214 0.43702 0.11678 0.0
C178 C 0.20563 0.43966 0.1083 0.0
N179 N 0.26328 0.45424 0.08796 0.0
H180 H 0.43373 0.8778 0.29585 0.0
H181 H 0.47144 0.89976 0.25667 0.0
H182 H 0.41271 0.90174 0.25757 0.0
H183 H 0.49841 0.90499 0.27339 0.0
C184 C 0.49163 0.89228 0.28112 0.0
C185 C 0.43621 0.88466 0.28469 0.0
C186 C 0.42068 0.88888 0.27744 0.0
C187 C 0.45489 0.88901 0.27753 0.0
C188 C 0.45779 0.89735 0.26282 0.0
C189 C 0.44271 0.90207 0.25558 0.0
C190 C 0.42419 0.89773 0.26295 0.0
N191 N 0.4701 0.88424 0.28513 0.0
H192 H 0.09208 0.53918 0.32218 0.0
H193 H 0.07234 0.55811 0.28036 0.0
H194 H 0.07409 0.49929 0.27811 0.0
H195 H 0.06066 0.57359 0.29934 0.0
C196 C 0.07568 0.58142 0.30715 0.0
C197 C 0.08639 0.53596 0.30973 0.0
C198 C 0.08313 0.51719 0.30109 0.0
C199 C 0.08201 0.5505 0.30245 0.0
C200 C 0.07508 0.54661 0.28623 0.0
C201 C 0.07208 0.52811 0.2774 0.0
C202 C 0.07588 0.51335 0.28495 0.0
N203 N 0.08583 0.56952 0.31143 0.0
H204 H 0.4479 0.54889 0.30553 0.0
H205 H 0.42356 0.5066 0.26245 0.0
H206 H 0.4874 0.56209 0.26712 0.0
H207 H 0.39155 0.50421 0.26961 0.0
C208 C 0.39305 0.50232 0.28207 0.0
C209 C 0.45026 0.54477 0.2937 0.0
C210 C 0.46994 0.55766 0.28753 0.0
C211 C 0.43329 0.52674 0.2846 0.0
C212 C 0.43629 0.52099 0.26933 0.0
C213 C 0.45599 0.53345 0.26309 0.0
C214 C 0.47259 0.55185 0.27221 0.0
N215 N 0.41349 0.51453 0.29118 0.0
Eu216 Eu 0.47864 0.99286 0.99892 0.0
Eu217 Eu 0.49337 0.01282 0.03618 0.0
C218 C 0.47356 0.03253 0.01253 0.0
C219 C 0.47611 0.98886 0.95419 0.0
C220 C 0.47233 0.00539 0.94998 0.0
C221 C 0.49529 0.99268 0.93102 0.0
C222 C 0.48 0.01547 0.9364 0.0
C223 C 0.48745 0.98247 0.9445 0.0
C224 C 0.49176 0.00938 0.92682 0.0
C225 C 0.46943 0.97884 0.96897 0.0
O226 O 0.45718 0.99039 0.03376 0.0
O227 O 0.45364 0.96775 0.01231 0.0
C228 C 0.44612 0.97195 0.02485 0.0
O229 O 0.50064 0.98174 0.00938 0.0
O230 O 0.48861 0.02715 0.05766 0.0
O231 O 0.51542 0.02116 0.05753 0.0
O232 O 0.49164 0.98074 0.03451 0.0
C233 C 0.49953 0.97457 0.02323 0.0
O234 O 0.50821 0.02532 0.99878 0.0
O235 O 0.52376 0.02829 0.02375 0.0
O236 O 0.48899 0.03726 0.02381 0.0
O237 O 0.48459 0.97854 0.97802 0.0
O238 O 0.45723 0.98365 0.97702 0.0
O239 O 0.46424 0.01407 1.00363 0.0
C240 C 0.49856 0.01671 0.08081 0.0
C241 C 0.48468 0.99442 0.08046 0.0
C242 C 0.50186 0.01986 0.10937 0.0
C243 C 0.47942 0.98488 0.09452 0.0
C244 C 0.5071 0.02938 0.0953 0.0
C245 C 0.48798 0.9975 0.10915 0.0
C246 C 0.50423 0.02678 0.06609 0.0
C247 C 0.52521 0.03385 0.00929 0.0
H248 H 0.46366 0.01072 0.95723 0.0
H249 H 0.50455 0.98775 0.9241 0.0
H250 H 0.47664 0.02801 0.93341 0.0
H251 H 0.49066 0.96984 0.94753 0.0
H252 H 0.47799 0.98441 0.06932 0.0
H253 H 0.50849 0.03006 0.12043 0.0
H254 H 0.46891 0.9676 0.09394 0.0
H255 H 0.51779 0.04663 0.09574 0.0
Eu256 Eu 0.01113 0.48441 1.00019 0.0
Eu257 Eu 0.99362 0.48128 0.03502 0.0
C258 C 0.97331 0.44075 0.00996 0.0
C259 C 0.01737 0.49006 0.95673 0.0
C260 C 0.99601 0.4854 0.95296 0.0
C261 C 0.02568 0.50095 0.93056 0.0
C262 C 0.98939 0.48801 0.93795 0.0
C263 C 0.03224 0.49812 0.94554 0.0
C264 C 0.0041 0.49557 0.92656 0.0
C265 C 0.02409 0.4861 0.97214 0.0
O266 O 0.01762 0.46945 0.0366 0.0
O267 O 0.03792 0.48698 0.01696 0.0
C268 C 0.0355 0.47692 0.02964 0.0
O269 O 0.021 0.51807 0.01015 0.0
O270 O 0.97971 0.46224 0.05448 0.0
O271 O 0.98634 0.4952 0.05541 0.0
O272 O 0.02445 0.51323 0.03608 0.0
C273 C 0.02927 0.52592 0.02476 0.0
O274 O 0.98021 0.48511 0.99534 0.0
O275 O 0.97512 0.49337 0.02063 0.0
O276 O 0.96844 0.45243 0.01926 0.0
O277 O 0.03298 0.50242 0.98297 0.0
O278 O 0.01014 0.46836 0.97753 0.0
O279 O 0.99239 0.44938 1.00469 0.0
C280 C 0.98941 0.48201 0.07937 0.0
C281 C 0.0119 0.49284 0.08335 0.0
C282 C 0.98399 0.47834 0.10695 0.0
C283 C 0.0204 0.49653 0.09912 0.0
C284 C 0.97552 0.47474 0.09121 0.0
C285 C 0.00651 0.48931 0.11108 0.0
C286 C 0.98018 0.47817 0.06295 0.0
C287 C 0.97047 0.49119 1.00525 0.0
H288 H 0.98436 0.4794 0.96153 0.0
H289 H 0.03728 0.50666 0.92194 0.0
H290 H 0.97274 0.48398 0.9352 0.0
H291 H 0.0488 0.50187 0.94831 0.0
H292 H 0.02282 0.49844 0.07428 0.0
H293 H 0.9729 0.47285 0.11592 0.0
H294 H 0.03781 0.50483 0.10195 0.0
H295 H 0.95812 0.46637 0.08829 0.0
Eu296 Eu 0.53019 0.52066 0.03575 0.0
Eu297 Eu 0.51001 0.52071 0.99985 0.0
C298 C 0.53361 0.56265 0.02363 0.0
C299 C 0.53359 0.51832 0.0797 0.0
C300 C 0.51751 0.52374 0.08179 0.0
C301 C 0.53053 0.50689 0.10602 0.0
C302 C 0.50838 0.52124 0.09603 0.0
C303 C 0.53981 0.5096 0.09181 0.0
C304 C 0.51496 0.51302 0.10841 0.0
C305 C 0.54394 0.52184 0.06499 0.0
O306 O 0.54518 0.53089 0.99801 0.0
O307 O 0.55418 0.51967 0.02053 0.0
C308 C 0.55821 0.52652 0.00655 0.0
O309 O 0.50759 0.48595 0.02651 0.0
O310 O 0.51206 0.53937 0.98021 0.0
O311 O 0.48691 0.50581 0.97884 0.0
O312 O 0.50878 0.48895 0.99997 0.0
C313 C 0.50447 0.47734 0.01193 0.0
O314 O 0.49832 0.51871 0.03899 0.0
O315 O 0.48107 0.50756 0.01371 0.0
O316 O 0.5155 0.55007 0.01474 0.0
O317 O 0.53683 0.50499 0.05477 0.0
O318 O 0.54673 0.53878 0.05839 0.0
O319 O 0.54529 0.5548 0.02942 0.0
C320 C 0.50193 0.51929 0.9555 0.0
C321 C 0.51474 0.50983 0.95335 0.0
C322 C 0.5004 0.5234 0.92759 0.0
C323 C 0.5203 0.50709 0.93836 0.0
C324 C 0.4948 0.52606 0.94258 0.0
C325 C 0.51323 0.51389 0.9253 0.0
C326 C 0.49661 0.52283 0.97127 0.0
C327 C 0.48078 0.51064 0.02899 0.0
H328 H 0.51228 0.5303 0.07252 0.0
H329 H 0.53567 0.5001 0.11516 0.0
H330 H 0.49664 0.52637 0.09746 0.0
H331 H 0.55199 0.50508 0.09032 0.0
H332 H 0.52048 0.50462 0.96327 0.0
H333 H 0.49497 0.52912 0.91785 0.0
H334 H 0.52998 0.49949 0.93698 0.0
H335 H 0.48507 0.53359 0.94412 0.0
Eu336 Eu 0.14587 0.32272 0.33254 0.0
Eu337 Eu 0.16095 0.34355 0.36979 0.0
C338 C 0.14169 0.36293 0.34561 0.0
C339 C 0.14097 0.31909 0.28799 0.0
C340 C 0.15215 0.34162 0.28851 0.0
C341 C 0.14249 0.31653 0.25972 0.0
C342 C 0.1586 0.35157 0.27472 0.0
C343 C 0.13602 0.3066 0.27353 0.0
C344 C 0.15406 0.33913 0.26018 0.0
C345 C 0.13585 0.30861 0.30259 0.0
O346 O 0.12477 0.32089 0.36737 0.0
O347 O 0.12119 0.29786 0.34618 0.0
C348 C 0.11376 0.30229 0.35866 0.0
O349 O 0.16561 0.30917 0.34309 0.0
O350 O 0.15557 0.35801 0.39094 0.0
O351 O 0.18321 0.35332 0.39118 0.0
O352 O 0.16003 0.31193 0.36903 0.0
C353 C 0.16605 0.30395 0.35751 0.0
O354 O 0.17591 0.3549 0.33246 0.0
O355 O 0.19133 0.35758 0.3574 0.0
O356 O 0.15748 0.36793 0.35663 0.0
O357 O 0.15234 0.31003 0.31109 0.0
O358 O 0.12332 0.31227 0.31114 0.0
O359 O 0.13159 0.34397 0.33737 0.0
C360 C 0.16626 0.3488 0.41443 0.0
C361 C 0.15422 0.32635 0.41441 0.0
C362 C 0.16856 0.3527 0.44298 0.0
C363 C 0.14948 0.31711 0.42861 0.0
C364 C 0.17334 0.36192 0.42876 0.0
C365 C 0.15664 0.33018 0.44307 0.0
C366 C 0.17156 0.35853 0.39955 0.0
C367 C 0.1929 0.36311 0.34295 0.0
H368 H 0.15629 0.35151 0.29964 0.0
H369 H 0.13849 0.30651 0.24869 0.0
H370 H 0.16768 0.369 0.27551 0.0
H371 H 0.12748 0.28919 0.27295 0.0
H372 H 0.14854 0.31599 0.4034 0.0
H373 H 0.1745 0.36319 0.45391 0.0
H374 H 0.14002 0.29974 0.42827 0.0
H375 H 0.18268 0.37928 0.42895 0.0
Eu376 Eu 0.67728 0.81344 0.33157 0.0
Eu377 Eu 0.66146 0.81329 0.36714 0.0
C378 C 0.63912 0.77159 0.34295 0.0
C379 C 0.68584 0.82015 0.2879 0.0
C380 C 0.66587 0.81779 0.28219 0.0
C381 C 0.69995 0.83308 0.26325 0.0
C382 C 0.66277 0.82242 0.26693 0.0
C383 C 0.70297 0.82826 0.27846 0.0
C384 C 0.67965 0.82968 0.25714 0.0
C385 C 0.68874 0.81307 0.30319 0.0
O386 O 0.68453 0.80055 0.36968 0.0
O387 O 0.70211 0.81107 0.34736 0.0
C388 C 0.70036 0.80366 0.36119 0.0
O389 O 0.69142 0.84807 0.3415 0.0
O390 O 0.64649 0.79543 0.38686 0.0
O391 O 0.65614 0.82926 0.38736 0.0
O392 O 0.69407 0.84307 0.36752 0.0
C393 C 0.7002 0.85555 0.35608 0.0
O394 O 0.64785 0.81698 0.32757 0.0
O395 O 0.64535 0.82775 0.35292 0.0
O396 O 0.63527 0.78436 0.35196 0.0
O397 O 0.70088 0.82805 0.31455 0.0
O398 O 0.67148 0.79735 0.308 0.0
O399 O 0.65774 0.77905 0.33713 0.0
C400 C 0.6576 0.81584 0.41158 0.0
C401 C 0.67996 0.82519 0.41561 0.0
C402 C 0.65188 0.81314 0.43918 0.0
C403 C 0.68827 0.82865 0.43142 0.0
C404 C 0.64362 0.80977 0.4234 0.0
C405 C 0.67429 0.82268 0.44337 0.0
C406 C 0.64856 0.81231 0.39513 0.0
C407 C 0.63982 0.8249 0.33765 0.0
H408 H 0.65244 0.81171 0.28934 0.0
H409 H 0.71342 0.83906 0.25616 0.0
H410 H 0.64687 0.81942 0.26259 0.0
H411 H 0.71854 0.83035 0.28272 0.0
H412 H 0.69094 0.82983 0.40655 0.0
H413 H 0.64074 0.80864 0.44812 0.0
H414 H 0.70558 0.83584 0.4343 0.0
H415 H 0.62631 0.80254 0.42044 0.0
Eu416 Eu 0.19696 0.84968 0.36937 0.0
Eu417 Eu 0.18074 0.85546 0.33406 0.0
C418 C 0.20248 0.89439 0.36126 0.0
C419 C 0.19988 0.84728 0.41333 0.0
C420 C 0.19276 0.86203 0.4163 0.0
C421 C 0.18917 0.83373 0.43854 0.0
C422 C 0.18404 0.86271 0.43035 0.0
C423 C 0.1981 0.83321 0.42455 0.0
C424 C 0.18198 0.84843 0.44154 0.0
C425 C 0.20752 0.84525 0.3981 0.0
O426 O 0.20951 0.85131 0.33108 0.0
O427 O 0.22664 0.86367 0.35617 0.0
C428 C 0.22696 0.85901 0.34111 0.0
O429 O 0.19091 0.82055 0.35387 0.0
O430 O 0.18674 0.87505 0.31447 0.0
O431 O 0.15739 0.84409 0.31306 0.0
O432 O 0.16547 0.81981 0.33586 0.0
C433 C 0.17462 0.81014 0.34285 0.0
O434 O 0.16094 0.83637 0.36835 0.0
O435 O 0.15679 0.85606 0.34975 0.0
O436 O 0.20295 0.88854 0.34656 0.0
O437 O 0.19333 0.82922 0.38813 0.0
O438 O 0.21824 0.86294 0.39139 0.0
O439 O 0.1957 0.8803 0.3716 0.0
C440 C 0.17368 0.85521 0.28966 0.0
C441 C 0.18702 0.84631 0.28764 0.0
C442 C 0.16942 0.85605 0.26139 0.0
C443 C 0.19166 0.84243 0.27256 0.0
C444 C 0.16484 0.85997 0.27649 0.0
C445 C 0.18298 0.84734 0.25927 0.0
C446 C 0.1697 0.86039 0.30551 0.0
C447 C 0.1498 0.84423 0.36153 0.0
H448 H 0.19361 0.87278 0.40765 0.0
H449 H 0.18793 0.82267 0.44703 0.0
H450 H 0.17843 0.87406 0.43228 0.0
H451 H 0.20331 0.82158 0.42238 0.0
H452 H 0.19399 0.84256 0.29773 0.0
H453 H 0.16271 0.86026 0.25142 0.0
H454 H 0.20195 0.83549 0.2713 0.0
H455 H 0.15463 0.86698 0.27788 0.0
Eu456 Eu 0.81543 0.66294 0.66654 0.0
Eu457 Eu 0.83051 0.6841 0.70369 0.0
C458 C 0.81106 0.7032 0.67952 0.0
C459 C 0.81058 0.65908 0.622 0.0
C460 C 0.82305 0.68157 0.62254 0.0
C461 C 0.81094 0.65626 0.59361 0.0
C462 C 0.82959 0.69136 0.6087 0.0
C463 C 0.80443 0.64649 0.60747 0.0
C464 C 0.82379 0.6788 0.59409 0.0
C465 C 0.80531 0.64867 0.63663 0.0
O466 O 0.79429 0.66189 0.701 0.0
O467 O 0.79096 0.63818 0.68043 0.0
C468 C 0.78354 0.64292 0.69279 0.0
O469 O 0.83481 0.64905 0.67713 0.0
O470 O 0.82451 0.69754 0.72509 0.0
O471 O 0.85269 0.69376 0.72512 0.0
O472 O 0.82925 0.65237 0.703 0.0
C473 C 0.83511 0.64405 0.69162 0.0
O474 O 0.8456 0.69505 0.66637 0.0
O475 O 0.861 0.69848 0.69147 0.0
O476 O 0.82685 0.70841 0.6906 0.0
O477 O 0.8217 0.64993 0.64516 0.0
O478 O 0.79289 0.65256 0.64514 0.0
O479 O 0.8011 0.68418 0.67134 0.0
C480 C 0.83409 0.68574 0.74763 0.0
C481 C 0.82345 0.66315 0.74594 0.0
C482 C 0.83255 0.6854 0.77587 0.0
C483 C 0.81752 0.65175 0.75914 0.0
C484 C 0.8386 0.69681 0.76264 0.0
C485 C 0.82196 0.66274 0.77427 0.0
C486 C 0.84026 0.69758 0.73367 0.0
C487 C 0.86256 0.70365 0.67693 0.0
H488 H 0.828 0.69153 0.6337 0.0
H489 H 0.80641 0.64612 0.58258 0.0
H490 H 0.83923 0.70876 0.60945 0.0
H491 H 0.79498 0.62909 0.60689 0.0
H492 H 0.8197 0.65434 0.73439 0.0
H493 H 0.83641 0.69432 0.78739 0.0
H494 H 0.80919 0.63432 0.75748 0.0
H495 H 0.84679 0.71424 0.76413 0.0
Eu496 Eu 0.3521 0.15833 0.6689 0.0
Eu497 Eu 0.33201 0.14852 0.70293 0.0
C498 C 0.3126 0.1122 0.67374 0.0
C499 C 0.35643 0.16642 0.6258 0.0
C500 C 0.33411 0.15868 0.62325 0.0
C501 C 0.36016 0.1752 0.59884 0.0
C502 C 0.32482 0.15908 0.60851 0.0
C503 C 0.36941 0.17471 0.61357 0.0
C504 C 0.33776 0.16738 0.59615 0.0
C505 C 0.36631 0.16649 0.64133 0.0
O506 O 0.36448 0.1507 0.70706 0.0
O507 O 0.36856 0.14285 0.68147 0.0
C508 C 0.37394 0.14487 0.69672 0.0
O509 O 0.37685 0.18511 0.68643 0.0
O510 O 0.32222 0.129 0.72263 0.0
O511 O 0.31695 0.15608 0.7218 0.0
O512 O 0.3538 0.18457 0.70397 0.0
C513 C 0.3723 0.19461 0.69788 0.0
O514 O 0.32991 0.17203 0.6701 0.0
O515 O 0.30664 0.14889 0.6861 0.0
O516 O 0.31927 0.11643 0.68884 0.0
O517 O 0.36832 0.18125 0.652 0.0
O518 O 0.35903 0.14775 0.6467 0.0
O519 O 0.32001 0.12742 0.66425 0.0
C520 C 0.3245 0.14769 0.74674 0.0
C521 C 0.34655 0.16219 0.75122 0.0
C522 C 0.31821 0.14459 0.77423 0.0
C523 C 0.35443 0.1678 0.76717 0.0
C524 C 0.31037 0.13903 0.75829 0.0
C525 C 0.34035 0.15893 0.77885 0.0
C526 C 0.31613 0.14108 0.73008 0.0
C527 C 0.31094 0.16262 0.67554 0.0
H528 H 0.32391 0.1524 0.63268 0.0
H529 H 0.37049 0.18139 0.58948 0.0
H530 H 0.30757 0.15307 0.60683 0.0
H531 H 0.38668 0.1808 0.61541 0.0
H532 H 0.35767 0.16895 0.74237 0.0
H533 H 0.30692 0.13773 0.78294 0.0
H534 H 0.37158 0.17871 0.77036 0.0
H535 H 0.29329 0.12784 0.75498 0.0
Eu536 Eu 0.87017 0.19634 0.70392 0.0
Eu537 Eu 0.84969 0.19306 0.66736 0.0
C538 C 0.87383 0.23703 0.68893 0.0
C539 C 0.8753 0.19468 0.74824 0.0
C540 C 0.88692 0.20806 0.76205 0.0
C541 C 0.84428 0.17469 0.76272 0.0
C542 C 0.8772 0.20506 0.77605 0.0
C543 C 0.85396 0.17785 0.74865 0.0
C544 C 0.8557 0.18855 0.77647 0.0
C545 C 0.88495 0.19984 0.7333 0.0
O546 O 0.88504 0.2044 0.66567 0.0
O547 O 0.89466 0.19546 0.6891 0.0
C548 C 0.89849 0.20126 0.67482 0.0
O549 O 0.84748 0.1612 0.69588 0.0
O550 O 0.85008 0.20911 0.64645 0.0
O551 O 0.8266 0.17523 0.64672 0.0
O552 O 0.85193 0.16333 0.66969 0.0
C553 C 0.84658 0.15214 0.68186 0.0
O554 O 0.83795 0.19393 0.70646 0.0
O555 O 0.82086 0.18037 0.6813 0.0
O556 O 0.8557 0.22387 0.68022 0.0
O557 O 0.88066 0.18369 0.72305 0.0
O558 O 0.88369 0.21516 0.72679 0.0
O559 O 0.88516 0.22968 0.69609 0.0
C560 C 0.84056 0.18699 0.62271 0.0
C561 C 0.85361 0.17766 0.62121 0.0
C562 C 0.83896 0.18946 0.59455 0.0
C563 C 0.85921 0.17413 0.60641 0.0
C564 C 0.83328 0.19286 0.60934 0.0
C565 C 0.852 0.18007 0.59294 0.0
C566 C 0.83519 0.19142 0.63824 0.0
C567 C 0.82042 0.18476 0.69637 0.0
H568 H 0.90334 0.22122 0.7619 0.0
H569 H 0.82763 0.16198 0.76271 0.0
H570 H 0.88639 0.21585 0.78652 0.0
H571 H 0.84459 0.16755 0.73803 0.0
H572 H 0.85958 0.17327 0.63149 0.0
H573 H 0.83299 0.19398 0.58436 0.0
H574 H 0.86947 0.1671 0.60554 0.0
H575 H 0.82328 0.20018 0.61035 0.0
H576 H 0.26926 0.80809 0.05907 0.0
H577 H 0.30181 0.83358 0.04782 0.0
H578 H 0.29936 0.88655 0.07199 0.0
H579 H 0.26601 0.86123 0.08239 0.0
H580 H 0.31097 0.89645 0.04432 0.0
H581 H 0.33395 0.86804 0.08589 0.0
H582 H 0.33465 0.83985 0.10055 0.0
H583 H 0.3543 0.81783 0.06042 0.0
H584 H 0.35345 0.84574 0.04544 0.0
H585 H 0.42184 0.97743 0.0461 0.0
H586 H 0.38673 0.95032 0.0534 0.0
H587 H 0.38697 0.90232 0.0209 0.0
H588 H 0.42209 0.92938 0.01341 0.0
H589 H 0.37634 0.88925 0.05133 0.0
H590 H 0.35529 0.92086 0.01071 0.0
H591 H 0.35636 0.95112 0.99785 0.0
H592 H 0.33482 0.96943 0.03866 0.0
H593 H 0.33389 0.93942 0.05185 0.0
C594 C 0.27539 0.82515 0.06179 0.0
C595 C 0.26504 0.83254 0.0718 0.0
C596 C 0.29421 0.83974 0.0555 0.0
C597 C 0.30335 0.86203 0.05931 0.0
C598 C 0.29274 0.86945 0.06894 0.0
C599 C 0.27378 0.8549 0.07506 0.0
C600 C 0.32416 0.87764 0.05355 0.0
C601 C 0.32529 0.89495 0.046 0.0
C602 C 0.34285 0.8756 0.05551 0.0
C603 C 0.3434 0.85882 0.06449 0.0
C604 C 0.33826 0.85708 0.08015 0.0
C605 C 0.33871 0.84117 0.08852 0.0
C606 C 0.34446 0.82701 0.08141 0.0
C607 C 0.34982 0.82878 0.06591 0.0
C608 C 0.34937 0.84465 0.05748 0.0
C609 C 0.41443 0.96112 0.04046 0.0
C610 C 0.42475 0.95557 0.02914 0.0
C611 C 0.39433 0.94568 0.04461 0.0
C612 C 0.38422 0.92437 0.0376 0.0
C613 C 0.39452 0.9187 0.02641 0.0
C614 C 0.41453 0.9342 0.02211 0.0
C615 C 0.36305 0.90796 0.04221 0.0
C616 C 0.36191 0.89057 0.04957 0.0
C617 C 0.34449 0.91014 0.04032 0.0
C618 C 0.34469 0.92799 0.03231 0.0
C619 C 0.35091 0.93142 0.01698 0.0
C620 C 0.35147 0.94851 0.00963 0.0
C621 C 0.34571 0.96222 0.01745 0.0
C622 C 0.33929 0.95881 0.03262 0.0
C623 C 0.33872 0.94174 0.04003 0.0
H624 H 0.34616 0.97545 0.01174 0.0
H625 H 0.3448 0.81471 0.08791 0.0
H626 H 0.16483 0.41955 0.0911 0.0
H627 H 0.13626 0.42493 0.07932 0.0
H628 H 0.18421 0.48431 0.06325 0.0
H629 H 0.21307 0.47953 0.07579 0.0
H630 H 0.15492 0.49021 0.07598 0.0
H631 H 0.15176 0.43769 0.03755 0.0
H632 H 0.14967 0.4038 0.02754 0.0
H633 H 0.08797 0.36746 0.0452 0.0
H634 H 0.08982 0.40113 0.05552 0.0
H635 H 0.07798 0.4996 0.02431 0.0
H636 H 0.10766 0.49456 0.03453 0.0
H637 H 0.06353 0.44251 0.05953 0.0
H638 H 0.0337 0.44767 0.04954 0.0
H639 H 0.09125 0.43341 0.04134 0.0
H640 H 0.09515 0.48721 0.07949 0.0
H641 H 0.09782 0.52162 0.0887 0.0
H642 H 0.15941 0.55635 0.07057 0.0
H643 H 0.15679 0.52212 0.06079 0.0
C644 C 0.16937 0.43381 0.0851 0.0
C645 C 0.1913 0.44922 0.08453 0.0
C646 C 0.15295 0.43674 0.07818 0.0
C647 C 0.158 0.45493 0.07023 0.0
C648 C 0.17988 0.47012 0.0693 0.0
C649 C 0.19638 0.46727 0.07634 0.0
C650 C 0.14041 0.45846 0.06357 0.0
C651 C 0.14121 0.47792 0.06817 0.0
C652 C 0.12222 0.44226 0.05365 0.0
C653 C 0.12102 0.42195 0.04743 0.0
C654 C 0.13782 0.42247 0.03941 0.0
C655 C 0.13666 0.4033 0.03366 0.0
C656 C 0.11872 0.38349 0.03576 0.0
C657 C 0.10187 0.38281 0.04359 0.0
C658 C 0.10295 0.40194 0.04938 0.0
C659 C 0.07456 0.48708 0.032 0.0
C660 C 0.05346 0.474 0.03611 0.0
C661 C 0.09156 0.48428 0.03786 0.0
C662 C 0.08779 0.4682 0.04779 0.0
C663 C 0.06675 0.45501 0.05186 0.0
C664 C 0.04976 0.45803 0.0462 0.0
C665 C 0.10582 0.46507 0.05381 0.0
C666 C 0.10507 0.44569 0.04908 0.0
C667 C 0.12414 0.48143 0.06346 0.0
C668 C 0.12562 0.50206 0.0692 0.0
C669 C 0.10911 0.50216 0.07724 0.0
C670 C 0.11063 0.52165 0.08259 0.0
C671 C 0.12871 0.54116 0.08014 0.0
C672 C 0.14534 0.54122 0.07237 0.0
C673 C 0.14383 0.52178 0.0669 0.0
H674 H 0.12988 0.55623 0.08432 0.0
H675 H 0.11786 0.36866 0.0313 0.0
H676 H 0.62167 0.76382 0.07015 0.0
H677 H 0.61103 0.72696 0.06034 0.0
H678 H 0.54753 0.71517 0.04373 0.0
H679 H 0.55793 0.75194 0.05389 0.0
H680 H 0.54519 0.68378 0.06055 0.0
H681 H 0.58327 0.71979 0.01786 0.0
H682 H 0.61376 0.74704 1.00516 0.0
H683 H 0.65463 0.7238 0.02359 0.0
H684 H 0.62445 0.69659 0.0366 0.0
H685 H 0.51014 0.5824 0.01779 0.0
H686 H 0.52119 0.62018 0.02445 0.0
H687 H 0.58364 0.63276 0.0446 0.0
H688 H 0.5727 0.59488 0.03801 0.0
H689 H 0.58607 0.6637 0.02513 0.0
H690 H 0.5479 0.6283 0.06837 0.0
H691 H 0.51739 0.60158 0.08138 0.0
H692 H 0.47647 0.62406 0.06175 0.0
H693 H 0.50663 0.65068 0.04839 0.0
C694 C 0.60546 0.75339 0.06435 0.0
C695 C 0.5906 0.76074 0.06284 0.0
C696 C 0.59947 0.7324 0.05863 0.0
C697 C 0.57853 0.71836 0.05121 0.0
C698 C 0.56379 0.72577 0.04939 0.0
C699 C 0.56979 0.74681 0.05509 0.0
C700 C 0.5717 0.69561 0.0462 0.0
C701 C 0.55389 0.67937 0.05258 0.0
C702 C 0.58344 0.68993 0.03614 0.0
C703 C 0.60164 0.70627 0.02833 0.0
C704 C 0.59881 0.7206 0.01932 0.0
C705 C 0.61603 0.73602 0.01204 0.0
C706 C 0.63614 0.73718 0.0136 0.0
C707 C 0.63905 0.72289 0.02241 0.0
C708 C 0.62189 0.70745 0.02972 0.0
C709 C 0.52626 0.59318 0.0236 0.0
C710 C 0.54054 0.58563 0.02741 0.0
C711 C 0.53251 0.61475 0.02744 0.0
C712 C 0.55316 0.62919 0.03511 0.0
C713 C 0.56762 0.62183 0.03869 0.0
C714 C 0.56131 0.60019 0.03497 0.0
C715 C 0.55957 0.65195 0.03949 0.0
C716 C 0.57732 0.66815 0.03303 0.0
C717 C 0.54774 0.65762 0.04944 0.0
C718 C 0.52947 0.64133 0.05724 0.0
C719 C 0.53233 0.62738 0.06667 0.0
C720 C 0.51511 0.61228 0.07414 0.0
C721 C 0.495 0.61111 0.07237 0.0
C722 C 0.49205 0.62498 0.06309 0.0
C723 C 0.5092 0.64007 0.05557 0.0
H724 H 0.48173 0.59955 0.07825 0.0
H725 H 0.64945 0.74913 0.00795 0.0
H726 H 0.81537 0.27011 0.9405 0.0
H727 H 0.84595 0.3042 0.95268 0.0
H728 H 0.85592 0.27139 0.99019 0.0
H729 H 0.82457 0.23727 0.97826 0.0
H730 H 0.86332 0.30859 1.00199 0.0
H731 H 0.88769 0.2854 0.95884 0.0
H732 H 0.88683 0.27187 0.93148 0.0
H733 H 0.89146 0.32914 0.91509 0.0
H734 H 0.89201 0.34288 0.94234 0.0
H735 H 0.97932 0.40913 0.99588 0.0
H736 H 0.95185 0.37137 0.9881 0.0
H737 H 0.90283 0.38336 1.00498 0.0
H738 H 0.9302 0.42068 0.01326 0.0
H739 H 0.91886 0.35341 0.96767 0.0
H740 H 0.86229 0.34013 0.01742 0.0
H741 H 0.8657 0.35142 0.04575 0.0
H742 H 0.93087 0.36324 0.05092 0.0
H743 H 0.92776 0.35174 0.02268 0.0
C744 C 0.824 0.27026 0.95143 0.0
C745 C 0.8178 0.25115 0.95842 0.0
C746 C 0.84155 0.28969 0.95833 0.0
C747 C 0.85365 0.2903 0.97214 0.0
C748 C 0.84694 0.27131 0.97948 0.0
C749 C 0.82906 0.25187 0.9727 0.0
C750 C 0.87344 0.31074 0.97864 0.0
C751 C 0.87551 0.31836 0.99451 0.0
C752 C 0.88982 0.32317 0.96905 0.0
C753 C 0.88975 0.31511 0.95264 0.0
C754 C 0.8884 0.29506 0.9494 0.0
C755 C 0.88798 0.28735 0.93391 0.0
C756 C 0.88906 0.29962 0.92155 0.0
C757 C 0.89062 0.31965 0.92467 0.0
C758 C 0.89101 0.32742 0.94014 0.0
C759 C 0.9627 0.40364 0.99803 0.0
C760 C 0.95696 0.41786 1.00527 0.0
C761 C 0.94701 0.38206 0.99357 0.0
C762 C 0.92527 0.37436 0.99617 0.0
C763 C 0.91954 0.38867 1.00323 0.0
C764 C 0.93523 0.4101 0.00788 0.0
C765 C 0.90834 0.35168 0.99088 0.0
C766 C 0.90682 0.34359 0.97522 0.0
C767 C 0.89292 0.33851 1.00083 0.0
C768 C 0.89483 0.34522 0.01789 0.0
C769 C 0.87731 0.34503 0.02461 0.0
C770 C 0.8792 0.35149 0.04066 0.0
C771 C 0.8985 0.3581 0.05012 0.0
C772 C 0.91594 0.35819 0.04357 0.0
C773 C 0.91413 0.35173 0.02754 0.0
H774 H 0.89994 0.36311 0.06253 0.0
H775 H 0.88872 0.29362 0.90957 0.0
H776 H 0.74491 0.55707 0.97156 0.0
H777 H 0.71291 0.55259 0.98355 0.0
H778 H 0.67587 0.53127 0.9379 0.0
H779 H 0.70736 0.5348 0.92589 0.0
H780 H 0.67243 0.56405 0.95535 0.0
H781 H 0.66717 0.49543 0.96216 0.0
H782 H 0.68073 0.47198 0.97123 0.0
H783 H 0.68907 0.49908 0.019 0.0
H784 H 0.67585 0.52294 0.01017 0.0
H785 H 0.5664 0.52706 0.97571 0.0
H786 H 0.59891 0.53084 0.96516 0.0
H787 H 0.62795 0.53695 0.01237 0.0
H788 H 0.59503 0.53215 0.02291 0.0
H789 H 0.63686 0.51313 0.99493 0.0
H790 H 0.64262 0.58139 0.98952 0.0
H791 H 0.63073 0.60658 0.98155 0.0
H792 H 0.62384 0.58314 0.93295 0.0
H793 H 0.63544 0.55762 0.94065 0.0
C794 C 0.72988 0.55106 0.96408 0.0
C795 C 0.72886 0.54645 0.9477 0.0
C796 C 0.71164 0.54864 0.97096 0.0
C797 C 0.69205 0.54168 0.9616 0.0
C798 C 0.69088 0.53685 0.94532 0.0
C799 C 0.70899 0.53901 0.93847 0.0
C800 C 0.67279 0.53974 0.96865 0.0
C801 C 0.66447 0.55277 0.96389 0.0
C802 C 0.6629 0.52553 0.98016 0.0
C803 C 0.67074 0.51113 0.98548 0.0
C804 C 0.67208 0.49653 0.97458 0.0
C805 C 0.67966 0.48313 0.97968 0.0
C806 C 0.68581 0.48408 0.99568 0.0
C807 C 0.68433 0.49839 0.00661 0.0
C808 C 0.67678 0.51184 1.00157 0.0
C809 C 0.57975 0.5293 0.98385 0.0
C810 C 0.57817 0.52941 1.00016 0.0
C811 C 0.59841 0.53157 0.97781 0.0
C812 C 0.61617 0.53461 0.98796 0.0
C813 C 0.61455 0.53465 1.00426 0.0
C814 C 0.59572 0.53197 0.01029 0.0
C815 C 0.63625 0.53738 0.98158 0.0
C816 C 0.64478 0.52453 0.98646 0.0
C817 C 0.6466 0.55206 0.97037 0.0
C818 C 0.63972 0.56746 0.96568 0.0
C819 C 0.63844 0.58152 0.97714 0.0
C820 C 0.63177 0.59587 0.97267 0.0
C821 C 0.62648 0.59643 0.95676 0.0
C822 C 0.62792 0.58268 0.94528 0.0
C823 C 0.63457 0.56828 0.94968 0.0
H824 H 0.62132 0.60754 0.95332 0.0
H825 H 0.69168 0.4737 0.99961 0.0
H826 H 0.44297 0.19323 0.99348 0.0
H827 H 0.45216 0.16756 1.00396 0.0
H828 H 0.3999 0.116 0.97289 0.0
H829 H 0.38993 0.14132 0.96297 0.0
H830 H 0.40286 0.10201 1.00019 0.0
H831 H 0.45269 0.14202 0.96331 0.0
H832 H 0.47975 0.17475 0.95258 0.0
H833 H 0.52232 0.19246 0.99528 0.0
H834 H 0.49536 0.15995 0.00636 0.0
H835 H 0.44021 0.02752 0.99186 0.0
H836 H 0.42883 0.05382 0.9874 0.0
H837 H 0.47945 0.09955 0.02253 0.0
H838 H 0.49106 0.07343 0.02704 0.0
H839 H 0.47784 0.11734 0.99544 0.0
H840 H 0.42806 0.07438 0.03104 0.0
H841 H 0.40092 0.04046 0.04042 0.0
H842 H 0.35798 0.02703 0.99859 0.0
H843 H 0.385 0.06074 0.98885 0.0
C844 C 0.43313 0.17636 0.98913 0.0
C845 C 0.4159 0.16938 0.97722 0.0
C846 C 0.43854 0.16173 0.99502 0.0
C847 C 0.42701 0.13993 0.98896 0.0
C848 C 0.40913 0.13276 0.97767 0.0
C849 C 0.40359 0.14731 0.97189 0.0
C850 C 0.43423 0.12477 0.99364 0.0
C851 C 0.41921 0.1053 0.99906 0.0
C852 C 0.45566 0.12918 0.99239 0.0
C853 C 0.47192 0.14869 0.98573 0.0
C854 C 0.46776 0.15298 0.97046 0.0
C855 C 0.48308 0.17148 0.9643 0.0
C856 C 0.50271 0.18571 0.97326 0.0
C857 C 0.50709 0.18144 0.98837 0.0
C858 C 0.4918 0.16298 0.99459 0.0
C859 C 0.44892 0.04315 0.99868 0.0
C860 C 0.46653 0.04836 0.00983 0.0
C861 C 0.44231 0.05811 0.99616 0.0
C862 C 0.45316 0.07853 1.00476 0.0
C863 C 0.47082 0.08384 0.01581 0.0
C864 C 0.4774 0.06887 0.01838 0.0
C865 C 0.44645 0.09457 1.00188 0.0
C866 C 0.46156 0.11417 0.99675 0.0
C867 C 0.42506 0.09015 1.00324 0.0
C868 C 0.40864 0.07002 0.00916 0.0
C869 C 0.41289 0.06413 0.02379 0.0
C870 C 0.39751 0.04495 0.02918 0.0
C871 C 0.37775 0.03158 0.02009 0.0
C872 C 0.3733 0.0374 1.00562 0.0
C873 C 0.38862 0.05656 1.00017 0.0
H874 H 0.36588 0.01674 0.02428 0.0
H875 H 0.51456 0.20003 0.96847 0.0
H876 H 0.68472 0.14652 0.93373 0.0
H877 H 0.65183 0.12508 0.9463 0.0
H878 H 0.68955 0.1445 0.99171 0.0
H879 H 0.72263 0.16595 0.97913 0.0
H880 H 0.65954 0.10099 0.98744 0.0
H881 H 0.66047 0.16714 0.98155 0.0
H882 H 0.66289 0.19699 0.96737 0.0
H883 H 0.60575 0.15263 0.93685 0.0
H884 H 0.60315 0.12245 0.9507 0.0
H885 H 0.56424 0.05656 0.02762 0.0
H886 H 0.59943 0.08177 0.01918 0.0
H887 H 0.5696 0.07167 0.97167 0.0
H888 H 0.53445 0.04689 0.98 0.0
H889 H 0.59727 0.11307 0.97963 0.0
H890 H 0.59823 0.04696 0.98291 0.0
H891 H 0.59532 0.01617 0.99608 0.0
H892 H 0.64809 0.05945 0.03044 0.0
H893 H 0.65111 0.09053 0.01759 0.0
C894 C 0.68599 0.14622 0.94639 0.0
C895 C 0.70616 0.15798 0.95546 0.0
C896 C 0.6672 0.13403 0.95357 0.0
C897 C 0.66821 0.13343 0.96997 0.0
C898 C 0.68842 0.14484 0.97905 0.0
C899 C 0.70727 0.15713 0.97186 0.0
C900 C 0.64808 0.12079 0.97751 0.0
C901 C 0.64605 0.10386 0.98599 0.0
C902 C 0.63035 0.12429 0.97533 0.0
C903 C 0.63178 0.14247 0.96705 0.0
C904 C 0.64853 0.16371 0.97172 0.0
C905 C 0.64992 0.1807 0.96376 0.0
C906 C 0.63454 0.1767 0.95117 0.0
C907 C 0.6177 0.15569 0.94656 0.0
C908 C 0.61626 0.13864 0.95447 0.0
C909 C 0.56516 0.05977 0.01539 0.0
C910 C 0.54651 0.04965 1.00449 0.0
C911 C 0.58531 0.07412 0.01057 0.0
C912 C 0.5872 0.07843 0.99475 0.0
C913 C 0.56854 0.06862 0.98393 0.0
C914 C 0.54843 0.05439 0.98873 0.0
C915 C 0.60854 0.093 0.9893 0.0
C916 C 0.61083 0.11032 0.98123 0.0
C917 C 0.62641 0.08974 0.99173 0.0
C918 C 0.62473 0.07107 0.9994 0.0
C919 C 0.6091 0.04992 0.99335 0.0
C920 C 0.60745 0.03242 1.00074 0.0
C921 C 0.62147 0.03586 0.01412 0.0
C922 C 0.63721 0.05681 0.0201 0.0
C923 C 0.63891 0.07438 0.01276 0.0
H924 H 0.62016 0.02229 0.01983 0.0
H925 H 0.63564 0.18988 0.94503 0.0
H926 H 0.85811 0.56198 0.93572 0.0
H927 H 0.88219 0.54957 0.9461 0.0
H928 H 0.83685 0.51459 0.97895 0.0
H929 H 0.81246 0.52678 0.96843 0.0
H930 H 0.88182 0.5411 0.99222 0.0
H931 H 0.83897 0.48616 0.94886 0.0
H932 H 0.82324 0.47382 0.92117 0.0
H933 H 0.8869 0.5058 0.90587 0.0
H934 H 0.903 0.51832 0.93347 0.0
H935 H 0.93595 0.48784 0.01939 0.0
H936 H 0.90876 0.49634 0.00915 0.0
H937 H 0.9409 0.51514 0.96695 0.0
H938 H 0.96734 0.50534 0.97678 0.0
H939 H 0.90109 0.49591 0.95857 0.0
H940 H 0.9451 0.55242 0.99915 0.0
H941 H 0.96379 0.56889 0.02572 0.0
H942 H 0.90273 0.54029 0.04508 0.0
H943 H 0.88368 0.5234 0.01864 0.0
C944 C 0.85325 0.55159 0.94513 0.0
C945 C 0.83342 0.5453 0.95123 0.0
C946 C 0.86698 0.54448 0.95102 0.0
C947 C 0.86123 0.53105 0.96321 0.0
C948 C 0.84153 0.52491 0.9695 0.0
C949 C 0.82761 0.53183 0.96346 0.0
C950 C 0.87602 0.52371 0.96945 0.0
C951 C 0.88578 0.5309 0.98499 0.0
C952 C 0.88183 0.51117 0.95978 0.0
C953 C 0.87217 0.50328 0.94321 0.0
C954 C 0.8496 0.49061 0.93958 0.0
C955 C 0.84063 0.48353 0.92391 0.0
C956 C 0.85406 0.48899 0.91177 0.0
C957 C 0.87651 0.50148 0.91528 0.0
C958 C 0.88558 0.50853 0.93094 0.0
C959 C 0.93717 0.49375 0.00791 0.0
C960 C 0.95384 0.49606 0.99893 0.0
C961 C 0.92169 0.49876 1.0021 0.0
C962 C 0.92297 0.50692 0.9874 0.0
C963 C 0.93949 0.50893 0.97832 0.0
C964 C 0.95465 0.50338 0.98396 0.0
C965 C 0.90711 0.5133 0.98147 0.0
C966 C 0.89713 0.50599 0.96593 0.0
C967 C 0.9016 0.5263 0.99102 0.0
C968 C 0.91298 0.53646 0.00694 0.0
C969 C 0.93567 0.54951 0.00909 0.0
C970 C 0.94633 0.55895 0.02412 0.0
C971 C 0.93446 0.55559 0.03708 0.0
C972 C 0.9119 0.54284 0.03503 0.0
C973 C 0.90116 0.53335 0.02002 0.0
H974 H 0.94274 0.56291 0.04871 0.0
H975 H 0.84708 0.48354 0.89964 0.0
H976 H 0.39518 0.27791 0.96221 0.0
H977 H 0.4137 0.31681 0.9698 0.0
H978 H 0.45037 0.30997 0.00874 0.0
H979 H 0.43217 0.27102 1.00101 0.0
H980 H 0.43076 0.33787 0.0151 0.0
H981 H 0.47621 0.32699 0.98052 0.0
H982 H 0.48307 0.31246 0.95609 0.0
H983 H 0.46034 0.34689 0.92879 0.0
H984 H 0.45302 0.36135 0.95307 0.0
H985 H 0.50501 0.4497 0.03229 0.0
H986 H 0.4889 0.41068 0.02724 0.0
H987 H 0.4659 0.41284 0.97985 0.0
H988 H 0.48288 0.45192 0.9846 0.0
H989 H 0.47983 0.3865 0.97879 0.0
H990 H 0.43252 0.39621 0.01131 0.0
H991 H 0.42284 0.41012 0.03463 0.0
H992 H 0.44529 0.37766 0.06442 0.0
H993 H 0.45538 0.36379 0.04129 0.0
C994 C 0.40708 0.2847 0.97246 0.0
C995 C 0.41235 0.27156 0.98098 0.0
C996 C 0.41764 0.30686 0.97675 0.0
C997 C 0.43344 0.31617 0.98976 0.0
C998 C 0.43821 0.303 0.99866 0.0
C999 C 0.42787 0.28082 0.99421 0.0
C1000 C 0.44546 0.33979 0.99362 0.0
C1001 C 0.44178 0.34858 0.00734 0.0
C1002 C 0.45928 0.3536 0.98319 0.0
C1003 C 0.46388 0.34509 0.9686 0.0
C1004 C 0.4725 0.33131 0.9693 0.0
C1005 C 0.4765 0.32312 0.95548 0.0
C1006 C 0.47209 0.3287 0.94089 0.0
C1007 C 0.46372 0.34255 0.9401 0.0
C1008 C 0.45966 0.35077 0.95389 0.0
C1009 C 0.49655 0.44183 0.02078 0.0
C1010 C 0.49513 0.45383 0.00885 0.0
C1011 C 0.48724 0.41951 0.01794 0.0
C1012 C 0.4758 0.4087 1.00325 0.0
C1013 C 0.47462 0.42076 0.99128 0.0
C1014 C 0.48431 0.44311 0.99401 0.0
C1015 C 0.46505 0.38487 1.00028 0.0
C1016 C 0.46895 0.37594 0.98668 0.0
C1017 C 0.45108 0.37095 0.01068 0.0
C1018 C 0.44491 0.37915 0.02459 0.0
C1019 C 0.43553 0.39216 0.02285 0.0
C1020 C 0.42995 0.40002 0.03603 0.0
C1021 C 0.43351 0.39483 0.051 0.0
C1022 C 0.44258 0.3817 0.05282 0.0
C1023 C 0.44822 0.37382 0.03968 0.0
H1024 H 0.42918 0.40093 0.06119 0.0
H1025 H 0.4752 0.32234 0.9302 0.0
H1026 H 0.18316 0.7267 0.05112 0.0
H1027 H 0.15927 0.68887 0.0408 0.0
H1028 H 0.10939 0.68613 0.06808 0.0
H1029 H 0.13298 0.72396 0.07811 0.0
H1030 H 0.14168 0.65299 0.05467 0.0
H1031 H 0.06008 0.65263 0.04923 0.0
H1032 H 0.04666 0.67734 0.04329 0.0
H1033 H 0.10108 0.71321 0.01749 0.0
H1034 H 0.11466 0.68855 0.02309 0.0
H1035 H 0.05252 0.54747 0.05299 0.0
H1036 H 0.07809 0.58603 0.05885 0.0
H1037 H 0.0663 0.59591 0.01079 0.0
H1038 H 0.04059 0.55738 1.00482 0.0
H1039 H 0.06642 0.62591 0.03107 0.0
H1040 H 0.11217 0.59707 0.02224 0.0
H1041 H 0.12655 0.57253 0.02527 0.0
H1042 H 0.14599 0.5957 0.07431 0.0
H1043 H 0.13139 0.62017 0.07164 0.0
C1044 C 0.16705 0.71804 0.05482 0.0
C1045 C 0.15982 0.72825 0.06535 0.0
C1046 C 0.15345 0.69642 0.04897 0.0
C1047 C 0.13243 0.68471 0.05351 0.0
C1048 C 0.12535 0.69491 0.06415 0.0
C1049 C 0.13887 0.7165 0.06992 0.0
C1050 C 0.11794 0.66173 0.04741 0.0
C1051 C 0.12525 0.64709 0.04948 0.0
C1052 C 0.09664 0.65404 0.04029 0.0
C1053 C 0.08847 0.66883 0.03671 0.0
C1054 C 0.06913 0.66573 0.04223 0.0
C1055 C 0.0615 0.67974 0.03893 0.0
C1056 C 0.07304 0.69687 0.03006 0.0
C1057 C 0.0922 0.69998 0.02442 0.0
C1058 C 0.09988 0.68601 0.02767 0.0
C1059 C 0.05532 0.55783 0.04366 0.0
C1060 C 0.04452 0.54932 0.02843 0.0
C1061 C 0.07003 0.57986 0.04701 0.0
C1062 C 0.07425 0.59381 0.03521 0.0
C1063 C 0.0633 0.58542 0.02006 0.0
C1064 C 0.04864 0.56338 0.01667 0.0
C1065 C 0.08998 0.61717 0.03876 0.0
C1066 C 0.08289 0.63185 0.03621 0.0
C1067 C 0.11162 0.62494 0.04506 0.0
C1068 C 0.12051 0.61033 0.04676 0.0
C1069 C 0.11935 0.59682 0.03371 0.0
C1070 C 0.12755 0.58293 0.03535 0.0
C1071 C 0.13713 0.58253 0.04997 0.0
C1072 C 0.13854 0.59602 0.06299 0.0
C1073 C 0.13032 0.60992 0.06141 0.0
H1074 H 0.14353 0.57182 0.05118 0.0
H1075 H 0.06712 0.7077 0.02753 0.0
H1076 H 0.292 0.47023 0.06697 0.0
H1077 H 0.32641 0.48183 0.05574 0.0
H1078 H 0.34708 0.45629 0.09316 0.0
H1079 H 0.31275 0.44458 0.10435 0.0
H1080 H 0.37927 0.4967 0.08753 0.0
H1081 H 0.32934 0.42854 0.05809 0.0
H1082 H 0.29581 0.40243 0.0415 0.0
H1083 H 0.31264 0.44544 1.00538 0.0
H1084 H 0.34615 0.47195 0.02187 0.0
H1085 H 0.46872 0.49651 0.0575 0.0
H1086 H 0.4343 0.48626 0.06793 0.0
H1087 H 0.41185 0.50218 0.02549 0.0
H1088 H 0.44583 0.51105 0.01459 0.0
H1089 H 0.38038 0.46815 0.03355 0.0
H1090 H 0.43207 0.53585 0.06277 0.0
H1091 H 0.46632 0.56053 0.07915 0.0
H1092 H 0.44654 0.51862 0.11596 0.0
H1093 H 0.41241 0.49333 0.09963 0.0
C1094 C 0.30391 0.46714 0.07281 0.0
C1095 C 0.29972 0.45646 0.08652 0.0
C1096 C 0.32353 0.47373 0.06637 0.0
C1097 C 0.33929 0.46985 0.07359 0.0
C1098 C 0.3352 0.4595 0.08742 0.0
C1099 C 0.31557 0.45275 0.09375 0.0
C1100 C 0.35991 0.47618 0.06665 0.0
C1101 C 0.37956 0.49038 0.07576 0.0
C1102 C 0.36026 0.46822 0.05121 0.0
C1103 C 0.34011 0.45233 0.04129 0.0
C1104 C 0.32579 0.43252 0.04667 0.0
C1105 C 0.30681 0.41763 0.03727 0.0
C1106 C 0.30206 0.4223 0.02241 0.0
C1107 C 0.31632 0.44186 0.01691 0.0
C1108 C 0.33531 0.45682 0.02627 0.0
C1109 C 0.45643 0.49783 0.0504 0.0
C1110 C 0.45998 0.50473 0.03528 0.0
C1111 C 0.43677 0.4921 0.05642 0.0
C1112 C 0.42057 0.49398 0.04771 0.0
C1113 C 0.42406 0.50067 0.0325 0.0
C1114 C 0.44351 0.5058 0.02629 0.0
C1115 C 0.39994 0.48881 0.05438 0.0
C1116 C 0.38022 0.47475 0.04525 0.0
C1117 C 0.39956 0.49698 0.06982 0.0
C1118 C 0.41971 0.51261 0.07991 0.0
C1119 C 0.43503 0.53186 0.07434 0.0
C1120 C 0.45445 0.54594 0.08361 0.0
C1121 C 0.45861 0.54115 0.09858 0.0
C1122 C 0.44331 0.52229 0.10435 0.0
C1123 C 0.42393 0.50807 0.09508 0.0
H1124 H 0.47368 0.55206 0.10573 0.0
H1125 H 0.28737 0.41075 0.01515 0.0
H1126 H 0.55861 0.83558 0.05102 0.0
H1127 H 0.54123 0.85603 0.04336 0.0
H1128 H 0.60137 0.91545 0.0568 0.0
H1129 H 0.61863 0.895 0.06493 0.0
H1130 H 0.56991 0.91879 0.06741 0.0
H1131 H 0.58212 0.89537 0.01755 0.0
H1132 H 0.58047 0.8693 0.99667 0.0
H1133 H 0.51099 0.83645 0.99237 0.0
H1134 H 0.51223 0.86217 0.01338 0.0
H1135 H 0.52576 0.96654 1.00564 0.0
H1136 H 0.54255 0.94513 0.01188 0.0
H1137 H 0.50976 0.92858 0.05394 0.0
H1138 H 0.4935 0.9506 0.04806 0.0
H1139 H 0.52874 0.90477 0.01503 0.0
H1140 H 0.54099 0.92436 0.08279 0.0
H1141 H 0.54587 0.95339 0.10242 0.0
H1142 H 0.57314 -0.00061 0.06876 0.0
H1143 H 0.56868 0.9707 0.04901 0.0
C1144 C 0.56815 0.85299 0.05225 0.0
C1145 C 0.59001 0.86377 0.05849 0.0
C1146 C 0.55822 0.86467 0.04782 0.0
C1147 C 0.57005 0.88729 0.04934 0.0
C1148 C 0.59191 0.89802 0.05553 0.0
C1149 C 0.60178 0.88635 0.0601 0.0
C1150 C 0.55955 0.89982 0.04483 0.0
C1151 C 0.56092 0.91571 0.05595 0.0
C1152 C 0.54808 0.89606 0.0298 0.0
C1153 C 0.54727 0.88058 0.01714 0.0
C1154 C 0.56649 0.88249 0.01223 0.0
C1155 C 0.56563 0.86779 1.00036 0.0
C1156 C 0.54564 0.8512 0.99322 0.0
C1157 C 0.52646 0.8493 0.99792 0.0
C1158 C 0.52723 0.86394 0.0098 0.0
C1159 C 0.52204 0.95827 0.01619 0.0
C1160 C 0.50846 0.96041 0.02644 0.0
C1161 C 0.53162 0.94599 0.01972 0.0
C1162 C 0.52769 0.9355 0.03349 0.0
C1163 C 0.51342 0.93691 0.04342 0.0
C1164 C 0.50408 0.94944 0.04002 0.0
C1165 C 0.53898 0.92359 0.03766 0.0
C1166 C 0.53771 0.9078 0.02649 0.0
C1167 C 0.55108 0.92786 0.05249 0.0
C1168 C 0.5543 0.94533 0.06439 0.0
C1169 C 0.54813 0.94069 0.07962 0.0
C1170 C 0.5508 0.95708 0.09075 0.0
C1171 C 0.55974 0.97821 0.08682 0.0
C1172 C 0.56614 0.98301 0.07177 0.0
C1173 C 0.56353 0.96669 0.0606 0.0
H1174 H 0.56175 0.99086 0.09544 0.0
H1175 H 0.545 0.83984 0.98403 0.0
H1176 H 0.93786 0.13893 0.39347 0.0
H1177 H 0.9702 0.16447 0.38209 0.0
H1178 H 0.96565 0.21728 0.40429 0.0
H1179 H 0.93248 0.1918 0.41489 0.0
H1180 H 0.97798 0.22611 0.37635 0.0
H1181 H 0.00048 0.20079 0.42027 0.0
H1182 H 0.00126 0.17373 0.43629 0.0
H1183 H 0.0233 0.15076 0.39818 0.0
H1184 H 0.02237 0.17751 0.38184 0.0
H1185 H 0.08879 0.30835 0.37895 0.0
H1186 H 0.05353 0.28136 0.38617 0.0
H1187 H 0.05526 0.23247 0.35566 0.0
H1188 H 0.09046 0.25939 0.34822 0.0
H1189 H 0.04427 0.22111 0.38658 0.0
H1190 H 0.02351 0.24944 0.34346 0.0
H1191 H 0.02389 0.27823 0.32897 0.0
H1192 H 0.9999 0.29765 0.36773 0.0
H1193 H 0.99969 0.26916 0.38256 0.0
C1194 C 0.94341 0.15594 0.39567 0.0
C1195 C 0.9326 0.16327 0.40523 0.0
C1196 C 0.96212 0.17056 0.38931 0.0
C1197 C 0.97065 0.19283 0.39262 0.0
C1198 C 0.95948 0.20019 0.40167 0.0
C1199 C 0.94062 0.18558 0.40787 0.0
C1200 C 0.99156 0.20847 0.38708 0.0
C1201 C 0.9925 0.22511 0.37873 0.0
C1202 C 0.0105 0.20706 0.38998 0.0
C1203 C 0.01113 0.19099 0.39978 0.0
C1204 C 0.00534 0.18986 0.41526 0.0
C1205 C 0.00583 0.17459 0.42441 0.0
C1206 C 0.01226 0.16049 0.41824 0.0
C1207 C 0.01828 0.16167 0.40293 0.0
C1208 C 0.01779 0.17689 0.39373 0.0
C1209 C 0.08168 0.29187 0.37374 0.0
C1210 C 0.0924 0.28601 0.36299 0.0
C1211 C 0.0615 0.2765 0.37784 0.0
C1212 C 0.05179 0.25499 0.37136 0.0
C1213 C 0.06251 0.24903 0.36074 0.0
C1214 C 0.08257 0.26444 0.35648 0.0
C1215 C 0.03061 0.23866 0.37594 0.0
C1216 C 0.02967 0.22195 0.38413 0.0
C1217 C 0.0118 0.24023 0.37312 0.0
C1218 C 0.01178 0.25729 0.36418 0.0
C1219 C 0.01849 0.25996 0.34895 0.0
C1220 C 0.01864 0.2762 0.34066 0.0
C1221 C 0.01197 0.28979 0.34744 0.0
C1222 C 0.00508 0.28713 0.3625 0.0
C1223 C 0.00493 0.27092 0.37085 0.0
H1224 H 0.0121 0.30236 0.341 0.0
H1225 H 0.01264 0.14869 0.42534 0.0
H1226 H 0.85784 0.80443 0.44137 0.0
H1227 H 0.82748 0.80682 0.42908 0.0
H1228 H 0.83639 0.78414 0.3839 0.0
H1229 H 0.86673 0.78139 0.3962 0.0
H1230 H 0.82689 0.81785 0.38267 0.0
H1231 H 0.79888 0.74931 0.40357 0.0
H1232 H 0.7949 0.72558 0.42432 0.0
H1233 H 0.76881 0.75647 0.45285 0.0
H1234 H 0.77298 0.78064 0.43236 0.0
H1235 H 0.72581 0.79317 0.34477 0.0
H1236 H 0.75597 0.78912 0.35529 0.0
H1237 H 0.74438 0.80178 0.40263 0.0
H1238 H 0.71352 0.80485 0.39214 0.0
H1239 H 0.75553 0.77239 0.40214 0.0
H1240 H 0.78233 0.84034 0.38147 0.0
H1241 H 0.78507 0.8636 0.36075 0.0
H1242 H 0.815 0.83633 0.33279 0.0
H1243 H 0.81116 0.81183 0.35294 0.0
C1244 C 0.8534 0.80001 0.4288 0.0
C1245 C 0.86448 0.7924 0.41979 0.0
C1246 C 0.83609 0.80144 0.4218 0.0
C1247 C 0.82946 0.79529 0.40564 0.0
C1248 C 0.84122 0.78887 0.39641 0.0
C1249 C 0.85858 0.78738 0.40344 0.0
C1250 C 0.80958 0.79455 0.39864 0.0
C1251 C 0.81121 0.80771 0.38673 0.0
C1252 C 0.78926 0.78167 0.40425 0.0
C1253 C 0.78642 0.76691 0.41648 0.0
C1254 C 0.79243 0.75115 0.41431 0.0
C1255 C 0.79013 0.73761 0.42603 0.0
C1256 C 0.78166 0.73955 0.43991 0.0
C1257 C 0.7754 0.755 0.4421 0.0
C1258 C 0.77771 0.76861 0.43043 0.0
C1259 C 0.72958 0.79489 0.35742 0.0
C1260 C 0.71745 0.79952 0.36763 0.0
C1261 C 0.74687 0.79264 0.36343 0.0
C1262 C 0.75283 0.79567 0.37975 0.0
C1263 C 0.74018 0.79947 0.38999 0.0
C1264 C 0.72257 0.80125 0.38399 0.0
C1265 C 0.77273 0.79578 0.38613 0.0
C1266 C 0.77114 0.78252 0.39798 0.0
C1267 C 0.79313 0.80875 0.38054 0.0
C1268 C 0.79623 0.82405 0.36867 0.0
C1269 C 0.78935 0.83915 0.37086 0.0
C1270 C 0.79108 0.85256 0.35919 0.0
C1271 C 0.80038 0.8516 0.3455 0.0
C1272 C 0.80781 0.83707 0.3434 0.0
C1273 C 0.80572 0.8233 0.3549 0.0
H1274 H 0.80178 0.86208 0.33652 0.0
H1275 H 0.7799 0.72906 0.44897 0.0
H1276 H 0.2279 0.07203 0.42279 0.0
H1277 H 0.22073 0.0362 0.41334 0.0
H1278 H 0.25636 0.06171 0.37356 0.0
H1279 H 0.26406 0.09787 0.38314 0.0
H1280 H 0.21697 0.02229 0.36589 0.0
H1281 H 0.28075 0.05246 0.40272 0.0
H1282 H 0.30265 0.07064 0.42809 0.0
H1283 H 0.257 0.01884 0.45218 0.0
H1284 H 0.23463 0.0005 0.42696 0.0
H1285 H 0.22297 0.92891 0.3444 0.0
H1286 H 0.23265 0.96612 0.35191 0.0
H1287 H 0.20602 0.94826 0.39616 0.0
H1288 H 0.19681 0.9111 0.38891 0.0
H1289 H 0.24289 0.98509 0.40069 0.0
H1290 H 0.17814 0.95572 0.36472 0.0
H1291 H 0.15507 0.9375 0.33975 0.0
H1292 H 0.20113 0.98736 0.31449 0.0
H1293 H 0.22463 0.00573 0.3393 0.0
C1294 C 0.23433 0.07008 0.41207 0.0
C1295 C 0.2468 0.08785 0.40382 0.0
C1296 C 0.23014 0.04959 0.40666 0.0
C1297 C 0.23829 0.04642 0.39289 0.0
C1298 C 0.25 0.0639 0.38425 0.0
C1299 C 0.2543 0.0845 0.3897 0.0
C1300 C 0.23496 0.02489 0.38784 0.0
C1301 C 0.22292 0.01424 0.37335 0.0
C1302 C 0.24236 0.01433 0.39779 0.0
C1303 C 0.25592 0.02519 0.41296 0.0
C1304 C 0.2753 0.04501 0.41344 0.0
C1305 C 0.28781 0.05534 0.42779 0.0
C1306 C 0.2812 0.04592 0.44174 0.0
C1307 C 0.26209 0.02613 0.44136 0.0
C1308 C 0.2495 0.01575 0.42704 0.0
C1309 C 0.21921 0.9329 0.35575 0.0
C1310 C 0.20901 0.91704 0.36603 0.0
C1311 C 0.22468 0.95417 0.36 0.0
C1312 C 0.21973 0.9599 0.37448 0.0
C1313 C 0.20995 0.94418 0.3849 0.0
C1314 C 0.20466 0.92295 0.38073 0.0
C1315 C 0.22463 0.98225 0.37878 0.0
C1316 C 0.23702 0.99311 0.39315 0.0
C1317 C 0.21741 0.99294 0.36876 0.0
C1318 C 0.20324 0.98198 0.35384 0.0
C1319 C 0.18342 0.96271 0.35383 0.0
C1320 C 0.17026 0.95237 0.33971 0.0
C1321 C 0.17665 0.96123 0.32554 0.0
C1322 C 0.19621 0.98049 0.32547 0.0
C1323 C 0.20945 0.99089 0.33956 0.0
H1324 H 0.16644 0.9532 0.31462 0.0
H1325 H 0.29091 0.05395 0.45285 0.0
H1326 H 0.46568 0.58766 0.30579 0.0
H1327 H 0.49451 0.62272 0.31805 0.0
H1328 H 0.54241 0.60899 0.30127 0.0
H1329 H 0.51371 0.57347 0.28963 0.0
H1330 H 0.55636 0.63058 0.32977 0.0
H1331 H 0.52532 0.63835 0.28092 0.0
H1332 H 0.49592 0.63421 0.2618 0.0
H1333 H 0.48063 0.67071 0.29483 0.0
H1334 H 0.50977 0.6748 0.31425 0.0
H1335 H 0.64256 0.73894 0.32783 0.0
H1336 H 0.61383 0.70144 0.32096 0.0
H1337 H 0.56849 0.71526 0.34234 0.0
H1338 H 0.59701 0.75266 0.34928 0.0
H1339 H 0.55311 0.69363 0.31247 0.0
H1340 H 0.58654 0.68731 0.36083 0.0
H1341 H 0.61694 0.69175 0.379 0.0
H1342 H 0.62906 0.65303 0.34563 0.0
H1343 H 0.59891 0.64861 0.32715 0.0
C1344 C 0.48235 0.59186 0.30503 0.0
C1345 C 0.48738 0.57786 0.29656 0.0
C1346 C 0.49882 0.61201 0.31191 0.0
C1347 C 0.5206 0.61866 0.31027 0.0
C1348 C 0.52572 0.60427 0.30258 0.0
C1349 C 0.50928 0.58406 0.2958 0.0
C1350 C 0.53795 0.64103 0.3157 0.0
C1351 C 0.55575 0.64436 0.32589 0.0
C1352 C 0.53704 0.65903 0.31077 0.0
C1353 C 0.51957 0.65668 0.29909 0.0
C1354 C 0.51558 0.64535 0.28415 0.0
C1355 C 0.49898 0.64304 0.27326 0.0
C1356 C 0.48638 0.65214 0.27712 0.0
C1357 C 0.49039 0.66363 0.29187 0.0
C1358 C 0.50695 0.66596 0.30282 0.0
C1359 C 0.6265 0.73397 0.33113 0.0
C1360 C 0.62207 0.74878 0.33909 0.0
C1361 C 0.61014 0.71254 0.32726 0.0
C1362 C 0.58909 0.70559 0.33124 0.0
C1363 C 0.58464 0.72031 0.3392 0.0
C1364 C 0.60099 0.74167 0.34318 0.0
C1365 C 0.57145 0.68317 0.32657 0.0
C1366 C 0.55364 0.67984 0.31645 0.0
C1367 C 0.5725 0.66523 0.33143 0.0
C1368 C 0.5906 0.66781 0.34254 0.0
C1369 C 0.59581 0.6799 0.35731 0.0
C1370 C 0.61297 0.68238 0.36767 0.0
C1371 C 0.62496 0.67273 0.36345 0.0
C1372 C 0.61978 0.66052 0.34887 0.0
C1373 C 0.60264 0.65801 0.33845 0.0
H1374 H 0.63825 0.67466 0.3715 0.0
H1375 H 0.47353 0.65033 0.26866 0.0
H1376 H 0.41729 0.89799 0.3084 0.0
H1377 H 0.3848 0.89256 0.32014 0.0
H1378 H 0.34685 0.86416 0.27512 0.0
H1379 H 0.37923 0.8697 0.26334 0.0
H1380 H 0.33776 0.89254 0.28784 0.0
H1381 H 0.3439 0.8336 0.30572 0.0
H1382 H 0.36212 0.81631 0.31872 0.0
H1383 H 0.37062 0.85328 0.36258 0.0
H1384 H 0.3527 0.87102 0.34978 0.0
H1385 H 0.23262 0.84762 0.31146 0.0
H1386 H 0.26588 0.85244 0.30175 0.0
H1387 H 0.3007 0.88209 0.34756 0.0
H1388 H 0.26727 0.87691 0.35752 0.0
H1389 H 0.31217 0.85434 0.33532 0.0
H1390 H 0.30514 0.91275 0.31707 0.0
H1391 H 0.28589 0.9289 0.30383 0.0
H1392 H 0.27827 0.89174 0.26028 0.0
H1393 H 0.2973 0.8752 0.2733 0.0
C1394 C 0.40195 0.89033 0.30107 0.0
C1395 C 0.40083 0.88433 0.28493 0.0
C1396 C 0.3834 0.88724 0.30779 0.0
C1397 C 0.36332 0.87785 0.29853 0.0
C1398 C 0.36215 0.87155 0.28248 0.0
C1399 C 0.38067 0.87473 0.27576 0.0
C1400 C 0.34362 0.87518 0.30537 0.0
C1401 C 0.33205 0.88396 0.29812 0.0
C1402 C 0.33641 0.86446 0.31902 0.0
C1403 C 0.34716 0.8538 0.32675 0.0
C1404 C 0.34981 0.83817 0.3181 0.0
C1405 C 0.36005 0.82827 0.32545 0.0
C1406 C 0.36758 0.83374 0.34146 0.0
C1407 C 0.36482 0.84909 0.35017 0.0
C1408 C 0.35461 0.85906 0.34288 0.0
C1409 C 0.24732 0.8552 0.31951 0.0
C1410 C 0.24727 0.862 0.33527 0.0
C1411 C 0.26637 0.858 0.31391 0.0
C1412 C 0.28588 0.86793 0.32385 0.0
C1413 C 0.28585 0.87445 0.33966 0.0
C1414 C 0.26673 0.87154 0.34532 0.0
C1415 C 0.30626 0.87153 0.31769 0.0
C1416 C 0.31797 0.86299 0.32509 0.0
C1417 C 0.31357 0.88239 0.30413 0.0
C1418 C 0.30251 0.89263 0.29619 0.0
C1419 C 0.29928 0.90796 0.30468 0.0
C1420 C 0.28842 0.91719 0.29722 0.0
C1421 C 0.28083 0.91132 0.28123 0.0
C1422 C 0.28416 0.89627 0.27266 0.0
C1423 C 0.29502 0.88699 0.28007 0.0
H1424 H 0.27239 0.91846 0.27547 0.0
H1425 H 0.3755 0.82605 0.34712 0.0
H1426 H 0.0584 0.47342 0.29837 0.0
H1427 H 0.06822 0.44793 0.30836 0.0
H1428 H 0.12885 0.50081 0.33054 0.0
H1429 H 0.11922 0.52644 0.32036 0.0
H1430 H 0.13393 0.47112 0.3125 0.0
H1431 H 0.09021 0.47065 0.35286 0.0
H1432 H 0.05763 0.46755 0.36346 0.0
H1433 H 0.01971 0.40265 0.34148 0.0
H1434 H 0.052 0.40547 0.33055 0.0
H1435 H 0.16457 0.40621 0.35447 0.0
H1436 H 0.15423 0.43292 0.34855 0.0
H1437 H 0.09409 0.38283 0.32358 0.0
H1438 H 0.10436 0.35599 0.32932 0.0
H1439 H 0.08934 0.41187 0.34422 0.0
H1440 H 0.13201 0.41199 0.30352 0.0
H1441 H 0.16377 0.41463 0.29191 0.0
H1442 H 0.20277 0.47991 0.31291 0.0
H1443 H 0.17145 0.4774 0.3252 0.0
C1444 C 0.07375 0.47959 0.30549 0.0
C1445 C 0.08809 0.50188 0.30857 0.0
C1446 C 0.07927 0.46503 0.31127 0.0
C1447 C 0.09921 0.47251 0.32025 0.0
C1448 C 0.11336 0.49476 0.32366 0.0
C1449 C 0.10779 0.50935 0.31794 0.0
C1450 C 0.10579 0.45706 0.32521 0.0
C1451 C 0.12445 0.45842 0.31971 0.0
C1452 C 0.09295 0.44011 0.33417 0.0
C1453 C 0.0735 0.43834 0.34077 0.0
C1454 C 0.07489 0.45578 0.35017 0.0
C1455 C 0.05648 0.45406 0.35626 0.0
C1456 C 0.0366 0.43493 0.35311 0.0
C1457 C 0.03511 0.41747 0.3439 0.0
C1458 C 0.05347 0.4191 0.33776 0.0
C1459 C 0.14911 0.40086 0.34777 0.0
C1460 C 0.13529 0.37901 0.34232 0.0
C1461 C 0.14327 0.41614 0.34437 0.0
C1462 C 0.12346 0.40981 0.33559 0.0
C1463 C 0.10944 0.38798 0.33039 0.0
C1464 C 0.11539 0.37271 0.33361 0.0
C1465 C 0.11753 0.42603 0.33157 0.0
C1466 C 0.09896 0.42474 0.33717 0.0
C1467 C 0.13038 0.44298 0.32262 0.0
C1468 C 0.14941 0.44438 0.31552 0.0
C1469 C 0.14744 0.42679 0.30593 0.0
C1470 C 0.16538 0.42826 0.29921 0.0
C1471 C 0.18533 0.44736 0.30178 0.0
C1472 C 0.18737 0.46504 0.31106 0.0
C1473 C 0.16954 0.46359 0.31794 0.0
H1474 H 0.19916 0.4485 0.29649 0.0
H1475 H 0.02237 0.43364 0.35784 0.0
H1476 H 0.38991 0.48962 0.31193 0.0
H1477 H 0.35668 0.46704 0.32393 0.0
H1478 H 0.31843 0.46234 0.28125 0.0
H1479 H 0.35163 0.48474 0.26913 0.0
H1480 H 0.30424 0.47206 0.30936 0.0
H1481 H 0.32426 0.42155 0.2877 0.0
H1482 H 0.34893 0.40736 0.28417 0.0
H1483 H 0.35359 0.40158 0.33379 0.0
H1484 H 0.32917 0.41605 0.33764 0.0
H1485 H 0.20127 0.38305 0.31596 0.0
H1486 H 0.23648 0.40832 0.30784 0.0
H1487 H 0.26812 0.40413 0.35101 0.0
H1488 H 0.23284 0.37873 0.35928 0.0
H1489 H 0.28719 0.40041 0.32506 0.0
H1490 H 0.26609 0.44801 0.3472 0.0
H1491 H 0.24238 0.46299 0.35206 0.0
H1492 H 0.24102 0.47569 0.30368 0.0
H1493 H 0.26438 0.46035 0.29842 0.0
C1494 C 0.37442 0.48381 0.30512 0.0
C1495 C 0.37326 0.48891 0.2896 0.0
C1496 C 0.35548 0.47089 0.31197 0.0
C1497 C 0.33515 0.46302 0.30344 0.0
C1498 C 0.33399 0.46832 0.28802 0.0
C1499 C 0.35291 0.48102 0.28111 0.0
C1500 C 0.31503 0.44904 0.3105 0.0
C1501 C 0.30036 0.45629 0.31264 0.0
C1502 C 0.31044 0.42883 0.31529 0.0
C1503 C 0.3251 0.42012 0.31298 0.0
C1504 C 0.33071 0.41745 0.29788 0.0
C1505 C 0.34461 0.40931 0.29581 0.0
C1506 C 0.35288 0.40363 0.30875 0.0
C1507 C 0.34721 0.40603 0.32378 0.0
C1508 C 0.33333 0.41418 0.32591 0.0
C1509 C 0.21568 0.38753 0.32378 0.0
C1510 C 0.21425 0.37889 0.33829 0.0
C1511 C 0.23579 0.40205 0.31914 0.0
C1512 C 0.25487 0.4082 0.32888 0.0
C1513 C 0.25355 0.39959 0.34335 0.0
C1514 C 0.23339 0.38516 0.34807 0.0
C1515 C 0.27617 0.42326 0.32368 0.0
C1516 C 0.29108 0.41623 0.32189 0.0
C1517 C 0.2811 0.44379 0.31939 0.0
C1518 C 0.26684 0.45283 0.32238 0.0
C1519 C 0.26054 0.45376 0.33754 0.0
C1520 C 0.24719 0.46234 0.34038 0.0
C1521 C 0.24016 0.47023 0.32818 0.0
C1522 C 0.24645 0.46953 0.31311 0.0
C1523 C 0.25975 0.46089 0.31019 0.0
H1524 H 0.22994 0.47698 0.33046 0.0
H1525 H 0.36364 0.39733 0.30713 0.0
H1526 H 0.48531 0.86632 0.30506 0.0
H1527 H 0.50928 0.85323 0.31477 0.0
H1528 H 0.55266 0.8857 0.28016 0.0
H1529 H 0.52904 0.89911 0.27062 0.0
H1530 H 0.54251 0.84187 0.28249 0.0
H1531 H 0.56654 0.90868 0.31537 0.0
H1532 H 0.56126 0.93305 0.33368 0.0
H1533 H 0.53942 0.88592 0.36693 0.0
H1534 H 0.5443 0.86113 0.3487 0.0
H1535 H 0.63634 0.83886 0.30917 0.0
H1536 H 0.61013 0.84912 0.2997 0.0
H1537 H 0.57993 0.83274 0.34288 0.0
H1538 H 0.60699 0.82384 0.35274 0.0
H1539 H 0.58133 0.86676 0.33634 0.0
H1540 H 0.55767 0.80002 0.30518 0.0
H1541 H 0.56134 0.77406 0.28737 0.0
H1542 H 0.57948 0.81761 0.25159 0.0
H1543 H 0.57615 0.84395 0.26926 0.0
C1544 C 0.49993 0.87061 0.29952 0.0
C1545 C 0.5054 0.88375 0.2871 0.0
C1546 C 0.51359 0.86315 0.30507 0.0
C1547 C 0.53272 0.86853 0.29816 0.0
C1548 C 0.53795 0.88133 0.2856 0.0
C1549 C 0.52451 0.88903 0.28022 0.0
C1550 C 0.54764 0.86128 0.30419 0.0
C1551 C 0.55115 0.84738 0.29422 0.0
C1552 C 0.55838 0.86804 0.31963 0.0
C1553 C 0.55555 0.88297 0.3306 0.0
C1554 C 0.56043 0.90344 0.32652 0.0
C1555 C 0.55754 0.91734 0.3369 0.0
C1556 C 0.54994 0.91101 0.35144 0.0
C1557 C 0.54527 0.89078 0.35565 0.0
C1558 C 0.5481 0.87681 0.34531 0.0
C1559 C 0.62407 0.83744 0.3166 0.0
C1560 C 0.62368 0.83056 0.33167 0.0
C1561 C 0.60896 0.84315 0.31115 0.0
C1562 C 0.59266 0.84132 0.32042 0.0
C1563 C 0.59228 0.83434 0.33547 0.0
C1564 C 0.60774 0.82921 0.34109 0.0
C1565 C 0.57638 0.8472 0.31466 0.0
C1566 C 0.5726 0.86095 0.32466 0.0
C1567 C 0.56507 0.83994 0.29933 0.0
C1568 C 0.56682 0.82402 0.28859 0.0
C1569 C 0.56254 0.8041 0.29354 0.0
C1570 C 0.56455 0.78932 0.28347 0.0
C1571 C 0.57069 0.7942 0.26837 0.0
C1572 C 0.57474 0.81386 0.26329 0.0
C1573 C 0.57276 0.82871 0.27332 0.0
H1574 H 0.57226 0.78275 0.2606 0.0
H1575 H 0.54773 0.9218 0.35946 0.0
H1576 H 0.1137 0.60738 0.3261 0.0
H1577 H 0.13145 0.64643 0.33241 0.0
H1578 H 0.07892 0.64706 0.30525 0.0
H1579 H 0.06119 0.608 0.29878 0.0
H1580 H 0.11821 0.67804 0.29814 0.0
H1581 H 0.08325 0.65271 0.34504 0.0
H1582 H 0.07452 0.63195 0.36811 0.0
H1583 H 0.1417 0.66584 0.38622 0.0
H1584 H 0.15088 0.6866 0.36314 0.0
H1585 H 0.13841 0.78229 0.32315 0.0
H1586 H 0.12303 0.74357 0.31726 0.0
H1587 H 0.17565 0.74652 0.34695 0.0
H1588 H 0.19093 0.78526 0.3532 0.0
H1589 H 0.13803 0.71383 0.35281 0.0
H1590 H 0.1732 0.74009 0.3067 0.0
H1591 H 0.18242 0.76112 0.28378 0.0
H1592 H 0.11587 0.72569 0.26412 0.0
H1593 H 0.10619 0.70465 0.28704 0.0
C1594 C 0.10586 0.61582 0.32158 0.0
C1595 C 0.08605 0.60473 0.31197 0.0
C1596 C 0.116 0.63811 0.32521 0.0
C1597 C 0.10643 0.6496 0.31935 0.0
C1598 C 0.08657 0.63848 0.30987 0.0
C1599 C 0.07643 0.61621 0.30625 0.0
C1600 C 0.11734 0.67329 0.32279 0.0
C1601 C 0.12233 0.68588 0.31008 0.0
C1602 C 0.12328 0.68349 0.33838 0.0
C1603 C 0.11778 0.67104 0.35228 0.0
C1604 C 0.09619 0.6556 0.35388 0.0
C1605 C 0.09115 0.64386 0.36697 0.0
C1606 C 0.10755 0.64753 0.3786 0.0
C1607 C 0.12902 0.66299 0.37719 0.0
C1608 C 0.13414 0.67476 0.36411 0.0
C1609 C 0.14682 0.77476 0.32836 0.0
C1610 C 0.16591 0.78688 0.33864 0.0
C1611 C 0.13803 0.75262 0.32493 0.0
C1612 C 0.14832 0.7422 0.33153 0.0
C1613 C 0.16746 0.75426 0.34172 0.0
C1614 C 0.1762 0.7764 0.34524 0.0
C1615 C 0.13874 0.71861 0.32815 0.0
C1616 C 0.13402 0.70603 0.34086 0.0
C1617 C 0.13315 0.70842 0.31255 0.0
C1618 C 0.13894 0.72091 0.29866 0.0
C1619 C 0.1605 0.73688 0.29754 0.0
C1620 C 0.16582 0.74879 0.28454 0.0
C1621 C 0.14973 0.74478 0.27252 0.0
C1622 C 0.12831 0.7288 0.27345 0.0
C1623 C 0.12291 0.71686 0.28644 0.0
H1624 H 0.15388 0.75402 0.26247 0.0
H1625 H 0.10362 0.63843 0.38873 0.0
H1626 H 0.83951 0.06208 0.38254 0.0
H1627 H 0.81355 0.02586 0.36975 0.0
H1628 H 0.81295 -0.00059 0.41386 0.0
H1629 H 0.83878 0.0354 0.42662 0.0
H1630 H 0.81823 0.97695 0.38917 0.0
H1631 H 0.7717 0.00595 0.40072 0.0
H1632 H 0.75918 0.03219 0.39924 0.0
H1633 H 0.74815 0.01931 0.34882 0.0
H1634 H 0.76089 0.99318 0.34999 0.0
H1635 H 0.72532 0.87498 0.38396 0.0
H1636 H 0.75336 0.91259 0.39027 0.0
H1637 H 0.74228 0.92566 0.34304 0.0
H1638 H 0.71399 0.88786 0.33657 0.0
H1639 H 0.74467 0.95595 0.36509 0.0
H1640 H 0.78909 0.92624 0.35294 0.0
H1641 H 0.80372 0.90164 0.35333 0.0
H1642 H 0.81942 0.91626 0.40348 0.0
H1643 H 0.80504 0.94111 0.40336 0.0
C1644 C 0.83381 0.04852 0.38947 0.0
C1645 C 0.84116 0.05145 0.40555 0.0
C1646 C 0.81895 0.02789 0.38218 0.0
C1647 C 0.81131 0.00999 0.39088 0.0
C1648 C 0.81869 0.013 0.40692 0.0
C1649 C 0.83339 0.03354 0.4142 0.0
C1650 C 0.79588 0.98795 0.38341 0.0
C1651 C 0.80208 0.97232 0.384 0.0
C1652 C 0.77515 0.98213 0.37613 0.0
C1653 C 0.7675 0.99782 0.37543 0.0
C1654 C 0.7668 0.00886 0.38931 0.0
C1655 C 0.75962 0.02368 0.38853 0.0
C1656 C 0.75294 0.02747 0.37394 0.0
C1657 C 0.75337 0.01639 0.36011 0.0
C1658 C 0.76055 0.00157 0.36082 0.0
C1659 C 0.72883 0.88578 0.37486 0.0
C1660 C 0.71738 0.87839 0.35975 0.0
C1661 C 0.74499 0.90728 0.37847 0.0
C1662 C 0.75009 0.92187 0.36707 0.0
C1663 C 0.73865 0.91463 0.35198 0.0
C1664 C 0.72252 0.89302 0.34832 0.0
C1665 C 0.76682 0.94482 0.37127 0.0
C1666 C 0.76091 0.96063 0.37006 0.0
C1667 C 0.78792 0.95089 0.37789 0.0
C1668 C 0.79584 0.93539 0.37815 0.0
C1669 C 0.79548 0.92405 0.36407 0.0
C1670 C 0.80382 0.91014 0.36423 0.0
C1671 C 0.81243 0.90733 0.37843 0.0
C1672 C 0.81274 0.91845 0.39249 0.0
C1673 C 0.80459 0.93252 0.39237 0.0
H1674 H 0.81891 0.89658 0.37854 0.0
H1675 H 0.74738 0.03894 0.37336 0.0
H1676 H 0.9675 0.81817 0.40564 0.0
H1677 H 0.00202 0.83043 0.39453 0.0
H1678 H 0.01263 0.78589 0.41996 0.0
H1679 H 0.9783 0.77377 0.43121 0.0
H1680 H 0.04901 0.82449 0.42204 0.0
H1681 H 0.99494 0.77501 0.3806 0.0
H1682 H 0.96225 0.76108 0.36177 0.0
H1683 H 0.99121 0.82035 0.34034 0.0
H1684 H 0.02399 0.83474 0.3592 0.0
H1685 H 0.12836 0.81654 0.38303 0.0
H1686 H 0.09485 0.80947 0.39349 0.0
H1687 H 0.0908 0.85475 0.36457 0.0
H1688 H 0.12428 0.86159 0.35368 0.0
H1689 H 0.05198 0.81947 0.36419 0.0
H1690 H 0.10697 0.86825 0.40454 0.0
H1691 H 0.13998 0.88194 0.423 0.0
H1692 H 0.10974 0.82432 0.4463 0.0
H1693 H 0.07655 0.81017 0.42789 0.0
C1694 C 0.9772 0.81101 0.40887 0.0
C1695 C 0.97019 0.79493 0.41925 0.0
C1696 C 0.9969 0.818 0.40247 0.0
C1697 C 0.00986 0.80895 0.4063 0.0
C1698 C 0.00295 0.79312 0.41684 0.0
C1699 C 0.98331 0.78615 0.42321 0.0
C1700 C 0.03052 0.81573 0.39928 0.0
C1701 C 0.04962 0.82323 0.4094 0.0
C1702 C 0.03148 0.81467 0.38277 0.0
C1703 C 0.0118 0.80604 0.37142 0.0
C1704 C 0.99426 0.78514 0.37196 0.0
C1705 C 0.97573 0.77715 0.36126 0.0
C1706 C 0.97462 0.78985 0.3499 0.0
C1707 C 0.99207 0.81055 0.34917 0.0
C1708 C 0.01063 0.81862 0.35985 0.0
C1709 C 0.1204 0.82504 0.37884 0.0
C1710 C 0.12911 0.83973 0.36754 0.0
C1711 C 0.10125 0.82104 0.38493 0.0
C1712 C 0.09048 0.83188 0.38006 0.0
C1713 C 0.09888 0.84628 0.36857 0.0
C1714 C 0.11803 0.85019 0.36236 0.0
C1715 C 0.0704 0.82792 0.38696 0.0
C1716 C 0.05142 0.82096 0.37684 0.0
C1717 C 0.06955 0.82952 0.40347 0.0
C1718 C 0.08932 0.8381 0.41476 0.0
C1719 C 0.10739 0.85844 0.41354 0.0
C1720 C 0.12612 0.86628 0.42399 0.0
C1721 C 0.12696 0.85395 0.43574 0.0
C1722 C 0.10906 0.83378 0.43712 0.0
C1723 C 0.09025 0.82589 0.42673 0.0
H1724 H 0.14136 0.86017 0.44392 0.0
H1725 H 0.96027 0.78363 0.34162 0.0
H1726 H 0.27294 0.22082 0.41266 0.0
H1727 H 0.25476 0.24005 0.4035 0.0
H1728 H 0.22024 0.19074 0.36467 0.0
H1729 H 0.23796 0.17111 0.374 0.0
H1730 H 0.24188 0.23947 0.3589 0.0
H1731 H 0.19155 0.18432 0.38936 0.0
H1732 H 0.18206 0.1646 0.41293 0.0
H1733 H 0.20113 0.22341 0.4417 0.0
H1734 H 0.21108 0.24354 0.41832 0.0
H1735 H 0.1683 0.27466 0.33708 0.0
H1736 H 0.18397 0.25209 0.34289 0.0
H1737 H 0.19981 0.27926 0.39153 0.0
H1738 H 0.1832 0.30099 0.38594 0.0
H1739 H 0.18643 0.23934 0.39106 0.0
H1740 H 0.23798 0.29535 0.36314 0.0
H1741 H 0.25081 0.31793 0.34122 0.0
H1742 H 0.23377 0.26197 0.3096 0.0
H1743 H 0.22057 0.239 0.33131 0.0
C1744 C 0.26163 0.21422 0.40208 0.0
C1745 C 0.25671 0.19448 0.39408 0.0
C1746 C 0.25129 0.22517 0.39689 0.0
C1747 C 0.23617 0.2167 0.38348 0.0
C1748 C 0.23189 0.19745 0.37505 0.0
C1749 C 0.24195 0.18626 0.38041 0.0
C1750 C 0.22407 0.22749 0.37884 0.0
C1751 C 0.22948 0.23922 0.36572 0.0
C1752 C 0.20845 0.22758 0.38809 0.0
C1753 C 0.20227 0.21546 0.40212 0.0
C1754 C 0.19392 0.19308 0.40074 0.0
C1755 C 0.18841 0.18182 0.41405 0.0
C1756 C 0.19105 0.19275 0.42881 0.0
C1757 C 0.19913 0.21496 0.43027 0.0
C1758 C 0.20468 0.2263 0.41699 0.0
C1759 C 0.17502 0.2757 0.34902 0.0
C1760 C 0.17461 0.28962 0.36105 0.0
C1761 C 0.1841 0.2629 0.35231 0.0
C1762 C 0.19348 0.26427 0.36759 0.0
C1763 C 0.19269 0.2779 0.37965 0.0
C1764 C 0.18321 0.29034 0.37644 0.0
C1765 C 0.20426 0.25167 0.37108 0.0
C1766 C 0.19866 0.23956 0.38405 0.0
C1767 C 0.22007 0.25166 0.36187 0.0
C1768 C 0.22807 0.26543 0.34881 0.0
C1769 C 0.23682 0.28784 0.35149 0.0
C1770 C 0.24419 0.30071 0.33911 0.0
C1771 C 0.24305 0.29138 0.32402 0.0
C1772 C 0.23461 0.26916 0.32129 0.0
C1773 C 0.22719 0.25622 0.33363 0.0
H1774 H 0.24876 0.30137 0.31445 0.0
H1775 H 0.18678 0.18401 0.43911 0.0
H1776 H 0.60222 0.5294 0.74725 0.0
H1777 H 0.63573 0.55502 0.73695 0.0
H1778 H 0.64892 0.50389 0.72504 0.0
H1779 H 0.61529 0.47808 0.73539 0.0
H1780 H 0.68505 0.54223 0.74122 0.0
H1781 H 0.63178 0.52083 0.69647 0.0
H1782 H 0.59747 0.51428 0.6826 0.0
H1783 H 0.617 0.58098 0.69279 0.0
H1784 H 0.65131 0.58787 0.70693 0.0
H1785 H 0.76492 0.59924 0.68798 0.0
H1786 H 0.73134 0.57213 0.69756 0.0
H1787 H 0.72187 0.62246 0.71838 0.0
H1788 H 0.75573 0.64969 0.70928 0.0
H1789 H 0.68413 0.58387 0.69715 0.0
H1790 H 0.73341 0.60499 0.74432 0.0
H1791 H 0.76746 0.61346 0.75976 0.0
H1792 H 0.75565 0.54986 0.74602 0.0
H1793 H 0.72144 0.54101 0.73048 0.0
C1794 C 0.61229 0.52363 0.74246 0.0
C1795 C 0.6062 0.50178 0.74211 0.0
C1796 C 0.63135 0.53824 0.73653 0.0
C1797 C 0.64472 0.5313 0.73019 0.0
C1798 C 0.63878 0.50952 0.72989 0.0
C1799 C 0.61954 0.49481 0.73568 0.0
C1800 C 0.66492 0.54693 0.72394 0.0
C1801 C 0.68484 0.55105 0.73141 0.0
C1802 C 0.66461 0.5589 0.71146 0.0
C1803 C 0.64404 0.55482 0.70288 0.0
C1804 C 0.62869 0.53406 0.69587 0.0
C1805 C 0.60925 0.5303 0.68793 0.0
C1806 C 0.60504 0.54719 0.68684 0.0
C1807 C 0.62028 0.5679 0.69365 0.0
C1808 C 0.63973 0.57175 0.70162 0.0
C1809 C 0.75562 0.6045 0.69454 0.0
C1810 C 0.76287 0.62653 0.69787 0.0
C1811 C 0.73655 0.58904 0.70005 0.0
C1812 C 0.72428 0.5954 0.70867 0.0
C1813 C 0.73122 0.61734 0.71175 0.0
C1814 C 0.75053 0.63281 0.70657 0.0
C1815 C 0.70411 0.57907 0.71442 0.0
C1816 C 0.68426 0.57486 0.70687 0.0
C1817 C 0.70446 0.56725 0.72694 0.0
C1818 C 0.72504 0.57244 0.73609 0.0
C1819 C 0.73819 0.59288 0.74447 0.0
C1820 C 0.75747 0.59773 0.75328 0.0
C1821 C 0.76377 0.58224 0.75381 0.0
C1822 C 0.75075 0.56184 0.74557 0.0
C1823 C 0.73138 0.55688 0.7368 0.0
H1824 H 0.77868 0.58603 0.76065 0.0
H1825 H 0.58998 0.54424 0.6807 0.0
H1826 H 0.55085 0.1439 0.73888 0.0
H1827 H 0.52184 0.14787 0.72597 0.0
H1828 H 0.47558 0.09851 0.75187 0.0
H1829 H 0.50396 0.09298 0.76359 0.0
H1830 H 0.4571 0.09337 0.72498 0.0
H1831 H 0.49881 0.15585 0.76211 0.0
H1832 H 0.53163 0.18843 0.77468 0.0
H1833 H 0.5402 0.21726 0.73117 0.0
H1834 H 0.50756 0.18472 0.71828 0.0
H1835 H 0.38167 0.13429 0.72567 0.0
H1836 H 0.4116 0.1288 0.73485 0.0
H1837 H 0.43689 0.14289 0.6899 0.0
H1838 H 0.40673 0.14777 0.68044 0.0
H1839 H 0.46581 0.16622 0.72499 0.0
H1840 H 0.42177 0.10009 0.68875 0.0
H1841 H 0.38691 0.06763 0.67908 0.0
H1842 H 0.38091 0.04626 0.72532 0.0
H1843 H 0.4156 0.07879 0.7353 0.0
C1844 C 0.53446 0.13358 0.74162 0.0
C1845 C 0.52995 0.11834 0.75253 0.0
C1846 C 0.51788 0.13612 0.73439 0.0
C1847 C 0.49651 0.1239 0.73822 0.0
C1848 C 0.4919 0.10829 0.74876 0.0
C1849 C 0.50832 0.10539 0.75569 0.0
C1850 C 0.47891 0.12737 0.73145 0.0
C1851 C 0.4591 0.10934 0.72511 0.0
C1852 C 0.48129 0.14817 0.73147 0.0
C1853 C 0.50089 0.16776 0.73919 0.0
C1854 C 0.50779 0.16908 0.7552 0.0
C1855 C 0.52634 0.18755 0.76238 0.0
C1856 C 0.53803 0.20488 0.75371 0.0
C1857 C 0.53115 0.20381 0.73785 0.0
C1858 C 0.51262 0.18536 0.73061 0.0
C1859 C 0.39357 0.13614 0.71773 0.0
C1860 C 0.39181 0.14136 0.70232 0.0
C1861 C 0.4106 0.133 0.72298 0.0
C1862 C 0.42632 0.13541 0.71301 0.0
C1863 C 0.42481 0.1409 0.69771 0.0
C1864 C 0.40755 0.14359 0.69233 0.0
C1865 C 0.44442 0.1323 0.71863 0.0
C1866 C 0.46414 0.15036 0.7248 0.0
C1867 C 0.44183 0.11157 0.71882 0.0
C1868 C 0.4211 0.09197 0.7128 0.0
C1869 C 0.41289 0.08858 0.69688 0.0
C1870 C 0.39319 0.07015 0.69134 0.0
C1871 C 0.38166 0.05493 0.70159 0.0
C1872 C 0.38983 0.05808 0.7174 0.0
C1873 C 0.40951 0.0765 0.723 0.0
H1874 H 0.36642 0.04066 0.69728 0.0
H1875 H 0.55239 0.21917 0.7593 0.0
H1876 H 0.94205 0.44373 0.70943 0.0
H1877 H 0.93278 0.40824 0.69677 0.0
H1878 H 0.89783 0.37828 0.73589 0.0
H1879 H 0.90654 0.4134 0.74834 0.0
H1880 H 0.94235 0.37836 0.7068 0.0
H1881 H 0.85357 0.33122 0.72282 0.0
H1882 H 0.82306 0.33752 0.72584 0.0
H1883 H 0.84865 0.38744 0.69489 0.0
H1884 H 0.87912 0.38123 0.69148 0.0
H1885 H 0.90544 0.26794 0.71054 0.0
H1886 H 0.91616 0.30597 0.71459 0.0
H1887 H 0.87022 0.2968 0.6755 0.0
H1888 H 0.85896 0.25863 0.67169 0.0
H1889 H 0.86625 0.31817 0.69892 0.0
H1890 H 0.92584 0.32507 0.6731 0.0
H1891 H 0.95613 0.31924 0.66786 0.0
H1892 H 0.98855 0.35075 0.71364 0.0
H1893 H 0.95832 0.35649 0.71926 0.0
C1894 C 0.93222 0.42952 0.71522 0.0
C1895 C 0.92505 0.43131 0.72988 0.0
C1896 C 0.92708 0.40933 0.70804 0.0
C1897 C 0.91448 0.39066 0.71534 0.0
C1898 C 0.90735 0.39246 0.72997 0.0
C1899 C 0.91251 0.41256 0.73714 0.0
C1900 C 0.90892 0.36918 0.70795 0.0
C1901 C 0.92572 0.3652 0.70495 0.0
C1902 C 0.88719 0.35219 0.70516 0.0
C1903 C 0.86873 0.35584 0.70699 0.0
C1904 C 0.85263 0.34346 0.71659 0.0
C1905 C 0.83535 0.34703 0.71838 0.0
C1906 C 0.83395 0.3629 0.7106 0.0
C1907 C 0.84979 0.3752 0.70096 0.0
C1908 C 0.86709 0.37167 0.69911 0.0
C1909 C 0.89775 0.27406 0.70272 0.0
C1910 C 0.88129 0.26028 0.69084 0.0
C1911 C 0.90399 0.29584 0.70498 0.0
C1912 C 0.89417 0.30431 0.69523 0.0
C1913 C 0.87801 0.29063 0.68317 0.0
C1914 C 0.8716 0.26882 0.68101 0.0
C1915 C 0.89972 0.32708 0.69829 0.0
C1916 C 0.88289 0.33133 0.70052 0.0
C1917 C 0.9214 0.34435 0.7 0.0
C1918 C 0.93972 0.34109 0.69664 0.0
C1919 C 0.93937 0.33064 0.68209 0.0
C1920 C 0.95654 0.32737 0.67905 0.0
C1921 C 0.97424 0.3346 0.69041 0.0
C1922 C 0.97483 0.34516 0.70484 0.0
C1923 C 0.95769 0.34845 0.70796 0.0
H1924 H 0.98751 0.33204 0.68803 0.0
H1925 H 0.82057 0.36565 0.71201 0.0
H1926 H 0.13395 0.93417 0.63147 0.0
H1927 H 0.16384 0.96987 0.64187 0.0
H1928 H 0.20974 0.94991 0.63114 0.0
H1929 H 0.17995 0.91433 0.62055 0.0
H1930 H 0.19629 0.98592 0.66464 0.0
H1931 H 0.253 0.99089 0.61746 0.0
H1932 H 0.25012 0.97601 0.59009 0.0
H1933 H 0.18658 0.96774 0.58126 0.0
H1934 H 0.18922 0.98287 0.60849 0.0
H1935 H 0.3 0.07531 0.68784 0.0
H1936 H 0.27032 0.03918 0.67858 0.0
H1937 H 0.25621 0.06308 0.63697 0.0
H1938 H 0.28641 0.09919 0.64593 0.0
H1939 H 0.25232 0.02589 0.62914 0.0
H1940 H 0.226 0.0533 0.66916 0.0
H1941 H 0.2265 0.06968 0.69546 0.0
H1942 H 0.22486 0.01627 0.71659 0.0
H1943 H 0.22464 -0.00029 0.69043 0.0
C1944 C 0.15041 0.93731 0.63158 0.0
C1945 C 0.15466 0.92157 0.62507 0.0
C1946 C 0.16747 0.95771 0.63749 0.0
C1947 C 0.18903 0.96268 0.63701 0.0
C1948 C 0.19325 0.94659 0.63131 0.0
C1949 C 0.17623 0.92627 0.62529 0.0
C1950 C 0.20709 0.98493 0.64181 0.0
C1951 C 0.20857 0.99465 0.6569 0.0
C1952 C 0.22282 0.99654 0.63157 0.0
C1953 C 0.22125 0.98781 0.61507 0.0
C1954 C 0.23847 0.98599 0.60965 0.0
C1955 C 0.23687 0.9775 0.59417 0.0
C1956 C 0.21815 0.97087 0.58396 0.0
C1957 C 0.20104 0.97281 0.5892 0.0
C1958 C 0.20257 0.98133 0.60465 0.0
C1959 C 0.29065 0.07286 0.67667 0.0
C1960 C 0.29546 0.09013 0.66765 0.0
C1961 C 0.27361 0.05221 0.67143 0.0
C1962 C 0.26073 0.04847 0.65723 0.0
C1963 C 0.26587 0.06558 0.64799 0.0
C1964 C 0.28313 0.08621 0.65313 0.0
C1965 C 0.24178 0.02679 0.6521 0.0
C1966 C 0.2401 0.01717 0.63692 0.0
C1967 C 0.22554 0.01553 0.66211 0.0
C1968 C 0.22549 0.02536 0.67785 0.0
C1969 C 0.22588 0.04512 0.67943 0.0
C1970 C 0.2261 0.05443 0.69431 0.0
C1971 C 0.22576 0.04405 0.70769 0.0
C1972 C 0.22514 0.02431 0.70621 0.0
C1973 C 0.22495 0.01494 0.69136 0.0
H1974 H 0.22593 0.05129 0.7192 0.0
H1975 H 0.21693 0.96426 0.57199 0.0
H1976 H 0.08421 0.22747 0.64259 0.0
H1977 H 0.0518 0.223 0.65391 0.0
H1978 H 0.01692 0.2045 0.6075 0.0
H1979 H 0.04892 0.20827 0.59613 0.0
H1980 H 0.01295 0.23616 0.62458 0.0
H1981 H 0.00615 0.16728 0.63176 0.0
H1982 H 0.01841 0.14291 0.64102 0.0
H1983 H 0.02584 0.16949 0.68882 0.0
H1984 H 0.01391 0.19425 0.67982 0.0
H1985 H 0.90666 0.20052 0.64405 0.0
H1986 H 0.93906 0.20358 0.63384 0.0
H1987 H 0.96807 0.21139 0.68134 0.0
H1988 H 0.9353 0.20746 0.6916 0.0
H1989 H 0.97596 0.18594 0.66424 0.0
H1990 H 0.98311 0.25482 0.65773 0.0
H1991 H 0.9716 0.27998 0.64897 0.0
H1992 H 0.96476 0.25497 0.60079 0.0
H1993 H 0.97598 0.22948 0.60928 0.0
C1994 C 0.06955 0.22207 0.63481 0.0
C1995 C 0.06928 0.21838 0.61842 0.0
C1996 C 0.05106 0.21963 0.6413 0.0
C1997 C 0.03197 0.21346 0.63153 0.0
C1998 C 0.03154 0.20944 0.61523 0.0
C1999 C 0.04991 0.2117 0.60876 0.0
C2000 C 0.01258 0.21177 0.63819 0.0
C2001 C 0.00469 0.22502 0.63312 0.0
C2002 C 0.00222 0.19768 0.64966 0.0
C2003 C 0.00937 0.18278 0.6551 0.0
C2004 C 0.01059 0.16807 0.64423 0.0
C2005 C 0.01744 0.15415 0.64944 0.0
C2006 C 0.02296 0.15469 0.6655 0.0
C2007 C 0.02159 0.16911 0.67639 0.0
C2008 C 0.01477 0.18308 0.67124 0.0
C2009 C 0.91999 0.20303 0.65234 0.0
C2010 C 0.91846 0.20389 0.66865 0.0
C2011 C 0.93858 0.20486 0.64648 0.0
C2012 C 0.95625 0.20812 0.65681 0.0
C2013 C 0.9547 0.20892 0.67311 0.0
C2014 C 0.93597 0.20673 0.67897 0.0
C2015 C 0.97619 0.21033 0.65061 0.0
C2016 C 0.98422 0.19719 0.65576 0.0
C2017 C 0.98683 0.2247 0.63931 0.0
C2018 C 0.98022 0.24012 0.63416 0.0
C2019 C 0.97902 0.2546 0.64527 0.0
C2020 C 0.97257 0.26893 0.64036 0.0
C2021 C 0.96741 0.26904 0.62434 0.0
C2022 C 0.96875 0.25486 0.6132 0.0
C2023 C 0.97518 0.24048 0.61805 0.0
H2024 H 0.96241 0.28015 0.62056 0.0
H2025 H 0.02825 0.1439 0.6695 0.0
H2026 H 0.72679 0.81409 0.63288 0.0
H2027 H 0.73552 0.78795 0.64308 0.0
H2028 H 0.79828 0.83973 0.66298 0.0
H2029 H 0.78991 0.86589 0.65244 0.0
H2030 H 0.80123 0.80941 0.64512 0.0
H2031 H 0.75944 0.81061 0.68658 0.0
H2032 H 0.72747 0.80812 0.69783 0.0
H2033 H 0.68843 0.74295 0.67658 0.0
H2034 H 0.72011 0.74514 0.66502 0.0
H2035 H 0.83363 0.7466 0.68783 0.0
H2036 H 0.82267 0.77282 0.68172 0.0
H2037 H 0.76224 0.72176 0.6578 0.0
H2038 H 0.77315 0.69542 0.6637 0.0
H2039 H 0.75786 0.75156 0.67826 0.0
H2040 H 0.79883 0.74984 0.63692 0.0
H2041 H 0.82999 0.75189 0.62473 0.0
H2042 H 0.86961 0.81786 0.64411 0.0
H2043 H 0.83894 0.81596 0.65701 0.0
C2044 C 0.74236 0.81989 0.63957 0.0
C2045 C 0.75769 0.84203 0.64182 0.0
C2046 C 0.74726 0.80497 0.64549 0.0
C2047 C 0.76752 0.81192 0.65383 0.0
C2048 C 0.78254 0.83405 0.65659 0.0
C2049 C 0.77765 0.84898 0.65068 0.0
C2050 C 0.77374 0.7961 0.65854 0.0
C2051 C 0.792 0.79701 0.65263 0.0
C2052 C 0.76118 0.77949 0.66784 0.0
C2053 C 0.74212 0.77811 0.67481 0.0
C2054 C 0.744 0.7958 0.6842 0.0
C2055 C 0.72594 0.79443 0.69065 0.0
C2056 C 0.70593 0.77541 0.68789 0.0
C2057 C 0.70394 0.75769 0.6787 0.0
C2058 C 0.72195 0.75898 0.67221 0.0
C2059 C 0.81797 0.74094 0.68133 0.0
C2060 C 0.80427 0.71898 0.67619 0.0
C2061 C 0.81177 0.75593 0.67783 0.0
C2062 C 0.7917 0.74917 0.66928 0.0
C2063 C 0.77778 0.72723 0.66444 0.0
C2064 C 0.78409 0.71225 0.66774 0.0
C2065 C 0.7855 0.76512 0.66502 0.0
C2066 C 0.76719 0.76412 0.6709 0.0
C2067 C 0.79795 0.78161 0.65561 0.0
C2068 C 0.81663 0.78264 0.64818 0.0
C2069 C 0.81429 0.76467 0.63887 0.0
C2070 C 0.83188 0.7658 0.63181 0.0
C2071 C 0.85183 0.78493 0.63376 0.0
C2072 C 0.85422 0.80298 0.64276 0.0
C2073 C 0.83675 0.80186 0.64998 0.0
H2074 H 0.86539 0.78581 0.62822 0.0
H2075 H 0.69196 0.77438 0.6929 0.0
H2076 H 0.05848 0.83483 0.64461 0.0
H2077 H 0.02605 0.81197 0.65737 0.0
H2078 H 0.98581 0.80381 0.61486 0.0
H2079 H 0.01817 0.82646 0.60199 0.0
H2080 H 0.97172 0.81385 0.64283 0.0
H2081 H 0.99444 0.76478 0.62235 0.0
H2082 H 0.0204 0.75205 0.6194 0.0
H2083 H 0.02607 0.74861 0.66931 0.0
H2084 H 1.00036 0.76162 0.67259 0.0
H2085 H 0.87072 0.72284 0.6496 0.0
H2086 H 0.90573 0.74874 0.64159 0.0
H2087 H 0.93764 0.74664 0.68539 0.0
H2088 H 0.90254 0.7206 0.69358 0.0
H2089 H 0.95786 0.7437 0.65982 0.0
H2090 H 0.93403 0.78942 0.68091 0.0
H2091 H 0.90905 0.80297 0.68537 0.0
H2092 H 0.90688 0.81439 0.63673 0.0
H2093 H 0.93153 0.80047 0.63188 0.0
C2094 C 0.04272 0.82822 0.63801 0.0
C2095 C 0.04076 0.8324 0.62232 0.0
C2096 C 0.02424 0.81513 0.6453 0.0
C2097 C 0.00357 0.80619 0.63703 0.0
C2098 C 0.00162 0.81061 0.62144 0.0
C2099 C 0.02008 0.82346 0.6141 0.0
C2100 C 0.9839 0.79198 0.6445 0.0
C2101 C 0.96856 0.79842 0.64642 0.0
C2102 C 0.98025 0.77225 0.6497 0.0
C2103 C 0.99569 0.76442 0.64773 0.0
C2104 C 0.00138 0.76151 0.63271 0.0
C2105 C 0.01602 0.7542 0.63098 0.0
C2106 C 0.02494 0.74959 0.64416 0.0
C2107 C 0.01919 0.75223 0.65911 0.0
C2108 C 0.00458 0.75956 0.66091 0.0
C2109 C 0.88514 0.72789 0.65759 0.0
C2110 C 0.88382 0.71967 0.67226 0.0
C2111 C 0.90515 0.74277 0.653 0.0
C2112 C 0.92425 0.74973 0.66295 0.0
C2113 C 0.92306 0.74149 0.67756 0.0
C2114 C 0.90299 0.72668 0.68223 0.0
C2115 C 0.94542 0.76535 0.65784 0.0
C2116 C 0.96106 0.75921 0.65637 0.0
C2117 C 0.9495 0.7855 0.65325 0.0
C2118 C 0.93449 0.79371 0.656 0.0
C2119 C 0.92804 0.79459 0.67111 0.0
C2120 C 0.91396 0.80236 0.67372 0.0
C2121 C 0.90635 0.80949 0.66134 0.0
C2122 C 0.91277 0.80882 0.6463 0.0
C2123 C 0.9268 0.801 0.64362 0.0
H2124 H 0.89556 0.81561 0.66344 0.0
H2125 H 0.03626 0.74393 0.64279 0.0
H2126 H 0.14847 0.18984 0.63352 0.0
H2127 H 0.17232 0.17657 0.64298 0.0
H2128 H 0.22607 0.22907 0.62437 0.0
H2129 H 0.20228 0.24218 0.61476 0.0
H2130 H 0.22549 0.19202 0.61737 0.0
H2131 H 0.22005 0.22986 0.66374 0.0
H2132 H 0.2009 0.2379 0.68367 0.0
H2133 H 0.17315 0.17336 0.6966 0.0
H2134 H 0.19194 0.16485 0.67659 0.0
H2135 H 0.31588 0.19412 0.65702 0.0
H2136 H 0.28832 0.20205 0.64685 0.0
H2137 H 0.24015 0.14954 0.66943 0.0
H2138 H 0.26788 0.14189 0.68009 0.0
H2139 H 0.23542 0.18323 0.67387 0.0
H2140 H 0.2426 0.14595 0.62813 0.0
H2141 H 0.26217 0.13844 0.60823 0.0
H2142 H 0.28737 0.20228 0.59439 0.0
H2143 H 0.26792 0.21017 0.61417 0.0
C2144 C 0.16537 0.19854 0.63148 0.0
C2145 C 0.17359 0.21711 0.62347 0.0
C2146 C 0.179 0.19098 0.63691 0.0
C2147 C 0.20105 0.20192 0.63448 0.0
C2148 C 0.20914 0.22033 0.62636 0.0
C2149 C 0.19556 0.22787 0.62094 0.0
C2150 C 0.21586 0.1944 0.64044 0.0
C2151 C 0.22778 0.19024 0.62975 0.0
C2152 C 0.21847 0.19156 0.65651 0.0
C2153 C 0.20719 0.19665 0.66855 0.0
C2154 C 0.20972 0.21733 0.67074 0.0
C2155 C 0.19896 0.22198 0.68207 0.0
C2156 C 0.18576 0.20613 0.69136 0.0
C2157 C 0.18335 0.18561 0.68937 0.0
C2158 C 0.19405 0.18087 0.67805 0.0
C2159 C 0.29942 0.1842 0.65982 0.0
C2160 C 0.29409 0.16734 0.66937 0.0
C2161 C 0.28361 0.18867 0.65389 0.0
C2162 C 0.26202 0.17614 0.6571 0.0
C2163 C 0.25667 0.15937 0.66672 0.0
C2164 C 0.27254 0.15502 0.67281 0.0
C2165 C 0.24526 0.18104 0.65083 0.0
C2166 C 0.23297 0.18473 0.66146 0.0
C2167 C 0.24231 0.18346 0.63469 0.0
C2168 C 0.25388 0.17868 0.62269 0.0
C2169 C 0.25237 0.15841 0.62087 0.0
C2170 C 0.26339 0.15406 0.60958 0.0
C2171 C 0.27596 0.16986 0.60003 0.0
C2172 C 0.27756 0.19004 0.60176 0.0
C2173 C 0.26647 0.19442 0.61295 0.0
H2174 H 0.28443 0.16648 0.59127 0.0
H2175 H 0.17745 0.20977 0.70012 0.0
H2176 H 0.77092 0.94435 0.66247 0.0
H2177 H 0.78356 0.9808 0.67495 0.0
H2178 H 0.81137 0.00728 0.63262 0.0
H2179 H 0.79885 0.97103 0.62016 0.0
H2180 H 0.83907 0.02916 0.65922 0.0
H2181 H 0.76382 0.00195 0.64031 0.0
H2182 H 0.72453 0.97646 0.63853 0.0
H2183 H 0.72545 0.98884 0.68841 0.0
H2184 H 0.76484 0.01421 0.69051 0.0
H2185 H 0.84892 0.13006 0.65582 0.0
H2186 H 0.83785 0.09204 0.65193 0.0
H2187 H 0.81767 0.08366 0.69874 0.0
H2188 H 0.82878 0.12197 0.70281 0.0
H2189 H 0.78731 0.05166 0.67549 0.0
H2190 H 0.86209 0.08349 0.69335 0.0
H2191 H 0.90109 0.1098 0.69443 0.0
H2192 H 0.90114 0.08918 0.64628 0.0
H2193 H 0.86205 0.06296 0.64482 0.0
C2194 C 0.77978 0.95798 0.65588 0.0
C2195 C 0.78396 0.95498 0.64036 0.0
C2196 C 0.78694 0.97874 0.66299 0.0
C2197 C 0.79835 0.99669 0.65468 0.0
C2198 C 0.80267 0.99364 0.63925 0.0
C2199 C 0.79546 0.97296 0.63214 0.0
C2200 C 0.80565 0.01877 0.66178 0.0
C2201 C 0.82777 0.03411 0.66276 0.0
C2202 C 0.79094 0.02502 0.66686 0.0
C2203 C 0.7673 0.00974 0.6656 0.0
C2204 C 0.75568 -0.00093 0.65092 0.0
C2205 C 0.73338 0.98468 0.64985 0.0
C2206 C 0.72251 0.98097 0.66336 0.0
C2207 C 0.7339 0.99169 0.67797 0.0
C2208 C 0.7562 0.00608 0.6791 0.0
C2209 C 0.84215 0.12021 0.66533 0.0
C2210 C 0.83978 0.12905 0.67965 0.0
C2211 C 0.83592 0.09849 0.6631 0.0
C2212 C 0.8272 0.08515 0.67512 0.0
C2213 C 0.82449 0.09378 0.68937 0.0
C2214 C 0.83089 0.11564 0.69167 0.0
C2215 C 0.82064 0.06214 0.67244 0.0
C2216 C 0.79869 0.04663 0.6723 0.0
C2217 C 0.83549 0.05572 0.66811 0.0
C2218 C 0.85908 0.07133 0.66895 0.0
C2219 C 0.87038 0.08466 0.68295 0.0
C2220 C 0.89251 0.09955 0.68364 0.0
C2221 C 0.90358 0.10118 0.67043 0.0
C2222 C 0.89254 0.08789 0.65651 0.0
C2223 C 0.8704 0.07299 0.65575 0.0
H2224 H 0.92071 0.11273 0.67098 0.0
H2225 H 0.70525 0.96984 0.66251 0.0
H2226 H 0.47267 0.39629 0.74496 0.0
H2227 H 0.44957 0.3574 0.73819 0.0
H2228 H 0.50142 0.35543 0.71643 0.0
H2229 H 0.52464 0.39441 0.72319 0.0
H2230 H 0.46127 0.33164 0.69842 0.0
H2231 H 0.49154 0.33884 0.75167 0.0
H2232 H 0.5007 0.35294 0.77976 0.0
H2233 H 0.4332 0.32597 0.78549 0.0
H2234 H 0.42364 0.31197 0.75736 0.0
H2235 H 0.41393 0.21866 0.69082 0.0
H2236 H 0.43899 0.25691 0.69842 0.0
H2237 H 0.39126 0.26066 0.72474 0.0
H2238 H 0.36621 0.22221 0.71749 0.0
H2239 H 0.43037 0.28363 0.74053 0.0
H2240 H 0.39968 0.27753 0.68769 0.0
H2241 H 0.38964 0.26373 0.65956 0.0
H2242 H 0.45667 0.28902 0.65288 0.0
H2243 H 0.46709 0.3027 0.68104 0.0
C2244 C 0.47909 0.38755 0.73868 0.0
C2245 C 0.50042 0.39829 0.73465 0.0
C2246 C 0.46594 0.36536 0.73488 0.0
C2247 C 0.47389 0.35353 0.72698 0.0
C2248 C 0.49503 0.3643 0.72258 0.0
C2249 C 0.50827 0.38653 0.72647 0.0
C2250 C 0.46008 0.32989 0.72341 0.0
C2251 C 0.45477 0.32108 0.70762 0.0
C2252 C 0.45118 0.31624 0.73543 0.0
C2253 C 0.45689 0.32453 0.75237 0.0
C2254 C 0.47865 0.33607 0.75889 0.0
C2255 C 0.48392 0.34401 0.77482 0.0
C2256 C 0.46755 0.3404 0.78439 0.0
C2257 C 0.44587 0.32878 0.77806 0.0
C2258 C 0.44051 0.32082 0.76212 0.0
C2259 C 0.40877 0.22756 0.69831 0.0
C2260 C 0.38799 0.21742 0.70344 0.0
C2261 C 0.42311 0.24947 0.70258 0.0
C2262 C 0.41685 0.26175 0.71189 0.0
C2263 C 0.39639 0.25152 0.71749 0.0
C2264 C 0.38209 0.22954 0.71332 0.0
C2265 C 0.43147 0.28533 0.7155 0.0
C2266 C 0.43692 0.29415 0.73131 0.0
C2267 C 0.44035 0.29902 0.70348 0.0
C2268 C 0.43415 0.29095 0.68651 0.0
C2269 C 0.41227 0.28001 0.68025 0.0
C2270 C 0.40651 0.27223 0.66429 0.0
C2271 C 0.4225 0.27544 0.65445 0.0
C2272 C 0.44429 0.28651 0.66053 0.0
C2273 C 0.45014 0.2943 0.67648 0.0
H2274 H 0.41801 0.2694 0.6421 0.0
H2275 H 0.47166 0.34656 0.79672 0.0
H2276 H 0.65164 0.11373 0.77 0.0
H2277 H 0.68614 0.12714 0.75871 0.0
H2278 H 0.66138 0.14653 0.71949 0.0
H2279 H 0.62685 0.13342 0.73088 0.0
H2280 H 0.68312 0.12256 0.71146 0.0
H2281 H 0.69458 0.1841 0.74548 0.0
H2282 H 0.69479 0.20279 0.77066 0.0
H2283 H 0.74002 0.18731 0.79302 0.0
H2284 H 0.73983 0.16824 0.76801 0.0
H2285 H 0.78367 0.17919 0.67995 0.0
H2286 H 0.74883 0.16881 0.68983 0.0
H2287 H 0.77451 0.16526 0.73592 0.0
H2288 H 0.80964 0.17671 0.72628 0.0
H2289 H 0.75136 0.18224 0.73982 0.0
H2290 H 0.73937 0.11925 0.70847 0.0
H2291 H 0.73904 0.09789 0.68471 0.0
H2292 H 0.69502 0.11228 0.65911 0.0
H2293 H 0.69531 0.13397 0.68267 0.0
C2294 C 0.65357 0.12087 0.75898 0.0
C2295 C 0.63664 0.12262 0.75135 0.0
C2296 C 0.67327 0.12855 0.75257 0.0
C2297 C 0.67633 0.13793 0.73834 0.0
C2298 C 0.65932 0.13937 0.73052 0.0
C2299 C 0.63966 0.13195 0.73705 0.0
C2300 C 0.69734 0.14617 0.73168 0.0
C2301 C 0.69804 0.13585 0.71749 0.0
C2302 C 0.71681 0.16298 0.73988 0.0
C2303 C 0.71704 0.17457 0.7549 0.0
C2304 C 0.70443 0.18452 0.7558 0.0
C2305 C 0.70457 0.19522 0.77003 0.0
C2306 C 0.71737 0.1962 0.78344 0.0
C2307 C 0.7301 0.18652 0.78263 0.0
C2308 C 0.72999 0.17579 0.76842 0.0
C2309 C 0.78187 0.17623 0.6922 0.0
C2310 C 0.79937 0.17871 0.70233 0.0
C2311 C 0.76189 0.17016 0.69783 0.0
C2312 C 0.7588 0.16581 0.71358 0.0
C2313 C 0.77639 0.16851 0.72373 0.0
C2314 C 0.79649 0.17503 0.71819 0.0
C2315 C 0.73735 0.15854 0.71955 0.0
C2316 C 0.73651 0.16902 0.73367 0.0
C2317 C 0.7178 0.1415 0.71147 0.0
C2318 C 0.71755 0.12843 0.69729 0.0
C2319 C 0.72974 0.11799 0.69774 0.0
C2320 C 0.72954 0.1058 0.68431 0.0
C2321 C 0.71707 0.10378 0.6704 0.0
C2322 C 0.70471 0.11389 0.66989 0.0
C2323 C 0.70487 0.12612 0.68328 0.0
H2324 H 0.71693 0.09433 0.66001 0.0
H2325 H 0.71746 0.20448 0.79445 0.0
H2326 H 0.90606 0.5108 0.70834 0.0
H2327 H 0.88604 0.52874 0.70032 0.0
H2328 H 0.92091 0.5784 0.73891 0.0
H2329 H 0.94118 0.5607 0.74688 0.0
H2330 H 0.87442 0.56015 0.73562 0.0
H2331 H 0.93579 0.59009 0.70461 0.0
H2332 H 0.95918 0.58745 0.68566 0.0
H2333 H 0.90458 0.5544 0.65045 0.0
H2334 H 0.8808 0.55659 0.66928 0.0
H2335 H 0.85552 0.64396 0.71937 0.0
H2336 H 0.87009 0.62071 0.7255 0.0
H2337 H 0.84583 0.58671 0.67886 0.0
H2338 H 0.83246 0.61104 0.67236 0.0
H2339 H 0.88338 0.59281 0.6851 0.0
H2340 H 0.82204 0.56515 0.71424 0.0
H2341 H 0.79749 0.56673 0.7326 0.0
H2342 H 0.84874 0.59244 0.77048 0.0
H2343 H 0.8737 0.59131 0.75232 0.0
C2344 C 0.9095 0.52558 0.71507 0.0
C2345 C 0.92517 0.53445 0.72822 0.0
C2346 C 0.89806 0.53577 0.71048 0.0
C2347 C 0.90201 0.55481 0.71907 0.0
C2348 C 0.91761 0.56364 0.73221 0.0
C2349 C 0.92923 0.55363 0.73667 0.0
C2350 C 0.89009 0.56577 0.71431 0.0
C2351 C 0.8764 0.56744 0.72463 0.0
C2352 C 0.89217 0.5745 0.69972 0.0
C2353 C 0.90648 0.57328 0.6884 0.0
C2354 C 0.92874 0.58209 0.69287 0.0
C2355 C 0.94207 0.58071 0.68215 0.0
C2356 C 0.93336 0.5707 0.66688 0.0
C2357 C 0.9113 0.56211 0.66229 0.0
C2358 C 0.89789 0.56342 0.67298 0.0
C2359 C 0.85319 0.63143 0.71046 0.0
C2360 C 0.84285 0.6292 0.69541 0.0
C2361 C 0.86136 0.61801 0.71402 0.0
C2362 C 0.85863 0.60156 0.70278 0.0
C2363 C 0.84809 0.59922 0.68775 0.0
C2364 C 0.84044 0.61307 0.68404 0.0
C2365 C 0.86777 0.5876 0.70652 0.0
C2366 C 0.88098 0.58531 0.69601 0.0
C2367 C 0.8649 0.57794 0.72083 0.0
C2368 C 0.84979 0.57825 0.73188 0.0
C2369 C 0.82811 0.57123 0.72647 0.0
C2370 C 0.81412 0.57205 0.73685 0.0
C2371 C 0.82157 0.57971 0.75269 0.0
C2372 C 0.843 0.58651 0.7582 0.0
C2373 C 0.85707 0.58575 0.74788 0.0
H2374 H 0.81074 0.58034 0.76071 0.0
H2375 H 0.94371 0.56965 0.65859 0.0
H2376 H 0.4134 0.89177 0.22972 0.0
H2377 H 0.41996 0.90789 0.20475 0.0
H2378 H 0.48718 0.95003 0.22204 0.0
H2379 H 0.48062 0.93444 0.24716 0.0
H2380 H 0.47057 0.97156 0.20743 0.0
H2381 H 0.47174 0.90585 0.1964 0.0
H2382 H 0.45733 0.86668 0.19512 0.0
H2383 H 0.40274 0.85549 0.1637 0.0
H2384 H 0.41667 0.89461 0.16498 0.0
H2385 H 0.51514 0.00622 0.13595 0.0
H2386 H 0.5061 0.98987 0.16066 0.0
H2387 H 0.43963 0.94938 0.14093 0.0
H2388 H 0.44852 0.96578 0.11617 0.0
H2389 H 0.45428 0.92678 0.15658 0.0
H2390 H 0.45377 0.99265 0.16693 0.0
H2391 H 0.46836 0.03184 0.16813 0.0
H2392 H 0.52175 0.04278 0.20079 0.0
H2393 H 0.50764 0.00364 0.19961 0.0
C2394 C 0.42954 0.90459 0.22824 0.0
C2395 C 0.44652 0.91177 0.24039 0.0
C2396 C 0.4333 0.91366 0.21392 0.0
C2397 C 0.45412 0.93 0.21148 0.0
C2398 C 0.47101 0.93739 0.22366 0.0
C2399 C 0.46728 0.92834 0.23795 0.0
C2400 C 0.45837 0.93947 0.19625 0.0
C2401 C 0.46723 0.9618 0.19633 0.0
C2402 C 0.45351 0.92666 0.18173 0.0
C2403 C 0.44513 0.90314 0.18092 0.0
C2404 C 0.45657 0.89503 0.18932 0.0
C2405 C 0.44851 0.87284 0.18858 0.0
C2406 C 0.4291 0.8586 0.17937 0.0
C2407 C 0.41775 0.86653 0.17085 0.0
C2408 C 0.42573 0.88871 0.17157 0.0
C2409 C 0.49855 0.99399 0.13691 0.0
C2410 C 0.48253 0.98739 0.12412 0.0
C2411 C 0.49342 0.98463 0.15103 0.0
C2412 C 0.47214 0.96859 0.15269 0.0
C2413 C 0.45616 0.96173 0.13989 0.0
C2414 C 0.46128 0.97108 0.12574 0.0
C2415 C 0.46663 0.95889 0.16778 0.0
C2416 C 0.45752 0.93653 0.16767 0.0
C2417 C 0.47127 0.97167 0.18228 0.0
C2418 C 0.47975 0.99521 0.18307 0.0
C2419 C 0.46871 0.00341 0.17428 0.0
C2420 C 0.47688 0.02562 0.17497 0.0
C2421 C 0.496 0.03979 0.1845 0.0
C2422 C 0.50696 0.03178 0.1934 0.0
C2423 C 0.49887 0.00959 0.19273 0.0
H2424 H 0.50229 0.05698 0.18502 0.0
H2425 H 0.42289 0.84143 0.1788 0.0
H2426 H 0.08873 0.55728 0.25589 0.0
H2427 H 0.079 0.55123 0.22737 0.0
H2428 H 0.03177 0.48493 0.23152 0.0
H2429 H 0.04156 0.49088 0.26006 0.0
H2430 H 0.05522 0.48799 0.20762 0.0
H2431 H 0.01657 0.52245 0.2258 0.0
H2432 H 0.01267 0.55094 0.24003 0.0
H2433 H 0.0566 0.59744 0.2116 0.0
H2434 H 0.061 0.56927 0.19733 0.0
H2435 H 0.99276 0.46137 0.13364 0.0
H2436 H 0.00591 0.46878 0.16164 0.0
H2437 H 0.05352 0.53376 0.15442 0.0
H2438 H 0.04007 0.5266 0.12641 0.0
H2439 H 0.03164 0.53249 0.17958 0.0
H2440 H 0.069 0.4975 0.16061 0.0
H2441 H 0.07261 0.46884 0.14635 0.0
H2442 H 0.03078 0.42314 0.1762 0.0
H2443 H 0.02667 0.45146 0.1905 0.0
C2444 C 0.07611 0.54149 0.25073 0.0
C2445 C 0.0658 0.52457 0.26018 0.0
C2446 C 0.0706 0.53804 0.23445 0.0
C2447 C 0.05451 0.51769 0.22736 0.0
C2448 C 0.04426 0.50075 0.23676 0.0
C2449 C 0.04985 0.50416 0.25304 0.0
C2450 C 0.04848 0.51398 0.21011 0.0
C2451 C 0.04981 0.49754 0.2015 0.0
C2452 C 0.042 0.52685 0.2021 0.0
C2453 C 0.03928 0.54379 0.2106 0.0
C2454 C 0.02552 0.53878 0.22266 0.0
C2455 C 0.02321 0.55487 0.23072 0.0
C2456 C 0.03443 0.576 0.22675 0.0
C2457 C 0.04795 0.58107 0.21468 0.0
C2458 C 0.05034 0.56505 0.20659 0.0
C2459 C 0.00601 0.47724 0.13802 0.0
C2460 C 0.01536 0.49343 0.12785 0.0
C2461 C 0.01363 0.48139 0.15398 0.0
C2462 C 0.03079 0.50177 0.16006 0.0
C2463 C 0.04029 0.51792 0.14993 0.0
C2464 C 0.03271 0.51376 0.13394 0.0
C2465 C 0.03822 0.50639 0.17712 0.0
C2466 C 0.03715 0.52301 0.18568 0.0
C2467 C 0.04489 0.49365 0.18508 0.0
C2468 C 0.04738 0.47658 0.17654 0.0
C2469 C 0.06043 0.4813 0.16405 0.0
C2470 C 0.06259 0.46512 0.15598 0.0
C2471 C 0.05189 0.44417 0.16034 0.0
C2472 C 0.03905 0.43937 0.17282 0.0
C2473 C 0.03681 0.45549 0.18093 0.0
H2474 H 0.05359 0.43167 0.15408 0.0
H2475 H 0.03262 0.58843 0.23301 0.0
H2476 H 0.42788 0.52029 0.23613 0.0
H2477 H 0.43498 0.51389 0.20924 0.0
H2478 H 0.49885 0.5276 0.22678 0.0
H2479 H 0.49183 0.53384 0.2536 0.0
H2480 H 0.49969 0.5506 0.2025 0.0
H2481 H 0.45904 0.47656 0.21417 0.0
H2482 H 0.42726 0.44471 0.22212 0.0
H2483 H 0.38735 0.4461 0.18309 0.0
H2484 H 0.41886 0.47816 0.17503 0.0
H2485 H 0.53707 0.52155 0.13764 0.0
H2486 H 0.52396 0.52195 0.16316 0.0
H2487 H 0.46101 0.50391 0.14025 0.0
H2488 H 0.47366 0.50223 0.11455 0.0
H2489 H 0.45712 0.48358 0.16621 0.0
H2490 H 0.49666 0.55612 0.15377 0.0
H2491 H 0.52756 0.58844 0.14547 0.0
H2492 H 0.56825 0.59094 0.18558 0.0
H2493 H 0.53767 0.55843 0.19401 0.0
C2494 C 0.44328 0.52156 0.23427 0.0
C2495 C 0.45937 0.52772 0.24696 0.0
C2496 C 0.44732 0.51793 0.21891 0.0
C2497 C 0.46745 0.52028 0.21603 0.0
C2498 C 0.48327 0.52584 0.22874 0.0
C2499 C 0.47925 0.52945 0.24404 0.0
C2500 C 0.47265 0.51816 0.19975 0.0
C2501 C 0.49054 0.53586 0.19463 0.0
C2502 C 0.46017 0.49921 0.18929 0.0
C2503 C 0.44126 0.47989 0.1941 0.0
C2504 C 0.44345 0.47019 0.20736 0.0
C2505 C 0.4255 0.45207 0.21187 0.0
C2506 C 0.40528 0.44343 0.20315 0.0
C2507 C 0.403 0.45284 0.18986 0.0
C2508 C 0.42091 0.47096 0.1853 0.0
C2509 C 0.52029 0.51718 0.13796 0.0
C2510 C 0.50647 0.51196 0.12398 0.0
C2511 C 0.51289 0.51769 0.15259 0.0
C2512 C 0.49164 0.5134 0.1536 0.0
C2513 C 0.47753 0.50745 0.13974 0.0
C2514 C 0.48487 0.50672 0.12506 0.0
C2515 C 0.48453 0.51585 0.16914 0.0
C2516 C 0.46623 0.49833 0.17407 0.0
C2517 C 0.49649 0.53507 0.17942 0.0
C2518 C 0.5149 0.55473 0.17445 0.0
C2519 C 0.51223 0.56348 0.16076 0.0
C2520 C 0.52969 0.58184 0.15604 0.0
C2521 C 0.54987 0.59171 0.16497 0.0
C2522 C 0.55262 0.58327 0.17867 0.0
C2523 C 0.53522 0.56488 0.18343 0.0
H2524 H 0.56336 0.60593 0.1613 0.0
H2525 H 0.3914 0.4294 0.20666 0.0
H2526 H 0.97225 0.51453 0.7787 0.0
H2527 H 0.98221 0.52146 0.80723 0.0
H2528 H 0.93379 0.45605 0.81268 0.0
H2529 H 0.92332 0.44921 0.78426 0.0
H2530 H 0.93396 0.48443 0.83517 0.0
H2531 H 0.98633 0.47012 0.81257 0.0
H2532 H 0.01427 0.47593 0.79488 0.0
H2533 H 0.05405 0.54096 0.81625 0.0
H2534 H 0.02618 0.53561 0.83394 0.0
H2535 H 0.96855 0.46465 0.90807 0.0
H2536 H 0.95738 0.46533 0.88066 0.0
H2537 H 0.01162 0.52976 0.88095 0.0
H2538 H 0.02321 0.52885 0.90836 0.0
H2539 H 0.00911 0.5062 0.85578 0.0
H2540 H 0.95772 0.51871 0.88072 0.0
H2541 H 0.92973 0.51175 0.89864 0.0
H2542 H 0.88789 0.44961 0.87317 0.0
H2543 H 0.91572 0.45605 0.85523 0.0
C2544 C 0.96358 0.50171 0.78601 0.0
C2545 C 0.94713 0.48127 0.77924 0.0
C2546 C 0.96937 0.50565 0.80227 0.0
C2547 C 0.95887 0.4892 0.81202 0.0
C2548 C 0.94211 0.46895 0.80534 0.0
C2549 C 0.93632 0.465 0.7891 0.0
C2550 C 0.96576 0.49275 0.82914 0.0
C2551 C 0.95035 0.48909 0.83972 0.0
C2552 C 0.98729 0.49934 0.83502 0.0
C2553 C 0.00407 0.50254 0.82444 0.0
C2554 C 0.00096 0.48571 0.81341 0.0
C2555 C 0.01679 0.48891 0.8034 0.0
C2556 C 0.0359 0.50882 0.80441 0.0
C2557 C 0.03923 0.52556 0.81546 0.0
C2558 C 0.02343 0.52245 0.82549 0.0
C2559 C 0.97789 0.47908 0.90235 0.0
C2560 C 0.99668 0.49673 0.91031 0.0
C2561 C 0.97146 0.47949 0.8867 0.0
C2562 C 0.98344 0.49775 0.87881 0.0
C2563 C 0.00209 0.51553 0.88683 0.0
C2564 C 0.0087 0.51501 0.90244 0.0
C2565 C 0.97724 0.49764 0.86192 0.0
C2566 C 0.99279 0.50191 0.85133 0.0
C2567 C 0.95582 0.49157 0.85605 0.0
C2568 C 0.93889 0.48782 0.86668 0.0
C2569 C 0.9426 0.50352 0.87899 0.0
C2570 C 0.92675 0.49966 0.88914 0.0
C2571 C 0.90707 0.48022 0.88706 0.0
C2572 C 0.90315 0.46465 0.87477 0.0
C2573 C 0.91894 0.46841 0.86459 0.0
H2574 H 0.89486 0.4772 0.89497 0.0
H2575 H 0.04814 0.51127 0.79665 0.0
H2576 H 0.59106 0.49365 0.79698 0.0
H2577 H 0.58369 0.50129 0.82348 0.0
H2578 H 0.51826 0.48213 0.80561 0.0
H2579 H 0.5256 0.4747 0.77906 0.0
H2580 H 0.53762 0.51952 0.8262 0.0
H2581 H 0.52689 0.44797 0.82418 0.0
H2582 H 0.53699 0.42011 0.81963 0.0
H2583 H 0.59087 0.45399 0.85533 0.0
H2584 H 0.58127 0.48224 0.85993 0.0
H2585 H 0.48777 0.50148 0.89715 0.0
H2586 H 0.49779 0.49732 0.87092 0.0
H2587 H 0.56201 0.51538 0.89109 0.0
H2588 H 0.55227 0.51998 0.91738 0.0
H2589 H 0.54468 0.47975 0.86956 0.0
H2590 H 0.55453 0.55072 0.87227 0.0
H2591 H 0.54422 0.57842 0.87679 0.0
H2592 H 0.4919 0.54565 0.83983 0.0
H2593 H 0.5017 0.51755 0.83524 0.0
C2594 C 0.57519 0.49131 0.79869 0.0
C2595 C 0.55887 0.48351 0.786 0.0
C2596 C 0.57097 0.49553 0.81382 0.0
C2597 C 0.55038 0.49208 0.81649 0.0
C2598 C 0.53423 0.48485 0.80378 0.0
C2599 C 0.5384 0.48048 0.78867 0.0
C2600 C 0.54552 0.49556 0.83261 0.0
C2601 C 0.53893 0.51068 0.83565 0.0
C2602 C 0.54772 0.48433 0.84498 0.0
C2603 C 0.5535 0.46735 0.84227 0.0
C2604 C 0.54101 0.44959 0.83096 0.0
C2605 C 0.54662 0.4337 0.82839 0.0
C2606 C 0.5646 0.43531 0.83715 0.0
C2607 C 0.57697 0.45278 0.84853 0.0
C2608 C 0.57145 0.46873 0.85113 0.0
C2609 C 0.50411 0.50482 0.89601 0.0
C2610 C 0.51924 0.51114 0.90937 0.0
C2611 C 0.50978 0.50237 0.88101 0.0
C2612 C 0.5307 0.50624 0.87907 0.0
C2613 C 0.54578 0.51231 0.89236 0.0
C2614 C 0.54014 0.51483 0.90737 0.0
C2615 C 0.53669 0.50367 0.86316 0.0
C2616 C 0.54348 0.48869 0.86014 0.0
C2617 C 0.53465 0.51502 0.85081 0.0
C2618 C 0.52873 0.53191 0.85351 0.0
C2619 C 0.54071 0.54931 0.86519 0.0
C2620 C 0.53498 0.56511 0.86775 0.0
C2621 C 0.51738 0.56377 0.85863 0.0
C2622 C 0.50551 0.54665 0.8469 0.0
C2623 C 0.51116 0.53079 0.84431 0.0
H2624 H 0.51298 0.57602 0.86063 0.0
H2625 H 0.56891 0.42299 0.83515 0.0
H2626 H 0.56219 0.07246 0.79395 0.0
H2627 H 0.55283 0.05749 0.81924 0.0
H2628 H 0.54554 0.11102 0.83593 0.0
H2629 H 0.5545 0.12586 0.81051 0.0
H2630 H 0.56914 0.09599 0.8585 0.0
H2631 H 0.5028 0.07193 0.82424 0.0
H2632 H 0.47943 0.0556 0.79915 0.0
H2633 H 0.4807 0.99712 0.80377 0.0
H2634 H 0.50442 0.01328 0.82876 0.0
H2635 H 0.50909 0.05234 0.92307 0.0
H2636 H 0.52307 0.07035 0.89965 0.0
H2637 H 0.50951 0.01003 0.87529 0.0
H2638 H 0.49426 0.99167 0.89828 0.0
H2639 H 0.49749 0.02944 0.85652 0.0
H2640 H 0.56197 0.0509 0.89027 0.0
H2641 H 0.58764 0.0662 0.91435 0.0
H2642 H 0.59247 0.12761 0.91037 0.0
H2643 H 0.56654 0.11259 0.88638 0.0
C2644 C 0.55898 0.08121 0.80313 0.0
C2645 C 0.559 0.10026 0.80033 0.0
C2646 C 0.55361 0.07265 0.81751 0.0
C2647 C 0.54849 0.08317 0.82937 0.0
C2648 C 0.54953 0.10275 0.8269 0.0
C2649 C 0.55453 0.11113 0.81241 0.0
C2650 C 0.54034 0.0728 0.8438 0.0
C2651 C 0.55338 0.0816 0.8582 0.0
C2652 C 0.52007 0.05371 0.84318 0.0
C2653 C 0.50557 0.04389 0.82827 0.0
C2654 C 0.49826 0.05566 0.81983 0.0
C2655 C 0.48493 0.04643 0.80564 0.0
C2656 C 0.47863 0.02535 0.79985 0.0
C2657 C 0.48561 0.01346 0.80826 0.0
C2658 C 0.499 0.02264 0.82244 0.0
C2659 C 0.50881 0.04282 0.91267 0.0
C2660 C 0.50051 0.02051 0.91261 0.0
C2661 C 0.51713 0.05323 0.89935 0.0
C2662 C 0.51769 0.04164 0.88576 0.0
C2663 C 0.50936 0.01937 0.88565 0.0
C2664 C 0.50082 0.00891 0.89889 0.0
C2665 C 0.52628 0.05252 0.87147 0.0
C2666 C 0.51329 0.04383 0.857 0.0
C2667 C 0.54678 0.07152 0.87203 0.0
C2668 C 0.56212 0.08054 0.8866 0.0
C2669 C 0.56832 0.06761 0.89461 0.0
C2670 C 0.58295 0.07624 0.90824 0.0
C2671 C 0.59164 0.09785 0.91391 0.0
C2672 C 0.58569 0.11086 0.90598 0.0
C2673 C 0.57103 0.1023 0.89236 0.0
H2674 H 0.60306 0.10452 0.9244 0.0
H2675 H 0.4683 0.01823 0.78886 0.0
H2676 H 0.1258 0.22336 0.56415 0.0
H2677 H 0.13328 0.23958 0.53929 0.0
H2678 H 0.11692 0.28656 0.55686 0.0
H2679 H 0.10938 0.27037 0.58176 0.0
H2680 H 0.09899 0.27075 0.52721 0.0
H2681 H 0.16965 0.29989 0.55504 0.0
H2682 H 0.19954 0.29845 0.5698 0.0
H2683 H 0.20337 0.26136 0.53021 0.0
H2684 H 0.17328 0.26232 0.51528 0.0
H2685 H 0.14368 0.34308 0.46898 0.0
H2686 H 0.13615 0.32704 0.49393 0.0
H2687 H 0.15078 0.27886 0.4762 0.0
H2688 H 0.15887 0.29514 0.45137 0.0
H2689 H 0.16965 0.29548 0.50597 0.0
H2690 H 0.09888 0.26632 0.47819 0.0
H2691 H 0.06894 0.26774 0.4635 0.0
H2692 H 0.06543 0.3051 0.50306 0.0
H2693 H 0.09557 0.30414 0.51792 0.0
C2694 C 0.12398 0.23726 0.56277 0.0
C2695 C 0.11709 0.24564 0.57494 0.0
C2696 C 0.12824 0.2465 0.54855 0.0
C2697 C 0.12591 0.26445 0.54628 0.0
C2698 C 0.11881 0.27271 0.55835 0.0
C2699 C 0.11447 0.26342 0.57255 0.0
C2700 C 0.13075 0.27451 0.53127 0.0
C2701 C 0.11455 0.27644 0.52267 0.0
C2702 C 0.15088 0.28149 0.52518 0.0
C2703 C 0.16907 0.281 0.5341 0.0
C2704 C 0.17675 0.29129 0.54952 0.0
C2705 C 0.19375 0.29058 0.55791 0.0
C2706 C 0.20331 0.27977 0.55096 0.0
C2707 C 0.19593 0.2697 0.53558 0.0
C2708 C 0.17892 0.27034 0.52715 0.0
C2709 C 0.14543 0.32916 0.47043 0.0
C2710 C 0.15183 0.32035 0.45818 0.0
C2711 C 0.14095 0.3199 0.48464 0.0
C2712 C 0.14269 0.30162 0.48686 0.0
C2713 C 0.14926 0.29291 0.47471 0.0
C2714 C 0.1537 0.30213 0.46049 0.0
C2715 C 0.13789 0.29169 0.5019 0.0
C2716 C 0.1541 0.2898 0.51052 0.0
C2717 C 0.11778 0.28478 0.50801 0.0
C2718 C 0.09963 0.28534 0.49911 0.0
C2719 C 0.09185 0.27499 0.48371 0.0
C2720 C 0.07482 0.27568 0.47536 0.0
C2721 C 0.06533 0.28655 0.48232 0.0
C2722 C 0.07281 0.29671 0.49767 0.0
C2723 C 0.08986 0.29608 0.50607 0.0
H2724 H 0.05214 0.28707 0.47584 0.0
H2725 H 0.21647 0.27924 0.55747 0.0
H2726 H 0.7611 0.89426 0.58615 0.0
H2727 H 0.74961 0.88622 0.5579 0.0
H2728 H 0.69849 0.82295 0.56546 0.0
H2729 H 0.70984 0.83093 0.59384 0.0
H2730 H 0.72032 0.82158 0.54094 0.0
H2731 H 0.68702 0.86191 0.55795 0.0
H2732 H 0.68602 0.89269 0.57126 0.0
H2733 H 0.73071 0.935 0.54105 0.0
H2734 H 0.73222 0.9045 0.5277 0.0
H2735 H 0.65862 0.79562 0.46636 0.0
H2736 H 0.6715 0.80326 0.49443 0.0
H2737 H 0.7225 0.86639 0.48644 0.0
H2738 H 0.70937 0.85904 0.45837 0.0
H2739 H 0.70115 0.86794 0.51112 0.0
H2740 H 0.73409 0.82763 0.49381 0.0
H2741 H 0.7353 0.79694 0.48055 0.0
H2742 H 0.69146 0.75468 0.51121 0.0
H2743 H 0.68974 0.78508 0.52453 0.0
C2744 C 0.74721 0.87874 0.58184 0.0
C2745 C 0.73625 0.86328 0.59223 0.0
C2746 C 0.74073 0.87415 0.56569 0.0
C2747 C 0.72307 0.85407 0.55962 0.0
C2748 C 0.71217 0.83854 0.56993 0.0
C2749 C 0.71867 0.84311 0.58611 0.0
C2750 C 0.71615 0.84926 0.54248 0.0
C2751 C 0.71583 0.83152 0.53444 0.0
C2752 C 0.71086 0.8626 0.53398 0.0
C2753 C 0.70989 0.88095 0.54193 0.0
C2754 C 0.69676 0.8778 0.55423 0.0
C2755 C 0.69608 0.89519 0.56176 0.0
C2756 C 0.70833 0.9158 0.55703 0.0
C2757 C 0.72125 0.91904 0.54472 0.0
C2758 C 0.72201 0.9017 0.53715 0.0
C2759 C 0.67257 0.81113 0.47059 0.0
C2760 C 0.68297 0.82676 0.46018 0.0
C2761 C 0.68002 0.8154 0.48659 0.0
C2762 C 0.69804 0.83533 0.49247 0.0
C2763 C 0.70859 0.85089 0.4821 0.0
C2764 C 0.70119 0.84661 0.46607 0.0
C2765 C 0.7053 0.84024 0.50956 0.0
C2766 C 0.70567 0.858 0.51761 0.0
C2767 C 0.71063 0.82692 0.51805 0.0
C2768 C 0.71163 0.8086 0.51007 0.0
C2769 C 0.72456 0.81176 0.49764 0.0
C2770 C 0.72536 0.79442 0.49013 0.0
C2771 C 0.71342 0.77386 0.49501 0.0
C2772 C 0.70068 0.77061 0.50743 0.0
C2773 C 0.6998 0.78789 0.51498 0.0
H2774 H 0.71407 0.76046 0.48918 0.0
H2775 H 0.70779 0.92924 0.56288 0.0
H2776 H 0.09206 0.85922 0.56753 0.0
H2777 H 0.09704 0.84974 0.54075 0.0
H2778 H 0.16224 0.8658 0.55657 0.0
H2779 H 0.15712 0.87452 0.5834 0.0
H2780 H 0.12426 0.8747 0.52156 0.0
H2781 H 0.17712 0.83575 0.53505 0.0
H2782 H 0.18048 0.81302 0.55426 0.0
H2783 H 0.11404 0.78795 0.56267 0.0
H2784 H 0.11019 0.81028 0.54336 0.0
H2785 H 0.19049 0.88342 0.46146 0.0
H2786 H 0.17463 0.8838 0.48591 0.0
H2787 H 0.1352 0.81452 0.47913 0.0
H2788 H 0.15117 0.81406 0.4547 0.0
H2789 H 0.15366 0.82691 0.50816 0.0
H2790 H 0.11003 0.8459 0.47544 0.0
H2791 H 0.10192 0.86578 0.4561 0.0
H2792 H 0.14374 0.92532 0.48476 0.0
H2793 H 0.15167 0.90576 0.50446 0.0
C2794 C 0.1073 0.8603 0.56536 0.0
C2795 C 0.12421 0.86764 0.57759 0.0
C2796 C 0.11018 0.85506 0.55003 0.0
C2797 C 0.12995 0.85692 0.54667 0.0
C2798 C 0.14673 0.86393 0.55891 0.0
C2799 C 0.14386 0.86913 0.57422 0.0
C2800 C 0.13356 0.85264 0.53027 0.0
C2801 C 0.13054 0.86413 0.51861 0.0
C2802 C 0.14133 0.83852 0.52632 0.0
C2803 C 0.14343 0.82483 0.53783 0.0
C2804 C 0.1632 0.8253 0.54094 0.0
C2805 C 0.16519 0.81251 0.55186 0.0
C2806 C 0.1475 0.7991 0.55971 0.0
C2807 C 0.12776 0.7984 0.55663 0.0
C2808 C 0.12567 0.81115 0.54571 0.0
C2809 C 0.1783 0.8683 0.46513 0.0
C2810 C 0.17213 0.84871 0.45624 0.0
C2811 C 0.16915 0.86853 0.47904 0.0
C2812 C 0.15352 0.8492 0.48427 0.0
C2813 C 0.14722 0.82962 0.47533 0.0
C2814 C 0.15643 0.82937 0.46144 0.0
C2815 C 0.14491 0.84941 0.49958 0.0
C2816 C 0.14709 0.83724 0.51106 0.0
C2817 C 0.13591 0.86252 0.50328 0.0
C2818 C 0.13156 0.87439 0.49134 0.0
C2819 C 0.11758 0.86324 0.47756 0.0
C2820 C 0.11296 0.87444 0.46657 0.0
C2821 C 0.12247 0.8968 0.46912 0.0
C2822 C 0.13643 0.90801 0.48277 0.0
C2823 C 0.14087 0.89686 0.4939 0.0
H2824 H 0.11894 0.90543 0.46056 0.0
H2825 H 0.14909 0.78921 0.56817 0.0
H2826 H 0.60157 0.82852 0.1168 0.0
H2827 H 0.61572 0.83609 0.14463 0.0
H2828 H 0.6589 0.81243 0.13447 0.0
H2829 H 0.64505 0.80506 0.10659 0.0
H2830 H 0.6351 0.79373 0.15842 0.0
H2831 H 0.67837 0.86558 0.14386 0.0
H2832 H 0.68458 0.89867 0.13252 0.0
H2833 H 0.64641 0.90761 0.16572 0.0
H2834 H 0.63971 0.87439 0.17713 0.0
H2835 H 0.69483 0.81866 0.23175 0.0
H2836 H 0.68581 0.81949 0.20398 0.0
H2837 H 0.64523 0.8455 0.2163 0.0
H2838 H 0.65503 0.84571 0.2443 0.0
H2839 H 0.6671 0.8637 0.19146 0.0
H2840 H 0.6229 0.79248 0.2057 0.0
H2841 H 0.61517 0.75901 0.21712 0.0
H2842 H 0.65287 0.74824 0.18448 0.0
H2843 H 0.6611 0.78184 0.173 0.0
C2844 C 0.61442 0.82537 0.12043 0.0
C2845 C 0.62214 0.81611 0.10951 0.0
C2846 C 0.62245 0.82967 0.13634 0.0
C2847 C 0.63839 0.82487 0.14159 0.0
C2848 C 0.64655 0.81619 0.13065 0.0
C2849 C 0.63856 0.81192 0.11476 0.0
C2850 C 0.64551 0.82745 0.15861 0.0
C2851 C 0.64242 0.80911 0.16559 0.0
C2852 C 0.65428 0.84735 0.16805 0.0
C2853 C 0.65837 0.86737 0.16125 0.0
C2854 C 0.67115 0.8745 0.14866 0.0
C2855 C 0.67478 0.8933 0.14224 0.0
C2856 C 0.66585 0.9052 0.14837 0.0
C2857 C 0.6533 0.89836 0.16097 0.0
C2858 C 0.6496 0.87955 0.16743 0.0
C2859 C 0.68441 0.82508 0.22864 0.0
C2860 C 0.67558 0.83203 0.2403 0.0
C2861 C 0.67908 0.82531 0.21272 0.0
C2862 C 0.66453 0.83217 0.20808 0.0
C2863 C 0.65639 0.84001 0.21964 0.0
C2864 C 0.66184 0.83992 0.23562 0.0
C2865 C 0.65703 0.83004 0.19117 0.0
C2866 C 0.65987 0.84837 0.18425 0.0
C2867 C 0.64778 0.81006 0.18177 0.0
C2868 C 0.64279 0.78979 0.18859 0.0
C2869 C 0.62968 0.78306 0.20103 0.0
C2870 C 0.62519 0.76405 0.20751 0.0
C2871 C 0.63357 0.75153 0.20156 0.0
C2872 C 0.64642 0.75797 0.18909 0.0
C2873 C 0.65099 0.77699 0.18259 0.0
H2874 H 0.63006 0.73682 0.20658 0.0
H2875 H 0.66868 0.91975 0.14338 0.0
H2876 H 0.25471 0.82523 0.1276 0.0
H2877 H 0.24929 0.83349 0.15455 0.0
H2878 H 0.18174 0.80952 0.13994 0.0
H2879 H 0.18719 0.80189 0.11291 0.0
H2880 H 0.19889 0.84647 0.15883 0.0
H2881 H 0.19822 0.77924 0.15951 0.0
H2882 H 0.21287 0.7549 0.15557 0.0
H2883 H 0.26827 0.79685 0.18843 0.0
H2884 H 0.25408 0.8216 0.1924 0.0
H2885 H 0.15552 0.8305 0.23204 0.0
H2886 H 0.16433 0.82525 0.20559 0.0
H2887 H 0.23099 0.85043 0.22375 0.0
H2888 H 0.22231 0.85582 0.25029 0.0
H2889 H 0.2165 0.81475 0.20344 0.0
H2890 H 0.21639 0.88119 0.2037 0.0
H2891 H 0.20167 0.90545 0.20773 0.0
H2892 H 0.14789 0.86521 0.17315 0.0
H2893 H 0.16212 0.84052 0.16907 0.0
C2894 C 0.23876 0.82193 0.1301 0.0
C2895 C 0.22135 0.81281 0.11813 0.0
C2896 C 0.23564 0.82647 0.14553 0.0
C2897 C 0.21505 0.82188 0.14929 0.0
C2898 C 0.19775 0.81312 0.13732 0.0
C2899 C 0.20085 0.8086 0.12191 0.0
C2900 C 0.2114 0.8261 0.16569 0.0
C2901 C 0.20252 0.83936 0.16856 0.0
C2902 C 0.21669 0.81728 0.17845 0.0
C2903 C 0.2252 0.80238 0.17612 0.0
C2904 C 0.21361 0.78336 0.1658 0.0
C2905 C 0.22182 0.76947 0.16358 0.0
C2906 C 0.24152 0.77436 0.17171 0.0
C2907 C 0.25303 0.79311 0.18212 0.0
C2908 C 0.24491 0.80706 0.18437 0.0
C2909 C 0.17209 0.83508 0.23039 0.0
C2910 C 0.18824 0.84367 0.24325 0.0
C2911 C 0.1771 0.83205 0.21527 0.0
C2912 C 0.19838 0.83772 0.21267 0.0
C2913 C 0.21447 0.84596 0.2255 0.0
C2914 C 0.20946 0.84896 0.24066 0.0
C2915 C 0.20375 0.83492 0.19653 0.0
C2916 C 0.21297 0.82197 0.19372 0.0
C2917 C 0.19879 0.84403 0.18382 0.0
C2918 C 0.19023 0.8589 0.18618 0.0
C2919 C 0.20133 0.87742 0.19704 0.0
C2920 C 0.19309 0.89126 0.19932 0.0
C2921 C 0.17383 0.88684 0.19073 0.0
C2922 C 0.1628 0.8686 0.17981 0.0
C2923 C 0.17096 0.85469 0.17749 0.0
H2924 H 0.16748 0.89758 0.19251 0.0
H2925 H 0.24785 0.76359 0.16998 0.0
H2926 H 0.20589 0.44953 0.14123 0.0
H2927 H 0.19663 0.43366 0.16614 0.0
H2928 H 0.2186 0.38964 0.15258 0.0
H2929 H 0.22761 0.40526 0.12751 0.0
H2930 H 0.17869 0.36919 0.16328 0.0
H2931 H 0.24822 0.43051 0.18056 0.0
H2932 H 0.27629 0.46894 0.18383 0.0
H2933 H 0.23508 0.48398 0.20961 0.0
H2934 H 0.20661 0.44565 0.2063 0.0
H2935 H 0.17245 0.32773 0.2372 0.0
H2936 H 0.18542 0.34505 0.21332 0.0
H2937 H 0.1667 0.39182 0.22643 0.0
H2938 H 0.15367 0.37455 0.25039 0.0
H2939 H 0.20601 0.41087 0.21601 0.0
H2940 H 0.13608 0.35012 0.19799 0.0
H2941 H 0.10762 0.31181 0.19459 0.0
H2942 H 0.14912 0.29589 0.17001 0.0
H2943 H 0.17796 0.33408 0.17346 0.0
C2944 C 0.20882 0.43652 0.14359 0.0
C2945 C 0.21744 0.4286 0.13242 0.0
C2946 C 0.20366 0.42757 0.15786 0.0
C2947 C 0.20704 0.41055 0.16125 0.0
C2948 C 0.21592 0.40279 0.15021 0.0
C2949 C 0.22119 0.41183 0.13596 0.0
C2950 C 0.20039 0.40023 0.176 0.0
C2951 C 0.18493 0.37822 0.17483 0.0
C2952 C 0.2081 0.41216 0.19102 0.0
C2953 C 0.2252 0.43523 0.19305 0.0
C2954 C 0.24506 0.44203 0.18681 0.0
C2955 C 0.26106 0.4638 0.1887 0.0
C2956 C 0.25745 0.4789 0.19689 0.0
C2957 C 0.23785 0.47226 0.20325 0.0
C2958 C 0.22178 0.45052 0.20139 0.0
C2959 C 0.17087 0.34157 0.23493 0.0
C2960 C 0.16187 0.34967 0.24564 0.0
C2961 C 0.17835 0.35148 0.22129 0.0
C2962 C 0.1768 0.36958 0.21798 0.0
C2963 C 0.16807 0.37788 0.22874 0.0
C2964 C 0.16065 0.36801 0.24243 0.0
C2965 C 0.18426 0.37982 0.2033 0.0
C2966 C 0.19984 0.40182 0.20447 0.0
C2967 C 0.1766 0.3679 0.18826 0.0
C2968 C 0.15926 0.34493 0.18613 0.0
C2969 C 0.1392 0.33842 0.19197 0.0
C2970 C 0.12299 0.31674 0.19001 0.0
C2971 C 0.12658 0.30142 0.18213 0.0
C2972 C 0.14638 0.30777 0.17614 0.0
C2973 C 0.16265 0.32943 0.17808 0.0
H2974 H 0.11401 0.28464 0.18062 0.0
H2975 H 0.26986 0.49575 0.19834 0.0
H2976 H 0.78383 0.54824 0.89246 0.0
H2977 H 0.79121 0.56335 0.86718 0.0
H2978 H 0.77149 0.60866 0.88223 0.0
H2979 H 0.76442 0.59391 0.90766 0.0
H2980 H 0.75517 0.59039 0.85145 0.0
H2981 H 0.82396 0.62467 0.88359 0.0
H2982 H 0.85356 0.62529 0.90043 0.0
H2983 H 0.86433 0.59079 0.8627 0.0
H2984 H 0.83456 0.58969 0.8457 0.0
H2985 H 0.8035 0.67003 0.79918 0.0
H2986 H 0.79333 0.65039 0.82246 0.0
H2987 H 0.81522 0.60813 0.80428 0.0
H2988 H 0.8258 0.62796 0.78105 0.0
H2989 H 0.82967 0.62252 0.83558 0.0
H2990 H 0.76294 0.58994 0.80275 0.0
H2991 H 0.73359 0.58911 0.78547 0.0
H2992 H 0.71866 0.61927 0.8237 0.0
H2993 H 0.7482 0.62064 0.84115 0.0
C2994 C 0.78118 0.56151 0.89044 0.0
C2995 C 0.77369 0.56997 0.90215 0.0
C2996 C 0.78531 0.57005 0.87595 0.0
C2997 C 0.78208 0.58724 0.87288 0.0
C2998 C 0.77404 0.59535 0.88435 0.0
C2999 C 0.76996 0.58686 0.89886 0.0
C3000 C 0.78771 0.59724 0.85791 0.0
C3001 C 0.77149 0.59761 0.84804 0.0
C3002 C 0.80888 0.6061 0.85327 0.0
C3003 C 0.82688 0.6069 0.86344 0.0
C3004 C 0.83253 0.61707 0.87893 0.0
C3005 C 0.84935 0.61753 0.8885 0.0
C3006 C 0.86078 0.60803 0.88266 0.0
C3007 C 0.85544 0.59811 0.86722 0.0
C3008 C 0.8386 0.59757 0.85761 0.0
C3009 C 0.80628 0.65665 0.80018 0.0
C3010 C 0.81551 0.6506 0.7883 0.0
C3011 C 0.80029 0.64532 0.81342 0.0
C3012 C 0.80338 0.62771 0.81503 0.0
C3013 C 0.81267 0.62165 0.80323 0.0
C3014 C 0.81856 0.63291 0.78993 0.0
C3015 C 0.79719 0.61589 0.82919 0.0
C3016 C 0.8133 0.61517 0.83892 0.0
C3017 C 0.7759 0.60659 0.83363 0.0
C3018 C 0.75792 0.60556 0.82324 0.0
C3019 C 0.75351 0.59655 0.80745 0.0
C3020 C 0.73683 0.59596 0.79762 0.0
C3021 C 0.7243 0.60417 0.80348 0.0
C3022 C 0.7284 0.61293 0.81918 0.0
C3023 C 0.7451 0.61361 0.82905 0.0
H3024 H 0.71139 0.6037 0.79585 0.0
H3025 H 0.8738 0.60841 0.89008 0.0
H3026 H 0.4192 0.22837 0.92511 0.0
H3027 H 0.41072 0.2236 0.89647 0.0
H3028 H 0.36744 0.15566 0.89826 0.0
H3029 H 0.37567 0.16032 0.92688 0.0
H3030 H 0.39351 0.16327 0.87478 0.0
H3031 H 0.34786 0.18937 0.89396 0.0
H3032 H 0.3404 0.2149 0.90893 0.0
H3033 H 0.3814 0.26524 0.88167 0.0
H3034 H 0.38934 0.24007 0.86667 0.0
H3035 H 0.32981 0.13141 0.80167 0.0
H3036 H 0.34301 0.14007 0.82964 0.0
H3037 H 0.38339 0.20687 0.82232 0.0
H3038 H 0.36974 0.1984 0.79431 0.0
H3039 H 0.36203 0.20245 0.84817 0.0
H3040 H 0.40586 0.17605 0.82775 0.0
H3041 H 0.4136 0.15078 0.81274 0.0
H3042 H 0.37682 0.10151 0.8422 0.0
H3043 H 0.36858 0.12639 0.85725 0.0
C3044 C 0.40772 0.21245 0.91941 0.0
C3045 C 0.39803 0.19472 0.92826 0.0
C3046 C 0.40296 0.20975 0.90306 0.0
C3047 C 0.38834 0.1893 0.89527 0.0
C3048 C 0.37882 0.17156 0.90404 0.0
C3049 C 0.38357 0.17424 0.92038 0.0
C3050 C 0.38284 0.18631 0.87798 0.0
C3051 C 0.38643 0.17167 0.86896 0.0
C3052 C 0.37425 0.19779 0.87038 0.0
C3053 C 0.36938 0.2129 0.87932 0.0
C3054 C 0.35542 0.20593 0.89124 0.0
C3055 C 0.35108 0.22033 0.89972 0.0
C3056 C 0.36047 0.2417 0.89629 0.0
C3057 C 0.37417 0.2487 0.88433 0.0
C3058 C 0.37858 0.23437 0.87584 0.0
C3059 C 0.34138 0.14798 0.80602 0.0
C3060 C 0.34871 0.16423 0.79579 0.0
C3061 C 0.34907 0.15286 0.82198 0.0
C3062 C 0.36437 0.17406 0.82801 0.0
C3063 C 0.37166 0.19038 0.81787 0.0
C3064 C 0.36397 0.1855 0.80187 0.0
C3065 C 0.37236 0.17913 0.845 0.0
C3066 C 0.36927 0.19417 0.85395 0.0
C3067 C 0.38149 0.16806 0.85255 0.0
C3068 C 0.38645 0.15305 0.84355 0.0
C3069 C 0.39928 0.15977 0.83096 0.0
C3070 C 0.40378 0.14553 0.82245 0.0
C3071 C 0.39567 0.12454 0.82649 0.0
C3072 C 0.38308 0.11777 0.83907 0.0
C3073 C 0.3785 0.13194 0.84761 0.0
H3074 H 0.39918 0.11353 0.81989 0.0
H3075 H 0.3571 0.25282 0.90286 0.0
H3076 H 0.79939 0.2314 0.90253 0.0
H3077 H 0.80555 0.22275 0.87601 0.0
H3078 H 0.78457 0.1576 0.88611 0.0
H3079 H 0.77882 0.16634 0.91291 0.0
H3080 H 0.82183 0.17457 0.87264 0.0
H3081 H 0.75289 0.16735 0.86118 0.0
H3082 H 0.72426 0.17688 0.86152 0.0
H3083 H 0.76259 0.23283 0.838 0.0
H3084 H 0.79164 0.22386 0.83776 0.0
H3085 H 0.83216 0.15228 0.79116 0.0
H3086 H 0.81515 0.14972 0.81567 0.0
H3087 H 0.83787 0.21783 0.81876 0.0
H3088 H 0.85489 0.22048 0.79443 0.0
H3089 H 0.79406 0.19224 0.82448 0.0
H3090 H 0.86489 0.20149 0.84016 0.0
H3091 H 0.8931 0.19136 0.83972 0.0
H3092 H 0.84953 0.12995 0.85501 0.0
H3093 H 0.82094 0.13962 0.85532 0.0
C3094 C 0.79607 0.21522 0.89911 0.0
C3095 C 0.78871 0.19956 0.90981 0.0
C3096 C 0.79938 0.21023 0.88389 0.0
C3097 C 0.79528 0.18946 0.87902 0.0
C3098 C 0.78771 0.17369 0.88961 0.0
C3099 C 0.78432 0.17867 0.90487 0.0
C3100 C 0.80019 0.1848 0.86315 0.0
C3101 C 0.81535 0.17794 0.86206 0.0
C3102 C 0.7919 0.1894 0.84936 0.0
C3103 C 0.77454 0.195 0.84956 0.0
C3104 C 0.75532 0.1818 0.85621 0.0
C3105 C 0.73899 0.18708 0.85636 0.0
C3106 C 0.74162 0.20547 0.84981 0.0
C3107 C 0.76058 0.2186 0.84308 0.0
C3108 C 0.77698 0.21341 0.84292 0.0
C3109 C 0.83338 0.16663 0.79706 0.0
C3110 C 0.84496 0.18661 0.79102 0.0
C3111 C 0.82374 0.16517 0.81103 0.0
C3112 C 0.82534 0.18361 0.819 0.0
C3113 C 0.83645 0.20343 0.81276 0.0
C3114 C 0.8463 0.20495 0.79895 0.0
C3115 C 0.81608 0.18265 0.83413 0.0
C3116 C 0.80013 0.18845 0.83505 0.0
C3117 C 0.82352 0.17695 0.84773 0.0
C3118 C 0.8407 0.17116 0.84756 0.0
C3119 C 0.86126 0.18574 0.84328 0.0
C3120 C 0.87733 0.18011 0.84309 0.0
C3121 C 0.87308 0.16 0.84728 0.0
C3122 C 0.85277 0.1455 0.85172 0.0
C3123 C 0.83663 0.15106 0.85192 0.0
H3124 H 0.88555 0.15566 0.84713 0.0
H3125 H 0.72895 0.20952 0.84992 0.0
H3126 H 0.29523 0.17478 0.44854 0.0
H3127 H 0.30592 0.18378 0.47691 0.0
H3128 H 0.25555 0.12044 0.48512 0.0
H3129 H 0.24423 0.11162 0.45683 0.0
H3130 H 0.2589 0.15075 0.50722 0.0
H3131 H 0.30703 0.13118 0.4837 0.0
H3132 H 0.3329 0.13366 0.46503 0.0
H3133 H 0.37649 0.1995 0.48327 0.0
H3134 H 0.35072 0.19749 0.50192 0.0
H3135 H 0.30026 0.13524 0.57992 0.0
H3136 H 0.28578 0.13409 0.55302 0.0
H3137 H 0.3387 0.19819 0.5497 0.0
H3138 H 0.35324 0.19949 0.57667 0.0
H3139 H 0.33441 0.17082 0.52534 0.0
H3140 H 0.28684 0.18964 0.55003 0.0
H3141 H 0.26081 0.18666 0.56871 0.0
H3142 H 0.21669 0.12162 0.54902 0.0
H3143 H 0.24236 0.12429 0.53006 0.0
C3144 C 0.28618 0.16291 0.4564 0.0
C3145 C 0.26904 0.1424 0.45043 0.0
C3146 C 0.2924 0.16802 0.4726 0.0
C3147 C 0.28171 0.15266 0.48308 0.0
C3148 C 0.26405 0.1325 0.47722 0.0
C3149 C 0.25777 0.1274 0.46104 0.0
C3150 C 0.28969 0.15709 0.50005 0.0
C3151 C 0.27537 0.15502 0.51121 0.0
C3152 C 0.31129 0.16305 0.50522 0.0
C3153 C 0.32685 0.16425 0.49408 0.0
C3154 C 0.32206 0.14623 0.48365 0.0
C3155 C 0.33671 0.14755 0.47308 0.0
C3156 C 0.3563 0.16675 0.47293 0.0
C3157 C 0.3613 0.18465 0.48338 0.0
C3158 C 0.34668 0.18343 0.49396 0.0
C3159 C 0.30858 0.14926 0.57358 0.0
C3160 C 0.32796 0.1674 0.58036 0.0
C3161 C 0.30026 0.1486 0.55821 0.0
C3162 C 0.3111 0.16612 0.5494 0.0
C3163 C 0.33011 0.1845 0.5563 0.0
C3164 C 0.33844 0.18516 0.57166 0.0
C3165 C 0.30363 0.16447 0.53256 0.0
C3166 C 0.31803 0.16691 0.52139 0.0
C3167 C 0.28212 0.15878 0.52742 0.0
C3168 C 0.26658 0.15712 0.53871 0.0
C3169 C 0.27163 0.17467 0.54974 0.0
C3170 C 0.25693 0.17305 0.56035 0.0
C3171 C 0.2372 0.15391 0.56015 0.0
C3172 C 0.23201 0.13642 0.54919 0.0
C3173 C 0.24657 0.13802 0.53845 0.0
H3174 H 0.2259 0.15267 0.56844 0.0
H3175 H 0.36762 0.16774 0.46475 0.0
H3176 H 0.88433 0.11273 0.46054 0.0
H3177 H 0.8788 0.12092 0.4874 0.0
H3178 H 0.89392 0.18453 0.47689 0.0
H3179 H 0.89934 0.17637 0.44987 0.0
H3180 H 0.91289 0.18496 0.50606 0.0
H3181 H 0.84239 0.14656 0.47713 0.0
H3182 H 0.81234 0.11673 0.45974 0.0
H3183 H 0.80712 0.07227 0.49293 0.0
H3184 H 0.83737 0.1018 0.51043 0.0
H3185 H 0.86607 0.20791 0.5703 0.0
H3186 H 0.87502 0.20156 0.54409 0.0
H3187 H 0.86064 0.13793 0.55395 0.0
H3188 H 0.85135 0.14406 0.5801 0.0
H3189 H 0.84162 0.138 0.52511 0.0
H3190 H 0.91189 0.17667 0.5543 0.0
H3191 H 0.94167 0.20665 0.57176 0.0
H3192 H 0.94715 0.25081 0.53824 0.0
H3193 H 0.91715 0.22113 0.52067 0.0
C3194 C 0.88637 0.12843 0.46391 0.0
C3195 C 0.89201 0.14382 0.45303 0.0
C3196 C 0.88329 0.13311 0.47927 0.0
C3197 C 0.88567 0.15322 0.48406 0.0
C3198 C 0.89199 0.1689 0.47341 0.0
C3199 C 0.8951 0.16423 0.458 0.0
C3200 C 0.8809 0.15757 0.50003 0.0
C3201 C 0.89723 0.17489 0.51018 0.0
C3202 C 0.86058 0.14414 0.50547 0.0
C3203 C 0.84229 0.12636 0.49502 0.0
C3204 C 0.83495 0.13039 0.48066 0.0
C3205 C 0.81786 0.11355 0.4708 0.0
C3206 C 0.80786 0.09261 0.47521 0.0
C3207 C 0.8149 0.08849 0.48952 0.0
C3208 C 0.832 0.10528 0.49943 0.0
C3209 C 0.86476 0.19255 0.56685 0.0
C3210 C 0.858 0.17647 0.57723 0.0
C3211 C 0.87004 0.18901 0.55194 0.0
C3212 C 0.86864 0.16933 0.54715 0.0
C3213 C 0.86188 0.15324 0.55747 0.0
C3214 C 0.85672 0.15682 0.57242 0.0
C3215 C 0.87364 0.16531 0.53119 0.0
C3216 C 0.85731 0.14807 0.52102 0.0
C3217 C 0.89393 0.17884 0.52576 0.0
C3218 C 0.91211 0.1967 0.53623 0.0
C3219 C 0.91932 0.1928 0.5507 0.0
C3220 C 0.93626 0.20973 0.56061 0.0
C3221 C 0.94626 0.23063 0.55613 0.0
C3222 C 0.93937 0.23462 0.5417 0.0
C3223 C 0.9224 0.21774 0.53176 0.0
H3224 H 0.95937 0.24372 0.56383 0.0
H3225 H 0.79463 0.07959 0.46755 0.0
H3226 H 0.91749 0.78398 0.47724 0.0
H3227 H 0.90748 0.7679 0.50206 0.0
H3228 H 0.84326 0.72291 0.47984 0.0
H3229 H 0.85316 0.7388 0.45506 0.0
H3230 H 0.84175 0.74183 0.50732 0.0
H3231 H 0.87987 0.70694 0.48876 0.0
H3232 H 0.91087 0.7054 0.4791 0.0
H3233 H 0.95052 0.74172 0.52183 0.0
H3234 H 0.91983 0.74374 0.53166 0.0
H3235 H 0.80106 0.66886 0.56493 0.0
H3236 H 0.81407 0.6853 0.54074 0.0
H3237 H 0.87682 0.72869 0.5659 0.0
H3238 H 0.8641 0.71189 0.59006 0.0
H3239 H 0.88044 0.71216 0.53771 0.0
H3240 H 0.84236 0.74642 0.55657 0.0
H3241 H 0.81157 0.74823 0.56635 0.0
H3242 H 0.77214 0.71364 0.52314 0.0
H3243 H 0.80262 0.71135 0.51319 0.0
C3244 C 0.90136 0.77043 0.4776 0.0
C3245 C 0.88607 0.76274 0.46423 0.0
C3246 C 0.89564 0.76129 0.49179 0.0
C3247 C 0.87461 0.74418 0.4928 0.0
C3248 C 0.85952 0.73618 0.47936 0.0
C3249 C 0.8652 0.74531 0.46522 0.0
C3250 C 0.86793 0.73511 0.50798 0.0
C3251 C 0.85005 0.73509 0.51386 0.0
C3252 C 0.87916 0.72692 0.51675 0.0
C3253 C 0.89761 0.72569 0.51087 0.0
C3254 C 0.89525 0.71476 0.49604 0.0
C3255 C 0.91276 0.71377 0.49055 0.0
C3256 C 0.93267 0.72351 0.49983 0.0
C3257 C 0.9351 0.73422 0.51464 0.0
C3258 C 0.91765 0.73527 0.52019 0.0
C3259 C 0.81767 0.6818 0.5653 0.0
C3260 C 0.83151 0.68911 0.57944 0.0
C3261 C 0.82504 0.69131 0.55149 0.0
C3262 C 0.84636 0.70838 0.55155 0.0
C3263 C 0.86029 0.71558 0.5656 0.0
C3264 C 0.85292 0.7061 0.57943 0.0
C3265 C 0.85408 0.71862 0.53692 0.0
C3266 C 0.87218 0.71893 0.53117 0.0
C3267 C 0.84309 0.72714 0.52827 0.0
C3268 C 0.82473 0.72854 0.5342 0.0
C3269 C 0.82708 0.73904 0.5492 0.0
C3270 C 0.80968 0.74018 0.55477 0.0
C3271 C 0.78989 0.73101 0.54539 0.0
C3272 C 0.78747 0.72072 0.5304 0.0
C3273 C 0.80481 0.71951 0.52479 0.0
H3274 H 0.77644 0.73191 0.54971 0.0
H3275 H 0.9462 0.72273 0.49555 0.0
loop_
_geom_bond_atom_site_label_1
_geom_bond_atom_site_label_2
_geom_bond_distance
_geom_bond_site_symmetry_2
_ccdc_geom_bond_type
H0 C5 0.930 . S
H1 C8 0.930 . S
H2 C10 0.930 . S
H3 C4 1.016 . S
C4 H3 1.016 . S
C4 N11 1.286 . S
C5 H0 0.930 . S
C5 C6 1.397 . S
C5 C7 1.361 . S
C6 C5 1.397 . S
C6 C10 1.390 . S
C7 C5 1.361 . S
C7 C8 1.393 . S
C7 N11 1.413 . S
C8 H1 0.930 . S
C8 C7 1.393 . S
C8 C9 1.399 . S
C9 C8 1.399 . S
C9 C10 1.381 . S
C10 H2 0.930 . S
C10 C6 1.390 . S
C10 C9 1.381 . S
N11 C4 1.286 . S
N11 C7 1.413 . S
H12 C17 0.930 . S
H13 C20 0.930 . S
H14 C22 0.930 . S
H15 C16 1.016 . S
C16 H15 1.016 . S
C16 N23 1.286 . S
C17 H12 0.930 . S
C17 C18 1.397 . S
C17 C19 1.361 . S
C18 C17 1.397 . S
C18 C22 1.390 . S
C19 C17 1.361 . S
C19 C20 1.393 . S
C19 N23 1.413 . S
C20 H13 0.930 . S
C20 C19 1.393 . S
C20 C21 1.399 . S
C21 C20 1.399 . S
C21 C22 1.381 . S
C22 H14 0.930 . S
C22 C18 1.390 . S
C22 C21 1.381 . S
N23 C16 1.286 . S
N23 C19 1.413 . S
H24 C29 0.930 . S
H25 C32 0.930 . S
H26 C34 0.930 . S
H27 C28 1.016 . S
C28 H27 1.016 . S
C28 N35 1.286 . S
C29 H24 0.930 . S
C29 C30 1.397 . S
C29 C31 1.361 . S
C30 C29 1.397 . S
C30 C34 1.390 . S
C31 C29 1.361 . S
C31 C32 1.393 . S
C31 N35 1.413 . S
C32 H25 0.930 . S
C32 C31 1.393 . S
C32 C33 1.399 . S
C33 C32 1.399 . S
C33 C34 1.381 . S
C34 H26 0.930 . S
C34 C30 1.390 . S
C34 C33 1.381 . S
N35 C28 1.286 . S
N35 C31 1.413 . S
H36 C41 0.930 . S
H37 C44 0.930 . S
H38 C46 0.930 . S
H39 C40 1.016 . S
C40 H39 1.016 . S
C40 N47 1.286 . S
C41 H36 0.930 . S
C41 C42 1.397 . S
C41 C43 1.361 . S
C42 C41 1.397 . S
C42 C46 1.390 . S
C43 C41 1.361 . S
C43 C44 1.393 . S
C43 N47 1.413 . S
C44 H37 0.930 . S
C44 C43 1.393 . S
C44 C45 1.399 . S
C45 C44 1.399 . S
C45 C46 1.381 . S
C46 H38 0.930 . S
C46 C42 1.390 . S
C46 C45 1.381 . S
N47 C40 1.286 . S
N47 C43 1.413 . S
H48 C53 0.930 . S
H49 C56 0.930 . S
H50 C58 0.930 . S
H51 C52 1.016 . S
C52 H51 1.016 . S
C52 N59 1.286 . S
C53 H48 0.930 . S
C53 C54 1.397 . S
C53 C55 1.361 . S
C54 C53 1.397 . S
C54 C58 1.390 . S
C55 C53 1.361 . S
C55 C56 1.393 . S
C55 N59 1.413 . S
C56 H49 0.930 . S
C56 C55 1.393 . S
C56 C57 1.399 . S
C57 C56 1.399 . S
C57 C58 1.381 . S
C58 H50 0.930 . S
C58 C54 1.390 . S
C58 C57 1.381 . S
N59 C52 1.286 . S
N59 C55 1.413 . S
H60 C65 0.930 . S
H61 C68 0.930 . S
H62 C70 0.930 . S
H63 C64 1.016 . S
C64 H63 1.016 . S
C64 N71 1.286 . S
C65 H60 0.930 . S
C65 C66 1.397 . S
C65 C67 1.361 . S
C66 C65 1.397 . S
C66 C70 1.390 . S
C67 C65 1.361 . S
C67 C68 1.393 . S
C67 N71 1.413 . S
C68 H61 0.930 . S
C68 C67 1.393 . S
C68 C69 1.399 . S
C69 C68 1.399 . S
C69 C70 1.381 . S
C70 H62 0.930 . S
C70 C66 1.390 . S
C70 C69 1.381 . S
N71 C64 1.286 . S
N71 C67 1.413 . S
H72 C77 0.930 . S
H73 C80 0.930 . S
H74 C82 0.930 . S
H75 C76 1.016 . S
C76 H75 1.016 . S
C76 N83 1.286 . S
C77 H72 0.930 . S
C77 C78 1.397 . S
C77 C79 1.361 . S
C78 C77 1.397 . S
C78 C82 1.390 . S
C79 C77 1.361 . S
C79 C80 1.393 . S
C79 N83 1.413 . S
C80 H73 0.930 . S
C80 C79 1.393 . S
C80 C81 1.399 . S
C81 C80 1.399 . S
C81 C82 1.381 . S
C82 H74 0.930 . S
C82 C78 1.390 . S
C82 C81 1.381 . S
N83 C76 1.286 . S
N83 C79 1.413 . S
H84 C89 0.930 . S
H85 C92 0.930 . S
H86 C94 0.930 . S
H87 C88 1.016 . S
C88 H87 1.016 . S
C88 N95 1.286 . S
C89 H84 0.930 . S
C89 C90 1.397 . S
C89 C91 1.361 . S
C90 C89 1.397 . S
C90 C94 1.390 . S
C91 C89 1.361 . S
C91 C92 1.393 . S
C91 N95 1.413 . S
C92 H85 0.930 . S
C92 C91 1.393 . S
C92 C93 1.399 . S
C93 C92 1.399 . S
C93 C94 1.381 . S
C94 H86 0.930 . S
C94 C90 1.390 . S
C94 C93 1.381 . S
N95 C88 1.286 . S
N95 C91 1.413 . S
H96 C101 0.930 . S
H97 C104 0.930 . S
H98 C106 0.930 . S
H99 C100 1.016 . S
C100 H99 1.016 . S
C100 N107 1.286 . S
C101 H96 0.930 . S
C101 C102 1.397 . S
C101 C103 1.361 . S
C102 C101 1.397 . S
C102 C106 1.390 . S
C103 C101 1.361 . S
C103 C104 1.393 . S
C103 N107 1.413 . S
C104 H97 0.930 . S
C104 C103 1.393 . S
C104 C105 1.399 . S
C105 C104 1.399 . S
C105 C106 1.381 . S
C106 H98 0.930 . S
C106 C102 1.390 . S
C106 C105 1.381 . S
N107 C100 1.286 . S
N107 C103 1.413 . S
H108 C113 0.930 . S
H109 C116 0.930 . S
H110 C118 0.930 . S
H111 C112 1.016 . S
C112 H111 1.016 . S
C112 N119 1.286 . S
C113 H108 0.930 . S
C113 C114 1.397 . S
C113 C115 1.361 . S
C114 C113 1.397 . S
C114 C118 1.390 . S
C115 C113 1.361 . S
C115 C116 1.393 . S
C115 N119 1.413 . S
C116 H109 0.930 . S
C116 C115 1.393 . S
C116 C117 1.399 . S
C117 C116 1.399 . S
C117 C118 1.381 . S
C118 H110 0.930 . S
C118 C114 1.390 . S
C118 C117 1.381 . S
N119 C112 1.286 . S
N119 C115 1.413 . S
H120 C125 0.930 . S
H121 C128 0.930 . S
H122 C130 0.930 . S
H123 C124 1.016 . S
C124 H123 1.016 . S
C124 N131 1.286 . S
C125 H120 0.930 . S
C125 C126 1.397 . S
C125 C127 1.361 . S
C126 C125 1.397 . S
C126 C130 1.390 . S
C127 C125 1.361 . S
C127 C128 1.393 . S
C127 N131 1.413 . S
C128 H121 0.930 . S
C128 C127 1.393 . S
C128 C129 1.399 . S
C129 C128 1.399 . S
C129 C130 1.381 . S
C130 H122 0.930 . S
C130 C126 1.390 . S
C130 C129 1.381 . S
N131 C124 1.286 . S
N131 C127 1.413 . S
H132 C137 0.930 . S
H133 C140 0.930 . S
H134 C142 0.930 . S
H135 C136 1.016 . S
C136 H135 1.016 . S
C136 N143 1.286 . S
C137 H132 0.930 . S
C137 C138 1.397 . S
C137 C139 1.361 . S
C138 C137 1.397 . S
C138 C142 1.390 . S
C139 C137 1.361 . S
C139 C140 1.393 . S
C139 N143 1.413 . S
C140 H133 0.930 . S
C140 C139 1.393 . S
C140 C141 1.399 . S
C141 C140 1.399 . S
C141 C142 1.381 . S
C142 H134 0.930 . S
C142 C138 1.390 . S
C142 C141 1.381 . S
N143 C136 1.286 . S
N143 C139 1.413 . S
H144 C149 0.930 . S
H145 C152 0.930 . S
H146 C154 0.930 . S
H147 C148 1.016 . S
C148 H147 1.016 . S
C148 N155 1.286 . S
C149 H144 0.930 . S
C149 C150 1.397 . S
C149 C151 1.361 . S
C150 C149 1.397 . S
C150 C154 1.390 . S
C151 C149 1.361 . S
C151 C152 1.393 . S
C151 N155 1.413 . S
C152 H145 0.930 . S
C152 C151 1.393 . S
C152 C153 1.399 . S
C153 C152 1.399 . S
C153 C154 1.381 . S
C154 H146 0.930 . S
C154 C150 1.390 . S
C154 C153 1.381 . S
N155 C148 1.286 . S
N155 C151 1.413 . S
H156 C161 0.930 . S
H157 C164 0.930 . S
H158 C166 0.930 . S
H159 C160 1.016 . S
C160 H159 1.016 . S
C160 N167 1.286 . S
C161 H156 0.930 . S
C161 C162 1.397 . S
C161 C163 1.361 . S
C162 C161 1.397 . S
C162 C166 1.390 . S
C163 C161 1.361 . S
C163 C164 1.393 . S
C163 N167 1.413 . S
C164 H157 0.930 . S
C164 C163 1.393 . S
C164 C165 1.399 . S
C165 C164 1.399 . S
C165 C166 1.381 . S
C166 H158 0.930 . S
C166 C162 1.390 . S
C166 C165 1.381 . S
N167 C160 1.286 . S
N167 C163 1.413 . S
H168 C173 0.930 . S
H169 C176 0.930 . S
H170 C178 0.930 . S
H171 C172 1.016 . S
C172 H171 1.016 . S
C172 N179 1.286 . S
C173 H168 0.930 . S
C173 C174 1.397 . S
C173 C175 1.361 . S
C174 C173 1.397 . S
C174 C178 1.390 . S
C175 C173 1.361 . S
C175 C176 1.393 . S
C175 N179 1.413 . S
C176 H169 0.930 . S
C176 C175 1.393 . S
C176 C177 1.399 . S
C177 C176 1.399 . S
C177 C178 1.381 . S
C178 H170 0.930 . S
C178 C174 1.390 . S
C178 C177 1.381 . S
N179 C172 1.286 . S
N179 C175 1.413 . S
H180 C185 0.930 . S
H181 C188 0.930 . S
H182 C190 0.930 . S
H183 C184 1.016 . S
C184 H183 1.016 . S
C184 N191 1.286 . S
C185 H180 0.930 . S
C185 C186 1.397 . S
C185 C187 1.361 . S
C186 C185 1.397 . S
C186 C190 1.390 . S
C187 C185 1.361 . S
C187 C188 1.393 . S
C187 N191 1.413 . S
C188 H181 0.930 . S
C188 C187 1.393 . S
C188 C189 1.399 . S
C189 C188 1.399 . S
C189 C190 1.381 . S
C190 H182 0.930 . S
C190 C186 1.390 . S
C190 C189 1.381 . S
N191 C184 1.286 . S
N191 C187 1.413 . S
H192 C197 0.930 . S
H193 C200 0.930 . S
H194 C202 0.930 . S
H195 C196 1.016 . S
C196 H195 1.016 . S
C196 N203 1.286 . S
C197 H192 0.930 . S
C197 C198 1.397 . S
C197 C199 1.361 . S
C198 C197 1.397 . S
C198 C202 1.390 . S
C199 C197 1.361 . S
C199 C200 1.393 . S
C199 N203 1.413 . S
C200 H193 0.930 . S
C200 C199 1.393 . S
C200 C201 1.399 . S
C201 C200 1.399 . S
C201 C202 1.381 . S
C202 H194 0.930 . S
C202 C198 1.390 . S
C202 C201 1.381 . S
N203 C196 1.286 . S
N203 C199 1.413 . S
H204 C209 0.930 . S
H205 C212 0.930 . S
H206 C214 0.930 . S
H207 C208 1.016 . S
C208 H207 1.016 . S
C208 N215 1.286 . S
C209 H204 0.930 . S
C209 C210 1.397 . S
C209 C211 1.361 . S
C210 C209 1.397 . S
C210 C214 1.390 . S
C211 C209 1.361 . S
C211 C212 1.393 . S
C211 N215 1.413 . S
C212 H205 0.930 . S
C212 C211 1.393 . S
C212 C213 1.399 . S
C213 C212 1.399 . S
C213 C214 1.381 . S
C214 H206 0.930 . S
C214 C210 1.390 . S
C214 C213 1.381 . S
N215 C208 1.286 . S
N215 C211 1.413 . S
Eu216 C225 2.828 1_565 S
Eu216 O227 2.392 1_556 S
Eu216 O229 2.418 . S
Eu216 O234 2.373 1_565 S
Eu216 O237 2.488 . S
Eu216 O238 2.471 1_565 S
Eu216 O239 2.349 1_566 S
Eu217 O226 2.373 1_545 S
Eu217 O230 2.488 . S
Eu217 O231 2.471 1_545 S
Eu217 O232 2.349 1_545 S
Eu217 O235 2.392 . S
Eu217 O236 2.418 . S
Eu217 C246 2.828 . S
C218 O236 1.244 . S
C218 O239 1.265 . S
C219 C220 1.379 . S
C219 C223 1.373 . S
C219 C225 1.505 . S
C220 C219 1.379 . S
C220 C222 1.369 . S
C220 H248 0.930 . S
C221 C223 1.383 . S
C221 C224 1.382 . S
C221 H249 0.934 1_545 S
C222 C220 1.369 . S
C222 C224 1.392 . S
C222 H250 0.930 . S
C223 C219 1.373 . S
C223 C221 1.383 . S
C223 H251 0.931 1_545 S
C224 C221 1.382 . S
C224 C222 1.392 . S
C225 Eu216 2.828 1_545 S
C225 C219 1.505 . S
C225 O237 1.249 1_545 S
C225 O238 1.244 . S
O226 Eu217 2.373 1_565 S
O226 C228 1.258 . S
O227 Eu216 2.392 1_554 S
O227 C228 1.242 . S
C228 O226 1.258 . S
C228 O227 1.242 . S
O229 Eu216 2.418 . S
O229 C233 1.244 1_556 S
O230 Eu217 2.488 . S
O230 C246 1.249 . S
O231 Eu217 2.471 1_565 S
O231 C246 1.244 1_565 S
O232 Eu217 2.349 1_565 S
O232 C233 1.265 . S
C233 O229 1.244 1_554 S
C233 O232 1.265 . S
O234 Eu216 2.373 1_545 S
O234 C247 1.258 1_556 S
O235 Eu217 2.392 . S
O235 C247 1.242 . S
O236 Eu217 2.418 . S
O236 C218 1.244 . S
O237 Eu216 2.488 . S
O237 C225 1.249 1_565 S
O238 Eu216 2.471 1_545 S
O238 C225 1.244 . S
O239 Eu216 2.349 1_544 S
O239 C218 1.265 . S
C240 C241 1.379 . S
C240 C244 1.373 1_565 S
C240 C246 1.505 1_565 S
C241 C240 1.379 . S
C241 C243 1.369 . S
C241 H252 0.930 . S
C242 C244 1.383 . S
C242 C245 1.382 1_545 S
C242 H253 0.930 . S
C243 C241 1.369 . S
C243 C245 1.392 . S
C243 H254 0.930 . S
C244 C240 1.373 1_545 S
C244 C242 1.383 . S
C244 H255 0.931 . S
C245 C242 1.382 1_565 S
C245 C243 1.392 . S
C246 Eu217 2.828 . S
C246 O230 1.249 . S
C246 O231 1.244 1_545 S
C246 C240 1.505 1_545 S
C247 O234 1.258 1_554 S
C247 O235 1.242 . S
H248 C220 0.930 . S
H249 C221 0.934 1_565 S
H250 C222 0.930 . S
H251 C223 0.931 1_565 S
H252 C241 0.930 . S
H253 C242 0.930 . S
H254 C243 0.930 . S
H255 C244 0.931 . S
Eu256 C265 2.828 . S
Eu256 O267 2.392 1_556 S
Eu256 O269 2.426 . S
Eu256 O274 2.373 1_455 S
Eu256 O277 2.488 . S
Eu256 O278 2.471 1_455 S
Eu256 O279 2.349 1_456 S
Eu257 O266 2.373 1_655 S
Eu257 O270 2.488 . S
Eu257 O271 2.471 1_655 S
Eu257 O272 2.349 1_655 S
Eu257 O275 2.392 . S
Eu257 O276 2.418 . S
Eu257 C286 2.828 1_655 S
C258 O276 1.244 . S
C258 O279 1.265 . S
C259 C260 1.379 . S
C259 C263 1.373 1_655 S
C259 C265 1.505 1_655 S
C260 C259 1.379 . S
C260 C262 1.369 . S
C260 H288 0.930 . S
C261 C263 1.383 1_655 S
C261 C264 1.382 . S
C261 H289 0.930 1_655 S
C262 C260 1.369 . S
C262 C264 1.392 . S
C262 H290 0.930 . S
C263 C259 1.373 1_455 S
C263 C261 1.383 1_455 S
C263 H291 0.931 . S
C264 C261 1.382 . S
C264 C262 1.392 . S
C265 Eu256 2.828 . S
C265 C259 1.505 1_455 S
C265 O277 1.249 . S
C265 O278 1.244 1_455 S
O266 Eu257 2.373 1_455 S
O266 C268 1.258 . S
O267 Eu256 2.392 1_554 S
O267 C268 1.242 . S
C268 O266 1.258 . S
C268 O267 1.242 . S
O269 Eu256 2.426 . S
O269 C273 1.213 1_556 S
O270 Eu257 2.488 . S
O270 C286 1.249 1_655 S
O271 Eu257 2.471 1_455 S
O271 C286 1.244 . S
O272 Eu257 2.349 1_455 S
O272 C273 1.265 . S
C273 O269 1.213 1_554 S
C273 O272 1.265 . S
O274 Eu256 2.373 1_655 S
O274 C287 1.258 . S
O275 Eu257 2.392 . S
O275 C287 1.242 1_554 S
O276 Eu257 2.418 . S
O276 C258 1.244 . S
O277 Eu256 2.488 . S
O277 C265 1.249 . S
O278 Eu256 2.471 1_655 S
O278 C265 1.244 1_655 S
O279 Eu256 2.349 1_654 S
O279 C258 1.265 . S
C280 C281 1.379 . S
C280 C284 1.373 . S
C280 C286 1.505 . S
C281 C280 1.379 . S
C281 C283 1.369 . S
C281 H292 0.930 . S
C282 C284 1.383 . S
C282 C285 1.382 . S
C282 H293 0.930 . S
C283 C281 1.369 . S
C283 C285 1.392 . S
C283 H294 0.930 . S
C284 C280 1.373 . S
C284 C282 1.383 . S
C284 H295 0.931 1_455 S
C285 C282 1.382 . S
C285 C283 1.392 . S
C286 Eu257 2.828 1_455 S
C286 O270 1.249 1_455 S
C286 O271 1.244 . S
C286 C280 1.505 . S
C287 O274 1.258 . S
C287 O275 1.242 1_556 S
H288 C260 0.930 . S
H289 C261 0.930 1_455 S
H290 C262 0.930 . S
H291 C263 0.931 . S
H292 C281 0.930 . S
H293 C282 0.930 . S
H294 C283 0.930 . S
H295 C284 0.931 1_655 S
Eu296 C305 2.828 . S
Eu296 O307 2.392 . S
Eu296 O309 2.418 . S
Eu296 O314 2.373 . S
Eu296 O317 2.488 . S
Eu296 O318 2.471 . S
Eu296 O319 2.349 . S
Eu297 O306 2.373 . S
Eu297 O310 2.488 . S
Eu297 O311 2.471 . S
Eu297 O312 2.349 1_556 S
Eu297 O315 2.392 1_556 S
Eu297 O316 2.418 1_556 S
Eu297 C326 2.828 . S
C298 O316 1.244 . S
C298 O319 1.265 . S
C299 C300 1.379 . S
C299 C303 1.373 . S
C299 C305 1.505 . S
C300 C299 1.379 . S
C300 C302 1.369 . S
C300 H328 0.930 . S
C301 C303 1.383 . S
C301 C304 1.382 . S
C301 H329 0.930 . S
C302 C300 1.369 . S
C302 C304 1.392 . S
C302 H330 0.930 . S
C303 C299 1.373 . S
C303 C301 1.383 . S
C303 H331 0.931 . S
C304 C301 1.382 . S
C304 C302 1.392 . S
C305 Eu296 2.828 . S
C305 C299 1.505 . S
C305 O317 1.249 . S
C305 O318 1.244 . S
O306 Eu297 2.373 . S
O306 C308 1.258 1_556 S
O307 Eu296 2.392 . S
O307 C308 1.242 . S
C308 O306 1.258 1_554 S
C308 O307 1.242 . S
O309 Eu296 2.418 . S
O309 C313 1.244 . S
O310 Eu297 2.488 . S
O310 C326 1.249 . S
O311 Eu297 2.471 . S
O311 C326 1.244 . S
O312 Eu297 2.349 1_554 S
O312 C313 1.265 . S
C313 O309 1.244 . S
C313 O312 1.265 . S
O314 Eu296 2.373 . S
O314 C327 1.258 . S
O315 Eu297 2.392 1_554 S
O315 C327 1.242 . S
O316 Eu297 2.418 1_554 S
O316 C298 1.244 . S
O317 Eu296 2.488 . S
O317 C305 1.249 . S
O318 Eu296 2.471 . S
O318 C305 1.244 . S
O319 Eu296 2.349 . S
O319 C298 1.265 . S
C320 C321 1.379 . S
C320 C324 1.373 . S
C320 C326 1.505 . S
C321 C320 1.379 . S
C321 C323 1.369 . S
C321 H332 0.930 . S
C322 C324 1.383 . S
C322 C325 1.382 . S
C322 H333 0.930 . S
C323 C321 1.369 . S
C323 C325 1.392 . S
C323 H334 0.930 . S
C324 C320 1.373 . S
C324 C322 1.383 . S
C324 H335 0.931 . S
C325 C322 1.382 . S
C325 C323 1.392 . S
C326 Eu297 2.828 . S
C326 O310 1.249 . S
C326 O311 1.244 . S
C326 C320 1.505 . S
C327 O314 1.258 . S
C327 O315 1.242 . S
H328 C300 0.930 . S
H329 C301 0.930 . S
H330 C302 0.930 . S
H331 C303 0.931 . S
H332 C321 0.930 . S
H333 C322 0.930 . S
H334 C323 0.930 . S
H335 C324 0.931 . S
Eu336 C345 2.828 . S
Eu336 O347 2.392 . S
Eu336 O349 2.418 . S
Eu336 O354 2.373 . S
Eu336 O357 2.488 . S
Eu336 O358 2.471 . S
Eu336 O359 2.349 . S
Eu337 O346 2.373 . S
Eu337 O350 2.488 . S
Eu337 O351 2.471 . S
Eu337 O352 2.349 . S
Eu337 O355 2.392 . S
Eu337 O356 2.418 . S
Eu337 C366 2.828 . S
C338 O356 1.244 . S
C338 O359 1.265 . S
C339 C340 1.379 . S
C339 C343 1.373 . S
C339 C345 1.505 . S
C340 C339 1.379 . S
C340 C342 1.369 . S
C340 H368 0.930 . S
C341 C343 1.383 . S
C341 C344 1.382 . S
C341 H369 0.930 . S
C342 C340 1.369 . S
C342 C344 1.392 . S
C342 H370 0.930 . S
C343 C339 1.373 . S
C343 C341 1.383 . S
C343 H371 0.931 . S
C344 C341 1.382 . S
C344 C342 1.392 . S
C345 Eu336 2.828 . S
C345 C339 1.505 . S
C345 O357 1.249 . S
C345 O358 1.244 . S
O346 Eu337 2.373 . S
O346 C348 1.258 . S
O347 Eu336 2.392 . S
O347 C348 1.242 . S
C348 O346 1.258 . S
C348 O347 1.242 . S
O349 Eu336 2.418 . S
O349 C353 1.244 . S
O350 Eu337 2.488 . S
O350 C366 1.249 . S
O351 Eu337 2.471 . S
O351 C366 1.244 . S
O352 Eu337 2.349 . S
O352 C353 1.265 . S
C353 O349 1.244 . S
C353 O352 1.265 . S
O354 Eu336 2.373 . S
O354 C367 1.258 . S
O355 Eu337 2.392 . S
O355 C367 1.242 . S
O356 Eu337 2.418 . S
O356 C338 1.244 . S
O357 Eu336 2.488 . S
O357 C345 1.249 . S
O358 Eu336 2.471 . S
O358 C345 1.244 . S
O359 Eu336 2.349 . S
O359 C338 1.265 . S
C360 C361 1.379 . S
C360 C364 1.373 . S
C360 C366 1.505 . S
C361 C360 1.379 . S
C361 C363 1.369 . S
C361 H372 0.930 . S
C362 C364 1.383 . S
C362 C365 1.382 . S
C362 H373 0.930 . S
C363 C361 1.369 . S
C363 C365 1.392 . S
C363 H374 0.930 . S
C364 C360 1.373 . S
C364 C362 1.383 . S
C364 H375 0.931 . S
C365 C362 1.382 . S
C365 C363 1.392 . S
C366 Eu337 2.828 . S
C366 O350 1.249 . S
C366 O351 1.244 . S
C366 C360 1.505 . S
C367 O354 1.258 . S
C367 O355 1.242 . S
H368 C340 0.930 . S
H369 C341 0.930 . S
H370 C342 0.930 . S
H371 C343 0.931 . S
H372 C361 0.930 . S
H373 C362 0.930 . S
H374 C363 0.930 . S
H375 C364 0.931 . S
Eu376 C385 2.828 . S
Eu376 O387 2.392 . S
Eu376 O389 2.418 . S
Eu376 O394 2.373 . S
Eu376 O397 2.488 . S
Eu376 O398 2.471 . S
Eu376 O399 2.349 . S
Eu377 O386 2.373 . S
Eu377 O390 2.488 . S
Eu377 O391 2.471 . S
Eu377 O392 2.349 . S
Eu377 O395 2.392 . S
Eu377 O396 2.418 . S
Eu377 C406 2.828 . S
C378 O396 1.244 . S
C378 O399 1.265 . S
C379 C380 1.379 . S
C379 C383 1.373 . S
C379 C385 1.505 . S
C380 C379 1.379 . S
C380 C382 1.369 . S
C380 H408 0.930 . S
C381 C383 1.383 . S
C381 C384 1.382 . S
C381 H409 0.930 . S
C382 C380 1.369 . S
C382 C384 1.392 . S
C382 H410 0.930 . S
C383 C379 1.373 . S
C383 C381 1.383 . S
C383 H411 0.931 . S
C384 C381 1.382 . S
C384 C382 1.392 . S
C385 Eu376 2.828 . S
C385 C379 1.505 . S
C385 O397 1.249 . S
C385 O398 1.244 . S
O386 Eu377 2.373 . S
O386 C388 1.258 . S
O387 Eu376 2.392 . S
O387 C388 1.242 . S
C388 O386 1.258 . S
C388 O387 1.242 . S
O389 Eu376 2.418 . S
O389 C393 1.244 . S
O390 Eu377 2.488 . S
O390 C406 1.249 . S
O391 Eu377 2.471 . S
O391 C406 1.244 . S
O392 Eu377 2.349 . S
O392 C393 1.265 . S
C393 O389 1.244 . S
C393 O392 1.265 . S
O394 Eu376 2.373 . S
O394 C407 1.258 . S
O395 Eu377 2.392 . S
O395 C407 1.242 . S
O396 Eu377 2.418 . S
O396 C378 1.244 . S
O397 Eu376 2.488 . S
O397 C385 1.249 . S
O398 Eu376 2.471 . S
O398 C385 1.244 . S
O399 Eu376 2.349 . S
O399 C378 1.265 . S
C400 C401 1.379 . S
C400 C404 1.373 . S
C400 C406 1.505 . S
C401 C400 1.379 . S
C401 C403 1.369 . S
C401 H412 0.930 . S
C402 C404 1.383 . S
C402 C405 1.382 . S
C402 H413 0.930 . S
C403 C401 1.369 . S
C403 C405 1.392 . S
C403 H414 0.930 . S
C404 C400 1.373 . S
C404 C402 1.383 . S
C404 H415 0.931 . S
C405 C402 1.382 . S
C405 C403 1.392 . S
C406 Eu377 2.828 . S
C406 O390 1.249 . S
C406 O391 1.244 . S
C406 C400 1.505 . S
C407 O394 1.258 . S
C407 O395 1.242 . S
H408 C380 0.930 . S
H409 C381 0.930 . S
H410 C382 0.930 . S
H411 C383 0.931 . S
H412 C401 0.930 . S
H413 C402 0.930 . S
H414 C403 0.930 . S
H415 C404 0.931 . S
Eu416 C425 2.828 . S
Eu416 O427 2.392 . S
Eu416 O429 2.418 . S
Eu416 O434 2.373 . S
Eu416 O437 2.488 . S
Eu416 O438 2.471 . S
Eu416 O439 2.349 . S
Eu417 O426 2.373 . S
Eu417 O430 2.488 . S
Eu417 O431 2.471 . S
Eu417 O432 2.349 . S
Eu417 O435 2.392 . S
Eu417 O436 2.418 . S
Eu417 C446 2.828 . S
C418 O436 1.244 . S
C418 O439 1.265 . S
C419 C420 1.379 . S
C419 C423 1.373 . S
C419 C425 1.505 . S
C420 C419 1.379 . S
C420 C422 1.369 . S
C420 H448 0.930 . S
C421 C423 1.383 . S
C421 C424 1.382 . S
C421 H449 0.930 . S
C422 C420 1.369 . S
C422 C424 1.392 . S
C422 H450 0.930 . S
C423 C419 1.373 . S
C423 C421 1.383 . S
C423 H451 0.931 . S
C424 C421 1.382 . S
C424 C422 1.392 . S
C425 Eu416 2.828 . S
C425 C419 1.505 . S
C425 O437 1.249 . S
C425 O438 1.244 . S
O426 Eu417 2.373 . S
O426 C428 1.258 . S
O427 Eu416 2.392 . S
O427 C428 1.242 . S
C428 O426 1.258 . S
C428 O427 1.242 . S
O429 Eu416 2.418 . S
O429 C433 1.244 . S
O430 Eu417 2.488 . S
O430 C446 1.249 . S
O431 Eu417 2.471 . S
O431 C446 1.244 . S
O432 Eu417 2.349 . S
O432 C433 1.265 . S
C433 O429 1.244 . S
C433 O432 1.265 . S
O434 Eu416 2.373 . S
O434 C447 1.258 . S
O435 Eu417 2.392 . S
O435 C447 1.242 . S
O436 Eu417 2.418 . S
O436 C418 1.244 . S
O437 Eu416 2.488 . S
O437 C425 1.249 . S
O438 Eu416 2.471 . S
O438 C425 1.244 . S
O439 Eu416 2.349 . S
O439 C418 1.265 . S
C440 C441 1.379 . S
C440 C444 1.373 . S
C440 C446 1.505 . S
C441 C440 1.379 . S
C441 C443 1.369 . S
C441 H452 0.930 . S
C442 C444 1.383 . S
C442 C445 1.382 . S
C442 H453 0.930 . S
C443 C441 1.369 . S
C443 C445 1.392 . S
C443 H454 0.930 . S
C444 C440 1.373 . S
C444 C442 1.383 . S
C444 H455 0.931 . S
C445 C442 1.382 . S
C445 C443 1.392 . S
C446 Eu417 2.828 . S
C446 O430 1.249 . S
C446 O431 1.244 . S
C446 C440 1.505 . S
C447 O434 1.258 . S
C447 O435 1.242 . S
H448 C420 0.930 . S
H449 C421 0.930 . S
H450 C422 0.930 . S
H451 C423 0.931 . S
H452 C441 0.930 . S
H453 C442 0.930 . S
H454 C443 0.930 . S
H455 C444 0.931 . S
Eu456 C465 2.828 . S
Eu456 O467 2.392 . S
Eu456 O469 2.418 . S
Eu456 O474 2.373 . S
Eu456 O477 2.488 . S
Eu456 O478 2.471 . S
Eu456 O479 2.349 . S
Eu457 O466 2.373 . S
Eu457 O470 2.488 . S
Eu457 O471 2.471 . S
Eu457 O472 2.349 . S
Eu457 O475 2.392 . S
Eu457 O476 2.418 . S
Eu457 C486 2.828 . S
C458 O476 1.244 . S
C458 O479 1.265 . S
C459 C460 1.379 . S
C459 C463 1.373 . S
C459 C465 1.505 . S
C460 C459 1.379 . S
C460 C462 1.369 . S
C460 H488 0.930 . S
C461 C463 1.383 . S
C461 C464 1.382 . S
C461 H489 0.930 . S
C462 C460 1.369 . S
C462 C464 1.392 . S
C462 H490 0.930 . S
C463 C459 1.373 . S
C463 C461 1.383 . S
C463 H491 0.931 . S
C464 C461 1.382 . S
C464 C462 1.392 . S
C465 Eu456 2.828 . S
C465 C459 1.505 . S
C465 O477 1.249 . S
C465 O478 1.244 . S
O466 Eu457 2.373 . S
O466 C468 1.258 . S
O467 Eu456 2.392 . S
O467 C468 1.242 . S
C468 O466 1.258 . S
C468 O467 1.242 . S
O469 Eu456 2.418 . S
O469 C473 1.244 . S
O470 Eu457 2.488 . S
O470 C486 1.249 . S
O471 Eu457 2.471 . S
O471 C486 1.244 . S
O472 Eu457 2.349 . S
O472 C473 1.265 . S
C473 O469 1.244 . S
C473 O472 1.265 . S
O474 Eu456 2.373 . S
O474 C487 1.258 . S
O475 Eu457 2.392 . S
O475 C487 1.242 . S
O476 Eu457 2.418 . S
O476 C458 1.244 . S
O477 Eu456 2.488 . S
O477 C465 1.249 . S
O478 Eu456 2.471 . S
O478 C465 1.244 . S
O479 Eu456 2.349 . S
O479 C458 1.265 . S
C480 C481 1.379 . S
C480 C484 1.373 . S
C480 C486 1.505 . S
C481 C480 1.379 . S
C481 C483 1.369 . S
C481 H492 0.930 . S
C482 C484 1.383 . S
C482 C485 1.382 . S
C482 H493 0.930 . S
C483 C481 1.369 . S
C483 C485 1.392 . S
C483 H494 0.930 . S
C484 C480 1.373 . S
C484 C482 1.383 . S
C484 H495 0.931 . S
C485 C482 1.382 . S
C485 C483 1.392 . S
C486 Eu457 2.828 . S
C486 O470 1.249 . S
C486 O471 1.244 . S
C486 C480 1.505 . S
C487 O474 1.258 . S
C487 O475 1.242 . S
H488 C460 0.930 . S
H489 C461 0.930 . S
H490 C462 0.930 . S
H491 C463 0.931 . S
H492 C481 0.930 . S
H493 C482 0.930 . S
H494 C483 0.930 . S
H495 C484 0.931 . S
Eu496 C505 2.828 . S
Eu496 O507 2.392 . S
Eu496 O509 2.418 . S
Eu496 O514 2.373 . S
Eu496 O517 2.488 . S
Eu496 O518 2.471 . S
Eu496 O519 2.349 . S
Eu497 O506 2.373 . S
Eu497 O510 2.488 . S
Eu497 O511 2.471 . S
Eu497 O512 2.349 . S
Eu497 O515 2.392 . S
Eu497 O516 2.418 . S
Eu497 C526 2.828 . S
C498 O516 1.244 . S
C498 O519 1.265 . S
C499 C500 1.379 . S
C499 C503 1.373 . S
C499 C505 1.505 . S
C500 C499 1.379 . S
C500 C502 1.369 . S
C500 H528 0.930 . S
C501 C503 1.383 . S
C501 C504 1.382 . S
C501 H529 0.930 . S
C502 C500 1.369 . S
C502 C504 1.392 . S
C502 H530 0.930 . S
C503 C499 1.373 . S
C503 C501 1.383 . S
C503 H531 0.931 . S
C504 C501 1.382 . S
C504 C502 1.392 . S
C505 Eu496 2.828 . S
C505 C499 1.505 . S
C505 O517 1.249 . S
C505 O518 1.244 . S
O506 Eu497 2.373 . S
O506 C508 1.258 . S
O507 Eu496 2.392 . S
O507 C508 1.242 . S
C508 O506 1.258 . S
C508 O507 1.242 . S
O509 Eu496 2.418 . S
O509 C513 1.244 . S
O510 Eu497 2.488 . S
O510 C526 1.249 . S
O511 Eu497 2.471 . S
O511 C526 1.244 . S
O512 Eu497 2.349 . S
O512 C513 1.265 . S
C513 O509 1.244 . S
C513 O512 1.265 . S
O514 Eu496 2.373 . S
O514 C527 1.258 . S
O515 Eu497 2.392 . S
O515 C527 1.242 . S
O516 Eu497 2.418 . S
O516 C498 1.244 . S
O517 Eu496 2.488 . S
O517 C505 1.249 . S
O518 Eu496 2.471 . S
O518 C505 1.244 . S
O519 Eu496 2.349 . S
O519 C498 1.265 . S
C520 C521 1.379 . S
C520 C524 1.373 . S
C520 C526 1.505 . S
C521 C520 1.379 . S
C521 C523 1.369 . S
C521 H532 0.930 . S
C522 C524 1.383 . S
C522 C525 1.382 . S
C522 H533 0.930 . S
C523 C521 1.369 . S
C523 C525 1.392 . S
C523 H534 0.930 . S
C524 C520 1.373 . S
C524 C522 1.383 . S
C524 H535 0.931 . S
C525 C522 1.382 . S
C525 C523 1.392 . S
C526 Eu497 2.828 . S
C526 O510 1.249 . S
C526 O511 1.244 . S
C526 C520 1.505 . S
C527 O514 1.258 . S
C527 O515 1.242 . S
H528 C500 0.930 . S
H529 C501 0.930 . S
H530 C502 0.930 . S
H531 C503 0.931 . S
H532 C521 0.930 . S
H533 C522 0.930 . S
H534 C523 0.930 . S
H535 C524 0.931 . S
Eu536 C545 2.828 . S
Eu536 O547 2.392 . S
Eu536 O549 2.418 . S
Eu536 O554 2.373 . S
Eu536 O557 2.488 . S
Eu536 O558 2.471 . S
Eu536 O559 2.349 . S
Eu537 O546 2.373 . S
Eu537 O550 2.488 . S
Eu537 O551 2.471 . S
Eu537 O552 2.349 . S
Eu537 O555 2.392 . S
Eu537 O556 2.418 . S
Eu537 C566 2.828 . S
C538 O556 1.244 . S
C538 O559 1.265 . S
C539 C540 1.379 . S
C539 C543 1.373 . S
C539 C545 1.505 . S
C540 C539 1.379 . S
C540 C542 1.369 . S
C540 H568 0.930 . S
C541 C543 1.383 . S
C541 C544 1.382 . S
C541 H569 0.930 . S
C542 C540 1.369 . S
C542 C544 1.392 . S
C542 H570 0.930 . S
C543 C539 1.373 . S
C543 C541 1.383 . S
C543 H571 0.931 . S
C544 C541 1.382 . S
C544 C542 1.392 . S
C545 Eu536 2.828 . S
C545 C539 1.505 . S
C545 O557 1.249 . S
C545 O558 1.244 . S
O546 Eu537 2.373 . S
O546 C548 1.258 . S
O547 Eu536 2.392 . S
O547 C548 1.242 . S
C548 O546 1.258 . S
C548 O547 1.242 . S
O549 Eu536 2.418 . S
O549 C553 1.244 . S
O550 Eu537 2.488 . S
O550 C566 1.249 . S
O551 Eu537 2.471 . S
O551 C566 1.244 . S
O552 Eu537 2.349 . S
O552 C553 1.265 . S
C553 O549 1.244 . S
C553 O552 1.265 . S
O554 Eu536 2.373 . S
O554 C567 1.258 . S
O555 Eu537 2.392 . S
O555 C567 1.242 . S
O556 Eu537 2.418 . S
O556 C538 1.244 . S
O557 Eu536 2.488 . S
O557 C545 1.249 . S
O558 Eu536 2.471 . S
O558 C545 1.244 . S
O559 Eu536 2.349 . S
O559 C538 1.265 . S
C560 C561 1.379 . S
C560 C564 1.373 . S
C560 C566 1.505 . S
C561 C560 1.379 . S
C561 C563 1.369 . S
C561 H572 0.930 . S
C562 C564 1.383 . S
C562 C565 1.382 . S
C562 H573 0.930 . S
C563 C561 1.369 . S
C563 C565 1.392 . S
C563 H574 0.930 . S
C564 C560 1.373 . S
C564 C562 1.383 . S
C564 H575 0.931 . S
C565 C562 1.382 . S
C565 C563 1.392 . S
C566 Eu537 2.828 . S
C566 O550 1.249 . S
C566 O551 1.244 . S
C566 C560 1.505 . S
C567 O554 1.258 . S
C567 O555 1.242 . S
H568 C540 0.930 . S
H569 C541 0.930 . S
H570 C542 0.930 . S
H571 C543 0.931 . S
H572 C561 0.930 . S
H573 C562 0.930 . S
H574 C563 0.930 . S
H575 C564 0.931 . S
H576 C594 0.951 . S
H577 C596 0.951 . S
H578 C598 0.950 . S
H579 C599 0.950 . S
H580 C601 0.950 . S
H581 C604 0.950 . S
H582 C605 0.950 . S
H583 C607 0.950 . S
H584 C608 0.950 . S
H585 C609 0.951 . S
H586 C611 0.951 . S
H587 C613 0.950 . S
H588 C614 0.950 . S
H589 C616 0.950 . S
H590 C619 0.950 . S
H591 C620 0.950 . S
H592 C622 0.950 . S
H593 C623 0.950 . S
C594 H576 0.951 . S
C594 C595 1.366 . S
C594 C596 1.388 . S
C595 C594 1.366 . S
C595 C599 1.385 . S
C596 H577 0.951 . S
C596 C594 1.388 . S
C596 C597 1.366 . S
C597 C596 1.366 . S
C597 C598 1.414 . S
C597 C600 1.499 . S
C598 H578 0.950 . S
C598 C597 1.414 . S
C598 C599 1.374 . S
C599 H579 0.950 . S
C599 C595 1.385 . S
C599 C598 1.374 . S
C600 C597 1.499 . S
C600 C601 1.373 . S
C600 C602 1.389 . S
C601 H580 0.950 . S
C601 C600 1.373 . S
C601 C617 1.377 . S
C602 C600 1.389 . S
C602 C603 1.524 . S
C602 C616 1.377 . S
C603 C602 1.524 . S
C603 C604 1.397 . S
C603 C608 1.363 . S
C604 H581 0.950 . S
C604 C603 1.397 . S
C604 C605 1.334 . S
C605 H582 0.950 . S
C605 C604 1.334 . S
C605 C606 1.287 . S
C606 C605 1.287 . S
C606 C607 1.524 . S
C606 H625 0.913 . S
C607 H583 0.950 . S
C607 C606 1.524 . S
C607 C608 1.415 . S
C608 H584 0.950 . S
C608 C603 1.363 . S
C608 C607 1.415 . S
C609 H585 0.951 . S
C609 C610 1.366 . S
C609 C611 1.388 . S
C610 C609 1.366 . S
C610 C614 1.385 . S
C611 H586 0.951 . S
C611 C609 1.388 . S
C611 C612 1.366 . S
C612 C611 1.366 . S
C612 C613 1.414 . S
C612 C615 1.499 . S
C613 H587 0.950 . S
C613 C612 1.414 . S
C613 C614 1.374 . S
C614 H588 0.950 . S
C614 C610 1.385 . S
C614 C613 1.374 . S
C615 C612 1.499 . S
C615 C616 1.373 . S
C615 C617 1.389 . S
C616 H589 0.950 . S
C616 C602 1.377 . S
C616 C615 1.373 . S
C617 C601 1.377 . S
C617 C615 1.389 . S
C617 C618 1.524 . S
C618 C617 1.524 . S
C618 C619 1.397 . S
C618 C623 1.363 . S
C619 H590 0.950 . S
C619 C618 1.397 . S
C619 C620 1.334 1_554 S
C620 H591 0.950 . S
C620 C619 1.334 1_556 S
C620 C621 1.287 . S
C621 C620 1.287 . S
C621 C622 1.524 1_556 S
C621 H624 0.999 . S
C622 H592 0.950 . S
C622 C621 1.524 1_554 S
C622 C623 1.415 . S
C623 H593 0.950 . S
C623 C618 1.363 . S
C623 C622 1.415 . S
H624 C621 0.999 . S
H625 C606 0.913 . S
H626 C644 0.951 . S
H627 C646 0.951 . S
H628 C648 0.950 . S
H629 C649 0.950 . S
H630 C651 0.950 . S
H631 C654 0.950 . S
H632 C655 0.950 . S
H633 C657 0.950 . S
H634 C658 0.950 . S
H635 C659 0.951 . S
H636 C661 0.951 . S
H637 C663 0.950 . S
H638 C664 0.950 . S
H639 C666 0.950 . S
H640 C669 0.950 . S
H641 C670 0.950 . S
H642 C672 0.950 . S
H643 C673 0.950 . S
C644 H626 0.951 . S
C644 C645 1.366 . S
C644 C646 1.388 . S
C645 C644 1.366 . S
C645 C649 1.385 . S
C646 H627 0.951 . S
C646 C644 1.388 . S
C646 C647 1.366 . S
C647 C646 1.366 . S
C647 C648 1.414 . S
C647 C650 1.499 . S
C648 H628 0.950 . S
C648 C647 1.414 . S
C648 C649 1.374 . S
C649 H629 0.950 . S
C649 C645 1.385 . S
C649 C648 1.374 . S
C650 C647 1.499 . S
C650 C651 1.373 . S
C650 C652 1.389 . S
C651 H630 0.950 . S
C651 C650 1.373 . S
C651 C667 1.377 . S
C652 C650 1.389 . S
C652 C653 1.524 . S
C652 C666 1.377 . S
C653 C652 1.524 . S
C653 C654 1.397 . S
C653 C658 1.363 . S
C654 H631 0.950 . S
C654 C653 1.397 . S
C654 C655 1.334 . S
C655 H632 0.950 . S
C655 C654 1.334 . S
C655 C656 1.287 . S
C656 C655 1.287 . S
C656 C657 1.524 . S
C656 H675 0.913 . S
C657 H633 0.950 . S
C657 C656 1.524 . S
C657 C658 1.415 . S
C658 H634 0.950 . S
C658 C653 1.363 . S
C658 C657 1.415 . S
C659 H635 0.951 . S
C659 C660 1.366 . S
C659 C661 1.388 . S
C660 C659 1.366 . S
C660 C664 1.385 . S
C661 H636 0.951 . S
C661 C659 1.388 . S
C661 C662 1.366 . S
C662 C661 1.366 . S
C662 C663 1.414 . S
C662 C665 1.499 . S
C663 H637 0.950 . S
C663 C662 1.414 . S
C663 C664 1.374 . S
C664 H638 0.950 . S
C664 C660 1.385 . S
C664 C663 1.374 . S
C665 C662 1.499 . S
C665 C666 1.373 . S
C665 C667 1.389 . S
C666 H639 0.950 . S
C666 C652 1.377 . S
C666 C665 1.373 . S
C667 C651 1.377 . S
C667 C665 1.389 . S
C667 C668 1.524 . S
C668 C667 1.524 . S
C668 C669 1.397 . S
C668 C673 1.363 . S
C669 H640 0.950 . S
C669 C668 1.397 . S
C669 C670 1.334 . S
C670 H641 0.950 . S
C670 C669 1.334 . S
C670 C671 1.287 . S
C671 C670 1.287 . S
C671 C672 1.524 . S
C671 H674 0.999 . S
C672 H642 0.950 . S
C672 C671 1.524 . S
C672 C673 1.415 . S
C673 H643 0.950 . S
C673 C668 1.363 . S
C673 C672 1.415 . S
H674 C671 0.999 . S
H675 C656 0.913 . S
H676 C694 0.951 . S
H677 C696 0.951 . S
H678 C698 0.950 . S
H679 C699 0.950 . S
H680 C701 0.950 . S
H681 C704 0.950 . S
H682 C705 0.950 . S
H683 C707 0.950 . S
H684 C708 0.950 . S
H685 C709 0.951 . S
H686 C711 0.951 . S
H687 C713 0.950 . S
H688 C714 0.950 . S
H689 C716 0.950 . S
H690 C719 0.950 . S
H691 C720 0.950 . S
H692 C722 0.950 . S
H693 C723 0.950 . S
C694 H676 0.951 . S
C694 C695 1.366 . S
C694 C696 1.388 . S
C695 C694 1.366 . S
C695 C699 1.385 . S
C696 H677 0.951 . S
C696 C694 1.388 . S
C696 C697 1.366 . S
C697 C696 1.366 . S
C697 C698 1.414 . S
C697 C700 1.499 . S
C698 H678 0.950 . S
C698 C697 1.414 . S
C698 C699 1.374 . S
C699 H679 0.950 . S
C699 C695 1.385 . S
C699 C698 1.374 . S
C700 C697 1.499 . S
C700 C701 1.373 . S
C700 C702 1.389 . S
C701 H680 0.950 . S
C701 C700 1.373 . S
C701 C717 1.377 . S
C702 C700 1.389 . S
C702 C703 1.524 . S
C702 C716 1.377 . S
C703 C702 1.524 . S
C703 C704 1.397 . S
C703 C708 1.363 . S
C704 H681 0.950 . S
C704 C703 1.397 . S
C704 C705 1.334 1_554 S
C705 H682 0.950 . S
C705 C704 1.334 1_556 S
C705 C706 1.287 . S
C706 C705 1.287 . S
C706 C707 1.524 . S
C706 H725 0.913 . S
C707 H683 0.950 . S
C707 C706 1.524 . S
C707 C708 1.415 1_556 S
C708 H684 0.950 . S
C708 C703 1.363 . S
C708 C707 1.415 1_554 S
C709 H685 0.951 . S
C709 C710 1.366 . S
C709 C711 1.388 . S
C710 C709 1.366 . S
C710 C714 1.385 . S
C711 H686 0.951 . S
C711 C709 1.388 . S
C711 C712 1.366 . S
C712 C711 1.366 . S
C712 C713 1.414 . S
C712 C715 1.499 . S
C713 H687 0.950 . S
C713 C712 1.414 . S
C713 C714 1.374 . S
C714 H688 0.950 . S
C714 C710 1.385 . S
C714 C713 1.374 . S
C715 C712 1.499 . S
C715 C716 1.373 . S
C715 C717 1.389 . S
C716 H689 0.950 . S
C716 C702 1.377 . S
C716 C715 1.373 . S
C717 C701 1.377 . S
C717 C715 1.389 . S
C717 C718 1.524 . S
C718 C717 1.524 . S
C718 C719 1.397 . S
C718 C723 1.363 . S
C719 H690 0.950 . S
C719 C718 1.397 . S
C719 C720 1.334 . S
C720 H691 0.950 . S
C720 C719 1.334 . S
C720 C721 1.287 . S
C721 C720 1.287 . S
C721 C722 1.524 . S
C721 H724 0.999 . S
C722 H692 0.950 . S
C722 C721 1.524 . S
C722 C723 1.415 . S
C723 H693 0.950 . S
C723 C718 1.363 . S
C723 C722 1.415 . S
H724 C721 0.999 . S
H725 C706 0.913 . S
H726 C744 0.951 . S
H727 C746 0.951 . S
H728 C748 0.950 . S
H729 C749 0.950 . S
H730 C751 0.950 1_554 S
H731 C754 0.950 . S
H732 C755 0.950 . S
H733 C757 0.950 . S
H734 C758 0.950 . S
H735 C759 0.951 . S
H736 C761 0.951 . S
H737 C763 0.950 . S
H738 C764 0.950 . S
H739 C766 0.950 . S
H740 C769 0.950 . S
H741 C770 0.950 . S
H742 C772 0.950 . S
H743 C773 0.950 . S
C744 H726 0.951 . S
C744 C745 1.366 . S
C744 C746 1.388 . S
C745 C744 1.366 . S
C745 C749 1.385 . S
C746 H727 0.951 . S
C746 C744 1.388 . S
C746 C747 1.366 . S
C747 C746 1.366 . S
C747 C748 1.414 . S
C747 C750 1.499 . S
C748 H728 0.950 . S
C748 C747 1.414 . S
C748 C749 1.374 . S
C749 H729 0.950 . S
C749 C745 1.385 . S
C749 C748 1.374 . S
C750 C747 1.499 . S
C750 C751 1.373 . S
C750 C752 1.389 . S
C751 H730 0.950 1_556 S
C751 C750 1.373 . S
C751 C767 1.377 . S
C752 C750 1.389 . S
C752 C753 1.524 . S
C752 C766 1.377 . S
C753 C752 1.524 . S
C753 C754 1.397 . S
C753 C758 1.363 . S
C754 H731 0.950 . S
C754 C753 1.397 . S
C754 C755 1.334 . S
C755 H732 0.950 . S
C755 C754 1.334 . S
C755 C756 1.287 . S
C756 C755 1.287 . S
C756 C757 1.524 . S
C756 H775 0.913 . S
C757 H733 0.950 . S
C757 C756 1.524 . S
C757 C758 1.415 . S
C758 H734 0.950 . S
C758 C753 1.363 . S
C758 C757 1.415 . S
C759 H735 0.951 . S
C759 C760 1.389 . S
C759 C761 1.388 . S
C760 C759 1.389 . S
C760 C764 1.357 1_554 S
C761 H736 0.951 . S
C761 C759 1.388 . S
C761 C762 1.366 1_554 S
C762 C761 1.366 1_556 S
C762 C763 1.414 . S
C762 C765 1.499 . S
C763 H737 0.950 . S
C763 C762 1.414 . S
C763 C764 1.374 . S
C764 H738 0.950 . S
C764 C760 1.357 1_556 S
C764 C763 1.374 . S
C765 C762 1.499 . S
C765 C766 1.373 . S
C765 C767 1.391 . S
C766 H739 0.950 . S
C766 C752 1.377 . S
C766 C765 1.373 . S
C767 C751 1.377 . S
C767 C765 1.391 . S
C767 C768 1.523 1_556 S
C768 C767 1.523 1_554 S
C768 C769 1.397 . S
C768 C773 1.363 . S
C769 H740 0.950 . S
C769 C768 1.397 . S
C769 C770 1.334 . S
C770 H741 0.950 . S
C770 C769 1.334 . S
C770 C771 1.287 . S
C771 C770 1.287 . S
C771 C772 1.524 . S
C771 H774 0.999 . S
C772 H742 0.950 . S
C772 C771 1.524 . S
C772 C773 1.415 . S
C773 H743 0.950 . S
C773 C768 1.363 . S
C773 C772 1.415 . S
H774 C771 0.999 . S
H775 C756 0.913 . S
H776 C794 0.951 . S
H777 C796 0.951 . S
H778 C798 0.950 . S
H779 C799 0.950 . S
H780 C801 0.950 . S
H781 C804 0.950 . S
H782 C805 0.950 . S
H783 C807 0.950 . S
H784 C808 0.950 . S
H785 C809 0.951 . S
H786 C811 0.951 . S
H787 C813 0.950 . S
H788 C814 0.950 . S
H789 C816 0.950 . S
H790 C819 0.950 . S
H791 C820 0.950 . S
H792 C822 0.950 . S
H793 C823 0.950 . S
C794 H776 0.951 . S
C794 C795 1.366 . S
C794 C796 1.388 . S
C795 C794 1.366 . S
C795 C799 1.385 . S
C796 H777 0.951 . S
C796 C794 1.388 . S
C796 C797 1.366 . S
C797 C796 1.366 . S
C797 C798 1.414 . S
C797 C800 1.499 . S
C798 H778 0.950 . S
C798 C797 1.414 . S
C798 C799 1.374 . S
C799 H779 0.950 . S
C799 C795 1.385 . S
C799 C798 1.374 . S
C800 C797 1.499 . S
C800 C801 1.373 . S
C800 C802 1.389 . S
C801 H780 0.950 . S
C801 C800 1.373 . S
C801 C817 1.377 . S
C802 C800 1.389 . S
C802 C803 1.524 . S
C802 C816 1.377 . S
C803 C802 1.524 . S
C803 C804 1.397 . S
C803 C808 1.363 1_556 S
C804 H781 0.950 . S
C804 C803 1.397 . S
C804 C805 1.334 . S
C805 H782 0.950 . S
C805 C804 1.334 . S
C805 C806 1.287 . S
C806 C805 1.287 . S
C806 C807 1.524 1_556 S
C806 H825 0.935 . S
C807 H783 0.950 . S
C807 C806 1.524 1_554 S
C807 C808 1.415 . S
C808 H784 0.950 . S
C808 C803 1.363 1_554 S
C808 C807 1.415 . S
C809 H785 0.951 . S
C809 C810 1.366 . S
C809 C811 1.388 . S
C810 C809 1.366 . S
C810 C814 1.385 1_556 S
C811 H786 0.951 . S
C811 C809 1.388 . S
C811 C812 1.366 . S
C812 C811 1.366 . S
C812 C813 1.414 1_556 S
C812 C815 1.499 . S
C813 H787 0.950 . S
C813 C812 1.414 1_554 S
C813 C814 1.374 . S
C814 H788 0.950 . S
C814 C810 1.385 1_554 S
C814 C813 1.374 . S
C815 C812 1.499 . S
C815 C816 1.373 . S
C815 C817 1.389 . S
C816 H789 0.950 . S
C816 C802 1.377 . S
C816 C815 1.373 . S
C817 C801 1.377 . S
C817 C815 1.389 . S
C817 C818 1.524 . S
C818 C817 1.524 . S
C818 C819 1.397 . S
C818 C823 1.363 . S
C819 H790 0.950 . S
C819 C818 1.397 . S
C819 C820 1.334 . S
C820 H791 0.950 . S
C820 C819 1.334 . S
C820 C821 1.287 . S
C821 C820 1.287 . S
C821 C822 1.524 . S
C821 H824 0.999 . S
C822 H792 0.950 . S
C822 C821 1.524 . S
C822 C823 1.415 . S
C823 H793 0.950 . S
C823 C818 1.363 . S
C823 C822 1.415 . S
H824 C821 0.999 . S
H825 C806 0.935 . S
H826 C844 0.951 1_554 S
H827 C846 0.951 1_554 S
H828 C848 0.950 . S
H829 C849 0.950 . S
H830 C851 0.950 . S
H831 C854 0.950 . S
H832 C855 0.950 . S
H833 C857 0.950 . S
H834 C858 0.950 . S
H835 C859 0.951 . S
H836 C861 0.951 . S
H837 C863 0.950 . S
H838 C864 0.950 . S
H839 C866 0.950 . S
H840 C869 0.950 1_554 S
H841 C870 0.950 . S
H842 C872 0.950 . S
H843 C873 0.950 . S
C844 H826 0.951 1_556 S
C844 C845 1.366 . S
C844 C846 1.388 . S
C845 C844 1.366 . S
C845 C849 1.385 . S
C846 H827 0.951 1_556 S
C846 C844 1.388 . S
C846 C847 1.366 . S
C847 C846 1.366 . S
C847 C848 1.414 . S
C847 C850 1.499 . S
C848 H828 0.950 . S
C848 C847 1.414 . S
C848 C849 1.374 . S
C849 H829 0.950 . S
C849 C845 1.385 . S
C849 C848 1.374 . S
C850 C847 1.499 . S
C850 C851 1.373 . S
C850 C852 1.389 . S
C851 H830 0.950 . S
C851 C850 1.373 . S
C851 C867 1.377 . S
C852 C850 1.389 . S
C852 C853 1.524 1_556 S
C852 C866 1.377 1_556 S
C853 C852 1.524 1_554 S
C853 C854 1.397 1_554 S
C853 C858 1.363 . S
C854 H831 0.950 . S
C854 C853 1.397 1_556 S
C854 C855 1.334 . S
C855 H832 0.950 . S
C855 C854 1.334 . S
C855 C856 1.287 1_556 S
C856 C855 1.287 1_554 S
C856 C857 1.524 . S
C856 H875 0.913 . S
C857 H833 0.950 . S
C857 C856 1.524 . S
C857 C858 1.415 . S
C858 H834 0.950 . S
C858 C853 1.363 . S
C858 C857 1.415 . S
C859 H835 0.951 . S
C859 C860 1.366 1_556 S
C859 C861 1.388 . S
C860 C859 1.366 1_554 S
C860 C864 1.385 . S
C861 H836 0.951 . S
C861 C859 1.388 . S
C861 C862 1.388 . S
C862 C861 1.388 . S
C862 C863 1.385 1_556 S
C862 C865 1.505 . S
C863 H837 0.950 . S
C863 C862 1.385 1_554 S
C863 C864 1.374 . S
C864 H838 0.950 . S
C864 C860 1.385 . S
C864 C863 1.374 . S
C865 C862 1.505 . S
C865 C866 1.373 1_556 S
C865 C867 1.389 . S
C866 H839 0.950 . S
C866 C852 1.377 1_554 S
C866 C865 1.373 1_554 S
C867 C851 1.377 . S
C867 C865 1.389 . S
C867 C868 1.524 . S
C868 C867 1.524 . S
C868 C869 1.397 . S
C868 C873 1.363 . S
C869 H840 0.950 1_556 S
C869 C868 1.397 . S
C869 C870 1.334 . S
C870 H841 0.950 . S
C870 C869 1.334 . S
C870 C871 1.287 . S
C871 C870 1.287 . S
C871 C872 1.524 . S
C871 H874 0.999 . S
C872 H842 0.950 . S
C872 C871 1.524 . S
C872 C873 1.415 . S
C873 H843 0.950 . S
C873 C868 1.363 . S
C873 C872 1.415 . S
H874 C871 0.999 . S
H875 C856 0.913 . S
H876 C894 0.951 . S
H877 C896 0.951 . S
H878 C898 0.950 . S
H879 C899 0.950 . S
H880 C901 0.950 . S
H881 C904 0.950 1_554 S
H882 C905 0.963 . S
H883 C907 0.950 . S
H884 C908 0.950 . S
H885 C909 0.951 . S
H886 C911 0.951 . S
H887 C913 0.950 . S
H888 C914 0.950 . S
H889 C916 0.950 . S
H890 C919 0.950 . S
H891 C920 0.950 . S
H892 C922 0.950 . S
H893 C923 0.950 . S
C894 H876 0.951 . S
C894 C895 1.366 . S
C894 C896 1.388 . S
C895 C894 1.366 . S
C895 C899 1.385 . S
C896 H877 0.951 . S
C896 C894 1.388 . S
C896 C897 1.366 . S
C897 C896 1.366 . S
C897 C898 1.414 . S
C897 C900 1.499 . S
C898 H878 0.950 . S
C898 C897 1.414 . S
C898 C899 1.374 . S
C899 H879 0.950 . S
C899 C895 1.385 . S
C899 C898 1.374 . S
C900 C897 1.499 . S
C900 C901 1.373 . S
C900 C902 1.389 . S
C901 H880 0.950 . S
C901 C900 1.373 . S
C901 C917 1.377 . S
C902 C900 1.389 . S
C902 C903 1.524 . S
C902 C916 1.377 . S
C903 C902 1.524 . S
C903 C904 1.397 . S
C903 C908 1.363 . S
C904 H881 0.950 1_556 S
C904 C903 1.397 . S
C904 C905 1.332 1_556 S
C905 H882 0.963 . S
C905 C904 1.332 1_554 S
C905 C906 1.276 1_554 S
C906 C905 1.276 1_556 S
C906 C907 1.524 . S
C906 H925 0.913 . S
C907 H883 0.950 . S
C907 C906 1.524 . S
C907 C908 1.415 . S
C908 H884 0.950 . S
C908 C903 1.363 . S
C908 C907 1.415 . S
C909 H885 0.951 . S
C909 C910 1.366 1_554 S
C909 C911 1.388 . S
C910 C909 1.366 1_556 S
C910 C914 1.385 . S
C911 H886 0.951 . S
C911 C909 1.388 . S
C911 C912 1.366 1_554 S
C912 C911 1.366 1_556 S
C912 C913 1.414 . S
C912 C915 1.499 . S
C913 H887 0.950 . S
C913 C912 1.414 . S
C913 C914 1.374 . S
C914 H888 0.950 . S
C914 C910 1.385 . S
C914 C913 1.374 . S
C915 C912 1.499 . S
C915 C916 1.373 . S
C915 C917 1.389 . S
C916 H889 0.950 . S
C916 C902 1.377 . S
C916 C915 1.373 . S
C917 C901 1.377 . S
C917 C915 1.389 . S
C917 C918 1.524 . S
C918 C917 1.524 . S
C918 C919 1.397 . S
C918 C923 1.363 . S
C919 H890 0.950 . S
C919 C918 1.397 . S
C919 C920 1.334 . S
C920 H891 0.950 . S
C920 C919 1.334 . S
C920 C921 1.287 . S
C921 C920 1.287 . S
C921 C922 1.524 . S
C921 H924 0.999 1_545 S
C922 H892 0.950 . S
C922 C921 1.524 . S
C922 C923 1.415 . S
C923 H893 0.950 . S
C923 C918 1.363 . S
C923 C922 1.415 . S
H924 C921 0.999 1_565 S
H925 C906 0.913 . S
H926 C944 0.951 . S
H927 C946 0.951 . S
H928 C948 0.950 . S
H929 C949 0.950 . S
H930 C951 0.950 . S
H931 C954 0.950 . S
H932 C955 0.950 . S
H933 C957 0.950 . S
H934 C958 0.950 . S
H935 C959 0.944 1_554 S
H936 C961 0.951 . S
H937 C963 0.950 . S
H938 C964 0.950 . S
H939 C966 0.950 . S
H940 C969 0.950 . S
H941 C970 0.950 . S
H942 C972 0.950 . S
H943 C973 0.950 . S
C944 H926 0.951 . S
C944 C945 1.366 . S
C944 C946 1.388 . S
C945 C944 1.366 . S
C945 C949 1.385 . S
C946 H927 0.951 . S
C946 C944 1.388 . S
C946 C947 1.366 . S
C947 C946 1.366 . S
C947 C948 1.414 . S
C947 C950 1.499 . S
C948 H928 0.950 . S
C948 C947 1.414 . S
C948 C949 1.374 . S
C949 H929 0.950 . S
C949 C945 1.385 . S
C949 C948 1.374 . S
C950 C947 1.499 . S
C950 C951 1.373 . S
C950 C952 1.389 . S
C951 H930 0.950 . S
C951 C950 1.373 . S
C951 C967 1.377 . S
C952 C950 1.389 . S
C952 C953 1.524 . S
C952 C966 1.377 . S
C953 C952 1.524 . S
C953 C954 1.397 . S
C953 C958 1.363 . S
C954 H931 0.950 . S
C954 C953 1.397 . S
C954 C955 1.334 . S
C955 H932 0.950 . S
C955 C954 1.334 . S
C955 C956 1.287 . S
C956 C955 1.287 . S
C956 C957 1.524 . S
C956 H975 0.913 . S
C957 H933 0.950 . S
C957 C956 1.524 . S
C957 C958 1.415 . S
C958 H934 0.950 . S
C958 C953 1.363 . S
C958 C957 1.415 . S
C959 H935 0.944 1_556 S
C959 C960 1.366 . S
C959 C961 1.388 . S
C960 C959 1.366 . S
C960 C964 1.385 . S
C961 H936 0.951 . S
C961 C959 1.388 . S
C961 C962 1.366 . S
C962 C961 1.366 . S
C962 C963 1.414 . S
C962 C965 1.499 . S
C963 H937 0.950 . S
C963 C962 1.414 . S
C963 C964 1.374 . S
C964 H938 0.950 . S
C964 C960 1.385 . S
C964 C963 1.374 . S
C965 C962 1.499 . S
C965 C966 1.373 . S
C965 C967 1.389 . S
C966 H939 0.950 . S
C966 C952 1.377 . S
C966 C965 1.373 . S
C967 C951 1.377 . S
C967 C965 1.389 . S
C967 C968 1.524 1_556 S
C968 C967 1.524 1_554 S
C968 C969 1.397 . S
C968 C973 1.363 . S
C969 H940 0.950 . S
C969 C968 1.397 . S
C969 C970 1.334 . S
C970 H941 0.950 . S
C970 C969 1.334 . S
C970 C971 1.287 . S
C971 C970 1.287 . S
C971 C972 1.524 . S
C971 H974 0.999 . S
C972 H942 0.950 . S
C972 C971 1.524 . S
C972 C973 1.415 . S
C973 H943 0.950 . S
C973 C968 1.363 . S
C973 C972 1.415 . S
H974 C971 0.999 . S
H975 C956 0.913 . S
H976 C994 0.951 . S
H977 C996 0.951 . S
H978 C998 0.941 1_554 S
H979 C999 0.950 1_554 S
H980 C1001 0.950 . S
H981 C1004 0.950 . S
H982 C1005 0.950 . S
H983 C1007 0.950 . S
H984 C1008 0.950 . S
H985 C1009 0.951 . S
H986 C1011 0.951 . S
H987 C1013 0.950 . S
H988 C1014 0.940 1_556 S
H989 C1016 0.950 . S
H990 C1019 0.950 . S
H991 C1020 0.950 . S
H992 C1022 0.950 . S
H993 C1023 0.950 . S
C994 H976 0.951 . S
C994 C995 1.366 . S
C994 C996 1.388 . S
C995 C994 1.366 . S
C995 C999 1.385 . S
C996 H977 0.951 . S
C996 C994 1.388 . S
C996 C997 1.366 . S
C997 C996 1.366 . S
C997 C998 1.423 . S
C997 C1000 1.499 . S
C998 H978 0.941 1_556 S
C998 C997 1.423 . S
C998 C999 1.375 . S
C999 H979 0.950 1_556 S
C999 C995 1.385 . S
C999 C998 1.375 . S
C1000 C997 1.499 . S
C1000 C1001 1.373 1_556 S
C1000 C1002 1.389 . S
C1001 H980 0.950 . S
C1001 C1000 1.373 1_554 S
C1001 C1017 1.377 . S
C1002 C1000 1.389 . S
C1002 C1003 1.524 . S
C1002 C1016 1.377 . S
C1003 C1002 1.524 . S
C1003 C1004 1.397 . S
C1003 C1008 1.363 . S
C1004 H981 0.950 . S
C1004 C1003 1.397 . S
C1004 C1005 1.334 . S
C1005 H982 0.950 . S
C1005 C1004 1.334 . S
C1005 C1006 1.287 . S
C1006 C1005 1.287 . S
C1006 C1007 1.524 . S
C1006 H1025 0.913 . S
C1007 H983 0.950 . S
C1007 C1006 1.524 . S
C1007 C1008 1.415 . S
C1008 H984 0.950 . S
C1008 C1003 1.363 . S
C1008 C1007 1.415 . S
C1009 H985 0.951 . S
C1009 C1010 1.366 . S
C1009 C1011 1.388 . S
C1010 C1009 1.366 . S
C1010 C1014 1.395 . S
C1011 H986 0.951 . S
C1011 C1009 1.388 . S
C1011 C1012 1.366 . S
C1012 C1011 1.366 . S
C1012 C1013 1.414 1_554 S
C1012 C1015 1.499 . S
C1013 H987 0.950 . S
C1013 C1012 1.414 1_556 S
C1013 C1014 1.373 1_556 S
C1014 H988 0.940 1_554 S
C1014 C1010 1.395 . S
C1014 C1013 1.373 1_554 S
C1015 C1012 1.499 . S
C1015 C1016 1.373 1_554 S
C1015 C1017 1.389 . S
C1016 H989 0.950 . S
C1016 C1002 1.377 . S
C1016 C1015 1.373 1_556 S
C1017 C1001 1.377 . S
C1017 C1015 1.389 . S
C1017 C1018 1.524 . S
C1018 C1017 1.524 . S
C1018 C1019 1.397 . S
C1018 C1023 1.363 . S
C1019 H990 0.950 . S
C1019 C1018 1.397 . S
C1019 C1020 1.334 . S
C1020 H991 0.950 . S
C1020 C1019 1.334 . S
C1020 C1021 1.287 . S
C1021 C1020 1.287 . S
C1021 C1022 1.524 . S
C1021 H1024 0.999 . S
C1022 H992 0.950 . S
C1022 C1021 1.524 . S
C1022 C1023 1.415 . S
C1023 H993 0.950 . S
C1023 C1018 1.363 . S
C1023 C1022 1.415 . S
H1024 C1021 0.999 . S
H1025 C1006 0.913 . S
H1026 C1044 0.951 . S
H1027 C1046 0.951 . S
H1028 C1048 0.950 . S
H1029 C1049 0.950 . S
H1030 C1051 0.950 . S
H1031 C1054 0.950 . S
H1032 C1055 0.950 . S
H1033 C1057 0.950 1_556 S
H1034 C1058 0.950 . S
H1035 C1059 0.951 . S
H1036 C1061 0.951 . S
H1037 C1063 0.950 . S
H1038 C1064 0.950 1_556 S
H1039 C1066 0.950 . S
H1040 C1069 0.950 . S
H1041 C1070 0.950 . S
H1042 C1072 0.950 . S
H1043 C1073 0.950 . S
C1044 H1026 0.951 . S
C1044 C1045 1.366 . S
C1044 C1046 1.388 . S
C1045 C1044 1.366 . S
C1045 C1049 1.385 . S
C1046 H1027 0.951 . S
C1046 C1044 1.388 . S
C1046 C1047 1.366 . S
C1047 C1046 1.366 . S
C1047 C1048 1.414 . S
C1047 C1050 1.499 . S
C1048 H1028 0.950 . S
C1048 C1047 1.414 . S
C1048 C1049 1.374 . S
C1049 H1029 0.950 . S
C1049 C1045 1.385 . S
C1049 C1048 1.374 . S
C1050 C1047 1.499 . S
C1050 C1051 1.373 . S
C1050 C1052 1.389 . S
C1051 H1030 0.950 . S
C1051 C1050 1.373 . S
C1051 C1067 1.377 . S
C1052 C1050 1.389 . S
C1052 C1053 1.524 . S
C1052 C1066 1.377 . S
C1053 C1052 1.524 . S
C1053 C1054 1.397 . S
C1053 C1058 1.363 . S
C1054 H1031 0.950 . S
C1054 C1053 1.397 . S
C1054 C1055 1.334 . S
C1055 H1032 0.950 . S
C1055 C1054 1.334 . S
C1055 C1056 1.287 . S
C1056 C1055 1.287 . S
C1056 C1057 1.524 . S
C1056 H1075 0.913 . S
C1057 H1033 0.950 1_554 S
C1057 C1056 1.524 . S
C1057 C1058 1.415 . S
C1058 H1034 0.950 . S
C1058 C1053 1.363 . S
C1058 C1057 1.415 . S
C1059 H1035 0.951 . S
C1059 C1060 1.366 . S
C1059 C1061 1.388 . S
C1060 C1059 1.366 . S
C1060 C1064 1.385 . S
C1061 H1036 0.951 . S
C1061 C1059 1.388 . S
C1061 C1062 1.366 . S
C1062 C1061 1.366 . S
C1062 C1063 1.414 . S
C1062 C1065 1.499 . S
C1063 H1037 0.950 . S
C1063 C1062 1.414 . S
C1063 C1064 1.374 . S
C1064 H1038 0.950 1_554 S
C1064 C1060 1.385 . S
C1064 C1063 1.374 . S
C1065 C1062 1.499 . S
C1065 C1066 1.373 . S
C1065 C1067 1.389 . S
C1066 H1039 0.950 . S
C1066 C1052 1.377 . S
C1066 C1065 1.373 . S
C1067 C1051 1.377 . S
C1067 C1065 1.389 . S
C1067 C1068 1.524 . S
C1068 C1067 1.524 . S
C1068 C1069 1.397 . S
C1068 C1073 1.363 . S
C1069 H1040 0.950 . S
C1069 C1068 1.397 . S
C1069 C1070 1.334 . S
C1070 H1041 0.950 . S
C1070 C1069 1.334 . S
C1070 C1071 1.287 . S
C1071 C1070 1.287 . S
C1071 C1072 1.524 . S
C1071 H1074 0.999 . S
C1072 H1042 0.950 . S
C1072 C1071 1.524 . S
C1072 C1073 1.415 . S
C1073 H1043 0.950 . S
C1073 C1068 1.363 . S
C1073 C1072 1.415 . S
H1074 C1071 0.999 . S
H1075 C1056 0.913 . S
H1076 C1094 0.951 . S
H1077 C1096 0.951 . S
H1078 C1098 0.950 . S
H1079 C1099 0.950 . S
H1080 C1101 0.950 . S
H1081 C1104 0.950 . S
H1082 C1105 0.950 . S
H1083 C1107 0.950 1_556 S
H1084 C1108 0.950 . S
H1085 C1109 0.951 . S
H1086 C1111 0.951 . S
H1087 C1113 0.950 . S
H1088 C1114 0.950 . S
H1089 C1116 0.950 . S
H1090 C1119 0.950 . S
H1091 C1120 0.950 . S
H1092 C1122 0.950 . S
H1093 C1123 0.950 . S
C1094 H1076 0.951 . S
C1094 C1095 1.366 . S
C1094 C1096 1.388 . S
C1095 C1094 1.366 . S
C1095 C1099 1.385 . S
C1096 H1077 0.951 . S
C1096 C1094 1.388 . S
C1096 C1097 1.366 . S
C1097 C1096 1.366 . S
C1097 C1098 1.414 . S
C1097 C1100 1.499 . S
C1098 H1078 0.950 . S
C1098 C1097 1.414 . S
C1098 C1099 1.374 . S
C1099 H1079 0.950 . S
C1099 C1095 1.385 . S
C1099 C1098 1.374 . S
C1100 C1097 1.499 . S
C1100 C1101 1.373 . S
C1100 C1102 1.389 . S
C1101 H1080 0.950 . S
C1101 C1100 1.373 . S
C1101 C1117 1.377 . S
C1102 C1100 1.389 . S
C1102 C1103 1.524 . S
C1102 C1116 1.377 . S
C1103 C1102 1.524 . S
C1103 C1104 1.397 . S
C1103 C1108 1.363 . S
C1104 H1081 0.950 . S
C1104 C1103 1.397 . S
C1104 C1105 1.334 . S
C1105 H1082 0.950 . S
C1105 C1104 1.334 . S
C1105 C1106 1.287 . S
C1106 C1105 1.287 . S
C1106 C1107 1.524 . S
C1106 H1125 0.913 . S
C1107 H1083 0.950 1_554 S
C1107 C1106 1.524 . S
C1107 C1108 1.415 . S
C1108 H1084 0.950 . S
C1108 C1103 1.363 . S
C1108 C1107 1.415 . S
C1109 H1085 0.951 . S
C1109 C1110 1.366 . S
C1109 C1111 1.388 . S
C1110 C1109 1.366 . S
C1110 C1114 1.385 . S
C1111 H1086 0.951 . S
C1111 C1109 1.388 . S
C1111 C1112 1.366 . S
C1112 C1111 1.366 . S
C1112 C1113 1.414 . S
C1112 C1115 1.499 . S
C1113 H1087 0.950 . S
C1113 C1112 1.414 . S
C1113 C1114 1.374 . S
C1114 H1088 0.950 . S
C1114 C1110 1.385 . S
C1114 C1113 1.374 . S
C1115 C1112 1.499 . S
C1115 C1116 1.373 . S
C1115 C1117 1.389 . S
C1116 H1089 0.950 . S
C1116 C1102 1.377 . S
C1116 C1115 1.373 . S
C1117 C1101 1.377 . S
C1117 C1115 1.389 . S
C1117 C1118 1.524 . S
C1118 C1117 1.524 . S
C1118 C1119 1.397 . S
C1118 C1123 1.363 . S
C1119 H1090 0.950 . S
C1119 C1118 1.397 . S
C1119 C1120 1.334 . S
C1120 H1091 0.950 . S
C1120 C1119 1.334 . S
C1120 C1121 1.287 . S
C1121 C1120 1.287 . S
C1121 C1122 1.524 . S
C1121 H1124 0.999 . S
C1122 H1092 0.950 . S
C1122 C1121 1.524 . S
C1122 C1123 1.415 . S
C1123 H1093 0.950 . S
C1123 C1118 1.363 . S
C1123 C1122 1.415 . S
H1124 C1121 0.999 . S
H1125 C1106 0.913 . S
H1126 C1144 0.951 . S
H1127 C1146 0.951 . S
H1128 C1148 0.950 . S
H1129 C1149 0.950 . S
H1130 C1151 0.950 . S
H1131 C1154 0.938 1_554 S
H1132 C1155 0.950 . S
H1133 C1157 0.950 . S
H1134 C1158 0.947 1_554 S
H1135 C1159 0.951 . S
H1136 C1161 0.951 . S
H1137 C1163 0.950 . S
H1138 C1164 0.950 . S
H1139 C1166 0.950 . S
H1140 C1169 0.950 . S
H1141 C1170 0.950 . S
H1142 C1172 0.950 . S
H1143 C1173 0.950 . S
C1144 H1126 0.951 . S
C1144 C1145 1.366 . S
C1144 C1146 1.388 . S
C1145 C1144 1.366 . S
C1145 C1149 1.385 . S
C1146 H1127 0.951 . S
C1146 C1144 1.388 . S
C1146 C1147 1.366 . S
C1147 C1146 1.366 . S
C1147 C1148 1.414 . S
C1147 C1150 1.499 . S
C1148 H1128 0.950 . S
C1148 C1147 1.414 . S
C1148 C1149 1.374 . S
C1149 H1129 0.950 . S
C1149 C1145 1.385 . S
C1149 C1148 1.374 . S
C1150 C1147 1.499 . S
C1150 C1151 1.373 . S
C1150 C1152 1.389 . S
C1151 H1130 0.950 . S
C1151 C1150 1.373 . S
C1151 C1167 1.377 . S
C1152 C1150 1.389 . S
C1152 C1153 1.524 . S
C1152 C1166 1.377 . S
C1153 C1152 1.524 . S
C1153 C1154 1.397 1_554 S
C1153 C1158 1.363 1_554 S
C1154 H1131 0.938 1_556 S
C1154 C1153 1.397 1_556 S
C1154 C1155 1.334 . S
C1155 H1132 0.950 . S
C1155 C1154 1.334 . S
C1155 C1156 1.287 . S
C1156 C1155 1.287 . S
C1156 C1157 1.524 . S
C1156 H1175 0.913 . S
C1157 H1133 0.950 . S
C1157 C1156 1.524 . S
C1157 C1158 1.415 . S
C1158 H1134 0.947 1_556 S
C1158 C1153 1.363 1_556 S
C1158 C1157 1.415 . S
C1159 H1135 0.951 . S
C1159 C1160 1.366 . S
C1159 C1161 1.388 . S
C1160 C1159 1.366 . S
C1160 C1164 1.385 . S
C1161 H1136 0.951 . S
C1161 C1159 1.388 . S
C1161 C1162 1.366 . S
C1162 C1161 1.366 . S
C1162 C1163 1.414 . S
C1162 C1165 1.499 . S
C1163 H1137 0.950 . S
C1163 C1162 1.414 . S
C1163 C1164 1.374 . S
C1164 H1138 0.950 . S
C1164 C1160 1.385 . S
C1164 C1163 1.374 . S
C1165 C1162 1.499 . S
C1165 C1166 1.373 . S
C1165 C1167 1.389 . S
C1166 H1139 0.950 . S
C1166 C1152 1.377 . S
C1166 C1165 1.373 . S
C1167 C1151 1.377 . S
C1167 C1165 1.389 . S
C1167 C1168 1.524 . S
C1168 C1167 1.524 . S
C1168 C1169 1.397 . S
C1168 C1173 1.363 . S
C1169 H1140 0.950 . S
C1169 C1168 1.397 . S
C1169 C1170 1.334 . S
C1170 H1141 0.950 . S
C1170 C1169 1.334 . S
C1170 C1171 1.287 . S
C1171 C1170 1.287 . S
C1171 C1172 1.524 . S
C1171 H1174 0.999 . S
C1172 H1142 0.950 . S
C1172 C1171 1.524 . S
C1172 C1173 1.415 . S
C1173 H1143 0.950 . S
C1173 C1168 1.363 . S
C1173 C1172 1.415 . S
H1174 C1171 0.999 . S
H1175 C1156 0.913 . S
H1176 C1194 0.951 . S
H1177 C1196 0.951 . S
H1178 C1198 0.950 . S
H1179 C1199 0.950 . S
H1180 C1201 0.950 . S
H1181 C1204 0.950 . S
H1182 C1205 0.950 . S
H1183 C1207 0.950 . S
H1184 C1208 0.950 . S
H1185 C1209 0.951 . S
H1186 C1211 0.951 . S
H1187 C1213 0.950 . S
H1188 C1214 0.950 . S
H1189 C1216 0.950 . S
H1190 C1219 0.950 . S
H1191 C1220 0.950 . S
H1192 C1222 0.950 . S
H1193 C1223 0.950 . S
C1194 H1176 0.951 . S
C1194 C1195 1.366 . S
C1194 C1196 1.388 . S
C1195 C1194 1.366 . S
C1195 C1199 1.385 . S
C1196 H1177 0.951 . S
C1196 C1194 1.388 . S
C1196 C1197 1.366 . S
C1197 C1196 1.366 . S
C1197 C1198 1.414 . S
C1197 C1200 1.499 . S
C1198 H1178 0.950 . S
C1198 C1197 1.414 . S
C1198 C1199 1.374 . S
C1199 H1179 0.950 . S
C1199 C1195 1.385 . S
C1199 C1198 1.374 . S
C1200 C1197 1.499 . S
C1200 C1201 1.373 . S
C1200 C1202 1.389 . S
C1201 H1180 0.950 . S
C1201 C1200 1.373 . S
C1201 C1217 1.377 . S
C1202 C1200 1.389 . S
C1202 C1203 1.524 . S
C1202 C1216 1.377 1_655 S
C1203 C1202 1.524 . S
C1203 C1204 1.397 . S
C1203 C1208 1.363 1_655 S
C1204 H1181 0.950 . S
C1204 C1203 1.397 . S
C1204 C1205 1.334 . S
C1205 H1182 0.950 . S
C1205 C1204 1.334 . S
C1205 C1206 1.287 . S
C1206 C1205 1.287 . S
C1206 C1207 1.524 1_655 S
C1206 H1225 0.913 . S
C1207 H1183 0.950 . S
C1207 C1206 1.524 1_455 S
C1207 C1208 1.415 . S
C1208 H1184 0.950 . S
C1208 C1203 1.363 1_455 S
C1208 C1207 1.415 . S
C1209 H1185 0.951 . S
C1209 C1210 1.366 . S
C1209 C1211 1.388 . S
C1210 C1209 1.366 . S
C1210 C1214 1.385 . S
C1211 H1186 0.951 . S
C1211 C1209 1.388 . S
C1211 C1212 1.366 . S
C1212 C1211 1.366 . S
C1212 C1213 1.414 . S
C1212 C1215 1.499 . S
C1213 H1187 0.950 . S
C1213 C1212 1.414 . S
C1213 C1214 1.374 . S
C1214 H1188 0.950 . S
C1214 C1210 1.385 . S
C1214 C1213 1.374 . S
C1215 C1212 1.499 . S
C1215 C1216 1.373 . S
C1215 C1217 1.389 1_455 S
C1216 H1189 0.950 . S
C1216 C1202 1.377 1_455 S
C1216 C1215 1.373 . S
C1217 C1201 1.377 . S
C1217 C1215 1.389 1_655 S
C1217 C1218 1.524 . S
C1218 C1217 1.524 . S
C1218 C1219 1.397 1_655 S
C1218 C1223 1.363 . S
C1219 H1190 0.950 . S
C1219 C1218 1.397 1_455 S
C1219 C1220 1.334 . S
C1220 H1191 0.950 . S
C1220 C1219 1.334 . S
C1220 C1221 1.287 1_455 S
C1221 C1220 1.287 1_655 S
C1221 C1222 1.524 . S
C1221 H1224 0.999 . S
C1222 H1192 0.950 . S
C1222 C1221 1.524 . S
C1222 C1223 1.415 . S
C1223 H1193 0.950 . S
C1223 C1218 1.363 . S
C1223 C1222 1.415 . S
H1224 C1221 0.999 . S
H1225 C1206 0.913 . S
H1226 C1244 0.951 . S
H1227 C1246 0.951 . S
H1228 C1248 0.950 . S
H1229 C1249 0.950 . S
H1230 C1251 0.950 . S
H1231 C1254 0.950 . S
H1232 C1255 0.950 . S
H1233 C1257 0.950 . S
H1234 C1258 0.950 . S
H1235 C1259 0.951 . S
H1236 C1261 0.951 . S
H1237 C1263 0.950 . S
H1238 C1264 0.950 . S
H1239 C1266 0.950 . S
H1240 C1269 0.950 . S
H1241 C1270 0.950 . S
H1242 C1272 0.950 . S
H1243 C1273 0.950 . S
C1244 H1226 0.951 . S
C1244 C1245 1.366 . S
C1244 C1246 1.388 . S
C1245 C1244 1.366 . S
C1245 C1249 1.385 . S
C1246 H1227 0.951 . S
C1246 C1244 1.388 . S
C1246 C1247 1.366 . S
C1247 C1246 1.366 . S
C1247 C1248 1.414 . S
C1247 C1250 1.499 . S
C1248 H1228 0.950 . S
C1248 C1247 1.414 . S
C1248 C1249 1.374 . S
C1249 H1229 0.950 . S
C1249 C1245 1.385 . S
C1249 C1248 1.374 . S
C1250 C1247 1.499 . S
C1250 C1251 1.373 . S
C1250 C1252 1.389 . S
C1251 H1230 0.950 . S
C1251 C1250 1.373 . S
C1251 C1267 1.377 . S
C1252 C1250 1.389 . S
C1252 C1253 1.524 . S
C1252 C1266 1.377 . S
C1253 C1252 1.524 . S
C1253 C1254 1.397 . S
C1253 C1258 1.363 . S
C1254 H1231 0.950 . S
C1254 C1253 1.397 . S
C1254 C1255 1.334 . S
C1255 H1232 0.950 . S
C1255 C1254 1.334 . S
C1255 C1256 1.287 . S
C1256 C1255 1.287 . S
C1256 C1257 1.524 . S
C1256 H1275 0.913 . S
C1257 H1233 0.950 . S
C1257 C1256 1.524 . S
C1257 C1258 1.415 . S
C1258 H1234 0.950 . S
C1258 C1253 1.363 . S
C1258 C1257 1.415 . S
C1259 H1235 0.951 . S
C1259 C1260 1.366 . S
C1259 C1261 1.388 . S
C1260 C1259 1.366 . S
C1260 C1264 1.385 . S
C1261 H1236 0.951 . S
C1261 C1259 1.388 . S
C1261 C1262 1.366 . S
C1262 C1261 1.366 . S
C1262 C1263 1.414 . S
C1262 C1265 1.499 . S
C1263 H1237 0.950 . S
C1263 C1262 1.414 . S
C1263 C1264 1.374 . S
C1264 H1238 0.950 . S
C1264 C1260 1.385 . S
C1264 C1263 1.374 . S
C1265 C1262 1.499 . S
C1265 C1266 1.373 . S
C1265 C1267 1.389 . S
C1266 H1239 0.950 . S
C1266 C1252 1.377 . S
C1266 C1265 1.373 . S
C1267 C1251 1.377 . S
C1267 C1265 1.389 . S
C1267 C1268 1.524 . S
C1268 C1267 1.524 . S
C1268 C1269 1.397 . S
C1268 C1273 1.363 . S
C1269 H1240 0.950 . S
C1269 C1268 1.397 . S
C1269 C1270 1.334 . S
C1270 H1241 0.950 . S
C1270 C1269 1.334 . S
C1270 C1271 1.287 . S
C1271 C1270 1.287 . S
C1271 C1272 1.524 . S
C1271 H1274 0.999 . S
C1272 H1242 0.950 . S
C1272 C1271 1.524 . S
C1272 C1273 1.415 . S
C1273 H1243 0.950 . S
C1273 C1268 1.363 . S
C1273 C1272 1.415 . S
H1274 C1271 0.999 . S
H1275 C1256 0.913 . S
H1276 C1294 0.951 . S
H1277 C1296 0.951 . S
H1278 C1298 0.950 . S
H1279 C1299 0.950 . S
H1280 C1301 0.950 . S
H1281 C1304 0.950 . S
H1282 C1305 0.950 . S
H1283 C1307 0.950 . S
H1284 C1308 0.950 . S
H1285 C1309 0.951 . S
H1286 C1311 0.951 . S
H1287 C1313 0.950 . S
H1288 C1314 0.950 . S
H1289 C1316 0.950 1_565 S
H1290 C1319 0.950 . S
H1291 C1320 0.950 . S
H1292 C1322 0.950 . S
H1293 C1323 0.950 . S
C1294 H1276 0.951 . S
C1294 C1295 1.366 . S
C1294 C1296 1.388 . S
C1295 C1294 1.366 . S
C1295 C1299 1.385 . S
C1296 H1277 0.951 . S
C1296 C1294 1.388 . S
C1296 C1297 1.366 . S
C1297 C1296 1.366 . S
C1297 C1298 1.414 . S
C1297 C1300 1.499 . S
C1298 H1278 0.950 . S
C1298 C1297 1.414 . S
C1298 C1299 1.374 . S
C1299 H1279 0.950 . S
C1299 C1295 1.385 . S
C1299 C1298 1.374 . S
C1300 C1297 1.499 . S
C1300 C1301 1.373 . S
C1300 C1302 1.389 . S
C1301 H1280 0.950 . S
C1301 C1300 1.373 . S
C1301 C1317 1.377 . S
C1302 C1300 1.389 . S
C1302 C1303 1.524 . S
C1302 C1316 1.377 . S
C1303 C1302 1.524 . S
C1303 C1304 1.397 . S
C1303 C1308 1.363 . S
C1304 H1281 0.950 . S
C1304 C1303 1.397 . S
C1304 C1305 1.334 . S
C1305 H1282 0.950 . S
C1305 C1304 1.334 . S
C1305 C1306 1.287 . S
C1306 C1305 1.287 . S
C1306 C1307 1.524 . S
C1306 H1325 0.913 . S
C1307 H1283 0.950 . S
C1307 C1306 1.524 . S
C1307 C1308 1.415 . S
C1308 H1284 0.950 . S
C1308 C1303 1.363 . S
C1308 C1307 1.415 . S
C1309 H1285 0.951 . S
C1309 C1310 1.366 . S
C1309 C1311 1.388 . S
C1310 C1309 1.366 . S
C1310 C1314 1.385 . S
C1311 H1286 0.951 . S
C1311 C1309 1.388 . S
C1311 C1312 1.366 . S
C1312 C1311 1.366 . S
C1312 C1313 1.414 . S
C1312 C1315 1.499 . S
C1313 H1287 0.950 . S
C1313 C1312 1.414 . S
C1313 C1314 1.374 . S
C1314 H1288 0.950 . S
C1314 C1310 1.385 . S
C1314 C1313 1.374 . S
C1315 C1312 1.499 . S
C1315 C1316 1.373 1_565 S
C1315 C1317 1.389 1_565 S
C1316 H1289 0.950 1_545 S
C1316 C1302 1.377 . S
C1316 C1315 1.373 1_545 S
C1317 C1301 1.377 . S
C1317 C1315 1.389 1_545 S
C1317 C1318 1.524 . S
C1318 C1317 1.524 . S
C1318 C1319 1.397 1_545 S
C1318 C1323 1.363 . S
C1319 H1290 0.950 . S
C1319 C1318 1.397 1_565 S
C1319 C1320 1.334 . S
C1320 H1291 0.950 . S
C1320 C1319 1.334 . S
C1320 C1321 1.287 . S
C1321 C1320 1.287 . S
C1321 C1322 1.524 1_565 S
C1321 H1324 0.999 . S
C1322 H1292 0.950 . S
C1322 C1321 1.524 1_545 S
C1322 C1323 1.415 . S
C1323 H1293 0.950 . S
C1323 C1318 1.363 . S
C1323 C1322 1.415 . S
H1324 C1321 0.999 . S
H1325 C1306 0.913 . S
H1326 C1344 0.951 . S
H1327 C1346 0.951 . S
H1328 C1348 0.950 . S
H1329 C1349 0.950 . S
H1330 C1351 0.950 . S
H1331 C1354 0.950 . S
H1332 C1355 0.950 . S
H1333 C1357 0.950 . S
H1334 C1358 0.950 . S
H1335 C1359 0.951 . S
H1336 C1361 0.951 . S
H1337 C1363 0.950 . S
H1338 C1364 0.950 . S
H1339 C1366 0.950 . S
H1340 C1369 0.950 . S
H1341 C1370 0.950 . S
H1342 C1372 0.950 . S
H1343 C1373 0.950 . S
C1344 H1326 0.951 . S
C1344 C1345 1.366 . S
C1344 C1346 1.388 . S
C1345 C1344 1.366 . S
C1345 C1349 1.385 . S
C1346 H1327 0.951 . S
C1346 C1344 1.388 . S
C1346 C1347 1.366 . S
C1347 C1346 1.366 . S
C1347 C1348 1.414 . S
C1347 C1350 1.499 . S
C1348 H1328 0.950 . S
C1348 C1347 1.414 . S
C1348 C1349 1.374 . S
C1349 H1329 0.950 . S
C1349 C1345 1.385 . S
C1349 C1348 1.374 . S
C1350 C1347 1.499 . S
C1350 C1351 1.373 . S
C1350 C1352 1.389 . S
C1351 H1330 0.950 . S
C1351 C1350 1.373 . S
C1351 C1367 1.377 . S
C1352 C1350 1.389 . S
C1352 C1353 1.524 . S
C1352 C1366 1.377 . S
C1353 C1352 1.524 . S
C1353 C1354 1.397 . S
C1353 C1358 1.363 . S
C1354 H1331 0.950 . S
C1354 C1353 1.397 . S
C1354 C1355 1.334 . S
C1355 H1332 0.950 . S
C1355 C1354 1.334 . S
C1355 C1356 1.287 . S
C1356 C1355 1.287 . S
C1356 C1357 1.524 . S
C1356 H1375 0.913 . S
C1357 H1333 0.950 . S
C1357 C1356 1.524 . S
C1357 C1358 1.415 . S
C1358 H1334 0.950 . S
C1358 C1353 1.363 . S
C1358 C1357 1.415 . S
C1359 H1335 0.951 . S
C1359 C1360 1.366 . S
C1359 C1361 1.388 . S
C1360 C1359 1.366 . S
C1360 C1364 1.385 . S
C1361 H1336 0.951 . S
C1361 C1359 1.388 . S
C1361 C1362 1.366 . S
C1362 C1361 1.366 . S
C1362 C1363 1.414 . S
C1362 C1365 1.499 . S
C1363 H1337 0.950 . S
C1363 C1362 1.414 . S
C1363 C1364 1.374 . S
C1364 H1338 0.950 . S
C1364 C1360 1.385 . S
C1364 C1363 1.374 . S
C1365 C1362 1.499 . S
C1365 C1366 1.373 . S
C1365 C1367 1.389 . S
C1366 H1339 0.950 . S
C1366 C1352 1.377 . S
C1366 C1365 1.373 . S
C1367 C1351 1.377 . S
C1367 C1365 1.389 . S
C1367 C1368 1.524 . S
C1368 C1367 1.524 . S
C1368 C1369 1.397 . S
C1368 C1373 1.363 . S
C1369 H1340 0.950 . S
C1369 C1368 1.397 . S
C1369 C1370 1.334 . S
C1370 H1341 0.950 . S
C1370 C1369 1.334 . S
C1370 C1371 1.287 . S
C1371 C1370 1.287 . S
C1371 C1372 1.524 . S
C1371 H1374 0.999 . S
C1372 H1342 0.950 . S
C1372 C1371 1.524 . S
C1372 C1373 1.415 . S
C1373 H1343 0.950 . S
C1373 C1368 1.363 . S
C1373 C1372 1.415 . S
H1374 C1371 0.999 . S
H1375 C1356 0.913 . S
H1376 C1394 0.951 . S
H1377 C1396 0.951 . S
H1378 C1398 0.950 . S
H1379 C1399 0.950 . S
H1380 C1401 0.950 . S
H1381 C1404 0.950 . S
H1382 C1405 0.950 . S
H1383 C1407 0.950 . S
H1384 C1408 0.950 . S
H1385 C1409 0.951 . S
H1386 C1411 0.951 . S
H1387 C1413 0.950 . S
H1388 C1414 0.950 . S
H1389 C1416 0.950 . S
H1390 C1419 0.950 . S
H1391 C1420 0.950 . S
H1392 C1422 0.950 . S
H1393 C1423 0.950 . S
C1394 H1376 0.951 . S
C1394 C1395 1.366 . S
C1394 C1396 1.388 . S
C1395 C1394 1.366 . S
C1395 C1399 1.385 . S
C1396 H1377 0.951 . S
C1396 C1394 1.388 . S
C1396 C1397 1.366 . S
C1397 C1396 1.366 . S
C1397 C1398 1.414 . S
C1397 C1400 1.499 . S
C1398 H1378 0.950 . S
C1398 C1397 1.414 . S
C1398 C1399 1.374 . S
C1399 H1379 0.950 . S
C1399 C1395 1.385 . S
C1399 C1398 1.374 . S
C1400 C1397 1.499 . S
C1400 C1401 1.373 . S
C1400 C1402 1.389 . S
C1401 H1380 0.950 . S
C1401 C1400 1.373 . S
C1401 C1417 1.377 . S
C1402 C1400 1.389 . S
C1402 C1403 1.524 . S
C1402 C1416 1.377 . S
C1403 C1402 1.524 . S
C1403 C1404 1.397 . S
C1403 C1408 1.363 . S
C1404 H1381 0.950 . S
C1404 C1403 1.397 . S
C1404 C1405 1.334 . S
C1405 H1382 0.950 . S
C1405 C1404 1.334 . S
C1405 C1406 1.287 . S
C1406 C1405 1.287 . S
C1406 C1407 1.524 . S
C1406 H1425 0.913 . S
C1407 H1383 0.950 . S
C1407 C1406 1.524 . S
C1407 C1408 1.415 . S
C1408 H1384 0.950 . S
C1408 C1403 1.363 . S
C1408 C1407 1.415 . S
C1409 H1385 0.951 . S
C1409 C1410 1.366 . S
C1409 C1411 1.388 . S
C1410 C1409 1.366 . S
C1410 C1414 1.385 . S
C1411 H1386 0.951 . S
C1411 C1409 1.388 . S
C1411 C1412 1.366 . S
C1412 C1411 1.366 . S
C1412 C1413 1.414 . S
C1412 C1415 1.499 . S
C1413 H1387 0.950 . S
C1413 C1412 1.414 . S
C1413 C1414 1.374 . S
C1414 H1388 0.950 . S
C1414 C1410 1.385 . S
C1414 C1413 1.374 . S
C1415 C1412 1.499 . S
C1415 C1416 1.373 . S
C1415 C1417 1.389 . S
C1416 H1389 0.950 . S
C1416 C1402 1.377 . S
C1416 C1415 1.373 . S
C1417 C1401 1.377 . S
C1417 C1415 1.389 . S
C1417 C1418 1.524 . S
C1418 C1417 1.524 . S
C1418 C1419 1.397 . S
C1418 C1423 1.363 . S
C1419 H1390 0.950 . S
C1419 C1418 1.397 . S
C1419 C1420 1.334 . S
C1420 H1391 0.950 . S
C1420 C1419 1.334 . S
C1420 C1421 1.287 . S
C1421 C1420 1.287 . S
C1421 C1422 1.524 . S
C1421 H1424 0.999 . S
C1422 H1392 0.950 . S
C1422 C1421 1.524 . S
C1422 C1423 1.415 . S
C1423 H1393 0.950 . S
C1423 C1418 1.363 . S
C1423 C1422 1.415 . S
H1424 C1421 0.999 . S
H1425 C1406 0.913 . S
H1426 C1444 0.951 . S
H1427 C1446 0.951 . S
H1428 C1448 0.950 . S
H1429 C1449 0.950 . S
H1430 C1451 0.950 . S
H1431 C1454 0.950 . S
H1432 C1455 0.950 . S
H1433 C1457 0.950 . S
H1434 C1458 0.950 . S
H1435 C1459 0.951 . S
H1436 C1461 0.951 . S
H1437 C1463 0.950 . S
H1438 C1464 0.950 . S
H1439 C1466 0.950 . S
H1440 C1469 0.950 . S
H1441 C1470 0.950 . S
H1442 C1472 0.950 . S
H1443 C1473 0.950 . S
C1444 H1426 0.951 . S
C1444 C1445 1.366 . S
C1444 C1446 1.388 . S
C1445 C1444 1.366 . S
C1445 C1449 1.385 . S
C1446 H1427 0.951 . S
C1446 C1444 1.388 . S
C1446 C1447 1.366 . S
C1447 C1446 1.366 . S
C1447 C1448 1.414 . S
C1447 C1450 1.499 . S
C1448 H1428 0.950 . S
C1448 C1447 1.414 . S
C1448 C1449 1.374 . S
C1449 H1429 0.950 . S
C1449 C1445 1.385 . S
C1449 C1448 1.374 . S
C1450 C1447 1.499 . S
C1450 C1451 1.373 . S
C1450 C1452 1.389 . S
C1451 H1430 0.950 . S
C1451 C1450 1.373 . S
C1451 C1467 1.377 . S
C1452 C1450 1.389 . S
C1452 C1453 1.524 . S
C1452 C1466 1.377 . S
C1453 C1452 1.524 . S
C1453 C1454 1.397 . S
C1453 C1458 1.363 . S
C1454 H1431 0.950 . S
C1454 C1453 1.397 . S
C1454 C1455 1.334 . S
C1455 H1432 0.950 . S
C1455 C1454 1.334 . S
C1455 C1456 1.287 . S
C1456 C1455 1.287 . S
C1456 C1457 1.524 . S
C1456 H1475 0.913 . S
C1457 H1433 0.950 . S
C1457 C1456 1.524 . S
C1457 C1458 1.415 . S
C1458 H1434 0.950 . S
C1458 C1453 1.363 . S
C1458 C1457 1.415 . S
C1459 H1435 0.951 . S
C1459 C1460 1.366 . S
C1459 C1461 1.388 . S
C1460 C1459 1.366 . S
C1460 C1464 1.385 . S
C1461 H1436 0.951 . S
C1461 C1459 1.388 . S
C1461 C1462 1.366 . S
C1462 C1461 1.366 . S
C1462 C1463 1.414 . S
C1462 C1465 1.499 . S
C1463 H1437 0.950 . S
C1463 C1462 1.414 . S
C1463 C1464 1.374 . S
C1464 H1438 0.950 . S
C1464 C1460 1.385 . S
C1464 C1463 1.374 . S
C1465 C1462 1.499 . S
C1465 C1466 1.373 . S
C1465 C1467 1.389 . S
C1466 H1439 0.950 . S
C1466 C1452 1.377 . S
C1466 C1465 1.373 . S
C1467 C1451 1.377 . S
C1467 C1465 1.389 . S
C1467 C1468 1.524 . S
C1468 C1467 1.524 . S
C1468 C1469 1.397 . S
C1468 C1473 1.363 . S
C1469 H1440 0.950 . S
C1469 C1468 1.397 . S
C1469 C1470 1.334 . S
C1470 H1441 0.950 . S
C1470 C1469 1.334 . S
C1470 C1471 1.287 . S
C1471 C1470 1.287 . S
C1471 C1472 1.524 . S
C1471 H1474 0.999 . S
C1472 H1442 0.950 . S
C1472 C1471 1.524 . S
C1472 C1473 1.415 . S
C1473 H1443 0.950 . S
C1473 C1468 1.363 . S
C1473 C1472 1.415 . S
H1474 C1471 0.999 . S
H1475 C1456 0.913 . S
H1476 C1494 0.951 . S
H1477 C1496 0.951 . S
H1478 C1498 0.950 . S
H1479 C1499 0.950 . S
H1480 C1501 0.950 . S
H1481 C1504 0.950 . S
H1482 C1505 0.950 . S
H1483 C1507 0.950 . S
H1484 C1508 0.950 . S
H1485 C1509 0.951 . S
H1486 C1511 0.951 . S
H1487 C1513 0.950 . S
H1488 C1514 0.950 . S
H1489 C1516 0.950 . S
H1490 C1519 0.950 . S
H1491 C1520 0.950 . S
H1492 C1522 0.950 . S
H1493 C1523 0.950 . S
C1494 H1476 0.951 . S
C1494 C1495 1.366 . S
C1494 C1496 1.388 . S
C1495 C1494 1.366 . S
C1495 C1499 1.385 . S
C1496 H1477 0.951 . S
C1496 C1494 1.388 . S
C1496 C1497 1.366 . S
C1497 C1496 1.366 . S
C1497 C1498 1.414 . S
C1497 C1500 1.499 . S
C1498 H1478 0.950 . S
C1498 C1497 1.414 . S
C1498 C1499 1.374 . S
C1499 H1479 0.950 . S
C1499 C1495 1.385 . S
C1499 C1498 1.374 . S
C1500 C1497 1.499 . S
C1500 C1501 1.373 . S
C1500 C1502 1.389 . S
C1501 H1480 0.950 . S
C1501 C1500 1.373 . S
C1501 C1517 1.377 . S
C1502 C1500 1.389 . S
C1502 C1503 1.524 . S
C1502 C1516 1.377 . S
C1503 C1502 1.524 . S
C1503 C1504 1.397 . S
C1503 C1508 1.363 . S
C1504 H1481 0.950 . S
C1504 C1503 1.397 . S
C1504 C1505 1.334 . S
C1505 H1482 0.950 . S
C1505 C1504 1.334 . S
C1505 C1506 1.287 . S
C1506 C1505 1.287 . S
C1506 C1507 1.524 . S
C1506 H1525 0.913 . S
C1507 H1483 0.950 . S
C1507 C1506 1.524 . S
C1507 C1508 1.415 . S
C1508 H1484 0.950 . S
C1508 C1503 1.363 . S
C1508 C1507 1.415 . S
C1509 H1485 0.951 . S
C1509 C1510 1.366 . S
C1509 C1511 1.388 . S
C1510 C1509 1.366 . S
C1510 C1514 1.385 . S
C1511 H1486 0.951 . S
C1511 C1509 1.388 . S
C1511 C1512 1.366 . S
C1512 C1511 1.366 . S
C1512 C1513 1.414 . S
C1512 C1515 1.499 . S
C1513 H1487 0.950 . S
C1513 C1512 1.414 . S
C1513 C1514 1.374 . S
C1514 H1488 0.950 . S
C1514 C1510 1.385 . S
C1514 C1513 1.374 . S
C1515 C1512 1.499 . S
C1515 C1516 1.373 . S
C1515 C1517 1.389 . S
C1516 H1489 0.950 . S
C1516 C1502 1.377 . S
C1516 C1515 1.373 . S
C1517 C1501 1.377 . S
C1517 C1515 1.389 . S
C1517 C1518 1.524 . S
C1518 C1517 1.524 . S
C1518 C1519 1.397 . S
C1518 C1523 1.363 . S
C1519 H1490 0.950 . S
C1519 C1518 1.397 . S
C1519 C1520 1.334 . S
C1520 H1491 0.950 . S
C1520 C1519 1.334 . S
C1520 C1521 1.287 . S
C1521 C1520 1.287 . S
C1521 C1522 1.524 . S
C1521 H1524 0.999 . S
C1522 H1492 0.950 . S
C1522 C1521 1.524 . S
C1522 C1523 1.415 . S
C1523 H1493 0.950 . S
C1523 C1518 1.363 . S
C1523 C1522 1.415 . S
H1524 C1521 0.999 . S
H1525 C1506 0.913 . S
H1526 C1544 0.951 . S
H1527 C1546 0.951 . S
H1528 C1548 0.950 . S
H1529 C1549 0.950 . S
H1530 C1551 0.950 . S
H1531 C1554 0.950 . S
H1532 C1555 0.950 . S
H1533 C1557 0.950 . S
H1534 C1558 0.950 . S
H1535 C1559 0.951 . S
H1536 C1561 0.951 . S
H1537 C1563 0.950 . S
H1538 C1564 0.950 . S
H1539 C1566 0.950 . S
H1540 C1569 0.950 . S
H1541 C1570 0.950 . S
H1542 C1572 0.950 . S
H1543 C1573 0.950 . S
C1544 H1526 0.951 . S
C1544 C1545 1.366 . S
C1544 C1546 1.388 . S
C1545 C1544 1.366 . S
C1545 C1549 1.385 . S
C1546 H1527 0.951 . S
C1546 C1544 1.388 . S
C1546 C1547 1.366 . S
C1547 C1546 1.366 . S
C1547 C1548 1.414 . S
C1547 C1550 1.499 . S
C1548 H1528 0.950 . S
C1548 C1547 1.414 . S
C1548 C1549 1.374 . S
C1549 H1529 0.950 . S
C1549 C1545 1.385 . S
C1549 C1548 1.374 . S
C1550 C1547 1.499 . S
C1550 C1551 1.373 . S
C1550 C1552 1.389 . S
C1551 H1530 0.950 . S
C1551 C1550 1.373 . S
C1551 C1567 1.377 . S
C1552 C1550 1.389 . S
C1552 C1553 1.524 . S
C1552 C1566 1.377 . S
C1553 C1552 1.524 . S
C1553 C1554 1.397 . S
C1553 C1558 1.363 . S
C1554 H1531 0.950 . S
C1554 C1553 1.397 . S
C1554 C1555 1.334 . S
C1555 H1532 0.950 . S
C1555 C1554 1.334 . S
C1555 C1556 1.287 . S
C1556 C1555 1.287 . S
C1556 C1557 1.524 . S
C1556 H1575 0.913 . S
C1557 H1533 0.950 . S
C1557 C1556 1.524 . S
C1557 C1558 1.415 . S
C1558 H1534 0.950 . S
C1558 C1553 1.363 . S
C1558 C1557 1.415 . S
C1559 H1535 0.951 . S
C1559 C1560 1.366 . S
C1559 C1561 1.388 . S
C1560 C1559 1.366 . S
C1560 C1564 1.385 . S
C1561 H1536 0.951 . S
C1561 C1559 1.388 . S
C1561 C1562 1.366 . S
C1562 C1561 1.366 . S
C1562 C1563 1.414 . S
C1562 C1565 1.499 . S
C1563 H1537 0.950 . S
C1563 C1562 1.414 . S
C1563 C1564 1.374 . S
C1564 H1538 0.950 . S
C1564 C1560 1.385 . S
C1564 C1563 1.374 . S
C1565 C1562 1.499 . S
C1565 C1566 1.373 . S
C1565 C1567 1.389 . S
C1566 H1539 0.950 . S
C1566 C1552 1.377 . S
C1566 C1565 1.373 . S
C1567 C1551 1.377 . S
C1567 C1565 1.389 . S
C1567 C1568 1.524 . S
C1568 C1567 1.524 . S
C1568 C1569 1.397 . S
C1568 C1573 1.363 . S
C1569 H1540 0.950 . S
C1569 C1568 1.397 . S
C1569 C1570 1.334 . S
C1570 H1541 0.950 . S
C1570 C1569 1.334 . S
C1570 C1571 1.287 . S
C1571 C1570 1.287 . S
C1571 C1572 1.524 . S
C1571 H1574 0.999 . S
C1572 H1542 0.950 . S
C1572 C1571 1.524 . S
C1572 C1573 1.415 . S
C1573 H1543 0.950 . S
C1573 C1568 1.363 . S
C1573 C1572 1.415 . S
H1574 C1571 0.999 . S
H1575 C1556 0.913 . S
H1576 C1594 0.951 . S
H1577 C1596 0.951 . S
H1578 C1598 0.950 . S
H1579 C1599 0.950 . S
H1580 C1601 0.950 . S
H1581 C1604 0.950 . S
H1582 C1605 0.950 . S
H1583 C1607 0.950 . S
H1584 C1608 0.950 . S
H1585 C1609 0.951 . S
H1586 C1611 0.951 . S
H1587 C1613 0.950 . S
H1588 C1614 0.950 . S
H1589 C1616 0.950 . S
H1590 C1619 0.950 . S
H1591 C1620 0.950 . S
H1592 C1622 0.950 . S
H1593 C1623 0.950 . S
C1594 H1576 0.951 . S
C1594 C1595 1.366 . S
C1594 C1596 1.388 . S
C1595 C1594 1.366 . S
C1595 C1599 1.385 . S
C1596 H1577 0.951 . S
C1596 C1594 1.388 . S
C1596 C1597 1.366 . S
C1597 C1596 1.366 . S
C1597 C1598 1.414 . S
C1597 C1600 1.499 . S
C1598 H1578 0.950 . S
C1598 C1597 1.414 . S
C1598 C1599 1.374 . S
C1599 H1579 0.950 . S
C1599 C1595 1.385 . S
C1599 C1598 1.374 . S
C1600 C1597 1.499 . S
C1600 C1601 1.373 . S
C1600 C1602 1.389 . S
C1601 H1580 0.950 . S
C1601 C1600 1.373 . S
C1601 C1617 1.377 . S
C1602 C1600 1.389 . S
C1602 C1603 1.524 . S
C1602 C1616 1.377 . S
C1603 C1602 1.524 . S
C1603 C1604 1.397 . S
C1603 C1608 1.363 . S
C1604 H1581 0.950 . S
C1604 C1603 1.397 . S
C1604 C1605 1.334 . S
C1605 H1582 0.950 . S
C1605 C1604 1.334 . S
C1605 C1606 1.287 . S
C1606 C1605 1.287 . S
C1606 C1607 1.524 . S
C1606 H1625 0.913 . S
C1607 H1583 0.950 . S
C1607 C1606 1.524 . S
C1607 C1608 1.415 . S
C1608 H1584 0.950 . S
C1608 C1603 1.363 . S
C1608 C1607 1.415 . S
C1609 H1585 0.951 . S
C1609 C1610 1.366 . S
C1609 C1611 1.388 . S
C1610 C1609 1.366 . S
C1610 C1614 1.385 . S
C1611 H1586 0.951 . S
C1611 C1609 1.388 . S
C1611 C1612 1.366 . S
C1612 C1611 1.366 . S
C1612 C1613 1.414 . S
C1612 C1615 1.499 . S
C1613 H1587 0.950 . S
C1613 C1612 1.414 . S
C1613 C1614 1.374 . S
C1614 H1588 0.950 . S
C1614 C1610 1.385 . S
C1614 C1613 1.374 . S
C1615 C1612 1.499 . S
C1615 C1616 1.373 . S
C1615 C1617 1.389 . S
C1616 H1589 0.950 . S
C1616 C1602 1.377 . S
C1616 C1615 1.373 . S
C1617 C1601 1.377 . S
C1617 C1615 1.389 . S
C1617 C1618 1.524 . S
C1618 C1617 1.524 . S
C1618 C1619 1.397 . S
C1618 C1623 1.363 . S
C1619 H1590 0.950 . S
C1619 C1618 1.397 . S
C1619 C1620 1.334 . S
C1620 H1591 0.950 . S
C1620 C1619 1.334 . S
C1620 C1621 1.287 . S
C1621 C1620 1.287 . S
C1621 C1622 1.524 . S
C1621 H1624 0.999 . S
C1622 H1592 0.950 . S
C1622 C1621 1.524 . S
C1622 C1623 1.415 . S
C1623 H1593 0.950 . S
C1623 C1618 1.363 . S
C1623 C1622 1.415 . S
H1624 C1621 0.999 . S
H1625 C1606 0.913 . S
H1626 C1644 0.951 . S
H1627 C1646 0.951 . S
H1628 C1648 0.950 . S
H1629 C1649 0.950 . S
H1630 C1651 0.950 . S
H1631 C1654 0.950 . S
H1632 C1655 0.950 . S
H1633 C1657 0.950 . S
H1634 C1658 0.950 . S
H1635 C1659 0.951 . S
H1636 C1661 0.951 . S
H1637 C1663 0.950 . S
H1638 C1664 0.950 . S
H1639 C1666 0.950 . S
H1640 C1669 0.950 . S
H1641 C1670 0.950 . S
H1642 C1672 0.950 . S
H1643 C1673 0.950 . S
C1644 H1626 0.951 . S
C1644 C1645 1.366 . S
C1644 C1646 1.388 . S
C1645 C1644 1.366 . S
C1645 C1649 1.385 . S
C1646 H1627 0.951 . S
C1646 C1644 1.388 . S
C1646 C1647 1.366 . S
C1647 C1646 1.366 . S
C1647 C1648 1.414 . S
C1647 C1650 1.499 1_545 S
C1648 H1628 0.950 . S
C1648 C1647 1.414 . S
C1648 C1649 1.374 . S
C1649 H1629 0.950 . S
C1649 C1645 1.385 . S
C1649 C1648 1.374 . S
C1650 C1647 1.499 1_565 S
C1650 C1651 1.373 . S
C1650 C1652 1.389 . S
C1651 H1630 0.950 . S
C1651 C1650 1.373 . S
C1651 C1667 1.377 . S
C1652 C1650 1.389 . S
C1652 C1653 1.524 . S
C1652 C1666 1.377 . S
C1653 C1652 1.524 . S
C1653 C1654 1.397 1_565 S
C1653 C1658 1.363 . S
C1654 H1631 0.950 . S
C1654 C1653 1.397 1_545 S
C1654 C1655 1.334 . S
C1655 H1632 0.950 . S
C1655 C1654 1.334 . S
C1655 C1656 1.287 . S
C1656 C1655 1.287 . S
C1656 C1657 1.524 1_545 S
C1656 H1675 0.913 . S
C1657 H1633 0.950 . S
C1657 C1656 1.524 1_565 S
C1657 C1658 1.415 . S
C1658 H1634 0.950 . S
C1658 C1653 1.363 . S
C1658 C1657 1.415 . S
C1659 H1635 0.951 . S
C1659 C1660 1.366 . S
C1659 C1661 1.388 . S
C1660 C1659 1.366 . S
C1660 C1664 1.385 . S
C1661 H1636 0.951 . S
C1661 C1659 1.388 . S
C1661 C1662 1.366 . S
C1662 C1661 1.366 . S
C1662 C1663 1.414 . S
C1662 C1665 1.499 . S
C1663 H1637 0.950 . S
C1663 C1662 1.414 . S
C1663 C1664 1.374 . S
C1664 H1638 0.950 . S
C1664 C1660 1.385 . S
C1664 C1663 1.374 . S
C1665 C1662 1.499 . S
C1665 C1666 1.373 . S
C1665 C1667 1.389 . S
C1666 H1639 0.950 . S
C1666 C1652 1.377 . S
C1666 C1665 1.373 . S
C1667 C1651 1.377 . S
C1667 C1665 1.389 . S
C1667 C1668 1.524 . S
C1668 C1667 1.524 . S
C1668 C1669 1.397 . S
C1668 C1673 1.363 . S
C1669 H1640 0.950 . S
C1669 C1668 1.397 . S
C1669 C1670 1.334 . S
C1670 H1641 0.950 . S
C1670 C1669 1.334 . S
C1670 C1671 1.287 . S
C1671 C1670 1.287 . S
C1671 C1672 1.524 . S
C1671 H1674 0.999 . S
C1672 H1642 0.950 . S
C1672 C1671 1.524 . S
C1672 C1673 1.415 . S
C1673 H1643 0.950 . S
C1673 C1668 1.363 . S
C1673 C1672 1.415 . S
H1674 C1671 0.999 . S
H1675 C1656 0.913 . S
H1676 C1694 0.951 . S
H1677 C1696 0.951 . S
H1678 C1698 0.950 . S
H1679 C1699 0.950 . S
H1680 C1701 0.950 . S
H1681 C1704 0.950 . S
H1682 C1705 0.950 . S
H1683 C1707 0.950 . S
H1684 C1708 0.950 . S
H1685 C1709 0.951 . S
H1686 C1711 0.951 . S
H1687 C1713 0.950 . S
H1688 C1714 0.950 . S
H1689 C1716 0.950 . S
H1690 C1719 0.950 . S
H1691 C1720 0.950 . S
H1692 C1722 0.950 . S
H1693 C1723 0.950 . S
C1694 H1676 0.951 . S
C1694 C1695 1.366 . S
C1694 C1696 1.388 1_655 S
C1695 C1694 1.366 . S
C1695 C1699 1.385 . S
C1696 H1677 0.951 . S
C1696 C1694 1.388 1_455 S
C1696 C1697 1.366 . S
C1697 C1696 1.366 . S
C1697 C1698 1.414 . S
C1697 C1700 1.499 . S
C1698 H1678 0.950 . S
C1698 C1697 1.414 . S
C1698 C1699 1.374 1_455 S
C1699 H1679 0.950 . S
C1699 C1695 1.385 . S
C1699 C1698 1.374 1_655 S
C1700 C1697 1.499 . S
C1700 C1701 1.373 . S
C1700 C1702 1.389 . S
C1701 H1680 0.950 . S
C1701 C1700 1.373 . S
C1701 C1717 1.377 . S
C1702 C1700 1.389 . S
C1702 C1703 1.524 . S
C1702 C1716 1.377 . S
C1703 C1702 1.524 . S
C1703 C1704 1.397 . S
C1703 C1708 1.363 . S
C1704 H1681 0.950 . S
C1704 C1703 1.397 . S
C1704 C1705 1.334 1_455 S
C1705 H1682 0.950 . S
C1705 C1704 1.334 1_655 S
C1705 C1706 1.287 . S
C1706 C1705 1.287 . S
C1706 C1707 1.524 1_655 S
C1706 H1725 0.913 . S
C1707 H1683 0.950 . S
C1707 C1706 1.524 1_455 S
C1707 C1708 1.415 . S
C1708 H1684 0.950 . S
C1708 C1703 1.363 . S
C1708 C1707 1.415 . S
C1709 H1685 0.951 . S
C1709 C1710 1.366 . S
C1709 C1711 1.388 . S
C1710 C1709 1.366 . S
C1710 C1714 1.385 . S
C1711 H1686 0.951 . S
C1711 C1709 1.388 . S
C1711 C1712 1.366 . S
C1712 C1711 1.366 . S
C1712 C1713 1.414 . S
C1712 C1715 1.499 . S
C1713 H1687 0.950 . S
C1713 C1712 1.414 . S
C1713 C1714 1.374 . S
C1714 H1688 0.950 . S
C1714 C1710 1.385 . S
C1714 C1713 1.374 . S
C1715 C1712 1.499 . S
C1715 C1716 1.373 . S
C1715 C1717 1.389 . S
C1716 H1689 0.950 . S
C1716 C1702 1.377 . S
C1716 C1715 1.373 . S
C1717 C1701 1.377 . S
C1717 C1715 1.389 . S
C1717 C1718 1.524 . S
C1718 C1717 1.524 . S
C1718 C1719 1.397 . S
C1718 C1723 1.363 . S
C1719 H1690 0.950 . S
C1719 C1718 1.397 . S
C1719 C1720 1.334 . S
C1720 H1691 0.950 . S
C1720 C1719 1.334 . S
C1720 C1721 1.287 . S
C1721 C1720 1.287 . S
C1721 C1722 1.524 . S
C1721 H1724 0.999 . S
C1722 H1692 0.950 . S
C1722 C1721 1.524 . S
C1722 C1723 1.415 . S
C1723 H1693 0.950 . S
C1723 C1718 1.363 . S
C1723 C1722 1.415 . S
H1724 C1721 0.999 . S
H1725 C1706 0.913 . S
H1726 C1744 0.951 . S
H1727 C1746 0.951 . S
H1728 C1748 0.950 . S
H1729 C1749 0.950 . S
H1730 C1751 0.950 . S
H1731 C1754 0.950 . S
H1732 C1755 0.950 . S
H1733 C1757 0.950 . S
H1734 C1758 0.950 . S
H1735 C1759 0.951 . S
H1736 C1761 0.951 . S
H1737 C1763 0.950 . S
H1738 C1764 0.950 . S
H1739 C1766 0.950 . S
H1740 C1769 0.950 . S
H1741 C1770 0.950 . S
H1742 C1772 0.950 . S
H1743 C1773 0.950 . S
C1744 H1726 0.951 . S
C1744 C1745 1.366 . S
C1744 C1746 1.388 . S
C1745 C1744 1.366 . S
C1745 C1749 1.385 . S
C1746 H1727 0.951 . S
C1746 C1744 1.388 . S
C1746 C1747 1.366 . S
C1747 C1746 1.366 . S
C1747 C1748 1.414 . S
C1747 C1750 1.499 . S
C1748 H1728 0.950 . S
C1748 C1747 1.414 . S
C1748 C1749 1.374 . S
C1749 H1729 0.950 . S
C1749 C1745 1.385 . S
C1749 C1748 1.374 . S
C1750 C1747 1.499 . S
C1750 C1751 1.373 . S
C1750 C1752 1.389 . S
C1751 H1730 0.950 . S
C1751 C1750 1.373 . S
C1751 C1767 1.377 . S
C1752 C1750 1.389 . S
C1752 C1753 1.524 . S
C1752 C1766 1.377 . S
C1753 C1752 1.524 . S
C1753 C1754 1.397 . S
C1753 C1758 1.363 . S
C1754 H1731 0.950 . S
C1754 C1753 1.397 . S
C1754 C1755 1.334 . S
C1755 H1732 0.950 . S
C1755 C1754 1.334 . S
C1755 C1756 1.287 . S
C1756 C1755 1.287 . S
C1756 C1757 1.524 . S
C1756 H1775 0.913 . S
C1757 H1733 0.950 . S
C1757 C1756 1.524 . S
C1757 C1758 1.415 . S
C1758 H1734 0.950 . S
C1758 C1753 1.363 . S
C1758 C1757 1.415 . S
C1759 H1735 0.951 . S
C1759 C1760 1.366 . S
C1759 C1761 1.388 . S
C1760 C1759 1.366 . S
C1760 C1764 1.385 . S
C1761 H1736 0.951 . S
C1761 C1759 1.388 . S
C1761 C1762 1.366 . S
C1762 C1761 1.366 . S
C1762 C1763 1.414 . S
C1762 C1765 1.499 . S
C1763 H1737 0.950 . S
C1763 C1762 1.414 . S
C1763 C1764 1.374 . S
C1764 H1738 0.950 . S
C1764 C1760 1.385 . S
C1764 C1763 1.374 . S
C1765 C1762 1.499 . S
C1765 C1766 1.373 . S
C1765 C1767 1.389 . S
C1766 H1739 0.950 . S
C1766 C1752 1.377 . S
C1766 C1765 1.373 . S
C1767 C1751 1.377 . S
C1767 C1765 1.389 . S
C1767 C1768 1.524 . S
C1768 C1767 1.524 . S
C1768 C1769 1.397 . S
C1768 C1773 1.363 . S
C1769 H1740 0.950 . S
C1769 C1768 1.397 . S
C1769 C1770 1.334 . S
C1770 H1741 0.950 . S
C1770 C1769 1.334 . S
C1770 C1771 1.287 . S
C1771 C1770 1.287 . S
C1771 C1772 1.524 . S
C1771 H1774 0.999 . S
C1772 H1742 0.950 . S
C1772 C1771 1.524 . S
C1772 C1773 1.415 . S
C1773 H1743 0.950 . S
C1773 C1768 1.363 . S
C1773 C1772 1.415 . S
H1774 C1771 0.999 . S
H1775 C1756 0.913 . S
H1776 C1794 0.951 . S
H1777 C1796 0.951 . S
H1778 C1798 0.950 . S
H1779 C1799 0.950 . S
H1780 C1801 0.950 . S
H1781 C1804 0.950 . S
H1782 C1805 0.950 . S
H1783 C1807 0.950 . S
H1784 C1808 0.950 . S
H1785 C1809 0.951 . S
H1786 C1811 0.951 . S
H1787 C1813 0.950 . S
H1788 C1814 0.950 . S
H1789 C1816 0.950 . S
H1790 C1819 0.950 . S
H1791 C1820 0.950 . S
H1792 C1822 0.950 . S
H1793 C1823 0.950 . S
C1794 H1776 0.951 . S
C1794 C1795 1.366 . S
C1794 C1796 1.388 . S
C1795 C1794 1.366 . S
C1795 C1799 1.385 . S
C1796 H1777 0.951 . S
C1796 C1794 1.388 . S
C1796 C1797 1.366 . S
C1797 C1796 1.366 . S
C1797 C1798 1.414 . S
C1797 C1800 1.499 . S
C1798 H1778 0.950 . S
C1798 C1797 1.414 . S
C1798 C1799 1.374 . S
C1799 H1779 0.950 . S
C1799 C1795 1.385 . S
C1799 C1798 1.374 . S
C1800 C1797 1.499 . S
C1800 C1801 1.373 . S
C1800 C1802 1.389 . S
C1801 H1780 0.950 . S
C1801 C1800 1.373 . S
C1801 C1817 1.377 . S
C1802 C1800 1.389 . S
C1802 C1803 1.524 . S
C1802 C1816 1.377 . S
C1803 C1802 1.524 . S
C1803 C1804 1.397 . S
C1803 C1808 1.363 . S
C1804 H1781 0.950 . S
C1804 C1803 1.397 . S
C1804 C1805 1.334 . S
C1805 H1782 0.950 . S
C1805 C1804 1.334 . S
C1805 C1806 1.287 . S
C1806 C1805 1.287 . S
C1806 C1807 1.524 . S
C1806 H1825 0.913 . S
C1807 H1783 0.950 . S
C1807 C1806 1.524 . S
C1807 C1808 1.415 . S
C1808 H1784 0.950 . S
C1808 C1803 1.363 . S
C1808 C1807 1.415 . S
C1809 H1785 0.951 . S
C1809 C1810 1.366 . S
C1809 C1811 1.388 . S
C1810 C1809 1.366 . S
C1810 C1814 1.385 . S
C1811 H1786 0.951 . S
C1811 C1809 1.388 . S
C1811 C1812 1.366 . S
C1812 C1811 1.366 . S
C1812 C1813 1.414 . S
C1812 C1815 1.499 . S
C1813 H1787 0.950 . S
C1813 C1812 1.414 . S
C1813 C1814 1.374 . S
C1814 H1788 0.950 . S
C1814 C1810 1.385 . S
C1814 C1813 1.374 . S
C1815 C1812 1.499 . S
C1815 C1816 1.373 . S
C1815 C1817 1.389 . S
C1816 H1789 0.950 . S
C1816 C1802 1.377 . S
C1816 C1815 1.373 . S
C1817 C1801 1.377 . S
C1817 C1815 1.389 . S
C1817 C1818 1.524 . S
C1818 C1817 1.524 . S
C1818 C1819 1.397 . S
C1818 C1823 1.363 . S
C1819 H1790 0.950 . S
C1819 C1818 1.397 . S
C1819 C1820 1.334 . S
C1820 H1791 0.950 . S
C1820 C1819 1.334 . S
C1820 C1821 1.287 . S
C1821 C1820 1.287 . S
C1821 C1822 1.524 . S
C1821 H1824 0.999 . S
C1822 H1792 0.950 . S
C1822 C1821 1.524 . S
C1822 C1823 1.415 . S
C1823 H1793 0.950 . S
C1823 C1818 1.363 . S
C1823 C1822 1.415 . S
H1824 C1821 0.999 . S
H1825 C1806 0.913 . S
H1826 C1844 0.951 . S
H1827 C1846 0.951 . S
H1828 C1848 0.950 . S
H1829 C1849 0.950 . S
H1830 C1851 0.950 . S
H1831 C1854 0.950 . S
H1832 C1855 0.950 . S
H1833 C1857 0.950 . S
H1834 C1858 0.950 . S
H1835 C1859 0.951 . S
H1836 C1861 0.951 . S
H1837 C1863 0.950 . S
H1838 C1864 0.950 . S
H1839 C1866 0.950 . S
H1840 C1869 0.950 . S
H1841 C1870 0.950 . S
H1842 C1872 0.950 . S
H1843 C1873 0.950 . S
C1844 H1826 0.951 . S
C1844 C1845 1.366 . S
C1844 C1846 1.388 . S
C1845 C1844 1.366 . S
C1845 C1849 1.385 . S
C1846 H1827 0.951 . S
C1846 C1844 1.388 . S
C1846 C1847 1.366 . S
C1847 C1846 1.366 . S
C1847 C1848 1.414 . S
C1847 C1850 1.499 . S
C1848 H1828 0.950 . S
C1848 C1847 1.414 . S
C1848 C1849 1.374 . S
C1849 H1829 0.950 . S
C1849 C1845 1.385 . S
C1849 C1848 1.374 . S
C1850 C1847 1.499 . S
C1850 C1851 1.373 . S
C1850 C1852 1.389 . S
C1851 H1830 0.950 . S
C1851 C1850 1.373 . S
C1851 C1867 1.377 . S
C1852 C1850 1.389 . S
C1852 C1853 1.524 . S
C1852 C1866 1.377 . S
C1853 C1852 1.524 . S
C1853 C1854 1.397 . S
C1853 C1858 1.363 . S
C1854 H1831 0.950 . S
C1854 C1853 1.397 . S
C1854 C1855 1.334 . S
C1855 H1832 0.950 . S
C1855 C1854 1.334 . S
C1855 C1856 1.287 . S
C1856 C1855 1.287 . S
C1856 C1857 1.524 . S
C1856 H1875 0.913 . S
C1857 H1833 0.950 . S
C1857 C1856 1.524 . S
C1857 C1858 1.415 . S
C1858 H1834 0.950 . S
C1858 C1853 1.363 . S
C1858 C1857 1.415 . S
C1859 H1835 0.951 . S
C1859 C1860 1.366 . S
C1859 C1861 1.388 . S
C1860 C1859 1.366 . S
C1860 C1864 1.385 . S
C1861 H1836 0.951 . S
C1861 C1859 1.388 . S
C1861 C1862 1.366 . S
C1862 C1861 1.366 . S
C1862 C1863 1.414 . S
C1862 C1865 1.499 . S
C1863 H1837 0.950 . S
C1863 C1862 1.414 . S
C1863 C1864 1.374 . S
C1864 H1838 0.950 . S
C1864 C1860 1.385 . S
C1864 C1863 1.374 . S
C1865 C1862 1.499 . S
C1865 C1866 1.373 . S
C1865 C1867 1.389 . S
C1866 H1839 0.950 . S
C1866 C1852 1.377 . S
C1866 C1865 1.373 . S
C1867 C1851 1.377 . S
C1867 C1865 1.389 . S
C1867 C1868 1.524 . S
C1868 C1867 1.524 . S
C1868 C1869 1.397 . S
C1868 C1873 1.363 . S
C1869 H1840 0.950 . S
C1869 C1868 1.397 . S
C1869 C1870 1.334 . S
C1870 H1841 0.950 . S
C1870 C1869 1.334 . S
C1870 C1871 1.287 . S
C1871 C1870 1.287 . S
C1871 C1872 1.524 . S
C1871 H1874 0.999 . S
C1872 H1842 0.950 . S
C1872 C1871 1.524 . S
C1872 C1873 1.415 . S
C1873 H1843 0.950 . S
C1873 C1868 1.363 . S
C1873 C1872 1.415 . S
H1874 C1871 0.999 . S
H1875 C1856 0.913 . S
H1876 C1894 0.951 . S
H1877 C1896 0.951 . S
H1878 C1898 0.950 . S
H1879 C1899 0.950 . S
H1880 C1901 0.950 . S
H1881 C1904 0.950 . S
H1882 C1905 0.950 . S
H1883 C1907 0.950 . S
H1884 C1908 0.950 . S
H1885 C1909 0.951 . S
H1886 C1911 0.951 . S
H1887 C1913 0.950 . S
H1888 C1914 0.950 . S
H1889 C1916 0.950 . S
H1890 C1919 0.950 . S
H1891 C1920 0.950 . S
H1892 C1922 0.950 . S
H1893 C1923 0.950 . S
C1894 H1876 0.951 . S
C1894 C1895 1.366 . S
C1894 C1896 1.388 . S
C1895 C1894 1.366 . S
C1895 C1899 1.385 . S
C1896 H1877 0.951 . S
C1896 C1894 1.388 . S
C1896 C1897 1.366 . S
C1897 C1896 1.366 . S
C1897 C1898 1.414 . S
C1897 C1900 1.499 . S
C1898 H1878 0.950 . S
C1898 C1897 1.414 . S
C1898 C1899 1.374 . S
C1899 H1879 0.950 . S
C1899 C1895 1.385 . S
C1899 C1898 1.374 . S
C1900 C1897 1.499 . S
C1900 C1901 1.373 . S
C1900 C1902 1.389 . S
C1901 H1880 0.950 . S
C1901 C1900 1.373 . S
C1901 C1917 1.377 . S
C1902 C1900 1.389 . S
C1902 C1903 1.524 . S
C1902 C1916 1.377 . S
C1903 C1902 1.524 . S
C1903 C1904 1.397 . S
C1903 C1908 1.363 . S
C1904 H1881 0.950 . S
C1904 C1903 1.397 . S
C1904 C1905 1.334 . S
C1905 H1882 0.950 . S
C1905 C1904 1.334 . S
C1905 C1906 1.287 . S
C1906 C1905 1.287 . S
C1906 C1907 1.524 . S
C1906 H1925 0.913 . S
C1907 H1883 0.950 . S
C1907 C1906 1.524 . S
C1907 C1908 1.415 . S
C1908 H1884 0.950 . S
C1908 C1903 1.363 . S
C1908 C1907 1.415 . S
C1909 H1885 0.951 . S
C1909 C1910 1.366 . S
C1909 C1911 1.388 . S
C1910 C1909 1.366 . S
C1910 C1914 1.385 . S
C1911 H1886 0.951 . S
C1911 C1909 1.388 . S
C1911 C1912 1.366 . S
C1912 C1911 1.366 . S
C1912 C1913 1.414 . S
C1912 C1915 1.499 . S
C1913 H1887 0.950 . S
C1913 C1912 1.414 . S
C1913 C1914 1.374 . S
C1914 H1888 0.950 . S
C1914 C1910 1.385 . S
C1914 C1913 1.374 . S
C1915 C1912 1.499 . S
C1915 C1916 1.373 . S
C1915 C1917 1.389 . S
C1916 H1889 0.950 . S
C1916 C1902 1.377 . S
C1916 C1915 1.373 . S
C1917 C1901 1.377 . S
C1917 C1915 1.389 . S
C1917 C1918 1.524 . S
C1918 C1917 1.524 . S
C1918 C1919 1.397 . S
C1918 C1923 1.363 . S
C1919 H1890 0.950 . S
C1919 C1918 1.397 . S
C1919 C1920 1.334 . S
C1920 H1891 0.950 . S
C1920 C1919 1.334 . S
C1920 C1921 1.287 . S
C1921 C1920 1.287 . S
C1921 C1922 1.524 . S
C1921 H1924 0.999 . S
C1922 H1892 0.950 . S
C1922 C1921 1.524 . S
C1922 C1923 1.415 . S
C1923 H1893 0.950 . S
C1923 C1918 1.363 . S
C1923 C1922 1.415 . S
H1924 C1921 0.999 . S
H1925 C1906 0.913 . S
H1926 C1944 0.951 . S
H1927 C1946 0.951 . S
H1928 C1948 0.950 . S
H1929 C1949 0.950 . S
H1930 C1951 0.950 . S
H1931 C1954 0.950 . S
H1932 C1955 0.950 . S
H1933 C1957 0.950 . S
H1934 C1958 0.950 1_545 S
H1935 C1959 0.951 . S
H1936 C1961 0.951 . S
H1937 C1963 0.950 . S
H1938 C1964 0.950 . S
H1939 C1966 0.950 . S
H1940 C1969 0.950 . S
H1941 C1970 0.950 . S
H1942 C1972 0.950 . S
H1943 C1973 0.950 . S
C1944 H1926 0.951 . S
C1944 C1945 1.366 . S
C1944 C1946 1.388 . S
C1945 C1944 1.366 . S
C1945 C1949 1.385 . S
C1946 H1927 0.951 . S
C1946 C1944 1.388 . S
C1946 C1947 1.366 . S
C1947 C1946 1.366 . S
C1947 C1948 1.414 . S
C1947 C1950 1.499 . S
C1948 H1928 0.950 . S
C1948 C1947 1.414 . S
C1948 C1949 1.374 . S
C1949 H1929 0.950 . S
C1949 C1945 1.385 . S
C1949 C1948 1.374 . S
C1950 C1947 1.499 . S
C1950 C1951 1.373 . S
C1950 C1952 1.389 . S
C1951 H1930 0.950 . S
C1951 C1950 1.373 . S
C1951 C1967 1.404 . S
C1952 C1950 1.389 . S
C1952 C1953 1.524 . S
C1952 C1966 1.377 1_565 S
C1953 C1952 1.524 . S
C1953 C1954 1.397 . S
C1953 C1958 1.363 . S
C1954 H1931 0.950 . S
C1954 C1953 1.397 . S
C1954 C1955 1.334 . S
C1955 H1932 0.950 . S
C1955 C1954 1.334 . S
C1955 C1956 1.287 . S
C1956 C1955 1.287 . S
C1956 C1957 1.524 . S
C1956 H1975 0.913 . S
C1957 H1933 0.950 . S
C1957 C1956 1.524 . S
C1957 C1958 1.415 . S
C1958 H1934 0.950 1_565 S
C1958 C1953 1.363 . S
C1958 C1957 1.415 . S
C1959 H1935 0.951 . S
C1959 C1960 1.366 . S
C1959 C1961 1.388 . S
C1960 C1959 1.366 . S
C1960 C1964 1.385 . S
C1961 H1936 0.951 . S
C1961 C1959 1.388 . S
C1961 C1962 1.366 . S
C1962 C1961 1.366 . S
C1962 C1963 1.414 . S
C1962 C1965 1.499 . S
C1963 H1937 0.950 . S
C1963 C1962 1.414 . S
C1963 C1964 1.374 . S
C1964 H1938 0.950 . S
C1964 C1960 1.385 . S
C1964 C1963 1.374 . S
C1965 C1962 1.499 . S
C1965 C1966 1.373 . S
C1965 C1967 1.361 1_545 S
C1966 H1939 0.950 . S
C1966 C1952 1.377 1_545 S
C1966 C1965 1.373 . S
C1967 C1951 1.404 . S
C1967 C1965 1.361 1_565 S
C1967 C1968 1.527 1_565 S
C1968 C1967 1.527 1_545 S
C1968 C1969 1.397 . S
C1968 C1973 1.363 1_545 S
C1969 H1940 0.950 . S
C1969 C1968 1.397 . S
C1969 C1970 1.334 . S
C1970 H1941 0.950 . S
C1970 C1969 1.334 . S
C1970 C1971 1.287 . S
C1971 C1970 1.287 . S
C1971 C1972 1.524 1_545 S
C1971 H1974 0.999 . S
C1972 H1942 0.950 . S
C1972 C1971 1.524 1_565 S
C1972 C1973 1.415 . S
C1973 H1943 0.950 . S
C1973 C1968 1.363 1_565 S
C1973 C1972 1.415 . S
H1974 C1971 0.999 . S
H1975 C1956 0.913 . S
H1976 C1994 0.951 . S
H1977 C1996 0.951 . S
H1978 C1998 0.950 . S
H1979 C1999 0.950 . S
H1980 C2001 0.950 . S
H1981 C2004 0.950 . S
H1982 C2005 0.950 . S
H1983 C2007 0.950 . S
H1984 C2008 0.950 . S
H1985 C2009 0.951 . S
H1986 C2011 0.951 . S
H1987 C2013 0.950 . S
H1988 C2014 0.950 . S
H1989 C2016 0.950 . S
H1990 C2019 0.950 . S
H1991 C2020 0.950 . S
H1992 C2022 0.950 . S
H1993 C2023 0.950 . S
C1994 H1976 0.951 . S
C1994 C1995 1.366 . S
C1994 C1996 1.388 . S
C1995 C1994 1.366 . S
C1995 C1999 1.385 . S
C1996 H1977 0.951 . S
C1996 C1994 1.388 . S
C1996 C1997 1.366 . S
C1997 C1996 1.366 . S
C1997 C1998 1.414 . S
C1997 C2000 1.499 . S
C1998 H1978 0.950 . S
C1998 C1997 1.414 . S
C1998 C1999 1.374 . S
C1999 H1979 0.950 . S
C1999 C1995 1.385 . S
C1999 C1998 1.374 . S
C2000 C1997 1.499 . S
C2000 C2001 1.373 . S
C2000 C2002 1.389 . S
C2001 H1980 0.950 . S
C2001 C2000 1.373 . S
C2001 C2017 1.377 1_455 S
C2002 C2000 1.389 . S
C2002 C2003 1.524 . S
C2002 C2016 1.377 1_455 S
C2003 C2002 1.524 . S
C2003 C2004 1.397 . S
C2003 C2008 1.363 . S
C2004 H1981 0.950 . S
C2004 C2003 1.397 . S
C2004 C2005 1.334 . S
C2005 H1982 0.950 . S
C2005 C2004 1.334 . S
C2005 C2006 1.287 . S
C2006 C2005 1.287 . S
C2006 C2007 1.524 . S
C2006 H2025 0.913 . S
C2007 H1983 0.950 . S
C2007 C2006 1.524 . S
C2007 C2008 1.415 . S
C2008 H1984 0.950 . S
C2008 C2003 1.363 . S
C2008 C2007 1.415 . S
C2009 H1985 0.951 . S
C2009 C2010 1.366 . S
C2009 C2011 1.388 . S
C2010 C2009 1.366 . S
C2010 C2014 1.385 . S
C2011 H1986 0.951 . S
C2011 C2009 1.388 . S
C2011 C2012 1.366 . S
C2012 C2011 1.366 . S
C2012 C2013 1.414 . S
C2012 C2015 1.499 . S
C2013 H1987 0.950 . S
C2013 C2012 1.414 . S
C2013 C2014 1.374 . S
C2014 H1988 0.950 . S
C2014 C2010 1.385 . S
C2014 C2013 1.374 . S
C2015 C2012 1.499 . S
C2015 C2016 1.373 . S
C2015 C2017 1.389 . S
C2016 H1989 0.950 . S
C2016 C2002 1.377 1_655 S
C2016 C2015 1.373 . S
C2017 C2001 1.377 1_655 S
C2017 C2015 1.389 . S
C2017 C2018 1.524 . S
C2018 C2017 1.524 . S
C2018 C2019 1.397 . S
C2018 C2023 1.363 . S
C2019 H1990 0.950 . S
C2019 C2018 1.397 . S
C2019 C2020 1.334 . S
C2020 H1991 0.950 . S
C2020 C2019 1.334 . S
C2020 C2021 1.287 . S
C2021 C2020 1.287 . S
C2021 C2022 1.524 . S
C2021 H2024 0.999 . S
C2022 H1992 0.950 . S
C2022 C2021 1.524 . S
C2022 C2023 1.415 . S
C2023 H1993 0.950 . S
C2023 C2018 1.363 . S
C2023 C2022 1.415 . S
H2024 C2021 0.999 . S
H2025 C2006 0.913 . S
H2026 C2044 0.951 . S
H2027 C2046 0.951 . S
H2028 C2048 0.950 . S
H2029 C2049 0.950 . S
H2030 C2051 0.950 . S
H2031 C2054 0.950 . S
H2032 C2055 0.950 . S
H2033 C2057 0.950 . S
H2034 C2058 0.950 . S
H2035 C2059 0.951 . S
H2036 C2061 0.951 . S
H2037 C2063 0.950 . S
H2038 C2064 0.950 . S
H2039 C2066 0.950 . S
H2040 C2069 0.950 . S
H2041 C2070 0.950 . S
H2042 C2072 0.950 . S
H2043 C2073 0.950 . S
C2044 H2026 0.951 . S
C2044 C2045 1.366 . S
C2044 C2046 1.388 . S
C2045 C2044 1.366 . S
C2045 C2049 1.385 . S
C2046 H2027 0.951 . S
C2046 C2044 1.388 . S
C2046 C2047 1.366 . S
C2047 C2046 1.366 . S
C2047 C2048 1.414 . S
C2047 C2050 1.499 . S
C2048 H2028 0.950 . S
C2048 C2047 1.414 . S
C2048 C2049 1.374 . S
C2049 H2029 0.950 . S
C2049 C2045 1.385 . S
C2049 C2048 1.374 . S
C2050 C2047 1.499 . S
C2050 C2051 1.373 . S
C2050 C2052 1.389 . S
C2051 H2030 0.950 . S
C2051 C2050 1.373 . S
C2051 C2067 1.377 . S
C2052 C2050 1.389 . S
C2052 C2053 1.524 . S
C2052 C2066 1.377 . S
C2053 C2052 1.524 . S
C2053 C2054 1.397 . S
C2053 C2058 1.363 . S
C2054 H2031 0.950 . S
C2054 C2053 1.397 . S
C2054 C2055 1.334 . S
C2055 H2032 0.950 . S
C2055 C2054 1.334 . S
C2055 C2056 1.287 . S
C2056 C2055 1.287 . S
C2056 C2057 1.524 . S
C2056 H2075 0.913 . S
C2057 H2033 0.950 . S
C2057 C2056 1.524 . S
C2057 C2058 1.415 . S
C2058 H2034 0.950 . S
C2058 C2053 1.363 . S
C2058 C2057 1.415 . S
C2059 H2035 0.951 . S
C2059 C2060 1.366 . S
C2059 C2061 1.388 . S
C2060 C2059 1.366 . S
C2060 C2064 1.385 . S
C2061 H2036 0.951 . S
C2061 C2059 1.388 . S
C2061 C2062 1.366 . S
C2062 C2061 1.366 . S
C2062 C2063 1.414 . S
C2062 C2065 1.499 . S
C2063 H2037 0.950 . S
C2063 C2062 1.414 . S
C2063 C2064 1.374 . S
C2064 H2038 0.950 . S
C2064 C2060 1.385 . S
C2064 C2063 1.374 . S
C2065 C2062 1.499 . S
C2065 C2066 1.373 . S
C2065 C2067 1.389 . S
C2066 H2039 0.950 . S
C2066 C2052 1.377 . S
C2066 C2065 1.373 . S
C2067 C2051 1.377 . S
C2067 C2065 1.389 . S
C2067 C2068 1.524 . S
C2068 C2067 1.524 . S
C2068 C2069 1.397 . S
C2068 C2073 1.363 . S
C2069 H2040 0.950 . S
C2069 C2068 1.397 . S
C2069 C2070 1.334 . S
C2070 H2041 0.950 . S
C2070 C2069 1.334 . S
C2070 C2071 1.287 . S
C2071 C2070 1.287 . S
C2071 C2072 1.524 . S
C2071 H2074 0.999 . S
C2072 H2042 0.950 . S
C2072 C2071 1.524 . S
C2072 C2073 1.415 . S
C2073 H2043 0.950 . S
C2073 C2068 1.363 . S
C2073 C2072 1.415 . S
H2074 C2071 0.999 . S
H2075 C2056 0.913 . S
H2076 C2094 0.951 . S
H2077 C2096 0.951 . S
H2078 C2098 0.950 . S
H2079 C2099 0.950 . S
H2080 C2101 0.950 . S
H2081 C2104 0.950 . S
H2082 C2105 0.950 . S
H2083 C2107 0.950 . S
H2084 C2108 0.950 . S
H2085 C2109 0.951 . S
H2086 C2111 0.951 . S
H2087 C2113 0.950 . S
H2088 C2114 0.950 . S
H2089 C2116 0.950 . S
H2090 C2119 0.950 . S
H2091 C2120 0.950 . S
H2092 C2122 0.950 . S
H2093 C2123 0.950 . S
C2094 H2076 0.951 . S
C2094 C2095 1.366 . S
C2094 C2096 1.388 . S
C2095 C2094 1.366 . S
C2095 C2099 1.385 . S
C2096 H2077 0.951 . S
C2096 C2094 1.388 . S
C2096 C2097 1.366 . S
C2097 C2096 1.366 . S
C2097 C2098 1.414 . S
C2097 C2100 1.499 1_455 S
C2098 H2078 0.950 . S
C2098 C2097 1.414 . S
C2098 C2099 1.374 . S
C2099 H2079 0.950 . S
C2099 C2095 1.385 . S
C2099 C2098 1.374 . S
C2100 C2097 1.499 1_655 S
C2100 C2101 1.373 . S
C2100 C2102 1.389 . S
C2101 H2080 0.950 . S
C2101 C2100 1.373 . S
C2101 C2117 1.377 . S
C2102 C2100 1.389 . S
C2102 C2103 1.524 . S
C2102 C2116 1.377 . S
C2103 C2102 1.524 . S
C2103 C2104 1.397 . S
C2103 C2108 1.363 . S
C2104 H2081 0.950 . S
C2104 C2103 1.397 . S
C2104 C2105 1.334 1_655 S
C2105 H2082 0.950 . S
C2105 C2104 1.334 1_455 S
C2105 C2106 1.287 . S
C2106 C2105 1.287 . S
C2106 C2107 1.524 1_455 S
C2106 H2125 0.913 . S
C2107 H2083 0.950 . S
C2107 C2106 1.524 1_655 S
C2107 C2108 1.415 . S
C2108 H2084 0.950 . S
C2108 C2103 1.363 . S
C2108 C2107 1.415 . S
C2109 H2085 0.951 . S
C2109 C2110 1.366 . S
C2109 C2111 1.388 . S
C2110 C2109 1.366 . S
C2110 C2114 1.385 . S
C2111 H2086 0.951 . S
C2111 C2109 1.388 . S
C2111 C2112 1.366 . S
C2112 C2111 1.366 . S
C2112 C2113 1.414 . S
C2112 C2115 1.499 . S
C2113 H2087 0.950 . S
C2113 C2112 1.414 . S
C2113 C2114 1.374 . S
C2114 H2088 0.950 . S
C2114 C2110 1.385 . S
C2114 C2113 1.374 . S
C2115 C2112 1.499 . S
C2115 C2116 1.373 . S
C2115 C2117 1.389 . S
C2116 H2089 0.950 . S
C2116 C2102 1.377 . S
C2116 C2115 1.373 . S
C2117 C2101 1.377 . S
C2117 C2115 1.389 . S
C2117 C2118 1.524 . S
C2118 C2117 1.524 . S
C2118 C2119 1.397 . S
C2118 C2123 1.363 . S
C2119 H2090 0.950 . S
C2119 C2118 1.397 . S
C2119 C2120 1.334 . S
C2120 H2091 0.950 . S
C2120 C2119 1.334 . S
C2120 C2121 1.287 . S
C2121 C2120 1.287 . S
C2121 C2122 1.524 . S
C2121 H2124 0.999 . S
C2122 H2092 0.950 . S
C2122 C2121 1.524 . S
C2122 C2123 1.415 . S
C2123 H2093 0.950 . S
C2123 C2118 1.363 . S
C2123 C2122 1.415 . S
H2124 C2121 0.999 . S
H2125 C2106 0.913 . S
H2126 C2144 0.951 . S
H2127 C2146 0.951 . S
H2128 C2148 0.950 . S
H2129 C2149 0.950 . S
H2130 C2151 0.950 . S
H2131 C2154 0.950 . S
H2132 C2155 0.950 . S
H2133 C2157 0.950 . S
H2134 C2158 0.950 . S
H2135 C2159 0.951 . S
H2136 C2161 0.951 . S
H2137 C2163 0.950 . S
H2138 C2164 0.950 . S
H2139 C2166 0.950 . S
H2140 C2169 0.950 . S
H2141 C2170 0.950 . S
H2142 C2172 0.950 . S
H2143 C2173 0.950 . S
C2144 H2126 0.951 . S
C2144 C2145 1.366 . S
C2144 C2146 1.388 . S
C2145 C2144 1.366 . S
C2145 C2149 1.385 . S
C2146 H2127 0.951 . S
C2146 C2144 1.388 . S
C2146 C2147 1.366 . S
C2147 C2146 1.366 . S
C2147 C2148 1.414 . S
C2147 C2150 1.499 . S
C2148 H2128 0.950 . S
C2148 C2147 1.414 . S
C2148 C2149 1.374 . S
C2149 H2129 0.950 . S
C2149 C2145 1.385 . S
C2149 C2148 1.374 . S
C2150 C2147 1.499 . S
C2150 C2151 1.373 . S
C2150 C2152 1.389 . S
C2151 H2130 0.950 . S
C2151 C2150 1.373 . S
C2151 C2167 1.377 . S
C2152 C2150 1.389 . S
C2152 C2153 1.524 . S
C2152 C2166 1.377 . S
C2153 C2152 1.524 . S
C2153 C2154 1.397 . S
C2153 C2158 1.363 . S
C2154 H2131 0.950 . S
C2154 C2153 1.397 . S
C2154 C2155 1.334 . S
C2155 H2132 0.950 . S
C2155 C2154 1.334 . S
C2155 C2156 1.287 . S
C2156 C2155 1.287 . S
C2156 C2157 1.524 . S
C2156 H2175 0.913 . S
C2157 H2133 0.950 . S
C2157 C2156 1.524 . S
C2157 C2158 1.415 . S
C2158 H2134 0.950 . S
C2158 C2153 1.363 . S
C2158 C2157 1.415 . S
C2159 H2135 0.951 . S
C2159 C2160 1.366 . S
C2159 C2161 1.388 . S
C2160 C2159 1.366 . S
C2160 C2164 1.385 . S
C2161 H2136 0.951 . S
C2161 C2159 1.388 . S
C2161 C2162 1.366 . S
C2162 C2161 1.366 . S
C2162 C2163 1.414 . S
C2162 C2165 1.499 . S
C2163 H2137 0.950 . S
C2163 C2162 1.414 . S
C2163 C2164 1.374 . S
C2164 H2138 0.950 . S
C2164 C2160 1.385 . S
C2164 C2163 1.374 . S
C2165 C2162 1.499 . S
C2165 C2166 1.373 . S
C2165 C2167 1.389 . S
C2166 H2139 0.950 . S
C2166 C2152 1.377 . S
C2166 C2165 1.373 . S
C2167 C2151 1.377 . S
C2167 C2165 1.389 . S
C2167 C2168 1.524 . S
C2168 C2167 1.524 . S
C2168 C2169 1.397 . S
C2168 C2173 1.363 . S
C2169 H2140 0.950 . S
C2169 C2168 1.397 . S
C2169 C2170 1.334 . S
C2170 H2141 0.950 . S
C2170 C2169 1.334 . S
C2170 C2171 1.287 . S
C2171 C2170 1.287 . S
C2171 C2172 1.524 . S
C2171 H2174 0.999 . S
C2172 H2142 0.950 . S
C2172 C2171 1.524 . S
C2172 C2173 1.415 . S
C2173 H2143 0.950 . S
C2173 C2168 1.363 . S
C2173 C2172 1.415 . S
H2174 C2171 0.999 . S
H2175 C2156 0.913 . S
H2176 C2194 0.951 . S
H2177 C2196 0.951 . S
H2178 C2198 0.950 . S
H2179 C2199 0.950 . S
H2180 C2201 0.950 . S
H2181 C2204 0.950 . S
H2182 C2205 0.950 . S
H2183 C2207 0.950 . S
H2184 C2208 0.950 . S
H2185 C2209 0.951 . S
H2186 C2211 0.951 . S
H2187 C2213 0.950 . S
H2188 C2214 0.950 . S
H2189 C2216 0.950 . S
H2190 C2219 0.950 . S
H2191 C2220 0.950 . S
H2192 C2222 0.950 . S
H2193 C2223 0.950 . S
C2194 H2176 0.951 . S
C2194 C2195 1.366 . S
C2194 C2196 1.388 . S
C2195 C2194 1.366 . S
C2195 C2199 1.385 . S
C2196 H2177 0.951 . S
C2196 C2194 1.388 . S
C2196 C2197 1.366 . S
C2197 C2196 1.366 . S
C2197 C2198 1.414 . S
C2197 C2200 1.499 1_565 S
C2198 H2178 0.950 . S
C2198 C2197 1.414 . S
C2198 C2199 1.374 . S
C2199 H2179 0.950 . S
C2199 C2195 1.385 . S
C2199 C2198 1.374 . S
C2200 C2197 1.499 1_545 S
C2200 C2201 1.373 . S
C2200 C2202 1.389 . S
C2201 H2180 0.950 . S
C2201 C2200 1.373 . S
C2201 C2217 1.377 . S
C2202 C2200 1.389 . S
C2202 C2203 1.524 . S
C2202 C2216 1.377 . S
C2203 C2202 1.524 . S
C2203 C2204 1.397 . S
C2203 C2208 1.363 . S
C2204 H2181 0.950 . S
C2204 C2203 1.397 . S
C2204 C2205 1.334 1_545 S
C2205 H2182 0.950 . S
C2205 C2204 1.334 1_565 S
C2205 C2206 1.287 1_565 S
C2206 C2205 1.287 1_545 S
C2206 C2207 1.524 . S
C2206 H2225 0.913 1_545 S
C2207 H2183 0.950 . S
C2207 C2206 1.524 . S
C2207 C2208 1.415 . S
C2208 H2184 0.950 . S
C2208 C2203 1.363 . S
C2208 C2207 1.415 . S
C2209 H2185 0.951 . S
C2209 C2210 1.366 . S
C2209 C2211 1.388 . S
C2210 C2209 1.366 . S
C2210 C2214 1.385 . S
C2211 H2186 0.951 . S
C2211 C2209 1.388 . S
C2211 C2212 1.366 . S
C2212 C2211 1.366 . S
C2212 C2213 1.414 . S
C2212 C2215 1.499 . S
C2213 H2187 0.950 . S
C2213 C2212 1.414 . S
C2213 C2214 1.374 . S
C2214 H2188 0.950 . S
C2214 C2210 1.385 . S
C2214 C2213 1.374 . S
C2215 C2212 1.499 . S
C2215 C2216 1.373 . S
C2215 C2217 1.389 . S
C2216 H2189 0.950 . S
C2216 C2202 1.377 . S
C2216 C2215 1.373 . S
C2217 C2201 1.377 . S
C2217 C2215 1.389 . S
C2217 C2218 1.524 . S
C2218 C2217 1.524 . S
C2218 C2219 1.397 . S
C2218 C2223 1.363 . S
C2219 H2190 0.950 . S
C2219 C2218 1.397 . S
C2219 C2220 1.334 . S
C2220 H2191 0.950 . S
C2220 C2219 1.334 . S
C2220 C2221 1.287 . S
C2221 C2220 1.287 . S
C2221 C2222 1.524 . S
C2221 H2224 0.999 . S
C2222 H2192 0.950 . S
C2222 C2221 1.524 . S
C2222 C2223 1.415 . S
C2223 H2193 0.950 . S
C2223 C2218 1.363 . S
C2223 C2222 1.415 . S
H2224 C2221 0.999 . S
H2225 C2206 0.913 1_565 S
H2226 C2244 0.951 . S
H2227 C2246 0.951 . S
H2228 C2248 0.950 . S
H2229 C2249 0.950 . S
H2230 C2251 0.950 . S
H2231 C2254 0.950 . S
H2232 C2255 0.950 . S
H2233 C2257 0.950 . S
H2234 C2258 0.950 . S
H2235 C2259 0.951 . S
H2236 C2261 0.951 . S
H2237 C2263 0.950 . S
H2238 C2264 0.950 . S
H2239 C2266 0.950 . S
H2240 C2269 0.950 . S
H2241 C2270 0.950 . S
H2242 C2272 0.950 . S
H2243 C2273 0.950 . S
C2244 H2226 0.951 . S
C2244 C2245 1.366 . S
C2244 C2246 1.388 . S
C2245 C2244 1.366 . S
C2245 C2249 1.385 . S
C2246 H2227 0.951 . S
C2246 C2244 1.388 . S
C2246 C2247 1.366 . S
C2247 C2246 1.366 . S
C2247 C2248 1.414 . S
C2247 C2250 1.499 . S
C2248 H2228 0.950 . S
C2248 C2247 1.414 . S
C2248 C2249 1.374 . S
C2249 H2229 0.950 . S
C2249 C2245 1.385 . S
C2249 C2248 1.374 . S
C2250 C2247 1.499 . S
C2250 C2251 1.373 . S
C2250 C2252 1.389 . S
C2251 H2230 0.950 . S
C2251 C2250 1.373 . S
C2251 C2267 1.377 . S
C2252 C2250 1.389 . S
C2252 C2253 1.524 . S
C2252 C2266 1.377 . S
C2253 C2252 1.524 . S
C2253 C2254 1.397 . S
C2253 C2258 1.363 . S
C2254 H2231 0.950 . S
C2254 C2253 1.397 . S
C2254 C2255 1.334 . S
C2255 H2232 0.950 . S
C2255 C2254 1.334 . S
C2255 C2256 1.287 . S
C2256 C2255 1.287 . S
C2256 C2257 1.524 . S
C2256 H2275 0.913 . S
C2257 H2233 0.950 . S
C2257 C2256 1.524 . S
C2257 C2258 1.415 . S
C2258 H2234 0.950 . S
C2258 C2253 1.363 . S
C2258 C2257 1.415 . S
C2259 H2235 0.951 . S
C2259 C2260 1.366 . S
C2259 C2261 1.388 . S
C2260 C2259 1.366 . S
C2260 C2264 1.385 . S
C2261 H2236 0.951 . S
C2261 C2259 1.388 . S
C2261 C2262 1.366 . S
C2262 C2261 1.366 . S
C2262 C2263 1.414 . S
C2262 C2265 1.499 . S
C2263 H2237 0.950 . S
C2263 C2262 1.414 . S
C2263 C2264 1.374 . S
C2264 H2238 0.950 . S
C2264 C2260 1.385 . S
C2264 C2263 1.374 . S
C2265 C2262 1.499 . S
C2265 C2266 1.373 . S
C2265 C2267 1.389 . S
C2266 H2239 0.950 . S
C2266 C2252 1.377 . S
C2266 C2265 1.373 . S
C2267 C2251 1.377 . S
C2267 C2265 1.389 . S
C2267 C2268 1.524 . S
C2268 C2267 1.524 . S
C2268 C2269 1.397 . S
C2268 C2273 1.363 . S
C2269 H2240 0.950 . S
C2269 C2268 1.397 . S
C2269 C2270 1.334 . S
C2270 H2241 0.950 . S
C2270 C2269 1.334 . S
C2270 C2271 1.287 . S
C2271 C2270 1.287 . S
C2271 C2272 1.524 . S
C2271 H2274 0.999 . S
C2272 H2242 0.950 . S
C2272 C2271 1.524 . S
C2272 C2273 1.415 . S
C2273 H2243 0.950 . S
C2273 C2268 1.363 . S
C2273 C2272 1.415 . S
H2274 C2271 0.999 . S
H2275 C2256 0.913 . S
H2276 C2294 0.951 . S
H2277 C2296 0.951 . S
H2278 C2298 0.950 . S
H2279 C2299 0.950 . S
H2280 C2301 0.950 . S
H2281 C2304 0.950 . S
H2282 C2305 0.950 . S
H2283 C2307 0.950 . S
H2284 C2308 0.950 . S
H2285 C2309 0.951 . S
H2286 C2311 0.951 . S
H2287 C2313 0.950 . S
H2288 C2314 0.950 . S
H2289 C2316 0.950 . S
H2290 C2319 0.950 . S
H2291 C2320 0.950 . S
H2292 C2322 0.950 . S
H2293 C2323 0.950 . S
C2294 H2276 0.951 . S
C2294 C2295 1.366 . S
C2294 C2296 1.388 . S
C2295 C2294 1.366 . S
C2295 C2299 1.385 . S
C2296 H2277 0.951 . S
C2296 C2294 1.388 . S
C2296 C2297 1.366 . S
C2297 C2296 1.366 . S
C2297 C2298 1.414 . S
C2297 C2300 1.499 . S
C2298 H2278 0.950 . S
C2298 C2297 1.414 . S
C2298 C2299 1.374 . S
C2299 H2279 0.950 . S
C2299 C2295 1.385 . S
C2299 C2298 1.374 . S
C2300 C2297 1.499 . S
C2300 C2301 1.373 . S
C2300 C2302 1.389 . S
C2301 H2280 0.950 . S
C2301 C2300 1.373 . S
C2301 C2317 1.377 . S
C2302 C2300 1.389 . S
C2302 C2303 1.524 . S
C2302 C2316 1.377 . S
C2303 C2302 1.524 . S
C2303 C2304 1.397 . S
C2303 C2308 1.363 . S
C2304 H2281 0.950 . S
C2304 C2303 1.397 . S
C2304 C2305 1.334 . S
C2305 H2282 0.950 . S
C2305 C2304 1.334 . S
C2305 C2306 1.287 . S
C2306 C2305 1.287 . S
C2306 C2307 1.524 . S
C2306 H2325 0.913 . S
C2307 H2283 0.950 . S
C2307 C2306 1.524 . S
C2307 C2308 1.415 . S
C2308 H2284 0.950 . S
C2308 C2303 1.363 . S
C2308 C2307 1.415 . S
C2309 H2285 0.951 . S
C2309 C2310 1.366 . S
C2309 C2311 1.388 . S
C2310 C2309 1.366 . S
C2310 C2314 1.385 . S
C2311 H2286 0.951 . S
C2311 C2309 1.388 . S
C2311 C2312 1.366 . S
C2312 C2311 1.366 . S
C2312 C2313 1.414 . S
C2312 C2315 1.499 . S
C2313 H2287 0.950 . S
C2313 C2312 1.414 . S
C2313 C2314 1.374 . S
C2314 H2288 0.950 . S
C2314 C2310 1.385 . S
C2314 C2313 1.374 . S
C2315 C2312 1.499 . S
C2315 C2316 1.373 . S
C2315 C2317 1.389 . S
C2316 H2289 0.950 . S
C2316 C2302 1.377 . S
C2316 C2315 1.373 . S
C2317 C2301 1.377 . S
C2317 C2315 1.389 . S
C2317 C2318 1.524 . S
C2318 C2317 1.524 . S
C2318 C2319 1.397 . S
C2318 C2323 1.363 . S
C2319 H2290 0.950 . S
C2319 C2318 1.397 . S
C2319 C2320 1.334 . S
C2320 H2291 0.950 . S
C2320 C2319 1.334 . S
C2320 C2321 1.287 . S
C2321 C2320 1.287 . S
C2321 C2322 1.524 . S
C2321 H2324 0.999 . S
C2322 H2292 0.950 . S
C2322 C2321 1.524 . S
C2322 C2323 1.415 . S
C2323 H2293 0.950 . S
C2323 C2318 1.363 . S
C2323 C2322 1.415 . S
H2324 C2321 0.999 . S
H2325 C2306 0.913 . S
H2326 C2344 0.951 . S
H2327 C2346 0.951 . S
H2328 C2348 0.950 . S
H2329 C2349 0.950 . S
H2330 C2351 0.950 . S
H2331 C2354 0.950 . S
H2332 C2355 0.950 . S
H2333 C2357 0.950 . S
H2334 C2358 0.950 . S
H2335 C2359 0.951 . S
H2336 C2361 0.951 . S
H2337 C2363 0.950 . S
H2338 C2364 0.950 . S
H2339 C2366 0.950 . S
H2340 C2369 0.950 . S
H2341 C2370 0.950 . S
H2342 C2372 0.950 . S
H2343 C2373 0.950 . S
C2344 H2326 0.951 . S
C2344 C2345 1.366 . S
C2344 C2346 1.388 . S
C2345 C2344 1.366 . S
C2345 C2349 1.385 . S
C2346 H2327 0.951 . S
C2346 C2344 1.388 . S
C2346 C2347 1.366 . S
C2347 C2346 1.366 . S
C2347 C2348 1.414 . S
C2347 C2350 1.499 . S
C2348 H2328 0.950 . S
C2348 C2347 1.414 . S
C2348 C2349 1.374 . S
C2349 H2329 0.950 . S
C2349 C2345 1.385 . S
C2349 C2348 1.374 . S
C2350 C2347 1.499 . S
C2350 C2351 1.373 . S
C2350 C2352 1.389 . S
C2351 H2330 0.950 . S
C2351 C2350 1.373 . S
C2351 C2367 1.377 . S
C2352 C2350 1.389 . S
C2352 C2353 1.524 . S
C2352 C2366 1.377 . S
C2353 C2352 1.524 . S
C2353 C2354 1.397 . S
C2353 C2358 1.363 . S
C2354 H2331 0.950 . S
C2354 C2353 1.397 . S
C2354 C2355 1.334 . S
C2355 H2332 0.950 . S
C2355 C2354 1.334 . S
C2355 C2356 1.287 . S
C2356 C2355 1.287 . S
C2356 C2357 1.524 . S
C2356 H2375 0.913 . S
C2357 H2333 0.950 . S
C2357 C2356 1.524 . S
C2357 C2358 1.415 . S
C2358 H2334 0.950 . S
C2358 C2353 1.363 . S
C2358 C2357 1.415 . S
C2359 H2335 0.951 . S
C2359 C2360 1.366 . S
C2359 C2361 1.388 . S
C2360 C2359 1.366 . S
C2360 C2364 1.385 . S
C2361 H2336 0.951 . S
C2361 C2359 1.388 . S
C2361 C2362 1.366 . S
C2362 C2361 1.366 . S
C2362 C2363 1.414 . S
C2362 C2365 1.499 . S
C2363 H2337 0.950 . S
C2363 C2362 1.414 . S
C2363 C2364 1.374 . S
C2364 H2338 0.950 . S
C2364 C2360 1.385 . S
C2364 C2363 1.374 . S
C2365 C2362 1.499 . S
C2365 C2366 1.373 . S
C2365 C2367 1.389 . S
C2366 H2339 0.950 . S
C2366 C2352 1.377 . S
C2366 C2365 1.373 . S
C2367 C2351 1.377 . S
C2367 C2365 1.389 . S
C2367 C2368 1.524 . S
C2368 C2367 1.524 . S
C2368 C2369 1.397 . S
C2368 C2373 1.363 . S
C2369 H2340 0.950 . S
C2369 C2368 1.397 . S
C2369 C2370 1.334 . S
C2370 H2341 0.950 . S
C2370 C2369 1.334 . S
C2370 C2371 1.287 . S
C2371 C2370 1.287 . S
C2371 C2372 1.524 . S
C2371 H2374 0.999 . S
C2372 H2342 0.950 . S
C2372 C2371 1.524 . S
C2372 C2373 1.415 . S
C2373 H2343 0.950 . S
C2373 C2368 1.363 . S
C2373 C2372 1.415 . S
H2374 C2371 0.999 . S
H2375 C2356 0.913 . S
H2376 C2394 0.951 . S
H2377 C2396 0.951 . S
H2378 C2398 0.950 . S
H2379 C2399 0.950 . S
H2380 C2401 0.950 . S
H2381 C2404 0.950 . S
H2382 C2405 0.950 . S
H2383 C2407 0.950 . S
H2384 C2408 0.950 . S
H2385 C2409 0.951 . S
H2386 C2411 0.951 . S
H2387 C2413 0.950 . S
H2388 C2414 0.950 . S
H2389 C2416 0.950 . S
H2390 C2419 0.950 . S
H2391 C2420 0.950 . S
H2392 C2422 0.950 . S
H2393 C2423 0.950 . S
C2394 H2376 0.951 . S
C2394 C2395 1.366 . S
C2394 C2396 1.388 . S
C2395 C2394 1.366 . S
C2395 C2399 1.385 . S
C2396 H2377 0.951 . S
C2396 C2394 1.388 . S
C2396 C2397 1.366 . S
C2397 C2396 1.366 . S
C2397 C2398 1.414 . S
C2397 C2400 1.499 . S
C2398 H2378 0.950 . S
C2398 C2397 1.414 . S
C2398 C2399 1.374 . S
C2399 H2379 0.950 . S
C2399 C2395 1.385 . S
C2399 C2398 1.374 . S
C2400 C2397 1.499 . S
C2400 C2401 1.373 . S
C2400 C2402 1.389 . S
C2401 H2380 0.950 . S
C2401 C2400 1.373 . S
C2401 C2417 1.377 . S
C2402 C2400 1.389 . S
C2402 C2403 1.524 . S
C2402 C2416 1.377 . S
C2403 C2402 1.524 . S
C2403 C2404 1.397 . S
C2403 C2408 1.363 . S
C2404 H2381 0.950 . S
C2404 C2403 1.397 . S
C2404 C2405 1.334 . S
C2405 H2382 0.950 . S
C2405 C2404 1.334 . S
C2405 C2406 1.287 . S
C2406 C2405 1.287 . S
C2406 C2407 1.524 . S
C2406 H2425 0.913 . S
C2407 H2383 0.950 . S
C2407 C2406 1.524 . S
C2407 C2408 1.415 . S
C2408 H2384 0.950 . S
C2408 C2403 1.363 . S
C2408 C2407 1.415 . S
C2409 H2385 0.951 . S
C2409 C2410 1.366 . S
C2409 C2411 1.388 . S
C2410 C2409 1.366 . S
C2410 C2414 1.385 . S
C2411 H2386 0.951 . S
C2411 C2409 1.388 . S
C2411 C2412 1.366 . S
C2412 C2411 1.366 . S
C2412 C2413 1.414 . S
C2412 C2415 1.499 . S
C2413 H2387 0.950 . S
C2413 C2412 1.414 . S
C2413 C2414 1.374 . S
C2414 H2388 0.950 . S
C2414 C2410 1.385 . S
C2414 C2413 1.374 . S
C2415 C2412 1.499 . S
C2415 C2416 1.373 . S
C2415 C2417 1.389 . S
C2416 H2389 0.950 . S
C2416 C2402 1.377 . S
C2416 C2415 1.373 . S
C2417 C2401 1.377 . S
C2417 C2415 1.389 . S
C2417 C2418 1.524 . S
C2418 C2417 1.524 . S
C2418 C2419 1.397 . S
C2418 C2423 1.363 1_565 S
C2419 H2390 0.950 . S
C2419 C2418 1.397 . S
C2419 C2420 1.334 1_565 S
C2420 H2391 0.950 . S
C2420 C2419 1.334 1_545 S
C2420 C2421 1.287 . S
C2421 C2420 1.287 . S
C2421 C2422 1.524 . S
C2421 H2424 0.999 . S
C2422 H2392 0.950 . S
C2422 C2421 1.524 . S
C2422 C2423 1.415 . S
C2423 H2393 0.950 . S
C2423 C2418 1.363 1_545 S
C2423 C2422 1.415 . S
H2424 C2421 0.999 . S
H2425 C2406 0.913 . S
H2426 C2444 0.951 . S
H2427 C2446 0.951 . S
H2428 C2448 0.950 . S
H2429 C2449 0.950 . S
H2430 C2451 0.950 . S
H2431 C2454 0.950 . S
H2432 C2455 0.950 . S
H2433 C2457 0.950 . S
H2434 C2458 0.950 . S
H2435 C2459 0.951 . S
H2436 C2461 0.951 . S
H2437 C2463 0.950 . S
H2438 C2464 0.950 . S
H2439 C2466 0.950 . S
H2440 C2469 0.950 . S
H2441 C2470 0.950 . S
H2442 C2472 0.950 . S
H2443 C2473 0.950 . S
C2444 H2426 0.951 . S
C2444 C2445 1.366 . S
C2444 C2446 1.388 . S
C2445 C2444 1.366 . S
C2445 C2449 1.385 . S
C2446 H2427 0.951 . S
C2446 C2444 1.388 . S
C2446 C2447 1.366 . S
C2447 C2446 1.366 . S
C2447 C2448 1.414 . S
C2447 C2450 1.499 . S
C2448 H2428 0.950 . S
C2448 C2447 1.414 . S
C2448 C2449 1.374 . S
C2449 H2429 0.950 . S
C2449 C2445 1.385 . S
C2449 C2448 1.374 . S
C2450 C2447 1.499 . S
C2450 C2451 1.373 . S
C2450 C2452 1.389 . S
C2451 H2430 0.950 . S
C2451 C2450 1.373 . S
C2451 C2467 1.377 . S
C2452 C2450 1.389 . S
C2452 C2453 1.524 . S
C2452 C2466 1.377 . S
C2453 C2452 1.524 . S
C2453 C2454 1.397 . S
C2453 C2458 1.363 . S
C2454 H2431 0.950 . S
C2454 C2453 1.397 . S
C2454 C2455 1.334 . S
C2455 H2432 0.950 . S
C2455 C2454 1.334 . S
C2455 C2456 1.287 . S
C2456 C2455 1.287 . S
C2456 C2457 1.524 . S
C2456 H2475 0.913 . S
C2457 H2433 0.950 . S
C2457 C2456 1.524 . S
C2457 C2458 1.415 . S
C2458 H2434 0.950 . S
C2458 C2453 1.363 . S
C2458 C2457 1.415 . S
C2459 H2435 0.951 . S
C2459 C2460 1.366 . S
C2459 C2461 1.388 . S
C2460 C2459 1.366 . S
C2460 C2464 1.385 . S
C2461 H2436 0.951 . S
C2461 C2459 1.388 . S
C2461 C2462 1.366 . S
C2462 C2461 1.366 . S
C2462 C2463 1.414 . S
C2462 C2465 1.499 . S
C2463 H2437 0.950 . S
C2463 C2462 1.414 . S
C2463 C2464 1.374 . S
C2464 H2438 0.950 . S
C2464 C2460 1.385 . S
C2464 C2463 1.374 . S
C2465 C2462 1.499 . S
C2465 C2466 1.373 . S
C2465 C2467 1.389 . S
C2466 H2439 0.950 . S
C2466 C2452 1.377 . S
C2466 C2465 1.373 . S
C2467 C2451 1.377 . S
C2467 C2465 1.389 . S
C2467 C2468 1.524 . S
C2468 C2467 1.524 . S
C2468 C2469 1.397 . S
C2468 C2473 1.363 . S
C2469 H2440 0.950 . S
C2469 C2468 1.397 . S
C2469 C2470 1.334 . S
C2470 H2441 0.950 . S
C2470 C2469 1.334 . S
C2470 C2471 1.287 . S
C2471 C2470 1.287 . S
C2471 C2472 1.524 . S
C2471 H2474 0.999 . S
C2472 H2442 0.950 . S
C2472 C2471 1.524 . S
C2472 C2473 1.415 . S
C2473 H2443 0.950 . S
C2473 C2468 1.363 . S
C2473 C2472 1.415 . S
H2474 C2471 0.999 . S
H2475 C2456 0.913 . S
H2476 C2494 0.951 . S
H2477 C2496 0.951 . S
H2478 C2498 0.950 . S
H2479 C2499 0.950 . S
H2480 C2501 0.950 . S
H2481 C2504 0.950 . S
H2482 C2505 0.950 . S
H2483 C2507 0.950 . S
H2484 C2508 0.950 . S
H2485 C2509 0.951 . S
H2486 C2511 0.951 . S
H2487 C2513 0.950 . S
H2488 C2514 0.950 . S
H2489 C2516 0.950 . S
H2490 C2519 0.950 . S
H2491 C2520 0.950 . S
H2492 C2522 0.950 . S
H2493 C2523 0.950 . S
C2494 H2476 0.951 . S
C2494 C2495 1.366 . S
C2494 C2496 1.388 . S
C2495 C2494 1.366 . S
C2495 C2499 1.385 . S
C2496 H2477 0.951 . S
C2496 C2494 1.388 . S
C2496 C2497 1.366 . S
C2497 C2496 1.366 . S
C2497 C2498 1.414 . S
C2497 C2500 1.499 . S
C2498 H2478 0.950 . S
C2498 C2497 1.414 . S
C2498 C2499 1.374 . S
C2499 H2479 0.950 . S
C2499 C2495 1.385 . S
C2499 C2498 1.374 . S
C2500 C2497 1.499 . S
C2500 C2501 1.373 . S
C2500 C2502 1.389 . S
C2501 H2480 0.950 . S
C2501 C2500 1.373 . S
C2501 C2517 1.377 . S
C2502 C2500 1.389 . S
C2502 C2503 1.524 . S
C2502 C2516 1.377 . S
C2503 C2502 1.524 . S
C2503 C2504 1.397 . S
C2503 C2508 1.363 . S
C2504 H2481 0.950 . S
C2504 C2503 1.397 . S
C2504 C2505 1.334 . S
C2505 H2482 0.950 . S
C2505 C2504 1.334 . S
C2505 C2506 1.287 . S
C2506 C2505 1.287 . S
C2506 C2507 1.524 . S
C2506 H2525 0.913 . S
C2507 H2483 0.950 . S
C2507 C2506 1.524 . S
C2507 C2508 1.415 . S
C2508 H2484 0.950 . S
C2508 C2503 1.363 . S
C2508 C2507 1.415 . S
C2509 H2485 0.951 . S
C2509 C2510 1.366 . S
C2509 C2511 1.388 . S
C2510 C2509 1.366 . S
C2510 C2514 1.385 . S
C2511 H2486 0.951 . S
C2511 C2509 1.388 . S
C2511 C2512 1.366 . S
C2512 C2511 1.366 . S
C2512 C2513 1.414 . S
C2512 C2515 1.499 . S
C2513 H2487 0.950 . S
C2513 C2512 1.414 . S
C2513 C2514 1.374 . S
C2514 H2488 0.950 . S
C2514 C2510 1.385 . S
C2514 C2513 1.374 . S
C2515 C2512 1.499 . S
C2515 C2516 1.373 . S
C2515 C2517 1.389 . S
C2516 H2489 0.950 . S
C2516 C2502 1.377 . S
C2516 C2515 1.373 . S
C2517 C2501 1.377 . S
C2517 C2515 1.389 . S
C2517 C2518 1.524 . S
C2518 C2517 1.524 . S
C2518 C2519 1.397 . S
C2518 C2523 1.363 . S
C2519 H2490 0.950 . S
C2519 C2518 1.397 . S
C2519 C2520 1.334 . S
C2520 H2491 0.950 . S
C2520 C2519 1.334 . S
C2520 C2521 1.287 . S
C2521 C2520 1.287 . S
C2521 C2522 1.524 . S
C2521 H2524 0.999 . S
C2522 H2492 0.950 . S
C2522 C2521 1.524 . S
C2522 C2523 1.415 . S
C2523 H2493 0.950 . S
C2523 C2518 1.363 . S
C2523 C2522 1.415 . S
H2524 C2521 0.999 . S
H2525 C2506 0.913 . S
H2526 C2544 0.951 . S
H2527 C2546 0.951 . S
H2528 C2548 0.950 . S
H2529 C2549 0.950 . S
H2530 C2551 0.950 . S
H2531 C2554 0.950 . S
H2532 C2555 0.950 . S
H2533 C2557 0.950 . S
H2534 C2558 0.950 1_655 S
H2535 C2559 0.951 . S
H2536 C2561 0.951 . S
H2537 C2563 0.950 . S
H2538 C2564 0.950 . S
H2539 C2566 0.950 . S
H2540 C2569 0.950 . S
H2541 C2570 0.950 . S
H2542 C2572 0.950 . S
H2543 C2573 0.950 . S
C2544 H2526 0.951 . S
C2544 C2545 1.366 . S
C2544 C2546 1.388 . S
C2545 C2544 1.366 . S
C2545 C2549 1.385 . S
C2546 H2527 0.951 . S
C2546 C2544 1.388 . S
C2546 C2547 1.366 . S
C2547 C2546 1.366 . S
C2547 C2548 1.414 . S
C2547 C2550 1.499 . S
C2548 H2528 0.950 . S
C2548 C2547 1.414 . S
C2548 C2549 1.374 . S
C2549 H2529 0.950 . S
C2549 C2545 1.385 . S
C2549 C2548 1.374 . S
C2550 C2547 1.499 . S
C2550 C2551 1.373 . S
C2550 C2552 1.389 . S
C2551 H2530 0.950 . S
C2551 C2550 1.373 . S
C2551 C2567 1.377 . S
C2552 C2550 1.389 . S
C2552 C2553 1.524 . S
C2552 C2566 1.377 . S
C2553 C2552 1.524 . S
C2553 C2554 1.397 1_655 S
C2553 C2558 1.363 1_655 S
C2554 H2531 0.950 . S
C2554 C2553 1.397 1_455 S
C2554 C2555 1.334 . S
C2555 H2532 0.950 . S
C2555 C2554 1.334 . S
C2555 C2556 1.287 . S
C2556 C2555 1.287 . S
C2556 C2557 1.524 . S
C2556 H2575 0.913 . S
C2557 H2533 0.950 . S
C2557 C2556 1.524 . S
C2557 C2558 1.415 . S
C2558 H2534 0.950 1_455 S
C2558 C2553 1.363 1_455 S
C2558 C2557 1.415 . S
C2559 H2535 0.951 . S
C2559 C2560 1.366 . S
C2559 C2561 1.388 . S
C2560 C2559 1.366 . S
C2560 C2564 1.385 . S
C2561 H2536 0.951 . S
C2561 C2559 1.388 . S
C2561 C2562 1.366 . S
C2562 C2561 1.366 . S
C2562 C2563 1.414 . S
C2562 C2565 1.499 . S
C2563 H2537 0.950 . S
C2563 C2562 1.414 . S
C2563 C2564 1.374 . S
C2564 H2538 0.950 . S
C2564 C2560 1.385 . S
C2564 C2563 1.374 . S
C2565 C2562 1.499 . S
C2565 C2566 1.373 . S
C2565 C2567 1.389 . S
C2566 H2539 0.950 . S
C2566 C2552 1.377 . S
C2566 C2565 1.373 . S
C2567 C2551 1.377 . S
C2567 C2565 1.389 . S
C2567 C2568 1.524 . S
C2568 C2567 1.524 . S
C2568 C2569 1.397 . S
C2568 C2573 1.363 . S
C2569 H2540 0.950 . S
C2569 C2568 1.397 . S
C2569 C2570 1.334 . S
C2570 H2541 0.950 . S
C2570 C2569 1.334 . S
C2570 C2571 1.287 . S
C2571 C2570 1.287 . S
C2571 C2572 1.524 . S
C2571 H2574 0.999 . S
C2572 H2542 0.950 . S
C2572 C2571 1.524 . S
C2572 C2573 1.415 . S
C2573 H2543 0.950 . S
C2573 C2568 1.363 . S
C2573 C2572 1.415 . S
H2574 C2571 0.999 . S
H2575 C2556 0.913 . S
H2576 C2594 0.951 . S
H2577 C2596 0.951 . S
H2578 C2598 0.950 . S
H2579 C2599 0.950 . S
H2580 C2601 0.950 . S
H2581 C2604 0.950 . S
H2582 C2605 0.950 . S
H2583 C2607 0.950 . S
H2584 C2608 0.950 . S
H2585 C2609 0.951 . S
H2586 C2611 0.951 . S
H2587 C2613 0.950 . S
H2588 C2614 0.950 . S
H2589 C2616 0.950 . S
H2590 C2619 0.950 . S
H2591 C2620 0.950 . S
H2592 C2622 0.950 . S
H2593 C2623 0.950 . S
C2594 H2576 0.951 . S
C2594 C2595 1.366 . S
C2594 C2596 1.388 . S
C2595 C2594 1.366 . S
C2595 C2599 1.385 . S
C2596 H2577 0.951 . S
C2596 C2594 1.388 . S
C2596 C2597 1.366 . S
C2597 C2596 1.366 . S
C2597 C2598 1.414 . S
C2597 C2600 1.499 . S
C2598 H2578 0.950 . S
C2598 C2597 1.414 . S
C2598 C2599 1.374 . S
C2599 H2579 0.950 . S
C2599 C2595 1.385 . S
C2599 C2598 1.374 . S
C2600 C2597 1.499 . S
C2600 C2601 1.373 . S
C2600 C2602 1.389 . S
C2601 H2580 0.950 . S
C2601 C2600 1.373 . S
C2601 C2617 1.377 . S
C2602 C2600 1.389 . S
C2602 C2603 1.524 . S
C2602 C2616 1.377 . S
C2603 C2602 1.524 . S
C2603 C2604 1.397 . S
C2603 C2608 1.363 . S
C2604 H2581 0.950 . S
C2604 C2603 1.397 . S
C2604 C2605 1.334 . S
C2605 H2582 0.950 . S
C2605 C2604 1.334 . S
C2605 C2606 1.287 . S
C2606 C2605 1.287 . S
C2606 C2607 1.524 . S
C2606 H2625 0.913 . S
C2607 H2583 0.950 . S
C2607 C2606 1.524 . S
C2607 C2608 1.415 . S
C2608 H2584 0.950 . S
C2608 C2603 1.363 . S
C2608 C2607 1.415 . S
C2609 H2585 0.951 . S
C2609 C2610 1.366 . S
C2609 C2611 1.388 . S
C2610 C2609 1.366 . S
C2610 C2614 1.385 . S
C2611 H2586 0.951 . S
C2611 C2609 1.388 . S
C2611 C2612 1.366 . S
C2612 C2611 1.366 . S
C2612 C2613 1.414 . S
C2612 C2615 1.499 . S
C2613 H2587 0.950 . S
C2613 C2612 1.414 . S
C2613 C2614 1.374 . S
C2614 H2588 0.950 . S
C2614 C2610 1.385 . S
C2614 C2613 1.374 . S
C2615 C2612 1.499 . S
C2615 C2616 1.373 . S
C2615 C2617 1.389 . S
C2616 H2589 0.950 . S
C2616 C2602 1.377 . S
C2616 C2615 1.373 . S
C2617 C2601 1.377 . S
C2617 C2615 1.389 . S
C2617 C2618 1.524 . S
C2618 C2617 1.524 . S
C2618 C2619 1.397 . S
C2618 C2623 1.363 . S
C2619 H2590 0.950 . S
C2619 C2618 1.397 . S
C2619 C2620 1.334 . S
C2620 H2591 0.950 . S
C2620 C2619 1.334 . S
C2620 C2621 1.287 . S
C2621 C2620 1.287 . S
C2621 C2622 1.524 . S
C2621 H2624 0.999 . S
C2622 H2592 0.950 . S
C2622 C2621 1.524 . S
C2622 C2623 1.415 . S
C2623 H2593 0.950 . S
C2623 C2618 1.363 . S
C2623 C2622 1.415 . S
H2624 C2621 0.999 . S
H2625 C2606 0.913 . S
H2626 C2644 0.951 . S
H2627 C2646 0.951 . S
H2628 C2648 0.950 . S
H2629 C2649 0.950 . S
H2630 C2651 0.950 . S
H2631 C2654 0.950 . S
H2632 C2655 0.950 . S
H2633 C2657 0.950 . S
H2634 C2658 0.950 . S
H2635 C2659 0.951 . S
H2636 C2661 0.951 . S
H2637 C2663 0.950 . S
H2638 C2664 0.950 . S
H2639 C2666 0.950 . S
H2640 C2669 0.950 . S
H2641 C2670 0.950 . S
H2642 C2672 0.950 . S
H2643 C2673 0.950 . S
C2644 H2626 0.951 . S
C2644 C2645 1.366 . S
C2644 C2646 1.388 . S
C2645 C2644 1.366 . S
C2645 C2649 1.385 . S
C2646 H2627 0.951 . S
C2646 C2644 1.388 . S
C2646 C2647 1.366 . S
C2647 C2646 1.366 . S
C2647 C2648 1.414 . S
C2647 C2650 1.499 . S
C2648 H2628 0.950 . S
C2648 C2647 1.414 . S
C2648 C2649 1.374 . S
C2649 H2629 0.950 . S
C2649 C2645 1.385 . S
C2649 C2648 1.374 . S
C2650 C2647 1.499 . S
C2650 C2651 1.373 . S
C2650 C2652 1.389 . S
C2651 H2630 0.950 . S
C2651 C2650 1.373 . S
C2651 C2667 1.377 . S
C2652 C2650 1.389 . S
C2652 C2653 1.524 . S
C2652 C2666 1.377 . S
C2653 C2652 1.524 . S
C2653 C2654 1.397 . S
C2653 C2658 1.363 . S
C2654 H2631 0.950 . S
C2654 C2653 1.397 . S
C2654 C2655 1.334 . S
C2655 H2632 0.950 . S
C2655 C2654 1.334 . S
C2655 C2656 1.287 . S
C2656 C2655 1.287 . S
C2656 C2657 1.524 . S
C2656 H2675 0.913 . S
C2657 H2633 0.950 . S
C2657 C2656 1.524 . S
C2657 C2658 1.415 . S
C2658 H2634 0.950 . S
C2658 C2653 1.363 . S
C2658 C2657 1.415 . S
C2659 H2635 0.951 . S
C2659 C2660 1.366 . S
C2659 C2661 1.388 . S
C2660 C2659 1.366 . S
C2660 C2664 1.385 . S
C2661 H2636 0.951 . S
C2661 C2659 1.388 . S
C2661 C2662 1.366 . S
C2662 C2661 1.366 . S
C2662 C2663 1.414 . S
C2662 C2665 1.499 . S
C2663 H2637 0.950 . S
C2663 C2662 1.414 . S
C2663 C2664 1.374 . S
C2664 H2638 0.950 . S
C2664 C2660 1.385 . S
C2664 C2663 1.374 . S
C2665 C2662 1.499 . S
C2665 C2666 1.373 . S
C2665 C2667 1.389 . S
C2666 H2639 0.950 . S
C2666 C2652 1.377 . S
C2666 C2665 1.373 . S
C2667 C2651 1.377 . S
C2667 C2665 1.389 . S
C2667 C2668 1.524 . S
C2668 C2667 1.524 . S
C2668 C2669 1.397 . S
C2668 C2673 1.363 . S
C2669 H2640 0.950 . S
C2669 C2668 1.397 . S
C2669 C2670 1.334 . S
C2670 H2641 0.950 . S
C2670 C2669 1.334 . S
C2670 C2671 1.287 . S
C2671 C2670 1.287 . S
C2671 C2672 1.524 . S
C2671 H2674 0.999 . S
C2672 H2642 0.950 . S
C2672 C2671 1.524 . S
C2672 C2673 1.415 . S
C2673 H2643 0.950 . S
C2673 C2668 1.363 . S
C2673 C2672 1.415 . S
H2674 C2671 0.999 . S
H2675 C2656 0.913 . S
H2676 C2694 0.951 . S
H2677 C2696 0.951 . S
H2678 C2698 0.950 . S
H2679 C2699 0.950 . S
H2680 C2701 0.950 . S
H2681 C2704 0.950 . S
H2682 C2705 0.950 . S
H2683 C2707 0.950 . S
H2684 C2708 0.950 . S
H2685 C2709 0.951 . S
H2686 C2711 0.951 . S
H2687 C2713 0.950 . S
H2688 C2714 0.950 . S
H2689 C2716 0.950 . S
H2690 C2719 0.950 . S
H2691 C2720 0.950 . S
H2692 C2722 0.950 . S
H2693 C2723 0.950 . S
C2694 H2676 0.951 . S
C2694 C2695 1.366 . S
C2694 C2696 1.388 . S
C2695 C2694 1.366 . S
C2695 C2699 1.385 . S
C2696 H2677 0.951 . S
C2696 C2694 1.388 . S
C2696 C2697 1.366 . S
C2697 C2696 1.366 . S
C2697 C2698 1.414 . S
C2697 C2700 1.499 . S
C2698 H2678 0.950 . S
C2698 C2697 1.414 . S
C2698 C2699 1.374 . S
C2699 H2679 0.950 . S
C2699 C2695 1.385 . S
C2699 C2698 1.374 . S
C2700 C2697 1.499 . S
C2700 C2701 1.373 . S
C2700 C2702 1.389 . S
C2701 H2680 0.950 . S
C2701 C2700 1.373 . S
C2701 C2717 1.377 . S
C2702 C2700 1.389 . S
C2702 C2703 1.524 . S
C2702 C2716 1.377 . S
C2703 C2702 1.524 . S
C2703 C2704 1.397 . S
C2703 C2708 1.363 . S
C2704 H2681 0.950 . S
C2704 C2703 1.397 . S
C2704 C2705 1.334 . S
C2705 H2682 0.950 . S
C2705 C2704 1.334 . S
C2705 C2706 1.287 . S
C2706 C2705 1.287 . S
C2706 C2707 1.524 . S
C2706 H2725 0.913 . S
C2707 H2683 0.950 . S
C2707 C2706 1.524 . S
C2707 C2708 1.415 . S
C2708 H2684 0.950 . S
C2708 C2703 1.363 . S
C2708 C2707 1.415 . S
C2709 H2685 0.951 . S
C2709 C2710 1.366 . S
C2709 C2711 1.388 . S
C2710 C2709 1.366 . S
C2710 C2714 1.385 . S
C2711 H2686 0.951 . S
C2711 C2709 1.388 . S
C2711 C2712 1.366 . S
C2712 C2711 1.366 . S
C2712 C2713 1.414 . S
C2712 C2715 1.499 . S
C2713 H2687 0.950 . S
C2713 C2712 1.414 . S
C2713 C2714 1.374 . S
C2714 H2688 0.950 . S
C2714 C2710 1.385 . S
C2714 C2713 1.374 . S
C2715 C2712 1.499 . S
C2715 C2716 1.373 . S
C2715 C2717 1.389 . S
C2716 H2689 0.950 . S
C2716 C2702 1.377 . S
C2716 C2715 1.373 . S
C2717 C2701 1.377 . S
C2717 C2715 1.389 . S
C2717 C2718 1.524 . S
C2718 C2717 1.524 . S
C2718 C2719 1.397 . S
C2718 C2723 1.363 . S
C2719 H2690 0.950 . S
C2719 C2718 1.397 . S
C2719 C2720 1.334 . S
C2720 H2691 0.950 . S
C2720 C2719 1.334 . S
C2720 C2721 1.287 . S
C2721 C2720 1.287 . S
C2721 C2722 1.524 . S
C2721 H2724 0.999 . S
C2722 H2692 0.950 . S
C2722 C2721 1.524 . S
C2722 C2723 1.415 . S
C2723 H2693 0.950 . S
C2723 C2718 1.363 . S
C2723 C2722 1.415 . S
H2724 C2721 0.999 . S
H2725 C2706 0.913 . S
H2726 C2744 0.951 . S
H2727 C2746 0.951 . S
H2728 C2748 0.950 . S
H2729 C2749 0.950 . S
H2730 C2751 0.950 . S
H2731 C2754 0.950 . S
H2732 C2755 0.950 . S
H2733 C2757 0.950 . S
H2734 C2758 0.950 . S
H2735 C2759 0.951 . S
H2736 C2761 0.951 . S
H2737 C2763 0.950 . S
H2738 C2764 0.950 . S
H2739 C2766 0.950 . S
H2740 C2769 0.950 . S
H2741 C2770 0.950 . S
H2742 C2772 0.950 . S
H2743 C2773 0.950 . S
C2744 H2726 0.951 . S
C2744 C2745 1.366 . S
C2744 C2746 1.388 . S
C2745 C2744 1.366 . S
C2745 C2749 1.385 . S
C2746 H2727 0.951 . S
C2746 C2744 1.388 . S
C2746 C2747 1.366 . S
C2747 C2746 1.366 . S
C2747 C2748 1.414 . S
C2747 C2750 1.499 . S
C2748 H2728 0.950 . S
C2748 C2747 1.414 . S
C2748 C2749 1.374 . S
C2749 H2729 0.950 . S
C2749 C2745 1.385 . S
C2749 C2748 1.374 . S
C2750 C2747 1.499 . S
C2750 C2751 1.373 . S
C2750 C2752 1.389 . S
C2751 H2730 0.950 . S
C2751 C2750 1.373 . S
C2751 C2767 1.377 . S
C2752 C2750 1.389 . S
C2752 C2753 1.524 . S
C2752 C2766 1.377 . S
C2753 C2752 1.524 . S
C2753 C2754 1.397 . S
C2753 C2758 1.363 . S
C2754 H2731 0.950 . S
C2754 C2753 1.397 . S
C2754 C2755 1.334 . S
C2755 H2732 0.950 . S
C2755 C2754 1.334 . S
C2755 C2756 1.287 . S
C2756 C2755 1.287 . S
C2756 C2757 1.524 . S
C2756 H2775 0.913 . S
C2757 H2733 0.950 . S
C2757 C2756 1.524 . S
C2757 C2758 1.415 . S
C2758 H2734 0.950 . S
C2758 C2753 1.363 . S
C2758 C2757 1.415 . S
C2759 H2735 0.951 . S
C2759 C2760 1.366 . S
C2759 C2761 1.388 . S
C2760 C2759 1.366 . S
C2760 C2764 1.385 . S
C2761 H2736 0.951 . S
C2761 C2759 1.388 . S
C2761 C2762 1.366 . S
C2762 C2761 1.366 . S
C2762 C2763 1.414 . S
C2762 C2765 1.499 . S
C2763 H2737 0.950 . S
C2763 C2762 1.414 . S
C2763 C2764 1.374 . S
C2764 H2738 0.950 . S
C2764 C2760 1.385 . S
C2764 C2763 1.374 . S
C2765 C2762 1.499 . S
C2765 C2766 1.373 . S
C2765 C2767 1.389 . S
C2766 H2739 0.950 . S
C2766 C2752 1.377 . S
C2766 C2765 1.373 . S
C2767 C2751 1.377 . S
C2767 C2765 1.389 . S
C2767 C2768 1.524 . S
C2768 C2767 1.524 . S
C2768 C2769 1.397 . S
C2768 C2773 1.363 . S
C2769 H2740 0.950 . S
C2769 C2768 1.397 . S
C2769 C2770 1.334 . S
C2770 H2741 0.950 . S
C2770 C2769 1.334 . S
C2770 C2771 1.287 . S
C2771 C2770 1.287 . S
C2771 C2772 1.524 . S
C2771 H2774 0.999 . S
C2772 H2742 0.950 . S
C2772 C2771 1.524 . S
C2772 C2773 1.415 . S
C2773 H2743 0.950 . S
C2773 C2768 1.363 . S
C2773 C2772 1.415 . S
H2774 C2771 0.999 . S
H2775 C2756 0.913 . S
H2776 C2794 0.951 . S
H2777 C2796 0.951 . S
H2778 C2798 0.950 . S
H2779 C2799 0.950 . S
H2780 C2801 0.950 . S
H2781 C2804 0.950 . S
H2782 C2805 0.950 . S
H2783 C2807 0.950 . S
H2784 C2808 0.950 . S
H2785 C2809 0.951 . S
H2786 C2811 0.951 . S
H2787 C2813 0.950 . S
H2788 C2814 0.950 . S
H2789 C2816 0.950 . S
H2790 C2819 0.950 . S
H2791 C2820 0.950 . S
H2792 C2822 0.950 . S
H2793 C2823 0.950 . S
C2794 H2776 0.951 . S
C2794 C2795 1.366 . S
C2794 C2796 1.388 . S
C2795 C2794 1.366 . S
C2795 C2799 1.385 . S
C2796 H2777 0.951 . S
C2796 C2794 1.388 . S
C2796 C2797 1.366 . S
C2797 C2796 1.366 . S
C2797 C2798 1.414 . S
C2797 C2800 1.499 . S
C2798 H2778 0.950 . S
C2798 C2797 1.414 . S
C2798 C2799 1.374 . S
C2799 H2779 0.950 . S
C2799 C2795 1.385 . S
C2799 C2798 1.374 . S
C2800 C2797 1.499 . S
C2800 C2801 1.373 . S
C2800 C2802 1.389 . S
C2801 H2780 0.950 . S
C2801 C2800 1.373 . S
C2801 C2817 1.377 . S
C2802 C2800 1.389 . S
C2802 C2803 1.524 . S
C2802 C2816 1.377 . S
C2803 C2802 1.524 . S
C2803 C2804 1.397 . S
C2803 C2808 1.363 . S
C2804 H2781 0.950 . S
C2804 C2803 1.397 . S
C2804 C2805 1.334 . S
C2805 H2782 0.950 . S
C2805 C2804 1.334 . S
C2805 C2806 1.287 . S
C2806 C2805 1.287 . S
C2806 C2807 1.524 . S
C2806 H2825 0.913 . S
C2807 H2783 0.950 . S
C2807 C2806 1.524 . S
C2807 C2808 1.415 . S
C2808 H2784 0.950 . S
C2808 C2803 1.363 . S
C2808 C2807 1.415 . S
C2809 H2785 0.951 . S
C2809 C2810 1.366 . S
C2809 C2811 1.388 . S
C2810 C2809 1.366 . S
C2810 C2814 1.385 . S
C2811 H2786 0.951 . S
C2811 C2809 1.388 . S
C2811 C2812 1.366 . S
C2812 C2811 1.366 . S
C2812 C2813 1.414 . S
C2812 C2815 1.499 . S
C2813 H2787 0.950 . S
C2813 C2812 1.414 . S
C2813 C2814 1.374 . S
C2814 H2788 0.950 . S
C2814 C2810 1.385 . S
C2814 C2813 1.374 . S
C2815 C2812 1.499 . S
C2815 C2816 1.373 . S
C2815 C2817 1.389 . S
C2816 H2789 0.950 . S
C2816 C2802 1.377 . S
C2816 C2815 1.373 . S
C2817 C2801 1.377 . S
C2817 C2815 1.389 . S
C2817 C2818 1.524 . S
C2818 C2817 1.524 . S
C2818 C2819 1.397 . S
C2818 C2823 1.363 . S
C2819 H2790 0.950 . S
C2819 C2818 1.397 . S
C2819 C2820 1.334 . S
C2820 H2791 0.950 . S
C2820 C2819 1.334 . S
C2820 C2821 1.287 . S
C2821 C2820 1.287 . S
C2821 C2822 1.524 . S
C2821 H2824 0.999 . S
C2822 H2792 0.950 . S
C2822 C2821 1.524 . S
C2822 C2823 1.415 . S
C2823 H2793 0.950 . S
C2823 C2818 1.363 . S
C2823 C2822 1.415 . S
H2824 C2821 0.999 . S
H2825 C2806 0.913 . S
H2826 C2844 0.951 . S
H2827 C2846 0.951 . S
H2828 C2848 0.950 . S
H2829 C2849 0.950 . S
H2830 C2851 0.950 . S
H2831 C2854 0.950 . S
H2832 C2855 0.950 . S
H2833 C2857 0.950 . S
H2834 C2858 0.950 . S
H2835 C2859 0.951 . S
H2836 C2861 0.951 . S
H2837 C2863 0.950 . S
H2838 C2864 0.950 . S
H2839 C2866 0.950 . S
H2840 C2869 0.950 . S
H2841 C2870 0.950 . S
H2842 C2872 0.950 . S
H2843 C2873 0.950 . S
C2844 H2826 0.951 . S
C2844 C2845 1.366 . S
C2844 C2846 1.388 . S
C2845 C2844 1.366 . S
C2845 C2849 1.385 . S
C2846 H2827 0.951 . S
C2846 C2844 1.388 . S
C2846 C2847 1.366 . S
C2847 C2846 1.366 . S
C2847 C2848 1.414 . S
C2847 C2850 1.499 . S
C2848 H2828 0.950 . S
C2848 C2847 1.414 . S
C2848 C2849 1.374 . S
C2849 H2829 0.950 . S
C2849 C2845 1.385 . S
C2849 C2848 1.374 . S
C2850 C2847 1.499 . S
C2850 C2851 1.373 . S
C2850 C2852 1.389 . S
C2851 H2830 0.950 . S
C2851 C2850 1.373 . S
C2851 C2867 1.377 . S
C2852 C2850 1.389 . S
C2852 C2853 1.524 . S
C2852 C2866 1.377 . S
C2853 C2852 1.524 . S
C2853 C2854 1.397 . S
C2853 C2858 1.363 . S
C2854 H2831 0.950 . S
C2854 C2853 1.397 . S
C2854 C2855 1.334 . S
C2855 H2832 0.950 . S
C2855 C2854 1.334 . S
C2855 C2856 1.287 . S
C2856 C2855 1.287 . S
C2856 C2857 1.524 . S
C2856 H2875 0.913 . S
C2857 H2833 0.950 . S
C2857 C2856 1.524 . S
C2857 C2858 1.415 . S
C2858 H2834 0.950 . S
C2858 C2853 1.363 . S
C2858 C2857 1.415 . S
C2859 H2835 0.951 . S
C2859 C2860 1.366 . S
C2859 C2861 1.388 . S
C2860 C2859 1.366 . S
C2860 C2864 1.385 . S
C2861 H2836 0.951 . S
C2861 C2859 1.388 . S
C2861 C2862 1.366 . S
C2862 C2861 1.366 . S
C2862 C2863 1.414 . S
C2862 C2865 1.499 . S
C2863 H2837 0.950 . S
C2863 C2862 1.414 . S
C2863 C2864 1.374 . S
C2864 H2838 0.950 . S
C2864 C2860 1.385 . S
C2864 C2863 1.374 . S
C2865 C2862 1.499 . S
C2865 C2866 1.373 . S
C2865 C2867 1.389 . S
C2866 H2839 0.950 . S
C2866 C2852 1.377 . S
C2866 C2865 1.373 . S
C2867 C2851 1.377 . S
C2867 C2865 1.389 . S
C2867 C2868 1.524 . S
C2868 C2867 1.524 . S
C2868 C2869 1.397 . S
C2868 C2873 1.363 . S
C2869 H2840 0.950 . S
C2869 C2868 1.397 . S
C2869 C2870 1.334 . S
C2870 H2841 0.950 . S
C2870 C2869 1.334 . S
C2870 C2871 1.287 . S
C2871 C2870 1.287 . S
C2871 C2872 1.524 . S
C2871 H2874 0.999 . S
C2872 H2842 0.950 . S
C2872 C2871 1.524 . S
C2872 C2873 1.415 . S
C2873 H2843 0.950 . S
C2873 C2868 1.363 . S
C2873 C2872 1.415 . S
H2874 C2871 0.999 . S
H2875 C2856 0.913 . S
H2876 C2894 0.951 . S
H2877 C2896 0.951 . S
H2878 C2898 0.950 . S
H2879 C2899 0.950 . S
H2880 C2901 0.950 . S
H2881 C2904 0.950 . S
H2882 C2905 0.950 . S
H2883 C2907 0.950 . S
H2884 C2908 0.950 . S
H2885 C2909 0.951 . S
H2886 C2911 0.951 . S
H2887 C2913 0.950 . S
H2888 C2914 0.950 . S
H2889 C2916 0.950 . S
H2890 C2919 0.950 . S
H2891 C2920 0.950 . S
H2892 C2922 0.950 . S
H2893 C2923 0.950 . S
C2894 H2876 0.951 . S
C2894 C2895 1.366 . S
C2894 C2896 1.388 . S
C2895 C2894 1.366 . S
C2895 C2899 1.385 . S
C2896 H2877 0.951 . S
C2896 C2894 1.388 . S
C2896 C2897 1.366 . S
C2897 C2896 1.366 . S
C2897 C2898 1.414 . S
C2897 C2900 1.499 . S
C2898 H2878 0.950 . S
C2898 C2897 1.414 . S
C2898 C2899 1.374 . S
C2899 H2879 0.950 . S
C2899 C2895 1.385 . S
C2899 C2898 1.374 . S
C2900 C2897 1.499 . S
C2900 C2901 1.373 . S
C2900 C2902 1.389 . S
C2901 H2880 0.950 . S
C2901 C2900 1.373 . S
C2901 C2917 1.377 . S
C2902 C2900 1.389 . S
C2902 C2903 1.524 . S
C2902 C2916 1.377 . S
C2903 C2902 1.524 . S
C2903 C2904 1.397 . S
C2903 C2908 1.363 . S
C2904 H2881 0.950 . S
C2904 C2903 1.397 . S
C2904 C2905 1.334 . S
C2905 H2882 0.950 . S
C2905 C2904 1.334 . S
C2905 C2906 1.287 . S
C2906 C2905 1.287 . S
C2906 C2907 1.524 . S
C2906 H2925 0.913 . S
C2907 H2883 0.950 . S
C2907 C2906 1.524 . S
C2907 C2908 1.415 . S
C2908 H2884 0.950 . S
C2908 C2903 1.363 . S
C2908 C2907 1.415 . S
C2909 H2885 0.951 . S
C2909 C2910 1.366 . S
C2909 C2911 1.388 . S
C2910 C2909 1.366 . S
C2910 C2914 1.385 . S
C2911 H2886 0.951 . S
C2911 C2909 1.388 . S
C2911 C2912 1.366 . S
C2912 C2911 1.366 . S
C2912 C2913 1.414 . S
C2912 C2915 1.499 . S
C2913 H2887 0.950 . S
C2913 C2912 1.414 . S
C2913 C2914 1.374 . S
C2914 H2888 0.950 . S
C2914 C2910 1.385 . S
C2914 C2913 1.374 . S
C2915 C2912 1.499 . S
C2915 C2916 1.373 . S
C2915 C2917 1.389 . S
C2916 H2889 0.950 . S
C2916 C2902 1.377 . S
C2916 C2915 1.373 . S
C2917 C2901 1.377 . S
C2917 C2915 1.389 . S
C2917 C2918 1.524 . S
C2918 C2917 1.524 . S
C2918 C2919 1.397 . S
C2918 C2923 1.363 . S
C2919 H2890 0.950 . S
C2919 C2918 1.397 . S
C2919 C2920 1.334 . S
C2920 H2891 0.950 . S
C2920 C2919 1.334 . S
C2920 C2921 1.287 . S
C2921 C2920 1.287 . S
C2921 C2922 1.524 . S
C2921 H2924 0.999 . S
C2922 H2892 0.950 . S
C2922 C2921 1.524 . S
C2922 C2923 1.415 . S
C2923 H2893 0.950 . S
C2923 C2918 1.363 . S
C2923 C2922 1.415 . S
H2924 C2921 0.999 . S
H2925 C2906 0.913 . S
H2926 C2944 0.951 . S
H2927 C2946 0.951 . S
H2928 C2948 0.950 . S
H2929 C2949 0.950 . S
H2930 C2951 0.950 . S
H2931 C2954 0.950 . S
H2932 C2955 0.950 . S
H2933 C2957 0.950 . S
H2934 C2958 0.950 . S
H2935 C2959 0.951 . S
H2936 C2961 0.951 . S
H2937 C2963 0.950 . S
H2938 C2964 0.950 . S
H2939 C2966 0.950 . S
H2940 C2969 0.950 . S
H2941 C2970 0.950 . S
H2942 C2972 0.950 . S
H2943 C2973 0.950 . S
C2944 H2926 0.951 . S
C2944 C2945 1.366 . S
C2944 C2946 1.388 . S
C2945 C2944 1.366 . S
C2945 C2949 1.385 . S
C2946 H2927 0.951 . S
C2946 C2944 1.388 . S
C2946 C2947 1.366 . S
C2947 C2946 1.366 . S
C2947 C2948 1.414 . S
C2947 C2950 1.499 . S
C2948 H2928 0.950 . S
C2948 C2947 1.414 . S
C2948 C2949 1.374 . S
C2949 H2929 0.950 . S
C2949 C2945 1.385 . S
C2949 C2948 1.374 . S
C2950 C2947 1.499 . S
C2950 C2951 1.373 . S
C2950 C2952 1.389 . S
C2951 H2930 0.950 . S
C2951 C2950 1.373 . S
C2951 C2967 1.377 . S
C2952 C2950 1.389 . S
C2952 C2953 1.524 . S
C2952 C2966 1.377 . S
C2953 C2952 1.524 . S
C2953 C2954 1.397 . S
C2953 C2958 1.363 . S
C2954 H2931 0.950 . S
C2954 C2953 1.397 . S
C2954 C2955 1.334 . S
C2955 H2932 0.950 . S
C2955 C2954 1.334 . S
C2955 C2956 1.287 . S
C2956 C2955 1.287 . S
C2956 C2957 1.524 . S
C2956 H2975 0.913 . S
C2957 H2933 0.950 . S
C2957 C2956 1.524 . S
C2957 C2958 1.415 . S
C2958 H2934 0.950 . S
C2958 C2953 1.363 . S
C2958 C2957 1.415 . S
C2959 H2935 0.951 . S
C2959 C2960 1.366 . S
C2959 C2961 1.388 . S
C2960 C2959 1.366 . S
C2960 C2964 1.385 . S
C2961 H2936 0.951 . S
C2961 C2959 1.388 . S
C2961 C2962 1.366 . S
C2962 C2961 1.366 . S
C2962 C2963 1.414 . S
C2962 C2965 1.499 . S
C2963 H2937 0.950 . S
C2963 C2962 1.414 . S
C2963 C2964 1.374 . S
C2964 H2938 0.950 . S
C2964 C2960 1.385 . S
C2964 C2963 1.374 . S
C2965 C2962 1.499 . S
C2965 C2966 1.373 . S
C2965 C2967 1.389 . S
C2966 H2939 0.950 . S
C2966 C2952 1.377 . S
C2966 C2965 1.373 . S
C2967 C2951 1.377 . S
C2967 C2965 1.389 . S
C2967 C2968 1.524 . S
C2968 C2967 1.524 . S
C2968 C2969 1.397 . S
C2968 C2973 1.363 . S
C2969 H2940 0.950 . S
C2969 C2968 1.397 . S
C2969 C2970 1.334 . S
C2970 H2941 0.950 . S
C2970 C2969 1.334 . S
C2970 C2971 1.287 . S
C2971 C2970 1.287 . S
C2971 C2972 1.524 . S
C2971 H2974 0.999 . S
C2972 H2942 0.950 . S
C2972 C2971 1.524 . S
C2972 C2973 1.415 . S
C2973 H2943 0.950 . S
C2973 C2968 1.363 . S
C2973 C2972 1.415 . S
H2974 C2971 0.999 . S
H2975 C2956 0.913 . S
H2976 C2994 0.951 . S
H2977 C2996 0.951 . S
H2978 C2998 0.950 . S
H2979 C2999 0.950 . S
H2980 C3001 0.950 . S
H2981 C3004 0.950 . S
H2982 C3005 0.950 . S
H2983 C3007 0.950 . S
H2984 C3008 0.950 . S
H2985 C3009 0.951 . S
H2986 C3011 0.951 . S
H2987 C3013 0.950 . S
H2988 C3014 0.950 . S
H2989 C3016 0.950 . S
H2990 C3019 0.950 . S
H2991 C3020 0.950 . S
H2992 C3022 0.950 . S
H2993 C3023 0.950 . S
C2994 H2976 0.951 . S
C2994 C2995 1.366 . S
C2994 C2996 1.388 . S
C2995 C2994 1.366 . S
C2995 C2999 1.385 . S
C2996 H2977 0.951 . S
C2996 C2994 1.388 . S
C2996 C2997 1.366 . S
C2997 C2996 1.366 . S
C2997 C2998 1.414 . S
C2997 C3000 1.499 . S
C2998 H2978 0.950 . S
C2998 C2997 1.414 . S
C2998 C2999 1.374 . S
C2999 H2979 0.950 . S
C2999 C2995 1.385 . S
C2999 C2998 1.374 . S
C3000 C2997 1.499 . S
C3000 C3001 1.373 . S
C3000 C3002 1.389 . S
C3001 H2980 0.950 . S
C3001 C3000 1.373 . S
C3001 C3017 1.377 . S
C3002 C3000 1.389 . S
C3002 C3003 1.524 . S
C3002 C3016 1.377 . S
C3003 C3002 1.524 . S
C3003 C3004 1.397 . S
C3003 C3008 1.363 . S
C3004 H2981 0.950 . S
C3004 C3003 1.397 . S
C3004 C3005 1.334 . S
C3005 H2982 0.950 . S
C3005 C3004 1.334 . S
C3005 C3006 1.287 . S
C3006 C3005 1.287 . S
C3006 C3007 1.524 . S
C3006 H3025 0.913 . S
C3007 H2983 0.950 . S
C3007 C3006 1.524 . S
C3007 C3008 1.415 . S
C3008 H2984 0.950 . S
C3008 C3003 1.363 . S
C3008 C3007 1.415 . S
C3009 H2985 0.951 . S
C3009 C3010 1.366 . S
C3009 C3011 1.388 . S
C3010 C3009 1.366 . S
C3010 C3014 1.385 . S
C3011 H2986 0.951 . S
C3011 C3009 1.388 . S
C3011 C3012 1.366 . S
C3012 C3011 1.366 . S
C3012 C3013 1.414 . S
C3012 C3015 1.499 . S
C3013 H2987 0.950 . S
C3013 C3012 1.414 . S
C3013 C3014 1.374 . S
C3014 H2988 0.950 . S
C3014 C3010 1.385 . S
C3014 C3013 1.374 . S
C3015 C3012 1.499 . S
C3015 C3016 1.373 . S
C3015 C3017 1.389 . S
C3016 H2989 0.950 . S
C3016 C3002 1.377 . S
C3016 C3015 1.373 . S
C3017 C3001 1.377 . S
C3017 C3015 1.389 . S
C3017 C3018 1.524 . S
C3018 C3017 1.524 . S
C3018 C3019 1.397 . S
C3018 C3023 1.363 . S
C3019 H2990 0.950 . S
C3019 C3018 1.397 . S
C3019 C3020 1.334 . S
C3020 H2991 0.950 . S
C3020 C3019 1.334 . S
C3020 C3021 1.287 . S
C3021 C3020 1.287 . S
C3021 C3022 1.524 . S
C3021 H3024 0.999 . S
C3022 H2992 0.950 . S
C3022 C3021 1.524 . S
C3022 C3023 1.415 . S
C3023 H2993 0.950 . S
C3023 C3018 1.363 . S
C3023 C3022 1.415 . S
H3024 C3021 0.999 . S
H3025 C3006 0.913 . S
H3026 C3044 0.951 . S
H3027 C3046 0.951 . S
H3028 C3048 0.950 . S
H3029 C3049 0.950 . S
H3030 C3051 0.950 . S
H3031 C3054 0.950 . S
H3032 C3055 0.950 . S
H3033 C3057 0.950 . S
H3034 C3058 0.950 . S
H3035 C3059 0.951 . S
H3036 C3061 0.951 . S
H3037 C3063 0.950 . S
H3038 C3064 0.950 . S
H3039 C3066 0.950 . S
H3040 C3069 0.950 . S
H3041 C3070 0.950 . S
H3042 C3072 0.950 . S
H3043 C3073 0.950 . S
C3044 H3026 0.951 . S
C3044 C3045 1.366 . S
C3044 C3046 1.388 . S
C3045 C3044 1.366 . S
C3045 C3049 1.385 . S
C3046 H3027 0.951 . S
C3046 C3044 1.388 . S
C3046 C3047 1.366 . S
C3047 C3046 1.366 . S
C3047 C3048 1.414 . S
C3047 C3050 1.499 . S
C3048 H3028 0.950 . S
C3048 C3047 1.414 . S
C3048 C3049 1.374 . S
C3049 H3029 0.950 . S
C3049 C3045 1.385 . S
C3049 C3048 1.374 . S
C3050 C3047 1.499 . S
C3050 C3051 1.373 . S
C3050 C3052 1.389 . S
C3051 H3030 0.950 . S
C3051 C3050 1.373 . S
C3051 C3067 1.377 . S
C3052 C3050 1.389 . S
C3052 C3053 1.524 . S
C3052 C3066 1.377 . S
C3053 C3052 1.524 . S
C3053 C3054 1.397 . S
C3053 C3058 1.363 . S
C3054 H3031 0.950 . S
C3054 C3053 1.397 . S
C3054 C3055 1.334 . S
C3055 H3032 0.950 . S
C3055 C3054 1.334 . S
C3055 C3056 1.287 . S
C3056 C3055 1.287 . S
C3056 C3057 1.524 . S
C3056 H3075 0.913 . S
C3057 H3033 0.950 . S
C3057 C3056 1.524 . S
C3057 C3058 1.415 . S
C3058 H3034 0.950 . S
C3058 C3053 1.363 . S
C3058 C3057 1.415 . S
C3059 H3035 0.951 . S
C3059 C3060 1.366 . S
C3059 C3061 1.388 . S
C3060 C3059 1.366 . S
C3060 C3064 1.385 . S
C3061 H3036 0.951 . S
C3061 C3059 1.388 . S
C3061 C3062 1.366 . S
C3062 C3061 1.366 . S
C3062 C3063 1.414 . S
C3062 C3065 1.499 . S
C3063 H3037 0.950 . S
C3063 C3062 1.414 . S
C3063 C3064 1.374 . S
C3064 H3038 0.950 . S
C3064 C3060 1.385 . S
C3064 C3063 1.374 . S
C3065 C3062 1.499 . S
C3065 C3066 1.373 . S
C3065 C3067 1.389 . S
C3066 H3039 0.950 . S
C3066 C3052 1.377 . S
C3066 C3065 1.373 . S
C3067 C3051 1.377 . S
C3067 C3065 1.389 . S
C3067 C3068 1.524 . S
C3068 C3067 1.524 . S
C3068 C3069 1.397 . S
C3068 C3073 1.363 . S
C3069 H3040 0.950 . S
C3069 C3068 1.397 . S
C3069 C3070 1.334 . S
C3070 H3041 0.950 . S
C3070 C3069 1.334 . S
C3070 C3071 1.287 . S
C3071 C3070 1.287 . S
C3071 C3072 1.524 . S
C3071 H3074 0.999 . S
C3072 H3042 0.950 . S
C3072 C3071 1.524 . S
C3072 C3073 1.415 . S
C3073 H3043 0.950 . S
C3073 C3068 1.363 . S
C3073 C3072 1.415 . S
H3074 C3071 0.999 . S
H3075 C3056 0.913 . S
H3076 C3094 0.951 . S
H3077 C3096 0.951 . S
H3078 C3098 0.950 . S
H3079 C3099 0.950 . S
H3080 C3101 0.950 . S
H3081 C3104 0.950 . S
H3082 C3105 0.950 . S
H3083 C3107 0.950 . S
H3084 C3108 0.950 . S
H3085 C3109 0.951 . S
H3086 C3111 0.951 . S
H3087 C3113 0.950 . S
H3088 C3114 0.950 . S
H3089 C3116 0.950 . S
H3090 C3119 0.950 . S
H3091 C3120 0.950 . S
H3092 C3122 0.950 . S
H3093 C3123 0.950 . S
C3094 H3076 0.951 . S
C3094 C3095 1.366 . S
C3094 C3096 1.388 . S
C3095 C3094 1.366 . S
C3095 C3099 1.385 . S
C3096 H3077 0.951 . S
C3096 C3094 1.388 . S
C3096 C3097 1.366 . S
C3097 C3096 1.366 . S
C3097 C3098 1.414 . S
C3097 C3100 1.499 . S
C3098 H3078 0.950 . S
C3098 C3097 1.414 . S
C3098 C3099 1.374 . S
C3099 H3079 0.950 . S
C3099 C3095 1.385 . S
C3099 C3098 1.374 . S
C3100 C3097 1.499 . S
C3100 C3101 1.373 . S
C3100 C3102 1.389 . S
C3101 H3080 0.950 . S
C3101 C3100 1.373 . S
C3101 C3117 1.377 . S
C3102 C3100 1.389 . S
C3102 C3103 1.524 . S
C3102 C3116 1.377 . S
C3103 C3102 1.524 . S
C3103 C3104 1.397 . S
C3103 C3108 1.363 . S
C3104 H3081 0.950 . S
C3104 C3103 1.397 . S
C3104 C3105 1.334 . S
C3105 H3082 0.950 . S
C3105 C3104 1.334 . S
C3105 C3106 1.287 . S
C3106 C3105 1.287 . S
C3106 C3107 1.524 . S
C3106 H3125 0.913 . S
C3107 H3083 0.950 . S
C3107 C3106 1.524 . S
C3107 C3108 1.415 . S
C3108 H3084 0.950 . S
C3108 C3103 1.363 . S
C3108 C3107 1.415 . S
C3109 H3085 0.951 . S
C3109 C3110 1.366 . S
C3109 C3111 1.388 . S
C3110 C3109 1.366 . S
C3110 C3114 1.385 . S
C3111 H3086 0.951 . S
C3111 C3109 1.388 . S
C3111 C3112 1.366 . S
C3112 C3111 1.366 . S
C3112 C3113 1.414 . S
C3112 C3115 1.499 . S
C3113 H3087 0.950 . S
C3113 C3112 1.414 . S
C3113 C3114 1.374 . S
C3114 H3088 0.950 . S
C3114 C3110 1.385 . S
C3114 C3113 1.374 . S
C3115 C3112 1.499 . S
C3115 C3116 1.373 . S
C3115 C3117 1.389 . S
C3116 H3089 0.950 . S
C3116 C3102 1.377 . S
C3116 C3115 1.373 . S
C3117 C3101 1.377 . S
C3117 C3115 1.389 . S
C3117 C3118 1.524 . S
C3118 C3117 1.524 . S
C3118 C3119 1.397 . S
C3118 C3123 1.363 . S
C3119 H3090 0.950 . S
C3119 C3118 1.397 . S
C3119 C3120 1.334 . S
C3120 H3091 0.950 . S
C3120 C3119 1.334 . S
C3120 C3121 1.287 . S
C3121 C3120 1.287 . S
C3121 C3122 1.524 . S
C3121 H3124 0.999 . S
C3122 H3092 0.950 . S
C3122 C3121 1.524 . S
C3122 C3123 1.415 . S
C3123 H3093 0.950 . S
C3123 C3118 1.363 . S
C3123 C3122 1.415 . S
H3124 C3121 0.999 . S
H3125 C3106 0.913 . S
H3126 C3144 0.951 . S
H3127 C3146 0.951 . S
H3128 C3148 0.950 . S
H3129 C3149 0.950 . S
H3130 C3151 0.950 . S
H3131 C3154 0.950 . S
H3132 C3155 0.950 . S
H3133 C3157 0.950 . S
H3134 C3158 0.950 . S
H3135 C3159 0.951 . S
H3136 C3161 0.951 . S
H3137 C3163 0.950 . S
H3138 C3164 0.950 . S
H3139 C3166 0.950 . S
H3140 C3169 0.950 . S
H3141 C3170 0.950 . S
H3142 C3172 0.950 . S
H3143 C3173 0.950 . S
C3144 H3126 0.951 . S
C3144 C3145 1.366 . S
C3144 C3146 1.388 . S
C3145 C3144 1.366 . S
C3145 C3149 1.385 . S
C3146 H3127 0.951 . S
C3146 C3144 1.388 . S
C3146 C3147 1.366 . S
C3147 C3146 1.366 . S
C3147 C3148 1.414 . S
C3147 C3150 1.499 . S
C3148 H3128 0.950 . S
C3148 C3147 1.414 . S
C3148 C3149 1.374 . S
C3149 H3129 0.950 . S
C3149 C3145 1.385 . S
C3149 C3148 1.374 . S
C3150 C3147 1.499 . S
C3150 C3151 1.373 . S
C3150 C3152 1.389 . S
C3151 H3130 0.950 . S
C3151 C3150 1.373 . S
C3151 C3167 1.377 . S
C3152 C3150 1.389 . S
C3152 C3153 1.524 . S
C3152 C3166 1.377 . S
C3153 C3152 1.524 . S
C3153 C3154 1.397 . S
C3153 C3158 1.363 . S
C3154 H3131 0.950 . S
C3154 C3153 1.397 . S
C3154 C3155 1.334 . S
C3155 H3132 0.950 . S
C3155 C3154 1.334 . S
C3155 C3156 1.287 . S
C3156 C3155 1.287 . S
C3156 C3157 1.524 . S
C3156 H3175 0.913 . S
C3157 H3133 0.950 . S
C3157 C3156 1.524 . S
C3157 C3158 1.415 . S
C3158 H3134 0.950 . S
C3158 C3153 1.363 . S
C3158 C3157 1.415 . S
C3159 H3135 0.951 . S
C3159 C3160 1.366 . S
C3159 C3161 1.388 . S
C3160 C3159 1.366 . S
C3160 C3164 1.385 . S
C3161 H3136 0.951 . S
C3161 C3159 1.388 . S
C3161 C3162 1.366 . S
C3162 C3161 1.366 . S
C3162 C3163 1.414 . S
C3162 C3165 1.499 . S
C3163 H3137 0.950 . S
C3163 C3162 1.414 . S
C3163 C3164 1.374 . S
C3164 H3138 0.950 . S
C3164 C3160 1.385 . S
C3164 C3163 1.374 . S
C3165 C3162 1.499 . S
C3165 C3166 1.373 . S
C3165 C3167 1.389 . S
C3166 H3139 0.950 . S
C3166 C3152 1.377 . S
C3166 C3165 1.373 . S
C3167 C3151 1.377 . S
C3167 C3165 1.389 . S
C3167 C3168 1.524 . S
C3168 C3167 1.524 . S
C3168 C3169 1.397 . S
C3168 C3173 1.363 . S
C3169 H3140 0.950 . S
C3169 C3168 1.397 . S
C3169 C3170 1.334 . S
C3170 H3141 0.950 . S
C3170 C3169 1.334 . S
C3170 C3171 1.287 . S
C3171 C3170 1.287 . S
C3171 C3172 1.524 . S
C3171 H3174 0.999 . S
C3172 H3142 0.950 . S
C3172 C3171 1.524 . S
C3172 C3173 1.415 . S
C3173 H3143 0.950 . S
C3173 C3168 1.363 . S
C3173 C3172 1.415 . S
H3174 C3171 0.999 . S
H3175 C3156 0.913 . S
H3176 C3194 0.951 . S
H3177 C3196 0.951 . S
H3178 C3198 0.950 . S
H3179 C3199 0.950 . S
H3180 C3201 0.950 . S
H3181 C3204 0.950 . S
H3182 C3205 0.950 . S
H3183 C3207 0.950 . S
H3184 C3208 0.950 . S
H3185 C3209 0.951 . S
H3186 C3211 0.951 . S
H3187 C3213 0.950 . S
H3188 C3214 0.950 . S
H3189 C3216 0.950 . S
H3190 C3219 0.950 . S
H3191 C3220 0.950 . S
H3192 C3222 0.950 . S
H3193 C3223 0.950 . S
C3194 H3176 0.951 . S
C3194 C3195 1.366 . S
C3194 C3196 1.388 . S
C3195 C3194 1.366 . S
C3195 C3199 1.385 . S
C3196 H3177 0.951 . S
C3196 C3194 1.388 . S
C3196 C3197 1.366 . S
C3197 C3196 1.366 . S
C3197 C3198 1.414 . S
C3197 C3200 1.499 . S
C3198 H3178 0.950 . S
C3198 C3197 1.414 . S
C3198 C3199 1.374 . S
C3199 H3179 0.950 . S
C3199 C3195 1.385 . S
C3199 C3198 1.374 . S
C3200 C3197 1.499 . S
C3200 C3201 1.373 . S
C3200 C3202 1.389 . S
C3201 H3180 0.950 . S
C3201 C3200 1.373 . S
C3201 C3217 1.377 . S
C3202 C3200 1.389 . S
C3202 C3203 1.524 . S
C3202 C3216 1.377 . S
C3203 C3202 1.524 . S
C3203 C3204 1.397 . S
C3203 C3208 1.363 . S
C3204 H3181 0.950 . S
C3204 C3203 1.397 . S
C3204 C3205 1.334 . S
C3205 H3182 0.950 . S
C3205 C3204 1.334 . S
C3205 C3206 1.287 . S
C3206 C3205 1.287 . S
C3206 C3207 1.524 . S
C3206 H3225 0.913 . S
C3207 H3183 0.950 . S
C3207 C3206 1.524 . S
C3207 C3208 1.415 . S
C3208 H3184 0.950 . S
C3208 C3203 1.363 . S
C3208 C3207 1.415 . S
C3209 H3185 0.951 . S
C3209 C3210 1.366 . S
C3209 C3211 1.388 . S
C3210 C3209 1.366 . S
C3210 C3214 1.385 . S
C3211 H3186 0.951 . S
C3211 C3209 1.388 . S
C3211 C3212 1.366 . S
C3212 C3211 1.366 . S
C3212 C3213 1.414 . S
C3212 C3215 1.499 . S
C3213 H3187 0.950 . S
C3213 C3212 1.414 . S
C3213 C3214 1.374 . S
C3214 H3188 0.950 . S
C3214 C3210 1.385 . S
C3214 C3213 1.374 . S
C3215 C3212 1.499 . S
C3215 C3216 1.373 . S
C3215 C3217 1.389 . S
C3216 H3189 0.950 . S
C3216 C3202 1.377 . S
C3216 C3215 1.373 . S
C3217 C3201 1.377 . S
C3217 C3215 1.389 . S
C3217 C3218 1.524 . S
C3218 C3217 1.524 . S
C3218 C3219 1.397 . S
C3218 C3223 1.363 . S
C3219 H3190 0.950 . S
C3219 C3218 1.397 . S
C3219 C3220 1.334 . S
C3220 H3191 0.950 . S
C3220 C3219 1.334 . S
C3220 C3221 1.287 . S
C3221 C3220 1.287 . S
C3221 C3222 1.524 . S
C3221 H3224 0.999 . S
C3222 H3192 0.950 . S
C3222 C3221 1.524 . S
C3222 C3223 1.415 . S
C3223 H3193 0.950 . S
C3223 C3218 1.363 . S
C3223 C3222 1.415 . S
H3224 C3221 0.999 . S
H3225 C3206 0.913 . S
H3226 C3244 0.951 . S
H3227 C3246 0.951 . S
H3228 C3248 0.950 . S
H3229 C3249 0.950 . S
H3230 C3251 0.950 . S
H3231 C3254 0.950 . S
H3232 C3255 0.950 . S
H3233 C3257 0.950 . S
H3234 C3258 0.950 . S
H3235 C3259 0.951 . S
H3236 C3261 0.951 . S
H3237 C3263 0.950 . S
H3238 C3264 0.950 . S
H3239 C3266 0.950 . S
H3240 C3269 0.950 . S
H3241 C3270 0.950 . S
H3242 C3272 0.950 . S
H3243 C3273 0.950 . S
C3244 H3226 0.951 . S
C3244 C3245 1.366 . S
C3244 C3246 1.388 . S
C3245 C3244 1.366 . S
C3245 C3249 1.385 . S
C3246 H3227 0.951 . S
C3246 C3244 1.388 . S
C3246 C3247 1.366 . S
C3247 C3246 1.366 . S
C3247 C3248 1.414 . S
C3247 C3250 1.499 . S
C3248 H3228 0.950 . S
C3248 C3247 1.414 . S
C3248 C3249 1.374 . S
C3249 H3229 0.950 . S
C3249 C3245 1.385 . S
C3249 C3248 1.374 . S
C3250 C3247 1.499 . S
C3250 C3251 1.373 . S
C3250 C3252 1.389 . S
C3251 H3230 0.950 . S
C3251 C3250 1.373 . S
C3251 C3267 1.377 . S
C3252 C3250 1.389 . S
C3252 C3253 1.524 . S
C3252 C3266 1.377 . S
C3253 C3252 1.524 . S
C3253 C3254 1.397 . S
C3253 C3258 1.363 . S
C3254 H3231 0.950 . S
C3254 C3253 1.397 . S
C3254 C3255 1.334 . S
C3255 H3232 0.950 . S
C3255 C3254 1.334 . S
C3255 C3256 1.287 . S
C3256 C3255 1.287 . S
C3256 C3257 1.524 . S
C3256 H3275 0.913 . S
C3257 H3233 0.950 . S
C3257 C3256 1.524 . S
C3257 C3258 1.415 . S
C3258 H3234 0.950 . S
C3258 C3253 1.363 . S
C3258 C3257 1.415 . S
C3259 H3235 0.951 . S
C3259 C3260 1.366 . S
C3259 C3261 1.388 . S
C3260 C3259 1.366 . S
C3260 C3264 1.385 . S
C3261 H3236 0.951 . S
C3261 C3259 1.388 . S
C3261 C3262 1.366 . S
C3262 C3261 1.366 . S
C3262 C3263 1.414 . S
C3262 C3265 1.499 . S
C3263 H3237 0.950 . S
C3263 C3262 1.414 . S
C3263 C3264 1.374 . S
C3264 H3238 0.950 . S
C3264 C3260 1.385 . S
C3264 C3263 1.374 . S
C3265 C3262 1.499 . S
C3265 C3266 1.373 . S
C3265 C3267 1.389 . S
C3266 H3239 0.950 . S
C3266 C3252 1.377 . S
C3266 C3265 1.373 . S
C3267 C3251 1.377 . S
C3267 C3265 1.389 . S
C3267 C3268 1.524 . S
C3268 C3267 1.524 . S
C3268 C3269 1.397 . S
C3268 C3273 1.363 . S
C3269 H3240 0.950 . S
C3269 C3268 1.397 . S
C3269 C3270 1.334 . S
C3270 H3241 0.950 . S
C3270 C3269 1.334 . S
C3270 C3271 1.287 . S
C3271 C3270 1.287 . S
C3271 C3272 1.524 . S
C3271 H3274 0.999 . S
C3272 H3242 0.950 . S
C3272 C3271 1.524 . S
C3272 C3273 1.415 . S
C3273 H3243 0.950 . S
C3273 C3268 1.363 . S
C3273 C3272 1.415 . S
H3274 C3271 0.999 . S
H3275 C3256 0.913 . S
C595 C162 1.692 . S
C610 C228 1.697 . S
C645 C174 1.852 . S
C660 C268 1.849 . S
C695 C150 1.610 . S
C710 C298 1.591 . S
C745 C138 1.467 . S
C760 C258 1.457 . S
C810 C308 1.492 1_556 S
C795 C114 1.494 . S
C845 C126 1.312 . S
C860 C218 1.302 . S
C910 C247 1.682 1_556 S
C895 C136 1.658 . S
C960 C287 1.708 . S
C945 C112 1.691 . S
C995 C124 1.664 . S
C1010 C313 1.693 . S
C1045 C160 1.484 . S
C1060 C273 1.496 . S
C1095 C172 1.431 . S
C1110 C327 1.440 . S
C1160 C233 1.432 . S
C1145 C148 1.408 . S
C1210 C348 1.697 . S
C1195 C18 1.692 . S
C1245 C30 1.852 . S
C1260 C388 1.849 . S
C1295 C6 1.611 . S
C1310 C418 1.592 . S
C1345 C210 1.467 . S
C1360 C378 1.442 . S
C1395 C186 1.494 . S
C1410 C428 1.492 . S
C1445 C198 1.312 . S
C1460 C338 1.302 . S
C1495 C208 1.658 . S
C1510 C367 1.682 . S
C1545 C184 1.691 . S
C1560 C407 1.708 . S
C1610 C433 1.692 . S
C1595 C196 1.663 . S
C1645 C16 1.484 . S
C1660 C393 1.496 . S
C1710 C447 1.440 . S
C1695 C28 1.431 . S
C1745 C4 1.409 . S
C1760 C353 1.433 . S
C1810 C468 1.697 . S
C1795 C90 1.691 . S
C1845 C102 1.852 . S
C1860 C508 1.849 . S
C1910 C538 1.591 . S
C1895 C78 1.611 . S
C1960 C498 1.442 . S
C1945 C66 1.467 . S
C2010 C548 1.492 . S
C1995 C42 1.494 . S
C2045 C54 1.312 . S
C2060 C458 1.303 . S
C2095 C64 1.658 . S
C2110 C487 1.682 . S
C2145 C40 1.691 . S
C2160 C527 1.708 . S
C2210 C553 1.693 . S
C2195 C52 1.664 . S
C2245 C88 1.484 . S
C2260 C513 1.496 . S
C2295 C100 1.432 . S
C2310 C567 1.440 . S
C2345 C76 1.408 . S
C2360 C473 1.432 . S
C2395 C189 1.424 . S
C2410 C245 1.401 . S
C2460 C285 1.975 . S
C2445 C201 2.009 . S
C2495 C213 1.574 . S
C2510 C304 1.586 . S
C2545 C81 1.847 . S
C2560 C264 1.847 . S
C2595 C93 1.705 . S
C2610 C325 1.685 . S
C2660 C224 1.253 . S
C2645 C105 1.247 . S
C2695 C45 1.424 . S
C2710 C365 1.400 . S
C2745 C57 2.009 . S
C2760 C405 1.975 . S
C2795 C69 1.574 . S
C2810 C424 1.586 . S
C2845 C153 1.847 . S
C2860 C384 1.847 . S
C2910 C445 1.685 . S
C2895 C165 1.705 . S
C2945 C177 1.246 . S
C2960 C344 1.253 . S
C2995 C117 1.424 . S
C3010 C485 1.400 . S
C3045 C129 2.009 . S
C3060 C525 1.975 . S
C3110 C544 1.587 . S
C3095 C141 1.574 . S
C3145 C9 1.847 . S
C3160 C504 1.847 . S
C3195 C21 1.705 . S
C3210 C565 1.685 . S
C3245 C33 1.246 . S
C3260 C464 1.253 . S
