# Generated by pormake.
# Topology pyr, (3,6)-cn, num edge types: 1
# Building blocks:
#     Node 0, Type 0, BuildingBlock: KAKCAD_clean_linker_0, # of connection points: 3
#     Node 1, Type 0, BuildingBlock: KAKCAD_clean_linker_0, # of connection points: 3
#     Node 2, Type 0, BuildingBlock: KAKCAD_clean_linker_0, # of connection points: 3
#     Node 3, Type 0, BuildingBlock: KAKCAD_clean_linker_0, # of connection points: 3
#     Node 4, Type 0, BuildingBlock: KAKCAD_clean_linker_0, # of connection points: 3
#     Node 5, Type 0, BuildingBlock: KAKCAD_clean_linker_0, # of connection points: 3
#     Node 6, Type 0, BuildingBlock: KAKCAD_clean_linker_0, # of connection points: 3
#     Node 7, Type 0, BuildingBlock: KAKCAD_clean_linker_0, # of connection points: 3
#     Node 8, Type 1, BuildingBlock: BETDAH_clean_sbu_0, # of connection points: 6
#     Node 9, Type 1, BuildingBlock: BETDAH_clean_sbu_0, # of connection points: 6
#     Node 10, Type 1, BuildingBlock: BETDAH_clean_sbu_0, # of connection points: 6
#     Node 11, Type 1, BuildingBlock: BETDAH_clean_sbu_0, # of connection points: 6
#     Edge 12, Type (0, 1), BuildingBlock: CIFDUS_clean_linker_0, # of connection points: 2
#     Edge 13, Type (0, 1), BuildingBlock: CIFDUS_clean_linker_0, # of connection points: 2
#     Edge 14, Type (0, 1), BuildingBlock: CIFDUS_clean_linker_0, # of connection points: 2
#     Edge 15, Type (0, 1), BuildingBlock: CIFDUS_clean_linker_0, # of connection points: 2
#     Edge 16, Type (0, 1), BuildingBlock: CIFDUS_clean_linker_0, # of connection points: 2
#     Edge 17, Type (0, 1), BuildingBlock: CIFDUS_clean_linker_0, # of connection points: 2
#     Edge 18, Type (0, 1), BuildingBlock: CIFDUS_clean_linker_0, # of connection points: 2
#     Edge 19, Type (0, 1), BuildingBlock: CIFDUS_clean_linker_0, # of connection points: 2
#     Edge 20, Type (0, 1), BuildingBlock: CIFDUS_clean_linker_0, # of connection points: 2
#     Edge 21, Type (0, 1), BuildingBlock: CIFDUS_clean_linker_0, # of connection points: 2
#     Edge 22, Type (0, 1), BuildingBlock: CIFDUS_clean_linker_0, # of connection points: 2
#     Edge 23, Type (0, 1), BuildingBlock: CIFDUS_clean_linker_0, # of connection points: 2
#     Edge 24, Type (0, 1), BuildingBlock: CIFDUS_clean_linker_0, # of connection points: 2
#     Edge 25, Type (0, 1), BuildingBlock: CIFDUS_clean_linker_0, # of connection points: 2
#     Edge 26, Type (0, 1), BuildingBlock: CIFDUS_clean_linker_0, # of connection points: 2
#     Edge 27, Type (0, 1), BuildingBlock: CIFDUS_clean_linker_0, # of connection points: 2
#     Edge 28, Type (0, 1), BuildingBlock: CIFDUS_clean_linker_0, # of connection points: 2
#     Edge 29, Type (0, 1), BuildingBlock: CIFDUS_clean_linker_0, # of connection points: 2
#     Edge 30, Type (0, 1), BuildingBlock: CIFDUS_clean_linker_0, # of connection points: 2
#     Edge 31, Type (0, 1), BuildingBlock: CIFDUS_clean_linker_0, # of connection points: 2
#     Edge 32, Type (0, 1), BuildingBlock: CIFDUS_clean_linker_0, # of connection points: 2
#     Edge 33, Type (0, 1), BuildingBlock: CIFDUS_clean_linker_0, # of connection points: 2
#     Edge 34, Type (0, 1), BuildingBlock: CIFDUS_clean_linker_0, # of connection points: 2
#     Edge 35, Type (0, 1), BuildingBlock: CIFDUS_clean_linker_0, # of connection points: 2
# Relax obj value: 0.108
# Max RMSD: 0.126
# Mean RMSD: 0.060
data_MOF--net-pyr--node1-BETDAH_clean_sbu_0--node2-KAKCAD_clean_linker_0--edge1-CIFDUS_clean_linker_0
_symmetry_space_group_name_H-M    P1
_symmetry_Int_Tables_number       1
_symmetry_cell_setting            triclinic
loop_
_symmetry_equiv_pos_as_xyz
'x, y, z'
_cell_length_a     41.803701
_cell_length_b     44.507317
_cell_length_c     40.430927
_cell_angle_alpha  91.17811
_cell_angle_beta   88.56106
_cell_angle_gamma 100.65678
loop_
_atom_site_label
_atom_site_type_symbol
_atom_site_fract_x
_atom_site_fract_y
_atom_site_fract_z
_atom_type_partial_charge
C0 C 0.27468 0.24819 0.32035 0.0
C1 C 0.28741 0.24653 0.35184 0.0
C2 C 0.29492 0.25936 0.29403 0.0
C3 C 0.32836 0.2694 0.29857 0.0
C4 C 0.34166 0.2665 0.32964 0.0
C5 C 0.32116 0.25492 0.35629 0.0
C6 C 0.34777 0.28422 0.27047 0.0
C7 C 0.3366 0.30819 0.25554 0.0
C8 C 0.34446 0.31543 0.22253 0.0
C9 C 0.36718 0.30078 0.20536 0.0
C10 C 0.38096 0.27815 0.22115 0.0
C11 C 0.37072 0.26994 0.2538 0.0
C12 C 0.40217 0.25962 0.20278 0.0
C13 C 0.39462 0.24856 0.17056 0.0
C14 C 0.42797 0.24996 0.21878 0.0
C15 C 0.44461 0.22858 0.20369 0.0
C16 C 0.43586 0.21627 0.1722 0.0
C17 C 0.32271 0.33274 0.20563 0.0
C18 C 0.28932 0.3202 0.20535 0.0
C19 C 0.3332 0.363 0.19544 0.0
C20 C 0.31029 0.38078 0.18645 0.0
C21 C 0.27665 0.36858 0.18806 0.0
C22 C 0.26664 0.33785 0.19682 0.0
C23 C 0.41126 0.22718 0.15547 0.0
H24 H 0.24889 0.24088 0.31609 0.0
H25 H 0.28428 0.26074 0.27005 0.0
H26 H 0.36749 0.27393 0.33345 0.0
H27 H 0.33141 0.25322 0.38037 0.0
H28 H 0.31817 0.31862 0.26837 0.0
H29 H 0.3782 0.25052 0.26509 0.0
H30 H 0.37277 0.30587 0.17954 0.0
H31 H 0.37475 0.25522 0.15757 0.0
H32 H 0.43463 0.25822 0.24351 0.0
H33 H 0.46333 0.22068 0.21736 0.0
H34 H 0.2806 0.29696 0.21333 0.0
H35 H 0.35878 0.37328 0.19596 0.0
H36 H 0.40428 0.21861 0.13092 0.0
H37 H 0.24107 0.32747 0.19759 0.0
H38 H 0.31875 0.40436 0.17964 0.0
C39 C 0.30102 0.92354 0.73513 0.0
C40 C 0.33382 0.93486 0.7269 0.0
C41 C 0.28191 0.9036 0.71347 0.0
C42 C 0.29573 0.89485 0.68373 0.0
C43 C 0.32743 0.90875 0.67414 0.0
C44 C 0.34641 0.9288 0.69565 0.0
C45 C 0.27777 0.87065 0.66278 0.0
C46 C 0.24753 0.87362 0.65097 0.0
C47 C 0.23376 0.85439 0.62534 0.0
C48 C 0.24927 0.83162 0.61258 0.0
C49 C 0.27951 0.82835 0.62428 0.0
C50 C 0.29317 0.84723 0.65041 0.0
C51 C 0.29871 0.80938 0.60489 0.0
C52 C 0.28288 0.78312 0.58805 0.0
C53 C 0.3323 0.81936 0.59967 0.0
C54 C 0.34985 0.8027 0.57905 0.0
C55 C 0.33395 0.77632 0.5624 0.0
C56 C 0.20878 0.86366 0.60593 0.0
C57 C 0.17997 0.86849 0.62138 0.0
C58 C 0.21662 0.87302 0.57328 0.0
C59 C 0.19731 0.89007 0.55742 0.0
C60 C 0.17028 0.89768 0.57429 0.0
C61 C 0.16056 0.88535 0.60546 0.0
C62 C 0.30007 0.76752 0.56607 0.0
H63 H 0.29108 0.92821 0.75931 0.0
H64 H 0.25722 0.89353 0.72083 0.0
H65 H 0.33803 0.90293 0.65069 0.0
H66 H 0.37171 0.9373 0.68909 0.0
H67 H 0.23657 0.8929 0.65903 0.0
H68 H 0.31672 0.84512 0.65972 0.0
H69 H 0.23916 0.81889 0.59094 0.0
H70 H 0.25708 0.77454 0.59169 0.0
H71 H 0.34517 0.84008 0.6113 0.0
H72 H 0.37603 0.80987 0.57735 0.0
H73 H 0.17396 0.86142 0.64661 0.0
H74 H 0.2392 0.86964 0.56129 0.0
H75 H 0.28696 0.74761 0.55318 0.0
H76 H 0.13989 0.89136 0.61901 0.0
H77 H 0.20496 0.89949 0.53336 0.0
C78 C 0.76885 0.43314 0.9063 0.0
C79 C 0.79325 0.41584 0.91171 0.0
C80 C 0.73932 0.41994 0.89094 0.0
C81 C 0.73288 0.3888 0.88105 0.0
C82 C 0.75733 0.37155 0.88684 0.0
C83 C 0.78703 0.38489 0.9015 0.0
C84 C 0.70075 0.37397 0.86566 0.0
C85 C 0.68615 0.38852 0.84068 0.0
C86 C 0.65614 0.37479 0.82591 0.0
C87 C 0.64086 0.3452 0.83759 0.0
C88 C 0.65511 0.32975 0.86248 0.0
C89 C 0.68488 0.34475 0.87594 0.0
C90 C 0.64028 0.29772 0.8748 0.0
C91 C 0.6072 0.28916 0.88474 0.0
C92 C 0.66027 0.27576 0.87904 0.0
C93 C 0.64798 0.24672 0.89245 0.0
C94 C 0.61513 0.23821 0.90291 0.0
C95 C 0.64157 0.39161 0.79841 0.0
C96 C 0.64806 0.42394 0.79664 0.0
C97 C 0.62176 0.37612 0.77305 0.0
C98 C 0.60939 0.39211 0.74743 0.0
C99 C 0.61607 0.42449 0.74579 0.0
C100 C 0.63594 0.4398 0.77111 0.0
C101 C 0.59496 0.2601 0.89888 0.0
H102 H 0.77287 0.45712 0.91341 0.0
H103 H 0.72129 0.43408 0.88722 0.0
H104 H 0.75374 0.34765 0.87951 0.0
H105 H 0.80526 0.37089 0.90493 0.0
H106 H 0.69909 0.41035 0.83204 0.0
H107 H 0.69562 0.33369 0.89534 0.0
H108 H 0.618 0.33402 0.82726 0.0
H109 H 0.59089 0.30522 0.88233 0.0
H110 H 0.6858 0.28101 0.87183 0.0
H111 H 0.66453 0.23089 0.89499 0.0
H112 H 0.66244 0.43754 0.81535 0.0
H113 H 0.61601 0.35139 0.77256 0.0
H114 H 0.56948 0.25459 0.90619 0.0
H115 H 0.64271 0.46446 0.77129 0.0
H116 H 0.59415 0.37886 0.72908 0.0
C117 C 0.8927 0.63248 0.25075 0.0
C118 C 0.92615 0.631 0.25034 0.0
C119 C 0.87826 0.64715 0.27709 0.0
C120 C 0.89676 0.66153 0.30381 0.0
C121 C 0.9304 0.66105 0.30273 0.0
C122 C 0.9447 0.64588 0.27676 0.0
C123 C 0.88075 0.67535 0.33332 0.0
C124 C 0.85108 0.65939 0.34714 0.0
C125 C 0.83588 0.67079 0.37517 0.0
C126 C 0.85062 0.69918 0.38904 0.0
C127 C 0.87964 0.71665 0.37565 0.0
C128 C 0.89486 0.704 0.34808 0.0
C129 C 0.89297 0.74809 0.39077 0.0
C130 C 0.87157 0.76653 0.40431 0.0
C131 C 0.92668 0.75977 0.39315 0.0
C132 C 0.93832 0.78815 0.4093 0.0
C133 C 0.91671 0.80582 0.42389 0.0
C134 C 0.80398 0.65377 0.38957 0.0
C135 C 0.77871 0.63981 0.36885 0.0
C136 C 0.79776 0.65258 0.42412 0.0
C137 C 0.76712 0.63869 0.43732 0.0
C138 C 0.74154 0.62586 0.41643 0.0
C139 C 0.74804 0.6263 0.38201 0.0
C140 C 0.88314 0.79452 0.42067 0.0
H141 H 0.87735 0.62134 0.23123 0.0
H142 H 0.85236 0.64708 0.2766 0.0
H143 H 0.94564 0.67157 0.32263 0.0
H144 H 0.97053 0.64563 0.27753 0.0
H145 H 0.8402 0.63742 0.33659 0.0
H146 H 0.91711 0.71684 0.33738 0.0
H147 H 0.83898 0.70791 0.41043 0.0
H148 H 0.84549 0.75942 0.40228 0.0
H149 H 0.9442 0.74661 0.38335 0.0
H150 H 0.96435 0.79584 0.41117 0.0
H151 H 0.7822 0.64028 0.34222 0.0
H152 H 0.81655 0.66267 0.44107 0.0
H153 H 0.86553 0.80752 0.43067 0.0
H154 H 0.72911 0.6165 0.36507 0.0
H155 H 0.76311 0.63901 0.46389 0.0
C156 C 0.72928 0.79589 0.70713 0.0
C157 C 0.73609 0.82784 0.70467 0.0
C158 C 0.71036 0.78209 0.73364 0.0
C159 C 0.69871 0.80008 0.75865 0.0
C160 C 0.70422 0.83203 0.75493 0.0
C161 C 0.72241 0.84568 0.72809 0.0
C162 C 0.68459 0.78633 0.79033 0.0
C163 C 0.6974 0.76272 0.8045 0.0
C164 C 0.68864 0.75283 0.8369 0.0
C165 C 0.66707 0.76782 0.85571 0.0
C166 C 0.6543 0.79181 0.84185 0.0
C167 C 0.662 0.79974 0.80882 0.0
C168 C 0.63734 0.81238 0.86232 0.0
C169 C 0.60769 0.80186 0.87914 0.0
C170 C 0.65027 0.84384 0.86278 0.0
C171 C 0.63378 0.8645 0.87901 0.0
C172 C 0.60384 0.85437 0.89542 0.0
C173 C 0.70574 0.72962 0.85137 0.0
C174 C 0.71395 0.70583 0.83119 0.0
C175 C 0.71799 0.73337 0.88361 0.0
C176 C 0.73978 0.71531 0.89436 0.0
C177 C 0.75001 0.69349 0.87296 0.0
C178 C 0.73622 0.68833 0.84165 0.0
C179 C 0.59091 0.82276 0.89539 0.0
H180 H 0.7396 0.78172 0.68924 0.0
H181 H 0.70606 0.75741 0.73526 0.0
H182 H 0.69642 0.84687 0.7738 0.0
H183 H 0.7278 0.87042 0.72701 0.0
H184 H 0.71629 0.75352 0.79114 0.0
H185 H 0.65173 0.81793 0.79824 0.0
H186 H 0.66138 0.76186 0.8813 0.0
H187 H 0.59715 0.77773 0.87893 0.0
H188 H 0.67309 0.85258 0.84999 0.0
H189 H 0.64425 0.88863 0.87806 0.0
H190 H 0.7044 0.70171 0.80652 0.0
H191 H 0.71249 0.7515 0.8998 0.0
H192 H 0.56794 0.81424 0.90797 0.0
H193 H 0.74353 0.67143 0.82485 0.0
H194 H 0.75021 0.71972 0.91863 0.0
C195 C 0.72178 0.13452 0.34313 0.0
C196 C 0.71665 0.15161 0.31582 0.0
C197 C 0.73758 0.14937 0.37042 0.0
C198 C 0.74774 0.18132 0.37046 0.0
C199 C 0.74321 0.1981 0.34266 0.0
C200 C 0.72784 0.18323 0.31533 0.0
C201 C 0.76045 0.19736 0.40056 0.0
C202 C 0.78488 0.18717 0.41757 0.0
C203 C 0.79309 0.19889 0.44916 0.0
C204 C 0.77859 0.22201 0.46283 0.0
C205 C 0.75359 0.23165 0.44637 0.0
C206 C 0.7449 0.21991 0.41483 0.0
C207 C 0.734 0.25073 0.46434 0.0
C208 C 0.72225 0.24278 0.49651 0.0
C209 C 0.72757 0.27711 0.44988 0.0
C210 C 0.71029 0.29592 0.46779 0.0
C211 C 0.6992 0.28842 0.50023 0.0
C212 C 0.80988 0.18204 0.47113 0.0
C213 C 0.79792 0.15079 0.47481 0.0
C214 C 0.8353 0.19711 0.49067 0.0
C215 C 0.85061 0.18028 0.51176 0.0
C216 C 0.84045 0.14845 0.51307 0.0
C217 C 0.81299 0.13411 0.49581 0.0
C218 C 0.70477 0.26156 0.51439 0.0
H219 H 0.71276 0.11008 0.34367 0.0
H220 H 0.74054 0.13617 0.39199 0.0
H221 H 0.75083 0.22272 0.34245 0.0
H222 H 0.72349 0.19652 0.29428 0.0
H223 H 0.79577 0.16858 0.40735 0.0
H224 H 0.72448 0.2265 0.40265 0.0
H225 H 0.78445 0.23032 0.48778 0.0
H226 H 0.72658 0.22204 0.50774 0.0
H227 H 0.73634 0.28336 0.42505 0.0
H228 H 0.70532 0.31626 0.45619 0.0
H229 H 0.77737 0.13911 0.46082 0.0
H230 H 0.844 0.22151 0.48864 0.0
H231 H 0.69584 0.25531 0.53916 0.0
H232 H 0.80501 0.10951 0.49593 0.0
H233 H 0.87194 0.19158 0.52484 0.0
C234 C 0.23886 0.64895 0.19043 0.0
C235 C 0.23586 0.64799 0.15562 0.0
C236 C 0.26886 0.6607 0.2056 0.0
C237 C 0.29693 0.6725 0.18658 0.0
C238 C 0.29405 0.67106 0.15178 0.0
C239 C 0.26425 0.65883 0.13662 0.0
C240 C 0.32839 0.68828 0.20251 0.0
C241 C 0.34245 0.67547 0.22927 0.0
C242 C 0.37208 0.69043 0.2441 0.0
C243 C 0.38721 0.71918 0.23024 0.0
C244 C 0.37387 0.73271 0.20324 0.0
C245 C 0.34418 0.71682 0.19046 0.0
C246 C 0.39034 0.7633 0.188 0.0
C247 C 0.41195 0.78568 0.20593 0.0
C248 C 0.38441 0.77075 0.15496 0.0
C249 C 0.3988 0.79901 0.1409 0.0
C250 C 0.42065 0.82088 0.15872 0.0
C251 C 0.38705 0.67617 0.27362 0.0
C252 C 0.36958 0.65102 0.29178 0.0
C253 C 0.41918 0.68745 0.28457 0.0
C254 C 0.43245 0.67509 0.31208 0.0
C255 C 0.41487 0.65018 0.32995 0.0
C256 C 0.38325 0.63821 0.31883 0.0
C257 C 0.42705 0.81362 0.19146 0.0
H258 H 0.21786 0.64061 0.20613 0.0
H259 H 0.26978 0.66148 0.23235 0.0
H260 H 0.31497 0.67971 0.1361 0.0
H261 H 0.26327 0.65878 0.10989 0.0
H262 H 0.33027 0.65335 0.2377 0.0
H263 H 0.33236 0.727 0.17126 0.0
H264 H 0.40963 0.73132 0.24028 0.0
H265 H 0.41725 0.78196 0.23139 0.0
H266 H 0.36911 0.75453 0.13919 0.0
H267 H 0.39367 0.80328 0.11547 0.0
H268 H 0.34482 0.64108 0.28583 0.0
H269 H 0.43483 0.70592 0.27202 0.0
H270 H 0.44375 0.82976 0.20612 0.0
H271 H 0.36847 0.61929 0.33174 0.0
H272 H 0.45701 0.68502 0.31914 0.0
C273 C 0.13604 0.26745 0.64948 0.0
C274 C 0.10243 0.25599 0.65267 0.0
C275 C 0.15006 0.29603 0.6633 0.0
C276 C 0.13103 0.31481 0.68045 0.0
C277 C 0.09731 0.3033 0.68366 0.0
C278 C 0.08333 0.27442 0.67016 0.0
C279 C 0.14663 0.34617 0.69415 0.0
C280 C 0.174 0.363 0.67761 0.0
C281 C 0.19234 0.39029 0.69083 0.0
C282 C 0.17993 0.40289 0.72 0.0
C283 C 0.15093 0.38799 0.7367 0.0
C284 C 0.13529 0.35908 0.72361 0.0
C285 C 0.1373 0.40214 0.76788 0.0
C286 C 0.15703 0.42402 0.7883 0.0
C287 C 0.10404 0.39415 0.77773 0.0
C288 C 0.09145 0.40681 0.80655 0.0
C289 C 0.1112 0.42874 0.82644 0.0
C290 C 0.22489 0.40415 0.67427 0.0
C291 C 0.24256 0.38529 0.65561 0.0
C292 C 0.23909 0.43557 0.67666 0.0
C293 C 0.26963 0.44726 0.66123 0.0
C294 C 0.28697 0.42806 0.64255 0.0
C295 C 0.27217 0.397 0.63957 0.0
C296 C 0.14416 0.43728 0.81663 0.0
H297 H 0.15183 0.25395 0.63689 0.0
H298 H 0.17619 0.30313 0.66082 0.0
H299 H 0.08148 0.31678 0.69616 0.0
H300 H 0.0573 0.26669 0.67304 0.0
H301 H 0.18105 0.35455 0.65379 0.0
H302 H 0.11471 0.34602 0.7368 0.0
H303 H 0.19304 0.4243 0.72966 0.0
H304 H 0.18277 0.43086 0.78296 0.0
H305 H 0.08719 0.37831 0.76299 0.0
H306 H 0.06587 0.39982 0.81295 0.0
H307 H 0.23402 0.36089 0.65348 0.0
H308 H 0.2267 0.45132 0.69033 0.0
H309 H 0.16028 0.45392 0.83132 0.0
H310 H 0.2834 0.38115 0.62472 0.0
H311 H 0.2798 0.4713 0.66446 0.0
Ho312 Ho 0.03493 0.04381 0.49404 0.0
Ho313 Ho 1.00199 1.02415 0.56098 0.0
C314 C 0.04263 0.09333 0.55663 0.0
C315 C 0.05891 0.07024 0.44088 0.0
C316 C 0.08926 0.09271 0.43666 0.0
C317 C 0.09372 0.121 0.45365 0.0
C318 C 0.12407 0.14028 0.45324 0.0
C319 C 0.15051 0.13167 0.4358 0.0
C320 C 0.14596 0.10348 0.41862 0.0
C321 C 0.1156 0.08422 0.41899 0.0
C322 C 0.07142 1.01979 0.53518 0.0
C323 C 0.99378 0.97492 0.49779 0.0
C324 C 0.97808 0.99938 0.61547 0.0
C325 C 0.95169 0.97343 0.62329 0.0
C326 C 0.95432 0.94314 0.61496 0.0
C327 C 0.92823 0.91919 0.62114 0.0
C328 C 0.89902 0.92516 0.63545 0.0
C329 C 0.89653 0.95544 0.64387 0.0
C330 C 0.92264 0.97928 0.63799 0.0
C331 C 0.96882 0.05221 0.52049 0.0
O332 O 0.04395 0.08863 0.52402 0.0
O333 O 0.03113 0.07043 0.57687 0.0
O334 O 0.06322 0.04298 0.44884 0.0
O335 O 0.03525 0.07914 0.45808 0.0
O336 O 0.07352 1.01701 0.50344 0.0
O337 O 0.05195 0.03674 0.5436 0.0
O338 O 0.99091 0.97922 0.5304 0.0
O339 O 1.00611 0.99798 0.47819 0.0
O340 O 0.96859 1.02286 0.6026 0.0
O341 O 1.00466 0.99327 0.60117 0.0
O342 O 0.96786 0.05532 0.55231 0.0
O343 O 0.98478 0.03234 0.51138 0.0
H344 H 0.07397 0.12807 0.46778 0.0
H345 H 0.12689 0.16189 0.46668 0.0
H346 H 0.16571 0.09654 0.40434 0.0
H347 H 0.11285 0.06239 0.40599 0.0
H348 H 0.97635 0.93791 0.60343 0.0
H349 H 0.93076 0.89605 0.61441 0.0
H350 H 0.87455 0.96067 0.65552 0.0
H351 H 0.92 1.0024 0.64472 0.0
Ho352 Ho 0.53938 0.03249 0.05367 0.0
Ho353 Ho 0.48908 1.03015 1.01384 0.0
C354 C 0.48593 0.07134 0.07822 0.0
C355 C 0.58517 0.04353 0.09519 0.0
C356 C 0.58696 0.06403 0.12395 0.0
C357 C 0.59267 0.09592 0.12041 0.0
C358 C 0.5937 0.1148 0.14834 0.0
C359 C 0.58886 0.10186 0.1798 0.0
C360 C 0.5796 0.0702 0.18298 0.0
C361 C 0.57937 0.05136 0.15529 0.0
C362 C 0.49709 0.97799 0.06203 0.0
C363 C 0.54383 0.99526 0.98884 0.0
C364 C 0.43517 1.02019 0.98333 0.0
C365 C 0.42838 1.00305 0.95265 0.0
C366 C 0.44008 0.97563 0.94715 0.0
C367 C 0.43725 0.96132 0.91627 0.0
C368 C 0.42307 0.97452 0.89065 0.0
C369 C 0.41152 1.00197 0.89625 0.0
C370 C 0.41419 1.01616 0.92712 0.0
C371 C 0.53854 0.07687 0.99418 0.0
O372 O 0.51413 0.06411 0.08508 0.0
O373 O 0.47064 0.06026 0.05152 0.0
O374 O 0.56146 1.02015 0.09732 0.0
O375 O 0.58785 0.05595 0.06596 0.0
O376 O 0.52806 0.98093 0.05679 0.0
O377 O 0.4895 1.00428 0.06032 0.0
O378 O 0.51202 0.99258 0.99059 0.0
O379 O 0.56152 1.01632 1.00727 0.0
O380 O 0.45629 0.0455 0.98032 0.0
O381 O 0.44061 1.00415 1.00848 0.0
O382 O 0.52343 0.05562 0.97477 0.0
O383 O 0.52827 0.07061 1.02354 0.0
H384 H 0.59755 0.10628 0.09637 0.0
H385 H 0.60147 0.13926 0.14571 0.0
H386 H 0.57648 0.05987 0.20718 0.0
H387 H 0.57412 1.0268 0.15853 0.0
H388 H 0.45179 0.96543 0.96649 0.0
H389 H 0.44598 0.94003 0.9124 0.0
H390 H 0.39968 1.01211 0.87695 0.0
H391 H 0.40567 0.03756 0.93093 0.0
Ho392 Ho 0.51296 0.50353 0.51206 0.0
Ho393 Ho 0.51885 0.55904 0.55155 0.0
C394 C 0.544 0.50067 0.58481 0.0
C395 C 0.5294 0.46353 0.47213 0.0
C396 C 0.5573 0.44885 0.47592 0.0
C397 C 0.58259 0.4631 0.49629 0.0
C398 C 0.60515 0.44665 0.50763 0.0
C399 C 0.60264 0.41577 0.49871 0.0
C400 C 0.57815 0.40192 0.47709 0.0
C401 C 0.55544 0.41838 0.46589 0.0
C402 C 0.4534 0.49974 0.54282 0.0
C403 C 0.48481 0.55955 0.4802 0.0
C404 C 0.51198 0.60222 0.59226 0.0
C405 C 0.4859 0.61939 0.58835 0.0
C406 C 0.45781 0.60464 0.57222 0.0
C407 C 0.4349 0.62103 0.56205 0.0
C408 C 0.43951 0.65254 0.56807 0.0
C409 C 0.46747 0.6675 0.58449 0.0
C410 C 0.49076 0.65093 0.59445 0.0
C411 C 0.56967 0.55981 0.5084 0.0
O412 O 0.53555 0.48601 0.55662 0.0
O413 O 0.54049 0.52969 0.58864 0.0
O414 O 0.50752 0.45661 0.49574 0.0
O415 O 0.53615 0.49286 0.46603 0.0
O416 O 0.46162 0.47945 0.52274 0.0
O417 O 0.47748 0.5215 0.54598 0.0
O418 O 0.48692 0.57197 0.51042 0.0
O419 O 0.49632 0.53417 0.47432 0.0
O420 O 0.53359 0.606 0.56819 0.0
O421 O 0.50213 0.57344 0.59936 0.0
O422 O 0.55439 0.58221 0.51354 0.0
O423 O 0.55684 0.53749 0.52644 0.0
H424 H 0.58385 0.48647 0.50497 0.0
H425 H 0.62376 0.45773 0.52431 0.0
H426 H 0.57626 0.37822 0.46932 0.0
H427 H 0.53561 0.40699 0.45079 0.0
H428 H 0.45413 0.58045 0.56631 0.0
H429 H 0.41375 0.60912 0.54912 0.0
H430 H 0.47119 0.69185 0.58971 0.0
H431 H 0.51275 0.66273 0.60604 0.0
Ho432 Ho 0.02289 0.50312 0.0493 0.0
Ho433 Ho 1.0069 0.56437 1.01489 0.0
C434 C 0.07468 0.56859 0.05531 0.0
C435 C 0.05189 0.45792 0.06043 0.0
C436 C 0.08226 0.45388 0.07679 0.0
C437 C 0.10725 0.44482 0.05741 0.0
C438 C 0.13618 0.44062 0.07165 0.0
C439 C 0.14111 0.44533 0.10582 0.0
C440 C 0.11608 0.45455 0.12534 0.0
C441 C 0.08699 0.45882 0.11098 0.0
C442 C 0.99456 0.53964 0.09377 0.0
C443 C 0.95523 0.4983 1.00868 0.0
C444 C 0.97853 0.60987 1.00272 0.0
C445 C 0.94832 0.61402 0.98619 0.0
C446 C 0.92252 0.62142 1.00566 0.0
C447 C 0.89375 0.62574 0.99123 0.0
C448 C 0.88986 0.62287 0.95677 0.0
C449 C 0.91569 0.61537 0.93714 0.0
C450 C 0.94462 0.61095 0.95169 0.0
C451 C 0.03681 0.52986 0.97015 0.0
O452 O 0.06891 0.53826 0.05709 0.0
O453 O 0.05372 0.58417 0.04225 0.0
O454 O 0.02767 0.46413 0.07899 0.0
O455 O 0.05602 0.47364 0.03316 0.0
O456 O 1.00365 0.51426 0.10126 0.0
O457 O 1.00146 0.54297 0.06318 0.0
O458 O 0.96152 0.52851 1.00486 0.0
O459 O 0.97535 0.48318 1.02381 0.0
O460 O 1.00266 0.60316 0.98446 0.0
O461 O 0.97416 0.59436 1.03002 0.0
O462 O 0.02905 0.5562 0.96445 0.0
O463 O 0.02843 0.52427 1.00025 0.0
H464 H 0.1043 0.44071 1.03106 0.0
H465 H 0.15438 0.43287 0.05581 0.0
H466 H 0.119 0.45862 0.15169 0.0
H467 H 0.06827 0.46594 0.12666 0.0
H468 H 0.92467 0.62413 0.03226 0.0
H469 H 0.87482 0.63211 1.00717 0.0
H470 H 0.91353 0.61278 0.91056 0.0
H471 H 0.96401 0.60519 0.93593 0.0
H472 H 0.28876 0.19771 0.39029 0.0
H473 H 0.23424 0.26879 0.37236 0.0
H474 H 0.18743 0.24086 0.40298 0.0
H475 H 0.1591 0.19203 0.42396 0.0
H476 H 0.21212 0.11934 0.43984 0.0
H477 H 0.2627 0.15223 0.42145 0.0
C478 C 0.26706 0.20752 0.39434 0.0
C479 C 0.26458 0.23492 0.37895 0.0
C480 C 0.23984 0.19078 0.41096 0.0
C481 C 0.23639 0.24754 0.38398 0.0
C482 C 0.2096 0.2315 0.40122 0.0
C483 C 0.18188 0.1837 0.42449 0.0
C484 C 0.18186 0.15318 0.4325 0.0
C485 C 0.21052 0.2024 0.4132 0.0
C486 C 0.21152 0.14262 0.43293 0.0
C487 C 0.2404 0.16139 0.42248 0.0
H488 H 0.34178 0.90451 0.78072 0.0
H489 H 0.37789 0.9884 0.72953 0.0
H490 H 0.41685 1.00492 0.77373 0.0
H491 H 0.43472 0.99775 0.8298 0.0
H492 H 0.39473 0.91523 0.88203 0.0
H493 H 0.36445 0.89465 0.83336 0.0
C494 C 0.35808 0.92651 0.77949 0.0
C495 C 0.35652 0.94593 0.75305 0.0
C496 C 0.38011 0.93549 0.80451 0.0
C497 C 0.37841 0.97374 0.75049 0.0
C498 C 0.40072 0.98291 0.77541 0.0
C499 C 0.42002 0.97493 0.82999 0.0
C500 C 0.41606 0.95822 0.85925 0.0
C501 C 0.40112 0.96425 0.80287 0.0
C502 C 0.39787 0.92842 0.85956 0.0
C503 C 0.38012 0.91693 0.83205 0.0
H504 H 0.5989 0.40783 0.67982 0.0
H505 H 0.60088 0.48278 0.74969 0.0
H506 H 0.58089 0.51263 0.70779 0.0
H507 H 0.5615 0.51846 0.65049 0.0
H508 H 0.55826 0.44291 0.58132 0.0
H509 H 0.57907 0.41333 0.62307 0.0
C510 C 0.59483 0.43057 0.68629 0.0
C511 C 0.60231 0.44248 0.71878 0.0
C512 C 0.58265 0.44809 0.66166 0.0
C513 C 0.59661 0.47247 0.72537 0.0
C514 C 0.58469 0.48982 0.70116 0.0
C515 C 0.56537 0.49557 0.64437 0.0
C516 C 0.55792 0.48345 0.612 0.0
C517 C 0.57758 0.47806 0.66905 0.0
C518 C 0.56338 0.45343 0.60547 0.0
C519 C 0.57545 0.43621 0.62961 0.0
H520 H 0.91843 0.62779 0.18154 0.0
H521 H 0.9682 0.59162 0.25939 0.0
H522 H 0.99331 0.56132 0.21885 0.0
H523 H 1.00175 0.5444 0.16099 0.0
H524 H 0.95129 0.57884 0.08302 0.0
H525 H 0.92701 0.61053 0.12299 0.0
C526 C 0.93477 0.61331 0.18971 0.0
C527 C 0.94137 0.61256 0.22402 0.0
C528 C 0.9497 0.59578 0.16584 0.0
C529 C 0.96283 0.59343 0.23352 0.0
C530 C 0.97722 0.57583 0.21018 0.0
C531 C 0.98566 0.55904 0.15258 0.0
C532 C 0.97976 0.55996 0.11822 0.0
C533 C 0.97102 0.57681 0.17622 0.0
C534 C 0.95816 0.57877 0.10847 0.0
C535 C 0.94357 0.59652 0.13174 0.0
H536 H 0.40514 0.16529 0.14018 0.0
H537 H 0.50008 0.20955 0.17245 0.0
H538 H 0.52385 0.16718 0.14914 0.0
H539 H 0.51783 0.11831 0.11698 0.0
H540 H 0.4225 0.07594 0.08372 0.0
H541 H 0.39887 0.11669 0.10996 0.0
C542 C 0.43111 0.16592 0.14183 0.0
C543 C 0.45078 0.19081 0.15774 0.0
C544 C 0.44458 0.14163 0.12828 0.0
C545 C 0.48429 0.19069 0.1604 0.0
C546 C 0.49792 0.16647 0.147 0.0
C547 C 0.49183 0.1178 0.11601 0.0
C548 C 0.47195 0.09408 0.09842 0.0
C549 C 0.47833 0.14183 0.13068 0.0
C550 C 0.43836 0.09394 0.09702 0.0
C551 C 0.42479 0.11731 0.11193 0.0
H552 H 0.10712 0.89949 0.57124 0.0
H553 H 0.20323 0.95321 0.55595 0.0
H554 H 0.18026 0.99946 0.55125 0.0
H555 H 0.13263 1.02368 0.54994 0.0
H556 H 0.0371 0.96882 0.56195 0.0
H557 H 0.06009 0.92423 0.57351 0.0
C558 C 0.12285 0.92137 0.56665 0.0
C559 C 0.15641 0.92327 0.56361 0.0
C560 C 0.10982 0.9477 0.56561 0.0
C561 C 0.17703 0.9514 0.55751 0.0
C562 C 0.16411 0.97783 0.55569 0.0
C563 C 0.11717 1.00216 0.55663 0.0
C564 C 0.0835 0.99934 0.55634 0.0
C565 C 0.13058 0.97619 0.56005 0.0
C566 C 0.06309 0.97165 0.56395 0.0
C567 C 0.07625 0.94589 0.56924 0.0
H568 H 0.80797 0.4389 0.97497 0.0
H569 H 0.85249 0.42478 0.88012 0.0
H570 H 0.90604 0.44797 0.9012 0.0
H571 H 0.94091 0.47338 0.94665 0.0
H572 H 0.89703 0.48556 0.04223 0.0
H573 H 0.84338 0.46199 1.02136 0.0
C574 C 0.82941 0.44094 0.95894 0.0
C575 C 0.82591 0.43021 0.92574 0.0
C576 C 0.86059 0.45387 0.97158 0.0
C577 C 0.85423 0.43281 0.90561 0.0
C578 C 0.88499 0.44611 0.91773 0.0
C579 C 0.91963 0.47055 0.96298 0.0
C580 C 0.92321 0.48112 0.99618 0.0
C581 C 0.88861 0.4568 0.95067 0.0
C582 C 0.89519 0.47748 1.01677 0.0
C583 C 0.86437 0.46408 1.00472 0.0
H584 H 0.72101 0.58687 0.46895 0.0
H585 H 0.68499 0.63916 0.39427 0.0
H586 H 0.62944 0.62233 0.41497 0.0
H587 H 0.59063 0.59422 0.45522 0.0
H588 H 0.62454 0.53926 0.52835 0.0
H589 H 0.68083 0.55539 0.50755 0.0
C590 C 0.70099 0.59452 0.4572 0.0
C591 C 0.70752 0.61436 0.42985 0.0
C592 C 0.66851 0.58415 0.46897 0.0
C593 C 0.68099 0.62376 0.41498 0.0
C594 C 0.64907 0.61419 0.42692 0.0
C595 C 0.6103 0.58536 0.46629 0.0
C596 C 0.60324 0.56536 0.49319 0.0
C597 C 0.64248 0.59449 0.4539 0.0
C598 C 0.62909 0.55426 0.50732 0.0
C599 C 0.66138 0.56375 0.49555 0.0
H600 H 0.27572 0.4079 0.13706 0.0
H601 H 0.22088 0.37128 0.22358 0.0
H602 H 0.1751 0.39441 0.20767 0.0
H603 H 0.14809 0.4193 0.16554 0.0
H604 H 0.20338 0.45745 0.07977 0.0
H605 H 0.25125 0.43957 0.09908 0.0
C606 C 0.25401 0.40551 0.15275 0.0
C607 C 0.25148 0.38722 0.181 0.0
C608 C 0.22752 0.41872 0.14331 0.0
C609 C 0.22316 0.38453 0.20117 0.0
C610 C 0.19694 0.39781 0.19215 0.0
C611 C 0.17075 0.42439 0.15137 0.0
C612 C 0.17163 0.43905 0.1207 0.0
C613 C 0.1984 0.41406 0.16265 0.0
C614 C 0.20148 0.44534 0.1029 0.0
C615 C 0.22904 0.43526 0.11402 0.0
H616 H 0.57742 0.21995 0.95995 0.0
H617 H 0.62451 0.18333 0.87638 0.0
H618 H 0.60582 0.13147 0.8964 0.0
H619 H 0.57517 0.09528 0.93743 0.0
H620 H 0.53202 0.13172 1.02357 0.0
H621 H 0.54965 0.18375 1.00305 0.0
C622 C 0.58348 0.20065 0.94598 0.0
C623 C 0.60237 0.20615 0.91621 0.0
C624 C 0.57323 0.17033 0.95827 0.0
C625 C 0.61017 0.18037 0.89916 0.0
C626 C 0.59938 0.15043 0.91067 0.0
C627 C 0.56978 0.11459 0.95187 0.0
C628 C 0.55203 0.10906 0.98221 0.0
C629 C 0.58082 0.14494 0.94018 0.0
C630 C 0.54567 0.1348 1.00037 0.0
C631 C 0.5557 0.16479 0.98847 0.0
H632 H 0.96786 0.85299 0.40859 0.0
H633 H 0.89225 0.82628 0.48233 0.0
H634 H 0.90941 0.87459 0.51238 0.0
H635 H 0.94556 0.92591 0.51759 0.0
H636 H 0.01914 0.95298 0.44186 0.0
H637 H 1.00358 0.90371 0.41365 0.0
C638 C 0.95524 0.85753 0.43137 0.0
C639 C 0.92857 0.83555 0.44281 0.0
C640 C 0.96497 0.88588 0.4485 0.0
C641 C 0.91254 0.84253 0.47238 0.0
C642 C 0.92248 0.8703 0.48981 0.0
C643 C 0.95825 0.921 0.49497 0.0
C644 C 0.98355 0.94364 0.48197 0.0
C645 C 0.94857 0.8924 0.47807 0.0
C646 C 0.99942 0.9365 0.45247 0.0
C647 C 0.99055 0.9081 0.43621 0.0
H648 H 0.32011 0.71511 0.56605 0.0
H649 H 0.39155 0.78907 0.52632 0.0
H650 H 0.4308 0.75474 0.52014 0.0
H651 H 0.44712 0.7068 0.53681 0.0
H652 H 0.37485 0.63509 0.57923 0.0
H653 H 0.33293 0.66546 0.57238 0.0
C654 C 0.34364 0.72368 0.55454 0.0
C655 C 0.35321 0.7548 0.54749 0.0
C656 C 0.36605 0.70429 0.55204 0.0
C657 C 0.38401 0.76529 0.53285 0.0
C658 C 0.40643 0.74575 0.52942 0.0
C659 C 0.42208 0.69784 0.54411 0.0
C660 C 0.41401 0.66922 0.55911 0.0
C661 C 0.39822 0.71573 0.54088 0.0
C662 C 0.38151 0.65722 0.56775 0.0
C663 C 0.35758 0.67456 0.56395 0.0
H664 H 0.79766 0.81847 0.69765 0.0
H665 H 0.73103 0.87246 0.66092 0.0
H666 H 0.776 0.90556 0.63208 0.0
H667 H 0.83491 0.92301 0.62408 0.0
H668 H 0.90173 0.871 0.66452 0.0
H669 H 0.85609 0.83289 0.68473 0.0
C670 C 0.79294 0.83692 0.68247 0.0
C671 C 0.76126 0.84313 0.68125 0.0
C672 C 0.81901 0.85643 0.66711 0.0
C673 C 0.75534 0.86739 0.66208 0.0
C674 C 0.78103 0.88636 0.64583 0.0
C675 C 0.83941 0.90316 0.63705 0.0
C676 C 0.87156 0.89997 0.64318 0.0
C677 C 0.81308 0.88178 0.64928 0.0
C678 C 0.87717 0.87389 0.65942 0.0
C679 C 0.8511 0.85221 0.67116 0.0
H680 H 0.65183 0.14014 0.31564 0.0
H681 H 0.73765 0.13458 0.25624 0.0
H682 H 0.70454 0.12315 0.2069 0.0
H683 H 0.65211 0.11668 0.18119 0.0
H684 H 0.56499 0.11808 0.23996 0.0
H685 H 0.59791 0.13108 0.28965 0.0
C686 C 0.66288 0.1357 0.29189 0.0
C687 C 0.69664 0.13774 0.28891 0.0
C688 C 0.64385 0.12996 0.26385 0.0
C689 C 0.71146 0.13258 0.2585 0.0
C690 C 0.69271 0.12659 0.23048 0.0
C691 C 0.64052 0.12087 0.20476 0.0
C692 C 0.60666 0.11776 0.20726 0.0
C693 C 0.65913 0.12603 0.23286 0.0
C694 C 0.5913 0.1216 0.23781 0.0
C695 C 0.60998 0.12832 0.26605 0.0
H696 H 0.41286 0.58969 0.34911 0.0
H697 H 0.44969 0.68245 0.38055 0.0
H698 H 0.47264 0.66391 0.4296 0.0
H699 H 0.48332 0.62084 0.46458 0.0
H700 H 0.44981 0.5283 0.43033 0.0
H701 H 0.42493 0.54701 0.38276 0.0
C702 C 0.42575 0.60598 0.36669 0.0
C703 C 0.42912 0.63777 0.36045 0.0
C704 C 0.43973 0.59502 0.39503 0.0
C705 C 0.44657 0.658 0.3839 0.0
C706 C 0.45973 0.64731 0.41234 0.0
C707 C 0.47034 0.60471 0.44692 0.0
C708 C 0.46844 0.57284 0.45189 0.0
C709 C 0.45659 0.61581 0.41838 0.0
C710 C 0.45188 0.55277 0.42781 0.0
C711 C 0.43751 0.56354 0.40029 0.0
H712 H 0.10817 0.48895 0.83989 0.0
H713 H 0.08283 0.39971 0.8824 0.0
H714 H 0.05989 0.4218 0.93186 0.0
H715 H 0.04447 0.46735 0.96287 0.0
H716 H 0.06871 0.55553 0.91675 0.0
H717 H 0.09357 0.53327 0.86995 0.0
C718 C 0.09777 0.4743 0.86002 0.0
C719 C 0.09743 0.44258 0.85711 0.0
C720 C 0.08392 0.48715 0.88824 0.0
C721 C 0.08339 0.42413 0.8836 0.0
C722 C 0.07024 0.43686 0.91207 0.0
C723 C 0.05568 0.48175 0.9429 0.0
C724 C 0.05469 0.51353 0.9442 0.0
C725 C 0.07002 0.46848 0.91479 0.0
C726 C 0.06895 0.53124 0.91721 0.0
C727 C 0.08332 0.51848 0.89002 0.0
H728 H 0.63029 0.90255 0.93403 0.0
H729 H 0.53881 0.85781 0.89389 0.0
H730 H 0.51204 0.89802 0.91805 0.0
H731 H 0.51509 0.94654 0.95036 0.0
H732 H 0.60783 0.99096 0.98861 0.0
H733 H 0.6336 0.95058 0.96488 0.0
C734 C 0.6045 0.90162 0.9304 0.0
C735 C 0.58664 0.87722 0.9121 0.0
C736 C 0.58951 0.92498 0.9438 0.0
C737 C 0.55309 0.87612 0.90819 0.0
C738 C 0.53785 0.89928 0.92175 0.0
C739 C 0.541 0.94752 0.95319 0.0
C740 C 0.55946 0.97198 0.97116 0.0
C741 C 0.55588 0.92397 0.93947 0.0
C742 C 0.59297 0.9727 0.97473 0.0
C743 C 0.60779 0.94947 0.96132 0.0
H744 H 0.90262 0.15587 0.49366 0.0
H745 H 0.82786 0.09705 0.54993 0.0
H746 H 0.85828 0.05531 0.54399 0.0
H747 H 0.90571 0.03642 0.52329 0.0
H748 H 0.98477 0.0981 0.4771 0.0
H749 H 0.9513 0.13739 0.47469 0.0
C750 C 0.89355 0.1343 0.5057 0.0
C751 C 0.86321 0.12921 0.52219 0.0
C752 C 0.91064 0.11058 0.50161 0.0
C753 C 0.85144 0.10118 0.5374 0.0
C754 C 0.86826 0.07725 0.53321 0.0
C755 C 0.91482 0.05809 0.51137 0.0
C756 C 0.94711 0.06478 0.50034 0.0
C757 C 0.8974 0.0816 0.5147 0.0
C758 C 0.95951 0.09252 0.48498 0.0
C759 C 0.94089 0.11532 0.48495 0.0
H760 H 0.22184 0.61159 0.09925 0.0
H761 H 0.1755 0.65925 0.17499 0.0
H762 H 0.12264 0.6417 0.14971 0.0
H763 H 0.08828 0.61101 0.1067 0.0
H764 H 0.13445 0.5609 0.03331 0.0
H765 H 0.18783 0.58131 0.05638 0.0
C766 C 0.20027 0.61836 0.1102 0.0
C767 C 0.2032 0.63681 0.13939 0.0
C768 C 0.16947 0.60775 0.09562 0.0
C769 C 0.17445 0.64482 0.15301 0.0
C770 C 0.144 0.63489 0.13834 0.0
C771 C 0.11011 0.60506 0.09539 0.0
C772 C 0.10718 0.58484 0.06767 0.0
C773 C 0.14102 0.61617 0.10969 0.0
C774 C 0.13583 0.57671 0.05419 0.0
C775 C 0.16647 0.58828 0.06758 0.0
H776 H 0.3155 0.48616 0.61865 0.0
H777 H 0.33634 0.39556 0.63203 0.0
H778 H 0.3875 0.40963 0.60233 0.0
H779 H 0.42672 0.44651 0.57103 0.0
H780 H 0.41099 0.5387 0.56128 0.0
H781 H 0.35865 0.52554 0.59172 0.0
C782 C 0.33126 0.4695 0.61552 0.0
C783 C 0.32051 0.43917 0.62685 0.0
C784 C 0.36214 0.47814 0.59915 0.0
C785 C 0.34223 0.41848 0.62247 0.0
C786 C 0.37213 0.42663 0.60573 0.0
C787 C 0.41198 0.46387 0.57578 0.0
C788 C 0.42299 0.49363 0.56394 0.0
C789 C 0.38219 0.45616 0.59358 0.0
C790 C 0.40356 0.51579 0.57054 0.0
C791 C 0.37338 0.5081 0.58773 0.0
H792 H 0.75306 0.65538 0.92419 0.0
H793 H 0.80858 0.69873 0.84135 0.0
H794 H 0.85641 0.67881 0.85819 0.0
H795 H 0.88364 0.65278 0.89932 0.0
H796 H 0.82713 0.60679 0.98047 0.0
H797 H 0.77862 0.6237 0.96134 0.0
C798 C 0.7756 0.66014 0.90976 0.0
C799 C 0.77753 0.67867 0.88182 0.0
C800 C 0.80289 0.64829 0.91939 0.0
C801 C 0.80665 0.68449 0.86299 0.0
C802 C 0.83399 0.67318 0.87266 0.0
C803 C 0.86062 0.64589 0.91248 0.0
C804 C 0.85942 0.62914 0.94184 0.0
C805 C 0.83259 0.65551 0.90119 0.0
C806 C 0.82916 0.62047 0.95842 0.0
C807 C 0.80128 0.63003 0.94742 0.0
H808 H 0.39629 0.8653 0.12423 0.0
H809 H 0.48612 0.84208 0.15631 0.0
H810 H 0.51699 0.88719 0.12908 0.0
H811 H 0.51926 0.93334 0.09558 0.0
H812 H 0.43013 0.95995 0.06682 0.0
H813 H 0.39858 0.91404 0.09302 0.0
C814 C 0.42263 0.87015 0.12531 0.0
C815 C 0.43869 0.84986 0.14251 0.0
C816 C 0.44051 0.89696 0.11002 0.0
C817 C 0.47289 0.85702 0.14367 0.0
C818 C 0.49067 0.88291 0.1279 0.0
C819 C 0.4929 0.9292 0.09498 0.0
C820 C 0.47727 0.9503 0.07881 0.0
C821 C 0.47486 0.90306 0.11092 0.0
C822 C 0.443 0.94438 0.07889 0.0
C823 C 0.4249 0.91796 0.09392 0.0
H824 H 0.11543 0.22898 0.59267 0.0
H825 H 0.056 0.21174 0.68141 0.0
H826 H 0.03286 0.16062 0.66047 0.0
H827 H 0.0295 0.11982 0.61695 0.0
H828 H 0.08754 0.13806 0.52747 0.0
H829 H 0.11095 0.18893 0.54858 0.0
C830 C 0.09749 0.21406 0.60756 0.0
C831 C 0.08768 0.22467 0.63883 0.0
C832 C 0.08388 0.18446 0.59514 0.0
C833 C 0.06397 0.20474 0.65724 0.0
C834 C 0.05077 0.17524 0.64529 0.0
C835 C 0.04731 0.13488 0.60207 0.0
C836 C 0.05658 0.12468 0.57046 0.0
C837 C 0.06053 0.1647 0.61429 0.0
C838 C 0.07956 0.14497 0.55165 0.0
C839 C 0.09314 0.17424 0.56382 0.0
H840 H 0.71771 0.34812 0.51217 0.0
H841 H 0.63804 0.27261 0.52607 0.0
H842 H 0.60028 0.30811 0.53472 0.0
H843 H 0.5889 0.35903 0.52382 0.0
H844 H 0.6683 0.43319 0.50173 0.0
H845 H 0.70747 0.40015 0.51122 0.0
C846 C 0.69224 0.33971 0.51834 0.0
C847 C 0.68016 0.30825 0.51781 0.0
C848 C 0.67067 0.36001 0.52095 0.0
C849 C 0.64749 0.29698 0.52623 0.0
C850 C 0.62594 0.31721 0.53068 0.0
C851 C 0.61482 0.36796 0.52165 0.0
C852 C 0.62589 0.39802 0.51122 0.0
C853 C 0.637 0.34854 0.5257 0.0
C854 C 0.65938 0.40992 0.50945 0.0
C855 C 0.68173 0.39105 0.51473 0.0
loop_
_geom_bond_atom_site_label_1
_geom_bond_atom_site_label_2
_geom_bond_distance
_geom_bond_site_symmetry_2
_ccdc_geom_bond_type
C0 C1 1.386 . S
C0 C2 1.397 . S
C0 H24 0.931 . S
C1 C0 1.386 . S
C1 C5 1.397 . S
C2 C0 1.397 . S
C2 C3 1.384 . S
C2 H25 0.930 . S
C3 C2 1.384 . S
C3 C4 1.377 . S
C3 C6 1.481 . S
C4 C3 1.377 . S
C4 C5 1.389 . S
C4 H26 0.929 . S
C5 C1 1.397 . S
C5 C4 1.389 . S
C5 H27 0.931 . S
C6 C3 1.481 . S
C6 C7 1.387 . S
C6 C11 1.390 . S
C7 C6 1.387 . S
C7 C8 1.401 . S
C7 H28 0.930 . S
C8 C7 1.401 . S
C8 C9 1.376 . S
C8 C17 1.511 . S
C9 C8 1.376 . S
C9 C10 1.392 . S
C9 H30 0.931 . S
C10 C9 1.392 . S
C10 C11 1.361 . S
C10 C12 1.500 . S
C11 C6 1.390 . S
C11 C10 1.361 . S
C11 H29 0.931 . S
C12 C10 1.500 . S
C12 C13 1.371 . S
C12 C14 1.365 . S
C13 C12 1.371 . S
C13 C23 1.386 . S
C13 H31 0.931 . S
C14 C12 1.365 . S
C14 C15 1.409 . S
C14 H32 0.929 . S
C15 C14 1.409 . S
C15 C16 1.380 . S
C15 H33 0.930 . S
C16 C15 1.380 . S
C16 C23 1.357 . S
C17 C8 1.511 . S
C17 C18 1.341 . S
C17 C19 1.371 . S
C18 C17 1.341 . S
C18 C22 1.394 . S
C18 H34 0.930 . S
C19 C17 1.371 . S
C19 C20 1.392 . S
C19 H35 0.931 . S
C20 C19 1.392 . S
C20 C21 1.331 . S
C20 H38 0.932 . S
C21 C20 1.331 . S
C21 C22 1.336 . S
C22 C18 1.394 . S
C22 C21 1.336 . S
C22 H37 0.929 . S
C23 C13 1.386 . S
C23 C16 1.357 . S
C23 H36 0.928 . S
H24 C0 0.931 . S
H25 C2 0.930 . S
H26 C4 0.929 . S
H27 C5 0.931 . S
H28 C7 0.930 . S
H29 C11 0.931 . S
H30 C9 0.931 . S
H31 C13 0.931 . S
H32 C14 0.929 . S
H33 C15 0.930 . S
H34 C18 0.930 . S
H35 C19 0.931 . S
H36 C23 0.928 . S
H37 C22 0.929 . S
H38 C20 0.932 . S
C39 C40 1.386 . S
C39 C41 1.397 . S
C39 H63 0.931 . S
C40 C39 1.386 . S
C40 C44 1.397 . S
C41 C39 1.397 . S
C41 C42 1.384 . S
C41 H64 0.930 . S
C42 C41 1.384 . S
C42 C43 1.377 . S
C42 C45 1.481 . S
C43 C42 1.377 . S
C43 C44 1.389 . S
C43 H65 0.929 . S
C44 C40 1.397 . S
C44 C43 1.389 . S
C44 H66 0.931 . S
C45 C42 1.481 . S
C45 C46 1.387 . S
C45 C50 1.390 . S
C46 C45 1.387 . S
C46 C47 1.401 . S
C46 H67 0.930 . S
C47 C46 1.401 . S
C47 C48 1.376 . S
C47 C56 1.511 . S
C48 C47 1.376 . S
C48 C49 1.392 . S
C48 H69 0.931 . S
C49 C48 1.392 . S
C49 C50 1.361 . S
C49 C51 1.500 . S
C50 C45 1.390 . S
C50 C49 1.361 . S
C50 H68 0.931 . S
C51 C49 1.500 . S
C51 C52 1.371 . S
C51 C53 1.365 . S
C52 C51 1.371 . S
C52 C62 1.386 . S
C52 H70 0.931 . S
C53 C51 1.365 . S
C53 C54 1.409 . S
C53 H71 0.929 . S
C54 C53 1.409 . S
C54 C55 1.380 . S
C54 H72 0.930 . S
C55 C54 1.380 . S
C55 C62 1.357 . S
C56 C47 1.511 . S
C56 C57 1.341 . S
C56 C58 1.371 . S
C57 C56 1.341 . S
C57 C61 1.394 . S
C57 H73 0.930 . S
C58 C56 1.371 . S
C58 C59 1.392 . S
C58 H74 0.931 . S
C59 C58 1.392 . S
C59 C60 1.331 . S
C59 H77 0.932 . S
C60 C59 1.331 . S
C60 C61 1.336 . S
C61 C57 1.394 . S
C61 C60 1.336 . S
C61 H76 0.929 . S
C62 C52 1.386 . S
C62 C55 1.357 . S
C62 H75 0.928 . S
H63 C39 0.931 . S
H64 C41 0.930 . S
H65 C43 0.929 . S
H66 C44 0.931 . S
H67 C46 0.930 . S
H68 C50 0.931 . S
H69 C48 0.931 . S
H70 C52 0.931 . S
H71 C53 0.929 . S
H72 C54 0.930 . S
H73 C57 0.930 . S
H74 C58 0.931 . S
H75 C62 0.928 . S
H76 C61 0.929 . S
H77 C59 0.932 . S
C78 C79 1.386 . S
C78 C80 1.397 . S
C78 H102 0.931 . S
C79 C78 1.386 . S
C79 C83 1.397 . S
C80 C78 1.397 . S
C80 C81 1.384 . S
C80 H103 0.930 . S
C81 C80 1.384 . S
C81 C82 1.377 . S
C81 C84 1.481 . S
C82 C81 1.377 . S
C82 C83 1.389 . S
C82 H104 0.929 . S
C83 C79 1.397 . S
C83 C82 1.389 . S
C83 H105 0.931 . S
C84 C81 1.481 . S
C84 C85 1.387 . S
C84 C89 1.390 . S
C85 C84 1.387 . S
C85 C86 1.401 . S
C85 H106 0.930 . S
C86 C85 1.401 . S
C86 C87 1.376 . S
C86 C95 1.511 . S
C87 C86 1.376 . S
C87 C88 1.392 . S
C87 H108 0.931 . S
C88 C87 1.392 . S
C88 C89 1.361 . S
C88 C90 1.500 . S
C89 C84 1.390 . S
C89 C88 1.361 . S
C89 H107 0.931 . S
C90 C88 1.500 . S
C90 C91 1.371 . S
C90 C92 1.365 . S
C91 C90 1.371 . S
C91 C101 1.386 . S
C91 H109 0.931 . S
C92 C90 1.365 . S
C92 C93 1.409 . S
C92 H110 0.929 . S
C93 C92 1.409 . S
C93 C94 1.380 . S
C93 H111 0.930 . S
C94 C93 1.380 . S
C94 C101 1.357 . S
C95 C86 1.511 . S
C95 C96 1.341 . S
C95 C97 1.371 . S
C96 C95 1.341 . S
C96 C100 1.394 . S
C96 H112 0.930 . S
C97 C95 1.371 . S
C97 C98 1.392 . S
C97 H113 0.931 . S
C98 C97 1.392 . S
C98 C99 1.331 . S
C98 H116 0.932 . S
C99 C98 1.331 . S
C99 C100 1.336 . S
C100 C96 1.394 . S
C100 C99 1.336 . S
C100 H115 0.929 . S
C101 C91 1.386 . S
C101 C94 1.357 . S
C101 H114 0.928 . S
H102 C78 0.931 . S
H103 C80 0.930 . S
H104 C82 0.929 . S
H105 C83 0.931 . S
H106 C85 0.930 . S
H107 C89 0.931 . S
H108 C87 0.931 . S
H109 C91 0.931 . S
H110 C92 0.929 . S
H111 C93 0.930 . S
H112 C96 0.930 . S
H113 C97 0.931 . S
H114 C101 0.928 . S
H115 C100 0.929 . S
H116 C98 0.932 . S
C117 C118 1.386 . S
C117 C119 1.397 . S
C117 H141 0.931 . S
C118 C117 1.386 . S
C118 C122 1.397 . S
C119 C117 1.397 . S
C119 C120 1.384 . S
C119 H142 0.930 . S
C120 C119 1.384 . S
C120 C121 1.377 . S
C120 C123 1.481 . S
C121 C120 1.377 . S
C121 C122 1.389 . S
C121 H143 0.929 . S
C122 C118 1.397 . S
C122 C121 1.389 . S
C122 H144 0.931 . S
C123 C120 1.481 . S
C123 C124 1.387 . S
C123 C128 1.390 . S
C124 C123 1.387 . S
C124 C125 1.401 . S
C124 H145 0.930 . S
C125 C124 1.401 . S
C125 C126 1.376 . S
C125 C134 1.511 . S
C126 C125 1.376 . S
C126 C127 1.392 . S
C126 H147 0.931 . S
C127 C126 1.392 . S
C127 C128 1.361 . S
C127 C129 1.500 . S
C128 C123 1.390 . S
C128 C127 1.361 . S
C128 H146 0.931 . S
C129 C127 1.500 . S
C129 C130 1.371 . S
C129 C131 1.365 . S
C130 C129 1.371 . S
C130 C140 1.386 . S
C130 H148 0.931 . S
C131 C129 1.365 . S
C131 C132 1.409 . S
C131 H149 0.929 . S
C132 C131 1.409 . S
C132 C133 1.380 . S
C132 H150 0.930 . S
C133 C132 1.380 . S
C133 C140 1.357 . S
C134 C125 1.511 . S
C134 C135 1.341 . S
C134 C136 1.371 . S
C135 C134 1.341 . S
C135 C139 1.394 . S
C135 H151 0.930 . S
C136 C134 1.371 . S
C136 C137 1.392 . S
C136 H152 0.931 . S
C137 C136 1.392 . S
C137 C138 1.331 . S
C137 H155 0.932 . S
C138 C137 1.331 . S
C138 C139 1.336 . S
C139 C135 1.394 . S
C139 C138 1.336 . S
C139 H154 0.929 . S
C140 C130 1.386 . S
C140 C133 1.357 . S
C140 H153 0.928 . S
H141 C117 0.931 . S
H142 C119 0.930 . S
H143 C121 0.929 . S
H144 C122 0.931 . S
H145 C124 0.930 . S
H146 C128 0.931 . S
H147 C126 0.931 . S
H148 C130 0.931 . S
H149 C131 0.929 . S
H150 C132 0.930 . S
H151 C135 0.930 . S
H152 C136 0.931 . S
H153 C140 0.928 . S
H154 C139 0.929 . S
H155 C137 0.932 . S
C156 C157 1.386 . S
C156 C158 1.397 . S
C156 H180 0.931 . S
C157 C156 1.386 . S
C157 C161 1.397 . S
C158 C156 1.397 . S
C158 C159 1.384 . S
C158 H181 0.930 . S
C159 C158 1.384 . S
C159 C160 1.377 . S
C159 C162 1.481 . S
C160 C159 1.377 . S
C160 C161 1.389 . S
C160 H182 0.929 . S
C161 C157 1.397 . S
C161 C160 1.389 . S
C161 H183 0.931 . S
C162 C159 1.481 . S
C162 C163 1.387 . S
C162 C167 1.390 . S
C163 C162 1.387 . S
C163 C164 1.401 . S
C163 H184 0.930 . S
C164 C163 1.401 . S
C164 C165 1.376 . S
C164 C173 1.511 . S
C165 C164 1.376 . S
C165 C166 1.392 . S
C165 H186 0.931 . S
C166 C165 1.392 . S
C166 C167 1.361 . S
C166 C168 1.500 . S
C167 C162 1.390 . S
C167 C166 1.361 . S
C167 H185 0.931 . S
C168 C166 1.500 . S
C168 C169 1.371 . S
C168 C170 1.365 . S
C169 C168 1.371 . S
C169 C179 1.386 . S
C169 H187 0.931 . S
C170 C168 1.365 . S
C170 C171 1.409 . S
C170 H188 0.929 . S
C171 C170 1.409 . S
C171 C172 1.380 . S
C171 H189 0.930 . S
C172 C171 1.380 . S
C172 C179 1.357 . S
C173 C164 1.511 . S
C173 C174 1.341 . S
C173 C175 1.371 . S
C174 C173 1.341 . S
C174 C178 1.394 . S
C174 H190 0.930 . S
C175 C173 1.371 . S
C175 C176 1.392 . S
C175 H191 0.931 . S
C176 C175 1.392 . S
C176 C177 1.331 . S
C176 H194 0.932 . S
C177 C176 1.331 . S
C177 C178 1.336 . S
C178 C174 1.394 . S
C178 C177 1.336 . S
C178 H193 0.929 . S
C179 C169 1.386 . S
C179 C172 1.357 . S
C179 H192 0.928 . S
H180 C156 0.931 . S
H181 C158 0.930 . S
H182 C160 0.929 . S
H183 C161 0.931 . S
H184 C163 0.930 . S
H185 C167 0.931 . S
H186 C165 0.931 . S
H187 C169 0.931 . S
H188 C170 0.929 . S
H189 C171 0.930 . S
H190 C174 0.930 . S
H191 C175 0.931 . S
H192 C179 0.928 . S
H193 C178 0.929 . S
H194 C176 0.932 . S
C195 C196 1.386 . S
C195 C197 1.397 . S
C195 H219 0.931 . S
C196 C195 1.386 . S
C196 C200 1.397 . S
C197 C195 1.397 . S
C197 C198 1.384 . S
C197 H220 0.930 . S
C198 C197 1.384 . S
C198 C199 1.377 . S
C198 C201 1.481 . S
C199 C198 1.377 . S
C199 C200 1.389 . S
C199 H221 0.929 . S
C200 C196 1.397 . S
C200 C199 1.389 . S
C200 H222 0.931 . S
C201 C198 1.481 . S
C201 C202 1.387 . S
C201 C206 1.390 . S
C202 C201 1.387 . S
C202 C203 1.401 . S
C202 H223 0.930 . S
C203 C202 1.401 . S
C203 C204 1.376 . S
C203 C212 1.511 . S
C204 C203 1.376 . S
C204 C205 1.392 . S
C204 H225 0.931 . S
C205 C204 1.392 . S
C205 C206 1.361 . S
C205 C207 1.500 . S
C206 C201 1.390 . S
C206 C205 1.361 . S
C206 H224 0.931 . S
C207 C205 1.500 . S
C207 C208 1.371 . S
C207 C209 1.365 . S
C208 C207 1.371 . S
C208 C218 1.386 . S
C208 H226 0.931 . S
C209 C207 1.365 . S
C209 C210 1.409 . S
C209 H227 0.929 . S
C210 C209 1.409 . S
C210 C211 1.380 . S
C210 H228 0.930 . S
C211 C210 1.380 . S
C211 C218 1.357 . S
C212 C203 1.511 . S
C212 C213 1.341 . S
C212 C214 1.371 . S
C213 C212 1.341 . S
C213 C217 1.394 . S
C213 H229 0.930 . S
C214 C212 1.371 . S
C214 C215 1.392 . S
C214 H230 0.931 . S
C215 C214 1.392 . S
C215 C216 1.331 . S
C215 H233 0.932 . S
C216 C215 1.331 . S
C216 C217 1.336 . S
C217 C213 1.394 . S
C217 C216 1.336 . S
C217 H232 0.929 . S
C218 C208 1.386 . S
C218 C211 1.357 . S
C218 H231 0.928 . S
H219 C195 0.931 . S
H220 C197 0.930 . S
H221 C199 0.929 . S
H222 C200 0.931 . S
H223 C202 0.930 . S
H224 C206 0.931 . S
H225 C204 0.931 . S
H226 C208 0.931 . S
H227 C209 0.929 . S
H228 C210 0.930 . S
H229 C213 0.930 . S
H230 C214 0.931 . S
H231 C218 0.928 . S
H232 C217 0.929 . S
H233 C215 0.932 . S
C234 C235 1.386 . S
C234 C236 1.397 . S
C234 H258 0.931 . S
C235 C234 1.386 . S
C235 C239 1.397 . S
C236 C234 1.397 . S
C236 C237 1.384 . S
C236 H259 0.930 . S
C237 C236 1.384 . S
C237 C238 1.377 . S
C237 C240 1.481 . S
C238 C237 1.377 . S
C238 C239 1.389 . S
C238 H260 0.929 . S
C239 C235 1.397 . S
C239 C238 1.389 . S
C239 H261 0.931 . S
C240 C237 1.481 . S
C240 C241 1.387 . S
C240 C245 1.390 . S
C241 C240 1.387 . S
C241 C242 1.401 . S
C241 H262 0.930 . S
C242 C241 1.401 . S
C242 C243 1.376 . S
C242 C251 1.511 . S
C243 C242 1.376 . S
C243 C244 1.392 . S
C243 H264 0.931 . S
C244 C243 1.392 . S
C244 C245 1.361 . S
C244 C246 1.500 . S
C245 C240 1.390 . S
C245 C244 1.361 . S
C245 H263 0.931 . S
C246 C244 1.500 . S
C246 C247 1.371 . S
C246 C248 1.365 . S
C247 C246 1.371 . S
C247 C257 1.386 . S
C247 H265 0.931 . S
C248 C246 1.365 . S
C248 C249 1.409 . S
C248 H266 0.929 . S
C249 C248 1.409 . S
C249 C250 1.380 . S
C249 H267 0.930 . S
C250 C249 1.380 . S
C250 C257 1.357 . S
C251 C242 1.511 . S
C251 C252 1.341 . S
C251 C253 1.371 . S
C252 C251 1.341 . S
C252 C256 1.394 . S
C252 H268 0.930 . S
C253 C251 1.371 . S
C253 C254 1.392 . S
C253 H269 0.931 . S
C254 C253 1.392 . S
C254 C255 1.331 . S
C254 H272 0.932 . S
C255 C254 1.331 . S
C255 C256 1.336 . S
C256 C252 1.394 . S
C256 C255 1.336 . S
C256 H271 0.929 . S
C257 C247 1.386 . S
C257 C250 1.357 . S
C257 H270 0.928 . S
H258 C234 0.931 . S
H259 C236 0.930 . S
H260 C238 0.929 . S
H261 C239 0.931 . S
H262 C241 0.930 . S
H263 C245 0.931 . S
H264 C243 0.931 . S
H265 C247 0.931 . S
H266 C248 0.929 . S
H267 C249 0.930 . S
H268 C252 0.930 . S
H269 C253 0.931 . S
H270 C257 0.928 . S
H271 C256 0.929 . S
H272 C254 0.932 . S
C273 C274 1.386 . S
C273 C275 1.397 . S
C273 H297 0.931 . S
C274 C273 1.386 . S
C274 C278 1.397 . S
C275 C273 1.397 . S
C275 C276 1.384 . S
C275 H298 0.930 . S
C276 C275 1.384 . S
C276 C277 1.377 . S
C276 C279 1.481 . S
C277 C276 1.377 . S
C277 C278 1.389 . S
C277 H299 0.929 . S
C278 C274 1.397 . S
C278 C277 1.389 . S
C278 H300 0.931 . S
C279 C276 1.481 . S
C279 C280 1.387 . S
C279 C284 1.390 . S
C280 C279 1.387 . S
C280 C281 1.401 . S
C280 H301 0.930 . S
C281 C280 1.401 . S
C281 C282 1.376 . S
C281 C290 1.511 . S
C282 C281 1.376 . S
C282 C283 1.392 . S
C282 H303 0.931 . S
C283 C282 1.392 . S
C283 C284 1.361 . S
C283 C285 1.500 . S
C284 C279 1.390 . S
C284 C283 1.361 . S
C284 H302 0.931 . S
C285 C283 1.500 . S
C285 C286 1.371 . S
C285 C287 1.365 . S
C286 C285 1.371 . S
C286 C296 1.386 . S
C286 H304 0.931 . S
C287 C285 1.365 . S
C287 C288 1.409 . S
C287 H305 0.929 . S
C288 C287 1.409 . S
C288 C289 1.380 . S
C288 H306 0.930 . S
C289 C288 1.380 . S
C289 C296 1.357 . S
C290 C281 1.511 . S
C290 C291 1.341 . S
C290 C292 1.371 . S
C291 C290 1.341 . S
C291 C295 1.394 . S
C291 H307 0.930 . S
C292 C290 1.371 . S
C292 C293 1.392 . S
C292 H308 0.931 . S
C293 C292 1.392 . S
C293 C294 1.331 . S
C293 H311 0.932 . S
C294 C293 1.331 . S
C294 C295 1.336 . S
C295 C291 1.394 . S
C295 C294 1.336 . S
C295 H310 0.929 . S
C296 C286 1.386 . S
C296 C289 1.357 . S
C296 H309 0.928 . S
H297 C273 0.931 . S
H298 C275 0.930 . S
H299 C277 0.929 . S
H300 C278 0.931 . S
H301 C280 0.930 . S
H302 C284 0.931 . S
H303 C282 0.931 . S
H304 C286 0.931 . S
H305 C287 0.929 . S
H306 C288 0.930 . S
H307 C291 0.930 . S
H308 C292 0.931 . S
H309 C296 0.928 . S
H310 C295 0.929 . S
H311 C293 0.932 . S
Ho312 C315 2.811 . S
Ho312 O332 2.322 . S
Ho312 O334 2.378 . S
Ho312 O335 2.524 . S
Ho312 O336 2.381 1_545 S
Ho312 O337 2.669 1_545 S
Ho312 O339 2.346 1_445 S
Ho312 O343 2.305 1_455 S
Ho313 C324 2.811 . S
Ho313 O333 2.346 1_665 S
Ho313 O337 2.305 1_655 S
Ho313 O338 2.322 . S
Ho313 O340 2.378 . S
Ho313 O341 2.524 . S
Ho313 O342 2.381 1_565 S
Ho313 O343 2.669 1_565 S
C314 O332 1.259 . S
C314 O333 1.268 . S
C315 Ho312 2.811 . S
C315 C316 1.488 . S
C315 O334 1.215 . S
C315 O335 1.289 . S
C316 C315 1.488 . S
C316 C317 1.348 . S
C316 C321 1.413 . S
C317 C316 1.348 . S
C317 C318 1.442 . S
C317 H344 0.930 . S
C318 C317 1.442 . S
C318 C319 1.381 . S
C318 H345 0.931 . S
C319 C318 1.381 . S
C319 C320 1.321 . S
C320 C319 1.321 . S
C320 C321 1.403 . S
C320 H346 0.934 . S
C321 C316 1.413 . S
C321 C320 1.403 . S
C321 H347 0.930 . S
C322 O336 1.275 . S
C322 O337 1.256 . S
C323 O338 1.259 . S
C323 O339 1.268 . S
C324 Ho313 2.811 . S
C324 C325 1.488 . S
C324 O340 1.215 . S
C324 O341 1.289 . S
C325 C324 1.488 . S
C325 C326 1.348 . S
C325 C330 1.413 . S
C326 C325 1.348 . S
C326 C327 1.442 . S
C326 H348 0.930 . S
C327 C326 1.442 . S
C327 C328 1.381 . S
C327 H349 0.931 . S
C328 C327 1.381 . S
C328 C329 1.321 . S
C329 C328 1.321 . S
C329 C330 1.403 . S
C329 H350 0.934 . S
C330 C325 1.413 . S
C330 C329 1.403 . S
C330 H351 0.930 . S
C331 O342 1.275 . S
C331 O343 1.256 . S
O332 Ho312 2.322 . S
O332 C314 1.259 . S
O333 Ho313 2.346 1_445 S
O333 C314 1.268 . S
O334 Ho312 2.378 . S
O334 C315 1.215 . S
O335 Ho312 2.524 . S
O335 C315 1.289 . S
O336 Ho312 2.381 1_565 S
O336 C322 1.275 . S
O337 Ho312 2.669 1_565 S
O337 Ho313 2.305 1_455 S
O337 C322 1.256 . S
O338 Ho313 2.322 . S
O338 C323 1.259 . S
O339 Ho312 2.346 1_665 S
O339 C323 1.268 . S
O340 Ho313 2.378 . S
O340 C324 1.215 . S
O341 Ho313 2.524 . S
O341 C324 1.289 . S
O342 Ho313 2.381 1_545 S
O342 C331 1.275 . S
O343 Ho312 2.305 1_655 S
O343 Ho313 2.669 1_545 S
O343 C331 1.256 . S
H344 C317 0.930 . S
H345 C318 0.931 . S
H346 C320 0.934 . S
H347 C321 0.930 . S
H348 C326 0.930 . S
H349 C327 0.931 . S
H350 C329 0.934 . S
H351 C330 0.930 . S
Ho352 C355 2.801 1_565 S
Ho352 O372 2.312 1_565 S
Ho352 O374 2.377 1_565 S
Ho352 O375 2.507 1_565 S
Ho352 O376 2.395 . S
Ho352 O377 2.676 . S
Ho352 O379 2.357 1_554 S
Ho352 O383 2.291 1_564 S
Ho353 C364 2.811 1_545 S
Ho353 O373 2.346 1_556 S
Ho353 O377 2.305 1_546 S
Ho353 O378 2.322 1_545 S
Ho353 O380 2.378 1_545 S
Ho353 O381 2.524 1_545 S
Ho353 O382 2.381 . S
Ho353 O383 2.669 . S
C354 O372 1.259 . S
C354 O373 1.268 . S
C355 Ho352 2.801 1_545 S
C355 C356 1.488 . S
C355 O374 1.215 . S
C355 O375 1.289 . S
C356 C355 1.488 . S
C356 C357 1.348 . S
C356 C361 1.413 . S
C357 C356 1.348 . S
C357 C358 1.442 . S
C357 H384 0.930 . S
C358 C357 1.442 . S
C358 C359 1.381 . S
C358 H385 0.931 . S
C359 C358 1.381 . S
C359 C360 1.321 . S
C360 C359 1.321 . S
C360 C361 1.403 . S
C360 H386 0.934 . S
C361 C356 1.413 . S
C361 C360 1.403 . S
C361 H387 0.930 . S
C362 O376 1.275 . S
C362 O377 1.256 . S
C363 O378 1.259 . S
C363 O379 1.268 . S
C364 Ho353 2.811 1_565 S
C364 C365 1.488 . S
C364 O380 1.215 . S
C364 O381 1.289 . S
C365 C364 1.488 . S
C365 C366 1.348 . S
C365 C370 1.413 . S
C366 C365 1.348 . S
C366 C367 1.442 . S
C366 H388 0.930 . S
C367 C366 1.442 . S
C367 C368 1.381 . S
C367 H389 0.931 . S
C368 C367 1.381 . S
C368 C369 1.321 . S
C369 C368 1.321 . S
C369 C370 1.403 . S
C369 H390 0.934 . S
C370 C365 1.413 . S
C370 C369 1.403 . S
C370 H391 0.930 . S
C371 O382 1.275 . S
C371 O383 1.256 . S
O372 Ho352 2.312 1_545 S
O372 C354 1.259 . S
O373 Ho353 2.346 1_554 S
O373 C354 1.268 . S
O374 Ho352 2.377 1_545 S
O374 C355 1.215 . S
O375 Ho352 2.507 1_545 S
O375 C355 1.289 . S
O376 Ho352 2.395 . S
O376 C362 1.275 . S
O377 Ho352 2.676 . S
O377 Ho353 2.305 1_564 S
O377 C362 1.256 . S
O378 Ho353 2.322 1_565 S
O378 C363 1.259 . S
O379 Ho352 2.357 1_556 S
O379 C363 1.268 . S
O380 Ho353 2.378 1_565 S
O380 C364 1.215 . S
O381 Ho353 2.524 1_565 S
O381 C364 1.289 . S
O382 Ho353 2.381 . S
O382 C371 1.275 . S
O383 Ho352 2.291 1_546 S
O383 Ho353 2.669 . S
O383 C371 1.256 . S
H384 C357 0.930 . S
H385 C358 0.931 . S
H386 C360 0.934 . S
H387 C361 0.930 . S
H388 C366 0.930 . S
H389 C367 0.931 . S
H390 C369 0.934 . S
H391 C370 0.930 . S
Ho392 C395 2.811 . S
Ho392 O412 2.322 . S
Ho392 O414 2.378 . S
Ho392 O415 2.524 . S
Ho392 O416 2.381 . S
Ho392 O417 2.669 . S
Ho392 O419 2.346 . S
Ho392 O423 2.305 . S
Ho393 C404 2.811 . S
Ho393 O413 2.346 . S
Ho393 O417 2.305 . S
Ho393 O418 2.322 . S
Ho393 O420 2.378 . S
Ho393 O421 2.524 . S
Ho393 O422 2.381 . S
Ho393 O423 2.669 . S
C394 O412 1.259 . S
C394 O413 1.268 . S
C395 Ho392 2.811 . S
C395 C396 1.488 . S
C395 O414 1.215 . S
C395 O415 1.289 . S
C396 C395 1.488 . S
C396 C397 1.348 . S
C396 C401 1.413 . S
C397 C396 1.348 . S
C397 C398 1.442 . S
C397 H424 0.930 . S
C398 C397 1.442 . S
C398 C399 1.381 . S
C398 H425 0.931 . S
C399 C398 1.381 . S
C399 C400 1.321 . S
C400 C399 1.321 . S
C400 C401 1.403 . S
C400 H426 0.934 . S
C401 C396 1.413 . S
C401 C400 1.403 . S
C401 H427 0.930 . S
C402 O416 1.275 . S
C402 O417 1.256 . S
C403 O418 1.259 . S
C403 O419 1.268 . S
C404 Ho393 2.811 . S
C404 C405 1.488 . S
C404 O420 1.215 . S
C404 O421 1.289 . S
C405 C404 1.488 . S
C405 C406 1.348 . S
C405 C410 1.413 . S
C406 C405 1.348 . S
C406 C407 1.442 . S
C406 H428 0.930 . S
C407 C406 1.442 . S
C407 C408 1.381 . S
C407 H429 0.931 . S
C408 C407 1.381 . S
C408 C409 1.321 . S
C409 C408 1.321 . S
C409 C410 1.403 . S
C409 H430 0.934 . S
C410 C405 1.413 . S
C410 C409 1.403 . S
C410 H431 0.930 . S
C411 O422 1.275 . S
C411 O423 1.256 . S
O412 Ho392 2.322 . S
O412 C394 1.259 . S
O413 Ho393 2.346 . S
O413 C394 1.268 . S
O414 Ho392 2.378 . S
O414 C395 1.215 . S
O415 Ho392 2.524 . S
O415 C395 1.289 . S
O416 Ho392 2.381 . S
O416 C402 1.275 . S
O417 Ho392 2.669 . S
O417 Ho393 2.305 . S
O417 C402 1.256 . S
O418 Ho393 2.322 . S
O418 C403 1.259 . S
O419 Ho392 2.346 . S
O419 C403 1.268 . S
O420 Ho393 2.378 . S
O420 C404 1.215 . S
O421 Ho393 2.524 . S
O421 C404 1.289 . S
O422 Ho393 2.381 . S
O422 C411 1.275 . S
O423 Ho392 2.305 . S
O423 Ho393 2.669 . S
O423 C411 1.256 . S
H424 C397 0.930 . S
H425 C398 0.931 . S
H426 C400 0.934 . S
H427 C401 0.930 . S
H428 C406 0.930 . S
H429 C407 0.931 . S
H430 C409 0.934 . S
H431 C410 0.930 . S
Ho432 C435 2.811 . S
Ho432 O452 2.322 . S
Ho432 O454 2.378 . S
Ho432 O455 2.524 . S
Ho432 O456 2.381 1_455 S
Ho432 O457 2.669 1_455 S
Ho432 O459 2.346 1_454 S
Ho432 O463 2.305 1_554 S
Ho433 C444 2.811 . S
Ho433 O453 2.346 1_656 S
Ho433 O457 2.305 1_556 S
Ho433 O458 2.322 . S
Ho433 O460 2.378 . S
Ho433 O461 2.524 . S
Ho433 O462 2.381 1_655 S
Ho433 O463 2.669 1_655 S
C434 O452 1.259 . S
C434 O453 1.268 . S
C435 Ho432 2.811 . S
C435 C436 1.488 . S
C435 O454 1.215 . S
C435 O455 1.289 . S
C436 C435 1.488 . S
C436 C437 1.348 . S
C436 C441 1.413 . S
C437 C436 1.348 . S
C437 C438 1.442 . S
C437 H464 0.930 . S
C438 C437 1.442 . S
C438 C439 1.381 . S
C438 H465 0.931 . S
C439 C438 1.381 . S
C439 C440 1.321 . S
C440 C439 1.321 . S
C440 C441 1.403 . S
C440 H466 0.934 . S
C441 C436 1.413 . S
C441 C440 1.403 . S
C441 H467 0.930 . S
C442 O456 1.275 . S
C442 O457 1.256 . S
C443 O458 1.259 . S
C443 O459 1.268 . S
C444 Ho433 2.811 . S
C444 C445 1.488 . S
C444 O460 1.215 . S
C444 O461 1.289 . S
C445 C444 1.488 . S
C445 C446 1.348 . S
C445 C450 1.413 . S
C446 C445 1.348 . S
C446 C447 1.442 . S
C446 H468 0.930 . S
C447 C446 1.442 . S
C447 C448 1.381 . S
C447 H469 0.931 . S
C448 C447 1.381 . S
C448 C449 1.321 . S
C449 C448 1.321 . S
C449 C450 1.403 . S
C449 H470 0.934 . S
C450 C445 1.413 . S
C450 C449 1.403 . S
C450 H471 0.930 . S
C451 O462 1.275 . S
C451 O463 1.256 . S
O452 Ho432 2.322 . S
O452 C434 1.259 . S
O453 Ho433 2.346 1_454 S
O453 C434 1.268 . S
O454 Ho432 2.378 . S
O454 C435 1.215 . S
O455 Ho432 2.524 . S
O455 C435 1.289 . S
O456 Ho432 2.381 1_655 S
O456 C442 1.275 . S
O457 Ho432 2.669 1_655 S
O457 Ho433 2.305 1_554 S
O457 C442 1.256 . S
O458 Ho433 2.322 . S
O458 C443 1.259 . S
O459 Ho432 2.346 1_656 S
O459 C443 1.268 . S
O460 Ho433 2.378 . S
O460 C444 1.215 . S
O461 Ho433 2.524 . S
O461 C444 1.289 . S
O462 Ho433 2.381 1_455 S
O462 C451 1.275 . S
O463 Ho432 2.305 1_556 S
O463 Ho433 2.669 1_455 S
O463 C451 1.256 . S
H464 C437 0.930 . S
H465 C438 0.931 . S
H466 C440 0.934 . S
H467 C441 0.930 . S
H468 C446 0.930 . S
H469 C447 0.931 . S
H470 C449 0.934 . S
H471 C450 0.930 . S
H472 C478 0.930 . S
H473 C481 0.930 . S
H474 C482 0.930 . S
H475 C483 0.930 . S
H476 C486 0.930 . S
H477 C487 0.930 . S
C478 H472 0.930 . S
C478 C479 1.355 . S
C478 C480 1.415 . S
C479 C478 1.355 . S
C479 C481 1.419 . S
C480 C478 1.415 . S
C480 C485 1.425 . S
C480 C487 1.409 . S
C481 H473 0.930 . S
C481 C479 1.419 . S
C481 C482 1.362 . S
C482 H474 0.930 . S
C482 C481 1.362 . S
C482 C485 1.409 . S
C483 H475 0.930 . S
C483 C484 1.355 . S
C483 C485 1.415 . S
C484 C483 1.355 . S
C484 C486 1.419 . S
C485 C480 1.425 . S
C485 C482 1.409 . S
C485 C483 1.415 . S
C486 H476 0.930 . S
C486 C484 1.419 . S
C486 C487 1.362 . S
C487 H477 0.930 . S
C487 C480 1.409 . S
C487 C486 1.362 . S
H488 C494 0.930 . S
H489 C497 0.930 . S
H490 C498 0.930 . S
H491 C499 0.930 . S
H492 C502 0.930 . S
H493 C503 0.930 . S
C494 H488 0.930 . S
C494 C495 1.355 . S
C494 C496 1.415 . S
C495 C494 1.355 . S
C495 C497 1.419 . S
C496 C494 1.415 . S
C496 C501 1.425 . S
C496 C503 1.409 . S
C497 H489 0.930 . S
C497 C495 1.419 . S
C497 C498 1.362 . S
C498 H490 0.930 . S
C498 C497 1.362 . S
C498 C501 1.409 . S
C499 H491 0.930 . S
C499 C500 1.355 . S
C499 C501 1.415 . S
C500 C499 1.355 . S
C500 C502 1.419 . S
C501 C496 1.425 . S
C501 C498 1.409 . S
C501 C499 1.415 . S
C502 H492 0.930 . S
C502 C500 1.419 . S
C502 C503 1.362 . S
C503 H493 0.930 . S
C503 C496 1.409 . S
C503 C502 1.362 . S
H504 C510 0.930 . S
H505 C513 0.930 . S
H506 C514 0.930 . S
H507 C515 0.930 . S
H508 C518 0.930 . S
H509 C519 0.930 . S
C510 H504 0.930 . S
C510 C511 1.355 . S
C510 C512 1.415 . S
C511 C510 1.355 . S
C511 C513 1.419 . S
C512 C510 1.415 . S
C512 C517 1.425 . S
C512 C519 1.409 . S
C513 H505 0.930 . S
C513 C511 1.419 . S
C513 C514 1.362 . S
C514 H506 0.930 . S
C514 C513 1.362 . S
C514 C517 1.409 . S
C515 H507 0.930 . S
C515 C516 1.355 . S
C515 C517 1.415 . S
C516 C515 1.355 . S
C516 C518 1.419 . S
C517 C512 1.425 . S
C517 C514 1.409 . S
C517 C515 1.415 . S
C518 H508 0.930 . S
C518 C516 1.419 . S
C518 C519 1.362 . S
C519 H509 0.930 . S
C519 C512 1.409 . S
C519 C518 1.362 . S
H520 C526 0.930 . S
H521 C529 0.930 . S
H522 C530 0.930 . S
H523 C531 0.930 . S
H524 C534 0.930 . S
H525 C535 0.930 . S
C526 H520 0.930 . S
C526 C527 1.355 . S
C526 C528 1.415 . S
C527 C526 1.355 . S
C527 C529 1.419 . S
C528 C526 1.415 . S
C528 C533 1.425 . S
C528 C535 1.409 . S
C529 H521 0.930 . S
C529 C527 1.419 . S
C529 C530 1.362 . S
C530 H522 0.930 . S
C530 C529 1.362 . S
C530 C533 1.409 . S
C531 H523 0.930 . S
C531 C532 1.355 . S
C531 C533 1.415 . S
C532 C531 1.355 . S
C532 C534 1.419 . S
C533 C528 1.425 . S
C533 C530 1.409 . S
C533 C531 1.415 . S
C534 H524 0.930 . S
C534 C532 1.419 . S
C534 C535 1.362 . S
C535 H525 0.930 . S
C535 C528 1.409 . S
C535 C534 1.362 . S
H536 C542 0.930 . S
H537 C545 0.930 . S
H538 C546 0.930 . S
H539 C547 0.930 . S
H540 C550 0.930 . S
H541 C551 0.930 . S
C542 H536 0.930 . S
C542 C543 1.355 . S
C542 C544 1.415 . S
C543 C542 1.355 . S
C543 C545 1.419 . S
C544 C542 1.415 . S
C544 C549 1.425 . S
C544 C551 1.409 . S
C545 H537 0.930 . S
C545 C543 1.419 . S
C545 C546 1.362 . S
C546 H538 0.930 . S
C546 C545 1.362 . S
C546 C549 1.409 . S
C547 H539 0.930 . S
C547 C548 1.355 . S
C547 C549 1.415 . S
C548 C547 1.355 . S
C548 C550 1.419 . S
C549 C544 1.425 . S
C549 C546 1.409 . S
C549 C547 1.415 . S
C550 H540 0.930 . S
C550 C548 1.419 . S
C550 C551 1.362 . S
C551 H541 0.930 . S
C551 C544 1.409 . S
C551 C550 1.362 . S
H552 C558 0.930 . S
H553 C561 0.930 . S
H554 C562 0.930 . S
H555 C563 0.930 . S
H556 C566 0.930 . S
H557 C567 0.930 . S
C558 H552 0.930 . S
C558 C559 1.355 . S
C558 C560 1.415 . S
C559 C558 1.355 . S
C559 C561 1.419 . S
C560 C558 1.415 . S
C560 C565 1.425 . S
C560 C567 1.409 . S
C561 H553 0.930 . S
C561 C559 1.419 . S
C561 C562 1.362 . S
C562 H554 0.930 . S
C562 C561 1.362 . S
C562 C565 1.409 . S
C563 H555 0.930 . S
C563 C564 1.355 . S
C563 C565 1.415 . S
C564 C563 1.355 . S
C564 C566 1.419 . S
C565 C560 1.425 . S
C565 C562 1.409 . S
C565 C563 1.415 . S
C566 H556 0.930 . S
C566 C564 1.419 . S
C566 C567 1.362 . S
C567 H557 0.930 . S
C567 C560 1.409 . S
C567 C566 1.362 . S
H568 C574 0.930 . S
H569 C577 0.930 . S
H570 C578 0.930 . S
H571 C579 0.930 . S
H572 C582 0.930 1_554 S
H573 C583 0.930 . S
C574 H568 0.930 . S
C574 C575 1.355 . S
C574 C576 1.415 . S
C575 C574 1.355 . S
C575 C577 1.419 . S
C576 C574 1.415 . S
C576 C581 1.425 . S
C576 C583 1.409 . S
C577 H569 0.930 . S
C577 C575 1.419 . S
C577 C578 1.362 . S
C578 H570 0.930 . S
C578 C577 1.362 . S
C578 C581 1.409 . S
C579 H571 0.930 . S
C579 C580 1.355 . S
C579 C581 1.415 . S
C580 C579 1.355 . S
C580 C582 1.419 . S
C581 C576 1.425 . S
C581 C578 1.409 . S
C581 C579 1.415 . S
C582 H572 0.930 1_556 S
C582 C580 1.419 . S
C582 C583 1.362 . S
C583 H573 0.930 . S
C583 C576 1.409 . S
C583 C582 1.362 . S
H584 C590 0.930 . S
H585 C593 0.930 . S
H586 C594 0.930 . S
H587 C595 0.930 . S
H588 C598 0.930 . S
H589 C599 0.930 . S
C590 H584 0.930 . S
C590 C591 1.355 . S
C590 C592 1.415 . S
C591 C590 1.355 . S
C591 C593 1.419 . S
C592 C590 1.415 . S
C592 C597 1.425 . S
C592 C599 1.409 . S
C593 H585 0.930 . S
C593 C591 1.419 . S
C593 C594 1.362 . S
C594 H586 0.930 . S
C594 C593 1.362 . S
C594 C597 1.409 . S
C595 H587 0.930 . S
C595 C596 1.355 . S
C595 C597 1.415 . S
C596 C595 1.355 . S
C596 C598 1.419 . S
C597 C592 1.425 . S
C597 C594 1.409 . S
C597 C595 1.415 . S
C598 H588 0.930 . S
C598 C596 1.419 . S
C598 C599 1.362 . S
C599 H589 0.930 . S
C599 C592 1.409 . S
C599 C598 1.362 . S
H600 C606 0.930 . S
H601 C609 0.930 . S
H602 C610 0.930 . S
H603 C611 0.930 . S
H604 C614 0.930 . S
H605 C615 0.930 . S
C606 H600 0.930 . S
C606 C607 1.355 . S
C606 C608 1.415 . S
C607 C606 1.355 . S
C607 C609 1.419 . S
C608 C606 1.415 . S
C608 C613 1.425 . S
C608 C615 1.409 . S
C609 H601 0.930 . S
C609 C607 1.419 . S
C609 C610 1.362 . S
C610 H602 0.930 . S
C610 C609 1.362 . S
C610 C613 1.409 . S
C611 H603 0.930 . S
C611 C612 1.355 . S
C611 C613 1.415 . S
C612 C611 1.355 . S
C612 C614 1.419 . S
C613 C608 1.425 . S
C613 C610 1.409 . S
C613 C611 1.415 . S
C614 H604 0.930 . S
C614 C612 1.419 . S
C614 C615 1.362 . S
C615 H605 0.930 . S
C615 C608 1.409 . S
C615 C614 1.362 . S
H616 C622 0.930 . S
H617 C625 0.930 . S
H618 C626 0.930 . S
H619 C627 0.930 . S
H620 C630 0.930 . S
H621 C631 0.930 . S
C622 H616 0.930 . S
C622 C623 1.355 . S
C622 C624 1.415 . S
C623 C622 1.355 . S
C623 C625 1.419 . S
C624 C622 1.415 . S
C624 C629 1.425 . S
C624 C631 1.409 . S
C625 H617 0.930 . S
C625 C623 1.419 . S
C625 C626 1.362 . S
C626 H618 0.930 . S
C626 C625 1.362 . S
C626 C629 1.409 . S
C627 H619 0.930 . S
C627 C628 1.355 . S
C627 C629 1.415 . S
C628 C627 1.355 . S
C628 C630 1.419 . S
C629 C624 1.425 . S
C629 C626 1.409 . S
C629 C627 1.415 . S
C630 H620 0.930 . S
C630 C628 1.419 . S
C630 C631 1.362 . S
C631 H621 0.930 . S
C631 C624 1.409 . S
C631 C630 1.362 . S
H632 C638 0.930 . S
H633 C641 0.930 . S
H634 C642 0.930 . S
H635 C643 0.930 . S
H636 C646 0.930 . S
H637 C647 0.930 . S
C638 H632 0.930 . S
C638 C639 1.355 . S
C638 C640 1.415 . S
C639 C638 1.355 . S
C639 C641 1.419 . S
C640 C638 1.415 . S
C640 C645 1.425 . S
C640 C647 1.409 . S
C641 H633 0.930 . S
C641 C639 1.419 . S
C641 C642 1.362 . S
C642 H634 0.930 . S
C642 C641 1.362 . S
C642 C645 1.409 . S
C643 H635 0.930 . S
C643 C644 1.355 . S
C643 C645 1.415 . S
C644 C643 1.355 . S
C644 C646 1.419 . S
C645 C640 1.425 . S
C645 C642 1.409 . S
C645 C643 1.415 . S
C646 H636 0.930 . S
C646 C644 1.419 . S
C646 C647 1.362 . S
C647 H637 0.930 . S
C647 C640 1.409 . S
C647 C646 1.362 . S
H648 C654 0.930 . S
H649 C657 0.930 . S
H650 C658 0.930 . S
H651 C659 0.930 . S
H652 C662 0.930 . S
H653 C663 0.930 . S
C654 H648 0.930 . S
C654 C655 1.355 . S
C654 C656 1.415 . S
C655 C654 1.355 . S
C655 C657 1.419 . S
C656 C654 1.415 . S
C656 C661 1.425 . S
C656 C663 1.409 . S
C657 H649 0.930 . S
C657 C655 1.419 . S
C657 C658 1.362 . S
C658 H650 0.930 . S
C658 C657 1.362 . S
C658 C661 1.409 . S
C659 H651 0.930 . S
C659 C660 1.355 . S
C659 C661 1.415 . S
C660 C659 1.355 . S
C660 C662 1.419 . S
C661 C656 1.425 . S
C661 C658 1.409 . S
C661 C659 1.415 . S
C662 H652 0.930 . S
C662 C660 1.419 . S
C662 C663 1.362 . S
C663 H653 0.930 . S
C663 C656 1.409 . S
C663 C662 1.362 . S
H664 C670 0.930 . S
H665 C673 0.930 . S
H666 C674 0.930 . S
H667 C675 0.930 . S
H668 C678 0.930 . S
H669 C679 0.930 . S
C670 H664 0.930 . S
C670 C671 1.355 . S
C670 C672 1.415 . S
C671 C670 1.355 . S
C671 C673 1.419 . S
C672 C670 1.415 . S
C672 C677 1.425 . S
C672 C679 1.409 . S
C673 H665 0.930 . S
C673 C671 1.419 . S
C673 C674 1.362 . S
C674 H666 0.930 . S
C674 C673 1.362 . S
C674 C677 1.409 . S
C675 H667 0.930 . S
C675 C676 1.355 . S
C675 C677 1.415 . S
C676 C675 1.355 . S
C676 C678 1.419 . S
C677 C672 1.425 . S
C677 C674 1.409 . S
C677 C675 1.415 . S
C678 H668 0.930 . S
C678 C676 1.419 . S
C678 C679 1.362 . S
C679 H669 0.930 . S
C679 C672 1.409 . S
C679 C678 1.362 . S
H680 C686 0.930 . S
H681 C689 0.930 . S
H682 C690 0.930 . S
H683 C691 0.930 . S
H684 C694 0.930 . S
H685 C695 0.930 . S
C686 H680 0.930 . S
C686 C687 1.355 . S
C686 C688 1.415 . S
C687 C686 1.355 . S
C687 C689 1.419 . S
C688 C686 1.415 . S
C688 C693 1.425 . S
C688 C695 1.409 . S
C689 H681 0.930 . S
C689 C687 1.419 . S
C689 C690 1.362 . S
C690 H682 0.930 . S
C690 C689 1.362 . S
C690 C693 1.409 . S
C691 H683 0.930 . S
C691 C692 1.355 . S
C691 C693 1.415 . S
C692 C691 1.355 . S
C692 C694 1.419 . S
C693 C688 1.425 . S
C693 C690 1.409 . S
C693 C691 1.415 . S
C694 H684 0.930 . S
C694 C692 1.419 . S
C694 C695 1.362 . S
C695 H685 0.930 . S
C695 C688 1.409 . S
C695 C694 1.362 . S
H696 C702 0.930 . S
H697 C705 0.930 . S
H698 C706 0.930 . S
H699 C707 0.930 . S
H700 C710 0.930 . S
H701 C711 0.930 . S
C702 H696 0.930 . S
C702 C703 1.355 . S
C702 C704 1.415 . S
C703 C702 1.355 . S
C703 C705 1.419 . S
C704 C702 1.415 . S
C704 C709 1.425 . S
C704 C711 1.409 . S
C705 H697 0.930 . S
C705 C703 1.419 . S
C705 C706 1.362 . S
C706 H698 0.930 . S
C706 C705 1.362 . S
C706 C709 1.409 . S
C707 H699 0.930 . S
C707 C708 1.355 . S
C707 C709 1.415 . S
C708 C707 1.355 . S
C708 C710 1.419 . S
C709 C704 1.425 . S
C709 C706 1.409 . S
C709 C707 1.415 . S
C710 H700 0.930 . S
C710 C708 1.419 . S
C710 C711 1.362 . S
C711 H701 0.930 . S
C711 C704 1.409 . S
C711 C710 1.362 . S
H712 C718 0.930 . S
H713 C721 0.930 . S
H714 C722 0.930 . S
H715 C723 0.930 . S
H716 C726 0.930 . S
H717 C727 0.930 . S
C718 H712 0.930 . S
C718 C719 1.355 . S
C718 C720 1.415 . S
C719 C718 1.355 . S
C719 C721 1.419 . S
C720 C718 1.415 . S
C720 C725 1.425 . S
C720 C727 1.409 . S
C721 H713 0.930 . S
C721 C719 1.419 . S
C721 C722 1.362 . S
C722 H714 0.930 . S
C722 C721 1.362 . S
C722 C725 1.409 . S
C723 H715 0.930 . S
C723 C724 1.355 . S
C723 C725 1.415 . S
C724 C723 1.355 . S
C724 C726 1.419 . S
C725 C720 1.425 . S
C725 C722 1.409 . S
C725 C723 1.415 . S
C726 H716 0.930 . S
C726 C724 1.419 . S
C726 C727 1.362 . S
C727 H717 0.930 . S
C727 C720 1.409 . S
C727 C726 1.362 . S
H728 C734 0.930 . S
H729 C737 0.930 . S
H730 C738 0.930 . S
H731 C739 0.930 . S
H732 C742 0.930 . S
H733 C743 0.930 . S
C734 H728 0.930 . S
C734 C735 1.355 . S
C734 C736 1.415 . S
C735 C734 1.355 . S
C735 C737 1.419 . S
C736 C734 1.415 . S
C736 C741 1.425 . S
C736 C743 1.409 . S
C737 H729 0.930 . S
C737 C735 1.419 . S
C737 C738 1.362 . S
C738 H730 0.930 . S
C738 C737 1.362 . S
C738 C741 1.409 . S
C739 H731 0.930 . S
C739 C740 1.355 . S
C739 C741 1.415 . S
C740 C739 1.355 . S
C740 C742 1.419 . S
C741 C736 1.425 . S
C741 C738 1.409 . S
C741 C739 1.415 . S
C742 H732 0.930 . S
C742 C740 1.419 . S
C742 C743 1.362 . S
C743 H733 0.930 . S
C743 C736 1.409 . S
C743 C742 1.362 . S
H744 C750 0.930 . S
H745 C753 0.930 . S
H746 C754 0.930 . S
H747 C755 0.930 . S
H748 C758 0.930 . S
H749 C759 0.930 . S
C750 H744 0.930 . S
C750 C751 1.355 . S
C750 C752 1.415 . S
C751 C750 1.355 . S
C751 C753 1.419 . S
C752 C750 1.415 . S
C752 C757 1.425 . S
C752 C759 1.409 . S
C753 H745 0.930 . S
C753 C751 1.419 . S
C753 C754 1.362 . S
C754 H746 0.930 . S
C754 C753 1.362 . S
C754 C757 1.409 . S
C755 H747 0.930 . S
C755 C756 1.355 . S
C755 C757 1.415 . S
C756 C755 1.355 . S
C756 C758 1.419 . S
C757 C752 1.425 . S
C757 C754 1.409 . S
C757 C755 1.415 . S
C758 H748 0.930 . S
C758 C756 1.419 . S
C758 C759 1.362 . S
C759 H749 0.930 . S
C759 C752 1.409 . S
C759 C758 1.362 . S
H760 C766 0.930 . S
H761 C769 0.930 . S
H762 C770 0.930 . S
H763 C771 0.930 . S
H764 C774 0.930 . S
H765 C775 0.930 . S
C766 H760 0.930 . S
C766 C767 1.355 . S
C766 C768 1.415 . S
C767 C766 1.355 . S
C767 C769 1.419 . S
C768 C766 1.415 . S
C768 C773 1.425 . S
C768 C775 1.409 . S
C769 H761 0.930 . S
C769 C767 1.419 . S
C769 C770 1.362 . S
C770 H762 0.930 . S
C770 C769 1.362 . S
C770 C773 1.409 . S
C771 H763 0.930 . S
C771 C772 1.355 . S
C771 C773 1.415 . S
C772 C771 1.355 . S
C772 C774 1.419 . S
C773 C768 1.425 . S
C773 C770 1.409 . S
C773 C771 1.415 . S
C774 H764 0.930 . S
C774 C772 1.419 . S
C774 C775 1.362 . S
C775 H765 0.930 . S
C775 C768 1.409 . S
C775 C774 1.362 . S
H776 C782 0.930 . S
H777 C785 0.930 . S
H778 C786 0.930 . S
H779 C787 0.930 . S
H780 C790 0.930 . S
H781 C791 0.930 . S
C782 H776 0.930 . S
C782 C783 1.355 . S
C782 C784 1.415 . S
C783 C782 1.355 . S
C783 C785 1.419 . S
C784 C782 1.415 . S
C784 C789 1.425 . S
C784 C791 1.409 . S
C785 H777 0.930 . S
C785 C783 1.419 . S
C785 C786 1.362 . S
C786 H778 0.930 . S
C786 C785 1.362 . S
C786 C789 1.409 . S
C787 H779 0.930 . S
C787 C788 1.355 . S
C787 C789 1.415 . S
C788 C787 1.355 . S
C788 C790 1.419 . S
C789 C784 1.425 . S
C789 C786 1.409 . S
C789 C787 1.415 . S
C790 H780 0.930 . S
C790 C788 1.419 . S
C790 C791 1.362 . S
C791 H781 0.930 . S
C791 C784 1.409 . S
C791 C790 1.362 . S
H792 C798 0.930 . S
H793 C801 0.930 . S
H794 C802 0.930 . S
H795 C803 0.930 . S
H796 C806 0.930 . S
H797 C807 0.930 . S
C798 H792 0.930 . S
C798 C799 1.355 . S
C798 C800 1.415 . S
C799 C798 1.355 . S
C799 C801 1.419 . S
C800 C798 1.415 . S
C800 C805 1.425 . S
C800 C807 1.409 . S
C801 H793 0.930 . S
C801 C799 1.419 . S
C801 C802 1.362 . S
C802 H794 0.930 . S
C802 C801 1.362 . S
C802 C805 1.409 . S
C803 H795 0.930 . S
C803 C804 1.355 . S
C803 C805 1.415 . S
C804 C803 1.355 . S
C804 C806 1.419 . S
C805 C800 1.425 . S
C805 C802 1.409 . S
C805 C803 1.415 . S
C806 H796 0.930 . S
C806 C804 1.419 . S
C806 C807 1.362 . S
C807 H797 0.930 . S
C807 C800 1.409 . S
C807 C806 1.362 . S
H808 C814 0.930 . S
H809 C817 0.930 . S
H810 C818 0.930 . S
H811 C819 0.930 . S
H812 C822 0.930 . S
H813 C823 0.930 . S
C814 H808 0.930 . S
C814 C815 1.355 . S
C814 C816 1.415 . S
C815 C814 1.355 . S
C815 C817 1.419 . S
C816 C814 1.415 . S
C816 C821 1.425 . S
C816 C823 1.409 . S
C817 H809 0.930 . S
C817 C815 1.419 . S
C817 C818 1.362 . S
C818 H810 0.930 . S
C818 C817 1.362 . S
C818 C821 1.409 . S
C819 H811 0.930 . S
C819 C820 1.355 . S
C819 C821 1.415 . S
C820 C819 1.355 . S
C820 C822 1.419 . S
C821 C816 1.425 . S
C821 C818 1.409 . S
C821 C819 1.415 . S
C822 H812 0.930 . S
C822 C820 1.419 . S
C822 C823 1.362 . S
C823 H813 0.930 . S
C823 C816 1.409 . S
C823 C822 1.362 . S
H824 C830 0.930 . S
H825 C833 0.930 . S
H826 C834 0.930 . S
H827 C835 0.930 . S
H828 C838 0.930 . S
H829 C839 0.930 . S
C830 H824 0.930 . S
C830 C831 1.355 . S
C830 C832 1.415 . S
C831 C830 1.355 . S
C831 C833 1.419 . S
C832 C830 1.415 . S
C832 C837 1.425 . S
C832 C839 1.409 . S
C833 H825 0.930 . S
C833 C831 1.419 . S
C833 C834 1.362 . S
C834 H826 0.930 . S
C834 C833 1.362 . S
C834 C837 1.409 . S
C835 H827 0.930 . S
C835 C836 1.355 . S
C835 C837 1.415 . S
C836 C835 1.355 . S
C836 C838 1.419 . S
C837 C832 1.425 . S
C837 C834 1.409 . S
C837 C835 1.415 . S
C838 H828 0.930 . S
C838 C836 1.419 . S
C838 C839 1.362 . S
C839 H829 0.930 . S
C839 C832 1.409 . S
C839 C838 1.362 . S
H840 C846 0.930 . S
H841 C849 0.930 . S
H842 C850 0.930 . S
H843 C851 0.930 . S
H844 C854 0.930 . S
H845 C855 0.930 . S
C846 H840 0.930 . S
C846 C847 1.355 . S
C846 C848 1.415 . S
C847 C846 1.355 . S
C847 C849 1.419 . S
C848 C846 1.415 . S
C848 C853 1.425 . S
C848 C855 1.409 . S
C849 H841 0.930 . S
C849 C847 1.419 . S
C849 C850 1.362 . S
C850 H842 0.930 . S
C850 C849 1.362 . S
C850 C853 1.409 . S
C851 H843 0.930 . S
C851 C852 1.355 . S
C851 C853 1.415 . S
C852 C851 1.355 . S
C852 C854 1.419 . S
C853 C848 1.425 . S
C853 C850 1.409 . S
C853 C851 1.415 . S
C854 H844 0.930 . S
C854 C852 1.419 . S
C854 C855 1.362 . S
C855 H845 0.930 . S
C855 C848 1.409 . S
C855 C854 1.362 . S
C479 C1 1.221 . S
C484 C319 1.302 . S
C495 C40 1.056 . S
C500 C368 1.055 . S
C516 C394 2.466 . S
C511 C99 2.513 . S
C527 C118 2.402 . S
C532 C442 2.367 . S
C548 C354 2.548 . S
C543 C16 2.416 . S
C564 C322 0.889 . S
C559 C60 0.864 . S
C580 C443 1.930 . S
C575 C79 1.965 . S
C596 C411 1.609 . S
C591 C138 1.627 . S
C607 C21 1.669 . S
C612 C439 1.765 . S
C628 C371 2.330 . S
C623 C94 2.416 . S
C639 C133 2.322 . S
C644 C323 2.307 . S
C655 C55 0.884 . S
C660 C408 0.913 . S
C676 C328 1.364 . S
C671 C157 1.302 . S
C687 C196 1.056 . S
C692 C359 1.053 . S
C703 C255 2.516 . S
C708 C403 2.468 . S
C719 C289 2.394 . S
C724 C451 2.324 . S
C735 C172 2.406 . S
C740 C363 2.546 . S
C756 C331 0.851 . S
C751 C216 0.836 . S
C772 C434 1.934 . S
C767 C235 1.965 . S
C788 C402 1.632 . S
C783 C294 1.624 . S
C799 C177 1.667 . S
C804 C448 1.759 . S
C820 C362 2.359 . S
C815 C250 2.420 . S
C836 C314 2.327 . S
C831 C274 2.331 . S
C847 C211 0.903 . S
C852 C399 0.914 . S
