# Generated by pormake.
# Topology zzz, (3,6)-cn, num edge types: 1
# Building blocks:
#     Node 0, Type 0, BuildingBlock: VETTIZ_charged_linker_0, # of connection points: 3
#     Node 1, Type 0, BuildingBlock: VETTIZ_charged_linker_0, # of connection points: 3
#     Node 2, Type 0, BuildingBlock: VETTIZ_charged_linker_0, # of connection points: 3
#     Node 3, Type 0, BuildingBlock: VETTIZ_charged_linker_0, # of connection points: 3
#     Node 4, Type 0, BuildingBlock: VETTIZ_charged_linker_0, # of connection points: 3
#     Node 5, Type 0, BuildingBlock: VETTIZ_charged_linker_0, # of connection points: 3
#     Node 6, Type 0, BuildingBlock: VETTIZ_charged_linker_0, # of connection points: 3
#     Node 7, Type 0, BuildingBlock: VETTIZ_charged_linker_0, # of connection points: 3
#     Node 8, Type 1, BuildingBlock: CUWYAW_clean_sbu_0, # of connection points: 6
#     Node 9, Type 1, BuildingBlock: CUWYAW_clean_sbu_0, # of connection points: 6
#     Node 10, Type 1, BuildingBlock: CUWYAW_clean_sbu_0, # of connection points: 6
#     Node 11, Type 1, BuildingBlock: CUWYAW_clean_sbu_0, # of connection points: 6
#     Edge 12, Type (0, 1), BuildingBlock: EZIPEK_clean_linker_0, # of connection points: 2
#     Edge 13, Type (0, 1), BuildingBlock: EZIPEK_clean_linker_0, # of connection points: 2
#     Edge 14, Type (0, 1), BuildingBlock: EZIPEK_clean_linker_0, # of connection points: 2
#     Edge 15, Type (0, 1), BuildingBlock: EZIPEK_clean_linker_0, # of connection points: 2
#     Edge 16, Type (0, 1), BuildingBlock: EZIPEK_clean_linker_0, # of connection points: 2
#     Edge 17, Type (0, 1), BuildingBlock: EZIPEK_clean_linker_0, # of connection points: 2
#     Edge 18, Type (0, 1), BuildingBlock: EZIPEK_clean_linker_0, # of connection points: 2
#     Edge 19, Type (0, 1), BuildingBlock: EZIPEK_clean_linker_0, # of connection points: 2
#     Edge 20, Type (0, 1), BuildingBlock: EZIPEK_clean_linker_0, # of connection points: 2
#     Edge 21, Type (0, 1), BuildingBlock: EZIPEK_clean_linker_0, # of connection points: 2
#     Edge 22, Type (0, 1), BuildingBlock: EZIPEK_clean_linker_0, # of connection points: 2
#     Edge 23, Type (0, 1), BuildingBlock: EZIPEK_clean_linker_0, # of connection points: 2
#     Edge 24, Type (0, 1), BuildingBlock: EZIPEK_clean_linker_0, # of connection points: 2
#     Edge 25, Type (0, 1), BuildingBlock: EZIPEK_clean_linker_0, # of connection points: 2
#     Edge 26, Type (0, 1), BuildingBlock: EZIPEK_clean_linker_0, # of connection points: 2
#     Edge 27, Type (0, 1), BuildingBlock: EZIPEK_clean_linker_0, # of connection points: 2
#     Edge 28, Type (0, 1), BuildingBlock: EZIPEK_clean_linker_0, # of connection points: 2
#     Edge 29, Type (0, 1), BuildingBlock: EZIPEK_clean_linker_0, # of connection points: 2
#     Edge 30, Type (0, 1), BuildingBlock: EZIPEK_clean_linker_0, # of connection points: 2
#     Edge 31, Type (0, 1), BuildingBlock: EZIPEK_clean_linker_0, # of connection points: 2
#     Edge 32, Type (0, 1), BuildingBlock: EZIPEK_clean_linker_0, # of connection points: 2
#     Edge 33, Type (0, 1), BuildingBlock: EZIPEK_clean_linker_0, # of connection points: 2
#     Edge 34, Type (0, 1), BuildingBlock: EZIPEK_clean_linker_0, # of connection points: 2
#     Edge 35, Type (0, 1), BuildingBlock: EZIPEK_clean_linker_0, # of connection points: 2
# Relax obj value: 0.495
# Max RMSD: 0.248
# Mean RMSD: 0.235
data_MOF--net-zzz--node1-CUWYAW_clean_sbu_0--node2-VETTIZ_charged_linker_0--edge1-EZIPEK_clean_linker_0
_symmetry_space_group_name_H-M    P1
_symmetry_Int_Tables_number       1
_symmetry_cell_setting            triclinic
loop_
_symmetry_equiv_pos_as_xyz
'x, y, z'
_cell_length_a     45.42344
_cell_length_b     45.462528
_cell_length_c     15.102015
_cell_angle_alpha  89.534295
_cell_angle_beta   89.981575
_cell_angle_gamma 89.909995
loop_
_atom_site_label
_atom_site_type_symbol
_atom_site_fract_x
_atom_site_fract_y
_atom_site_fract_z
_atom_type_partial_charge
C0 C 0.80805 0.50738 0.41041 0.0
C1 C 0.82985 0.49208 0.46219 0.0
C2 C 0.82776 0.46127 0.46951 0.0
C3 C 0.78982 0.46068 0.35826 0.0
C4 C 0.78724 0.49071 0.36034 0.0
C5 C 0.75985 0.49994 0.30618 0.0
H6 H 0.65747 0.45078 0.99337 0.0
C7 C 0.76973 0.44868 0.2929 0.0
C8 C 0.74986 0.47052 0.26455 0.0
H9 H 0.65581 0.53638 0.11346 0.0
H10 H 0.69918 0.52301 0.20394 0.0
H11 H 0.71032 0.44164 0.94709 0.0
H12 H 0.67037 0.41409 0.17896 0.0
H13 H 0.69412 0.38577 0.14313 0.0
H14 H 0.66748 0.4011 0.06711 0.0
H15 H 0.71127 0.40351 0.96896 0.0
H16 H 0.7425 0.42655 0.99478 0.0
C17 C 0.76847 0.52267 0.23497 0.0
C18 C 0.73657 0.51196 0.37049 0.0
C19 C 0.81292 0.37362 0.08947 0.0
C20 C 0.80107 0.35816 0.01745 0.0
C21 C 0.77028 0.35502 1.01159 0.0
C22 C 0.75178 0.37118 0.06782 0.0
C23 C 0.76441 0.3904 0.12946 0.0
C24 C 0.79417 0.3891 0.14561 0.0
C25 C 0.80305 0.40764 0.22292 0.0
C26 C 0.77367 0.42277 0.24362 0.0
C27 C 0.75204 0.4144 0.18306 0.0
C28 C 0.8269 0.42997 0.19363 0.0
C29 C 0.81441 0.38694 0.29724 0.0
C30 C 0.66609 0.46677 0.03944 0.0
C31 C 0.65301 0.4946 0.04533 0.0
C32 C 0.66535 0.51467 0.10684 0.0
C33 C 0.69032 0.5069 0.15967 0.0
C34 C 0.70293 0.47861 0.15241 0.0
C35 C 0.69041 0.4593 0.09249 0.0
C36 C 0.70551 0.43008 0.09093 0.0
C37 C 0.72911 0.43441 0.16073 0.0
C38 C 0.72808 0.46293 0.19824 0.0
C39 C 0.71812 0.42502 0.99617 0.0
C40 C 0.68322 0.40631 0.12103 0.0
H41 H 0.8048 0.42241 0.43058 0.0
H42 H 0.80774 0.53116 0.40779 0.0
H43 H 0.73211 0.49572 0.42426 0.0
H44 H 0.71546 0.51654 0.33701 0.0
H45 H 0.74439 0.53265 0.40133 0.0
H46 H 0.78608 0.5137 0.19168 0.0
H47 H 0.77677 0.54312 0.26599 0.0
H48 H 0.74941 0.52849 0.19263 0.0
H49 H 0.83652 0.37521 0.09829 0.0
H50 H 0.76055 0.34121 0.96149 0.0
H51 H 0.72843 0.36881 0.06044 0.0
H52 H 0.81877 0.44398 0.13809 0.0
H53 H 0.84724 0.41856 0.17173 0.0
H54 H 0.83336 0.44454 0.24875 0.0
H55 H 0.79605 0.37913 0.33998 0.0
H56 H 0.83147 0.3977 0.33814 0.0
H57 H 0.82553 0.36719 0.26994 0.0
H58 H 0.84261 0.44916 0.5126 0.0
C59 C 0.8073 0.44567 0.41956 0.0
C60 C 0.13419 0.79067 1.00421 0.0
C61 C 0.1464 0.81908 1.01025 0.0
C62 C 0.13961 0.83581 0.08637 0.0
C63 C 0.10367 0.79972 0.13314 0.0
C64 C 0.11262 0.78173 0.06531 0.0
C65 C 0.09426 0.75432 0.06036 0.0
H66 H 0.97084 0.67836 0.15481 0.0
C67 C 0.0771 0.78663 0.17434 0.0
C68 C 0.07148 0.75995 0.13263 0.0
H69 H 0.04444 0.65582 0.98646 0.0
H70 H 0.06999 0.69864 0.03272 0.0
H71 H 0.01767 0.70629 0.3324 0.0
H72 H 0.97252 0.75589 0.12508 0.0
H73 H 0.96469 0.76582 0.23718 0.0
H74 H 0.95214 0.73111 0.1957 0.0
H75 H 0.9785 0.70247 0.318 0.0
H76 H 0.9935 0.73498 0.36742 0.0
C77 C 0.11452 0.72776 0.08348 0.0
C78 C 0.08013 0.75339 0.9667 0.0
C79 C 0.02465 0.84958 0.39774 0.0
C80 C 0.99946 0.84738 0.45065 0.0
C81 C 0.982 0.82157 0.44128 0.0
C82 C 0.98984 0.79889 0.38017 0.0
C83 C 0.01565 0.80163 0.32836 0.0
C84 C 0.03236 0.8269 0.33946 0.0
C85 C 0.05943 0.82714 0.284 0.0
C86 C 0.05696 0.798 0.23709 0.0
C87 C 0.03114 0.78237 0.26081 0.0
C88 C 0.08644 0.82772 0.34724 0.0
C89 C 0.05709 0.85378 0.21891 0.0
C90 C 0.99252 0.68297 0.12847 0.0
C91 C 1.00553 0.66355 0.06507 0.0
C92 C 0.03385 0.67013 0.03398 0.0
C93 C 0.04875 0.69526 0.06126 0.0
C94 C 0.03551 0.71498 0.12047 0.0
C95 C 1.00819 0.7087 0.15595 0.0
C96 C 0.9995 0.73255 0.2231 0.0
C97 C 0.02554 0.7543 0.21806 0.0
C98 C 0.04612 0.74336 0.15597 0.0
C99 C 0.99707 0.71835 0.3156 0.0
C100 C 0.97052 0.7472 0.19386 0.0
H101 H 0.11343 0.84103 0.20018 0.0
H102 H 0.13952 0.77634 0.94998 0.0
H103 H 0.07351 0.77584 0.94442 0.0
H104 H 0.05969 0.7404 0.96379 0.0
H105 H 0.09586 0.74461 0.91714 0.0
H106 H 0.13434 0.73456 0.12146 0.0
H107 H 0.12241 0.71657 0.02282 0.0
H108 H 0.10343 0.71147 0.12716 0.0
H109 H 0.03871 0.86875 0.40269 0.0
H110 H 0.96242 0.81892 0.48141 0.0
H111 H 0.97584 0.77991 0.37543 0.0
H112 H 0.08163 0.81613 0.41082 0.0
H113 H 0.09284 0.85062 0.36346 0.0
H114 H 0.10578 0.81597 0.32029 0.0
H115 H 0.06731 0.87379 0.24726 0.0
H116 H 0.03374 0.85925 0.20349 0.0
H117 H 0.067 0.84949 0.15346 0.0
H118 H 0.1485 0.85764 0.09569 0.0
C119 C 0.11856 0.82627 0.14745 0.0
C120 C 0.82436 1.00666 0.15557 0.0
C121 C 0.83321 0.01154 0.06571 0.0
C122 C 0.81233 0.02353 1.00645 0.0
C123 C 0.7777 0.03106 0.12579 0.0
C124 C 0.79578 0.01595 0.18361 0.0
C125 C 0.78104 0.01404 0.27495 0.0
H126 H 0.65796 0.06735 0.50561 0.0
C127 C 0.75312 0.04418 0.17511 0.0
C128 C 0.7523 0.0317 0.26075 0.0
H129 H 0.67792 0.97487 0.49353 0.0
H130 H 0.71919 0.9854 0.39082 0.0
H131 H 0.735 0.09325 0.48709 0.0
H132 H 0.65509 0.09648 0.38663 0.0
H133 H 0.66833 0.08639 0.27925 0.0
H134 H 0.67676 0.12151 0.32828 0.0
H135 H 0.69911 0.10878 0.50706 0.0
H136 H 0.72329 0.1253 0.42763 0.0
C137 C 0.80071 0.02864 0.34496 0.0
C138 C 0.77506 0.98176 0.29951 0.0
C139 C 0.69896 0.13475 0.06473 0.0
C140 C 0.68833 0.15957 0.11067 0.0
C141 C 0.70108 0.16638 0.19322 0.0
C142 C 0.71732 0.1448 0.2391 0.0
C143 C 0.72127 0.1174 0.19918 0.0
C144 C 0.71675 0.11451 0.10997 0.0
C145 C 0.73226 0.08774 0.07433 0.0
C146 C 0.74143 0.07276 0.16112 0.0
C147 C 0.73245 0.0895 0.23378 0.0
C148 C 0.75882 0.09826 0.01742 0.0
C149 C 0.71043 0.06859 0.02199 0.0
C150 C 0.67147 0.04935 0.48246 0.0
C151 C 0.66431 0.02041 0.50777 0.0
C152 C 0.68276 0.99748 0.47591 0.0
C153 C 0.70689 1.00347 0.41814 0.0
C154 C 0.71346 0.03272 0.39411 0.0
C155 C 0.6953 0.05499 0.42494 0.0
C156 C 0.70251 0.08422 0.38314 0.0
C157 C 0.72558 0.07506 0.31473 0.0
C158 C 0.73421 0.0455 0.32682 0.0
C159 C 0.71573 0.10408 0.45502 0.0
C160 C 0.6743 0.09779 0.34157 0.0
H161 H 0.76938 0.04163 0.98826 0.0
H162 H 0.83951 0.99684 0.20256 0.0
H163 H 0.75807 0.97223 0.25527 0.0
H164 H 0.76759 0.97979 0.36919 0.0
H165 H 0.79551 0.96847 0.29332 0.0
H166 H 0.80556 0.05182 0.32597 0.0
H167 H 0.8219 0.01662 0.35201 0.0
H168 H 0.78957 0.02865 0.4105 0.0
H169 H 0.69203 0.13024 0.99762 0.0
H170 H 0.69583 0.18686 0.22585 0.0
H171 H 0.72525 0.14919 0.30474 0.0
H172 H 0.75785 0.12222 1.00216 0.0
H173 H 0.75943 0.08738 0.95195 0.0
H174 H 0.78009 0.09435 0.05188 0.0
H175 H 0.69028 0.06421 0.06181 0.0
H176 H 0.72028 0.04705 1.00502 0.0
H177 H 0.70379 0.07974 0.95935 0.0
H178 H 0.8179 0.02653 0.93718 0.0
C179 C 0.78472 0.03306 0.0359 0.0
C180 C 0.51154 0.69814 0.42157 0.0
C181 C 0.52231 0.66824 0.41943 0.0
C182 C 0.54116 0.66028 0.34959 0.0
C183 C 0.53454 0.7076 0.27986 0.0
C184 C 0.51872 0.71802 0.35025 0.0
C185 C 0.51253 0.75138 0.33444 0.0
H186 H 0.54679 0.86795 0.03623 0.0
C187 C 0.53894 0.73084 0.21544 0.0
C188 C 0.52903 0.75795 0.24617 0.0
H189 H 0.48115 0.87376 0.24036 0.0
H190 H 0.49372 0.82309 0.29161 0.0
H191 H 0.59803 0.82096 0.13785 0.0
H192 H 0.52714 0.79318 0.96142 0.0
H193 H 0.56357 0.80172 0.9194 0.0
H194 H 0.53915 0.83001 0.94334 0.0
H195 H 0.59447 0.8387 0.03118 0.0
H196 H 0.60548 0.80083 0.03927 0.0
C197 C 0.52497 0.76967 0.4107 0.0
C198 C 0.47918 0.75591 0.32396 0.0
C199 C 0.54062 0.70819 0.89413 0.0
C200 C 0.56154 0.71472 0.82784 0.0
C201 C 0.58331 0.73605 0.8449 0.0
C202 C 0.58403 0.75031 0.92721 0.0
C203 C 0.5628 0.74302 0.99121 0.0
C204 C 0.5437 0.72029 0.97703 0.0
C205 C 0.53214 0.70767 0.06205 0.0
C206 C 0.54789 0.72743 0.12802 0.0
C207 C 0.56012 0.75145 0.08385 0.0
C208 C 0.54034 0.6748 0.07007 0.0
C209 C 0.49844 0.71175 0.06596 0.0
C210 C 0.5351 0.85851 0.0922 0.0
C211 C 0.51295 0.87471 0.13288 0.0
C212 C 0.49833 0.86166 0.20681 0.0
C213 C 0.50535 0.83241 0.23595 0.0
C214 C 0.52645 0.81581 0.18918 0.0
C215 C 0.54038 0.82926 0.11733 0.0
C216 C 0.55836 0.80847 0.06396 0.0
C217 C 0.55317 0.77998 0.11452 0.0
C218 C 0.53539 0.7838 0.19145 0.0
C219 C 0.59094 0.81775 0.06809 0.0
C220 C 0.54641 0.80808 0.96734 0.0
H221 H 0.56408 0.67393 0.23273 0.0
H222 H 0.49814 0.70557 0.47619 0.0
H223 H 0.47055 0.74219 0.26918 0.0
H224 H 0.47377 0.77911 0.30868 0.0
H225 H 0.46751 0.74954 0.38589 0.0
H226 H 0.54899 0.7656 0.41823 0.0
H227 H 0.51395 0.76375 0.47408 0.0
H228 H 0.52158 0.7935 0.39787 0.0
H229 H 0.52453 0.69098 0.8862 0.0
H230 H 0.60054 0.74033 0.797 0.0
H231 H 0.60159 0.7655 0.94117 0.0
H232 H 0.53306 0.66237 1.0111 0.0
H233 H 0.52888 0.66427 0.12673 0.0
H234 H 0.56455 0.67192 0.07648 0.0
H235 H 0.49238 0.73536 0.05862 0.0
H236 H 0.48964 0.70363 0.13031 0.0
H237 H 0.48751 0.69926 1.01223 0.0
H238 H 0.55094 0.63853 0.34788 0.0
C239 C 0.54801 0.68006 0.2819 0.0
C240 C 0.33562 0.50373 0.32627 0.0
C241 C 0.3601 0.51789 0.3685 0.0
C242 C 0.36348 0.54843 0.35575 0.0
C243 C 0.31673 0.55131 0.28072 0.0
C244 C 0.3142 0.52125 0.28038 0.0
C245 C 0.28707 0.51263 0.2247 0.0
H246 H 0.16725 0.56899 0.983 0.0
C247 C 0.29122 0.56465 0.23796 0.0
C248 C 0.27404 0.54289 0.19737 0.0
H249 H 0.18473 0.47689 0.02435 0.0
H250 H 0.22998 0.48915 0.10726 0.0
H251 H 0.1667 0.58452 0.14257 0.0
H252 H 0.23422 0.59616 0.96174 0.0
H253 H 0.23215 0.628 0.02826 0.0
H254 H 0.19939 0.61451 0.97505 0.0
H255 H 0.17838 0.62089 0.12496 0.0
H256 H 0.19161 0.59938 0.21864 0.0
C257 C 0.26551 0.49508 0.28308 0.0
C258 C 0.29724 0.49508 0.14367 0.0
C259 C 0.24045 0.64591 0.38748 0.0
C260 C 0.21194 0.65566 0.3655 0.0
C261 C 0.20498 0.66086 0.27603 0.0
C262 C 0.22282 0.64894 0.20994 0.0
C263 C 0.24612 0.63068 0.23575 0.0
C264 C 0.25742 0.63274 0.32043 0.0
C265 C 0.28344 0.61246 0.33249 0.0
C266 C 0.28042 0.59347 0.24907 0.0
C267 C 0.25689 0.6031 0.19665 0.0
C268 C 0.28052 0.59408 0.41889 0.0
C269 C 0.31149 0.6317 0.33351 0.0
C270 C 0.18109 0.55128 1.00761 0.0
C271 C 0.17239 0.52209 0.9954 0.0
C272 C 0.19087 0.49974 0.03161 0.0
C273 C 0.217 0.50683 0.07999 0.0
C274 C 0.2245 0.53658 0.09448 0.0
C275 C 0.20601 0.55796 0.05895 0.0
C276 C 0.2131 0.58813 0.09092 0.0
C277 C 0.24072 0.5823 0.14559 0.0
C278 C 0.24806 0.55191 0.14804 0.0
C279 C 0.18635 0.59896 0.14705 0.0
C280 C 0.21995 0.60793 1.0098 0.0
H281 H 0.34678 0.5876 0.2949 0.0
H282 H 0.33326 0.48007 0.3297 0.0
H283 H 0.31391 0.50776 0.10532 0.0
H284 H 0.27871 0.49028 0.0987 0.0
H285 H 0.30735 0.47387 0.16469 0.0
H286 H 0.25978 0.50776 0.34336 0.0
H287 H 0.27549 0.47384 0.30432 0.0
H288 H 0.24481 0.49034 0.24754 0.0
H289 H 0.24641 0.64325 0.45639 0.0
H290 H 0.18382 0.6701 0.25769 0.0
H291 H 0.21612 0.65125 0.14211 0.0
H292 H 0.25973 0.58123 0.41922 0.0
H293 H 0.28101 0.60838 0.47806 0.0
H294 H 0.29904 0.57846 0.42711 0.0
H295 H 0.30705 0.65362 0.36296 0.0
H296 H 0.32014 0.6354 0.26548 0.0
H297 H 0.32895 0.62196 0.37583 0.0
H298 H 0.38264 0.55962 0.38167 0.0
C299 C 0.34243 0.56489 0.30972 0.0
C300 C 0.94879 0.2229 0.64871 0.0
C301 C 0.93818 0.19411 0.65539 0.0
C302 C 0.95136 0.17177 0.60469 0.0
C303 C 0.97923 0.2083 0.52439 0.0
C304 C 0.96956 0.22948 0.58279 0.0
C305 C 0.98241 0.25908 0.56218 0.0
H306 H 1.00131 0.36386 0.29695 0.0
C307 C 0.99499 0.22303 0.45125 0.0
C308 C 0.99878 0.25228 0.47565 0.0
H309 H 0.03339 0.35733 0.56709 0.0
H310 H 0.0363 0.30398 0.55142 0.0
H311 H 0.05142 0.29758 0.24209 0.0
H312 H 0.95631 0.30095 0.27663 0.0
H313 H 0.97051 0.28603 0.17539 0.0
H314 H 0.97368 0.32481 0.19634 0.0
H315 H 0.02993 0.32311 0.17694 0.0
H316 H 0.02876 0.28442 0.15375 0.0
C317 C 1.00259 0.2678 0.64018 0.0
C318 C 0.95733 0.28167 0.54786 0.0
C319 C 0.99943 0.16842 0.16048 0.0
C320 C 0.99694 0.17599 0.07033 0.0
C321 C 0.99623 0.20666 0.04942 0.0
C322 C 0.99851 0.22863 0.11673 0.0
C323 C 1.00041 0.22014 0.20675 0.0
C324 C 0.99967 0.19022 0.22618 0.0
C325 C 0.99545 0.18416 0.32295 0.0
C326 C 0.99742 0.21494 0.36062 0.0
C327 C 1.00094 0.23671 0.29349 0.0
C328 C 0.02113 0.1647 0.35663 0.0
C329 C 0.96451 0.16991 0.33616 0.0
C330 C 1.00768 0.35091 0.35423 0.0
C331 C 0.0148 0.365 0.4367 0.0
C332 C 0.0257 0.34738 0.50637 0.0
C333 C 0.02607 0.31688 0.49995 0.0
C334 C 0.01388 0.30367 0.42576 0.0
C335 C 1.00841 0.31938 0.34985 0.0
C336 C 1.00433 0.29739 0.27276 0.0
C337 C 1.00523 0.26705 0.32081 0.0
C338 C 1.00826 0.27275 0.41158 0.0
C339 C 0.03005 0.30077 0.20741 0.0
C340 C 0.97448 0.30259 0.22747 0.0
H341 H 0.98137 0.16115 0.50162 0.0
H342 H 0.93979 0.24001 0.69022 0.0
H343 H 0.94253 0.27462 0.49339 0.0
H344 H 0.96608 0.30374 0.53084 0.0
H345 H 0.94398 0.28425 0.60892 0.0
H346 H 0.99425 0.25914 0.70452 0.0
H347 H 1.00326 0.29197 0.64902 0.0
H348 H 0.02524 0.25906 0.63109 0.0
H349 H 0.99913 0.14547 0.1804 0.0
H350 H 0.99356 0.21363 0.98117 0.0
H351 H 0.99753 0.2515 0.09776 0.0
H352 H 0.04256 0.17319 0.33161 0.0
H353 H 0.01864 0.14168 0.33372 0.0
H354 H 0.02271 0.16451 0.42972 0.0
H355 H 0.95219 0.16737 0.27311 0.0
H356 H 0.94991 0.18356 0.37802 0.0
H357 H 0.96613 0.14748 0.36537 0.0
H358 H 0.94449 0.14912 0.61259 0.0
C359 C 0.97214 0.17874 0.53953 0.0
C360 C 0.30351 0.01843 0.10714 0.0
C361 C 0.33231 1.00743 0.08693 0.0
C362 C 0.34327 0.98399 0.13792 0.0
C363 C 0.29827 0.98166 0.22475 0.0
C364 C 0.28675 1.00506 0.17724 0.0
C365 C 0.2559 0.01276 0.21269 0.0
H366 H 0.14577 0.97383 0.51695 0.0
C367 C 0.27629 0.97143 0.29072 0.0
C368 C 0.25079 0.98915 0.28526 0.0
H369 H 0.14246 0.04922 0.34303 0.0
H370 H 0.19048 0.03539 0.27895 0.0
H371 H 0.1704 0.92865 0.37597 0.0
H372 H 0.21011 0.98259 0.57482 0.0
H373 H 0.22835 0.94872 0.5807 0.0
H374 H 0.18934 0.95012 0.60076 0.0
H375 H 0.16918 0.9192 0.49143 0.0
H376 H 0.19906 0.90738 0.42104 0.0
C377 C 0.23323 1.01027 0.13756 0.0
C378 C 0.25688 0.04385 0.25209 0.0
C379 C 0.30722 0.88977 0.5001 0.0
C380 C 0.29318 0.87494 0.57044 0.0
C381 C 0.26254 0.87835 0.5806 0.0
C382 C 0.24699 0.89877 0.52797 0.0
C383 C 0.2622 0.91557 0.46371 0.0
C384 C 0.29144 0.90967 0.44798 0.0
C385 C 0.30393 0.92803 0.37427 0.0
C386 C 0.27788 0.94768 0.35204 0.0
C387 C 0.25368 0.94058 0.40515 0.0
C388 C 0.31166 0.90692 0.29708 0.0
C389 C 0.3303 0.94584 0.41173 0.0
C390 C 0.15515 0.98737 0.46473 0.0
C391 C 0.14022 0.01252 0.4355 0.0
C392 C 0.1535 0.02962 0.36718 0.0
C393 C 0.18137 0.02171 0.33042 0.0
C394 C 0.19633 0.99653 0.36248 0.0
C395 C 0.18264 0.97999 0.42846 0.0
C396 C 0.20088 0.95459 0.45888 0.0
C397 C 0.22805 0.95828 0.40205 0.0
C398 C 0.22604 0.98277 0.34359 0.0
C399 C 0.1841 0.92586 0.43657 0.0
C400 C 0.2075 0.95887 0.55896 0.0
H401 H 0.33714 0.95364 0.24086 0.0
H402 H 0.29441 0.03662 0.06941 0.0
H403 H 0.27498 0.04551 0.30136 0.0
H404 H 0.23622 0.04949 0.28651 0.0
H405 H 0.26079 0.06057 0.19929 0.0
H406 H 0.23443 0.98814 0.10692 0.0
H407 H 0.23752 0.02703 0.0852 0.0
H408 H 0.21052 0.01339 0.1621 0.0
H409 H 0.33061 0.88726 0.4886 0.0
H410 H 0.25067 0.86589 0.63031 0.0
H411 H 0.22396 0.90141 0.54162 0.0
H412 H 0.29815 0.88651 0.29937 0.0
H413 H 0.33513 0.90008 0.29954 0.0
H414 H 0.30681 0.91662 0.23118 0.0
H415 H 0.33322 0.96745 0.37891 0.0
H416 H 0.35119 0.93323 0.40678 0.0
H417 H 0.32687 0.95122 0.48276 0.0
H418 H 0.36505 0.97524 0.12477 0.0
C419 C 0.32671 0.97125 0.20562 0.0
C420 C 0.48958 0.30774 1.01102 0.0
C421 C 0.50528 0.32356 0.94351 0.0
C422 C 0.53158 0.31095 0.91135 0.0
C423 C 0.53127 0.27499 0.02976 0.0
C424 C 0.50299 0.28269 0.05212 0.0
C425 C 0.4922 0.26265 0.12748 0.0
H426 H 0.53141 0.17551 0.48072 0.0
C427 C 0.5436 0.25548 0.09856 0.0
C428 C 0.51996 0.24428 0.14924 0.0
H429 H 0.46127 0.14946 0.30611 0.0
H430 H 0.47505 0.18947 0.20155 0.0
H431 H 0.57539 0.17525 0.34476 0.0
H432 H 0.52765 0.24838 0.44727 0.0
H433 H 0.56159 0.26339 0.4155 0.0
H434 H 0.56044 0.23471 0.49901 0.0
H435 H 0.58378 0.19228 0.44807 0.0
H436 H 0.60078 0.20444 0.34658 0.0
C437 C 0.46664 0.24351 0.0948 0.0
C438 C 0.48272 0.28125 0.20735 0.0
C439 C 0.63959 0.29619 0.20948 0.0
C440 C 0.64381 0.30403 0.29837 0.0
C441 C 0.63406 0.28478 0.36523 0.0
C442 C 0.61515 0.26163 0.34446 0.0
C443 C 0.60472 0.259 0.25716 0.0
C444 C 0.61744 0.27563 0.19 0.0
C445 C 0.59932 0.27484 0.10581 0.0
C446 C 0.57223 0.25743 0.1374 0.0
C447 C 0.57658 0.24711 0.22447 0.0
C448 C 0.61668 0.25741 0.036 0.0
C449 C 0.59212 0.30669 0.07308 0.0
C450 C 0.51795 0.17909 0.42239 0.0
C451 C 0.49463 0.15979 0.40388 0.0
C452 C 0.47864 0.16455 0.32409 0.0
C453 C 0.48604 0.18794 0.26473 0.0
C454 C 0.50936 0.20702 0.28553 0.0
C455 C 0.5256 0.20139 0.36155 0.0
C456 C 0.55392 0.21847 0.36246 0.0
C457 C 0.55373 0.232 0.26996 0.0
C458 C 0.52631 0.22827 0.22927 0.0
C459 C 0.57997 0.19673 0.37658 0.0
C460 C 0.55106 0.24237 0.43495 0.0
H461 H 0.56417 0.27699 0.92666 0.0
H462 H 0.46845 0.31565 0.03401 0.0
H463 H 0.50109 0.29559 0.22933 0.0
H464 H 0.47626 0.26684 0.26385 0.0
H465 H 0.46359 0.29543 0.19003 0.0
H466 H 0.47446 0.22727 0.04541 0.0
H467 H 0.44939 0.25743 0.06323 0.0
H468 H 0.45609 0.23167 0.15078 0.0
H469 H 0.64854 0.31021 0.15791 0.0
H470 H 0.63793 0.28981 0.43426 0.0
H471 H 0.60701 0.24871 0.39877 0.0
H472 H 0.62474 0.23623 0.06412 0.0
H473 H 0.6361 0.27019 0.01293 0.0
H474 H 0.60283 0.25216 0.97795 0.0
H475 H 0.57083 0.31463 0.10019 0.0
H476 H 0.59226 0.30846 1.00009 0.0
H477 H 0.60866 0.32328 0.09146 0.0
H478 H 0.54327 0.32123 0.85677 0.0
C479 C 0.54402 0.28608 0.95235 0.0
C480 C 0.93208 0.04727 0.59716 0.0
Eu481 Eu 0.96867 0.0205 0.70372 0.0
C482 C 0.9079 0.06798 0.61473 0.0
C483 C 0.88938 0.06421 0.68867 0.0
C484 C 0.87322 0.088 0.7214 0.0
C485 C 0.87545 0.11574 0.68051 0.0
C486 C 0.89012 0.11776 0.59807 0.0
C487 C 0.9065 0.09419 0.56622 0.0
C488 C 0.94081 0.99863 0.85378 0.0
C489 C 0.99198 0.06761 0.85182 0.0
C490 C 0.04469 0.97289 0.9229 0.0
Eu491 Eu 1.00973 1.00151 0.81561 0.0
C492 C 0.06903 0.95205 0.91013 0.0
C493 C 0.075 0.93101 0.97586 0.0
C494 C 0.09727 0.9103 0.96336 0.0
C495 C 0.1139 0.91037 0.88496 0.0
C496 C 0.10838 0.93174 0.81957 0.0
C497 C 0.08593 0.95243 0.83195 0.0
C498 C 0.03717 0.02469 0.66556 0.0
C499 C 0.98749 0.95478 0.6679 0.0
O500 O 0.95847 0.05716 0.61445 0.0
O501 O 0.92835 0.0204 0.6256 0.0
O502 O 0.93467 0.99177 0.77323 0.0
O503 O 0.96357 0.01479 0.85232 0.0
O504 O 0.98145 0.06488 0.7703 0.0
O505 O 1.00116 0.04355 0.89234 0.0
O506 O 0.01851 0.96352 0.90136 0.0
O507 O 0.04946 0.99976 0.89587 0.0
O508 O 0.0441 0.02987 0.74684 0.0
O509 O 0.01492 1.00787 0.66712 0.0
O510 O 0.9965 0.95745 0.75069 0.0
O511 O 0.97891 0.97887 0.62659 0.0
H512 H 0.88922 0.04366 0.72538 0.0
H513 H 0.861 0.08519 0.78232 0.0
H514 H 0.8919 0.13846 0.56265 0.0
H515 H 0.92016 0.09738 0.50806 0.0
H516 H 0.06216 0.93035 0.03635 0.0
H517 H 0.10124 0.89383 0.0143 0.0
H518 H 0.12096 0.93196 0.75862 0.0
H519 H 0.08151 0.96847 0.78015 0.0
C520 C 0.45767 0.96205 0.62095 0.0
Eu521 Eu 0.48398 0.9985 0.72704 0.0
C522 C 0.43688 0.93756 0.63389 0.0
C523 C 0.41134 0.9367 0.58218 0.0
C524 C 0.39015 0.91515 0.59766 0.0
C525 C 0.39413 0.89399 0.66482 0.0
C526 C 0.42002 0.89419 0.7153 0.0
C527 C 0.44129 0.91593 0.70004 0.0
C528 C 0.50258 0.97265 0.8849 0.0
C529 C 0.43501 0.02377 0.86109 0.0
C530 C 0.52815 0.07626 0.9415 0.0
Eu531 Eu 0.50179 0.04 0.83495 0.0
C532 C 0.54923 0.10093 0.9345 0.0
C533 C 0.53937 0.13013 0.92277 0.0
C534 C 0.55909 0.15366 0.92934 0.0
C535 C 0.58878 0.14824 0.9489 0.0
C536 C 0.59896 0.11909 0.95368 0.0
C537 C 0.57941 0.09567 0.9469 0.0
C538 C 0.48428 0.06636 0.67705 0.0
C539 C 0.55085 0.01389 0.70236 0.0
O540 O 0.44751 0.98828 0.63823 0.0
O541 O 0.48435 0.95811 0.65062 0.0
O542 O 0.50952 0.96405 0.80646 0.0
O543 O 0.48661 0.99533 0.87739 0.0
O544 O 0.43926 0.016 0.77801 0.0
O545 O 0.4587 0.0303 0.90701 0.0
O546 O 0.53806 0.04992 0.92425 0.0
O547 O 0.50174 0.08065 0.9103 0.0
O548 O 0.47636 0.07444 0.75522 0.0
O549 O 0.4996 0.04318 0.68484 0.0
O550 O 0.54644 0.02185 0.78522 0.0
O551 O 0.52713 1.00814 0.65558 0.0
H552 H 0.40745 0.95315 0.53115 0.0
H553 H 0.37018 0.91542 0.5586 0.0
H554 H 0.42334 0.8781 0.76768 0.0
H555 H 0.46084 0.91615 0.74101 0.0
H556 H 0.51624 0.1349 0.91277 0.0
H557 H 0.55086 0.176 0.92536 0.0
H558 H 0.62181 0.11447 0.96934 0.0
H559 H 0.58776 0.07352 0.95593 0.0
C560 C 0.55298 0.46496 0.51222 0.0
Eu561 Eu 0.52301 0.48967 0.63833 0.0
C562 C 0.58033 0.44783 0.5005 0.0
C563 C 0.60474 0.461 0.45856 0.0
C564 C 0.62863 0.44388 0.43122 0.0
C565 C 0.62798 0.41334 0.44393 0.0
C566 C 0.60526 0.40076 0.49479 0.0
C567 C 0.58152 0.41783 0.52259 0.0
C568 C 0.55661 0.50732 0.78191 0.0
C569 C 0.49532 0.4421 0.78304 0.0
C570 C 0.46799 0.54502 0.89097 0.0
Eu571 Eu 0.48593 0.51131 0.76562 0.0
C572 C 0.48719 0.56973 0.91442 0.0
C573 C 0.47609 0.59853 0.91499 0.0
C574 C 0.49445 0.62206 0.89108 0.0
C575 C 0.5233 0.61659 0.86052 0.0
C576 C 0.5348 0.58824 0.86927 0.0
C577 C 0.51749 0.56541 0.90088 0.0
C578 C 0.45277 0.49134 0.62407 0.0
C579 C 0.50996 0.55722 0.61922 0.0
O580 O 0.53039 0.45233 0.55077 0.0
O581 O 0.5564 0.49221 0.53595 0.0
O582 O 0.56272 0.51218 0.69973 0.0
O583 O 0.53204 0.49403 0.78488 0.0
O584 O 0.51007 0.44583 0.70769 0.0
O585 O 0.48305 0.46503 0.82102 0.0
O586 O 0.47891 0.51893 0.90716 0.0
O587 O 0.45747 0.54705 0.81067 0.0
O588 O 0.4459 0.48881 0.70721 0.0
O589 O 0.47674 0.50568 0.61972 0.0
O590 O 0.50627 0.55356 0.70516 0.0
O591 O 0.5117 0.53339 0.57104 0.0
H592 H 0.60448 0.48418 0.44143 0.0
H593 H 0.64591 0.45393 0.39187 0.0
H594 H 0.60436 0.37715 0.50503 0.0
H595 H 0.56329 0.40711 0.55591 0.0
H596 H 0.45281 0.60249 0.92494 0.0
H597 H 0.48522 0.64403 0.88734 0.0
H598 H 0.55675 0.58342 0.84696 0.0
H599 H 0.52696 0.54357 0.9015 0.0
C600 C 0.0288 0.57655 0.56961 0.0
Eu601 Eu 1.00541 0.53978 0.6829 0.0
C602 C 0.05199 0.59884 0.56824 0.0
C603 C 0.05488 0.617 0.49346 0.0
C604 C 0.08026 0.6338 0.48174 0.0
C605 C 0.103 0.63228 0.54446 0.0
C606 C 0.09855 0.61687 0.62432 0.0
C607 C 0.07306 0.6001 0.63613 0.0
C608 C 0.98251 0.56482 0.8359 0.0
C609 C 0.05568 0.51656 0.82057 0.0
C610 C 0.96412 0.46155 0.91031 0.0
Eu611 Eu 0.98925 0.49682 0.79628 0.0
C612 C 0.94308 0.43706 0.90593 0.0
C613 C 0.92121 0.43465 0.97089 0.0
C614 C 0.89997 0.41264 0.96544 0.0
C615 C 0.90029 0.39272 0.89493 0.0
C616 C 0.92259 0.3945 0.83095 0.0
C617 C 0.94391 0.41661 0.83641 0.0
C618 C 1.01024 0.47124 0.64278 0.0
C619 C 0.94 0.51786 0.65008 0.0
O620 O 0.03749 0.54931 0.57956 0.0
O621 O 1.00559 0.58258 0.61664 0.0
O622 O 0.97585 0.5718 0.75532 0.0
O623 O 1.00053 0.5434 0.83226 0.0
O624 O 0.05115 0.52778 0.74066 0.0
O625 O 0.03277 0.50657 0.86483 0.0
O626 O 0.95378 0.48762 0.89031 0.0
O627 O 0.99009 0.45687 0.87637 0.0
O628 O 0.01713 0.4634 0.7225 0.0
O629 O 0.99335 0.49342 0.64731 0.0
O630 O 0.94402 0.50625 0.72998 0.0
O631 O 0.96279 0.53003 0.61054 0.0
H632 H 0.03859 0.61646 0.44107 0.0
H633 H 0.08352 0.64535 0.41947 0.0
H634 H 0.11607 0.61523 0.67277 0.0
H635 H 0.07088 0.58641 0.69481 0.0
H636 H 0.92023 0.45017 0.02492 0.0
H637 H 0.88274 0.41159 0.01507 0.0
H638 H 0.92298 0.37937 0.77592 0.0
H639 H 0.96072 0.418 0.78573 0.0
C640 C 0.08519 1.00462 0.46212 0.0
C641 C 0.11142 0.02061 0.48064 0.0
C642 C 0.08498 0.04586 0.6018 0.0
C643 C 0.06016 0.027 0.59135 0.0
N644 N 0.03248 0.99904 0.48527 0.0
N645 N 0.13671 0.05551 0.57229 0.0
C646 C 0.05901 1.00932 0.51387 0.0
C647 C 0.11123 0.04129 0.55082 0.0
N648 N 0.08555 0.98417 0.3963 0.0
N649 N 0.08269 0.0696 0.65624 0.0
H650 H 0.15603 0.05354 0.53552 0.0
H651 H 0.13932 0.06768 0.62986 0.0
H652 H 0.06304 0.07524 0.68745 0.0
H653 H 0.09873 0.08583 0.66123 0.0
H654 H 0.06889 0.96882 0.3868 0.0
H655 H 0.10347 0.98146 0.35384 0.0
H656 H 0.02957 0.98754 0.42664 0.0
H657 H 0.01267 1.00591 0.5129 0.0
C658 C 0.51328 0.11304 0.47885 0.0
C659 C 0.4898 0.13328 0.4646 0.0
C660 C 0.46084 0.10545 0.57645 0.0
C661 C 0.48602 0.0883 0.60029 0.0
N662 N 0.53886 0.08276 0.586 0.0
N663 N 0.442 0.15062 0.50978 0.0
C664 C 0.51293 0.09375 0.55415 0.0
C665 C 0.46367 0.12986 0.51577 0.0
N666 N 0.5361 0.11208 0.42001 0.0
N667 N 0.43394 0.09811 0.61041 0.0
H668 H 0.44321 0.16864 0.4668 0.0
H669 H 0.42399 0.15126 0.55244 0.0
H670 H 0.43086 0.08036 0.65363 0.0
H671 H 0.41435 0.10779 0.58914 0.0
H672 H 0.55245 0.09598 0.42254 0.0
H673 H 0.53685 0.1253 0.36323 0.0
H674 H 0.55929 0.0882 0.55907 0.0
H675 H 0.54052 0.07171 0.64624 0.0
C676 C 0.41332 0.50285 0.3972 0.0
C677 C 0.38332 0.50249 0.42494 0.0
C678 C 0.39993 0.48238 0.56909 0.0
C679 C 0.42977 0.4898 0.5496 0.0
N680 N 0.46539 0.50013 0.43511 0.0
N681 N 0.34835 0.49292 0.54174 0.0
C682 C 0.43662 0.49787 0.46034 0.0
C683 C 0.3767 0.49219 0.51178 0.0
N684 N 0.41934 0.50726 0.30941 0.0
N685 N 0.39371 0.46437 0.63936 0.0
H686 H 0.33067 0.49944 0.50219 0.0
H687 H 0.34278 0.48905 0.60777 0.0
H688 H 0.41011 0.45354 0.67529 0.0
H689 H 0.37261 0.45658 0.65293 0.0
H690 H 0.44025 0.50576 0.28173 0.0
H691 H 0.40274 0.51006 0.26229 0.0
H692 H 0.47231 0.51034 0.37685 0.0
H693 H 0.4825 0.49105 0.47225 0.0
C694 C 0.03649 0.41539 0.46889 0.0
C695 C 1.0111 0.39743 0.45807 0.0
C696 C 0.98338 0.43099 0.55627 0.0
C697 C 1.0091 0.44842 0.56979 0.0
N698 N 0.05814 0.4609 0.52343 0.0
N699 N 0.95875 0.39256 0.47241 0.0
C700 C 0.03497 0.4418 0.52062 0.0
C701 C 0.98398 0.40698 0.49497 0.0
N702 N 0.06247 0.40627 0.4327 0.0
N703 N 0.95883 0.43608 0.60623 0.0
H704 H 0.95874 0.37487 0.42886 0.0
H705 H 0.93776 0.39975 0.48955 0.0
H706 H 0.95728 0.45321 0.65131 0.0
H707 H 0.94065 0.42219 0.6079 0.0
H708 H 0.08276 0.41584 0.44614 0.0
H709 H 0.06369 0.38814 0.39086 0.0
H710 H 0.07681 0.45906 0.48394 0.0
H711 H 0.05761 0.48015 0.56064 0.0
C712 C 0.88041 0.03239 1.00312 0.0
C713 C 0.86433 1.00715 0.03068 0.0
C714 C 0.90252 0.97625 0.95903 0.0
C715 C 0.91594 1.00168 0.92069 0.0
N716 N 0.91213 0.05385 0.8918 0.0
N717 N 0.85917 0.95453 0.02913 0.0
C718 C 0.90356 0.02974 0.93953 0.0
C719 C 0.87534 0.97886 1.00782 0.0
N720 N 0.87332 0.05919 0.03746 0.0
N721 N 0.91584 0.94953 0.94912 0.0
H722 H 0.83984 0.95568 0.06625 0.0
H723 H 0.86393 0.93356 1.00588 0.0
H724 H 0.93534 0.94692 0.91341 0.0
H725 H 0.90898 0.93051 0.98192 0.0
H726 H 0.88595 0.07801 0.02675 0.0
H727 H 0.85665 0.06186 0.08433 0.0
H728 H 0.90187 0.0742 0.89701 0.0
H729 H 0.92768 0.05318 0.84132 0.0
C730 C 0.52568 0.92736 0.09138 0.0
C731 C 0.50493 0.90394 0.08944 0.0
C732 C 0.47823 0.93053 0.96995 0.0
C733 C 0.50156 0.9513 0.96248 0.0
N734 N 0.54784 0.96951 0.01612 0.0
N735 N 0.46188 0.88259 0.02278 0.0
C736 C 0.52521 0.94989 0.02406 0.0
C737 C 0.481 0.90567 0.02862 0.0
N738 N 0.54593 0.92787 0.15819 0.0
N739 N 0.4533 0.93458 0.92076 0.0
H740 H 0.46256 0.86455 0.06578 0.0
H741 H 0.44642 0.88047 0.97237 0.0
H742 H 0.45087 0.95198 0.87603 0.0
H743 H 0.43421 0.92223 0.92926 0.0
H744 H 0.5603 0.94528 0.16901 0.0
H745 H 0.54648 0.91181 0.20797 0.0
H746 H 0.56743 0.96789 0.05152 0.0
H747 H 0.54762 0.98678 0.97016 0.0
C748 C 0.62792 0.5233 0.91794 0.0
C749 C 0.62666 0.50137 0.98575 0.0
C750 C 0.5826 0.48108 0.91244 0.0
C751 C 0.58082 0.50543 0.85262 0.0
N752 N 0.60213 0.55178 0.80582 0.0
N753 N 0.59752 0.46387 0.0577 0.0
C754 C 0.60354 0.5272 0.85798 0.0
C755 C 0.60213 0.48197 0.98648 0.0
N756 N 0.65308 0.53932 0.90671 0.0
N757 N 0.56844 0.45545 0.89383 0.0
H758 H 0.61086 0.46431 0.11396 0.0
H759 H 0.57872 0.45088 0.06408 0.0
H760 H 0.55722 0.45198 0.83478 0.0
H761 H 0.57162 0.43627 0.93101 0.0
H762 H 0.65676 0.55303 0.85223 0.0
H763 H 0.67146 0.53698 0.94738 0.0
H764 H 0.61583 0.56991 0.81414 0.0
H765 H 0.58557 0.55528 0.75957 0.0
C766 C 0.97234 0.63968 0.95019 0.0
C767 C 0.99093 0.63655 0.02546 0.0
C768 C 0.99442 0.58298 0.99415 0.0
C769 C 0.98035 0.58735 0.91094 0.0
N770 N 0.94233 0.61579 0.83893 0.0
N771 N 0.01852 0.60459 0.12234 0.0
C772 C 0.96519 0.61454 0.89754 0.0
C773 C 1.00117 0.60783 0.04909 0.0
N774 N 0.96277 0.66706 0.92575 0.0
N775 N 0.99925 0.55494 0.02369 0.0
H776 H 0.02237 0.62183 0.1661 0.0
H777 H 0.02998 0.58538 0.13779 0.0
H778 H 0.99207 0.53663 0.98867 0.0
H779 H 1.00723 0.5498 0.08653 0.0
H780 H 0.9527 0.67156 0.86519 0.0
H781 H 0.96643 0.68567 0.96414 0.0
H782 H 0.92884 0.63416 0.83087 0.0
H783 H 0.93409 0.59709 0.80807 0.0
C784 C 0.91374 0.16864 0.78181 0.0
C785 C 0.91128 0.18704 0.70628 0.0
C786 C 0.86181 0.1679 0.68067 0.0
C787 C 0.87022 0.14326 0.7317 0.0
N788 N 0.89089 0.13175 0.87422 0.0
N789 N 0.87927 0.21124 0.60081 0.0
C790 C 0.89121 0.14814 0.79868 0.0
C791 C 0.8835 0.18983 0.6633 0.0
N792 N 0.93781 0.16927 0.83515 0.0
N793 N 0.83503 0.1676 0.64039 0.0
H794 H 0.89491 0.22752 0.58842 0.0
H795 H 0.86039 0.21308 0.56219 0.0
H796 H 0.82057 0.15005 0.65097 0.0
H797 H 0.82682 0.18479 0.6017 0.0
H798 H 0.95518 0.18399 0.82553 0.0
H799 H 0.95518 0.18399 0.82553 0.0
H800 H 0.90693 0.13396 0.92326 0.0
H801 H 0.87329 0.1178 0.88877 0.0
C802 C 0.31721 0.87523 0.7171 0.0
C803 C 0.31222 0.85992 0.63741 0.0
C804 C 0.36472 0.85002 0.62377 0.0
C805 C 0.36963 0.87336 0.68335 0.0
N806 N 0.35279 0.90165 0.80686 0.0
N807 N 0.32824 0.82112 0.54366 0.0
C808 C 0.34655 0.88319 0.73866 0.0
C809 C 0.33516 0.84237 0.60319 0.0
N810 N 0.29394 0.88273 0.76926 0.0
N811 N 0.38817 0.83744 0.58219 0.0
H812 H 0.30628 0.81693 0.52738 0.0
H813 H 0.34353 0.80712 0.51469 0.0
H814 H 0.40977 0.8431 0.59843 0.0
H815 H 0.38639 0.82154 0.53336 0.0
H816 H 0.2959 0.8934 0.82964 0.0
H817 H 0.27269 0.87553 0.75564 0.0
H818 H 0.33696 0.91222 0.84491 0.0
H819 H 0.37444 0.90622 0.82517 0.0
C820 C 0.66882 0.34536 0.38152 0.0
C821 C 0.64713 0.33569 0.32059 0.0
C822 C 0.62938 0.38603 0.30669 0.0
C823 C 0.64446 0.39347 0.3846 0.0
N824 N 0.68081 0.3815 0.49411 0.0
N825 N 0.59989 0.34694 0.25212 0.0
C826 C 0.66548 0.37368 0.42045 0.0
C827 C 0.62582 0.3561 0.28825 0.0
N828 N 0.69177 0.32735 0.40345 0.0
N829 N 0.61546 0.40701 0.25701 0.0
H830 H 0.59306 0.32512 0.25399 0.0
H831 H 0.58319 0.36148 0.23344 0.0
H832 H 0.61761 0.42939 0.26979 0.0
H833 H 0.60499 0.40208 0.19743 0.0
H834 H 0.70923 0.33399 0.44325 0.0
H835 H 0.69435 0.30658 0.37552 0.0
H836 H 0.69427 0.36703 0.52948 0.0
H837 H 0.67899 0.40257 0.52075 0.0
C838 C 0.17687 0.6202 0.43587 0.0
C839 C 0.1871 0.64972 0.42703 0.0
C840 C 0.14505 0.66706 0.51477 0.0
C841 C 0.13334 0.63819 0.51371 0.0
N842 N 0.13614 0.58765 0.46547 0.0
N843 N 0.18136 0.70137 0.45581 0.0
C844 C 0.14896 0.61479 0.47362 0.0
C845 C 0.17141 0.67322 0.46663 0.0
N846 N 0.19346 0.59706 0.40685 0.0
N847 N 0.13091 0.68835 0.56196 0.0
H848 H 0.20123 0.70622 0.42419 0.0
H849 H 0.16958 0.71993 0.47469 0.0
H850 H 0.11151 0.68421 0.59694 0.0
H851 H 0.13926 0.70937 0.57174 0.0
H852 H 0.18957 0.57533 0.42584 0.0
H853 H 0.21207 0.59911 0.36764 0.0
H854 H 0.14425 0.57121 0.42447 0.0
H855 H 0.11605 0.58189 0.49394 0.0
C856 C 0.17562 0.86018 0.94706 0.0
C857 C 0.15974 0.83415 0.93085 0.0
C858 C 0.12715 0.86024 0.8309 0.0
C859 C 0.13589 0.88671 0.87226 0.0
N860 N 0.17366 0.9138 0.94771 0.0
N861 N 0.14051 0.80935 0.80397 0.0
C862 C 0.16258 0.88745 0.92112 0.0
C863 C 0.14226 0.83405 0.85387 0.0
N864 N 0.20065 0.85839 0.99634 0.0
N865 N 0.10353 0.85979 0.7753 0.0
H866 H 0.15366 0.79105 0.81804 0.0
H867 H 0.12902 0.80854 0.74431 0.0
H868 H 0.09249 0.87892 0.75615 0.0
H869 H 0.09452 0.84035 0.75126 0.0
H870 H 0.21383 0.87633 1.01167 0.0
H871 H 0.20853 0.83794 0.01796 0.0
H872 H 0.19199 0.91597 0.98841 0.0
H873 H 0.16417 0.9337 0.92752 0.0
C874 C 0.63428 0.17283 0.12371 0.0
C875 C 0.66147 0.1748 0.07627 0.0
C876 C 0.63443 0.17813 0.93663 0.0
C877 C 0.6084 0.17145 0.98348 0.0
N878 N 0.58122 0.17853 0.11739 0.0
N879 N 0.68608 0.19194 0.94489 0.0
C880 C 0.60762 0.17511 0.07573 0.0
C881 C 0.66089 0.18247 0.98502 0.0
N882 N 0.63336 0.16559 0.21162 0.0
N883 N 0.63404 0.17774 0.84642 0.0
H884 H 0.70552 0.19477 0.98076 0.0
H885 H 0.68693 0.1992 0.87936 0.0
H886 H 0.61437 0.17501 0.81159 0.0
H887 H 0.65287 0.1793 0.80736 0.0
H888 H 0.61413 0.15875 0.24314 0.0
H889 H 0.65147 0.16488 0.25319 0.0
H890 H 0.57938 0.18265 0.18478 0.0
H891 H 0.56154 0.18047 0.08235 0.0
C892 C 0.53927 0.68376 0.71702 0.0
C893 C 0.56558 0.69223 0.75848 0.0
C894 C 0.57029 0.64577 0.83309 0.0
C895 C 0.5403 0.63956 0.81153 0.0
N896 N 0.50055 0.64699 0.70628 0.0
N897 N 0.61362 0.67364 0.78976 0.0
C898 C 0.52626 0.65646 0.74298 0.0
C899 C 0.58399 0.66962 0.7891 0.0
N900 N 0.52541 0.70375 0.66391 0.0
N901 N 0.58432 0.63222 0.90221 0.0
H902 H 0.62299 0.6925 0.76165 0.0
H903 H 0.62824 0.65727 0.81059 0.0
H904 H 0.57388 0.61787 0.94607 0.0
H905 H 0.60543 0.63814 0.92234 0.0
H906 H 0.50463 0.70077 0.63666 0.0
H907 H 0.53544 0.72387 0.64889 0.0
H908 H 0.48891 0.65865 0.65824 0.0
H909 H 0.49189 0.6262 0.71977 0.0
C910 C 0.84752 0.33498 0.96943 0.0
C911 C 0.82154 0.35005 0.94459 0.0
C912 C 0.84933 0.38183 0.84464 0.0
C913 C 0.87542 0.37191 0.88668 0.0
N914 N 0.90122 0.33407 0.96681 0.0
N915 N 0.79663 0.37553 0.82631 0.0
C916 C 0.87514 0.34619 0.9402 0.0
C917 C 0.82211 0.36907 0.87004 0.0
N918 N 0.84527 0.312 0.02763 0.0
N919 N 0.8505 0.40489 0.78617 0.0
H920 H 0.77676 0.36547 0.84254 0.0
H921 H 0.7957 0.3881 0.76847 0.0
H922 H 0.87037 0.41385 0.76431 0.0
H923 H 0.83199 0.41568 0.76139 0.0
H924 H 0.86306 0.30025 0.05302 0.0
H925 H 0.82467 0.30447 0.0487 0.0
H926 H 0.90303 0.31553 1.00721 0.0
H927 H 0.92139 0.34231 0.94472 0.0
C928 C 0.01239 0.14683 0.92948 0.0
C929 C 0.99288 0.1511 1.00265 0.0
C930 C 0.97366 0.10073 0.97753 0.0
C931 C 0.9916 0.09699 0.90105 0.0
N932 N 0.02374 0.12005 0.79431 0.0
N933 N 0.94878 0.1331 0.07618 0.0
C934 C 1.00936 0.12131 0.87352 0.0
C935 C 0.97168 0.12861 0.01965 0.0
N936 N 0.03516 0.16592 0.91636 0.0
N937 N 0.95794 0.07771 1.01138 0.0
H938 H 0.94413 0.1533 0.10549 0.0
H939 H 0.94413 0.1533 0.10549 0.0
H940 H 0.95954 0.05642 0.98712 0.0
H941 H 0.94456 0.07973 0.06725 0.0
H942 H 0.05195 0.1623 0.87072 0.0
H943 H 0.03882 0.18408 0.95643 0.0
H944 H 0.03441 0.13807 0.76587 0.0
H945 H 0.02288 0.10169 0.75358 0.0
C946 C 0.35636 1.00015 0.93788 0.0
C947 C 0.35235 0.0183 0.01299 0.0
C948 C 0.39733 0.04544 0.96879 0.0
C949 C 0.40467 0.02347 0.9053 0.0
N950 N 0.39059 0.97757 0.83599 0.0
N951 N 0.37004 0.05808 0.10199 0.0
C952 C 0.38375 1.00049 0.89027 0.0
C953 C 0.373 0.04113 0.02833 0.0
N954 N 0.33392 0.98204 0.91312 0.0
N955 N 0.41301 0.07105 0.97037 0.0
H956 H 0.35192 0.05639 0.14421 0.0
H957 H 0.38624 0.07257 0.12347 0.0
H958 H 0.42966 0.07577 0.92488 0.0
H959 H 0.40728 0.08889 1.00968 0.0
H960 H 0.33387 0.97036 0.85408 0.0
H961 H 0.31396 0.9813 0.94739 0.0
H962 H 0.37754 0.95892 0.83034 0.0
H963 H 0.4104 0.97548 0.80237 0.0
C964 C 0.48867 0.35757 0.81674 0.0
C965 C 0.49648 0.35382 0.90762 0.0
C966 C 0.50137 0.40808 0.9195 0.0
C967 C 0.49377 0.41186 0.82799 0.0
N968 N 0.47286 0.39032 0.69733 0.0
N969 N 0.5051 0.37617 0.04934 0.0
C970 C 0.48539 0.38656 0.77893 0.0
C971 C 0.50089 0.37933 0.9601 0.0
N972 N 0.48471 0.33318 0.76584 0.0
N973 N 0.511 0.43167 0.96707 0.0
H974 H 0.50723 0.35586 0.08099 0.0
H975 H 0.50427 0.39356 0.09366 0.0
H976 H 0.512 0.45303 0.9423 0.0
H977 H 0.52066 0.42996 0.02936 0.0
H978 H 0.48305 0.33383 0.69711 0.0
H979 H 0.4844 0.31193 0.79244 0.0
H980 H 0.46353 0.37332 0.66117 0.0
H981 H 0.46907 0.411 0.66915 0.0
C982 C 0.11666 0.52763 0.99558 0.0
C983 C 0.14234 0.51657 0.95314 0.0
C984 C 0.11081 0.50272 0.82542 0.0
C985 C 0.086 0.51706 0.86402 0.0
N986 N 0.06841 0.54961 0.97724 0.0
N987 N 0.16416 0.49666 0.82126 0.0
C988 C 0.08979 0.53111 0.94706 0.0
C989 C 0.13944 0.50482 0.8663 0.0
N990 N 0.11778 0.53458 0.08337 0.0
N991 N 0.10692 0.4863 0.75104 0.0
H992 H 0.18513 0.4974 0.84927 0.0
H993 H 0.16412 0.49113 0.75448 0.0
H994 H 0.08657 0.48423 0.71976 0.0
H995 H 0.12322 0.47282 0.72467 0.0
H996 H 0.09919 0.5401 0.12015 0.0
H997 H 0.13675 0.53177 0.12152 0.0
H998 H 0.07095 0.56274 0.03293 0.0
H999 H 0.04972 0.55459 0.94012 0.0
C1000 C 0.96849 0.89119 0.50712 0.0
C1001 C 0.99327 0.87214 0.51629 0.0
C1002 C 0.01467 0.90754 0.6227 0.0
C1003 C 0.98891 0.92548 0.61915 0.0
N1004 N 0.93834 0.9297 0.57197 0.0
N1005 N 0.03607 0.8591 0.60218 0.0
C1006 C 0.96495 0.91587 0.56543 0.0
C1007 C 0.01502 0.87938 0.5805 0.0
N1008 N 0.9489 0.88669 0.44005 0.0
N1009 N 0.03977 0.91808 0.66075 0.0
H1010 H 0.03668 0.83816 0.57444 0.0
H1011 H 0.05078 0.86193 0.65431 0.0
H1012 H 0.04135 0.93905 0.68752 0.0
H1013 H 0.05999 0.90737 0.65624 0.0
H1014 H 0.9324 0.90169 0.42345 0.0
H1015 H 0.95061 0.86917 0.39629 0.0
H1016 H 0.91933 0.92204 0.5413 0.0
H1017 H 0.93452 0.94696 0.61557 0.0
C1018 C 0.63276 0.03118 0.64427 0.0
C1019 C 0.63682 0.0152 0.5644 0.0
C1020 C 0.58779 0.99298 0.59048 0.0
C1021 C 0.58143 0.0133 0.65962 0.0
N1022 N 0.59809 0.05675 0.73762 0.0
N1023 N 0.61399 0.98486 0.45307 0.0
C1024 C 0.60405 0.03366 0.6831 0.0
C1025 C 0.6132 0.99708 0.53531 0.0
N1026 N 0.65649 0.04384 0.68424 0.0
N1027 N 0.57031 0.9689 0.57903 0.0
H1028 H 0.63119 0.98827 0.40858 0.0
H1029 H 0.59603 0.97395 0.42575 0.0
H1030 H 0.55309 0.96358 0.62186 0.0
H1031 H 0.57538 0.95229 0.53434 0.0
H1032 H 0.65532 0.05347 0.74656 0.0
H1033 H 0.67786 0.04168 0.65973 0.0
H1034 H 0.6132 0.0735 0.74947 0.0
H1035 H 0.57727 0.06144 0.76232 0.0
C1036 C 0.54035 0.63243 0.53747 0.0
C1037 C 0.51625 0.64406 0.48781 0.0
C1038 C 0.48662 0.60083 0.53632 0.0
C1039 C 0.51183 0.58768 0.57674 0.0
N1040 N 0.56376 0.58982 0.6061 0.0
N1041 N 0.46682 0.63771 0.43426 0.0
C1042 C 0.53892 0.60335 0.57519 0.0
C1043 C 0.48936 0.62791 0.48658 0.0
N1044 N 0.56473 0.64954 0.54901 0.0
N1045 N 0.45984 0.58756 0.54638 0.0
H1046 H 0.46764 0.65766 0.39983 0.0
H1047 H 0.44803 0.62543 0.42102 0.0
H1048 H 0.45716 0.56768 0.5804 0.0
H1049 H 0.44005 0.59724 0.5271 0.0
H1050 H 0.58203 0.64397 0.59114 0.0
H1051 H 0.56616 0.67091 0.52357 0.0
H1052 H 0.58482 0.59855 0.59966 0.0
H1053 H 0.56356 0.56843 0.6312 0.0
C1054 C 0.85632 0.51448 0.5955 0.0
C1055 C 0.85661 0.50604 0.50498 0.0
C1056 C 0.911 0.50415 0.51075 0.0
C1057 C 0.91105 0.51432 0.60008 0.0
N1058 N 0.88307 0.53523 0.71994 0.0
N1059 N 0.88459 0.49974 0.3715 0.0
C1060 C 0.88346 0.52123 0.64027 0.0
C1061 C 0.88413 0.50341 0.4612 0.0
N1062 N 0.83011 0.51521 0.63963 0.0
N1063 N 0.93616 0.49291 0.47458 0.0
H1064 H 0.8654 0.49885 0.33362 0.0
H1065 H 0.90382 0.50064 0.33397 0.0
H1066 H 0.95595 0.49112 0.50881 0.0
H1067 H 0.93665 0.48216 0.41395 0.0
H1068 H 0.82846 0.5176 0.70798 0.0
H1069 H 0.81001 0.51179 0.60787 0.0
H1070 H 0.86394 0.54339 0.7488 0.0
H1071 H 0.90221 0.54122 0.7533 0.0
loop_
_geom_bond_atom_site_label_1
_geom_bond_atom_site_label_2
_geom_bond_distance
_geom_bond_site_symmetry_2
_ccdc_geom_bond_type
C0 C1 1.391 . S
C0 C4 1.391 . S
C0 H42 0.948 . S
C1 C0 1.391 . S
C1 C2 1.391 . S
C2 C1 1.391 . S
C2 H58 0.947 . S
C2 C59 1.392 . S
C3 C4 1.391 . S
C3 C7 1.397 . S
C3 C59 1.419 . S
C4 C0 1.391 . S
C4 C3 1.391 . S
C4 C5 1.399 . S
C5 C4 1.399 . S
C5 C8 1.396 . S
C5 C17 1.453 . S
C5 C18 1.684 . S
H6 C30 0.948 . S
C7 C3 1.397 . S
C7 C8 1.394 . S
C7 C26 1.723 . S
C8 C5 1.396 . S
C8 C7 1.394 . S
C8 C38 1.723 . S
H9 C32 0.947 . S
H10 C33 0.948 . S
H11 C39 0.982 . S
H12 C40 0.979 . S
H13 C40 0.980 . S
H14 C40 0.983 . S
H15 C39 0.979 . S
H16 C39 0.977 . S
C17 C5 1.453 . S
C17 H46 0.982 . S
C17 H47 0.979 . S
C17 H48 0.977 . S
C18 C5 1.684 . S
C18 H43 0.979 . S
C18 H44 0.980 . S
C18 H45 0.983 . S
C19 C20 1.391 . S
C19 C24 1.391 . S
C19 H49 0.948 . S
C20 C19 1.391 . S
C20 C21 1.391 . S
C21 C20 1.391 . S
C21 C22 1.392 . S
C21 H50 0.947 . S
C22 C21 1.392 . S
C22 C23 1.419 . S
C22 H51 0.948 . S
C23 C22 1.419 . S
C23 C24 1.391 . S
C23 C27 1.397 . S
C24 C19 1.391 . S
C24 C23 1.391 . S
C24 C25 1.399 . S
C25 C24 1.399 . S
C25 C26 1.396 . S
C25 C28 1.453 . S
C25 C29 1.684 . S
C26 C7 1.723 . S
C26 C25 1.396 . S
C26 C27 1.394 . S
C27 C23 1.397 . S
C27 C26 1.394 . S
C27 C37 1.723 . S
C28 C25 1.453 . S
C28 H52 0.982 . S
C28 H53 0.979 . S
C28 H54 0.977 . S
C29 C25 1.684 . S
C29 H55 0.979 . S
C29 H56 0.980 . S
C29 H57 0.983 . S
C30 H6 0.948 . S
C30 C31 1.391 . S
C30 C35 1.391 . S
C31 C30 1.391 . S
C31 C32 1.391 . S
C32 H9 0.947 . S
C32 C31 1.391 . S
C32 C33 1.392 . S
C33 H10 0.948 . S
C33 C32 1.392 . S
C33 C34 1.419 . S
C34 C33 1.419 . S
C34 C35 1.391 . S
C34 C38 1.397 . S
C35 C30 1.391 . S
C35 C34 1.391 . S
C35 C36 1.399 . S
C36 C35 1.399 . S
C36 C37 1.396 . S
C36 C39 1.453 . S
C36 C40 1.684 . S
C37 C27 1.723 . S
C37 C36 1.396 . S
C37 C38 1.394 . S
C38 C8 1.723 . S
C38 C34 1.397 . S
C38 C37 1.394 . S
C39 H11 0.982 . S
C39 H15 0.979 . S
C39 H16 0.977 . S
C39 C36 1.453 . S
C40 H12 0.979 . S
C40 H13 0.980 . S
C40 H14 0.983 . S
C40 C36 1.684 . S
H41 C59 0.948 . S
H42 C0 0.948 . S
H43 C18 0.979 . S
H44 C18 0.980 . S
H45 C18 0.983 . S
H46 C17 0.982 . S
H47 C17 0.979 . S
H48 C17 0.977 . S
H49 C19 0.948 . S
H50 C21 0.947 . S
H51 C22 0.948 . S
H52 C28 0.982 . S
H53 C28 0.979 . S
H54 C28 0.977 . S
H55 C29 0.979 . S
H56 C29 0.980 . S
H57 C29 0.983 . S
H58 C2 0.947 . S
C59 C2 1.392 . S
C59 C3 1.419 . S
C59 H41 0.948 . S
C60 C61 1.391 . S
C60 C64 1.391 . S
C60 H102 0.948 . S
C61 C60 1.391 . S
C61 C62 1.391 . S
C62 C61 1.391 . S
C62 H118 0.947 . S
C62 C119 1.392 . S
C63 C64 1.391 . S
C63 C67 1.397 1_655 S
C63 C119 1.419 . S
C64 C60 1.391 . S
C64 C63 1.391 . S
C64 C65 1.399 . S
C65 C64 1.399 . S
C65 C68 1.396 1_655 S
C65 C77 1.453 1_655 S
C65 C78 1.684 . S
H66 C90 0.948 . S
C67 C63 1.397 1_455 S
C67 C68 1.394 . S
C67 C86 1.723 . S
C68 C65 1.396 1_455 S
C68 C67 1.394 . S
C68 C98 1.723 . S
H69 C92 0.947 . S
H70 C93 0.948 . S
H71 C99 0.982 . S
H72 C100 0.979 . S
H73 C100 0.980 . S
H74 C100 0.983 . S
H75 C99 0.979 . S
H76 C99 0.977 . S
C77 C65 1.453 1_455 S
C77 H106 0.982 . S
C77 H107 0.979 . S
C77 H108 0.977 . S
C78 C65 1.684 . S
C78 H103 0.979 . S
C78 H104 0.980 . S
C78 H105 0.983 . S
C79 C80 1.391 . S
C79 C84 1.391 . S
C79 H109 0.948 . S
C80 C79 1.391 . S
C80 C81 1.391 . S
C81 C80 1.391 . S
C81 C82 1.392 . S
C81 H110 0.947 . S
C82 C81 1.392 . S
C82 C83 1.419 . S
C82 H111 0.948 . S
C83 C82 1.419 . S
C83 C84 1.391 . S
C83 C87 1.397 1_655 S
C84 C79 1.391 . S
C84 C83 1.391 . S
C84 C85 1.399 . S
C85 C84 1.399 . S
C85 C86 1.396 1_655 S
C85 C88 1.453 1_655 S
C85 C89 1.684 . S
C86 C67 1.723 . S
C86 C85 1.396 1_455 S
C86 C87 1.394 . S
C87 C83 1.397 1_455 S
C87 C86 1.394 . S
C87 C97 1.723 . S
C88 C85 1.453 1_455 S
C88 H112 0.982 . S
C88 H113 0.979 . S
C88 H114 0.977 . S
C89 C85 1.684 . S
C89 H115 0.979 . S
C89 H116 0.980 . S
C89 H117 0.983 . S
C90 H66 0.948 . S
C90 C91 1.391 . S
C90 C95 1.391 . S
C91 C90 1.391 . S
C91 C92 1.391 . S
C92 H69 0.947 . S
C92 C91 1.391 . S
C92 C93 1.392 . S
C93 H70 0.948 . S
C93 C92 1.392 . S
C93 C94 1.419 . S
C94 C93 1.419 . S
C94 C95 1.391 . S
C94 C98 1.397 1_655 S
C95 C90 1.391 . S
C95 C94 1.391 . S
C95 C96 1.399 . S
C96 C95 1.399 . S
C96 C97 1.396 1_655 S
C96 C99 1.453 1_655 S
C96 C100 1.684 . S
C97 C87 1.723 . S
C97 C96 1.396 1_455 S
C97 C98 1.394 . S
C98 C68 1.723 . S
C98 C94 1.397 1_455 S
C98 C97 1.394 . S
C99 H71 0.982 . S
C99 H75 0.979 . S
C99 H76 0.977 . S
C99 C96 1.453 1_455 S
C100 H72 0.979 . S
C100 H73 0.980 . S
C100 H74 0.983 . S
C100 C96 1.684 . S
H101 C119 0.948 . S
H102 C60 0.948 . S
H103 C78 0.979 . S
H104 C78 0.980 . S
H105 C78 0.983 . S
H106 C77 0.982 . S
H107 C77 0.979 . S
H108 C77 0.977 . S
H109 C79 0.948 . S
H110 C81 0.947 . S
H111 C82 0.948 . S
H112 C88 0.982 . S
H113 C88 0.979 . S
H114 C88 0.977 . S
H115 C89 0.979 . S
H116 C89 0.980 . S
H117 C89 0.983 . S
H118 C62 0.947 . S
C119 C62 1.392 . S
C119 C63 1.419 . S
C119 H101 0.948 . S
C120 C121 1.391 . S
C120 C124 1.391 . S
C120 H162 0.948 . S
C121 C120 1.391 . S
C121 C122 1.391 . S
C122 C121 1.391 . S
C122 H178 0.947 . S
C122 C179 1.392 . S
C123 C124 1.391 . S
C123 C127 1.397 1_565 S
C123 C179 1.419 . S
C124 C120 1.391 . S
C124 C123 1.391 . S
C124 C125 1.399 . S
C125 C124 1.399 . S
C125 C128 1.396 1_565 S
C125 C137 1.453 1_565 S
C125 C138 1.684 . S
H126 C150 0.948 . S
C127 C123 1.397 1_545 S
C127 C128 1.394 . S
C127 C146 1.723 . S
C128 C125 1.396 1_545 S
C128 C127 1.394 . S
C128 C158 1.723 . S
H129 C152 0.947 . S
H130 C153 0.948 . S
H131 C159 0.982 . S
H132 C160 0.979 . S
H133 C160 0.980 . S
H134 C160 0.983 . S
H135 C159 0.979 . S
H136 C159 0.977 . S
C137 C125 1.453 1_545 S
C137 H166 0.982 . S
C137 H167 0.979 . S
C137 H168 0.977 . S
C138 C125 1.684 . S
C138 H163 0.979 . S
C138 H164 0.980 . S
C138 H165 0.983 . S
C139 C140 1.391 . S
C139 C144 1.391 . S
C139 H169 0.948 . S
C140 C139 1.391 . S
C140 C141 1.391 . S
C141 C140 1.391 . S
C141 C142 1.392 . S
C141 H170 0.947 . S
C142 C141 1.392 . S
C142 C143 1.419 . S
C142 H171 0.948 . S
C143 C142 1.419 . S
C143 C144 1.391 . S
C143 C147 1.397 1_565 S
C144 C139 1.391 . S
C144 C143 1.391 . S
C144 C145 1.399 . S
C145 C144 1.399 . S
C145 C146 1.396 1_565 S
C145 C148 1.453 1_565 S
C145 C149 1.684 . S
C146 C127 1.723 . S
C146 C145 1.396 1_545 S
C146 C147 1.394 . S
C147 C143 1.397 1_545 S
C147 C146 1.394 . S
C147 C157 1.723 . S
C148 C145 1.453 1_545 S
C148 H172 0.982 . S
C148 H173 0.979 . S
C148 H174 0.977 . S
C149 C145 1.684 . S
C149 H175 0.979 . S
C149 H176 0.980 . S
C149 H177 0.983 . S
C150 H126 0.948 . S
C150 C151 1.391 . S
C150 C155 1.391 . S
C151 C150 1.391 . S
C151 C152 1.391 . S
C152 H129 0.947 . S
C152 C151 1.391 . S
C152 C153 1.392 . S
C153 H130 0.948 . S
C153 C152 1.392 . S
C153 C154 1.419 . S
C154 C153 1.419 . S
C154 C155 1.391 . S
C154 C158 1.397 1_565 S
C155 C150 1.391 . S
C155 C154 1.391 . S
C155 C156 1.399 . S
C156 C155 1.399 . S
C156 C157 1.396 1_565 S
C156 C159 1.453 1_565 S
C156 C160 1.684 . S
C157 C147 1.723 . S
C157 C156 1.396 1_545 S
C157 C158 1.394 . S
C158 C128 1.723 . S
C158 C154 1.397 1_545 S
C158 C157 1.394 . S
C159 H131 0.982 . S
C159 H135 0.979 . S
C159 H136 0.977 . S
C159 C156 1.453 1_545 S
C160 H132 0.979 . S
C160 H133 0.980 . S
C160 H134 0.983 . S
C160 C156 1.684 . S
H161 C179 0.948 . S
H162 C120 0.948 . S
H163 C138 0.979 . S
H164 C138 0.980 . S
H165 C138 0.983 . S
H166 C137 0.982 . S
H167 C137 0.979 . S
H168 C137 0.977 . S
H169 C139 0.948 . S
H170 C141 0.947 . S
H171 C142 0.948 . S
H172 C148 0.982 . S
H173 C148 0.979 . S
H174 C148 0.977 . S
H175 C149 0.979 . S
H176 C149 0.980 . S
H177 C149 0.983 . S
H178 C122 0.947 . S
C179 C122 1.392 . S
C179 C123 1.419 . S
C179 H161 0.948 . S
C180 C181 1.391 . S
C180 C184 1.391 . S
C180 H222 0.948 . S
C181 C180 1.391 . S
C181 C182 1.391 . S
C182 C181 1.391 . S
C182 H238 0.947 . S
C182 C239 1.392 . S
C183 C184 1.391 . S
C183 C187 1.397 . S
C183 C239 1.419 . S
C184 C180 1.391 . S
C184 C183 1.391 . S
C184 C185 1.399 . S
C185 C184 1.399 . S
C185 C188 1.396 . S
C185 C197 1.453 . S
C185 C198 1.684 . S
H186 C210 0.948 . S
C187 C183 1.397 . S
C187 C188 1.394 . S
C187 C206 1.723 . S
C188 C185 1.396 . S
C188 C187 1.394 . S
C188 C218 1.723 . S
H189 C212 0.947 . S
H190 C213 0.948 . S
H191 C219 0.982 . S
H192 C220 0.979 . S
H193 C220 0.980 . S
H194 C220 0.983 . S
H195 C219 0.979 . S
H196 C219 0.977 . S
C197 C185 1.453 . S
C197 H226 0.982 . S
C197 H227 0.979 . S
C197 H228 0.977 . S
C198 C185 1.684 . S
C198 H223 0.979 . S
C198 H224 0.980 . S
C198 H225 0.983 . S
C199 C200 1.391 . S
C199 C204 1.391 . S
C199 H229 0.948 . S
C200 C199 1.391 . S
C200 C201 1.391 . S
C201 C200 1.391 . S
C201 C202 1.392 . S
C201 H230 0.947 . S
C202 C201 1.392 . S
C202 C203 1.419 . S
C202 H231 0.948 . S
C203 C202 1.419 . S
C203 C204 1.391 . S
C203 C207 1.397 . S
C204 C199 1.391 . S
C204 C203 1.391 . S
C204 C205 1.399 . S
C205 C204 1.399 . S
C205 C206 1.396 . S
C205 C208 1.453 . S
C205 C209 1.684 . S
C206 C187 1.723 . S
C206 C205 1.396 . S
C206 C207 1.394 . S
C207 C203 1.397 . S
C207 C206 1.394 . S
C207 C217 1.723 . S
C208 C205 1.453 . S
C208 H232 0.982 . S
C208 H233 0.979 . S
C208 H234 0.977 . S
C209 C205 1.684 . S
C209 H235 0.979 . S
C209 H236 0.980 . S
C209 H237 0.983 . S
C210 H186 0.948 . S
C210 C211 1.391 . S
C210 C215 1.391 . S
C211 C210 1.391 . S
C211 C212 1.391 . S
C212 H189 0.947 . S
C212 C211 1.391 . S
C212 C213 1.392 . S
C213 H190 0.948 . S
C213 C212 1.392 . S
C213 C214 1.419 . S
C214 C213 1.419 . S
C214 C215 1.391 . S
C214 C218 1.397 . S
C215 C210 1.391 . S
C215 C214 1.391 . S
C215 C216 1.399 . S
C216 C215 1.399 . S
C216 C217 1.396 . S
C216 C219 1.453 . S
C216 C220 1.684 . S
C217 C207 1.723 . S
C217 C216 1.396 . S
C217 C218 1.394 . S
C218 C188 1.723 . S
C218 C214 1.397 . S
C218 C217 1.394 . S
C219 H191 0.982 . S
C219 H195 0.979 . S
C219 H196 0.977 . S
C219 C216 1.453 . S
C220 H192 0.979 . S
C220 H193 0.980 . S
C220 H194 0.983 . S
C220 C216 1.684 . S
H221 C239 0.948 . S
H222 C180 0.948 . S
H223 C198 0.979 . S
H224 C198 0.980 . S
H225 C198 0.983 . S
H226 C197 0.982 . S
H227 C197 0.979 . S
H228 C197 0.977 . S
H229 C199 0.948 . S
H230 C201 0.947 . S
H231 C202 0.948 . S
H232 C208 0.982 . S
H233 C208 0.979 . S
H234 C208 0.977 . S
H235 C209 0.979 . S
H236 C209 0.980 . S
H237 C209 0.983 . S
H238 C182 0.947 . S
C239 C182 1.392 . S
C239 C183 1.419 . S
C239 H221 0.948 . S
C240 C241 1.391 . S
C240 C244 1.391 . S
C240 H282 0.948 . S
C241 C240 1.391 . S
C241 C242 1.391 . S
C242 C241 1.391 . S
C242 H298 0.947 . S
C242 C299 1.392 . S
C243 C244 1.391 . S
C243 C247 1.397 . S
C243 C299 1.419 . S
C244 C240 1.391 . S
C244 C243 1.391 . S
C244 C245 1.399 1_554 S
C245 C244 1.399 1_556 S
C245 C248 1.397 . S
C245 C257 1.453 . S
C245 C258 1.684 . S
H246 C270 0.948 . S
C247 C243 1.397 . S
C247 C248 1.392 1_554 S
C247 C266 1.723 . S
C248 C245 1.397 . S
C248 C247 1.392 1_556 S
C248 C278 1.724 . S
H249 C272 0.947 . S
H250 C273 0.948 . S
H251 C279 0.982 . S
H252 C280 0.979 . S
H253 C280 0.980 1_554 S
H254 C280 0.983 . S
H255 C279 0.979 . S
H256 C279 0.977 1_554 S
C257 C245 1.453 . S
C257 H286 0.982 . S
C257 H287 0.979 . S
C257 H288 0.977 . S
C258 C245 1.684 . S
C258 H283 0.979 . S
C258 H284 0.980 . S
C258 H285 0.983 . S
C259 C260 1.391 . S
C259 C264 1.391 . S
C259 H289 0.948 . S
C260 C259 1.391 . S
C260 C261 1.391 . S
C261 C260 1.391 . S
C261 C262 1.392 . S
C261 H290 0.947 . S
C262 C261 1.392 . S
C262 C263 1.419 . S
C262 H291 0.948 . S
C263 C262 1.419 . S
C263 C264 1.391 . S
C263 C267 1.397 . S
C264 C259 1.391 . S
C264 C263 1.391 . S
C264 C265 1.399 . S
C265 C264 1.399 . S
C265 C266 1.396 . S
C265 C268 1.453 . S
C265 C269 1.684 . S
C266 C247 1.723 . S
C266 C265 1.396 . S
C266 C267 1.394 . S
C267 C263 1.397 . S
C267 C266 1.394 . S
C267 C277 1.725 . S
C268 C265 1.453 . S
C268 H292 0.982 . S
C268 H293 0.979 . S
C268 H294 0.977 . S
C269 C265 1.684 . S
C269 H295 0.979 . S
C269 H296 0.980 . S
C269 H297 0.983 . S
C270 H246 0.948 . S
C270 C271 1.391 . S
C270 C275 1.391 . S
C271 C270 1.391 . S
C271 C272 1.391 . S
C272 H249 0.947 . S
C272 C271 1.391 . S
C272 C273 1.392 . S
C273 H250 0.948 . S
C273 C272 1.392 . S
C273 C274 1.419 . S
C274 C273 1.419 . S
C274 C275 1.391 . S
C274 C278 1.397 . S
C275 C270 1.391 . S
C275 C274 1.391 . S
C275 C276 1.399 . S
C276 C275 1.399 . S
C276 C277 1.395 1_556 S
C276 C279 1.453 . S
C276 C280 1.684 . S
C277 C267 1.725 . S
C277 C276 1.395 1_554 S
C277 C278 1.393 1_554 S
C278 C248 1.724 . S
C278 C274 1.397 . S
C278 C277 1.393 1_556 S
C279 H251 0.982 . S
C279 H255 0.979 . S
C279 H256 0.977 1_556 S
C279 C276 1.453 . S
C280 H252 0.979 . S
C280 H253 0.980 1_556 S
C280 H254 0.983 . S
C280 C276 1.684 . S
H281 C299 0.948 . S
H282 C240 0.948 . S
H283 C258 0.979 . S
H284 C258 0.980 . S
H285 C258 0.983 . S
H286 C257 0.982 . S
H287 C257 0.979 . S
H288 C257 0.977 . S
H289 C259 0.948 . S
H290 C261 0.947 . S
H291 C262 0.948 . S
H292 C268 0.982 . S
H293 C268 0.979 . S
H294 C268 0.977 . S
H295 C269 0.979 . S
H296 C269 0.980 . S
H297 C269 0.983 . S
H298 C242 0.947 . S
C299 C242 1.392 . S
C299 C243 1.419 . S
C299 H281 0.948 . S
C300 C301 1.391 . S
C300 C304 1.391 . S
C300 H342 0.948 . S
C301 C300 1.391 . S
C301 C302 1.391 . S
C302 C301 1.391 . S
C302 H358 0.947 . S
C302 C359 1.392 . S
C303 C304 1.391 . S
C303 C307 1.396 1_655 S
C303 C359 1.419 . S
C304 C300 1.391 . S
C304 C303 1.391 . S
C304 C305 1.399 . S
C305 C304 1.399 . S
C305 C308 1.396 1_655 S
C305 C317 1.453 1_655 S
C305 C318 1.684 . S
H306 C330 0.948 . S
C307 C303 1.396 1_455 S
C307 C308 1.395 . S
C307 C326 1.723 . S
C308 C305 1.396 1_455 S
C308 C307 1.395 . S
C308 C338 1.723 . S
H309 C332 0.947 . S
H310 C333 0.948 . S
H311 C339 0.982 . S
H312 C340 0.979 . S
H313 C340 0.980 . S
H314 C340 0.983 . S
H315 C339 0.979 . S
H316 C339 0.977 . S
C317 C305 1.453 1_455 S
C317 H346 0.982 . S
C317 H347 0.979 . S
C317 H348 0.977 . S
C318 C305 1.684 . S
C318 H343 0.979 . S
C318 H344 0.980 . S
C318 H345 0.983 . S
C319 C320 1.391 . S
C319 C324 1.391 . S
C319 H349 0.948 . S
C320 C319 1.391 . S
C320 C321 1.391 . S
C321 C320 1.391 . S
C321 C322 1.392 . S
C321 H350 0.947 . S
C322 C321 1.392 . S
C322 C323 1.419 . S
C322 H351 0.948 . S
C323 C322 1.419 . S
C323 C324 1.391 . S
C323 C327 1.396 1_655 S
C324 C319 1.391 . S
C324 C323 1.391 . S
C324 C325 1.399 . S
C325 C324 1.399 . S
C325 C326 1.396 1_656 S
C325 C328 1.453 1_655 S
C325 C329 1.684 . S
C326 C307 1.723 . S
C326 C325 1.396 1_454 S
C326 C327 1.395 1_554 S
C327 C323 1.396 1_455 S
C327 C326 1.395 1_556 S
C327 C337 1.723 1_556 S
C328 C325 1.453 1_455 S
C328 H352 0.982 . S
C328 H353 0.979 . S
C328 H354 0.977 1_556 S
C329 C325 1.684 . S
C329 H355 0.979 . S
C329 H356 0.980 1_556 S
C329 H357 0.983 . S
C330 H306 0.948 . S
C330 C331 1.391 . S
C330 C335 1.391 . S
C331 C330 1.391 . S
C331 C332 1.391 . S
C332 H309 0.947 . S
C332 C331 1.391 . S
C332 C333 1.392 . S
C333 H310 0.948 . S
C333 C332 1.392 . S
C333 C334 1.419 . S
C334 C333 1.419 . S
C334 C335 1.391 . S
C334 C338 1.396 1_655 S
C335 C330 1.391 . S
C335 C334 1.391 . S
C335 C336 1.399 1_554 S
C336 C335 1.399 1_556 S
C336 C337 1.396 1_656 S
C336 C339 1.453 1_655 S
C336 C340 1.684 . S
C337 C327 1.723 1_554 S
C337 C336 1.396 1_454 S
C337 C338 1.395 . S
C338 C308 1.723 . S
C338 C334 1.396 1_455 S
C338 C337 1.395 . S
C339 H311 0.982 . S
C339 H315 0.979 . S
C339 H316 0.977 . S
C339 C336 1.453 1_455 S
C340 H312 0.979 . S
C340 H313 0.980 . S
C340 H314 0.983 . S
C340 C336 1.684 . S
H341 C359 0.948 . S
H342 C300 0.948 . S
H343 C318 0.979 . S
H344 C318 0.980 . S
H345 C318 0.983 . S
H346 C317 0.982 . S
H347 C317 0.979 . S
H348 C317 0.977 . S
H349 C319 0.948 . S
H350 C321 0.947 . S
H351 C322 0.948 . S
H352 C328 0.982 . S
H353 C328 0.979 . S
H354 C328 0.977 1_554 S
H355 C329 0.979 . S
H356 C329 0.980 1_554 S
H357 C329 0.983 . S
H358 C302 0.947 . S
C359 C302 1.392 . S
C359 C303 1.419 . S
C359 H341 0.948 . S
C360 C361 1.391 . S
C360 C364 1.391 . S
C360 H402 0.948 . S
C361 C360 1.391 . S
C361 C362 1.391 . S
C362 C361 1.391 . S
C362 H418 0.947 . S
C362 C419 1.392 . S
C363 C364 1.391 . S
C363 C367 1.397 1_545 S
C363 C419 1.419 . S
C364 C360 1.391 . S
C364 C363 1.391 . S
C364 C365 1.399 . S
C365 C364 1.399 . S
C365 C368 1.396 1_545 S
C365 C377 1.453 1_545 S
C365 C378 1.684 . S
H366 C390 0.948 . S
C367 C363 1.397 1_565 S
C367 C368 1.394 . S
C367 C386 1.723 1_556 S
C368 C365 1.396 1_565 S
C368 C367 1.394 . S
C368 C398 1.723 1_556 S
H369 C392 0.947 1_556 S
H370 C393 0.948 1_556 S
H371 C399 0.982 . S
H372 C400 0.979 . S
H373 C400 0.980 . S
H374 C400 0.983 . S
H375 C399 0.979 . S
H376 C399 0.977 . S
C377 C365 1.453 1_565 S
C377 H406 0.982 . S
C377 H407 0.979 . S
C377 H408 0.977 . S
C378 C365 1.684 . S
C378 H403 0.979 . S
C378 H404 0.980 . S
C378 H405 0.983 . S
C379 C380 1.391 . S
C379 C384 1.391 . S
C379 H409 0.948 . S
C380 C379 1.391 . S
C380 C381 1.391 . S
C381 C380 1.391 . S
C381 C382 1.392 . S
C381 H410 0.947 . S
C382 C381 1.392 . S
C382 C383 1.419 . S
C382 H411 0.948 . S
C383 C382 1.419 . S
C383 C384 1.391 . S
C383 C387 1.397 1_545 S
C384 C379 1.391 . S
C384 C383 1.391 . S
C384 C385 1.399 . S
C385 C384 1.399 . S
C385 C386 1.396 1_545 S
C385 C388 1.453 1_545 S
C385 C389 1.684 . S
C386 C367 1.723 1_554 S
C386 C385 1.396 1_565 S
C386 C387 1.394 . S
C387 C383 1.397 1_565 S
C387 C386 1.394 . S
C387 C397 1.723 . S
C388 C385 1.453 1_565 S
C388 H412 0.982 . S
C388 H413 0.979 . S
C388 H414 0.977 1_554 S
C389 C385 1.684 . S
C389 H415 0.979 . S
C389 H416 0.980 1_554 S
C389 H417 0.983 . S
C390 H366 0.948 . S
C390 C391 1.391 . S
C390 C395 1.391 . S
C391 C390 1.391 . S
C391 C392 1.391 . S
C392 H369 0.947 1_554 S
C392 C391 1.391 . S
C392 C393 1.392 . S
C393 H370 0.948 1_554 S
C393 C392 1.392 . S
C393 C394 1.419 . S
C394 C393 1.419 . S
C394 C395 1.391 . S
C394 C398 1.397 1_545 S
C395 C390 1.391 . S
C395 C394 1.391 . S
C395 C396 1.399 . S
C396 C395 1.399 . S
C396 C397 1.396 1_545 S
C396 C399 1.453 1_545 S
C396 C400 1.684 . S
C397 C387 1.723 . S
C397 C396 1.396 1_565 S
C397 C398 1.394 . S
C398 C368 1.723 1_554 S
C398 C394 1.397 1_565 S
C398 C397 1.394 . S
C399 H371 0.982 . S
C399 H375 0.979 . S
C399 H376 0.977 . S
C399 C396 1.453 1_565 S
C400 H372 0.979 . S
C400 H373 0.980 . S
C400 H374 0.983 . S
C400 C396 1.684 . S
H401 C419 0.948 . S
H402 C360 0.948 . S
H403 C378 0.979 . S
H404 C378 0.980 . S
H405 C378 0.983 . S
H406 C377 0.982 . S
H407 C377 0.979 . S
H408 C377 0.977 . S
H409 C379 0.948 . S
H410 C381 0.947 . S
H411 C382 0.948 . S
H412 C388 0.982 . S
H413 C388 0.979 . S
H414 C388 0.977 1_556 S
H415 C389 0.979 . S
H416 C389 0.980 1_556 S
H417 C389 0.983 . S
H418 C362 0.947 . S
C419 C362 1.392 . S
C419 C363 1.419 . S
C419 H401 0.948 . S
C420 C421 1.391 . S
C420 C424 1.391 . S
C420 H462 0.948 . S
C421 C420 1.391 . S
C421 C422 1.391 . S
C422 C421 1.391 . S
C422 H478 0.947 . S
C422 C479 1.392 . S
C423 C424 1.391 . S
C423 C427 1.397 . S
C423 C479 1.419 . S
C424 C420 1.391 . S
C424 C423 1.391 . S
C424 C425 1.399 . S
C425 C424 1.399 . S
C425 C428 1.396 . S
C425 C437 1.453 . S
C425 C438 1.684 . S
H426 C450 0.948 . S
C427 C423 1.397 . S
C427 C428 1.394 . S
C427 C446 1.723 1_556 S
C428 C425 1.396 . S
C428 C427 1.394 . S
C428 C458 1.723 1_556 S
H429 C452 0.947 1_556 S
H430 C453 0.948 1_556 S
H431 C459 0.982 . S
H432 C460 0.979 . S
H433 C460 0.980 . S
H434 C460 0.983 . S
H435 C459 0.979 . S
H436 C459 0.977 . S
C437 C425 1.453 . S
C437 H466 0.982 . S
C437 H467 0.979 . S
C437 H468 0.977 . S
C438 C425 1.684 . S
C438 H463 0.979 . S
C438 H464 0.980 . S
C438 H465 0.983 . S
C439 C440 1.391 . S
C439 C444 1.391 . S
C439 H469 0.948 . S
C440 C439 1.391 . S
C440 C441 1.391 . S
C441 C440 1.391 . S
C441 C442 1.392 . S
C441 H470 0.947 . S
C442 C441 1.392 . S
C442 C443 1.419 . S
C442 H471 0.948 . S
C443 C442 1.419 . S
C443 C444 1.391 . S
C443 C447 1.397 . S
C444 C439 1.391 . S
C444 C443 1.391 . S
C444 C445 1.399 . S
C445 C444 1.399 . S
C445 C446 1.396 . S
C445 C448 1.453 . S
C445 C449 1.684 . S
C446 C427 1.723 1_554 S
C446 C445 1.396 . S
C446 C447 1.394 . S
C447 C443 1.397 . S
C447 C446 1.394 . S
C447 C457 1.723 . S
C448 C445 1.453 . S
C448 H472 0.982 . S
C448 H473 0.979 . S
C448 H474 0.977 1_554 S
C449 C445 1.684 . S
C449 H475 0.979 . S
C449 H476 0.980 1_554 S
C449 H477 0.983 . S
C450 H426 0.948 . S
C450 C451 1.391 . S
C450 C455 1.391 . S
C451 C450 1.391 . S
C451 C452 1.391 . S
C452 H429 0.947 1_554 S
C452 C451 1.391 . S
C452 C453 1.392 . S
C453 H430 0.948 1_554 S
C453 C452 1.392 . S
C453 C454 1.419 . S
C454 C453 1.419 . S
C454 C455 1.391 . S
C454 C458 1.397 . S
C455 C450 1.391 . S
C455 C454 1.391 . S
C455 C456 1.399 . S
C456 C455 1.399 . S
C456 C457 1.396 . S
C456 C459 1.453 . S
C456 C460 1.684 . S
C457 C447 1.723 . S
C457 C456 1.396 . S
C457 C458 1.394 . S
C458 C428 1.723 1_554 S
C458 C454 1.397 . S
C458 C457 1.394 . S
C459 H431 0.982 . S
C459 H435 0.979 . S
C459 H436 0.977 . S
C459 C456 1.453 . S
C460 H432 0.979 . S
C460 H433 0.980 . S
C460 H434 0.983 . S
C460 C456 1.684 . S
H461 C479 0.948 . S
H462 C420 0.948 . S
H463 C438 0.979 . S
H464 C438 0.980 . S
H465 C438 0.983 . S
H466 C437 0.982 . S
H467 C437 0.979 . S
H468 C437 0.977 . S
H469 C439 0.948 . S
H470 C441 0.947 . S
H471 C442 0.948 . S
H472 C448 0.982 . S
H473 C448 0.979 . S
H474 C448 0.977 1_556 S
H475 C449 0.979 . S
H476 C449 0.980 1_556 S
H477 C449 0.983 . S
H478 C422 0.947 . S
C479 C422 1.392 . S
C479 C423 1.419 . S
C479 H461 0.948 . S
C480 Eu481 2.835 . S
C480 C482 1.500 . S
C480 O500 1.257 . S
C480 O501 1.260 . S
Eu481 C480 2.835 . S
Eu481 O500 2.473 . S
Eu481 O501 2.480 . S
Eu481 O502 2.430 . S
Eu481 O503 2.670 1_545 S
Eu481 O504 2.394 . S
Eu481 O509 2.355 1_655 S
Eu481 O511 2.374 1_545 S
C482 C480 1.500 . S
C482 C483 1.377 . S
C482 C487 1.377 . S
C483 C482 1.377 . S
C483 C484 1.395 . S
C483 H512 0.931 . S
C484 C483 1.395 . S
C484 C485 1.383 . S
C484 H513 0.931 . S
C485 C484 1.383 . S
C485 C486 1.394 . S
C486 C485 1.394 . S
C486 C487 1.378 . S
C486 H514 0.920 1_655 S
C487 C482 1.377 . S
C487 C486 1.378 . S
C487 H515 0.931 1_655 S
C488 O502 1.259 . S
C488 O503 1.270 1_545 S
C489 O504 1.251 1_455 S
C489 O505 1.251 . S
C490 Eu491 2.835 . S
C490 C492 1.500 . S
C490 O506 1.257 . S
C490 O507 1.260 . S
Eu491 C490 2.835 . S
Eu491 O503 2.355 1_455 S
Eu491 O505 2.374 1_565 S
Eu491 O506 2.473 . S
Eu491 O507 2.480 . S
Eu491 O508 2.430 . S
Eu491 O509 2.670 1_565 S
Eu491 O510 2.394 . S
C492 C490 1.500 . S
C492 C493 1.377 . S
C492 C497 1.377 . S
C493 C492 1.377 . S
C493 C494 1.395 . S
C493 H516 0.931 . S
C494 C493 1.395 . S
C494 C495 1.383 1_556 S
C494 H517 0.931 . S
C495 C494 1.383 1_554 S
C495 C496 1.394 . S
C496 C495 1.394 . S
C496 C497 1.378 1_554 S
C496 H518 0.928 1_455 S
C497 C492 1.377 . S
C497 C496 1.378 1_556 S
C497 H519 0.931 1_455 S
C498 O508 1.259 . S
C498 O509 1.270 1_565 S
C499 O510 1.251 1_655 S
C499 O511 1.251 . S
O500 C480 1.257 . S
O500 Eu481 2.473 . S
O501 C480 1.260 . S
O501 Eu481 2.480 . S
O502 Eu481 2.430 . S
O502 C488 1.259 . S
O503 Eu481 2.670 1_565 S
O503 C488 1.270 1_565 S
O503 Eu491 2.355 1_655 S
O504 Eu481 2.394 . S
O504 C489 1.251 1_655 S
O505 C489 1.251 . S
O505 Eu491 2.374 1_545 S
O506 C490 1.257 . S
O506 Eu491 2.473 . S
O507 C490 1.260 . S
O507 Eu491 2.480 . S
O508 Eu491 2.430 . S
O508 C498 1.259 . S
O509 Eu481 2.355 1_455 S
O509 Eu491 2.670 1_545 S
O509 C498 1.270 1_545 S
O510 Eu491 2.394 . S
O510 C499 1.251 1_455 S
O511 Eu481 2.374 1_565 S
O511 C499 1.251 . S
H512 C483 0.931 . S
H513 C484 0.931 . S
H514 C486 0.920 1_455 S
H515 C487 0.931 1_455 S
H516 C493 0.931 . S
H517 C494 0.931 . S
H518 C496 0.928 1_655 S
H519 C497 0.931 1_655 S
C520 Eu521 2.835 . S
C520 C522 1.500 . S
C520 O540 1.257 . S
C520 O541 1.260 . S
Eu521 C520 2.835 . S
Eu521 O540 2.473 . S
Eu521 O541 2.480 . S
Eu521 O542 2.430 . S
Eu521 O543 2.670 . S
Eu521 O544 2.394 . S
Eu521 O549 2.355 1_565 S
Eu521 O551 2.374 . S
C522 C520 1.500 . S
C522 C523 1.377 . S
C522 C527 1.377 . S
C523 C522 1.377 . S
C523 C524 1.395 . S
C523 H552 0.931 . S
C524 C523 1.395 . S
C524 C525 1.383 . S
C524 H553 0.931 . S
C525 C524 1.383 . S
C525 C526 1.394 . S
C526 C525 1.394 . S
C526 C527 1.378 . S
C526 H554 0.931 1_565 S
C527 C522 1.377 . S
C527 C526 1.378 . S
C527 H555 0.931 1_565 S
C528 O542 1.259 . S
C528 O543 1.270 . S
C529 O544 1.251 1_545 S
C529 O545 1.251 . S
C530 Eu531 2.835 . S
C530 C532 1.500 . S
C530 O546 1.257 . S
C530 O547 1.260 . S
Eu531 C530 2.835 . S
Eu531 O543 2.355 1_545 S
Eu531 O545 2.374 . S
Eu531 O546 2.473 . S
Eu531 O547 2.480 . S
Eu531 O548 2.430 . S
Eu531 O549 2.670 . S
Eu531 O550 2.394 . S
C532 C530 1.500 . S
C532 C533 1.377 . S
C532 C537 1.377 . S
C533 C532 1.377 . S
C533 C534 1.395 . S
C533 H556 0.931 . S
C534 C533 1.395 . S
C534 C535 1.383 1_556 S
C534 H557 0.931 . S
C535 C534 1.383 1_554 S
C535 C536 1.394 . S
C536 C535 1.394 . S
C536 C537 1.378 1_554 S
C536 H558 0.931 1_545 S
C537 C532 1.377 . S
C537 C536 1.378 1_556 S
C537 H559 0.931 1_545 S
C538 O548 1.259 . S
C538 O549 1.270 . S
C539 O550 1.251 1_565 S
C539 O551 1.251 . S
O540 C520 1.257 . S
O540 Eu521 2.473 . S
O541 C520 1.260 . S
O541 Eu521 2.480 . S
O542 Eu521 2.430 . S
O542 C528 1.259 . S
O543 Eu521 2.670 . S
O543 C528 1.270 . S
O543 Eu531 2.355 1_565 S
O544 Eu521 2.394 . S
O544 C529 1.251 1_565 S
O545 C529 1.251 . S
O545 Eu531 2.374 . S
O546 C530 1.257 . S
O546 Eu531 2.473 . S
O547 C530 1.260 . S
O547 Eu531 2.480 . S
O548 Eu531 2.430 . S
O548 C538 1.259 . S
O549 Eu521 2.355 1_545 S
O549 Eu531 2.670 . S
O549 C538 1.270 . S
O550 Eu531 2.394 . S
O550 C539 1.251 1_545 S
O551 Eu521 2.374 . S
O551 C539 1.251 . S
H552 C523 0.931 . S
H553 C524 0.931 . S
H554 C526 0.931 1_545 S
H555 C527 0.931 1_545 S
H556 C533 0.931 . S
H557 C534 0.931 . S
H558 C536 0.931 1_565 S
H559 C537 0.931 1_565 S
C560 Eu561 2.835 . S
C560 C562 1.500 . S
C560 O580 1.257 . S
C560 O581 1.260 . S
Eu561 C560 2.835 . S
Eu561 O580 2.473 . S
Eu561 O581 2.480 . S
Eu561 O582 2.430 . S
Eu561 O583 2.670 . S
Eu561 O584 2.394 . S
Eu561 O589 2.355 . S
Eu561 O591 2.374 . S
C562 C560 1.500 . S
C562 C563 1.377 . S
C562 C567 1.377 . S
C563 C562 1.377 . S
C563 C564 1.395 . S
C563 H592 0.931 . S
C564 C563 1.395 . S
C564 C565 1.383 . S
C564 H593 0.931 . S
C565 C564 1.383 . S
C565 C566 1.394 . S
C566 C565 1.394 . S
C566 C567 1.378 . S
C566 H594 0.931 . S
C567 C562 1.377 . S
C567 C566 1.378 . S
C567 H595 0.931 . S
C568 O582 1.259 . S
C568 O583 1.270 . S
C569 O584 1.251 . S
C569 O585 1.251 . S
C570 Eu571 2.835 . S
C570 C572 1.500 . S
C570 O586 1.257 . S
C570 O587 1.260 . S
Eu571 C570 2.835 . S
Eu571 O583 2.355 . S
Eu571 O585 2.374 . S
Eu571 O586 2.473 . S
Eu571 O587 2.480 . S
Eu571 O588 2.430 . S
Eu571 O589 2.670 . S
Eu571 O590 2.394 . S
C572 C570 1.500 . S
C572 C573 1.377 . S
C572 C577 1.377 . S
C573 C572 1.377 . S
C573 C574 1.395 . S
C573 H596 0.931 . S
C574 C573 1.395 . S
C574 C575 1.383 1_556 S
C574 H597 0.931 1_556 S
C575 C574 1.383 1_554 S
C575 C576 1.394 . S
C576 C575 1.394 . S
C576 C577 1.378 1_554 S
C576 H598 0.931 . S
C577 C572 1.377 . S
C577 C576 1.378 1_556 S
C577 H599 0.931 . S
C578 O588 1.259 . S
C578 O589 1.270 . S
C579 O590 1.251 . S
C579 O591 1.251 . S
O580 C560 1.257 . S
O580 Eu561 2.473 . S
O581 C560 1.260 . S
O581 Eu561 2.480 . S
O582 Eu561 2.430 . S
O582 C568 1.259 . S
O583 Eu561 2.670 . S
O583 C568 1.270 . S
O583 Eu571 2.355 . S
O584 Eu561 2.394 . S
O584 C569 1.251 . S
O585 C569 1.251 . S
O585 Eu571 2.374 . S
O586 C570 1.257 . S
O586 Eu571 2.473 . S
O587 C570 1.260 . S
O587 Eu571 2.480 . S
O588 Eu571 2.430 . S
O588 C578 1.259 . S
O589 Eu561 2.355 . S
O589 Eu571 2.670 . S
O589 C578 1.270 . S
O590 Eu571 2.394 . S
O590 C579 1.251 . S
O591 Eu561 2.374 . S
O591 C579 1.251 . S
H592 C563 0.931 . S
H593 C564 0.931 . S
H594 C566 0.931 . S
H595 C567 0.931 . S
H596 C573 0.931 . S
H597 C574 0.931 1_554 S
H598 C576 0.931 . S
H599 C577 0.931 . S
C600 Eu601 2.835 . S
C600 C602 1.500 . S
C600 O620 1.257 . S
C600 O621 1.260 . S
Eu601 C600 2.835 . S
Eu601 O620 2.473 . S
Eu601 O621 2.480 . S
Eu601 O622 2.430 . S
Eu601 O623 2.670 1_455 S
Eu601 O624 2.394 . S
Eu601 O629 2.355 . S
Eu601 O631 2.374 1_455 S
C602 C600 1.500 . S
C602 C603 1.377 . S
C602 C607 1.377 . S
C603 C602 1.377 . S
C603 C604 1.395 . S
C603 H632 0.931 . S
C604 C603 1.395 . S
C604 C605 1.383 . S
C604 H633 0.931 . S
C605 C604 1.383 . S
C605 C606 1.394 . S
C606 C605 1.394 . S
C606 C607 1.378 . S
C606 H634 0.931 . S
C607 C602 1.377 . S
C607 C606 1.378 . S
C607 H635 0.931 . S
C608 O622 1.259 . S
C608 O623 1.270 1_455 S
C609 O624 1.251 . S
C609 O625 1.251 . S
C610 Eu611 2.835 . S
C610 C612 1.500 . S
C610 O626 1.257 . S
C610 O627 1.260 . S
Eu611 C610 2.835 . S
Eu611 O623 2.355 . S
Eu611 O625 2.374 1_655 S
Eu611 O626 2.473 . S
Eu611 O627 2.480 . S
Eu611 O628 2.430 . S
Eu611 O629 2.670 1_655 S
Eu611 O630 2.394 . S
C612 C610 1.500 . S
C612 C613 1.377 . S
C612 C617 1.377 . S
C613 C612 1.377 . S
C613 C614 1.395 . S
C613 H636 0.931 . S
C614 C613 1.395 . S
C614 C615 1.383 1_556 S
C614 H637 0.931 . S
C615 C614 1.383 1_554 S
C615 C616 1.394 . S
C616 C615 1.394 . S
C616 C617 1.378 1_554 S
C616 H638 0.931 . S
C617 C612 1.377 . S
C617 C616 1.378 1_556 S
C617 H639 0.931 . S
C618 O628 1.259 1_455 S
C618 O629 1.270 . S
C619 O630 1.251 . S
C619 O631 1.251 . S
O620 C600 1.257 . S
O620 Eu601 2.473 . S
O621 C600 1.260 . S
O621 Eu601 2.480 . S
O622 Eu601 2.430 . S
O622 C608 1.259 . S
O623 Eu601 2.670 1_655 S
O623 C608 1.270 1_655 S
O623 Eu611 2.355 . S
O624 Eu601 2.394 . S
O624 C609 1.251 . S
O625 C609 1.251 . S
O625 Eu611 2.374 1_455 S
O626 C610 1.257 . S
O626 Eu611 2.473 . S
O627 C610 1.260 . S
O627 Eu611 2.480 . S
O628 Eu611 2.430 . S
O628 C618 1.259 1_655 S
O629 Eu601 2.355 . S
O629 Eu611 2.670 1_455 S
O629 C618 1.270 . S
O630 Eu611 2.394 . S
O630 C619 1.251 . S
O631 Eu601 2.374 1_655 S
O631 C619 1.251 . S
H632 C603 0.931 . S
H633 C604 0.931 . S
H634 C606 0.931 . S
H635 C607 0.931 . S
H636 C613 0.931 . S
H637 C614 0.931 . S
H638 C616 0.931 . S
H639 C617 0.931 . S
C640 C641 1.364 1_565 S
C640 C646 1.379 . S
C640 N648 1.356 . S
C641 C640 1.364 1_545 S
C641 C647 1.362 . S
C642 C643 1.362 . S
C642 C647 1.379 . S
C642 N649 1.356 . S
C643 C642 1.362 . S
C643 C646 1.364 1_545 S
N644 C646 1.356 . S
N644 H656 0.984 . S
N644 H657 0.985 . S
N645 C647 1.356 . S
N645 H650 0.984 . S
N645 H651 0.985 . S
C646 C640 1.379 . S
C646 C643 1.364 1_565 S
C646 N644 1.356 . S
C647 C641 1.362 . S
C647 C642 1.379 . S
C647 N645 1.356 . S
N648 C640 1.356 . S
N648 H654 0.984 . S
N648 H655 0.984 . S
N649 C642 1.356 . S
N649 H652 0.984 . S
N649 H653 0.985 . S
H650 N645 0.984 . S
H651 N645 0.985 . S
H652 N649 0.984 . S
H653 N649 0.985 . S
H654 N648 0.984 . S
H655 N648 0.984 . S
H656 N644 0.984 . S
H657 N644 0.985 . S
C658 C659 1.363 . S
C658 C664 1.379 . S
C658 N666 1.356 . S
C659 C658 1.363 . S
C659 C665 1.363 . S
C660 C661 1.363 . S
C660 C665 1.379 . S
C660 N667 1.356 . S
C661 C660 1.363 . S
C661 C664 1.363 . S
N662 C664 1.356 . S
N662 H674 0.984 . S
N662 H675 0.985 . S
N663 C665 1.356 . S
N663 H668 0.984 . S
N663 H669 0.985 . S
C664 C658 1.379 . S
C664 C661 1.363 . S
C664 N662 1.356 . S
C665 C659 1.363 . S
C665 C660 1.379 . S
C665 N663 1.356 . S
N666 C658 1.356 . S
N666 H672 0.984 . S
N666 H673 0.984 . S
N667 C660 1.356 . S
N667 H670 0.984 . S
N667 H671 0.985 . S
H668 N663 0.984 . S
H669 N663 0.985 . S
H670 N667 0.984 . S
H671 N667 0.985 . S
H672 N666 0.984 . S
H673 N666 0.984 . S
H674 N662 0.984 . S
H675 N662 0.985 . S
C676 C677 1.363 . S
C676 C682 1.379 . S
C676 N684 1.356 . S
C677 C676 1.363 . S
C677 C683 1.363 . S
C678 C679 1.363 . S
C678 C683 1.379 . S
C678 N685 1.356 . S
C679 C678 1.363 . S
C679 C682 1.363 . S
N680 C682 1.356 . S
N680 H692 0.984 . S
N680 H693 0.985 . S
N681 C683 1.356 . S
N681 H686 0.984 . S
N681 H687 0.985 . S
C682 C676 1.379 . S
C682 C679 1.363 . S
C682 N680 1.356 . S
C683 C677 1.363 . S
C683 C678 1.379 . S
C683 N681 1.356 . S
N684 C676 1.356 . S
N684 H690 0.984 . S
N684 H691 0.984 . S
N685 C678 1.356 . S
N685 H688 0.984 . S
N685 H689 0.985 . S
H686 N681 0.984 . S
H687 N681 0.985 . S
H688 N685 0.984 . S
H689 N685 0.985 . S
H690 N684 0.984 . S
H691 N684 0.984 . S
H692 N680 0.984 . S
H693 N680 0.985 . S
C694 C695 1.374 . S
C694 C700 1.379 . S
C694 N702 1.356 . S
C695 C694 1.374 . S
C695 C701 1.352 1_455 S
C696 C697 1.363 1_655 S
C696 C701 1.379 . S
C696 N703 1.356 . S
C697 C696 1.363 1_455 S
C697 C700 1.363 . S
N698 C700 1.356 . S
N698 H710 0.984 . S
N698 H711 0.985 . S
N699 C701 1.356 . S
N699 H704 0.984 . S
N699 H705 0.985 . S
C700 C694 1.379 . S
C700 C697 1.363 . S
C700 N698 1.356 . S
C701 C695 1.352 1_655 S
C701 C696 1.379 . S
C701 N699 1.356 . S
N702 C694 1.356 . S
N702 H708 0.984 . S
N702 H709 0.984 . S
N703 C696 1.356 . S
N703 H706 0.984 . S
N703 H707 0.985 . S
H704 N699 0.984 . S
H705 N699 0.985 . S
H706 N703 0.984 . S
H707 N703 0.985 . S
H708 N702 0.984 . S
H709 N702 0.984 . S
H710 N698 0.984 . S
H711 N698 0.985 . S
C712 C713 1.364 . S
C712 C718 1.379 . S
C712 N720 1.356 . S
C713 C712 1.364 . S
C713 C719 1.362 1_545 S
C714 C715 1.362 1_564 S
C714 C719 1.379 . S
C714 N721 1.356 1_554 S
C715 C714 1.362 1_546 S
C715 C718 1.364 1_556 S
N716 C718 1.356 1_556 S
N716 H728 0.984 . S
N716 H729 0.985 . S
N717 C719 1.356 . S
N717 H722 0.984 . S
N717 H723 0.985 . S
C718 C712 1.379 . S
C718 C715 1.364 1_554 S
C718 N716 1.356 1_554 S
C719 C713 1.362 1_565 S
C719 C714 1.379 . S
C719 N717 1.356 . S
N720 C712 1.356 . S
N720 H726 0.984 . S
N720 H727 0.984 . S
N721 C714 1.356 1_556 S
N721 H724 0.984 . S
N721 H725 0.985 1_556 S
H722 N717 0.984 . S
H723 N717 0.985 . S
H724 N721 0.984 . S
H725 N721 0.985 1_554 S
H726 N720 0.984 . S
H727 N720 0.984 . S
H728 N716 0.984 . S
H729 N716 0.985 . S
C730 C731 1.363 . S
C730 C736 1.379 . S
C730 N738 1.356 . S
C731 C730 1.363 . S
C731 C737 1.363 . S
C732 C733 1.363 1_554 S
C732 C737 1.379 . S
C732 N739 1.356 1_554 S
C733 C732 1.363 1_556 S
C733 C736 1.363 1_556 S
N734 C736 1.356 1_556 S
N734 H746 0.984 . S
N734 H747 0.985 . S
N735 C737 1.356 . S
N735 H740 0.984 . S
N735 H741 0.985 . S
C736 C730 1.379 . S
C736 C733 1.363 1_554 S
C736 N734 1.356 1_554 S
C737 C731 1.363 . S
C737 C732 1.379 . S
C737 N735 1.356 . S
N738 C730 1.356 . S
N738 H744 0.984 . S
N738 H745 0.984 . S
N739 C732 1.356 1_556 S
N739 H742 0.984 . S
N739 H743 0.985 . S
H740 N735 0.984 . S
H741 N735 0.985 . S
H742 N739 0.984 . S
H743 N739 0.985 . S
H744 N738 0.984 . S
H745 N738 0.984 . S
H746 N734 0.984 . S
H747 N734 0.985 . S
C748 C749 1.363 . S
C748 C754 1.379 . S
C748 N756 1.356 . S
C749 C748 1.363 . S
C749 C755 1.363 . S
C750 C751 1.363 1_554 S
C750 C755 1.379 . S
C750 N757 1.356 1_554 S
C751 C750 1.363 1_556 S
C751 C754 1.363 1_556 S
N752 C754 1.356 1_556 S
N752 H764 0.984 1_556 S
N752 H765 0.985 . S
N753 C755 1.356 . S
N753 H758 0.984 . S
N753 H759 0.985 . S
C754 C748 1.379 . S
C754 C751 1.363 1_554 S
C754 N752 1.356 1_554 S
C755 C749 1.363 . S
C755 C750 1.379 . S
C755 N753 1.356 . S
N756 C748 1.356 . S
N756 H762 0.984 . S
N756 H763 0.984 . S
N757 C750 1.356 1_556 S
N757 H760 0.984 . S
N757 H761 0.985 . S
H758 N753 0.984 . S
H759 N753 0.985 . S
H760 N757 0.984 . S
H761 N757 0.985 . S
H762 N756 0.984 . S
H763 N756 0.984 . S
H764 N752 0.984 1_554 S
H765 N752 0.985 . S
C766 C767 1.375 . S
C766 C772 1.379 . S
C766 N774 1.356 . S
C767 C766 1.375 . S
C767 C773 1.351 1_655 S
C768 C769 1.363 1_454 S
C768 C773 1.379 . S
C768 N775 1.356 1_554 S
C769 C768 1.363 1_656 S
C769 C772 1.363 1_556 S
N770 C772 1.356 1_556 S
N770 H782 0.984 . S
N770 H783 0.985 . S
N771 C773 1.356 . S
N771 H776 0.984 . S
N771 H777 0.985 . S
C772 C766 1.379 . S
C772 C769 1.363 1_554 S
C772 N770 1.356 1_554 S
C773 C767 1.351 1_455 S
C773 C768 1.379 . S
C773 N771 1.356 . S
N774 C766 1.356 . S
N774 H780 0.984 . S
N774 H781 0.984 . S
N775 C768 1.356 1_556 S
N775 H778 0.984 . S
N775 H779 0.985 1_556 S
H776 N771 0.984 . S
H777 N771 0.985 . S
H778 N775 0.984 . S
H779 N775 0.985 1_554 S
H780 N774 0.984 . S
H781 N774 0.984 . S
H782 N770 0.984 . S
H783 N770 0.985 . S
C784 C785 1.363 . S
C784 C790 1.379 . S
C784 N792 1.356 1_655 S
C785 C784 1.363 . S
C785 C791 1.361 . S
C786 C787 1.363 . S
C786 C791 1.379 . S
C786 N793 1.356 . S
C787 C786 1.363 . S
C787 C790 1.363 . S
N788 C790 1.356 . S
N788 H800 0.984 . S
N788 H801 0.985 . S
N789 C791 1.356 . S
N789 H794 0.984 1_655 S
N789 H795 0.985 . S
C790 C784 1.379 . S
C790 C787 1.363 . S
C790 N788 1.356 . S
C791 C785 1.361 . S
C791 C786 1.379 . S
C791 N789 1.356 . S
N792 C784 1.356 1_455 S
N792 H798 0.984 . S
N792 H799 0.984 . S
N793 C786 1.356 . S
N793 H796 0.984 . S
N793 H797 0.985 . S
H794 N789 0.984 1_455 S
H795 N789 0.985 . S
H796 N793 0.984 . S
H797 N793 0.985 . S
H798 N792 0.984 . S
H799 N792 0.984 . S
H800 N788 0.984 . S
H801 N788 0.985 . S
C802 C803 1.364 . S
C802 C808 1.379 1_545 S
C802 N810 1.356 . S
C803 C802 1.364 . S
C803 C809 1.360 1_545 S
C804 C805 1.363 . S
C804 C809 1.379 . S
C804 N811 1.356 . S
C805 C804 1.363 . S
C805 C808 1.363 . S
N806 C808 1.356 . S
N806 H818 0.984 1_565 S
N806 H819 0.985 . S
N807 C809 1.356 . S
N807 H812 0.984 . S
N807 H813 0.985 . S
C808 C802 1.379 1_565 S
C808 C805 1.363 . S
C808 N806 1.356 . S
C809 C803 1.360 1_565 S
C809 C804 1.379 . S
C809 N807 1.356 . S
N810 C802 1.356 . S
N810 H816 0.984 . S
N810 H817 0.984 . S
N811 C804 1.356 . S
N811 H814 0.984 . S
N811 H815 0.985 . S
H812 N807 0.984 . S
H813 N807 0.985 . S
H814 N811 0.984 . S
H815 N811 0.985 . S
H816 N810 0.984 . S
H817 N810 0.984 . S
H818 N806 0.984 1_545 S
H819 N806 0.985 . S
C820 C821 1.363 . S
C820 C826 1.379 . S
C820 N828 1.356 . S
C821 C820 1.363 . S
C821 C827 1.363 . S
C822 C823 1.363 . S
C822 C827 1.379 . S
C822 N829 1.356 . S
C823 C822 1.363 . S
C823 C826 1.363 . S
N824 C826 1.356 . S
N824 H836 0.984 . S
N824 H837 0.985 . S
N825 C827 1.356 . S
N825 H830 0.984 . S
N825 H831 0.985 . S
C826 C820 1.379 . S
C826 C823 1.363 . S
C826 N824 1.356 . S
C827 C821 1.363 . S
C827 C822 1.379 . S
C827 N825 1.356 . S
N828 C820 1.356 . S
N828 H834 0.984 . S
N828 H835 0.984 . S
N829 C822 1.356 . S
N829 H832 0.984 . S
N829 H833 0.985 . S
H830 N825 0.984 . S
H831 N825 0.985 . S
H832 N829 0.984 . S
H833 N829 0.985 . S
H834 N828 0.984 . S
H835 N828 0.984 . S
H836 N824 0.984 . S
H837 N824 0.985 . S
C838 C839 1.363 . S
C838 C844 1.379 . S
C838 N846 1.356 . S
C839 C838 1.363 . S
C839 C845 1.363 . S
C840 C841 1.363 . S
C840 C845 1.379 . S
C840 N847 1.356 . S
C841 C840 1.363 . S
C841 C844 1.363 . S
N842 C844 1.356 . S
N842 H854 0.984 . S
N842 H855 0.985 . S
N843 C845 1.356 . S
N843 H848 0.984 . S
N843 H849 0.985 . S
C844 C838 1.379 . S
C844 C841 1.363 . S
C844 N842 1.356 . S
C845 C839 1.363 . S
C845 C840 1.379 . S
C845 N843 1.356 . S
N846 C838 1.356 . S
N846 H852 0.984 . S
N846 H853 0.984 . S
N847 C840 1.356 . S
N847 H850 0.984 . S
N847 H851 0.985 . S
H848 N843 0.984 . S
H849 N843 0.985 . S
H850 N847 0.984 . S
H851 N847 0.985 . S
H852 N846 0.984 . S
H853 N846 0.984 . S
H854 N842 0.984 . S
H855 N842 0.985 . S
C856 C857 1.361 . S
C856 C862 1.379 . S
C856 N864 1.356 1_554 S
C857 C856 1.361 . S
C857 C863 1.362 . S
C858 C859 1.363 . S
C858 C863 1.379 . S
C858 N865 1.356 . S
C859 C858 1.363 . S
C859 C862 1.363 . S
N860 C862 1.356 1_556 S
N860 H872 0.984 . S
N860 H873 0.985 . S
N861 C863 1.356 1_655 S
N861 H866 0.984 . S
N861 H867 0.985 . S
C862 C856 1.379 . S
C862 C859 1.363 . S
C862 N860 1.356 1_554 S
C863 C857 1.362 . S
C863 C858 1.379 . S
C863 N861 1.356 1_455 S
N864 C856 1.356 1_556 S
N864 H870 0.984 . S
N864 H871 0.984 1_456 S
N865 C858 1.356 . S
N865 H868 0.984 . S
N865 H869 0.985 . S
H866 N861 0.984 . S
H867 N861 0.985 . S
H868 N865 0.984 . S
H869 N865 0.985 . S
H870 N864 0.984 . S
H871 N864 0.984 1_654 S
H872 N860 0.984 . S
H873 N860 0.985 . S
C874 C875 1.363 1_565 S
C874 C880 1.379 1_565 S
C874 N882 1.356 . S
C875 C874 1.363 1_545 S
C875 C881 1.361 . S
C876 C877 1.363 . S
C876 C881 1.379 . S
C876 N883 1.356 1_554 S
C877 C876 1.363 . S
C877 C880 1.363 . S
N878 C880 1.356 . S
N878 H890 0.984 . S
N878 H891 0.985 . S
N879 C881 1.356 . S
N879 H884 0.979 1_545 S
N879 H885 0.978 1_554 S
C880 C874 1.379 1_545 S
C880 C877 1.363 . S
C880 N878 1.356 . S
C881 C875 1.361 . S
C881 C876 1.379 . S
C881 N879 1.356 . S
N882 C874 1.356 . S
N882 H888 0.984 . S
N882 H889 0.984 . S
N883 C876 1.356 1_556 S
N883 H886 0.984 . S
N883 H887 0.985 . S
H884 N879 0.979 1_565 S
H885 N879 0.978 1_556 S
H886 N883 0.984 . S
H887 N883 0.985 . S
H888 N882 0.984 . S
H889 N882 0.984 . S
H890 N878 0.984 . S
H891 N878 0.985 . S
C892 C893 1.363 . S
C892 C898 1.379 . S
C892 N900 1.356 1_554 S
C893 C892 1.363 . S
C893 C899 1.363 . S
C894 C895 1.363 . S
C894 C899 1.379 . S
C894 N901 1.356 . S
C895 C894 1.363 . S
C895 C898 1.363 . S
N896 C898 1.356 1_556 S
N896 H908 0.984 . S
N896 H909 0.985 . S
N897 C899 1.356 . S
N897 H902 0.984 . S
N897 H903 0.985 . S
C898 C892 1.379 . S
C898 C895 1.363 . S
C898 N896 1.356 1_554 S
C899 C893 1.363 . S
C899 C894 1.379 . S
C899 N897 1.356 . S
N900 C892 1.356 1_556 S
N900 H906 0.984 . S
N900 H907 0.984 1_556 S
N901 C894 1.356 . S
N901 H904 0.984 . S
N901 H905 0.985 . S
H902 N897 0.984 . S
H903 N897 0.985 . S
H904 N901 0.984 . S
H905 N901 0.985 . S
H906 N900 0.984 . S
H907 N900 0.984 1_554 S
H908 N896 0.984 . S
H909 N896 0.985 . S
C910 C911 1.363 . S
C910 C916 1.379 . S
C910 N918 1.356 . S
C911 C910 1.363 . S
C911 C917 1.363 . S
C912 C913 1.363 . S
C912 C917 1.379 . S
C912 N919 1.356 . S
C913 C912 1.363 . S
C913 C916 1.363 . S
N914 C916 1.356 1_556 S
N914 H926 0.984 . S
N914 H927 0.985 . S
N915 C917 1.356 . S
N915 H920 0.984 . S
N915 H921 0.985 . S
C916 C910 1.379 . S
C916 C913 1.363 . S
C916 N914 1.356 1_554 S
C917 C911 1.363 . S
C917 C912 1.379 . S
C917 N915 1.356 . S
N918 C910 1.356 . S
N918 H924 0.984 . S
N918 H925 0.984 . S
N919 C912 1.356 . S
N919 H922 0.984 . S
N919 H923 0.985 . S
H920 N915 0.984 . S
H921 N915 0.985 . S
H922 N919 0.984 . S
H923 N919 0.985 . S
H924 N918 0.984 . S
H925 N918 0.984 . S
H926 N914 0.984 . S
H927 N914 0.985 . S
C928 C929 1.363 . S
C928 C934 1.379 . S
C928 N936 1.356 . S
C929 C928 1.363 . S
C929 C935 1.364 . S
C930 C931 1.363 . S
C930 C935 1.379 . S
C930 N937 1.354 1_455 S
C931 C930 1.363 . S
C931 C934 1.363 . S
N932 C934 1.356 . S
N932 H944 0.984 . S
N932 H945 0.985 . S
N933 C935 1.355 1_655 S
N933 H938 0.984 . S
N933 H939 0.985 . S
C934 C928 1.379 . S
C934 C931 1.363 . S
C934 N932 1.356 . S
C935 C929 1.364 . S
C935 C930 1.379 . S
C935 N933 1.355 1_455 S
N936 C928 1.356 . S
N936 H942 0.984 . S
N936 H943 0.984 . S
N937 C930 1.354 1_655 S
N937 H940 0.982 1_655 S
N937 H941 0.990 . S
H938 N933 0.984 . S
H939 N933 0.985 . S
H940 N937 0.982 1_455 S
H941 N937 0.990 . S
H942 N936 0.984 . S
H943 N936 0.984 . S
H944 N932 0.984 . S
H945 N932 0.985 . S
C946 C947 1.363 1_565 S
C946 C952 1.379 . S
C946 N954 1.356 . S
C947 C946 1.363 1_545 S
C947 C953 1.363 . S
C948 C949 1.363 . S
C948 C953 1.379 . S
C948 N955 1.356 . S
C949 C948 1.363 . S
C949 C952 1.363 1_545 S
N950 C952 1.356 . S
N950 H962 0.984 . S
N950 H963 0.985 . S
N951 C953 1.356 . S
N951 H956 0.984 . S
N951 H957 0.985 . S
C952 C946 1.379 . S
C952 C949 1.363 1_565 S
C952 N950 1.356 . S
C953 C947 1.363 . S
C953 C948 1.379 . S
C953 N951 1.356 . S
N954 C946 1.356 . S
N954 H960 0.984 . S
N954 H961 0.984 . S
N955 C948 1.356 . S
N955 H958 0.984 . S
N955 H959 0.985 . S
H956 N951 0.984 . S
H957 N951 0.985 . S
H958 N955 0.984 . S
H959 N955 0.985 . S
H960 N954 0.984 . S
H961 N954 0.984 . S
H962 N950 0.984 . S
H963 N950 0.985 . S
C964 C965 1.363 . S
C964 C970 1.379 . S
C964 N972 1.356 . S
C965 C964 1.363 . S
C965 C971 1.363 . S
C966 C967 1.363 . S
C966 C971 1.379 . S
C966 N973 1.356 . S
C967 C966 1.363 . S
C967 C970 1.363 . S
N968 C970 1.356 . S
N968 H980 0.984 . S
N968 H981 0.985 . S
N969 C971 1.356 . S
N969 H974 0.984 . S
N969 H975 0.985 . S
C970 C964 1.379 . S
C970 C967 1.363 . S
C970 N968 1.356 . S
C971 C965 1.363 . S
C971 C966 1.379 . S
C971 N969 1.356 . S
N972 C964 1.356 . S
N972 H978 0.984 . S
N972 H979 0.984 . S
N973 C966 1.356 . S
N973 H976 0.984 . S
N973 H977 0.985 . S
H974 N969 0.984 . S
H975 N969 0.985 . S
H976 N973 0.984 . S
H977 N973 0.985 . S
H978 N972 0.984 . S
H979 N972 0.984 . S
H980 N968 0.984 . S
H981 N968 0.985 . S
C982 C983 1.363 . S
C982 C988 1.379 . S
C982 N990 1.356 . S
C983 C982 1.363 . S
C983 C989 1.363 . S
C984 C985 1.363 . S
C984 C989 1.379 . S
C984 N991 1.356 . S
C985 C984 1.363 . S
C985 C988 1.363 . S
N986 C988 1.356 . S
N986 H998 0.984 . S
N986 H999 0.985 . S
N987 C989 1.356 . S
N987 H992 0.984 . S
N987 H993 0.985 . S
C988 C982 1.379 . S
C988 C985 1.363 . S
C988 N986 1.356 . S
C989 C983 1.363 . S
C989 C984 1.379 . S
C989 N987 1.356 . S
N990 C982 1.356 . S
N990 H996 0.984 . S
N990 H997 0.984 . S
N991 C984 1.356 . S
N991 H994 0.984 . S
N991 H995 0.985 . S
H992 N987 0.984 . S
H993 N987 0.985 . S
H994 N991 0.984 . S
H995 N991 0.985 . S
H996 N990 0.984 . S
H997 N990 0.984 . S
H998 N986 0.984 . S
H999 N986 0.985 . S
C1000 C1001 1.363 . S
C1000 C1006 1.379 . S
C1000 N1008 1.356 . S
C1001 C1000 1.363 . S
C1001 C1007 1.363 1_655 S
C1002 C1003 1.363 1_455 S
C1002 C1007 1.379 . S
C1002 N1009 1.356 . S
C1003 C1002 1.363 1_655 S
C1003 C1006 1.363 . S
N1004 C1006 1.356 . S
N1004 H1016 0.984 . S
N1004 H1017 0.985 . S
N1005 C1007 1.356 . S
N1005 H1010 0.984 . S
N1005 H1011 0.985 . S
C1006 C1000 1.379 . S
C1006 C1003 1.363 . S
C1006 N1004 1.356 . S
C1007 C1001 1.363 1_455 S
C1007 C1002 1.379 . S
C1007 N1005 1.356 . S
N1008 C1000 1.356 . S
N1008 H1014 0.984 . S
N1008 H1015 0.984 . S
N1009 C1002 1.356 . S
N1009 H1012 0.984 . S
N1009 H1013 0.985 . S
H1010 N1005 0.984 . S
H1011 N1005 0.985 . S
H1012 N1009 0.984 . S
H1013 N1009 0.985 . S
H1014 N1008 0.984 . S
H1015 N1008 0.984 . S
H1016 N1004 0.984 . S
H1017 N1004 0.985 . S
C1018 C1019 1.363 1_545 S
C1018 C1024 1.379 . S
C1018 N1026 1.356 . S
C1019 C1018 1.363 1_565 S
C1019 C1025 1.363 . S
C1020 C1021 1.363 . S
C1020 C1025 1.379 . S
C1020 N1027 1.356 . S
C1021 C1020 1.363 . S
C1021 C1024 1.363 1_565 S
N1022 C1024 1.356 . S
N1022 H1034 0.984 . S
N1022 H1035 0.985 . S
N1023 C1025 1.356 . S
N1023 H1028 0.984 . S
N1023 H1029 0.985 . S
C1024 C1018 1.379 . S
C1024 C1021 1.363 1_545 S
C1024 N1022 1.356 . S
C1025 C1019 1.363 . S
C1025 C1020 1.379 . S
C1025 N1023 1.356 . S
N1026 C1018 1.356 . S
N1026 H1032 0.984 . S
N1026 H1033 0.984 . S
N1027 C1020 1.356 . S
N1027 H1030 0.984 . S
N1027 H1031 0.985 . S
H1028 N1023 0.984 . S
H1029 N1023 0.985 . S
H1030 N1027 0.984 . S
H1031 N1027 0.985 . S
H1032 N1026 0.984 . S
H1033 N1026 0.984 . S
H1034 N1022 0.984 . S
H1035 N1022 0.985 . S
C1036 C1037 1.363 . S
C1036 C1042 1.379 . S
C1036 N1044 1.356 . S
C1037 C1036 1.363 . S
C1037 C1043 1.363 . S
C1038 C1039 1.363 . S
C1038 C1043 1.379 . S
C1038 N1045 1.356 . S
C1039 C1038 1.363 . S
C1039 C1042 1.363 . S
N1040 C1042 1.356 . S
N1040 H1052 0.984 . S
N1040 H1053 0.985 . S
N1041 C1043 1.356 . S
N1041 H1046 0.984 . S
N1041 H1047 0.985 . S
C1042 C1036 1.379 . S
C1042 C1039 1.363 . S
C1042 N1040 1.356 . S
C1043 C1037 1.363 . S
C1043 C1038 1.379 . S
C1043 N1041 1.356 . S
N1044 C1036 1.356 . S
N1044 H1050 0.984 . S
N1044 H1051 0.984 . S
N1045 C1038 1.356 . S
N1045 H1048 0.984 . S
N1045 H1049 0.985 . S
H1046 N1041 0.984 . S
H1047 N1041 0.985 . S
H1048 N1045 0.984 . S
H1049 N1045 0.985 . S
H1050 N1044 0.984 . S
H1051 N1044 0.984 . S
H1052 N1040 0.984 . S
H1053 N1040 0.985 . S
C1054 C1055 1.363 . S
C1054 C1060 1.379 . S
C1054 N1062 1.356 . S
C1055 C1054 1.363 . S
C1055 C1061 1.363 . S
C1056 C1057 1.363 . S
C1056 C1061 1.379 . S
C1056 N1063 1.356 . S
C1057 C1056 1.363 . S
C1057 C1060 1.363 . S
N1058 C1060 1.356 . S
N1058 H1070 0.984 . S
N1058 H1071 0.985 . S
N1059 C1061 1.356 . S
N1059 H1064 0.984 . S
N1059 H1065 0.985 . S
C1060 C1054 1.379 . S
C1060 C1057 1.363 . S
C1060 N1058 1.356 . S
C1061 C1055 1.363 . S
C1061 C1056 1.379 . S
C1061 N1059 1.356 . S
N1062 C1054 1.356 . S
N1062 H1068 0.984 . S
N1062 H1069 0.984 . S
N1063 C1056 1.356 . S
N1063 H1066 0.984 . S
N1063 H1067 0.985 . S
H1064 N1059 0.984 . S
H1065 N1059 0.985 . S
H1066 N1063 0.984 . S
H1067 N1063 0.985 . S
H1068 N1062 0.984 . S
H1069 N1062 0.984 . S
H1070 N1058 0.984 . S
H1071 N1058 0.985 . S
C641 C391 2.705 . S
C643 C498 2.911 1_545 S
C661 C538 2.933 . S
C659 C451 2.718 . S
C679 C578 2.940 . S
C677 C241 2.378 . S
C697 C618 2.916 . S
C695 C331 2.341 1_455 S
C715 C488 2.912 . S
C713 C121 2.336 1_545 S
C731 C211 2.737 . S
C733 C528 2.934 . S
C749 C31 2.745 . S
C751 C568 2.939 . S
C767 C91 2.341 . S
C769 C608 2.916 1_655 S
C787 C485 0.755 . S
C785 C301 0.751 . S
C805 C525 0.748 . S
C803 C380 0.747 . S
C823 C565 0.711 . S
C821 C440 0.692 . S
C839 C260 0.728 . S
C841 C605 0.713 . S
C857 C61 0.756 1_455 S
C859 C495 0.757 . S
C877 C535 0.748 . S
C875 C140 0.750 1_545 S
C895 C575 0.711 . S
C893 C200 0.708 . S
C911 C20 0.713 . S
C913 C615 0.719 . S
C929 C320 3.398 1_455 S
C931 C489 3.702 . S
C947 C361 2.911 . S
C949 C529 3.668 . S
C967 C569 3.655 . S
C965 C421 2.892 . S
C985 C609 3.695 . S
C983 C271 3.390 . S
C1001 C80 3.380 . S
C1003 C499 3.710 . S
C1021 C539 3.668 . S
C1019 C151 3.340 . S
C1039 C579 3.656 . S
C1037 C181 2.932 . S
C1055 C1 2.971 . S
C1057 C619 3.699 . S
